1
 OpenBabel05122313063D

 47 47  0  0  0  0  0  0  0  0999 V2000
    1.1227    0.0289   -0.0285 P   0  0  0  0  0  0  0  0  0  0  0  0
    2.1237    1.4561    0.0920 C   0  0  0  0  0  0  0  0  0  0  0  0
    3.5220    1.3085    0.1175 C   0  0  0  0  0  0  0  0  0  0  0  0
    4.1034    2.2345    0.1959 H   0  0  0  0  0  0  0  0  0  0  0  0
    4.2454    0.1053    0.0491 C   0  0  0  0  0  0  0  0  0  0  0  0
    3.5806   -1.1337   -0.0591 C   0  0  0  0  0  0  0  0  0  0  0  0
    4.2169   -2.0283   -0.1107 H   0  0  0  0  0  0  0  0  0  0  0  0
    2.1973   -1.3532   -0.1031 C   0  0  0  0  0  0  0  0  0  0  0  0
    1.4732    2.8589    0.1073 C   0  0  0  0  0  0  0  0  0  0  0  0
    0.3163    2.9221    1.1273 C   0  0  0  0  0  0  0  0  0  0  0  0
   -0.5067    2.2252    0.8584 H   0  0  0  0  0  0  0  0  0  0  0  0
   -0.1043    3.9479    1.1535 H   0  0  0  0  0  0  0  0  0  0  0  0
    0.6573    2.6535    2.1470 H   0  0  0  0  0  0  0  0  0  0  0  0
    0.9313    3.1589   -1.3108 C   0  0  0  0  0  0  0  0  0  0  0  0
    0.1753    2.4137   -1.6294 H   0  0  0  0  0  0  0  0  0  0  0  0
    1.7530    3.1485   -2.0555 H   0  0  0  0  0  0  0  0  0  0  0  0
    0.4604    4.1639   -1.3304 H   0  0  0  0  0  0  0  0  0  0  0  0
    2.4925    3.9527    0.4829 C   0  0  0  0  0  0  0  0  0  0  0  0
    1.9719    4.9298    0.5273 H   0  0  0  0  0  0  0  0  0  0  0  0
    3.3042    4.0521   -0.2656 H   0  0  0  0  0  0  0  0  0  0  0  0
    2.9503    3.7696    1.4762 H   0  0  0  0  0  0  0  0  0  0  0  0
    5.7888    0.0961    0.0875 C   0  0  0  0  0  0  0  0  0  0  0  0
    6.2612   -0.7335    1.3042 C   0  0  0  0  0  0  0  0  0  0  0  0
    5.8868   -0.2954    2.2513 H   0  0  0  0  0  0  0  0  0  0  0  0
    7.3697   -0.7562    1.3483 H   0  0  0  0  0  0  0  0  0  0  0  0
    5.9065   -1.7820    1.2544 H   0  0  0  0  0  0  0  0  0  0  0  0
    6.3248   -0.5412   -1.2155 C   0  0  0  0  0  0  0  0  0  0  0  0
    5.9718   -1.5837   -1.3434 H   0  0  0  0  0  0  0  0  0  0  0  0
    7.4342   -0.5615   -1.2068 H   0  0  0  0  0  0  0  0  0  0  0  0
    5.9969    0.0372   -2.1027 H   0  0  0  0  0  0  0  0  0  0  0  0
    6.3860    1.5088    0.2108 C   0  0  0  0  0  0  0  0  0  0  0  0
    6.1127    2.1523   -0.6496 H   0  0  0  0  0  0  0  0  0  0  0  0
    7.4921    1.4428    0.2366 H   0  0  0  0  0  0  0  0  0  0  0  0
    6.0623    2.0173    1.1413 H   0  0  0  0  0  0  0  0  0  0  0  0
    1.6159   -2.7837   -0.1754 C   0  0  0  0  0  0  0  0  0  0  0  0
    0.5423   -2.8773   -1.2801 C   0  0  0  0  0  0  0  0  0  0  0  0
   -0.3118   -2.1977   -1.0803 H   0  0  0  0  0  0  0  0  0  0  0  0
    0.1483   -3.9126   -1.3357 H   0  0  0  0  0  0  0  0  0  0  0  0
    0.9555   -2.6044   -2.2717 H   0  0  0  0  0  0  0  0  0  0  0  0
    0.9861   -3.1302    1.1942 C   0  0  0  0  0  0  0  0  0  0  0  0
    0.1777   -2.4243    1.4700 H   0  0  0  0  0  0  0  0  0  0  0  0
    1.7497   -3.0966    1.9976 H   0  0  0  0  0  0  0  0  0  0  0  0
    0.5603   -4.1549    1.1654 H   0  0  0  0  0  0  0  0  0  0  0  0
    2.7076   -3.8259   -0.4872 C   0  0  0  0  0  0  0  0  0  0  0  0
    2.2365   -4.8248   -0.5764 H   0  0  0  0  0  0  0  0  0  0  0  0
    3.4682   -3.8964    0.3163 H   0  0  0  0  0  0  0  0  0  0  0  0
    3.2251   -3.6115   -1.4443 H   0  0  0  0  0  0  0  0  0  0  0  0
  1  2  2  0  0  0  0
  2  9  1  0  0  0  0
  2  3  1  0  0  0  0
  3  4  1  0  0  0  0
  5 22  1  0  0  0  0
  5  3  2  0  0  0  0
  6  5  1  0  0  0  0
  7  6  1  0  0  0  0
  8  6  2  0  0  0  0
  8  1  1  0  0  0  0
  9 18  1  0  0  0  0
  9 10  1  0  0  0  0
 10 12  1  0  0  0  0
 10 13  1  0  0  0  0
 11 10  1  0  0  0  0
 14  9  1  0  0  0  0
 15 14  1  0  0  0  0
 16 14  1  0  0  0  0
 17 14  1  0  0  0  0
 18 19  1  0  0  0  0
 18 21  1  0  0  0  0
 20 18  1  0  0  0  0
 22 31  1  0  0  0  0
 22 23  1  0  0  0  0
 23 25  1  0  0  0  0
 23 24  1  0  0  0  0
 26 23  1  0  0  0  0
 27 29  1  0  0  0  0
 27 22  1  0  0  0  0
 28 27  1  0  0  0  0
 30 27  1  0  0  0  0
 31 33  1  0  0  0  0
 31 34  1  0  0  0  0
 32 31  1  0  0  0  0
 35  8  1  0  0  0  0
 35 40  1  0  0  0  0
 36 37  1  0  0  0  0
 36 35  1  0  0  0  0
 38 36  1  0  0  0  0
 39 36  1  0  0  0  0
 40 41  1  0  0  0  0
 40 42  1  0  0  0  0
 43 40  1  0  0  0  0
 44 35  1  0  0  0  0
 44 46  1  0  0  0  0
 45 44  1  0  0  0  0
 47 44  1  0  0  0  0
M  END
