52
 OpenBabel05122313063D

 52 55  0  0  1  0  0  0  0  0999 V2000
    1.9346    0.5992   -0.9593 C   0  0  1  0  0  0  0  0  0  0  0  0
    2.2221    1.5591   -1.4366 H   0  0  0  0  0  0  0  0  0  0  0  0
    3.1051    0.1200   -0.1040 C   0  0  0  0  0  0  0  0  0  0  0  0
    3.1858    0.7121    0.8346 H   0  0  0  0  0  0  0  0  0  0  0  0
    2.9315   -0.9125    0.2543 H   0  0  0  0  0  0  0  0  0  0  0  0
    4.4357    0.2559   -0.8251 C   0  0  0  0  0  0  0  0  0  0  0  0
    5.6239   -0.4287   -0.2136 C   0  0  0  0  0  0  0  0  0  0  0  0
    5.5326   -1.2243    0.9500 C   0  0  0  0  0  0  0  0  0  0  0  0
    4.5634   -1.3832    1.4466 H   0  0  0  0  0  0  0  0  0  0  0  0
    6.6822   -1.8285    1.4789 C   0  0  0  0  0  0  0  0  0  0  0  0
    6.6047   -2.4480    2.3852 H   0  0  0  0  0  0  0  0  0  0  0  0
    7.9265   -1.6478    0.8538 C   0  0  0  0  0  0  0  0  0  0  0  0
    8.8260   -2.1257    1.2716 H   0  0  0  0  0  0  0  0  0  0  0  0
    8.0235   -0.8591   -0.3066 C   0  0  0  0  0  0  0  0  0  0  0  0
    8.9987   -0.7192   -0.7977 H   0  0  0  0  0  0  0  0  0  0  0  0
    6.8792   -0.2535   -0.8352 C   0  0  0  0  0  0  0  0  0  0  0  0
    6.9176    0.3705   -1.7407 H   0  0  0  0  0  0  0  0  0  0  0  0
    1.5408   -0.3617   -2.0634 C   0  0  0  0  0  0  0  0  0  0  0  0
    1.4118    0.0972   -3.3886 C   0  0  0  0  0  0  0  0  0  0  0  0
    1.6439    1.1484   -3.6165 H   0  0  0  0  0  0  0  0  0  0  0  0
    0.9921   -0.7677   -4.4104 C   0  0  0  0  0  0  0  0  0  0  0  0
    0.8974   -0.3904   -5.4400 H   0  0  0  0  0  0  0  0  0  0  0  0
    0.6952   -2.1084   -4.1202 C   0  0  0  0  0  0  0  0  0  0  0  0
    0.3647   -2.7882   -4.9204 H   0  0  0  0  0  0  0  0  0  0  0  0
    0.8341   -2.5794   -2.8041 C   0  0  0  0  0  0  0  0  0  0  0  0
    0.6149   -3.6327   -2.5693 H   0  0  0  0  0  0  0  0  0  0  0  0
    1.2539   -1.7153   -1.7817 C   0  0  0  0  0  0  0  0  0  0  0  0
    1.3516   -2.0874   -0.7488 H   0  0  0  0  0  0  0  0  0  0  0  0
   -0.5568    1.9940   -1.1544 C   0  0  0  0  0  0  0  0  0  0  0  0
   -1.3131    1.2756   -2.1047 C   0  0  0  0  0  0  0  0  0  0  0  0
   -1.3359    0.1773   -2.0627 H   0  0  0  0  0  0  0  0  0  0  0  0
   -2.0557    1.9565   -3.0772 C   0  0  0  0  0  0  0  0  0  0  0  0
   -2.6424    1.3842   -3.8113 H   0  0  0  0  0  0  0  0  0  0  0  0
   -2.0647    3.3606   -3.1029 C   0  0  0  0  0  0  0  0  0  0  0  0
   -2.6592    3.8952   -3.8594 H   0  0  0  0  0  0  0  0  0  0  0  0
   -1.3225    4.0802   -2.1544 C   0  0  0  0  0  0  0  0  0  0  0  0
   -1.3334    5.1808   -2.1624 H   0  0  0  0  0  0  0  0  0  0  0  0
   -0.5679    3.4017   -1.1837 C   0  0  0  0  0  0  0  0  0  0  0  0
   -0.0017    3.9758   -0.4360 H   0  0  0  0  0  0  0  0  0  0  0  0
    1.0173    2.2352    1.3079 C   0  0  0  0  0  0  0  0  0  0  0  0
    1.9923    3.2090    0.9990 C   0  0  0  0  0  0  0  0  0  0  0  0
    2.4264    3.2640   -0.0111 H   0  0  0  0  0  0  0  0  0  0  0  0
    2.4253    4.1072    1.9853 C   0  0  0  0  0  0  0  0  0  0  0  0
    3.1898    4.8598    1.7395 H   0  0  0  0  0  0  0  0  0  0  0  0
    1.8900    4.0426    3.2825 C   0  0  0  0  0  0  0  0  0  0  0  0
    2.2340    4.7477    4.0544 H   0  0  0  0  0  0  0  0  0  0  0  0
    0.9265    3.0715    3.5963 C   0  0  0  0  0  0  0  0  0  0  0  0
    0.5144    3.0096    4.6147 H   0  0  0  0  0  0  0  0  0  0  0  0
    0.4957    2.1660    2.6153 C   0  0  0  0  0  0  0  0  0  0  0  0
   -0.2395    1.3805    2.8542 H   0  0  0  0  0  0  0  0  0  0  0  0
    4.5454    0.9285   -1.8480 O   0  0  0  0  0  0  0  0  0  0  0  0
    0.4111    1.0185    0.0759 P   0  0  0  0  0  0  0  0  0  0  0  0
  1  2  1  6  0  0  0
  1  3  1  0  0  0  0
  1 52  1  0  0  0  0
  3  5  1  0  0  0  0
  3  4  1  0  0  0  0
  6  7  1  0  0  0  0
  6  3  1  0  0  0  0
  7  8  1  0  0  0  0
  8  9  1  0  0  0  0
  8 10  2  0  0  0  0
 10 11  1  0  0  0  0
 12 13  1  0  0  0  0
 12 10  1  0  0  0  0
 14 12  2  0  0  0  0
 15 14  1  0  0  0  0
 16 14  1  0  0  0  0
 16  7  2  0  0  0  0
 17 16  1  0  0  0  0
 18 27  1  0  0  0  0
 18  1  1  0  0  0  0
 19 18  2  0  0  0  0
 20 19  1  0  0  0  0
 21 23  2  0  0  0  0
 21 19  1  0  0  0  0
 22 21  1  0  0  0  0
 23 25  1  0  0  0  0
 24 23  1  0  0  0  0
 25 26  1  0  0  0  0
 25 27  2  0  0  0  0
 27 28  1  0  0  0  0
 29 52  1  0  0  0  0
 30 31  1  0  0  0  0
 30 29  2  0  0  0  0
 32 30  1  0  0  0  0
 33 32  1  0  0  0  0
 34 32  2  0  0  0  0
 34 36  1  0  0  0  0
 35 34  1  0  0  0  0
 36 38  2  0  0  0  0
 37 36  1  0  0  0  0
 38 29  1  0  0  0  0
 38 39  1  0  0  0  0
 40 49  1  0  0  0  0
 41 40  2  0  0  0  0
 41 43  1  0  0  0  0
 42 41  1  0  0  0  0
 43 45  2  0  0  0  0
 44 43  1  0  0  0  0
 45 47  1  0  0  0  0
 45 46  1  0  0  0  0
 47 48  1  0  0  0  0
 49 50  1  0  0  0  0
 49 47  2  0  0  0  0
 51  6  2  0  0  0  0
 52 40  1  0  0  0  0
M  END
