1
 OpenBabel05122313063D

 35 37  0  0  0  0  0  0  0  0999 V2000
    2.1323    0.2352   -0.4477 P   0  0  0  0  0  0  0  0  0  0  0  0
    1.2584   -2.6740   -1.0995 N   0  0  0  0  0  0  0  0  0  0  0  0
    3.2013   -3.0793   -2.2189 O   0  0  0  0  0  0  0  0  0  0  0  0
    1.4182   -4.1284   -1.0710 C   0  0  0  0  0  0  0  0  0  0  0  0
    1.5199   -4.4666   -0.0162 H   0  0  0  0  0  0  0  0  0  0  0  0
    0.5154   -4.6265   -1.4830 H   0  0  0  0  0  0  0  0  0  0  0  0
    2.6946   -4.4048   -1.9137 C   0  0  0  0  0  0  0  0  0  0  0  0
    2.4860   -4.9233   -2.8725 H   0  0  0  0  0  0  0  0  0  0  0  0
    3.4849   -4.9614   -1.3718 H   0  0  0  0  0  0  0  0  0  0  0  0
    2.2700   -2.1997   -1.7310 C   0  0  0  0  0  0  0  0  0  0  0  0
    2.5666   -0.7538   -1.9600 C   0  0  0  0  0  0  0  0  0  0  0  0
    3.6144   -0.6081   -2.2827 H   0  0  0  0  0  0  0  0  0  0  0  0
    1.8756   -0.3451   -2.7287 H   0  0  0  0  0  0  0  0  0  0  0  0
    2.6130    1.9575   -0.8773 C   0  0  0  0  0  0  0  0  0  0  0  0
    3.9462    2.2857   -1.1966 C   0  0  0  0  0  0  0  0  0  0  0  0
    4.7226    1.5042   -1.1986 H   0  0  0  0  0  0  0  0  0  0  0  0
    4.2891    3.6122   -1.4948 C   0  0  0  0  0  0  0  0  0  0  0  0
    5.3301    3.8653   -1.7477 H   0  0  0  0  0  0  0  0  0  0  0  0
    3.3066    4.6164   -1.4616 C   0  0  0  0  0  0  0  0  0  0  0  0
    3.5785    5.6581   -1.6921 H   0  0  0  0  0  0  0  0  0  0  0  0
    1.9821    4.2913   -1.1294 C   0  0  0  0  0  0  0  0  0  0  0  0
    1.2119    5.0777   -1.0980 H   0  0  0  0  0  0  0  0  0  0  0  0
    1.6294    2.9646   -0.8383 C   0  0  0  0  0  0  0  0  0  0  0  0
    0.5962    2.6901   -0.5770 H   0  0  0  0  0  0  0  0  0  0  0  0
    3.4190   -0.2211    0.7784 C   0  0  0  0  0  0  0  0  0  0  0  0
    3.4514    0.5154    1.9827 C   0  0  0  0  0  0  0  0  0  0  0  0
    2.7091    1.3090    2.1534 H   0  0  0  0  0  0  0  0  0  0  0  0
    4.4130    0.2304    2.9593 C   0  0  0  0  0  0  0  0  0  0  0  0
    4.4294    0.8119    3.8936 H   0  0  0  0  0  0  0  0  0  0  0  0
    5.3457   -0.8003    2.7536 C   0  0  0  0  0  0  0  0  0  0  0  0
    6.0988   -1.0257    3.5241 H   0  0  0  0  0  0  0  0  0  0  0  0
    5.3120   -1.5421    1.5643 C   0  0  0  0  0  0  0  0  0  0  0  0
    6.0396   -2.3508    1.3955 H   0  0  0  0  0  0  0  0  0  0  0  0
    4.3534   -1.2559    0.5776 C   0  0  0  0  0  0  0  0  0  0  0  0
    4.3499   -1.8508   -0.3470 H   0  0  0  0  0  0  0  0  0  0  0  0
  1 25  1  0  0  0  0
  2  4  1  0  0  0  0
  3  7  1  0  0  0  0
  3 10  1  0  0  0  0
  4  5  1  0  0  0  0
  6  4  1  0  0  0  0
  7  9  1  0  0  0  0
  7  4  1  0  0  0  0
  8  7  1  0  0  0  0
 10  2  2  0  0  0  0
 11 10  1  0  0  0  0
 11  1  1  0  0  0  0
 12 11  1  0  0  0  0
 13 11  1  0  0  0  0
 14 23  1  0  0  0  0
 14  1  1  0  0  0  0
 15 14  2  0  0  0  0
 16 15  1  0  0  0  0
 17 19  2  0  0  0  0
 17 15  1  0  0  0  0
 18 17  1  0  0  0  0
 19 21  1  0  0  0  0
 20 19  1  0  0  0  0
 21 22  1  0  0  0  0
 21 23  2  0  0  0  0
 23 24  1  0  0  0  0
 25 26  1  0  0  0  0
 26 27  1  0  0  0  0
 26 28  2  0  0  0  0
 28 29  1  0  0  0  0
 30 28  1  0  0  0  0
 30 31  1  0  0  0  0
 32 30  2  0  0  0  0
 33 32  1  0  0  0  0
 34 25  2  0  0  0  0
 34 32  1  0  0  0  0
 35 34  1  0  0  0  0
M  END
