1
 OpenBabel05122313063D

 48 52  0  0  0  0  0  0  0  0999 V2000
    0.6932    1.4965    0.1638 P   0  0  0  0  0  0  0  0  0  0  0  0
   -1.0508    1.1276    0.0432 C   0  0  0  0  0  0  0  0  0  0  0  0
   -1.8104    2.3588   -0.0434 C   0  0  0  0  0  0  0  0  0  0  0  0
   -3.2132    2.5680   -0.1241 C   0  0  0  0  0  0  0  0  0  0  0  0
   -3.9039    1.7167   -0.1413 H   0  0  0  0  0  0  0  0  0  0  0  0
   -3.7302    3.8617   -0.1834 C   0  0  0  0  0  0  0  0  0  0  0  0
   -4.8203    4.0013   -0.2492 H   0  0  0  0  0  0  0  0  0  0  0  0
   -2.8785    4.9945   -0.1599 C   0  0  0  0  0  0  0  0  0  0  0  0
   -3.3102    6.0058   -0.2087 H   0  0  0  0  0  0  0  0  0  0  0  0
   -1.5006    4.8273   -0.0734 C   0  0  0  0  0  3  0  0  0  0  0  0
   -0.8285    5.6991   -0.0511 H   0  0  0  0  0  0  0  0  0  0  0  0
   -0.9386    3.5228   -0.0149 C   0  0  0  0  0  0  0  0  0  0  0  0
    0.4457    3.1967    0.0777 C   0  0  0  0  0  0  0  0  0  0  0  0
    1.2541    3.9393    0.1097 H   0  0  0  0  0  0  0  0  0  0  0  0
   -1.5862   -0.5290    0.0027 P   0  0  0  0  0  4  0  0  0  0  0  0
   -1.1574   -1.3884   -1.5542 C   0  0  0  0  0  0  0  0  0  0  0  0
   -0.3282   -0.7345   -2.4838 C   0  0  0  0  0  0  0  0  0  0  0  0
    0.0122    0.2905   -2.2749 H   0  0  0  0  0  0  0  0  0  0  0  0
    0.0616   -1.3934   -3.6590 C   0  0  0  0  0  0  0  0  0  0  0  0
    0.7251   -0.8794   -4.3700 H   0  0  0  0  0  0  0  0  0  0  0  0
   -0.3864   -2.6981   -3.9142 C   0  0  0  0  0  0  0  0  0  0  0  0
   -0.0753   -3.2169   -4.8334 H   0  0  0  0  0  0  0  0  0  0  0  0
   -1.2431   -3.3405   -3.0039 C   0  0  0  0  0  0  0  0  0  0  0  0
   -1.6107   -4.3562   -3.2136 H   0  0  0  0  0  0  0  0  0  0  0  0
   -1.6347   -2.6890   -1.8265 C   0  0  0  0  0  0  0  0  0  0  0  0
   -2.3255   -3.1873   -1.1293 H   0  0  0  0  0  0  0  0  0  0  0  0
   -3.3974   -0.7091    0.1643 C   0  0  0  0  0  0  0  0  0  0  0  0
   -4.2048   -0.7306   -0.9917 C   0  0  0  0  0  0  0  0  0  0  0  0
   -3.7419   -0.6916   -1.9887 H   0  0  0  0  0  0  0  0  0  0  0  0
   -5.5998   -0.7848   -0.8648 C   0  0  0  0  0  0  0  0  0  0  0  0
   -6.2287   -0.7964   -1.7675 H   0  0  0  0  0  0  0  0  0  0  0  0
   -6.1911   -0.8176    0.4086 C   0  0  0  0  0  0  0  0  0  0  0  0
   -7.2866   -0.8574    0.5049 H   0  0  0  0  0  0  0  0  0  0  0  0
   -5.3861   -0.8029    1.5589 C   0  0  0  0  0  0  0  0  0  0  0  0
   -5.8475   -0.8327    2.5572 H   0  0  0  0  0  0  0  0  0  0  0  0
   -3.9899   -0.7506    1.4413 C   0  0  0  0  0  0  0  0  0  0  0  0
   -3.3599   -0.7408    2.3429 H   0  0  0  0  0  0  0  0  0  0  0  0
   -0.8566   -1.4397    1.4152 C   0  0  0  0  0  0  0  0  0  0  0  0
   -0.6604   -0.7183    2.6124 C   0  0  0  0  0  0  0  0  0  0  0  0
   -0.8608    0.3639    2.6315 H   0  0  0  0  0  0  0  0  0  0  0  0
   -0.1837   -1.3764    3.7544 C   0  0  0  0  0  0  0  0  0  0  0  0
   -0.0181   -0.8070    4.6806 H   0  0  0  0  0  0  0  0  0  0  0  0
    0.1110   -2.7476    3.7050 C   0  0  0  0  0  0  0  0  0  0  0  0
    0.5027   -3.2584    4.5975 H   0  0  0  0  0  0  0  0  0  0  0  0
   -0.0744   -3.4630    2.5117 C   0  0  0  0  0  0  0  0  0  0  0  0
    0.1753   -4.5334    2.4637 H   0  0  0  0  0  0  0  0  0  0  0  0
   -0.5630   -2.8160    1.3677 C   0  0  0  0  0  0  0  0  0  0  0  0
   -0.6737   -3.3792    0.4316 H   0  0  0  0  0  0  0  0  0  0  0  0
  2  1  2  0  0  0  0
  3 12  1  0  0  0  0
  3  2  1  0  0  0  0
  4  3  2  0  0  0  0
  5  4  1  0  0  0  0
  6  8  2  0  0  0  0
  6  4  1  0  0  0  0
  7  6  1  0  0  0  0
  8 10  1  0  0  0  0
  9  8  1  0  0  0  0
 10 11  1  0  0  0  0
 10 12  1  0  0  0  0
 12 13  2  0  0  0  0
 13 14  1  0  0  0  0
 13  1  1  0  0  0  0
 15  2  1  0  0  0  0
 15 27  1  0  0  0  0
 15 38  1  0  0  0  0
 16 15  1  0  0  0  0
 17 18  1  0  0  0  0
 17 16  2  0  0  0  0
 19 17  1  0  0  0  0
 20 19  1  0  0  0  0
 21 19  2  0  0  0  0
 21 23  1  0  0  0  0
 22 21  1  0  0  0  0
 23 25  2  0  0  0  0
 24 23  1  0  0  0  0
 25 16  1  0  0  0  0
 25 26  1  0  0  0  0
 27 36  1  0  0  0  0
 28 30  1  0  0  0  0
 28 27  2  0  0  0  0
 29 28  1  0  0  0  0
 30 32  2  0  0  0  0
 31 30  1  0  0  0  0
 32 33  1  0  0  0  0
 32 34  1  0  0  0  0
 34 35  1  0  0  0  0
 36 34  2  0  0  0  0
 36 37  1  0  0  0  0
 38 39  1  0  0  0  0
 39 40  1  0  0  0  0
 39 41  2  0  0  0  0
 41 42  1  0  0  0  0
 43 41  1  0  0  0  0
 43 44  1  0  0  0  0
 45 43  2  0  0  0  0
 46 45  1  0  0  0  0
 47 38  2  0  0  0  0
 47 45  1  0  0  0  0
 48 47  1  0  0  0  0
M  END
