1
 OpenBabel05122313063D

 35 36  0  0  0  0  0  0  0  0999 V2000
    0.6141    0.0010    1.0351 P   0  0  0  0  0  0  0  0  0  0  0  0
    0.7524   -0.7516    2.7282 C   0  0  0  0  0  0  0  0  0  0  0  0
    1.6910   -1.2645    2.9869 H   0  0  0  0  0  0  0  0  0  0  0  0
   -0.1546   -1.2768    3.0708 H   0  0  0  0  0  0  0  0  0  0  0  0
    0.7522    0.7568    2.7267 C   0  0  0  0  0  0  0  0  0  0  0  0
    1.6907    1.2704    2.9847 H   0  0  0  0  0  0  0  0  0  0  0  0
   -0.1549    1.2823    3.0682 H   0  0  0  0  0  0  0  0  0  0  0  0
    2.1481    0.0002    0.2623 N   0  0  0  0  0  0  0  0  0  0  0  0
    2.8245   -1.3079   -0.0432 C   0  0  0  0  0  0  0  0  0  0  0  0
    3.4866   -1.2384   -1.4407 C   0  0  0  0  0  0  0  0  0  0  0  0
    4.0721   -2.1694   -1.5894 H   0  0  0  0  0  0  0  0  0  0  0  0
    2.6783   -1.2392   -2.2028 H   0  0  0  0  0  0  0  0  0  0  0  0
    4.3507   -0.0016   -1.6490 C   0  0  0  0  0  0  0  0  0  0  0  0
    5.2179   -0.0010   -0.9540 H   0  0  0  0  0  0  0  0  0  0  0  0
    4.7795   -0.0025   -2.6721 H   0  0  0  0  0  0  0  0  0  0  0  0
    3.4867    1.2357   -1.4428 C   0  0  0  0  0  0  0  0  0  0  0  0
    2.6785    1.2353   -2.2050 H   0  0  0  0  0  0  0  0  0  0  0  0
    4.0724    2.1664   -1.5932 H   0  0  0  0  0  0  0  0  0  0  0  0
    2.8246    1.3078   -0.0455 C   0  0  0  0  0  0  0  0  0  0  0  0
    1.7917   -2.4478   -0.1127 C   0  0  0  0  0  0  0  0  0  0  0  0
    1.3073   -2.6586    0.8590 H   0  0  0  0  0  0  0  0  0  0  0  0
    1.0035   -2.2259   -0.8565 H   0  0  0  0  0  0  0  0  0  0  0  0
    2.3053   -3.3751   -0.4342 H   0  0  0  0  0  0  0  0  0  0  0  0
    3.8815   -1.6755    1.0245 C   0  0  0  0  0  0  0  0  0  0  0  0
    4.7465   -0.9875    1.0203 H   0  0  0  0  0  0  0  0  0  0  0  0
    4.2697   -2.6978    0.8413 H   0  0  0  0  0  0  0  0  0  0  0  0
    3.4444   -1.6569    2.0409 H   0  0  0  0  0  0  0  0  0  0  0  0
    1.7919    2.4476   -0.1172 C   0  0  0  0  0  0  0  0  0  0  0  0
    1.0036    2.2243   -0.8604 H   0  0  0  0  0  0  0  0  0  0  0  0
    1.3076    2.6603    0.8542 H   0  0  0  0  0  0  0  0  0  0  0  0
    2.3055    3.3742   -0.4404 H   0  0  0  0  0  0  0  0  0  0  0  0
    3.8816    1.6771    1.0216 C   0  0  0  0  0  0  0  0  0  0  0  0
    3.4446    1.6599    2.0380 H   0  0  0  0  0  0  0  0  0  0  0  0
    4.7468    0.9895    1.0182 H   0  0  0  0  0  0  0  0  0  0  0  0
    4.2695    2.6993    0.8368 H   0  0  0  0  0  0  0  0  0  0  0  0
  1  5  1  0  0  0  0
  1  2  1  0  0  0  0
  2  3  1  0  0  0  0
  2  4  1  0  0  0  0
  5  2  1  0  0  0  0
  5  6  1  0  0  0  0
  5  7  1  0  0  0  0
  8  1  1  0  0  0  0
  9  8  1  0  0  0  0
  9 24  1  0  0  0  0
 10  9  1  0  0  0  0
 11 10  1  0  0  0  0
 12 10  1  0  0  0  0
 13 16  1  0  0  0  0
 13 10  1  0  0  0  0
 13 14  1  0  0  0  0
 15 13  1  0  0  0  0
 16 19  1  0  0  0  0
 17 16  1  0  0  0  0
 18 16  1  0  0  0  0
 19  8  1  0  0  0  0
 19 32  1  0  0  0  0
 20  9  1  0  0  0  0
 20 21  1  0  0  0  0
 22 20  1  0  0  0  0
 23 20  1  0  0  0  0
 24 27  1  0  0  0  0
 25 24  1  0  0  0  0
 26 24  1  0  0  0  0
 28 19  1  0  0  0  0
 28 30  1  0  0  0  0
 29 28  1  0  0  0  0
 31 28  1  0  0  0  0
 32 33  1  0  0  0  0
 34 32  1  0  0  0  0
 35 32  1  0  0  0  0
M  END
