1
 OpenBabel05122313063D

 65 68  0  0  0  0  0  0  0  0999 V2000
   -1.7831    0.0486    0.1566 P   0  0  0  0  0  0  0  0  0  0  0  0
    2.4215    0.2705    1.5492 N   0  0  0  0  0  0  0  0  0  0  0  0
    3.4350    0.4626    0.6036 C   0  0  0  0  0  0  0  0  0  0  0  0
    4.4485   -0.5450    0.5549 C   0  0  0  0  0  0  0  0  0  0  0  0
    5.5324   -0.3722   -0.3164 C   0  0  0  0  0  0  0  0  0  0  0  0
    6.3082   -1.1491   -0.3752 H   0  0  0  0  0  0  0  0  0  0  0  0
    5.6382    0.7750   -1.1165 C   0  0  0  0  0  0  0  0  0  0  0  0
    6.4970    0.8997   -1.7933 H   0  0  0  0  0  0  0  0  0  0  0  0
    4.6444    1.7568   -1.0574 C   0  0  0  0  0  0  0  0  0  0  0  0
    4.7342    2.6528   -1.6908 H   0  0  0  0  0  0  0  0  0  0  0  0
    3.5213    1.6272   -0.2173 C   0  0  0  0  0  0  0  0  0  0  0  0
    4.2572   -1.8099    1.3755 C   0  0  0  0  0  0  0  0  0  0  0  0
    3.7471   -1.4873    2.3110 H   0  0  0  0  0  0  0  0  0  0  0  0
    5.5657   -2.5124    1.7529 C   0  0  0  0  0  0  0  0  0  0  0  0
    5.3639   -3.3472    2.4542 H   0  0  0  0  0  0  0  0  0  0  0  0
    6.2802   -1.8189    2.2406 H   0  0  0  0  0  0  0  0  0  0  0  0
    6.0685   -2.9530    0.8668 H   0  0  0  0  0  0  0  0  0  0  0  0
    3.2990   -2.7759    0.6488 C   0  0  0  0  0  0  0  0  0  0  0  0
    3.1056   -3.6778    1.2658 H   0  0  0  0  0  0  0  0  0  0  0  0
    3.7280   -3.1059   -0.3195 H   0  0  0  0  0  0  0  0  0  0  0  0
    2.3236   -2.3029    0.4217 H   0  0  0  0  0  0  0  0  0  0  0  0
    2.4615    2.7231   -0.2277 C   0  0  0  0  0  0  0  0  0  0  0  0
    1.7628    2.5419    0.6145 H   0  0  0  0  0  0  0  0  0  0  0  0
    1.6403    2.6649   -1.5285 C   0  0  0  0  0  0  0  0  0  0  0  0
    1.1703    1.6708   -1.6744 H   0  0  0  0  0  0  0  0  0  0  0  0
    2.2879    2.8497   -2.4104 H   0  0  0  0  0  0  0  0  0  0  0  0
    0.8368    3.4281   -1.5253 H   0  0  0  0  0  0  0  0  0  0  0  0
    3.0534    4.1251   -0.0083 C   0  0  0  0  0  0  0  0  0  0  0  0
    2.2419    4.8793    0.0559 H   0  0  0  0  0  0  0  0  0  0  0  0
    3.7179    4.4293   -0.8428 H   0  0  0  0  0  0  0  0  0  0  0  0
    3.6448    4.1720    0.9278 H   0  0  0  0  0  0  0  0  0  0  0  0
    1.1716    0.3201    1.2509 C   0  0  0  0  0  0  0  0  0  0  0  0
    0.8323    0.4518    0.1989 H   0  0  0  0  0  0  0  0  0  0  0  0
    0.1251    0.1318    2.2721 C   0  0  0  0  0  0  0  0  0  0  0  0
   -1.2507    0.0050    1.9232 C   0  0  0  0  0  0  0  0  0  0  0  0
   -2.2081   -0.1919    2.9376 C   0  0  0  0  0  0  0  0  0  0  0  0
   -3.2692   -0.3020    2.6719 H   0  0  0  0  0  0  0  0  0  0  0  0
   -1.8214   -0.2579    4.2842 C   0  0  0  0  0  0  0  0  0  0  0  0
   -2.5843   -0.4121    5.0620 H   0  0  0  0  0  0  0  0  0  0  0  0
   -0.4665   -0.1296    4.6321 C   0  0  0  0  0  0  0  0  0  0  0  0
   -0.1589   -0.1808    5.6875 H   0  0  0  0  0  0  0  0  0  0  0  0
    0.4926    0.0628    3.6339 C   0  0  0  0  0  0  0  0  0  0  0  0
    1.5622    0.1643    3.8706 H   0  0  0  0  0  0  0  0  0  0  0  0
   -1.7297    1.8224   -0.3153 C   0  0  0  0  0  0  0  0  0  0  0  0
   -1.9857    2.1512   -1.6631 C   0  0  0  0  0  0  0  0  0  0  0  0
   -2.1588    1.3482   -2.3971 H   0  0  0  0  0  0  0  0  0  0  0  0
   -2.0073    3.4932   -2.0641 C   0  0  0  0  0  0  0  0  0  0  0  0
   -2.2078    3.7450   -3.1162 H   0  0  0  0  0  0  0  0  0  0  0  0
   -1.7556    4.5125   -1.1294 C   0  0  0  0  0  0  0  0  0  0  0  0
   -1.7621    5.5656   -1.4487 H   0  0  0  0  0  0  0  0  0  0  0  0
   -1.4843    4.1864    0.2083 C   0  0  0  0  0  0  0  0  0  0  0  0
   -1.2778    4.9816    0.9405 H   0  0  0  0  0  0  0  0  0  0  0  0
   -1.4758    2.8436    0.6202 C   0  0  0  0  0  0  0  0  0  0  0  0
   -1.2709    2.5898    1.6711 H   0  0  0  0  0  0  0  0  0  0  0  0
   -3.5736   -0.3481    0.1942 C   0  0  0  0  0  0  0  0  0  0  0  0
   -3.9707   -1.6863   -0.0025 C   0  0  0  0  0  0  0  0  0  0  0  0
   -3.2080   -2.4534   -0.2121 H   0  0  0  0  0  0  0  0  0  0  0  0
   -5.3293   -2.0288    0.0541 C   0  0  0  0  0  0  0  0  0  0  0  0
   -5.6348   -3.0742   -0.1024 H   0  0  0  0  0  0  0  0  0  0  0  0
   -6.2956   -1.0387    0.2956 C   0  0  0  0  0  0  0  0  0  0  0  0
   -7.3621   -1.3080    0.3311 H   0  0  0  0  0  0  0  0  0  0  0  0
   -5.9029    0.2969    0.4812 C   0  0  0  0  0  0  0  0  0  0  0  0
   -6.6596    1.0751    0.6623 H   0  0  0  0  0  0  0  0  0  0  0  0
   -4.5450    0.6456    0.4322 C   0  0  0  0  0  0  0  0  0  0  0  0
   -4.2377    1.6929    0.5738 H   0  0  0  0  0  0  0  0  0  0  0  0
  1 55  1  0  0  0  0
  1 35  1  0  0  0  0
  3  2  1  0  0  0  0
  4  3  1  0  0  0  0
  4 12  1  0  0  0  0
  5  4  2  0  0  0  0
  6  5  1  0  0  0  0
  7  9  2  0  0  0  0
  7  5  1  0  0  0  0
  8  7  1  0  0  0  0
  9 11  1  0  0  0  0
 10  9  1  0  0  0  0
 11  3  2  0  0  0  0
 12 14  1  0  0  0  0
 12 13  1  0  0  0  0
 14 16  1  0  0  0  0
 14 15  1  0  0  0  0
 17 14  1  0  0  0  0
 18 19  1  0  0  0  0
 18 12  1  0  0  0  0
 20 18  1  0  0  0  0
 21 18  1  0  0  0  0
 22 11  1  0  0  0  0
 22 28  1  0  0  0  0
 22 23  1  0  0  0  0
 24 27  1  0  0  0  0
 24 22  1  0  0  0  0
 25 24  1  0  0  0  0
 26 24  1  0  0  0  0
 28 29  1  0  0  0  0
 28 31  1  0  0  0  0
 30 28  1  0  0  0  0
 32  2  2  0  0  0  0
 32 34  1  0  0  0  0
 33 32  1  0  0  0  0
 34 42  1  0  0  0  0
 35 34  2  0  0  0  0
 35 36  1  0  0  0  0
 36 38  2  0  0  0  0
 37 36  1  0  0  0  0
 38 40  1  0  0  0  0
 38 39  1  0  0  0  0
 40 41  1  0  0  0  0
 42 43  1  0  0  0  0
 42 40  2  0  0  0  0
 44  1  1  0  0  0  0
 44 53  1  0  0  0  0
 45 44  2  0  0  0  0
 46 45  1  0  0  0  0
 47 45  1  0  0  0  0
 47 49  2  0  0  0  0
 48 47  1  0  0  0  0
 49 51  1  0  0  0  0
 50 49  1  0  0  0  0
 51 53  2  0  0  0  0
 51 52  1  0  0  0  0
 53 54  1  0  0  0  0
 55 64  1  0  0  0  0
 56 58  1  0  0  0  0
 56 55  2  0  0  0  0
 57 56  1  0  0  0  0
 58 60  2  0  0  0  0
 59 58  1  0  0  0  0
 60 61  1  0  0  0  0
 60 62  1  0  0  0  0
 62 63  1  0  0  0  0
 64 62  2  0  0  0  0
 64 65  1  0  0  0  0
M  END
