1
 OpenBabel05122313063D

 39 42  0  0  0  0  0  0  0  0999 V2000
   -1.6364   -0.5038   -0.3109 P   0  0  0  0  0  0  0  0  0  0  0  0
   -1.8246    1.9391    1.3481 N   0  0  0  0  0  0  0  0  0  0  0  0
   -1.6941    3.0418    2.0739 C   0  0  0  0  0  0  0  0  0  0  0  0
   -0.7109    3.2020    2.5523 H   0  0  0  0  0  0  0  0  0  0  0  0
   -2.7381    3.9876    2.2572 C   0  0  0  0  0  0  0  0  0  0  0  0
   -2.5656    4.8840    2.8700 H   0  0  0  0  0  0  0  0  0  0  0  0
   -3.9644    3.7486    1.6567 C   0  0  0  0  0  0  0  0  0  0  0  0
   -4.8036    4.4509    1.7793 H   0  0  0  0  0  0  0  0  0  0  0  0
   -5.3638    2.2559    0.2040 C   0  0  0  0  0  0  0  0  0  0  0  0
   -6.2242    2.9342    0.3104 H   0  0  0  0  0  0  0  0  0  0  0  0
   -5.4599    1.1079   -0.5669 C   0  0  0  0  0  0  0  0  0  0  0  0
   -6.4012    0.8643   -1.0808 H   0  0  0  0  0  0  0  0  0  0  0  0
   -4.3430    0.2436   -0.7215 C   0  0  0  0  0  0  0  0  0  0  0  0
   -4.4299   -0.6402   -1.3702 H   0  0  0  0  0  0  0  0  0  0  0  0
   -3.1410    0.5238   -0.0827 C   0  0  0  0  0  0  0  0  0  0  0  0
   -3.0167    1.6949    0.7318 C   0  0  0  0  0  0  0  0  0  0  0  0
   -4.1432    2.5794    0.8644 C   0  0  0  0  0  0  0  0  0  0  0  0
   -1.9932   -1.6328   -1.7080 C   0  0  0  0  0  0  0  0  0  0  0  0
   -1.5728   -1.5939    1.1663 C   0  0  0  0  0  0  0  0  0  0  0  0
   -1.5042   -1.3196   -2.9933 C   0  0  0  0  0  0  0  0  0  0  0  0
   -0.9232   -0.3964   -3.1416 H   0  0  0  0  0  0  0  0  0  0  0  0
   -1.7864   -2.1673   -4.0743 C   0  0  0  0  0  0  0  0  0  0  0  0
   -1.4039   -1.9170   -5.0751 H   0  0  0  0  0  0  0  0  0  0  0  0
   -2.5578   -3.3247   -3.8827 C   0  0  0  0  0  0  0  0  0  0  0  0
   -2.7760   -3.9888   -4.7325 H   0  0  0  0  0  0  0  0  0  0  0  0
   -3.0577   -3.6318   -2.6066 C   0  0  0  0  0  0  0  0  0  0  0  0
   -3.6702   -4.5331   -2.4545 H   0  0  0  0  0  0  0  0  0  0  0  0
   -2.7789   -2.7913   -1.5191 C   0  0  0  0  0  0  0  0  0  0  0  0
   -3.1697   -3.0407   -0.5216 H   0  0  0  0  0  0  0  0  0  0  0  0
   -0.9276   -2.8471    1.0860 C   0  0  0  0  0  0  0  0  0  0  0  0
   -0.5128   -3.1973    0.1312 H   0  0  0  0  0  0  0  0  0  0  0  0
   -0.8350   -3.6651    2.2212 C   0  0  0  0  0  0  0  0  0  0  0  0
   -0.3318   -4.6403    2.1429 H   0  0  0  0  0  0  0  0  0  0  0  0
   -1.3826   -3.2458    3.4430 C   0  0  0  0  0  0  0  0  0  0  0  0
   -1.3084   -3.8900    4.3318 H   0  0  0  0  0  0  0  0  0  0  0  0
   -2.0394   -2.0077    3.5231 C   0  0  0  0  0  0  0  0  0  0  0  0
   -2.4859   -1.6794    4.4735 H   0  0  0  0  0  0  0  0  0  0  0  0
   -2.1384   -1.1852    2.3927 C   0  0  0  0  0  0  0  0  0  0  0  0
   -2.6567   -0.2205    2.4679 H   0  0  0  0  0  0  0  0  0  0  0  0
  1 15  1  0  0  0  0
  1 19  1  0  0  0  0
  2  3  1  0  0  0  0
  3  5  2  0  0  0  0
  3  4  1  0  0  0  0
  5  6  1  0  0  0  0
  7  8  1  0  0  0  0
  7  5  1  0  0  0  0
  9 10  1  0  0  0  0
  9 17  1  0  0  0  0
 11  9  2  0  0  0  0
 12 11  1  0  0  0  0
 13 11  1  0  0  0  0
 13 15  2  0  0  0  0
 14 13  1  0  0  0  0
 15 16  1  0  0  0  0
 16 17  1  0  0  0  0
 16  2  2  0  0  0  0
 17  7  2  0  0  0  0
 18 28  1  0  0  0  0
 18  1  1  0  0  0  0
 19 38  1  0  0  0  0
 20 18  2  0  0  0  0
 21 20  1  0  0  0  0
 22 24  2  0  0  0  0
 22 20  1  0  0  0  0
 23 22  1  0  0  0  0
 24 26  1  0  0  0  0
 25 24  1  0  0  0  0
 26 27  1  0  0  0  0
 26 28  2  0  0  0  0
 28 29  1  0  0  0  0
 30 19  2  0  0  0  0
 30 32  1  0  0  0  0
 31 30  1  0  0  0  0
 32 34  2  0  0  0  0
 33 32  1  0  0  0  0
 34 36  1  0  0  0  0
 34 35  1  0  0  0  0
 36 37  1  0  0  0  0
 38 39  1  0  0  0  0
 38 36  2  0  0  0  0
M  END
