2
 OpenBabel05122313063D

 33 33  0  0  1  0  0  0  0  0999 V2000
    1.9239    3.1996   -0.6219 Cl  0  0  0  0  0  0  0  0  0  0  0  0
    0.7566   -0.4778   -0.5684 P   0  0  2  0  0  0  0  0  0  0  0  0
    2.7288    1.4480   -1.5403 P   0  0  2  0  0  0  0  0  0  0  0  0
    1.3156    0.5931   -1.7973 O   0  0  0  0  0  0  0  0  0  0  0  0
    3.2107    0.5865   -0.1947 O   0  0  0  0  0  0  0  0  0  0  0  0
    2.1230    0.1417    0.6347 C   0  0  2  0  0  0  0  0  0  0  0  0
    1.5984    1.0502    1.0096 H   0  0  0  0  0  0  0  0  0  0  0  0
    2.6652   -0.5925    1.8841 C   0  0  0  0  0  0  0  0  0  0  0  0
    3.7000   -1.6765    1.5441 C   0  0  0  0  0  0  0  0  0  0  0  0
    3.2467   -2.5368    1.0162 H   0  0  0  0  0  0  0  0  0  0  0  0
    4.1484   -2.0654    2.4801 H   0  0  0  0  0  0  0  0  0  0  0  0
    4.5162   -1.2688    0.9170 H   0  0  0  0  0  0  0  0  0  0  0  0
    3.3509    0.4947    2.7438 C   0  0  0  0  0  0  0  0  0  0  0  0
    4.1663    0.9884    2.1803 H   0  0  0  0  0  0  0  0  0  0  0  0
    3.7822    0.0434    3.6596 H   0  0  0  0  0  0  0  0  0  0  0  0
    2.6247    1.2736    3.0536 H   0  0  0  0  0  0  0  0  0  0  0  0
    1.5015   -1.2033    2.6803 C   0  0  0  0  0  0  0  0  0  0  0  0
    0.7369   -0.4462    2.9413 H   0  0  0  0  0  0  0  0  0  0  0  0
    1.8842   -1.6323    3.6281 H   0  0  0  0  0  0  0  0  0  0  0  0
    0.9989   -2.0191    2.1262 H   0  0  0  0  0  0  0  0  0  0  0  0
    1.1989   -2.1013   -1.4438 C   0  0  0  0  0  0  0  0  0  0  0  0
    0.3346   -2.1394   -2.7200 C   0  0  0  0  0  0  0  0  0  0  0  0
   -0.7447   -2.2096   -2.4974 H   0  0  0  0  0  0  0  0  0  0  0  0
    0.6135   -3.0392   -3.3075 H   0  0  0  0  0  0  0  0  0  0  0  0
    0.5075   -1.2486   -3.3545 H   0  0  0  0  0  0  0  0  0  0  0  0
    2.6795   -2.1473   -1.8524 C   0  0  0  0  0  0  0  0  0  0  0  0
    2.9185   -1.3502   -2.5834 H   0  0  0  0  0  0  0  0  0  0  0  0
    2.8815   -3.1191   -2.3500 H   0  0  0  0  0  0  0  0  0  0  0  0
    3.3698   -2.0531   -0.9972 H   0  0  0  0  0  0  0  0  0  0  0  0
    0.8196   -3.2710   -0.5227 C   0  0  0  0  0  0  0  0  0  0  0  0
    1.4640   -3.3313    0.3756 H   0  0  0  0  0  0  0  0  0  0  0  0
    0.9326   -4.2254   -1.0777 H   0  0  0  0  0  0  0  0  0  0  0  0
   -0.2347   -3.2013   -0.1876 H   0  0  0  0  0  0  0  0  0  0  0  0
  2 21  1  6  0  0  0
  2  6  1  0  0  0  0
  3  1  1  1  0  0  0
  3  5  1  0  0  0  0
  4  3  1  0  0  0  0
  4  2  1  0  0  0  0
  5  6  1  0  0  0  0
  6  7  1  1  0  0  0
  6  8  1  0  0  0  0
  8 17  1  0  0  0  0
  8 13  1  0  0  0  0
  9  8  1  0  0  0  0
  9 11  1  0  0  0  0
 10  9  1  0  0  0  0
 12  9  1  0  0  0  0
 13 16  1  0  0  0  0
 13 15  1  0  0  0  0
 14 13  1  0  0  0  0
 17 18  1  0  0  0  0
 17 19  1  0  0  0  0
 20 17  1  0  0  0  0
 21 30  1  0  0  0  0
 22 23  1  0  0  0  0
 22 21  1  0  0  0  0
 24 22  1  0  0  0  0
 25 22  1  0  0  0  0
 26 21  1  0  0  0  0
 26 29  1  0  0  0  0
 27 26  1  0  0  0  0
 28 26  1  0  0  0  0
 30 33  1  0  0  0  0
 30 31  1  0  0  0  0
 32 30  1  0  0  0  0
M  END
