1
 OpenBabel05122313063D

 30 30  0  0  1  0  0  0  0  0999 V2000
    1.1056    0.7233   -0.1880 P   0  0  1  0  0  0  0  0  0  0  0  0
    2.1690    0.2779   -1.4698 O   0  0  0  0  0  0  0  0  0  0  0  0
    2.7674   -0.0118   -0.1825 C   0  0  2  0  0  0  0  0  0  0  0  0
    3.5601    0.7185    0.0836 H   0  0  0  0  0  0  0  0  0  0  0  0
    3.2294   -1.4368    0.1254 C   0  0  0  0  0  0  0  0  0  0  0  0
    4.6029   -1.5991   -0.5645 C   0  0  0  0  0  0  0  0  0  0  0  0
    4.5118   -1.4592   -1.6605 H   0  0  0  0  0  0  0  0  0  0  0  0
    5.0104   -2.6138   -0.3800 H   0  0  0  0  0  0  0  0  0  0  0  0
    5.3393   -0.8621   -0.1825 H   0  0  0  0  0  0  0  0  0  0  0  0
    3.3887   -1.5539    1.6516 C   0  0  0  0  0  0  0  0  0  0  0  0
    4.0537   -0.7605    2.0525 H   0  0  0  0  0  0  0  0  0  0  0  0
    3.8373   -2.5321    1.9191 H   0  0  0  0  0  0  0  0  0  0  0  0
    2.4099   -1.4767    2.1651 H   0  0  0  0  0  0  0  0  0  0  0  0
    2.2741   -2.5090   -0.4095 C   0  0  0  0  0  0  0  0  0  0  0  0
    1.2917   -2.4706    0.0950 H   0  0  0  0  0  0  0  0  0  0  0  0
    2.7008   -3.5164   -0.2327 H   0  0  0  0  0  0  0  0  0  0  0  0
    2.1078   -2.3882   -1.4967 H   0  0  0  0  0  0  0  0  0  0  0  0
    1.3952    2.5897    0.0768 C   0  0  0  0  0  0  0  0  0  0  0  0
    1.4520    2.7948    1.6016 C   0  0  0  0  0  0  0  0  0  0  0  0
    0.5289    2.4470    2.1062 H   0  0  0  0  0  0  0  0  0  0  0  0
    1.5616    3.8769    1.8270 H   0  0  0  0  0  0  0  0  0  0  0  0
    2.3147    2.2647    2.0537 H   0  0  0  0  0  0  0  0  0  0  0  0
    0.2072    3.3554   -0.5295 C   0  0  0  0  0  0  0  0  0  0  0  0
    0.1300    3.1980   -1.6238 H   0  0  0  0  0  0  0  0  0  0  0  0
    0.3464    4.4426   -0.3535 H   0  0  0  0  0  0  0  0  0  0  0  0
   -0.7570    3.0664   -0.0712 H   0  0  0  0  0  0  0  0  0  0  0  0
    2.6928    3.0639   -0.5945 C   0  0  0  0  0  0  0  0  0  0  0  0
    3.5985    2.6865   -0.0816 H   0  0  0  0  0  0  0  0  0  0  0  0
    2.7355    4.1720   -0.5506 H   0  0  0  0  0  0  0  0  0  0  0  0
    2.7408    2.7544   -1.6561 H   0  0  0  0  0  0  0  0  0  0  0  0
  1  3  1  0  0  0  0
  1 18  1  1  0  0  0
  2  1  1  0  0  0  0
  2  3  1  0  0  0  0
  3  4  1  1  0  0  0
  3  5  1  0  0  0  0
  5 10  1  0  0  0  0
  6  8  1  0  0  0  0
  6  9  1  0  0  0  0
  6  5  1  0  0  0  0
  7  6  1  0  0  0  0
 10 12  1  0  0  0  0
 10 11  1  0  0  0  0
 10 13  1  0  0  0  0
 14 16  1  0  0  0  0
 14 15  1  0  0  0  0
 14  5  1  0  0  0  0
 17 14  1  0  0  0  0
 18 19  1  0  0  0  0
 19 21  1  0  0  0  0
 19 22  1  0  0  0  0
 19 20  1  0  0  0  0
 23 25  1  0  0  0  0
 23 26  1  0  0  0  0
 23 18  1  0  0  0  0
 24 23  1  0  0  0  0
 27 29  1  0  0  0  0
 27 28  1  0  0  0  0
 27 18  1  0  0  0  0
 30 27  1  0  0  0  0
M  END
