1
 OpenBabel05122313063D

 34 33  0  0  0  0  0  0  0  0999 V2000
    0.9931   -0.0942   -0.0031 P   0  0  0  0  0  0  0  0  0  0  0  0
    1.7876    1.6092   -0.3518 C   0  0  0  0  0  0  0  0  0  0  0  0
    3.2286    1.7142    0.1732 C   0  0  0  0  0  0  0  0  0  0  0  0
    3.9041    0.9693   -0.2903 H   0  0  0  0  0  0  0  0  0  0  0  0
    3.2877    1.5971    1.2727 H   0  0  0  0  0  0  0  0  0  0  0  0
    3.6323    2.7196   -0.0706 H   0  0  0  0  0  0  0  0  0  0  0  0
    1.7608    1.8472   -1.8732 C   0  0  0  0  0  0  0  0  0  0  0  0
    2.0260    2.9057   -2.0765 H   0  0  0  0  0  0  0  0  0  0  0  0
    0.7517    1.6707   -2.3000 H   0  0  0  0  0  0  0  0  0  0  0  0
    2.4917    1.2166   -2.4166 H   0  0  0  0  0  0  0  0  0  0  0  0
    0.9018    2.6826    0.3147 C   0  0  0  0  0  0  0  0  0  0  0  0
    0.8324    2.5630    1.4115 H   0  0  0  0  0  0  0  0  0  0  0  0
   -0.1299    2.6628   -0.0900 H   0  0  0  0  0  0  0  0  0  0  0  0
    1.3343    3.6851    0.1115 H   0  0  0  0  0  0  0  0  0  0  0  0
    1.6152   -0.7006    1.6595 C   0  0  0  0  0  0  0  0  0  0  0  0
    2.7244   -0.7267    1.5917 H   0  0  0  0  0  0  0  0  0  0  0  0
    1.1981    0.2401    2.7983 C   0  0  0  0  0  0  0  0  0  0  0  0
    0.0984    0.3880    2.8112 H   0  0  0  0  0  0  0  0  0  0  0  0
    1.6781    1.2347    2.7350 H   0  0  0  0  0  0  0  0  0  0  0  0
    1.4902   -0.2061    3.7712 H   0  0  0  0  0  0  0  0  0  0  0  0
    1.0922   -2.1200    1.9265 C   0  0  0  0  0  0  0  0  0  0  0  0
    1.4069   -2.4461    2.9391 H   0  0  0  0  0  0  0  0  0  0  0  0
    1.4774   -2.8635    1.2040 H   0  0  0  0  0  0  0  0  0  0  0  0
   -0.0166   -2.1495    1.8910 H   0  0  0  0  0  0  0  0  0  0  0  0
    1.6600   -1.2881   -1.3006 C   0  0  0  0  0  0  0  0  0  0  0  0
    1.6376   -0.6618   -2.2165 H   0  0  0  0  0  0  0  0  0  0  0  0
    3.1013   -1.7583   -1.0722 C   0  0  0  0  0  0  0  0  0  0  0  0
    3.1936   -2.3847   -0.1623 H   0  0  0  0  0  0  0  0  0  0  0  0
    3.8169   -0.9188   -0.9805 H   0  0  0  0  0  0  0  0  0  0  0  0
    3.4308   -2.3813   -1.9293 H   0  0  0  0  0  0  0  0  0  0  0  0
    0.6970   -2.4602   -1.5471 C   0  0  0  0  0  0  0  0  0  0  0  0
    1.0398   -3.0406   -2.4286 H   0  0  0  0  0  0  0  0  0  0  0  0
   -0.3341   -2.1062   -1.7459 H   0  0  0  0  0  0  0  0  0  0  0  0
    0.6502   -3.1573   -0.6884 H   0  0  0  0  0  0  0  0  0  0  0  0
  1 15  1  0  0  0  0
  2  1  1  0  0  0  0
  2  3  1  0  0  0  0
  2 11  1  0  0  0  0
  3  5  1  0  0  0  0
  4  3  1  0  0  0  0
  6  3  1  0  0  0  0
  7  2  1  0  0  0  0
  8  7  1  0  0  0  0
  9  7  1  0  0  0  0
 10  7  1  0  0  0  0
 11 12  1  0  0  0  0
 13 11  1  0  0  0  0
 14 11  1  0  0  0  0
 15 21  1  0  0  0  0
 15 17  1  0  0  0  0
 16 15  1  0  0  0  0
 17 18  1  0  0  0  0
 17 20  1  0  0  0  0
 19 17  1  0  0  0  0
 21 22  1  0  0  0  0
 23 21  1  0  0  0  0
 24 21  1  0  0  0  0
 25 27  1  0  0  0  0
 25  1  1  0  0  0  0
 26 25  1  0  0  0  0
 27 29  1  0  0  0  0
 27 28  1  0  0  0  0
 30 27  1  0  0  0  0
 31 25  1  0  0  0  0
 31 34  1  0  0  0  0
 32 31  1  0  0  0  0
 33 31  1  0  0  0  0
M  END
