75
 OpenBabel05122313063D

 75 77  0  0  1  0  0  0  0  0999 V2000
    1.0249    1.0593    0.1638 C   0  0  1  0  0  3  0  0  0  0  0  0
    0.8117    3.1847   -0.6946 C   0  0  0  0  0  0  0  0  0  0  0  0
    0.0945    4.4402   -1.0497 C   0  0  0  0  0  0  0  0  0  0  0  0
   -0.6536    4.2752   -1.8527 H   0  0  0  0  0  0  0  0  0  0  0  0
    0.8094    5.2067   -1.4017 H   0  0  0  0  0  0  0  0  0  0  0  0
   -0.4578    4.8546   -0.1805 H   0  0  0  0  0  0  0  0  0  0  0  0
    2.1431    2.8545   -0.7563 C   0  0  0  0  0  0  0  0  0  0  0  0
    3.3332    3.6431   -1.1805 C   0  0  0  0  0  0  0  0  0  0  0  0
    4.0609    3.7549   -0.3492 H   0  0  0  0  0  0  0  0  0  0  0  0
    3.0296    4.6541   -1.5092 H   0  0  0  0  0  0  0  0  0  0  0  0
    3.8807    3.1627   -2.0182 H   0  0  0  0  0  0  0  0  0  0  0  0
   -1.2702    2.0584    0.1464 C   0  0  0  0  0  0  0  0  0  0  0  0
   -2.1915    1.7730   -0.8867 C   0  0  0  0  0  0  0  0  0  0  0  0
   -3.5559    1.7258   -0.5494 C   0  0  0  0  0  0  0  0  0  0  0  0
   -4.2767    1.4345   -1.3279 H   0  0  0  0  0  0  0  0  0  0  0  0
   -4.0072    1.9580    0.7618 C   0  0  0  0  0  0  0  0  0  0  0  0
   -3.0600    2.2807    1.7523 C   0  0  0  0  0  0  0  0  0  0  0  0
   -3.3996    2.4819    2.7811 H   0  0  0  0  0  0  0  0  0  0  0  0
   -1.6850    2.3394    1.4675 C   0  0  0  0  0  0  0  0  0  0  0  0
   -1.7472    1.5206   -2.3043 C   0  0  0  0  0  0  0  0  0  0  0  0
   -0.7309    1.0828   -2.3442 H   0  0  0  0  0  0  0  0  0  0  0  0
   -1.7266    2.4651   -2.8908 H   0  0  0  0  0  0  0  0  0  0  0  0
   -2.4446    0.8189   -2.8013 H   0  0  0  0  0  0  0  0  0  0  0  0
   -5.4723    1.8270    1.0901 C   0  0  0  0  0  0  0  0  0  0  0  0
   -5.8146    0.7853    0.9165 H   0  0  0  0  0  0  0  0  0  0  0  0
   -6.0928    2.4783    0.4409 H   0  0  0  0  0  0  0  0  0  0  0  0
   -5.6848    2.0879    2.1447 H   0  0  0  0  0  0  0  0  0  0  0  0
   -0.6716    2.6895    2.5259 C   0  0  0  0  0  0  0  0  0  0  0  0
    0.0676    1.8728    2.6587 H   0  0  0  0  0  0  0  0  0  0  0  0
   -1.1590    2.8763    3.5014 H   0  0  0  0  0  0  0  0  0  0  0  0
   -0.0917    3.5955    2.2509 H   0  0  0  0  0  0  0  0  0  0  0  0
    3.4426    0.7464   -0.2465 C   0  0  0  0  0  0  0  0  0  0  0  0
    3.8501    0.1416   -1.4563 C   0  0  0  0  0  0  0  0  0  0  0  0
    4.9941   -0.6776   -1.4301 C   0  0  0  0  0  0  0  0  0  0  0  0
    5.3202   -1.1623   -2.3642 H   0  0  0  0  0  0  0  0  0  0  0  0
    5.7151   -0.9101   -0.2453 C   0  0  0  0  0  0  0  0  0  0  0  0
    5.2701   -0.2933    0.9405 C   0  0  0  0  0  0  0  0  0  0  0  0
    5.8202   -0.4676    1.8795 H   0  0  0  0  0  0  0  0  0  0  0  0
    4.1374    0.5371    0.9661 C   0  0  0  0  0  0  0  0  0  0  0  0
    3.0596    0.3389   -2.7247 C   0  0  0  0  0  0  0  0  0  0  0  0
    3.1625    1.3695   -3.1243 H   0  0  0  0  0  0  0  0  0  0  0  0
    1.9756    0.1763   -2.5541 H   0  0  0  0  0  0  0  0  0  0  0  0
    3.3931   -0.3612   -3.5135 H   0  0  0  0  0  0  0  0  0  0  0  0
    6.9159   -1.8223   -0.2292 C   0  0  0  0  0  0  0  0  0  0  0  0
    7.2664   -2.0575   -1.2526 H   0  0  0  0  0  0  0  0  0  0  0  0
    6.6756   -2.7846    0.2712 H   0  0  0  0  0  0  0  0  0  0  0  0
    7.7608   -1.3722    0.3304 H   0  0  0  0  0  0  0  0  0  0  0  0
    3.6405    1.1560    2.2443 C   0  0  0  0  0  0  0  0  0  0  0  0
    4.3753    1.0393    3.0630 H   0  0  0  0  0  0  0  0  0  0  0  0
    2.6889    0.6714    2.5491 H   0  0  0  0  0  0  0  0  0  0  0  0
    3.4203    2.2356    2.1183 H   0  0  0  0  0  0  0  0  0  0  0  0
    0.9574   -2.8401    0.3619 C   0  0  0  0  0  0  0  0  0  0  0  0
    0.2818   -3.7154    0.4958 H   0  0  0  0  0  0  0  0  0  0  0  0
    2.1847   -2.9732    1.2673 C   0  0  0  0  0  0  0  0  0  0  0  0
    2.7854   -2.0411    1.2446 H   0  0  0  0  0  0  0  0  0  0  0  0
    2.8328   -3.8005    0.9094 H   0  0  0  0  0  0  0  0  0  0  0  0
    1.9161   -3.1959    2.3183 H   0  0  0  0  0  0  0  0  0  0  0  0
    1.3592   -2.7433   -1.1134 C   0  0  0  0  0  0  0  0  0  0  0  0
    0.4735   -2.6343   -1.7724 H   0  0  0  0  0  0  0  0  0  0  0  0
    1.9164   -3.6513   -1.4237 H   0  0  0  0  0  0  0  0  0  0  0  0
    2.0245   -1.8712   -1.2714 H   0  0  0  0  0  0  0  0  0  0  0  0
   -0.6184   -1.6706    2.5856 C   0  0  0  0  0  0  0  0  0  0  0  0
   -0.5873   -2.7802    2.6738 H   0  0  0  0  0  0  0  0  0  0  0  0
   -2.0519   -1.2013    2.8647 C   0  0  0  0  0  0  0  0  0  0  0  0
   -2.1604   -0.1131    2.6824 H   0  0  0  0  0  0  0  0  0  0  0  0
   -2.3232   -1.4026    3.9223 H   0  0  0  0  0  0  0  0  0  0  0  0
   -2.7851   -1.7137    2.2109 H   0  0  0  0  0  0  0  0  0  0  0  0
    0.3788   -1.0597    3.5751 C   0  0  0  0  0  0  0  0  0  0  0  0
    1.4204   -1.3833    3.3945 H   0  0  0  0  0  0  0  0  0  0  0  0
    0.1025   -1.3433    4.6121 H   0  0  0  0  0  0  0  0  0  0  0  0
    0.3610    0.0461    3.5142 H   0  0  0  0  0  0  0  0  0  0  0  0
    0.8845   -0.0856    0.7693 N   0  0  0  0  0  2  0  0  0  0  0  0
    0.1314    2.0797   -0.1426 N   0  0  0  0  0  0  0  0  0  0  0  0
    2.2623    1.5513   -0.2435 N   0  0  0  0  0  0  0  0  0  0  0  0
   -0.1495   -1.3849    0.7846 P   0  0  0  0  0  0  0  0  0  0  0  0
  1 72  1  1  0  0  0
  2 73  1  0  0  0  0
  3  2  1  0  0  0  0
  3  6  1  0  0  0  0
  4  3  1  0  0  0  0
  5  3  1  0  0  0  0
  7  2  2  0  0  0  0
  7 74  1  0  0  0  0
  8  7  1  0  0  0  0
  8  9  1  0  0  0  0
 10  8  1  0  0  0  0
 11  8  1  0  0  0  0
 12 19  1  0  0  0  0
 13 14  1  0  0  0  0
 13 12  2  0  0  0  0
 14 16  2  0  0  0  0
 15 14  1  0  0  0  0
 16 24  1  0  0  0  0
 16 17  1  0  0  0  0
 17 18  1  0  0  0  0
 19 17  2  0  0  0  0
 19 28  1  0  0  0  0
 20 13  1  0  0  0  0
 21 20  1  0  0  0  0
 22 20  1  0  0  0  0
 23 20  1  0  0  0  0
 24 27  1  0  0  0  0
 25 24  1  0  0  0  0
 26 24  1  0  0  0  0
 28 29  1  0  0  0  0
 28 30  1  0  0  0  0
 31 28  1  0  0  0  0
 32 74  1  0  0  0  0
 32 39  1  0  0  0  0
 33 34  1  0  0  0  0
 33 32  2  0  0  0  0
 34 36  2  0  0  0  0
 35 34  1  0  0  0  0
 36 44  1  0  0  0  0
 36 37  1  0  0  0  0
 37 39  2  0  0  0  0
 37 38  1  0  0  0  0
 39 48  1  0  0  0  0
 40 42  1  0  0  0  0
 40 33  1  0  0  0  0
 41 40  1  0  0  0  0
 43 40  1  0  0  0  0
 44 46  1  0  0  0  0
 44 47  1  0  0  0  0
 45 44  1  0  0  0  0
 48 50  1  0  0  0  0
 48 49  1  0  0  0  0
 51 48  1  0  0  0  0
 52 53  1  0  0  0  0
 52 75  1  0  0  0  0
 52 54  1  0  0  0  0
 54 57  1  0  0  0  0
 55 54  1  0  0  0  0
 56 54  1  0  0  0  0
 58 52  1  0  0  0  0
 59 58  1  0  0  0  0
 60 58  1  0  0  0  0
 61 58  1  0  0  0  0
 62 63  1  0  0  0  0
 62 64  1  0  0  0  0
 62 68  1  0  0  0  0
 64 66  1  0  0  0  0
 65 64  1  0  0  0  0
 67 64  1  0  0  0  0
 68 70  1  0  0  0  0
 69 68  1  0  0  0  0
 71 68  1  0  0  0  0
 72 75  1  0  0  0  0
 73 12  1  0  0  0  0
 73  1  1  0  0  0  0
 74  1  1  0  0  0  0
 75 62  1  0  0  0  0
M  END
