37
 OpenBabel05122313063D

 37 39  0  0  0  0  0  0  0  0999 V2000
    2.0205   -1.6510    0.8341 C   0  0  0  0  0  0  0  0  0  0  0  0
    3.3400   -1.5997    0.3426 C   0  0  0  0  0  0  0  0  0  0  0  0
    4.4075   -1.4403    1.2416 C   0  0  0  0  0  0  0  0  0  0  0  0
    5.4367   -1.3982    0.8576 H   0  0  0  0  0  0  0  0  0  0  0  0
    4.1568   -1.3286    2.6182 C   0  0  0  0  0  0  0  0  0  0  0  0
    5.0003   -1.1954    3.3117 H   0  0  0  0  0  0  0  0  0  0  0  0
    2.8426   -1.3984    3.1055 C   0  0  0  0  0  0  0  0  0  0  0  0
    2.6411   -1.3206    4.1836 H   0  0  0  0  0  0  0  0  0  0  0  0
    1.7750   -1.5699    2.2142 C   0  0  0  0  0  0  0  0  0  0  0  0
    0.7375   -1.6327    2.5743 H   0  0  0  0  0  0  0  0  0  0  0  0
    0.2908    1.5721   -1.7084 C   0  0  0  0  0  0  0  0  0  0  0  0
    0.9351    2.6142   -1.0117 C   0  0  0  0  0  0  0  0  0  0  0  0
    0.5814    3.9470   -1.2792 C   0  0  0  0  0  0  0  0  0  0  0  0
    1.0785    4.7610   -0.7333 H   0  0  0  0  0  0  0  0  0  0  0  0
   -0.4056    4.2312   -2.2352 C   0  0  0  0  0  0  0  0  0  0  0  0
   -0.6754    5.2786   -2.4354 H   0  0  0  0  0  0  0  0  0  0  0  0
   -1.0433    3.1901   -2.9279 C   0  0  0  0  0  0  0  0  0  0  0  0
   -1.8177    3.4123   -3.6767 H   0  0  0  0  0  0  0  0  0  0  0  0
   -0.6976    1.8590   -2.6614 C   0  0  0  0  0  0  0  0  0  0  0  0
   -1.1824    1.0178   -3.1768 H   0  0  0  0  0  0  0  0  0  0  0  0
   -2.1618   -2.2393   -0.6498 C   0  0  0  0  0  0  0  0  0  0  0  0
   -3.4749   -1.7481   -0.5048 C   0  0  0  0  0  0  0  0  0  0  0  0
   -4.4557   -2.5558    0.0936 C   0  0  0  0  0  0  0  0  0  0  0  0
   -5.4791   -2.1722    0.2095 H   0  0  0  0  0  0  0  0  0  0  0  0
   -4.1229   -3.8413    0.5470 C   0  0  0  0  0  0  0  0  0  0  0  0
   -4.8984   -4.4645    1.0163 H   0  0  0  0  0  0  0  0  0  0  0  0
   -2.8132   -4.3260    0.4058 C   0  0  0  0  0  0  0  0  0  0  0  0
   -2.5515   -5.3330    0.7621 H   0  0  0  0  0  0  0  0  0  0  0  0
   -1.8312   -3.5245   -0.1911 C   0  0  0  0  0  0  0  0  0  0  0  0
   -0.7959   -3.8712   -0.3187 H   0  0  0  0  0  0  0  0  0  0  0  0
    3.7162   -1.7499   -1.7308 I   0  0  0  0  0  0  0  0  0  0  0  0
    2.4177    2.1721    0.4306 I   0  0  0  0  0  0  0  0  0  0  0  0
   -3.9597    0.2019   -1.1631 I   0  0  0  0  0  0  0  0  0  0  0  0
    0.9634   -1.8197   -0.0559 O   0  0  0  0  0  0  0  0  0  0  0  0
    0.6429    0.2430   -1.4859 O   0  0  0  0  0  0  0  0  0  0  0  0
   -1.1840   -1.4671   -1.2724 O   0  0  0  0  0  0  0  0  0  0  0  0
   -0.1384   -0.6157   -0.3201 P   0  0  0  0  0  0  0  0  0  0  0  0
  1  9  1  0  0  0  0
  2  1  2  0  0  0  0
  2  3  1  0  0  0  0
  3  5  2  0  0  0  0
  4  3  1  0  0  0  0
  5  7  1  0  0  0  0
  5  6  1  0  0  0  0
  7  8  1  0  0  0  0
  9 10  1  0  0  0  0
  9  7  2  0  0  0  0
 11 35  1  0  0  0  0
 11 12  1  0  0  0  0
 12 32  1  0  0  0  0
 13 12  2  0  0  0  0
 13 14  1  0  0  0  0
 15 13  1  0  0  0  0
 16 15  1  0  0  0  0
 17 19  1  0  0  0  0
 17 15  2  0  0  0  0
 18 17  1  0  0  0  0
 19 11  2  0  0  0  0
 20 19  1  0  0  0  0
 21 22  2  0  0  0  0
 21 29  1  0  0  0  0
 22 23  1  0  0  0  0
 23 24  1  0  0  0  0
 23 25  2  0  0  0  0
 25 26  1  0  0  0  0
 27 25  1  0  0  0  0
 27 28  1  0  0  0  0
 29 27  2  0  0  0  0
 30 29  1  0  0  0  0
 31  2  1  0  0  0  0
 33 22  1  0  0  0  0
 34  1  1  0  0  0  0
 35 37  1  0  0  0  0
 36 21  1  0  0  0  0
 36 37  1  0  0  0  0
 37 34  1  0  0  0  0
M  END
