1
 OpenBabel05122313063D

 60 60  0  0  0  0  0  0  0  0999 V2000
   -0.6199    0.3843    0.0120 P   0  0  1  0  0  0  0  0  0  0  0  0
    1.6554   -0.9853   -0.0336 P   0  0  2  0  0  0  0  0  0  0  0  0
    0.5972   -0.0669   -1.1408 N   0  0  0  0  0  0  0  0  0  0  0  0
    0.5959   -0.1443    1.1326 N   0  0  0  0  0  0  0  0  0  0  0  0
   -0.7994    2.0669    0.0684 N   0  0  0  0  0  0  0  0  0  0  0  0
   -1.7837    2.3423    0.0764 H   0  0  0  0  0  0  0  0  0  0  0  0
    3.1202   -0.1143   -0.0035 N   0  0  0  0  0  0  0  0  0  0  0  0
    3.0715    0.9086    0.0303 H   0  0  0  0  0  0  0  0  0  0  0  0
    0.4826   -0.2832   -2.6000 C   0  0  0  0  0  0  0  0  0  0  0  0
   -0.4782    0.7658   -3.1812 C   0  0  0  0  0  0  0  0  0  0  0  0
   -0.0937    1.7908   -3.0179 H   0  0  0  0  0  0  0  0  0  0  0  0
   -1.4780    0.6899   -2.7105 H   0  0  0  0  0  0  0  0  0  0  0  0
   -0.5979    0.6061   -4.2710 H   0  0  0  0  0  0  0  0  0  0  0  0
   -0.0212   -1.6995   -2.9439 C   0  0  0  0  0  0  0  0  0  0  0  0
    0.0376   -1.8778   -4.0367 H   0  0  0  0  0  0  0  0  0  0  0  0
   -1.0743   -1.8351   -2.6380 H   0  0  0  0  0  0  0  0  0  0  0  0
    0.5914   -2.4675   -2.4312 H   0  0  0  0  0  0  0  0  0  0  0  0
    1.8810   -0.0901   -3.2156 C   0  0  0  0  0  0  0  0  0  0  0  0
    2.2985    0.9017   -2.9516 H   0  0  0  0  0  0  0  0  0  0  0  0
    1.8278   -0.1711   -4.3198 H   0  0  0  0  0  0  0  0  0  0  0  0
    2.5856   -0.8644   -2.8521 H   0  0  0  0  0  0  0  0  0  0  0  0
    0.4802   -0.4603    2.5735 C   0  0  0  0  0  0  0  0  0  0  0  0
   -0.4857    0.5422    3.2239 C   0  0  0  0  0  0  0  0  0  0  0  0
   -1.4859    0.4918    2.7506 H   0  0  0  0  0  0  0  0  0  0  0  0
   -0.1073    1.5780    3.1284 H   0  0  0  0  0  0  0  0  0  0  0  0
   -0.6027    0.3098    4.3009 H   0  0  0  0  0  0  0  0  0  0  0  0
    1.8770   -0.3038    3.2028 C   0  0  0  0  0  0  0  0  0  0  0  0
    1.8233   -0.4606    4.2988 H   0  0  0  0  0  0  0  0  0  0  0  0
    2.2900    0.7059    3.0081 H   0  0  0  0  0  0  0  0  0  0  0  0
    2.5858   -1.0478    2.7877 H   0  0  0  0  0  0  0  0  0  0  0  0
   -0.0180   -1.8990    2.8186 C   0  0  0  0  0  0  0  0  0  0  0  0
   -1.0704   -2.0179    2.5033 H   0  0  0  0  0  0  0  0  0  0  0  0
    0.0410   -2.1519    3.8966 H   0  0  0  0  0  0  0  0  0  0  0  0
    0.5981   -2.6274    2.2548 H   0  0  0  0  0  0  0  0  0  0  0  0
    0.0785    3.2603    0.1102 C   0  0  0  0  0  0  0  0  0  0  0  0
   -0.2444    4.0487    1.3950 C   0  0  0  0  0  0  0  0  0  0  0  0
    0.3313    4.9956    1.4332 H   0  0  0  0  0  0  0  0  0  0  0  0
    0.0034    3.4527    2.2946 H   0  0  0  0  0  0  0  0  0  0  0  0
   -1.3231    4.3046    1.4408 H   0  0  0  0  0  0  0  0  0  0  0  0
   -0.2452    4.1367   -1.1161 C   0  0  0  0  0  0  0  0  0  0  0  0
    0.0006    3.6045   -2.0554 H   0  0  0  0  0  0  0  0  0  0  0  0
    0.3316    5.0833   -1.0890 H   0  0  0  0  0  0  0  0  0  0  0  0
   -1.3236    4.3966   -1.1424 H   0  0  0  0  0  0  0  0  0  0  0  0
    1.5616    2.8814    0.0963 C   0  0  0  0  0  0  0  0  0  0  0  0
    1.8104    2.3186   -0.8236 H   0  0  0  0  0  0  0  0  0  0  0  0
    1.8113    2.2565    0.9750 H   0  0  0  0  0  0  0  0  0  0  0  0
    2.1771    3.8018    0.1279 H   0  0  0  0  0  0  0  0  0  0  0  0
    4.4978   -0.6421   -0.0196 C   0  0  0  0  0  0  0  0  0  0  0  0
    5.2282   -0.1652    1.2525 C   0  0  0  0  0  0  0  0  0  0  0  0
    4.7384   -0.5652    2.1614 H   0  0  0  0  0  0  0  0  0  0  0  0
    5.2175    0.9428    1.3187 H   0  0  0  0  0  0  0  0  0  0  0  0
    6.2875   -0.4933    1.2513 H   0  0  0  0  0  0  0  0  0  0  0  0
    4.4915   -2.1769   -0.0648 C   0  0  0  0  0  0  0  0  0  0  0  0
    5.5347   -2.5496   -0.0760 H   0  0  0  0  0  0  0  0  0  0  0  0
    3.9768   -2.5557   -0.9703 H   0  0  0  0  0  0  0  0  0  0  0  0
    3.9771   -2.6084    0.8169 H   0  0  0  0  0  0  0  0  0  0  0  0
    5.2280   -0.0911   -1.2614 C   0  0  0  0  0  0  0  0  0  0  0  0
    5.2166    1.0188   -1.2628 H   0  0  0  0  0  0  0  0  0  0  0  0
    4.7386   -0.4376   -2.1923 H   0  0  0  0  0  0  0  0  0  0  0  0
    6.2875   -0.4181   -1.2795 H   0  0  0  0  0  0  0  0  0  0  0  0
  1  5  1  1  0  0  0
  1  4  1  0  0  0  0
  2  7  1  1  0  0  0
  2  4  1  0  0  0  0
  3  2  1  0  0  0  0
  3  1  1  0  0  0  0
  4 22  1  0  0  0  0
  5  6  1  0  0  0  0
  5 35  1  0  0  0  0
  7  8  1  0  0  0  0
  9  3  1  0  0  0  0
 10 11  1  0  0  0  0
 10 12  1  0  0  0  0
 10  9  1  0  0  0  0
 13 10  1  0  0  0  0
 14 16  1  0  0  0  0
 14  9  1  0  0  0  0
 14 17  1  0  0  0  0
 15 14  1  0  0  0  0
 18 19  1  0  0  0  0
 18 21  1  0  0  0  0
 18  9  1  0  0  0  0
 20 18  1  0  0  0  0
 22 31  1  0  0  0  0
 22 27  1  0  0  0  0
 22 23  1  0  0  0  0
 23 26  1  0  0  0  0
 24 23  1  0  0  0  0
 25 23  1  0  0  0  0
 27 28  1  0  0  0  0
 29 27  1  0  0  0  0
 30 27  1  0  0  0  0
 31 33  1  0  0  0  0
 32 31  1  0  0  0  0
 34 31  1  0  0  0  0
 35 36  1  0  0  0  0
 36 37  1  0  0  0  0
 36 39  1  0  0  0  0
 36 38  1  0  0  0  0
 40 42  1  0  0  0  0
 40 35  1  0  0  0  0
 41 40  1  0  0  0  0
 43 40  1  0  0  0  0
 44 35  1  0  0  0  0
 44 47  1  0  0  0  0
 44 46  1  0  0  0  0
 45 44  1  0  0  0  0
 48  7  1  0  0  0  0
 48 49  1  0  0  0  0
 49 51  1  0  0  0  0
 49 50  1  0  0  0  0
 52 49  1  0  0  0  0
 53 48  1  0  0  0  0
 53 56  1  0  0  0  0
 54 53  1  0  0  0  0
 55 53  1  0  0  0  0
 57 48  1  0  0  0  0
 58 57  1  0  0  0  0
 59 57  1  0  0  0  0
 60 57  1  0  0  0  0
M  END
