1
 OpenBabel05122313063D

 42 42  0  0  0  0  0  0  0  0999 V2000
   -0.6875    0.0001   -0.6475 P   0  0  0  0  0  0  0  0  0  0  0  0
   -0.1593   -1.5574   -1.9490 Cl  0  0  0  0  0  0  0  0  0  0  0  0
   -0.1590    1.5573   -1.9488 Cl  0  0  0  0  0  0  0  0  0  0  0  0
    0.4916   -0.0002    0.5011 O   0  0  0  0  0  0  0  0  0  0  0  0
    1.8794   -0.0000    0.2739 C   0  0  0  0  0  0  0  0  0  0  0  0
    2.5534   -1.2476    0.1726 C   0  0  0  0  0  0  0  0  0  0  0  0
    3.8637   -1.1998   -0.3432 C   0  0  0  0  0  0  0  0  0  0  0  0
    4.5129    0.0001   -0.6701 C   0  0  0  0  0  0  0  0  0  0  0  0
    3.8635    1.2000   -0.3433 C   0  0  0  0  0  0  0  0  0  0  0  0
    2.5533    1.2477    0.1725 C   0  0  0  0  0  0  0  0  0  0  0  0
    2.0800   -2.6100    0.7519 C   0  0  0  0  0  0  0  0  0  0  0  0
    3.0490   -2.9248    1.9242 C   0  0  0  0  0  0  0  0  0  0  0  0
    2.1900   -3.7310   -0.3047 C   0  0  0  0  0  0  0  0  0  0  0  0
    0.6585   -2.6460    1.3459 C   0  0  0  0  0  0  0  0  0  0  0  0
    5.8784    0.0002   -1.3083 C   0  0  0  0  0  0  0  0  0  0  0  0
    2.0798    2.6101    0.7518 C   0  0  0  0  0  0  0  0  0  0  0  0
    0.6583    2.6459    1.3458 C   0  0  0  0  0  0  0  0  0  0  0  0
    2.1898    3.7311   -0.3045 C   0  0  0  0  0  0  0  0  0  0  0  0
    3.0487    2.9247    1.9243 C   0  0  0  0  0  0  0  0  0  0  0  0
    4.4145   -2.1432   -0.4747 H   0  0  0  0  0  0  0  0  0  0  0  0
    4.4142    2.1435   -0.4748 H   0  0  0  0  0  0  0  0  0  0  0  0
    2.7772   -3.8954    2.3879 H   0  0  0  0  0  0  0  0  0  0  0  0
    2.9888   -2.1408    2.7059 H   0  0  0  0  0  0  0  0  0  0  0  0
    4.1026   -2.9891    1.5901 H   0  0  0  0  0  0  0  0  0  0  0  0
    1.5179   -3.5376   -1.1621 H   0  0  0  0  0  0  0  0  0  0  0  0
    1.9003   -4.7018    0.1467 H   0  0  0  0  0  0  0  0  0  0  0  0
    3.2205   -3.8421   -0.6948 H   0  0  0  0  0  0  0  0  0  0  0  0
   -0.1235   -2.5552    0.5727 H   0  0  0  0  0  0  0  0  0  0  0  0
    0.4989   -1.8623    2.1096 H   0  0  0  0  0  0  0  0  0  0  0  0
    0.5109   -3.6299    1.8353 H   0  0  0  0  0  0  0  0  0  0  0  0
    6.4638    0.8971   -1.0249 H   0  0  0  0  0  0  0  0  0  0  0  0
    5.7958    0.0019   -2.4168 H   0  0  0  0  0  0  0  0  0  0  0  0
    6.4628   -0.8981   -1.0275 H   0  0  0  0  0  0  0  0  0  0  0  0
   -0.1237    2.5552    0.5725 H   0  0  0  0  0  0  0  0  0  0  0  0
    0.5106    3.6298    1.8353 H   0  0  0  0  0  0  0  0  0  0  0  0
    0.4986    1.8621    2.1093 H   0  0  0  0  0  0  0  0  0  0  0  0
    3.2204    3.8423   -0.6947 H   0  0  0  0  0  0  0  0  0  0  0  0
    1.9002    4.7019    0.1470 H   0  0  0  0  0  0  0  0  0  0  0  0
    1.5178    3.5379   -1.1620 H   0  0  0  0  0  0  0  0  0  0  0  0
    4.1023    2.9891    1.5902 H   0  0  0  0  0  0  0  0  0  0  0  0
    2.9885    2.1407    2.7059 H   0  0  0  0  0  0  0  0  0  0  0  0
    2.7769    3.8953    2.3880 H   0  0  0  0  0  0  0  0  0  0  0  0
  1  4  1  0  0  0  0
  2  1  1  0  0  0  0
  3  1  1  0  0  0  0
  5  4  1  0  0  0  0
  6  5  1  0  0  0  0
  6 11  1  0  0  0  0
  7  6  2  0  0  0  0
  8  9  2  0  0  0  0
  8  7  1  0  0  0  0
  9 10  1  0  0  0  0
 10  5  2  0  0  0  0
 10 16  1  0  0  0  0
 11 14  1  0  0  0  0
 11 12  1  0  0  0  0
 12 22  1  0  0  0  0
 12 23  1  0  0  0  0
 13 26  1  0  0  0  0
 13 11  1  0  0  0  0
 14 30  1  0  0  0  0
 14 29  1  0  0  0  0
 15 33  1  0  0  0  0
 15 31  1  0  0  0  0
 15  8  1  0  0  0  0
 16 17  1  0  0  0  0
 16 19  1  0  0  0  0
 17 35  1  0  0  0  0
 17 36  1  0  0  0  0
 18 38  1  0  0  0  0
 18 16  1  0  0  0  0
 19 42  1  0  0  0  0
 19 41  1  0  0  0  0
 20  7  1  0  0  0  0
 21  9  1  0  0  0  0
 24 12  1  0  0  0  0
 25 13  1  0  0  0  0
 27 13  1  0  0  0  0
 28 14  1  0  0  0  0
 32 15  1  0  0  0  0
 34 17  1  0  0  0  0
 37 18  1  0  0  0  0
 39 18  1  0  0  0  0
 40 19  1  0  0  0  0
M  END
