1
 OpenBabel05122313063D

 52 56  0  0  0  0  0  0  0  0999 V2000
   -1.2208   -0.3983    0.1222 P   0  0  0  0  0  0  0  0  0  0  0  0
    1.6115   -0.0139    0.2319 O   0  0  0  0  0  0  0  0  0  0  0  0
    0.0264   -1.4669   -0.6954 C   0  0  0  0  0  0  0  0  0  0  0  0
   -0.3073   -2.5813   -1.4807 C   0  0  0  0  0  0  0  0  0  0  0  0
   -1.3628   -2.8648   -1.6027 H   0  0  0  0  0  0  0  0  0  0  0  0
    0.7076   -3.3224   -2.1051 C   0  0  0  0  0  0  0  0  0  0  0  0
    0.4507   -4.1962   -2.7212 H   0  0  0  0  0  0  0  0  0  0  0  0
    2.0478   -2.9476   -1.9432 C   0  0  0  0  0  0  0  0  0  0  0  0
    2.8319   -3.5405   -2.4379 H   0  0  0  0  0  0  0  0  0  0  0  0
    2.4246   -1.8339   -1.1658 C   0  0  0  0  0  0  0  0  0  0  0  0
    1.3896   -1.1051   -0.5513 C   0  0  0  0  0  0  0  0  0  0  0  0
    2.9909    1.6278    1.1899 C   0  0  0  0  0  0  0  0  0  0  0  0
    2.0653    2.0790    1.5751 H   0  0  0  0  0  0  0  0  0  0  0  0
    2.8908    0.4610    0.4142 C   0  0  0  0  0  0  0  0  0  0  0  0
    4.0161   -0.1767   -0.1384 C   0  0  0  0  0  0  0  0  0  0  0  0
    5.2712    0.4059    0.1338 C   0  0  0  0  0  0  0  0  0  0  0  0
    6.1776   -0.0637   -0.2781 H   0  0  0  0  0  0  0  0  0  0  0  0
    5.3980    1.5648    0.9099 C   0  0  0  0  0  0  0  0  0  0  0  0
    6.3940    1.9914    1.0989 H   0  0  0  0  0  0  0  0  0  0  0  0
    4.2502    2.1801    1.4385 C   0  0  0  0  0  0  0  0  0  0  0  0
    4.3349    3.0959    2.0420 H   0  0  0  0  0  0  0  0  0  0  0  0
    3.8971   -1.4438   -0.9931 C   0  0  0  0  0  0  0  0  0  0  0  0
    4.5197   -1.1813   -2.3864 C   0  0  0  0  0  0  0  0  0  0  0  0
    4.4591   -2.0839   -3.0266 H   0  0  0  0  0  0  0  0  0  0  0  0
    5.5892   -0.9070   -2.2960 H   0  0  0  0  0  0  0  0  0  0  0  0
    3.9935   -0.3543   -2.9017 H   0  0  0  0  0  0  0  0  0  0  0  0
    4.6463   -2.6036   -0.2903 C   0  0  0  0  0  0  0  0  0  0  0  0
    4.2114   -2.8034    0.7087 H   0  0  0  0  0  0  0  0  0  0  0  0
    5.7180   -2.3561   -0.1558 H   0  0  0  0  0  0  0  0  0  0  0  0
    4.5861   -3.5356   -0.8875 H   0  0  0  0  0  0  0  0  0  0  0  0
   -2.8150   -1.2368   -0.2334 C   0  0  0  0  0  0  0  0  0  0  0  0
   -3.2620   -2.3354    0.5283 C   0  0  0  0  0  0  0  0  0  0  0  0
   -2.6693   -2.6892    1.3853 H   0  0  0  0  0  0  0  0  0  0  0  0
   -4.4685   -2.9704    0.1985 C   0  0  0  0  0  0  0  0  0  0  0  0
   -4.8172   -3.8241    0.7991 H   0  0  0  0  0  0  0  0  0  0  0  0
   -5.2313   -2.5158   -0.8897 C   0  0  0  0  0  0  0  0  0  0  0  0
   -6.1791   -3.0143   -1.1434 H   0  0  0  0  0  0  0  0  0  0  0  0
   -4.7900   -1.4189   -1.6472 C   0  0  0  0  0  0  0  0  0  0  0  0
   -5.3898   -1.0535   -2.4942 H   0  0  0  0  0  0  0  0  0  0  0  0
   -3.5877   -0.7757   -1.3185 C   0  0  0  0  0  0  0  0  0  0  0  0
   -3.2435    0.0978   -1.8954 H   0  0  0  0  0  0  0  0  0  0  0  0
   -0.9383   -0.6468    1.9191 C   0  0  0  0  0  0  0  0  0  0  0  0
   -1.4119    0.3336    2.8134 C   0  0  0  0  0  0  0  0  0  0  0  0
   -1.9052    1.2360    2.4180 H   0  0  0  0  0  0  0  0  0  0  0  0
   -1.2369    0.1649    4.1944 C   0  0  0  0  0  0  0  0  0  0  0  0
   -1.6060    0.9347    4.8887 H   0  0  0  0  0  0  0  0  0  0  0  0
   -0.5820   -0.9754    4.6877 C   0  0  0  0  0  0  0  0  0  0  0  0
   -0.4382   -1.1020    5.7715 H   0  0  0  0  0  0  0  0  0  0  0  0
   -0.1012   -1.9488    3.7975 C   0  0  0  0  0  0  0  0  0  0  0  0
    0.4207   -2.8386    4.1812 H   0  0  0  0  0  0  0  0  0  0  0  0
   -0.2779   -1.7882    2.4148 C   0  0  0  0  0  0  0  0  0  0  0  0
    0.1086   -2.5459    1.7157 H   0  0  0  0  0  0  0  0  0  0  0  0
  1 42  1  0  0  0  0
  2 14  1  0  0  0  0
  3 11  1  0  0  0  0
  3  1  1  0  0  0  0
  4  3  2  0  0  0  0
  5  4  1  0  0  0  0
  6  8  2  0  0  0  0
  6  4  1  0  0  0  0
  7  6  1  0  0  0  0
  8 10  1  0  0  0  0
  9  8  1  0  0  0  0
 10 22  1  0  0  0  0
 10 11  2  0  0  0  0
 11  2  1  0  0  0  0
 12 20  1  0  0  0  0
 12 13  1  0  0  0  0
 14 12  2  0  0  0  0
 15 16  2  0  0  0  0
 15 14  1  0  0  0  0
 16 18  1  0  0  0  0
 17 16  1  0  0  0  0
 18 19  1  0  0  0  0
 18 20  2  0  0  0  0
 20 21  1  0  0  0  0
 22 27  1  0  0  0  0
 22 15  1  0  0  0  0
 23 25  1  0  0  0  0
 23 22  1  0  0  0  0
 24 23  1  0  0  0  0
 26 23  1  0  0  0  0
 27 29  1  0  0  0  0
 27 28  1  0  0  0  0
 30 27  1  0  0  0  0
 31  1  1  0  0  0  0
 31 32  1  0  0  0  0
 32 33  1  0  0  0  0
 34 32  2  0  0  0  0
 34 35  1  0  0  0  0
 36 34  1  0  0  0  0
 37 36  1  0  0  0  0
 38 40  1  0  0  0  0
 38 36  2  0  0  0  0
 39 38  1  0  0  0  0
 40 31  2  0  0  0  0
 41 40  1  0  0  0  0
 42 51  2  0  0  0  0
 42 43  1  0  0  0  0
 43 45  2  0  0  0  0
 44 43  1  0  0  0  0
 45 47  1  0  0  0  0
 45 46  1  0  0  0  0
 47 48  1  0  0  0  0
 49 50  1  0  0  0  0
 49 47  2  0  0  0  0
 51 49  1  0  0  0  0
 52 51  1  0  0  0  0
M  END
