1
 OpenBabel05122313063D

 30 31  0  0  0  0  0  0  0  0999 V2000
    0.3008    0.1924   -0.0745 P   0  0  0  0  0  0  0  0  0  0  0  0
    2.1670    0.1829   -2.0814 F   0  0  0  0  0  0  0  0  0  0  0  0
    0.1016   -0.2214   -2.7341 F   0  0  0  0  0  0  0  0  0  0  0  0
    0.2553   -2.7107   -1.4240 F   0  0  0  0  0  0  0  0  0  0  0  0
    2.3543   -2.2951   -0.9818 F   0  0  0  0  0  0  0  0  0  0  0  0
    1.6638   -2.3412   -3.0503 F   0  0  0  0  0  0  0  0  0  0  0  0
    1.6809   -0.2588    1.0631 C   0  0  0  0  0  0  0  0  0  0  0  0
    2.9730    0.2752    0.8554 C   0  0  0  0  0  0  0  0  0  0  0  0
    3.1533    0.9727    0.0258 H   0  0  0  0  0  0  0  0  0  0  0  0
    4.0254   -0.0815    1.7070 C   0  0  0  0  0  0  0  0  0  0  0  0
    5.0284    0.3379    1.5364 H   0  0  0  0  0  0  0  0  0  0  0  0
    3.8028   -0.9676    2.7746 C   0  0  0  0  0  0  0  0  0  0  0  0
    4.6318   -1.2435    3.4438 H   0  0  0  0  0  0  0  0  0  0  0  0
    2.5215   -1.4949    2.9883 C   0  0  0  0  0  0  0  0  0  0  0  0
    2.3375   -2.1852    3.8249 H   0  0  0  0  0  0  0  0  0  0  0  0
    1.4633   -1.1426    2.1364 C   0  0  0  0  0  0  0  0  0  0  0  0
    0.4645   -1.5601    2.3149 H   0  0  0  0  0  0  0  0  0  0  0  0
    0.5692    2.0001   -0.3143 C   0  0  0  0  0  0  0  0  0  0  0  0
    0.8733    2.7787    0.8225 C   0  0  0  0  0  0  0  0  0  0  0  0
    1.0540    2.2931    1.7933 H   0  0  0  0  0  0  0  0  0  0  0  0
    0.9438    4.1752    0.7207 C   0  0  0  0  0  0  0  0  0  0  0  0
    1.1804    4.7727    1.6139 H   0  0  0  0  0  0  0  0  0  0  0  0
    0.7148    4.8060   -0.5121 C   0  0  0  0  0  0  0  0  0  0  0  0
    0.7729    5.9019   -0.5910 H   0  0  0  0  0  0  0  0  0  0  0  0
    0.4040    4.0340   -1.6416 C   0  0  0  0  0  0  0  0  0  0  0  0
    0.2164    4.5215   -2.6101 H   0  0  0  0  0  0  0  0  0  0  0  0
    0.3201    2.6374   -1.5466 C   0  0  0  0  0  0  0  0  0  0  0  0
    0.0549    2.0501   -2.4354 H   0  0  0  0  0  0  0  0  0  0  0  0
    1.0165   -0.4690   -1.7475 C   0  0  0  0  0  0  0  0  0  0  0  0
    1.3311   -1.9928   -1.7971 C   0  0  0  0  0  0  0  0  0  0  0  0
  1  7  1  0  0  0  0
  2 29  1  0  0  0  0
  3 29  1  0  0  0  0
  6 30  1  0  0  0  0
  7 16  1  0  0  0  0
  8  7  2  0  0  0  0
  8 10  1  0  0  0  0
  9  8  1  0  0  0  0
 10 12  2  0  0  0  0
 11 10  1  0  0  0  0
 12 14  1  0  0  0  0
 12 13  1  0  0  0  0
 14 15  1  0  0  0  0
 16 17  1  0  0  0  0
 16 14  2  0  0  0  0
 18  1  1  0  0  0  0
 18 19  1  0  0  0  0
 19 20  1  0  0  0  0
 21 19  2  0  0  0  0
 21 22  1  0  0  0  0
 23 21  1  0  0  0  0
 24 23  1  0  0  0  0
 25 27  1  0  0  0  0
 25 23  2  0  0  0  0
 26 25  1  0  0  0  0
 27 18  2  0  0  0  0
 28 27  1  0  0  0  0
 29  1  1  0  0  0  0
 30 29  1  0  0  0  0
 30  4  1  0  0  0  0
 30  5  1  0  0  0  0
M  END
