1
 OpenBabel05122313063D

 53 56  0  0  1  0  0  0  0  0999 V2000
    0.4796    0.7305    0.2587 P   0  0  0  0  0  0  0  0  0  0  0  0
   -2.1987    1.3234   -0.7607 N   0  0  0  0  0  0  0  0  0  0  0  0
   -2.0197   -0.5926    0.3363 N   0  0  0  0  0  0  0  0  0  0  0  0
    0.5651    0.5858    2.0788 C   0  0  0  0  0  0  0  0  0  0  0  0
   -0.4646    1.0510    2.9253 C   0  0  0  0  0  0  0  0  0  0  0  0
   -1.3862    1.4842    2.5054 H   0  0  0  0  0  0  0  0  0  0  0  0
   -0.3198    0.9460    4.3158 C   0  0  0  0  0  0  0  0  0  0  0  0
   -1.1229    1.3038    4.9771 H   0  0  0  0  0  0  0  0  0  0  0  0
    0.8465    0.3842    4.8625 C   0  0  0  0  0  0  0  0  0  0  0  0
    0.9548    0.3023    5.9542 H   0  0  0  0  0  0  0  0  0  0  0  0
    1.8698   -0.0791    4.0203 C   0  0  0  0  0  0  0  0  0  0  0  0
    2.7802   -0.5243    4.4479 H   0  0  0  0  0  0  0  0  0  0  0  0
    1.7328    0.0149    2.6276 C   0  0  0  0  0  0  0  0  0  0  0  0
    2.5262   -0.3622    1.9629 H   0  0  0  0  0  0  0  0  0  0  0  0
    0.9023    2.4593   -0.1466 C   0  0  0  0  0  0  0  0  0  0  0  0
    0.6190    3.5210    0.7384 C   0  0  0  0  0  0  0  0  0  0  0  0
    0.1397    3.3281    1.7095 H   0  0  0  0  0  0  0  0  0  0  0  0
    0.9701    4.8307    0.3820 C   0  0  0  0  0  0  0  0  0  0  0  0
    0.7538    5.6598    1.0720 H   0  0  0  0  0  0  0  0  0  0  0  0
    1.6103    5.0825   -0.8440 C   0  0  0  0  0  0  0  0  0  0  0  0
    1.8893    6.1116   -1.1152 H   0  0  0  0  0  0  0  0  0  0  0  0
    1.9159    4.0220   -1.7125 C   0  0  0  0  0  0  0  0  0  0  0  0
    2.4395    4.2149   -2.6604 H   0  0  0  0  0  0  0  0  0  0  0  0
    1.5700    2.7080   -1.3650 C   0  0  0  0  0  0  0  0  0  0  0  0
    1.8256    1.8693   -2.0329 H   0  0  0  0  0  0  0  0  0  0  0  0
   -3.3402   -0.5060   -0.0981 C   0  0  0  0  0  0  0  0  0  0  0  0
   -4.4333   -1.3735    0.0683 C   0  0  0  0  0  0  0  0  0  0  0  0
   -4.3437   -2.3229    0.6126 H   0  0  0  0  0  0  0  0  0  0  0  0
   -5.6446   -0.9688   -0.4994 C   0  0  0  0  0  0  0  0  0  0  0  0
   -6.5278   -1.6157   -0.3968 H   0  0  0  0  0  0  0  0  0  0  0  0
   -5.7637    0.2545   -1.2052 C   0  0  0  0  0  0  0  0  0  0  0  0
   -6.7370    0.5320   -1.6350 H   0  0  0  0  0  0  0  0  0  0  0  0
   -4.6781    1.1204   -1.3680 C   0  0  0  0  0  0  0  0  0  0  0  0
   -4.7880    2.0685   -1.9114 H   0  0  0  0  0  0  0  0  0  0  0  0
   -3.4580    0.7164   -0.7994 C   0  0  0  0  0  0  0  0  0  0  0  0
   -1.3437    0.5236   -0.0585 C   0  0  1  0  0  3  0  0  0  0  0  0
   -1.9038    2.5967   -1.4174 C   0  0  0  0  0  0  0  0  0  0  0  0
   -1.7040    3.3912   -0.6755 H   0  0  0  0  0  0  0  0  0  0  0  0
   -2.7790    2.8766   -2.0271 H   0  0  0  0  0  0  0  0  0  0  0  0
   -1.0266    2.4960   -2.0796 H   0  0  0  0  0  0  0  0  0  0  0  0
   -1.4682   -1.7823    1.0036 C   0  0  0  0  0  0  0  0  0  0  0  0
   -2.1741   -2.0516    1.8160 H   0  0  0  0  0  0  0  0  0  0  0  0
   -0.5242   -1.4859    1.4938 H   0  0  0  0  0  0  0  0  0  0  0  0
   -1.2472   -2.9581    0.0461 C   0  0  0  0  0  0  0  0  0  0  0  0
   -0.5895   -2.6256   -0.7874 H   0  0  0  0  0  0  0  0  0  0  0  0
   -2.2159   -3.2514   -0.4091 H   0  0  0  0  0  0  0  0  0  0  0  0
   -0.6103   -4.1609    0.7586 C   0  0  0  0  0  0  0  0  0  0  0  0
   -1.2461   -4.4522    1.6246 H   0  0  0  0  0  0  0  0  0  0  0  0
   -0.6454   -5.0223    0.0604 H   0  0  0  0  0  0  0  0  0  0  0  0
    0.8358   -3.9400    1.2106 C   0  0  0  0  0  0  0  0  0  0  0  0
    1.2326   -4.8428    1.7147 H   0  0  0  0  0  0  0  0  0  0  0  0
    0.9358   -3.1016    1.9329 H   0  0  0  0  0  0  0  0  0  0  0  0
    1.4954   -3.7219    0.3458 H   0  0  0  0  0  0  0  0  0  0  0  0
  1  4  1  0  0  0  0
  2 36  1  0  0  0  0
  3 41  1  0  0  0  0
  4 13  2  0  0  0  0
  4  5  1  0  0  0  0
  5  7  2  0  0  0  0
  6  5  1  0  0  0  0
  7  9  1  0  0  0  0
  7  8  1  0  0  0  0
  9 10  1  0  0  0  0
 11 12  1  0  0  0  0
 11  9  2  0  0  0  0
 13 11  1  0  0  0  0
 14 13  1  0  0  0  0
 15  1  1  0  0  0  0
 15 16  1  0  0  0  0
 16 17  1  0  0  0  0
 18 16  2  0  0  0  0
 18 19  1  0  0  0  0
 20 18  1  0  0  0  0
 21 20  1  0  0  0  0
 22 24  1  0  0  0  0
 22 20  2  0  0  0  0
 23 22  1  0  0  0  0
 24 15  2  0  0  0  0
 25 24  1  0  0  0  0
 26 27  1  0  0  0  0
 26  3  1  0  0  0  0
 27 28  1  0  0  0  0
 29 30  1  0  0  0  0
 29 27  2  0  0  0  0
 31 29  1  0  0  0  0
 32 31  1  0  0  0  0
 33 31  2  0  0  0  0
 33 35  1  0  0  0  0
 34 33  1  0  0  0  0
 35  2  1  0  0  0  0
 35 26  2  0  0  0  0
 36  1  1  6  0  0  0
 36  3  1  0  0  0  0
 37  2  1  0  0  0  0
 37 38  1  0  0  0  0
 39 37  1  0  0  0  0
 40 37  1  0  0  0  0
 41 43  1  0  0  0  0
 41 42  1  0  0  0  0
 44 47  1  0  0  0  0
 44 41  1  0  0  0  0
 45 44  1  0  0  0  0
 46 44  1  0  0  0  0
 47 50  1  0  0  0  0
 47 48  1  0  0  0  0
 49 47  1  0  0  0  0
 50 51  1  0  0  0  0
 50 52  1  0  0  0  0
 53 50  1  0  0  0  0
M  END
