1
 OpenBabel05122313063D

 38 40  0  0  1  0  0  0  0  0999 V2000
    0.4287   -0.0155   -0.1056 P   0  0  0  0  0  0  0  0  0  0  0  0
    0.3303   -1.3213    2.3976 N   0  0  0  0  0  0  0  0  0  0  0  0
    1.5103    0.5159    2.5789 N   0  0  0  0  0  0  0  0  0  0  0  0
    1.4180    1.4087   -0.6702 C   0  0  0  0  0  0  0  0  0  0  0  0
    0.7915    2.6736   -0.6983 C   0  0  0  0  0  0  0  0  0  0  0  0
   -0.2659    2.7717   -0.4034 H   0  0  0  0  0  0  0  0  0  0  0  0
    1.5169    3.7980   -1.1180 C   0  0  0  0  0  0  0  0  0  0  0  0
    1.0285    4.7833   -1.1435 H   0  0  0  0  0  0  0  0  0  0  0  0
    2.8544    3.6604   -1.5241 C   0  0  0  0  0  0  0  0  0  0  0  0
    3.4186    4.5425   -1.8618 H   0  0  0  0  0  0  0  0  0  0  0  0
    3.4673    2.3953   -1.5252 C   0  0  0  0  0  0  0  0  0  0  0  0
    4.5067    2.2861   -1.8689 H   0  0  0  0  0  0  0  0  0  0  0  0
    2.7529    1.2646   -1.1036 C   0  0  0  0  0  0  0  0  0  0  0  0
    3.2303    0.2738   -1.1268 H   0  0  0  0  0  0  0  0  0  0  0  0
    1.1335   -1.5205   -0.8579 C   0  0  0  0  0  0  0  0  0  0  0  0
    0.4600   -2.0775   -1.9649 C   0  0  0  0  0  0  0  0  0  0  0  0
   -0.4790   -1.6261   -2.3227 H   0  0  0  0  0  0  0  0  0  0  0  0
    0.9861   -3.2139   -2.5965 C   0  0  0  0  0  0  0  0  0  0  0  0
    0.4608   -3.6480   -3.4599 H   0  0  0  0  0  0  0  0  0  0  0  0
    2.1710   -3.7995   -2.1226 C   0  0  0  0  0  0  0  0  0  0  0  0
    2.5762   -4.6951   -2.6166 H   0  0  0  0  0  0  0  0  0  0  0  0
    2.8382   -3.2505   -1.0141 C   0  0  0  0  0  0  0  0  0  0  0  0
    3.7639   -3.7138   -0.6414 H   0  0  0  0  0  0  0  0  0  0  0  0
    2.3250   -2.1100   -0.3804 C   0  0  0  0  0  0  0  0  0  0  0  0
    2.8512   -1.6872    0.4905 H   0  0  0  0  0  0  0  0  0  0  0  0
    0.6796   -1.1951    3.7258 C   0  0  0  0  0  0  0  0  0  0  0  0
    0.3778   -1.9289    4.4795 H   0  0  0  0  0  0  0  0  0  0  0  0
    1.4171   -0.0423    3.8409 C   0  0  0  0  0  0  0  0  0  0  0  0
    1.8803    0.4241    4.7157 H   0  0  0  0  0  0  0  0  0  0  0  0
    0.8429   -0.2727    1.6873 C   0  0  2  0  0  3  0  0  0  0  0  0
   -0.4864   -2.4082    1.8556 C   0  0  0  0  0  0  0  0  0  0  0  0
    0.1284   -3.0677    1.2146 H   0  0  0  0  0  0  0  0  0  0  0  0
   -1.3146   -1.9808    1.2520 H   0  0  0  0  0  0  0  0  0  0  0  0
   -0.9065   -2.9833    2.6984 H   0  0  0  0  0  0  0  0  0  0  0  0
    2.2079    1.7788    2.3168 C   0  0  0  0  0  0  0  0  0  0  0  0
    2.9928    1.6384    1.5532 H   0  0  0  0  0  0  0  0  0  0  0  0
    2.6674    2.1142    3.2623 H   0  0  0  0  0  0  0  0  0  0  0  0
    1.4965    2.5457    1.9612 H   0  0  0  0  0  0  0  0  0  0  0  0
  2 26  1  0  0  0  0
  3 28  1  0  0  0  0
  4  1  1  0  0  0  0
  5  4  1  0  0  0  0
  5  6  1  0  0  0  0
  7  5  2  0  0  0  0
  8  7  1  0  0  0  0
  9  7  1  0  0  0  0
 10  9  1  0  0  0  0
 11  9  2  0  0  0  0
 11 13  1  0  0  0  0
 12 11  1  0  0  0  0
 13  4  2  0  0  0  0
 14 13  1  0  0  0  0
 15 24  1  0  0  0  0
 15  1  1  0  0  0  0
 16 15  2  0  0  0  0
 17 16  1  0  0  0  0
 18 20  2  0  0  0  0
 18 16  1  0  0  0  0
 19 18  1  0  0  0  0
 20 22  1  0  0  0  0
 21 20  1  0  0  0  0
 22 23  1  0  0  0  0
 22 24  2  0  0  0  0
 24 25  1  0  0  0  0
 26 28  2  0  0  0  0
 26 27  1  0  0  0  0
 28 29  1  0  0  0  0
 30  1  1  1  0  0  0
 30  2  1  0  0  0  0
 30  3  1  0  0  0  0
 31  2  1  0  0  0  0
 31 34  1  0  0  0  0
 32 31  1  0  0  0  0
 33 31  1  0  0  0  0
 35  3  1  0  0  0  0
 35 37  1  0  0  0  0
 36 35  1  0  0  0  0
 38 35  1  0  0  0  0
M  END
