1
 OpenBabel05122313063D

 50 52  0  0  0  0  0  0  0  0999 V2000
   -1.4446    0.2393    0.0179 P   0  0  0  0  0  0  0  0  0  0  0  0
   -1.0918    0.3239    1.7970 C   0  0  0  0  0  0  0  0  0  0  0  0
    0.2972   -1.9584    0.6517 N   0  0  0  0  0  0  0  0  0  0  0  0
   -2.7241    1.5539   -0.2134 C   0  0  0  0  0  0  0  0  0  0  0  0
   -3.3338   -2.8808   -1.9104 C   0  0  0  0  0  0  0  0  0  0  0  0
   -3.4641   -3.2172   -2.9502 H   0  0  0  0  0  0  0  0  0  0  0  0
    0.9772   -3.0871    0.0054 C   0  0  0  0  0  0  0  0  0  0  0  0
   -3.7472   -3.1656    0.4662 C   0  0  0  0  0  0  0  0  0  0  0  0
   -4.2015   -3.7277    1.2963 H   0  0  0  0  0  0  0  0  0  0  0  0
   -0.1895   -0.4753    2.4491 C   0  0  0  0  0  0  0  0  0  0  0  0
   -0.0195   -4.2679    0.0535 C   0  0  0  0  0  0  0  0  0  0  0  0
   -0.9835   -3.9876   -0.4125 H   0  0  0  0  0  0  0  0  0  0  0  0
   -0.2165   -4.5706    1.1018 H   0  0  0  0  0  0  0  0  0  0  0  0
    0.3978   -5.1389   -0.4907 H   0  0  0  0  0  0  0  0  0  0  0  0
   -2.2993    2.8490   -0.5736 C   0  0  0  0  0  0  0  0  0  0  0  0
   -1.2277    3.0252   -0.7675 H   0  0  0  0  0  0  0  0  0  0  0  0
    0.5495   -1.5858    1.8566 C   0  0  0  0  0  0  0  0  0  0  0  0
    1.3322   -2.0566    2.4929 H   0  0  0  0  0  0  0  0  0  0  0  0
   -3.9220   -3.6001   -0.8579 C   0  0  0  0  0  0  0  0  0  0  0  0
   -4.5155   -4.5023   -1.0693 H   0  0  0  0  0  0  0  0  0  0  0  0
    2.3068   -3.4943    0.6637 C   0  0  0  0  0  0  0  0  0  0  0  0
    2.1617   -3.8824    1.6923 H   0  0  0  0  0  0  0  0  0  0  0  0
    3.0116   -2.6411    0.7049 H   0  0  0  0  0  0  0  0  0  0  0  0
    2.7843   -4.3019    0.0749 H   0  0  0  0  0  0  0  0  0  0  0  0
   -0.0248   -0.0354    3.8881 C   0  0  0  0  0  0  0  0  0  0  0  0
    1.0352   -0.0636    4.2148 H   0  0  0  0  0  0  0  0  0  0  0  0
   -0.5801   -0.7284    4.5627 H   0  0  0  0  0  0  0  0  0  0  0  0
   -3.2302    3.8911   -0.6932 C   0  0  0  0  0  0  0  0  0  0  0  0
   -2.8889    4.8985   -0.9756 H   0  0  0  0  0  0  0  0  0  0  0  0
   -1.6282    1.4033    2.7161 C   0  0  0  0  0  0  0  0  0  0  0  0
   -2.6656    1.1446    3.0338 H   0  0  0  0  0  0  0  0  0  0  0  0
   -1.7045    2.3922    2.2215 H   0  0  0  0  0  0  0  0  0  0  0  0
   -4.0942    1.3107    0.0107 C   0  0  0  0  0  0  0  0  0  0  0  0
   -4.4380    0.2999    0.2773 H   0  0  0  0  0  0  0  0  0  0  0  0
   -0.6266    1.3863    3.8934 C   0  0  0  0  0  0  0  0  0  0  0  0
    0.1813    2.1159    3.6809 H   0  0  0  0  0  0  0  0  0  0  0  0
   -1.0867    1.6672    4.8607 H   0  0  0  0  0  0  0  0  0  0  0  0
   -2.3923   -1.2990   -0.3168 C   0  0  0  0  0  0  0  0  0  0  0  0
   -2.5737   -1.7316   -1.6442 C   0  0  0  0  0  0  0  0  0  0  0  0
   -2.1117   -1.1752   -2.4713 H   0  0  0  0  0  0  0  0  0  0  0  0
   -5.0233    2.3551   -0.1141 C   0  0  0  0  0  0  0  0  0  0  0  0
   -6.0921    2.1573    0.0590 H   0  0  0  0  0  0  0  0  0  0  0  0
   -2.9856   -2.0198    0.7380 C   0  0  0  0  0  0  0  0  0  0  0  0
   -2.8298   -1.6911    1.7768 H   0  0  0  0  0  0  0  0  0  0  0  0
    1.2099   -2.6860   -1.4644 C   0  0  0  0  0  0  0  0  0  0  0  0
    0.2491   -2.4041   -1.9360 H   0  0  0  0  0  0  0  0  0  0  0  0
    1.6517   -3.5302   -2.0309 H   0  0  0  0  0  0  0  0  0  0  0  0
    1.8943   -1.8195   -1.5327 H   0  0  0  0  0  0  0  0  0  0  0  0
   -4.5936    3.6455   -0.4630 C   0  0  0  0  0  0  0  0  0  0  0  0
   -5.3254    4.4614   -0.5637 H   0  0  0  0  0  0  0  0  0  0  0  0
  1  2  1  0  0  0  0
  2 10  2  0  0  0  0
  2 30  1  0  0  0  0
  3 17  2  0  0  0  0
  4 33  1  0  0  0  0
  4  1  1  0  0  0  0
  5 39  2  0  0  0  0
  5 19  1  0  0  0  0
  6  5  1  0  0  0  0
  7 11  1  0  0  0  0
  7  3  1  0  0  0  0
  7 21  1  0  0  0  0
  8 43  1  0  0  0  0
  8  9  1  0  0  0  0
 10 25  1  0  0  0  0
 11 13  1  0  0  0  0
 12 11  1  0  0  0  0
 14 11  1  0  0  0  0
 15  4  2  0  0  0  0
 16 15  1  0  0  0  0
 17 10  1  0  0  0  0
 17 18  1  0  0  0  0
 19  8  2  0  0  0  0
 20 19  1  0  0  0  0
 21 23  1  0  0  0  0
 21 22  1  0  0  0  0
 24 21  1  0  0  0  0
 25 35  1  0  0  0  0
 25 26  1  0  0  0  0
 25 27  1  0  0  0  0
 28 15  1  0  0  0  0
 28 49  2  0  0  0  0
 29 28  1  0  0  0  0
 30 31  1  0  0  0  0
 30 35  1  0  0  0  0
 32 30  1  0  0  0  0
 33 34  1  0  0  0  0
 35 37  1  0  0  0  0
 36 35  1  0  0  0  0
 38  1  1  0  0  0  0
 38 43  2  0  0  0  0
 39 38  1  0  0  0  0
 40 39  1  0  0  0  0
 41 33  2  0  0  0  0
 41 42  1  0  0  0  0
 43 44  1  0  0  0  0
 45  7  1  0  0  0  0
 46 45  1  0  0  0  0
 47 45  1  0  0  0  0
 48 45  1  0  0  0  0
 49 41  1  0  0  0  0
 50 49  1  0  0  0  0
M  END
