1
 OpenBabel05122313063D

 18 18  0  0  0  0  0  0  0  0999 V2000
    1.3628   -1.0265    0.5374 P   0  0  0  0  0  0  0  0  0  0  0  0
    1.4839   -2.6230    0.3252 F   0  0  0  0  0  0  0  0  0  0  0  0
    0.8926   -1.0611    2.0830 F   0  0  0  0  0  0  0  0  0  0  0  0
    3.0822   -0.5151    0.6282 C   0  0  0  0  0  0  0  0  0  0  0  0
    3.3057    0.8514    0.9394 C   0  0  0  0  0  0  0  0  0  0  0  0
    2.1881    1.5529    1.2459 O   0  0  0  0  0  0  0  0  0  0  0  0
    4.6134    1.3666    0.9095 C   0  0  0  0  0  0  0  0  0  0  0  0
    5.6774    0.5092    0.5851 C   0  0  0  0  0  0  0  0  0  0  0  0
    5.4599   -0.8447    0.2829 C   0  0  0  0  0  0  0  0  0  0  0  0
    4.1552   -1.3576    0.2979 C   0  0  0  0  0  0  0  0  0  0  0  0
    2.2277    2.9711    1.3158 C   0  0  0  0  0  0  0  0  0  0  0  0
    4.8050    2.4230    1.1403 H   0  0  0  0  0  0  0  0  0  0  0  0
    6.7002    0.9153    0.5646 H   0  0  0  0  0  0  0  0  0  0  0  0
    6.3048   -1.4982    0.0233 H   0  0  0  0  0  0  0  0  0  0  0  0
    3.9556   -2.4057    0.0340 H   0  0  0  0  0  0  0  0  0  0  0  0
    1.1758    3.2949    1.4153 H   0  0  0  0  0  0  0  0  0  0  0  0
    2.6593    3.4072    0.3897 H   0  0  0  0  0  0  0  0  0  0  0  0
    2.8077    3.3180    2.1982 H   0  0  0  0  0  0  0  0  0  0  0  0
  1  4  1  0  0  0  0
  1  3  1  0  0  0  0
  2  1  1  0  0  0  0
  4  5  1  0  0  0  0
  5  6  1  0  0  0  0
  6 11  1  0  0  0  0
  7  5  2  0  0  0  0
  7 12  1  0  0  0  0
  8  7  1  0  0  0  0
  9 10  1  0  0  0  0
  9  8  2  0  0  0  0
 10  4  2  0  0  0  0
 11 16  1  0  0  0  0
 11 18  1  0  0  0  0
 13  8  1  0  0  0  0
 14  9  1  0  0  0  0
 15 10  1  0  0  0  0
 17 11  1  0  0  0  0
M  END
