1
 OpenBabel05122313063D

 41 41  0  0  0  0  0  0  0  0999 V2000
    2.1836   -0.5179   -0.7176 P   0  0  2  0  0  0  0  0  0  0  0  0
    2.5996   -0.6708   -2.5752 C   0  0  0  0  0  0  0  0  0  0  0  0
    4.1033   -0.8996   -2.7875 C   0  0  0  0  0  0  0  0  0  0  0  0
    4.2966   -0.9675   -3.8794 H   0  0  0  0  0  0  0  0  0  0  0  0
    4.7128   -0.0653   -2.3891 H   0  0  0  0  0  0  0  0  0  0  0  0
    4.4626   -1.8400   -2.3279 H   0  0  0  0  0  0  0  0  0  0  0  0
    2.1750    0.6229   -3.2909 C   0  0  0  0  0  0  0  0  0  0  0  0
    2.3304    0.4902   -4.3825 H   0  0  0  0  0  0  0  0  0  0  0  0
    1.1040    0.8475   -3.1213 H   0  0  0  0  0  0  0  0  0  0  0  0
    2.7891    1.4879   -2.9721 H   0  0  0  0  0  0  0  0  0  0  0  0
    1.7996   -1.8679   -3.1207 C   0  0  0  0  0  0  0  0  0  0  0  0
    1.9712   -1.9406   -4.2156 H   0  0  0  0  0  0  0  0  0  0  0  0
    2.1313   -2.8257   -2.6726 H   0  0  0  0  0  0  0  0  0  0  0  0
    0.7126   -1.7387   -2.9517 H   0  0  0  0  0  0  0  0  0  0  0  0
    3.2472    0.8969   -0.1404 C   0  0  0  0  0  0  0  0  0  0  0  0
    4.5318    0.9379    0.4643 C   0  0  0  0  0  0  0  0  0  0  0  0
    5.1170    2.1812    0.7807 C   0  0  0  0  0  0  0  0  0  0  0  0
    6.1061    2.1915    1.2570 H   0  0  0  0  0  0  0  0  0  0  0  0
    4.4665    3.3881    0.5033 C   0  0  0  0  0  0  0  0  0  0  0  0
    4.9486    4.3426    0.7611 H   0  0  0  0  0  0  0  0  0  0  0  0
    3.1974    3.3621   -0.0877 C   0  0  0  0  0  0  0  0  0  0  0  0
    2.6524    4.2942   -0.3002 H   0  0  0  0  0  0  0  0  0  0  0  0
    2.6048    2.1326   -0.3927 C   0  0  0  0  0  0  0  0  0  0  0  0
    1.5881    2.1171   -0.8148 H   0  0  0  0  0  0  0  0  0  0  0  0
    5.3133   -0.2908    0.8867 C   0  0  0  0  0  0  0  0  0  0  0  0
    4.7632   -0.8845    1.9783 F   0  0  0  0  0  0  0  0  0  0  0  0
    5.3795   -1.2337   -0.0892 F   0  0  0  0  0  0  0  0  0  0  0  0
    6.5919    0.0076    1.2151 F   0  0  0  0  0  0  0  0  0  0  0  0
    2.6165   -2.1517    0.0463 C   0  0  0  0  0  0  0  0  0  0  0  0
    3.0377   -1.9374    1.0448 H   0  0  0  0  0  0  0  0  0  0  0  0
    3.4084   -2.6417   -0.5539 H   0  0  0  0  0  0  0  0  0  0  0  0
    1.3785   -3.0467    0.1999 C   0  0  0  0  0  0  0  0  0  0  0  0
    0.6886   -2.5450    0.9117 H   0  0  0  0  0  0  0  0  0  0  0  0
    0.8235   -3.1271   -0.7590 H   0  0  0  0  0  0  0  0  0  0  0  0
    1.7128   -4.4482    0.7181 C   0  0  0  0  0  0  0  0  0  0  0  0
    2.3972   -4.9566    0.0027 H   0  0  0  0  0  0  0  0  0  0  0  0
    2.2819   -4.3590    1.6696 H   0  0  0  0  0  0  0  0  0  0  0  0
    0.4635   -5.3028    0.9378 C   0  0  0  0  0  0  0  0  0  0  0  0
    0.7152   -6.3165    1.3090 H   0  0  0  0  0  0  0  0  0  0  0  0
   -0.2153   -4.8334    1.6810 H   0  0  0  0  0  0  0  0  0  0  0  0
   -0.1103   -5.4238   -0.0054 H   0  0  0  0  0  0  0  0  0  0  0  0
  1  2  1  6  0  0  0
  1 15  1  0  0  0  0
  1 29  1  0  0  0  0
  3  2  1  0  0  0  0
  3  5  1  0  0  0  0
  3  6  1  0  0  0  0
  4  3  1  0  0  0  0
  7  9  1  0  0  0  0
  7 10  1  0  0  0  0
  7  2  1  0  0  0  0
  8  7  1  0  0  0  0
 11 14  1  0  0  0  0
 11 13  1  0  0  0  0
 11  2  1  0  0  0  0
 12 11  1  0  0  0  0
 15 16  1  0  0  0  0
 16 17  2  0  0  0  0
 16 25  1  0  0  0  0
 17 18  1  0  0  0  0
 19 20  1  0  0  0  0
 19 17  1  0  0  0  0
 21 19  2  0  0  0  0
 22 21  1  0  0  0  0
 23 15  2  0  0  0  0
 23 21  1  0  0  0  0
 24 23  1  0  0  0  0
 25 28  1  0  0  0  0
 25 26  1  0  0  0  0
 27 25  1  0  0  0  0
 29 32  1  0  0  0  0
 29 30  1  0  0  0  0
 31 29  1  0  0  0  0
 32 35  1  0  0  0  0
 32 33  1  0  0  0  0
 34 32  1  0  0  0  0
 35 38  1  0  0  0  0
 35 37  1  0  0  0  0
 36 35  1  0  0  0  0
 38 39  1  0  0  0  0
 38 40  1  0  0  0  0
 41 38  1  0  0  0  0
M  END
