2
 OpenBabel05122313063D

 71 72  0  0  0  0  0  0  0  0999 V2000
    1.6763   -1.0084    0.4324 P   0  0  0  0  0  0  0  0  0  0  0  0
   -2.0637    0.8903    0.0517 P   0  0  0  0  0  0  0  0  0  0  0  0
    2.1589   -2.7129   -0.2350 C   0  0  0  0  0  0  0  0  0  0  0  0
    1.2500   -3.3100    0.0019 H   0  0  0  0  0  0  0  0  0  0  0  0
    4.1637    1.7699   -1.3166 C   0  0  0  0  0  0  0  0  0  0  0  0
    4.0643    2.5747   -2.0617 H   0  0  0  0  0  0  0  0  0  0  0  0
    4.4526   -0.2288    0.6182 C   0  0  0  0  0  0  0  0  0  0  0  0
    4.5736   -0.9997    1.3934 H   0  0  0  0  0  0  0  0  0  0  0  0
    3.1831    0.0049    0.0493 C   0  0  0  0  0  0  0  0  0  0  0  0
    0.6426   -2.1706    2.7551 C   0  0  0  0  0  0  0  0  0  0  0  0
    0.6796   -2.3135    3.8556 H   0  0  0  0  0  0  0  0  0  0  0  0
    0.7000   -3.1685    2.2778 H   0  0  0  0  0  0  0  0  0  0  0  0
   -0.3517   -1.7483    2.4980 H   0  0  0  0  0  0  0  0  0  0  0  0
    1.7633   -1.2279    2.3004 C   0  0  0  0  0  0  0  0  0  0  0  0
    2.7448   -1.6875    2.5521 H   0  0  0  0  0  0  0  0  0  0  0  0
    3.0211    1.0461   -0.9070 C   0  0  0  0  0  0  0  0  0  0  0  0
    1.2797    1.6097   -1.4581 Si  0  0  0  0  0  0  0  0  0  0  0  0
   -2.5691    1.8422   -1.4879 C   0  0  0  0  0  0  0  0  0  0  0  0
   -1.5710    2.1188   -1.8910 H   0  0  0  0  0  0  0  0  0  0  0  0
   -3.2739    0.9749   -2.5356 C   0  0  0  0  0  0  0  0  0  0  0  0
   -4.3012    0.7017   -2.2266 H   0  0  0  0  0  0  0  0  0  0  0  0
   -2.7208    0.0327   -2.7195 H   0  0  0  0  0  0  0  0  0  0  0  0
   -3.3503    1.5294   -3.4938 H   0  0  0  0  0  0  0  0  0  0  0  0
   -3.5230    0.8698    1.2280 C   0  0  0  0  0  0  0  0  0  0  0  0
   -3.7528    1.9251    1.4890 H   0  0  0  0  0  0  0  0  0  0  0  0
   -4.7532    0.2477    0.5532 C   0  0  0  0  0  0  0  0  0  0  0  0
   -4.5143   -0.7563    0.1442 H   0  0  0  0  0  0  0  0  0  0  0  0
   -5.1527    0.8717   -0.2684 H   0  0  0  0  0  0  0  0  0  0  0  0
   -5.5622    0.1245    1.3022 H   0  0  0  0  0  0  0  0  0  0  0  0
    0.4354    0.4198   -2.6605 C   0  0  0  0  0  0  0  0  0  0  0  0
   -0.3114    0.9410   -3.2923 H   0  0  0  0  0  0  0  0  0  0  0  0
   -0.0481   -0.4499   -2.1738 H   0  0  0  0  0  0  0  0  0  0  0  0
    1.2307    0.0364   -3.3326 H   0  0  0  0  0  0  0  0  0  0  0  0
    1.0419    3.7571    2.0408 C   0  0  0  0  0  0  0  0  0  0  0  0
    1.7825    4.4142    2.5214 H   0  0  0  0  0  0  0  0  0  0  0  0
   -0.8135    2.0308    0.7883 C   0  0  0  0  0  0  0  0  0  0  0  0
   -3.3151    3.1378   -1.1540 C   0  0  0  0  0  0  0  0  0  0  0  0
   -3.4425    3.7487   -2.0715 H   0  0  0  0  0  0  0  0  0  0  0  0
   -2.7635    3.7522   -0.4143 H   0  0  0  0  0  0  0  0  0  0  0  0
   -4.3287    2.9375   -0.7514 H   0  0  0  0  0  0  0  0  0  0  0  0
    0.4632    2.2220    0.1837 C   0  0  0  0  0  0  0  0  0  0  0  0
   -1.1388    2.7198    1.9794 C   0  0  0  0  0  0  0  0  0  0  0  0
   -2.1272    2.5931    2.4393 H   0  0  0  0  0  0  0  0  0  0  0  0
    5.4307    1.5024   -0.7748 C   0  0  0  0  0  0  0  0  0  0  0  0
    6.3065    2.0801   -1.1090 H   0  0  0  0  0  0  0  0  0  0  0  0
    5.5709    0.5152    0.2121 C   0  0  0  0  0  0  0  0  0  0  0  0
    6.5555    0.3191    0.6645 H   0  0  0  0  0  0  0  0  0  0  0  0
    1.4909    3.2119   -2.4671 C   0  0  0  0  0  0  0  0  0  0  0  0
    2.0221    3.0110   -3.4208 H   0  0  0  0  0  0  0  0  0  0  0  0
    2.0391    4.0045   -1.9208 H   0  0  0  0  0  0  0  0  0  0  0  0
    0.4903    3.6175   -2.7251 H   0  0  0  0  0  0  0  0  0  0  0  0
    2.2569   -2.6440   -1.7629 C   0  0  0  0  0  0  0  0  0  0  0  0
    3.0641   -1.9565   -2.0939 H   0  0  0  0  0  0  0  0  0  0  0  0
    1.3017   -2.3120   -2.2116 H   0  0  0  0  0  0  0  0  0  0  0  0
    2.4812   -3.6505   -2.1735 H   0  0  0  0  0  0  0  0  0  0  0  0
    1.3611    3.0958    0.8488 C   0  0  0  0  0  0  0  0  0  0  0  0
    2.3651    3.2539    0.4229 H   0  0  0  0  0  0  0  0  0  0  0  0
    3.3854   -3.3877    0.3796 C   0  0  0  0  0  0  0  0  0  0  0  0
    3.4609   -4.4313    0.0064 H   0  0  0  0  0  0  0  0  0  0  0  0
    3.3401   -3.4417    1.4861 H   0  0  0  0  0  0  0  0  0  0  0  0
    4.3255   -2.8725    0.0951 H   0  0  0  0  0  0  0  0  0  0  0  0
    1.6682    0.1365    2.9917 C   0  0  0  0  0  0  0  0  0  0  0  0
    0.7100    0.6410    2.7521 H   0  0  0  0  0  0  0  0  0  0  0  0
    2.4865    0.8171    2.6843 H   0  0  0  0  0  0  0  0  0  0  0  0
    1.7203    0.0149    4.0944 H   0  0  0  0  0  0  0  0  0  0  0  0
   -0.2243    3.5742    2.6081 C   0  0  0  0  0  0  0  0  0  0  0  0
   -0.5064    4.0905    3.5380 H   0  0  0  0  0  0  0  0  0  0  0  0
   -3.1525    0.0788    2.4929 C   0  0  0  0  0  0  0  0  0  0  0  0
   -3.9770    0.1420    3.2328 H   0  0  0  0  0  0  0  0  0  0  0  0
   -2.2258    0.4410    2.9788 H   0  0  0  0  0  0  0  0  0  0  0  0
   -2.9981   -0.9905    2.2400 H   0  0  0  0  0  0  0  0  0  0  0  0
  1 14  1  0  0  0  0
  2 36  1  0  0  0  0
  2 24  1  0  0  0  0
  3  4  1  0  0  0  0
  3 58  1  0  0  0  0
  3  1  1  0  0  0  0
  5 16  2  0  0  0  0
  5 44  1  0  0  0  0
  6  5  1  0  0  0  0
  7  8  1  0  0  0  0
  9  1  1  0  0  0  0
  9  7  2  0  0  0  0
 10 11  1  0  0  0  0
 12 10  1  0  0  0  0
 13 10  1  0  0  0  0
 14 15  1  0  0  0  0
 14 10  1  0  0  0  0
 14 62  1  0  0  0  0
 16  9  1  0  0  0  0
 17 16  1  0  0  0  0
 17 41  1  0  0  0  0
 18 37  1  0  0  0  0
 18  2  1  0  0  0  0
 19 18  1  0  0  0  0
 20 21  1  0  0  0  0
 20 18  1  0  0  0  0
 22 20  1  0  0  0  0
 23 20  1  0  0  0  0
 24 25  1  0  0  0  0
 24 68  1  0  0  0  0
 26 24  1  0  0  0  0
 26 29  1  0  0  0  0
 27 26  1  0  0  0  0
 28 26  1  0  0  0  0
 30 32  1  0  0  0  0
 30 17  1  0  0  0  0
 31 30  1  0  0  0  0
 33 30  1  0  0  0  0
 34 35  1  0  0  0  0
 34 66  1  0  0  0  0
 36 42  1  0  0  0  0
 37 40  1  0  0  0  0
 37 39  1  0  0  0  0
 38 37  1  0  0  0  0
 41 36  2  0  0  0  0
 41 56  1  0  0  0  0
 42 43  1  0  0  0  0
 42 66  2  0  0  0  0
 44 46  2  0  0  0  0
 45 44  1  0  0  0  0
 46  7  1  0  0  0  0
 46 47  1  0  0  0  0
 48 50  1  0  0  0  0
 48 17  1  0  0  0  0
 49 48  1  0  0  0  0
 51 48  1  0  0  0  0
 52  3  1  0  0  0  0
 53 52  1  0  0  0  0
 54 52  1  0  0  0  0
 55 52  1  0  0  0  0
 56 34  2  0  0  0  0
 57 56  1  0  0  0  0
 58 60  1  0  0  0  0
 59 58  1  0  0  0  0
 61 58  1  0  0  0  0
 62 65  1  0  0  0  0
 63 62  1  0  0  0  0
 64 62  1  0  0  0  0
 66 67  1  0  0  0  0
 68 70  1  0  0  0  0
 68 69  1  0  0  0  0
 71 68  1  0  0  0  0
M  END
