1
 OpenBabel05122313063D

 41 44  0  0  1  0  0  0  0  0999 V2000
   -0.1941    0.3306   -0.0246 P   0  0  1  0  0  0  0  0  0  0  0  0
   -0.9882   -1.8815    1.2632 O   0  0  0  0  0  0  0  0  0  0  0  0
   -3.0276   -2.1492    0.1055 O   0  0  0  0  0  0  0  0  0  0  0  0
   -1.9014    4.0968   -0.4444 C   0  0  0  0  0  0  0  0  0  0  0  0
   -2.8289    4.5412   -0.8364 H   0  0  0  0  0  0  0  0  0  0  0  0
   -2.6472   -0.1956   -1.1623 O   0  0  0  0  0  0  0  0  0  0  0  0
   -0.5295    2.1290   -0.0128 C   0  0  0  0  0  0  0  0  0  0  0  0
   -0.5396   -0.0781    2.7459 C   0  0  0  0  0  0  0  0  0  0  0  0
   -0.6135    1.0163    2.9016 H   0  0  0  0  0  0  0  0  0  0  0  0
    0.5278   -0.3730    2.7744 H   0  0  0  0  0  0  0  0  0  0  0  0
   -1.0760   -0.5954    3.5670 H   0  0  0  0  0  0  0  0  0  0  0  0
   -1.1555   -0.4673    1.4145 C   0  0  1  0  0  0  0  0  0  0  0  0
    0.4746    2.9627    0.5274 C   0  0  0  0  0  0  0  0  0  0  0  0
    1.4164    2.5138    0.8826 H   0  0  0  0  0  0  0  0  0  0  0  0
   -4.7339   -0.5205   -0.1079 C   0  0  0  0  0  0  0  0  0  0  0  0
   -4.9557    0.5623   -0.1552 H   0  0  0  0  0  0  0  0  0  0  0  0
   -5.2613   -0.9656    0.7560 H   0  0  0  0  0  0  0  0  0  0  0  0
   -5.0862   -1.0057   -1.0373 H   0  0  0  0  0  0  0  0  0  0  0  0
   -3.2413   -0.7448    0.0292 C   0  0  1  0  0  0  0  0  0  0  0  0
   -1.7229    2.7068   -0.5033 C   0  0  0  0  0  0  0  0  0  0  0  0
   -2.5003    2.0628   -0.9385 H   0  0  0  0  0  0  0  0  0  0  0  0
   -0.9065    4.9191    0.1089 C   0  0  0  0  0  0  0  0  0  0  0  0
   -1.0544    6.0087    0.1545 H   0  0  0  0  0  0  0  0  0  0  0  0
   -1.2556   -0.4883   -1.3684 C   0  0  2  0  0  0  0  0  0  0  0  0
   -1.6376   -2.4813    0.1318 C   0  0  2  0  0  0  0  0  0  0  0  0
   -1.5304   -3.9785    0.3336 C   0  0  0  0  0  0  0  0  0  0  0  0
   -2.0390   -4.5097   -0.4920 H   0  0  0  0  0  0  0  0  0  0  0  0
   -2.0139   -4.2466    1.2915 H   0  0  0  0  0  0  0  0  0  0  0  0
   -0.4661   -4.2770    0.3674 H   0  0  0  0  0  0  0  0  0  0  0  0
   -2.6380   -0.1043    1.2920 C   0  0  0  0  0  0  0  0  0  0  0  0
   -2.7789    0.9939    1.2833 H   0  0  0  0  0  0  0  0  0  0  0  0
   -3.1723   -0.5143    2.1738 H   0  0  0  0  0  0  0  0  0  0  0  0
   -1.0206   -1.9966   -1.1923 C   0  0  0  0  0  0  0  0  0  0  0  0
   -1.5251   -2.5277   -2.0256 H   0  0  0  0  0  0  0  0  0  0  0  0
    0.0622   -2.2300   -1.2236 H   0  0  0  0  0  0  0  0  0  0  0  0
   -0.8809    0.0134   -2.7528 C   0  0  0  0  0  0  0  0  0  0  0  0
    0.1858   -0.2029   -2.9576 H   0  0  0  0  0  0  0  0  0  0  0  0
   -1.0429    1.1048   -2.8420 H   0  0  0  0  0  0  0  0  0  0  0  0
   -1.5074   -0.4999   -3.5099 H   0  0  0  0  0  0  0  0  0  0  0  0
    0.2810    4.3497    0.5948 C   0  0  0  0  0  0  0  0  0  0  0  0
    1.0691    4.9892    1.0198 H   0  0  0  0  0  0  0  0  0  0  0  0
  1  7  1  1  0  0  0
  1 12  1  0  0  0  0
  2 12  1  0  0  0  0
  3 25  1  0  0  0  0
  4 22  1  0  0  0  0
  5  4  1  0  0  0  0
  6 19  1  0  0  0  0
  7 13  2  0  0  0  0
  8 10  1  0  0  0  0
  8  9  1  0  0  0  0
  8 11  1  0  0  0  0
 12  8  1  1  0  0  0
 13 40  1  0  0  0  0
 13 14  1  0  0  0  0
 15 17  1  0  0  0  0
 16 15  1  0  0  0  0
 18 15  1  0  0  0  0
 19 15  1  6  0  0  0
 19  3  1  0  0  0  0
 19 30  1  0  0  0  0
 20  4  2  0  0  0  0
 20  7  1  0  0  0  0
 21 20  1  0  0  0  0
 22 23  1  0  0  0  0
 22 40  2  0  0  0  0
 24 36  1  6  0  0  0
 24 33  1  0  0  0  0
 24  6  1  0  0  0  0
 24  1  1  0  0  0  0
 25 26  1  1  0  0  0
 25  2  1  0  0  0  0
 26 29  1  0  0  0  0
 26 28  1  0  0  0  0
 27 26  1  0  0  0  0
 30 12  1  0  0  0  0
 30 32  1  0  0  0  0
 31 30  1  0  0  0  0
 33 25  1  0  0  0  0
 34 33  1  0  0  0  0
 35 33  1  0  0  0  0
 37 36  1  0  0  0  0
 38 36  1  0  0  0  0
 39 36  1  0  0  0  0
 40 41  1  0  0  0  0
M  END
