1
 OpenBabel05122313063D

 44 48  0  0  0  0  0  0  0  0999 V2000
    0.2761   -0.6086   -0.5041 P   0  0  1  0  0  0  0  0  0  0  0  0
    0.7007   -1.2933   -2.0352 O   0  0  0  0  0  0  0  0  0  0  0  0
    1.4151   -4.2447   -0.5618 O   0  0  0  0  0  0  0  0  0  0  0  0
    0.8935   -2.2418   -0.9780 C   0  0  0  0  0  0  0  0  0  0  0  0
    2.1828   -3.0438   -0.7882 C   0  0  0  0  0  0  0  0  0  0  0  0
    2.7854   -3.0736   -1.7254 H   0  0  0  0  0  0  0  0  0  0  0  0
    2.8560   -2.7932    0.0582 H   0  0  0  0  0  0  0  0  0  0  0  0
    0.1748   -3.5887   -0.8995 C   0  0  0  0  0  0  0  0  0  0  0  0
   -0.5975   -3.7007   -0.1078 H   0  0  0  0  0  0  0  0  0  0  0  0
   -0.2520   -3.9138   -1.8767 H   0  0  0  0  0  0  0  0  0  0  0  0
    1.7370    0.4227    0.2068 C   0  0  0  0  0  0  0  0  0  0  0  0
    1.3811    0.2618    1.6971 C   0  0  0  0  0  0  0  0  0  0  0  0
    1.4867   -1.0161    2.3004 C   0  0  0  0  0  0  0  0  0  0  0  0
    1.8677   -1.8672    1.7186 H   0  0  0  0  0  0  0  0  0  0  0  0
    1.1122   -1.2214    3.6342 C   0  0  0  0  0  0  0  0  0  0  0  0
    1.2072   -2.2248    4.0751 H   0  0  0  0  0  0  0  0  0  0  0  0
    0.6038   -0.1582    4.3961 C   0  0  0  0  0  0  0  0  0  0  0  0
    0.3004   -0.3197    5.4411 H   0  0  0  0  0  0  0  0  0  0  0  0
    0.4657    1.1050    3.8048 C   0  0  0  0  0  0  0  0  0  0  0  0
    0.0495    1.9443    4.3820 H   0  0  0  0  0  0  0  0  0  0  0  0
    0.8455    1.3125    2.4697 C   0  0  0  0  0  0  0  0  0  0  0  0
    0.7159    2.3068    2.0247 H   0  0  0  0  0  0  0  0  0  0  0  0
    1.6702    1.8643   -0.3151 C   0  0  0  0  0  0  0  0  0  0  0  0
    0.9486    2.2186   -1.4693 C   0  0  0  0  0  0  0  0  0  0  0  0
    0.3794    1.4580   -2.0229 H   0  0  0  0  0  0  0  0  0  0  0  0
    0.9483    3.5391   -1.9466 C   0  0  0  0  0  0  0  0  0  0  0  0
    0.3639    3.7878   -2.8450 H   0  0  0  0  0  0  0  0  0  0  0  0
    1.6884    4.5261   -1.2826 C   0  0  0  0  0  0  0  0  0  0  0  0
    1.6871    5.5628   -1.6510 H   0  0  0  0  0  0  0  0  0  0  0  0
    2.4461    4.1773   -0.1518 C   0  0  0  0  0  0  0  0  0  0  0  0
    3.0505    4.9388    0.3641 H   0  0  0  0  0  0  0  0  0  0  0  0
    2.4432    2.8593    0.3219 C   0  0  0  0  0  0  0  0  0  0  0  0
    3.0570    2.5921    1.1952 H   0  0  0  0  0  0  0  0  0  0  0  0
    3.1229   -0.1148   -0.1761 C   0  0  0  0  0  0  0  0  0  0  0  0
    3.4733   -0.2255   -1.5398 C   0  0  0  0  0  0  0  0  0  0  0  0
    2.7319    0.0175   -2.3125 H   0  0  0  0  0  0  0  0  0  0  0  0
    4.7533   -0.6516   -1.9187 C   0  0  0  0  0  0  0  0  0  0  0  0
    4.9992   -0.7409   -2.9877 H   0  0  0  0  0  0  0  0  0  0  0  0
    5.7184   -0.9546   -0.9452 C   0  0  0  0  0  0  0  0  0  0  0  0
    6.7240   -1.2871   -1.2436 H   0  0  0  0  0  0  0  0  0  0  0  0
    5.3928   -0.8119    0.4115 C   0  0  0  0  0  0  0  0  0  0  0  0
    6.1452   -1.0238    1.1864 H   0  0  0  0  0  0  0  0  0  0  0  0
    4.1086   -0.3933    0.7935 C   0  0  0  0  0  0  0  0  0  0  0  0
    3.8751   -0.2786    1.8609 H   0  0  0  0  0  0  0  0  0  0  0  0
  1 11  1  1  0  0  0
  2  4  1  0  0  0  0
  2  1  1  0  0  0  0
  4  8  1  0  0  0  0
  4  5  1  0  0  0  0
  4  1  1  0  0  0  0
  5  3  1  0  0  0  0
  5  7  1  0  0  0  0
  6  5  1  0  0  0  0
  8  3  1  0  0  0  0
  8  9  1  0  0  0  0
 10  8  1  0  0  0  0
 11 12  1  0  0  0  0
 12 13  2  0  0  0  0
 12 21  1  0  0  0  0
 13 15  1  0  0  0  0
 14 13  1  0  0  0  0
 15 16  1  0  0  0  0
 15 17  2  0  0  0  0
 17 18  1  0  0  0  0
 19 20  1  0  0  0  0
 19 17  1  0  0  0  0
 21 19  2  0  0  0  0
 22 21  1  0  0  0  0
 23 11  1  0  0  0  0
 23 32  1  0  0  0  0
 24 23  2  0  0  0  0
 25 24  1  0  0  0  0
 26 24  1  0  0  0  0
 26 28  2  0  0  0  0
 27 26  1  0  0  0  0
 28 30  1  0  0  0  0
 29 28  1  0  0  0  0
 30 32  2  0  0  0  0
 30 31  1  0  0  0  0
 32 33  1  0  0  0  0
 34 11  1  0  0  0  0
 34 43  1  0  0  0  0
 35 34  2  0  0  0  0
 36 35  1  0  0  0  0
 37 35  1  0  0  0  0
 37 39  2  0  0  0  0
 38 37  1  0  0  0  0
 39 41  1  0  0  0  0
 40 39  1  0  0  0  0
 41 43  2  0  0  0  0
 41 42  1  0  0  0  0
 43 44  1  0  0  0  0
M  END
