1
 OpenBabel05122313063D

 16 15  0  0  1  0  0  0  0  0999 V2000
    0.8210    0.4746   -0.9045 P   0  0  0  0  0  2  0  0  0  0  0  0
    2.6877    2.4120   -0.6066 F   0  0  0  0  0  0  0  0  0  0  0  0
    1.3257    2.3509    1.0903 F   0  0  0  0  0  0  0  0  0  0  0  0
    0.6222    3.1074   -0.8299 F   0  0  0  0  0  0  0  0  0  0  0  0
    2.7363   -0.0072    0.9940 F   0  0  0  0  0  0  0  0  0  0  0  0
    2.2853   -1.7965   -0.2676 N   0  0  0  0  0  0  0  0  0  0  0  0
    1.4037    2.1698   -0.2452 C   0  0  0  0  0  0  0  0  0  0  0  0
    2.0145   -0.5162   -0.0032 C   0  0  2  0  0  3  0  0  0  0  0  0
    3.0644   -2.6416    0.6368 C   0  0  0  0  0  0  0  0  0  0  0  0
    1.6685   -2.4552   -1.4134 C   0  0  0  0  0  0  0  0  0  0  0  0
    3.4738   -2.0403    1.4643 H   0  0  0  0  0  0  0  0  0  0  0  0
    2.4092   -3.4343    1.0509 H   0  0  0  0  0  0  0  0  0  0  0  0
    3.8983   -3.1108    0.0771 H   0  0  0  0  0  0  0  0  0  0  0  0
    1.4093   -1.6974   -2.1791 H   0  0  0  0  0  0  0  0  0  0  0  0
    0.7461   -2.9924   -1.1147 H   0  0  0  0  0  0  0  0  0  0  0  0
    2.3909   -3.1805   -1.8355 H   0  0  0  0  0  0  0  0  0  0  0  0
  1  7  1  0  0  0  0
  1  8  1  0  0  0  0
  2  7  1  0  0  0  0
  4  7  1  0  0  0  0
  6  8  1  0  0  0  0
  6  9  1  0  0  0  0
  7  3  1  0  0  0  0
  8  5  1  6  0  0  0
  9 12  1  0  0  0  0
  9 11  1  0  0  0  0
 10 15  1  0  0  0  0
 10  6  1  0  0  0  0
 13  9  1  0  0  0  0
 14 10  1  0  0  0  0
 16 10  1  0  0  0  0
M  END
