12
 OpenBabel05122313063D

 60 59  0  0  0  0  0  0  0  0999 V2000
   -0.8153   -2.5179    0.8846 C   0  0  0  0  0  0  0  0  0  0  0  0
   -2.1362   -1.9208    0.3759 C   0  0  0  0  0  0  0  0  0  0  0  0
   -2.0724   -0.0657    0.1490 P   0  0  0  0  0  0  0  0  0  0  0  0
   -3.2997    0.2968   -1.2706 C   0  0  0  0  0  0  0  0  0  0  0  0
   -3.5652    1.8106   -1.3348 C   0  0  0  0  0  0  0  0  0  0  0  0
   -4.6231   -0.4787   -1.1421 C   0  0  0  0  0  0  0  0  0  0  0  0
   -2.6021   -0.1293   -2.5763 C   0  0  0  0  0  0  0  0  0  0  0  0
   -2.6706    0.7019    1.7941 C   0  0  0  0  0  0  0  0  0  0  0  0
   -2.2789    2.1922    1.8132 C   0  0  0  0  0  0  0  0  0  0  0  0
   -1.8979   -0.0050    2.9213 C   0  0  0  0  0  0  0  0  0  0  0  0
   -4.1777    0.5352    2.0376 C   0  0  0  0  0  0  0  0  0  0  0  0
    0.7294   -1.7313    0.1708 P   0  0  0  0  0  0  0  0  0  0  0  0
    1.1564   -2.7339   -1.4007 C   0  0  0  0  0  0  0  0  0  0  0  0
    2.1814   -1.9542   -2.2432 C   0  0  0  0  0  0  0  0  0  0  0  0
   -0.1353   -2.8644   -2.2253 C   0  0  0  0  0  0  0  0  0  0  0  0
    1.6790   -4.1418   -1.0721 C   0  0  0  0  0  0  0  0  0  0  0  0
    2.0488   -1.9692    1.5335 C   0  0  0  0  0  0  0  0  0  0  0  0
    1.9757   -3.3607    2.1904 C   0  0  0  0  0  0  0  0  0  0  0  0
    3.4475   -1.7342    0.9375 C   0  0  0  0  0  0  0  0  0  0  0  0
    1.7741   -0.9028    2.6100 C   0  0  0  0  0  0  0  0  0  0  0  0
   -0.7290   -2.3741    1.9790 H   0  0  0  0  0  0  0  0  0  0  0  0
   -0.7804   -3.6129    0.7095 H   0  0  0  0  0  0  0  0  0  0  0  0
   -2.3885   -2.3329   -0.6202 H   0  0  0  0  0  0  0  0  0  0  0  0
   -2.9727   -2.1964    1.0505 H   0  0  0  0  0  0  0  0  0  0  0  0
   -4.1546    2.1783   -0.4742 H   0  0  0  0  0  0  0  0  0  0  0  0
   -4.1491    2.0348   -2.2513 H   0  0  0  0  0  0  0  0  0  0  0  0
   -2.6237    2.3946   -1.3926 H   0  0  0  0  0  0  0  0  0  0  0  0
   -5.2151   -0.1826   -0.2588 H   0  0  0  0  0  0  0  0  0  0  0  0
   -4.4664   -1.5747   -1.1049 H   0  0  0  0  0  0  0  0  0  0  0  0
   -5.2442   -0.2738   -2.0391 H   0  0  0  0  0  0  0  0  0  0  0  0
   -2.4749   -1.2267   -2.6421 H   0  0  0  0  0  0  0  0  0  0  0  0
   -1.6060    0.3458   -2.6890 H   0  0  0  0  0  0  0  0  0  0  0  0
   -3.2312    0.1753   -3.4381 H   0  0  0  0  0  0  0  0  0  0  0  0
   -2.7762    2.7819    1.0224 H   0  0  0  0  0  0  0  0  0  0  0  0
   -1.1830    2.3194    1.7038 H   0  0  0  0  0  0  0  0  0  0  0  0
   -2.5718    2.6307    2.7897 H   0  0  0  0  0  0  0  0  0  0  0  0
   -2.1883   -1.0680    3.0363 H   0  0  0  0  0  0  0  0  0  0  0  0
   -2.1245    0.4989    3.8835 H   0  0  0  0  0  0  0  0  0  0  0  0
   -0.8048    0.0581    2.7609 H   0  0  0  0  0  0  0  0  0  0  0  0
   -4.7910    1.1306    1.3357 H   0  0  0  0  0  0  0  0  0  0  0  0
   -4.4166    0.8916    3.0614 H   0  0  0  0  0  0  0  0  0  0  0  0
   -4.5017   -0.5231    1.9775 H   0  0  0  0  0  0  0  0  0  0  0  0
    3.1297   -1.7649   -1.7092 H   0  0  0  0  0  0  0  0  0  0  0  0
    1.7653   -0.9809   -2.5680 H   0  0  0  0  0  0  0  0  0  0  0  0
    2.4193   -2.5446   -3.1519 H   0  0  0  0  0  0  0  0  0  0  0  0
   -0.8984   -3.4952   -1.7286 H   0  0  0  0  0  0  0  0  0  0  0  0
    0.1083   -3.3510   -3.1922 H   0  0  0  0  0  0  0  0  0  0  0  0
   -0.5704   -1.8738   -2.4509 H   0  0  0  0  0  0  0  0  0  0  0  0
    2.6746   -4.1300   -0.5915 H   0  0  0  0  0  0  0  0  0  0  0  0
    1.7828   -4.7066   -2.0218 H   0  0  0  0  0  0  0  0  0  0  0  0
    0.9822   -4.7162   -0.4295 H   0  0  0  0  0  0  0  0  0  0  0  0
    2.1878   -4.1867    1.4897 H   0  0  0  0  0  0  0  0  0  0  0  0
    0.9974   -3.5516    2.6726 H   0  0  0  0  0  0  0  0  0  0  0  0
    2.7413   -3.4058    2.9927 H   0  0  0  0  0  0  0  0  0  0  0  0
    3.7596   -2.5460    0.2543 H   0  0  0  0  0  0  0  0  0  0  0  0
    4.1867   -1.7011    1.7642 H   0  0  0  0  0  0  0  0  0  0  0  0
    3.5087   -0.7730    0.3930 H   0  0  0  0  0  0  0  0  0  0  0  0
    0.8203   -1.0851    3.1417 H   0  0  0  0  0  0  0  0  0  0  0  0
    1.7478    0.1187    2.1843 H   0  0  0  0  0  0  0  0  0  0  0  0
    2.5811   -0.9438    3.3703 H   0  0  0  0  0  0  0  0  0  0  0  0
  1 21  1  0  0  0  0
  2  1  1  0  0  0  0
  2 24  1  0  0  0  0
  3  2  1  0  0  0  0
  3  8  1  0  0  0  0
  4  6  1  0  0  0  0
  4  3  1  0  0  0  0
  5  4  1  0  0  0  0
  5 25  1  0  0  0  0
  6 29  1  0  0  0  0
  6 28  1  0  0  0  0
  7  4  1  0  0  0  0
  8  9  1  0  0  0  0
  8 11  1  0  0  0  0
  8 10  1  0  0  0  0
  9 36  1  0  0  0  0
 10 37  1  0  0  0  0
 10 38  1  0  0  0  0
 11 41  1  0  0  0  0
 12  1  1  0  0  0  0
 12 17  1  0  0  0  0
 13 16  1  0  0  0  0
 13 12  1  0  0  0  0
 14 43  1  0  0  0  0
 14 13  1  0  0  0  0
 15 46  1  0  0  0  0
 15 13  1  0  0  0  0
 16 49  1  0  0  0  0
 16 51  1  0  0  0  0
 17 18  1  0  0  0  0
 17 20  1  0  0  0  0
 18 53  1  0  0  0  0
 18 54  1  0  0  0  0
 19 17  1  0  0  0  0
 19 56  1  0  0  0  0
 20 58  1  0  0  0  0
 20 60  1  0  0  0  0
 22  1  1  0  0  0  0
 23  2  1  0  0  0  0
 26  5  1  0  0  0  0
 27  5  1  0  0  0  0
 30  6  1  0  0  0  0
 31  7  1  0  0  0  0
 32  7  1  0  0  0  0
 33  7  1  0  0  0  0
 34  9  1  0  0  0  0
 35  9  1  0  0  0  0
 39 10  1  0  0  0  0
 40 11  1  0  0  0  0
 42 11  1  0  0  0  0
 44 14  1  0  0  0  0
 45 14  1  0  0  0  0
 47 15  1  0  0  0  0
 48 15  1  0  0  0  0
 50 16  1  0  0  0  0
 52 18  1  0  0  0  0
 55 19  1  0  0  0  0
 57 19  1  0  0  0  0
 59 20  1  0  0  0  0
M  END
