1
 OpenBabel05122313063D

 54 58  0  0  0  0  0  0  0  0999 V2000
   -0.4733   -1.8027   -0.5631 P   0  0  0  0  0  0  0  0  0  0  0  0
   -0.6937   -1.8062    2.2317 N   0  0  0  0  0  0  0  0  0  0  0  0
   -0.4140   -2.5481    1.0833 C   0  0  0  0  0  0  0  0  0  0  0  0
    0.1047   -3.1857   -1.6336 C   0  0  0  0  0  0  0  0  0  0  0  0
   -2.2451   -1.6423   -0.9919 C   0  0  0  0  0  0  0  0  0  0  0  0
   -1.1165   -0.4931    2.2112 N   0  0  0  0  0  0  0  0  0  0  0  0
   -2.5272   -0.2753    2.1705 C   0  0  0  0  0  0  0  0  0  0  0  0
   -0.3267   -4.9223   -3.2875 C   0  0  0  0  0  0  0  0  0  0  0  0
   -1.0323   -5.4513   -3.9459 H   0  0  0  0  0  0  0  0  0  0  0  0
   -0.1238    0.5038    2.3949 C   0  0  0  0  0  0  0  0  0  0  0  0
    1.4644   -3.5634   -1.6033 C   0  0  0  0  0  0  0  0  0  0  0  0
    2.1656   -3.0236   -0.9555 H   0  0  0  0  0  0  0  0  0  0  0  0
   -0.4620    1.8687    2.5268 C   0  0  0  0  0  0  0  0  0  0  0  0
   -1.5109    2.1872    2.4960 H   0  0  0  0  0  0  0  0  0  0  0  0
   -0.7896   -3.8703   -2.4822 C   0  0  0  0  0  0  0  0  0  0  0  0
   -1.8508   -3.5851   -2.5132 H   0  0  0  0  0  0  0  0  0  0  0  0
   -4.9483   -1.3989   -1.7200 C   0  0  0  0  0  0  0  0  0  0  0  0
   -6.0080   -1.2944   -1.9985 H   0  0  0  0  0  0  0  0  0  0  0  0
    0.5464    2.8275    2.6913 C   0  0  0  0  0  0  0  0  0  0  0  0
    0.2612    3.8877    2.7643 H   0  0  0  0  0  0  0  0  0  0  0  0
   -2.6064   -0.8718   -2.1158 C   0  0  0  0  0  0  0  0  0  0  0  0
   -1.8294   -0.3502   -2.6918 H   0  0  0  0  0  0  0  0  0  0  0  0
    1.2374    0.1262    2.4711 C   0  0  0  0  0  0  0  0  0  0  0  0
    1.5309   -0.9264    2.3749 H   0  0  0  0  0  0  0  0  0  0  0  0
   -3.2396   -2.3040   -0.2465 C   0  0  0  0  0  0  0  0  0  0  0  0
   -2.9560   -2.9148    0.6229 H   0  0  0  0  0  0  0  0  0  0  0  0
    1.8967    2.4556    2.7684 C   0  0  0  0  0  0  0  0  0  0  0  0
    2.6794    3.2168    2.8930 H   0  0  0  0  0  0  0  0  0  0  0  0
    1.0243   -5.2998   -3.2522 C   0  0  0  0  0  0  0  0  0  0  0  0
    1.3833   -6.1254   -3.8853 H   0  0  0  0  0  0  0  0  0  0  0  0
   -4.5883   -2.1751   -0.6074 C   0  0  0  0  0  0  0  0  0  0  0  0
   -5.3615   -2.6784   -0.0085 H   0  0  0  0  0  0  0  0  0  0  0  0
   -3.9559   -0.7566   -2.4789 C   0  0  0  0  0  0  0  0  0  0  0  0
   -4.2339   -0.1525   -3.3560 H   0  0  0  0  0  0  0  0  0  0  0  0
   -4.4531    0.8816    1.2369 C   0  0  0  0  0  0  0  0  0  0  0  0
   -4.8560    1.6322    0.5402 H   0  0  0  0  0  0  0  0  0  0  0  0
   -3.0687    0.6824    1.2905 C   0  0  0  0  0  0  0  0  0  0  0  0
   -2.3969    1.2230    0.6134 H   0  0  0  0  0  0  0  0  0  0  0  0
    1.9159   -4.6183   -2.4080 C   0  0  0  0  0  0  0  0  0  0  0  0
    2.9788   -4.9022   -2.3746 H   0  0  0  0  0  0  0  0  0  0  0  0
    2.2273    1.0964    2.6724 C   0  0  0  0  0  0  0  0  0  0  0  0
    3.2751    0.7698    2.7383 H   0  0  0  0  0  0  0  0  0  0  0  0
   -5.3163    0.1125    2.0339 C   0  0  0  0  0  0  0  0  0  0  0  0
   -6.4047    0.2639    1.9815 H   0  0  0  0  0  0  0  0  0  0  0  0
   -3.3909   -1.0522    2.9685 C   0  0  0  0  0  0  0  0  0  0  0  0
   -2.9780   -1.8171    3.6409 H   0  0  0  0  0  0  0  0  0  0  0  0
   -4.7780   -0.8615    2.8894 C   0  0  0  0  0  0  0  0  0  0  0  0
   -5.4428   -1.4769    3.5147 H   0  0  0  0  0  0  0  0  0  0  0  0
    0.0235   -3.8039    1.5114 C   0  0  0  0  0  0  0  0  0  0  0  0
    0.3282   -4.6212    0.8493 H   0  0  0  0  0  0  0  0  0  0  0  0
    0.0106   -3.8077    2.9369 C   0  0  0  0  0  0  0  0  0  0  0  0
    0.2974   -4.6387    3.5906 H   0  0  0  0  0  0  0  0  0  0  0  0
   -0.4311   -2.5586    3.3585 C   0  0  0  0  0  0  0  0  0  0  0  0
   -0.5704   -2.1278    4.3556 H   0  0  0  0  0  0  0  0  0  0  0  0
  1  3  1  0  0  0  0
  2 53  1  0  0  0  0
  3 49  2  0  0  0  0
  3  2  1  0  0  0  0
  4 11  1  0  0  0  0
  4  1  1  0  0  0  0
  5  1  1  0  0  0  0
  5 25  1  0  0  0  0
  6  2  1  0  0  0  0
  6 10  1  0  0  0  0
  7  6  1  0  0  0  0
  7 45  1  0  0  0  0
  8 29  2  0  0  0  0
  8 15  1  0  0  0  0
  9  8  1  0  0  0  0
 10 23  2  0  0  0  0
 10 13  1  0  0  0  0
 11 12  1  0  0  0  0
 13 19  2  0  0  0  0
 14 13  1  0  0  0  0
 15  4  2  0  0  0  0
 16 15  1  0  0  0  0
 17 31  1  0  0  0  0
 18 17  1  0  0  0  0
 19 20  1  0  0  0  0
 19 27  1  0  0  0  0
 21  5  2  0  0  0  0
 22 21  1  0  0  0  0
 23 41  1  0  0  0  0
 24 23  1  0  0  0  0
 25 26  1  0  0  0  0
 27 28  1  0  0  0  0
 29 39  1  0  0  0  0
 30 29  1  0  0  0  0
 31 25  2  0  0  0  0
 31 32  1  0  0  0  0
 33 21  1  0  0  0  0
 33 17  2  0  0  0  0
 34 33  1  0  0  0  0
 35 37  1  0  0  0  0
 35 43  2  0  0  0  0
 36 35  1  0  0  0  0
 37  7  2  0  0  0  0
 38 37  1  0  0  0  0
 39 40  1  0  0  0  0
 39 11  2  0  0  0  0
 41 42  1  0  0  0  0
 41 27  2  0  0  0  0
 43 47  1  0  0  0  0
 44 43  1  0  0  0  0
 45 46  1  0  0  0  0
 47 45  2  0  0  0  0
 47 48  1  0  0  0  0
 49 51  1  0  0  0  0
 50 49  1  0  0  0  0
 51 53  2  0  0  0  0
 51 52  1  0  0  0  0
 53 54  1  0  0  0  0
M  END
