52
 OpenBabel05122313063D

 52 56  0  0  1  0  0  0  0  0999 V2000
   -0.0558    1.3396    1.1329 C   0  0  0  0  0  0  0  0  0  0  0  0
    0.3620    2.6292    0.7480 C   0  0  0  0  0  0  0  0  0  0  0  0
    1.1717    2.7457    0.0129 H   0  0  0  0  0  0  0  0  0  0  0  0
   -0.2680    3.7615    1.2849 C   0  0  0  0  0  0  0  0  0  0  0  0
    0.0598    4.7647    0.9740 H   0  0  0  0  0  0  0  0  0  0  0  0
   -1.3098    3.6146    2.2148 C   0  0  0  0  0  0  0  0  0  0  0  0
   -1.8008    4.5042    2.6374 H   0  0  0  0  0  0  0  0  0  0  0  0
   -1.7268    2.3313    2.6033 C   0  0  0  0  0  0  0  0  0  0  0  0
   -2.5447    2.2130    3.3302 H   0  0  0  0  0  0  0  0  0  0  0  0
   -1.1055    1.1961    2.0625 C   0  0  0  0  0  0  0  0  0  0  0  0
   -1.4368    0.1883    2.3563 H   0  0  0  0  0  0  0  0  0  0  0  0
    0.1198   -1.5554    1.2851 C   0  0  0  0  0  0  0  0  0  0  0  0
    0.5336   -1.8390    2.2651 H   0  0  0  0  0  0  0  0  0  0  0  0
   -0.8126   -2.2868    0.6283 C   0  0  0  0  0  0  0  0  0  0  0  0
   -1.3672   -3.5773    1.1526 C   0  0  0  0  0  0  0  0  0  0  0  0
   -0.9722   -3.8017    2.1610 H   0  0  0  0  0  0  0  0  0  0  0  0
   -1.0959   -4.4206    0.4830 H   0  0  0  0  0  0  0  0  0  0  0  0
   -2.4746   -3.5559    1.2006 H   0  0  0  0  0  0  0  0  0  0  0  0
   -1.2702   -1.7236   -0.7309 C   0  0  1  0  0  0  0  0  0  0  0  0
   -1.2845   -2.8125   -1.8244 C   0  0  0  0  0  0  0  0  0  0  0  0
   -1.9703   -3.6437   -1.5742 H   0  0  0  0  0  0  0  0  0  0  0  0
   -0.2660   -3.2332   -1.9475 H   0  0  0  0  0  0  0  0  0  0  0  0
   -1.6049   -2.3791   -2.7922 H   0  0  0  0  0  0  0  0  0  0  0  0
   -2.6330   -1.0045   -0.5876 C   0  0  0  0  0  0  0  0  0  0  0  0
   -2.5940    0.2954   -1.0276 C   0  0  0  0  0  0  0  0  0  0  0  0
   -1.2184    0.6156   -1.5100 C   0  0  0  0  0  0  0  0  0  0  0  0
   -0.3297   -0.5606   -1.1381 C   0  0  1  0  0  0  0  0  0  0  0  0
    0.3625   -0.8085   -1.9635 H   0  0  0  0  0  0  0  0  0  0  0  0
   -3.8067   -1.6381    0.0521 C   0  0  0  0  0  0  0  0  0  0  0  0
   -4.3076   -1.0875    1.2544 C   0  0  0  0  0  0  0  0  0  0  0  0
   -3.8237   -0.1913    1.6695 H   0  0  0  0  0  0  0  0  0  0  0  0
   -5.4024   -1.6704    1.9053 C   0  0  0  0  0  0  0  0  0  0  0  0
   -5.7737   -1.2331    2.8445 H   0  0  0  0  0  0  0  0  0  0  0  0
   -6.0287   -2.8027    1.3594 C   0  0  0  0  0  0  0  0  0  0  0  0
   -6.8916   -3.2574    1.8687 H   0  0  0  0  0  0  0  0  0  0  0  0
   -5.5536   -3.3461    0.1555 C   0  0  0  0  0  0  0  0  0  0  0  0
   -6.0486   -4.2237   -0.2870 H   0  0  0  0  0  0  0  0  0  0  0  0
   -4.4491   -2.7732   -0.4921 C   0  0  0  0  0  0  0  0  0  0  0  0
   -4.0966   -3.1958   -1.4435 H   0  0  0  0  0  0  0  0  0  0  0  0
   -3.6836    1.2862   -1.0592 C   0  0  0  0  0  0  0  0  0  0  0  0
   -5.0149    0.9234   -1.3679 C   0  0  0  0  0  0  0  0  0  0  0  0
   -5.2481   -0.1213   -1.6181 H   0  0  0  0  0  0  0  0  0  0  0  0
   -6.0336    1.8839   -1.3700 C   0  0  0  0  0  0  0  0  0  0  0  0
   -7.0636    1.5853   -1.6178 H   0  0  0  0  0  0  0  0  0  0  0  0
   -5.7429    3.2234   -1.0616 C   0  0  0  0  0  0  0  0  0  0  0  0
   -6.5452    3.9770   -1.0615 H   0  0  0  0  0  0  0  0  0  0  0  0
   -4.4232    3.5964   -0.7628 C   0  0  0  0  0  0  0  0  0  0  0  0
   -4.1856    4.6445   -0.5248 H   0  0  0  0  0  0  0  0  0  0  0  0
   -3.3983    2.6409   -0.7687 C   0  0  0  0  0  0  0  0  0  0  0  0
   -2.3666    2.9383   -0.5405 H   0  0  0  0  0  0  0  0  0  0  0  0
   -0.8421    1.6371   -2.0658 O   0  0  0  0  0  0  0  0  0  0  0  0
    0.7495   -0.1295    0.3632 P   0  0  1  0  0  0  0  0  0  0  0  0
  1 10  1  0  0  0  0
  2  1  2  0  0  0  0
  2  4  1  0  0  0  0
  3  2  1  0  0  0  0
  4  6  2  0  0  0  0
  5  4  1  0  0  0  0
  6  8  1  0  0  0  0
  6  7  1  0  0  0  0
  8  9  1  0  0  0  0
 10 11  1  0  0  0  0
 10  8  2  0  0  0  0
 12 13  1  0  0  0  0
 14 15  1  0  0  0  0
 14 12  2  0  0  0  0
 15 18  1  0  0  0  0
 15 16  1  0  0  0  0
 17 15  1  0  0  0  0
 19 20  1  6  0  0  0
 19 24  1  0  0  0  0
 19 14  1  0  0  0  0
 20 21  1  0  0  0  0
 22 20  1  0  0  0  0
 23 20  1  0  0  0  0
 24 29  1  0  0  0  0
 25 24  2  0  0  0  0
 26 27  1  0  0  0  0
 26 25  1  0  0  0  0
 27 28  1  6  0  0  0
 27 19  1  0  0  0  0
 27 52  1  0  0  0  0
 29 30  1  0  0  0  0
 30 31  1  0  0  0  0
 30 32  2  0  0  0  0
 32 33  1  0  0  0  0
 34 35  1  0  0  0  0
 34 32  1  0  0  0  0
 36 34  2  0  0  0  0
 37 36  1  0  0  0  0
 38 29  2  0  0  0  0
 38 36  1  0  0  0  0
 39 38  1  0  0  0  0
 40 25  1  0  0  0  0
 40 49  1  0  0  0  0
 41 40  2  0  0  0  0
 42 41  1  0  0  0  0
 43 41  1  0  0  0  0
 43 45  2  0  0  0  0
 44 43  1  0  0  0  0
 45 46  1  0  0  0  0
 45 47  1  0  0  0  0
 47 48  1  0  0  0  0
 49 47  2  0  0  0  0
 49 50  1  0  0  0  0
 51 26  2  0  0  0  0
 52  1  1  1  0  0  0
 52 12  1  0  0  0  0
M  END
