2
 OpenBabel05122313063D

 37 39  0  0  0  0  0  0  0  0999 V2000
    4.7187   -0.9313   -0.2144 S   0  0  0  0  0  0  0  0  0  0  0  0
   -0.5221    0.3995   -0.0333 P   0  0  0  0  0  0  0  0  0  0  0  0
    5.9090   -0.8120   -1.1117 O   0  0  0  0  0  1  0  0  0  0  0  0
    4.3192   -2.3189    0.1716 O   0  0  0  0  0  1  0  0  0  0  0  0
    4.6853    0.0646    0.9215 O   0  0  0  0  0  1  0  0  0  0  0  0
   -1.3441    1.9909   -0.4628 C   0  0  0  0  0  0  0  0  0  0  0  0
   -0.7501    3.2155   -0.0928 C   0  0  0  0  0  0  0  0  0  0  0  0
    0.1908    3.2141    0.4788 H   0  0  0  0  0  0  0  0  0  0  0  0
   -1.3580    4.4262   -0.4518 C   0  0  0  0  0  0  0  0  0  0  0  0
   -0.8906    5.3791   -0.1596 H   0  0  0  0  0  0  0  0  0  0  0  0
   -2.5594    4.4240   -1.1816 C   0  0  0  0  0  0  0  0  0  0  0  0
   -3.0358    5.3768   -1.4604 H   0  0  0  0  0  0  0  0  0  0  0  0
   -3.1530    3.2071   -1.5506 C   0  0  0  0  0  0  0  0  0  0  0  0
   -4.0961    3.2002   -2.1184 H   0  0  0  0  0  0  0  0  0  0  0  0
   -2.5488    1.9917   -1.1907 C   0  0  0  0  0  0  0  0  0  0  0  0
   -3.0105    1.0292   -1.4645 H   0  0  0  0  0  0  0  0  0  0  0  0
    0.0781    0.7009    1.6885 C   0  0  0  0  0  0  0  0  0  0  0  0
    1.4325    0.8767    2.0398 C   0  0  0  0  0  0  0  0  0  0  0  0
    2.2531    0.8022    1.3087 H   0  0  0  0  0  0  0  0  0  0  0  0
    1.7762    1.1057    3.3830 C   0  0  0  0  0  0  0  0  0  0  0  0
    2.8423    1.2081    3.6356 H   0  0  0  0  0  0  0  0  0  0  0  0
    0.7857    1.1766    4.3726 C   0  0  0  0  0  0  0  0  0  0  0  0
    1.0644    1.3526    5.4233 H   0  0  0  0  0  0  0  0  0  0  0  0
   -0.5649    1.0019    4.0227 C   0  0  0  0  0  0  0  0  0  0  0  0
   -1.3485    1.0414    4.7952 H   0  0  0  0  0  0  0  0  0  0  0  0
   -0.9168    0.7549    2.6899 C   0  0  0  0  0  0  0  0  0  0  0  0
   -1.9719    0.5904    2.4168 H   0  0  0  0  0  0  0  0  0  0  0  0
    0.9802    0.3743   -1.0663 C   0  0  0  0  0  0  0  0  0  0  0  0
    2.0291   -0.4661   -0.6529 C   0  0  0  0  0  0  0  0  0  0  0  0
    1.9108   -1.2010    0.1595 H   0  0  0  0  0  0  0  0  0  0  0  0
    3.3096   -0.2872   -1.1937 C   0  0  0  0  0  0  0  0  0  0  0  0
    3.5063    0.5861   -2.2737 C   0  0  0  0  0  0  0  0  0  0  0  0
    4.5274    0.6830   -2.6742 H   0  0  0  0  0  0  0  0  0  0  0  0
    2.4241    1.3286   -2.7738 C   0  0  0  0  0  0  0  0  0  0  0  0
    2.5662    2.0063   -3.6311 H   0  0  0  0  0  0  0  0  0  0  0  0
    1.1697    1.2670   -2.1452 C   0  0  0  0  0  0  0  0  0  0  0  0
    0.3489    1.9185   -2.4787 H   0  0  0  0  0  0  0  0  0  0  0  0
  1  4  1  0  0  0  0
  1  5  1  0  0  0  0
  2 17  1  0  0  0  0
  3  1  1  0  0  0  0
  6  7  1  0  0  0  0
  6  2  1  0  0  0  0
  7  8  1  0  0  0  0
  9 10  1  0  0  0  0
  9  7  2  0  0  0  0
 11  9  1  0  0  0  0
 12 11  1  0  0  0  0
 13 15  1  0  0  0  0
 13 11  2  0  0  0  0
 14 13  1  0  0  0  0
 15  6  2  0  0  0  0
 16 15  1  0  0  0  0
 17 18  2  0  0  0  0
 17 26  1  0  0  0  0
 18 20  1  0  0  0  0
 19 18  1  0  0  0  0
 20 21  1  0  0  0  0
 20 22  2  0  0  0  0
 22 23  1  0  0  0  0
 24 22  1  0  0  0  0
 24 25  1  0  0  0  0
 26 24  2  0  0  0  0
 27 26  1  0  0  0  0
 28 29  1  0  0  0  0
 28  2  1  0  0  0  0
 29 30  1  0  0  0  0
 31 29  2  0  0  0  0
 31  1  1  0  0  0  0
 32 31  1  0  0  0  0
 33 32  1  0  0  0  0
 34 32  2  0  0  0  0
 34 36  1  0  0  0  0
 35 34  1  0  0  0  0
 36 28  2  0  0  0  0
 37 36  1  0  0  0  0
M  END
