1
 OpenBabel05122313063D

 35 37  0  0  0  0  0  0  0  0999 V2000
    1.6858    0.0152   -0.1670 P   0  0  0  0  0  0  0  0  0  0  0  0
    0.7671   -1.9807    1.7304 O   0  0  0  0  0  0  0  0  0  0  0  0
    0.3816   -2.6718    2.3016 H   0  0  0  0  0  0  0  0  0  0  0  0
    2.6950   -1.3491    0.5232 C   0  0  0  0  0  0  0  0  0  0  0  0
    2.0565   -2.2554    1.4068 C   0  0  0  0  0  0  0  0  0  0  0  0
    2.7602   -3.3648    1.9078 C   0  0  0  0  0  0  0  0  0  0  0  0
    2.2542   -4.0619    2.5951 H   0  0  0  0  0  0  0  0  0  0  0  0
    4.0898   -3.5812    1.5202 C   0  0  0  0  0  0  0  0  0  0  0  0
    4.6301   -4.4562    1.9120 H   0  0  0  0  0  0  0  0  0  0  0  0
    4.7248   -2.6977    0.6335 C   0  0  0  0  0  0  0  0  0  0  0  0
    5.7630   -2.8766    0.3187 H   0  0  0  0  0  0  0  0  0  0  0  0
    4.0234   -1.5910    0.1340 C   0  0  0  0  0  0  0  0  0  0  0  0
    4.5046   -0.9098   -0.5822 H   0  0  0  0  0  0  0  0  0  0  0  0
    2.8107    1.0137   -1.2306 C   0  0  0  0  0  0  0  0  0  0  0  0
    3.8570    1.7485   -0.6309 C   0  0  0  0  0  0  0  0  0  0  0  0
    4.0037    1.7086    0.4593 H   0  0  0  0  0  0  0  0  0  0  0  0
    4.7065    2.5352   -1.4209 C   0  0  0  0  0  0  0  0  0  0  0  0
    5.5242    3.0997   -0.9477 H   0  0  0  0  0  0  0  0  0  0  0  0
    4.5081    2.6075   -2.8099 C   0  0  0  0  0  0  0  0  0  0  0  0
    5.1718    3.2309   -3.4286 H   0  0  0  0  0  0  0  0  0  0  0  0
    3.4631    1.8853   -3.4060 C   0  0  0  0  0  0  0  0  0  0  0  0
    3.3050    1.9373   -4.4939 H   0  0  0  0  0  0  0  0  0  0  0  0
    2.6160    1.0852   -2.6233 C   0  0  0  0  0  0  0  0  0  0  0  0
    1.8191    0.4852   -3.0871 H   0  0  0  0  0  0  0  0  0  0  0  0
    1.4689    1.1849    1.2463 C   0  0  0  0  0  0  0  0  0  0  0  0
    0.9134    2.4511    0.9665 C   0  0  0  0  0  0  0  0  0  0  0  0
    0.6400    2.7142   -0.0647 H   0  0  0  0  0  0  0  0  0  0  0  0
    0.7109    3.3822    1.9939 C   0  0  0  0  0  0  0  0  0  0  0  0
    0.2608    4.3584    1.7591 H   0  0  0  0  0  0  0  0  0  0  0  0
    1.0807    3.0649    3.3124 C   0  0  0  0  0  0  0  0  0  0  0  0
    0.9240    3.7949    4.1209 H   0  0  0  0  0  0  0  0  0  0  0  0
    1.6628    1.8183    3.5911 C   0  0  0  0  0  0  0  0  0  0  0  0
    1.9701    1.5696    4.6184 H   0  0  0  0  0  0  0  0  0  0  0  0
    1.8537    0.8784    2.5653 C   0  0  0  0  0  0  0  0  0  0  0  0
    2.3094   -0.0947    2.7936 H   0  0  0  0  0  0  0  0  0  0  0  0
  1  4  1  0  0  0  0
  1 25  1  0  0  0  0
  2  3  1  0  0  0  0
  4  5  1  0  0  0  0
  5  2  1  0  0  0  0
  5  6  2  0  0  0  0
  6  7  1  0  0  0  0
  8  6  1  0  0  0  0
  8  9  1  0  0  0  0
 10  8  2  0  0  0  0
 11 10  1  0  0  0  0
 12  4  2  0  0  0  0
 12 10  1  0  0  0  0
 13 12  1  0  0  0  0
 14 15  1  0  0  0  0
 14  1  1  0  0  0  0
 15 16  1  0  0  0  0
 17 18  1  0  0  0  0
 17 15  2  0  0  0  0
 19 17  1  0  0  0  0
 20 19  1  0  0  0  0
 21 19  2  0  0  0  0
 21 23  1  0  0  0  0
 22 21  1  0  0  0  0
 23 14  2  0  0  0  0
 24 23  1  0  0  0  0
 25 34  1  0  0  0  0
 26 25  2  0  0  0  0
 26 28  1  0  0  0  0
 27 26  1  0  0  0  0
 28 30  2  0  0  0  0
 29 28  1  0  0  0  0
 30 32  1  0  0  0  0
 30 31  1  0  0  0  0
 32 33  1  0  0  0  0
 34 35  1  0  0  0  0
 34 32  2  0  0  0  0
M  END
