1
 OpenBabel05122313063D

 43 46  0  0  1  0  0  0  0  0999 V2000
    0.9596    0.9180   -0.1123 P   0  0  1  0  0  0  0  0  0  0  0  0
    1.2988    2.7522   -2.1515 C   0  0  0  0  0  0  0  0  0  0  0  0
    1.4244    4.0294   -2.7151 C   0  0  0  0  0  0  0  0  0  0  0  0
    1.3762    5.1719   -1.8981 C   0  0  0  0  0  0  0  0  0  0  0  0
    1.2060    5.0363   -0.5115 C   0  0  0  0  0  0  0  0  0  0  0  0
    1.0939    3.7609    0.0633 C   0  0  0  0  0  0  0  0  0  0  0  0
    1.1446    2.6145   -0.7543 C   0  0  0  0  0  0  0  0  0  0  0  0
    2.6406    0.1072    0.0188 C   0  0  1  0  0  0  0  0  0  0  0  0
    3.3798    1.0419    0.9549 C   0  0  0  0  0  0  0  0  0  0  0  0
    2.5418    1.4928    1.9335 C   0  0  0  0  0  0  0  0  0  0  0  0
    1.1518    0.8933    1.7588 C   0  0  2  0  0  0  0  0  0  0  0  0
    1.2854   -0.6468    1.9747 C   0  0  0  0  0  0  0  0  0  0  0  0
    2.1959   -1.1808    0.8227 C   0  0  2  0  0  0  0  0  0  0  0  0
    4.8401    1.2978    0.7777 C   0  0  0  0  0  0  0  0  0  0  0  0
    2.8639    2.3454    3.1186 C   0  0  0  0  0  0  0  0  0  0  0  0
    3.3704   -2.0025    1.2488 C   0  0  0  0  0  0  0  0  0  0  0  0
    3.9349   -2.9460    0.4002 N   0  0  0  0  0  0  0  0  0  0  0  0
    5.0620   -3.4783    0.9937 C   0  0  0  0  0  0  0  0  0  0  0  0
    5.2396   -2.8674    2.2300 C   0  0  0  0  0  0  0  0  0  0  0  0
    4.1726   -1.9343    2.3910 C   0  0  0  0  0  0  0  0  0  0  0  0
    3.3704   -3.4091   -0.8564 C   0  0  0  0  0  0  0  0  0  0  0  0
    1.3154    1.8482   -2.7835 H   0  0  0  0  0  0  0  0  0  0  0  0
    1.5529    4.1338   -3.8032 H   0  0  0  0  0  0  0  0  0  0  0  0
    1.4666    6.1734   -2.3456 H   0  0  0  0  0  0  0  0  0  0  0  0
    1.1628    5.9296    0.1301 H   0  0  0  0  0  0  0  0  0  0  0  0
    0.9668    3.6600    1.1509 H   0  0  0  0  0  0  0  0  0  0  0  0
    3.1235   -0.1241   -0.9452 H   0  0  0  0  0  0  0  0  0  0  0  0
    0.3458    1.3566    2.3556 H   0  0  0  0  0  0  0  0  0  0  0  0
    1.7304   -0.8389    2.9701 H   0  0  0  0  0  0  0  0  0  0  0  0
    0.2905   -1.1344    1.9493 H   0  0  0  0  0  0  0  0  0  0  0  0
    1.5671   -1.7747    0.1263 H   0  0  0  0  0  0  0  0  0  0  0  0
    5.0485    1.6994   -0.2373 H   0  0  0  0  0  0  0  0  0  0  0  0
    5.4105    0.3485    0.8737 H   0  0  0  0  0  0  0  0  0  0  0  0
    5.2381    2.0150    1.5211 H   0  0  0  0  0  0  0  0  0  0  0  0
    2.2038    3.2389    3.1708 H   0  0  0  0  0  0  0  0  0  0  0  0
    3.9128    2.6983    3.1064 H   0  0  0  0  0  0  0  0  0  0  0  0
    2.7056    1.7876    4.0680 H   0  0  0  0  0  0  0  0  0  0  0  0
    5.6387   -4.2613    0.4886 H   0  0  0  0  0  0  0  0  0  0  0  0
    6.0513   -3.0719    2.9372 H   0  0  0  0  0  0  0  0  0  0  0  0
    4.0099   -1.2611    3.2402 H   0  0  0  0  0  0  0  0  0  0  0  0
    2.9103   -2.5809   -1.4319 H   0  0  0  0  0  0  0  0  0  0  0  0
    2.5878   -4.1809   -0.6901 H   0  0  0  0  0  0  0  0  0  0  0  0
    4.1742   -3.8563   -1.4707 H   0  0  0  0  0  0  0  0  0  0  0  0
  1  7  1  6  0  0  0
  1  8  1  0  0  0  0
  1 11  1  0  0  0  0
  2  7  1  0  0  0  0
  3  2  2  0  0  0  0
  3  4  1  0  0  0  0
  4  5  2  0  0  0  0
  5  6  1  0  0  0  0
  5 25  1  0  0  0  0
  6 26  1  0  0  0  0
  7  6  2  0  0  0  0
  8 27  1  6  0  0  0
  8 13  1  0  0  0  0
  8  9  1  0  0  0  0
  9 10  2  0  0  0  0
 10 15  1  0  0  0  0
 11 10  1  0  0  0  0
 11 12  1  0  0  0  0
 11 28  1  1  0  0  0
 12 29  1  0  0  0  0
 13 31  1  6  0  0  0
 13 16  1  0  0  0  0
 13 12  1  0  0  0  0
 14 33  1  0  0  0  0
 14  9  1  0  0  0  0
 14 34  1  0  0  0  0
 15 35  1  0  0  0  0
 15 37  1  0  0  0  0
 16 20  2  0  0  0  0
 17 18  1  0  0  0  0
 17 16  1  0  0  0  0
 18 19  2  0  0  0  0
 19 20  1  0  0  0  0
 19 39  1  0  0  0  0
 20 40  1  0  0  0  0
 21 42  1  0  0  0  0
 21 17  1  0  0  0  0
 22  2  1  0  0  0  0
 23  3  1  0  0  0  0
 24  4  1  0  0  0  0
 30 12  1  0  0  0  0
 32 14  1  0  0  0  0
 36 15  1  0  0  0  0
 38 18  1  0  0  0  0
 41 21  1  0  0  0  0
 43 21  1  0  0  0  0
M  END
