1
 OpenBabel05122313063D

 48 50  0  0  1  0  0  0  0  0999 V2000
    0.0380    0.3316   -0.4482 P   0  0  0  0  0  0  0  0  0  0  0  0
    0.0892    2.4708    0.2935 P   0  0  0  0  0  0  0  0  0  0  0  0
   -1.8024   -0.0545   -0.1594 C   0  0  2  0  0  0  0  0  0  0  0  0
   -2.1021   -0.0119    1.3570 C   0  0  0  0  0  0  0  0  0  0  0  0
   -3.5919   -0.3243    1.6039 C   0  0  1  0  0  0  0  0  0  0  0  0
   -4.4582    0.7323    0.8932 C   0  0  0  0  0  0  0  0  0  0  0  0
   -4.1779    0.6921   -0.6212 C   0  0  2  0  0  0  0  0  0  0  0  0
   -4.5199   -0.7040   -1.1719 C   0  0  0  0  0  0  0  0  0  0  0  0
   -3.6467   -1.7558   -0.4647 C   0  0  1  0  0  0  0  0  0  0  0  0
   -2.1564   -1.4486   -0.7229 C   0  0  0  0  0  0  0  0  0  0  0  0
   -3.9192   -1.7247    1.0514 C   0  0  0  0  0  0  0  0  0  0  0  0
   -2.6858    0.9946   -0.8750 C   0  0  0  0  0  0  0  0  0  0  0  0
    0.7830    3.4144   -1.1935 C   0  0  0  0  0  0  0  0  0  0  0  0
    2.0881    2.9021   -1.8001 C   0  0  0  0  0  0  0  0  0  0  0  0
   -0.3117    3.6058   -2.2498 C   0  0  0  0  0  0  0  0  0  0  0  0
    1.5387    2.3952    1.4938 C   0  0  0  0  0  0  0  0  0  0  0  0
    1.0470    1.7032    2.7708 C   0  0  0  0  0  0  0  0  0  0  0  0
    2.0700    3.8027    1.7899 C   0  0  0  0  0  0  0  0  0  0  0  0
   -1.8568    0.9969    1.7537 H   0  0  0  0  0  0  0  0  0  0  0  0
   -1.4691   -0.7434    1.8989 H   0  0  0  0  0  0  0  0  0  0  0  0
   -3.7868   -0.2967    2.6969 H   0  0  0  0  0  0  0  0  0  0  0  0
   -4.2344    1.7431    1.2968 H   0  0  0  0  0  0  0  0  0  0  0  0
   -5.5350    0.5368    1.0856 H   0  0  0  0  0  0  0  0  0  0  0  0
   -4.7899    1.4624   -1.1371 H   0  0  0  0  0  0  0  0  0  0  0  0
   -4.3451   -0.7370   -2.2690 H   0  0  0  0  0  0  0  0  0  0  0  0
   -5.5962   -0.9269   -1.0089 H   0  0  0  0  0  0  0  0  0  0  0  0
   -3.8742   -2.7659   -0.8660 H   0  0  0  0  0  0  0  0  0  0  0  0
   -1.5327   -2.2309   -0.2495 H   0  0  0  0  0  0  0  0  0  0  0  0
   -1.9454   -1.4827   -1.8127 H   0  0  0  0  0  0  0  0  0  0  0  0
   -4.9827   -1.9758    1.2523 H   0  0  0  0  0  0  0  0  0  0  0  0
   -3.3008   -2.4910    1.5658 H   0  0  0  0  0  0  0  0  0  0  0  0
   -2.4766    0.9808   -1.9669 H   0  0  0  0  0  0  0  0  0  0  0  0
   -2.4380    2.0117   -0.5038 H   0  0  0  0  0  0  0  0  0  0  0  0
    0.9722    4.4075   -0.7251 H   0  0  0  0  0  0  0  0  0  0  0  0
    2.4827    3.6293   -2.5411 H   0  0  0  0  0  0  0  0  0  0  0  0
    2.8784    2.7360   -1.0424 H   0  0  0  0  0  0  0  0  0  0  0  0
    1.9343    1.9461   -2.3373 H   0  0  0  0  0  0  0  0  0  0  0  0
    0.0370    4.2971   -3.0450 H   0  0  0  0  0  0  0  0  0  0  0  0
   -0.5720    2.6461   -2.7430 H   0  0  0  0  0  0  0  0  0  0  0  0
   -1.2408    4.0233   -1.8129 H   0  0  0  0  0  0  0  0  0  0  0  0
    2.3477    1.7896    1.0338 H   0  0  0  0  0  0  0  0  0  0  0  0
    1.8837    1.5671    3.4856 H   0  0  0  0  0  0  0  0  0  0  0  0
    0.2567    2.3047    3.2659 H   0  0  0  0  0  0  0  0  0  0  0  0
    0.6259    0.6991    2.5628 H   0  0  0  0  0  0  0  0  0  0  0  0
    2.8357    3.7543    2.5919 H   0  0  0  0  0  0  0  0  0  0  0  0
    2.5468    4.2726    0.9072 H   0  0  0  0  0  0  0  0  0  0  0  0
    1.2605    4.4760    2.1436 H   0  0  0  0  0  0  0  0  0  0  0  0
   -0.0541    0.6307   -1.8499 H   0  0  0  0  0  0  0  0  0  0  0  0
  1  2  1  0  0  0  0
  2 16  1  0  0  0  0
  3  1  1  6  0  0  0
  3  4  1  0  0  0  0
  4  5  1  0  0  0  0
  4 19  1  0  0  0  0
  4 20  1  0  0  0  0
  5 21  1  1  0  0  0
  6 23  1  0  0  0  0
  6 22  1  0  0  0  0
  6  5  1  0  0  0  0
  7 24  1  6  0  0  0
  7  6  1  0  0  0  0
  8 26  1  0  0  0  0
  8  7  1  0  0  0  0
  8  9  1  0  0  0  0
  9 27  1  6  0  0  0
  9 11  1  0  0  0  0
 10  9  1  0  0  0  0
 10 28  1  0  0  0  0
 10  3  1  0  0  0  0
 11 30  1  0  0  0  0
 11 31  1  0  0  0  0
 11  5  1  0  0  0  0
 12  7  1  0  0  0  0
 12 33  1  0  0  0  0
 12  3  1  0  0  0  0
 13 34  1  0  0  0  0
 13  2  1  0  0  0  0
 14 13  1  0  0  0  0
 14 36  1  0  0  0  0
 15 40  1  0  0  0  0
 15 13  1  0  0  0  0
 16 18  1  0  0  0  0
 16 17  1  0  0  0  0
 17 43  1  0  0  0  0
 17 42  1  0  0  0  0
 18 47  1  0  0  0  0
 18 45  1  0  0  0  0
 25  8  1  0  0  0  0
 29 10  1  0  0  0  0
 32 12  1  0  0  0  0
 35 14  1  0  0  0  0
 37 14  1  0  0  0  0
 38 15  1  0  0  0  0
 39 15  1  0  0  0  0
 41 16  1  0  0  0  0
 44 17  1  0  0  0  0
 46 18  1  0  0  0  0
 48  1  1  0  0  0  0
M  END
