1
 OpenBabel05122313063D

 34 35  0  0  0  0  0  0  0  0999 V2000
   -2.3179   -0.0866   -0.1491 P   0  0  0  0  0  0  0  0  0  0  0  0
   -2.7561   -5.1723   -2.0604 N   0  0  0  0  0  0  0  0  0  0  0  0
   -3.0434   -1.7459   -0.5236 C   0  0  0  0  0  0  0  0  0  0  0  0
   -2.6996   -2.7795    0.5506 C   0  0  0  0  0  0  0  0  0  0  0  0
   -3.3618   -4.1473    0.2906 C   0  0  0  0  0  0  0  0  0  0  0  0
   -3.0209   -4.7296   -1.0088 C   0  0  0  0  0  0  0  0  0  0  0  0
   -3.2587    0.4350    1.3379 C   0  0  0  0  0  0  0  0  0  0  0  0
   -4.5536    0.9782    1.2207 C   0  0  0  0  0  0  0  0  0  0  0  0
   -5.2896    1.2892    2.3739 C   0  0  0  0  0  0  0  0  0  0  0  0
   -4.7394    1.0574    3.6448 C   0  0  0  0  0  0  0  0  0  0  0  0
   -3.4484    0.5183    3.7633 C   0  0  0  0  0  0  0  0  0  0  0  0
   -2.7042    0.2129    2.6145 C   0  0  0  0  0  0  0  0  0  0  0  0
   -2.8955    1.0162   -1.4920 C   0  0  0  0  0  0  0  0  0  0  0  0
   -2.5789    2.3898   -1.3887 C   0  0  0  0  0  0  0  0  0  0  0  0
   -2.9818    3.2767   -2.3951 C   0  0  0  0  0  0  0  0  0  0  0  0
   -3.6871    2.8051   -3.5157 C   0  0  0  0  0  0  0  0  0  0  0  0
   -3.9881    1.4397   -3.6279 C   0  0  0  0  0  0  0  0  0  0  0  0
   -3.5954    0.5437   -2.6202 C   0  0  0  0  0  0  0  0  0  0  0  0
   -4.1420   -1.6164   -0.6295 H   0  0  0  0  0  0  0  0  0  0  0  0
   -2.6178   -2.0647   -1.4976 H   0  0  0  0  0  0  0  0  0  0  0  0
   -1.5972   -2.8977    0.5804 H   0  0  0  0  0  0  0  0  0  0  0  0
   -3.0290   -2.4296    1.5509 H   0  0  0  0  0  0  0  0  0  0  0  0
   -4.4691   -4.0583    0.3425 H   0  0  0  0  0  0  0  0  0  0  0  0
   -3.0686   -4.8671    1.0838 H   0  0  0  0  0  0  0  0  0  0  0  0
   -4.9825    1.1687    0.2246 H   0  0  0  0  0  0  0  0  0  0  0  0
   -6.2978    1.7202    2.2781 H   0  0  0  0  0  0  0  0  0  0  0  0
   -5.3170    1.3068    4.5480 H   0  0  0  0  0  0  0  0  0  0  0  0
   -3.0091    0.3486    4.7579 H   0  0  0  0  0  0  0  0  0  0  0  0
   -1.6792   -0.1779    2.6999 H   0  0  0  0  0  0  0  0  0  0  0  0
   -2.0021    2.7473   -0.5199 H   0  0  0  0  0  0  0  0  0  0  0  0
   -2.7364    4.3460   -2.3064 H   0  0  0  0  0  0  0  0  0  0  0  0
   -3.9982    3.5043   -4.3067 H   0  0  0  0  0  0  0  0  0  0  0  0
   -4.5334    1.0632   -4.5066 H   0  0  0  0  0  0  0  0  0  0  0  0
   -3.8357   -0.5236   -2.7262 H   0  0  0  0  0  0  0  0  0  0  0  0
  1  7  1  0  0  0  0
  2  6  3  0  0  0  0
  3  1  1  0  0  0  0
  3  4  1  0  0  0  0
  4 21  1  0  0  0  0
  4 22  1  0  0  0  0
  5 23  1  0  0  0  0
  5  4  1  0  0  0  0
  5 24  1  0  0  0  0
  6  5  1  0  0  0  0
  7 12  1  0  0  0  0
  8  7  2  0  0  0  0
  8  9  1  0  0  0  0
  9 10  2  0  0  0  0
 10 11  1  0  0  0  0
 10 27  1  0  0  0  0
 11 28  1  0  0  0  0
 12 29  1  0  0  0  0
 12 11  2  0  0  0  0
 13 14  1  0  0  0  0
 13  1  1  0  0  0  0
 14 30  1  0  0  0  0
 15 31  1  0  0  0  0
 15 14  2  0  0  0  0
 16 15  1  0  0  0  0
 17 16  2  0  0  0  0
 17 18  1  0  0  0  0
 18 13  2  0  0  0  0
 19  3  1  0  0  0  0
 20  3  1  0  0  0  0
 25  8  1  0  0  0  0
 26  9  1  0  0  0  0
 32 16  1  0  0  0  0
 33 17  1  0  0  0  0
 34 18  1  0  0  0  0
M  END
