1
 OpenBabel05122313063D

 32 31  0  0  0  0  0  0  0  0999 V2000
   -1.7535    1.5276   -0.2338 P   0  0  0  0  0  0  0  0  0  0  0  0
   -5.8594   -3.1918    0.5734 N   0  0  0  0  0  0  0  0  0  0  0  0
   -1.3153    2.8238   -1.5160 C   0  0  0  0  0  0  0  0  0  0  0  0
   -2.2795    3.3026   -1.8006 H   0  0  0  0  0  0  0  0  0  0  0  0
   -0.3628    3.8857   -0.9542 C   0  0  0  0  0  0  0  0  0  0  0  0
    0.5438    3.4163   -0.5213 H   0  0  0  0  0  0  0  0  0  0  0  0
   -0.0466    4.5706   -1.7676 H   0  0  0  0  0  0  0  0  0  0  0  0
   -0.8336    4.5027   -0.1641 H   0  0  0  0  0  0  0  0  0  0  0  0
   -0.7147    2.1327   -2.7493 C   0  0  0  0  0  0  0  0  0  0  0  0
   -1.3560    1.3228   -3.1487 H   0  0  0  0  0  0  0  0  0  0  0  0
   -0.5554    2.8756   -3.5577 H   0  0  0  0  0  0  0  0  0  0  0  0
    0.2659    1.6792   -2.4977 H   0  0  0  0  0  0  0  0  0  0  0  0
   -2.2253    2.4541    1.3176 C   0  0  0  0  0  0  0  0  0  0  0  0
   -1.3034    3.0397    1.5197 H   0  0  0  0  0  0  0  0  0  0  0  0
   -2.4215    1.5035    2.5062 C   0  0  0  0  0  0  0  0  0  0  0  0
   -1.5457    0.8367    2.6267 H   0  0  0  0  0  0  0  0  0  0  0  0
   -2.5295    2.0939    3.4394 H   0  0  0  0  0  0  0  0  0  0  0  0
   -3.3314    0.8810    2.4015 H   0  0  0  0  0  0  0  0  0  0  0  0
   -3.4115    3.4007    1.1114 C   0  0  0  0  0  0  0  0  0  0  0  0
   -3.2543    4.1078    0.2723 H   0  0  0  0  0  0  0  0  0  0  0  0
   -3.5753    4.0054    2.0275 H   0  0  0  0  0  0  0  0  0  0  0  0
   -4.3517    2.8439    0.9179 H   0  0  0  0  0  0  0  0  0  0  0  0
   -3.3048    0.7817   -0.9143 C   0  0  0  0  0  0  0  0  0  0  0  0
   -4.0432    1.5872   -1.1118 H   0  0  0  0  0  0  0  0  0  0  0  0
   -2.9915    0.3636   -1.8926 H   0  0  0  0  0  0  0  0  0  0  0  0
   -3.8949   -0.3390   -0.0482 C   0  0  0  0  0  0  0  0  0  0  0  0
   -4.5420    0.0816    0.7477 H   0  0  0  0  0  0  0  0  0  0  0  0
   -3.0770   -0.8955    0.4529 H   0  0  0  0  0  0  0  0  0  0  0  0
   -4.7004   -1.3413   -0.8977 C   0  0  0  0  0  0  0  0  0  0  0  0
   -5.4795   -0.8190   -1.4943 H   0  0  0  0  0  0  0  0  0  0  0  0
   -4.0095   -1.8308   -1.6178 H   0  0  0  0  0  0  0  0  0  0  0  0
   -5.3485   -2.3762   -0.0946 C   0  0  0  0  0  0  0  0  0  0  0  0
  1 13  1  0  0  0  0
  3  5  1  0  0  0  0
  3  1  1  0  0  0  0
  4  3  1  0  0  0  0
  5  6  1  0  0  0  0
  5  8  1  0  0  0  0
  7  5  1  0  0  0  0
  9 12  1  0  0  0  0
  9  3  1  0  0  0  0
 10  9  1  0  0  0  0
 11  9  1  0  0  0  0
 13 14  1  0  0  0  0
 13 15  1  0  0  0  0
 15 16  1  0  0  0  0
 15 17  1  0  0  0  0
 18 15  1  0  0  0  0
 19 13  1  0  0  0  0
 19 21  1  0  0  0  0
 20 19  1  0  0  0  0
 22 19  1  0  0  0  0
 23  1  1  0  0  0  0
 23 26  1  0  0  0  0
 24 23  1  0  0  0  0
 25 23  1  0  0  0  0
 26 28  1  0  0  0  0
 26 27  1  0  0  0  0
 29 32  1  0  0  0  0
 29 26  1  0  0  0  0
 30 29  1  0  0  0  0
 31 29  1  0  0  0  0
 32  2  3  0  0  0  0
M  END
