1
 OpenBabel05122313063D

 59 61  0  0  0  0  0  0  0  0999 V2000
    0.0141    0.2860   -0.3166 P   0  0  1  0  0  0  0  0  0  0  0  0
    1.1038   -0.1688   -3.2070 Si  0  0  0  0  0  0  0  0  0  0  0  0
    1.0319    2.8219   -2.0224 Si  0  0  0  0  0  0  0  0  0  0  0  0
    0.2186    1.4475    1.1597 C   0  0  0  0  0  0  0  0  0  0  0  0
    2.0507    0.1380    1.1117 C   0  0  0  0  0  0  0  0  0  0  0  0
    0.2194    1.0652   -1.9761 C   0  0  0  0  0  0  0  0  0  0  0  0
   -0.8132    1.1708   -2.3785 H   0  0  0  0  0  0  0  0  0  0  0  0
    0.3082    0.1361   -4.8982 C   0  0  0  0  0  0  0  0  0  0  0  0
    0.3709    1.1869   -5.2379 H   0  0  0  0  0  0  0  0  0  0  0  0
   -0.7619   -0.1554   -4.8580 H   0  0  0  0  0  0  0  0  0  0  0  0
    0.7994   -0.5014   -5.6623 H   0  0  0  0  0  0  0  0  0  0  0  0
    0.9084   -2.0139   -2.8469 C   0  0  0  0  0  0  0  0  0  0  0  0
    1.4314   -2.5504   -3.6672 H   0  0  0  0  0  0  0  0  0  0  0  0
   -0.1386   -2.3654   -2.8378 H   0  0  0  0  0  0  0  0  0  0  0  0
    1.3862   -2.2988   -1.8923 H   0  0  0  0  0  0  0  0  0  0  0  0
    2.9778    0.1109   -3.2345 C   0  0  0  0  0  0  0  0  0  0  0  0
    3.3912   -0.0984   -2.2276 H   0  0  0  0  0  0  0  0  0  0  0  0
    3.2939    1.1261   -3.5390 H   0  0  0  0  0  0  0  0  0  0  0  0
    3.4280   -0.6121   -3.9460 H   0  0  0  0  0  0  0  0  0  0  0  0
    1.3595    3.3317   -3.8220 C   0  0  0  0  0  0  0  0  0  0  0  0
    0.4124    3.3909   -4.3964 H   0  0  0  0  0  0  0  0  0  0  0  0
    2.0537    2.6682   -4.3710 H   0  0  0  0  0  0  0  0  0  0  0  0
    1.8033    4.3493   -3.8121 H   0  0  0  0  0  0  0  0  0  0  0  0
    2.6385    2.8826   -1.0294 C   0  0  0  0  0  0  0  0  0  0  0  0
    3.1178    3.8705   -1.1920 H   0  0  0  0  0  0  0  0  0  0  0  0
    3.3590    2.0994   -1.3299 H   0  0  0  0  0  0  0  0  0  0  0  0
    2.4528    2.7782    0.0573 H   0  0  0  0  0  0  0  0  0  0  0  0
   -0.1346    4.1608   -1.3641 C   0  0  0  0  0  0  0  0  0  0  0  0
    0.2702    5.1471   -1.6743 H   0  0  0  0  0  0  0  0  0  0  0  0
   -0.2195    4.1655   -0.2621 H   0  0  0  0  0  0  0  0  0  0  0  0
   -1.1553    4.0732   -1.7891 H   0  0  0  0  0  0  0  0  0  0  0  0
   -0.7790    2.3660    1.7101 C   0  0  0  0  0  0  0  0  0  0  0  0
   -0.6031    2.9052    3.0073 C   0  0  0  0  0  0  0  0  0  0  0  0
    0.2972    2.6206    3.5699 H   0  0  0  0  0  0  0  0  0  0  0  0
   -1.5636    3.7648    3.5476 C   0  0  0  0  0  0  0  0  0  0  0  0
   -1.4229    4.1775    4.5579 H   0  0  0  0  0  0  0  0  0  0  0  0
   -2.7148    4.0935    2.8078 C   0  0  0  0  0  0  0  0  0  0  0  0
   -3.4744    4.7623    3.2405 H   0  0  0  0  0  0  0  0  0  0  0  0
   -2.8992    3.5637    1.5206 C   0  0  0  0  0  0  0  0  0  0  0  0
   -3.8019    3.8080    0.9421 H   0  0  0  0  0  0  0  0  0  0  0  0
   -1.9351    2.7086    0.9758 C   0  0  0  0  0  0  0  0  0  0  0  0
   -2.0741    2.2973   -0.0338 H   0  0  0  0  0  0  0  0  0  0  0  0
    3.3064   -0.2191    1.7263 C   0  0  0  0  0  0  0  0  0  0  0  0
    3.8838    0.3866    2.8607 C   0  0  0  0  0  0  0  0  0  0  0  0
    3.4167    1.2036    3.4181 H   0  0  0  0  0  0  0  0  0  0  0  0
    5.1180   -0.2479    3.1007 C   0  0  0  0  0  0  0  0  0  0  0  0
    5.8351   -0.0298    3.8998 H   0  0  0  0  0  0  0  0  0  0  0  0
    5.2811   -1.2411    2.1204 C   0  0  0  0  0  0  0  0  0  0  0  0
    6.3942   -2.2126    1.9207 C   0  0  0  0  0  0  0  0  0  0  0  0
    6.0516   -3.2657    2.0158 H   0  0  0  0  0  0  0  0  0  0  0  0
    7.1835   -2.0448    2.6760 H   0  0  0  0  0  0  0  0  0  0  0  0
    6.8572   -2.1163    0.9150 H   0  0  0  0  0  0  0  0  0  0  0  0
    3.9840   -2.1374    0.1836 C   0  0  0  0  0  0  0  0  0  0  0  0
    4.7652   -1.9919   -0.5907 H   0  0  0  0  0  0  0  0  0  0  0  0
    2.9930   -1.9392   -0.2608 H   0  0  0  0  0  0  0  0  0  0  0  0
    4.0288   -3.1866    0.5387 H   0  0  0  0  0  0  0  0  0  0  0  0
    1.5657   -0.3862    0.0031 N   0  0  0  0  0  0  0  0  0  0  0  0
    1.3177    1.1469    1.7926 N   0  0  0  0  0  0  0  0  0  0  0  0
    4.1813   -1.2163    1.2927 N   0  0  0  0  0  0  0  0  0  0  0  0
  1  6  1  6  0  0  0
  1 57  1  0  0  0  0
  1  4  1  0  0  0  0
  2 12  1  0  0  0  0
  2  6  1  0  0  0  0
  3  6  1  0  0  0  0
  3 28  1  0  0  0  0
  3 24  1  0  0  0  0
  4 32  1  0  0  0  0
  4 58  2  0  0  0  0
  5 43  1  0  0  0  0
  5 58  1  0  0  0  0
  7  6  1  0  0  0  0
  8 10  1  0  0  0  0
  8  2  1  0  0  0  0
  9  8  1  0  0  0  0
 11  8  1  0  0  0  0
 12 14  1  0  0  0  0
 12 15  1  0  0  0  0
 13 12  1  0  0  0  0
 16  2  1  0  0  0  0
 16 17  1  0  0  0  0
 18 16  1  0  0  0  0
 19 16  1  0  0  0  0
 20 23  1  0  0  0  0
 20  3  1  0  0  0  0
 21 20  1  0  0  0  0
 22 20  1  0  0  0  0
 24 27  1  0  0  0  0
 25 24  1  0  0  0  0
 26 24  1  0  0  0  0
 28 30  1  0  0  0  0
 29 28  1  0  0  0  0
 31 28  1  0  0  0  0
 32 33  1  0  0  0  0
 33 35  2  0  0  0  0
 33 34  1  0  0  0  0
 35 36  1  0  0  0  0
 37 38  1  0  0  0  0
 37 35  1  0  0  0  0
 39 37  2  0  0  0  0
 40 39  1  0  0  0  0
 41 39  1  0  0  0  0
 41 32  2  0  0  0  0
 42 41  1  0  0  0  0
 43 44  2  0  0  0  0
 44 46  1  0  0  0  0
 44 45  1  0  0  0  0
 46 47  1  0  0  0  0
 48 46  2  0  0  0  0
 49 50  1  0  0  0  0
 49 48  1  0  0  0  0
 49 51  1  0  0  0  0
 52 49  1  0  0  0  0
 53 56  1  0  0  0  0
 53 59  1  0  0  0  0
 54 53  1  0  0  0  0
 55 53  1  0  0  0  0
 57  5  2  0  0  0  0
 59 43  1  0  0  0  0
 59 48  1  0  0  0  0
M  END
