2
q = 0.0, confidence = 1.0

 52 55  0  0  0  0  0  0  0  0999 V2000
    1.3731   -1.7297    0.3088 P   0  0  0  0  0  0  0  0  0  0  0  0
   -1.9625   -0.9226    0.3632 P   0  0  0  0  0  0  0  0  0  0  0  0
    3.6584   -2.5319    2.0921 F   0  0  0  0  0  0  0  0  0  0  0  0
    3.4810    0.2546    0.4867 F   0  0  0  0  0  0  0  0  0  0  0  0
    4.5640   -4.2298   -3.0356 F   0  0  0  0  0  0  0  0  0  0  0  0
    2.2722   -2.8796   -2.4508 F   0  0  0  0  0  0  0  0  0  0  0  0
    3.9595    2.5268   -0.9136 F   0  0  0  0  0  0  0  0  0  0  0  0
   -0.2154   -0.6931   -2.3812 F   0  0  0  0  0  0  0  0  0  0  0  0
   -6.3932   -2.8018    2.3728 F   0  0  0  0  0  0  0  0  0  0  0  0
    6.3939   -4.7227   -1.0685 F   0  0  0  0  0  0  0  0  0  0  0  0
    2.3671    3.1932   -3.0316 F   0  0  0  0  0  0  0  0  0  0  0  0
    5.9411   -3.8747    1.4896 F   0  0  0  0  0  0  0  0  0  0  0  0
   -4.4283   -2.7485    0.4939 F   0  0  0  0  0  0  0  0  0  0  0  0
    0.2622    1.5751   -3.7222 F   0  0  0  0  0  0  0  0  0  0  0  0
   -3.8976   -2.0631   -4.4232 F   0  0  0  0  0  0  0  0  0  0  0  0
   -6.2931   -1.0915    4.5006 F   0  0  0  0  0  0  0  0  0  0  0  0
   -3.5197    1.4587   -0.2659 F   0  0  0  0  0  0  0  0  0  0  0  0
   -2.2604    0.7539    2.8999 F   0  0  0  0  0  0  0  0  0  0  0  0
   -2.5011   -2.7628   -2.2383 F   0  0  0  0  0  0  0  0  0  0  0  0
   -5.0942    0.3899   -4.5879 F   0  0  0  0  0  0  0  0  0  0  0  0
   -4.8799    2.1621   -2.4997 F   0  0  0  0  0  0  0  0  0  0  0  0
   -4.2272    0.6783    4.7563 F   0  0  0  0  0  0  0  0  0  0  0  0
    1.6173   -0.3145   -0.8799 C   0  0  0  0  0  0  0  0  0  0  0  0
    2.8856   -2.6896   -0.1574 C   0  0  0  0  0  0  0  0  0  0  0  0
    2.9710    1.7084   -1.2866 C   0  0  0  0  0  0  0  0  0  0  0  0
    2.1478    2.0567   -2.3705 C   0  0  0  0  0  0  0  0  0  0  0  0
   -3.2829   -1.0018    1.6375 C   0  0  0  0  0  0  0  0  0  0  0  0
    5.2751   -4.0709   -0.7781 C   0  0  0  0  0  0  0  0  0  0  0  0
    0.8304    0.0543   -1.9864 C   0  0  0  0  0  0  0  0  0  0  0  0
    3.1532   -3.1263   -1.4684 C   0  0  0  0  0  0  0  0  0  0  0  0
    1.0691    1.2304   -2.7189 C   0  0  0  0  0  0  0  0  0  0  0  0
   -2.9626   -0.6725   -1.1663 C   0  0  0  0  0  0  0  0  0  0  0  0
    2.6976    0.5391   -0.5672 C   0  0  0  0  0  0  0  0  0  0  0  0
   -3.2579   -0.1336    2.7448 C   0  0  0  0  0  0  0  0  0  0  0  0
    3.8503   -2.9486    0.8335 C   0  0  0  0  0  0  0  0  0  0  0  0
   -4.3608   -1.9029    1.5318 C   0  0  0  0  0  0  0  0  0  0  0  0
   -4.4212    0.0524   -3.4965 C   0  0  0  0  0  0  0  0  0  0  0  0
   -3.0853   -1.5565   -2.2527 C   0  0  0  0  0  0  0  0  0  0  0  0
    4.3297   -3.8185   -1.7917 C   0  0  0  0  0  0  0  0  0  0  0  0
    0.0244   -2.8333   -0.3935 C   0  0  0  0  0  0  0  0  0  0  0  0
   -0.0975   -2.7433   -1.4851 H   0  0  0  0  0  0  0  0  0  0  0  0
    0.3996   -3.8590   -0.1961 H   0  0  0  0  0  0  0  0  0  0  0  0
   -3.8025   -1.2077   -3.4103 C   0  0  0  0  0  0  0  0  0  0  0  0
   -5.3342   -1.0621    3.5867 C   0  0  0  0  0  0  0  0  0  0  0  0
   -4.2694   -0.1514    3.7180 C   0  0  0  0  0  0  0  0  0  0  0  0
   -5.3856   -1.9436    2.4891 C   0  0  0  0  0  0  0  0  0  0  0  0
    5.0391   -3.6370    0.5390 C   0  0  0  0  0  0  0  0  0  0  0  0
   -3.6061    0.5745   -1.2802 C   0  0  0  0  0  0  0  0  0  0  0  0
   -1.2964   -2.6548    0.3621 C   0  0  0  0  0  0  0  0  0  0  0  0
   -1.1393   -2.8391    1.4467 H   0  0  0  0  0  0  0  0  0  0  0  0
   -2.0687   -3.3613    0.0078 H   0  0  0  0  0  0  0  0  0  0  0  0
   -4.3186    0.9569   -2.4234 C   0  0  0  0  0  0  0  0  0  0  0  0
  2 27  1  0  0  0  0
  5 39  1  0  0  0  0
  6 30  1  0  0  0  0
  8 29  1  0  0  0  0
  9 46  1  0  0  0  0
 10 28  1  0  0  0  0
 11 26  1  0  0  0  0
 13 36  1  0  0  0  0
 14 31  1  0  0  0  0
 15 43  1  0  0  0  0
 20 37  1  0  0  0  0
 21 52  1  0  0  0  0
 23 33  1  0  0  0  0
 23  1  1  0  0  0  0
 24  1  1  0  0  0  0
 24 35  1  0  0  0  0
 25  7  1  0  0  0  0
 25 33  2  0  0  0  0
 26 25  1  0  0  0  0
 27 34  1  0  0  0  0
 28 47  1  0  0  0  0
 29 23  2  0  0  0  0
 30 24  2  0  0  0  0
 31 26  2  0  0  0  0
 31 29  1  0  0  0  0
 32  2  1  0  0  0  0
 33  4  1  0  0  0  0
 34 18  1  0  0  0  0
 34 45  2  0  0  0  0
 35  3  1  0  0  0  0
 36 27  2  0  0  0  0
 36 46  1  0  0  0  0
 37 43  2  0  0  0  0
 37 52  1  0  0  0  0
 38 19  1  0  0  0  0
 38 32  2  0  0  0  0
 39 30  1  0  0  0  0
 39 28  2  0  0  0  0
 40 42  1  0  0  0  0
 40  1  1  0  0  0  0
 40 49  1  0  0  0  0
 41 40  1  0  0  0  0
 43 38  1  0  0  0  0
 44 45  1  0  0  0  0
 44 16  1  0  0  0  0
 45 22  1  0  0  0  0
 46 44  2  0  0  0  0
 47 35  2  0  0  0  0
 47 12  1  0  0  0  0
 48 32  1  0  0  0  0
 48 17  1  0  0  0  0
 49  2  1  0  0  0  0
 49 50  1  0  0  0  0
 51 49  1  0  0  0  0
 52 48  2  0  0  0  0
M  END
