1
 OpenBabel05122313063D

 64 69  0  0  1  0  0  0  0  0999 V2000
   -0.0441    0.0545    0.4543 P   0  0  2  0  0  0  0  0  0  0  0  0
    1.2842    1.3485    0.0701 C   0  0  2  0  0  0  0  0  0  0  0  0
    2.6252    0.7550    0.5830 C   0  0  0  0  0  0  0  0  0  0  0  0
    3.7950    1.7007    0.2486 C   0  0  1  0  0  0  0  0  0  0  0  0
    3.8900    1.8874   -1.2758 C   0  0  0  0  0  0  0  0  0  0  0  0
    2.5723    2.4907   -1.7930 C   0  0  2  0  0  0  0  0  0  0  0  0
    2.3284    3.8554   -1.1214 C   0  0  0  0  0  0  0  0  0  0  0  0
    2.2379    3.6676    0.4052 C   0  0  1  0  0  0  0  0  0  0  0  0
    1.0584    2.7251    0.7323 C   0  0  0  0  0  0  0  0  0  0  0  0
    1.4048    1.5386   -1.4646 C   0  0  0  0  0  0  0  0  0  0  0  0
    3.5532    3.0613    0.9281 C   0  0  0  0  0  0  0  0  0  0  0  0
   -1.8153    0.7083    0.3128 C   0  0  1  0  0  0  0  0  0  0  0  0
   -2.0498    1.3168   -1.0900 C   0  0  0  0  0  0  0  0  0  0  0  0
   -3.5312    1.7112   -1.2575 C   0  0  2  0  0  0  0  0  0  0  0  0
   -3.9011    2.7541   -0.1856 C   0  0  0  0  0  0  0  0  0  0  0  0
   -3.6924    2.1474    1.2151 C   0  0  1  0  0  0  0  0  0  0  0  0
   -4.5869    0.9051    1.3764 C   0  0  0  0  0  0  0  0  0  0  0  0
   -4.2142   -0.1334    0.3029 C   0  0  2  0  0  0  0  0  0  0  0  0
   -2.7359   -0.5354    0.4655 C   0  0  0  0  0  0  0  0  0  0  0  0
   -2.2100    1.7481    1.3896 C   0  0  0  0  0  0  0  0  0  0  0  0
   -4.4234    0.4671   -1.0994 C   0  0  0  0  0  0  0  0  0  0  0  0
    0.1391   -0.3308    2.2663 C   0  0  0  0  0  0  0  0  0  0  0  0
    0.9303   -1.6055    2.5790 C   0  0  0  0  0  0  0  0  0  0  0  0
    1.0473   -1.8765    4.0823 C   0  0  0  0  0  0  0  0  0  0  0  0
    1.8173   -3.1585    4.4005 C   0  0  0  0  0  0  0  0  0  0  0  0
    2.5857    0.6062    1.6820 H   0  0  0  0  0  0  0  0  0  0  0  0
    2.7883   -0.2429    0.1207 H   0  0  0  0  0  0  0  0  0  0  0  0
    4.7348    1.2504    0.6324 H   0  0  0  0  0  0  0  0  0  0  0  0
    4.0824    0.9113   -1.7692 H   0  0  0  0  0  0  0  0  0  0  0  0
    4.7430    2.5535   -1.5274 H   0  0  0  0  0  0  0  0  0  0  0  0
    2.6246    2.6184   -2.8948 H   0  0  0  0  0  0  0  0  0  0  0  0
    1.3900    4.3099   -1.5067 H   0  0  0  0  0  0  0  0  0  0  0  0
    3.1525    4.5578   -1.3700 H   0  0  0  0  0  0  0  0  0  0  0  0
    2.0555    4.6481    0.8942 H   0  0  0  0  0  0  0  0  0  0  0  0
    0.1188    3.1785    0.3555 H   0  0  0  0  0  0  0  0  0  0  0  0
    0.9518    2.6184    1.8335 H   0  0  0  0  0  0  0  0  0  0  0  0
    1.5589    0.5501   -1.9481 H   0  0  0  0  0  0  0  0  0  0  0  0
    0.4646    1.9512   -1.8797 H   0  0  0  0  0  0  0  0  0  0  0  0
    4.3993    3.7503    0.7192 H   0  0  0  0  0  0  0  0  0  0  0  0
    3.5048    2.9351    2.0316 H   0  0  0  0  0  0  0  0  0  0  0  0
   -1.4188    2.2198   -1.2222 H   0  0  0  0  0  0  0  0  0  0  0  0
   -1.7466    0.5856   -1.8702 H   0  0  0  0  0  0  0  0  0  0  0  0
   -3.6704    2.1470   -2.2695 H   0  0  0  0  0  0  0  0  0  0  0  0
   -3.2750    3.6649   -0.3054 H   0  0  0  0  0  0  0  0  0  0  0  0
   -4.9585    3.0715   -0.3091 H   0  0  0  0  0  0  0  0  0  0  0  0
   -3.9498    2.8993    1.9912 H   0  0  0  0  0  0  0  0  0  0  0  0
   -5.6565    1.1897    1.2803 H   0  0  0  0  0  0  0  0  0  0  0  0
   -4.4586    0.4701    2.3912 H   0  0  0  0  0  0  0  0  0  0  0  0
   -4.8430   -1.0410    0.4208 H   0  0  0  0  0  0  0  0  0  0  0  0
   -2.4571   -1.2975   -0.2932 H   0  0  0  0  0  0  0  0  0  0  0  0
   -2.5835   -1.0084    1.4596 H   0  0  0  0  0  0  0  0  0  0  0  0
   -2.0587    1.3317    2.4073 H   0  0  0  0  0  0  0  0  0  0  0  0
   -1.5742    2.6516    1.3130 H   0  0  0  0  0  0  0  0  0  0  0  0
   -5.4904    0.7413   -1.2436 H   0  0  0  0  0  0  0  0  0  0  0  0
   -4.1728   -0.2849   -1.8773 H   0  0  0  0  0  0  0  0  0  0  0  0
    0.5832    0.5553    2.7695 H   0  0  0  0  0  0  0  0  0  0  0  0
   -0.8888   -0.4287    2.6727 H   0  0  0  0  0  0  0  0  0  0  0  0
    0.4393   -2.4653    2.0731 H   0  0  0  0  0  0  0  0  0  0  0  0
    1.9447   -1.5485    2.1307 H   0  0  0  0  0  0  0  0  0  0  0  0
    0.0271   -1.9294    4.5244 H   0  0  0  0  0  0  0  0  0  0  0  0
    1.5410   -1.0081    4.5739 H   0  0  0  0  0  0  0  0  0  0  0  0
    1.3258   -4.0447    3.9487 H   0  0  0  0  0  0  0  0  0  0  0  0
    1.8887   -3.3334    5.4927 H   0  0  0  0  0  0  0  0  0  0  0  0
    2.8510   -3.1168    3.9987 H   0  0  0  0  0  0  0  0  0  0  0  0
  1 22  1  1  0  0  0
  2  1  1  1  0  0  0
  2  3  1  0  0  0  0
  2  9  1  0  0  0  0
  3 26  1  0  0  0  0
  4  3  1  0  0  0  0
  4 28  1  1  0  0  0
  4 11  1  0  0  0  0
  5  4  1  0  0  0  0
  6 31  1  6  0  0  0
  6 10  1  0  0  0  0
  6  5  1  0  0  0  0
  6  7  1  0  0  0  0
  7  8  1  0  0  0  0
  8  9  1  0  0  0  0
  8 34  1  1  0  0  0
  8 11  1  0  0  0  0
  9 36  1  0  0  0  0
 10  2  1  0  0  0  0
 11 40  1  0  0  0  0
 12  1  1  1  0  0  0
 12 19  1  0  0  0  0
 12 20  1  0  0  0  0
 13 12  1  0  0  0  0
 14 43  1  6  0  0  0
 14 21  1  0  0  0  0
 14 13  1  0  0  0  0
 14 15  1  0  0  0  0
 15 16  1  0  0  0  0
 16 17  1  0  0  0  0
 16 20  1  0  0  0  0
 16 46  1  1  0  0  0
 17 48  1  0  0  0  0
 18 49  1  1  0  0  0
 18 19  1  0  0  0  0
 18 17  1  0  0  0  0
 19 51  1  0  0  0  0
 20 52  1  0  0  0  0
 21 18  1  0  0  0  0
 22 23  1  0  0  0  0
 22 57  1  0  0  0  0
 22 56  1  0  0  0  0
 23 24  1  0  0  0  0
 24 25  1  0  0  0  0
 24 60  1  0  0  0  0
 24 61  1  0  0  0  0
 25 63  1  0  0  0  0
 27  3  1  0  0  0  0
 29  5  1  0  0  0  0
 30  5  1  0  0  0  0
 32  7  1  0  0  0  0
 33  7  1  0  0  0  0
 35  9  1  0  0  0  0
 37 10  1  0  0  0  0
 38 10  1  0  0  0  0
 39 11  1  0  0  0  0
 41 13  1  0  0  0  0
 42 13  1  0  0  0  0
 44 15  1  0  0  0  0
 45 15  1  0  0  0  0
 47 17  1  0  0  0  0
 50 19  1  0  0  0  0
 53 20  1  0  0  0  0
 54 21  1  0  0  0  0
 55 21  1  0  0  0  0
 58 23  1  0  0  0  0
 59 23  1  0  0  0  0
 62 25  1  0  0  0  0
 64 25  1  0  0  0  0
M  END
