1
 OpenBabel05122313063D

 32 32  0  0  0  0  0  0  0  0999 V2000
   -1.9656    1.1761   -0.4092 P   0  0  0  0  0  0  0  0  0  0  0  0
   -3.4507    0.3224    0.2562 C   0  0  0  0  0  0  0  0  0  0  0  0
   -3.7936   -0.9809   -0.2077 C   0  0  0  0  0  0  0  0  0  0  0  0
   -2.9931   -1.6650   -1.2975 C   0  0  0  0  0  0  0  0  0  0  0  0
   -3.3175   -1.2631   -2.2840 H   0  0  0  0  0  0  0  0  0  0  0  0
   -1.9268   -1.3559   -1.2107 H   0  0  0  0  0  0  0  0  0  0  0  0
   -3.0607   -3.1914   -1.3337 C   0  0  0  0  0  0  0  0  0  0  0  0
   -4.0688   -3.5696   -1.5992 H   0  0  0  0  0  0  0  0  0  0  0  0
   -2.3536   -3.5834   -2.0911 H   0  0  0  0  0  0  0  0  0  0  0  0
   -2.7842   -3.6292   -0.3527 H   0  0  0  0  0  0  0  0  0  0  0  0
   -4.9077   -1.6159    0.3751 C   0  0  0  0  0  0  0  0  0  0  0  0
   -5.1858   -2.6244    0.0370 H   0  0  0  0  0  0  0  0  0  0  0  0
   -5.6695   -1.0006    1.3789 C   0  0  0  0  0  0  0  0  0  0  0  0
   -6.5328   -1.5285    1.8120 H   0  0  0  0  0  0  0  0  0  0  0  0
   -5.3224    0.2782    1.8318 C   0  0  0  0  0  0  0  0  0  0  0  0
   -5.9046    0.7692    2.6259 H   0  0  0  0  0  0  0  0  0  0  0  0
   -4.2158    0.9308    1.2721 C   0  0  0  0  0  0  0  0  0  0  0  0
   -3.9439    1.9268    1.6465 H   0  0  0  0  0  0  0  0  0  0  0  0
   -2.3414    1.5610   -2.1821 C   0  0  0  0  0  0  0  0  0  0  0  0
   -2.1215    0.6385   -2.7543 H   0  0  0  0  0  0  0  0  0  0  0  0
   -1.5506    2.2755   -2.4923 H   0  0  0  0  0  0  0  0  0  0  0  0
   -3.7456    2.0998   -2.4460 C   0  0  0  0  0  0  0  0  0  0  0  0
   -3.9478    3.0350   -1.8847 H   0  0  0  0  0  0  0  0  0  0  0  0
   -3.8787    2.3258   -3.5236 H   0  0  0  0  0  0  0  0  0  0  0  0
   -4.5227    1.3649   -2.1544 H   0  0  0  0  0  0  0  0  0  0  0  0
   -1.8987    2.8264    0.4226 C   0  0  0  0  0  0  0  0  0  0  0  0
   -1.8263    2.5925    1.5041 H   0  0  0  0  0  0  0  0  0  0  0  0
   -2.8481    3.3726    0.2402 H   0  0  0  0  0  0  0  0  0  0  0  0
   -0.6808    3.6399   -0.0196 C   0  0  0  0  0  0  0  0  0  0  0  0
   -0.7021    3.8805   -1.1015 H   0  0  0  0  0  0  0  0  0  0  0  0
   -0.6344    4.5988    0.5344 H   0  0  0  0  0  0  0  0  0  0  0  0
    0.2553    3.0820    0.1826 H   0  0  0  0  0  0  0  0  0  0  0  0
  1  2  1  0  0  0  0
  1 26  1  0  0  0  0
  2 17  1  0  0  0  0
  3  2  2  0  0  0  0
  3 11  1  0  0  0  0
  4  6  1  0  0  0  0
  4  3  1  0  0  0  0
  5  4  1  0  0  0  0
  7  4  1  0  0  0  0
  7 10  1  0  0  0  0
  8  7  1  0  0  0  0
  9  7  1  0  0  0  0
 11 13  2  0  0  0  0
 12 11  1  0  0  0  0
 13 14  1  0  0  0  0
 13 15  1  0  0  0  0
 15 16  1  0  0  0  0
 17 18  1  0  0  0  0
 17 15  2  0  0  0  0
 19  1  1  0  0  0  0
 20 19  1  0  0  0  0
 21 19  1  0  0  0  0
 22 19  1  0  0  0  0
 22 25  1  0  0  0  0
 22 23  1  0  0  0  0
 24 22  1  0  0  0  0
 26 27  1  0  0  0  0
 28 26  1  0  0  0  0
 29 32  1  0  0  0  0
 29 26  1  0  0  0  0
 29 31  1  0  0  0  0
 30 29  1  0  0  0  0
M  END
