1
 OpenBabel05122313063D

 60 62  0  0  0  0  0  0  0  0999 V2000
    0.8490    0.1572   -0.3866 P   0  0  0  0  0  0  0  0  0  0  0  0
    0.3930   -0.5888   -1.8536 O   0  0  0  0  0  0  0  0  0  0  0  0
    0.4094    1.7106   -0.9434 O   0  0  0  0  0  0  0  0  0  0  0  0
   -0.6367   -0.2403    0.6365 C   0  0  0  0  0  0  0  0  0  0  0  0
   -1.3166    0.8351    1.2903 C   0  0  0  0  0  0  0  0  0  0  0  0
   -2.7217    0.7706    1.3589 C   0  0  0  0  0  0  0  0  0  0  0  0
   -3.2529    1.6186    1.8088 H   0  0  0  0  0  0  0  0  0  0  0  0
   -3.4606   -0.3188    0.8780 C   0  0  0  0  0  0  0  0  0  0  0  0
   -2.7308   -1.4499    0.4735 C   0  0  0  0  0  0  0  0  0  0  0  0
   -3.2782   -2.3691    0.2204 H   0  0  0  0  0  0  0  0  0  0  0  0
   -1.3312   -1.4670    0.3723 C   0  0  0  0  0  0  0  0  0  0  0  0
   -0.6445    2.0158    2.0384 C   0  0  0  0  0  0  0  0  0  0  0  0
   -1.1372    1.9339    3.5095 C   0  0  0  0  0  0  0  0  0  0  0  0
   -0.8623    0.9617    3.9657 H   0  0  0  0  0  0  0  0  0  0  0  0
   -2.2341    2.0525    3.5970 H   0  0  0  0  0  0  0  0  0  0  0  0
   -0.6628    2.7404    4.1049 H   0  0  0  0  0  0  0  0  0  0  0  0
   -1.0598    3.3766    1.4395 C   0  0  0  0  0  0  0  0  0  0  0  0
   -2.1608    3.4996    1.4176 H   0  0  0  0  0  0  0  0  0  0  0  0
   -0.6759    3.4809    0.4076 H   0  0  0  0  0  0  0  0  0  0  0  0
   -0.6410    4.2030    2.0492 H   0  0  0  0  0  0  0  0  0  0  0  0
    0.8906    1.9410    2.0986 C   0  0  0  0  0  0  0  0  0  0  0  0
    1.2675    2.6890    2.8250 H   0  0  0  0  0  0  0  0  0  0  0  0
    1.3760    2.1909    1.1362 H   0  0  0  0  0  0  0  0  0  0  0  0
    1.2481    0.9479    2.4389 H   0  0  0  0  0  0  0  0  0  0  0  0
   -4.9947   -0.3272    0.8115 C   0  0  0  0  0  0  0  0  0  0  0  0
   -5.5501   -1.4919    1.6616 C   0  0  0  0  0  0  0  0  0  0  0  0
   -5.1853   -2.4761    1.3068 H   0  0  0  0  0  0  0  0  0  0  0  0
   -6.6582   -1.5094    1.6123 H   0  0  0  0  0  0  0  0  0  0  0  0
   -5.2542   -1.3839    2.7246 H   0  0  0  0  0  0  0  0  0  0  0  0
   -5.4081   -0.5170   -0.6672 C   0  0  0  0  0  0  0  0  0  0  0  0
   -5.0077    0.3018   -1.2988 H   0  0  0  0  0  0  0  0  0  0  0  0
   -6.5136   -0.5219   -0.7619 H   0  0  0  0  0  0  0  0  0  0  0  0
   -5.0278   -1.4732   -1.0784 H   0  0  0  0  0  0  0  0  0  0  0  0
   -5.6045    0.9879    1.3256 C   0  0  0  0  0  0  0  0  0  0  0  0
   -5.3631    1.1668    2.3929 H   0  0  0  0  0  0  0  0  0  0  0  0
   -6.7086    0.9491    1.2375 H   0  0  0  0  0  0  0  0  0  0  0  0
   -5.2531    1.8608    0.7395 H   0  0  0  0  0  0  0  0  0  0  0  0
   -0.6726   -2.8461    0.1050 C   0  0  0  0  0  0  0  0  0  0  0  0
   -1.1730   -3.7928    1.2305 C   0  0  0  0  0  0  0  0  0  0  0  0
   -0.8924   -3.4030    2.2296 H   0  0  0  0  0  0  0  0  0  0  0  0
   -0.7094   -4.7928    1.1080 H   0  0  0  0  0  0  0  0  0  0  0  0
   -2.2715   -3.9276    1.2151 H   0  0  0  0  0  0  0  0  0  0  0  0
   -1.0951   -3.4190   -1.2646 C   0  0  0  0  0  0  0  0  0  0  0  0
   -2.1970   -3.4840   -1.3628 H   0  0  0  0  0  0  0  0  0  0  0  0
   -0.6853   -4.4419   -1.3910 H   0  0  0  0  0  0  0  0  0  0  0  0
   -0.7079   -2.7885   -2.0865 H   0  0  0  0  0  0  0  0  0  0  0  0
    0.8627   -2.8477    0.1986 C   0  0  0  0  0  0  0  0  0  0  0  0
    1.3520   -2.3736   -0.6732 H   0  0  0  0  0  0  0  0  0  0  0  0
    1.2295   -3.8938    0.2132 H   0  0  0  0  0  0  0  0  0  0  0  0
    1.2258   -2.3625    1.1273 H   0  0  0  0  0  0  0  0  0  0  0  0
   -0.4926    0.2489   -2.5075 C   0  0  0  0  0  0  0  0  0  0  0  0
   -1.3175   -0.1046   -3.5726 C   0  0  0  0  0  0  0  0  0  0  0  0
   -1.3142   -1.1304   -3.9656 H   0  0  0  0  0  0  0  0  0  0  0  0
   -2.1443    0.9000   -4.1167 C   0  0  0  0  0  0  0  0  0  0  0  0
   -2.8077    0.6505   -4.9577 H   0  0  0  0  0  0  0  0  0  0  0  0
   -2.1343    2.2058   -3.6005 C   0  0  0  0  0  0  0  0  0  0  0  0
   -2.7896    2.9718   -4.0405 H   0  0  0  0  0  0  0  0  0  0  0  0
   -1.2974    2.5557   -2.5205 C   0  0  0  0  0  0  0  0  0  0  0  0
   -1.2784    3.5727   -2.1057 H   0  0  0  0  0  0  0  0  0  0  0  0
   -0.4830    1.5584   -1.9893 C   0  0  0  0  0  0  0  0  0  0  0  0
  1  4  1  0  0  0  0
  2  1  1  0  0  0  0
  3  1  1  0  0  0  0
  4  5  1  0  0  0  0
  5  6  2  0  0  0  0
  5 12  1  0  0  0  0
  6  7  1  0  0  0  0
  8  6  1  0  0  0  0
  9  8  2  0  0  0  0
 10  9  1  0  0  0  0
 11  9  1  0  0  0  0
 11  4  2  0  0  0  0
 12 21  1  0  0  0  0
 12 13  1  0  0  0  0
 13 15  1  0  0  0  0
 13 14  1  0  0  0  0
 13 16  1  0  0  0  0
 17 12  1  0  0  0  0
 17 20  1  0  0  0  0
 18 17  1  0  0  0  0
 19 17  1  0  0  0  0
 21 24  1  0  0  0  0
 21 22  1  0  0  0  0
 23 21  1  0  0  0  0
 25  8  1  0  0  0  0
 25 34  1  0  0  0  0
 25 26  1  0  0  0  0
 26 29  1  0  0  0  0
 27 26  1  0  0  0  0
 28 26  1  0  0  0  0
 30 25  1  0  0  0  0
 31 30  1  0  0  0  0
 32 30  1  0  0  0  0
 33 30  1  0  0  0  0
 34 35  1  0  0  0  0
 36 34  1  0  0  0  0
 37 34  1  0  0  0  0
 38 47  1  0  0  0  0
 38 11  1  0  0  0  0
 38 39  1  0  0  0  0
 39 40  1  0  0  0  0
 41 39  1  0  0  0  0
 42 39  1  0  0  0  0
 43 38  1  0  0  0  0
 44 43  1  0  0  0  0
 45 43  1  0  0  0  0
 46 43  1  0  0  0  0
 47 49  1  0  0  0  0
 47 50  1  0  0  0  0
 48 47  1  0  0  0  0
 51 60  1  0  0  0  0
 51  2  1  0  0  0  0
 52 51  2  0  0  0  0
 53 52  1  0  0  0  0
 54 56  2  0  0  0  0
 54 52  1  0  0  0  0
 55 54  1  0  0  0  0
 56 58  1  0  0  0  0
 57 56  1  0  0  0  0
 58 59  1  0  0  0  0
 58 60  2  0  0  0  0
 60  3  1  0  0  0  0
M  END
