1
 OpenBabel05122313063D

 31 33  0  0  0  0  0  0  0  0999 V2000
   -2.3226   -0.0417    0.0854 P   0  0  0  0  0  0  0  0  0  0  0  0
   -2.7085    0.5073    1.7727 C   0  0  0  0  0  0  0  0  0  0  0  0
   -1.8349    0.1574    2.7734 O   0  0  0  0  0  0  0  0  0  0  0  0
   -2.2795    0.7309    3.9227 C   0  0  0  0  0  0  0  0  0  0  0  0
   -3.4261    1.4567    3.6888 C   0  0  0  0  0  0  0  0  0  0  0  0
   -3.7047    1.3138    2.2912 C   0  0  0  0  0  0  0  0  0  0  0  0
   -4.5312    1.7528    1.7225 H   0  0  0  0  0  0  0  0  0  0  0  0
   -3.9990    2.0283    4.4271 H   0  0  0  0  0  0  0  0  0  0  0  0
   -1.6788    0.5328    4.8163 H   0  0  0  0  0  0  0  0  0  0  0  0
   -3.2964   -1.5786   -0.1962 C   0  0  0  0  0  0  0  0  0  0  0  0
   -4.1798   -2.0379    0.7975 C   0  0  0  0  0  0  0  0  0  0  0  0
   -4.9285   -3.2061    0.6001 C   0  0  0  0  0  0  0  0  0  0  0  0
   -4.7955   -3.9165   -0.6006 C   0  0  0  0  0  0  0  0  0  0  0  0
   -3.9145   -3.4579   -1.5904 C   0  0  0  0  0  0  0  0  0  0  0  0
   -3.1431   -2.2925   -1.4159 C   0  0  0  0  0  0  0  0  0  0  0  0
   -2.1818   -1.8532   -2.4870 C   0  0  0  0  0  0  0  0  0  0  0  0
   -2.2256   -2.5269   -3.3636 H   0  0  0  0  0  0  0  0  0  0  0  0
   -1.1449   -1.8667   -2.0860 H   0  0  0  0  0  0  0  0  0  0  0  0
   -2.3890   -0.8209   -2.8366 H   0  0  0  0  0  0  0  0  0  0  0  0
   -3.8067   -4.0231   -2.5295 H   0  0  0  0  0  0  0  0  0  0  0  0
   -5.3764   -4.8361   -0.7686 H   0  0  0  0  0  0  0  0  0  0  0  0
   -5.6130   -3.5584    1.3863 H   0  0  0  0  0  0  0  0  0  0  0  0
   -4.2799   -1.4740    1.7368 H   0  0  0  0  0  0  0  0  0  0  0  0
   -3.3264    1.1404   -0.8689 C   0  0  0  0  0  0  0  0  0  0  0  0
   -2.9916    2.4673   -0.8239 O   0  0  0  0  0  0  0  0  0  0  0  0
   -3.8459    3.1365   -1.6396 C   0  0  0  0  0  0  0  0  0  0  0  0
   -4.7386    2.2637   -2.2216 C   0  0  0  0  0  0  0  0  0  0  0  0
   -4.4056    0.9635   -1.7188 C   0  0  0  0  0  0  0  0  0  0  0  0
   -4.8957    0.0097   -1.9410 H   0  0  0  0  0  0  0  0  0  0  0  0
   -5.5404    2.5189   -2.9231 H   0  0  0  0  0  0  0  0  0  0  0  0
   -3.6871    4.2179   -1.7015 H   0  0  0  0  0  0  0  0  0  0  0  0
  1  2  1  0  0  0  0
  2  6  2  0  0  0  0
  2  3  1  0  0  0  0
  3  4  1  0  0  0  0
  4  9  1  0  0  0  0
  5  4  2  0  0  0  0
  5  8  1  0  0  0  0
  6  5  1  0  0  0  0
  7  6  1  0  0  0  0
 10  1  1  0  0  0  0
 10 11  1  0  0  0  0
 11 23  1  0  0  0  0
 12 11  2  0  0  0  0
 12 22  1  0  0  0  0
 13 12  1  0  0  0  0
 14 15  1  0  0  0  0
 14 13  2  0  0  0  0
 15 10  2  0  0  0  0
 16 18  1  0  0  0  0
 16 15  1  0  0  0  0
 17 16  1  0  0  0  0
 19 16  1  0  0  0  0
 20 14  1  0  0  0  0
 21 13  1  0  0  0  0
 24 25  1  0  0  0  0
 24  1  1  0  0  0  0
 26 25  1  0  0  0  0
 27 28  1  0  0  0  0
 27 26  2  0  0  0  0
 28 24  2  0  0  0  0
 29 28  1  0  0  0  0
 30 27  1  0  0  0  0
 31 26  1  0  0  0  0
M  END
