1
 OpenBabel05122313063D

 25 24  0  0  0  0  0  0  0  0999 V2000
   -0.6041   -1.7389   -1.0442 P   0  0  0  0  0  0  0  0  0  0  0  0
    0.4953   -3.0537   -0.3511 C   0  0  0  0  0  0  0  0  0  0  0  0
    0.0515   -1.6461   -2.8103 C   0  0  0  0  0  0  0  0  0  0  0  0
   -0.8894   -0.9323   -3.7875 C   0  0  0  0  0  0  0  0  0  0  0  0
    1.4592   -1.0443   -2.8609 C   0  0  0  0  0  0  0  0  0  0  0  0
   -2.2319   -2.6752   -1.2480 C   0  0  0  0  0  0  0  0  0  0  0  0
   -2.7610   -3.1342    0.1149 C   0  0  0  0  0  0  0  0  0  0  0  0
   -2.1802   -3.8443   -2.2399 C   0  0  0  0  0  0  0  0  0  0  0  0
    0.3638   -4.0128   -0.8883 H   0  0  0  0  0  0  0  0  0  0  0  0
    1.5488   -2.7314   -0.4450 H   0  0  0  0  0  0  0  0  0  0  0  0
    0.2504   -3.1637    0.7226 H   0  0  0  0  0  0  0  0  0  0  0  0
    0.1223   -2.7159   -3.1068 H   0  0  0  0  0  0  0  0  0  0  0  0
   -0.9678    0.1477   -3.5603 H   0  0  0  0  0  0  0  0  0  0  0  0
   -0.4875   -1.0198   -4.8186 H   0  0  0  0  0  0  0  0  0  0  0  0
   -1.9100   -1.3613   -3.7949 H   0  0  0  0  0  0  0  0  0  0  0  0
    2.1716   -1.5681   -2.1946 H   0  0  0  0  0  0  0  0  0  0  0  0
    1.8601   -1.1111   -3.8935 H   0  0  0  0  0  0  0  0  0  0  0  0
    1.4578    0.0236   -2.5751 H   0  0  0  0  0  0  0  0  0  0  0  0
   -2.9208   -1.9066   -1.6527 H   0  0  0  0  0  0  0  0  0  0  0  0
   -3.8104   -3.4828    0.0193 H   0  0  0  0  0  0  0  0  0  0  0  0
   -2.1635   -3.9789    0.5135 H   0  0  0  0  0  0  0  0  0  0  0  0
   -2.7138   -2.3278    0.8688 H   0  0  0  0  0  0  0  0  0  0  0  0
   -3.1738   -4.3383   -2.2755 H   0  0  0  0  0  0  0  0  0  0  0  0
   -1.9316   -3.5329   -3.2724 H   0  0  0  0  0  0  0  0  0  0  0  0
   -1.4501   -4.6190   -1.9279 H   0  0  0  0  0  0  0  0  0  0  0  0
  1  2  1  0  0  0  0
  2 11  1  0  0  0  0
  3  1  1  0  0  0  0
  4 13  1  0  0  0  0
  4  3  1  0  0  0  0
  5  3  1  0  0  0  0
  5 18  1  0  0  0  0
  5 16  1  0  0  0  0
  6  1  1  0  0  0  0
  6  7  1  0  0  0  0
  7 21  1  0  0  0  0
  7 22  1  0  0  0  0
  8 25  1  0  0  0  0
  8  6  1  0  0  0  0
  9  2  1  0  0  0  0
 10  2  1  0  0  0  0
 12  3  1  0  0  0  0
 14  4  1  0  0  0  0
 15  4  1  0  0  0  0
 17  5  1  0  0  0  0
 19  6  1  0  0  0  0
 20  7  1  0  0  0  0
 23  8  1  0  0  0  0
 24  8  1  0  0  0  0
M  END
