1
q = 0.0, confidence = 0.998

 56 57  0  0  0  0  0  0  0  0999 V2000
    0.2040    0.0161    0.5118 P   0  0  0  0  0  2  0  0  0  0  0  0
    0.0069    0.0450    2.1496 C   0  0  0  0  0  2  0  0  0  0  0  0
    0.0103    0.0675    3.4494 C   0  0  0  0  0  3  0  0  0  0  0  0
    0.0426   -0.6709    4.7395 C   0  0  0  0  0  0  0  0  0  0  0  0
    0.0508    0.8498    4.7131 C   0  0  0  0  0  0  0  0  0  0  0  0
   -1.5523    0.0139   -0.1108 C   0  0  0  0  0  0  0  0  0  0  0  0
   -2.2426    1.2577   -0.2633 C   0  0  0  0  0  0  0  0  0  0  0  0
   -3.6504    1.2161   -0.3311 C   0  0  0  0  0  0  0  0  0  0  0  0
   -4.3836    0.0240   -0.2969 C   0  0  0  0  0  0  0  0  0  0  0  0
   -3.6569   -1.1774   -0.2925 C   0  0  0  0  0  0  0  0  0  0  0  0
   -2.2543   -1.2321   -0.2227 C   0  0  0  0  0  0  0  0  0  0  0  0
   -1.5445    2.6345   -0.4574 C   0  0  0  0  0  0  0  0  0  0  0  0
   -0.5619    2.5173   -1.6438 C   0  0  0  0  0  0  0  0  0  0  0  0
   -0.8124    3.1333    0.8118 C   0  0  0  0  0  0  0  0  0  0  0  0
   -2.5560    3.7399   -0.8328 C   0  0  0  0  0  0  0  0  0  0  0  0
   -5.9210   -0.0106   -0.3136 C   0  0  0  0  0  0  0  0  0  0  0  0
   -6.5345    1.4001   -0.3132 C   0  0  0  0  0  0  0  0  0  0  0  0
   -6.4183   -0.7605    0.9434 C   0  0  0  0  0  0  0  0  0  0  0  0
   -6.4013   -0.7525   -1.5819 C   0  0  0  0  0  0  0  0  0  0  0  0
   -1.5657   -2.6182   -0.3770 C   0  0  0  0  0  0  0  0  0  0  0  0
   -2.5863   -3.7284   -0.7105 C   0  0  0  0  0  0  0  0  0  0  0  0
   -0.5907   -2.5433   -1.5732 C   0  0  0  0  0  0  0  0  0  0  0  0
   -0.8278   -3.0812    0.9023 C   0  0  0  0  0  0  0  0  0  0  0  0
   -0.8801   -1.1881    5.0541 H   0  0  0  0  0  0  0  0  0  0  0  0
    0.9787   -1.1996    4.9882 H   0  0  0  0  0  0  0  0  0  0  0  0
   -0.8662    1.3875    5.0093 H   0  0  0  0  0  0  0  0  0  0  0  0
    0.9926    1.3766    4.9437 H   0  0  0  0  0  0  0  0  0  0  0  0
   -4.1944    2.1611   -0.4119 H   0  0  0  0  0  0  0  0  0  0  0  0
   -4.2154   -2.1188   -0.3454 H   0  0  0  0  0  0  0  0  0  0  0  0
   -1.1006    2.2556   -2.5764 H   0  0  0  0  0  0  0  0  0  0  0  0
    0.2050    1.7392   -1.4750 H   0  0  0  0  0  0  0  0  0  0  0  0
   -0.0284    3.4764   -1.8027 H   0  0  0  0  0  0  0  0  0  0  0  0
    0.0790    2.5323    1.0609 H   0  0  0  0  0  0  0  0  0  0  0  0
   -0.4739    4.1781    0.6569 H   0  0  0  0  0  0  0  0  0  0  0  0
   -1.4883    3.1139    1.6907 H   0  0  0  0  0  0  0  0  0  0  0  0
   -1.9988    4.6731   -1.0477 H   0  0  0  0  0  0  0  0  0  0  0  0
   -3.2638    3.9635   -0.0094 H   0  0  0  0  0  0  0  0  0  0  0  0
   -3.1402    3.4850   -1.7391 H   0  0  0  0  0  0  0  0  0  0  0  0
   -6.2317    1.9809    0.5814 H   0  0  0  0  0  0  0  0  0  0  0  0
   -6.2449    1.9778   -1.2142 H   0  0  0  0  0  0  0  0  0  0  0  0
   -7.6406    1.3284   -0.3067 H   0  0  0  0  0  0  0  0  0  0  0  0
   -6.0877   -0.2458    1.8681 H   0  0  0  0  0  0  0  0  0  0  0  0
   -6.0355   -1.7997    0.9804 H   0  0  0  0  0  0  0  0  0  0  0  0
   -7.5268   -0.8085    0.9522 H   0  0  0  0  0  0  0  0  0  0  0  0
   -6.0277   -1.7951   -1.6166 H   0  0  0  0  0  0  0  0  0  0  0  0
   -7.5099   -0.7913   -1.6107 H   0  0  0  0  0  0  0  0  0  0  0  0
   -6.0503   -0.2371   -2.4987 H   0  0  0  0  0  0  0  0  0  0  0  0
   -3.2911   -3.9191    0.1237 H   0  0  0  0  0  0  0  0  0  0  0  0
   -3.1734   -3.4996   -1.6219 H   0  0  0  0  0  0  0  0  0  0  0  0
   -2.0369   -4.6723   -0.8970 H   0  0  0  0  0  0  0  0  0  0  0  0
   -1.1346   -2.3072   -2.5096 H   0  0  0  0  0  0  0  0  0  0  0  0
   -0.0638   -3.5100   -1.7061 H   0  0  0  0  0  0  0  0  0  0  0  0
    0.1817   -1.7648   -1.4335 H   0  0  0  0  0  0  0  0  0  0  0  0
   -0.4941   -4.1315    0.7770 H   0  0  0  0  0  0  0  0  0  0  0  0
    0.0677   -2.4769    1.1277 H   0  0  0  0  0  0  0  0  0  0  0  0
   -1.4980   -3.0323    1.7843 H   0  0  0  0  0  0  0  0  0  0  0  0
  1  2  1  0  0  0  0
  2  3  1  0  0  0  0
  3  5  1  0  0  0  0
  3  4  1  0  0  0  0
  4 25  1  0  0  0  0
  4 24  1  0  0  0  0
  5  4  1  0  0  0  0
  5 27  1  0  0  0  0
  5 26  1  0  0  0  0
  6  1  1  0  0  0  0
  7  6  2  0  0  0  0
  8  9  2  0  0  0  0
  8  7  1  0  0  0  0
  9 10  1  0  0  0  0
 10 11  2  0  0  0  0
 11  6  1  0  0  0  0
 12  7  1  0  0  0  0
 12 14  1  0  0  0  0
 13 31  1  0  0  0  0
 13 12  1  0  0  0  0
 14 33  1  0  0  0  0
 14 35  1  0  0  0  0
 15 12  1  0  0  0  0
 15 37  1  0  0  0  0
 16 17  1  0  0  0  0
 16  9  1  0  0  0  0
 16 18  1  0  0  0  0
 17 41  1  0  0  0  0
 17 39  1  0  0  0  0
 18 44  1  0  0  0  0
 18 43  1  0  0  0  0
 18 42  1  0  0  0  0
 19 16  1  0  0  0  0
 20 11  1  0  0  0  0
 20 23  1  0  0  0  0
 21 20  1  0  0  0  0
 21 48  1  0  0  0  0
 22 53  1  0  0  0  0
 22 20  1  0  0  0  0
 23 55  1  0  0  0  0
 23 56  1  0  0  0  0
 28  8  1  0  0  0  0
 29 10  1  0  0  0  0
 30 13  1  0  0  0  0
 32 13  1  0  0  0  0
 34 14  1  0  0  0  0
 36 15  1  0  0  0  0
 38 15  1  0  0  0  0
 40 17  1  0  0  0  0
 45 19  1  0  0  0  0
 46 19  1  0  0  0  0
 47 19  1  0  0  0  0
 49 21  1  0  0  0  0
 50 21  1  0  0  0  0
 51 22  1  0  0  0  0
 52 22  1  0  0  0  0
 54 23  1  0  0  0  0
M  END
