1
 OpenBabel05122313063D

 62 65  0  0  1  0  0  0  0  0999 V2000
    0.0454    0.5928    0.0896 P   0  0  1  0  0  0  0  0  0  0  0  0
    2.5054    2.1742   -0.7958 P   0  0  1  0  0  0  0  0  0  0  0  0
    2.9160    0.9921    1.0808 P   0  0  2  0  0  0  0  0  0  0  0  0
    1.3611   -1.4699    1.8741 P   0  0  0  0  0  2  0  0  0  0  0  0
    1.3933   -0.7489   -1.0886 P   0  0  1  0  0  0  0  0  0  0  0  0
    2.8974    0.3322   -0.6771 C   0  0  1  0  0  0  0  0  0  0  0  0
    1.1705    0.4135    1.6195 C   0  0  2  0  0  0  0  0  0  0  0  0
    1.4616   -2.0188    0.2641 C   0  0  2  0  0  3  0  0  0  0  0  0
    0.6180    2.1190   -0.8530 C   0  0  2  0  0  0  0  0  0  0  0  0
    0.3988    1.7263   -1.8752 H   0  0  0  0  0  0  0  0  0  0  0  0
    4.2613   -0.0910   -1.3022 C   0  0  0  0  0  0  0  0  0  0  0  0
    4.7100   -1.4318   -0.7013 C   0  0  0  0  0  0  0  0  0  0  0  0
    4.7748   -1.3695    0.4041 H   0  0  0  0  0  0  0  0  0  0  0  0
    5.7062   -1.7197   -1.0947 H   0  0  0  0  0  0  0  0  0  0  0  0
    4.0026   -2.2432   -0.9524 H   0  0  0  0  0  0  0  0  0  0  0  0
    4.0973   -0.2171   -2.8282 C   0  0  0  0  0  0  0  0  0  0  0  0
    3.3538   -0.9951   -3.0960 H   0  0  0  0  0  0  0  0  0  0  0  0
    5.0634   -0.4857   -3.3018 H   0  0  0  0  0  0  0  0  0  0  0  0
    3.7545    0.7433   -3.2660 H   0  0  0  0  0  0  0  0  0  0  0  0
    5.3544    0.9570   -1.0043 C   0  0  0  0  0  0  0  0  0  0  0  0
    5.1098    1.9453   -1.4436 H   0  0  0  0  0  0  0  0  0  0  0  0
    6.3189    0.6219   -1.4369 H   0  0  0  0  0  0  0  0  0  0  0  0
    5.5011    1.0907    0.0876 H   0  0  0  0  0  0  0  0  0  0  0  0
    0.7507    1.0563    2.9968 C   0  0  0  0  0  0  0  0  0  0  0  0
    0.6502    2.5812    2.8786 C   0  0  0  0  0  0  0  0  0  0  0  0
    1.6159    3.0273    2.5658 H   0  0  0  0  0  0  0  0  0  0  0  0
    0.3713    3.0242    3.8558 H   0  0  0  0  0  0  0  0  0  0  0  0
   -0.1255    2.8747    2.1474 H   0  0  0  0  0  0  0  0  0  0  0  0
   -0.6084    0.5002    3.4566 C   0  0  0  0  0  0  0  0  0  0  0  0
   -1.4118    0.7474    2.7379 H   0  0  0  0  0  0  0  0  0  0  0  0
   -0.8824    0.9374    4.4379 H   0  0  0  0  0  0  0  0  0  0  0  0
   -0.5834   -0.6023    3.5722 H   0  0  0  0  0  0  0  0  0  0  0  0
    1.8076    0.7269    4.0765 C   0  0  0  0  0  0  0  0  0  0  0  0
    1.9082   -0.3652    4.2380 H   0  0  0  0  0  0  0  0  0  0  0  0
    1.5036    1.1846    5.0397 H   0  0  0  0  0  0  0  0  0  0  0  0
    2.8067    1.1265    3.8089 H   0  0  0  0  0  0  0  0  0  0  0  0
    1.5412   -3.5318   -0.0381 C   0  0  0  0  0  0  0  0  0  0  0  0
    0.2037   -4.1921    0.3839 C   0  0  0  0  0  0  0  0  0  0  0  0
    0.0152   -4.0521    1.4663 H   0  0  0  0  0  0  0  0  0  0  0  0
    0.2368   -5.2801    0.1691 H   0  0  0  0  0  0  0  0  0  0  0  0
   -0.6523   -3.7622   -0.1671 H   0  0  0  0  0  0  0  0  0  0  0  0
    2.6748   -4.1824    0.7902 C   0  0  0  0  0  0  0  0  0  0  0  0
    3.6635   -3.7553    0.5359 H   0  0  0  0  0  0  0  0  0  0  0  0
    2.7068   -5.2740    0.5953 H   0  0  0  0  0  0  0  0  0  0  0  0
    2.5095   -4.0348    1.8765 H   0  0  0  0  0  0  0  0  0  0  0  0
    1.7687   -3.8175   -1.5358 C   0  0  0  0  0  0  0  0  0  0  0  0
    0.9446   -3.4178   -2.1577 H   0  0  0  0  0  0  0  0  0  0  0  0
    1.8185   -4.9127   -1.7010 H   0  0  0  0  0  0  0  0  0  0  0  0
    2.7191   -3.3837   -1.9067 H   0  0  0  0  0  0  0  0  0  0  0  0
   -0.0071    3.5740   -0.8147 C   0  0  0  0  0  0  0  0  0  0  0  0
   -1.4244    3.6016   -0.2233 C   0  0  0  0  0  0  0  0  0  0  0  0
   -2.1245    2.9599   -0.7847 H   0  0  0  0  0  0  0  0  0  0  0  0
   -1.8200    4.6369   -0.2575 H   0  0  0  0  0  0  0  0  0  0  0  0
   -1.4457    3.2756    0.8342 H   0  0  0  0  0  0  0  0  0  0  0  0
   -0.0748    4.0485   -2.2839 C   0  0  0  0  0  0  0  0  0  0  0  0
    0.9298    4.0264   -2.7557 H   0  0  0  0  0  0  0  0  0  0  0  0
   -0.4490    5.0910   -2.3382 H   0  0  0  0  0  0  0  0  0  0  0  0
   -0.7556    3.4096   -2.8821 H   0  0  0  0  0  0  0  0  0  0  0  0
    0.8661    4.5841   -0.0389 C   0  0  0  0  0  0  0  0  0  0  0  0
    1.0179    4.2929    1.0146 H   0  0  0  0  0  0  0  0  0  0  0  0
    0.3713    5.5763   -0.0470 H   0  0  0  0  0  0  0  0  0  0  0  0
    1.8640    4.7101   -0.5051 H   0  0  0  0  0  0  0  0  0  0  0  0
  1  7  1  0  0  0  0
  2  6  1  0  0  0  0
  2  3  1  0  0  0  0
  3  7  1  0  0  0  0
  5  6  1  0  0  0  0
  5  1  1  0  0  0  0
  5  8  1  0  0  0  0
  6  3  1  0  0  0  0
  7  4  1  0  0  0  0
  7 24  1  0  0  0  0
  8  4  1  0  0  0  0
  9 50  1  0  0  0  0
  9  2  1  0  0  0  0
  9  1  1  0  0  0  0
 10  9  1  0  0  0  0
 11 20  1  0  0  0  0
 11 12  1  0  0  0  0
 11  6  1  0  0  0  0
 12 13  1  0  0  0  0
 14 12  1  0  0  0  0
 15 12  1  0  0  0  0
 16 11  1  0  0  0  0
 17 16  1  0  0  0  0
 18 16  1  0  0  0  0
 19 16  1  0  0  0  0
 20 23  1  0  0  0  0
 21 20  1  0  0  0  0
 22 20  1  0  0  0  0
 24 29  1  0  0  0  0
 24 33  1  0  0  0  0
 25 24  1  0  0  0  0
 25 27  1  0  0  0  0
 26 25  1  0  0  0  0
 28 25  1  0  0  0  0
 29 32  1  0  0  0  0
 29 31  1  0  0  0  0
 30 29  1  0  0  0  0
 33 34  1  0  0  0  0
 33 35  1  0  0  0  0
 36 33  1  0  0  0  0
 37  8  1  0  0  0  0
 37 38  1  0  0  0  0
 37 42  1  0  0  0  0
 38 39  1  0  0  0  0
 40 38  1  0  0  0  0
 41 38  1  0  0  0  0
 42 45  1  0  0  0  0
 43 42  1  0  0  0  0
 44 42  1  0  0  0  0
 46 37  1  0  0  0  0
 47 46  1  0  0  0  0
 48 46  1  0  0  0  0
 49 46  1  0  0  0  0
 50 51  1  0  0  0  0
 50 59  1  0  0  0  0
 51 54  1  0  0  0  0
 52 51  1  0  0  0  0
 53 51  1  0  0  0  0
 55 50  1  0  0  0  0
 56 55  1  0  0  0  0
 57 55  1  0  0  0  0
 58 55  1  0  0  0  0
 59 60  1  0  0  0  0
 61 59  1  0  0  0  0
 62 59  1  0  0  0  0
M  END
