3
 OpenBabel05122313063D

 17 17  0  0  0  0  0  0  0  0999 V2000
   -1.2635    2.9803   -0.0579 S   0  0  0  0  0  0  0  0  0  0  0  0
    0.0285    3.1019   -0.4725 H   0  0  0  0  0  0  0  0  0  0  0  0
   -1.1844    0.8362   -0.0350 P   0  0  1  0  0  0  0  0  0  0  0  0
   -2.3553    0.3888    1.2753 C   0  0  0  0  0  0  0  0  0  0  0  0
   -2.1643    0.5604    2.3430 H   0  0  0  0  0  0  0  0  0  0  0  0
   -3.4174   -0.2856    0.7489 C   0  0  0  0  0  0  0  0  0  0  0  0
   -4.5204   -0.9119    1.5475 C   0  0  0  0  0  0  0  0  0  0  0  0
   -4.3858   -0.7402    2.6314 H   0  0  0  0  0  0  0  0  0  0  0  0
   -4.5655   -2.0080    1.3739 H   0  0  0  0  0  0  0  0  0  0  0  0
   -5.5105   -0.5065    1.2504 H   0  0  0  0  0  0  0  0  0  0  0  0
   -4.4742   -1.0999   -1.4941 C   0  0  0  0  0  0  0  0  0  0  0  0
   -5.4730   -0.6653   -1.2780 H   0  0  0  0  0  0  0  0  0  0  0  0
   -4.5240   -2.1673   -1.1910 H   0  0  0  0  0  0  0  0  0  0  0  0
   -4.3074   -1.0598   -2.5863 H   0  0  0  0  0  0  0  0  0  0  0  0
   -3.3955   -0.3765   -0.7455 C   0  0  0  0  0  0  0  0  0  0  0  0
   -2.3190    0.2356   -1.3168 C   0  0  0  0  0  0  0  0  0  0  0  0
   -2.0961    0.2757   -2.3914 H   0  0  0  0  0  0  0  0  0  0  0  0
  2  1  1  0  0  0  0
  3  1  1  6  0  0  0
  3  4  1  0  0  0  0
  4  5  1  0  0  0  0
  6  4  2  0  0  0  0
  6  7  1  0  0  0  0
  7  8  1  0  0  0  0
  9  7  1  0  0  0  0
 10  7  1  0  0  0  0
 11 12  1  0  0  0  0
 11 13  1  0  0  0  0
 11 15  1  0  0  0  0
 14 11  1  0  0  0  0
 15  6  1  0  0  0  0
 16 15  2  0  0  0  0
 16  3  1  0  0  0  0
 17 16  1  0  0  0  0
M  END
