1
 OpenBabel05122313063D

 76 79  0  0  0  0  0  0  0  0999 V2000
    0.3405    0.4538    0.6265 P   0  0  0  0  0  0  0  0  0  0  0  0
    1.2903   -0.9643   -0.0565 C   0  0  0  0  0  0  0  0  0  0  0  0
    1.5633   -1.0022   -1.4362 C   0  0  0  0  0  0  0  0  0  0  0  0
    1.2058   -0.2014   -2.1002 H   0  0  0  0  0  0  0  0  0  0  0  0
    2.2927   -2.0730   -1.9750 C   0  0  0  0  0  0  0  0  0  0  0  0
    2.7364   -3.1190   -1.1511 C   0  0  0  0  0  0  0  0  0  0  0  0
    3.2989   -3.9602   -1.5806 H   0  0  0  0  0  0  0  0  0  0  0  0
    2.4489   -3.0832    0.2222 C   0  0  0  0  0  0  0  0  0  0  0  0
    1.7328   -2.0094    0.7717 C   0  0  0  0  0  0  0  0  0  0  0  0
    1.5164   -1.9915    1.8488 H   0  0  0  0  0  0  0  0  0  0  0  0
    2.5155   -2.1644   -3.4680 C   0  0  0  0  0  0  0  0  0  0  0  0
    1.4872    1.8638    0.2917 C   0  0  0  0  0  0  0  0  0  0  0  0
    0.9374    3.1591    0.2396 C   0  0  0  0  0  0  0  0  0  0  0  0
   -0.1473    3.3030    0.3698 H   0  0  0  0  0  0  0  0  0  0  0  0
    1.7654    4.2677    0.0123 C   0  0  0  0  0  0  0  0  0  0  0  0
    3.1477    4.0970   -0.1659 C   0  0  0  0  0  0  0  0  0  0  0  0
    3.7952    4.9661   -0.3452 H   0  0  0  0  0  0  0  0  0  0  0  0
    3.6943    2.8069   -0.1196 C   0  0  0  0  0  0  0  0  0  0  0  0
    2.8702    1.6914    0.1031 C   0  0  0  0  0  0  0  0  0  0  0  0
    3.3168    0.6868    0.1241 H   0  0  0  0  0  0  0  0  0  0  0  0
    5.1893    2.6039   -0.2423 C   0  0  0  0  0  0  0  0  0  0  0  0
    0.4316    0.2411    2.4506 C   0  0  0  0  0  0  0  0  0  0  0  0
    1.5359    0.7708    3.1545 C   0  0  0  0  0  0  0  0  0  0  0  0
    2.3502    1.2634    2.6044 H   0  0  0  0  0  0  0  0  0  0  0  0
    1.6051    0.6995    4.5500 C   0  0  0  0  0  0  0  0  0  0  0  0
    2.4750    1.1171    5.0779 H   0  0  0  0  0  0  0  0  0  0  0  0
    0.5500    0.1090    5.2624 C   0  0  0  0  0  0  0  0  0  0  0  0
    0.5839    0.0547    6.3609 H   0  0  0  0  0  0  0  0  0  0  0  0
   -0.5502   -0.4141    4.5763 C   0  0  0  0  0  0  0  0  0  0  0  0
   -1.3667   -0.8805    5.1451 H   0  0  0  0  0  0  0  0  0  0  0  0
   -0.6322   -0.3870    3.1635 C   0  0  0  0  0  0  0  0  0  0  0  0
   -1.8161   -1.0105    2.5114 C   0  0  0  0  0  0  0  0  0  0  0  0
   -1.7138   -1.7886    1.4325 C   0  0  0  0  0  0  0  0  0  0  0  0
   -1.7888   -2.6790    0.4501 C   0  0  0  0  0  0  0  0  0  0  0  0
   -1.8017   -4.1978    0.7711 C   0  0  0  0  0  0  0  0  0  0  0  0
   -2.0740   -2.1941   -0.9407 C   0  0  0  0  0  0  0  0  0  0  0  0
   -1.2216   -2.4595   -2.0352 C   0  0  0  0  0  0  0  0  0  0  0  0
   -0.3102   -3.0508   -1.8905 H   0  0  0  0  0  0  0  0  0  0  0  0
   -1.5143   -1.9511   -3.3102 C   0  0  0  0  0  0  0  0  0  0  0  0
   -0.8249   -2.1592   -4.1417 H   0  0  0  0  0  0  0  0  0  0  0  0
   -2.6674   -1.1781   -3.5197 C   0  0  0  0  0  0  0  0  0  0  0  0
   -2.8925   -0.7794   -4.5202 H   0  0  0  0  0  0  0  0  0  0  0  0
   -3.5319   -0.9150   -2.4464 C   0  0  0  0  0  0  0  0  0  0  0  0
   -4.4347   -0.3044   -2.5897 H   0  0  0  0  0  0  0  0  0  0  0  0
   -3.2350   -1.4144   -1.1665 C   0  0  0  0  0  0  0  0  0  0  0  0
   -3.9171   -1.2051   -0.3288 H   0  0  0  0  0  0  0  0  0  0  0  0
    2.9485   -4.2050    1.1063 C   0  0  0  0  0  0  0  0  0  0  0  0
    1.1581    5.6507   -0.1098 C   0  0  0  0  0  0  0  0  0  0  0  0
   -3.1771   -0.7906    3.1482 C   0  0  0  0  0  0  0  0  0  0  0  0
   -3.3797    0.2913    3.2727 H   0  0  0  0  0  0  0  0  0  0  0  0
   -3.2357   -1.2754    4.1456 H   0  0  0  0  0  0  0  0  0  0  0  0
   -3.9781   -1.2035    2.5108 H   0  0  0  0  0  0  0  0  0  0  0  0
   -3.2713   -4.6542    0.6230 C   0  0  0  0  0  0  0  0  0  0  0  0
   -3.3562   -5.7428    0.8204 H   0  0  0  0  0  0  0  0  0  0  0  0
   -3.6519   -4.4595   -0.3996 H   0  0  0  0  0  0  0  0  0  0  0  0
   -3.9263   -4.1188    1.3394 H   0  0  0  0  0  0  0  0  0  0  0  0
   -1.3264   -4.4529    2.2110 C   0  0  0  0  0  0  0  0  0  0  0  0
   -1.3901   -5.5353    2.4422 H   0  0  0  0  0  0  0  0  0  0  0  0
   -1.9477   -3.9095    2.9494 H   0  0  0  0  0  0  0  0  0  0  0  0
   -0.2732   -4.1380    2.3506 H   0  0  0  0  0  0  0  0  0  0  0  0
   -0.9247   -5.0178   -0.1947 C   0  0  0  0  0  0  0  0  0  0  0  0
   -0.9460   -6.0836    0.1114 H   0  0  0  0  0  0  0  0  0  0  0  0
    0.1330   -4.6909   -0.1765 H   0  0  0  0  0  0  0  0  0  0  0  0
   -1.2923   -4.9655   -1.2368 H   0  0  0  0  0  0  0  0  0  0  0  0
    2.4194   -0.9601   -4.0693 F   0  0  0  0  0  0  0  0  0  0  0  0
    3.7269   -2.6854   -3.7604 F   0  0  0  0  0  0  0  0  0  0  0  0
    1.5855   -2.9781   -4.0421 F   0  0  0  0  0  0  0  0  0  0  0  0
    5.4777    1.4681   -0.9195 F   0  0  0  0  0  0  0  0  0  0  0  0
    5.7877    3.6331   -0.8793 F   0  0  0  0  0  0  0  0  0  0  0  0
    5.7616    2.4948    0.9824 F   0  0  0  0  0  0  0  0  0  0  0  0
    0.0247    5.7600    0.6161 F   0  0  0  0  0  0  0  0  0  0  0  0
    0.8476    5.9300   -1.3967 F   0  0  0  0  0  0  0  0  0  0  0  0
    2.0195    6.6048    0.3139 F   0  0  0  0  0  0  0  0  0  0  0  0
    4.2916   -4.1512    1.2581 F   0  0  0  0  0  0  0  0  0  0  0  0
    2.6556   -5.4151    0.5699 F   0  0  0  0  0  0  0  0  0  0  0  0
    2.3965   -4.1591    2.3419 F   0  0  0  0  0  0  0  0  0  0  0  0
  1 22  1  0  0  0  0
  2  1  1  0  0  0  0
  2  9  1  0  0  0  0
  3  2  2  0  0  0  0
  4  3  1  0  0  0  0
  5  3  1  0  0  0  0
  5  6  2  0  0  0  0
  6  8  1  0  0  0  0
  7  6  1  0  0  0  0
  8  9  2  0  0  0  0
  8 47  1  0  0  0  0
  9 10  1  0  0  0  0
 11  5  1  0  0  0  0
 12  1  1  0  0  0  0
 13 12  1  0  0  0  0
 13 14  1  0  0  0  0
 15 13  2  0  0  0  0
 16 18  2  0  0  0  0
 16 15  1  0  0  0  0
 17 16  1  0  0  0  0
 18 19  1  0  0  0  0
 19 20  1  0  0  0  0
 19 12  2  0  0  0  0
 21 18  1  0  0  0  0
 21 70  1  0  0  0  0
 22 23  2  0  0  0  0
 22 31  1  0  0  0  0
 23 25  1  0  0  0  0
 24 23  1  0  0  0  0
 25 26  1  0  0  0  0
 25 27  2  0  0  0  0
 27 28  1  0  0  0  0
 29 30  1  0  0  0  0
 29 27  1  0  0  0  0
 31 29  2  0  0  0  0
 32 49  1  0  0  0  0
 32 31  1  0  0  0  0
 33 32  2  0  0  0  0
 34 35  1  0  0  0  0
 34 33  2  0  0  0  0
 35 57  1  0  0  0  0
 36 34  1  0  0  0  0
 37 38  1  0  0  0  0
 37 36  2  0  0  0  0
 39 37  1  0  0  0  0
 40 39  1  0  0  0  0
 41 39  2  0  0  0  0
 41 43  1  0  0  0  0
 42 41  1  0  0  0  0
 43 45  2  0  0  0  0
 44 43  1  0  0  0  0
 45 36  1  0  0  0  0
 45 46  1  0  0  0  0
 47 74  1  0  0  0  0
 47 76  1  0  0  0  0
 48 15  1  0  0  0  0
 48 73  1  0  0  0  0
 48 71  1  0  0  0  0
 49 50  1  0  0  0  0
 49 51  1  0  0  0  0
 52 49  1  0  0  0  0
 53 35  1  0  0  0  0
 53 54  1  0  0  0  0
 53 56  1  0  0  0  0
 55 53  1  0  0  0  0
 57 60  1  0  0  0  0
 57 58  1  0  0  0  0
 57 59  1  0  0  0  0
 61 63  1  0  0  0  0
 61 62  1  0  0  0  0
 61 35  1  0  0  0  0
 64 61  1  0  0  0  0
 65 11  1  0  0  0  0
 66 11  1  0  0  0  0
 67 11  1  0  0  0  0
 68 21  1  0  0  0  0
 69 21  1  0  0  0  0
 72 48  1  0  0  0  0
 75 47  1  0  0  0  0
M  END
