1
 OpenBabel05122313063D

 45 45  0  0  1  0  0  0  0  0999 V2000
   -0.2101    0.9183   -0.4708 P   0  0  0  0  0  2  0  0  0  0  0  0
   -3.0763   -0.6453    1.6331 O   0  0  0  0  0  0  0  0  0  0  0  0
   -2.7367    1.7306   -0.2417 O   0  0  0  0  0  0  0  0  0  0  0  0
    0.5818    3.5965   -1.0075 N   0  0  0  0  0  0  0  0  0  0  0  0
    0.8155    2.7839    1.2516 N   0  0  0  0  0  0  0  0  0  0  0  0
   -1.9131    0.6792   -0.4532 C   0  0  2  0  0  3  0  0  0  0  0  0
   -2.4781   -0.6790   -0.6444 C   0  0  0  0  0  0  0  0  0  0  0  0
   -2.4128   -1.3401   -1.8840 C   0  0  0  0  0  0  0  0  0  0  0  0
   -1.9533   -0.8119   -2.7325 H   0  0  0  0  0  0  0  0  0  0  0  0
   -2.9032   -2.6459   -2.0332 C   0  0  0  0  0  0  0  0  0  0  0  0
   -2.8352   -3.1516   -3.0066 H   0  0  0  0  0  0  0  0  0  0  0  0
   -3.4508   -3.3047   -0.9251 C   0  0  0  0  0  0  0  0  0  0  0  0
   -3.8252   -4.3347   -1.0251 H   0  0  0  0  0  0  0  0  0  0  0  0
   -3.5215   -2.6712    0.3272 C   0  0  0  0  0  0  0  0  0  0  0  0
   -3.9402   -3.2106    1.1869 H   0  0  0  0  0  0  0  0  0  0  0  0
   -3.0460   -1.3559    0.4720 C   0  0  0  0  0  0  0  0  0  0  0  0
   -3.4922   -1.3012    2.8212 C   0  0  0  0  0  0  0  0  0  0  0  0
   -3.3936   -0.5581    3.6334 H   0  0  0  0  0  0  0  0  0  0  0  0
   -2.8412   -2.1718    3.0467 H   0  0  0  0  0  0  0  0  0  0  0  0
   -4.5522   -1.6334    2.7582 H   0  0  0  0  0  0  0  0  0  0  0  0
   -4.1614    1.5816   -0.4060 C   0  0  0  0  0  0  0  0  0  0  0  0
   -4.5493    0.9444    0.4163 H   0  0  0  0  0  0  0  0  0  0  0  0
   -4.3692    1.0655   -1.3675 H   0  0  0  0  0  0  0  0  0  0  0  0
   -4.7700    2.9684   -0.3698 C   0  0  0  0  0  0  0  0  0  0  0  0
   -5.8706    2.9018   -0.4781 H   0  0  0  0  0  0  0  0  0  0  0  0
   -4.3766    3.5973   -1.1931 H   0  0  0  0  0  0  0  0  0  0  0  0
   -4.5461    3.4728    0.5910 H   0  0  0  0  0  0  0  0  0  0  0  0
    0.0175    2.7923    0.0384 C   0  0  0  0  0  0  0  0  0  0  0  0
   -1.0234    3.1548    0.2160 H   0  0  0  0  0  0  0  0  0  0  0  0
   -0.3794    4.0017   -2.0134 C   0  0  0  0  0  0  0  0  0  0  0  0
   -1.2590    4.4781   -1.5361 H   0  0  0  0  0  0  0  0  0  0  0  0
   -0.7465    3.1441   -2.6375 H   0  0  0  0  0  0  0  0  0  0  0  0
    0.0871    4.7395   -2.6972 H   0  0  0  0  0  0  0  0  0  0  0  0
    1.8270    3.1093   -1.5821 C   0  0  0  0  0  0  0  0  0  0  0  0
    2.4830    2.7147   -0.7830 H   0  0  0  0  0  0  0  0  0  0  0  0
    2.3564    3.9379   -2.0965 H   0  0  0  0  0  0  0  0  0  0  0  0
    1.6664    2.2919   -2.3277 H   0  0  0  0  0  0  0  0  0  0  0  0
    0.1031    2.2206    2.3842 C   0  0  0  0  0  0  0  0  0  0  0  0
   -0.3606    1.2525    2.1074 H   0  0  0  0  0  0  0  0  0  0  0  0
   -0.7127    2.8948    2.7564 H   0  0  0  0  0  0  0  0  0  0  0  0
    0.8088    2.0364    3.2187 H   0  0  0  0  0  0  0  0  0  0  0  0
    1.4734    4.0332    1.6014 C   0  0  0  0  0  0  0  0  0  0  0  0
    2.0060    4.4554    0.7321 H   0  0  0  0  0  0  0  0  0  0  0  0
    2.2088    3.8321    2.4069 H   0  0  0  0  0  0  0  0  0  0  0  0
    0.7568    4.8130    1.9698 H   0  0  0  0  0  0  0  0  0  0  0  0
  1 28  1  0  0  0  0
  2 17  1  0  0  0  0
  4 28  1  0  0  0  0
  5 42  1  0  0  0  0
  5 38  1  0  0  0  0
  6  1  1  1  0  0  0
  6  3  1  0  0  0  0
  7  6  1  0  0  0  0
  7 16  1  0  0  0  0
  8  7  2  0  0  0  0
  9  8  1  0  0  0  0
 10  8  1  0  0  0  0
 10 12  2  0  0  0  0
 11 10  1  0  0  0  0
 12 14  1  0  0  0  0
 13 12  1  0  0  0  0
 14 16  2  0  0  0  0
 14 15  1  0  0  0  0
 16  2  1  0  0  0  0
 17 19  1  0  0  0  0
 17 18  1  0  0  0  0
 20 17  1  0  0  0  0
 21 24  1  0  0  0  0
 21  3  1  0  0  0  0
 21 22  1  0  0  0  0
 23 21  1  0  0  0  0
 24 27  1  0  0  0  0
 25 24  1  0  0  0  0
 26 24  1  0  0  0  0
 28 29  1  0  0  0  0
 28  5  1  0  0  0  0
 30 31  1  0  0  0  0
 30  4  1  0  0  0  0
 32 30  1  0  0  0  0
 33 30  1  0  0  0  0
 34  4  1  0  0  0  0
 34 35  1  0  0  0  0
 36 34  1  0  0  0  0
 37 34  1  0  0  0  0
 38 40  1  0  0  0  0
 38 41  1  0  0  0  0
 39 38  1  0  0  0  0
 42 45  1  0  0  0  0
 42 44  1  0  0  0  0
 43 42  1  0  0  0  0
M  END
