1
 OpenBabel05122313063D

 76 83  0  0  1  0  0  0  0  0999 V2000
   -0.2862    0.3438   -0.2625 P   0  0  2  0  0  0  0  0  0  0  0  0
   -1.0081    1.7873    0.2463 N   0  0  0  0  0  0  0  0  0  0  0  0
    0.6929    0.0946    1.0662 O   0  0  0  0  0  0  0  0  0  0  0  0
    0.7920    0.7374   -1.4898 O   0  0  0  0  0  0  0  0  0  0  0  0
    1.3674   -1.1312    0.9816 C   0  0  0  0  0  0  0  0  0  0  0  0
    0.7386   -2.3067    1.4189 C   0  0  0  0  0  0  0  0  0  0  0  0
   -0.2227   -2.2341    1.9483 H   0  0  0  0  0  0  0  0  0  0  0  0
    1.3266   -3.5470    1.1181 C   0  0  0  0  0  0  0  0  0  0  0  0
    0.8315   -4.4717    1.4490 H   0  0  0  0  0  0  0  0  0  0  0  0
    2.4874   -3.6113    0.3293 C   0  0  0  0  0  0  0  0  0  0  0  0
    2.8928   -4.5862    0.0183 H   0  0  0  0  0  0  0  0  0  0  0  0
    3.1029   -2.4217   -0.0885 C   0  0  0  0  0  0  0  0  0  0  0  0
    2.5887   -1.1676    0.2969 C   0  0  0  0  0  0  0  0  0  0  0  0
    3.5101   -0.0299   -0.1011 C   0  0  2  0  0  0  0  0  0  0  0  0
    4.3410   -0.7039   -1.2731 C   0  0  2  0  0  0  0  0  0  0  0  0
    3.8040   -0.4704   -2.2154 H   0  0  0  0  0  0  0  0  0  0  0  0
    4.2646   -2.2393   -1.0313 C   0  0  0  0  0  0  0  0  0  0  0  0
    4.0978   -2.7908   -1.9800 H   0  0  0  0  0  0  0  0  0  0  0  0
    5.2081   -2.6434   -0.6073 H   0  0  0  0  0  0  0  0  0  0  0  0
    5.7752   -0.1778   -1.3583 C   0  0  0  0  0  0  0  0  0  0  0  0
    5.7380    0.9143   -1.5528 H   0  0  0  0  0  0  0  0  0  0  0  0
    6.2824   -0.6192   -2.2413 H   0  0  0  0  0  0  0  0  0  0  0  0
    6.5866   -0.4756   -0.0747 C   0  0  0  0  0  0  0  0  0  0  0  0
    7.3757    0.2958    0.0424 H   0  0  0  0  0  0  0  0  0  0  0  0
    7.1354   -1.4342   -0.1800 H   0  0  0  0  0  0  0  0  0  0  0  0
    5.7035   -0.5379    1.1942 C   0  0  0  0  0  0  0  0  0  0  0  0
    5.3579   -1.5757    1.3799 H   0  0  0  0  0  0  0  0  0  0  0  0
    6.2993   -0.2588    2.0881 H   0  0  0  0  0  0  0  0  0  0  0  0
    4.4766    0.3704    1.0926 C   0  0  1  0  0  0  0  0  0  0  0  0
    3.8775    0.2845    2.0228 H   0  0  0  0  0  0  0  0  0  0  0  0
    4.8384    1.8628    0.8768 C   0  0  0  0  0  0  0  0  0  0  0  0
    4.8297    2.4288    1.8319 H   0  0  0  0  0  0  0  0  0  0  0  0
    5.8595    1.9897    0.4589 H   0  0  0  0  0  0  0  0  0  0  0  0
    3.7892    2.3775   -0.0722 C   0  0  0  0  0  0  0  0  0  0  0  0
    2.9420    1.3293   -0.4980 C   0  0  0  0  0  0  0  0  0  0  0  0
    1.7942    1.6740   -1.2375 C   0  0  0  0  0  0  0  0  0  0  0  0
    1.6070    2.9895   -1.6921 C   0  0  0  0  0  0  0  0  0  0  0  0
    0.7300    3.2077   -2.3167 H   0  0  0  0  0  0  0  0  0  0  0  0
    2.5157    3.9979   -1.3388 C   0  0  0  0  0  0  0  0  0  0  0  0
    2.3578    5.0249   -1.7010 H   0  0  0  0  0  0  0  0  0  0  0  0
    3.5902    3.7024   -0.4859 C   0  0  0  0  0  0  0  0  0  0  0  0
    4.2690    4.4985   -0.1442 H   0  0  0  0  0  0  0  0  0  0  0  0
   -1.2694    2.0503    1.6892 C   0  0  1  0  0  0  0  0  0  0  0  0
   -2.1649    2.7071    1.6929 H   0  0  0  0  0  0  0  0  0  0  0  0
   -1.6927    0.7865    2.4485 C   0  0  0  0  0  0  0  0  0  0  0  0
   -1.0591    0.3750    3.6357 C   0  0  0  0  0  0  0  0  0  0  0  0
   -0.2380    0.9707    4.0571 H   0  0  0  0  0  0  0  0  0  0  0  0
   -1.4400   -0.8127    4.2800 C   0  0  0  0  0  0  0  0  0  0  0  0
   -0.9225   -1.1204    5.2016 H   0  0  0  0  0  0  0  0  0  0  0  0
   -2.4596   -1.6144    3.7440 C   0  0  0  0  0  0  0  0  0  0  0  0
   -2.7472   -2.5536    4.2404 H   0  0  0  0  0  0  0  0  0  0  0  0
   -3.1092   -1.2071    2.5679 C   0  0  0  0  0  0  0  0  0  0  0  0
   -3.9060   -1.8243    2.1268 H   0  0  0  0  0  0  0  0  0  0  0  0
   -2.7351   -0.0138    1.9336 C   0  0  0  0  0  0  0  0  0  0  0  0
   -3.2540    0.2883    1.0130 H   0  0  0  0  0  0  0  0  0  0  0  0
   -1.8010    2.5394   -0.7717 C   0  0  1  0  0  0  0  0  0  0  0  0
   -1.3785    2.2268   -1.7502 H   0  0  0  0  0  0  0  0  0  0  0  0
   -3.2713    2.1253   -0.7783 C   0  0  0  0  0  0  0  0  0  0  0  0
   -4.2281    2.7193    0.0705 C   0  0  0  0  0  0  0  0  0  0  0  0
   -3.9578    3.5871    0.6908 H   0  0  0  0  0  0  0  0  0  0  0  0
   -5.5367    2.2157    0.1398 C   0  0  0  0  0  0  0  0  0  0  0  0
   -6.2663    2.6867    0.8160 H   0  0  0  0  0  0  0  0  0  0  0  0
   -5.9121    1.1124   -0.6426 C   0  0  0  0  0  0  0  0  0  0  0  0
   -6.9332    0.7077   -0.5746 H   0  0  0  0  0  0  0  0  0  0  0  0
   -4.9808    0.5348   -1.5196 C   0  0  0  0  0  0  0  0  0  0  0  0
   -5.2544   -0.3323   -2.1388 H   0  0  0  0  0  0  0  0  0  0  0  0
   -3.6790    1.0504   -1.5947 C   0  0  0  0  0  0  0  0  0  0  0  0
   -2.9578    0.5927   -2.2899 H   0  0  0  0  0  0  0  0  0  0  0  0
   -0.1112    2.8293    2.3182 C   0  0  0  0  0  0  0  0  0  0  0  0
    0.8064    2.2121    2.3506 H   0  0  0  0  0  0  0  0  0  0  0  0
   -0.3623    3.1562    3.3470 H   0  0  0  0  0  0  0  0  0  0  0  0
    0.1087    3.7286    1.7131 H   0  0  0  0  0  0  0  0  0  0  0  0
   -1.5874    4.0492   -0.6331 C   0  0  0  0  0  0  0  0  0  0  0  0
   -1.9732    4.4375    0.3298 H   0  0  0  0  0  0  0  0  0  0  0  0
   -2.1257    4.5802   -1.4425 H   0  0  0  0  0  0  0  0  0  0  0  0
   -0.5113    4.2976   -0.6882 H   0  0  0  0  0  0  0  0  0  0  0  0
  1  2  1  1  0  0  0
  1  3  1  0  0  0  0
  2 43  1  0  0  0  0
  4 36  1  0  0  0  0
  4  1  1  0  0  0  0
  5  3  1  0  0  0  0
  5  6  1  0  0  0  0
  6  7  1  0  0  0  0
  8  6  2  0  0  0  0
  8  9  1  0  0  0  0
 10  8  1  0  0  0  0
 11 10  1  0  0  0  0
 12 13  1  0  0  0  0
 12 10  2  0  0  0  0
 13  5  2  0  0  0  0
 14 35  1  6  0  0  0
 14 13  1  0  0  0  0
 14 29  1  0  0  0  0
 15 16  1  6  0  0  0
 15 17  1  0  0  0  0
 15 14  1  0  0  0  0
 17 19  1  0  0  0  0
 17 12  1  0  0  0  0
 18 17  1  0  0  0  0
 20 15  1  0  0  0  0
 20 23  1  0  0  0  0
 21 20  1  0  0  0  0
 22 20  1  0  0  0  0
 23 24  1  0  0  0  0
 23 26  1  0  0  0  0
 25 23  1  0  0  0  0
 26 27  1  0  0  0  0
 26 28  1  0  0  0  0
 29 26  1  0  0  0  0
 29 30  1  1  0  0  0
 31 29  1  0  0  0  0
 31 32  1  0  0  0  0
 33 31  1  0  0  0  0
 34 31  1  0  0  0  0
 35 34  2  0  0  0  0
 36 35  1  0  0  0  0
 37 39  1  0  0  0  0
 37 36  2  0  0  0  0
 38 37  1  0  0  0  0
 39 41  2  0  0  0  0
 40 39  1  0  0  0  0
 41 42  1  0  0  0  0
 41 34  1  0  0  0  0
 43 44  1  1  0  0  0
 43 69  1  0  0  0  0
 43 45  1  0  0  0  0
 45 46  1  0  0  0  0
 46 47  1  0  0  0  0
 46 48  2  0  0  0  0
 48 49  1  0  0  0  0
 50 51  1  0  0  0  0
 50 48  1  0  0  0  0
 52 50  2  0  0  0  0
 53 52  1  0  0  0  0
 54 45  2  0  0  0  0
 54 52  1  0  0  0  0
 55 54  1  0  0  0  0
 56 57  1  6  0  0  0
 56 73  1  0  0  0  0
 56  2  1  0  0  0  0
 58 56  1  0  0  0  0
 58 59  1  0  0  0  0
 59 61  2  0  0  0  0
 59 60  1  0  0  0  0
 61 62  1  0  0  0  0
 63 64  1  0  0  0  0
 63 61  1  0  0  0  0
 65 63  2  0  0  0  0
 66 65  1  0  0  0  0
 67 65  1  0  0  0  0
 67 58  2  0  0  0  0
 68 67  1  0  0  0  0
 69 70  1  0  0  0  0
 69 71  1  0  0  0  0
 72 69  1  0  0  0  0
 73 74  1  0  0  0  0
 75 73  1  0  0  0  0
 76 73  1  0  0  0  0
M  END
