1
 OpenBabel05122313063D

 37 39  0  0  0  0  0  0  0  0999 V2000
   -1.3373    0.1364   -0.4391 P   0  0  0  0  0  0  0  0  0  0  0  0
   -2.1151    0.1079    1.2799 C   0  0  0  0  0  0  0  0  0  0  0  0
   -1.5767   -0.7012    1.8094 H   0  0  0  0  0  0  0  0  0  0  0  0
   -1.7855    1.0468    1.7655 H   0  0  0  0  0  0  0  0  0  0  0  0
   -3.5948   -0.0841    1.3645 C   0  0  0  0  0  0  0  0  0  0  0  0
   -4.1303   -1.3871    1.3749 C   0  0  0  0  0  0  0  0  0  0  0  0
   -5.5007   -1.6528    1.3932 C   0  0  0  0  0  0  0  0  0  0  0  0
   -5.8761   -2.6843    1.3942 H   0  0  0  0  0  0  0  0  0  0  0  0
   -6.3745   -0.5591    1.3949 C   0  0  0  0  0  0  0  0  0  0  0  0
   -5.9025    0.7600    1.3894 C   0  0  0  0  0  0  0  0  0  0  0  0
   -6.6206    1.5913    1.3976 H   0  0  0  0  0  0  0  0  0  0  0  0
   -4.5184    0.9811    1.3762 C   0  0  0  0  0  0  0  0  0  0  0  0
   -4.1377    2.0128    1.3604 H   0  0  0  0  0  0  0  0  0  0  0  0
   -1.7976    1.7760   -1.1323 C   0  0  0  0  0  0  0  0  0  0  0  0
   -1.9164    2.9314   -0.3338 C   0  0  0  0  0  0  0  0  0  0  0  0
   -1.8219    2.8676    0.7602 H   0  0  0  0  0  0  0  0  0  0  0  0
   -2.1320    4.1848   -0.9269 C   0  0  0  0  0  0  0  0  0  0  0  0
   -2.2218    5.0781   -0.2904 H   0  0  0  0  0  0  0  0  0  0  0  0
   -2.2264    4.2995   -2.3223 C   0  0  0  0  0  0  0  0  0  0  0  0
   -2.3994    5.2829   -2.7850 H   0  0  0  0  0  0  0  0  0  0  0  0
   -2.0874    3.1555   -3.1245 C   0  0  0  0  0  0  0  0  0  0  0  0
   -2.1431    3.2387   -4.2206 H   0  0  0  0  0  0  0  0  0  0  0  0
   -1.8666    1.9019   -2.5376 C   0  0  0  0  0  0  0  0  0  0  0  0
   -1.7215    1.0122   -3.1684 H   0  0  0  0  0  0  0  0  0  0  0  0
   -2.3686   -1.0005   -1.4628 C   0  0  0  0  0  0  0  0  0  0  0  0
   -1.7984   -2.1424   -2.0604 C   0  0  0  0  0  0  0  0  0  0  0  0
   -0.7152   -2.3100   -1.9875 H   0  0  0  0  0  0  0  0  0  0  0  0
   -2.5984   -3.0183   -2.8102 C   0  0  0  0  0  0  0  0  0  0  0  0
   -2.1398   -3.9034   -3.2765 H   0  0  0  0  0  0  0  0  0  0  0  0
   -3.9664   -2.7581   -2.9814 C   0  0  0  0  0  0  0  0  0  0  0  0
   -4.5910   -3.4476   -3.5700 H   0  0  0  0  0  0  0  0  0  0  0  0
   -4.5324   -1.6016   -2.4207 C   0  0  0  0  0  0  0  0  0  0  0  0
   -5.5994   -1.3770   -2.5699 H   0  0  0  0  0  0  0  0  0  0  0  0
   -3.7383   -0.7220   -1.6720 C   0  0  0  0  0  0  0  0  0  0  0  0
   -4.1863    0.1928   -1.2590 H   0  0  0  0  0  0  0  0  0  0  0  0
   -3.2748   -2.4343    1.3577 F   0  0  0  0  0  0  0  0  0  0  0  0
   -7.6989   -0.7875    1.4049 F   0  0  0  0  0  0  0  0  0  0  0  0
  1  2  1  0  0  0  0
  2  5  1  0  0  0  0
  2  4  1  0  0  0  0
  2  3  1  0  0  0  0
  5  6  2  0  0  0  0
  5 12  1  0  0  0  0
  6  7  1  0  0  0  0
  7  8  1  0  0  0  0
  7  9  2  0  0  0  0
  9 37  1  0  0  0  0
 10  9  1  0  0  0  0
 10 11  1  0  0  0  0
 12 10  2  0  0  0  0
 13 12  1  0  0  0  0
 14  1  1  0  0  0  0
 14 15  1  0  0  0  0
 15 16  1  0  0  0  0
 17 15  2  0  0  0  0
 17 18  1  0  0  0  0
 19 17  1  0  0  0  0
 20 19  1  0  0  0  0
 21 23  1  0  0  0  0
 21 19  2  0  0  0  0
 22 21  1  0  0  0  0
 23 14  2  0  0  0  0
 24 23  1  0  0  0  0
 25  1  1  0  0  0  0
 26 27  1  0  0  0  0
 26 25  2  0  0  0  0
 28 26  1  0  0  0  0
 29 28  1  0  0  0  0
 30 28  2  0  0  0  0
 30 32  1  0  0  0  0
 31 30  1  0  0  0  0
 32 34  2  0  0  0  0
 33 32  1  0  0  0  0
 34 25  1  0  0  0  0
 34 35  1  0  0  0  0
 36  6  1  0  0  0  0
M  END
