1
 OpenBabel05122313063D

 28 27  0  0  0  0  0  0  0  0999 V2000
   -0.3841   -2.6118   -0.1180 P   0  0  0  0  0  0  0  0  0  0  0  0
   -0.6206   -3.3515    1.5645 C   0  0  0  0  0  0  0  0  0  0  0  0
   -1.5590   -2.5383    2.4773 C   0  0  0  0  0  0  0  0  0  0  0  0
   -1.4115   -2.9943    3.9337 C   0  0  0  0  0  0  0  0  0  0  0  0
   -3.0183   -2.6110    2.0131 C   0  0  0  0  0  0  0  0  0  0  0  0
    0.8763   -3.7116   -0.9148 C   0  0  0  0  0  0  0  0  0  0  0  0
    1.3360   -3.2352   -2.3059 C   0  0  0  0  0  0  0  0  0  0  0  0
    2.5977   -3.9923   -2.7377 C   0  0  0  0  0  0  0  0  0  0  0  0
    0.2181   -3.3506   -3.3489 C   0  0  0  0  0  0  0  0  0  0  0  0
   -1.5858   -2.9779   -0.7991 H   0  0  0  0  0  0  0  0  0  0  0  0
   -0.9671   -4.4031    1.4596 H   0  0  0  0  0  0  0  0  0  0  0  0
    0.3979   -3.3860    2.0058 H   0  0  0  0  0  0  0  0  0  0  0  0
   -1.2369   -1.4747    2.4137 H   0  0  0  0  0  0  0  0  0  0  0  0
   -1.6920   -4.0628    4.0517 H   0  0  0  0  0  0  0  0  0  0  0  0
   -2.0672   -2.3999    4.6013 H   0  0  0  0  0  0  0  0  0  0  0  0
   -0.3682   -2.8761    4.2930 H   0  0  0  0  0  0  0  0  0  0  0  0
   -3.1358   -2.2877    0.9599 H   0  0  0  0  0  0  0  0  0  0  0  0
   -3.6580   -1.9460    2.6267 H   0  0  0  0  0  0  0  0  0  0  0  0
   -3.4139   -3.6455    2.1011 H   0  0  0  0  0  0  0  0  0  0  0  0
    1.7373   -3.7315   -0.2119 H   0  0  0  0  0  0  0  0  0  0  0  0
    0.4792   -4.7490   -0.9592 H   0  0  0  0  0  0  0  0  0  0  0  0
    1.5941   -2.1545   -2.2134 H   0  0  0  0  0  0  0  0  0  0  0  0
    3.4228   -3.8635   -2.0067 H   0  0  0  0  0  0  0  0  0  0  0  0
    2.9595   -3.6323   -3.7222 H   0  0  0  0  0  0  0  0  0  0  0  0
    2.3979   -5.0807   -2.8330 H   0  0  0  0  0  0  0  0  0  0  0  0
   -0.1245   -4.4028   -3.4480 H   0  0  0  0  0  0  0  0  0  0  0  0
    0.5753   -3.0194   -4.3445 H   0  0  0  0  0  0  0  0  0  0  0  0
   -0.6551   -2.7203   -3.0911 H   0  0  0  0  0  0  0  0  0  0  0  0
  1  2  1  0  0  0  0
  2 12  1  0  0  0  0
  2  3  1  0  0  0  0
  3  4  1  0  0  0  0
  4 14  1  0  0  0  0
  4 16  1  0  0  0  0
  4 15  1  0  0  0  0
  5 19  1  0  0  0  0
  5  3  1  0  0  0  0
  5 18  1  0  0  0  0
  6 20  1  0  0  0  0
  6  1  1  0  0  0  0
  7 22  1  0  0  0  0
  7  6  1  0  0  0  0
  8  7  1  0  0  0  0
  8 23  1  0  0  0  0
  9 28  1  0  0  0  0
  9  7  1  0  0  0  0
 10  1  1  0  0  0  0
 11  2  1  0  0  0  0
 13  3  1  0  0  0  0
 17  5  1  0  0  0  0
 21  6  1  0  0  0  0
 24  8  1  0  0  0  0
 25  8  1  0  0  0  0
 26  9  1  0  0  0  0
 27  9  1  0  0  0  0
M  END
