1
 OpenBabel05122313063D

 45 48  0  0  1  0  0  0  0  0999 V2000
   -0.9881    0.4814    0.3004 P   0  0  0  0  0  0  0  0  0  0  0  0
    3.9605    1.9732   -0.0137 N   0  0  0  0  0  0  0  0  0  0  0  0
    3.1812    2.2903    1.0333 C   0  0  0  0  0  0  0  0  0  0  0  0
    3.1443    3.3618    1.2978 H   0  0  0  0  0  0  0  0  0  0  0  0
    2.4294    1.4697    1.7922 N   0  0  0  0  0  2  0  0  0  0  0  0
    2.5353    0.1899    1.3907 C   0  0  0  0  0  0  0  0  0  0  0  0
    3.2820   -0.2950    0.2983 C   0  0  0  0  0  0  0  0  0  0  0  0
    4.0177    0.6855   -0.4208 C   0  0  1  0  0  3  0  0  0  0  0  0
    4.7460    0.3720   -1.5197 N   0  0  0  0  0  0  0  0  0  0  0  0
    5.3245    1.0933   -1.9466 H   0  0  0  0  0  0  0  0  0  0  0  0
    4.8541   -0.6053   -1.7844 H   0  0  0  0  0  0  0  0  0  0  0  0
    3.1226   -1.6586    0.1510 N   0  0  0  0  0  0  0  0  0  0  0  0
    2.3023   -1.9981    1.1306 C   0  0  0  0  0  0  0  0  0  0  0  0
    1.9270   -3.0125    1.3226 H   0  0  0  0  0  0  0  0  0  0  0  0
    1.9215   -0.9255    1.9321 N   0  0  0  0  0  0  0  0  0  0  0  0
    1.0628   -0.8929    3.1044 C   0  0  0  0  0  0  0  0  0  0  0  0
    1.5194   -0.1696    3.8111 H   0  0  0  0  0  0  0  0  0  0  0  0
    1.0738   -1.8895    3.5879 H   0  0  0  0  0  0  0  0  0  0  0  0
   -0.3857   -0.4689    2.7944 C   0  0  0  0  0  0  0  0  0  0  0  0
   -0.9247   -1.3105    2.3076 H   0  0  0  0  0  0  0  0  0  0  0  0
   -0.8996   -0.2801    3.7636 H   0  0  0  0  0  0  0  0  0  0  0  0
   -0.4701    0.6977    1.9218 N   0  0  0  0  0  0  0  0  0  0  0  0
    0.3286    1.3513    2.0179 H   0  0  0  0  0  0  0  0  0  0  0  0
   -0.0603    1.7587   -0.6214 C   0  0  0  0  0  0  0  0  0  0  0  0
    0.8962    1.3587   -1.5753 C   0  0  0  0  0  0  0  0  0  0  0  0
    1.0609    0.2854   -1.7612 H   0  0  0  0  0  0  0  0  0  0  0  0
    1.6340    2.3262   -2.2722 C   0  0  0  0  0  0  0  0  0  0  0  0
    2.3929    2.0067   -3.0012 H   0  0  0  0  0  0  0  0  0  0  0  0
    1.4214    3.6895   -2.0201 C   0  0  0  0  0  0  0  0  0  0  0  0
    2.0079    4.4464   -2.5621 H   0  0  0  0  0  0  0  0  0  0  0  0
    0.4626    4.0906   -1.0745 C   0  0  0  0  0  0  0  0  0  0  0  0
    0.2911    5.1605   -0.8818 H   0  0  0  0  0  0  0  0  0  0  0  0
   -0.2842    3.1300   -0.3787 C   0  0  0  0  0  0  0  0  0  0  0  0
   -1.0499    3.4447    0.3470 H   0  0  0  0  0  0  0  0  0  0  0  0
   -2.7233    1.0772    0.2768 C   0  0  0  0  0  0  0  0  0  0  0  0
   -3.2551    1.8059    1.3565 C   0  0  0  0  0  0  0  0  0  0  0  0
   -2.6214    1.9869    2.2388 H   0  0  0  0  0  0  0  0  0  0  0  0
   -4.5773    2.2738    1.2984 C   0  0  0  0  0  0  0  0  0  0  0  0
   -4.9949    2.8412    2.1442 H   0  0  0  0  0  0  0  0  0  0  0  0
   -5.3672    2.0137    0.1673 C   0  0  0  0  0  0  0  0  0  0  0  0
   -6.4050    2.3779    0.1254 H   0  0  0  0  0  0  0  0  0  0  0  0
   -4.8383    1.2775   -0.9069 C   0  0  0  0  0  0  0  0  0  0  0  0
   -5.4607    1.0626   -1.7886 H   0  0  0  0  0  0  0  0  0  0  0  0
   -3.5205    0.8037   -0.8525 C   0  0  0  0  0  0  0  0  0  0  0  0
   -3.1069    0.2088   -1.6833 H   0  0  0  0  0  0  0  0  0  0  0  0
  1 22  1  0  0  0  0
  2  3  2  0  0  0  0
  3  4  1  0  0  0  0
  3  5  1  0  0  0  0
  6  5  1  0  0  0  0
  6 15  1  0  0  0  0
  7  6  2  0  0  0  0
  8  9  1  6  0  0  0
  8  2  1  0  0  0  0
  8  7  1  0  0  0  0
 10  9  1  0  0  0  0
 11  9  1  0  0  0  0
 12  7  1  0  0  0  0
 12 13  2  0  0  0  0
 13 14  1  0  0  0  0
 13 15  1  0  0  0  0
 15 16  1  0  0  0  0
 16 18  1  0  0  0  0
 16 17  1  0  0  0  0
 19 16  1  0  0  0  0
 19 21  1  0  0  0  0
 20 19  1  0  0  0  0
 22 23  1  0  0  0  0
 22 19  1  0  0  0  0
 24 33  1  0  0  0  0
 24  1  1  0  0  0  0
 25 24  2  0  0  0  0
 26 25  1  0  0  0  0
 27 29  2  0  0  0  0
 27 25  1  0  0  0  0
 28 27  1  0  0  0  0
 29 31  1  0  0  0  0
 30 29  1  0  0  0  0
 31 32  1  0  0  0  0
 31 33  2  0  0  0  0
 33 34  1  0  0  0  0
 35  1  1  0  0  0  0
 35 36  1  0  0  0  0
 36 37  1  0  0  0  0
 38 36  2  0  0  0  0
 38 39  1  0  0  0  0
 40 38  1  0  0  0  0
 41 40  1  0  0  0  0
 42 44  1  0  0  0  0
 42 40  2  0  0  0  0
 43 42  1  0  0  0  0
 44 35  2  0  0  0  0
 45 44  1  0  0  0  0
M  END
