2
 OpenBabel05122313063D

 41 44  0  0  0  0  0  0  0  0999 V2000
    2.0269    0.6718    0.4531 S   0  0  0  0  0  0  0  0  0  0  0  0
   -1.0266   -0.5463   -0.0873 P   0  0  0  0  0  0  0  0  0  0  0  0
    0.3844   -1.3121   -0.6530 N   0  0  0  0  0  0  0  0  0  0  0  0
    2.7132   -1.4654   -0.8425 N   0  0  0  0  0  0  0  0  0  0  0  0
    2.6276   -2.3423   -1.3583 H   0  0  0  0  0  0  0  0  0  0  0  0
   -2.3383   -1.4257   -1.0024 C   0  0  0  0  0  0  0  0  0  0  0  0
   -2.0561   -2.5464   -1.8052 C   0  0  0  0  0  0  0  0  0  0  0  0
   -1.0135   -2.8829   -1.9014 H   0  0  0  0  0  0  0  0  0  0  0  0
   -3.1017   -3.2039   -2.4723 C   0  0  0  0  0  0  0  0  0  0  0  0
   -2.8819   -4.0788   -3.1031 H   0  0  0  0  0  0  0  0  0  0  0  0
   -4.4221   -2.7462   -2.3407 C   0  0  0  0  0  0  0  0  0  0  0  0
   -5.2388   -3.2625   -2.8679 H   0  0  0  0  0  0  0  0  0  0  0  0
   -4.7010   -1.6223   -1.5444 C   0  0  0  0  0  0  0  0  0  0  0  0
   -5.7339   -1.2551   -1.4486 H   0  0  0  0  0  0  0  0  0  0  0  0
   -3.6622   -0.9579   -0.8791 C   0  0  0  0  0  0  0  0  0  0  0  0
   -3.8728   -0.0653   -0.2681 H   0  0  0  0  0  0  0  0  0  0  0  0
   -1.1938   -1.1432    1.6423 C   0  0  0  0  0  0  0  0  0  0  0  0
   -1.0082   -0.2443    2.7105 C   0  0  0  0  0  0  0  0  0  0  0  0
   -0.8242    0.8208    2.4956 H   0  0  0  0  0  0  0  0  0  0  0  0
   -1.0701   -0.7079    4.0339 C   0  0  0  0  0  0  0  0  0  0  0  0
   -0.9282   -0.0023    4.8664 H   0  0  0  0  0  0  0  0  0  0  0  0
   -1.3175   -2.0647    4.2924 C   0  0  0  0  0  0  0  0  0  0  0  0
   -1.3702   -2.4260    5.3308 H   0  0  0  0  0  0  0  0  0  0  0  0
   -1.5048   -2.9629    3.2271 C   0  0  0  0  0  0  0  0  0  0  0  0
   -1.7052   -4.0258    3.4307 H   0  0  0  0  0  0  0  0  0  0  0  0
   -1.4429   -2.5065    1.9038 C   0  0  0  0  0  0  0  0  0  0  0  0
   -1.5970   -3.2063    1.0678 H   0  0  0  0  0  0  0  0  0  0  0  0
    1.5649   -0.8348   -0.4206 C   0  0  0  0  0  0  0  0  0  0  0  0
    3.9253   -0.8575   -0.5403 C   0  0  0  0  0  0  0  0  0  0  0  0
    3.7439    0.3420    0.1861 C   0  0  0  0  0  0  0  0  0  0  0  0
    5.2089   -1.3285   -0.8863 C   0  0  0  0  0  0  0  0  0  0  0  0
    6.2992   -0.5426   -0.4683 C   0  0  0  0  0  0  0  0  0  0  0  0
    7.3160   -0.8803   -0.7213 H   0  0  0  0  0  0  0  0  0  0  0  0
    6.1254    0.6520    0.2544 C   0  0  0  0  0  0  0  0  0  0  0  0
    7.0059    1.2356    0.5599 H   0  0  0  0  0  0  0  0  0  0  0  0
    4.8424    1.1110    0.5897 C   0  0  0  0  0  0  0  0  0  0  0  0
    4.6993    2.0459    1.1497 H   0  0  0  0  0  0  0  0  0  0  0  0
    5.3746   -2.6068   -1.6643 C   0  0  0  0  0  0  0  0  0  0  0  0
    6.4427   -2.8268   -1.8489 H   0  0  0  0  0  0  0  0  0  0  0  0
    4.8704   -2.5542   -2.6537 H   0  0  0  0  0  0  0  0  0  0  0  0
    4.9449   -3.4774   -1.1226 H   0  0  0  0  0  0  0  0  0  0  0  0
  2 17  1  0  0  0  0
  3 28  2  0  0  0  0
  3  2  1  0  0  0  0
  4 29  1  0  0  0  0
  4 28  1  0  0  0  0
  5  4  1  0  0  0  0
  6 15  1  0  0  0  0
  6  2  1  0  0  0  0
  7  6  2  0  0  0  0
  8  7  1  0  0  0  0
  9 11  2  0  0  0  0
  9  7  1  0  0  0  0
 10  9  1  0  0  0  0
 11 13  1  0  0  0  0
 12 11  1  0  0  0  0
 13 14  1  0  0  0  0
 13 15  2  0  0  0  0
 15 16  1  0  0  0  0
 17 26  2  0  0  0  0
 17 18  1  0  0  0  0
 18 20  2  0  0  0  0
 19 18  1  0  0  0  0
 20 22  1  0  0  0  0
 20 21  1  0  0  0  0
 22 23  1  0  0  0  0
 24 25  1  0  0  0  0
 24 22  2  0  0  0  0
 26 24  1  0  0  0  0
 27 26  1  0  0  0  0
 28  1  1  0  0  0  0
 29 30  1  0  0  0  0
 30  1  1  0  0  0  0
 30 36  2  0  0  0  0
 31 29  2  0  0  0  0
 31 32  1  0  0  0  0
 32 34  2  0  0  0  0
 33 32  1  0  0  0  0
 34 35  1  0  0  0  0
 34 36  1  0  0  0  0
 36 37  1  0  0  0  0
 38 41  1  0  0  0  0
 38 31  1  0  0  0  0
 39 38  1  0  0  0  0
 40 38  1  0  0  0  0
M  END
