1
 OpenBabel05122313063D

 50 52  0  0  0  0  0  0  0  0999 V2000
    0.2934    0.1118   -0.7864 P   0  0  0  0  0  2  0  0  0  0  0  0
    1.0997    2.7481    0.1395 N   0  0  0  0  0  2  0  0  0  0  0  0
    0.8422    1.6272   -0.1993 C   0  0  0  0  0  2  0  0  0  0  0  0
    1.6585    4.0349   -0.2590 C   0  0  0  0  0  0  0  0  0  0  0  0
    2.0599    3.9666   -1.7417 C   0  0  0  0  0  0  0  0  0  0  0  0
    2.8292    3.1855   -1.9000 H   0  0  0  0  0  0  0  0  0  0  0  0
    2.4732    4.9424   -2.0644 H   0  0  0  0  0  0  0  0  0  0  0  0
    1.1801    3.7324   -2.3731 H   0  0  0  0  0  0  0  0  0  0  0  0
    0.5596    5.0871   -0.0250 C   0  0  0  0  0  0  0  0  0  0  0  0
   -0.3299    4.8674   -0.6475 H   0  0  0  0  0  0  0  0  0  0  0  0
    0.9433    6.0902   -0.2956 H   0  0  0  0  0  0  0  0  0  0  0  0
    0.2496    5.1000    1.0379 H   0  0  0  0  0  0  0  0  0  0  0  0
    2.8797    4.2948    0.6405 C   0  0  0  0  0  0  0  0  0  0  0  0
    2.5843    4.3119    1.7075 H   0  0  0  0  0  0  0  0  0  0  0  0
    3.3244    5.2756    0.3819 H   0  0  0  0  0  0  0  0  0  0  0  0
    3.6449    3.5064    0.4988 H   0  0  0  0  0  0  0  0  0  0  0  0
    1.6324   -1.0790    0.0507 C   0  0  0  0  0  0  0  0  0  0  0  0
    2.9407   -0.2821    0.0734 C   0  0  0  0  0  0  0  0  0  0  0  0
    3.4741    0.2050   -1.1448 C   0  0  0  0  0  0  0  0  0  0  0  0
    2.9450   -0.0118   -2.0851 H   0  0  0  0  0  0  0  0  0  0  0  0
    4.6579    0.9522   -1.1677 C   0  0  0  0  0  0  0  0  0  0  0  0
    5.0534    1.3156   -2.1287 H   0  0  0  0  0  0  0  0  0  0  0  0
    5.3422    1.2313    0.0287 C   0  0  0  0  0  0  0  0  0  0  0  0
    6.2733    1.8177    0.0129 H   0  0  0  0  0  0  0  0  0  0  0  0
    4.8317    0.7430    1.2396 C   0  0  0  0  0  0  0  0  0  0  0  0
    5.3629    0.9410    2.1831 H   0  0  0  0  0  0  0  0  0  0  0  0
    3.6442   -0.0090    1.2620 C   0  0  0  0  0  0  0  0  0  0  0  0
    3.2635   -0.3924    2.2184 H   0  0  0  0  0  0  0  0  0  0  0  0
    1.1469   -1.4981    1.4415 C   0  0  0  0  0  0  0  0  0  0  0  0
    0.7143   -0.5324    2.3773 C   0  0  0  0  0  0  0  0  0  0  0  0
    0.7127    0.5303    2.0996 H   0  0  0  0  0  0  0  0  0  0  0  0
    0.2784   -0.9025    3.6551 C   0  0  0  0  0  0  0  0  0  0  0  0
   -0.0709   -0.1256    4.3518 H   0  0  0  0  0  0  0  0  0  0  0  0
    0.2642   -2.2557    4.0305 C   0  0  0  0  0  0  0  0  0  0  0  0
   -0.0947   -2.5518    5.0277 H   0  0  0  0  0  0  0  0  0  0  0  0
    0.7023   -3.2249    3.1182 C   0  0  0  0  0  0  0  0  0  0  0  0
    0.6957   -4.2894    3.3969 H   0  0  0  0  0  0  0  0  0  0  0  0
    1.1384   -2.8511    1.8371 C   0  0  0  0  0  0  0  0  0  0  0  0
    1.4696   -3.6266    1.1332 H   0  0  0  0  0  0  0  0  0  0  0  0
    1.7189   -2.2874   -0.8938 C   0  0  0  0  0  0  0  0  0  0  0  0
    2.9535   -2.9007   -1.1855 C   0  0  0  0  0  0  0  0  0  0  0  0
    3.8807   -2.4823   -0.7687 H   0  0  0  0  0  0  0  0  0  0  0  0
    3.0124   -4.0455   -1.9967 C   0  0  0  0  0  0  0  0  0  0  0  0
    3.9881   -4.5083   -2.2101 H   0  0  0  0  0  0  0  0  0  0  0  0
    1.8396   -4.5958   -2.5343 C   0  0  0  0  0  0  0  0  0  0  0  0
    1.8883   -5.4879   -3.1767 H   0  0  0  0  0  0  0  0  0  0  0  0
    0.6024   -3.9994   -2.2427 C   0  0  0  0  0  0  0  0  0  0  0  0
   -0.3289   -4.4186   -2.6523 H   0  0  0  0  0  0  0  0  0  0  0  0
    0.5454   -2.8631   -1.4251 C   0  0  0  0  0  0  0  0  0  0  0  0
   -0.4351   -2.4247   -1.1853 H   0  0  0  0  0  0  0  0  0  0  0  0
  1  3  1  0  0  0  0
  1 17  1  0  0  0  0
  3  2  1  0  0  0  0
  4  9  1  0  0  0  0
  4  2  1  0  0  0  0
  4 13  1  0  0  0  0
  5  4  1  0  0  0  0
  6  5  1  0  0  0  0
  7  5  1  0  0  0  0
  8  5  1  0  0  0  0
  9 12  1  0  0  0  0
 10  9  1  0  0  0  0
 11  9  1  0  0  0  0
 13 14  1  0  0  0  0
 15 13  1  0  0  0  0
 16 13  1  0  0  0  0
 17 18  1  0  0  0  0
 17 29  1  0  0  0  0
 18 27  1  0  0  0  0
 19 18  2  0  0  0  0
 20 19  1  0  0  0  0
 21 19  1  0  0  0  0
 21 23  2  0  0  0  0
 22 21  1  0  0  0  0
 23 25  1  0  0  0  0
 24 23  1  0  0  0  0
 25 27  2  0  0  0  0
 25 26  1  0  0  0  0
 27 28  1  0  0  0  0
 29 38  2  0  0  0  0
 29 30  1  0  0  0  0
 30 32  2  0  0  0  0
 31 30  1  0  0  0  0
 32 34  1  0  0  0  0
 32 33  1  0  0  0  0
 34 35  1  0  0  0  0
 36 37  1  0  0  0  0
 36 34  2  0  0  0  0
 38 36  1  0  0  0  0
 39 38  1  0  0  0  0
 40 17  1  0  0  0  0
 41 40  1  0  0  0  0
 41 42  1  0  0  0  0
 43 41  2  0  0  0  0
 44 43  1  0  0  0  0
 45 47  2  0  0  0  0
 45 43  1  0  0  0  0
 46 45  1  0  0  0  0
 47 49  1  0  0  0  0
 48 47  1  0  0  0  0
 49 50  1  0  0  0  0
 49 40  2  0  0  0  0
M  END
