2
 OpenBabel05122313063D

 38 41  0  0  0  0  0  0  0  0999 V2000
   -2.0359    1.8243   -1.9701 S   0  0  0  0  0  0  0  0  0  0  0  0
   -0.6627   -0.0359    0.1007 P   0  0  0  0  0  0  0  0  0  0  0  0
    1.7159    2.1433   -0.7420 N   0  0  0  0  0  0  0  0  0  0  0  0
    3.9518    2.0697   -0.5970 N   0  0  0  0  0  0  0  0  0  0  0  0
   -1.0520    0.6416    1.7624 C   0  0  0  0  0  0  0  0  0  0  0  0
   -1.6543    1.9047    1.9299 C   0  0  0  0  0  0  0  0  0  0  0  0
   -1.8870    2.5230    1.0492 H   0  0  0  0  0  0  0  0  0  0  0  0
   -1.9446    2.3739    3.2203 C   0  0  0  0  0  0  0  0  0  0  0  0
   -2.4098    3.3628    3.3494 H   0  0  0  0  0  0  0  0  0  0  0  0
   -1.6368    1.5875    4.3420 C   0  0  0  0  0  0  0  0  0  0  0  0
   -1.8606    1.9606    5.3529 H   0  0  0  0  0  0  0  0  0  0  0  0
   -1.0326    0.3302    4.1757 C   0  0  0  0  0  0  0  0  0  0  0  0
   -0.7804   -0.2828    5.0539 H   0  0  0  0  0  0  0  0  0  0  0  0
   -0.7350   -0.1429    2.8900 C   0  0  0  0  0  0  0  0  0  0  0  0
   -0.2392   -1.1173    2.7531 H   0  0  0  0  0  0  0  0  0  0  0  0
   -2.1905   -0.9132   -0.4230 C   0  0  0  0  0  0  0  0  0  0  0  0
   -2.0758   -1.9227   -1.4007 C   0  0  0  0  0  0  0  0  0  0  0  0
   -1.0806   -2.1930   -1.7884 H   0  0  0  0  0  0  0  0  0  0  0  0
   -3.2237   -2.5817   -1.8613 C   0  0  0  0  0  0  0  0  0  0  0  0
   -3.1305   -3.3703   -2.6230 H   0  0  0  0  0  0  0  0  0  0  0  0
   -4.4851   -2.2449   -1.3432 C   0  0  0  0  0  0  0  0  0  0  0  0
   -5.3842   -2.7690   -1.7012 H   0  0  0  0  0  0  0  0  0  0  0  0
   -4.5989   -1.2489   -0.3606 C   0  0  0  0  0  0  0  0  0  0  0  0
   -5.5852   -0.9913    0.0538 H   0  0  0  0  0  0  0  0  0  0  0  0
   -3.4550   -0.5815    0.1029 C   0  0  0  0  0  0  0  0  0  0  0  0
   -3.5455    0.1921    0.8801 H   0  0  0  0  0  0  0  0  0  0  0  0
    2.0246    1.9636    0.6056 C   0  0  0  0  0  0  0  0  0  0  0  0
    1.2474    1.9299    1.3748 H   0  0  0  0  0  0  0  0  0  0  0  0
    3.4068    1.9298    0.6612 C   0  0  0  0  0  0  0  0  0  0  0  0
    4.0349    1.8066    1.5522 H   0  0  0  0  0  0  0  0  0  0  0  0
    2.9289    2.1961   -1.4165 C   0  0  0  0  0  0  0  0  0  0  0  0
    2.9695    2.2949   -2.5092 H   0  0  0  0  0  0  0  0  0  0  0  0
    0.4404    2.2319   -1.3292 C   0  0  0  0  0  0  0  0  0  0  0  0
    0.1267    3.1924   -2.3432 C   0  0  0  0  0  0  0  0  0  0  0  0
    0.8429    3.9395   -2.7095 H   0  0  0  0  0  0  0  0  0  0  0  0
   -1.1765    3.0819   -2.7831 C   0  0  0  0  0  0  0  0  0  0  0  0
   -1.6851    3.6883   -3.5427 H   0  0  0  0  0  0  0  0  0  0  0  0
   -0.6388    1.3980   -1.0137 C   0  0  0  0  0  0  0  0  0  0  0  0
  1 38  1  0  0  0  0
  2  5  1  0  0  0  0
  3 27  1  0  0  0  0
  4 29  1  0  0  0  0
  5  6  2  0  0  0  0
  5 14  1  0  0  0  0
  6  8  1  0  0  0  0
  7  6  1  0  0  0  0
  8  9  1  0  0  0  0
  8 10  2  0  0  0  0
 10 11  1  0  0  0  0
 12 10  1  0  0  0  0
 12 13  1  0  0  0  0
 14 12  2  0  0  0  0
 15 14  1  0  0  0  0
 16  2  1  0  0  0  0
 16 25  1  0  0  0  0
 17 16  2  0  0  0  0
 18 17  1  0  0  0  0
 19 17  1  0  0  0  0
 19 21  2  0  0  0  0
 20 19  1  0  0  0  0
 21 23  1  0  0  0  0
 22 21  1  0  0  0  0
 23 24  1  0  0  0  0
 23 25  2  0  0  0  0
 25 26  1  0  0  0  0
 27 29  2  0  0  0  0
 27 28  1  0  0  0  0
 29 30  1  0  0  0  0
 31  3  1  0  0  0  0
 31  4  2  0  0  0  0
 32 31  1  0  0  0  0
 33 38  2  0  0  0  0
 33  3  1  0  0  0  0
 34 33  1  0  0  0  0
 35 34  1  0  0  0  0
 36 34  2  0  0  0  0
 36  1  1  0  0  0  0
 37 36  1  0  0  0  0
 38  2  1  0  0  0  0
M  END
