1
 OpenBabel05122313063D

 42 48  0  0  0  0  0  0  0  0999 V2000
   -0.4054    0.3282    0.1757 P   0  0  2  0  0  0  0  0  0  0  0  0
   -1.7335   -0.8100   -0.2966 C   0  0  0  0  0  0  0  0  0  0  0  0
   -2.4528   -1.7303   -1.2518 C   0  0  0  0  0  0  0  0  0  0  0  0
   -2.4652   -1.7431   -2.7592 C   0  0  0  0  0  0  0  0  0  0  0  0
   -1.7087   -1.1353   -3.2803 H   0  0  0  0  0  0  0  0  0  0  0  0
   -3.4435   -1.7889   -3.2656 H   0  0  0  0  0  0  0  0  0  0  0  0
   -1.9890   -2.9567   -1.9896 C   0  0  0  0  0  0  0  0  0  0  0  0
   -2.6495   -3.8384   -1.9521 H   0  0  0  0  0  0  0  0  0  0  0  0
   -0.9145   -3.1896   -1.9989 H   0  0  0  0  0  0  0  0  0  0  0  0
   -3.6656   -1.6111   -0.2897 C   0  0  0  0  0  0  0  0  0  0  0  0
   -4.6407   -2.6830    0.1274 C   0  0  0  0  0  0  0  0  0  0  0  0
   -4.5756   -3.6496   -0.3979 H   0  0  0  0  0  0  0  0  0  0  0  0
   -4.8936   -2.7643    1.1962 H   0  0  0  0  0  0  0  0  0  0  0  0
   -5.1268   -1.4807   -0.6480 C   0  0  0  0  0  0  0  0  0  0  0  0
   -5.3970   -1.6180   -1.7078 H   0  0  0  0  0  0  0  0  0  0  0  0
   -5.7269   -0.7199   -0.1241 H   0  0  0  0  0  0  0  0  0  0  0  0
   -2.8038   -0.7136    0.5446 C   0  0  0  0  0  0  0  0  0  0  0  0
   -2.7387    0.2268    1.6768 C   0  0  0  0  0  0  0  0  0  0  0  0
   -3.7129    0.2274    2.8354 C   0  0  0  0  0  0  0  0  0  0  0  0
   -4.4780   -0.5640    2.8561 H   0  0  0  0  0  0  0  0  0  0  0  0
   -3.3237    0.4990    3.8300 H   0  0  0  0  0  0  0  0  0  0  0  0
   -3.8105    1.3102    1.7959 C   0  0  0  0  0  0  0  0  0  0  0  0
   -3.4561    2.3195    2.0558 H   0  0  0  0  0  0  0  0  0  0  0  0
   -4.6390    1.2883    1.0717 H   0  0  0  0  0  0  0  0  0  0  0  0
   -1.2500    0.5519    1.8472 C   0  0  0  0  0  0  0  0  0  0  0  0
   -0.5208    0.0985    3.0959 C   0  0  0  0  0  0  0  0  0  0  0  0
   -1.1258   -0.4109    3.8620 H   0  0  0  0  0  0  0  0  0  0  0  0
    0.5032   -0.2888    2.9892 H   0  0  0  0  0  0  0  0  0  0  0  0
   -0.7523    1.5651    2.8444 C   0  0  0  0  0  0  0  0  0  0  0  0
    0.1117    2.1907    2.5727 H   0  0  0  0  0  0  0  0  0  0  0  0
   -1.5088    2.0932    3.4483 H   0  0  0  0  0  0  0  0  0  0  0  0
   -0.8548    1.9043   -0.6827 C   0  0  0  0  0  0  0  0  0  0  0  0
   -1.9780    2.0042   -1.5265 C   0  0  0  0  0  0  0  0  0  0  0  0
   -2.6032    1.1176   -1.7100 H   0  0  0  0  0  0  0  0  0  0  0  0
   -2.2977    3.2305   -2.1299 C   0  0  0  0  0  0  0  0  0  0  0  0
   -3.1710    3.2982   -2.7967 H   0  0  0  0  0  0  0  0  0  0  0  0
   -1.5103    4.3663   -1.8846 C   0  0  0  0  0  0  0  0  0  0  0  0
   -1.7641    5.3267   -2.3583 H   0  0  0  0  0  0  0  0  0  0  0  0
   -0.3932    4.2727   -1.0387 C   0  0  0  0  0  0  0  0  0  0  0  0
    0.2314    5.1581   -0.8464 H   0  0  0  0  0  0  0  0  0  0  0  0
   -0.0610    3.0458   -0.4473 C   0  0  0  0  0  0  0  0  0  0  0  0
    0.8297    2.9712    0.1960 H   0  0  0  0  0  0  0  0  0  0  0  0
  1 32  1  6  0  0  0
  1 25  1  0  0  0  0
  2  1  1  0  0  0  0
  2 17  2  0  0  0  0
  3  2  1  0  0  0  0
  3 10  1  0  0  0  0
  4  7  1  0  0  0  0
  4  3  1  0  0  0  0
  5  4  1  0  0  0  0
  6  4  1  0  0  0  0
  7  8  1  0  0  0  0
  7  3  1  0  0  0  0
  9  7  1  0  0  0  0
 10 11  1  0  0  0  0
 10 17  1  0  0  0  0
 11 13  1  0  0  0  0
 12 11  1  0  0  0  0
 14 10  1  0  0  0  0
 14 16  1  0  0  0  0
 14 11  1  0  0  0  0
 15 14  1  0  0  0  0
 17 18  1  0  0  0  0
 18 22  1  0  0  0  0
 18 25  1  0  0  0  0
 18 19  1  0  0  0  0
 19 20  1  0  0  0  0
 19 21  1  0  0  0  0
 22 23  1  0  0  0  0
 22 19  1  0  0  0  0
 24 22  1  0  0  0  0
 25 29  1  0  0  0  0
 25 26  1  0  0  0  0
 26 27  1  0  0  0  0
 28 26  1  0  0  0  0
 29 26  1  0  0  0  0
 29 31  1  0  0  0  0
 30 29  1  0  0  0  0
 32 41  1  0  0  0  0
 33 32  2  0  0  0  0
 34 33  1  0  0  0  0
 35 37  2  0  0  0  0
 35 33  1  0  0  0  0
 36 35  1  0  0  0  0
 37 39  1  0  0  0  0
 38 37  1  0  0  0  0
 39 40  1  0  0  0  0
 39 41  2  0  0  0  0
 41 42  1  0  0  0  0
M  END
