1
 OpenBabel05122313063D

 59 62  0  0  0  0  0  0  0  0999 V2000
   -0.7606    0.2307    0.1814 P   0  0  0  0  0  0  0  0  0  0  0  0
   -0.3239    1.1774    1.7106 C   0  0  0  0  0  0  0  0  0  0  0  0
   -1.2887    1.4200    2.7110 C   0  0  0  0  0  0  0  0  0  0  0  0
   -2.2974    0.9995    2.6164 H   0  0  0  0  0  0  0  0  0  0  0  0
   -0.9867    2.1854    3.8452 C   0  0  0  0  0  0  0  0  0  0  0  0
   -1.7598    2.3548    4.6096 H   0  0  0  0  0  0  0  0  0  0  0  0
    0.2967    2.7260    3.9982 C   0  0  0  0  0  0  0  0  0  0  0  0
    0.5452    3.3331    4.8818 H   0  0  0  0  0  0  0  0  0  0  0  0
    1.2739    2.4641    3.0296 C   0  0  0  0  0  0  0  0  0  0  0  0
    2.2971    2.8485    3.1598 H   0  0  0  0  0  0  0  0  0  0  0  0
    0.9951    1.6823    1.8887 C   0  0  0  0  0  0  0  0  0  0  0  0
    2.1370    1.3517    0.9788 C   0  0  0  0  0  0  0  0  0  0  0  0
    2.6338    2.2714    0.0206 C   0  0  0  0  0  0  0  0  0  0  0  0
    3.7368    1.8860   -0.7691 C   0  0  0  0  0  0  0  0  0  0  0  0
    4.1118    2.5851   -1.5334 H   0  0  0  0  0  0  0  0  0  0  0  0
    4.3752    0.6509   -0.5866 C   0  0  0  0  0  0  0  0  0  0  0  0
    5.2405    0.3841   -1.2120 H   0  0  0  0  0  0  0  0  0  0  0  0
    3.9120   -0.2344    0.3949 C   0  0  0  0  0  0  0  0  0  0  0  0
    4.4078   -1.2027    0.5581 H   0  0  0  0  0  0  0  0  0  0  0  0
    2.7836    0.1058    1.1587 C   0  0  0  0  0  0  0  0  0  0  0  0
    2.4169   -0.5746    1.9416 H   0  0  0  0  0  0  0  0  0  0  0  0
    2.0574    3.6586   -0.1211 C   0  0  0  0  0  0  0  0  0  0  0  0
    2.1468    4.0296   -1.1613 H   0  0  0  0  0  0  0  0  0  0  0  0
    2.6032    4.3775    0.5274 H   0  0  0  0  0  0  0  0  0  0  0  0
    0.9957    3.7070    0.1827 H   0  0  0  0  0  0  0  0  0  0  0  0
   -0.8222    1.5249   -1.1689 C   0  0  0  0  0  0  0  0  0  0  0  0
    0.2621    1.7205   -1.3354 H   0  0  0  0  0  0  0  0  0  0  0  0
   -1.3971    0.9631   -2.4832 C   0  0  0  0  0  0  0  0  0  0  0  0
   -2.4847    0.7725   -2.3544 H   0  0  0  0  0  0  0  0  0  0  0  0
   -0.9356   -0.0127   -2.7330 H   0  0  0  0  0  0  0  0  0  0  0  0
   -1.1941    1.9670   -3.6260 C   0  0  0  0  0  0  0  0  0  0  0  0
   -0.1024    2.0873   -3.8052 H   0  0  0  0  0  0  0  0  0  0  0  0
   -1.6224    1.5611   -4.5660 H   0  0  0  0  0  0  0  0  0  0  0  0
   -1.8199    3.3273   -3.2922 C   0  0  0  0  0  0  0  0  0  0  0  0
   -2.9258    3.2120   -3.2315 H   0  0  0  0  0  0  0  0  0  0  0  0
   -1.6276    4.0545   -4.1085 H   0  0  0  0  0  0  0  0  0  0  0  0
   -1.2993    3.8745   -1.9567 C   0  0  0  0  0  0  0  0  0  0  0  0
   -0.2163    4.1087   -2.0542 H   0  0  0  0  0  0  0  0  0  0  0  0
   -1.8041    4.8304   -1.7036 H   0  0  0  0  0  0  0  0  0  0  0  0
   -1.4905    2.8649   -0.8139 C   0  0  0  0  0  0  0  0  0  0  0  0
   -2.5759    2.7100   -0.6462 H   0  0  0  0  0  0  0  0  0  0  0  0
   -1.0844    3.2660    0.1371 H   0  0  0  0  0  0  0  0  0  0  0  0
   -2.4688   -0.4787    0.4708 C   0  0  0  0  0  0  0  0  0  0  0  0
   -2.3523   -0.8792    1.5037 H   0  0  0  0  0  0  0  0  0  0  0  0
   -3.6619    0.4950    0.4252 C   0  0  0  0  0  0  0  0  0  0  0  0
   -3.8003    0.8503   -0.6186 H   0  0  0  0  0  0  0  0  0  0  0  0
   -3.4849    1.4009    1.0380 H   0  0  0  0  0  0  0  0  0  0  0  0
   -4.9473   -0.2130    0.8816 C   0  0  0  0  0  0  0  0  0  0  0  0
   -4.8359   -0.5118    1.9483 H   0  0  0  0  0  0  0  0  0  0  0  0
   -5.8012    0.4956    0.8421 H   0  0  0  0  0  0  0  0  0  0  0  0
   -5.2366   -1.4564    0.0320 C   0  0  0  0  0  0  0  0  0  0  0  0
   -5.4690   -1.1359   -1.0089 H   0  0  0  0  0  0  0  0  0  0  0  0
   -6.1415   -1.9791    0.4064 H   0  0  0  0  0  0  0  0  0  0  0  0
   -4.0338   -2.4076    0.0079 C   0  0  0  0  0  0  0  0  0  0  0  0
   -4.2341   -3.2715   -0.6596 H   0  0  0  0  0  0  0  0  0  0  0  0
   -3.8717   -2.8294    1.0249 H   0  0  0  0  0  0  0  0  0  0  0  0
   -2.7488   -1.6968   -0.4352 C   0  0  0  0  0  0  0  0  0  0  0  0
   -2.8487   -1.3628   -1.4907 H   0  0  0  0  0  0  0  0  0  0  0  0
   -1.8839   -2.3899   -0.4043 H   0  0  0  0  0  0  0  0  0  0  0  0
  1 43  1  0  0  0  0
  1  2  1  0  0  0  0
  2 11  2  0  0  0  0
  2  3  1  0  0  0  0
  3  5  2  0  0  0  0
  4  3  1  0  0  0  0
  5  7  1  0  0  0  0
  5  6  1  0  0  0  0
  7  8  1  0  0  0  0
  9 10  1  0  0  0  0
  9  7  2  0  0  0  0
 11  9  1  0  0  0  0
 12 20  1  0  0  0  0
 12 11  1  0  0  0  0
 13 12  2  0  0  0  0
 14 16  2  0  0  0  0
 14 13  1  0  0  0  0
 15 14  1  0  0  0  0
 16 18  1  0  0  0  0
 17 16  1  0  0  0  0
 18 19  1  0  0  0  0
 18 20  2  0  0  0  0
 20 21  1  0  0  0  0
 22 13  1  0  0  0  0
 22 25  1  0  0  0  0
 22 24  1  0  0  0  0
 23 22  1  0  0  0  0
 26 40  1  0  0  0  0
 26  1  1  0  0  0  0
 27 26  1  0  0  0  0
 28 29  1  0  0  0  0
 28 26  1  0  0  0  0
 30 28  1  0  0  0  0
 31 34  1  0  0  0  0
 31 28  1  0  0  0  0
 32 31  1  0  0  0  0
 33 31  1  0  0  0  0
 34 35  1  0  0  0  0
 34 37  1  0  0  0  0
 36 34  1  0  0  0  0
 37 39  1  0  0  0  0
 37 40  1  0  0  0  0
 38 37  1  0  0  0  0
 40 41  1  0  0  0  0
 40 42  1  0  0  0  0
 43 44  1  0  0  0  0
 45 43  1  0  0  0  0
 45 48  1  0  0  0  0
 45 47  1  0  0  0  0
 46 45  1  0  0  0  0
 48 49  1  0  0  0  0
 50 48  1  0  0  0  0
 51 53  1  0  0  0  0
 51 48  1  0  0  0  0
 52 51  1  0  0  0  0
 54 51  1  0  0  0  0
 54 56  1  0  0  0  0
 55 54  1  0  0  0  0
 57 59  1  0  0  0  0
 57 54  1  0  0  0  0
 57 43  1  0  0  0  0
 58 57  1  0  0  0  0
M  END
