1
 OpenBabel05122313063D

 10  9  0  0  0  0  0  0  0  0999 V2000
   -0.1052    2.0965    0.0002 P   0  0  0  0  0  4  0  0  0  0  0  0
   -1.5267    2.7521    0.0008 O   0  0  0  0  0  0  0  0  0  0  0  0
    0.8144    2.7503   -1.4486 C   0  0  0  0  0  0  0  0  0  0  0  0
    0.8155    2.7499    1.4484 C   0  0  0  0  0  0  0  0  0  0  0  0
    0.3208    2.3875   -2.3704 H   0  0  0  0  0  0  0  0  0  0  0  0
    1.8664    2.4084   -1.4201 H   0  0  0  0  0  0  0  0  0  0  0  0
    0.7663    3.8577   -1.4269 H   0  0  0  0  0  0  0  0  0  0  0  0
    0.7664    3.8573    1.4275 H   0  0  0  0  0  0  0  0  0  0  0  0
    1.8678    2.4089    1.4183 H   0  0  0  0  0  0  0  0  0  0  0  0
    0.3233    2.3860    2.3705 H   0  0  0  0  0  0  0  0  0  0  0  0
  1  2  2  0  0  0  0
  1  4  1  0  0  0  0
  3  7  1  0  0  0  0
  3  6  1  0  0  0  0
  3  1  1  0  0  0  0
  4 10  1  0  0  0  0
  5  3  1  0  0  0  0
  8  4  1  0  0  0  0
  9  4  1  0  0  0  0
M  END
