1
 OpenBabel05122313063D

 26 26  0  0  0  0  0  0  0  0999 V2000
   -2.2675   -0.3914   -0.0552 P   0  0  0  0  0  0  0  0  0  0  0  0
   -2.6370   -2.1595   -0.7518 C   0  0  0  0  0  0  0  0  0  0  0  0
   -1.6122   -3.2464   -0.2917 C   0  0  0  0  0  0  0  0  0  0  0  0
   -3.2684   -0.3904    1.5988 C   0  0  0  0  0  0  0  0  0  0  0  0
   -3.3706    1.0604    2.2047 C   0  0  0  0  0  0  0  0  0  0  0  0
   -3.2905    0.7067   -1.0804 C   0  0  0  0  0  0  0  0  0  0  0  0
   -4.5905    0.3430   -1.4896 C   0  0  0  0  0  0  0  0  0  0  0  0
   -5.0012   -0.6443   -1.2403 H   0  0  0  0  0  0  0  0  0  0  0  0
   -5.3610    1.2557   -2.2218 C   0  0  0  0  0  0  0  0  0  0  0  0
   -6.3717    0.9711   -2.5503 H   0  0  0  0  0  0  0  0  0  0  0  0
   -4.8489    2.5260   -2.5309 C   0  0  0  0  0  0  0  0  0  0  0  0
   -5.4607    3.2392   -3.1037 H   0  0  0  0  0  0  0  0  0  0  0  0
   -3.5587    2.8878   -2.1124 C   0  0  0  0  0  0  0  0  0  0  0  0
   -3.1552    3.8818   -2.3556 H   0  0  0  0  0  0  0  0  0  0  0  0
   -2.7711    1.9804   -1.3926 C   0  0  0  0  0  0  0  0  0  0  0  0
   -1.7537    2.2493   -1.0743 H   0  0  0  0  0  0  0  0  0  0  0  0
   -2.6114   -2.0894   -2.1000 F   0  0  0  0  0  0  0  0  0  0  0  0
   -3.8708   -2.5978   -0.3718 F   0  0  0  0  0  0  0  0  0  0  0  0
   -2.0861   -4.4618   -0.6095 F   0  0  0  0  0  0  0  0  0  0  0  0
   -1.4464   -3.1804    1.0416 F   0  0  0  0  0  0  0  0  0  0  0  0
   -0.4240   -3.0817   -0.8880 F   0  0  0  0  0  0  0  0  0  0  0  0
   -4.5459   -0.8089    1.3772 F   0  0  0  0  0  0  0  0  0  0  0  0
   -2.7089   -1.2206    2.4970 F   0  0  0  0  0  0  0  0  0  0  0  0
   -3.5009    0.9854    3.5343 F   0  0  0  0  0  0  0  0  0  0  0  0
   -4.4465    1.6844    1.6951 F   0  0  0  0  0  0  0  0  0  0  0  0
   -2.2852    1.7963    1.9098 F   0  0  0  0  0  0  0  0  0  0  0  0
  1  4  1  0  0  0  0
  2 18  1  0  0  0  0
  2  3  1  0  0  0  0
  2  1  1  0  0  0  0
  3 20  1  0  0  0  0
  4  5  1  0  0  0  0
  4 23  1  0  0  0  0
  5 24  1  0  0  0  0
  6  1  1  0  0  0  0
  7  8  1  0  0  0  0
  7  6  2  0  0  0  0
  9  7  1  0  0  0  0
 10  9  1  0  0  0  0
 11  9  2  0  0  0  0
 11 13  1  0  0  0  0
 12 11  1  0  0  0  0
 13 15  2  0  0  0  0
 14 13  1  0  0  0  0
 15  6  1  0  0  0  0
 15 16  1  0  0  0  0
 17  2  1  0  0  0  0
 19  3  1  0  0  0  0
 21  3  1  0  0  0  0
 22  4  1  0  0  0  0
 25  5  1  0  0  0  0
 26  5  1  0  0  0  0
M  END
