1
 OpenBabel05122313063D

 32 33  0  0  0  0  0  0  0  0999 V2000
    0.1446   -0.6677   -0.1177 P   0  0  0  0  0  0  0  0  0  0  0  0
   -1.4054    0.1261   -0.3259 C   0  0  0  0  0  0  0  0  0  0  0  0
   -0.6493    2.1507   -1.1818 O   0  0  0  0  0  0  0  0  0  0  0  0
   -2.4270   -0.8120   -0.2508 N   0  0  0  0  0  0  0  0  0  0  0  0
   -3.7539   -0.5946   -0.5702 C   0  0  0  0  0  0  0  0  0  0  0  0
   -3.9981    0.4128   -0.9229 H   0  0  0  0  0  0  0  0  0  0  0  0
   -4.6863   -1.6031   -0.4771 C   0  0  0  0  0  0  0  0  0  0  0  0
   -5.7301   -1.3787   -0.7352 H   0  0  0  0  0  0  0  0  0  0  0  0
   -4.2881   -2.9115   -0.0829 C   0  0  0  0  0  0  0  0  0  0  0  0
   -5.0308   -3.7178   -0.0039 H   0  0  0  0  0  0  0  0  0  0  0  0
   -2.9490   -3.1595    0.1607 C   0  0  0  0  0  0  0  0  0  0  0  0
   -2.5932   -4.1640    0.4279 H   0  0  0  0  0  0  0  0  0  0  0  0
   -1.9811   -2.1240    0.0544 C   0  0  0  0  0  0  0  0  0  0  0  0
   -0.5807   -2.2199    0.1913 C   0  0  0  0  0  0  0  0  0  0  0  0
    0.1420   -3.4897    0.5281 C   0  0  0  0  0  0  0  0  0  0  0  0
   -0.1470   -3.8697    1.5310 H   0  0  0  0  0  0  0  0  0  0  0  0
    1.2376   -3.3406    0.5385 H   0  0  0  0  0  0  0  0  0  0  0  0
   -0.0745   -4.2931   -0.2077 H   0  0  0  0  0  0  0  0  0  0  0  0
   -1.5020    1.5976   -0.4855 C   0  0  0  0  0  0  0  0  0  0  0  0
   -2.5000    2.4812    0.3312 C   0  0  0  0  0  0  0  0  0  0  0  0
   -3.5687    3.0474   -0.6301 C   0  0  0  0  0  0  0  0  0  0  0  0
   -4.2535    2.2736   -1.0340 H   0  0  0  0  0  0  0  0  0  0  0  0
   -3.0835    3.5525   -1.4884 H   0  0  0  0  0  0  0  0  0  0  0  0
   -4.1968    3.7909   -0.0983 H   0  0  0  0  0  0  0  0  0  0  0  0
   -3.1366    1.7623    1.5330 C   0  0  0  0  0  0  0  0  0  0  0  0
   -2.3606    1.3018    2.1770 H   0  0  0  0  0  0  0  0  0  0  0  0
   -3.8603    0.9739    1.2523 H   0  0  0  0  0  0  0  0  0  0  0  0
   -3.6893    2.4986    2.1510 H   0  0  0  0  0  0  0  0  0  0  0  0
   -1.6656    3.6693    0.8638 C   0  0  0  0  0  0  0  0  0  0  0  0
   -2.3315    4.3883    1.3820 H   0  0  0  0  0  0  0  0  0  0  0  0
   -1.1490    4.1838    0.0331 H   0  0  0  0  0  0  0  0  0  0  0  0
   -0.8938    3.3285    1.5808 H   0  0  0  0  0  0  0  0  0  0  0  0
  1 14  1  0  0  0  0
  2  4  1  0  0  0  0
  2  1  2  0  0  0  0
  3 19  2  0  0  0  0
  4 13  1  0  0  0  0
  5  7  2  0  0  0  0
  5  4  1  0  0  0  0
  6  5  1  0  0  0  0
  7  9  1  0  0  0  0
  8  7  1  0  0  0  0
  9 10  1  0  0  0  0
  9 11  2  0  0  0  0
 11 12  1  0  0  0  0
 13 11  1  0  0  0  0
 13 14  2  0  0  0  0
 14 15  1  0  0  0  0
 15 17  1  0  0  0  0
 15 16  1  0  0  0  0
 18 15  1  0  0  0  0
 19  2  1  0  0  0  0
 19 20  1  0  0  0  0
 20 29  1  0  0  0  0
 20 25  1  0  0  0  0
 21 24  1  0  0  0  0
 21 20  1  0  0  0  0
 22 21  1  0  0  0  0
 23 21  1  0  0  0  0
 25 28  1  0  0  0  0
 25 26  1  0  0  0  0
 27 25  1  0  0  0  0
 29 30  1  0  0  0  0
 29 32  1  0  0  0  0
 31 29  1  0  0  0  0
M  END
