1
 OpenBabel05122313063D

 38 37  0  0  1  0  0  0  0  0999 V2000
   -1.9692    0.6229   -0.2480 P   0  0  0  0  0  0  0  0  0  0  0  0
   -0.8377    2.5273    3.6705 N   0  0  0  0  0  0  0  0  0  0  0  0
   -4.4175   -0.5300    0.7543 C   0  0  0  0  0  0  0  0  0  0  0  0
   -5.0002   -0.7891    1.6637 H   0  0  0  0  0  0  0  0  0  0  0  0
   -4.0783   -1.4736    0.2856 H   0  0  0  0  0  0  0  0  0  0  0  0
   -5.1045    0.0050    0.0707 H   0  0  0  0  0  0  0  0  0  0  0  0
   -2.8839    0.9450   -1.9109 C   0  0  0  0  0  0  0  0  0  0  0  0
   -3.2310    0.3461    1.1922 C   0  0  0  0  0  0  0  0  0  0  0  0
   -2.4677   -0.3997    2.3068 C   0  0  0  0  0  0  0  0  0  0  0  0
   -3.1346   -0.4941    3.1900 H   0  0  0  0  0  0  0  0  0  0  0  0
   -1.5621    0.1394    2.6426 H   0  0  0  0  0  0  0  0  0  0  0  0
   -2.1839   -1.4151    1.9685 H   0  0  0  0  0  0  0  0  0  0  0  0
   -3.5722   -0.3448   -2.3961 C   0  0  0  0  0  0  0  0  0  0  0  0
   -3.8917   -0.1959   -3.4492 H   0  0  0  0  0  0  0  0  0  0  0  0
   -4.4708   -0.5950   -1.8078 H   0  0  0  0  0  0  0  0  0  0  0  0
   -2.8919   -1.2172   -2.3464 H   0  0  0  0  0  0  0  0  0  0  0  0
   -0.5329    2.4625    2.5402 C   0  0  0  0  0  0  0  0  0  0  0  0
   -1.2374    2.3155    0.1108 C   0  0  0  0  0  0  0  0  0  0  0  0
   -0.8132    2.6441   -0.8561 H   0  0  0  0  0  0  0  0  0  0  0  0
   -2.0511    3.0266    0.3507 H   0  0  0  0  0  0  0  0  0  0  0  0
   -0.0890    2.4282    1.1434 C   0  0  1  0  0  0  0  0  0  0  0  0
    0.5477    1.5208    1.0360 H   0  0  0  0  0  0  0  0  0  0  0  0
    0.7849    3.6709    0.8689 C   0  0  0  0  0  0  0  0  0  0  0  0
    1.6000    3.7534    1.6133 H   0  0  0  0  0  0  0  0  0  0  0  0
    0.1801    4.5987    0.9113 H   0  0  0  0  0  0  0  0  0  0  0  0
    1.2431    3.5812   -0.1346 H   0  0  0  0  0  0  0  0  0  0  0  0
   -3.9041    2.0904   -1.8072 C   0  0  0  0  0  0  0  0  0  0  0  0
   -4.3583    2.2591   -2.8070 H   0  0  0  0  0  0  0  0  0  0  0  0
   -3.4437    3.0479   -1.4917 H   0  0  0  0  0  0  0  0  0  0  0  0
   -4.7299    1.8525   -1.1101 H   0  0  0  0  0  0  0  0  0  0  0  0
   -1.8137    1.3007   -2.9606 C   0  0  0  0  0  0  0  0  0  0  0  0
   -2.3105    1.4140   -3.9467 H   0  0  0  0  0  0  0  0  0  0  0  0
   -1.0595    0.4941   -3.0526 H   0  0  0  0  0  0  0  0  0  0  0  0
   -1.2951    2.2581   -2.7533 H   0  0  0  0  0  0  0  0  0  0  0  0
   -3.7769    1.6802    1.7360 C   0  0  0  0  0  0  0  0  0  0  0  0
   -4.5513    1.4463    2.4966 H   0  0  0  0  0  0  0  0  0  0  0  0
   -4.2647    2.2942    0.9545 H   0  0  0  0  0  0  0  0  0  0  0  0
   -3.0096    2.2886    2.2476 H   0  0  0  0  0  0  0  0  0  0  0  0
  1 18  1  0  0  0  0
  1  8  1  0  0  0  0
  3  8  1  0  0  0  0
  3  4  1  0  0  0  0
  5  3  1  0  0  0  0
  6  3  1  0  0  0  0
  7 27  1  0  0  0  0
  7  1  1  0  0  0  0
  8 35  1  0  0  0  0
  8  9  1  0  0  0  0
  9 11  1  0  0  0  0
  9 10  1  0  0  0  0
 12  9  1  0  0  0  0
 13 16  1  0  0  0  0
 13  7  1  0  0  0  0
 13 15  1  0  0  0  0
 14 13  1  0  0  0  0
 17  2  3  0  0  0  0
 18 20  1  0  0  0  0
 18 21  1  0  0  0  0
 19 18  1  0  0  0  0
 21 22  1  6  0  0  0
 21 17  1  0  0  0  0
 23 25  1  0  0  0  0
 23 21  1  0  0  0  0
 23 24  1  0  0  0  0
 26 23  1  0  0  0  0
 27 29  1  0  0  0  0
 27 30  1  0  0  0  0
 28 27  1  0  0  0  0
 31 34  1  0  0  0  0
 31  7  1  0  0  0  0
 32 31  1  0  0  0  0
 33 31  1  0  0  0  0
 35 38  1  0  0  0  0
 35 36  1  0  0  0  0
 37 35  1  0  0  0  0
M  END
