1
 OpenBabel05122313063D

 19 20  0  0  1  0  0  0  0  0999 V2000
    0.6513    0.1161    0.1813 P   0  0  1  0  0  0  0  0  0  0  0  0
    0.9613    2.6168    1.0259 F   0  0  0  0  0  0  0  0  0  0  0  0
    2.5950    2.0546   -0.3015 F   0  0  0  0  0  0  0  0  0  0  0  0
    0.6283    2.4542   -1.1357 F   0  0  0  0  0  0  0  0  0  0  0  0
    2.4915   -0.1887   -1.8875 F   0  0  0  0  0  0  0  0  0  0  0  0
    1.0107   -1.7974   -1.7165 F   0  0  0  0  0  0  0  0  0  0  0  0
    1.2762    1.9092   -0.0873 C   0  0  0  0  0  0  0  0  0  0  0  0
    1.7910   -0.9398   -0.9950 C   0  0  0  0  0  0  0  0  0  0  0  0
    2.7107   -1.7271   -0.0244 C   0  0  2  0  0  0  0  0  0  0  0  0
    1.8001   -2.0100    1.1892 C   0  0  0  0  0  0  0  0  0  0  0  0
    1.6477   -0.5411    1.6637 C   0  0  1  0  0  0  0  0  0  0  0  0
    3.7028   -0.7467    0.5773 C   0  0  0  0  0  0  0  0  0  0  0  0
    3.0732   -0.0500    1.5499 C   0  0  0  0  0  0  0  0  0  0  0  0
    3.1324   -2.6071   -0.5469 H   0  0  0  0  0  0  0  0  0  0  0  0
    0.8502   -2.5171    0.9285 H   0  0  0  0  0  0  0  0  0  0  0  0
    2.3293   -2.6088    1.9565 H   0  0  0  0  0  0  0  0  0  0  0  0
    1.1150   -0.3724    2.6163 H   0  0  0  0  0  0  0  0  0  0  0  0
    4.7112   -0.5632    0.1846 H   0  0  0  0  0  0  0  0  0  0  0  0
    3.4715    0.8097    2.1055 H   0  0  0  0  0  0  0  0  0  0  0  0
  1  7  1  6  0  0  0
  1 11  1  0  0  0  0
  3  7  1  0  0  0  0
  4  7  1  0  0  0  0
  5  8  1  0  0  0  0
  6  8  1  0  0  0  0
  7  2  1  0  0  0  0
  8  9  1  0  0  0  0
  8  1  1  0  0  0  0
  9 14  1  6  0  0  0
  9 12  1  0  0  0  0
  9 10  1  0  0  0  0
 10 11  1  0  0  0  0
 10 16  1  0  0  0  0
 11 17  1  1  0  0  0
 12 13  2  0  0  0  0
 13 11  1  0  0  0  0
 13 19  1  0  0  0  0
 15 10  1  0  0  0  0
 18 12  1  0  0  0  0
M  END
