1
 OpenBabel05122313063D

 38 38  0  0  0  0  0  0  0  0999 V2000
    2.2788    0.3174   -0.2507 P   0  0  0  0  0  0  0  0  0  0  0  0
    2.8506   -1.6932    1.7139 N   0  0  0  0  0  0  0  0  0  0  0  0
    4.6077   -0.4135    1.1764 N   0  0  0  0  0  0  0  0  0  0  0  0
    3.3115   -0.6411    0.9314 C   0  0  0  0  0  0  0  0  0  0  0  0
    3.9173   -2.1305    2.4704 C   0  0  0  0  0  0  0  0  0  0  0  0
    3.8146   -2.9648    3.1726 H   0  0  0  0  0  0  0  0  0  0  0  0
    4.9912   -1.3229    2.1251 C   0  0  0  0  0  0  0  0  0  0  0  0
    6.0160   -1.3554    2.5163 H   0  0  0  0  0  0  0  0  0  0  0  0
    1.5272   -2.2927    1.7390 C   0  0  0  0  0  0  0  0  0  0  0  0
    0.8044   -1.5935    1.2393 H   0  0  0  0  0  0  0  0  0  0  0  0
    1.2085   -2.4624    2.7855 H   0  0  0  0  0  0  0  0  0  0  0  0
    1.5164   -3.2571    1.1914 H   0  0  0  0  0  0  0  0  0  0  0  0
    2.7876    2.1230    0.1371 C   0  0  0  0  0  0  0  0  0  0  0  0
    1.8078    3.0434   -0.6148 C   0  0  0  0  0  0  0  0  0  0  0  0
    1.9835    4.0963   -0.3062 H   0  0  0  0  0  0  0  0  0  0  0  0
    0.7546    2.7751   -0.3908 H   0  0  0  0  0  0  0  0  0  0  0  0
    1.9413    2.9905   -1.7125 H   0  0  0  0  0  0  0  0  0  0  0  0
    4.2380    2.4867   -0.2072 C   0  0  0  0  0  0  0  0  0  0  0  0
    4.4632    3.4986    0.1944 H   0  0  0  0  0  0  0  0  0  0  0  0
    4.4003    2.5282   -1.3017 H   0  0  0  0  0  0  0  0  0  0  0  0
    4.9462    1.7616    0.2375 H   0  0  0  0  0  0  0  0  0  0  0  0
    2.5559    2.2807    1.6530 C   0  0  0  0  0  0  0  0  0  0  0  0
    2.6401    3.3546    1.9249 H   0  0  0  0  0  0  0  0  0  0  0  0
    3.3071    1.7177    2.2396 H   0  0  0  0  0  0  0  0  0  0  0  0
    1.5446    1.9293    1.9468 H   0  0  0  0  0  0  0  0  0  0  0  0
    2.9463   -0.3128   -1.9354 C   0  0  0  0  0  0  0  0  0  0  0  0
    4.4715   -0.2723   -2.0976 C   0  0  0  0  0  0  0  0  0  0  0  0
    4.7532   -0.8370   -3.0125 H   0  0  0  0  0  0  0  0  0  0  0  0
    4.9927   -0.7245   -1.2321 H   0  0  0  0  0  0  0  0  0  0  0  0
    4.8510    0.7589   -2.2161 H   0  0  0  0  0  0  0  0  0  0  0  0
    2.2560    0.4889   -3.0508 C   0  0  0  0  0  0  0  0  0  0  0  0
    2.4625    0.0132   -4.0334 H   0  0  0  0  0  0  0  0  0  0  0  0
    2.6287    1.5309   -3.1029 H   0  0  0  0  0  0  0  0  0  0  0  0
    1.1564    0.5184   -2.8995 H   0  0  0  0  0  0  0  0  0  0  0  0
    2.4621   -1.7762   -1.9908 C   0  0  0  0  0  0  0  0  0  0  0  0
    2.7218   -2.2139   -2.9783 H   0  0  0  0  0  0  0  0  0  0  0  0
    1.3615   -1.8368   -1.8516 H   0  0  0  0  0  0  0  0  0  0  0  0
    2.9476   -2.3974   -1.2103 H   0  0  0  0  0  0  0  0  0  0  0  0
  1 13  1  0  0  0  0
  1  4  1  0  0  0  0
  2  9  1  0  0  0  0
  2  5  1  0  0  0  0
  3  7  1  0  0  0  0
  4  3  2  0  0  0  0
  4  2  1  0  0  0  0
  5  6  1  0  0  0  0
  7  5  2  0  0  0  0
  7  8  1  0  0  0  0
  9 11  1  0  0  0  0
 10  9  1  0  0  0  0
 12  9  1  0  0  0  0
 13 22  1  0  0  0  0
 14 16  1  0  0  0  0
 14 15  1  0  0  0  0
 14 13  1  0  0  0  0
 17 14  1  0  0  0  0
 18 13  1  0  0  0  0
 18 19  1  0  0  0  0
 18 21  1  0  0  0  0
 20 18  1  0  0  0  0
 22 23  1  0  0  0  0
 22 25  1  0  0  0  0
 22 24  1  0  0  0  0
 26  1  1  0  0  0  0
 27 26  1  0  0  0  0
 27 29  1  0  0  0  0
 28 27  1  0  0  0  0
 30 27  1  0  0  0  0
 31 34  1  0  0  0  0
 31 26  1  0  0  0  0
 32 31  1  0  0  0  0
 33 31  1  0  0  0  0
 35 26  1  0  0  0  0
 35 37  1  0  0  0  0
 35 38  1  0  0  0  0
 36 35  1  0  0  0  0
M  END
