1
 OpenBabel05122313063D

 53 57  0  0  0  0  0  0  0  0999 V2000
   -0.2848    0.9890    0.5009 P   0  0  0  0  0  0  0  0  0  0  0  0
    5.4232    1.1641   -2.5064 F   0  0  0  0  0  0  0  0  0  0  0  0
    4.3190   -0.6711   -2.1338 F   0  0  0  0  0  0  0  0  0  0  0  0
    5.4994    0.2378   -0.5407 F   0  0  0  0  0  0  0  0  0  0  0  0
    2.0282   -0.5652   -0.5036 N   0  0  0  0  0  0  0  0  0  0  0  0
    1.2639    1.7225   -0.2100 C   0  0  0  0  0  0  0  0  0  0  0  0
    2.2827    0.8255   -0.6279 C   0  0  0  0  0  0  0  0  0  0  0  0
    3.4918    1.3610   -1.1458 C   0  0  0  0  0  0  0  0  0  0  0  0
    3.6602    2.7563   -1.2309 C   0  0  0  0  0  0  0  0  0  0  0  0
    2.6482    3.6256   -0.8154 C   0  0  0  0  0  0  0  0  0  0  0  0
    1.4494    3.1107   -0.3074 C   0  0  0  0  0  0  0  0  0  0  0  0
    4.6734    0.5115   -1.5822 C   0  0  0  0  0  0  0  0  0  0  0  0
    1.4535   -1.3620   -1.6155 C   0  0  0  0  0  0  0  0  0  0  0  0
    1.3710   -2.7849   -1.0287 C   0  0  0  0  0  0  0  0  0  0  0  0
    2.3902   -2.7633    0.0883 C   0  0  0  0  0  0  0  0  0  0  0  0
    2.7288   -1.4161    0.3589 C   0  0  0  0  0  0  0  0  0  0  0  0
    3.6025   -1.0831    1.4038 C   0  0  0  0  0  0  0  0  0  0  0  0
    4.1353   -2.1291    2.1772 C   0  0  0  0  0  0  0  0  0  0  0  0
    3.8078   -3.4701    1.9193 C   0  0  0  0  0  0  0  0  0  0  0  0
    2.9247   -3.7895    0.8667 C   0  0  0  0  0  0  0  0  0  0  0  0
   -1.2085    2.4562    1.1399 C   0  0  0  0  0  0  0  0  0  0  0  0
   -1.8362    3.2828    0.1785 C   0  0  0  0  0  0  0  0  0  0  0  0
   -2.6031    4.3807    0.5907 C   0  0  0  0  0  0  0  0  0  0  0  0
   -2.7747    4.6530    1.9590 C   0  0  0  0  0  0  0  0  0  0  0  0
   -2.1710    3.8231    2.9143 C   0  0  0  0  0  0  0  0  0  0  0  0
   -1.3865    2.7300    2.5098 C   0  0  0  0  0  0  0  0  0  0  0  0
    0.3588    0.1030    1.9737 C   0  0  0  0  0  0  0  0  0  0  0  0
    1.1982    0.7739    2.8891 C   0  0  0  0  0  0  0  0  0  0  0  0
    1.7060    0.0939    4.0056 C   0  0  0  0  0  0  0  0  0  0  0  0
    1.4051   -1.2632    4.2005 C   0  0  0  0  0  0  0  0  0  0  0  0
    0.5976   -1.9406    3.2744 C   0  0  0  0  0  0  0  0  0  0  0  0
    0.0719   -1.2613    2.1672 C   0  0  0  0  0  0  0  0  0  0  0  0
    4.5978    3.1547   -1.6418 H   0  0  0  0  0  0  0  0  0  0  0  0
    2.7924    4.7135   -0.8898 H   0  0  0  0  0  0  0  0  0  0  0  0
    0.6542    3.7941    0.0202 H   0  0  0  0  0  0  0  0  0  0  0  0
    0.4743   -0.9422   -1.9217 H   0  0  0  0  0  0  0  0  0  0  0  0
    2.1357   -1.3247   -2.4921 H   0  0  0  0  0  0  0  0  0  0  0  0
    0.3584   -2.9732   -0.6061 H   0  0  0  0  0  0  0  0  0  0  0  0
    1.5593   -3.5653   -1.7920 H   0  0  0  0  0  0  0  0  0  0  0  0
    3.8665   -0.0372    1.6080 H   0  0  0  0  0  0  0  0  0  0  0  0
    4.8252   -1.8857    2.9998 H   0  0  0  0  0  0  0  0  0  0  0  0
    4.2430   -4.2713    2.5347 H   0  0  0  0  0  0  0  0  0  0  0  0
    2.6595   -4.8384    0.6602 H   0  0  0  0  0  0  0  0  0  0  0  0
   -1.7200    3.0469   -0.8935 H   0  0  0  0  0  0  0  0  0  0  0  0
   -3.0819    5.0218   -0.1650 H   0  0  0  0  0  0  0  0  0  0  0  0
   -3.3878    5.5090    2.2796 H   0  0  0  0  0  0  0  0  0  0  0  0
   -2.3106    4.0224    3.9878 H   0  0  0  0  0  0  0  0  0  0  0  0
   -0.9229    2.0836    3.2688 H   0  0  0  0  0  0  0  0  0  0  0  0
    1.4642    1.8292    2.7228 H   0  0  0  0  0  0  0  0  0  0  0  0
    2.3571    0.6242    4.7170 H   0  0  0  0  0  0  0  0  0  0  0  0
    1.8193   -1.8006    5.0667 H   0  0  0  0  0  0  0  0  0  0  0  0
    0.3829   -3.0111    3.4065 H   0  0  0  0  0  0  0  0  0  0  0  0
   -0.5647   -1.7830    1.4382 H   0  0  0  0  0  0  0  0  0  0  0  0
  1 21  1  0  0  0  0
  1 27  1  0  0  0  0
  2 12  1  0  0  0  0
  3 12  1  0  0  0  0
  5 16  1  0  0  0  0
  6  1  1  0  0  0  0
  7  5  1  0  0  0  0
  7  6  2  0  0  0  0
  8  7  1  0  0  0  0
  9  8  2  0  0  0  0
  9 10  1  0  0  0  0
 10 11  2  0  0  0  0
 11  6  1  0  0  0  0
 11 35  1  0  0  0  0
 12  8  1  0  0  0  0
 12  4  1  0  0  0  0
 13 14  1  0  0  0  0
 13  5  1  0  0  0  0
 14 38  1  0  0  0  0
 14 15  1  0  0  0  0
 15 16  2  0  0  0  0
 15 20  1  0  0  0  0
 16 17  1  0  0  0  0
 17 40  1  0  0  0  0
 17 18  2  0  0  0  0
 18 41  1  0  0  0  0
 19 18  1  0  0  0  0
 19 42  1  0  0  0  0
 20 19  2  0  0  0  0
 21 26  1  0  0  0  0
 22 23  1  0  0  0  0
 22 21  2  0  0  0  0
 23 24  2  0  0  0  0
 24 46  1  0  0  0  0
 24 25  1  0  0  0  0
 25 47  1  0  0  0  0
 26 25  2  0  0  0  0
 26 48  1  0  0  0  0
 27 32  2  0  0  0  0
 27 28  1  0  0  0  0
 28 29  2  0  0  0  0
 29 30  1  0  0  0  0
 29 50  1  0  0  0  0
 30 51  1  0  0  0  0
 31 52  1  0  0  0  0
 31 30  2  0  0  0  0
 32 31  1  0  0  0  0
 33  9  1  0  0  0  0
 34 10  1  0  0  0  0
 36 13  1  0  0  0  0
 37 13  1  0  0  0  0
 39 14  1  0  0  0  0
 43 20  1  0  0  0  0
 44 22  1  0  0  0  0
 45 23  1  0  0  0  0
 49 28  1  0  0  0  0
 53 32  1  0  0  0  0
M  END
