3
 OpenBabel05122313063D

 59 59  0  0  0  0  0  0  0  0999 V2000
   -2.1453    2.7479   -0.8130 S   0  0  0  0  0  0  0  0  0  0  0  0
    0.8463    2.4092   -1.5187 S   0  0  0  0  0  0  0  0  0  0  0  0
   -0.7112    0.3134    0.0143 P   0  0  0  0  0  2  0  0  0  0  0  0
   -0.6348    1.8295   -0.7631 C   0  0  0  0  0  3  0  0  0  0  0  0
   -2.4211    2.8837   -2.6172 C   0  0  0  0  0  0  0  0  0  0  0  0
    0.8251    4.1967   -1.1467 C   0  0  0  0  0  0  0  0  0  0  0  0
    1.0136   -0.2924    0.1926 C   0  0  0  0  0  0  0  0  0  0  0  0
    1.8234    0.2083    1.2664 C   0  0  0  0  0  0  0  0  0  0  0  0
    3.2133    0.0357    1.1586 C   0  0  0  0  0  0  0  0  0  0  0  0
    3.8293   -0.6184    0.0810 C   0  0  0  0  0  0  0  0  0  0  0  0
    2.9931   -1.2087   -0.8746 C   0  0  0  0  0  0  0  0  0  0  0  0
    1.5898   -1.0903   -0.8496 C   0  0  0  0  0  0  0  0  0  0  0  0
    1.2811    0.9010    2.5495 C   0  0  0  0  0  0  0  0  0  0  0  0
    0.0363    0.1690    3.0950 C   0  0  0  0  0  0  0  0  0  0  0  0
    0.9573    2.3908    2.2863 C   0  0  0  0  0  0  0  0  0  0  0  0
    2.3292    0.8633    3.6867 C   0  0  0  0  0  0  0  0  0  0  0  0
    5.3630   -0.6938    0.0068 C   0  0  0  0  0  0  0  0  0  0  0  0
    5.9277    0.7447   -0.0393 C   0  0  0  0  0  0  0  0  0  0  0  0
    5.9016   -1.4221    1.2593 C   0  0  0  0  0  0  0  0  0  0  0  0
    5.8488   -1.4484   -1.2426 C   0  0  0  0  0  0  0  0  0  0  0  0
    0.7702   -1.9018   -1.8935 C   0  0  0  0  0  0  0  0  0  0  0  0
    1.6884   -2.7116   -2.8352 C   0  0  0  0  0  0  0  0  0  0  0  0
   -0.1074   -2.9253   -1.1352 C   0  0  0  0  0  0  0  0  0  0  0  0
   -0.1069   -1.0126   -2.8081 C   0  0  0  0  0  0  0  0  0  0  0  0
   -1.5099    3.2589   -3.1213 H   0  0  0  0  0  0  0  0  0  0  0  0
   -2.7077    1.8985   -3.0318 H   0  0  0  0  0  0  0  0  0  0  0  0
   -3.2510    3.6027   -2.7544 H   0  0  0  0  0  0  0  0  0  0  0  0
    1.2161    4.3832   -0.1280 H   0  0  0  0  0  0  0  0  0  0  0  0
    1.4776    4.6832   -1.8959 H   0  0  0  0  0  0  0  0  0  0  0  0
   -0.2075    4.5880   -1.2279 H   0  0  0  0  0  0  0  0  0  0  0  0
    3.8530    0.4365    1.9531 H   0  0  0  0  0  0  0  0  0  0  0  0
    3.4517   -1.7856   -1.6817 H   0  0  0  0  0  0  0  0  0  0  0  0
   -0.2740    0.6194    4.0594 H   0  0  0  0  0  0  0  0  0  0  0  0
    0.2440   -0.9066    3.2632 H   0  0  0  0  0  0  0  0  0  0  0  0
   -0.8441    0.2387    2.4252 H   0  0  0  0  0  0  0  0  0  0  0  0
    0.1199    2.5176    1.5774 H   0  0  0  0  0  0  0  0  0  0  0  0
    1.8434    2.9152    1.8743 H   0  0  0  0  0  0  0  0  0  0  0  0
    0.6746    2.8881    3.2369 H   0  0  0  0  0  0  0  0  0  0  0  0
    1.8655    1.2531    4.6143 H   0  0  0  0  0  0  0  0  0  0  0  0
    3.2113    1.5006    3.4783 H   0  0  0  0  0  0  0  0  0  0  0  0
    2.6821   -0.1673    3.8910 H   0  0  0  0  0  0  0  0  0  0  0  0
    5.5486    1.2899   -0.9272 H   0  0  0  0  0  0  0  0  0  0  0  0
    5.6440    1.3265    0.8601 H   0  0  0  0  0  0  0  0  0  0  0  0
    7.0358    0.7239   -0.0924 H   0  0  0  0  0  0  0  0  0  0  0  0
    5.6212   -0.8986    2.1947 H   0  0  0  0  0  0  0  0  0  0  0  0
    7.0092   -1.4800    1.2257 H   0  0  0  0  0  0  0  0  0  0  0  0
    5.5041   -2.4554    1.3181 H   0  0  0  0  0  0  0  0  0  0  0  0
    6.9569   -1.4631   -1.2644 H   0  0  0  0  0  0  0  0  0  0  0  0
    5.5029   -2.5016   -1.2506 H   0  0  0  0  0  0  0  0  0  0  0  0
    5.5027   -0.9638   -2.1777 H   0  0  0  0  0  0  0  0  0  0  0  0
    2.3327   -2.0592   -3.4585 H   0  0  0  0  0  0  0  0  0  0  0  0
    2.3352   -3.4235   -2.2855 H   0  0  0  0  0  0  0  0  0  0  0  0
    1.0561   -3.3068   -3.5229 H   0  0  0  0  0  0  0  0  0  0  0  0
    0.5215   -3.6110   -0.5328 H   0  0  0  0  0  0  0  0  0  0  0  0
   -0.6959   -3.5329   -1.8527 H   0  0  0  0  0  0  0  0  0  0  0  0
   -0.8292   -2.4386   -0.4486 H   0  0  0  0  0  0  0  0  0  0  0  0
   -0.4935   -1.6201   -3.6516 H   0  0  0  0  0  0  0  0  0  0  0  0
   -0.9906   -0.5999   -2.2867 H   0  0  0  0  0  0  0  0  0  0  0  0
    0.4736   -0.1668   -3.2288 H   0  0  0  0  0  0  0  0  0  0  0  0
  1  4  1  0  0  0  0
  2  6  1  0  0  0  0
  2  4  1  0  0  0  0
  3  7  1  0  0  0  0
  4  3  1  0  0  0  0
  5  1  1  0  0  0  0
  6 28  1  0  0  0  0
  7  8  1  0  0  0  0
  8 13  1  0  0  0  0
  9  8  2  0  0  0  0
  9 31  1  0  0  0  0
 10  9  1  0  0  0  0
 11 12  1  0  0  0  0
 11 10  2  0  0  0  0
 12  7  2  0  0  0  0
 13 14  1  0  0  0  0
 13 16  1  0  0  0  0
 14 34  1  0  0  0  0
 14 33  1  0  0  0  0
 15 13  1  0  0  0  0
 15 38  1  0  0  0  0
 16 41  1  0  0  0  0
 16 39  1  0  0  0  0
 17 10  1  0  0  0  0
 17 19  1  0  0  0  0
 18 17  1  0  0  0  0
 18 43  1  0  0  0  0
 19 47  1  0  0  0  0
 19 45  1  0  0  0  0
 20 17  1  0  0  0  0
 21 23  1  0  0  0  0
 21 12  1  0  0  0  0
 22 52  1  0  0  0  0
 22 21  1  0  0  0  0
 23 54  1  0  0  0  0
 23 56  1  0  0  0  0
 24 58  1  0  0  0  0
 24 21  1  0  0  0  0
 25  5  1  0  0  0  0
 26  5  1  0  0  0  0
 27  5  1  0  0  0  0
 29  6  1  0  0  0  0
 30  6  1  0  0  0  0
 32 11  1  0  0  0  0
 35 14  1  0  0  0  0
 36 15  1  0  0  0  0
 37 15  1  0  0  0  0
 40 16  1  0  0  0  0
 42 18  1  0  0  0  0
 44 18  1  0  0  0  0
 46 19  1  0  0  0  0
 48 20  1  0  0  0  0
 49 20  1  0  0  0  0
 50 20  1  0  0  0  0
 51 22  1  0  0  0  0
 53 22  1  0  0  0  0
 55 23  1  0  0  0  0
 57 24  1  0  0  0  0
 59 24  1  0  0  0  0
M  END
