1
 OpenBabel05122313063D

 22 22  0  0  0  0  0  0  0  0999 V2000
    0.6431   -1.9957    0.2136 P   0  0  0  0  0  0  0  0  0  0  0  0
    2.1860   -1.8532    0.8825 O   0  0  0  0  0  0  0  0  0  0  0  0
   -0.3663   -2.7842    1.3818 N   0  0  0  0  0  0  0  0  0  0  0  0
    0.7648   -3.4899   -0.6644 N   0  0  0  0  0  0  0  0  0  0  0  0
    2.8240   -2.9683    1.4928 C   0  0  0  0  0  0  0  0  0  0  0  0
    2.4104   -3.1693    2.5070 H   0  0  0  0  0  0  0  0  0  0  0  0
    3.9003   -2.7241    1.5945 H   0  0  0  0  0  0  0  0  0  0  0  0
    2.7125   -3.8847    0.8737 H   0  0  0  0  0  0  0  0  0  0  0  0
   -0.6492   -2.2098    2.6774 C   0  0  0  0  0  0  0  0  0  0  0  0
   -1.6315   -2.5793    3.0459 H   0  0  0  0  0  0  0  0  0  0  0  0
   -0.7224   -1.1097    2.5881 H   0  0  0  0  0  0  0  0  0  0  0  0
    0.1186   -2.4628    3.4491 H   0  0  0  0  0  0  0  0  0  0  0  0
   -0.4272   -4.2313    1.2402 C   0  0  0  0  0  0  0  0  0  0  0  0
   -1.4159   -4.6061    1.5854 H   0  0  0  0  0  0  0  0  0  0  0  0
    0.3572   -4.7511    1.8463 H   0  0  0  0  0  0  0  0  0  0  0  0
   -0.2208   -4.4772   -0.2510 C   0  0  0  0  0  0  0  0  0  0  0  0
    0.1566   -5.5045   -0.4495 H   0  0  0  0  0  0  0  0  0  0  0  0
   -1.1849   -4.3594   -0.8074 H   0  0  0  0  0  0  0  0  0  0  0  0
    1.2092   -3.5496   -2.0441 C   0  0  0  0  0  0  0  0  0  0  0  0
    1.5740   -4.5766   -2.2613 H   0  0  0  0  0  0  0  0  0  0  0  0
    2.0530   -2.8573   -2.2122 H   0  0  0  0  0  0  0  0  0  0  0  0
    0.4072   -3.3052   -2.7787 H   0  0  0  0  0  0  0  0  0  0  0  0
  1  2  1  0  0  0  0
  1  3  1  0  0  0  0
  2  5  1  0  0  0  0
  3  9  1  0  0  0  0
  4 16  1  0  0  0  0
  4  1  1  0  0  0  0
  5  7  1  0  0  0  0
  5  6  1  0  0  0  0
  8  5  1  0  0  0  0
  9 10  1  0  0  0  0
  9 12  1  0  0  0  0
 11  9  1  0  0  0  0
 13  3  1  0  0  0  0
 13 14  1  0  0  0  0
 13 15  1  0  0  0  0
 16 13  1  0  0  0  0
 17 16  1  0  0  0  0
 18 16  1  0  0  0  0
 19  4  1  0  0  0  0
 20 19  1  0  0  0  0
 21 19  1  0  0  0  0
 22 19  1  0  0  0  0
M  END
