1
 OpenBabel05122313063D

 24 25  0  0  0  0  0  0  0  0999 V2000
   -2.3044   -0.5189   -0.0659 P   0  0  0  0  0  0  0  0  0  0  0  0
   -4.3772    1.3228   -0.8176 C   0  0  0  0  0  0  0  0  0  0  0  0
   -4.5906    0.6754   -1.6807 H   0  0  0  0  0  0  0  0  0  0  0  0
   -3.3509    0.9897    0.0881 C   0  0  0  0  0  0  0  0  0  0  0  0
   -3.0997    1.8457    1.1822 C   0  0  0  0  0  0  0  0  0  0  0  0
   -2.2832    1.6071    1.8825 H   0  0  0  0  0  0  0  0  0  0  0  0
   -3.8681    3.0020    1.3729 C   0  0  0  0  0  0  0  0  0  0  0  0
   -3.6590    3.6605    2.2296 H   0  0  0  0  0  0  0  0  0  0  0  0
   -4.8897    3.3269    0.4656 C   0  0  0  0  0  0  0  0  0  0  0  0
   -5.4878    4.2395    0.6099 H   0  0  0  0  0  0  0  0  0  0  0  0
   -5.1396    2.4869   -0.6298 C   0  0  0  0  0  0  0  0  0  0  0  0
   -5.9357    2.7372   -1.3477 H   0  0  0  0  0  0  0  0  0  0  0  0
   -3.0510   -1.6851    1.2110 C   0  0  0  0  0  0  0  0  0  0  0  0
   -2.2564   -2.0122    1.9065 H   0  0  0  0  0  0  0  0  0  0  0  0
   -3.8174   -1.1181    1.7762 H   0  0  0  0  0  0  0  0  0  0  0  0
   -3.6554   -2.8546    0.4096 C   0  0  0  0  0  0  0  0  0  0  0  0
   -2.8583   -3.6075    0.2398 H   0  0  0  0  0  0  0  0  0  0  0  0
   -4.4743   -3.3483    0.9722 H   0  0  0  0  0  0  0  0  0  0  0  0
   -4.1330   -2.3173   -0.9497 C   0  0  0  0  0  0  0  0  0  0  0  0
   -4.4110   -3.1396   -1.6416 H   0  0  0  0  0  0  0  0  0  0  0  0
   -5.0373   -1.6842   -0.8155 H   0  0  0  0  0  0  0  0  0  0  0  0
   -2.9770   -1.4771   -1.5132 C   0  0  0  0  0  0  0  0  0  0  0  0
   -3.2398   -0.8164   -2.3615 H   0  0  0  0  0  0  0  0  0  0  0  0
   -2.1351   -2.1250   -1.8301 H   0  0  0  0  0  0  0  0  0  0  0  0
  1  4  1  0  0  0  0
  1 13  1  0  0  0  0
  2 11  2  0  0  0  0
  2  4  1  0  0  0  0
  3  2  1  0  0  0  0
  4  5  2  0  0  0  0
  5  7  1  0  0  0  0
  5  6  1  0  0  0  0
  7  8  1  0  0  0  0
  9 10  1  0  0  0  0
  9  7  2  0  0  0  0
 11  9  1  0  0  0  0
 12 11  1  0  0  0  0
 13 15  1  0  0  0  0
 13 14  1  0  0  0  0
 16 18  1  0  0  0  0
 16 13  1  0  0  0  0
 17 16  1  0  0  0  0
 19 21  1  0  0  0  0
 19 16  1  0  0  0  0
 20 19  1  0  0  0  0
 22 19  1  0  0  0  0
 22  1  1  0  0  0  0
 23 22  1  0  0  0  0
 24 22  1  0  0  0  0
M  END
