1
 OpenBabel05122313063D

 29 29  0  0  0  0  0  0  0  0999 V2000
    2.3384   -0.0819   -0.0122 P   0  0  0  0  0  0  0  0  0  0  0  0
    3.1010    0.8828   -1.3897 C   0  0  0  0  0  0  0  0  0  0  0  0
    4.1945    0.6916   -1.3993 H   0  0  0  0  0  0  0  0  0  0  0  0
    2.6593    0.5211   -2.3389 H   0  0  0  0  0  0  0  0  0  0  0  0
    2.8097    2.3792   -1.1888 C   0  0  0  0  0  0  0  0  0  0  0  0
    3.2230    2.9417   -2.0526 H   0  0  0  0  0  0  0  0  0  0  0  0
    1.7086    2.5291   -1.2165 H   0  0  0  0  0  0  0  0  0  0  0  0
    3.3839    2.9401    0.1203 C   0  0  0  0  0  0  0  0  0  0  0  0
    4.4931    2.8350    0.1082 H   0  0  0  0  0  0  0  0  0  0  0  0
    3.1799    4.0302    0.1723 H   0  0  0  0  0  0  0  0  0  0  0  0
    2.8267    2.2615    1.3802 C   0  0  0  0  0  0  0  0  0  0  0  0
    1.7262    2.4131    1.4321 H   0  0  0  0  0  0  0  0  0  0  0  0
    3.2509    2.7427    2.2868 H   0  0  0  0  0  0  0  0  0  0  0  0
    3.1070    0.7510    1.4446 C   0  0  0  0  0  0  0  0  0  0  0  0
    2.6518    0.3078    2.3517 H   0  0  0  0  0  0  0  0  0  0  0  0
    4.1991    0.5435    1.4466 H   0  0  0  0  0  0  0  0  0  0  0  0
    2.9979   -1.8503   -0.0837 C   0  0  0  0  0  0  0  0  0  0  0  0
    2.1661   -2.5952   -1.1437 C   0  0  0  0  0  0  0  0  0  0  0  0
    2.5421   -3.6352   -1.2476 H   0  0  0  0  0  0  0  0  0  0  0  0
    2.2167   -2.1066   -2.1375 H   0  0  0  0  0  0  0  0  0  0  0  0
    1.0976   -2.6295   -0.8508 H   0  0  0  0  0  0  0  0  0  0  0  0
    2.7721   -2.4830    1.3014 C   0  0  0  0  0  0  0  0  0  0  0  0
    2.9861   -3.5714    1.2461 H   0  0  0  0  0  0  0  0  0  0  0  0
    1.7290   -2.3445    1.6511 H   0  0  0  0  0  0  0  0  0  0  0  0
    3.4453   -2.0480    2.0671 H   0  0  0  0  0  0  0  0  0  0  0  0
    4.4894   -1.8825   -0.4502 C   0  0  0  0  0  0  0  0  0  0  0  0
    5.1069   -1.2790    0.2465 H   0  0  0  0  0  0  0  0  0  0  0  0
    4.6739   -1.5230   -1.4818 H   0  0  0  0  0  0  0  0  0  0  0  0
    4.8582   -2.9288   -0.3939 H   0  0  0  0  0  0  0  0  0  0  0  0
  1 14  1  0  0  0  0
  2  5  1  0  0  0  0
  2  1  1  0  0  0  0
  3  2  1  0  0  0  0
  4  2  1  0  0  0  0
  5  8  1  0  0  0  0
  6  5  1  0  0  0  0
  7  5  1  0  0  0  0
  8 10  1  0  0  0  0
  8 11  1  0  0  0  0
  9  8  1  0  0  0  0
 11 12  1  0  0  0  0
 11 14  1  0  0  0  0
 11 13  1  0  0  0  0
 14 16  1  0  0  0  0
 14 15  1  0  0  0  0
 17  1  1  0  0  0  0
 17 22  1  0  0  0  0
 18 21  1  0  0  0  0
 18 17  1  0  0  0  0
 19 18  1  0  0  0  0
 20 18  1  0  0  0  0
 22 24  1  0  0  0  0
 22 25  1  0  0  0  0
 23 22  1  0  0  0  0
 26 29  1  0  0  0  0
 26 17  1  0  0  0  0
 26 27  1  0  0  0  0
 28 26  1  0  0  0  0
M  END
