1
 OpenBabel05122313063D

 53 53  0  0  0  0  0  0  0  0999 V2000
   -1.5984    0.2118   -0.0396 P   0  0  0  0  0  0  0  0  0  0  0  0
    3.5337   -0.3731    0.4509 N   0  3  0  0  0  0  0  0  0  0  0  0
    2.7144   -1.0667    0.1728 H   0  0  0  0  0  0  0  0  0  0  0  0
    0.2286    1.9537   -1.2891 C   0  0  0  0  0  0  0  0  0  0  0  0
    1.3384    1.0848   -1.2075 C   0  0  0  0  0  0  0  0  0  0  0  0
    1.1835    0.0077   -1.3863 H   0  0  0  0  0  0  0  0  0  0  0  0
   -3.3707   -0.4438   -0.4540 C   0  0  0  0  0  0  0  0  0  0  0  0
   -1.6920    1.3639    1.5087 C   0  0  0  0  0  0  0  0  0  0  0  0
   -1.1577    1.3821   -1.4472 C   0  0  0  0  0  0  0  0  0  0  0  0
   -1.1962    0.7180   -2.3346 H   0  0  0  0  0  0  0  0  0  0  0  0
   -1.9229    2.1766   -1.5471 H   0  0  0  0  0  0  0  0  0  0  0  0
    2.6178    1.5654   -0.8786 C   0  0  0  0  0  0  0  0  0  0  0  0
    0.4568    3.3377   -1.1517 C   0  0  0  0  0  0  0  0  0  0  0  0
   -0.3874    4.0382   -1.2494 H   0  0  0  0  0  0  0  0  0  0  0  0
    2.8154    2.9481   -0.6947 C   0  0  0  0  0  0  0  0  0  0  0  0
    3.8131    3.3341   -0.4319 H   0  0  0  0  0  0  0  0  0  0  0  0
    3.7493    0.5860   -0.6967 C   0  0  0  0  0  0  0  0  0  0  0  0
    4.7091    1.1114   -0.5145 H   0  0  0  0  0  0  0  0  0  0  0  0
    3.8658   -0.0589   -1.5911 H   0  0  0  0  0  0  0  0  0  0  0  0
    1.7399    3.8323   -0.8669 C   0  0  0  0  0  0  0  0  0  0  0  0
    1.8968    4.9156   -0.7556 H   0  0  0  0  0  0  0  0  0  0  0  0
   -2.3803    0.6308    2.6772 C   0  0  0  0  0  0  0  0  0  0  0  0
   -3.4476    0.4130    2.4934 H   0  0  0  0  0  0  0  0  0  0  0  0
   -2.3292    1.2819    3.5760 H   0  0  0  0  0  0  0  0  0  0  0  0
   -1.8522   -0.3143    2.9064 H   0  0  0  0  0  0  0  0  0  0  0  0
   -4.5386    0.4508   -0.0043 C   0  0  0  0  0  0  0  0  0  0  0  0
   -4.5828    0.6300    1.0841 H   0  0  0  0  0  0  0  0  0  0  0  0
   -5.4833   -0.0602   -0.2882 H   0  0  0  0  0  0  0  0  0  0  0  0
   -4.5358    1.4286   -0.5253 H   0  0  0  0  0  0  0  0  0  0  0  0
   -3.5299   -0.6312   -1.9754 C   0  0  0  0  0  0  0  0  0  0  0  0
   -3.5447    0.3394   -2.5108 H   0  0  0  0  0  0  0  0  0  0  0  0
   -4.5096   -1.1219   -2.1586 H   0  0  0  0  0  0  0  0  0  0  0  0
   -2.7300   -1.2616   -2.4029 H   0  0  0  0  0  0  0  0  0  0  0  0
   -3.4375   -1.8196    0.2385 C   0  0  0  0  0  0  0  0  0  0  0  0
   -2.6401   -2.4836   -0.1505 H   0  0  0  0  0  0  0  0  0  0  0  0
   -4.4220   -2.2920    0.0343 H   0  0  0  0  0  0  0  0  0  0  0  0
   -3.3082   -1.7484    1.3361 H   0  0  0  0  0  0  0  0  0  0  0  0
    4.6819   -1.3014    0.6017 C   0  0  0  0  0  0  0  0  0  0  0  0
    4.8459   -1.8194   -0.3604 H   0  0  0  0  0  0  0  0  0  0  0  0
    4.4182   -2.0562    1.3639 H   0  0  0  0  0  0  0  0  0  0  0  0
    5.5869   -0.7389    0.9017 H   0  0  0  0  0  0  0  0  0  0  0  0
   -0.2609    1.7168    1.9648 C   0  0  0  0  0  0  0  0  0  0  0  0
    0.2903    0.7996    2.2384 H   0  0  0  0  0  0  0  0  0  0  0  0
   -0.3388    2.3599    2.8679 H   0  0  0  0  0  0  0  0  0  0  0  0
    0.3024    2.2839    1.2020 H   0  0  0  0  0  0  0  0  0  0  0  0
   -2.4195    2.6840    1.1896 C   0  0  0  0  0  0  0  0  0  0  0  0
   -1.8687    3.2909    0.4459 H   0  0  0  0  0  0  0  0  0  0  0  0
   -2.4677    3.2858    2.1223 H   0  0  0  0  0  0  0  0  0  0  0  0
   -3.4549    2.5484    0.8335 H   0  0  0  0  0  0  0  0  0  0  0  0
    3.1709    0.2733    1.7359 C   0  0  0  0  0  0  0  0  0  0  0  0
    4.0588    0.7736    2.1698 H   0  0  0  0  0  0  0  0  0  0  0  0
    2.7705   -0.5067    2.4099 H   0  0  0  0  0  0  0  0  0  0  0  0
    2.3723    1.0103    1.5498 H   0  0  0  0  0  0  0  0  0  0  0  0
  1  8  1  0  0  0  0
  2 38  1  0  0  0  0
  2 50  1  0  0  0  0
  3  2  1  0  0  0  0
  4  5  2  0  0  0  0
  4 13  1  0  0  0  0
  5 12  1  0  0  0  0
  6  5  1  0  0  0  0
  7  1  1  0  0  0  0
  7 26  1  0  0  0  0
  7 34  1  0  0  0  0
  8 42  1  0  0  0  0
  8 22  1  0  0  0  0
  9  4  1  0  0  0  0
  9  1  1  0  0  0  0
 10  9  1  0  0  0  0
 11  9  1  0  0  0  0
 12 17  1  0  0  0  0
 12 15  2  0  0  0  0
 13 20  2  0  0  0  0
 14 13  1  0  0  0  0
 15 16  1  0  0  0  0
 17 18  1  0  0  0  0
 17  2  1  0  0  0  0
 19 17  1  0  0  0  0
 20 21  1  0  0  0  0
 20 15  1  0  0  0  0
 22 25  1  0  0  0  0
 22 24  1  0  0  0  0
 23 22  1  0  0  0  0
 26 27  1  0  0  0  0
 28 26  1  0  0  0  0
 29 26  1  0  0  0  0
 30  7  1  0  0  0  0
 31 30  1  0  0  0  0
 32 30  1  0  0  0  0
 33 30  1  0  0  0  0
 34 37  1  0  0  0  0
 35 34  1  0  0  0  0
 36 34  1  0  0  0  0
 38 41  1  0  0  0  0
 38 40  1  0  0  0  0
 39 38  1  0  0  0  0
 42 43  1  0  0  0  0
 42 44  1  0  0  0  0
 45 42  1  0  0  0  0
 46  8  1  0  0  0  0
 46 48  1  0  0  0  0
 47 46  1  0  0  0  0
 49 46  1  0  0  0  0
 50 51  1  0  0  0  0
 50 52  1  0  0  0  0
 53 50  1  0  0  0  0
M  CHG  1   2   1
M  END
