1
 OpenBabel05122313063D

 64 64  0  0  0  0  0  0  0  0999 V2000
   -0.2158    0.8927   -0.0389 P   0  0  1  0  0  0  0  0  0  0  0  0
   -2.3321   -0.5695    0.0280 P   0  0  2  0  0  4  0  0  0  0  0  0
   -1.4189    0.3171    1.1354 N   0  0  0  0  0  0  0  0  0  0  0  0
   -1.4025    0.1962   -1.1595 N   0  0  0  0  0  0  0  0  0  0  0  0
   -0.3678    2.5416   -0.1531 N   0  0  0  0  0  0  0  0  0  0  0  0
   -1.3385    2.8642   -0.2515 H   0  0  0  0  0  0  0  0  0  0  0  0
   -3.9443   -0.2093   -0.0097 N   0  0  0  0  0  0  0  0  0  0  0  0
   -4.0892    0.8023   -0.1021 H   0  0  0  0  0  0  0  0  0  0  0  0
   -1.2625    0.2010    2.6177 C   0  0  0  0  0  0  0  0  0  0  0  0
   -0.3773   -1.0013    2.9876 C   0  0  0  0  0  0  0  0  0  0  0  0
   -0.8398   -1.9611    2.6848 H   0  0  0  0  0  0  0  0  0  0  0  0
   -0.2233   -1.0395    4.0836 H   0  0  0  0  0  0  0  0  0  0  0  0
    0.6198   -0.9300    2.5058 H   0  0  0  0  0  0  0  0  0  0  0  0
   -2.6609    0.0494    3.2322 C   0  0  0  0  0  0  0  0  0  0  0  0
   -3.3213    0.8912    2.9448 H   0  0  0  0  0  0  0  0  0  0  0  0
   -2.5826    0.0288    4.3363 H   0  0  0  0  0  0  0  0  0  0  0  0
   -3.1432   -0.8987    2.9215 H   0  0  0  0  0  0  0  0  0  0  0  0
   -0.6129    1.5017    3.1128 C   0  0  0  0  0  0  0  0  0  0  0  0
    0.4071    1.6271    2.6965 H   0  0  0  0  0  0  0  0  0  0  0  0
   -0.5177    1.4723    4.2153 H   0  0  0  0  0  0  0  0  0  0  0  0
   -1.2197    2.3849    2.8350 H   0  0  0  0  0  0  0  0  0  0  0  0
   -1.2106   -0.1041   -2.6135 C   0  0  0  0  0  0  0  0  0  0  0  0
   -2.5982   -0.2240   -3.2580 C   0  0  0  0  0  0  0  0  0  0  0  0
   -3.1635   -1.0856   -2.8519 H   0  0  0  0  0  0  0  0  0  0  0  0
   -2.4914   -0.3866   -4.3479 H   0  0  0  0  0  0  0  0  0  0  0  0
   -3.1959    0.6955   -3.1001 H   0  0  0  0  0  0  0  0  0  0  0  0
   -0.4097   -1.4023   -2.8108 C   0  0  0  0  0  0  0  0  0  0  0  0
    0.5662   -1.3563   -2.2843 H   0  0  0  0  0  0  0  0  0  0  0  0
   -0.2068   -1.5649   -3.8873 H   0  0  0  0  0  0  0  0  0  0  0  0
   -0.9647   -2.2880   -2.4444 H   0  0  0  0  0  0  0  0  0  0  0  0
   -0.4473    1.0772   -3.2297 C   0  0  0  0  0  0  0  0  0  0  0  0
   -0.9858    2.0320   -3.0768 H   0  0  0  0  0  0  0  0  0  0  0  0
   -0.3291    0.9114   -4.3177 H   0  0  0  0  0  0  0  0  0  0  0  0
    0.5698    1.1701   -2.7974 H   0  0  0  0  0  0  0  0  0  0  0  0
   -2.0918   -2.3539    0.1403 C   0  0  0  0  0  0  0  0  0  0  0  0
   -2.4911   -2.7411    1.0958 H   0  0  0  0  0  0  0  0  0  0  0  0
   -0.9984   -2.5247    0.1029 H   0  0  0  0  0  0  0  0  0  0  0  0
   -2.5805   -2.8774   -0.7023 H   0  0  0  0  0  0  0  0  0  0  0  0
   -5.2385   -0.9898    0.0090 C   0  0  0  0  0  0  0  0  0  0  0  0
   -6.3407    0.0821    0.0455 C   0  0  0  0  0  0  0  0  0  0  0  0
   -6.2617    0.7063    0.9586 H   0  0  0  0  0  0  0  0  0  0  0  0
   -7.3368   -0.3996    0.0506 H   0  0  0  0  0  0  0  0  0  0  0  0
   -6.2910    0.7384   -0.8475 H   0  0  0  0  0  0  0  0  0  0  0  0
   -5.3437   -1.8656    1.2660 C   0  0  0  0  0  0  0  0  0  0  0  0
   -4.5894   -2.6752    1.2847 H   0  0  0  0  0  0  0  0  0  0  0  0
   -6.3362   -2.3557    1.2912 H   0  0  0  0  0  0  0  0  0  0  0  0
   -5.2417   -1.2594    2.1863 H   0  0  0  0  0  0  0  0  0  0  0  0
   -5.3877   -1.8359   -1.2645 C   0  0  0  0  0  0  0  0  0  0  0  0
   -5.3512   -1.2032   -2.1719 H   0  0  0  0  0  0  0  0  0  0  0  0
   -6.3631   -2.3602   -1.2540 H   0  0  0  0  0  0  0  0  0  0  0  0
   -4.6042   -2.6149   -1.3453 H   0  0  0  0  0  0  0  0  0  0  0  0
    0.6156    3.6718   -0.1521 C   0  0  0  0  0  0  0  0  0  0  0  0
    0.6003    4.3211   -1.5469 C   0  0  0  0  0  0  0  0  0  0  0  0
   -0.4217    4.6510   -1.8253 H   0  0  0  0  0  0  0  0  0  0  0  0
    0.9625    3.6146   -2.3183 H   0  0  0  0  0  0  0  0  0  0  0  0
    1.2562    5.2135   -1.5631 H   0  0  0  0  0  0  0  0  0  0  0  0
    2.0295    3.1921    0.1878 C   0  0  0  0  0  0  0  0  0  0  0  0
    2.7050    4.0683    0.2187 H   0  0  0  0  0  0  0  0  0  0  0  0
    2.4301    2.4912   -0.5716 H   0  0  0  0  0  0  0  0  0  0  0  0
    2.0757    2.6980    1.1789 H   0  0  0  0  0  0  0  0  0  0  0  0
    0.1363    4.6795    0.9074 C   0  0  0  0  0  0  0  0  0  0  0  0
   -0.8971    5.0249    0.6949 H   0  0  0  0  0  0  0  0  0  0  0  0
    0.7905    5.5729    0.9103 H   0  0  0  0  0  0  0  0  0  0  0  0
    0.1562    4.2335    1.9206 H   0  0  0  0  0  0  0  0  0  0  0  0
  1  5  1  6  0  0  0
  1  3  1  0  0  0  0
  2  7  1  6  0  0  0
  2 35  1  0  0  0  0
  2  3  1  0  0  0  0
  3  9  1  0  0  0  0
  4  1  1  0  0  0  0
  4  2  1  0  0  0  0
  5 52  1  0  0  0  0
  6  5  1  0  0  0  0
  7 39  1  0  0  0  0
  8  7  1  0  0  0  0
  9 10  1  0  0  0  0
  9 18  1  0  0  0  0
  9 14  1  0  0  0  0
 10 12  1  0  0  0  0
 11 10  1  0  0  0  0
 13 10  1  0  0  0  0
 14 16  1  0  0  0  0
 15 14  1  0  0  0  0
 17 14  1  0  0  0  0
 18 20  1  0  0  0  0
 19 18  1  0  0  0  0
 21 18  1  0  0  0  0
 22  4  1  0  0  0  0
 23 26  1  0  0  0  0
 23 24  1  0  0  0  0
 23 22  1  0  0  0  0
 25 23  1  0  0  0  0
 27 22  1  0  0  0  0
 27 30  1  0  0  0  0
 27 28  1  0  0  0  0
 29 27  1  0  0  0  0
 31 32  1  0  0  0  0
 31 34  1  0  0  0  0
 31 22  1  0  0  0  0
 33 31  1  0  0  0  0
 35 36  1  0  0  0  0
 37 35  1  0  0  0  0
 38 35  1  0  0  0  0
 39 40  1  0  0  0  0
 39 44  1  0  0  0  0
 40 42  1  0  0  0  0
 40 41  1  0  0  0  0
 43 40  1  0  0  0  0
 44 45  1  0  0  0  0
 44 46  1  0  0  0  0
 44 47  1  0  0  0  0
 48 50  1  0  0  0  0
 48 39  1  0  0  0  0
 49 48  1  0  0  0  0
 51 48  1  0  0  0  0
 52 57  1  0  0  0  0
 52 61  1  0  0  0  0
 53 52  1  0  0  0  0
 54 53  1  0  0  0  0
 55 53  1  0  0  0  0
 56 53  1  0  0  0  0
 57 58  1  0  0  0  0
 57 60  1  0  0  0  0
 59 57  1  0  0  0  0
 61 63  1  0  0  0  0
 61 64  1  0  0  0  0
 62 61  1  0  0  0  0
M  END
