1
 OpenBabel05122313063D

 38 38  0  0  0  0  0  0  0  0999 V2000
   -1.7924    0.1168   -0.4779 P   0  0  0  0  0  0  0  0  0  0  0  0
   -2.2328    1.9164   -0.9515 C   0  0  0  0  0  0  0  0  0  0  0  0
   -2.4201   -1.1872   -1.7215 C   0  0  0  0  0  0  0  0  0  0  0  0
   -2.6456   -0.2690    1.1046 C   0  0  0  0  0  0  0  0  0  0  0  0
   -1.8758   -0.8101    2.1574 C   0  0  0  0  0  0  0  0  0  0  0  0
   -0.7946   -0.9708    2.0084 H   0  0  0  0  0  0  0  0  0  0  0  0
   -2.4671   -1.1401    3.3859 C   0  0  0  0  0  0  0  0  0  0  0  0
   -1.8507   -1.5623    4.1934 H   0  0  0  0  0  0  0  0  0  0  0  0
   -3.8391   -0.9246    3.5832 C   0  0  0  0  0  0  0  0  0  0  0  0
   -4.3052   -1.1775    4.5472 H   0  0  0  0  0  0  0  0  0  0  0  0
   -4.6159   -0.3823    2.5468 C   0  0  0  0  0  0  0  0  0  0  0  0
   -5.6922   -0.2095    2.6962 H   0  0  0  0  0  0  0  0  0  0  0  0
   -4.0278   -0.0603    1.3153 C   0  0  0  0  0  0  0  0  0  0  0  0
   -4.6580    0.3573    0.5190 H   0  0  0  0  0  0  0  0  0  0  0  0
   -3.9494   -1.3352   -1.7529 C   0  0  0  0  0  0  0  0  0  0  0  0
   -4.3509   -1.6689   -0.7772 H   0  0  0  0  0  0  0  0  0  0  0  0
   -4.2164   -2.1109   -2.5009 H   0  0  0  0  0  0  0  0  0  0  0  0
   -4.4664   -0.4039   -2.0479 H   0  0  0  0  0  0  0  0  0  0  0  0
   -1.8774   -0.8372   -3.1167 C   0  0  0  0  0  0  0  0  0  0  0  0
   -2.0731   -1.6837   -3.8072 H   0  0  0  0  0  0  0  0  0  0  0  0
   -0.7812   -0.6633   -3.1023 H   0  0  0  0  0  0  0  0  0  0  0  0
   -2.3687    0.0569   -3.5472 H   0  0  0  0  0  0  0  0  0  0  0  0
   -1.7998   -2.5158   -1.2464 C   0  0  0  0  0  0  0  0  0  0  0  0
   -0.6915   -2.4806   -1.2843 H   0  0  0  0  0  0  0  0  0  0  0  0
   -2.1381   -3.3359   -1.9133 H   0  0  0  0  0  0  0  0  0  0  0  0
   -2.1070   -2.7719   -0.2124 H   0  0  0  0  0  0  0  0  0  0  0  0
   -1.1822    2.3959   -1.9730 C   0  0  0  0  0  0  0  0  0  0  0  0
   -0.1494    2.2875   -1.5810 H   0  0  0  0  0  0  0  0  0  0  0  0
   -1.3523    3.4710   -2.1908 H   0  0  0  0  0  0  0  0  0  0  0  0
   -1.2386    1.8497   -2.9331 H   0  0  0  0  0  0  0  0  0  0  0  0
   -2.0735    2.7293    0.3477 C   0  0  0  0  0  0  0  0  0  0  0  0
   -2.8576    2.4919    1.0915 H   0  0  0  0  0  0  0  0  0  0  0  0
   -2.1401    3.8116    0.1108 H   0  0  0  0  0  0  0  0  0  0  0  0
   -1.0885    2.5452    0.8274 H   0  0  0  0  0  0  0  0  0  0  0  0
   -3.6381    2.1205   -1.5376 C   0  0  0  0  0  0  0  0  0  0  0  0
   -3.7714    1.5923   -2.5009 H   0  0  0  0  0  0  0  0  0  0  0  0
   -3.7901    3.2024   -1.7350 H   0  0  0  0  0  0  0  0  0  0  0  0
   -4.4418    1.8035   -0.8471 H   0  0  0  0  0  0  0  0  0  0  0  0
  1  4  1  0  0  0  0
  2  1  1  0  0  0  0
  2 31  1  0  0  0  0
  3 23  1  0  0  0  0
  3  1  1  0  0  0  0
  4 13  2  0  0  0  0
  4  5  1  0  0  0  0
  5  7  2  0  0  0  0
  6  5  1  0  0  0  0
  7  9  1  0  0  0  0
  7  8  1  0  0  0  0
  9 10  1  0  0  0  0
 11 12  1  0  0  0  0
 11  9  2  0  0  0  0
 13 11  1  0  0  0  0
 14 13  1  0  0  0  0
 15  3  1  0  0  0  0
 15 16  1  0  0  0  0
 17 15  1  0  0  0  0
 18 15  1  0  0  0  0
 19 21  1  0  0  0  0
 19  3  1  0  0  0  0
 20 19  1  0  0  0  0
 22 19  1  0  0  0  0
 23 26  1  0  0  0  0
 24 23  1  0  0  0  0
 25 23  1  0  0  0  0
 27 28  1  0  0  0  0
 27  2  1  0  0  0  0
 29 27  1  0  0  0  0
 30 27  1  0  0  0  0
 31 34  1  0  0  0  0
 31 32  1  0  0  0  0
 33 31  1  0  0  0  0
 35  2  1  0  0  0  0
 35 38  1  0  0  0  0
 36 35  1  0  0  0  0
 37 35  1  0  0  0  0
M  END
