1
 OpenBabel05122313063D

 69 71  0  0  0  0  0  0  0  0999 V2000
    0.0034   -0.5394    0.4675 P   0  0  2  0  0  0  0  0  0  0  0  0
    0.4449   -2.2438    1.0776 C   0  0  0  0  0  0  0  0  0  0  0  0
    1.4429   -2.1699    1.5529 H   0  0  0  0  0  0  0  0  0  0  0  0
    0.4618   -2.9940    0.2620 H   0  0  0  0  0  0  0  0  0  0  0  0
   -0.2833   -2.5409    1.8562 H   0  0  0  0  0  0  0  0  0  0  0  0
   -1.1266   -0.9308   -0.8618 N   0  0  0  0  0  0  0  0  0  0  0  0
    1.3245   -0.4293   -0.8083 N   0  0  0  0  0  0  0  0  0  0  0  0
   -0.4355   -1.3047   -2.0353 C   0  0  0  0  0  0  0  0  0  0  0  0
   -0.9871   -1.7376   -2.8796 H   0  0  0  0  0  0  0  0  0  0  0  0
    0.9016   -1.0490   -1.9898 C   0  0  0  0  0  0  0  0  0  0  0  0
    1.6202   -1.2430   -2.7965 H   0  0  0  0  0  0  0  0  0  0  0  0
   -2.4570   -0.4178   -0.9360 C   0  0  0  0  0  0  0  0  0  0  0  0
   -3.5005   -1.1327   -0.2813 C   0  0  0  0  0  0  0  0  0  0  0  0
   -4.8204   -0.6662   -0.4054 C   0  0  0  0  0  0  0  0  0  0  0  0
   -5.6350   -1.2056    0.0992 H   0  0  0  0  0  0  0  0  0  0  0  0
   -5.1144    0.4753   -1.1634 C   0  0  0  0  0  0  0  0  0  0  0  0
   -6.1554    0.8240   -1.2546 H   0  0  0  0  0  0  0  0  0  0  0  0
   -4.0800    1.1842   -1.7817 C   0  0  0  0  0  0  0  0  0  0  0  0
   -4.3120    2.0994   -2.3481 H   0  0  0  0  0  0  0  0  0  0  0  0
   -2.7382    0.7709   -1.6649 C   0  0  0  0  0  0  0  0  0  0  0  0
    2.6789   -0.1433   -0.5075 C   0  0  0  0  0  0  0  0  0  0  0  0
    3.6776   -1.1645   -0.5300 C   0  0  0  0  0  0  0  0  0  0  0  0
    5.0092   -0.8189   -0.2272 C   0  0  0  0  0  0  0  0  0  0  0  0
    5.7830   -1.6033   -0.2479 H   0  0  0  0  0  0  0  0  0  0  0  0
    5.3624    0.4865    0.1279 C   0  0  0  0  0  0  0  0  0  0  0  0
    6.4052    0.7297    0.3860 H   0  0  0  0  0  0  0  0  0  0  0  0
    4.3766    1.4823    0.1507 C   0  0  0  0  0  0  0  0  0  0  0  0
    4.6528    2.5143    0.4136 H   0  0  0  0  0  0  0  0  0  0  0  0
    3.0413    1.1999   -0.1807 C   0  0  0  0  0  0  0  0  0  0  0  0
   -3.1816   -2.4039    0.4959 C   0  0  0  0  0  0  0  0  0  0  0  0
   -2.2223   -2.2163    1.0145 H   0  0  0  0  0  0  0  0  0  0  0  0
   -4.2095   -2.7513    1.5770 C   0  0  0  0  0  0  0  0  0  0  0  0
   -3.8542   -3.6205    2.1676 H   0  0  0  0  0  0  0  0  0  0  0  0
   -4.3481   -1.9066    2.2789 H   0  0  0  0  0  0  0  0  0  0  0  0
   -5.1947   -3.0308    1.1457 H   0  0  0  0  0  0  0  0  0  0  0  0
   -2.9621   -3.5868   -0.4647 C   0  0  0  0  0  0  0  0  0  0  0  0
   -2.6707   -4.5000    0.0961 H   0  0  0  0  0  0  0  0  0  0  0  0
   -3.8925   -3.8128   -1.0282 H   0  0  0  0  0  0  0  0  0  0  0  0
   -2.1604   -3.3652   -1.1956 H   0  0  0  0  0  0  0  0  0  0  0  0
   -1.6329    1.6054   -2.3026 C   0  0  0  0  0  0  0  0  0  0  0  0
   -0.6766    1.2711   -1.8531 H   0  0  0  0  0  0  0  0  0  0  0  0
   -1.7859    3.1055   -2.0040 C   0  0  0  0  0  0  0  0  0  0  0  0
   -1.8282    3.3084   -0.9168 H   0  0  0  0  0  0  0  0  0  0  0  0
   -0.9212    3.6613   -2.4211 H   0  0  0  0  0  0  0  0  0  0  0  0
   -2.6981    3.5279   -2.4764 H   0  0  0  0  0  0  0  0  0  0  0  0
   -1.5541    1.3692   -3.8220 C   0  0  0  0  0  0  0  0  0  0  0  0
   -1.3908    0.3009   -4.0610 H   0  0  0  0  0  0  0  0  0  0  0  0
   -2.4921    1.6957   -4.3208 H   0  0  0  0  0  0  0  0  0  0  0  0
   -0.7154    1.9484   -4.2627 H   0  0  0  0  0  0  0  0  0  0  0  0
    3.3626   -2.6187   -0.8698 C   0  0  0  0  0  0  0  0  0  0  0  0
    2.2637   -2.7109   -0.9625 H   0  0  0  0  0  0  0  0  0  0  0  0
    3.8108   -3.5851    0.2392 C   0  0  0  0  0  0  0  0  0  0  0  0
    3.4872   -4.6220    0.0087 H   0  0  0  0  0  0  0  0  0  0  0  0
    4.9151   -3.5983    0.3518 H   0  0  0  0  0  0  0  0  0  0  0  0
    3.3773   -3.3015    1.2181 H   0  0  0  0  0  0  0  0  0  0  0  0
    3.9733   -3.0231   -2.2234 C   0  0  0  0  0  0  0  0  0  0  0  0
    3.7027   -4.0674   -2.4875 H   0  0  0  0  0  0  0  0  0  0  0  0
    3.6231   -2.3611   -3.0410 H   0  0  0  0  0  0  0  0  0  0  0  0
    5.0816   -2.9568   -2.1983 H   0  0  0  0  0  0  0  0  0  0  0  0
    2.0260    2.3252   -0.3134 C   0  0  0  0  0  0  0  0  0  0  0  0
    1.0336    1.8985   -0.0691 H   0  0  0  0  0  0  0  0  0  0  0  0
    1.9965    2.8115   -1.7735 C   0  0  0  0  0  0  0  0  0  0  0  0
    1.2437    3.6163   -1.9009 H   0  0  0  0  0  0  0  0  0  0  0  0
    2.9864    3.2133   -2.0802 H   0  0  0  0  0  0  0  0  0  0  0  0
    1.7350    1.9852   -2.4656 H   0  0  0  0  0  0  0  0  0  0  0  0
    2.2417    3.4842    0.6647 C   0  0  0  0  0  0  0  0  0  0  0  0
    1.3613    4.1569    0.6423 H   0  0  0  0  0  0  0  0  0  0  0  0
    2.3431    3.1076    1.7013 H   0  0  0  0  0  0  0  0  0  0  0  0
    3.1410    4.0897    0.4175 H   0  0  0  0  0  0  0  0  0  0  0  0
  1  2  1  1  0  0  0
  2  3  1  0  0  0  0
  2  5  1  0  0  0  0
  4  2  1  0  0  0  0
  6  1  1  0  0  0  0
  7 21  1  0  0  0  0
  7  1  1  0  0  0  0
  8 10  2  0  0  0  0
  8  6  1  0  0  0  0
  9  8  1  0  0  0  0
 10  7  1  0  0  0  0
 11 10  1  0  0  0  0
 12  6  1  0  0  0  0
 12 13  1  0  0  0  0
 13 30  1  0  0  0  0
 14 13  2  0  0  0  0
 14 15  1  0  0  0  0
 16 14  1  0  0  0  0
 17 16  1  0  0  0  0
 18 20  1  0  0  0  0
 18 16  2  0  0  0  0
 19 18  1  0  0  0  0
 20 12  2  0  0  0  0
 21 29  1  0  0  0  0
 22 21  2  0  0  0  0
 22 23  1  0  0  0  0
 23 25  2  0  0  0  0
 24 23  1  0  0  0  0
 25 27  1  0  0  0  0
 25 26  1  0  0  0  0
 27 28  1  0  0  0  0
 29 27  2  0  0  0  0
 30 31  1  0  0  0  0
 30 32  1  0  0  0  0
 32 33  1  0  0  0  0
 32 34  1  0  0  0  0
 35 32  1  0  0  0  0
 36 37  1  0  0  0  0
 36 30  1  0  0  0  0
 38 36  1  0  0  0  0
 39 36  1  0  0  0  0
 40 42  1  0  0  0  0
 40 41  1  0  0  0  0
 40 20  1  0  0  0  0
 42 43  1  0  0  0  0
 44 42  1  0  0  0  0
 45 42  1  0  0  0  0
 46 40  1  0  0  0  0
 47 46  1  0  0  0  0
 48 46  1  0  0  0  0
 49 46  1  0  0  0  0
 50 22  1  0  0  0  0
 50 52  1  0  0  0  0
 51 50  1  0  0  0  0
 52 54  1  0  0  0  0
 52 55  1  0  0  0  0
 53 52  1  0  0  0  0
 56 59  1  0  0  0  0
 56 50  1  0  0  0  0
 57 56  1  0  0  0  0
 58 56  1  0  0  0  0
 60 29  1  0  0  0  0
 60 61  1  0  0  0  0
 60 66  1  0  0  0  0
 62 60  1  0  0  0  0
 63 62  1  0  0  0  0
 64 62  1  0  0  0  0
 65 62  1  0  0  0  0
 66 68  1  0  0  0  0
 67 66  1  0  0  0  0
 69 66  1  0  0  0  0
M  END
