1
 OpenBabel05122313063D

 27 26  0  0  0  0  0  0  0  0999 V2000
    2.4575    0.0178   -0.9822 P   0  0  0  0  0  2  0  0  0  0  0  0
    2.8524    1.8010    0.3818 Si  0  0  0  0  0  0  0  0  0  0  0  0
    2.8694   -1.7795    0.3596 Si  0  0  0  0  0  0  0  0  0  0  0  0
    4.6158    1.6548    1.0645 C   0  0  0  0  0  0  0  0  0  0  0  0
    1.6379    2.0272    1.8250 C   0  0  0  0  0  0  0  0  0  0  0  0
    2.7276    3.3335   -0.7261 C   0  0  0  0  0  0  0  0  0  0  0  0
    4.7236   -2.1452    0.2147 C   0  0  0  0  0  0  0  0  0  0  0  0
    2.4269   -1.5899    2.1958 C   0  0  0  0  0  0  0  0  0  0  0  0
    1.8988   -3.2444   -0.3600 C   0  0  0  0  0  0  0  0  0  0  0  0
    5.3460    1.4900    0.2467 H   0  0  0  0  0  0  0  0  0  0  0  0
    4.7085    0.8141    1.7813 H   0  0  0  0  0  0  0  0  0  0  0  0
    4.8970    2.5877    1.5969 H   0  0  0  0  0  0  0  0  0  0  0  0
    1.5806    1.1302    2.4712 H   0  0  0  0  0  0  0  0  0  0  0  0
    0.6177    2.2431    1.4477 H   0  0  0  0  0  0  0  0  0  0  0  0
    1.9503    2.8879    2.4541 H   0  0  0  0  0  0  0  0  0  0  0  0
    3.4297    3.2646   -1.5811 H   0  0  0  0  0  0  0  0  0  0  0  0
    2.9635    4.2542   -0.1521 H   0  0  0  0  0  0  0  0  0  0  0  0
    1.7031    3.4424   -1.1385 H   0  0  0  0  0  0  0  0  0  0  0  0
    5.0079   -2.3064   -0.8446 H   0  0  0  0  0  0  0  0  0  0  0  0
    4.9863   -3.0582    0.7897 H   0  0  0  0  0  0  0  0  0  0  0  0
    5.3325   -1.3054    0.6053 H   0  0  0  0  0  0  0  0  0  0  0  0
    1.3538   -1.3524    2.3386 H   0  0  0  0  0  0  0  0  0  0  0  0
    3.0237   -0.7900    2.6780 H   0  0  0  0  0  0  0  0  0  0  0  0
    2.6407   -2.5394    2.7310 H   0  0  0  0  0  0  0  0  0  0  0  0
    2.1093   -3.3613   -1.4423 H   0  0  0  0  0  0  0  0  0  0  0  0
    0.8031   -3.1142   -0.2394 H   0  0  0  0  0  0  0  0  0  0  0  0
    2.1837   -4.1879    0.1512 H   0  0  0  0  0  0  0  0  0  0  0  0
  1  3  1  0  0  0  0
  1  2  1  0  0  0  0
  2  4  1  0  0  0  0
  2  5  1  0  0  0  0
  3  8  1  0  0  0  0
  4 12  1  0  0  0  0
  4 11  1  0  0  0  0
  5 15  1  0  0  0  0
  5 13  1  0  0  0  0
  6 17  1  0  0  0  0
  6  2  1  0  0  0  0
  7  3  1  0  0  0  0
  7 21  1  0  0  0  0
  7 20  1  0  0  0  0
  8 22  1  0  0  0  0
  8 23  1  0  0  0  0
  8 24  1  0  0  0  0
  9 26  1  0  0  0  0
  9 27  1  0  0  0  0
  9  3  1  0  0  0  0
 10  4  1  0  0  0  0
 14  5  1  0  0  0  0
 16  6  1  0  0  0  0
 18  6  1  0  0  0  0
 19  7  1  0  0  0  0
 25  9  1  0  0  0  0
M  END
