1
 OpenBabel05122313063D

 49 54  0  0  1  0  0  0  0  0999 V2000
   -1.2606   -0.6808    0.9160 P   0  0  2  0  0  0  0  0  0  0  0  0
   -2.1685    3.0594    2.4000 C   0  0  0  0  0  0  0  0  0  0  0  0
   -1.7511    1.6173    2.4965 C   0  0  0  0  0  0  0  0  0  0  0  0
   -1.6212    1.0694    1.2506 C   0  0  0  0  0  0  0  0  0  0  0  0
   -1.9580    2.0447   -1.1726 C   0  0  0  0  0  0  0  0  0  0  0  0
   -2.2962    3.2084   -1.8804 C   0  0  0  0  0  0  0  0  0  0  0  0
   -2.6202    4.3980   -1.2039 C   0  0  0  0  0  0  0  0  0  0  0  0
   -2.6085    4.4470    0.2023 C   0  0  0  0  0  0  0  0  0  0  0  0
   -2.2668    3.2940    0.9137 C   0  0  0  0  0  0  0  0  0  0  0  0
   -1.9404    2.0912    0.2309 C   0  0  0  0  0  0  0  0  0  0  0  0
   -2.9798   -1.4653    1.0494 C   0  0  1  0  0  0  0  0  0  0  0  0
   -3.5668   -1.2270    2.4104 C   0  0  0  0  0  0  0  0  0  0  0  0
   -4.6029   -0.3416    2.3252 C   0  0  0  0  0  0  0  0  0  0  0  0
   -5.7585    0.8857    0.3229 C   0  0  0  0  0  0  0  0  0  0  0  0
   -5.7637    0.9925   -1.0776 C   0  0  0  0  0  0  0  0  0  0  0  0
   -4.8674    0.2438   -1.8634 C   0  0  0  0  0  0  0  0  0  0  0  0
   -3.9205   -0.6102   -1.2677 C   0  0  0  0  0  0  0  0  0  0  0  0
   -3.8964   -0.6966    0.1267 C   0  0  0  0  0  0  0  0  0  0  0  0
   -4.8253    0.0263    0.9271 C   0  0  0  0  0  0  0  0  0  0  0  0
   -0.3397   -1.3395    2.4142 C   0  0  1  0  0  0  0  0  0  0  0  0
   -0.2230   -2.8421    2.2857 C   0  0  0  0  0  0  0  0  0  0  0  0
    1.0862   -3.2066    2.2199 C   0  0  0  0  0  0  0  0  0  0  0  0
    3.3357   -1.8883    2.3819 C   0  0  0  0  0  0  0  0  0  0  0  0
    3.8856   -0.6079    2.5604 C   0  0  0  0  0  0  0  0  0  0  0  0
    3.0567    0.5205    2.6862 C   0  0  0  0  0  0  0  0  0  0  0  0
    1.6554    0.3923    2.6455 C   0  0  0  0  0  0  0  0  0  0  0  0
    1.1012   -0.8794    2.4708 C   0  0  0  0  0  0  0  0  0  0  0  0
    1.9376   -2.0243    2.3403 C   0  0  0  0  0  0  0  0  0  0  0  0
   -1.4357    3.7369    2.8943 H   0  0  0  0  0  0  0  0  0  0  0  0
   -3.1376    3.2325    2.9211 H   0  0  0  0  0  0  0  0  0  0  0  0
   -1.5891    1.1007    3.4515 H   0  0  0  0  0  0  0  0  0  0  0  0
   -1.7120    1.1175   -1.7106 H   0  0  0  0  0  0  0  0  0  0  0  0
   -2.3088    3.1846   -2.9803 H   0  0  0  0  0  0  0  0  0  0  0  0
   -2.8847    5.2981   -1.7791 H   0  0  0  0  0  0  0  0  0  0  0  0
   -2.8634    5.3792    0.7301 H   0  0  0  0  0  0  0  0  0  0  0  0
   -2.8102   -2.5203    0.7416 H   0  0  0  0  0  0  0  0  0  0  0  0
   -3.1918   -1.6965    3.3295 H   0  0  0  0  0  0  0  0  0  0  0  0
   -5.2057    0.0243    3.1686 H   0  0  0  0  0  0  0  0  0  0  0  0
   -6.4760    1.4560    0.9324 H   0  0  0  0  0  0  0  0  0  0  0  0
   -6.4856    1.6624   -1.5688 H   0  0  0  0  0  0  0  0  0  0  0  0
   -4.9039    0.3293   -2.9598 H   0  0  0  0  0  0  0  0  0  0  0  0
   -3.2144   -1.1992   -1.8723 H   0  0  0  0  0  0  0  0  0  0  0  0
   -0.9269   -1.0266    3.3045 H   0  0  0  0  0  0  0  0  0  0  0  0
   -1.0854   -3.5154    2.2079 H   0  0  0  0  0  0  0  0  0  0  0  0
    1.4572   -4.2332    2.0977 H   0  0  0  0  0  0  0  0  0  0  0  0
    3.9848   -2.7726    2.2893 H   0  0  0  0  0  0  0  0  0  0  0  0
    4.9779   -0.4787    2.5955 H   0  0  0  0  0  0  0  0  0  0  0  0
    3.5088    1.5159    2.8054 H   0  0  0  0  0  0  0  0  0  0  0  0
    1.0141    1.2802    2.7326 H   0  0  0  0  0  0  0  0  0  0  0  0
  1 11  1  0  0  0  0
  1  4  1  1  0  0  0
  1 20  1  0  0  0  0
  2  3  1  0  0  0  0
  2 29  1  0  0  0  0
  2 30  1  0  0  0  0
  3 31  1  0  0  0  0
  4  3  2  0  0  0  0
  5 10  1  0  0  0  0
  6  7  1  0  0  0  0
  6  5  2  0  0  0  0
  7  8  2  0  0  0  0
  8 35  1  0  0  0  0
  8  9  1  0  0  0  0
  9  2  1  0  0  0  0
 10  9  2  0  0  0  0
 10  4  1  0  0  0  0
 11 36  1  6  0  0  0
 11 12  1  0  0  0  0
 12 37  1  0  0  0  0
 13 12  2  0  0  0  0
 13 38  1  0  0  0  0
 14 19  1  0  0  0  0
 14 39  1  0  0  0  0
 15 14  2  0  0  0  0
 16 17  2  0  0  0  0
 16 15  1  0  0  0  0
 17 18  1  0  0  0  0
 18 19  2  0  0  0  0
 18 11  1  0  0  0  0
 19 13  1  0  0  0  0
 20 27  1  0  0  0  0
 20 43  1  1  0  0  0
 21 20  1  0  0  0  0
 22 21  2  0  0  0  0
 22 28  1  0  0  0  0
 23 24  1  0  0  0  0
 24 47  1  0  0  0  0
 24 25  2  0  0  0  0
 25 48  1  0  0  0  0
 26 25  1  0  0  0  0
 26 49  1  0  0  0  0
 27 26  2  0  0  0  0
 28 23  2  0  0  0  0
 28 27  1  0  0  0  0
 32  5  1  0  0  0  0
 33  6  1  0  0  0  0
 34  7  1  0  0  0  0
 40 15  1  0  0  0  0
 41 16  1  0  0  0  0
 42 17  1  0  0  0  0
 44 21  1  0  0  0  0
 45 22  1  0  0  0  0
 46 23  1  0  0  0  0
M  END
