1
 OpenBabel05122313063D

 28 27  0  0  0  0  0  0  0  0999 V2000
   -2.3447    0.0762   -0.0001 P   0  0  0  0  0  0  0  0  0  0  0  0
   -3.2973   -1.3593   -0.0010 N   0  0  0  0  0  0  0  0  0  0  0  0
   -2.9326    0.8001   -1.4292 N   0  0  0  0  0  0  0  0  0  0  0  0
   -2.9337    0.7990    1.4290 N   0  0  0  0  0  0  0  0  0  0  0  0
   -3.3674   -2.1609   -1.2174 C   0  0  0  0  0  0  0  0  0  0  0  0
   -3.3678   -2.1622    1.2145 C   0  0  0  0  0  0  0  0  0  0  0  0
   -2.0511    1.4185   -2.4062 C   0  0  0  0  0  0  0  0  0  0  0  0
   -4.3484    1.0120   -1.6722 C   0  0  0  0  0  0  0  0  0  0  0  0
   -2.0531    1.4181    2.4063 C   0  0  0  0  0  0  0  0  0  0  0  0
   -4.3498    1.0084    1.6725 C   0  0  0  0  0  0  0  0  0  0  0  0
   -3.2467   -1.5132   -2.1049 H   0  0  0  0  0  0  0  0  0  0  0  0
   -4.3595   -2.6605   -1.2803 H   0  0  0  0  0  0  0  0  0  0  0  0
   -2.5695   -2.9358   -1.2441 H   0  0  0  0  0  0  0  0  0  0  0  0
   -3.2463   -1.5155    2.1027 H   0  0  0  0  0  0  0  0  0  0  0  0
   -2.5704   -2.9376    1.2402 H   0  0  0  0  0  0  0  0  0  0  0  0
   -4.3603   -2.6611    1.2772 H   0  0  0  0  0  0  0  0  0  0  0  0
   -1.0030    1.1235   -2.2107 H   0  0  0  0  0  0  0  0  0  0  0  0
   -2.0978    2.5304   -2.3767 H   0  0  0  0  0  0  0  0  0  0  0  0
   -2.3325    1.0797   -3.4294 H   0  0  0  0  0  0  0  0  0  0  0  0
   -4.9540    0.3422   -1.0344 H   0  0  0  0  0  0  0  0  0  0  0  0
   -4.5920    0.7730   -2.7320 H   0  0  0  0  0  0  0  0  0  0  0  0
   -4.6594    2.0664   -1.4836 H   0  0  0  0  0  0  0  0  0  0  0  0
   -1.0046    1.1245    2.2107 H   0  0  0  0  0  0  0  0  0  0  0  0
   -2.3342    1.0785    3.4293 H   0  0  0  0  0  0  0  0  0  0  0  0
   -2.1012    2.5299    2.3774 H   0  0  0  0  0  0  0  0  0  0  0  0
   -4.9546    0.3392    1.0333 H   0  0  0  0  0  0  0  0  0  0  0  0
   -4.6622    2.0628    1.4861 H   0  0  0  0  0  0  0  0  0  0  0  0
   -4.5932    0.7669    2.7317 H   0  0  0  0  0  0  0  0  0  0  0  0
  1  4  1  0  0  0  0
  2  1  1  0  0  0  0
  2  6  1  0  0  0  0
  3  1  1  0  0  0  0
  4 10  1  0  0  0  0
  4  9  1  0  0  0  0
  5  2  1  0  0  0  0
  6 15  1  0  0  0  0
  6 16  1  0  0  0  0
  6 14  1  0  0  0  0
  7 18  1  0  0  0  0
  7 17  1  0  0  0  0
  7  3  1  0  0  0  0
  8 22  1  0  0  0  0
  8  3  1  0  0  0  0
  8 20  1  0  0  0  0
  9 24  1  0  0  0  0
 10 28  1  0  0  0  0
 11  5  1  0  0  0  0
 12  5  1  0  0  0  0
 13  5  1  0  0  0  0
 19  7  1  0  0  0  0
 21  8  1  0  0  0  0
 23  9  1  0  0  0  0
 25  9  1  0  0  0  0
 26 10  1  0  0  0  0
 27 10  1  0  0  0  0
M  END
