1
 OpenBabel05122313063D

 12 11  0  0  0  0  0  0  0  0999 V2000
   -0.0001    2.2711    0.7048 P   0  0  0  0  0  0  0  0  0  0  0  0
    0.0002    0.9864    1.9573 C   0  0  0  0  0  3  0  0  0  0  0  0
   -0.9141    0.9370    2.5793 H   0  0  0  0  0  0  0  0  0  0  0  0
    0.9152    0.9367    2.5783 H   0  0  0  0  0  0  0  0  0  0  0  0
   -1.4136    3.4506    0.9496 C   0  0  0  0  0  0  0  0  0  0  0  0
   -1.2720    4.0464    1.8742 H   0  0  0  0  0  0  0  0  0  0  0  0
   -2.3602    2.8857    1.0287 H   0  0  0  0  0  0  0  0  0  0  0  0
   -1.4897    4.1368    0.0814 H   0  0  0  0  0  0  0  0  0  0  0  0
    1.4129    3.4513    0.9490 C   0  0  0  0  0  0  0  0  0  0  0  0
    1.2714    4.0470    1.8737 H   0  0  0  0  0  0  0  0  0  0  0  0
    1.4884    4.1374    0.0807 H   0  0  0  0  0  0  0  0  0  0  0  0
    2.3599    2.8868    1.0277 H   0  0  0  0  0  0  0  0  0  0  0  0
  1  9  1  0  0  0  0
  1  5  1  0  0  0  0
  1  2  1  0  0  0  0
  2  4  1  0  0  0  0
  2  3  1  0  0  0  0
  5  7  1  0  0  0  0
  5  6  1  0  0  0  0
  8  5  1  0  0  0  0
  9 12  1  0  0  0  0
  9 10  1  0  0  0  0
 11  9  1  0  0  0  0
M  END
