1
 OpenBabel05122313063D

 37 39  0  0  0  0  0  0  0  0999 V2000
   -2.3685    0.3450   -0.1208 P   0  0  0  0  0  0  0  0  0  0  0  0
   -2.8090    1.0770   -1.7689 C   0  0  0  0  0  0  0  0  0  0  0  0
   -2.4229    0.0952   -2.9198 C   0  0  0  0  0  0  0  0  0  0  0  0
   -1.4840    0.8946   -3.8471 C   0  0  0  0  0  0  0  0  0  0  0  0
   -0.8285    1.9254   -2.9195 C   0  0  0  0  0  0  0  0  0  0  0  0
   -1.9899    2.3746   -2.0212 C   0  0  0  0  0  0  0  0  0  0  0  0
   -3.2938   -1.2297   -0.0065 C   0  0  0  0  0  0  0  0  0  0  0  0
   -4.6784   -1.2326    0.2628 C   0  0  0  0  0  0  0  0  0  0  0  0
   -5.3808   -2.4453    0.2930 C   0  0  0  0  0  0  0  0  0  0  0  0
   -4.7098   -3.6573    0.0574 C   0  0  0  0  0  0  0  0  0  0  0  0
   -3.3308   -3.6594   -0.2040 C   0  0  0  0  0  0  0  0  0  0  0  0
   -2.6219   -2.4492   -0.2321 C   0  0  0  0  0  0  0  0  0  0  0  0
   -3.0737    1.4318    1.1700 C   0  0  0  0  0  0  0  0  0  0  0  0
   -2.6477    1.2273    2.5007 C   0  0  0  0  0  0  0  0  0  0  0  0
   -3.1753    2.0062    3.5386 C   0  0  0  0  0  0  0  0  0  0  0  0
   -4.1229    3.0044    3.2562 C   0  0  0  0  0  0  0  0  0  0  0  0
   -4.5424    3.2191    1.9347 C   0  0  0  0  0  0  0  0  0  0  0  0
   -4.0235    2.4359    0.8915 C   0  0  0  0  0  0  0  0  0  0  0  0
   -3.9010    1.2673   -1.7541 H   0  0  0  0  0  0  0  0  0  0  0  0
   -3.3190   -0.2951   -3.4383 H   0  0  0  0  0  0  0  0  0  0  0  0
   -1.8946   -0.7966   -2.5193 H   0  0  0  0  0  0  0  0  0  0  0  0
   -2.0735    1.4213   -4.6266 H   0  0  0  0  0  0  0  0  0  0  0  0
   -0.7558    0.2471   -4.3745 H   0  0  0  0  0  0  0  0  0  0  0  0
   -0.0360    1.4374   -2.3029 H   0  0  0  0  0  0  0  0  0  0  0  0
   -0.3437    2.7660   -3.4536 H   0  0  0  0  0  0  0  0  0  0  0  0
   -1.6606    2.8775   -1.0880 H   0  0  0  0  0  0  0  0  0  0  0  0
   -2.6271    3.1025   -2.5647 H   0  0  0  0  0  0  0  0  0  0  0  0
   -5.2055   -0.2863    0.4610 H   0  0  0  0  0  0  0  0  0  0  0  0
   -6.4601   -2.4453    0.5063 H   0  0  0  0  0  0  0  0  0  0  0  0
   -5.2652   -4.6066    0.0853 H   0  0  0  0  0  0  0  0  0  0  0  0
   -2.8026   -4.6083   -0.3802 H   0  0  0  0  0  0  0  0  0  0  0  0
   -1.5365   -2.4501   -0.4267 H   0  0  0  0  0  0  0  0  0  0  0  0
   -1.8998    0.4488    2.7240 H   0  0  0  0  0  0  0  0  0  0  0  0
   -2.8415    1.8377    4.5732 H   0  0  0  0  0  0  0  0  0  0  0  0
   -4.5327    3.6204    4.0705 H   0  0  0  0  0  0  0  0  0  0  0  0
   -5.2813    4.0027    1.7103 H   0  0  0  0  0  0  0  0  0  0  0  0
   -4.3634    2.6187   -0.1382 H   0  0  0  0  0  0  0  0  0  0  0  0
  1  7  1  0  0  0  0
  1 13  1  0  0  0  0
  2 19  1  0  0  0  0
  2  1  1  0  0  0  0
  3 21  1  0  0  0  0
  3  2  1  0  0  0  0
  4  3  1  0  0  0  0
  4  5  1  0  0  0  0
  5 24  1  0  0  0  0
  5  6  1  0  0  0  0
  6  2  1  0  0  0  0
  6 26  1  0  0  0  0
  7  8  1  0  0  0  0
  8  9  2  0  0  0  0
  8 28  1  0  0  0  0
  9 29  1  0  0  0  0
 10 30  1  0  0  0  0
 10  9  1  0  0  0  0
 11 10  2  0  0  0  0
 12 11  1  0  0  0  0
 12  7  2  0  0  0  0
 13 14  1  0  0  0  0
 14 33  1  0  0  0  0
 14 15  2  0  0  0  0
 15 34  1  0  0  0  0
 16 15  1  0  0  0  0
 16 35  1  0  0  0  0
 17 16  2  0  0  0  0
 18 13  2  0  0  0  0
 18 17  1  0  0  0  0
 20  3  1  0  0  0  0
 22  4  1  0  0  0  0
 23  4  1  0  0  0  0
 25  5  1  0  0  0  0
 27  6  1  0  0  0  0
 31 11  1  0  0  0  0
 32 12  1  0  0  0  0
 36 17  1  0  0  0  0
 37 18  1  0  0  0  0
M  END
