1
 OpenBabel05122313063D

 34 33  0  0  1  0  0  0  0  0999 V2000
   -2.2630    0.2987   -0.0040 P   0  0  0  0  0  0  0  0  0  0  0  0
   -3.0854   -2.7650    2.5648 O   0  0  0  0  0  0  0  0  0  0  0  0
   -3.9876   -3.0283    2.3066 H   0  0  0  0  0  0  0  0  0  0  0  0
   -1.8361   -2.2908   -1.6849 O   0  0  0  0  0  0  0  0  0  0  0  0
   -0.8719   -2.4717   -1.7538 H   0  0  0  0  0  0  0  0  0  0  0  0
   -1.5501    2.5832   -1.9789 O   0  0  0  0  0  0  0  0  0  0  0  0
   -2.2465    3.0460   -2.4785 H   0  0  0  0  0  0  0  0  0  0  0  0
   -3.0412   -0.5766    1.4443 C   0  0  1  0  0  0  0  0  0  0  0  0
   -4.1381   -0.6019    1.2615 H   0  0  0  0  0  0  0  0  0  0  0  0
   -2.5210   -2.0352    1.4971 C   0  0  0  0  0  0  0  0  0  0  0  0
   -2.6486   -2.5303    0.5088 H   0  0  0  0  0  0  0  0  0  0  0  0
   -1.4233   -1.9946    1.6839 H   0  0  0  0  0  0  0  0  0  0  0  0
   -2.7505    0.1503    2.7626 C   0  0  0  0  0  0  0  0  0  0  0  0
   -3.3262    1.0893    2.8724 H   0  0  0  0  0  0  0  0  0  0  0  0
   -1.6694    0.3849    2.8701 H   0  0  0  0  0  0  0  0  0  0  0  0
   -3.0356   -0.5254    3.5927 H   0  0  0  0  0  0  0  0  0  0  0  0
   -3.0903   -0.2241   -1.6087 C   0  0  1  0  0  0  0  0  0  0  0  0
   -3.1796    0.7326   -2.1622 H   0  0  0  0  0  0  0  0  0  0  0  0
   -2.1266   -1.1119   -2.4068 C   0  0  0  0  0  0  0  0  0  0  0  0
   -2.6093   -1.3519   -3.3858 H   0  0  0  0  0  0  0  0  0  0  0  0
   -1.2075   -0.5218   -2.6281 H   0  0  0  0  0  0  0  0  0  0  0  0
   -4.4701   -0.8619   -1.4272 C   0  0  0  0  0  0  0  0  0  0  0  0
   -5.1687   -0.2133   -0.8641 H   0  0  0  0  0  0  0  0  0  0  0  0
   -4.4005   -1.8391   -0.9117 H   0  0  0  0  0  0  0  0  0  0  0  0
   -4.9208   -1.0495   -2.4231 H   0  0  0  0  0  0  0  0  0  0  0  0
   -2.6378    2.1193    0.2140 C   0  0  1  0  0  0  0  0  0  0  0  0
   -2.3919    2.3115    1.2803 H   0  0  0  0  0  0  0  0  0  0  0  0
   -1.6441    2.9612   -0.6088 C   0  0  0  0  0  0  0  0  0  0  0  0
   -1.9115    4.0377   -0.4986 H   0  0  0  0  0  0  0  0  0  0  0  0
   -0.6260    2.8371   -0.1867 H   0  0  0  0  0  0  0  0  0  0  0  0
   -4.1083    2.4710   -0.0331 C   0  0  0  0  0  0  0  0  0  0  0  0
   -4.7944    1.8720    0.5980 H   0  0  0  0  0  0  0  0  0  0  0  0
   -4.4043    2.3147   -1.0903 H   0  0  0  0  0  0  0  0  0  0  0  0
   -4.2884    3.5388    0.2081 H   0  0  0  0  0  0  0  0  0  0  0  0
  1 26  1  0  0  0  0
  1  8  1  0  0  0  0
  3  2  1  0  0  0  0
  5  4  1  0  0  0  0
  6 28  1  0  0  0  0
  7  6  1  0  0  0  0
  8  9  1  6  0  0  0
  8 10  1  0  0  0  0
  8 13  1  0  0  0  0
 10 12  1  0  0  0  0
 10  2  1  0  0  0  0
 11 10  1  0  0  0  0
 13 15  1  0  0  0  0
 13 14  1  0  0  0  0
 13 16  1  0  0  0  0
 17 18  1  6  0  0  0
 17 22  1  0  0  0  0
 17  1  1  0  0  0  0
 19  4  1  0  0  0  0
 19 17  1  0  0  0  0
 20 19  1  0  0  0  0
 21 19  1  0  0  0  0
 22 24  1  0  0  0  0
 22 23  1  0  0  0  0
 25 22  1  0  0  0  0
 26 27  1  1  0  0  0
 28 29  1  0  0  0  0
 28 30  1  0  0  0  0
 28 26  1  0  0  0  0
 31 34  1  0  0  0  0
 31 26  1  0  0  0  0
 31 32  1  0  0  0  0
 33 31  1  0  0  0  0
M  END
