1
 OpenBabel05122313063D

 16 15  0  0  0  0  0  0  0  0999 V2000
   -2.6622    0.5674    0.4925 P   0  0  0  0  0  0  0  0  0  0  0  0
   -4.1532    0.1939   -0.5536 C   0  0  0  0  0  0  0  0  0  0  0  0
   -3.9335    0.4820   -2.0376 C   0  0  0  0  0  0  0  0  0  0  0  0
   -3.2185   -0.0148    2.1628 C   0  0  0  0  0  0  0  0  0  0  0  0
   -2.2678    0.4213    3.2784 C   0  0  0  0  0  0  0  0  0  0  0  0
   -3.0384    2.1945    0.7315 F   0  0  0  0  0  0  0  0  0  0  0  0
   -4.9890    0.7929   -0.1346 H   0  0  0  0  0  0  0  0  0  0  0  0
   -4.4052   -0.8735   -0.3848 H   0  0  0  0  0  0  0  0  0  0  0  0
   -4.8306    0.2237   -2.6359 H   0  0  0  0  0  0  0  0  0  0  0  0
   -3.0712   -0.0948   -2.4292 H   0  0  0  0  0  0  0  0  0  0  0  0
   -3.7110    1.5541   -2.2089 H   0  0  0  0  0  0  0  0  0  0  0  0
   -3.2682   -1.1233    2.1028 H   0  0  0  0  0  0  0  0  0  0  0  0
   -4.2535    0.3519    2.3314 H   0  0  0  0  0  0  0  0  0  0  0  0
   -2.5799    0.0047    4.2573 H   0  0  0  0  0  0  0  0  0  0  0  0
   -2.2445    1.5253    3.3711 H   0  0  0  0  0  0  0  0  0  0  0  0
   -1.2346    0.0832    3.0586 H   0  0  0  0  0  0  0  0  0  0  0  0
  1  6  1  0  0  0  0
  1  4  1  0  0  0  0
  2  8  1  0  0  0  0
  2  7  1  0  0  0  0
  2  1  1  0  0  0  0
  3  2  1  0  0  0  0
  4 13  1  0  0  0  0
  4  5  1  0  0  0  0
  5 15  1  0  0  0  0
  5 14  1  0  0  0  0
  9  3  1  0  0  0  0
 10  3  1  0  0  0  0
 11  3  1  0  0  0  0
 12  4  1  0  0  0  0
 16  5  1  0  0  0  0
M  END
