1
 OpenBabel05122313063D

 32 34  0  0  0  0  0  0  0  0999 V2000
    0.2730   -0.4642    0.0173 P   0  0  0  0  0  0  0  0  0  0  0  0
   -0.8107    3.2929    0.8033 C   0  0  0  0  0  0  0  0  0  0  0  0
   -1.7041    3.0604    1.4021 H   0  0  0  0  0  0  0  0  0  0  0  0
   -2.8596   -0.5277   -0.0381 C   0  0  0  0  0  0  0  0  0  0  0  0
   -0.2294   -3.1143   -0.0483 O   0  0  0  0  0  0  0  0  0  0  0  0
    0.7511   -3.0392   -0.0496 H   0  0  0  0  0  0  0  0  0  0  0  0
   -0.7999    0.9166   -0.0125 C   0  0  0  0  0  0  0  0  0  0  0  0
   -2.1630   -1.7554   -0.0433 C   0  0  0  0  0  0  0  0  0  0  0  0
   -2.7311   -2.6974   -0.0929 H   0  0  0  0  0  0  0  0  0  0  0  0
   -4.3464   -0.5453   -0.0568 C   0  0  0  0  0  0  0  0  0  0  0  0
   -0.2090    2.2761    0.0256 C   0  0  0  0  0  0  0  0  0  0  0  0
   -6.4762    0.3985   -0.8093 C   0  0  0  0  0  0  0  0  0  0  0  0
   -7.0235    1.1495   -1.3989 H   0  0  0  0  0  0  0  0  0  0  0  0
   -7.1791   -0.5799   -0.0884 C   0  0  0  0  0  0  0  0  0  0  0  0
   -8.2793   -0.5933   -0.1007 H   0  0  0  0  0  0  0  0  0  0  0  0
    0.9088    4.8733    0.1234 C   0  0  0  0  0  0  0  0  0  0  0  0
    1.3449    5.8827    0.1638 H   0  0  0  0  0  0  0  0  0  0  0  0
   -0.7674   -1.8773   -0.0311 C   0  0  0  0  0  0  0  0  0  0  0  0
   -5.0754    0.4174   -0.7923 C   0  0  0  0  0  0  0  0  0  0  0  0
   -4.5354    1.1710   -1.3851 H   0  0  0  0  0  0  0  0  0  0  0  0
   -2.1899    0.7194   -0.0231 C   0  0  0  0  0  0  0  0  0  0  0  0
   -2.8128    1.6273   -0.0215 H   0  0  0  0  0  0  0  0  0  0  0  0
   -5.0679   -1.5263    0.6616 C   0  0  0  0  0  0  0  0  0  0  0  0
   -4.5224   -2.2682    1.2639 H   0  0  0  0  0  0  0  0  0  0  0  0
   -0.2570    4.5786    0.8489 C   0  0  0  0  0  0  0  0  0  0  0  0
   -0.7333    5.3543    1.4674 H   0  0  0  0  0  0  0  0  0  0  0  0
   -6.4688   -1.5415    0.6477 C   0  0  0  0  0  0  0  0  0  0  0  0
   -7.0105   -2.3066    1.2240 H   0  0  0  0  0  0  0  0  0  0  0  0
    0.9637    2.5865   -0.7016 C   0  0  0  0  0  0  0  0  0  0  0  0
    1.4351    1.8152   -1.3301 H   0  0  0  0  0  0  0  0  0  0  0  0
    1.5168    3.8726   -0.6506 C   0  0  0  0  0  0  0  0  0  0  0  0
    2.4278    4.0939   -1.2264 H   0  0  0  0  0  0  0  0  0  0  0  0
  2 25  1  0  0  0  0
  2  3  1  0  0  0  0
  4 21  2  0  0  0  0
  5 18  1  0  0  0  0
  6  5  1  0  0  0  0
  7  1  2  0  0  0  0
  7 11  1  0  0  0  0
  8  4  1  0  0  0  0
  8 18  2  0  0  0  0
  9  8  1  0  0  0  0
 10  4  1  0  0  0  0
 10 23  1  0  0  0  0
 11  2  2  0  0  0  0
 12 19  1  0  0  0  0
 12 14  2  0  0  0  0
 13 12  1  0  0  0  0
 14 27  1  0  0  0  0
 15 14  1  0  0  0  0
 16 17  1  0  0  0  0
 16 25  2  0  0  0  0
 18  1  1  0  0  0  0
 19 10  2  0  0  0  0
 20 19  1  0  0  0  0
 21 22  1  0  0  0  0
 21  7  1  0  0  0  0
 23 24  1  0  0  0  0
 25 26  1  0  0  0  0
 27 23  2  0  0  0  0
 27 28  1  0  0  0  0
 29 31  2  0  0  0  0
 29 11  1  0  0  0  0
 30 29  1  0  0  0  0
 31 16  1  0  0  0  0
 32 31  1  0  0  0  0
M  END
