1
 OpenBabel05122313063D

 31 33  0  0  0  0  0  0  0  0999 V2000
    1.7647   -0.2536   -1.7432 P   0  0  0  0  0  2  0  0  0  0  0  0
    2.1391   -2.9374   -1.6719 O   0  0  0  0  0  0  0  0  0  0  0  0
    2.6413    0.9721   -0.7583 C   0  0  0  0  0  0  0  0  0  0  0  0
    5.9397   -0.6575    0.2773 C   0  0  0  0  0  0  0  0  0  0  0  0
    4.5729   -0.5673   -0.3099 C   0  0  0  0  0  0  0  0  0  0  0  0
    3.9041    0.7080   -0.2558 C   0  0  0  0  0  0  0  0  0  0  0  0
    4.4614    1.5440    0.1961 H   0  0  0  0  0  0  0  0  0  0  0  0
    2.1428    2.9839    0.6690 C   0  0  0  0  0  0  0  0  0  0  0  0
    2.7364    2.5250    1.4738 H   0  0  0  0  0  0  0  0  0  0  0  0
    1.9978    2.2922   -0.5575 C   0  0  0  0  0  0  0  0  0  0  0  0
    6.9325   -1.4658   -0.3226 C   0  0  0  0  0  0  0  0  0  0  0  0
    6.6941   -2.0035   -1.2525 H   0  0  0  0  0  0  0  0  0  0  0  0
    4.0033   -1.7170   -0.8444 C   0  0  0  0  0  0  0  0  0  0  0  0
    4.5335   -2.6780   -0.7353 H   0  0  0  0  0  0  0  0  0  0  0  0
    2.6604   -1.8527   -1.3935 C   0  0  0  0  0  0  0  0  0  0  0  0
    6.2814    0.0529    1.4512 C   0  0  0  0  0  0  0  0  0  0  0  0
    5.5203    0.6721    1.9492 H   0  0  0  0  0  0  0  0  0  0  0  0
    1.1889    2.8807   -1.5600 C   0  0  0  0  0  0  0  0  0  0  0  0
    1.0734    2.3592   -2.5229 H   0  0  0  0  0  0  0  0  0  0  0  0
    8.2157   -1.5636    0.2317 C   0  0  0  0  0  0  0  0  0  0  0  0
    8.9748   -2.1911   -0.2599 H   0  0  0  0  0  0  0  0  0  0  0  0
    7.5629   -0.0492    2.0095 C   0  0  0  0  0  0  0  0  0  0  0  0
    7.8011    0.5031    2.9316 H   0  0  0  0  0  0  0  0  0  0  0  0
    8.5371   -0.8568    1.4016 C   0  0  0  0  0  0  0  0  0  0  0  0
    9.5451   -0.9329    1.8369 H   0  0  0  0  0  0  0  0  0  0  0  0
    0.5610    4.1149   -1.3485 C   0  0  0  0  0  0  0  0  0  0  0  0
   -0.0564    4.5548   -2.1464 H   0  0  0  0  0  0  0  0  0  0  0  0
    1.5181    4.2218    0.8780 C   0  0  0  0  0  0  0  0  0  0  0  0
    1.6465    4.7399    1.8412 H   0  0  0  0  0  0  0  0  0  0  0  0
    0.7263    4.7954   -0.1306 C   0  0  0  0  0  0  0  0  0  0  0  0
    0.2387    5.7689    0.0310 H   0  0  0  0  0  0  0  0  0  0  0  0
  1 15  1  0  0  0  0
  1  3  1  0  0  0  0
  2 15  2  0  0  0  0
  3 10  1  0  0  0  0
  3  6  2  0  0  0  0
  4 16  1  0  0  0  0
  5  6  1  0  0  0  0
  5  4  1  0  0  0  0
  6  7  1  0  0  0  0
  8 28  1  0  0  0  0
  8  9  1  0  0  0  0
 10  8  2  0  0  0  0
 11 20  1  0  0  0  0
 11  4  2  0  0  0  0
 12 11  1  0  0  0  0
 13 14  1  0  0  0  0
 13  5  2  0  0  0  0
 15 13  1  0  0  0  0
 16 17  1  0  0  0  0
 16 22  2  0  0  0  0
 18 26  2  0  0  0  0
 18 10  1  0  0  0  0
 19 18  1  0  0  0  0
 20 24  2  0  0  0  0
 21 20  1  0  0  0  0
 22 23  1  0  0  0  0
 24 25  1  0  0  0  0
 24 22  1  0  0  0  0
 26 30  1  0  0  0  0
 27 26  1  0  0  0  0
 28 29  1  0  0  0  0
 30 31  1  0  0  0  0
 30 28  2  0  0  0  0
M  END
