1
 OpenBabel05122313063D

 64 68  0  0  0  0  0  0  0  0999 V2000
    0.9539    0.1331    0.6911 P   0  0  0  0  0  0  0  0  0  0  0  0
   -2.0567    0.2811    0.9789 P   0  0  0  0  0  0  0  0  0  0  0  0
   -0.6144   -0.1547    0.0205 N   0  0  0  0  0  0  0  0  0  0  0  0
   -0.7957    0.1498   -2.4418 C   0  0  0  0  0  0  0  0  0  0  0  0
    2.4757   -0.8801    2.7707 C   0  0  0  0  0  0  0  0  0  0  0  0
    3.2855   -0.3166    2.2792 H   0  0  0  0  0  0  0  0  0  0  0  0
   -3.1681   -1.1695    0.7031 C   0  0  0  0  0  0  0  0  0  0  0  0
    0.9296    1.8496    1.3467 C   0  0  0  0  0  0  0  0  0  0  0  0
    1.3071    4.2247    0.9547 C   0  0  0  0  0  0  0  0  0  0  0  0
    1.6656    5.0357    0.3032 H   0  0  0  0  0  0  0  0  0  0  0  0
   -0.9519   -0.4396   -3.7136 C   0  0  0  0  0  0  0  0  0  0  0  0
   -1.0547    0.2180   -4.5910 H   0  0  0  0  0  0  0  0  0  0  0  0
   -0.6984    1.6494   -2.3471 C   0  0  0  0  0  0  0  0  0  0  0  0
   -1.6617    2.1416   -2.5918 H   0  0  0  0  0  0  0  0  0  0  0  0
    0.0586    2.0198   -3.0680 H   0  0  0  0  0  0  0  0  0  0  0  0
   -0.4058    1.9822   -1.3385 H   0  0  0  0  0  0  0  0  0  0  0  0
    1.1795   -0.8731    2.2126 C   0  0  0  0  0  0  0  0  0  0  0  0
    0.4193    2.1448    2.6283 C   0  0  0  0  0  0  0  0  0  0  0  0
    0.0725    1.3303    3.2808 H   0  0  0  0  0  0  0  0  0  0  0  0
   -0.9403   -1.8275   -3.8786 C   0  0  0  0  0  0  0  0  0  0  0  0
   -1.0573   -2.2659   -4.8812 H   0  0  0  0  0  0  0  0  0  0  0  0
   -0.5920   -2.1187   -1.4777 C   0  0  0  0  0  0  0  0  0  0  0  0
   -2.8797    4.0606   -0.3808 C   0  0  0  0  0  0  0  0  0  0  0  0
   -2.4478    5.0553   -0.1925 H   0  0  0  0  0  0  0  0  0  0  0  0
    2.7362   -1.6128    3.9362 C   0  0  0  0  0  0  0  0  0  0  0  0
    3.7501   -1.6147    4.3636 H   0  0  0  0  0  0  0  0  0  0  0  0
    1.3898    2.8942    0.5188 C   0  0  0  0  0  0  0  0  0  0  0  0
    1.8191    2.6541   -0.4670 H   0  0  0  0  0  0  0  0  0  0  0  0
    0.1558   -1.6191    2.8238 C   0  0  0  0  0  0  0  0  0  0  0  0
   -0.8532   -1.6292    2.3904 H   0  0  0  0  0  0  0  0  0  0  0  0
   -2.3455    2.9403    0.2680 C   0  0  0  0  0  0  0  0  0  0  0  0
   -1.5031    3.0676    0.9637 H   0  0  0  0  0  0  0  0  0  0  0  0
   -0.7378   -2.6571   -2.7676 C   0  0  0  0  0  0  0  0  0  0  0  0
   -0.6840   -3.7491   -2.8963 H   0  0  0  0  0  0  0  0  0  0  0  0
    0.7799    4.5174    2.2233 C   0  0  0  0  0  0  0  0  0  0  0  0
    0.7185    5.5615    2.5663 H   0  0  0  0  0  0  0  0  0  0  0  0
   -0.6692   -0.7060   -1.3171 C   0  0  0  0  0  0  0  0  0  0  0  0
   -3.9802    1.5161   -0.8269 C   0  0  0  0  0  0  0  0  0  0  0  0
   -4.4374    0.5315   -0.9931 H   0  0  0  0  0  0  0  0  0  0  0  0
   -3.5450   -1.7047   -0.5511 C   0  0  0  0  0  0  0  0  0  0  0  0
   -3.1963   -1.2395   -1.4826 H   0  0  0  0  0  0  0  0  0  0  0  0
   -3.6334   -1.8033    1.8773 C   0  0  0  0  0  0  0  0  0  0  0  0
   -3.3499   -1.3892    2.8585 H   0  0  0  0  0  0  0  0  0  0  0  0
   -2.8690    1.6477    0.0309 C   0  0  0  0  0  0  0  0  0  0  0  0
    1.7097   -2.3523    4.5476 C   0  0  0  0  0  0  0  0  0  0  0  0
    1.9168   -2.9336    5.4589 H   0  0  0  0  0  0  0  0  0  0  0  0
   -0.3361   -3.0292   -0.3082 C   0  0  0  0  0  0  0  0  0  0  0  0
   -0.3331   -4.0874   -0.6303 H   0  0  0  0  0  0  0  0  0  0  0  0
   -1.1031   -2.9122    0.4824 H   0  0  0  0  0  0  0  0  0  0  0  0
    0.6483   -2.8171    0.1587 H   0  0  0  0  0  0  0  0  0  0  0  0
    0.3448    3.4768    3.0614 C   0  0  0  0  0  0  0  0  0  0  0  0
   -0.0579    3.7038    4.0601 H   0  0  0  0  0  0  0  0  0  0  0  0
   -4.4444   -2.9464    1.8074 C   0  0  0  0  0  0  0  0  0  0  0  0
   -4.7969   -3.4269    2.7328 H   0  0  0  0  0  0  0  0  0  0  0  0
    0.4231   -2.3565    3.9880 C   0  0  0  0  0  0  0  0  0  0  0  0
   -0.3832   -2.9408    4.4569 H   0  0  0  0  0  0  0  0  0  0  0  0
   -3.9645    3.9130   -1.2609 C   0  0  0  0  0  0  0  0  0  0  0  0
   -4.3873    4.7918   -1.7713 H   0  0  0  0  0  0  0  0  0  0  0  0
   -4.5194    2.6410   -1.4713 C   0  0  0  0  0  0  0  0  0  0  0  0
   -5.3828    2.5201   -2.1434 H   0  0  0  0  0  0  0  0  0  0  0  0
   -4.3495   -2.8514   -0.6182 C   0  0  0  0  0  0  0  0  0  0  0  0
   -4.6238   -3.2628   -1.6016 H   0  0  0  0  0  0  0  0  0  0  0  0
   -4.7985   -3.4757    0.5571 C   0  0  0  0  0  0  0  0  0  0  0  0
   -5.4275   -4.3769    0.4970 H   0  0  0  0  0  0  0  0  0  0  0  0
  1  8  1  0  0  0  0
  1 17  1  0  0  0  0
  3  1  1  0  0  0  0
  3  2  1  0  0  0  0
  4 13  1  0  0  0  0
  4 37  1  0  0  0  0
  5 25  1  0  0  0  0
  6  5  1  0  0  0  0
  7  2  1  0  0  0  0
  7 42  1  0  0  0  0
  8 18  1  0  0  0  0
  9 35  2  0  0  0  0
 10  9  1  0  0  0  0
 11  4  2  0  0  0  0
 12 11  1  0  0  0  0
 13 16  1  0  0  0  0
 14 13  1  0  0  0  0
 15 13  1  0  0  0  0
 17  5  2  0  0  0  0
 17 29  1  0  0  0  0
 18 51  2  0  0  0  0
 18 19  1  0  0  0  0
 20 11  1  0  0  0  0
 20 33  2  0  0  0  0
 21 20  1  0  0  0  0
 22 37  2  0  0  0  0
 22 47  1  0  0  0  0
 23 24  1  0  0  0  0
 23 31  1  0  0  0  0
 25 26  1  0  0  0  0
 25 45  2  0  0  0  0
 27  9  1  0  0  0  0
 27  8  2  0  0  0  0
 28 27  1  0  0  0  0
 29 55  2  0  0  0  0
 30 29  1  0  0  0  0
 31 32  1  0  0  0  0
 33 22  1  0  0  0  0
 34 33  1  0  0  0  0
 35 36  1  0  0  0  0
 35 51  1  0  0  0  0
 37  3  1  0  0  0  0
 38 44  1  0  0  0  0
 39 38  1  0  0  0  0
 40  7  2  0  0  0  0
 41 40  1  0  0  0  0
 42 43  1  0  0  0  0
 44 31  2  0  0  0  0
 44  2  1  0  0  0  0
 45 46  1  0  0  0  0
 47 50  1  0  0  0  0
 47 49  1  0  0  0  0
 48 47  1  0  0  0  0
 51 52  1  0  0  0  0
 53 42  2  0  0  0  0
 53 54  1  0  0  0  0
 55 56  1  0  0  0  0
 55 45  1  0  0  0  0
 57 23  2  0  0  0  0
 58 57  1  0  0  0  0
 59 57  1  0  0  0  0
 59 38  2  0  0  0  0
 60 59  1  0  0  0  0
 61 40  1  0  0  0  0
 61 63  2  0  0  0  0
 62 61  1  0  0  0  0
 63 53  1  0  0  0  0
 64 63  1  0  0  0  0
M  END
