1
 OpenBabel05122313063D

 32 31  0  0  0  0  0  0  0  0999 V2000
   -1.2114    1.9396   -0.3721 P   0  0  0  0  0  0  0  0  0  0  0  0
   -3.5287    0.7114    2.7437 O   0  0  0  0  0  0  0  0  0  0  0  0
   -2.6881    1.4574    0.6514 C   0  0  0  0  0  0  0  0  0  0  0  0
   -2.4635    1.4373    2.1560 C   0  0  0  0  0  0  0  0  0  0  0  0
   -3.4043    0.6161    4.1405 C   0  0  0  0  0  0  0  0  0  0  0  0
   -2.0559    2.1528   -2.0407 C   0  0  0  0  0  0  0  0  0  0  0  0
   -1.1168    2.7189   -3.1114 C   0  0  0  0  0  0  0  0  0  0  0  0
   -2.7066    0.8431   -2.5068 C   0  0  0  0  0  0  0  0  0  0  0  0
   -0.8576    3.6777    0.2692 C   0  0  0  0  0  0  0  0  0  0  0  0
    0.4612    4.2698   -0.2366 C   0  0  0  0  0  0  0  0  0  0  0  0
   -2.0304    4.6487    0.1045 C   0  0  0  0  0  0  0  0  0  0  0  0
   -2.9512    0.4264    0.3447 H   0  0  0  0  0  0  0  0  0  0  0  0
   -3.5450    2.1102    0.3852 H   0  0  0  0  0  0  0  0  0  0  0  0
   -1.4797    0.9705    2.4003 H   0  0  0  0  0  0  0  0  0  0  0  0
   -2.4265    2.4766    2.5715 H   0  0  0  0  0  0  0  0  0  0  0  0
   -4.2633    0.0272    4.5180 H   0  0  0  0  0  0  0  0  0  0  0  0
   -2.4580    0.1042    4.4462 H   0  0  0  0  0  0  0  0  0  0  0  0
   -3.4158    1.6185    4.6370 H   0  0  0  0  0  0  0  0  0  0  0  0
   -2.8596    2.8955   -1.8378 H   0  0  0  0  0  0  0  0  0  0  0  0
   -0.6916    3.7011   -2.8276 H   0  0  0  0  0  0  0  0  0  0  0  0
   -0.2887    2.0099   -3.3091 H   0  0  0  0  0  0  0  0  0  0  0  0
   -1.6742    2.8603   -4.0609 H   0  0  0  0  0  0  0  0  0  0  0  0
   -3.4363    0.4404   -1.7791 H   0  0  0  0  0  0  0  0  0  0  0  0
   -3.2498    1.0199   -3.4586 H   0  0  0  0  0  0  0  0  0  0  0  0
   -1.9378    0.0684   -2.6898 H   0  0  0  0  0  0  0  0  0  0  0  0
   -0.7088    3.4613    1.3494 H   0  0  0  0  0  0  0  0  0  0  0  0
    1.2991    3.5662   -0.0778 H   0  0  0  0  0  0  0  0  0  0  0  0
    0.4162    4.5361   -1.3121 H   0  0  0  0  0  0  0  0  0  0  0  0
    0.6847    5.2037    0.3203 H   0  0  0  0  0  0  0  0  0  0  0  0
   -2.9817    4.2489    0.5082 H   0  0  0  0  0  0  0  0  0  0  0  0
   -1.8137    5.5929    0.6467 H   0  0  0  0  0  0  0  0  0  0  0  0
   -2.1962    4.9171   -0.9594 H   0  0  0  0  0  0  0  0  0  0  0  0
  1  9  1  0  0  0  0
  1  3  1  0  0  0  0
  2  5  1  0  0  0  0
  3  4  1  0  0  0  0
  4 14  1  0  0  0  0
  4 15  1  0  0  0  0
  4  2  1  0  0  0  0
  5 17  1  0  0  0  0
  5 16  1  0  0  0  0
  5 18  1  0  0  0  0
  6 19  1  0  0  0  0
  6  1  1  0  0  0  0
  7 20  1  0  0  0  0
  7  6  1  0  0  0  0
  8  6  1  0  0  0  0
  8 23  1  0  0  0  0
  9 26  1  0  0  0  0
 10 27  1  0  0  0  0
 10  9  1  0  0  0  0
 10 29  1  0  0  0  0
 11  9  1  0  0  0  0
 11 30  1  0  0  0  0
 11 31  1  0  0  0  0
 12  3  1  0  0  0  0
 13  3  1  0  0  0  0
 21  7  1  0  0  0  0
 22  7  1  0  0  0  0
 24  8  1  0  0  0  0
 25  8  1  0  0  0  0
 28 10  1  0  0  0  0
 32 11  1  0  0  0  0
M  END
