1
 OpenBabel05122313063D

 74 75  0  0  1  0  0  0  0  0999 V2000
    1.3681    0.1194    0.5734 P   0  0  0  0  0  2  0  0  0  0  0  0
    0.0313   -0.0121    2.1302 P   0  0  0  0  0  2  0  0  0  0  0  0
    3.0967    0.1516    1.4214 C   0  0  2  0  0  0  0  0  0  0  0  0
    3.8323    1.1531    0.5677 C   0  0  0  0  0  0  0  0  0  0  0  0
    4.5978    0.4592   -0.3440 C   0  0  0  0  0  0  0  0  0  0  0  0
    4.4684   -0.9854   -0.0965 C   0  0  0  0  0  0  0  0  0  0  0  0
    3.6101   -1.1954    0.9626 C   0  0  0  0  0  0  0  0  0  0  0  0
    3.0896    0.4109    2.9245 C   0  0  0  0  0  0  0  0  0  0  0  0
    3.6678    2.6291    0.7348 C   0  0  0  0  0  0  0  0  0  0  0  0
    5.4332    1.0181   -1.4523 C   0  0  0  0  0  0  0  0  0  0  0  0
    5.1935   -2.0180   -0.8999 C   0  0  0  0  0  0  0  0  0  0  0  0
    3.2359   -2.4783    1.6326 C   0  0  0  0  0  0  0  0  0  0  0  0
   -1.5953   -0.0427    1.2130 C   0  0  0  0  0  0  0  0  0  0  0  0
   -2.2962    1.1855    0.9503 C   0  0  0  0  0  0  0  0  0  0  0  0
   -3.4818    1.1222    0.1910 C   0  0  0  0  0  0  0  0  0  0  0  0
   -4.0245   -0.0708   -0.2941 C   0  0  0  0  0  0  0  0  0  0  0  0
   -3.3684   -1.2573    0.0603 C   0  0  0  0  0  0  0  0  0  0  0  0
   -2.1804   -1.2973    0.8091 C   0  0  0  0  0  0  0  0  0  0  0  0
   -1.8552    2.6057    1.4234 C   0  0  0  0  0  0  0  0  0  0  0  0
   -1.4414    2.6186    2.9111 C   0  0  0  0  0  0  0  0  0  0  0  0
   -3.0094    3.6308    1.3121 C   0  0  0  0  0  0  0  0  0  0  0  0
   -0.7086    3.1363    0.5314 C   0  0  0  0  0  0  0  0  0  0  0  0
   -5.2992   -0.1233   -1.1520 C   0  0  0  0  0  0  0  0  0  0  0  0
   -4.9925   -0.8644   -2.4734 C   0  0  0  0  0  0  0  0  0  0  0  0
   -6.3986   -0.8828   -0.3748 C   0  0  0  0  0  0  0  0  0  0  0  0
   -5.8232    1.2816   -1.4959 C   0  0  0  0  0  0  0  0  0  0  0  0
   -1.6060   -2.7126    1.1252 C   0  0  0  0  0  0  0  0  0  0  0  0
   -2.6609   -3.8225    0.9029 C   0  0  0  0  0  0  0  0  0  0  0  0
   -1.1801   -2.8468    2.6032 C   0  0  0  0  0  0  0  0  0  0  0  0
   -0.4245   -3.0320    0.1803 C   0  0  0  0  0  0  0  0  0  0  0  0
    4.1352    0.4048    3.2970 H   0  0  0  0  0  0  0  0  0  0  0  0
    2.6383    1.3931    3.1656 H   0  0  0  0  0  0  0  0  0  0  0  0
    2.5208   -0.3627    3.4754 H   0  0  0  0  0  0  0  0  0  0  0  0
    4.1251    3.1924   -0.1001 H   0  0  0  0  0  0  0  0  0  0  0  0
    2.5963    2.9193    0.7823 H   0  0  0  0  0  0  0  0  0  0  0  0
    4.1339    2.9863    1.6797 H   0  0  0  0  0  0  0  0  0  0  0  0
    5.0817    0.6447   -2.4381 H   0  0  0  0  0  0  0  0  0  0  0  0
    5.4023    2.1230   -1.4842 H   0  0  0  0  0  0  0  0  0  0  0  0
    6.4952    0.7066   -1.3586 H   0  0  0  0  0  0  0  0  0  0  0  0
    4.9462   -3.0464   -0.5762 H   0  0  0  0  0  0  0  0  0  0  0  0
    4.9444   -1.9376   -1.9788 H   0  0  0  0  0  0  0  0  0  0  0  0
    6.2943   -1.8912   -0.8179 H   0  0  0  0  0  0  0  0  0  0  0  0
    2.1635   -2.4893    1.9179 H   0  0  0  0  0  0  0  0  0  0  0  0
    3.4196   -3.3543    0.9809 H   0  0  0  0  0  0  0  0  0  0  0  0
    3.8161   -2.6315    2.5698 H   0  0  0  0  0  0  0  0  0  0  0  0
   -3.9998    2.0559   -0.0410 H   0  0  0  0  0  0  0  0  0  0  0  0
   -3.8075   -2.2030   -0.2753 H   0  0  0  0  0  0  0  0  0  0  0  0
   -0.5400    2.0054    3.1178 H   0  0  0  0  0  0  0  0  0  0  0  0
   -1.2038    3.6554    3.2261 H   0  0  0  0  0  0  0  0  0  0  0  0
   -2.2599    2.2374    3.5548 H   0  0  0  0  0  0  0  0  0  0  0  0
   -3.2977    3.8406    0.2634 H   0  0  0  0  0  0  0  0  0  0  0  0
   -3.9127    3.3036    1.8652 H   0  0  0  0  0  0  0  0  0  0  0  0
   -2.6748    4.5926    1.7491 H   0  0  0  0  0  0  0  0  0  0  0  0
   -1.0298    3.1795   -0.5287 H   0  0  0  0  0  0  0  0  0  0  0  0
   -0.4200    4.1607    0.8473 H   0  0  0  0  0  0  0  0  0  0  0  0
    0.1878    2.4929    0.5773 H   0  0  0  0  0  0  0  0  0  0  0  0
   -4.6664   -1.9082   -2.2931 H   0  0  0  0  0  0  0  0  0  0  0  0
   -5.8982   -0.9024   -3.1134 H   0  0  0  0  0  0  0  0  0  0  0  0
   -4.1852   -0.3529   -3.0329 H   0  0  0  0  0  0  0  0  0  0  0  0
   -6.6388   -0.3675    0.5773 H   0  0  0  0  0  0  0  0  0  0  0  0
   -7.3281   -0.9454   -0.9782 H   0  0  0  0  0  0  0  0  0  0  0  0
   -6.0854   -1.9171   -0.1288 H   0  0  0  0  0  0  0  0  0  0  0  0
   -6.1058    1.8531   -0.5888 H   0  0  0  0  0  0  0  0  0  0  0  0
   -5.0710    1.8719   -2.0570 H   0  0  0  0  0  0  0  0  0  0  0  0
   -6.7281    1.1999   -2.1311 H   0  0  0  0  0  0  0  0  0  0  0  0
   -3.5857   -3.6421    1.4870 H   0  0  0  0  0  0  0  0  0  0  0  0
   -2.9375   -3.9439   -0.1628 H   0  0  0  0  0  0  0  0  0  0  0  0
   -2.2349   -4.7907    1.2334 H   0  0  0  0  0  0  0  0  0  0  0  0
   -2.0278   -2.6260    3.2831 H   0  0  0  0  0  0  0  0  0  0  0  0
   -0.8329   -3.8813    2.8028 H   0  0  0  0  0  0  0  0  0  0  0  0
   -0.3462   -2.1688    2.8797 H   0  0  0  0  0  0  0  0  0  0  0  0
   -0.0292   -4.0481    0.3888 H   0  0  0  0  0  0  0  0  0  0  0  0
   -0.7549   -2.9999   -0.8772 H   0  0  0  0  0  0  0  0  0  0  0  0
    0.4039   -2.3102    0.2863 H   0  0  0  0  0  0  0  0  0  0  0  0
  1  2  1  0  0  0  0
  3  1  1  6  0  0  0
  3  8  1  0  0  0  0
  4  9  1  0  0  0  0
  4  3  1  0  0  0  0
  5  6  1  0  0  0  0
  5  4  2  0  0  0  0
  6  7  2  0  0  0  0
  7  3  1  0  0  0  0
  7 12  1  0  0  0  0
  8 32  1  0  0  0  0
  8 31  1  0  0  0  0
  8 33  1  0  0  0  0
  9 35  1  0  0  0  0
  9 36  1  0  0  0  0
 10 39  1  0  0  0  0
 10  5  1  0  0  0  0
 11 42  1  0  0  0  0
 11 40  1  0  0  0  0
 11  6  1  0  0  0  0
 12 43  1  0  0  0  0
 12 45  1  0  0  0  0
 13  2  1  0  0  0  0
 14 13  1  0  0  0  0
 14 19  1  0  0  0  0
 15 14  2  0  0  0  0
 16 17  2  0  0  0  0
 16 15  1  0  0  0  0
 17 18  1  0  0  0  0
 18 27  1  0  0  0  0
 18 13  2  0  0  0  0
 19 20  1  0  0  0  0
 20 48  1  0  0  0  0
 20 49  1  0  0  0  0
 20 50  1  0  0  0  0
 21 19  1  0  0  0  0
 21 53  1  0  0  0  0
 21 52  1  0  0  0  0
 22 56  1  0  0  0  0
 22 55  1  0  0  0  0
 22 19  1  0  0  0  0
 23 25  1  0  0  0  0
 23 16  1  0  0  0  0
 24 57  1  0  0  0  0
 24 23  1  0  0  0  0
 25 62  1  0  0  0  0
 25 60  1  0  0  0  0
 26 23  1  0  0  0  0
 26 63  1  0  0  0  0
 27 29  1  0  0  0  0
 28 27  1  0  0  0  0
 28 68  1  0  0  0  0
 28 66  1  0  0  0  0
 29 70  1  0  0  0  0
 29 71  1  0  0  0  0
 29 69  1  0  0  0  0
 30 74  1  0  0  0  0
 30 72  1  0  0  0  0
 30 27  1  0  0  0  0
 34  9  1  0  0  0  0
 37 10  1  0  0  0  0
 38 10  1  0  0  0  0
 41 11  1  0  0  0  0
 44 12  1  0  0  0  0
 46 15  1  0  0  0  0
 47 17  1  0  0  0  0
 51 21  1  0  0  0  0
 54 22  1  0  0  0  0
 58 24  1  0  0  0  0
 59 24  1  0  0  0  0
 61 25  1  0  0  0  0
 64 26  1  0  0  0  0
 65 26  1  0  0  0  0
 67 28  1  0  0  0  0
 73 30  1  0  0  0  0
M  END
