1
 OpenBabel05122313063D

 35 37  0  0  0  0  0  0  0  0999 V2000
    1.9128    0.4137   -0.4998 P   0  0  2  0  0  0  0  0  0  0  0  0
    2.7203    1.6996   -1.4843 C   0  0  0  0  0  0  0  0  0  0  0  0
    3.2756    1.3625   -2.3705 H   0  0  0  0  0  0  0  0  0  0  0  0
    1.8958    0.4845    2.3039 C   0  0  0  0  0  0  0  0  0  0  0  0
    2.0267   -0.6046    2.2345 H   0  0  0  0  0  0  0  0  0  0  0  0
    1.8625    1.2590    1.1254 C   0  0  0  0  0  0  0  0  0  0  0  0
    3.1763   -0.9094   -0.3156 C   0  0  0  0  0  0  0  0  0  0  0  0
    4.3296   -0.6869    0.4647 C   0  0  0  0  0  0  0  0  0  0  0  0
    4.4703    0.2773    0.9767 H   0  0  0  0  0  0  0  0  0  0  0  0
    1.5802    3.2506    2.4685 C   0  0  0  0  0  0  0  0  0  0  0  0
    1.4628    4.3386    2.5605 H   0  0  0  0  0  0  0  0  0  0  0  0
    3.0086   -2.1370   -0.9856 C   0  0  0  0  0  0  0  0  0  0  0  0
    2.1279   -2.2817   -1.6306 H   0  0  0  0  0  0  0  0  0  0  0  0
    1.6727    3.5537   -0.0720 C   0  0  0  0  0  0  0  0  0  0  0  0
    2.5508    3.0003   -1.1852 C   0  0  0  0  0  0  0  0  0  0  0  0
    3.0131    3.7549   -1.8460 H   0  0  0  0  0  0  0  0  0  0  0  0
    1.7204    2.6718    1.1895 C   0  0  0  0  0  0  0  0  0  0  0  0
    1.7552    1.0861    3.5600 C   0  0  0  0  0  0  0  0  0  0  0  0
    1.7709    0.4667    4.4688 H   0  0  0  0  0  0  0  0  0  0  0  0
    1.5855    2.4757    3.6379 C   0  0  0  0  0  0  0  0  0  0  0  0
    1.4679    2.9672    4.6156 H   0  0  0  0  0  0  0  0  0  0  0  0
    0.2124    3.5787   -0.6106 C   0  0  0  0  0  0  0  0  0  0  0  0
    0.1527    4.2001   -1.5267 H   0  0  0  0  0  0  0  0  0  0  0  0
   -0.4723    4.0015    0.1519 H   0  0  0  0  0  0  0  0  0  0  0  0
   -0.1412    2.5596   -0.8689 H   0  0  0  0  0  0  0  0  0  0  0  0
    5.2936   -1.6970    0.5939 C   0  0  0  0  0  0  0  0  0  0  0  0
    6.1899   -1.5210    1.2080 H   0  0  0  0  0  0  0  0  0  0  0  0
    5.1166   -2.9274   -0.0604 C   0  0  0  0  0  0  0  0  0  0  0  0
    5.8741   -3.7193    0.0434 H   0  0  0  0  0  0  0  0  0  0  0  0
    2.1172    5.0010    0.2199 C   0  0  0  0  0  0  0  0  0  0  0  0
    3.1275    5.0348    0.6744 H   0  0  0  0  0  0  0  0  0  0  0  0
    1.4117    5.5255    0.8925 H   0  0  0  0  0  0  0  0  0  0  0  0
    2.1454    5.5759   -0.7269 H   0  0  0  0  0  0  0  0  0  0  0  0
    3.9789   -3.1421   -0.8545 C   0  0  0  0  0  0  0  0  0  0  0  0
    3.8448   -4.0980   -1.3830 H   0  0  0  0  0  0  0  0  0  0  0  0
  1  7  1  1  0  0  0
  1  6  1  0  0  0  0
  2 15  2  0  0  0  0
  2  1  1  0  0  0  0
  3  2  1  0  0  0  0
  4 18  1  0  0  0  0
  5  4  1  0  0  0  0
  6 17  1  0  0  0  0
  6  4  2  0  0  0  0
  7  8  1  0  0  0  0
  8 26  2  0  0  0  0
  8  9  1  0  0  0  0
 10 11  1  0  0  0  0
 10 20  1  0  0  0  0
 12 34  1  0  0  0  0
 12  7  2  0  0  0  0
 13 12  1  0  0  0  0
 14 30  1  0  0  0  0
 14 17  1  0  0  0  0
 15 14  1  0  0  0  0
 16 15  1  0  0  0  0
 17 10  2  0  0  0  0
 18 20  2  0  0  0  0
 18 19  1  0  0  0  0
 20 21  1  0  0  0  0
 22 14  1  0  0  0  0
 22 24  1  0  0  0  0
 23 22  1  0  0  0  0
 25 22  1  0  0  0  0
 26 27  1  0  0  0  0
 28 29  1  0  0  0  0
 28 26  1  0  0  0  0
 30 31  1  0  0  0  0
 30 32  1  0  0  0  0
 33 30  1  0  0  0  0
 34 28  2  0  0  0  0
 35 34  1  0  0  0  0
M  END
