1
 OpenBabel05122313063D

 35 37  0  0  1  0  0  0  0  0999 V2000
    2.5094   -0.2137   -0.2420 P   0  0  0  0  0  0  0  0  0  0  0  0
    0.2931   -1.9754   -1.1386 O   0  0  0  0  0  0  0  0  0  0  0  0
    2.6709   -1.4829   -1.5902 C   0  0  0  0  0  0  0  0  0  0  0  0
    1.6230   -2.5667   -1.3813 C   0  0  2  0  0  0  0  0  0  0  0  0
    1.0901   -3.2672   -2.6493 C   0  0  0  0  0  0  0  0  0  0  0  0
   -0.1830   -2.4287   -2.4520 C   0  0  0  0  0  0  0  0  0  0  0  0
    4.1575   -2.0603    1.2011 C   0  0  0  0  0  0  0  0  0  0  0  0
    4.7951   -2.5110    2.3689 C   0  0  0  0  0  0  0  0  0  0  0  0
    4.6464   -1.8018    3.5694 C   0  0  0  0  0  0  0  0  0  0  0  0
    3.8519   -0.6435    3.6039 C   0  0  0  0  0  0  0  0  0  0  0  0
    3.2057   -0.1980    2.4446 C   0  0  0  0  0  0  0  0  0  0  0  0
    3.3641   -0.8982    1.2299 C   0  0  0  0  0  0  0  0  0  0  0  0
    5.0082    1.0807   -0.5137 C   0  0  0  0  0  0  0  0  0  0  0  0
    5.8505    2.1323   -0.9013 C   0  0  0  0  0  0  0  0  0  0  0  0
    5.3127    3.2761   -1.5140 C   0  0  0  0  0  0  0  0  0  0  0  0
    3.9305    3.3641   -1.7396 C   0  0  0  0  0  0  0  0  0  0  0  0
    3.0803    2.3149   -1.3582 C   0  0  0  0  0  0  0  0  0  0  0  0
    3.6186    1.1653   -0.7459 C   0  0  0  0  0  0  0  0  0  0  0  0
    3.6938   -1.9056   -1.6607 H   0  0  0  0  0  0  0  0  0  0  0  0
    2.4541   -0.9111   -2.5167 H   0  0  0  0  0  0  0  0  0  0  0  0
    1.8829   -3.2232   -0.5249 H   0  0  0  0  0  0  0  0  0  0  0  0
    0.9369   -4.3548   -2.5234 H   0  0  0  0  0  0  0  0  0  0  0  0
    1.6671   -3.0749   -3.5731 H   0  0  0  0  0  0  0  0  0  0  0  0
   -1.1374   -2.9777   -2.3468 H   0  0  0  0  0  0  0  0  0  0  0  0
   -0.2999   -1.5594   -3.1302 H   0  0  0  0  0  0  0  0  0  0  0  0
    4.2899   -2.6261    0.2669 H   0  0  0  0  0  0  0  0  0  0  0  0
    5.4126   -3.4216    2.3365 H   0  0  0  0  0  0  0  0  0  0  0  0
    5.1462   -2.1555    4.4840 H   0  0  0  0  0  0  0  0  0  0  0  0
    3.7224   -0.0902    4.5462 H   0  0  0  0  0  0  0  0  0  0  0  0
    2.5643    0.6954    2.4793 H   0  0  0  0  0  0  0  0  0  0  0  0
    5.4308    0.1957   -0.0139 H   0  0  0  0  0  0  0  0  0  0  0  0
    6.9331    2.0607   -0.7157 H   0  0  0  0  0  0  0  0  0  0  0  0
    5.9747    4.1037   -1.8117 H   0  0  0  0  0  0  0  0  0  0  0  0
    3.5035    4.2597   -2.2160 H   0  0  0  0  0  0  0  0  0  0  0  0
    1.9990    2.3701   -1.5542 H   0  0  0  0  0  0  0  0  0  0  0  0
  1 12  1  0  0  0  0
  3  4  1  0  0  0  0
  3  1  1  0  0  0  0
  4  2  1  0  0  0  0
  4 21  1  1  0  0  0
  5 22  1  0  0  0  0
  5  6  1  0  0  0  0
  5  4  1  0  0  0  0
  6 24  1  0  0  0  0
  6  2  1  0  0  0  0
  7 12  2  0  0  0  0
  7  8  1  0  0  0  0
  8  9  2  0  0  0  0
  9 10  1  0  0  0  0
  9 28  1  0  0  0  0
 10 29  1  0  0  0  0
 11 30  1  0  0  0  0
 11 10  2  0  0  0  0
 12 11  1  0  0  0  0
 13 31  1  0  0  0  0
 14 32  1  0  0  0  0
 14 13  2  0  0  0  0
 15 14  1  0  0  0  0
 16 15  2  0  0  0  0
 16 17  1  0  0  0  0
 17 18  2  0  0  0  0
 18 13  1  0  0  0  0
 18  1  1  0  0  0  0
 19  3  1  0  0  0  0
 20  3  1  0  0  0  0
 23  5  1  0  0  0  0
 25  6  1  0  0  0  0
 26  7  1  0  0  0  0
 27  8  1  0  0  0  0
 33 15  1  0  0  0  0
 34 16  1  0  0  0  0
 35 17  1  0  0  0  0
M  END
