1
 OpenBabel05122313063D

 58 61  0  0  0  0  0  0  0  0999 V2000
   -0.7701   -0.1044   -0.0655 P   0  0  0  0  0  0  0  0  0  0  0  0
    1.0397   -0.0197   -1.4581 P   0  0  0  0  0  0  0  0  0  0  0  0
   -1.7476   -1.5476   -0.7004 C   0  0  0  0  0  0  0  0  0  0  0  0
   -3.1193   -1.6795   -0.3400 C   0  0  0  0  0  0  0  0  0  0  0  0
   -3.8233   -2.8048   -0.8164 C   0  0  0  0  0  0  0  0  0  0  0  0
   -3.2171   -3.7740   -1.6257 C   0  0  0  0  0  0  0  0  0  0  0  0
   -1.8691   -3.6319   -1.9815 C   0  0  0  0  0  0  0  0  0  0  0  0
   -1.1459   -2.5252   -1.5197 C   0  0  0  0  0  0  0  0  0  0  0  0
   -3.8527   -0.6615    0.4941 C   0  0  0  0  0  0  0  0  0  0  0  0
   -1.7281    1.3339   -0.7728 C   0  0  0  0  0  0  0  0  0  0  0  0
   -2.2008    1.4015   -2.1189 C   0  0  0  0  0  0  0  0  0  0  0  0
   -2.9117    2.5585   -2.5049 C   0  0  0  0  0  0  0  0  0  0  0  0
   -3.1666    3.6165   -1.6229 C   0  0  0  0  0  0  0  0  0  0  0  0
   -2.7223    3.5296   -0.2975 C   0  0  0  0  0  0  0  0  0  0  0  0
   -2.0200    2.3902    0.1138 C   0  0  0  0  0  0  0  0  0  0  0  0
   -2.0135    0.3197   -3.1513 C   0  0  0  0  0  0  0  0  0  0  0  0
    2.1223   -1.4341   -0.9536 C   0  0  0  0  0  0  0  0  0  0  0  0
    3.3625   -1.5584   -1.6480 C   0  0  0  0  0  0  0  0  0  0  0  0
    4.1935   -2.6532   -1.3409 C   0  0  0  0  0  0  0  0  0  0  0  0
    3.8296   -3.6115   -0.3839 C   0  0  0  0  0  0  0  0  0  0  0  0
    2.6059   -3.4896    0.2872 C   0  0  0  0  0  0  0  0  0  0  0  0
    1.7627   -2.4076    0.0000 C   0  0  0  0  0  0  0  0  0  0  0  0
    3.8052   -0.5419   -2.6687 C   0  0  0  0  0  0  0  0  0  0  0  0
    1.9385    1.3926   -0.6672 C   0  0  0  0  0  0  0  0  0  0  0  0
    1.7559    2.7169   -1.1525 C   0  0  0  0  0  0  0  0  0  0  0  0
    2.5045    3.7512   -0.5517 C   0  0  0  0  0  0  0  0  0  0  0  0
    3.4125    3.5013    0.4841 C   0  0  0  0  0  0  0  0  0  0  0  0
    3.6026    2.1894    0.9434 C   0  0  0  0  0  0  0  0  0  0  0  0
    2.8664    1.1466    0.3721 C   0  0  0  0  0  0  0  0  0  0  0  0
    0.8084    3.0587   -2.2732 C   0  0  0  0  0  0  0  0  0  0  0  0
   -4.8825   -2.9153   -0.5352 H   0  0  0  0  0  0  0  0  0  0  0  0
   -3.7985   -4.6403   -1.9760 H   0  0  0  0  0  0  0  0  0  0  0  0
   -1.3736   -4.3792   -2.6190 H   0  0  0  0  0  0  0  0  0  0  0  0
   -0.0950   -2.4229   -1.8224 H   0  0  0  0  0  0  0  0  0  0  0  0
   -4.1899    0.1942   -0.1280 H   0  0  0  0  0  0  0  0  0  0  0  0
   -3.2095   -0.2345    1.2880 H   0  0  0  0  0  0  0  0  0  0  0  0
   -4.7473   -1.1099    0.9671 H   0  0  0  0  0  0  0  0  0  0  0  0
   -3.2713    2.6226   -3.5440 H   0  0  0  0  0  0  0  0  0  0  0  0
   -3.7197    4.5020   -1.9716 H   0  0  0  0  0  0  0  0  0  0  0  0
   -2.9249    4.3374    0.4212 H   0  0  0  0  0  0  0  0  0  0  0  0
   -1.7122    2.3001    1.1625 H   0  0  0  0  0  0  0  0  0  0  0  0
   -0.9859   -0.0914   -3.1412 H   0  0  0  0  0  0  0  0  0  0  0  0
   -2.2228    0.7150   -4.1637 H   0  0  0  0  0  0  0  0  0  0  0  0
   -2.7008   -0.5319   -2.9702 H   0  0  0  0  0  0  0  0  0  0  0  0
    5.1518   -2.7519   -1.8752 H   0  0  0  0  0  0  0  0  0  0  0  0
    4.5021   -4.4553   -0.1675 H   0  0  0  0  0  0  0  0  0  0  0  0
    2.3012   -4.2307    1.0411 H   0  0  0  0  0  0  0  0  0  0  0  0
    0.8124   -2.3182    0.5388 H   0  0  0  0  0  0  0  0  0  0  0  0
    2.9746   -0.2634   -3.3518 H   0  0  0  0  0  0  0  0  0  0  0  0
    4.6477   -0.9239   -3.2766 H   0  0  0  0  0  0  0  0  0  0  0  0
    4.1345    0.3996   -2.1798 H   0  0  0  0  0  0  0  0  0  0  0  0
    2.3697    4.7805   -0.9204 H   0  0  0  0  0  0  0  0  0  0  0  0
    3.9793    4.3333    0.9290 H   0  0  0  0  0  0  0  0  0  0  0  0
    4.3156    1.9758    1.7538 H   0  0  0  0  0  0  0  0  0  0  0  0
    3.0194    0.1184    0.7279 H   0  0  0  0  0  0  0  0  0  0  0  0
    0.5877    2.1782   -2.9079 H   0  0  0  0  0  0  0  0  0  0  0  0
    1.2287    3.8598   -2.9131 H   0  0  0  0  0  0  0  0  0  0  0  0
   -0.1615    3.4258   -1.8792 H   0  0  0  0  0  0  0  0  0  0  0  0
  2 17  1  0  0  0  0
  2 24  1  0  0  0  0
  2  1  1  0  0  0  0
  3  4  1  0  0  0  0
  3  1  1  0  0  0  0
  4  9  1  0  0  0  0
  5 31  1  0  0  0  0
  5  4  2  0  0  0  0
  6  5  1  0  0  0  0
  7  6  2  0  0  0  0
  7  8  1  0  0  0  0
  8  3  2  0  0  0  0
  9 37  1  0  0  0  0
  9 36  1  0  0  0  0
 10  1  1  0  0  0  0
 10 15  1  0  0  0  0
 11 10  2  0  0  0  0
 12 11  1  0  0  0  0
 12 13  2  0  0  0  0
 13 14  1  0  0  0  0
 14 15  2  0  0  0  0
 14 40  1  0  0  0  0
 15 41  1  0  0  0  0
 16 42  1  0  0  0  0
 16 44  1  0  0  0  0
 16 11  1  0  0  0  0
 17 22  1  0  0  0  0
 18 19  1  0  0  0  0
 18 17  2  0  0  0  0
 19 20  2  0  0  0  0
 20 46  1  0  0  0  0
 20 21  1  0  0  0  0
 21 47  1  0  0  0  0
 22 21  2  0  0  0  0
 22 48  1  0  0  0  0
 23 51  1  0  0  0  0
 23 18  1  0  0  0  0
 24 29  1  0  0  0  0
 25 24  2  0  0  0  0
 25 26  1  0  0  0  0
 26 27  2  0  0  0  0
 27 53  1  0  0  0  0
 27 28  1  0  0  0  0
 28 54  1  0  0  0  0
 29 55  1  0  0  0  0
 29 28  2  0  0  0  0
 30 58  1  0  0  0  0
 30 25  1  0  0  0  0
 32  6  1  0  0  0  0
 33  7  1  0  0  0  0
 34  8  1  0  0  0  0
 35  9  1  0  0  0  0
 38 12  1  0  0  0  0
 39 13  1  0  0  0  0
 43 16  1  0  0  0  0
 45 19  1  0  0  0  0
 49 23  1  0  0  0  0
 50 23  1  0  0  0  0
 52 26  1  0  0  0  0
 56 30  1  0  0  0  0
 57 30  1  0  0  0  0
M  END
