2
 OpenBabel05122313063D

 43 46  0  0  0  0  0  0  0  0999 V2000
   -0.9727   -0.5106   -2.3070 N   0  0  0  0  0  0  0  0  0  0  0  0
   -1.9730    0.1451    0.1130 P   0  0  0  0  0  0  0  0  0  0  0  0
   -2.5055    0.6709    1.8030 C   0  0  0  0  0  0  0  0  0  0  0  0
   -1.4827    0.9111    2.7450 C   0  0  0  0  0  0  0  0  0  0  0  0
   -0.4315    0.7607    2.4528 H   0  0  0  0  0  0  0  0  0  0  0  0
   -1.7946    1.3038    4.0542 C   0  0  0  0  0  0  0  0  0  0  0  0
   -0.9822    1.4819    4.7754 H   0  0  0  0  0  0  0  0  0  0  0  0
   -3.1372    1.4439    4.4417 C   0  0  0  0  0  0  0  0  0  0  0  0
   -3.3867    1.7423    5.4715 H   0  0  0  0  0  0  0  0  0  0  0  0
   -4.1626    1.1841    3.5174 C   0  0  0  0  0  0  0  0  0  0  0  0
   -5.2161    1.2776    3.8231 H   0  0  0  0  0  0  0  0  0  0  0  0
   -3.8514    0.7973    2.2041 C   0  0  0  0  0  0  0  0  0  0  0  0
   -4.6579    0.5849    1.4856 H   0  0  0  0  0  0  0  0  0  0  0  0
   -3.4503   -0.7419   -0.5233 C   0  0  0  0  0  0  0  0  0  0  0  0
   -4.4693   -0.1013   -1.2544 C   0  0  0  0  0  0  0  0  0  0  0  0
   -4.3896    0.9724   -1.4832 H   0  0  0  0  0  0  0  0  0  0  0  0
   -5.5809   -0.8345   -1.6988 C   0  0  0  0  0  0  0  0  0  0  0  0
   -6.3736   -0.3299   -2.2724 H   0  0  0  0  0  0  0  0  0  0  0  0
   -5.6796   -2.2065   -1.4168 C   0  0  0  0  0  0  0  0  0  0  0  0
   -6.5515   -2.7797   -1.7678 H   0  0  0  0  0  0  0  0  0  0  0  0
   -4.6597   -2.8469   -0.6940 C   0  0  0  0  0  0  0  0  0  0  0  0
   -4.7248   -3.9249   -0.4808 H   0  0  0  0  0  0  0  0  0  0  0  0
   -3.5442   -2.1217   -0.2502 C   0  0  0  0  0  0  0  0  0  0  0  0
   -2.7263   -2.6295    0.2881 H   0  0  0  0  0  0  0  0  0  0  0  0
   -1.9410    1.7421   -0.8274 C   0  0  0  0  0  0  0  0  0  0  0  0
   -2.5680    2.8841   -0.2879 C   0  0  0  0  0  0  0  0  0  0  0  0
   -3.0999    2.8013    0.6708 H   0  0  0  0  0  0  0  0  0  0  0  0
   -2.5293    4.1213   -0.9461 C   0  0  0  0  0  0  0  0  0  0  0  0
   -3.0417    4.9904   -0.5061 H   0  0  0  0  0  0  0  0  0  0  0  0
   -1.8451    4.2401   -2.1641 C   0  0  0  0  0  0  0  0  0  0  0  0
   -1.8132    5.2027   -2.6961 H   0  0  0  0  0  0  0  0  0  0  0  0
   -1.1985    3.1236   -2.7033 C   0  0  0  0  0  0  0  0  0  0  0  0
   -0.6721    3.2201   -3.6635 H   0  0  0  0  0  0  0  0  0  0  0  0
   -1.2275    1.8679   -2.0595 C   0  0  0  0  0  0  0  0  0  0  0  0
   -0.5259    0.7132   -2.6672 C   0  0  0  0  0  0  0  0  0  0  0  0
    0.5593    0.8578   -3.5630 C   0  0  0  0  0  0  0  0  0  0  0  0
    0.9543    1.8537   -3.8027 H   0  0  0  0  0  0  0  0  0  0  0  0
    1.1507   -0.2893   -4.1029 C   0  0  0  0  0  0  0  0  0  0  0  0
    2.0040   -0.1987   -4.7920 H   0  0  0  0  0  0  0  0  0  0  0  0
    0.6562   -1.5529   -3.7420 C   0  0  0  0  0  0  0  0  0  0  0  0
    1.0936   -2.4781   -4.1437 H   0  0  0  0  0  0  0  0  0  0  0  0
   -0.4028   -1.6121   -2.8248 C   0  0  0  0  0  0  0  0  0  0  0  0
   -0.8036   -2.5769   -2.4714 H   0  0  0  0  0  0  0  0  0  0  0  0
  2  3  1  0  0  0  0
  3 12  2  0  0  0  0
  3  4  1  0  0  0  0
  4  6  2  0  0  0  0
  5  4  1  0  0  0  0
  6  8  1  0  0  0  0
  6  7  1  0  0  0  0
  8  9  1  0  0  0  0
 10 11  1  0  0  0  0
 10  8  2  0  0  0  0
 12 10  1  0  0  0  0
 13 12  1  0  0  0  0
 14 23  1  0  0  0  0
 14  2  1  0  0  0  0
 15 14  2  0  0  0  0
 16 15  1  0  0  0  0
 17 19  2  0  0  0  0
 17 15  1  0  0  0  0
 18 17  1  0  0  0  0
 19 21  1  0  0  0  0
 20 19  1  0  0  0  0
 21 22  1  0  0  0  0
 21 23  2  0  0  0  0
 23 24  1  0  0  0  0
 25 26  1  0  0  0  0
 25  2  1  0  0  0  0
 26 27  1  0  0  0  0
 28 29  1  0  0  0  0
 28 26  2  0  0  0  0
 30 28  1  0  0  0  0
 31 30  1  0  0  0  0
 32 30  2  0  0  0  0
 32 34  1  0  0  0  0
 33 32  1  0  0  0  0
 34 25  2  0  0  0  0
 35  1  1  0  0  0  0
 35 34  1  0  0  0  0
 36 35  2  0  0  0  0
 37 36  1  0  0  0  0
 38 40  2  0  0  0  0
 38 36  1  0  0  0  0
 39 38  1  0  0  0  0
 40 42  1  0  0  0  0
 41 40  1  0  0  0  0
 42 43  1  0  0  0  0
 42  1  2  0  0  0  0
M  END
