1
 OpenBabel05122313063D

 42 49  0  0  1  0  0  0  0  0999 V2000
   -0.5528    0.4056    0.0005 P   0  0  1  0  0  0  0  0  0  0  0  0
   -1.6703   -0.8699    0.7417 C   0  0  2  0  0  0  0  0  0  0  0  0
   -1.6704   -0.8691   -0.7419 C   0  0  1  0  0  0  0  0  0  0  0  0
   -2.6799   -0.9244    1.8389 C   0  0  0  0  0  0  0  0  0  0  0  0
   -1.5608   -1.8876    1.8245 C   0  0  0  0  0  0  0  0  0  0  0  0
   -2.6802   -0.9220   -1.8390 C   0  0  0  0  0  0  0  0  0  0  0  0
   -1.5613   -1.8856   -1.8259 C   0  0  0  0  0  0  0  0  0  0  0  0
   -1.3826   -3.3603    1.9622 C   0  0  0  0  0  0  0  0  0  0  0  0
   -2.1889   -3.9316    2.4515 H   0  0  0  0  0  0  0  0  0  0  0  0
   -0.8537   -3.8989    1.1610 H   0  0  0  0  0  0  0  0  0  0  0  0
   -0.5616   -2.3895    2.8084 C   0  0  0  0  0  0  0  0  0  0  0  0
    0.5083   -2.2857    2.5735 H   0  0  0  0  0  0  0  0  0  0  0  0
   -0.8063   -2.2863    3.8783 H   0  0  0  0  0  0  0  0  0  0  0  0
   -4.1606   -0.9609    2.0007 C   0  0  0  0  0  0  0  0  0  0  0  0
   -4.7913   -0.5253    1.2085 H   0  0  0  0  0  0  0  0  0  0  0  0
   -4.6021   -1.8422    2.4948 H   0  0  0  0  0  0  0  0  0  0  0  0
   -3.3035   -0.0113    2.8373 C   0  0  0  0  0  0  0  0  0  0  0  0
   -3.3491    1.0654    2.6096 H   0  0  0  0  0  0  0  0  0  0  0  0
   -3.1558   -0.2503    3.9034 H   0  0  0  0  0  0  0  0  0  0  0  0
   -4.1609   -0.9578   -2.0008 C   0  0  0  0  0  0  0  0  0  0  0  0
   -4.6027   -1.8383   -2.4961 H   0  0  0  0  0  0  0  0  0  0  0  0
   -4.7914   -0.5230   -1.2080 H   0  0  0  0  0  0  0  0  0  0  0  0
   -3.3034   -0.0074   -2.8362 C   0  0  0  0  0  0  0  0  0  0  0  0
   -3.3487    1.0690   -2.6071 H   0  0  0  0  0  0  0  0  0  0  0  0
   -3.1560   -0.2451   -3.9026 H   0  0  0  0  0  0  0  0  0  0  0  0
   -1.3839   -3.3583   -1.9651 C   0  0  0  0  0  0  0  0  0  0  0  0
   -0.8551   -3.8978   -1.1645 H   0  0  0  0  0  0  0  0  0  0  0  0
   -2.1906   -3.9286   -2.4547 H   0  0  0  0  0  0  0  0  0  0  0  0
   -0.5625   -2.3870   -2.8105 C   0  0  0  0  0  0  0  0  0  0  0  0
    0.5075   -2.2840   -2.5758 H   0  0  0  0  0  0  0  0  0  0  0  0
   -0.8074   -2.2827   -3.8802 H   0  0  0  0  0  0  0  0  0  0  0  0
   -1.5146    1.9697    0.0010 C   0  0  0  0  0  0  0  0  0  0  0  0
   -2.9265    1.9767    0.0016 C   0  0  0  0  0  0  0  0  0  0  0  0
   -3.4789    1.0276    0.0019 H   0  0  0  0  0  0  0  0  0  0  0  0
   -3.6274    3.1896    0.0017 C   0  0  0  0  0  0  0  0  0  0  0  0
   -4.7281    3.1814    0.0022 H   0  0  0  0  0  0  0  0  0  0  0  0
   -2.9308    4.4107    0.0013 C   0  0  0  0  0  0  0  0  0  0  0  0
   -3.4841    5.3619    0.0014 H   0  0  0  0  0  0  0  0  0  0  0  0
   -1.5287    4.4099    0.0006 C   0  0  0  0  0  0  0  0  0  0  0  0
   -0.9732    5.3598    0.0002 H   0  0  0  0  0  0  0  0  0  0  0  0
   -0.8231    3.1957    0.0005 C   0  0  0  0  0  0  0  0  0  0  0  0
    0.2752    3.2032    0.0000 H   0  0  0  0  0  0  0  0  0  0  0  0
  1 32  1  1  0  0  0
  1  2  1  0  0  0  0
  2  5  1  1  0  0  0
  2  4  1  0  0  0  0
  3  6  1  6  0  0  0
  3  1  1  0  0  0  0
  3  2  1  0  0  0  0
  4 14  1  0  0  0  0
  4 17  1  0  0  0  0
  5  4  1  0  0  0  0
  5  8  1  0  0  0  0
  5 11  1  0  0  0  0
  6  7  1  0  0  0  0
  7  3  1  0  0  0  0
  8  9  1  0  0  0  0
  8 11  1  0  0  0  0
 10  8  1  0  0  0  0
 11 13  1  0  0  0  0
 12 11  1  0  0  0  0
 14 16  1  0  0  0  0
 14 17  1  0  0  0  0
 15 14  1  0  0  0  0
 17 19  1  0  0  0  0
 18 17  1  0  0  0  0
 20  6  1  0  0  0  0
 20 22  1  0  0  0  0
 21 20  1  0  0  0  0
 23 24  1  0  0  0  0
 23 20  1  0  0  0  0
 23  6  1  0  0  0  0
 25 23  1  0  0  0  0
 26  7  1  0  0  0  0
 26 27  1  0  0  0  0
 28 26  1  0  0  0  0
 29 30  1  0  0  0  0
 29 26  1  0  0  0  0
 29  7  1  0  0  0  0
 31 29  1  0  0  0  0
 32 33  1  0  0  0  0
 33 35  2  0  0  0  0
 33 34  1  0  0  0  0
 35 36  1  0  0  0  0
 37 38  1  0  0  0  0
 37 35  1  0  0  0  0
 39 37  2  0  0  0  0
 40 39  1  0  0  0  0
 41 39  1  0  0  0  0
 41 32  2  0  0  0  0
 42 41  1  0  0  0  0
M  END
