1
 OpenBabel05122313063D

 16 15  0  0  0  0  0  0  0  0999 V2000
   -1.5815    0.6638   -0.5646 P   0  0  0  0  0  0  0  0  0  0  0  0
   -1.0083    2.1384   -0.9402 F   0  0  0  0  0  0  0  0  0  0  0  0
   -2.3472    0.3695   -1.9489 F   0  0  0  0  0  0  0  0  0  0  0  0
   -2.2616    1.4789    1.9268 C   0  0  0  0  0  0  0  0  0  0  0  0
   -2.9516    1.0910    0.6041 C   0  0  0  0  0  0  0  0  0  0  0  0
   -3.7522    2.2659    0.0159 C   0  0  0  0  0  0  0  0  0  0  0  0
   -3.8418   -0.1504    0.7899 C   0  0  0  0  0  0  0  0  0  0  0  0
   -3.0367    1.7838    2.6591 H   0  0  0  0  0  0  0  0  0  0  0  0
   -1.7023    0.6232    2.3569 H   0  0  0  0  0  0  0  0  0  0  0  0
   -1.5569    2.3240    1.7966 H   0  0  0  0  0  0  0  0  0  0  0  0
   -4.5830    2.5105    0.7092 H   0  0  0  0  0  0  0  0  0  0  0  0
   -3.1279    3.1713   -0.1079 H   0  0  0  0  0  0  0  0  0  0  0  0
   -4.1939    2.0044   -0.9656 H   0  0  0  0  0  0  0  0  0  0  0  0
   -4.6284    0.0916    1.5342 H   0  0  0  0  0  0  0  0  0  0  0  0
   -4.3347   -0.4424   -0.1575 H   0  0  0  0  0  0  0  0  0  0  0  0
   -3.2659   -1.0247    1.1498 H   0  0  0  0  0  0  0  0  0  0  0  0
  1  5  1  0  0  0  0
  2  1  1  0  0  0  0
  3  1  1  0  0  0  0
  4  9  1  0  0  0  0
  4  8  1  0  0  0  0
  5  7  1  0  0  0  0
  5  4  1  0  0  0  0
  6  5  1  0  0  0  0
  6 11  1  0  0  0  0
  7 16  1  0  0  0  0
  7 14  1  0  0  0  0
 10  4  1  0  0  0  0
 12  6  1  0  0  0  0
 13  6  1  0  0  0  0
 15  7  1  0  0  0  0
M  END
