1
 OpenBabel05122313063D

  3  2  0  0  0  0  0  0  0  0999 V2000
    0.2419   -4.0278    0.3159 P   0  0  0  0  0  0  0  0  0  0  0  0
    3.0631   -3.6998    0.0202 O   0  0  0  0  0  0  0  0  0  0  0  0
    1.8794   -3.7892    0.1328 C   0  0  0  0  0  0  0  0  0  0  0  0
  2  3  1  0  0  0  0
  3  1  1  0  0  0  0
M  END
