1
 OpenBabel05122313063D

 14 14  0  0  0  0  0  0  0  0999 V2000
   -1.2960    0.7606   -1.8695 P   0  0  0  0  0  0  0  0  0  0  0  0
   -1.6990   -0.3749   -2.9808 F   0  0  0  0  0  0  0  0  0  0  0  0
   -0.5544    1.7807   -2.9193 F   0  0  0  0  0  0  0  0  0  0  0  0
   -2.8996    1.6138   -1.7566 C   0  0  0  0  0  0  0  0  0  0  0  0
   -2.9260    2.9981   -1.4893 C   0  0  0  0  0  0  0  0  0  0  0  0
   -4.1014    0.8879   -1.8743 C   0  0  0  0  0  0  0  0  0  0  0  0
   -4.1582    3.6462   -1.3253 C   0  0  0  0  0  0  0  0  0  0  0  0
   -1.9837    3.5566   -1.3968 H   0  0  0  0  0  0  0  0  0  0  0  0
   -5.3286    1.5460   -1.7075 C   0  0  0  0  0  0  0  0  0  0  0  0
   -4.0790   -0.1872   -2.0994 H   0  0  0  0  0  0  0  0  0  0  0  0
   -5.3590    2.9223   -1.4303 C   0  0  0  0  0  0  0  0  0  0  0  0
   -4.1808    4.7258   -1.1136 H   0  0  0  0  0  0  0  0  0  0  0  0
   -6.2652    0.9748   -1.7963 H   0  0  0  0  0  0  0  0  0  0  0  0
   -6.3230    3.4368   -1.2977 H   0  0  0  0  0  0  0  0  0  0  0  0
  1  4  1  0  0  0  0
  2  1  1  0  0  0  0
  3  1  1  0  0  0  0
  4  5  1  0  0  0  0
  5  8  1  0  0  0  0
  5  7  2  0  0  0  0
  6  4  2  0  0  0  0
  6  9  1  0  0  0  0
  7 12  1  0  0  0  0
  9 11  2  0  0  0  0
 10  6  1  0  0  0  0
 11  7  1  0  0  0  0
 11 14  1  0  0  0  0
 13  9  1  0  0  0  0
M  END
