1
 OpenBabel05122313063D

  9  8  0  0  0  0  0  0  0  0999 V2000
   -0.7018   -1.5872   -0.6012 P   0  0  0  0  0  0  0  0  0  0  0  0
   -1.3074   -1.6859   -2.1127 F   0  0  0  0  0  0  0  0  0  0  0  0
   -0.0486   -3.0874   -0.6596 F   0  0  0  0  0  0  0  0  0  0  0  0
   -2.0616   -1.7327    0.3124 N   0  0  0  0  0  0  0  0  0  0  0  0
   -3.0979   -2.7385    0.1428 C   0  0  0  0  0  0  0  0  0  0  0  0
   -2.0024   -1.1987    1.2054 H   0  0  0  0  0  0  0  0  0  0  0  0
   -3.1303   -3.0677   -0.9135 H   0  0  0  0  0  0  0  0  0  0  0  0
   -4.0885   -2.3063    0.3896 H   0  0  0  0  0  0  0  0  0  0  0  0
   -2.9343   -3.6321    0.7834 H   0  0  0  0  0  0  0  0  0  0  0  0
  1  4  1  0  0  0  0
  2  1  1  0  0  0  0
  3  1  1  0  0  0  0
  4  6  1  0  0  0  0
  5  4  1  0  0  0  0
  5  8  1  0  0  0  0
  5  9  1  0  0  0  0
  7  5  1  0  0  0  0
M  END
