1
 OpenBabel05122313063D

 36 37  0  0  0  0  0  0  0  0999 V2000
    1.1426   -0.9282   -0.4977 P   0  0  0  0  0  0  0  0  0  0  0  0
    1.0570   -2.1806   -1.9722 C   0  0  0  0  0  0  0  0  0  0  0  0
    2.0297   -3.3576   -1.7913 C   0  0  0  0  0  0  0  0  0  0  0  0
    1.9569   -4.0114   -2.6864 H   0  0  0  0  0  0  0  0  0  0  0  0
    1.8059   -3.9759   -0.9035 H   0  0  0  0  0  0  0  0  0  0  0  0
    3.0817   -3.0213   -1.7203 H   0  0  0  0  0  0  0  0  0  0  0  0
   -0.3874   -2.6960   -2.0935 C   0  0  0  0  0  0  0  0  0  0  0  0
   -1.1068   -1.8687   -2.2553 H   0  0  0  0  0  0  0  0  0  0  0  0
   -0.7237   -3.2415   -1.1904 H   0  0  0  0  0  0  0  0  0  0  0  0
   -0.4505   -3.3891   -2.9587 H   0  0  0  0  0  0  0  0  0  0  0  0
    1.4420   -1.4250   -3.2581 C   0  0  0  0  0  0  0  0  0  0  0  0
    1.2983   -2.1097   -4.1205 H   0  0  0  0  0  0  0  0  0  0  0  0
    2.5029   -1.1099   -3.2496 H   0  0  0  0  0  0  0  0  0  0  0  0
    0.8189   -0.5321   -3.4392 H   0  0  0  0  0  0  0  0  0  0  0  0
    1.6554   -1.8941    0.9924 C   0  0  0  0  0  0  0  0  0  0  0  0
    2.5941   -1.3530    1.8981 C   0  0  0  0  0  0  0  0  0  0  0  0
    3.0765   -0.3912    1.6771 H   0  0  0  0  0  0  0  0  0  0  0  0
    2.9118   -2.0274    3.0860 C   0  0  0  0  0  0  0  0  0  0  0  0
    3.6456   -1.5872    3.7780 H   0  0  0  0  0  0  0  0  0  0  0  0
    2.2956   -3.2493    3.3938 C   0  0  0  0  0  0  0  0  0  0  0  0
    2.5463   -3.7776    4.3262 H   0  0  0  0  0  0  0  0  0  0  0  0
    1.3497   -3.7885    2.5091 C   0  0  0  0  0  0  0  0  0  0  0  0
    0.8503   -4.7406    2.7441 H   0  0  0  0  0  0  0  0  0  0  0  0
    1.0253   -3.1141    1.3235 C   0  0  0  0  0  0  0  0  0  0  0  0
    0.2623   -3.5410    0.6600 H   0  0  0  0  0  0  0  0  0  0  0  0
    2.6555    0.0744   -0.8639 C   0  0  0  0  0  0  0  0  0  0  0  0
    2.5401    1.4446   -1.1676 C   0  0  0  0  0  0  0  0  0  0  0  0
    1.5516    1.9274   -1.1345 H   0  0  0  0  0  0  0  0  0  0  0  0
    3.6768    2.2006   -1.4933 C   0  0  0  0  0  0  0  0  0  0  0  0
    3.5654    3.2697   -1.7291 H   0  0  0  0  0  0  0  0  0  0  0  0
    4.9442    1.6005   -1.5103 C   0  0  0  0  0  0  0  0  0  0  0  0
    5.8356    2.1946   -1.7631 H   0  0  0  0  0  0  0  0  0  0  0  0
    5.0723    0.2387   -1.1908 C   0  0  0  0  0  0  0  0  0  0  0  0
    6.0643   -0.2382   -1.1874 H   0  0  0  0  0  0  0  0  0  0  0  0
    3.9381   -0.5190   -0.8672 C   0  0  0  0  0  0  0  0  0  0  0  0
    4.0575   -1.5768   -0.5926 H   0  0  0  0  0  0  0  0  0  0  0  0
  1 15  1  0  0  0  0
  2  3  1  0  0  0  0
  2  1  1  0  0  0  0
  3  6  1  0  0  0  0
  3  5  1  0  0  0  0
  4  3  1  0  0  0  0
  7  2  1  0  0  0  0
  7  9  1  0  0  0  0
  8  7  1  0  0  0  0
 10  7  1  0  0  0  0
 11 13  1  0  0  0  0
 11  2  1  0  0  0  0
 12 11  1  0  0  0  0
 14 11  1  0  0  0  0
 15 24  2  0  0  0  0
 15 16  1  0  0  0  0
 16 18  2  0  0  0  0
 17 16  1  0  0  0  0
 18 20  1  0  0  0  0
 18 19  1  0  0  0  0
 20 21  1  0  0  0  0
 22 23  1  0  0  0  0
 22 20  2  0  0  0  0
 24 22  1  0  0  0  0
 25 24  1  0  0  0  0
 26  1  1  0  0  0  0
 27 28  1  0  0  0  0
 27 26  2  0  0  0  0
 29 27  1  0  0  0  0
 30 29  1  0  0  0  0
 31 29  2  0  0  0  0
 31 33  1  0  0  0  0
 32 31  1  0  0  0  0
 33 34  1  0  0  0  0
 33 35  2  0  0  0  0
 35 26  1  0  0  0  0
 35 36  1  0  0  0  0
M  END
