1
 OpenBabel05122313063D

 55 57  0  0  0  0  0  0  0  0999 V2000
    0.2536   -0.4651    0.2147 P   0  0  0  0  0  0  0  0  0  0  0  0
   -1.1035    0.5794   -0.2474 N   0  0  0  0  0  0  0  0  0  0  0  0
   -2.2854   -0.0990   -0.4011 N   0  0  0  0  0  0  0  0  0  0  0  0
   -1.2911    1.9629   -0.2763 C   0  0  0  0  0  0  0  0  0  0  0  0
   -2.6576    2.1334   -0.4855 C   0  0  0  0  0  0  0  0  0  0  0  0
   -3.1763    3.0910   -0.5854 H   0  0  0  0  0  0  0  0  0  0  0  0
   -3.2288    0.8293   -0.5579 C   0  0  0  0  0  0  0  0  0  0  0  0
   -0.2220    3.0389   -0.1519 C   0  0  0  0  0  0  0  0  0  0  0  0
    0.6249    2.8524    1.1268 C   0  0  0  0  0  0  0  0  0  0  0  0
    1.2585    1.9440    1.0881 H   0  0  0  0  0  0  0  0  0  0  0  0
   -0.0173    2.7885    2.0279 H   0  0  0  0  0  0  0  0  0  0  0  0
    1.3129    3.7133    1.2480 H   0  0  0  0  0  0  0  0  0  0  0  0
    0.6723    3.0335   -1.4127 C   0  0  0  0  0  0  0  0  0  0  0  0
    1.1845    2.0591   -1.5525 H   0  0  0  0  0  0  0  0  0  0  0  0
    1.4581    3.8115   -1.3310 H   0  0  0  0  0  0  0  0  0  0  0  0
    0.0691    3.2359   -2.3200 H   0  0  0  0  0  0  0  0  0  0  0  0
   -0.9165    4.4134   -0.0595 C   0  0  0  0  0  0  0  0  0  0  0  0
   -1.5116    4.6341   -0.9676 H   0  0  0  0  0  0  0  0  0  0  0  0
   -0.1499    5.2074    0.0384 H   0  0  0  0  0  0  0  0  0  0  0  0
   -1.5863    4.4732    0.8215 H   0  0  0  0  0  0  0  0  0  0  0  0
   -4.6808    0.4440   -0.7812 C   0  0  0  0  0  0  0  0  0  0  0  0
   -4.8362   -1.0857   -0.7413 C   0  0  0  0  0  0  0  0  0  0  0  0
   -4.5230   -1.4948    0.2392 H   0  0  0  0  0  0  0  0  0  0  0  0
   -4.2071   -1.5723   -1.5116 H   0  0  0  0  0  0  0  0  0  0  0  0
   -5.8949   -1.3648   -0.9172 H   0  0  0  0  0  0  0  0  0  0  0  0
   -5.1308    0.9756   -2.1600 C   0  0  0  0  0  0  0  0  0  0  0  0
   -4.5223    0.5312   -2.9729 H   0  0  0  0  0  0  0  0  0  0  0  0
   -5.0297    2.0781   -2.2229 H   0  0  0  0  0  0  0  0  0  0  0  0
   -6.1947    0.7202   -2.3449 H   0  0  0  0  0  0  0  0  0  0  0  0
   -5.5457    1.0848    0.3259 C   0  0  0  0  0  0  0  0  0  0  0  0
   -5.2399    0.7227    1.3286 H   0  0  0  0  0  0  0  0  0  0  0  0
   -6.6152    0.8285    0.1791 H   0  0  0  0  0  0  0  0  0  0  0  0
   -5.4587    2.1903    0.3230 H   0  0  0  0  0  0  0  0  0  0  0  0
   -0.2852   -2.0740   -0.4602 C   0  0  0  0  0  0  0  0  0  0  0  0
    0.0928   -2.3845   -1.7820 C   0  0  0  0  0  0  0  0  0  0  0  0
    0.7009   -1.6701   -2.3598 H   0  0  0  0  0  0  0  0  0  0  0  0
   -0.3024   -3.6019   -2.3530 C   0  0  0  0  0  0  0  0  0  0  0  0
   -0.0105   -3.8396   -3.3868 H   0  0  0  0  0  0  0  0  0  0  0  0
   -1.0554   -4.5183   -1.6016 C   0  0  0  0  0  0  0  0  0  0  0  0
   -1.3575   -5.4780   -2.0477 H   0  0  0  0  0  0  0  0  0  0  0  0
   -1.4142   -4.2165   -0.2775 C   0  0  0  0  0  0  0  0  0  0  0  0
   -1.9986   -4.9373    0.3141 H   0  0  0  0  0  0  0  0  0  0  0  0
   -1.0338   -2.9959    0.2958 C   0  0  0  0  0  0  0  0  0  0  0  0
   -1.3231   -2.7564    1.3289 H   0  0  0  0  0  0  0  0  0  0  0  0
    0.0762   -0.5634    2.0318 C   0  0  0  0  0  0  0  0  0  0  0  0
    1.2258   -0.8149    2.8070 C   0  0  0  0  0  0  0  0  0  0  0  0
    2.2055   -0.9186    2.3125 H   0  0  0  0  0  0  0  0  0  0  0  0
    1.1198   -0.9107    4.2020 C   0  0  0  0  0  0  0  0  0  0  0  0
    2.0194   -1.1045    4.8050 H   0  0  0  0  0  0  0  0  0  0  0  0
   -0.1274   -0.7452    4.8254 C   0  0  0  0  0  0  0  0  0  0  0  0
   -0.2072   -0.8118    5.9210 H   0  0  0  0  0  0  0  0  0  0  0  0
   -1.2718   -0.4850    4.0533 C   0  0  0  0  0  0  0  0  0  0  0  0
   -2.2484   -0.3493    4.5422 H   0  0  0  0  0  0  0  0  0  0  0  0
   -1.1770   -0.3942    2.6570 C   0  0  0  0  0  0  0  0  0  0  0  0
   -2.0712   -0.1959    2.0469 H   0  0  0  0  0  0  0  0  0  0  0  0
  1 45  1  0  0  0  0
  2  1  1  0  0  0  0
  3  2  1  0  0  0  0
  4  2  1  0  0  0  0
  4  8  1  0  0  0  0
  5  4  2  0  0  0  0
  6  5  1  0  0  0  0
  7  5  1  0  0  0  0
  7  3  2  0  0  0  0
  8 17  1  0  0  0  0
  8  9  1  0  0  0  0
  9 12  1  0  0  0  0
  9 11  1  0  0  0  0
 10  9  1  0  0  0  0
 13 15  1  0  0  0  0
 13  8  1  0  0  0  0
 14 13  1  0  0  0  0
 16 13  1  0  0  0  0
 17 19  1  0  0  0  0
 17 20  1  0  0  0  0
 18 17  1  0  0  0  0
 21 22  1  0  0  0  0
 21  7  1  0  0  0  0
 21 30  1  0  0  0  0
 22 23  1  0  0  0  0
 24 22  1  0  0  0  0
 25 22  1  0  0  0  0
 26 21  1  0  0  0  0
 27 26  1  0  0  0  0
 28 26  1  0  0  0  0
 29 26  1  0  0  0  0
 30 31  1  0  0  0  0
 32 30  1  0  0  0  0
 33 30  1  0  0  0  0
 34  1  1  0  0  0  0
 34 43  1  0  0  0  0
 35 34  2  0  0  0  0
 36 35  1  0  0  0  0
 37 35  1  0  0  0  0
 37 39  2  0  0  0  0
 38 37  1  0  0  0  0
 39 41  1  0  0  0  0
 40 39  1  0  0  0  0
 41 43  2  0  0  0  0
 41 42  1  0  0  0  0
 43 44  1  0  0  0  0
 45 54  2  0  0  0  0
 45 46  1  0  0  0  0
 46 48  2  0  0  0  0
 47 46  1  0  0  0  0
 48 49  1  0  0  0  0
 48 50  1  0  0  0  0
 50 51  1  0  0  0  0
 52 53  1  0  0  0  0
 52 50  2  0  0  0  0
 54 52  1  0  0  0  0
 55 54  1  0  0  0  0
M  END
