2
 OpenBabel05122313063D

 60 64  0  0  1  0  0  0  0  0999 V2000
    1.7688    0.3975    0.0647 P   0  0  0  0  0  4  0  0  0  0  0  0
   -1.2810    0.6412    0.1988 P   0  0  0  0  0  0  0  0  0  0  0  0
    0.5929    3.6873    1.5269 N   0  0  0  0  0  0  0  0  0  0  0  0
    0.3527    1.3505    0.4343 C   0  0  1  0  0  3  0  0  0  0  0  0
    0.5023    2.6164    1.0322 C   0  0  0  0  0  0  0  0  0  0  0  0
    2.2368   -0.8135    1.3533 C   0  0  0  0  0  0  0  0  0  0  0  0
    3.5193   -1.4011    1.3469 C   0  0  0  0  0  0  0  0  0  0  0  0
    4.2583   -1.1091    0.5846 H   0  0  0  0  0  0  0  0  0  0  0  0
    3.8525   -2.3509    2.3225 C   0  0  0  0  0  0  0  0  0  0  0  0
    4.8523   -2.8105    2.3197 H   0  0  0  0  0  0  0  0  0  0  0  0
    2.9132   -2.7105    3.3040 C   0  0  0  0  0  0  0  0  0  0  0  0
    3.1773   -3.4576    4.0677 H   0  0  0  0  0  0  0  0  0  0  0  0
    1.6434   -2.1130    3.3183 C   0  0  0  0  0  0  0  0  0  0  0  0
    0.9100   -2.3873    4.0910 H   0  0  0  0  0  0  0  0  0  0  0  0
    1.3027   -1.1610    2.3463 C   0  0  0  0  0  0  0  0  0  0  0  0
    0.3149   -0.6768    2.3584 H   0  0  0  0  0  0  0  0  0  0  0  0
    1.5370   -0.5084   -1.4980 C   0  0  0  0  0  0  0  0  0  0  0  0
    1.8791   -1.8676   -1.6331 C   0  0  0  0  0  0  0  0  0  0  0  0
    2.2935   -2.4238   -0.7808 H   0  0  0  0  0  0  0  0  0  0  0  0
    1.6220   -2.5293   -2.8417 C   0  0  0  0  0  0  0  0  0  0  0  0
    1.8479   -3.6014   -2.9298 H   0  0  0  0  0  0  0  0  0  0  0  0
    1.0367   -1.8385   -3.9130 C   0  0  0  0  0  0  0  0  0  0  0  0
    0.8187   -2.3679   -4.8527 H   0  0  0  0  0  0  0  0  0  0  0  0
    0.7057   -0.4793   -3.7821 C   0  0  0  0  0  0  0  0  0  0  0  0
    0.2332    0.0600   -4.6165 H   0  0  0  0  0  0  0  0  0  0  0  0
    0.9500    0.1896   -2.5764 C   0  0  0  0  0  0  0  0  0  0  0  0
    0.6552    1.2425   -2.4537 H   0  0  0  0  0  0  0  0  0  0  0  0
    3.2199    1.4876   -0.1105 C   0  0  0  0  0  0  0  0  0  0  0  0
    3.8818    1.6263   -1.3461 C   0  0  0  0  0  0  0  0  0  0  0  0
    3.5329    1.0649   -2.2253 H   0  0  0  0  0  0  0  0  0  0  0  0
    4.9899    2.4809   -1.4484 C   0  0  0  0  0  0  0  0  0  0  0  0
    5.5084    2.5860   -2.4132 H   0  0  0  0  0  0  0  0  0  0  0  0
    5.4336    3.1974   -0.3263 C   0  0  0  0  0  0  0  0  0  0  0  0
    6.3009    3.8695   -0.4109 H   0  0  0  0  0  0  0  0  0  0  0  0
    4.7732    3.0574    0.9054 C   0  0  0  0  0  0  0  0  0  0  0  0
    5.1166    3.6212    1.7854 H   0  0  0  0  0  0  0  0  0  0  0  0
    3.6704    2.2011    1.0205 C   0  0  0  0  0  0  0  0  0  0  0  0
    3.1569    2.0959    1.9873 H   0  0  0  0  0  0  0  0  0  0  0  0
   -2.2368    1.0341    1.7192 C   0  0  0  0  0  0  0  0  0  0  0  0
   -2.5749   -0.0029    2.6126 C   0  0  0  0  0  0  0  0  0  0  0  0
   -2.3105   -1.0424    2.3577 H   0  0  0  0  0  0  0  0  0  0  0  0
   -3.2589    0.2891    3.8020 C   0  0  0  0  0  0  0  0  0  0  0  0
   -3.5260   -0.5256    4.4921 H   0  0  0  0  0  0  0  0  0  0  0  0
   -3.6107    1.6145    4.1028 C   0  0  0  0  0  0  0  0  0  0  0  0
   -4.1497    1.8431    5.0349 H   0  0  0  0  0  0  0  0  0  0  0  0
   -3.2815    2.6482    3.2109 C   0  0  0  0  0  0  0  0  0  0  0  0
   -3.5574    3.6878    3.4435 H   0  0  0  0  0  0  0  0  0  0  0  0
   -2.5989    2.3636    2.0197 C   0  0  0  0  0  0  0  0  0  0  0  0
   -2.3446    3.1784    1.3261 H   0  0  0  0  0  0  0  0  0  0  0  0
   -2.1252    1.6180   -1.1136 C   0  0  0  0  0  0  0  0  0  0  0  0
   -3.3265    1.1135   -1.6520 C   0  0  0  0  0  0  0  0  0  0  0  0
   -3.7262    0.1535   -1.2873 H   0  0  0  0  0  0  0  0  0  0  0  0
   -3.9965    1.8219   -2.6588 C   0  0  0  0  0  0  0  0  0  0  0  0
   -4.9309    1.4206   -3.0797 H   0  0  0  0  0  0  0  0  0  0  0  0
   -3.4705    3.0343   -3.1365 C   0  0  0  0  0  0  0  0  0  0  0  0
   -3.9955    3.5875   -3.9301 H   0  0  0  0  0  0  0  0  0  0  0  0
   -2.2727    3.5364   -2.6042 C   0  0  0  0  0  0  0  0  0  0  0  0
   -1.8583    4.4864   -2.9748 H   0  0  0  0  0  0  0  0  0  0  0  0
   -1.5966    2.8309   -1.5954 C   0  0  0  0  0  0  0  0  0  0  0  0
   -0.6581    3.2252   -1.1771 H   0  0  0  0  0  0  0  0  0  0  0  0
  1  4  1  0  0  0  0
  1  6  1  0  0  0  0
  2  4  1  0  0  0  0
  2 39  1  0  0  0  0
  4  5  1  1  0  0  0
  5  3  3  0  0  0  0
  6 15  1  0  0  0  0
  7  6  2  0  0  0  0
  7  9  1  0  0  0  0
  8  7  1  0  0  0  0
  9 11  2  0  0  0  0
 10  9  1  0  0  0  0
 11 13  1  0  0  0  0
 11 12  1  0  0  0  0
 13 14  1  0  0  0  0
 15 16  1  0  0  0  0
 15 13  2  0  0  0  0
 17  1  1  0  0  0  0
 18 17  1  0  0  0  0
 18 19  1  0  0  0  0
 20 18  2  0  0  0  0
 21 20  1  0  0  0  0
 22 24  2  0  0  0  0
 22 20  1  0  0  0  0
 23 22  1  0  0  0  0
 24 26  1  0  0  0  0
 25 24  1  0  0  0  0
 26 27  1  0  0  0  0
 26 17  2  0  0  0  0
 28  1  1  0  0  0  0
 28 37  1  0  0  0  0
 29 28  2  0  0  0  0
 30 29  1  0  0  0  0
 31 29  1  0  0  0  0
 31 33  2  0  0  0  0
 32 31  1  0  0  0  0
 33 35  1  0  0  0  0
 34 33  1  0  0  0  0
 35 37  2  0  0  0  0
 35 36  1  0  0  0  0
 37 38  1  0  0  0  0
 39 48  2  0  0  0  0
 39 40  1  0  0  0  0
 40 42  2  0  0  0  0
 41 40  1  0  0  0  0
 42 44  1  0  0  0  0
 42 43  1  0  0  0  0
 44 45  1  0  0  0  0
 46 47  1  0  0  0  0
 46 44  2  0  0  0  0
 48 46  1  0  0  0  0
 49 48  1  0  0  0  0
 50  2  1  0  0  0  0
 51 52  1  0  0  0  0
 51 50  2  0  0  0  0
 53 51  1  0  0  0  0
 54 53  1  0  0  0  0
 55 53  2  0  0  0  0
 55 57  1  0  0  0  0
 56 55  1  0  0  0  0
 57 59  2  0  0  0  0
 58 57  1  0  0  0  0
 59 60  1  0  0  0  0
 59 50  1  0  0  0  0
M  END
