1
 OpenBabel05122313063D

 31 33  0  0  0  0  0  0  0  0999 V2000
    0.3931   -0.0008    0.0006 P   0  0  0  0  0  0  0  0  0  0  0  0
    1.1492   -1.6463    0.3181 C   0  0  0  0  0  0  0  0  0  0  0  0
    2.2658    1.5029   -3.9890 N   0  0  0  0  0  0  0  0  0  0  0  0
    2.3277   -1.8140    1.0671 C   0  0  0  0  0  0  0  0  0  0  0  0
    2.8407   -0.9567    1.5283 H   0  0  0  0  0  0  0  0  0  0  0  0
    2.2666    2.7061    3.2941 N   0  0  0  0  0  0  0  0  0  0  0  0
    2.2643   -4.2079    0.6962 N   0  0  0  0  0  0  0  0  0  0  0  0
    0.5447    1.6047   -2.2879 C   0  0  0  0  0  0  0  0  0  0  0  0
   -0.3852    2.0688   -1.9230 H   0  0  0  0  0  0  0  0  0  0  0  0
    1.1502    0.5476   -1.5827 C   0  0  0  0  0  0  0  0  0  0  0  0
    0.5342   -2.7878   -0.2295 C   0  0  0  0  0  0  0  0  0  0  0  0
   -0.4031   -2.7055   -0.8021 H   0  0  0  0  0  0  0  0  0  0  0  0
    1.1397    2.0065    3.5027 C   0  0  0  0  0  0  0  0  0  0  0  0
    0.6795    2.0996    4.5023 H   0  0  0  0  0  0  0  0  0  0  0  0
    1.1501    1.0971    1.2664 C   0  0  0  0  0  0  0  0  0  0  0  0
    1.1476    2.0430   -3.4781 C   0  0  0  0  0  0  0  0  0  0  0  0
    0.6943    2.8717   -4.0504 H   0  0  0  0  0  0  0  0  0  0  0  0
    2.3284    1.8294    1.0358 C   0  0  0  0  0  0  0  0  0  0  0  0
    2.8404    1.7997    0.0624 H   0  0  0  0  0  0  0  0  0  0  0  0
    2.8367   -3.1154    1.2231 C   0  0  0  0  0  0  0  0  0  0  0  0
    3.7588   -3.2766    1.8097 H   0  0  0  0  0  0  0  0  0  0  0  0
    2.3191   -0.0282   -2.1114 C   0  0  0  0  0  0  0  0  0  0  0  0
    2.8242   -0.8657   -1.6071 H   0  0  0  0  0  0  0  0  0  0  0  0
    2.8382    2.6155    2.0842 C   0  0  0  0  0  0  0  0  0  0  0  0
    3.7602    3.2042    1.9295 H   0  0  0  0  0  0  0  0  0  0  0  0
    1.1371   -4.0377   -0.0134 C   0  0  0  0  0  0  0  0  0  0  0  0
    0.6762   -4.9494   -0.4329 H   0  0  0  0  0  0  0  0  0  0  0  0
    0.5360    1.1941    2.5291 C   0  0  0  0  0  0  0  0  0  0  0  0
   -0.4011    0.6570    2.7451 H   0  0  0  0  0  0  0  0  0  0  0  0
    2.8287    0.4888   -3.3156 C   0  0  0  0  0  0  0  0  0  0  0  0
    3.7434    0.0527   -3.7557 H   0  0  0  0  0  0  0  0  0  0  0  0
  1  2  1  0  0  0  0
  1 15  1  0  0  0  0
  2  4  1  0  0  0  0
  3 16  2  0  0  0  0
  3 30  1  0  0  0  0
  4 20  2  0  0  0  0
  4  5  1  0  0  0  0
  6 13  1  0  0  0  0
  7 20  1  0  0  0  0
  8  9  1  0  0  0  0
  8 10  2  0  0  0  0
 10  1  1  0  0  0  0
 11 26  1  0  0  0  0
 11  2  2  0  0  0  0
 12 11  1  0  0  0  0
 13 14  1  0  0  0  0
 15 28  1  0  0  0  0
 16  8  1  0  0  0  0
 17 16  1  0  0  0  0
 18 15  2  0  0  0  0
 18 24  1  0  0  0  0
 19 18  1  0  0  0  0
 20 21  1  0  0  0  0
 22 23  1  0  0  0  0
 22 10  1  0  0  0  0
 24  6  2  0  0  0  0
 25 24  1  0  0  0  0
 26  7  2  0  0  0  0
 27 26  1  0  0  0  0
 28 29  1  0  0  0  0
 28 13  2  0  0  0  0
 30 22  2  0  0  0  0
 31 30  1  0  0  0  0
M  END
