1
 OpenBabel05122313063D

 43 45  0  0  0  0  0  0  0  0999 V2000
   -1.1832    0.2949   -0.4770 P   0  0  2  0  0  0  0  0  0  0  0  0
   -2.7542   -0.7134   -0.5052 C   0  0  0  0  0  0  0  0  0  0  0  0
   -2.8339   -1.6201    0.7346 C   0  0  0  0  0  0  0  0  0  0  0  0
   -4.0622   -2.5372    0.6613 C   0  0  0  0  0  0  0  0  0  0  0  0
   -5.3546   -1.7333    0.4708 C   0  0  0  0  0  0  0  0  0  0  0  0
   -5.2661   -0.8226   -0.7601 C   0  0  0  0  0  0  0  0  0  0  0  0
   -4.0410    0.1035   -0.6910 C   0  0  0  0  0  0  0  0  0  0  0  0
   -1.5167    1.5533    0.8220 C   0  0  0  0  0  0  0  0  0  0  0  0
   -1.1739    1.2355    2.1537 C   0  0  0  0  0  0  0  0  0  0  0  0
   -1.4780    2.1211    3.1965 C   0  0  0  0  0  0  0  0  0  0  0  0
   -2.1175    3.3406    2.9220 C   0  0  0  0  0  0  0  0  0  0  0  0
   -2.4602    3.6662    1.6007 C   0  0  0  0  0  0  0  0  0  0  0  0
   -2.1665    2.7755    0.5563 C   0  0  0  0  0  0  0  0  0  0  0  0
   -1.1581    1.1872   -2.1130 C   0  0  0  0  0  0  0  0  0  0  0  0
    0.1660    1.8779   -2.3249 C   0  0  0  0  0  0  0  0  0  0  0  0
    0.3306    3.2519   -2.0615 C   0  0  0  0  0  0  0  0  0  0  0  0
    1.5940    3.8557   -2.1686 C   0  0  0  0  0  0  0  0  0  0  0  0
    2.7105    3.0912   -2.5390 C   0  0  0  0  0  0  0  0  0  0  0  0
    2.5533    1.7237   -2.8186 C   0  0  0  0  0  0  0  0  0  0  0  0
    1.2928    1.1209   -2.7135 C   0  0  0  0  0  0  0  0  0  0  0  0
   -2.5813   -1.3664   -1.3903 H   0  0  0  0  0  0  0  0  0  0  0  0
   -1.9009   -2.2169    0.8122 H   0  0  0  0  0  0  0  0  0  0  0  0
   -2.8965   -0.9906    1.6510 H   0  0  0  0  0  0  0  0  0  0  0  0
   -3.9333   -3.2390   -0.1925 H   0  0  0  0  0  0  0  0  0  0  0  0
   -4.1232   -3.1626    1.5766 H   0  0  0  0  0  0  0  0  0  0  0  0
   -6.2275   -2.4140    0.3857 H   0  0  0  0  0  0  0  0  0  0  0  0
   -5.5318   -1.1072    1.3747 H   0  0  0  0  0  0  0  0  0  0  0  0
   -5.1943   -1.4506   -1.6759 H   0  0  0  0  0  0  0  0  0  0  0  0
   -6.1908   -0.2169   -0.8656 H   0  0  0  0  0  0  0  0  0  0  0  0
   -4.1600    0.8073    0.1623 H   0  0  0  0  0  0  0  0  0  0  0  0
   -3.9856    0.7236   -1.6103 H   0  0  0  0  0  0  0  0  0  0  0  0
   -0.6359    0.2975    2.3581 H   0  0  0  0  0  0  0  0  0  0  0  0
   -1.1990    1.8628    4.2291 H   0  0  0  0  0  0  0  0  0  0  0  0
   -2.3457    4.0414    3.7394 H   0  0  0  0  0  0  0  0  0  0  0  0
   -2.9616    4.6205    1.3784 H   0  0  0  0  0  0  0  0  0  0  0  0
   -2.4555    3.0406   -0.4708 H   0  0  0  0  0  0  0  0  0  0  0  0
   -1.3032    0.3650   -2.8437 H   0  0  0  0  0  0  0  0  0  0  0  0
   -2.0147    1.8845   -2.1962 H   0  0  0  0  0  0  0  0  0  0  0  0
   -0.5382    3.8571   -1.7599 H   0  0  0  0  0  0  0  0  0  0  0  0
    1.7054    4.9298   -1.9555 H   0  0  0  0  0  0  0  0  0  0  0  0
    3.7026    3.5616   -2.6136 H   0  0  0  0  0  0  0  0  0  0  0  0
    3.4225    1.1178   -3.1173 H   0  0  0  0  0  0  0  0  0  0  0  0
    1.1658    0.0454   -2.9170 H   0  0  0  0  0  0  0  0  0  0  0  0
  1 14  1  6  0  0  0
  1  8  1  0  0  0  0
  2  1  1  0  0  0  0
  2  3  1  0  0  0  0
  3 22  1  0  0  0  0
  3 23  1  0  0  0  0
  4  3  1  0  0  0  0
  4 25  1  0  0  0  0
  5  4  1  0  0  0  0
  5 27  1  0  0  0  0
  6  7  1  0  0  0  0
  6  5  1  0  0  0  0
  7  2  1  0  0  0  0
  7 30  1  0  0  0  0
  8  9  1  0  0  0  0
  9 32  1  0  0  0  0
  9 10  2  0  0  0  0
 10 33  1  0  0  0  0
 11 10  1  0  0  0  0
 11 34  1  0  0  0  0
 12 11  2  0  0  0  0
 13  8  2  0  0  0  0
 13 12  1  0  0  0  0
 15 14  1  0  0  0  0
 15 16  1  0  0  0  0
 16 39  1  0  0  0  0
 17 16  2  0  0  0  0
 17 40  1  0  0  0  0
 18 17  1  0  0  0  0
 19 20  1  0  0  0  0
 19 18  2  0  0  0  0
 20 15  2  0  0  0  0
 21  2  1  0  0  0  0
 24  4  1  0  0  0  0
 26  5  1  0  0  0  0
 28  6  1  0  0  0  0
 29  6  1  0  0  0  0
 31  7  1  0  0  0  0
 35 12  1  0  0  0  0
 36 13  1  0  0  0  0
 37 14  1  0  0  0  0
 38 14  1  0  0  0  0
 41 18  1  0  0  0  0
 42 19  1  0  0  0  0
 43 20  1  0  0  0  0
M  END
