1
 OpenBabel05122313063D

 16 16  0  0  0  0  0  0  0  0999 V2000
    1.3107    0.5251   -1.1356 P   0  0  0  0  0  0  0  0  0  0  0  0
    2.9493   -0.6294    1.1574 P   0  0  0  0  0  0  0  0  0  0  0  0
    2.0618    1.6348   -2.0785 F   0  0  0  0  0  0  0  0  0  0  0  0
    0.7886   -0.4212   -2.3690 F   0  0  0  0  0  0  0  0  0  0  0  0
    4.3526   -1.5593    0.7463 N   0  0  0  0  0  0  0  0  0  0  0  0
    4.6356   -1.7235   -0.5528 N   0  0  0  0  0  0  0  0  0  0  0  0
    2.7006   -0.4334   -0.5573 C   0  0  0  0  0  0  0  0  0  0  0  0
    3.7221   -1.0976   -1.3036 C   0  0  0  0  0  0  0  0  0  0  0  0
    3.8267   -1.1371   -2.7981 C   0  0  0  0  0  0  0  0  0  0  0  0
    5.2519   -2.1870    1.7029 C   0  0  0  0  0  0  0  0  0  0  0  0
    4.7468   -1.6705   -3.0980 H   0  0  0  0  0  0  0  0  0  0  0  0
    3.8423   -0.1101   -3.2142 H   0  0  0  0  0  0  0  0  0  0  0  0
    2.9459   -1.6460   -3.2376 H   0  0  0  0  0  0  0  0  0  0  0  0
    5.2693   -3.2843    1.5482 H   0  0  0  0  0  0  0  0  0  0  0  0
    4.8998   -1.9672    2.7278 H   0  0  0  0  0  0  0  0  0  0  0  0
    6.2806   -1.7946    1.5748 H   0  0  0  0  0  0  0  0  0  0  0  0
  1  7  1  0  0  0  0
  3  1  1  0  0  0  0
  4  1  1  0  0  0  0
  5  2  1  0  0  0  0
  5 10  1  0  0  0  0
  6  5  1  0  0  0  0
  7  2  2  0  0  0  0
  8  7  1  0  0  0  0
  8  6  2  0  0  0  0
  9  8  1  0  0  0  0
 10 15  1  0  0  0  0
 11  9  1  0  0  0  0
 12  9  1  0  0  0  0
 13  9  1  0  0  0  0
 14 10  1  0  0  0  0
 16 10  1  0  0  0  0
M  END
