1
 OpenBabel05122313063D

 28 29  0  0  0  0  0  0  0  0999 V2000
    1.5247    1.1749   -0.5272 P   0  0  0  0  0  0  0  0  0  0  0  0
    1.5679    1.9996   -2.1685 C   0  0  0  0  0  0  0  0  0  0  0  0
    1.3013    1.2991   -2.9796 H   0  0  0  0  0  0  0  0  0  0  0  0
    1.8298    3.2932   -2.4274 C   0  0  0  0  0  0  0  0  0  0  0  0
    2.0501    4.0270   -1.6347 H   0  0  0  0  0  0  0  0  0  0  0  0
    1.8186    3.6702   -3.4643 H   0  0  0  0  0  0  0  0  0  0  0  0
    1.3514    2.6039    0.6496 C   0  0  0  0  0  0  0  0  0  0  0  0
    0.3931    3.6135    0.4086 C   0  0  0  0  0  0  0  0  0  0  0  0
   -0.1977    3.6031   -0.5170 H   0  0  0  0  0  0  0  0  0  0  0  0
    0.1711    4.6263    1.3535 C   0  0  0  0  0  0  0  0  0  0  0  0
   -0.5863    5.3977    1.1472 H   0  0  0  0  0  0  0  0  0  0  0  0
    0.8960    4.6450    2.5558 C   0  0  0  0  0  0  0  0  0  0  0  0
    0.7160    5.4356    3.2999 H   0  0  0  0  0  0  0  0  0  0  0  0
    1.8599    3.6531    2.7982 C   0  0  0  0  0  0  0  0  0  0  0  0
    2.4439    3.6665    3.7312 H   0  0  0  0  0  0  0  0  0  0  0  0
    2.0934    2.6448    1.8494 C   0  0  0  0  0  0  0  0  0  0  0  0
    2.8616    1.8817    2.0431 H   0  0  0  0  0  0  0  0  0  0  0  0
    3.3238    0.7503   -0.2574 C   0  0  0  0  0  0  0  0  0  0  0  0
    3.6673   -0.3088    0.6078 C   0  0  0  0  0  0  0  0  0  0  0  0
    2.8770   -0.9042    1.0796 H   0  0  0  0  0  0  0  0  0  0  0  0
    5.0122   -0.6195    0.8551 C   0  0  0  0  0  0  0  0  0  0  0  0
    5.2585   -1.4534    1.5298 H   0  0  0  0  0  0  0  0  0  0  0  0
    6.0335    0.1181    0.2368 C   0  0  0  0  0  0  0  0  0  0  0  0
    7.0891   -0.1321    0.4232 H   0  0  0  0  0  0  0  0  0  0  0  0
    5.7000    1.1732   -0.6265 C   0  0  0  0  0  0  0  0  0  0  0  0
    6.4934    1.7556   -1.1199 H   0  0  0  0  0  0  0  0  0  0  0  0
    4.3546    1.4890   -0.8709 C   0  0  0  0  0  0  0  0  0  0  0  0
    4.1037    2.3117   -1.5557 H   0  0  0  0  0  0  0  0  0  0  0  0
  1 18  1  0  0  0  0
  1  7  1  0  0  0  0
  2  1  1  0  0  0  0
  3  2  1  0  0  0  0
  4  2  2  0  0  0  0
  4  5  1  0  0  0  0
  6  4  1  0  0  0  0
  7 16  1  0  0  0  0
  8  7  2  0  0  0  0
  8 10  1  0  0  0  0
  9  8  1  0  0  0  0
 10 12  2  0  0  0  0
 11 10  1  0  0  0  0
 12 14  1  0  0  0  0
 12 13  1  0  0  0  0
 14 15  1  0  0  0  0
 16 17  1  0  0  0  0
 16 14  2  0  0  0  0
 18 19  1  0  0  0  0
 19 21  2  0  0  0  0
 19 20  1  0  0  0  0
 21 22  1  0  0  0  0
 23 24  1  0  0  0  0
 23 21  1  0  0  0  0
 25 23  2  0  0  0  0
 26 25  1  0  0  0  0
 27 25  1  0  0  0  0
 27 18  2  0  0  0  0
 28 27  1  0  0  0  0
M  END
