2
 OpenBabel05122313063D

 52 55  0  0  0  0  0  0  0  0999 V2000
    1.7203    0.0392   -0.4000 As  0  0  0  0  0  0  0  0  0  0  0  0
   -1.5053    0.1341   -0.7537 P   0  0  0  0  0  0  0  0  0  0  0  0
    3.3441    1.1090   -0.3346 C   0  0  0  0  0  0  0  0  0  0  0  0
    4.0035    1.5935   -1.4813 C   0  0  0  0  0  0  0  0  0  0  0  0
    3.6144    1.3734   -2.4876 H   0  0  0  0  0  0  0  0  0  0  0  0
    5.1661    2.3687   -1.3427 C   0  0  0  0  0  0  0  0  0  0  0  0
    5.6812    2.7475   -2.2389 H   0  0  0  0  0  0  0  0  0  0  0  0
    5.6684    2.6610   -0.0643 C   0  0  0  0  0  0  0  0  0  0  0  0
    6.5796    3.2694    0.0411 H   0  0  0  0  0  0  0  0  0  0  0  0
    5.0046    2.1855    1.0785 C   0  0  0  0  0  0  0  0  0  0  0  0
    5.3914    2.4236    2.0810 H   0  0  0  0  0  0  0  0  0  0  0  0
    3.8399    1.4132    0.9504 C   0  0  0  0  0  0  0  0  0  0  0  0
    3.2980    1.0555    1.8428 H   0  0  0  0  0  0  0  0  0  0  0  0
    2.3584   -1.7774   -0.7533 C   0  0  0  0  0  0  0  0  0  0  0  0
    1.5687   -2.8399   -0.2701 C   0  0  0  0  0  0  0  0  0  0  0  0
    0.6712   -2.6125    0.3305 H   0  0  0  0  0  0  0  0  0  0  0  0
    1.9431   -4.1678   -0.5322 C   0  0  0  0  0  0  0  0  0  0  0  0
    1.3264   -4.9957   -0.1499 H   0  0  0  0  0  0  0  0  0  0  0  0
    3.1100   -4.4371   -1.2649 C   0  0  0  0  0  0  0  0  0  0  0  0
    3.4073   -5.4779   -1.4646 H   0  0  0  0  0  0  0  0  0  0  0  0
    3.9068   -3.3781   -1.7316 C   0  0  0  0  0  0  0  0  0  0  0  0
    4.8292   -3.5890   -2.2944 H   0  0  0  0  0  0  0  0  0  0  0  0
    3.5344   -2.0489   -1.4767 C   0  0  0  0  0  0  0  0  0  0  0  0
    4.1689   -1.2218   -1.8326 H   0  0  0  0  0  0  0  0  0  0  0  0
   -2.8761   -1.0818   -0.8245 C   0  0  0  0  0  0  0  0  0  0  0  0
   -4.1937   -0.6850   -0.5171 C   0  0  0  0  0  0  0  0  0  0  0  0
   -4.4156    0.3752   -0.3261 H   0  0  0  0  0  0  0  0  0  0  0  0
   -5.2151   -1.6433   -0.4349 C   0  0  0  0  0  0  0  0  0  0  0  0
   -6.2398   -1.3245   -0.1908 H   0  0  0  0  0  0  0  0  0  0  0  0
   -4.9334   -3.0002   -0.6569 C   0  0  0  0  0  0  0  0  0  0  0  0
   -5.7370   -3.7491   -0.5922 H   0  0  0  0  0  0  0  0  0  0  0  0
   -3.6197   -3.4011   -0.9522 C   0  0  0  0  0  0  0  0  0  0  0  0
   -3.3903   -4.4647   -1.1179 H   0  0  0  0  0  0  0  0  0  0  0  0
   -2.5931   -2.4496   -1.0277 C   0  0  0  0  0  0  0  0  0  0  0  0
   -1.5622   -2.7808   -1.2283 H   0  0  0  0  0  0  0  0  0  0  0  0
   -2.2706    1.7533   -1.1483 C   0  0  0  0  0  0  0  0  0  0  0  0
   -3.0022    1.9423   -2.3406 C   0  0  0  0  0  0  0  0  0  0  0  0
   -3.1593    1.1012   -3.0347 H   0  0  0  0  0  0  0  0  0  0  0  0
   -3.5466    3.1992   -2.6371 C   0  0  0  0  0  0  0  0  0  0  0  0
   -4.1162    3.3442   -3.5677 H   0  0  0  0  0  0  0  0  0  0  0  0
   -3.3672    4.2703   -1.7443 C   0  0  0  0  0  0  0  0  0  0  0  0
   -3.7964    5.2566   -1.9783 H   0  0  0  0  0  0  0  0  0  0  0  0
   -2.6493    4.0815   -0.5539 C   0  0  0  0  0  0  0  0  0  0  0  0
   -2.5179    4.9158    0.1514 H   0  0  0  0  0  0  0  0  0  0  0  0
   -2.0999    2.8256   -0.2508 C   0  0  0  0  0  0  0  0  0  0  0  0
   -1.5568    2.6539    0.6912 H   0  0  0  0  0  0  0  0  0  0  0  0
    0.9110    0.4639   -2.1689 C   0  0  0  0  0  0  0  0  0  0  0  0
    0.8012    1.5671   -2.2159 H   0  0  0  0  0  0  0  0  0  0  0  0
    1.5785    0.1380   -2.9913 H   0  0  0  0  0  0  0  0  0  0  0  0
   -0.4438   -0.2404   -2.2499 C   0  0  0  0  0  0  0  0  0  0  0  0
   -0.3041   -1.3414   -2.2751 H   0  0  0  0  0  0  0  0  0  0  0  0
   -1.0075    0.0429   -3.1624 H   0  0  0  0  0  0  0  0  0  0  0  0
  1  3  1  0  0  0  0
  3 12  1  0  0  0  0
  4  6  1  0  0  0  0
  4  3  2  0  0  0  0
  5  4  1  0  0  0  0
  6  8  2  0  0  0  0
  7  6  1  0  0  0  0
  8  9  1  0  0  0  0
  8 10  1  0  0  0  0
 10 11  1  0  0  0  0
 12 10  2  0  0  0  0
 12 13  1  0  0  0  0
 14  1  1  0  0  0  0
 14 15  1  0  0  0  0
 15 16  1  0  0  0  0
 17 15  2  0  0  0  0
 17 18  1  0  0  0  0
 19 17  1  0  0  0  0
 20 19  1  0  0  0  0
 21 23  1  0  0  0  0
 21 19  2  0  0  0  0
 22 21  1  0  0  0  0
 23 14  2  0  0  0  0
 24 23  1  0  0  0  0
 25  2  1  0  0  0  0
 25 26  1  0  0  0  0
 26 28  2  0  0  0  0
 26 27  1  0  0  0  0
 28 29  1  0  0  0  0
 30 31  1  0  0  0  0
 30 28  1  0  0  0  0
 32 30  2  0  0  0  0
 33 32  1  0  0  0  0
 34 32  1  0  0  0  0
 34 25  2  0  0  0  0
 35 34  1  0  0  0  0
 36  2  1  0  0  0  0
 36 45  1  0  0  0  0
 37 36  2  0  0  0  0
 38 37  1  0  0  0  0
 39 37  1  0  0  0  0
 39 41  2  0  0  0  0
 40 39  1  0  0  0  0
 41 43  1  0  0  0  0
 42 41  1  0  0  0  0
 43 45  2  0  0  0  0
 43 44  1  0  0  0  0
 45 46  1  0  0  0  0
 47  1  1  0  0  0  0
 48 47  1  0  0  0  0
 49 47  1  0  0  0  0
 50 47  1  0  0  0  0
 50  2  1  0  0  0  0
 51 50  1  0  0  0  0
 52 50  1  0  0  0  0
M  END
