1
 OpenBabel05122313063D

 52 54  0  0  0  0  0  0  0  0999 V2000
   -0.7566    0.1549   -0.5070 P   0  0  0  0  0  0  0  0  0  0  0  0
   -3.0393   -1.4163   -1.0167 N   0  0  0  0  0  0  0  0  0  0  0  0
   -2.8383    1.8298    0.3599 N   0  0  0  0  0  0  0  0  0  0  0  0
    0.7838    2.4071   -1.0993 N   0  0  0  0  0  0  0  0  0  0  0  0
   -2.0903   -0.5293   -1.6501 C   0  0  0  0  0  0  0  0  0  0  0  0
   -2.6419    0.3635   -2.0163 H   0  0  0  0  0  0  0  0  0  0  0  0
   -1.5709   -0.9817   -2.5397 H   0  0  0  0  0  0  0  0  0  0  0  0
   -4.2600   -1.5623   -1.8109 C   0  0  0  0  0  0  0  0  0  0  0  0
   -4.0672   -2.1231   -2.7643 H   0  0  0  0  0  0  0  0  0  0  0  0
   -4.6026   -0.5422   -2.0935 H   0  0  0  0  0  0  0  0  0  0  0  0
   -5.3764   -2.2620   -1.0396 C   0  0  0  0  0  0  0  0  0  0  0  0
   -6.2836   -2.3419   -1.6709 H   0  0  0  0  0  0  0  0  0  0  0  0
   -5.6375   -1.6796   -0.1298 H   0  0  0  0  0  0  0  0  0  0  0  0
   -3.3730   -3.5076    0.2896 C   0  0  0  0  0  0  0  0  0  0  0  0
   -3.5891   -2.9537    1.2277 H   0  0  0  0  0  0  0  0  0  0  0  0
   -2.8809   -4.4585    0.5735 H   0  0  0  0  0  0  0  0  0  0  0  0
   -2.4514   -2.6930   -0.6094 C   0  0  0  0  0  0  0  0  0  0  0  0
   -1.5176   -2.4738   -0.0499 H   0  0  0  0  0  0  0  0  0  0  0  0
   -2.1780   -3.3062   -1.5097 H   0  0  0  0  0  0  0  0  0  0  0  0
   -1.8414    0.8954    0.8410 C   0  0  0  0  0  0  0  0  0  0  0  0
   -2.2960    0.0287    1.3674 H   0  0  0  0  0  0  0  0  0  0  0  0
   -1.1571    1.3601    1.5786 H   0  0  0  0  0  0  0  0  0  0  0  0
   -2.6009    3.2152    0.7518 C   0  0  0  0  0  0  0  0  0  0  0  0
   -1.5158    3.4242    0.6323 H   0  0  0  0  0  0  0  0  0  0  0  0
   -2.8534    3.3897    1.8309 H   0  0  0  0  0  0  0  0  0  0  0  0
   -3.3909    4.1976   -0.1097 C   0  0  0  0  0  0  0  0  0  0  0  0
   -3.0820    4.1074   -1.1745 H   0  0  0  0  0  0  0  0  0  0  0  0
   -3.2040    5.2400    0.2174 H   0  0  0  0  0  0  0  0  0  0  0  0
   -5.1889    2.1526   -0.3393 C   0  0  0  0  0  0  0  0  0  0  0  0
   -6.2281    1.8048   -0.1738 H   0  0  0  0  0  0  0  0  0  0  0  0
   -4.9358    1.9955   -1.4107 H   0  0  0  0  0  0  0  0  0  0  0  0
   -4.2183    1.3846    0.5512 C   0  0  0  0  0  0  0  0  0  0  0  0
   -4.5381    1.4876    1.6199 H   0  0  0  0  0  0  0  0  0  0  0  0
   -4.2507    0.3056    0.2944 H   0  0  0  0  0  0  0  0  0  0  0  0
   -0.3654    1.6479   -1.5639 C   0  0  0  0  0  0  0  0  0  0  0  0
   -0.2616    1.3062   -2.6284 H   0  0  0  0  0  0  0  0  0  0  0  0
   -1.2820    2.2747   -1.5150 H   0  0  0  0  0  0  0  0  0  0  0  0
    2.0357    1.7539   -1.4886 C   0  0  0  0  0  0  0  0  0  0  0  0
    2.1543    1.7537   -2.6054 H   0  0  0  0  0  0  0  0  0  0  0  0
    1.9648    0.6952   -1.1580 H   0  0  0  0  0  0  0  0  0  0  0  0
    3.2662    2.3908   -0.8559 C   0  0  0  0  0  0  0  0  0  0  0  0
    4.1823    1.8600   -1.1819 H   0  0  0  0  0  0  0  0  0  0  0  0
    3.2109    2.3278    0.2498 H   0  0  0  0  0  0  0  0  0  0  0  0
    1.7955    4.6636   -0.8613 C   0  0  0  0  0  0  0  0  0  0  0  0
    1.6954    4.6210    0.2448 H   0  0  0  0  0  0  0  0  0  0  0  0
    1.6963    5.7205   -1.1785 H   0  0  0  0  0  0  0  0  0  0  0  0
    0.7154    3.8088   -1.5176 C   0  0  0  0  0  0  0  0  0  0  0  0
   -0.2822    4.2013   -1.2232 H   0  0  0  0  0  0  0  0  0  0  0  0
    0.7960    3.9128   -2.6322 H   0  0  0  0  0  0  0  0  0  0  0  0
   -4.9287   -3.9653   -0.5573 S   0  0  0  0  0  0  0  0  0  0  0  0
   -5.1978    3.9475    0.0217 S   0  0  0  0  0  0  0  0  0  0  0  0
    3.4800    4.1408   -1.3411 S   0  0  0  0  0  0  0  0  0  0  0  0
  1 20  1  0  0  0  0
  2 17  1  0  0  0  0
  3 32  1  0  0  0  0
  3 23  1  0  0  0  0
  3 20  1  0  0  0  0
  5  2  1  0  0  0  0
  5  1  1  0  0  0  0
  6  5  1  0  0  0  0
  7  5  1  0  0  0  0
  8 11  1  0  0  0  0
  8  2  1  0  0  0  0
  9  8  1  0  0  0  0
 10  8  1  0  0  0  0
 11 50  1  0  0  0  0
 11 13  1  0  0  0  0
 12 11  1  0  0  0  0
 14 16  1  0  0  0  0
 14 15  1  0  0  0  0
 17 18  1  0  0  0  0
 17 14  1  0  0  0  0
 19 17  1  0  0  0  0
 20 21  1  0  0  0  0
 20 22  1  0  0  0  0
 23 25  1  0  0  0  0
 24 23  1  0  0  0  0
 26 51  1  0  0  0  0
 26 28  1  0  0  0  0
 26 23  1  0  0  0  0
 27 26  1  0  0  0  0
 29 30  1  0  0  0  0
 29 51  1  0  0  0  0
 29 32  1  0  0  0  0
 31 29  1  0  0  0  0
 32 33  1  0  0  0  0
 34 32  1  0  0  0  0
 35 37  1  0  0  0  0
 35  4  1  0  0  0  0
 35  1  1  0  0  0  0
 36 35  1  0  0  0  0
 38 40  1  0  0  0  0
 38  4  1  0  0  0  0
 38 41  1  0  0  0  0
 39 38  1  0  0  0  0
 41 43  1  0  0  0  0
 42 41  1  0  0  0  0
 44 45  1  0  0  0  0
 46 44  1  0  0  0  0
 47 48  1  0  0  0  0
 47  4  1  0  0  0  0
 47 44  1  0  0  0  0
 49 47  1  0  0  0  0
 50 14  1  0  0  0  0
 52 44  1  0  0  0  0
 52 41  1  0  0  0  0
M  END
