35
 OpenBabel05122313063D

 38 38  0  0  0  0  0  0  0  0999 V2000
    1.7544   -1.0186   -0.5472 B   0  0  0  0  0  0  0  0  0  0  0  0
    1.0914    1.8698    0.4058 C   0  0  0  0  0  0  0  0  0  0  0  0
    1.4687    2.5958    1.5548 C   0  0  0  0  0  0  0  0  0  0  0  0
    1.4325    2.1118    2.5439 H   0  0  0  0  0  0  0  0  0  0  0  0
    1.8839    3.9328    1.4471 C   0  0  0  0  0  0  0  0  0  0  0  0
    2.1725    4.4888    2.3523 H   0  0  0  0  0  0  0  0  0  0  0  0
    1.9242    4.5606    0.1924 C   0  0  0  0  0  0  0  0  0  0  0  0
    2.2461    5.6096    0.1091 H   0  0  0  0  0  0  0  0  0  0  0  0
    1.5378    3.8475   -0.9550 C   0  0  0  0  0  0  0  0  0  0  0  0
    1.5520    4.3380   -1.9402 H   0  0  0  0  0  0  0  0  0  0  0  0
    1.1207    2.5135   -0.8502 C   0  0  0  0  0  0  0  0  0  0  0  0
    0.8025    1.9636   -1.7501 H   0  0  0  0  0  0  0  0  0  0  0  0
    4.0102    0.1986   -0.0677 C   0  0  0  0  0  0  0  0  0  0  0  0
    4.9790    0.0710    0.4593 H   0  0  0  0  0  0  0  0  0  0  0  0
    3.3964    0.8864    0.5440 H   0  0  0  0  0  0  0  0  0  0  0  0
    4.2329    0.7969   -1.4460 C   0  0  0  0  0  0  0  0  0  0  0  0
    4.9484    0.2152   -2.0601 H   0  0  0  0  0  0  0  0  0  0  0  0
    4.6550    1.8124   -1.3147 H   0  0  0  0  0  0  0  0  0  0  0  0
    3.2850    0.9008   -2.0039 H   0  0  0  0  0  0  0  0  0  0  0  0
    3.9549   -2.1448   -0.9327 C   0  0  0  0  0  0  0  0  0  0  0  0
    3.8163   -1.7562   -1.9584 H   0  0  0  0  0  0  0  0  0  0  0  0
    3.3358   -3.0584   -0.8719 H   0  0  0  0  0  0  0  0  0  0  0  0
    5.4193   -2.4521   -0.6512 C   0  0  0  0  0  0  0  0  0  0  0  0
    6.0709   -1.5595   -0.7296 H   0  0  0  0  0  0  0  0  0  0  0  0
    5.7746   -3.1813   -1.4056 H   0  0  0  0  0  0  0  0  0  0  0  0
    5.5788   -2.9125    0.3439 H   0  0  0  0  0  0  0  0  0  0  0  0
    3.3495   -1.5867    1.4221 C   0  0  0  0  0  0  0  0  0  0  0  0
    4.4188   -1.6081    1.7181 H   0  0  0  0  0  0  0  0  0  0  0  0
    2.8781   -0.7704    2.0027 H   0  0  0  0  0  0  0  0  0  0  0  0
    2.6801   -2.9125    1.7456 C   0  0  0  0  0  0  0  0  0  0  0  0
    1.5985   -2.9077    1.5167 H   0  0  0  0  0  0  0  0  0  0  0  0
    2.8005   -3.1034    2.8303 H   0  0  0  0  0  0  0  0  0  0  0  0
    3.1421   -3.7656    1.2111 H   0  0  0  0  0  0  0  0  0  0  0  0
    3.2956   -1.1369   -0.0209 N   0  3  0  0  0  0  0  0  0  0  0  0
    0.5368    0.1165    0.4924 P   0  0  0  0  0  0  0  0  0  0  0  0
    1.2694   -2.1393   -0.5425 H   0  0  0  0  0  0  0  0  0  0  0  0
    1.7587   -0.5598   -1.6814 H   0  0  0  0  0  0  0  0  0  0  0  0
    0.7864   -0.1121    1.8883 H   0  0  0  0  0  0  0  0  0  0  0  0
  1 36  1  0  0  0  0
  1 34  1  0  0  0  0
  1 35  1  0  0  0  0
  2 35  1  0  0  0  0
  2  3  1  0  0  0  0
  3  4  1  0  0  0  0
  5  3  2  0  0  0  0
  5  6  1  0  0  0  0
  7  5  1  0  0  0  0
  8  7  1  0  0  0  0
  9 11  1  0  0  0  0
  9  7  2  0  0  0  0
 10  9  1  0  0  0  0
 11  2  2  0  0  0  0
 12 11  1  0  0  0  0
 13 34  1  0  0  0  0
 13 14  1  0  0  0  0
 13 15  1  0  0  0  0
 16 18  1  0  0  0  0
 16 13  1  0  0  0  0
 17 16  1  0  0  0  0
 19 16  1  0  0  0  0
 20 22  1  0  0  0  0
 20 23  1  0  0  0  0
 20 34  1  0  0  0  0
 21 20  1  0  0  0  0
 23 26  1  0  0  0  0
 24 23  1  0  0  0  0
 25 23  1  0  0  0  0
 27 28  1  0  0  0  0
 27 30  1  0  0  0  0
 27 29  1  0  0  0  0
 30 32  1  0  0  0  0
 31 30  1  0  0  0  0
 33 30  1  0  0  0  0
 34 27  1  0  0  0  0
 35 38  1  0  0  0  0
 37  1  1  0  0  0  0
M  CHG  1  34   1
M  END
