1
 OpenBabel05122313063D

 33 33  0  0  0  0  0  0  0  0999 V2000
   -2.2171    0.7679   -0.0326 P   0  0  0  0  0  0  0  0  0  0  0  0
   -3.4993   -1.7269    0.4291 N   0  0  0  0  0  0  0  0  0  0  0  0
   -3.5068   -0.4908   -0.2098 C   0  0  0  0  0  0  0  0  0  0  0  0
   -4.6918   -0.4155   -0.9583 C   0  0  0  0  0  0  0  0  0  0  0  0
   -4.9981    0.4297   -1.5839 H   0  0  0  0  0  0  0  0  0  0  0  0
   -5.4020   -1.6310   -0.7700 C   0  0  0  0  0  0  0  0  0  0  0  0
   -6.3634   -1.9098   -1.2153 H   0  0  0  0  0  0  0  0  0  0  0  0
   -4.6386   -2.4152    0.0899 C   0  0  0  0  0  0  0  0  0  0  0  0
   -4.8164   -3.4196    0.4908 H   0  0  0  0  0  0  0  0  0  0  0  0
   -2.4763   -2.2660    1.3102 C   0  0  0  0  0  0  0  0  0  0  0  0
   -2.1080   -3.2324    0.9150 H   0  0  0  0  0  0  0  0  0  0  0  0
   -2.8741   -2.4057    2.3357 H   0  0  0  0  0  0  0  0  0  0  0  0
   -1.6129   -1.5734    1.3440 H   0  0  0  0  0  0  0  0  0  0  0  0
   -2.7369    1.7801    1.4572 C   0  0  0  0  0  0  0  0  0  0  0  0
   -1.9372    2.5479    1.5269 H   0  0  0  0  0  0  0  0  0  0  0  0
   -4.1099    2.4311    1.2775 C   0  0  0  0  0  0  0  0  0  0  0  0
   -4.3819    2.9908    2.1966 H   0  0  0  0  0  0  0  0  0  0  0  0
   -4.8967    1.6685    1.1008 H   0  0  0  0  0  0  0  0  0  0  0  0
   -4.1352    3.1506    0.4354 H   0  0  0  0  0  0  0  0  0  0  0  0
   -2.6661    0.9177    2.7213 C   0  0  0  0  0  0  0  0  0  0  0  0
   -2.8778    1.5435    3.6127 H   0  0  0  0  0  0  0  0  0  0  0  0
   -1.6566    0.4805    2.8490 H   0  0  0  0  0  0  0  0  0  0  0  0
   -3.4197    0.1039    2.6996 H   0  0  0  0  0  0  0  0  0  0  0  0
   -2.4704    1.8888   -1.5090 C   0  0  0  0  0  0  0  0  0  0  0  0
   -3.5559    2.1267   -1.5260 H   0  0  0  0  0  0  0  0  0  0  0  0
   -2.0857    1.1756   -2.8097 C   0  0  0  0  0  0  0  0  0  0  0  0
   -2.3380    1.8203   -3.6771 H   0  0  0  0  0  0  0  0  0  0  0  0
   -2.6034    0.2046   -2.9253 H   0  0  0  0  0  0  0  0  0  0  0  0
   -0.9975    0.9674   -2.8302 H   0  0  0  0  0  0  0  0  0  0  0  0
   -1.6745    3.1864   -1.3168 C   0  0  0  0  0  0  0  0  0  0  0  0
   -1.7666    3.8174   -2.2247 H   0  0  0  0  0  0  0  0  0  0  0  0
   -0.5999    2.9693   -1.1511 H   0  0  0  0  0  0  0  0  0  0  0  0
   -2.0288    3.7837   -0.4544 H   0  0  0  0  0  0  0  0  0  0  0  0
  1 14  1  0  0  0  0
  2 10  1  0  0  0  0
  3  1  1  0  0  0  0
  3  2  1  0  0  0  0
  4  6  1  0  0  0  0
  4  3  2  0  0  0  0
  5  4  1  0  0  0  0
  6  8  2  0  0  0  0
  7  6  1  0  0  0  0
  8  2  1  0  0  0  0
  8  9  1  0  0  0  0
 10 13  1  0  0  0  0
 10 12  1  0  0  0  0
 11 10  1  0  0  0  0
 14 15  1  0  0  0  0
 14 20  1  0  0  0  0
 16 14  1  0  0  0  0
 16 17  1  0  0  0  0
 18 16  1  0  0  0  0
 19 16  1  0  0  0  0
 20 22  1  0  0  0  0
 20 21  1  0  0  0  0
 23 20  1  0  0  0  0
 24 30  1  0  0  0  0
 24  1  1  0  0  0  0
 25 24  1  0  0  0  0
 26 24  1  0  0  0  0
 27 26  1  0  0  0  0
 28 26  1  0  0  0  0
 29 26  1  0  0  0  0
 30 32  1  0  0  0  0
 30 33  1  0  0  0  0
 31 30  1  0  0  0  0
M  END
