1
 OpenBabel05122313063D

 49 53  0  0  1  0  0  0  0  0999 V2000
   -0.1011   -0.0551    0.1177 P   0  0  1  0  0  0  0  0  0  0  0  0
   -2.2436   -0.1701   -1.5720 N   0  0  2  0  0  0  0  0  0  0  0  0
   -1.3979   -1.2092    0.4007 N   0  0  2  0  0  0  0  0  0  0  0  0
   -2.1246   -1.4193   -2.3567 C   0  0  0  0  0  0  0  0  0  0  0  0
   -1.8824   -1.1482   -3.4039 H   0  0  0  0  0  0  0  0  0  0  0  0
   -3.1271   -1.8921   -2.3718 H   0  0  0  0  0  0  0  0  0  0  0  0
   -1.0872   -2.4038   -1.7839 C   0  0  0  0  0  0  0  0  0  0  0  0
   -1.1944   -3.3981   -2.2648 H   0  0  0  0  0  0  0  0  0  0  0  0
   -0.0592   -2.0563   -2.0248 H   0  0  0  0  0  0  0  0  0  0  0  0
   -1.2314   -2.5239   -0.2578 C   0  0  0  0  0  0  0  0  0  0  0  0
   -2.1258   -3.1279   -0.0009 H   0  0  0  0  0  0  0  0  0  0  0  0
   -0.3620   -3.0379    0.1907 H   0  0  0  0  0  0  0  0  0  0  0  0
   -1.0017    0.5925   -1.5408 C   0  0  1  0  0  0  0  0  0  0  0  0
   -0.3257    0.2542   -2.3494 H   0  0  0  0  0  0  0  0  0  0  0  0
   -2.5705   -0.4845   -0.1678 C   0  0  2  0  0  0  0  0  0  0  0  0
   -2.6159    0.4869    0.3735 H   0  0  0  0  0  0  0  0  0  0  0  0
   -0.4789    1.1517    1.4586 C   0  0  0  0  0  0  0  0  0  0  0  0
   -1.1114    0.6963    2.6360 C   0  0  0  0  0  0  0  0  0  0  0  0
   -1.4254   -0.3553    2.7005 H   0  0  0  0  0  0  0  0  0  0  0  0
   -1.3363    1.5776    3.7033 C   0  0  0  0  0  0  0  0  0  0  0  0
   -1.8292    1.2094    4.6160 H   0  0  0  0  0  0  0  0  0  0  0  0
   -0.9317    2.9182    3.6113 C   0  0  0  0  0  0  0  0  0  0  0  0
   -1.1093    3.6085    4.4500 H   0  0  0  0  0  0  0  0  0  0  0  0
   -0.2939    3.3725    2.4467 C   0  0  0  0  0  0  0  0  0  0  0  0
    0.0283    4.4213    2.3630 H   0  0  0  0  0  0  0  0  0  0  0  0
   -0.0604    2.4967    1.3770 C   0  0  0  0  0  0  0  0  0  0  0  0
    0.4418    2.8750    0.4780 H   0  0  0  0  0  0  0  0  0  0  0  0
   -1.1223    2.0876   -1.6054 C   0  0  0  0  0  0  0  0  0  0  0  0
   -0.0043    2.8392   -2.0268 C   0  0  0  0  0  0  0  0  0  0  0  0
    0.9082    2.3142   -2.3516 H   0  0  0  0  0  0  0  0  0  0  0  0
   -0.0403    4.2401   -2.0212 C   0  0  0  0  0  0  0  0  0  0  0  0
    0.8421    4.8102   -2.3491 H   0  0  0  0  0  0  0  0  0  0  0  0
   -1.2007    4.9117   -1.6013 C   0  0  0  0  0  0  0  0  0  0  0  0
   -1.2313    6.0117   -1.5938 H   0  0  0  0  0  0  0  0  0  0  0  0
   -2.3263    4.1709   -1.2078 C   0  0  0  0  0  0  0  0  0  0  0  0
   -3.2448    4.6898   -0.8940 H   0  0  0  0  0  0  0  0  0  0  0  0
   -2.2904    2.7685   -1.2137 C   0  0  0  0  0  0  0  0  0  0  0  0
   -3.1825    2.1924   -0.9285 H   0  0  0  0  0  0  0  0  0  0  0  0
   -3.9139   -1.1451    0.0572 C   0  0  0  0  0  0  0  0  0  0  0  0
   -4.9891   -0.8710   -0.8110 C   0  0  0  0  0  0  0  0  0  0  0  0
   -4.8126   -0.2330   -1.6900 H   0  0  0  0  0  0  0  0  0  0  0  0
   -6.2621   -1.4009   -0.5535 C   0  0  0  0  0  0  0  0  0  0  0  0
   -7.0927   -1.1819   -1.2418 H   0  0  0  0  0  0  0  0  0  0  0  0
   -6.4780   -2.2046    0.5770 C   0  0  0  0  0  0  0  0  0  0  0  0
   -7.4764   -2.6218    0.7773 H   0  0  0  0  0  0  0  0  0  0  0  0
   -5.4136   -2.4692    1.4532 C   0  0  0  0  0  0  0  0  0  0  0  0
   -5.5755   -3.0923    2.3459 H   0  0  0  0  0  0  0  0  0  0  0  0
   -4.1401   -1.9395    1.1977 C   0  0  0  0  0  0  0  0  0  0  0  0
   -3.3052   -2.1364    1.8868 H   0  0  0  0  0  0  0  0  0  0  0  0
  1  3  1  0  0  0  0
  1 17  1  1  0  0  0
  2  4  1  6  0  0  0
  2 13  1  0  0  0  0
  2 15  1  0  0  0  0
  3 10  1  6  0  0  0
  4  7  1  0  0  0  0
  5  4  1  0  0  0  0
  6  4  1  0  0  0  0
  7 10  1  0  0  0  0
  8  7  1  0  0  0  0
  9  7  1  0  0  0  0
 10 11  1  0  0  0  0
 10 12  1  0  0  0  0
 13 14  1  6  0  0  0
 13  1  1  0  0  0  0
 15 39  1  0  0  0  0
 15 16  1  1  0  0  0
 15  3  1  0  0  0  0
 17 18  1  0  0  0  0
 18 19  1  0  0  0  0
 18 20  2  0  0  0  0
 20 21  1  0  0  0  0
 22 20  1  0  0  0  0
 22 23  1  0  0  0  0
 24 22  2  0  0  0  0
 25 24  1  0  0  0  0
 26 17  2  0  0  0  0
 26 24  1  0  0  0  0
 27 26  1  0  0  0  0
 28 13  1  0  0  0  0
 28 37  1  0  0  0  0
 29 31  1  0  0  0  0
 29 28  2  0  0  0  0
 30 29  1  0  0  0  0
 31 33  2  0  0  0  0
 32 31  1  0  0  0  0
 33 34  1  0  0  0  0
 33 35  1  0  0  0  0
 35 36  1  0  0  0  0
 37 35  2  0  0  0  0
 37 38  1  0  0  0  0
 39 48  1  0  0  0  0
 40 42  1  0  0  0  0
 40 39  2  0  0  0  0
 41 40  1  0  0  0  0
 42 44  2  0  0  0  0
 43 42  1  0  0  0  0
 44 45  1  0  0  0  0
 44 46  1  0  0  0  0
 46 47  1  0  0  0  0
 48 46  2  0  0  0  0
 48 49  1  0  0  0  0
M  END
