1
 OpenBabel05122313063D

 39 41  0  0  1  0  0  0  0  0999 V2000
    0.4184    0.7702    0.4204 P   0  0  1  0  0  0  0  0  0  0  0  0
    2.4456    2.0922   -1.0298 N   0  3  0  0  0  0  0  0  0  0  0  0
    2.5208    2.2986   -0.0054 H   0  0  0  0  0  0  0  0  0  0  0  0
    3.3703    1.7769   -1.3741 H   0  0  0  0  0  0  0  0  0  0  0  0
    0.5031    2.4789    0.8057 N   0  0  0  0  0  0  0  0  0  0  0  0
    0.1711    2.6504    1.7623 H   0  0  0  0  0  0  0  0  0  0  0  0
    2.0207    3.3731   -1.7237 C   0  0  0  0  0  0  0  0  0  0  0  0
    1.5608    3.0635   -2.6827 H   0  0  0  0  0  0  0  0  0  0  0  0
    2.9445    3.9363   -1.9583 H   0  0  0  0  0  0  0  0  0  0  0  0
    1.0785    4.2126   -0.8634 C   0  0  0  0  0  0  0  0  0  0  0  0
    0.6532    5.0008   -1.5183 H   0  0  0  0  0  0  0  0  0  0  0  0
    1.6647    4.7391   -0.0810 H   0  0  0  0  0  0  0  0  0  0  0  0
   -0.0526    3.4361   -0.1726 C   0  0  0  0  0  0  0  0  0  0  0  0
   -0.7180    4.1512    0.3480 H   0  0  0  0  0  0  0  0  0  0  0  0
   -0.7018    2.9226   -0.9173 H   0  0  0  0  0  0  0  0  0  0  0  0
    1.4749    0.9277   -1.1788 C   0  0  1  0  0  0  0  0  0  0  0  0
    0.7579    1.2193   -1.9683 H   0  0  0  0  0  0  0  0  0  0  0  0
    2.1720   -0.3415   -1.5812 C   0  0  0  0  0  0  0  0  0  0  0  0
    1.6089   -1.1409   -2.5970 C   0  0  0  0  0  0  0  0  0  0  0  0
    0.6874   -0.8140   -3.1023 H   0  0  0  0  0  0  0  0  0  0  0  0
    2.2148   -2.3512   -2.9596 C   0  0  0  0  0  0  0  0  0  0  0  0
    1.7621   -2.9720   -3.7463 H   0  0  0  0  0  0  0  0  0  0  0  0
    3.3993   -2.7629   -2.3288 C   0  0  0  0  0  0  0  0  0  0  0  0
    3.8777   -3.7096   -2.6202 H   0  0  0  0  0  0  0  0  0  0  0  0
    3.9743   -1.9654   -1.3269 C   0  0  0  0  0  0  0  0  0  0  0  0
    4.9005   -2.2857   -0.8277 H   0  0  0  0  0  0  0  0  0  0  0  0
    3.3589   -0.7657   -0.9423 C   0  0  0  0  0  0  0  0  0  0  0  0
    3.8019   -0.1791   -0.1211 H   0  0  0  0  0  0  0  0  0  0  0  0
    1.6421    0.1219    1.6215 C   0  0  0  0  0  0  0  0  0  0  0  0
    2.5601    0.9563    2.2996 C   0  0  0  0  0  0  0  0  0  0  0  0
    2.4970    2.0508    2.1950 H   0  0  0  0  0  0  0  0  0  0  0  0
    3.5302    0.3938    3.1435 C   0  0  0  0  0  0  0  0  0  0  0  0
    4.2339    1.0486    3.6790 H   0  0  0  0  0  0  0  0  0  0  0  0
    3.5913   -0.9984    3.3176 C   0  0  0  0  0  0  0  0  0  0  0  0
    4.3498   -1.4358    3.9837 H   0  0  0  0  0  0  0  0  0  0  0  0
    2.6738   -1.8299    2.6553 C   0  0  0  0  0  0  0  0  0  0  0  0
    2.7119   -2.9198    2.7977 H   0  0  0  0  0  0  0  0  0  0  0  0
    1.7007   -1.2747    1.8133 C   0  0  0  0  0  0  0  0  0  0  0  0
    0.9875   -1.9307    1.2939 H   0  0  0  0  0  0  0  0  0  0  0  0
  1  5  1  0  0  0  0
  1 29  1  1  0  0  0
  2  3  1  0  0  0  0
  4  2  1  0  0  0  0
  5  6  1  0  0  0  0
  7  2  1  0  0  0  0
  7 10  1  0  0  0  0
  8  7  1  0  0  0  0
  9  7  1  0  0  0  0
 10 13  1  0  0  0  0
 10 12  1  0  0  0  0
 11 10  1  0  0  0  0
 13 14  1  0  0  0  0
 13  5  1  0  0  0  0
 15 13  1  0  0  0  0
 16 17  1  6  0  0  0
 16  2  1  0  0  0  0
 16  1  1  0  0  0  0
 18 16  1  0  0  0  0
 18 27  1  0  0  0  0
 19 18  2  0  0  0  0
 20 19  1  0  0  0  0
 21 19  1  0  0  0  0
 21 23  2  0  0  0  0
 22 21  1  0  0  0  0
 23 25  1  0  0  0  0
 24 23  1  0  0  0  0
 25 27  2  0  0  0  0
 25 26  1  0  0  0  0
 27 28  1  0  0  0  0
 29 38  2  0  0  0  0
 29 30  1  0  0  0  0
 30 32  2  0  0  0  0
 31 30  1  0  0  0  0
 32 34  1  0  0  0  0
 32 33  1  0  0  0  0
 34 35  1  0  0  0  0
 36 37  1  0  0  0  0
 36 34  2  0  0  0  0
 38 36  1  0  0  0  0
 39 38  1  0  0  0  0
M  CHG  1   2   1
M  END
