3
 OpenBabel05122313063D

 57 61  0  0  1  0  0  0  0  0999 V2000
    2.8370    1.0221    1.1791 P   0  0  1  0  0  0  0  0  0  0  0  0
    1.8231   -0.8555    1.8762 P   0  0  2  0  0  0  0  0  0  0  0  0
   -0.0946    0.7018   -0.0381 P   0  0  1  0  0  0  0  0  0  0  0  0
    1.3537   -0.3648   -1.3225 P   0  0  1  0  0  0  0  0  0  0  0  0
    2.9668   -0.0720   -0.3893 C   0  0  2  0  0  0  0  0  0  0  0  0
    2.2062   -1.3352    0.0529 C   0  0  1  0  0  0  0  0  0  0  0  0
    0.9834    0.7816    1.4849 C   0  0  2  0  0  0  0  0  0  0  0  0
    4.3142    0.1530   -1.1309 C   0  0  0  0  0  0  0  0  0  0  0  0
    5.4922   -0.0354   -0.1471 C   0  0  0  0  0  0  0  0  0  0  0  0
    5.4510    0.6968    0.6851 H   0  0  0  0  0  0  0  0  0  0  0  0
    6.4562    0.1124   -0.6759 H   0  0  0  0  0  0  0  0  0  0  0  0
    5.4948   -1.0486    0.2966 H   0  0  0  0  0  0  0  0  0  0  0  0
    4.5264   -0.7692   -2.3420 C   0  0  0  0  0  0  0  0  0  0  0  0
    5.4118   -0.4272   -2.9153 H   0  0  0  0  0  0  0  0  0  0  0  0
    3.6537   -0.7551   -3.0259 H   0  0  0  0  0  0  0  0  0  0  0  0
    4.7198   -1.8137   -2.0361 H   0  0  0  0  0  0  0  0  0  0  0  0
    4.3297    1.6088   -1.6398 C   0  0  0  0  0  0  0  0  0  0  0  0
    4.1691    2.3336   -0.8133 H   0  0  0  0  0  0  0  0  0  0  0  0
    3.5456    1.7706   -2.4062 H   0  0  0  0  0  0  0  0  0  0  0  0
    5.3127    1.8446   -2.0950 H   0  0  0  0  0  0  0  0  0  0  0  0
    2.4497   -2.8660   -0.1099 C   0  0  0  0  0  0  0  0  0  0  0  0
    2.3927   -3.3613   -1.5678 C   0  0  0  0  0  0  0  0  0  0  0  0
    3.1382   -2.8759   -2.2192 H   0  0  0  0  0  0  0  0  0  0  0  0
    1.3908   -3.1913   -2.0063 H   0  0  0  0  0  0  0  0  0  0  0  0
    2.5890   -4.4529   -1.5909 H   0  0  0  0  0  0  0  0  0  0  0  0
    1.3112   -3.5890    0.6439 C   0  0  0  0  0  0  0  0  0  0  0  0
    1.4165   -4.6858    0.5242 H   0  0  0  0  0  0  0  0  0  0  0  0
    0.3222   -3.2960    0.2442 H   0  0  0  0  0  0  0  0  0  0  0  0
    1.3143   -3.3731    1.7324 H   0  0  0  0  0  0  0  0  0  0  0  0
    3.7967   -3.2562    0.5313 C   0  0  0  0  0  0  0  0  0  0  0  0
    3.8875   -2.8574    1.5631 H   0  0  0  0  0  0  0  0  0  0  0  0
    4.6534   -2.8769   -0.0583 H   0  0  0  0  0  0  0  0  0  0  0  0
    3.8899   -4.3599    0.5867 H   0  0  0  0  0  0  0  0  0  0  0  0
    0.4614    1.5290    2.7691 C   0  0  0  0  0  0  0  0  0  0  0  0
    1.5641    1.6081    3.8510 C   0  0  0  0  0  0  0  0  0  0  0  0
    1.1416    2.0782    4.7620 H   0  0  0  0  0  0  0  0  0  0  0  0
    2.4259    2.2242    3.5251 H   0  0  0  0  0  0  0  0  0  0  0  0
    1.9381    0.6040    4.1390 H   0  0  0  0  0  0  0  0  0  0  0  0
   -0.7330    0.7720    3.3762 C   0  0  0  0  0  0  0  0  0  0  0  0
   -1.1091    1.3164    4.2658 H   0  0  0  0  0  0  0  0  0  0  0  0
   -0.4449   -0.2501    3.6910 H   0  0  0  0  0  0  0  0  0  0  0  0
   -1.5673    0.6851    2.6578 H   0  0  0  0  0  0  0  0  0  0  0  0
    0.0330    2.9661    2.4203 C   0  0  0  0  0  0  0  0  0  0  0  0
   -0.8747    2.9859    1.7886 H   0  0  0  0  0  0  0  0  0  0  0  0
    0.8335    3.5121    1.8827 H   0  0  0  0  0  0  0  0  0  0  0  0
   -0.1991    3.5188    3.3533 H   0  0  0  0  0  0  0  0  0  0  0  0
   -0.1280    2.4197   -0.7244 C   0  0  0  0  0  0  0  0  0  0  0  0
   -1.3534    3.0992   -0.8729 C   0  0  0  0  0  0  0  0  0  0  0  0
   -2.2911    2.6016   -0.5907 H   0  0  0  0  0  0  0  0  0  0  0  0
   -1.3839    4.4138   -1.3611 C   0  0  0  0  0  0  0  0  0  0  0  0
   -2.3494    4.9304   -1.4686 H   0  0  0  0  0  0  0  0  0  0  0  0
   -0.1908    5.0650   -1.7097 C   0  0  0  0  0  0  0  0  0  0  0  0
   -0.2157    6.0955   -2.0952 H   0  0  0  0  0  0  0  0  0  0  0  0
    1.0345    4.3935   -1.5693 C   0  0  0  0  0  0  0  0  0  0  0  0
    1.9758    4.8923   -1.8462 H   0  0  0  0  0  0  0  0  0  0  0  0
    1.0651    3.0801   -1.0810 C   0  0  0  0  0  0  0  0  0  0  0  0
    2.0263    2.5614   -0.9834 H   0  0  0  0  0  0  0  0  0  0  0  0
  1  7  1  0  0  0  0
  1  2  1  0  0  0  0
  3  7  1  0  0  0  0
  4  5  1  0  0  0  0
  4  3  1  0  0  0  0
  4  6  1  0  0  0  0
  5  6  1  0  0  0  0
  5  1  1  0  0  0  0
  6  2  1  0  0  0  0
  7  2  1  0  0  0  0
  7 34  1  0  0  0  0
  8  5  1  0  0  0  0
  8  9  1  0  0  0  0
  9 12  1  0  0  0  0
  9 10  1  0  0  0  0
 11  9  1  0  0  0  0
 13 16  1  0  0  0  0
 13  8  1  0  0  0  0
 14 13  1  0  0  0  0
 15 13  1  0  0  0  0
 17  8  1  0  0  0  0
 17 18  1  0  0  0  0
 19 17  1  0  0  0  0
 20 17  1  0  0  0  0
 21  6  1  0  0  0  0
 21 30  1  0  0  0  0
 21 26  1  0  0  0  0
 22 21  1  0  0  0  0
 23 22  1  0  0  0  0
 24 22  1  0  0  0  0
 25 22  1  0  0  0  0
 26 29  1  0  0  0  0
 27 26  1  0  0  0  0
 28 26  1  0  0  0  0
 30 33  1  0  0  0  0
 30 31  1  0  0  0  0
 32 30  1  0  0  0  0
 34 39  1  0  0  0  0
 34 35  1  0  0  0  0
 35 38  1  0  0  0  0
 35 36  1  0  0  0  0
 37 35  1  0  0  0  0
 39 41  1  0  0  0  0
 39 40  1  0  0  0  0
 42 39  1  0  0  0  0
 43 34  1  0  0  0  0
 43 46  1  0  0  0  0
 44 43  1  0  0  0  0
 45 43  1  0  0  0  0
 47  3  1  0  0  0  0
 48 47  1  0  0  0  0
 48 49  1  0  0  0  0
 50 48  2  0  0  0  0
 51 50  1  0  0  0  0
 52 54  2  0  0  0  0
 52 50  1  0  0  0  0
 53 52  1  0  0  0  0
 54 56  1  0  0  0  0
 55 54  1  0  0  0  0
 56 57  1  0  0  0  0
 56 47  2  0  0  0  0
M  END
