1
 OpenBabel05122313063D

 44 46  0  0  0  0  0  0  0  0999 V2000
    0.0128   -0.1464   -0.1386 P   0  0  0  0  0  0  0  0  0  0  0  0
   -0.0710    1.5618   -0.1910 C   0  0  0  0  0  0  0  0  0  0  0  0
    1.1801    2.3385   -0.0009 C   0  0  0  0  0  0  0  0  0  0  0  0
    1.6233    3.2339   -1.0016 C   0  0  0  0  0  0  0  0  0  0  0  0
    2.8071    3.9609   -0.8303 C   0  0  0  0  0  0  0  0  0  0  0  0
    3.5548    3.8269    0.3525 C   0  0  0  0  0  0  0  0  0  0  0  0
    3.1082    2.9663    1.3660 C   0  0  0  0  0  0  0  0  0  0  0  0
    1.9314    2.2246    1.1907 C   0  0  0  0  0  0  0  0  0  0  0  0
   -1.3234    2.3246   -0.3647 C   0  0  0  0  0  0  0  0  0  0  0  0
   -2.3537    1.9152   -1.2454 C   0  0  0  0  0  0  0  0  0  0  0  0
   -3.5411    2.6482   -1.3510 C   0  0  0  0  0  0  0  0  0  0  0  0
   -3.7276    3.8114   -0.5859 C   0  0  0  0  0  0  0  0  0  0  0  0
   -2.7061    4.2458    0.2748 C   0  0  0  0  0  0  0  0  0  0  0  0
   -1.5145    3.5179    0.3791 C   0  0  0  0  0  0  0  0  0  0  0  0
   -1.6873   -0.8027    0.0679 C   0  0  0  0  0  0  0  0  0  0  0  0
   -2.3472   -0.6115    1.3150 C   0  0  0  0  0  0  0  0  0  0  0  0
   -3.6227   -1.1736    1.4895 C   0  0  0  0  0  0  0  0  0  0  0  0
   -4.2598   -1.9197    0.4811 C   0  0  0  0  0  0  0  0  0  0  0  0
   -3.5798   -2.1000   -0.7349 C   0  0  0  0  0  0  0  0  0  0  0  0
   -2.2991   -1.5648   -0.9602 C   0  0  0  0  0  0  0  0  0  0  0  0
   -1.7279    0.1823    2.4383 C   0  0  0  0  0  0  0  0  0  0  0  0
   -5.6183   -2.5288    0.7150 C   0  0  0  0  0  0  0  0  0  0  0  0
   -1.6187   -1.8147   -2.2820 C   0  0  0  0  0  0  0  0  0  0  0  0
    1.0349    3.3366   -1.9258 H   0  0  0  0  0  0  0  0  0  0  0  0
    3.1531    4.6370   -1.6268 H   0  0  0  0  0  0  0  0  0  0  0  0
    4.4853    4.3995    0.4842 H   0  0  0  0  0  0  0  0  0  0  0  0
    3.6811    2.8657    2.3002 H   0  0  0  0  0  0  0  0  0  0  0  0
    1.5744    1.5579    1.9884 H   0  0  0  0  0  0  0  0  0  0  0  0
   -2.2042    1.0246   -1.8693 H   0  0  0  0  0  0  0  0  0  0  0  0
   -4.3251    2.3127   -2.0467 H   0  0  0  0  0  0  0  0  0  0  0  0
   -4.6621    4.3863   -0.6707 H   0  0  0  0  0  0  0  0  0  0  0  0
   -2.8380    5.1621    0.8701 H   0  0  0  0  0  0  0  0  0  0  0  0
   -0.7159    3.8599    1.0542 H   0  0  0  0  0  0  0  0  0  0  0  0
   -4.1373   -1.0211    2.4522 H   0  0  0  0  0  0  0  0  0  0  0  0
   -4.0624   -2.6756   -1.5414 H   0  0  0  0  0  0  0  0  0  0  0  0
   -0.6907   -0.1457    2.6544 H   0  0  0  0  0  0  0  0  0  0  0  0
   -1.6780    1.2626    2.1872 H   0  0  0  0  0  0  0  0  0  0  0  0
   -2.3195    0.0773    3.3676 H   0  0  0  0  0  0  0  0  0  0  0  0
   -5.5356   -3.4571    1.3203 H   0  0  0  0  0  0  0  0  0  0  0  0
   -6.2833   -1.8393    1.2728 H   0  0  0  0  0  0  0  0  0  0  0  0
   -6.1161   -2.7986   -0.2365 H   0  0  0  0  0  0  0  0  0  0  0  0
   -0.9672   -0.9713   -2.5885 H   0  0  0  0  0  0  0  0  0  0  0  0
   -0.9734   -2.7167   -2.2346 H   0  0  0  0  0  0  0  0  0  0  0  0
   -2.3590   -1.9875   -3.0872 H   0  0  0  0  0  0  0  0  0  0  0  0
  1 15  1  0  0  0  0
  2  1  2  0  0  0  0
  2  3  1  0  0  0  0
  3  8  1  0  0  0  0
  4  5  1  0  0  0  0
  4  3  2  0  0  0  0
  5  6  2  0  0  0  0
  6 26  1  0  0  0  0
  6  7  1  0  0  0  0
  7 27  1  0  0  0  0
  8  7  2  0  0  0  0
  8 28  1  0  0  0  0
  9  2  1  0  0  0  0
  9 14  1  0  0  0  0
 10  9  2  0  0  0  0
 11 10  1  0  0  0  0
 11 12  2  0  0  0  0
 12 13  1  0  0  0  0
 13 14  2  0  0  0  0
 13 32  1  0  0  0  0
 14 33  1  0  0  0  0
 15 16  1  0  0  0  0
 16 17  2  0  0  0  0
 16 21  1  0  0  0  0
 17 34  1  0  0  0  0
 18 22  1  0  0  0  0
 18 17  1  0  0  0  0
 19 18  2  0  0  0  0
 20 19  1  0  0  0  0
 20 15  2  0  0  0  0
 21 36  1  0  0  0  0
 21 38  1  0  0  0  0
 22 40  1  0  0  0  0
 22 39  1  0  0  0  0
 23 43  1  0  0  0  0
 23 20  1  0  0  0  0
 24  4  1  0  0  0  0
 25  5  1  0  0  0  0
 29 10  1  0  0  0  0
 30 11  1  0  0  0  0
 31 12  1  0  0  0  0
 35 19  1  0  0  0  0
 37 21  1  0  0  0  0
 41 22  1  0  0  0  0
 42 23  1  0  0  0  0
 44 23  1  0  0  0  0
M  END
