2
 OpenBabel05122313063D

 34 36  0  0  0  0  0  0  0  0999 V2000
   -1.0917   -2.3402    0.8465 Br  0  0  0  0  0  0  0  0  0  0  0  0
    0.4237    0.5592    0.2270 P   0  0  0  0  0  0  0  0  0  0  0  0
   -3.9212   -2.2941   -0.1243 F   0  0  0  0  0  0  0  0  0  0  0  0
   -5.3341   -0.3212   -1.3264 F   0  0  0  0  0  0  0  0  0  0  0  0
   -4.1691    2.1100   -1.8030 F   0  0  0  0  0  0  0  0  0  0  0  0
   -1.6416    2.5732   -1.1023 F   0  0  0  0  0  0  0  0  0  0  0  0
   -1.3649    0.3566   -0.2123 C   0  0  0  0  0  0  0  0  0  0  0  0
   -1.9916   -0.8966    0.0232 C   0  0  0  0  0  0  0  0  0  0  0  0
   -3.3265   -1.1230   -0.3479 C   0  0  0  0  0  0  0  0  0  0  0  0
   -4.0693   -0.1059   -0.9729 C   0  0  0  0  0  0  0  0  0  0  0  0
   -3.4714    1.1376   -1.2168 C   0  0  0  0  0  0  0  0  0  0  0  0
   -2.1341    1.3583   -0.8375 C   0  0  0  0  0  0  0  0  0  0  0  0
    0.9077    2.2892   -0.1466 C   0  0  0  0  0  0  0  0  0  0  0  0
    0.7102    3.3360    0.7750 C   0  0  0  0  0  0  0  0  0  0  0  0
    0.2496    3.1340    1.7532 H   0  0  0  0  0  0  0  0  0  0  0  0
    1.1106    4.6382    0.4452 C   0  0  0  0  0  0  0  0  0  0  0  0
    0.9591    5.4540    1.1681 H   0  0  0  0  0  0  0  0  0  0  0  0
    1.7060    4.9011   -0.7993 C   0  0  0  0  0  0  0  0  0  0  0  0
    2.0209    5.9246   -1.0529 H   0  0  0  0  0  0  0  0  0  0  0  0
    1.9118    3.8562   -1.7142 C   0  0  0  0  0  0  0  0  0  0  0  0
    2.3900    4.0555   -2.6848 H   0  0  0  0  0  0  0  0  0  0  0  0
    1.5205    2.5503   -1.3886 C   0  0  0  0  0  0  0  0  0  0  0  0
    1.6996    1.7218   -2.0925 H   0  0  0  0  0  0  0  0  0  0  0  0
    0.4228    0.4680    2.0583 C   0  0  0  0  0  0  0  0  0  0  0  0
    1.6020    0.0405    2.6995 C   0  0  0  0  0  0  0  0  0  0  0  0
    2.4657   -0.2780    2.0941 H   0  0  0  0  0  0  0  0  0  0  0  0
    1.6617    0.0066    4.0998 C   0  0  0  0  0  0  0  0  0  0  0  0
    2.5830   -0.3316    4.5974 H   0  0  0  0  0  0  0  0  0  0  0  0
    0.5470    0.3905    4.8628 C   0  0  0  0  0  0  0  0  0  0  0  0
    0.5938    0.3554    5.9617 H   0  0  0  0  0  0  0  0  0  0  0  0
   -0.6312    0.8099    4.2244 C   0  0  0  0  0  0  0  0  0  0  0  0
   -1.5086    1.1033    4.8203 H   0  0  0  0  0  0  0  0  0  0  0  0
   -0.6965    0.8504    2.8238 C   0  0  0  0  0  0  0  0  0  0  0  0
   -1.6248    1.1684    2.3247 H   0  0  0  0  0  0  0  0  0  0  0  0
  2 24  1  0  0  0  0
  4 10  1  0  0  0  0
  5 11  1  0  0  0  0
  6 12  1  0  0  0  0
  7  8  1  0  0  0  0
  7  2  1  0  0  0  0
  8  1  1  0  0  0  0
  9  3  1  0  0  0  0
  9  8  2  0  0  0  0
 10  9  1  0  0  0  0
 11 10  2  0  0  0  0
 11 12  1  0  0  0  0
 12  7  2  0  0  0  0
 13  2  1  0  0  0  0
 13 14  1  0  0  0  0
 14 15  1  0  0  0  0
 16 14  2  0  0  0  0
 16 17  1  0  0  0  0
 18 16  1  0  0  0  0
 19 18  1  0  0  0  0
 20 22  1  0  0  0  0
 20 18  2  0  0  0  0
 21 20  1  0  0  0  0
 22 13  2  0  0  0  0
 23 22  1  0  0  0  0
 24 25  2  0  0  0  0
 24 33  1  0  0  0  0
 25 27  1  0  0  0  0
 26 25  1  0  0  0  0
 27 28  1  0  0  0  0
 27 29  2  0  0  0  0
 29 30  1  0  0  0  0
 31 32  1  0  0  0  0
 31 29  1  0  0  0  0
 33 31  2  0  0  0  0
 34 33  1  0  0  0  0
M  END
