3
 OpenBabel05122313063D

 50 51  0  0  1  0  0  0  0  0999 V2000
    2.9569    1.7323    0.1602 P   0  0  0  0  0  2  0  0  0  0  0  0
    1.4167   -0.0474    2.1546 P   0  0  0  0  0  2  0  0  0  0  0  0
    0.1672    0.6747   -0.4685 P   0  0  1  0  0  0  0  0  0  0  0  0
    1.7104   -0.9236   -0.7840 P   0  0  1  0  0  0  0  0  0  0  0  0
    3.0977    0.3405   -0.8043 C   0  0  1  0  0  3  0  0  0  0  0  0
    1.6538   -1.3136    1.0488 C   0  0  2  0  0  3  0  0  0  0  0  0
    1.2447    1.4123    0.9456 C   0  0  2  0  0  0  0  0  0  0  0  0
    4.2476    0.1158   -1.7857 C   0  0  0  0  0  0  0  0  0  0  0  0
    4.8846   -1.2694   -1.5431 C   0  0  0  0  0  0  0  0  0  0  0  0
    5.3311    1.2000   -1.6450 C   0  0  0  0  0  0  0  0  0  0  0  0
    3.6707    0.1604   -3.2223 C   0  0  0  0  0  0  0  0  0  0  0  0
    1.8115   -2.7682    1.4924 C   0  0  0  0  0  0  0  0  0  0  0  0
    1.7177   -2.8952    3.0246 C   0  0  0  0  0  0  0  0  0  0  0  0
    3.1847   -3.2945    1.0207 C   0  0  0  0  0  0  0  0  0  0  0  0
    0.6959   -3.6243    0.8526 C   0  0  0  0  0  0  0  0  0  0  0  0
    0.7118    2.6854    1.7039 C   0  0  0  0  0  0  0  0  0  0  0  0
    1.8174    3.2256    2.6380 C   0  0  0  0  0  0  0  0  0  0  0  0
    0.3246    3.7827    0.6961 C   0  0  0  0  0  0  0  0  0  0  0  0
   -0.5128    2.3390    2.5741 C   0  0  0  0  0  0  0  0  0  0  0  0
    0.3588    1.7643   -1.9586 C   0  0  0  0  0  0  0  0  0  0  0  0
    5.2793   -1.3530   -0.5112 H   0  0  0  0  0  0  0  0  0  0  0  0
    4.1473   -2.0823   -1.6998 H   0  0  0  0  0  0  0  0  0  0  0  0
    5.7222   -1.4329   -2.2517 H   0  0  0  0  0  0  0  0  0  0  0  0
    4.9195    2.2121   -1.8358 H   0  0  0  0  0  0  0  0  0  0  0  0
    5.7722    1.1986   -0.6277 H   0  0  0  0  0  0  0  0  0  0  0  0
    6.1467    1.0206   -2.3747 H   0  0  0  0  0  0  0  0  0  0  0  0
    2.8750   -0.5999   -3.3605 H   0  0  0  0  0  0  0  0  0  0  0  0
    4.4732   -0.0450   -3.9606 H   0  0  0  0  0  0  0  0  0  0  0  0
    3.2405    1.1571   -3.4461 H   0  0  0  0  0  0  0  0  0  0  0  0
    1.8305   -3.9572    3.3231 H   0  0  0  0  0  0  0  0  0  0  0  0
    0.7367   -2.5365    3.3971 H   0  0  0  0  0  0  0  0  0  0  0  0
    2.5130   -2.3113    3.5314 H   0  0  0  0  0  0  0  0  0  0  0  0
    3.2646   -3.2721   -0.0842 H   0  0  0  0  0  0  0  0  0  0  0  0
    4.0121   -2.6885    1.4411 H   0  0  0  0  0  0  0  0  0  0  0  0
    3.3203   -4.3463    1.3463 H   0  0  0  0  0  0  0  0  0  0  0  0
    0.7335   -3.5825   -0.2533 H   0  0  0  0  0  0  0  0  0  0  0  0
    0.8118   -4.6838    1.1605 H   0  0  0  0  0  0  0  0  0  0  0  0
   -0.3046   -3.2776    1.1767 H   0  0  0  0  0  0  0  0  0  0  0  0
    1.4117    4.0500    3.2594 H   0  0  0  0  0  0  0  0  0  0  0  0
    2.6858    3.6207    2.0742 H   0  0  0  0  0  0  0  0  0  0  0  0
    2.1834    2.4341    3.3252 H   0  0  0  0  0  0  0  0  0  0  0  0
   -0.5717    3.5002    0.1095 H   0  0  0  0  0  0  0  0  0  0  0  0
    1.1536    3.9978   -0.0101 H   0  0  0  0  0  0  0  0  0  0  0  0
    0.0818    4.7232    1.2305 H   0  0  0  0  0  0  0  0  0  0  0  0
   -1.2960    1.8236    1.9903 H   0  0  0  0  0  0  0  0  0  0  0  0
   -0.2383    1.6805    3.4223 H   0  0  0  0  0  0  0  0  0  0  0  0
   -0.9544    3.2656    2.9932 H   0  0  0  0  0  0  0  0  0  0  0  0
   -0.4215    2.5470   -1.9362 H   0  0  0  0  0  0  0  0  0  0  0  0
    1.3614    2.2258   -2.0231 H   0  0  0  0  0  0  0  0  0  0  0  0
    0.1861    1.1296   -2.8496 H   0  0  0  0  0  0  0  0  0  0  0  0
  1  7  1  0  0  0  0
  3 20  1  6  0  0  0
  3  7  1  0  0  0  0
  4  3  1  0  0  0  0
  4  6  1  0  0  0  0
  5  8  1  6  0  0  0
  5  4  1  0  0  0  0
  5  1  1  0  0  0  0
  6 12  1  6  0  0  0
  6  2  1  0  0  0  0
  7 16  1  0  0  0  0
  7  2  1  0  0  0  0
  8 10  1  0  0  0  0
  8  9  1  0  0  0  0
  9 21  1  0  0  0  0
 10 25  1  0  0  0  0
 11  8  1  0  0  0  0
 12 13  1  0  0  0  0
 13 30  1  0  0  0  0
 13 31  1  0  0  0  0
 13 32  1  0  0  0  0
 14 35  1  0  0  0  0
 14 34  1  0  0  0  0
 14 12  1  0  0  0  0
 15 37  1  0  0  0  0
 15 38  1  0  0  0  0
 15 12  1  0  0  0  0
 16 19  1  0  0  0  0
 16 17  1  0  0  0  0
 17 39  1  0  0  0  0
 17 41  1  0  0  0  0
 18 44  1  0  0  0  0
 18 16  1  0  0  0  0
 19 47  1  0  0  0  0
 19 46  1  0  0  0  0
 20 48  1  0  0  0  0
 22  9  1  0  0  0  0
 23  9  1  0  0  0  0
 24 10  1  0  0  0  0
 26 10  1  0  0  0  0
 27 11  1  0  0  0  0
 28 11  1  0  0  0  0
 29 11  1  0  0  0  0
 33 14  1  0  0  0  0
 36 15  1  0  0  0  0
 40 17  1  0  0  0  0
 42 18  1  0  0  0  0
 43 18  1  0  0  0  0
 45 19  1  0  0  0  0
 49 20  1  0  0  0  0
 50 20  1  0  0  0  0
M  END
