1
 OpenBabel05122313063D

 62 63  0  0  0  0  0  0  0  0999 V2000
    0.2254   -0.2031    0.3812 P   0  0  2  0  0  0  0  0  0  0  0  0
   -0.0544   -3.1593    1.3555 Si  0  0  0  0  0  0  0  0  0  0  0  0
   -0.7005   -0.7277    3.4056 Si  0  0  0  0  0  0  0  0  0  0  0  0
   -1.2020   -0.7712   -0.4126 N   0  0  0  0  0  0  0  0  0  0  0  0
   -3.6699   -1.1553   -1.9591 N   0  0  0  0  0  0  0  0  0  0  0  0
   -2.3736    3.5625   -0.6532 O   0  0  0  0  0  0  0  0  0  0  0  0
   -3.5670    2.7690    1.1148 O   0  0  0  0  0  0  0  0  0  0  0  0
    1.3488    2.4658    1.6848 O   0  0  0  0  0  0  0  0  0  0  0  0
   -0.5901    3.6379    1.6944 O   0  0  0  0  0  0  0  0  0  0  0  0
    0.3032   -1.3064    1.8538 C   0  0  0  0  0  0  0  0  0  0  0  0
    1.3733   -1.2885    2.1603 H   0  0  0  0  0  0  0  0  0  0  0  0
   -1.8843   -3.5814    1.6003 C   0  0  0  0  0  0  0  0  0  0  0  0
   -2.0420   -4.6447    1.3245 H   0  0  0  0  0  0  0  0  0  0  0  0
   -2.5060   -2.9566    0.9277 H   0  0  0  0  0  0  0  0  0  0  0  0
   -2.2474   -3.4450    2.6368 H   0  0  0  0  0  0  0  0  0  0  0  0
    1.0594   -4.2268    2.4542 C   0  0  0  0  0  0  0  0  0  0  0  0
    0.8960   -4.0784    3.5380 H   0  0  0  0  0  0  0  0  0  0  0  0
    2.1234   -4.0075    2.2271 H   0  0  0  0  0  0  0  0  0  0  0  0
    0.8860   -5.2988    2.2247 H   0  0  0  0  0  0  0  0  0  0  0  0
    0.3504   -3.6437   -0.4299 C   0  0  0  0  0  0  0  0  0  0  0  0
   -0.0904   -4.6501   -0.5944 H   0  0  0  0  0  0  0  0  0  0  0  0
    1.4352   -3.7256   -0.6210 H   0  0  0  0  0  0  0  0  0  0  0  0
   -0.0961   -2.9496   -1.1638 H   0  0  0  0  0  0  0  0  0  0  0  0
   -2.5323   -0.4111    3.0565 C   0  0  0  0  0  0  0  0  0  0  0  0
   -3.0000   -1.2032    2.4427 H   0  0  0  0  0  0  0  0  0  0  0  0
   -2.7103    0.5609    2.5567 H   0  0  0  0  0  0  0  0  0  0  0  0
   -3.0669   -0.3808    4.0293 H   0  0  0  0  0  0  0  0  0  0  0  0
    0.0657    0.8447    4.1480 C   0  0  0  0  0  0  0  0  0  0  0  0
   -0.4192    1.7650    3.7686 H   0  0  0  0  0  0  0  0  0  0  0  0
    1.1545    0.9142    3.9562 H   0  0  0  0  0  0  0  0  0  0  0  0
   -0.0871    0.8278    5.2470 H   0  0  0  0  0  0  0  0  0  0  0  0
   -0.5418   -2.0579    4.7501 C   0  0  0  0  0  0  0  0  0  0  0  0
   -1.0584   -1.6923    5.6622 H   0  0  0  0  0  0  0  0  0  0  0  0
    0.5194   -2.2385    5.0177 H   0  0  0  0  0  0  0  0  0  0  0  0
   -0.9974   -3.0280    4.4732 H   0  0  0  0  0  0  0  0  0  0  0  0
   -0.5501    1.4273    0.7701 C   0  0  0  0  0  0  0  0  0  0  0  0
   -1.7938    1.4493    0.1981 C   0  0  0  0  0  0  0  0  0  0  0  0
   -2.1468    0.1479   -0.4533 C   0  0  0  0  0  0  0  0  0  0  0  0
   -2.6787    2.6588    0.2873 C   0  0  0  0  0  0  0  0  0  0  0  0
   -3.0615    4.8185   -0.5448 C   0  0  0  0  0  0  0  0  0  0  0  0
   -4.1595    4.6701   -0.5520 H   0  0  0  0  0  0  0  0  0  0  0  0
   -2.7416    5.4162   -1.4158 H   0  0  0  0  0  0  0  0  0  0  0  0
   -2.7707    5.3189    0.4003 H   0  0  0  0  0  0  0  0  0  0  0  0
    0.0350    2.6250    1.4160 C   0  0  0  0  0  0  0  0  0  0  0  0
    1.9841    3.5741    2.3374 C   0  0  0  0  0  0  0  0  0  0  0  0
    1.8619    4.4982    1.7390 H   0  0  0  0  0  0  0  0  0  0  0  0
    3.0486    3.2983    2.4244 H   0  0  0  0  0  0  0  0  0  0  0  0
    1.5358    3.7380    3.3379 H   0  0  0  0  0  0  0  0  0  0  0  0
   -3.4269   -0.0860   -1.0858 C   0  0  0  0  0  0  0  0  0  0  0  0
   -4.6536    0.5904   -0.9044 C   0  0  0  0  0  0  0  0  0  0  0  0
   -4.8187    1.4354   -0.2313 H   0  0  0  0  0  0  0  0  0  0  0  0
   -5.6261   -0.0784   -1.6703 C   0  0  0  0  0  0  0  0  0  0  0  0
   -6.6903    0.1694   -1.7496 H   0  0  0  0  0  0  0  0  0  0  0  0
   -4.9972   -1.1509   -2.3221 C   0  0  0  0  0  0  0  0  0  0  0  0
   -2.6873   -2.1020   -2.4658 C   0  0  0  0  0  0  0  0  0  0  0  0
   -2.4025   -2.8396   -1.6913 H   0  0  0  0  0  0  0  0  0  0  0  0
   -1.7673   -1.5808   -2.7831 H   0  0  0  0  0  0  0  0  0  0  0  0
   -3.1165   -2.6310   -3.3349 H   0  0  0  0  0  0  0  0  0  0  0  0
   -5.5903   -2.1442   -3.2655 C   0  0  0  0  0  0  0  0  0  0  0  0
   -5.1511   -2.0762   -4.2841 H   0  0  0  0  0  0  0  0  0  0  0  0
   -6.6760   -1.9587   -3.3600 H   0  0  0  0  0  0  0  0  0  0  0  0
   -5.4549   -3.1904   -2.9185 H   0  0  0  0  0  0  0  0  0  0  0  0
  1 36  1  0  0  0  0
  1 10  1  1  0  0  0
  2 12  1  0  0  0  0
  2 10  1  0  0  0  0
  2 16  1  0  0  0  0
  3 28  1  0  0  0  0
  3 32  1  0  0  0  0
  4  1  1  0  0  0  0
  5 49  1  0  0  0  0
  6 40  1  0  0  0  0
  6 39  1  0  0  0  0
  8 45  1  0  0  0  0
 10 11  1  0  0  0  0
 10  3  1  0  0  0  0
 12 15  1  0  0  0  0
 13 12  1  0  0  0  0
 14 12  1  0  0  0  0
 16 17  1  0  0  0  0
 18 16  1  0  0  0  0
 19 16  1  0  0  0  0
 20  2  1  0  0  0  0
 21 20  1  0  0  0  0
 22 20  1  0  0  0  0
 23 20  1  0  0  0  0
 24  3  1  0  0  0  0
 24 27  1  0  0  0  0
 25 24  1  0  0  0  0
 26 24  1  0  0  0  0
 28 31  1  0  0  0  0
 29 28  1  0  0  0  0
 30 28  1  0  0  0  0
 32 34  1  0  0  0  0
 32 33  1  0  0  0  0
 35 32  1  0  0  0  0
 36 44  1  0  0  0  0
 37 39  1  0  0  0  0
 37 36  2  0  0  0  0
 38  4  2  0  0  0  0
 38 37  1  0  0  0  0
 39  7  2  0  0  0  0
 40 43  1  0  0  0  0
 41 40  1  0  0  0  0
 42 40  1  0  0  0  0
 44  8  1  0  0  0  0
 44  9  2  0  0  0  0
 45 47  1  0  0  0  0
 45 48  1  0  0  0  0
 46 45  1  0  0  0  0
 49 50  2  0  0  0  0
 49 38  1  0  0  0  0
 50 51  1  0  0  0  0
 52 50  1  0  0  0  0
 53 52  1  0  0  0  0
 54  5  1  0  0  0  0
 54 52  2  0  0  0  0
 55  5  1  0  0  0  0
 55 56  1  0  0  0  0
 57 55  1  0  0  0  0
 58 55  1  0  0  0  0
 59 62  1  0  0  0  0
 59 54  1  0  0  0  0
 60 59  1  0  0  0  0
 61 59  1  0  0  0  0
M  END
