1
 OpenBabel05122313063D

 39 40  0  0  0  0  0  0  0  0999 V2000
   -0.3523    0.8266   -0.1133 P   0  0  2  0  0  0  0  0  0  0  0  0
    0.4179    1.2274   -1.5448 O   0  0  0  0  0  0  0  0  0  0  0  0
    0.5264    0.4079   -2.0665 H   0  0  0  0  0  0  0  0  0  0  0  0
    0.6045    1.0085    2.4227 O   0  0  0  0  0  0  0  0  0  0  0  0
    3.3483    3.1661   -1.4585 O   0  0  0  0  0  0  0  0  0  0  0  0
    1.7857    3.0946    0.1890 O   0  0  0  0  0  0  0  0  0  0  0  0
   -1.3917    2.2991    0.1445 C   0  0  0  0  0  0  0  0  0  0  0  0
   -1.8750    2.6089    1.4334 C   0  0  0  0  0  0  0  0  0  0  0  0
   -1.5866    1.9853    2.2915 H   0  0  0  0  0  0  0  0  0  0  0  0
   -2.6985    3.7301    1.6113 C   0  0  0  0  0  0  0  0  0  0  0  0
   -3.0679    3.9762    2.6182 H   0  0  0  0  0  0  0  0  0  0  0  0
   -3.0559    4.5308    0.5140 C   0  0  0  0  0  0  0  0  0  0  0  0
   -3.7087    5.4048    0.6593 H   0  0  0  0  0  0  0  0  0  0  0  0
   -2.5852    4.2105   -0.7696 C   0  0  0  0  0  0  0  0  0  0  0  0
   -2.8662    4.8329   -1.6328 H   0  0  0  0  0  0  0  0  0  0  0  0
   -1.7532    3.0977   -0.9596 C   0  0  0  0  0  0  0  0  0  0  0  0
   -1.3705    2.8470   -1.9593 H   0  0  0  0  0  0  0  0  0  0  0  0
    0.9753    0.9050    1.2682 C   0  0  0  0  0  0  0  0  0  0  0  0
    2.3364    0.4730    0.8294 C   0  0  0  0  0  0  0  0  0  0  0  0
    3.1208    1.1809   -0.1105 C   0  0  0  0  0  0  0  0  0  0  0  0
    4.2988    0.5917   -0.5966 C   0  0  0  0  0  0  0  0  0  0  0  0
    4.8941    1.1698   -1.3200 H   0  0  0  0  0  0  0  0  0  0  0  0
    4.7173   -0.6850   -0.1865 C   0  0  0  0  0  0  0  0  0  0  0  0
    3.9444   -1.3834    0.7820 C   0  0  0  0  0  0  0  0  0  0  0  0
    2.7756   -0.7842    1.2829 C   0  0  0  0  0  0  0  0  0  0  0  0
    2.1645   -1.3214    2.0240 H   0  0  0  0  0  0  0  0  0  0  0  0
    2.7871    2.5620   -0.5632 C   0  0  0  0  0  0  0  0  0  0  0  0
    1.3481    4.4053   -0.1874 C   0  0  0  0  0  0  0  0  0  0  0  0
    2.1821    5.1295   -0.0970 H   0  0  0  0  0  0  0  0  0  0  0  0
    0.5251    4.6615    0.5021 H   0  0  0  0  0  0  0  0  0  0  0  0
    0.9860    4.4064   -1.2342 H   0  0  0  0  0  0  0  0  0  0  0  0
    5.9639   -1.3030   -0.7596 C   0  0  0  0  0  0  0  0  0  0  0  0
    5.7399   -2.2667   -1.2640 H   0  0  0  0  0  0  0  0  0  0  0  0
    6.7066   -1.5325    0.0336 H   0  0  0  0  0  0  0  0  0  0  0  0
    6.4461   -0.6344   -1.4970 H   0  0  0  0  0  0  0  0  0  0  0  0
    4.3495   -2.7560    1.2447 C   0  0  0  0  0  0  0  0  0  0  0  0
    4.3282   -3.4787    0.4012 H   0  0  0  0  0  0  0  0  0  0  0  0
    3.6724   -3.1355    2.0328 H   0  0  0  0  0  0  0  0  0  0  0  0
    5.3854   -2.7666    1.6431 H   0  0  0  0  0  0  0  0  0  0  0  0
  1  2  1  6  0  0  0
  1  7  1  0  0  0  0
  1 18  1  0  0  0  0
  3  2  1  0  0  0  0
  5 27  2  0  0  0  0
  7  8  1  0  0  0  0
  8 10  2  0  0  0  0
  8  9  1  0  0  0  0
 10 11  1  0  0  0  0
 12 13  1  0  0  0  0
 12 10  1  0  0  0  0
 14 12  2  0  0  0  0
 15 14  1  0  0  0  0
 16 14  1  0  0  0  0
 16  7  2  0  0  0  0
 17 16  1  0  0  0  0
 18  4  2  0  0  0  0
 19 18  1  0  0  0  0
 19 25  1  0  0  0  0
 20 19  2  0  0  0  0
 21 23  2  0  0  0  0
 21 20  1  0  0  0  0
 22 21  1  0  0  0  0
 23 24  1  0  0  0  0
 24 36  1  0  0  0  0
 24 25  2  0  0  0  0
 25 26  1  0  0  0  0
 27 20  1  0  0  0  0
 27  6  1  0  0  0  0
 28 29  1  0  0  0  0
 28  6  1  0  0  0  0
 28 30  1  0  0  0  0
 31 28  1  0  0  0  0
 32 23  1  0  0  0  0
 32 34  1  0  0  0  0
 33 32  1  0  0  0  0
 35 32  1  0  0  0  0
 36 39  1  0  0  0  0
 36 38  1  0  0  0  0
 37 36  1  0  0  0  0
M  END
