2
 OpenBabel05122313063D

 38 39  0  0  0  0  0  0  0  0999 V2000
   -0.8728   -0.2280   -2.0661 Cl  0  0  0  0  0  0  0  0  0  0  0  0
    0.0159    0.5170   -0.2918 P   0  0  1  0  0  0  0  0  0  0  0  0
   -0.8320    0.4952    2.2270 O   0  0  0  0  0  0  0  0  0  0  0  0
   -0.8013   -2.2673    0.4617 O   0  0  0  0  0  0  0  0  0  0  0  0
   -2.2978   -3.4872   -0.7211 O   0  0  0  0  0  0  0  0  0  0  0  0
   -0.3980    2.3043   -0.5056 C   0  0  0  0  0  0  0  0  0  0  0  0
    0.5514    3.2866   -0.1658 C   0  0  0  0  0  0  0  0  0  0  0  0
    1.5543    2.9869    0.1652 H   0  0  0  0  0  0  0  0  0  0  0  0
    0.2213    4.6479   -0.2567 C   0  0  0  0  0  0  0  0  0  0  0  0
    0.9727    5.4067    0.0082 H   0  0  0  0  0  0  0  0  0  0  0  0
   -1.0545    5.0365   -0.6899 C   0  0  0  0  0  0  0  0  0  0  0  0
   -1.3105    6.1043   -0.7635 H   0  0  0  0  0  0  0  0  0  0  0  0
   -2.0018    4.0596   -1.0422 C   0  0  0  0  0  0  0  0  0  0  0  0
   -2.9999    4.3598   -1.3958 H   0  0  0  0  0  0  0  0  0  0  0  0
   -1.6782    2.6999   -0.9542 C   0  0  0  0  0  0  0  0  0  0  0  0
   -2.4129    1.9385   -1.2546 H   0  0  0  0  0  0  0  0  0  0  0  0
   -1.2455    0.1623    1.1349 C   0  0  0  0  0  0  0  0  0  0  0  0
   -2.6592   -0.2072    0.8260 C   0  0  0  0  0  0  0  0  0  0  0  0
   -3.0136   -1.4252    0.2053 C   0  0  0  0  0  0  0  0  0  0  0  0
   -4.3541   -1.6655   -0.1346 C   0  0  0  0  0  0  0  0  0  0  0  0
   -4.6113   -2.6230   -0.6103 H   0  0  0  0  0  0  0  0  0  0  0  0
   -5.3610   -0.7229    0.1345 C   0  0  0  0  0  0  0  0  0  0  0  0
   -5.0098    0.4951    0.7811 C   0  0  0  0  0  0  0  0  0  0  0  0
   -3.6645    0.7290    1.1204 C   0  0  0  0  0  0  0  0  0  0  0  0
   -3.3826    1.6719    1.6131 H   0  0  0  0  0  0  0  0  0  0  0  0
   -1.9300   -2.4185    0.0023 C   0  0  0  0  0  0  0  0  0  0  0  0
   -1.2602   -4.4527   -0.9667 C   0  0  0  0  0  0  0  0  0  0  0  0
   -0.8507   -4.8355   -0.0109 H   0  0  0  0  0  0  0  0  0  0  0  0
   -0.4347   -3.9932   -1.5450 H   0  0  0  0  0  0  0  0  0  0  0  0
   -1.7355   -5.2664   -1.5413 H   0  0  0  0  0  0  0  0  0  0  0  0
   -6.7912   -1.0034   -0.2415 C   0  0  0  0  0  0  0  0  0  0  0  0
   -7.1886   -0.2295   -0.9317 H   0  0  0  0  0  0  0  0  0  0  0  0
   -7.4550   -0.9957    0.6488 H   0  0  0  0  0  0  0  0  0  0  0  0
   -6.8954   -1.9872   -0.7362 H   0  0  0  0  0  0  0  0  0  0  0  0
   -6.0620    1.5219    1.1018 C   0  0  0  0  0  0  0  0  0  0  0  0
   -6.5871    1.8638    0.1848 H   0  0  0  0  0  0  0  0  0  0  0  0
   -5.6271    2.4091    1.5988 H   0  0  0  0  0  0  0  0  0  0  0  0
   -6.8450    1.1042    1.7695 H   0  0  0  0  0  0  0  0  0  0  0  0
  2  1  1  6  0  0  0
  2 17  1  0  0  0  0
  5 26  1  0  0  0  0
  6  2  1  0  0  0  0
  6  7  1  0  0  0  0
  7  8  1  0  0  0  0
  9  7  2  0  0  0  0
  9 10  1  0  0  0  0
 11  9  1  0  0  0  0
 12 11  1  0  0  0  0
 13 15  1  0  0  0  0
 13 11  2  0  0  0  0
 14 13  1  0  0  0  0
 15  6  2  0  0  0  0
 16 15  1  0  0  0  0
 17  3  2  0  0  0  0
 18 24  1  0  0  0  0
 18 17  1  0  0  0  0
 19 18  2  0  0  0  0
 20 22  2  0  0  0  0
 20 19  1  0  0  0  0
 21 20  1  0  0  0  0
 22 23  1  0  0  0  0
 23 35  1  0  0  0  0
 23 24  2  0  0  0  0
 24 25  1  0  0  0  0
 26 19  1  0  0  0  0
 26  4  2  0  0  0  0
 27  5  1  0  0  0  0
 27 28  1  0  0  0  0
 29 27  1  0  0  0  0
 30 27  1  0  0  0  0
 31 22  1  0  0  0  0
 31 33  1  0  0  0  0
 32 31  1  0  0  0  0
 34 31  1  0  0  0  0
 35 37  1  0  0  0  0
 35 38  1  0  0  0  0
 36 35  1  0  0  0  0
M  END
