1
 OpenBabel05122313063D

 34 35  0  0  0  0  0  0  0  0999 V2000
    1.1477    0.6608   -0.7349 P   0  0  0  0  0  0  0  0  0  0  0  0
    1.9167    0.9991   -2.4015 C   0  0  0  0  0  0  0  0  0  0  0  0
    2.2420    2.4616   -2.7019 C   0  0  0  0  0  0  0  0  0  0  0  0
    1.0608    3.0908   -3.1286 O   0  0  0  0  0  0  0  0  0  0  0  0
    1.1710    4.4941   -3.2112 C   0  0  0  0  0  0  0  0  0  0  0  0
    2.5121    1.0006    0.4661 C   0  0  0  0  0  0  0  0  0  0  0  0
    3.8690    1.0734    0.0856 C   0  0  0  0  0  0  0  0  0  0  0  0
    4.8796    1.1829    1.0558 C   0  0  0  0  0  0  0  0  0  0  0  0
    4.5506    1.2252    2.4193 C   0  0  0  0  0  0  0  0  0  0  0  0
    3.2013    1.1728    2.8089 C   0  0  0  0  0  0  0  0  0  0  0  0
    2.1920    1.0618    1.8423 C   0  0  0  0  0  0  0  0  0  0  0  0
    0.0180    2.0971   -0.5309 C   0  0  0  0  0  0  0  0  0  0  0  0
    0.3562    3.2411    0.2187 C   0  0  0  0  0  0  0  0  0  0  0  0
   -0.5585    4.3012    0.3266 C   0  0  0  0  0  0  0  0  0  0  0  0
   -1.8076    4.2251   -0.3108 C   0  0  0  0  0  0  0  0  0  0  0  0
   -2.1334    3.0955   -1.0813 C   0  0  0  0  0  0  0  0  0  0  0  0
   -1.2211    2.0393   -1.1997 C   0  0  0  0  0  0  0  0  0  0  0  0
    2.8199    0.3632   -2.5000 H   0  0  0  0  0  0  0  0  0  0  0  0
    1.1727    0.6355   -3.1410 H   0  0  0  0  0  0  0  0  0  0  0  0
    2.6661    2.9745   -1.8006 H   0  0  0  0  0  0  0  0  0  0  0  0
    3.0338    2.5136   -3.4928 H   0  0  0  0  0  0  0  0  0  0  0  0
    0.1916    4.8832   -3.5480 H   0  0  0  0  0  0  0  0  0  0  0  0
    1.9539    4.8122   -3.9408 H   0  0  0  0  0  0  0  0  0  0  0  0
    1.4125    4.9468   -2.2193 H   0  0  0  0  0  0  0  0  0  0  0  0
    4.1564    1.0500   -0.9754 H   0  0  0  0  0  0  0  0  0  0  0  0
    5.9322    1.2414    0.7403 H   0  0  0  0  0  0  0  0  0  0  0  0
    5.3438    1.3104    3.1769 H   0  0  0  0  0  0  0  0  0  0  0  0
    2.9268    1.2228    3.8735 H   0  0  0  0  0  0  0  0  0  0  0  0
    1.1404    1.0338    2.1604 H   0  0  0  0  0  0  0  0  0  0  0  0
    1.3271    3.3068    0.7299 H   0  0  0  0  0  0  0  0  0  0  0  0
   -0.2933    5.1909    0.9178 H   0  0  0  0  0  0  0  0  0  0  0  0
   -2.5268    5.0522   -0.2130 H   0  0  0  0  0  0  0  0  0  0  0  0
   -3.1065    3.0309   -1.5909 H   0  0  0  0  0  0  0  0  0  0  0  0
   -1.4584    1.1637   -1.8206 H   0  0  0  0  0  0  0  0  0  0  0  0
  1 12  1  0  0  0  0
  1  6  1  0  0  0  0
  2  1  1  0  0  0  0
  3  2  1  0  0  0  0
  3 20  1  0  0  0  0
  4  3  1  0  0  0  0
  5  4  1  0  0  0  0
  5 24  1  0  0  0  0
  6 11  1  0  0  0  0
  7  6  2  0  0  0  0
  7  8  1  0  0  0  0
  8  9  2  0  0  0  0
  9 10  1  0  0  0  0
  9 27  1  0  0  0  0
 10 28  1  0  0  0  0
 11 29  1  0  0  0  0
 11 10  2  0  0  0  0
 12 13  1  0  0  0  0
 13 14  2  0  0  0  0
 13 30  1  0  0  0  0
 14 31  1  0  0  0  0
 15 32  1  0  0  0  0
 15 14  1  0  0  0  0
 16 15  2  0  0  0  0
 17 16  1  0  0  0  0
 17 12  2  0  0  0  0
 18  2  1  0  0  0  0
 19  2  1  0  0  0  0
 21  3  1  0  0  0  0
 22  5  1  0  0  0  0
 23  5  1  0  0  0  0
 25  7  1  0  0  0  0
 26  8  1  0  0  0  0
 33 16  1  0  0  0  0
 34 17  1  0  0  0  0
M  END
