1
 OpenBabel05122313063D

  9  8  0  0  0  0  0  0  0  0999 V2000
    0.1245    2.3295   -1.6515 P   0  0  0  0  0  0  0  0  0  0  0  0
   -0.0144    1.9656   -3.5138 C   0  0  0  0  0  0  0  0  0  0  0  0
    0.8456    1.0360   -3.9922 F   0  0  0  0  0  0  0  0  0  0  0  0
   -1.2756    1.5090   -3.7470 F   0  0  0  0  0  0  0  0  0  0  0  0
    0.1583    3.0815   -4.2581 F   0  0  0  0  0  0  0  0  0  0  0  0
    2.0155    2.5464   -1.5841 C   0  0  0  0  0  0  0  0  0  0  0  0
    2.7491    1.4419   -1.8845 F   0  0  0  0  0  0  0  0  0  0  0  0
    2.3579    2.8973   -0.3126 F   0  0  0  0  0  0  0  0  0  0  0  0
    2.4343    3.5306   -2.4099 F   0  0  0  0  0  0  0  0  0  0  0  0
  1  6  1  0  0  0  0
  2  1  1  0  0  0  0
  3  2  1  0  0  0  0
  4  2  1  0  0  0  0
  5  2  1  0  0  0  0
  6  8  1  0  0  0  0
  7  6  1  0  0  0  0
  9  6  1  0  0  0  0
M  END
