2
 OpenBabel05122313063D

 29 31  0  0  1  0  0  0  0  0999 V2000
   -0.0916   -1.8372    2.6057 Cl  0  0  0  0  0  0  0  0  0  0  0  0
    0.3749   -0.5725    0.9744 P   0  0  2  0  0  0  0  0  0  0  0  0
    0.5851    1.7747    2.4410 O   0  0  0  0  0  0  0  0  0  0  0  0
    3.9514   -1.4685   -0.8385 C   0  0  0  0  0  0  0  0  0  0  0  0
    4.8193   -0.9160   -1.2266 H   0  0  0  0  0  0  0  0  0  0  0  0
    3.9483   -2.8676   -0.8859 C   0  0  0  0  0  0  0  0  0  0  0  0
    4.8071   -3.3994   -1.3223 H   0  0  0  0  0  0  0  0  0  0  0  0
    2.8574   -3.5880   -0.3749 C   0  0  0  0  0  0  0  0  0  0  0  0
    2.8459   -4.6873   -0.4146 H   0  0  0  0  0  0  0  0  0  0  0  0
    1.7842   -2.8991    0.2047 C   0  0  0  0  0  0  0  0  0  0  0  0
    0.9357   -3.4551    0.6297 H   0  0  0  0  0  0  0  0  0  0  0  0
    1.7930   -1.4945    0.2642 C   0  0  0  0  0  0  0  0  0  0  0  0
    2.8695   -0.7475   -0.2848 C   0  0  0  0  0  0  0  0  0  0  0  0
    2.8361    0.7368   -0.3206 C   0  0  0  0  0  0  0  0  0  0  0  0
    3.4915    1.4282   -1.3627 C   0  0  0  0  0  0  0  0  0  0  0  0
    4.0083    0.8518   -2.1429 H   0  0  0  0  0  0  0  0  0  0  0  0
    3.4548    2.8244   -1.4522 C   0  0  0  0  0  0  0  0  0  0  0  0
    3.9667    3.3327   -2.2829 H   0  0  0  0  0  0  0  0  0  0  0  0
    2.7451    3.5630   -0.4954 C   0  0  0  0  0  0  0  0  0  0  0  0
    2.6969    4.6602   -0.5602 H   0  0  0  0  0  0  0  0  0  0  0  0
    2.0767    2.8976    0.5410 C   0  0  0  0  0  0  0  0  0  0  0  0
    1.5025    3.4578    1.2893 H   0  0  0  0  0  0  0  0  0  0  0  0
    2.1151    1.4959    0.6434 C   0  0  0  0  0  0  0  0  0  0  0  0
    1.3705    0.8261    1.7901 C   0  0  2  0  0  0  0  0  0  0  0  0
    2.0784    0.3125    2.4910 H   0  0  0  0  0  0  0  0  0  0  0  0
   -0.0209    1.3792    3.6617 C   0  0  0  0  0  0  0  0  0  0  0  0
    0.7014    0.8513    4.3253 H   0  0  0  0  0  0  0  0  0  0  0  0
   -0.8955    0.7143    3.4973 H   0  0  0  0  0  0  0  0  0  0  0  0
   -0.3631    2.3070    4.1580 H   0  0  0  0  0  0  0  0  0  0  0  0
  2 24  1  0  0  0  0
  2  1  1  1  0  0  0
  3 26  1  0  0  0  0
  4 13  1  0  0  0  0
  5  4  1  0  0  0  0
  6  4  2  0  0  0  0
  6  8  1  0  0  0  0
  7  6  1  0  0  0  0
  8 10  2  0  0  0  0
  9  8  1  0  0  0  0
 10 12  1  0  0  0  0
 10 11  1  0  0  0  0
 12  2  1  0  0  0  0
 13 12  2  0  0  0  0
 14 13  1  0  0  0  0
 14 23  1  0  0  0  0
 15 14  2  0  0  0  0
 16 15  1  0  0  0  0
 17 15  1  0  0  0  0
 17 19  2  0  0  0  0
 18 17  1  0  0  0  0
 19 21  1  0  0  0  0
 20 19  1  0  0  0  0
 21 23  2  0  0  0  0
 21 22  1  0  0  0  0
 23 24  1  0  0  0  0
 24  3  1  0  0  0  0
 24 25  1  1  0  0  0
 26 29  1  0  0  0  0
 26 27  1  0  0  0  0
 28 26  1  0  0  0  0
M  END
