1
 OpenBabel05122313063D

 29 32  0  0  0  0  0  0  0  0999 V2000
    0.9683    0.2821    0.1901 P   0  0  2  0  0  0  0  0  0  0  0  0
    1.7238    1.8851   -0.4645 C   0  0  0  0  0  0  0  0  0  0  0  0
    1.5232    1.8064    1.0101 C   0  0  0  0  0  0  0  0  0  0  0  0
    0.8458    2.7379    1.9659 C   0  0  0  0  0  0  0  0  0  0  0  0
    2.2726    2.2877    2.2148 C   0  0  0  0  0  0  0  0  0  0  0  0
    1.0341    2.7869   -1.4994 C   0  0  0  0  0  0  0  0  0  0  0  0
    2.2267    2.5067   -2.4537 C   0  0  0  0  0  0  0  0  0  0  0  0
    3.0392    1.9432   -1.2555 C   0  0  0  0  0  0  0  0  0  0  0  0
    2.3389   -0.9288    0.1795 C   0  0  0  0  0  0  0  0  0  0  0  0
    3.5292   -0.7484    0.9145 C   0  0  0  0  0  0  0  0  0  0  0  0
    4.5513   -1.7065    0.8426 C   0  0  0  0  0  0  0  0  0  0  0  0
    4.3987   -2.8469    0.0378 C   0  0  0  0  0  0  0  0  0  0  0  0
    3.2185   -3.0274   -0.7007 C   0  0  0  0  0  0  0  0  0  0  0  0
    2.1918   -2.0750   -0.6301 C   0  0  0  0  0  0  0  0  0  0  0  0
    0.0520    2.3277    2.6103 H   0  0  0  0  0  0  0  0  0  0  0  0
    0.6703    3.7698    1.6203 H   0  0  0  0  0  0  0  0  0  0  0  0
    3.0894    3.0087    2.0430 H   0  0  0  0  0  0  0  0  0  0  0  0
    2.4502    1.5817    3.0415 H   0  0  0  0  0  0  0  0  0  0  0  0
    0.9922    3.8415   -1.1525 H   0  0  0  0  0  0  0  0  0  0  0  0
    0.0223    2.4913   -1.8375 H   0  0  0  0  0  0  0  0  0  0  0  0
    1.9800    1.7166   -3.1897 H   0  0  0  0  0  0  0  0  0  0  0  0
    2.6570    3.3733   -2.9911 H   0  0  0  0  0  0  0  0  0  0  0  0
    3.5973    0.9962   -1.3972 H   0  0  0  0  0  0  0  0  0  0  0  0
    3.7316    2.6934   -0.8163 H   0  0  0  0  0  0  0  0  0  0  0  0
    3.6555    0.1437    1.5431 H   0  0  0  0  0  0  0  0  0  0  0  0
    5.4749   -1.5607    1.4233 H   0  0  0  0  0  0  0  0  0  0  0  0
    5.2021   -3.5972   -0.0137 H   0  0  0  0  0  0  0  0  0  0  0  0
    3.0929   -3.9169   -1.3363 H   0  0  0  0  0  0  0  0  0  0  0  0
    1.2685   -2.2186   -1.2116 H   0  0  0  0  0  0  0  0  0  0  0  0
  1  9  1  1  0  0  0
  1  3  1  0  0  0  0
  2  1  1  0  0  0  0
  2  3  1  0  0  0  0
  3  4  1  0  0  0  0
  3  5  1  0  0  0  0
  4  5  1  0  0  0  0
  4 15  1  0  0  0  0
  5 18  1  0  0  0  0
  6 19  1  0  0  0  0
  6  2  1  0  0  0  0
  7  6  1  0  0  0  0
  7  8  1  0  0  0  0
  8 24  1  0  0  0  0
  8  2  1  0  0  0  0
  9 10  1  0  0  0  0
 10 25  1  0  0  0  0
 11 10  2  0  0  0  0
 11 26  1  0  0  0  0
 12 11  1  0  0  0  0
 13 14  1  0  0  0  0
 13 12  2  0  0  0  0
 14  9  2  0  0  0  0
 16  4  1  0  0  0  0
 17  5  1  0  0  0  0
 20  6  1  0  0  0  0
 21  7  1  0  0  0  0
 22  7  1  0  0  0  0
 23  8  1  0  0  0  0
 27 12  1  0  0  0  0
 28 13  1  0  0  0  0
 29 14  1  0  0  0  0
M  END
