1
 OpenBabel05122313063D

 36 39  0  0  1  0  0  0  0  0999 V2000
    0.3542   -0.0207    0.0131 P   0  0  2  0  0  0  0  0  0  0  0  0
    1.2874   -1.1440    1.2560 C   0  0  2  0  0  0  0  0  0  0  0  0
    1.1386   -0.9264    2.3283 H   0  0  0  0  0  0  0  0  0  0  0  0
    2.7055   -1.0157    0.7313 C   0  0  0  0  0  0  0  0  0  0  0  0
    2.6918   -1.0643   -0.6871 C   0  0  0  0  0  0  0  0  0  0  0  0
    1.2611   -1.2110   -1.1740 C   0  0  1  0  0  0  0  0  0  0  0  0
    1.0896   -1.0632   -2.2548 H   0  0  0  0  0  0  0  0  0  0  0  0
    0.6727   -2.5093   -0.5950 C   0  0  0  0  0  0  0  0  0  0  0  0
    0.6996   -2.4757    0.7677 C   0  0  0  0  0  0  0  0  0  0  0  0
    3.9046   -0.8419    1.4242 C   0  0  0  0  0  0  0  0  0  0  0  0
    3.9153   -0.7863    2.5236 H   0  0  0  0  0  0  0  0  0  0  0  0
    5.1035   -0.7307    0.6887 C   0  0  0  0  0  0  0  0  0  0  0  0
    6.0570   -0.5937    1.2209 H   0  0  0  0  0  0  0  0  0  0  0  0
    5.0904   -0.7849   -0.7128 C   0  0  0  0  0  0  0  0  0  0  0  0
    6.0337   -0.6913   -1.2718 H   0  0  0  0  0  0  0  0  0  0  0  0
    3.8773   -0.9477   -1.4145 C   0  0  0  0  0  0  0  0  0  0  0  0
    3.8666   -0.9737   -2.5152 H   0  0  0  0  0  0  0  0  0  0  0  0
    0.1815   -3.5862   -1.5036 C   0  0  0  0  0  0  0  0  0  0  0  0
   -0.2482   -4.4397   -0.9462 H   0  0  0  0  0  0  0  0  0  0  0  0
    0.9997   -3.9701   -2.1508 H   0  0  0  0  0  0  0  0  0  0  0  0
   -0.6034   -3.1925   -2.1850 H   0  0  0  0  0  0  0  0  0  0  0  0
    0.2789   -3.5200    1.7471 C   0  0  0  0  0  0  0  0  0  0  0  0
   -0.1574   -4.4080    1.2526 H   0  0  0  0  0  0  0  0  0  0  0  0
   -0.4788   -3.1182    2.4532 H   0  0  0  0  0  0  0  0  0  0  0  0
    1.1425   -3.8543    2.3622 H   0  0  0  0  0  0  0  0  0  0  0  0
    1.2601    1.5757   -0.0032 C   0  0  0  0  0  0  0  0  0  0  0  0
    1.2871    2.3478    1.1763 C   0  0  0  0  0  0  0  0  0  0  0  0
    0.8132    1.9688    2.0962 H   0  0  0  0  0  0  0  0  0  0  0  0
    1.9068    3.6050    1.1808 C   0  0  0  0  0  0  0  0  0  0  0  0
    1.9277    4.2005    2.1060 H   0  0  0  0  0  0  0  0  0  0  0  0
    2.4928    4.1054    0.0065 C   0  0  0  0  0  0  0  0  0  0  0  0
    2.9747    5.0947    0.0097 H   0  0  0  0  0  0  0  0  0  0  0  0
    2.4585    3.3443   -1.1721 C   0  0  0  0  0  0  0  0  0  0  0  0
    2.9143    3.7342   -2.0948 H   0  0  0  0  0  0  0  0  0  0  0  0
    1.8459    2.0821   -1.1788 C   0  0  0  0  0  0  0  0  0  0  0  0
    1.8267    1.4897   -2.1061 H   0  0  0  0  0  0  0  0  0  0  0  0
  1 26  1  6  0  0  0
  1  2  1  0  0  0  0
  2  3  1  1  0  0  0
  4  2  1  0  0  0  0
  4 10  1  0  0  0  0
  5  4  2  0  0  0  0
  6  7  1  6  0  0  0
  6  5  1  0  0  0  0
  6  8  1  0  0  0  0
  6  1  1  0  0  0  0
  8  9  2  0  0  0  0
  9  2  1  0  0  0  0
  9 22  1  0  0  0  0
 10 11  1  0  0  0  0
 12 13  1  0  0  0  0
 12 10  2  0  0  0  0
 14 12  1  0  0  0  0
 15 14  1  0  0  0  0
 16 14  2  0  0  0  0
 16  5  1  0  0  0  0
 17 16  1  0  0  0  0
 18 19  1  0  0  0  0
 18  8  1  0  0  0  0
 20 18  1  0  0  0  0
 21 18  1  0  0  0  0
 22 25  1  0  0  0  0
 22 24  1  0  0  0  0
 23 22  1  0  0  0  0
 26 27  1  0  0  0  0
 27 29  2  0  0  0  0
 27 28  1  0  0  0  0
 29 30  1  0  0  0  0
 31 32  1  0  0  0  0
 31 29  1  0  0  0  0
 33 31  2  0  0  0  0
 34 33  1  0  0  0  0
 35 33  1  0  0  0  0
 35 26  2  0  0  0  0
 36 35  1  0  0  0  0
M  END
