1
 OpenBabel05122313063D

 31 30  0  0  0  0  0  0  0  0999 V2000
    1.8648   -0.4155    0.3929 P   0  0  0  0  0  0  0  0  0  0  0  0
    4.5755    1.8004    0.5004 O   0  0  0  0  0  0  0  0  0  0  0  0
    4.8038    0.6814   -1.4576 O   0  0  0  0  0  0  0  0  0  0  0  0
    2.6006    0.9651   -0.6288 C   0  0  0  0  0  0  0  0  0  0  0  0
    2.3143    0.7323   -1.6734 H   0  0  0  0  0  0  0  0  0  0  0  0
    2.0343    1.8625   -0.3132 H   0  0  0  0  0  0  0  0  0  0  0  0
    4.0686    1.2140   -0.4427 C   0  0  0  0  0  0  0  0  0  0  0  0
    6.2221    0.8339   -1.3301 C   0  0  0  0  0  0  0  0  0  0  0  0
    6.6608    0.3925   -2.2424 H   0  0  0  0  0  0  0  0  0  0  0  0
    6.5952    0.3051   -0.4286 H   0  0  0  0  0  0  0  0  0  0  0  0
    6.4989    1.9033   -1.2411 H   0  0  0  0  0  0  0  0  0  0  0  0
    2.4089   -0.0504    2.1444 C   0  0  0  0  0  0  0  0  0  0  0  0
    3.5197   -0.0454    2.1258 H   0  0  0  0  0  0  0  0  0  0  0  0
    1.9280    1.3394    2.5788 C   0  0  0  0  0  0  0  0  0  0  0  0
    0.8316    1.4413    2.4405 H   0  0  0  0  0  0  0  0  0  0  0  0
    2.4431    2.1369    2.0100 H   0  0  0  0  0  0  0  0  0  0  0  0
    2.1564    1.4957    3.6537 H   0  0  0  0  0  0  0  0  0  0  0  0
    1.9067   -1.1505    3.0871 C   0  0  0  0  0  0  0  0  0  0  0  0
    2.2409   -2.1627    2.7847 H   0  0  0  0  0  0  0  0  0  0  0  0
    0.7982   -1.1625    3.1102 H   0  0  0  0  0  0  0  0  0  0  0  0
    2.2746   -0.9638    4.1173 H   0  0  0  0  0  0  0  0  0  0  0  0
    2.7493   -1.9892   -0.1047 C   0  0  0  0  0  0  0  0  0  0  0  0
    2.0746   -2.7574    0.3356 H   0  0  0  0  0  0  0  0  0  0  0  0
    4.1593   -2.1694    0.4676 C   0  0  0  0  0  0  0  0  0  0  0  0
    4.1837   -2.1556    1.5742 H   0  0  0  0  0  0  0  0  0  0  0  0
    4.8567   -1.3934    0.0952 H   0  0  0  0  0  0  0  0  0  0  0  0
    4.5638   -3.1508    0.1417 H   0  0  0  0  0  0  0  0  0  0  0  0
    2.7224   -2.1514   -1.6310 C   0  0  0  0  0  0  0  0  0  0  0  0
    1.7262   -1.9202   -2.0592 H   0  0  0  0  0  0  0  0  0  0  0  0
    2.9938   -3.1932   -1.9003 H   0  0  0  0  0  0  0  0  0  0  0  0
    3.4591   -1.4747   -2.1094 H   0  0  0  0  0  0  0  0  0  0  0  0
  1 12  1  0  0  0  0
  3  8  1  0  0  0  0
  3  7  1  0  0  0  0
  4  7  1  0  0  0  0
  4  6  1  0  0  0  0
  4  1  1  0  0  0  0
  5  4  1  0  0  0  0
  7  2  2  0  0  0  0
  8 11  1  0  0  0  0
  8 10  1  0  0  0  0
  9  8  1  0  0  0  0
 12 14  1  0  0  0  0
 12 18  1  0  0  0  0
 13 12  1  0  0  0  0
 14 17  1  0  0  0  0
 15 14  1  0  0  0  0
 16 14  1  0  0  0  0
 18 20  1  0  0  0  0
 18 21  1  0  0  0  0
 19 18  1  0  0  0  0
 22 23  1  0  0  0  0
 22  1  1  0  0  0  0
 22 24  1  0  0  0  0
 24 25  1  0  0  0  0
 26 24  1  0  0  0  0
 27 24  1  0  0  0  0
 28 22  1  0  0  0  0
 29 28  1  0  0  0  0
 30 28  1  0  0  0  0
 31 28  1  0  0  0  0
M  END
