2
 OpenBabel05122313063D

 59 64  0  0  1  0  0  0  0  0999 V2000
   -1.5007   -0.0627    0.1714 As  0  0  0  0  0  0  0  0  0  0  0  0
    1.6920    0.0490    0.3124 P   0  0  0  0  0  0  0  0  0  0  0  0
   -0.4720    2.1248    1.7546 O   0  0  0  0  0  0  0  0  0  0  0  0
    0.1283    2.2514    3.0569 C   0  0  1  0  0  0  0  0  0  0  0  0
    0.3374    3.3119    3.2848 H   0  0  0  0  0  0  0  0  0  0  0  0
   -0.8527    1.4951    3.9432 C   0  0  0  0  0  0  0  0  0  0  0  0
   -1.0125    1.6626    5.0168 H   0  0  0  0  0  0  0  0  0  0  0  0
   -1.3323    0.5016    3.1666 C   0  0  0  0  0  0  0  0  0  0  0  0
   -1.9767   -0.3454    3.4335 H   0  0  0  0  0  0  0  0  0  0  0  0
   -0.6584    0.7032    1.8131 C   0  0  1  0  0  0  0  0  0  0  0  0
    0.8337    0.2195    1.9814 C   0  0  2  0  0  0  0  0  0  0  0  0
    0.8574   -0.7987    2.4175 H   0  0  0  0  0  0  0  0  0  0  0  0
    1.3898    1.3242    2.9168 C   0  0  0  0  0  0  0  0  0  0  0  0
    1.7396    0.9325    3.8906 H   0  0  0  0  0  0  0  0  0  0  0  0
    2.2187    1.8857    2.4469 H   0  0  0  0  0  0  0  0  0  0  0  0
   -2.7220   -1.3928    0.8914 C   0  0  0  0  0  0  0  0  0  0  0  0
   -2.3152   -2.7391    0.8797 C   0  0  0  0  0  0  0  0  0  0  0  0
   -1.3536   -3.0127    0.4172 H   0  0  0  0  0  0  0  0  0  0  0  0
   -3.1549   -3.7182    1.4326 C   0  0  0  0  0  0  0  0  0  0  0  0
   -2.8433   -4.7735    1.4189 H   0  0  0  0  0  0  0  0  0  0  0  0
   -4.3934   -3.3547    1.9858 C   0  0  0  0  0  0  0  0  0  0  0  0
   -5.0522   -4.1262    2.4128 H   0  0  0  0  0  0  0  0  0  0  0  0
   -4.8005   -2.0101    1.9827 C   0  0  0  0  0  0  0  0  0  0  0  0
   -5.7773   -1.7271    2.4036 H   0  0  0  0  0  0  0  0  0  0  0  0
   -3.9672   -1.0238    1.4322 C   0  0  0  0  0  0  0  0  0  0  0  0
   -4.2925    0.0280    1.4147 H   0  0  0  0  0  0  0  0  0  0  0  0
   -2.6248    1.3551   -0.5337 C   0  0  0  0  0  0  0  0  0  0  0  0
   -2.9198    1.3265   -1.9109 C   0  0  0  0  0  0  0  0  0  0  0  0
   -2.5079    0.5183   -2.5396 H   0  0  0  0  0  0  0  0  0  0  0  0
   -3.7466    2.3208   -2.4560 C   0  0  0  0  0  0  0  0  0  0  0  0
   -3.9800    2.3010   -3.5314 H   0  0  0  0  0  0  0  0  0  0  0  0
   -4.2727    3.3331   -1.6372 C   0  0  0  0  0  0  0  0  0  0  0  0
   -4.9197    4.1112   -2.0706 H   0  0  0  0  0  0  0  0  0  0  0  0
   -3.9704    3.3576   -0.2662 C   0  0  0  0  0  0  0  0  0  0  0  0
   -4.3748    4.1556    0.3751 H   0  0  0  0  0  0  0  0  0  0  0  0
   -3.1435    2.3711    0.2937 C   0  0  0  0  0  0  0  0  0  0  0  0
   -2.8775    2.4125    1.3590 H   0  0  0  0  0  0  0  0  0  0  0  0
    3.2861   -0.7598    0.7089 C   0  0  0  0  0  0  0  0  0  0  0  0
    4.2396   -0.8772   -0.3281 C   0  0  0  0  0  0  0  0  0  0  0  0
    3.9957   -0.5098   -1.3348 H   0  0  0  0  0  0  0  0  0  0  0  0
    5.4727   -1.4936   -0.0787 C   0  0  0  0  0  0  0  0  0  0  0  0
    6.2054   -1.5853   -0.8944 H   0  0  0  0  0  0  0  0  0  0  0  0
    5.7685   -2.0022    1.1964 C   0  0  0  0  0  0  0  0  0  0  0  0
    6.7375   -2.4883    1.3863 H   0  0  0  0  0  0  0  0  0  0  0  0
    4.8232   -1.8931    2.2270 C   0  0  0  0  0  0  0  0  0  0  0  0
    5.0466   -2.2903    3.2287 H   0  0  0  0  0  0  0  0  0  0  0  0
    3.5860   -1.2755    1.9862 C   0  0  0  0  0  0  0  0  0  0  0  0
    2.8618   -1.1991    2.8092 H   0  0  0  0  0  0  0  0  0  0  0  0
    2.1608    1.7516   -0.1991 C   0  0  0  0  0  0  0  0  0  0  0  0
    3.3800    2.3397    0.1981 C   0  0  0  0  0  0  0  0  0  0  0  0
    4.1047    1.7594    0.7890 H   0  0  0  0  0  0  0  0  0  0  0  0
    3.6797    3.6582   -0.1773 C   0  0  0  0  0  0  0  0  0  0  0  0
    4.6353    4.1087    0.1311 H   0  0  0  0  0  0  0  0  0  0  0  0
    2.7686    4.3952   -0.9504 C   0  0  0  0  0  0  0  0  0  0  0  0
    3.0079    5.4276   -1.2476 H   0  0  0  0  0  0  0  0  0  0  0  0
    1.5592    3.8087   -1.3565 C   0  0  0  0  0  0  0  0  0  0  0  0
    0.8469    4.3762   -1.9739 H   0  0  0  0  0  0  0  0  0  0  0  0
    1.2562    2.4913   -0.9878 C   0  0  0  0  0  0  0  0  0  0  0  0
    0.3207    2.0216   -1.3278 H   0  0  0  0  0  0  0  0  0  0  0  0
  1 16  1  0  0  0  0
  2 38  1  0  0  0  0
  2 11  1  0  0  0  0
  3 10  1  0  0  0  0
  3  4  1  0  0  0  0
  4  5  1  1  0  0  0
  4  6  1  0  0  0  0
  6  7  1  0  0  0  0
  8  9  1  0  0  0  0
  8  6  2  0  0  0  0
 10  1  1  6  0  0  0
 10 11  1  0  0  0  0
 10  8  1  0  0  0  0
 11 12  1  1  0  0  0
 11 13  1  0  0  0  0
 13  4  1  0  0  0  0
 13 14  1  0  0  0  0
 15 13  1  0  0  0  0
 16 25  1  0  0  0  0
 17 16  2  0  0  0  0
 17 19  1  0  0  0  0
 18 17  1  0  0  0  0
 19 21  2  0  0  0  0
 20 19  1  0  0  0  0
 21 22  1  0  0  0  0
 23 21  1  0  0  0  0
 23 24  1  0  0  0  0
 25 23  2  0  0  0  0
 26 25  1  0  0  0  0
 27  1  1  0  0  0  0
 27 36  1  0  0  0  0
 28 27  2  0  0  0  0
 29 28  1  0  0  0  0
 30 28  1  0  0  0  0
 30 32  2  0  0  0  0
 31 30  1  0  0  0  0
 32 34  1  0  0  0  0
 33 32  1  0  0  0  0
 34 36  2  0  0  0  0
 34 35  1  0  0  0  0
 36 37  1  0  0  0  0
 38 47  1  0  0  0  0
 39 41  1  0  0  0  0
 39 38  2  0  0  0  0
 40 39  1  0  0  0  0
 41 43  2  0  0  0  0
 42 41  1  0  0  0  0
 43 44  1  0  0  0  0
 43 45  1  0  0  0  0
 45 46  1  0  0  0  0
 47 45  2  0  0  0  0
 47 48  1  0  0  0  0
 49 50  1  0  0  0  0
 49  2  1  0  0  0  0
 50 51  1  0  0  0  0
 52 53  1  0  0  0  0
 52 50  2  0  0  0  0
 54 52  1  0  0  0  0
 55 54  1  0  0  0  0
 56 58  1  0  0  0  0
 56 54  2  0  0  0  0
 57 56  1  0  0  0  0
 58 49  2  0  0  0  0
 59 58  1  0  0  0  0
M  END
