1
 OpenBabel05122313063D

 16 15  0  0  0  0  0  0  0  0999 V2000
    2.4579   -0.1001    0.0278 P   0  0  0  0  0  0  0  0  0  0  0  0
    3.1961    1.7583   -0.7183 S   0  0  0  0  0  0  0  0  0  0  0  0
    3.4933   -1.4609   -1.2311 S   0  0  0  0  0  0  0  0  0  0  0  0
    3.3008   -0.4308    1.9350 S   0  0  0  0  0  0  0  0  0  0  0  0
    2.0566    2.8975    0.1571 C   0  0  0  0  0  0  0  0  0  0  0  0
    1.0001    2.6746   -0.0915 H   0  0  0  0  0  0  0  0  0  0  0  0
    2.3171    3.9139   -0.1952 H   0  0  0  0  0  0  0  0  0  0  0  0
    2.2158    2.8330    1.2501 H   0  0  0  0  0  0  0  0  0  0  0  0
    2.5166   -1.2075   -2.7614 C   0  0  0  0  0  0  0  0  0  0  0  0
    1.4428   -1.4032   -2.5722 H   0  0  0  0  0  0  0  0  0  0  0  0
    2.9056   -1.9451   -3.4892 H   0  0  0  0  0  0  0  0  0  0  0  0
    2.6597   -0.1830   -3.1531 H   0  0  0  0  0  0  0  0  0  0  0  0
    5.0773   -0.1093    1.6346 C   0  0  0  0  0  0  0  0  0  0  0  0
    5.5587   -0.9688    1.1321 H   0  0  0  0  0  0  0  0  0  0  0  0
    5.5338    0.0475    2.6303 H   0  0  0  0  0  0  0  0  0  0  0  0
    5.1864    0.8106    1.0250 H   0  0  0  0  0  0  0  0  0  0  0  0
  1  4  1  0  0  0  0
  2  1  1  0  0  0  0
  2  5  1  0  0  0  0
  3  1  1  0  0  0  0
  5  8  1  0  0  0  0
  6  5  1  0  0  0  0
  7  5  1  0  0  0  0
  9 10  1  0  0  0  0
  9  3  1  0  0  0  0
 11  9  1  0  0  0  0
 12  9  1  0  0  0  0
 13  4  1  0  0  0  0
 13 15  1  0  0  0  0
 14 13  1  0  0  0  0
 16 13  1  0  0  0  0
M  END
