1
 OpenBabel05122313063D

 58 60  0  0  0  0  0  0  0  0999 V2000
    0.2372    0.5198    0.1398 P   0  0  0  0  0  0  0  0  0  0  0  0
    0.4442    1.0622    1.9175 C   0  0  0  0  0  0  0  0  0  0  0  0
   -0.2965    1.8745    2.0787 H   0  0  0  0  0  0  0  0  0  0  0  0
   -1.0560   -2.1424   -0.4895 O   0  0  0  0  0  0  0  0  0  0  0  0
    0.4920    2.0123   -0.9663 C   0  0  0  0  0  0  0  0  0  0  0  0
    0.1242    2.8920   -0.3956 H   0  0  0  0  0  0  0  0  0  0  0  0
   -2.0816    2.3417    0.5769 O   0  0  0  0  0  0  0  0  0  0  0  0
   -1.5513    0.1037    0.0397 C   0  0  0  0  0  0  0  0  0  0  0  0
   -3.3812   -1.5223   -0.3252 C   0  0  0  0  0  0  0  0  0  0  0  0
   -3.6962   -2.5429   -0.5625 H   0  0  0  0  0  0  0  0  0  0  0  0
    1.9846    2.1984   -1.3061 C   0  0  0  0  0  0  0  0  0  0  0  0
    2.5920    2.3054   -0.3862 H   0  0  0  0  0  0  0  0  0  0  0  0
    2.3510    1.2718   -1.8016 H   0  0  0  0  0  0  0  0  0  0  0  0
   -2.0052   -1.2096   -0.2653 C   0  0  0  0  0  0  0  0  0  0  0  0
    2.0426    1.9343    3.6906 C   0  0  0  0  0  0  0  0  0  0  0  0
    3.0825    2.2800    3.8678 H   0  0  0  0  0  0  0  0  0  0  0  0
    1.3792    2.7890    3.9544 H   0  0  0  0  0  0  0  0  0  0  0  0
    1.8579    1.5961    2.2036 C   0  0  0  0  0  0  0  0  0  0  0  0
    2.6007    0.8258    1.8950 H   0  0  0  0  0  0  0  0  0  0  0  0
    2.0621    2.4973    1.5904 H   0  0  0  0  0  0  0  0  0  0  0  0
    0.1018   -0.1269    2.8363 C   0  0  0  0  0  0  0  0  0  0  0  0
    0.7656   -0.9809    2.5706 H   0  0  0  0  0  0  0  0  0  0  0  0
   -0.9372   -0.4667    2.6460 H   0  0  0  0  0  0  0  0  0  0  0  0
    0.2894    0.2291    4.3166 C   0  0  0  0  0  0  0  0  0  0  0  0
   -0.4474    1.0139    4.6023 H   0  0  0  0  0  0  0  0  0  0  0  0
    0.0632   -0.6564    4.9468 H   0  0  0  0  0  0  0  0  0  0  0  0
   -2.5468    1.0906    0.2913 C   0  0  0  0  0  0  0  0  0  0  0  0
   -4.3269   -0.5145   -0.0734 C   0  0  0  0  0  0  0  0  0  0  0  0
    1.7074    0.7417    4.5930 C   0  0  0  0  0  0  0  0  0  0  0  0
    1.8214    1.0195    5.6618 H   0  0  0  0  0  0  0  0  0  0  0  0
    2.4351   -0.0780    4.4005 H   0  0  0  0  0  0  0  0  0  0  0  0
   -5.6698   -0.7113   -0.1041 O   0  0  0  0  0  0  0  0  0  0  0  0
    2.2011    3.4043   -2.2308 C   0  0  0  0  0  0  0  0  0  0  0  0
    3.2810    3.5029   -2.4681 H   0  0  0  0  0  0  0  0  0  0  0  0
    1.9118    4.3370   -1.6949 H   0  0  0  0  0  0  0  0  0  0  0  0
   -0.1094    3.0733   -3.1958 C   0  0  0  0  0  0  0  0  0  0  0  0
   -0.6954    2.9340   -4.1285 H   0  0  0  0  0  0  0  0  0  0  0  0
   -0.5107    3.9911   -2.7087 H   0  0  0  0  0  0  0  0  0  0  0  0
   -3.9156    0.7975    0.2362 C   0  0  0  0  0  0  0  0  0  0  0  0
   -4.6910    1.5482    0.4249 H   0  0  0  0  0  0  0  0  0  0  0  0
   -0.3327    1.8772   -2.2601 C   0  0  0  0  0  0  0  0  0  0  0  0
   -1.4104    1.7742   -2.0261 H   0  0  0  0  0  0  0  0  0  0  0  0
   -0.0322    0.9367   -2.7754 H   0  0  0  0  0  0  0  0  0  0  0  0
    1.3753    3.2805   -3.5158 C   0  0  0  0  0  0  0  0  0  0  0  0
    1.5139    4.1754   -4.1583 H   0  0  0  0  0  0  0  0  0  0  0  0
    1.7462    2.4108   -4.1028 H   0  0  0  0  0  0  0  0  0  0  0  0
   -1.3946   -3.4753   -0.8256 C   0  0  0  0  0  0  0  0  0  0  0  0
   -0.4290   -3.9958   -0.9687 H   0  0  0  0  0  0  0  0  0  0  0  0
   -1.9834   -3.5233   -1.7679 H   0  0  0  0  0  0  0  0  0  0  0  0
   -1.9659   -3.9711   -0.0100 H   0  0  0  0  0  0  0  0  0  0  0  0
   -3.0102    3.3893    0.7960 C   0  0  0  0  0  0  0  0  0  0  0  0
   -3.6586    3.1873    1.6765 H   0  0  0  0  0  0  0  0  0  0  0  0
   -3.6540    3.5588   -0.0947 H   0  0  0  0  0  0  0  0  0  0  0  0
   -2.4106    4.2980    0.9885 H   0  0  0  0  0  0  0  0  0  0  0  0
   -6.1594   -2.0051   -0.4088 C   0  0  0  0  0  0  0  0  0  0  0  0
   -5.8243   -2.7601    0.3369 H   0  0  0  0  0  0  0  0  0  0  0  0
   -5.8444   -2.3382   -1.4227 H   0  0  0  0  0  0  0  0  0  0  0  0
   -7.2623   -1.9361   -0.3796 H   0  0  0  0  0  0  0  0  0  0  0  0
  1  2  1  0  0  0  0
  2  3  1  0  0  0  0
  2 18  1  0  0  0  0
  2 21  1  0  0  0  0
  4 14  1  0  0  0  0
  5  6  1  0  0  0  0
  5  1  1  0  0  0  0
  7 51  1  0  0  0  0
  8  1  1  0  0  0  0
  8 27  1  0  0  0  0
  9 14  1  0  0  0  0
  9 28  2  0  0  0  0
 10  9  1  0  0  0  0
 11  5  1  0  0  0  0
 11 12  1  0  0  0  0
 13 11  1  0  0  0  0
 14  8  2  0  0  0  0
 15 16  1  0  0  0  0
 15 17  1  0  0  0  0
 15 29  1  0  0  0  0
 18 15  1  0  0  0  0
 19 18  1  0  0  0  0
 20 18  1  0  0  0  0
 21 24  1  0  0  0  0
 22 21  1  0  0  0  0
 23 21  1  0  0  0  0
 24 29  1  0  0  0  0
 24 25  1  0  0  0  0
 24 26  1  0  0  0  0
 27  7  1  0  0  0  0
 28 39  1  0  0  0  0
 29 30  1  0  0  0  0
 31 29  1  0  0  0  0
 32 28  1  0  0  0  0
 33 35  1  0  0  0  0
 33 11  1  0  0  0  0
 34 33  1  0  0  0  0
 36 38  1  0  0  0  0
 36 41  1  0  0  0  0
 37 36  1  0  0  0  0
 39 27  2  0  0  0  0
 39 40  1  0  0  0  0
 41 42  1  0  0  0  0
 41  5  1  0  0  0  0
 43 41  1  0  0  0  0
 44 36  1  0  0  0  0
 44 33  1  0  0  0  0
 45 44  1  0  0  0  0
 46 44  1  0  0  0  0
 47  4  1  0  0  0  0
 47 50  1  0  0  0  0
 48 47  1  0  0  0  0
 49 47  1  0  0  0  0
 51 54  1  0  0  0  0
 51 52  1  0  0  0  0
 53 51  1  0  0  0  0
 55 58  1  0  0  0  0
 55 32  1  0  0  0  0
 55 56  1  0  0  0  0
 57 55  1  0  0  0  0
M  END
