1
 OpenBabel05122313063D

 65 69  0  0  1  0  0  0  0  0999 V2000
    0.7281    0.1285   -0.2438 P   0  0  1  0  0  0  0  0  0  0  0  0
   -0.9697   -0.4116    1.0651 P   0  0  1  0  0  0  0  0  0  0  0  0
   -1.1125    3.4178    1.4187 O   0  0  0  0  0  0  0  0  0  0  0  0
   -3.0725    2.2696    1.5033 O   0  0  0  0  0  0  0  0  0  0  0  0
   -0.2293    0.5349   -1.8240 C   0  0  2  0  0  0  0  0  0  0  0  0
   -0.1765    1.6941   -0.8329 C   0  0  1  0  0  0  0  0  0  0  0  0
   -1.6544    1.7994   -0.3232 C   0  0  1  0  0  0  0  0  0  0  0  0
   -2.4738    2.2819   -1.5301 C   0  0  0  0  0  0  0  0  0  0  0  0
   -2.5053    1.2450   -2.4087 C   0  0  0  0  0  0  0  0  0  0  0  0
   -1.7162    0.0649   -1.7955 C   0  0  2  0  0  0  0  0  0  0  0  0
   -2.0535    0.2948   -0.2882 C   0  0  1  0  0  0  0  0  0  0  0  0
   -3.1272    0.1561   -0.0685 H   0  0  0  0  0  0  0  0  0  0  0  0
   -1.8693    2.5849    0.9544 C   0  0  0  0  0  0  0  0  0  0  0  0
   -3.4205    2.9634    2.7238 C   0  0  0  0  0  0  0  0  0  0  0  0
   -2.5021    3.0905    3.3314 H   0  0  0  0  0  0  0  0  0  0  0  0
   -4.1123    2.2750    3.2475 H   0  0  0  0  0  0  0  0  0  0  0  0
   -4.0726    4.3051    2.4343 C   0  0  0  0  0  0  0  0  0  0  0  0
   -3.3591    4.9829    1.9268 H   0  0  0  0  0  0  0  0  0  0  0  0
   -4.3875    4.7868    3.3819 H   0  0  0  0  0  0  0  0  0  0  0  0
   -4.9701    4.1833    1.7951 H   0  0  0  0  0  0  0  0  0  0  0  0
   -3.0102    3.6699   -1.6405 C   0  0  0  0  0  0  0  0  0  0  0  0
   -3.5060    3.8478   -2.6141 H   0  0  0  0  0  0  0  0  0  0  0  0
   -2.2051    4.4257   -1.5191 H   0  0  0  0  0  0  0  0  0  0  0  0
   -3.7505    3.8739   -0.8369 H   0  0  0  0  0  0  0  0  0  0  0  0
   -3.1022    1.1998   -3.7769 C   0  0  0  0  0  0  0  0  0  0  0  0
   -3.5885    2.1575   -4.0451 H   0  0  0  0  0  0  0  0  0  0  0  0
   -3.8644    0.3961   -3.8627 H   0  0  0  0  0  0  0  0  0  0  0  0
   -2.3353    0.9816   -4.5515 H   0  0  0  0  0  0  0  0  0  0  0  0
   -1.9804   -1.2912   -2.4194 C   0  0  0  0  0  0  0  0  0  0  0  0
   -1.7929   -1.2699   -3.5114 H   0  0  0  0  0  0  0  0  0  0  0  0
   -3.0313   -1.6042   -2.2596 H   0  0  0  0  0  0  0  0  0  0  0  0
   -1.3307   -2.0625   -1.9710 H   0  0  0  0  0  0  0  0  0  0  0  0
    0.5021    0.5649   -3.1431 C   0  0  0  0  0  0  0  0  0  0  0  0
   -0.0068    1.2508   -3.8535 H   0  0  0  0  0  0  0  0  0  0  0  0
    0.5401   -0.4436   -3.6005 H   0  0  0  0  0  0  0  0  0  0  0  0
    1.5437    0.9179   -3.0338 H   0  0  0  0  0  0  0  0  0  0  0  0
    0.5878    2.9653   -1.1070 C   0  0  0  0  0  0  0  0  0  0  0  0
    1.6032    2.7623   -1.4914 H   0  0  0  0  0  0  0  0  0  0  0  0
    0.6690    3.5692   -0.1849 H   0  0  0  0  0  0  0  0  0  0  0  0
    0.0565    3.5675   -1.8749 H   0  0  0  0  0  0  0  0  0  0  0  0
   -1.2956   -2.2944    1.2695 C   0  0  1  0  0  0  0  0  0  0  0  0
   -2.8136   -2.4191    1.3304 C   0  0  0  0  0  0  0  0  0  0  0  0
   -3.2037   -3.3378    0.3897 C   0  0  0  0  0  0  0  0  0  0  0  0
   -2.0168   -3.8516   -0.3219 C   0  0  0  0  0  0  0  0  0  0  0  0
   -0.8901   -3.2308    0.1555 C   0  0  0  0  0  0  0  0  0  0  0  0
   -3.6529   -1.6790    2.3231 C   0  0  0  0  0  0  0  0  0  0  0  0
   -3.5309   -0.5754    2.2407 H   0  0  0  0  0  0  0  0  0  0  0  0
   -3.3761   -1.9393    3.3686 H   0  0  0  0  0  0  0  0  0  0  0  0
   -4.7286   -1.9080    2.1975 H   0  0  0  0  0  0  0  0  0  0  0  0
   -4.5938   -3.8030    0.0818 C   0  0  0  0  0  0  0  0  0  0  0  0
   -5.3529   -3.3058    0.7151 H   0  0  0  0  0  0  0  0  0  0  0  0
   -4.6982   -4.8994    0.2281 H   0  0  0  0  0  0  0  0  0  0  0  0
   -4.8587   -3.6055   -0.9797 H   0  0  0  0  0  0  0  0  0  0  0  0
   -2.1068   -4.8638   -1.4214 C   0  0  0  0  0  0  0  0  0  0  0  0
   -1.1088   -5.1891   -1.7719 H   0  0  0  0  0  0  0  0  0  0  0  0
   -2.6513   -4.4556   -2.3014 H   0  0  0  0  0  0  0  0  0  0  0  0
   -2.6663   -5.7677   -1.1006 H   0  0  0  0  0  0  0  0  0  0  0  0
    0.5219   -3.4061   -0.2932 C   0  0  0  0  0  0  0  0  0  0  0  0
    0.6616   -4.3374   -0.8752 H   0  0  0  0  0  0  0  0  0  0  0  0
    1.2333   -3.4290    0.5583 H   0  0  0  0  0  0  0  0  0  0  0  0
    0.8499   -2.5655   -0.9452 H   0  0  0  0  0  0  0  0  0  0  0  0
   -0.6441   -2.6900    2.6124 C   0  0  0  0  0  0  0  0  0  0  0  0
   -0.9805   -2.0248    3.4327 H   0  0  0  0  0  0  0  0  0  0  0  0
    0.4601   -2.6335    2.5713 H   0  0  0  0  0  0  0  0  0  0  0  0
   -0.9306   -3.7323    2.8603 H   0  0  0  0  0  0  0  0  0  0  0  0
  1  2  1  0  0  0  0
  2 41  1  0  0  0  0
  4 14  1  0  0  0  0
  5 10  1  0  0  0  0
  5  6  1  0  0  0  0
  5  1  1  0  0  0  0
  6  7  1  0  0  0  0
  6  1  1  0  0  0  0
  7 11  1  0  0  0  0
  7 13  1  0  0  0  0
  8  7  1  0  0  0  0
  9 10  1  0  0  0  0
  9  8  2  0  0  0  0
 10 11  1  0  0  0  0
 11 12  1  0  0  0  0
 11  2  1  0  0  0  0
 13  3  2  0  0  0  0
 13  4  1  0  0  0  0
 14 16  1  0  0  0  0
 14 15  1  0  0  0  0
 17 14  1  0  0  0  0
 17 19  1  0  0  0  0
 18 17  1  0  0  0  0
 20 17  1  0  0  0  0
 21  8  1  0  0  0  0
 21 23  1  0  0  0  0
 21 24  1  0  0  0  0
 22 21  1  0  0  0  0
 25  9  1  0  0  0  0
 26 25  1  0  0  0  0
 27 25  1  0  0  0  0
 28 25  1  0  0  0  0
 29 31  1  0  0  0  0
 29 32  1  0  0  0  0
 29 10  1  0  0  0  0
 30 29  1  0  0  0  0
 33 36  1  0  0  0  0
 33  5  1  0  0  0  0
 34 33  1  0  0  0  0
 35 33  1  0  0  0  0
 37  6  1  0  0  0  0
 37 39  1  0  0  0  0
 38 37  1  0  0  0  0
 40 37  1  0  0  0  0
 41 42  1  0  0  0  0
 41 62  1  0  0  0  0
 42 46  1  0  0  0  0
 43 42  2  0  0  0  0
 44 45  2  0  0  0  0
 44 43  1  0  0  0  0
 45 41  1  0  0  0  0
 46 48  1  0  0  0  0
 47 46  1  0  0  0  0
 49 46  1  0  0  0  0
 50 52  1  0  0  0  0
 50 43  1  0  0  0  0
 50 51  1  0  0  0  0
 53 50  1  0  0  0  0
 54 57  1  0  0  0  0
 54 44  1  0  0  0  0
 55 54  1  0  0  0  0
 56 54  1  0  0  0  0
 58 45  1  0  0  0  0
 58 60  1  0  0  0  0
 59 58  1  0  0  0  0
 61 58  1  0  0  0  0
 62 65  1  0  0  0  0
 62 63  1  0  0  0  0
 64 62  1  0  0  0  0
M  END
