1
 OpenBabel05122313063D

 32 34  0  0  0  0  0  0  0  0999 V2000
    1.8797   -0.1238   -0.0116 P   0  0  0  0  0  0  0  0  0  0  0  0
    2.1226    0.7994   -2.5698 N   0  0  0  0  0  0  0  0  0  0  0  0
    2.5717    0.7526   -3.8316 C   0  0  0  0  0  0  0  0  0  0  0  0
    3.5538   -0.1630   -4.2388 C   0  0  0  0  0  0  0  0  0  0  0  0
    4.0356   -1.0375   -3.2534 C   0  0  0  0  0  0  0  0  0  0  0  0
    3.5936   -1.0028   -1.9873 N   0  0  0  0  0  0  0  0  0  0  0  0
    2.6589   -0.0826   -1.7043 C   0  0  0  0  0  0  0  0  0  0  0  0
    2.7966    2.5809   -0.0488 C   0  0  0  0  0  0  0  0  0  0  0  0
    2.7257    3.9348    0.3100 C   0  0  0  0  0  0  0  0  0  0  0  0
    1.7201    4.3818    1.1834 C   0  0  0  0  0  0  0  0  0  0  0  0
    0.7915    3.4673    1.7021 C   0  0  0  0  0  0  0  0  0  0  0  0
    0.8538    2.1145    1.3381 C   0  0  0  0  0  0  0  0  0  0  0  0
    1.8546    1.6611    0.4577 C   0  0  0  0  0  0  0  0  0  0  0  0
    3.4583   -2.2137    0.9685 C   0  0  0  0  0  0  0  0  0  0  0  0
    4.4630   -2.7979    1.7501 C   0  0  0  0  0  0  0  0  0  0  0  0
    5.2333   -2.0060    2.6185 C   0  0  0  0  0  0  0  0  0  0  0  0
    4.9966   -0.6258    2.6976 C   0  0  0  0  0  0  0  0  0  0  0  0
    3.9993   -0.0328    1.9063 C   0  0  0  0  0  0  0  0  0  0  0  0
    3.2279   -0.8240    1.0343 C   0  0  0  0  0  0  0  0  0  0  0  0
    2.1264    1.4700   -4.5436 H   0  0  0  0  0  0  0  0  0  0  0  0
    3.9171   -0.1999   -5.2758 H   0  0  0  0  0  0  0  0  0  0  0  0
    4.8037   -1.7959   -3.4890 H   0  0  0  0  0  0  0  0  0  0  0  0
    3.5889    2.2420   -0.7325 H   0  0  0  0  0  0  0  0  0  0  0  0
    3.4599    4.6465   -0.0981 H   0  0  0  0  0  0  0  0  0  0  0  0
    1.6597    5.4470    1.4546 H   0  0  0  0  0  0  0  0  0  0  0  0
   -0.0102    3.8053    2.3758 H   0  0  0  0  0  0  0  0  0  0  0  0
    0.0878    1.4259    1.7254 H   0  0  0  0  0  0  0  0  0  0  0  0
    2.8397   -2.8338    0.3036 H   0  0  0  0  0  0  0  0  0  0  0  0
    4.6395   -3.8826    1.6883 H   0  0  0  0  0  0  0  0  0  0  0  0
    6.0145   -2.4687    3.2409 H   0  0  0  0  0  0  0  0  0  0  0  0
    5.5895   -0.0011    3.3833 H   0  0  0  0  0  0  0  0  0  0  0  0
    3.8172    1.0496    1.9742 H   0  0  0  0  0  0  0  0  0  0  0  0
  1 13  1  0  0  0  0
  1 19  1  0  0  0  0
  2  7  1  0  0  0  0
  3  2  2  0  0  0  0
  4  3  1  0  0  0  0
  4  5  2  0  0  0  0
  5  6  1  0  0  0  0
  6  7  2  0  0  0  0
  7  1  1  0  0  0  0
  8  9  2  0  0  0  0
  8 13  1  0  0  0  0
  9 10  1  0  0  0  0
 10 25  1  0  0  0  0
 10 11  2  0  0  0  0
 11 26  1  0  0  0  0
 12 11  1  0  0  0  0
 12 27  1  0  0  0  0
 13 12  2  0  0  0  0
 14 19  2  0  0  0  0
 14 15  1  0  0  0  0
 15 16  2  0  0  0  0
 16 17  1  0  0  0  0
 16 30  1  0  0  0  0
 17 31  1  0  0  0  0
 18 32  1  0  0  0  0
 18 17  2  0  0  0  0
 19 18  1  0  0  0  0
 20  3  1  0  0  0  0
 21  4  1  0  0  0  0
 22  5  1  0  0  0  0
 23  8  1  0  0  0  0
 24  9  1  0  0  0  0
 28 14  1  0  0  0  0
 29 15  1  0  0  0  0
M  END
