2
 OpenBabel05122313063D

 34 36  0  0  0  0  0  0  0  0999 V2000
    1.4070    0.9796    2.0981 I   0  0  0  0  0  0  0  0  0  0  0  0
   -1.1261   -0.2520   -0.0245 P   0  0  0  0  0  0  0  0  0  0  0  0
   -0.2916    1.3348   -0.5161 C   0  0  0  0  0  0  0  0  0  0  0  0
   -0.5540    1.9756   -1.7415 C   0  0  0  0  0  0  0  0  0  0  0  0
    0.1957    3.0826   -2.1807 C   0  0  0  0  0  0  0  0  0  0  0  0
    1.2561    3.5559   -1.3993 C   0  0  0  0  0  0  0  0  0  0  0  0
    1.5449    2.9269   -0.1762 C   0  0  0  0  0  0  0  0  0  0  0  0
    0.7881    1.8316    0.2614 C   0  0  0  0  0  0  0  0  0  0  0  0
   -1.9104    0.2131    1.5816 C   0  0  0  0  0  0  0  0  0  0  0  0
   -2.3048    1.5431    1.8375 C   0  0  0  0  0  0  0  0  0  0  0  0
   -2.0967    2.3302    1.0967 H   0  0  0  0  0  0  0  0  0  0  0  0
   -2.9414    1.8717    3.0431 C   0  0  0  0  0  0  0  0  0  0  0  0
   -3.2373    2.9139    3.2368 H   0  0  0  0  0  0  0  0  0  0  0  0
   -3.1927    0.8766    4.0007 C   0  0  0  0  0  0  0  0  0  0  0  0
   -3.6881    1.1358    4.9486 H   0  0  0  0  0  0  0  0  0  0  0  0
   -2.8040   -0.4485    3.7482 C   0  0  0  0  0  0  0  0  0  0  0  0
   -2.9937   -1.2326    4.4967 H   0  0  0  0  0  0  0  0  0  0  0  0
   -2.1627   -0.7811    2.5463 C   0  0  0  0  0  0  0  0  0  0  0  0
   -1.8454   -1.8175    2.3654 H   0  0  0  0  0  0  0  0  0  0  0  0
   -2.5960   -0.4774   -1.1192 C   0  0  0  0  0  0  0  0  0  0  0  0
   -3.8234    0.1769   -0.8973 C   0  0  0  0  0  0  0  0  0  0  0  0
   -3.9431    0.8569   -0.0416 H   0  0  0  0  0  0  0  0  0  0  0  0
   -4.9030   -0.0488   -1.7631 C   0  0  0  0  0  0  0  0  0  0  0  0
   -5.8610    0.4623   -1.5831 H   0  0  0  0  0  0  0  0  0  0  0  0
   -4.7667   -0.9273   -2.8501 C   0  0  0  0  0  0  0  0  0  0  0  0
   -5.6182   -1.1045   -3.5248 H   0  0  0  0  0  0  0  0  0  0  0  0
   -3.5474   -1.5882   -3.0674 C   0  0  0  0  0  0  0  0  0  0  0  0
   -3.4384   -2.2859   -3.9114 H   0  0  0  0  0  0  0  0  0  0  0  0
   -2.4658   -1.3682   -2.2035 C   0  0  0  0  0  0  0  0  0  0  0  0
   -1.5061   -1.8912   -2.3498 H   0  0  0  0  0  0  0  0  0  0  0  0
   -1.5295    1.5710   -2.5644 F   0  0  0  0  0  0  0  0  0  0  0  0
   -0.0955    3.6722   -3.3417 F   0  0  0  0  0  0  0  0  0  0  0  0
    1.9853    4.5932   -1.8119 F   0  0  0  0  0  0  0  0  0  0  0  0
    2.5887    3.3870    0.5240 F   0  0  0  0  0  0  0  0  0  0  0  0
  2  9  1  0  0  0  0
  3  2  1  0  0  0  0
  3  8  1  0  0  0  0
  4  3  2  0  0  0  0
  5  4  1  0  0  0  0
  5  6  2  0  0  0  0
  6  7  1  0  0  0  0
  7  8  2  0  0  0  0
  7 34  1  0  0  0  0
  8  1  1  0  0  0  0
  9 10  2  0  0  0  0
  9 18  1  0  0  0  0
 10 12  1  0  0  0  0
 11 10  1  0  0  0  0
 12 13  1  0  0  0  0
 12 14  2  0  0  0  0
 14 15  1  0  0  0  0
 16 14  1  0  0  0  0
 16 17  1  0  0  0  0
 18 16  2  0  0  0  0
 19 18  1  0  0  0  0
 20 21  1  0  0  0  0
 20  2  1  0  0  0  0
 21 22  1  0  0  0  0
 23 24  1  0  0  0  0
 23 21  2  0  0  0  0
 25 23  1  0  0  0  0
 26 25  1  0  0  0  0
 27 25  2  0  0  0  0
 27 29  1  0  0  0  0
 28 27  1  0  0  0  0
 29 20  2  0  0  0  0
 30 29  1  0  0  0  0
 31  4  1  0  0  0  0
 32  5  1  0  0  0  0
 33  6  1  0  0  0  0
M  END
