4
 OpenBabel05122313063D

 37 39  0  0  0  0  0  0  0  0999 V2000
    3.0709   -0.8491    0.4285 N   0  0  0  0  0  0  0  0  0  0  0  0
    2.9619   -1.8834    0.3669 H   0  0  0  0  0  0  0  0  0  0  0  0
    1.5528    1.4803    0.4504 C   0  0  0  0  0  0  0  0  0  0  0  0
    1.6867   -0.1678   -0.3297 P   0  0  0  0  0  0  0  0  0  0  0  0
    1.4415    3.9321    1.8178 C   0  0  0  0  0  0  0  0  0  0  0  0
    1.4071    4.8930    2.3530 H   0  0  0  0  0  0  0  0  0  0  0  0
    1.5722    3.9103    0.4207 C   0  0  0  0  0  0  0  0  0  0  0  0
    1.6283    4.8528   -0.1440 H   0  0  0  0  0  0  0  0  0  0  0  0
    1.6178    2.6885   -0.2679 C   0  0  0  0  0  0  0  0  0  0  0  0
    1.6970    2.6773   -1.3638 H   0  0  0  0  0  0  0  0  0  0  0  0
    9.6142    1.0440    1.0976 N   0  0  0  0  0  0  0  0  0  0  0  0
    1.3468    2.7257    2.5330 C   0  0  0  0  0  0  0  0  0  0  0  0
    1.2343    2.7365    3.6275 H   0  0  0  0  0  0  0  0  0  0  0  0
    2.0698    0.0913   -2.1009 C   0  0  0  0  0  0  0  0  0  0  0  0
    1.4066    1.5024    1.8540 C   0  0  0  0  0  0  0  0  0  0  0  0
    1.3575    0.5551    2.4113 H   0  0  0  0  0  0  0  0  0  0  0  0
    3.1731    0.8675   -2.5230 C   0  0  0  0  0  0  0  0  0  0  0  0
    3.8191    1.3689   -1.7884 H   0  0  0  0  0  0  0  0  0  0  0  0
    3.4596    0.9886   -3.8901 C   0  0  0  0  0  0  0  0  0  0  0  0
    4.3218    1.5913   -4.2130 H   0  0  0  0  0  0  0  0  0  0  0  0
    2.6565    0.3389   -4.8420 C   0  0  0  0  0  0  0  0  0  0  0  0
    2.8866    0.4370   -5.9137 H   0  0  0  0  0  0  0  0  0  0  0  0
    1.5714   -0.4480   -4.4254 C   0  0  0  0  0  0  0  0  0  0  0  0
    0.9524   -0.9757   -5.1664 H   0  0  0  0  0  0  0  0  0  0  0  0
    1.2816   -0.5784   -3.0598 C   0  0  0  0  0  0  0  0  0  0  0  0
    0.4541   -1.2217   -2.7184 H   0  0  0  0  0  0  0  0  0  0  0  0
    4.3884   -0.4039    0.5417 C   0  0  0  0  0  0  0  0  0  0  0  0
    4.7572    0.9598    0.6586 C   0  0  0  0  0  0  0  0  0  0  0  0
    3.9896    1.7427    0.6567 H   0  0  0  0  0  0  0  0  0  0  0  0
    6.0973    1.3230    0.7995 C   0  0  0  0  0  0  0  0  0  0  0  0
    6.3661    2.3852    0.8905 H   0  0  0  0  0  0  0  0  0  0  0  0
    7.1173    0.3437    0.8385 C   0  0  0  0  0  0  0  0  0  0  0  0
    6.7507   -1.0203    0.7343 C   0  0  0  0  0  0  0  0  0  0  0  0
    7.5302   -1.7950    0.7617 H   0  0  0  0  0  0  0  0  0  0  0  0
    5.4142   -1.3833    0.5858 C   0  0  0  0  0  0  0  0  0  0  0  0
    5.1399   -2.4452    0.4921 H   0  0  0  0  0  0  0  0  0  0  0  0
    8.4887    0.7259    0.9816 C   0  0  0  0  0  0  0  0  0  0  0  0
  1 27  1  0  0  0  0
  2  1  1  0  0  0  0
  3 15  1  0  0  0  0
  4  1  1  0  0  0  0
  4  3  1  0  0  0  0
  5  6  1  0  0  0  0
  5 12  1  0  0  0  0
  7  5  2  0  0  0  0
  8  7  1  0  0  0  0
  9  7  1  0  0  0  0
  9  3  2  0  0  0  0
 10  9  1  0  0  0  0
 12 13  1  0  0  0  0
 14  4  1  0  0  0  0
 15 16  1  0  0  0  0
 15 12  2  0  0  0  0
 17 14  1  0  0  0  0
 17 18  1  0  0  0  0
 19 17  2  0  0  0  0
 20 19  1  0  0  0  0
 21 23  2  0  0  0  0
 21 19  1  0  0  0  0
 22 21  1  0  0  0  0
 23 25  1  0  0  0  0
 24 23  1  0  0  0  0
 25 26  1  0  0  0  0
 25 14  2  0  0  0  0
 27 35  2  0  0  0  0
 27 28  1  0  0  0  0
 28 30  2  0  0  0  0
 29 28  1  0  0  0  0
 30 32  1  0  0  0  0
 30 31  1  0  0  0  0
 32 37  1  0  0  0  0
 33 34  1  0  0  0  0
 33 32  2  0  0  0  0
 35 33  1  0  0  0  0
 36 35  1  0  0  0  0
 37 11  3  0  0  0  0
M  END
