1
 OpenBabel05122313063D

 36 38  0  0  0  0  0  0  0  0999 V2000
    1.1433    0.4053   -0.7769 P   0  0  0  0  0  0  0  0  0  0  0  0
    5.9596    0.3308    4.0908 F   0  0  0  0  0  0  0  0  0  0  0  0
    1.3871    0.4402    0.9172 N   0  0  0  0  0  0  0  0  0  0  0  0
    0.5358    0.2005    1.4451 H   0  0  0  0  0  0  0  0  0  0  0  0
    2.3174   -0.8701   -1.3750 C   0  0  0  0  0  0  0  0  0  0  0  0
    2.2304   -2.1292   -0.7507 C   0  0  0  0  0  0  0  0  0  0  0  0
    1.4989   -2.2911    0.0524 H   0  0  0  0  0  0  0  0  0  0  0  0
    3.0691   -3.1746   -1.1569 C   0  0  0  0  0  0  0  0  0  0  0  0
    2.9801   -4.1582   -0.6707 H   0  0  0  0  0  0  0  0  0  0  0  0
    4.0026   -2.9640   -2.1849 C   0  0  0  0  0  0  0  0  0  0  0  0
    4.6614   -3.7844   -2.5078 H   0  0  0  0  0  0  0  0  0  0  0  0
    4.0924   -1.7068   -2.8040 C   0  0  0  0  0  0  0  0  0  0  0  0
    4.8214   -1.5407   -3.6115 H   0  0  0  0  0  0  0  0  0  0  0  0
    3.2494   -0.6580   -2.4063 C   0  0  0  0  0  0  0  0  0  0  0  0
    3.3194    0.3227   -2.8981 H   0  0  0  0  0  0  0  0  0  0  0  0
    1.7360    2.0401   -1.3751 C   0  0  0  0  0  0  0  0  0  0  0  0
    1.6398    2.3717   -2.7446 C   0  0  0  0  0  0  0  0  0  0  0  0
    1.2153    1.6368   -3.4479 H   0  0  0  0  0  0  0  0  0  0  0  0
    2.0433    3.6406   -3.1852 C   0  0  0  0  0  0  0  0  0  0  0  0
    1.9629    3.8919   -4.2536 H   0  0  0  0  0  0  0  0  0  0  0  0
    2.5309    4.5892   -2.2718 C   0  0  0  0  0  0  0  0  0  0  0  0
    2.8430    5.5847   -2.6226 H   0  0  0  0  0  0  0  0  0  0  0  0
    2.6077    4.2677   -0.9075 C   0  0  0  0  0  0  0  0  0  0  0  0
    2.9798    5.0085   -0.1834 H   0  0  0  0  0  0  0  0  0  0  0  0
    2.2101    3.0001   -0.4561 C   0  0  0  0  0  0  0  0  0  0  0  0
    2.2540    2.7618    0.6153 H   0  0  0  0  0  0  0  0  0  0  0  0
    2.5679    0.4099    1.6741 C   0  0  0  0  0  0  0  0  0  0  0  0
    3.8598    0.4910    1.1064 C   0  0  0  0  0  0  0  0  0  0  0  0
    3.9824    0.5682    0.0189 H   0  0  0  0  0  0  0  0  0  0  0  0
    4.9993    0.4632    1.9214 C   0  0  0  0  0  0  0  0  0  0  0  0
    6.0058    0.5202    1.4829 H   0  0  0  0  0  0  0  0  0  0  0  0
    4.8605    0.3586    3.3092 C   0  0  0  0  0  0  0  0  0  0  0  0
    3.5929    0.2903    3.8994 C   0  0  0  0  0  0  0  0  0  0  0  0
    3.5080    0.2215    4.9933 H   0  0  0  0  0  0  0  0  0  0  0  0
    2.4568    0.3191    3.0826 C   0  0  0  0  0  0  0  0  0  0  0  0
    1.4565    0.2915    3.5417 H   0  0  0  0  0  0  0  0  0  0  0  0
  1  3  1  0  0  0  0
  3  4  1  0  0  0  0
  3 27  1  0  0  0  0
  5  1  1  0  0  0  0
  5  6  1  0  0  0  0
  6  7  1  0  0  0  0
  8  6  2  0  0  0  0
  8  9  1  0  0  0  0
 10  8  1  0  0  0  0
 11 10  1  0  0  0  0
 12 14  1  0  0  0  0
 12 10  2  0  0  0  0
 13 12  1  0  0  0  0
 14  5  2  0  0  0  0
 15 14  1  0  0  0  0
 16  1  1  0  0  0  0
 16 25  1  0  0  0  0
 17 16  2  0  0  0  0
 18 17  1  0  0  0  0
 19 17  1  0  0  0  0
 19 21  2  0  0  0  0
 20 19  1  0  0  0  0
 21 23  1  0  0  0  0
 22 21  1  0  0  0  0
 23 25  2  0  0  0  0
 23 24  1  0  0  0  0
 25 26  1  0  0  0  0
 27 35  1  0  0  0  0
 28 27  2  0  0  0  0
 28 30  1  0  0  0  0
 29 28  1  0  0  0  0
 30 32  2  0  0  0  0
 31 30  1  0  0  0  0
 32 33  1  0  0  0  0
 32  2  1  0  0  0  0
 33 34  1  0  0  0  0
 35 36  1  0  0  0  0
 35 33  2  0  0  0  0
M  END
