1
 OpenBabel05122313063D

 36 38  0  0  0  0  0  0  0  0999 V2000
    1.7569   -0.0431   -0.3021 P   0  0  0  0  0  0  0  0  0  0  0  0
    4.7375    2.8375    0.9479 F   0  0  0  0  0  0  0  0  0  0  0  0
    3.1440    0.9139   -0.0682 N   0  0  0  0  0  0  0  0  0  0  0  0
    2.9860    1.9050   -0.3322 H   0  0  0  0  0  0  0  0  0  0  0  0
    1.6540   -1.0054    1.2569 C   0  0  0  0  0  0  0  0  0  0  0  0
    1.1363   -0.3051    2.3669 C   0  0  0  0  0  0  0  0  0  0  0  0
    0.8093    0.7383    2.2442 H   0  0  0  0  0  0  0  0  0  0  0  0
    1.0229   -0.9368    3.6124 C   0  0  0  0  0  0  0  0  0  0  0  0
    0.5939   -0.3864    4.4629 H   0  0  0  0  0  0  0  0  0  0  0  0
    1.4452   -2.2686    3.7633 C   0  0  0  0  0  0  0  0  0  0  0  0
    1.3536   -2.7684    4.7396 H   0  0  0  0  0  0  0  0  0  0  0  0
    1.9948   -2.9578    2.6702 C   0  0  0  0  0  0  0  0  0  0  0  0
    2.3431   -3.9949    2.7896 H   0  0  0  0  0  0  0  0  0  0  0  0
    2.1006   -2.3309    1.4193 C   0  0  0  0  0  0  0  0  0  0  0  0
    2.5188   -2.8848    0.5673 H   0  0  0  0  0  0  0  0  0  0  0  0
    2.1475   -1.1850   -1.6779 C   0  0  0  0  0  0  0  0  0  0  0  0
    3.0135   -0.7066   -2.6841 C   0  0  0  0  0  0  0  0  0  0  0  0
    3.4616    0.2930   -2.5801 H   0  0  0  0  0  0  0  0  0  0  0  0
    3.2807   -1.4969   -3.8097 C   0  0  0  0  0  0  0  0  0  0  0  0
    3.9575   -1.1188   -4.5906 H   0  0  0  0  0  0  0  0  0  0  0  0
    2.6843   -2.7618   -3.9440 C   0  0  0  0  0  0  0  0  0  0  0  0
    2.8970   -3.3800   -4.8294 H   0  0  0  0  0  0  0  0  0  0  0  0
    1.8108   -3.2319   -2.9512 C   0  0  0  0  0  0  0  0  0  0  0  0
    1.3302   -4.2168   -3.0530 H   0  0  0  0  0  0  0  0  0  0  0  0
    1.5356   -2.4466   -1.8221 C   0  0  0  0  0  0  0  0  0  0  0  0
    0.8421   -2.8212   -1.0589 H   0  0  0  0  0  0  0  0  0  0  0  0
    4.3979    0.5542    0.4225 C   0  0  0  0  0  0  0  0  0  0  0  0
    5.2212    1.5764    0.9569 C   0  0  0  0  0  0  0  0  0  0  0  0
    6.4901    1.3200    1.4712 C   0  0  0  0  0  0  0  0  0  0  0  0
    7.0750    2.1613    1.8701 H   0  0  0  0  0  0  0  0  0  0  0  0
    6.9805    0.0024    1.4739 C   0  0  0  0  0  0  0  0  0  0  0  0
    7.9789   -0.2095    1.8830 H   0  0  0  0  0  0  0  0  0  0  0  0
    6.1913   -1.0282    0.9437 C   0  0  0  0  0  0  0  0  0  0  0  0
    6.5704   -2.0608    0.9258 H   0  0  0  0  0  0  0  0  0  0  0  0
    4.9200   -0.7569    0.4147 C   0  0  0  0  0  0  0  0  0  0  0  0
    4.3305   -1.5645   -0.0372 H   0  0  0  0  0  0  0  0  0  0  0  0
  1  3  1  0  0  0  0
  1  5  1  0  0  0  0
  2 28  1  0  0  0  0
  3 27  1  0  0  0  0
  4  3  1  0  0  0  0
  5 14  2  0  0  0  0
  5  6  1  0  0  0  0
  6  8  2  0  0  0  0
  7  6  1  0  0  0  0
  8 10  1  0  0  0  0
  8  9  1  0  0  0  0
 10 11  1  0  0  0  0
 12 13  1  0  0  0  0
 12 10  2  0  0  0  0
 14 12  1  0  0  0  0
 15 14  1  0  0  0  0
 16  1  1  0  0  0  0
 17 18  1  0  0  0  0
 17 16  2  0  0  0  0
 19 17  1  0  0  0  0
 20 19  1  0  0  0  0
 21 19  2  0  0  0  0
 21 23  1  0  0  0  0
 22 21  1  0  0  0  0
 23 25  2  0  0  0  0
 24 23  1  0  0  0  0
 25 16  1  0  0  0  0
 25 26  1  0  0  0  0
 27 28  1  0  0  0  0
 28 29  2  0  0  0  0
 29 31  1  0  0  0  0
 29 30  1  0  0  0  0
 31 32  1  0  0  0  0
 33 31  2  0  0  0  0
 34 33  1  0  0  0  0
 35 27  2  0  0  0  0
 35 33  1  0  0  0  0
 36 35  1  0  0  0  0
M  END
