1
 OpenBabel05122313063D

 60 60  0  0  0  0  0  0  0  0999 V2000
   -0.1573    0.7030   -0.8469 P   0  0  0  0  0  2  0  0  0  0  0  0
    0.5712    2.2494   -0.1089 C   0  0  0  0  0  0  0  0  0  0  0  0
    1.8879    1.9940    0.1998 C   0  0  0  0  0  0  0  0  0  0  0  0
    1.8938    0.2221   -0.0659 P   0  0  0  0  0  4  0  0  0  0  0  0
   -0.1467    3.5825   -0.0091 C   0  0  0  0  0  0  0  0  0  0  0  0
   -1.0086    3.7976   -1.2702 C   0  0  0  0  0  0  0  0  0  0  0  0
   -1.0492    3.5330    1.2474 C   0  0  0  0  0  0  0  0  0  0  0  0
    0.8588    4.7390    0.1350 C   0  0  0  0  0  0  0  0  0  0  0  0
    2.2917   -0.5553    1.3850 N   0  0  0  0  0  0  0  0  0  0  0  0
    2.0393   -2.0193    1.4672 C   0  0  0  0  0  0  0  0  0  0  0  0
    3.3199   -2.8079    1.7729 C   0  0  0  0  0  0  0  0  0  0  0  0
    0.9296   -2.3670    2.4651 C   0  0  0  0  0  0  0  0  0  0  0  0
    2.7149    0.1200    2.6427 C   0  0  0  0  0  0  0  0  0  0  0  0
    1.6607    1.0380    3.2703 C   0  0  0  0  0  0  0  0  0  0  0  0
    4.0854    0.7962    2.5123 C   0  0  0  0  0  0  0  0  0  0  0  0
    2.9059   -0.4644   -1.2464 N   0  0  0  0  0  0  0  0  0  0  0  0
    2.4942   -0.6494   -2.6676 C   0  0  0  0  0  0  0  0  0  0  0  0
    2.2014    0.6577   -3.4176 C   0  0  0  0  0  0  0  0  0  0  0  0
    1.3667   -1.6783   -2.8072 C   0  0  0  0  0  0  0  0  0  0  0  0
    4.3587   -0.5260   -0.9515 C   0  0  0  0  0  0  0  0  0  0  0  0
    5.1312    0.6871   -1.4885 C   0  0  0  0  0  0  0  0  0  0  0  0
    4.9923   -1.8472   -1.4079 C   0  0  0  0  0  0  0  0  0  0  0  0
    2.6828    2.7054    0.4620 H   0  0  0  0  0  0  0  0  0  0  0  0
   -1.5770    4.7466   -1.1899 H   0  0  0  0  0  0  0  0  0  0  0  0
   -1.7406    2.9772   -1.4055 H   0  0  0  0  0  0  0  0  0  0  0  0
   -0.3778    3.8438   -2.1806 H   0  0  0  0  0  0  0  0  0  0  0  0
   -1.6120    4.4838    1.3448 H   0  0  0  0  0  0  0  0  0  0  0  0
   -0.4458    3.3898    2.1659 H   0  0  0  0  0  0  0  0  0  0  0  0
   -1.7773    2.7037    1.1885 H   0  0  0  0  0  0  0  0  0  0  0  0
    1.5520    4.7822   -0.7293 H   0  0  0  0  0  0  0  0  0  0  0  0
    1.4623    4.6422    1.0602 H   0  0  0  0  0  0  0  0  0  0  0  0
    0.3193    5.7059    0.1901 H   0  0  0  0  0  0  0  0  0  0  0  0
    1.6931   -2.3185    0.4554 H   0  0  0  0  0  0  0  0  0  0  0  0
    3.1105   -3.8954    1.7340 H   0  0  0  0  0  0  0  0  0  0  0  0
    3.7016   -2.5871    2.7911 H   0  0  0  0  0  0  0  0  0  0  0  0
    4.1251   -2.5878    1.0485 H   0  0  0  0  0  0  0  0  0  0  0  0
    0.6888   -3.4460    2.4012 H   0  0  0  0  0  0  0  0  0  0  0  0
    0.0076   -1.7992    2.2499 H   0  0  0  0  0  0  0  0  0  0  0  0
    1.2355   -2.1514    3.5091 H   0  0  0  0  0  0  0  0  0  0  0  0
    2.8530   -0.7225    3.3510 H   0  0  0  0  0  0  0  0  0  0  0  0
    1.9901    1.3468    4.2832 H   0  0  0  0  0  0  0  0  0  0  0  0
    0.6851    0.5279    3.3660 H   0  0  0  0  0  0  0  0  0  0  0  0
    1.5065    1.9515    2.6657 H   0  0  0  0  0  0  0  0  0  0  0  0
    4.3926    1.2258    3.4869 H   0  0  0  0  0  0  0  0  0  0  0  0
    4.0721    1.6247    1.7775 H   0  0  0  0  0  0  0  0  0  0  0  0
    4.8634    0.0707    2.2021 H   0  0  0  0  0  0  0  0  0  0  0  0
    3.3903   -1.1001   -3.1398 H   0  0  0  0  0  0  0  0  0  0  0  0
    2.0351    0.4470   -4.4935 H   0  0  0  0  0  0  0  0  0  0  0  0
    3.0436    1.3706   -3.3328 H   0  0  0  0  0  0  0  0  0  0  0  0
    1.2848    1.1364   -3.0163 H   0  0  0  0  0  0  0  0  0  0  0  0
    1.1964   -1.9116   -3.8773 H   0  0  0  0  0  0  0  0  0  0  0  0
    0.4094   -1.2929   -2.4030 H   0  0  0  0  0  0  0  0  0  0  0  0
    1.6166   -2.6200   -2.2802 H   0  0  0  0  0  0  0  0  0  0  0  0
    4.4209   -0.5019    0.1545 H   0  0  0  0  0  0  0  0  0  0  0  0
    5.1481    0.7005   -2.5973 H   0  0  0  0  0  0  0  0  0  0  0  0
    6.1837    0.6601   -1.1398 H   0  0  0  0  0  0  0  0  0  0  0  0
    4.6756    1.6358   -1.1415 H   0  0  0  0  0  0  0  0  0  0  0  0
    5.9969   -1.9578   -0.9530 H   0  0  0  0  0  0  0  0  0  0  0  0
    5.1298   -1.8916   -2.5073 H   0  0  0  0  0  0  0  0  0  0  0  0
    4.3755   -2.7149   -1.1043 H   0  0  0  0  0  0  0  0  0  0  0  0
  1  2  1  0  0  0  0
  1  4  1  0  0  0  0
  2  5  1  0  0  0  0
  2  3  2  0  0  0  0
  3 23  1  0  0  0  0
  4  3  1  0  0  0  0
  4  9  1  0  0  0  0
  5  8  1  0  0  0  0
  5  7  1  0  0  0  0
  6 24  1  0  0  0  0
  6  5  1  0  0  0  0
  7 27  1  0  0  0  0
  7 28  1  0  0  0  0
  8 32  1  0  0  0  0
  8 31  1  0  0  0  0
  9 10  1  0  0  0  0
  9 13  1  0  0  0  0
 10 11  1  0  0  0  0
 10 12  1  0  0  0  0
 11 35  1  0  0  0  0
 12 39  1  0  0  0  0
 13 14  1  0  0  0  0
 13 40  1  0  0  0  0
 14 42  1  0  0  0  0
 14 41  1  0  0  0  0
 15 13  1  0  0  0  0
 15 44  1  0  0  0  0
 16 20  1  0  0  0  0
 16  4  1  0  0  0  0
 17 16  1  0  0  0  0
 18 49  1  0  0  0  0
 18 50  1  0  0  0  0
 18 17  1  0  0  0  0
 19 17  1  0  0  0  0
 19 52  1  0  0  0  0
 19 53  1  0  0  0  0
 20 54  1  0  0  0  0
 21 57  1  0  0  0  0
 21 56  1  0  0  0  0
 21 20  1  0  0  0  0
 22 60  1  0  0  0  0
 22 58  1  0  0  0  0
 22 20  1  0  0  0  0
 25  6  1  0  0  0  0
 26  6  1  0  0  0  0
 29  7  1  0  0  0  0
 30  8  1  0  0  0  0
 33 10  1  0  0  0  0
 34 11  1  0  0  0  0
 36 11  1  0  0  0  0
 37 12  1  0  0  0  0
 38 12  1  0  0  0  0
 43 14  1  0  0  0  0
 45 15  1  0  0  0  0
 46 15  1  0  0  0  0
 47 17  1  0  0  0  0
 48 18  1  0  0  0  0
 51 19  1  0  0  0  0
 55 21  1  0  0  0  0
 59 22  1  0  0  0  0
M  END
