1
 OpenBabel05122313063D

 18 19  0  0  1  0  0  0  0  0999 V2000
   -1.1558    1.0825   -0.0181 P   0  0  2  0  0  0  0  0  0  0  0  0
   -0.9793    3.1698   -0.0121 Cl  0  0  0  0  0  0  0  0  0  0  0  0
   -2.8254    0.8040   -0.7761 C   0  0  2  0  0  0  0  0  0  0  0  0
   -3.2292    1.7179   -1.2432 H   0  0  0  0  0  0  0  0  0  0  0  0
   -2.8109    0.8143    0.7609 C   0  0  1  0  0  0  0  0  0  0  0  0
   -3.1856    1.7474    1.2163 H   0  0  0  0  0  0  0  0  0  0  0  0
   -3.1585   -0.4516    1.5331 C   0  0  0  0  0  0  0  0  0  0  0  0
   -2.5445   -0.5181    2.4545 H   0  0  0  0  0  0  0  0  0  0  0  0
   -4.2141   -0.3446    1.8694 H   0  0  0  0  0  0  0  0  0  0  0  0
   -3.0927   -0.5066   -1.5238 C   0  0  0  0  0  0  0  0  0  0  0  0
   -3.7180   -0.2843   -2.4114 H   0  0  0  0  0  0  0  0  0  0  0  0
   -2.1408   -0.9142   -1.9233 H   0  0  0  0  0  0  0  0  0  0  0  0
   -3.0444   -1.7332    0.6966 C   0  0  0  0  0  0  0  0  0  0  0  0
   -1.9762   -1.9838    0.5189 H   0  0  0  0  0  0  0  0  0  0  0  0
   -3.4658   -2.5827    1.2710 H   0  0  0  0  0  0  0  0  0  0  0  0
   -3.7618   -1.5777   -0.6482 C   0  0  0  0  0  0  0  0  0  0  0  0
   -4.8253   -1.3059   -0.4642 H   0  0  0  0  0  0  0  0  0  0  0  0
   -3.7728   -2.5413   -1.1968 H   0  0  0  0  0  0  0  0  0  0  0  0
  1  2  1  6  0  0  0
  1  5  1  0  0  0  0
  3  4  1  6  0  0  0
  3  1  1  0  0  0  0
  3  5  1  0  0  0  0
  5  6  1  1  0  0  0
  5  7  1  0  0  0  0
  7  9  1  0  0  0  0
  7  8  1  0  0  0  0
 10  3  1  0  0  0  0
 10 16  1  0  0  0  0
 11 10  1  0  0  0  0
 12 10  1  0  0  0  0
 13 15  1  0  0  0  0
 13  7  1  0  0  0  0
 14 13  1  0  0  0  0
 16 17  1  0  0  0  0
 16 13  1  0  0  0  0
 18 16  1  0  0  0  0
M  END
