1
 OpenBabel05122313063D

 56 58  0  0  0  0  0  0  0  0999 V2000
   -1.0198   -0.5366    0.0807 P   0  0  0  0  0  0  0  0  0  0  0  0
    4.0993    3.3963    0.2158 N   0  0  0  0  0  0  0  0  0  0  0  0
    5.3191   -1.7252   -0.3501 N   0  0  0  0  0  0  0  0  0  0  0  0
    0.7621   -0.1223   -0.0340 C   0  0  0  0  0  0  0  0  0  0  0  0
    1.1810    1.1371    0.4367 C   0  0  0  0  0  0  0  0  0  0  0  0
    0.4323    1.8608    0.7998 H   0  0  0  0  0  0  0  0  0  0  0  0
    2.5445    1.4775    0.4347 C   0  0  0  0  0  0  0  0  0  0  0  0
    3.4776    0.5520   -0.0680 C   0  0  0  0  0  0  0  0  0  0  0  0
    4.5448    0.8201   -0.0823 H   0  0  0  0  0  0  0  0  0  0  0  0
    3.0723   -0.7014   -0.5605 C   0  0  0  0  0  0  0  0  0  0  0  0
    1.7070   -1.0385   -0.5332 C   0  0  0  0  0  0  0  0  0  0  0  0
    1.3813   -2.0209   -0.9098 H   0  0  0  0  0  0  0  0  0  0  0  0
    3.0133    2.8109    0.9853 C   0  0  0  0  0  0  0  0  0  0  0  0
    2.1307    3.5002    1.0834 H   0  0  0  0  0  0  0  0  0  0  0  0
    3.3863    2.6474    2.0212 H   0  0  0  0  0  0  0  0  0  0  0  0
    4.7844    4.4532    0.9345 C   0  0  0  0  0  0  0  0  0  0  0  0
    4.1354    5.3457    1.1461 H   0  0  0  0  0  0  0  0  0  0  0  0
    5.6549    4.8073    0.3454 H   0  0  0  0  0  0  0  0  0  0  0  0
    5.1613    4.0727    1.9059 H   0  0  0  0  0  0  0  0  0  0  0  0
    3.6758    3.8172   -1.1089 C   0  0  0  0  0  0  0  0  0  0  0  0
    3.2121    2.9682   -1.6496 H   0  0  0  0  0  0  0  0  0  0  0  0
    4.5524    4.1588   -1.6958 H   0  0  0  0  0  0  0  0  0  0  0  0
    2.9287    4.6554   -1.0859 H   0  0  0  0  0  0  0  0  0  0  0  0
    4.0975   -1.6592   -1.1364 C   0  0  0  0  0  0  0  0  0  0  0  0
    3.6213   -2.6685   -1.2794 H   0  0  0  0  0  0  0  0  0  0  0  0
    4.3739   -1.3074   -2.1553 H   0  0  0  0  0  0  0  0  0  0  0  0
    5.1076   -2.3162    0.9585 C   0  0  0  0  0  0  0  0  0  0  0  0
    4.3148   -1.7644    1.5024 H   0  0  0  0  0  0  0  0  0  0  0  0
    6.0385   -2.2545    1.5577 H   0  0  0  0  0  0  0  0  0  0  0  0
    4.8019   -3.3969    0.9099 H   0  0  0  0  0  0  0  0  0  0  0  0
    6.4113   -2.3524   -1.0679 C   0  0  0  0  0  0  0  0  0  0  0  0
    6.2275   -3.4351   -1.3074 H   0  0  0  0  0  0  0  0  0  0  0  0
    7.3407   -2.2979   -0.4652 H   0  0  0  0  0  0  0  0  0  0  0  0
    6.5931   -1.8222   -2.0251 H   0  0  0  0  0  0  0  0  0  0  0  0
   -1.2597   -1.9170   -1.1062 C   0  0  0  0  0  0  0  0  0  0  0  0
   -1.1418   -3.2663   -0.7184 C   0  0  0  0  0  0  0  0  0  0  0  0
   -0.9388   -3.5211    0.3328 H   0  0  0  0  0  0  0  0  0  0  0  0
   -1.2919   -4.2840   -1.6734 C   0  0  0  0  0  0  0  0  0  0  0  0
   -1.2035   -5.3371   -1.3660 H   0  0  0  0  0  0  0  0  0  0  0  0
   -1.5587   -3.9611   -3.0131 C   0  0  0  0  0  0  0  0  0  0  0  0
   -1.6797   -4.7617   -3.7586 H   0  0  0  0  0  0  0  0  0  0  0  0
   -1.6829   -2.6163   -3.4000 C   0  0  0  0  0  0  0  0  0  0  0  0
   -1.9033   -2.3600   -4.4472 H   0  0  0  0  0  0  0  0  0  0  0  0
   -1.5394   -1.5953   -2.4506 C   0  0  0  0  0  0  0  0  0  0  0  0
   -1.6548   -0.5397   -2.7442 H   0  0  0  0  0  0  0  0  0  0  0  0
   -1.2178   -1.3071    1.7360 C   0  0  0  0  0  0  0  0  0  0  0  0
   -0.1210   -1.8206    2.4561 C   0  0  0  0  0  0  0  0  0  0  0  0
    0.8956   -1.7356    2.0430 H   0  0  0  0  0  0  0  0  0  0  0  0
   -0.3277   -2.4322    3.7025 C   0  0  0  0  0  0  0  0  0  0  0  0
    0.5318   -2.8282    4.2644 H   0  0  0  0  0  0  0  0  0  0  0  0
   -1.6234   -2.5339    4.2329 C   0  0  0  0  0  0  0  0  0  0  0  0
   -1.7814   -3.0105    5.2122 H   0  0  0  0  0  0  0  0  0  0  0  0
   -2.7172   -2.0171    3.5186 C   0  0  0  0  0  0  0  0  0  0  0  0
   -3.7329   -2.0852    3.9364 H   0  0  0  0  0  0  0  0  0  0  0  0
   -2.5173   -1.4002    2.2760 C   0  0  0  0  0  0  0  0  0  0  0  0
   -3.3687   -0.9753    1.7205 H   0  0  0  0  0  0  0  0  0  0  0  0
  1 46  1  0  0  0  0
  2 16  1  0  0  0  0
  2 13  1  0  0  0  0
  3 27  1  0  0  0  0
  4  1  1  0  0  0  0
  4  5  1  0  0  0  0
  5  6  1  0  0  0  0
  7  5  2  0  0  0  0
  7 13  1  0  0  0  0
  8  7  1  0  0  0  0
  9  8  1  0  0  0  0
 10 11  1  0  0  0  0
 10  8  2  0  0  0  0
 11  4  2  0  0  0  0
 12 11  1  0  0  0  0
 13 14  1  0  0  0  0
 13 15  1  0  0  0  0
 16 17  1  0  0  0  0
 16 19  1  0  0  0  0
 18 16  1  0  0  0  0
 20 23  1  0  0  0  0
 20  2  1  0  0  0  0
 21 20  1  0  0  0  0
 22 20  1  0  0  0  0
 24 10  1  0  0  0  0
 24  3  1  0  0  0  0
 25 24  1  0  0  0  0
 26 24  1  0  0  0  0
 27 28  1  0  0  0  0
 27 29  1  0  0  0  0
 30 27  1  0  0  0  0
 31 33  1  0  0  0  0
 31  3  1  0  0  0  0
 32 31  1  0  0  0  0
 34 31  1  0  0  0  0
 35 36  1  0  0  0  0
 35  1  1  0  0  0  0
 36 37  1  0  0  0  0
 38 39  1  0  0  0  0
 38 36  2  0  0  0  0
 40 38  1  0  0  0  0
 41 40  1  0  0  0  0
 42 40  2  0  0  0  0
 42 44  1  0  0  0  0
 43 42  1  0  0  0  0
 44 35  2  0  0  0  0
 45 44  1  0  0  0  0
 46 55  2  0  0  0  0
 46 47  1  0  0  0  0
 47 49  2  0  0  0  0
 48 47  1  0  0  0  0
 49 51  1  0  0  0  0
 49 50  1  0  0  0  0
 51 52  1  0  0  0  0
 53 54  1  0  0  0  0
 53 51  2  0  0  0  0
 55 53  1  0  0  0  0
 56 55  1  0  0  0  0
M  END
