1
 OpenBabel05122313063D

 20 19  0  0  0  0  0  0  0  0999 V2000
    0.4069    1.7776   -0.0976 P   0  0  0  0  0  0  0  0  0  0  0  0
    2.3040    0.7287   -1.6858 F   0  0  0  0  0  0  0  0  0  0  0  0
    4.4994    1.3863   -0.3201 F   0  0  0  0  0  0  0  0  0  0  0  0
    3.3739    2.3843    1.2715 F   0  0  0  0  0  0  0  0  0  0  0  0
    0.0006    2.9747   -1.4569 C   0  0  0  0  0  0  0  0  0  0  0  0
   -0.9301    3.4675   -1.1086 H   0  0  0  0  0  0  0  0  0  0  0  0
    0.8187    3.7258   -1.4754 H   0  0  0  0  0  0  0  0  0  0  0  0
   -0.2221    2.3166   -2.8180 C   0  0  0  0  0  0  0  0  0  0  0  0
    0.6850    1.7994   -3.1844 H   0  0  0  0  0  0  0  0  0  0  0  0
   -0.5103    3.0813   -3.5666 H   0  0  0  0  0  0  0  0  0  0  0  0
   -1.0437    1.5752   -2.7525 H   0  0  0  0  0  0  0  0  0  0  0  0
    0.4326    2.7934    1.4426 C   0  0  0  0  0  0  0  0  0  0  0  0
    1.1928    3.5935    1.3352 H   0  0  0  0  0  0  0  0  0  0  0  0
   -0.5730    3.2648    1.4149 H   0  0  0  0  0  0  0  0  0  0  0  0
    0.6020    1.9782    2.7243 C   0  0  0  0  0  0  0  0  0  0  0  0
   -0.1892    1.2053    2.7949 H   0  0  0  0  0  0  0  0  0  0  0  0
    0.5188    2.6403    3.6089 H   0  0  0  0  0  0  0  0  0  0  0  0
    1.5828    1.4692    2.7677 H   0  0  0  0  0  0  0  0  0  0  0  0
    2.1584    1.4098   -0.5135 C   0  0  0  0  0  0  0  0  0  0  0  0
    3.3040    1.7257    0.1273 C   0  0  0  0  0  0  0  0  0  0  0  0
  1 12  1  0  0  0  0
  2 19  1  0  0  0  0
  3 20  1  0  0  0  0
  5  6  1  0  0  0  0
  5  1  1  0  0  0  0
  7  5  1  0  0  0  0
  8 11  1  0  0  0  0
  8  5  1  0  0  0  0
  9  8  1  0  0  0  0
 10  8  1  0  0  0  0
 12 15  1  0  0  0  0
 13 12  1  0  0  0  0
 14 12  1  0  0  0  0
 15 18  1  0  0  0  0
 15 16  1  0  0  0  0
 15 17  1  0  0  0  0
 19  1  1  0  0  0  0
 19 20  2  0  0  0  0
 20  4  1  0  0  0  0
M  END
