1
 OpenBabel05122313063D

 71 75  0  0  0  0  0  0  0  0999 V2000
   -0.1262    0.0966   -0.3102 P   0  0  0  0  0  2  0  0  0  0  0  0
    0.2823    0.9752    2.3638 O   0  0  0  0  0  0  0  0  0  0  0  0
   -0.4251    1.7570   -0.5971 C   0  0  0  0  0  0  0  0  0  0  0  0
    0.4974    2.8991   -0.4171 C   0  0  0  0  0  0  0  0  0  0  0  0
    1.8328    2.9875    0.0222 C   0  0  0  0  0  0  0  0  0  0  0  0
    2.4426    4.2482    0.1264 C   0  0  0  0  0  0  0  0  0  0  0  0
    1.7396    5.4256   -0.1894 C   0  0  0  0  0  0  0  0  0  0  0  0
    0.4008    5.3583   -0.6079 C   0  0  0  0  0  3  0  0  0  0  0  0
   -0.2158    4.1050   -0.7190 C   0  0  0  0  0  0  0  0  0  0  0  0
   -1.5837    3.7529   -1.0993 C   0  0  0  0  0  0  0  0  0  0  0  0
   -2.6635    4.5595   -1.4816 C   0  0  0  0  0  0  0  0  0  0  0  0
   -3.8886    3.9519   -1.8047 C   0  0  0  0  0  0  0  0  0  0  0  0
   -4.0223    2.5519   -1.7546 C   0  0  0  0  0  0  0  0  0  0  0  0
   -2.9430    1.7386   -1.3744 C   0  0  0  0  0  0  0  0  0  0  0  0
   -1.7163    2.3301   -1.0288 C   0  0  0  0  0  0  0  0  0  0  0  0
    1.6753   -0.1562   -0.0051 C   0  0  0  0  0  0  0  0  0  0  0  0
    2.6830   -0.2397   -1.0132 C   0  0  0  0  0  0  0  0  0  0  0  0
    4.0120   -0.4216   -0.5698 C   0  0  0  0  0  0  0  0  0  0  0  0
    4.4039   -0.5415    0.7714 C   0  0  0  0  0  0  0  0  0  0  0  0
    3.3853   -0.4789    1.7350 C   0  0  0  0  0  0  0  0  0  0  0  0
    2.0465   -0.2952    1.3669 C   0  0  0  0  0  0  0  0  0  0  0  0
    2.5370   -0.1126   -2.5571 C   0  0  0  0  0  0  0  0  0  0  0  0
    3.1931   -1.3498   -3.2229 C   0  0  0  0  0  0  0  0  0  0  0  0
    3.2735    1.1747   -3.0039 C   0  0  0  0  0  0  0  0  0  0  0  0
    1.1042   -0.0314   -3.1092 C   0  0  0  0  0  0  0  0  0  0  0  0
    5.8893   -0.7174    1.1256 C   0  0  0  0  0  0  0  0  0  0  0  0
    6.4223   -2.0013    0.4495 C   0  0  0  0  0  0  0  0  0  0  0  0
    6.6778    0.5077    0.6089 C   0  0  0  0  0  0  0  0  0  0  0  0
    6.1098   -0.8367    2.6432 C   0  0  0  0  0  0  0  0  0  0  0  0
    1.0172   -0.2391    2.4718 C   0  0  0  0  0  0  0  0  0  0  0  0
   -0.9780    1.0535    2.8927 C   0  0  0  0  0  0  0  0  0  0  0  0
   -1.5502    0.0759    3.7295 C   0  0  0  0  0  0  0  0  0  0  0  0
   -2.8686    0.2486    4.1854 C   0  0  0  0  0  0  0  0  0  0  0  0
   -3.6150    1.3762    3.8182 C   0  0  0  0  0  0  0  0  0  0  0  0
   -3.0288    2.3516    2.9920 C   0  0  0  0  0  0  0  0  0  0  0  0
   -1.7170    2.1997    2.5329 C   0  0  0  0  0  0  0  0  0  0  0  0
    2.4017    2.0921    0.2922 H   0  0  0  0  0  0  0  0  0  0  0  0
    3.4873    4.3107    0.4665 H   0  0  0  0  0  0  0  0  0  0  0  0
    2.2379    6.4028   -0.0996 H   0  0  0  0  0  0  0  0  0  0  0  0
   -0.1586    6.2772   -0.8407 H   0  0  0  0  0  0  0  0  0  0  0  0
   -2.5533    5.6536   -1.5310 H   0  0  0  0  0  0  0  0  0  0  0  0
   -4.7459    4.5731   -2.1049 H   0  0  0  0  0  0  0  0  0  0  0  0
   -4.9826    2.0839   -2.0174 H   0  0  0  0  0  0  0  0  0  0  0  0
   -3.0641    0.6503   -1.3514 H   0  0  0  0  0  0  0  0  0  0  0  0
    4.7991   -0.4618   -1.3348 H   0  0  0  0  0  0  0  0  0  0  0  0
    3.6200   -0.5574    2.8055 H   0  0  0  0  0  0  0  0  0  0  0  0
    3.1076   -1.2677   -4.3254 H   0  0  0  0  0  0  0  0  0  0  0  0
    2.6878   -2.2829   -2.9053 H   0  0  0  0  0  0  0  0  0  0  0  0
    4.2693   -1.4490   -2.9837 H   0  0  0  0  0  0  0  0  0  0  0  0
    3.2014    1.2889   -4.1049 H   0  0  0  0  0  0  0  0  0  0  0  0
    2.8213    2.0709   -2.5337 H   0  0  0  0  0  0  0  0  0  0  0  0
    4.3485    1.1563   -2.7361 H   0  0  0  0  0  0  0  0  0  0  0  0
    1.1497   -0.0697   -4.2166 H   0  0  0  0  0  0  0  0  0  0  0  0
    0.5895    0.9055   -2.8348 H   0  0  0  0  0  0  0  0  0  0  0  0
    0.4774   -0.8834   -2.7854 H   0  0  0  0  0  0  0  0  0  0  0  0
    6.3275   -1.9572   -0.6536 H   0  0  0  0  0  0  0  0  0  0  0  0
    5.8669   -2.8943    0.8003 H   0  0  0  0  0  0  0  0  0  0  0  0
    7.4958   -2.1457    0.6895 H   0  0  0  0  0  0  0  0  0  0  0  0
    6.5874    0.6232   -0.4895 H   0  0  0  0  0  0  0  0  0  0  0  0
    6.3098    1.4425    1.0784 H   0  0  0  0  0  0  0  0  0  0  0  0
    7.7559    0.4022    0.8488 H   0  0  0  0  0  0  0  0  0  0  0  0
    5.7696    0.0702    3.1827 H   0  0  0  0  0  0  0  0  0  0  0  0
    5.5804   -1.7127    3.0692 H   0  0  0  0  0  0  0  0  0  0  0  0
    7.1899   -0.9646    2.8564 H   0  0  0  0  0  0  0  0  0  0  0  0
    0.3281   -1.1041    2.3850 H   0  0  0  0  0  0  0  0  0  0  0  0
    1.5146   -0.3060    3.4647 H   0  0  0  0  0  0  0  0  0  0  0  0
   -0.9848   -0.8154    4.0327 H   0  0  0  0  0  0  0  0  0  0  0  0
   -3.3130   -0.5200    4.8360 H   0  0  0  0  0  0  0  0  0  0  0  0
   -4.6499    1.4952    4.1707 H   0  0  0  0  0  0  0  0  0  0  0  0
   -3.6030    3.2409    2.6909 H   0  0  0  0  0  0  0  0  0  0  0  0
   -1.2428    2.9498    1.8852 H   0  0  0  0  0  0  0  0  0  0  0  0
  1 16  1  0  0  0  0
  2 30  1  0  0  0  0
  2 31  1  0  0  0  0
  3  4  1  0  0  0  0
  3  1  1  0  0  0  0
  4  5  2  0  0  0  0
  5  6  1  0  0  0  0
  5 37  1  0  0  0  0
  6 38  1  0  0  0  0
  7 39  1  0  0  0  0
  7  6  2  0  0  0  0
  8  7  1  0  0  0  0
  9  8  1  0  0  0  0
  9  4  1  0  0  0  0
 10 15  1  0  0  0  0
 10  9  2  0  0  0  0
 11 10  1  0  0  0  0
 12 13  1  0  0  0  0
 12 11  2  0  0  0  0
 13 14  2  0  0  0  0
 14 44  1  0  0  0  0
 14 15  1  0  0  0  0
 15  3  2  0  0  0  0
 16 21  1  0  0  0  0
 17 18  1  0  0  0  0
 17 16  2  0  0  0  0
 18 19  2  0  0  0  0
 19 26  1  0  0  0  0
 19 20  1  0  0  0  0
 20 46  1  0  0  0  0
 21 20  2  0  0  0  0
 21 30  1  0  0  0  0
 22 17  1  0  0  0  0
 23 49  1  0  0  0  0
 23 48  1  0  0  0  0
 23 22  1  0  0  0  0
 24 52  1  0  0  0  0
 24 22  1  0  0  0  0
 24 51  1  0  0  0  0
 25 54  1  0  0  0  0
 25 55  1  0  0  0  0
 25 22  1  0  0  0  0
 26 29  1  0  0  0  0
 27 58  1  0  0  0  0
 27 57  1  0  0  0  0
 27 26  1  0  0  0  0
 28 61  1  0  0  0  0
 28 60  1  0  0  0  0
 28 26  1  0  0  0  0
 29 64  1  0  0  0  0
 29 63  1  0  0  0  0
 29 62  1  0  0  0  0
 30 66  1  0  0  0  0
 31 32  1  0  0  0  0
 32 67  1  0  0  0  0
 32 33  2  0  0  0  0
 33 68  1  0  0  0  0
 34 69  1  0  0  0  0
 34 33  1  0  0  0  0
 35 34  2  0  0  0  0
 36 31  2  0  0  0  0
 36 35  1  0  0  0  0
 40  8  1  0  0  0  0
 41 11  1  0  0  0  0
 42 12  1  0  0  0  0
 43 13  1  0  0  0  0
 45 18  1  0  0  0  0
 47 23  1  0  0  0  0
 50 24  1  0  0  0  0
 53 25  1  0  0  0  0
 56 27  1  0  0  0  0
 59 28  1  0  0  0  0
 65 30  1  0  0  0  0
 70 35  1  0  0  0  0
 71 36  1  0  0  0  0
M  END
