1
 OpenBabel05122313063D

 33 35  0  0  0  0  0  0  0  0999 V2000
    1.8531   -0.0830    0.0194 P   0  0  0  0  0  0  0  0  0  0  0  0
    1.7106   -0.1278    1.8061 N   0  0  0  0  0  0  0  0  0  0  0  0
    2.1251   -1.1369    2.6531 C   0  0  0  0  0  0  0  0  0  0  0  0
    2.4601   -2.0970    2.2506 H   0  0  0  0  0  0  0  0  0  0  0  0
    2.0088   -0.6988    3.9693 C   0  0  0  0  0  0  0  0  0  0  0  0
    2.2550   -1.2881    4.8592 H   0  0  0  0  0  0  0  0  0  0  0  0
    1.5098    0.6292    3.9359 C   0  0  0  0  0  0  0  0  0  0  0  0
    1.2845    1.2871    4.7814 H   0  0  0  0  0  0  0  0  0  0  0  0
    1.3300    0.9708    2.5905 C   0  0  0  0  0  0  0  0  0  0  0  0
    0.8746    2.1902    2.0378 C   0  0  0  0  0  0  0  0  0  0  0  0
    0.4933    3.2131    1.5975 N   0  0  0  0  0  0  0  0  0  0  0  0
    2.8500   -1.5883   -0.2711 C   0  0  0  0  0  0  0  0  0  0  0  0
    2.1795   -2.8286   -0.2962 C   0  0  0  0  0  0  0  0  0  0  0  0
    1.0954   -2.8831   -0.1168 H   0  0  0  0  0  0  0  0  0  0  0  0
    2.9058   -4.0045   -0.5281 C   0  0  0  0  0  0  0  0  0  0  0  0
    2.3793   -4.9705   -0.5328 H   0  0  0  0  0  0  0  0  0  0  0  0
    4.2890   -3.9467   -0.7627 C   0  0  0  0  0  0  0  0  0  0  0  0
    4.8543   -4.8710   -0.9565 H   0  0  0  0  0  0  0  0  0  0  0  0
    4.9489   -2.7077   -0.7632 C   0  0  0  0  0  0  0  0  0  0  0  0
    6.0294   -2.6563   -0.9648 H   0  0  0  0  0  0  0  0  0  0  0  0
    4.2348   -1.5260   -0.5178 C   0  0  0  0  0  0  0  0  0  0  0  0
    4.7517   -0.5565   -0.5394 H   0  0  0  0  0  0  0  0  0  0  0  0
    2.9601    1.3741   -0.1010 C   0  0  0  0  0  0  0  0  0  0  0  0
    2.7394    2.3665   -1.0742 C   0  0  0  0  0  0  0  0  0  0  0  0
    1.9196    2.2466   -1.7960 H   0  0  0  0  0  0  0  0  0  0  0  0
    3.5715    3.4938   -1.1171 C   0  0  0  0  0  0  0  0  0  0  0  0
    3.3910    4.2699   -1.8755 H   0  0  0  0  0  0  0  0  0  0  0  0
    4.6213    3.6360   -0.1971 C   0  0  0  0  0  0  0  0  0  0  0  0
    5.2697    4.5245   -0.2337 H   0  0  0  0  0  0  0  0  0  0  0  0
    4.8378    2.6501    0.7795 C   0  0  0  0  0  0  0  0  0  0  0  0
    5.6529    2.7622    1.5100 H   0  0  0  0  0  0  0  0  0  0  0  0
    4.0061    1.5239    0.8361 C   0  0  0  0  0  0  0  0  0  0  0  0
    4.1633    0.7677    1.6205 H   0  0  0  0  0  0  0  0  0  0  0  0
  1  2  1  0  0  0  0
  2  9  1  0  0  0  0
  2  3  1  0  0  0  0
  3  5  2  0  0  0  0
  4  3  1  0  0  0  0
  5  6  1  0  0  0  0
  7  5  1  0  0  0  0
  7  8  1  0  0  0  0
  9  7  2  0  0  0  0
 10  9  1  0  0  0  0
 11 10  3  0  0  0  0
 12  1  1  0  0  0  0
 13 12  1  0  0  0  0
 13 14  1  0  0  0  0
 15 13  2  0  0  0  0
 16 15  1  0  0  0  0
 17 15  1  0  0  0  0
 18 17  1  0  0  0  0
 19 17  2  0  0  0  0
 19 21  1  0  0  0  0
 20 19  1  0  0  0  0
 21 12  2  0  0  0  0
 22 21  1  0  0  0  0
 23  1  1  0  0  0  0
 23 32  1  0  0  0  0
 24 23  2  0  0  0  0
 25 24  1  0  0  0  0
 26 24  1  0  0  0  0
 26 28  2  0  0  0  0
 27 26  1  0  0  0  0
 28 30  1  0  0  0  0
 29 28  1  0  0  0  0
 30 32  2  0  0  0  0
 30 31  1  0  0  0  0
 32 33  1  0  0  0  0
M  END
