1
 OpenBabel05122313063D

 63 66  0  0  1  0  0  0  0  0999 V2000
   -1.2474    0.2152   -0.0086 P   0  0  2  0  0  0  0  0  0  0  0  0
    1.6658    0.7578   -1.1048 P   0  0  1  0  0  0  0  0  0  0  0  0
    3.1492   -0.0594    1.3585 P   0  0  0  0  0  2  0  0  0  0  0  0
    0.2802    0.1988    1.6183 P   0  0  2  0  0  0  0  0  0  0  0  0
   -0.3164   -1.3640   -1.2091 P   0  0  2  0  0  0  0  0  0  0  0  0
   -0.2960   -0.7480   -2.5106 H   0  0  0  0  0  0  0  0  0  0  0  0
   -1.0526   -2.6921   -1.1750 O   0  0  0  0  0  0  0  0  0  0  0  0
    0.2757    1.3226    0.1134 C   0  0  2  0  0  0  0  0  0  0  0  0
    3.1248    0.9864    0.0069 C   0  0  1  0  0  3  0  0  0  0  0  0
    1.5879   -1.0826    0.9312 C   0  0  1  0  0  0  0  0  0  0  0  0
    1.4549   -1.1231   -0.6449 C   0  0  2  0  0  0  0  0  0  0  0  0
    0.0696    2.8476    0.3488 C   0  0  0  0  0  0  0  0  0  0  0  0
    1.2408    3.4170    1.1674 C   0  0  0  0  0  0  0  0  0  0  0  0
    1.2925    2.9348    2.1645 H   0  0  0  0  0  0  0  0  0  0  0  0
    2.2122    3.2575    0.6770 H   0  0  0  0  0  0  0  0  0  0  0  0
    1.1034    4.5077    1.3134 H   0  0  0  0  0  0  0  0  0  0  0  0
   -0.0551    3.5578   -1.0118 C   0  0  0  0  0  0  0  0  0  0  0  0
   -0.9091    3.1516   -1.5907 H   0  0  0  0  0  0  0  0  0  0  0  0
   -0.2301    4.6431   -0.8662 H   0  0  0  0  0  0  0  0  0  0  0  0
    0.8592    3.4346   -1.6255 H   0  0  0  0  0  0  0  0  0  0  0  0
   -1.2050    3.1170    1.1728 C   0  0  0  0  0  0  0  0  0  0  0  0
   -1.2019    2.5555    2.1297 H   0  0  0  0  0  0  0  0  0  0  0  0
   -1.2595    4.1959    1.4206 H   0  0  0  0  0  0  0  0  0  0  0  0
   -2.1230    2.8580    0.6192 H   0  0  0  0  0  0  0  0  0  0  0  0
    4.2717    1.9639   -0.3253 C   0  0  0  0  0  0  0  0  0  0  0  0
    3.8533    3.0844   -1.3021 C   0  0  0  0  0  0  0  0  0  0  0  0
    3.4257    2.6646   -2.2350 H   0  0  0  0  0  0  0  0  0  0  0  0
    3.1094    3.7789   -0.8698 H   0  0  0  0  0  0  0  0  0  0  0  0
    4.7431    3.6857   -1.5771 H   0  0  0  0  0  0  0  0  0  0  0  0
    4.8577    2.5772    0.9650 C   0  0  0  0  0  0  0  0  0  0  0  0
    5.2340    1.7883    1.6477 H   0  0  0  0  0  0  0  0  0  0  0  0
    5.7075    3.2459    0.7190 H   0  0  0  0  0  0  0  0  0  0  0  0
    4.1008    3.1670    1.5174 H   0  0  0  0  0  0  0  0  0  0  0  0
    5.4047    1.1694   -1.0278 C   0  0  0  0  0  0  0  0  0  0  0  0
    5.0609    0.7364   -1.9883 H   0  0  0  0  0  0  0  0  0  0  0  0
    6.2509    1.8512   -1.2515 H   0  0  0  0  0  0  0  0  0  0  0  0
    5.7778    0.3483   -0.3852 H   0  0  0  0  0  0  0  0  0  0  0  0
    1.5078   -2.3526    1.8933 C   0  0  0  0  0  0  0  0  0  0  0  0
    0.2191   -3.1561    1.6511 C   0  0  0  0  0  0  0  0  0  0  0  0
   -0.6806   -2.5358    1.8348 H   0  0  0  0  0  0  0  0  0  0  0  0
    0.1256   -3.5481    0.6231 H   0  0  0  0  0  0  0  0  0  0  0  0
    0.1773   -4.0106    2.3569 H   0  0  0  0  0  0  0  0  0  0  0  0
    1.4831   -1.8796    3.3723 C   0  0  0  0  0  0  0  0  0  0  0  0
    2.3527   -1.2378    3.6248 H   0  0  0  0  0  0  0  0  0  0  0  0
    0.5613   -1.3215    3.6281 H   0  0  0  0  0  0  0  0  0  0  0  0
    1.5213   -2.7695    4.0320 H   0  0  0  0  0  0  0  0  0  0  0  0
    2.7369   -3.2823    1.7972 C   0  0  0  0  0  0  0  0  0  0  0  0
    3.6750   -2.7376    2.0316 H   0  0  0  0  0  0  0  0  0  0  0  0
    2.6308   -4.0907    2.5482 H   0  0  0  0  0  0  0  0  0  0  0  0
    2.8543   -3.7656    0.8140 H   0  0  0  0  0  0  0  0  0  0  0  0
    2.3965   -2.0484   -1.5626 C   0  0  0  0  0  0  0  0  0  0  0  0
    3.8734   -2.0440   -1.1256 C   0  0  0  0  0  0  0  0  0  0  0  0
    4.0189   -2.2841   -0.0589 H   0  0  0  0  0  0  0  0  0  0  0  0
    4.4186   -2.8068   -1.7182 H   0  0  0  0  0  0  0  0  0  0  0  0
    4.3518   -1.0709   -1.3125 H   0  0  0  0  0  0  0  0  0  0  0  0
    1.8872   -3.5105   -1.6159 C   0  0  0  0  0  0  0  0  0  0  0  0
    0.8985   -3.5896   -2.1052 H   0  0  0  0  0  0  0  0  0  0  0  0
    2.6117   -4.1180   -2.1946 H   0  0  0  0  0  0  0  0  0  0  0  0
    1.7805   -3.9730   -0.6203 H   0  0  0  0  0  0  0  0  0  0  0  0
    2.3902   -1.5476   -3.0304 C   0  0  0  0  0  0  0  0  0  0  0  0
    1.3822   -1.5638   -3.4884 H   0  0  0  0  0  0  0  0  0  0  0  0
    2.7932   -0.5202   -3.1268 H   0  0  0  0  0  0  0  0  0  0  0  0
    3.0298   -2.2207   -3.6358 H   0  0  0  0  0  0  0  0  0  0  0  0
  1  8  1  0  0  0  0
  1  4  1  0  0  0  0
  2 11  1  0  0  0  0
  2  9  1  0  0  0  0
  2  8  1  0  0  0  0
  5  7  2  0  0  0  0
  5 11  1  0  0  0  0
  5  1  1  0  0  0  0
  6  5  1  0  0  0  0
  8 12  1  0  0  0  0
  8  4  1  0  0  0  0
  9  3  1  0  0  0  0
 10  3  1  0  0  0  0
 10  4  1  0  0  0  0
 10 38  1  0  0  0  0
 11 10  1  0  0  0  0
 12 13  1  0  0  0  0
 12 21  1  0  0  0  0
 13 16  1  0  0  0  0
 13 14  1  0  0  0  0
 15 13  1  0  0  0  0
 17 19  1  0  0  0  0
 17 12  1  0  0  0  0
 18 17  1  0  0  0  0
 20 17  1  0  0  0  0
 21 23  1  0  0  0  0
 21 22  1  0  0  0  0
 24 21  1  0  0  0  0
 25  9  1  0  0  0  0
 25 30  1  0  0  0  0
 26 28  1  0  0  0  0
 26 25  1  0  0  0  0
 27 26  1  0  0  0  0
 29 26  1  0  0  0  0
 30 33  1  0  0  0  0
 30 31  1  0  0  0  0
 32 30  1  0  0  0  0
 34 37  1  0  0  0  0
 34 25  1  0  0  0  0
 35 34  1  0  0  0  0
 36 34  1  0  0  0  0
 38 43  1  0  0  0  0
 39 40  1  0  0  0  0
 39 38  1  0  0  0  0
 39 42  1  0  0  0  0
 41 39  1  0  0  0  0
 43 44  1  0  0  0  0
 43 45  1  0  0  0  0
 43 46  1  0  0  0  0
 47 38  1  0  0  0  0
 47 48  1  0  0  0  0
 47 49  1  0  0  0  0
 50 47  1  0  0  0  0
 51 52  1  0  0  0  0
 51 11  1  0  0  0  0
 52 53  1  0  0  0  0
 54 52  1  0  0  0  0
 55 52  1  0  0  0  0
 56 51  1  0  0  0  0
 56 59  1  0  0  0  0
 57 56  1  0  0  0  0
 58 56  1  0  0  0  0
 60 51  1  0  0  0  0
 61 60  1  0  0  0  0
 62 60  1  0  0  0  0
 63 60  1  0  0  0  0
M  END
