35
 OpenBabel05122313063D

 35 36  0  0  0  0  0  0  0  0999 V2000
   -3.3553   -1.0322    0.5916 C   0  0  0  0  0  0  0  0  0  0  0  0
   -4.0008   -0.4127    1.2491 H   0  0  0  0  0  0  0  0  0  0  0  0
   -3.9121   -1.2688   -0.3364 H   0  0  0  0  0  0  0  0  0  0  0  0
   -2.9581   -2.3524    1.2787 C   0  0  0  0  0  0  0  0  0  0  0  0
   -3.8979   -2.8306    1.6366 H   0  0  0  0  0  0  0  0  0  0  0  0
   -2.5131   -3.0140    0.5081 H   0  0  0  0  0  0  0  0  0  0  0  0
   -2.0170   -2.1917    2.4278 C   0  0  0  0  0  0  0  0  0  0  0  0
   -2.3254   -1.5509    3.2725 H   0  0  0  0  0  0  0  0  0  0  0  0
   -0.7835   -2.7555    2.4528 C   0  0  0  0  0  0  0  0  0  0  0  0
   -0.4472   -3.3798    1.6068 H   0  0  0  0  0  0  0  0  0  0  0  0
    0.1578   -2.5253    3.4989 C   0  0  0  0  0  0  0  0  0  0  0  0
   -2.7540    1.2316   -1.1028 C   0  0  0  0  0  0  0  0  0  0  0  0
   -2.0047    1.7133   -2.1965 C   0  0  0  0  0  0  0  0  0  0  0  0
   -0.9685    1.3650   -2.3302 H   0  0  0  0  0  0  0  0  0  0  0  0
   -2.5802    2.6048   -3.1132 C   0  0  0  0  0  0  0  0  0  0  0  0
   -1.9845    2.9714   -3.9626 H   0  0  0  0  0  0  0  0  0  0  0  0
   -3.9129    3.0158   -2.9559 C   0  0  0  0  0  0  0  0  0  0  0  0
   -4.3659    3.7111   -3.6788 H   0  0  0  0  0  0  0  0  0  0  0  0
   -4.6723    2.5254   -1.8821 C   0  0  0  0  0  0  0  0  0  0  0  0
   -5.7227    2.8314   -1.7625 H   0  0  0  0  0  0  0  0  0  0  0  0
   -4.0989    1.6363   -0.9605 C   0  0  0  0  0  0  0  0  0  0  0  0
   -4.7167    1.2498   -0.1367 H   0  0  0  0  0  0  0  0  0  0  0  0
   -1.6074    1.0307    1.6068 C   0  0  0  0  0  0  0  0  0  0  0  0
   -2.4773    2.0457    2.0534 C   0  0  0  0  0  0  0  0  0  0  0  0
   -3.3382    2.3506    1.4399 H   0  0  0  0  0  0  0  0  0  0  0  0
   -2.2376    2.6908    3.2768 C   0  0  0  0  0  0  0  0  0  0  0  0
   -2.9177    3.4881    3.6137 H   0  0  0  0  0  0  0  0  0  0  0  0
   -1.1355    2.3238    4.0662 C   0  0  0  0  0  0  0  0  0  0  0  0
   -0.9545    2.8277    5.0278 H   0  0  0  0  0  0  0  0  0  0  0  0
   -0.2601    1.3206    3.6210 C   0  0  0  0  0  0  0  0  0  0  0  0
    0.6082    1.0218    4.2269 H   0  0  0  0  0  0  0  0  0  0  0  0
   -0.4894    0.6864    2.3926 C   0  0  0  0  0  0  0  0  0  0  0  0
    0.2101   -0.0776    2.0256 H   0  0  0  0  0  0  0  0  0  0  0  0
    0.9596   -2.3030    4.3299 N   0  0  0  0  0  0  0  0  0  0  0  0
   -1.9365    0.0639    0.0625 P   0  0  0  0  0  0  0  0  0  0  0  0
  1  2  1  0  0  0  0
  1  4  1  0  0  0  0
  3  1  1  0  0  0  0
  4  5  1  0  0  0  0
  4  7  1  0  0  0  0
  6  4  1  0  0  0  0
  7  9  2  0  0  0  0
  7  8  1  0  0  0  0
  9 11  1  0  0  0  0
 10  9  1  0  0  0  0
 11 34  3  0  0  0  0
 12 21  1  0  0  0  0
 12 35  1  0  0  0  0
 13 12  2  0  0  0  0
 14 13  1  0  0  0  0
 15 17  2  0  0  0  0
 15 13  1  0  0  0  0
 16 15  1  0  0  0  0
 17 19  1  0  0  0  0
 18 17  1  0  0  0  0
 19 20  1  0  0  0  0
 19 21  2  0  0  0  0
 21 22  1  0  0  0  0
 23 24  2  0  0  0  0
 23 32  1  0  0  0  0
 24 26  1  0  0  0  0
 25 24  1  0  0  0  0
 26 27  1  0  0  0  0
 26 28  2  0  0  0  0
 28 29  1  0  0  0  0
 30 28  1  0  0  0  0
 30 31  1  0  0  0  0
 32 30  2  0  0  0  0
 33 32  1  0  0  0  0
 35  1  1  0  0  0  0
 35 23  1  0  0  0  0
M  END
