32
 OpenBabel05122313063D

 32 33  0  0  0  0  0  0  0  0999 V2000
   -2.8224   -0.8712    1.4986 C   0  0  0  0  0  0  0  0  0  0  0  0
   -3.4634   -0.1731    2.0720 H   0  0  0  0  0  0  0  0  0  0  0  0
   -3.4253   -1.5852    0.9016 H   0  0  0  0  0  0  0  0  0  0  0  0
   -1.8468   -1.6004    2.3543 C   0  0  0  0  0  0  0  0  0  0  0  0
   -1.4014   -2.4983    1.8932 H   0  0  0  0  0  0  0  0  0  0  0  0
   -1.4352   -1.1870    3.5808 C   0  0  0  0  0  0  0  0  0  0  0  0
   -1.8558   -0.2791    4.0464 H   0  0  0  0  0  0  0  0  0  0  0  0
   -0.4090   -1.8620    4.3057 C   0  0  0  0  0  0  0  0  0  0  0  0
   -1.4245    1.6194    1.1757 C   0  0  0  0  0  0  0  0  0  0  0  0
   -2.1817    2.8061    1.1140 C   0  0  0  0  0  0  0  0  0  0  0  0
   -3.0490    2.8736    0.4406 H   0  0  0  0  0  0  0  0  0  0  0  0
   -1.8197    3.9121    1.8991 C   0  0  0  0  0  0  0  0  0  0  0  0
   -2.4096    4.8393    1.8373 H   0  0  0  0  0  0  0  0  0  0  0  0
   -0.7079    3.8396    2.7528 C   0  0  0  0  0  0  0  0  0  0  0  0
   -0.4248    4.7098    3.3642 H   0  0  0  0  0  0  0  0  0  0  0  0
    0.0515    2.6599    2.8143 C   0  0  0  0  0  0  0  0  0  0  0  0
    0.9342    2.6017    3.4685 H   0  0  0  0  0  0  0  0  0  0  0  0
   -0.2973    1.5567    2.0235 C   0  0  0  0  0  0  0  0  0  0  0  0
    0.3239    0.6494    2.0340 H   0  0  0  0  0  0  0  0  0  0  0  0
   -3.1086    0.6437   -1.0146 C   0  0  0  0  0  0  0  0  0  0  0  0
   -2.6920    0.7776   -2.3548 C   0  0  0  0  0  0  0  0  0  0  0  0
   -1.6511    0.5326   -2.6198 H   0  0  0  0  0  0  0  0  0  0  0  0
   -3.6024    1.1947   -3.3361 C   0  0  0  0  0  0  0  0  0  0  0  0
   -3.2711    1.2944   -4.3806 H   0  0  0  0  0  0  0  0  0  0  0  0
   -4.9352    1.4676   -2.9894 C   0  0  0  0  0  0  0  0  0  0  0  0
   -5.6515    1.7859   -3.7620 H   0  0  0  0  0  0  0  0  0  0  0  0
   -5.3584    1.3227   -1.6584 C   0  0  0  0  0  0  0  0  0  0  0  0
   -6.4052    1.5255   -1.3862 H   0  0  0  0  0  0  0  0  0  0  0  0
   -4.4496    0.9131   -0.6711 C   0  0  0  0  0  0  0  0  0  0  0  0
   -4.7941    0.7994    0.3677 H   0  0  0  0  0  0  0  0  0  0  0  0
    0.4570   -2.3980    4.8933 N   0  0  0  0  0  0  0  0  0  0  0  0
   -1.8596    0.1124    0.2125 P   0  0  0  0  0  0  0  0  0  0  0  0
  1  2  1  0  0  0  0
  1  4  1  0  0  0  0
  3  1  1  0  0  0  0
  4  6  2  0  0  0  0
  5  4  1  0  0  0  0
  6  7  1  0  0  0  0
  6  8  1  0  0  0  0
  8 31  3  0  0  0  0
  9 18  1  0  0  0  0
 10  9  2  0  0  0  0
 10 12  1  0  0  0  0
 11 10  1  0  0  0  0
 12 14  2  0  0  0  0
 13 12  1  0  0  0  0
 14 16  1  0  0  0  0
 14 15  1  0  0  0  0
 16 17  1  0  0  0  0
 18 19  1  0  0  0  0
 18 16  2  0  0  0  0
 20 29  1  0  0  0  0
 20 32  1  0  0  0  0
 21 20  2  0  0  0  0
 22 21  1  0  0  0  0
 23 25  2  0  0  0  0
 23 21  1  0  0  0  0
 24 23  1  0  0  0  0
 25 27  1  0  0  0  0
 26 25  1  0  0  0  0
 27 28  1  0  0  0  0
 27 29  2  0  0  0  0
 29 30  1  0  0  0  0
 32  9  1  0  0  0  0
 32  1  1  0  0  0  0
M  END
