1
 OpenBabel05122313063D

 48 52  0  0  0  0  0  0  0  0999 V2000
   -0.4632    0.0001    0.7024 P   0  0  2  0  0  0  0  0  0  0  0  0
    1.2502   -1.5043    0.7096 P   0  0  2  0  0  0  0  0  0  0  0  0
    2.2381   -0.0001   -0.6631 P   0  0  1  0  0  0  0  0  0  0  0  0
    1.2506    1.5040    0.7100 P   0  0  1  0  0  0  0  0  0  0  0  0
   -0.9563   -0.0003    2.4756 C   0  0  0  0  0  0  0  0  0  0  0  0
   -1.2091    1.2168    3.1370 C   0  0  0  0  0  0  0  0  0  0  0  0
   -1.0206    2.1726    2.6222 H   0  0  0  0  0  0  0  0  0  0  0  0
   -1.7032    1.2143    4.4495 C   0  0  0  0  0  0  0  0  0  0  0  0
   -1.8961    2.1694    4.9612 H   0  0  0  0  0  0  0  0  0  0  0  0
   -1.9514   -0.0009    5.1074 C   0  0  0  0  0  0  0  0  0  0  0  0
   -2.3395   -0.0011    6.1371 H   0  0  0  0  0  0  0  0  0  0  0  0
   -1.7048   -1.2158    4.4483 C   0  0  0  0  0  0  0  0  0  0  0  0
   -1.8989   -2.1711    4.9591 H   0  0  0  0  0  0  0  0  0  0  0  0
   -1.2107   -1.2176    3.1359 C   0  0  0  0  0  0  0  0  0  0  0  0
   -1.0235   -2.1732    2.6201 H   0  0  0  0  0  0  0  0  0  0  0  0
    0.7502   -2.8620   -0.4267 C   0  0  0  0  0  0  0  0  0  0  0  0
    0.3866   -4.0793    0.1922 C   0  0  0  0  0  0  0  0  0  0  0  0
    0.4264   -4.1646    1.2904 H   0  0  0  0  0  0  0  0  0  0  0  0
   -0.0254   -5.1732   -0.5806 C   0  0  0  0  0  0  0  0  0  0  0  0
   -0.3180   -6.1126   -0.0878 H   0  0  0  0  0  0  0  0  0  0  0  0
   -0.0624   -5.0690   -1.9801 C   0  0  0  0  0  0  0  0  0  0  0  0
   -0.3888   -5.9266   -2.5877 H   0  0  0  0  0  0  0  0  0  0  0  0
    0.3203   -3.8706   -2.6037 C   0  0  0  0  0  0  0  0  0  0  0  0
    0.2964   -3.7855   -3.7007 H   0  0  0  0  0  0  0  0  0  0  0  0
    0.7250   -2.7710   -1.8339 C   0  0  0  0  0  0  0  0  0  0  0  0
    1.0221   -1.8336   -2.3267 H   0  0  0  0  0  0  0  0  0  0  0  0
    3.9748   -0.0004   -0.0294 C   0  0  0  0  0  0  0  0  0  0  0  0
    4.3152   -0.0007    1.3404 C   0  0  0  0  0  0  0  0  0  0  0  0
    3.5176   -0.0007    2.1002 H   0  0  0  0  0  0  0  0  0  0  0  0
    5.6603   -0.0009    1.7319 C   0  0  0  0  0  0  0  0  0  0  0  0
    5.9174   -0.0011    2.8022 H   0  0  0  0  0  0  0  0  0  0  0  0
    6.6791   -0.0009    0.7630 C   0  0  0  0  0  0  0  0  0  0  0  0
    7.7348   -0.0011    1.0745 H   0  0  0  0  0  0  0  0  0  0  0  0
    6.3492   -0.0007   -0.6006 C   0  0  0  0  0  0  0  0  0  0  0  0
    7.1437   -0.0007   -1.3624 H   0  0  0  0  0  0  0  0  0  0  0  0
    5.0021   -0.0004   -0.9963 C   0  0  0  0  0  0  0  0  0  0  0  0
    4.7405   -0.0003   -2.0665 H   0  0  0  0  0  0  0  0  0  0  0  0
    0.7509    2.8621   -0.4260 C   0  0  0  0  0  0  0  0  0  0  0  0
    0.3875    4.0793    0.1931 C   0  0  0  0  0  0  0  0  0  0  0  0
    0.4272    4.1643    1.2914 H   0  0  0  0  0  0  0  0  0  0  0  0
   -0.0242    5.1734   -0.5795 C   0  0  0  0  0  0  0  0  0  0  0  0
   -0.3166    6.1128   -0.0865 H   0  0  0  0  0  0  0  0  0  0  0  0
   -0.0609    5.0696   -1.9790 C   0  0  0  0  0  0  0  0  0  0  0  0
   -0.3871    5.9274   -2.5864 H   0  0  0  0  0  0  0  0  0  0  0  0
    0.3216    3.8713   -2.6028 C   0  0  0  0  0  0  0  0  0  0  0  0
    0.2978    3.7865   -3.6999 H   0  0  0  0  0  0  0  0  0  0  0  0
    0.7259    2.7714   -1.8332 C   0  0  0  0  0  0  0  0  0  0  0  0
    1.0229    1.8341   -2.3263 H   0  0  0  0  0  0  0  0  0  0  0  0
  1  2  1  0  0  0  0
  1  4  1  0  0  0  0
  1  5  1  1  0  0  0
  2 16  1  6  0  0  0
  3 27  1  1  0  0  0
  3  2  1  0  0  0  0
  3  4  1  0  0  0  0
  4 38  1  6  0  0  0
  5 14  2  0  0  0  0
  5  6  1  0  0  0  0
  6  8  2  0  0  0  0
  7  6  1  0  0  0  0
  8  9  1  0  0  0  0
  8 10  1  0  0  0  0
 10 11  1  0  0  0  0
 12 13  1  0  0  0  0
 12 10  2  0  0  0  0
 14 12  1  0  0  0  0
 15 14  1  0  0  0  0
 16 17  1  0  0  0  0
 17 18  1  0  0  0  0
 19 20  1  0  0  0  0
 19 17  2  0  0  0  0
 21 19  1  0  0  0  0
 22 21  1  0  0  0  0
 23 21  2  0  0  0  0
 23 25  1  0  0  0  0
 24 23  1  0  0  0  0
 25 16  2  0  0  0  0
 26 25  1  0  0  0  0
 27 28  1  0  0  0  0
 28 30  2  0  0  0  0
 28 29  1  0  0  0  0
 30 31  1  0  0  0  0
 32 33  1  0  0  0  0
 32 30  1  0  0  0  0
 34 32  2  0  0  0  0
 35 34  1  0  0  0  0
 36 34  1  0  0  0  0
 36 27  2  0  0  0  0
 37 36  1  0  0  0  0
 38 39  1  0  0  0  0
 39 40  1  0  0  0  0
 41 42  1  0  0  0  0
 41 39  2  0  0  0  0
 43 41  1  0  0  0  0
 44 43  1  0  0  0  0
 45 43  2  0  0  0  0
 45 47  1  0  0  0  0
 46 45  1  0  0  0  0
 47 38  2  0  0  0  0
 48 47  1  0  0  0  0
M  END
