12
 OpenBabel05122313063D

 12 12  0  0  0  0  0  0  0  0999 V2000
   -2.7110    1.0207    0.0001 C   0  0  0  0  0  0  0  0  0  0  0  0
   -4.0977    0.8041    0.0000 C   0  0  0  0  0  0  0  0  0  0  0  0
   -4.7509    1.6961    0.0000 H   0  0  0  0  0  0  0  0  0  0  0  0
   -4.7021   -0.4640    0.0000 C   0  0  0  0  0  0  0  0  0  0  0  0
   -5.8013   -0.5100    0.0000 H   0  0  0  0  0  0  0  0  0  0  0  0
   -3.9758   -1.6655    0.0000 C   0  0  0  0  0  0  0  0  0  0  0  0
   -4.5309   -2.6168    0.0000 H   0  0  0  0  0  0  0  0  0  0  0  0
   -2.5768   -1.7119    0.0001 C   0  0  0  0  0  0  0  0  0  0  0  0
   -2.0597   -2.6848    0.0001 H   0  0  0  0  0  0  0  0  0  0  0  0
   -2.1617    2.2601    0.0000 O   0  0  0  0  0  0  0  0  0  0  0  0
   -2.8739    2.9297    0.0001 H   0  0  0  0  0  0  0  0  0  0  0  0
   -1.5529   -0.3129    0.0001 P   0  0  0  0  0  0  0  0  0  0  0  0
  1 12  2  0  0  0  0
  2  1  1  0  0  0  0
  3  2  1  0  0  0  0
  4  2  2  0  0  0  0
  5  4  1  0  0  0  0
  6  4  1  0  0  0  0
  6  8  2  0  0  0  0
  7  6  1  0  0  0  0
  8 12  1  0  0  0  0
  9  8  1  0  0  0  0
 10  1  1  0  0  0  0
 10 11  1  0  0  0  0
M  END
