1
 OpenBabel05122313063D

 45 47  0  0  0  0  0  0  0  0999 V2000
   -0.5759    0.2248   -0.2363 P   0  0  0  0  0  0  0  0  0  0  0  0
    1.0167    1.5701    1.9060 F   0  0  0  0  0  0  0  0  0  0  0  0
   -3.6107    0.3347   -0.4101 O   0  0  0  0  0  0  0  0  0  0  0  0
    2.5134    2.2942    0.2974 F   0  0  0  0  0  0  0  0  0  0  0  0
   -1.5080   -2.3736    0.8796 O   0  0  0  0  0  0  0  0  0  0  0  0
    1.6414    3.7966    1.8201 F   0  0  0  0  0  0  0  0  0  0  0  0
   -2.5293    0.8099    3.3803 C   0  0  0  0  0  0  0  0  0  0  0  0
   -2.7690    1.6624    4.0324 H   0  0  0  0  0  0  0  0  0  0  0  0
   -1.7138   -0.6816   -1.3882 C   0  0  0  0  0  0  0  0  0  0  0  0
   -1.4474   -0.0549    1.3694 C   0  0  0  0  0  0  0  0  0  0  0  0
   -1.8892   -1.3576    1.7144 C   0  0  0  0  0  0  0  0  0  0  0  0
   -1.1733   -1.6143   -2.2887 C   0  0  0  0  0  0  0  0  0  0  0  0
   -0.0761   -1.7149   -2.3180 H   0  0  0  0  0  0  0  0  0  0  0  0
   -3.1304   -0.5702   -1.2985 C   0  0  0  0  0  0  0  0  0  0  0  0
   -2.9856   -0.4772    3.6967 C   0  0  0  0  0  0  0  0  0  0  0  0
   -3.5899   -0.6467    4.6011 H   0  0  0  0  0  0  0  0  0  0  0  0
   -1.7680    1.0153    2.2201 C   0  0  0  0  0  0  0  0  0  0  0  0
   -1.4246    2.0237    1.9564 H   0  0  0  0  0  0  0  0  0  0  0  0
   -3.3836   -2.2967   -3.0007 C   0  0  0  0  0  0  0  0  0  0  0  0
   -4.0416   -2.9200   -3.6258 H   0  0  0  0  0  0  0  0  0  0  0  0
   -2.6709   -1.5647    2.8664 C   0  0  0  0  0  0  0  0  0  0  0  0
   -3.0220   -2.5727    3.1259 H   0  0  0  0  0  0  0  0  0  0  0  0
   -3.9565   -1.3815   -2.1040 C   0  0  0  0  0  0  0  0  0  0  0  0
   -5.0494   -1.2967   -2.0378 H   0  0  0  0  0  0  0  0  0  0  0  0
   -1.9910   -2.4171   -3.0995 C   0  0  0  0  0  0  0  0  0  0  0  0
   -1.5397   -3.1355   -3.7995 H   0  0  0  0  0  0  0  0  0  0  0  0
    1.3432    2.6710    1.0414 B   0  0  0  0  0  0  0  0  0  0  0  0
   -0.7580    2.0291   -0.6034 C   0  0  0  0  0  0  0  0  0  0  0  0
    0.0981    2.9799    0.0186 C   0  0  0  0  0  0  0  0  0  0  0  0
   -0.1050    4.3347   -0.3310 C   0  0  0  0  0  0  0  0  0  0  0  0
    0.5306    5.0827    0.1677 H   0  0  0  0  0  0  0  0  0  0  0  0
   -1.7098    2.4271   -1.5683 C   0  0  0  0  0  0  0  0  0  0  0  0
   -2.3331    1.6797   -2.0763 H   0  0  0  0  0  0  0  0  0  0  0  0
   -5.0034    0.4501   -0.2013 C   0  0  0  0  0  0  0  0  0  0  0  0
   -5.5347    0.7847   -1.1202 H   0  0  0  0  0  0  0  0  0  0  0  0
   -5.1300    1.2121    0.5894 H   0  0  0  0  0  0  0  0  0  0  0  0
   -5.4476   -0.5097    0.1449 H   0  0  0  0  0  0  0  0  0  0  0  0
   -2.2395   -3.5859    0.8926 C   0  0  0  0  0  0  0  0  0  0  0  0
   -2.0554   -4.1791    1.8164 H   0  0  0  0  0  0  0  0  0  0  0  0
   -1.8928   -4.1641    0.0156 H   0  0  0  0  0  0  0  0  0  0  0  0
   -3.3309   -3.3985    0.7931 H   0  0  0  0  0  0  0  0  0  0  0  0
   -1.0598    4.7406   -1.2726 C   0  0  0  0  0  0  0  0  0  0  0  0
   -1.1754    5.8077   -1.5214 H   0  0  0  0  0  0  0  0  0  0  0  0
   -1.8583    3.7779   -1.9073 C   0  0  0  0  0  0  0  0  0  0  0  0
   -2.5996    4.0724   -2.6665 H   0  0  0  0  0  0  0  0  0  0  0  0
  1 10  1  0  0  0  0
  3 34  1  0  0  0  0
  4 27  1  0  0  0  0
  5 38  1  0  0  0  0
  5 11  1  0  0  0  0
  7 15  1  0  0  0  0
  7  8  1  0  0  0  0
  9 14  1  0  0  0  0
  9  1  1  0  0  0  0
 10 11  2  0  0  0  0
 10 17  1  0  0  0  0
 11 21  1  0  0  0  0
 12  9  2  0  0  0  0
 13 12  1  0  0  0  0
 14  3  1  0  0  0  0
 15 16  1  0  0  0  0
 17  7  2  0  0  0  0
 18 17  1  0  0  0  0
 19 23  1  0  0  0  0
 20 19  1  0  0  0  0
 21 22  1  0  0  0  0
 21 15  2  0  0  0  0
 23 24  1  0  0  0  0
 23 14  2  0  0  0  0
 25 19  2  0  0  0  0
 25 12  1  0  0  0  0
 26 25  1  0  0  0  0
 27  6  1  0  0  0  0
 27  2  1  0  0  0  0
 28  1  1  0  0  0  0
 28 29  1  0  0  0  0
 29 27  1  0  0  0  0
 30 29  2  0  0  0  0
 30 31  1  0  0  0  0
 32 28  2  0  0  0  0
 33 32  1  0  0  0  0
 34 37  1  0  0  0  0
 34 36  1  0  0  0  0
 35 34  1  0  0  0  0
 38 39  1  0  0  0  0
 40 38  1  0  0  0  0
 41 38  1  0  0  0  0
 42 30  1  0  0  0  0
 43 42  1  0  0  0  0
 44 32  1  0  0  0  0
 44 42  2  0  0  0  0
 45 44  1  0  0  0  0
M  END
