1
 OpenBabel05122313063D

 37 38  0  0  0  0  0  0  0  0999 V2000
    0.5210   -1.6373    0.4276 P   0  0  1  0  0  0  0  0  0  0  0  0
    2.2772    0.3551   -1.7452 S   0  0  0  0  0  0  0  0  0  0  0  0
    1.4602   -2.9248   -0.4921 C   0  0  0  0  0  0  0  0  0  0  0  0
    0.0471   -2.5207    1.9713 C   0  0  0  0  0  0  0  0  0  0  0  0
    0.8387   -2.5298    3.1378 C   0  0  0  0  0  0  0  0  0  0  0  0
    0.4168   -3.2438    4.2708 C   0  0  0  0  0  0  0  0  0  0  0  0
   -0.7898   -3.9600    4.2439 C   0  0  0  0  0  0  0  0  0  0  0  0
   -1.5764   -3.9623    3.0801 C   0  0  0  0  0  0  0  0  0  0  0  0
   -1.1658   -3.2428    1.9491 C   0  0  0  0  0  0  0  0  0  0  0  0
    1.8375   -0.4252    0.9587 C   0  0  0  0  0  0  0  0  0  0  0  0
    2.0062    0.7629    0.0135 C   0  0  0  0  0  0  0  0  0  0  0  0
    3.9686   -0.3745   -1.6748 C   0  0  0  0  0  0  0  0  0  0  0  0
    4.9736    0.4891   -0.9571 C   0  0  0  0  0  0  0  0  0  0  0  0
    5.6285    0.0160    0.1966 C   0  0  0  0  0  0  0  0  0  0  0  0
    6.5521    0.8223    0.8820 C   0  0  0  0  0  0  0  0  0  0  0  0
    6.8299    2.1173    0.4215 C   0  0  0  0  0  0  0  0  0  0  0  0
    6.1779    2.6016   -0.7263 C   0  0  0  0  0  0  0  0  0  0  0  0
    5.2557    1.7964   -1.4067 C   0  0  0  0  0  0  0  0  0  0  0  0
    2.3167   -3.2755    0.1179 H   0  0  0  0  0  0  0  0  0  0  0  0
    0.7689   -3.7569   -0.7196 H   0  0  0  0  0  0  0  0  0  0  0  0
    1.8024   -2.4819   -1.4461 H   0  0  0  0  0  0  0  0  0  0  0  0
    1.7909   -1.9796    3.1737 H   0  0  0  0  0  0  0  0  0  0  0  0
    1.0371   -3.2400    5.1802 H   0  0  0  0  0  0  0  0  0  0  0  0
   -1.1191   -4.5171    5.1342 H   0  0  0  0  0  0  0  0  0  0  0  0
   -2.5231   -4.5229    3.0539 H   0  0  0  0  0  0  0  0  0  0  0  0
   -1.7792   -3.2320    1.0323 H   0  0  0  0  0  0  0  0  0  0  0  0
    2.7903   -0.9815    1.0823 H   0  0  0  0  0  0  0  0  0  0  0  0
    1.5558   -0.0369    1.9586 H   0  0  0  0  0  0  0  0  0  0  0  0
    1.0780    1.3688    0.0060 H   0  0  0  0  0  0  0  0  0  0  0  0
    2.8353    1.4147    0.3597 H   0  0  0  0  0  0  0  0  0  0  0  0
    4.2352   -0.5049   -2.7441 H   0  0  0  0  0  0  0  0  0  0  0  0
    3.9273   -1.3870   -1.2232 H   0  0  0  0  0  0  0  0  0  0  0  0
    5.4157   -1.0035    0.5574 H   0  0  0  0  0  0  0  0  0  0  0  0
    7.0553    0.4351    1.7811 H   0  0  0  0  0  0  0  0  0  0  0  0
    7.5516    2.7525    0.9570 H   0  0  0  0  0  0  0  0  0  0  0  0
    6.3898    3.6182   -1.0915 H   0  0  0  0  0  0  0  0  0  0  0  0
    4.7242    2.1833   -2.2902 H   0  0  0  0  0  0  0  0  0  0  0  0
  1  3  1  6  0  0  0
  1 10  1  0  0  0  0
  1  4  1  0  0  0  0
  2 12  1  0  0  0  0
  2 11  1  0  0  0  0
  3 19  1  0  0  0  0
  4  5  1  0  0  0  0
  5 22  1  0  0  0  0
  5  6  2  0  0  0  0
  6 23  1  0  0  0  0
  7  6  1  0  0  0  0
  7 24  1  0  0  0  0
  8  7  2  0  0  0  0
  9  4  2  0  0  0  0
  9  8  1  0  0  0  0
 10 27  1  0  0  0  0
 10 28  1  0  0  0  0
 11 30  1  0  0  0  0
 11 10  1  0  0  0  0
 12 32  1  0  0  0  0
 12 13  1  0  0  0  0
 13 14  1  0  0  0  0
 14 33  1  0  0  0  0
 14 15  2  0  0  0  0
 15 34  1  0  0  0  0
 16 15  1  0  0  0  0
 16 35  1  0  0  0  0
 17 16  2  0  0  0  0
 18 13  2  0  0  0  0
 18 17  1  0  0  0  0
 20  3  1  0  0  0  0
 21  3  1  0  0  0  0
 25  8  1  0  0  0  0
 26  9  1  0  0  0  0
 29 11  1  0  0  0  0
 31 12  1  0  0  0  0
 36 17  1  0  0  0  0
 37 18  1  0  0  0  0
M  END
