1
 OpenBabel05122313063D

 30 32  0  0  1  0  0  0  0  0999 V2000
    0.5826   -1.1039    0.1092 P   0  0  1  0  0  0  0  0  0  0  0  0
   -4.0090   -2.1234   -0.3449 O   0  0  0  0  0  0  0  0  0  0  0  0
   -2.7033   -2.2739   -0.0154 C   0  0  0  0  0  0  0  0  0  0  0  0
   -1.6991   -2.5980   -0.8796 C   0  0  0  0  0  0  0  0  0  0  0  0
   -0.2976   -2.6995   -0.4338 C   0  0  2  0  0  0  0  0  0  0  0  0
   -0.0096   -2.5931    1.0535 C   0  0  2  0  0  0  0  0  0  0  0  0
   -1.1938   -2.6080    2.0059 C   0  0  0  0  0  0  0  0  0  0  0  0
   -2.4723   -1.9742    1.4405 C   0  0  0  0  0  0  0  0  0  0  0  0
   -4.3784   -2.2757   -1.7054 C   0  0  0  0  0  0  0  0  0  0  0  0
    2.3762   -1.4140   -0.1084 C   0  0  0  0  0  0  0  0  0  0  0  0
    2.9474   -1.2547   -1.3890 C   0  0  0  0  0  0  0  0  0  0  0  0
    4.3287   -1.4152   -1.5697 C   0  0  0  0  0  0  0  0  0  0  0  0
    5.1521   -1.7258   -0.4751 C   0  0  0  0  0  0  0  0  0  0  0  0
    4.5908   -1.8741    0.8031 C   0  0  0  0  0  0  0  0  0  0  0  0
    3.2089   -1.7176    0.9880 C   0  0  0  0  0  0  0  0  0  0  0  0
   -1.8974   -2.7480   -1.9492 H   0  0  0  0  0  0  0  0  0  0  0  0
    0.3582   -3.3593   -1.0268 H   0  0  0  0  0  0  0  0  0  0  0  0
    0.8394   -3.2085    1.3975 H   0  0  0  0  0  0  0  0  0  0  0  0
   -1.3974   -3.6764    2.2378 H   0  0  0  0  0  0  0  0  0  0  0  0
   -0.9252   -2.1235    2.9661 H   0  0  0  0  0  0  0  0  0  0  0  0
   -2.4461   -0.8709    1.5616 H   0  0  0  0  0  0  0  0  0  0  0  0
   -3.3605   -2.3132    2.0117 H   0  0  0  0  0  0  0  0  0  0  0  0
   -5.4684   -2.0989   -1.7560 H   0  0  0  0  0  0  0  0  0  0  0  0
   -3.8570   -1.5349   -2.3490 H   0  0  0  0  0  0  0  0  0  0  0  0
   -4.1543   -3.3016   -2.0742 H   0  0  0  0  0  0  0  0  0  0  0  0
    2.3080   -0.9982   -2.2479 H   0  0  0  0  0  0  0  0  0  0  0  0
    4.7652   -1.2939   -2.5726 H   0  0  0  0  0  0  0  0  0  0  0  0
    6.2364   -1.8475   -0.6183 H   0  0  0  0  0  0  0  0  0  0  0  0
    5.2341   -2.1076    1.6651 H   0  0  0  0  0  0  0  0  0  0  0  0
    2.7752   -1.8225    1.9949 H   0  0  0  0  0  0  0  0  0  0  0  0
  1 10  1  6  0  0  0
  1  6  1  0  0  0  0
  2  3  1  0  0  0  0
  3  8  1  0  0  0  0
  4  5  1  0  0  0  0
  4  3  2  0  0  0  0
  5 17  1  6  0  0  0
  5  1  1  0  0  0  0
  5  6  1  0  0  0  0
  6 18  1  1  0  0  0
  6  7  1  0  0  0  0
  7 19  1  0  0  0  0
  7 20  1  0  0  0  0
  8 21  1  0  0  0  0
  8  7  1  0  0  0  0
  8 22  1  0  0  0  0
  9  2  1  0  0  0  0
 10 15  1  0  0  0  0
 11 10  2  0  0  0  0
 12 11  1  0  0  0  0
 12 13  2  0  0  0  0
 13 14  1  0  0  0  0
 14 15  2  0  0  0  0
 14 29  1  0  0  0  0
 15 30  1  0  0  0  0
 16  4  1  0  0  0  0
 23  9  1  0  0  0  0
 24  9  1  0  0  0  0
 25  9  1  0  0  0  0
 26 11  1  0  0  0  0
 27 12  1  0  0  0  0
 28 13  1  0  0  0  0
M  END
