1
 OpenBabel05122313063D

 54 57  0  0  1  0  0  0  0  0999 V2000
    1.0539   -0.2016   -0.0189 P   0  0  0  0  0  0  0  0  0  0  0  0
   -2.0241    2.9792    0.5901 O   0  0  0  0  0  0  0  0  0  0  0  0
   -1.3897    0.8377    0.1900 N   0  0  0  0  0  0  0  0  0  0  0  0
    1.3564    1.4395    0.7741 C   0  0  0  0  0  0  0  0  0  0  0  0
    0.2989    2.3708    0.9928 C   0  0  0  0  0  0  0  0  0  0  0  0
    0.5779    3.6294    1.5611 C   0  0  0  0  0  0  0  0  0  0  0  0
    1.8842    3.9666    1.9339 C   0  0  0  0  0  0  0  0  0  0  0  0
    2.9259    3.0479    1.7329 C   0  0  0  0  0  0  0  0  0  0  0  0
    2.6627    1.7973    1.1515 C   0  0  0  0  0  0  0  0  0  0  0  0
    2.7307   -0.8226   -0.4386 C   0  0  0  0  0  0  0  0  0  0  0  0
    3.3044   -0.4066   -1.6589 C   0  0  0  0  0  0  0  0  0  0  0  0
    4.5943   -0.8327   -2.0034 C   0  0  0  0  0  0  0  0  0  0  0  0
    5.3112   -1.6839   -1.1459 C   0  0  0  0  0  0  0  0  0  0  0  0
    4.7376   -2.1062    0.0640 C   0  0  0  0  0  0  0  0  0  0  0  0
    3.4496   -1.6790    0.4215 C   0  0  0  0  0  0  0  0  0  0  0  0
    0.4814   -1.3014    1.3301 C   0  0  0  0  0  0  0  0  0  0  0  0
    0.2595   -2.6666    1.0584 C   0  0  0  0  0  0  0  0  0  0  0  0
   -0.1447   -3.5265    2.0886 C   0  0  0  0  0  0  0  0  0  0  0  0
   -0.3366   -3.0330    3.3896 C   0  0  0  0  0  0  0  0  0  0  0  0
   -0.1189   -1.6732    3.6601 C   0  0  0  0  0  0  0  0  0  0  0  0
    0.2903   -0.8071    2.6350 C   0  0  0  0  0  0  0  0  0  0  0  0
   -1.0591    2.0212    0.5905 C   0  0  0  0  0  0  0  0  0  0  0  0
   -3.2525    2.2948    0.2192 C   0  0  0  0  0  0  0  0  0  0  0  0
   -2.7945    0.8792   -0.2314 C   0  0  2  0  0  0  0  0  0  0  0  0
   -3.5817   -0.2950    0.3471 C   0  0  0  0  0  0  0  0  0  0  0  0
   -5.0196   -0.4437   -0.1798 C   0  0  0  0  0  0  0  0  0  0  0  0
   -5.7104   -1.6172    0.5262 C   0  0  0  0  0  0  0  0  0  0  0  0
   -5.0563   -0.6232   -1.7046 C   0  0  0  0  0  0  0  0  0  0  0  0
   -0.2526    4.3356    1.7019 H   0  0  0  0  0  0  0  0  0  0  0  0
    2.0911    4.9511    2.3793 H   0  0  0  0  0  0  0  0  0  0  0  0
    3.9561    3.3052    2.0212 H   0  0  0  0  0  0  0  0  0  0  0  0
    3.4899    1.0936    0.9813 H   0  0  0  0  0  0  0  0  0  0  0  0
    2.7291    0.2571   -2.3249 H   0  0  0  0  0  0  0  0  0  0  0  0
    5.0392   -0.5040   -2.9548 H   0  0  0  0  0  0  0  0  0  0  0  0
    6.3201   -2.0247   -1.4244 H   0  0  0  0  0  0  0  0  0  0  0  0
    5.2953   -2.7755    0.7367 H   0  0  0  0  0  0  0  0  0  0  0  0
    3.0030   -2.0091    1.3709 H   0  0  0  0  0  0  0  0  0  0  0  0
    0.3702   -3.0443    0.0314 H   0  0  0  0  0  0  0  0  0  0  0  0
   -0.3217   -4.5902    1.8687 H   0  0  0  0  0  0  0  0  0  0  0  0
   -0.6610   -3.7102    4.1944 H   0  0  0  0  0  0  0  0  0  0  0  0
   -0.2689   -1.2795    4.6769 H   0  0  0  0  0  0  0  0  0  0  0  0
    0.4622    0.2571    2.8522 H   0  0  0  0  0  0  0  0  0  0  0  0
   -3.7498    2.8870   -0.5722 H   0  0  0  0  0  0  0  0  0  0  0  0
   -3.9112    2.2571    1.1148 H   0  0  0  0  0  0  0  0  0  0  0  0
   -2.8026    0.7991   -1.3416 H   0  0  0  0  0  0  0  0  0  0  0  0
   -3.5876   -0.2010    1.4555 H   0  0  0  0  0  0  0  0  0  0  0  0
   -3.0065   -1.2140    0.1054 H   0  0  0  0  0  0  0  0  0  0  0  0
   -5.5870    0.4832    0.0748 H   0  0  0  0  0  0  0  0  0  0  0  0
   -5.7058   -1.4897    1.6282 H   0  0  0  0  0  0  0  0  0  0  0  0
   -5.1879   -2.5702    0.2980 H   0  0  0  0  0  0  0  0  0  0  0  0
   -6.7647   -1.7243    0.1992 H   0  0  0  0  0  0  0  0  0  0  0  0
   -4.7100    0.2813   -2.2450 H   0  0  0  0  0  0  0  0  0  0  0  0
   -6.0854   -0.8398   -2.0563 H   0  0  0  0  0  0  0  0  0  0  0  0
   -4.3982   -1.4614   -2.0163 H   0  0  0  0  0  0  0  0  0  0  0  0
  1  4  1  0  0  0  0
  1 16  1  0  0  0  0
  2 22  1  0  0  0  0
  3 22  2  0  0  0  0
  4  5  2  0  0  0  0
  4  9  1  0  0  0  0
  5  6  1  0  0  0  0
  6 29  1  0  0  0  0
  6  7  2  0  0  0  0
  7 30  1  0  0  0  0
  8  7  1  0  0  0  0
  8 31  1  0  0  0  0
  9  8  2  0  0  0  0
 10  1  1  0  0  0  0
 10 15  1  0  0  0  0
 11 10  2  0  0  0  0
 12 11  1  0  0  0  0
 12 13  2  0  0  0  0
 13 14  1  0  0  0  0
 14 15  2  0  0  0  0
 14 36  1  0  0  0  0
 15 37  1  0  0  0  0
 16 21  1  0  0  0  0
 17 16  2  0  0  0  0
 17 18  1  0  0  0  0
 18 19  2  0  0  0  0
 19 20  1  0  0  0  0
 19 40  1  0  0  0  0
 20 41  1  0  0  0  0
 21 42  1  0  0  0  0
 21 20  2  0  0  0  0
 22  5  1  0  0  0  0
 23  2  1  0  0  0  0
 23 44  1  0  0  0  0
 24 45  1  6  0  0  0
 24  3  1  0  0  0  0
 24 23  1  0  0  0  0
 24 25  1  0  0  0  0
 25 46  1  0  0  0  0
 26 48  1  0  0  0  0
 26 25  1  0  0  0  0
 26 27  1  0  0  0  0
 27 49  1  0  0  0  0
 28 26  1  0  0  0  0
 32  9  1  0  0  0  0
 33 11  1  0  0  0  0
 34 12  1  0  0  0  0
 35 13  1  0  0  0  0
 38 17  1  0  0  0  0
 39 18  1  0  0  0  0
 43 23  1  0  0  0  0
 47 25  1  0  0  0  0
 50 27  1  0  0  0  0
 51 27  1  0  0  0  0
 52 28  1  0  0  0  0
 53 28  1  0  0  0  0
 54 28  1  0  0  0  0
M  END
