1
 OpenBabel05122313063D

 69 74  0  0  1  0  0  0  0  0999 V2000
    1.3637    0.1234   -0.3936 P   0  0  2  0  0  0  0  0  0  0  0  0
   -1.9472    0.2260    0.0161 P   0  0  0  0  0  0  0  0  0  0  0  0
    3.1742   -0.2893    1.5407 O   0  0  0  0  0  0  0  0  0  0  0  0
    5.0310    0.5941    0.3867 O   0  0  0  0  0  0  0  0  0  0  0  0
    3.7072    1.1410   -1.4844 O   0  0  0  0  0  0  0  0  0  0  0  0
    0.3578    1.4653   -1.1606 C   0  0  0  0  0  0  0  0  0  0  0  0
   -1.0643    1.4798   -1.0293 C   0  0  0  0  0  0  0  0  0  0  0  0
   -1.7996    2.4613   -1.7286 C   0  0  0  0  0  0  0  0  0  0  0  0
   -2.8964    2.4647   -1.6373 H   0  0  0  0  0  0  0  0  0  0  0  0
   -1.1642    3.4243   -2.5232 C   0  0  0  0  0  0  0  0  0  0  0  0
   -1.7641    4.1801   -3.0528 H   0  0  0  0  0  0  0  0  0  0  0  0
    0.2339    3.4208   -2.6347 C   0  0  0  0  0  0  0  0  0  0  0  0
    0.7463    4.1705   -3.2565 H   0  0  0  0  0  0  0  0  0  0  0  0
    0.9860    2.4495   -1.9613 C   0  0  0  0  0  0  0  0  0  0  0  0
    2.0791    2.4299   -2.0740 H   0  0  0  0  0  0  0  0  0  0  0  0
    2.2978    0.7715    1.1410 C   0  0  1  0  0  0  0  0  0  0  0  0
    4.2676   -0.5840    0.6617 C   0  0  2  0  0  0  0  0  0  0  0  0
    4.2456    1.6047   -0.2327 C   0  0  1  0  0  0  0  0  0  0  0  0
    2.9504   -0.0803   -1.4298 C   0  0  1  0  0  0  0  0  0  0  0  0
    3.1217    1.9998    0.7430 C   0  0  0  0  0  0  0  0  0  0  0  0
    3.5943    2.4137    1.6578 H   0  0  0  0  0  0  0  0  0  0  0  0
    2.4754    2.7853    0.3048 H   0  0  0  0  0  0  0  0  0  0  0  0
    3.7681   -1.1438   -0.6805 C   0  0  0  0  0  0  0  0  0  0  0  0
    3.1606   -2.0556   -0.5153 H   0  0  0  0  0  0  0  0  0  0  0  0
    4.6501   -1.4043   -1.3011 H   0  0  0  0  0  0  0  0  0  0  0  0
    1.3532    1.0214    2.2998 C   0  0  0  0  0  0  0  0  0  0  0  0
    0.6542    1.8478    2.0732 H   0  0  0  0  0  0  0  0  0  0  0  0
    0.7582    0.1136    2.5200 H   0  0  0  0  0  0  0  0  0  0  0  0
    1.9464    1.2862    3.1983 H   0  0  0  0  0  0  0  0  0  0  0  0
    5.1660   -1.5416    1.4167 C   0  0  0  0  0  0  0  0  0  0  0  0
    4.6101   -2.4673    1.6553 H   0  0  0  0  0  0  0  0  0  0  0  0
    6.0544   -1.7887    0.8064 H   0  0  0  0  0  0  0  0  0  0  0  0
    5.4928   -1.0604    2.3574 H   0  0  0  0  0  0  0  0  0  0  0  0
    5.1744    2.7517   -0.5783 C   0  0  0  0  0  0  0  0  0  0  0  0
    4.6065    3.5770   -1.0477 H   0  0  0  0  0  0  0  0  0  0  0  0
    5.6701    3.1223    0.3379 H   0  0  0  0  0  0  0  0  0  0  0  0
    5.9436    2.3899   -1.2860 H   0  0  0  0  0  0  0  0  0  0  0  0
    2.6288   -0.4898   -2.8574 C   0  0  0  0  0  0  0  0  0  0  0  0
    2.0589   -1.4395   -2.8547 H   0  0  0  0  0  0  0  0  0  0  0  0
    2.0269    0.2815   -3.3747 H   0  0  0  0  0  0  0  0  0  0  0  0
    3.5741   -0.6351   -3.4183 H   0  0  0  0  0  0  0  0  0  0  0  0
   -2.1393    1.1124    1.6178 C   0  0  0  0  0  0  0  0  0  0  0  0
   -2.5388    0.3316    2.7409 C   0  0  0  0  0  0  0  0  0  0  0  0
   -2.6036    0.9650    3.9979 C   0  0  0  0  0  0  0  0  0  0  0  0
   -2.9043    0.3685    4.8737 H   0  0  0  0  0  0  0  0  0  0  0  0
   -2.2937    2.3241    4.1567 C   0  0  0  0  0  0  0  0  0  0  0  0
   -2.3487    2.7859    5.1543 H   0  0  0  0  0  0  0  0  0  0  0  0
   -1.9196    3.0894    3.0426 C   0  0  0  0  0  0  0  0  0  0  0  0
   -1.6845    4.1590    3.1532 H   0  0  0  0  0  0  0  0  0  0  0  0
   -1.8448    2.4821    1.7803 C   0  0  0  0  0  0  0  0  0  0  0  0
   -1.5482    3.0804    0.9057 H   0  0  0  0  0  0  0  0  0  0  0  0
   -2.9103   -1.1207    2.5939 C   0  0  0  0  0  0  0  0  0  0  0  0
   -2.1415   -1.7015    2.0396 H   0  0  0  0  0  0  0  0  0  0  0  0
   -3.8512   -1.2316    2.0138 H   0  0  0  0  0  0  0  0  0  0  0  0
   -3.0638   -1.5985    3.5802 H   0  0  0  0  0  0  0  0  0  0  0  0
   -3.6507    0.2488   -0.6889 C   0  0  0  0  0  0  0  0  0  0  0  0
   -3.8931   -0.5593   -1.8363 C   0  0  0  0  0  0  0  0  0  0  0  0
   -5.2010   -0.5937   -2.3566 C   0  0  0  0  0  0  0  0  0  0  0  0
   -5.3997   -1.2116   -3.2467 H   0  0  0  0  0  0  0  0  0  0  0  0
   -6.2500    0.1232   -1.7602 C   0  0  0  0  0  0  0  0  0  0  0  0
   -7.2632    0.0671   -2.1864 H   0  0  0  0  0  0  0  0  0  0  0  0
   -6.0054    0.9006   -0.6192 C   0  0  0  0  0  0  0  0  0  0  0  0
   -6.8220    1.4626   -0.1409 H   0  0  0  0  0  0  0  0  0  0  0  0
   -4.7079    0.9630   -0.0891 C   0  0  0  0  0  0  0  0  0  0  0  0
   -4.5068    1.5755    0.8032 H   0  0  0  0  0  0  0  0  0  0  0  0
   -2.7922   -1.3725   -2.4683 C   0  0  0  0  0  0  0  0  0  0  0  0
   -2.3781   -2.1119   -1.7484 H   0  0  0  0  0  0  0  0  0  0  0  0
   -1.9404   -0.7372   -2.7911 H   0  0  0  0  0  0  0  0  0  0  0  0
   -3.1599   -1.9221   -3.3558 H   0  0  0  0  0  0  0  0  0  0  0  0
  1  6  1  6  0  0  0
  1 16  1  0  0  0  0
  2 42  1  0  0  0  0
  4 17  1  0  0  0  0
  5 19  1  0  0  0  0
  5 18  1  0  0  0  0
  6  7  1  0  0  0  0
  7  2  1  0  0  0  0
  8  9  1  0  0  0  0
  8  7  2  0  0  0  0
 10  8  1  0  0  0  0
 11 10  1  0  0  0  0
 12 10  2  0  0  0  0
 12 14  1  0  0  0  0
 13 12  1  0  0  0  0
 14  6  2  0  0  0  0
 15 14  1  0  0  0  0
 16  3  1  0  0  0  0
 16 26  1  1  0  0  0
 17 30  1  1  0  0  0
 17  3  1  0  0  0  0
 18 34  1  6  0  0  0
 18  4  1  0  0  0  0
 18 20  1  0  0  0  0
 19 38  1  6  0  0  0
 19 23  1  0  0  0  0
 19  1  1  0  0  0  0
 20 16  1  0  0  0  0
 20 21  1  0  0  0  0
 22 20  1  0  0  0  0
 23 24  1  0  0  0  0
 23 17  1  0  0  0  0
 25 23  1  0  0  0  0
 26 28  1  0  0  0  0
 26 29  1  0  0  0  0
 27 26  1  0  0  0  0
 30 31  1  0  0  0  0
 30 33  1  0  0  0  0
 32 30  1  0  0  0  0
 34 36  1  0  0  0  0
 35 34  1  0  0  0  0
 37 34  1  0  0  0  0
 38 39  1  0  0  0  0
 40 38  1  0  0  0  0
 41 38  1  0  0  0  0
 42 50  2  0  0  0  0
 42 43  1  0  0  0  0
 43 44  2  0  0  0  0
 44 46  1  0  0  0  0
 44 45  1  0  0  0  0
 46 47  1  0  0  0  0
 48 49  1  0  0  0  0
 48 46  2  0  0  0  0
 50 48  1  0  0  0  0
 51 50  1  0  0  0  0
 52 43  1  0  0  0  0
 52 55  1  0  0  0  0
 53 52  1  0  0  0  0
 54 52  1  0  0  0  0
 56 64  1  0  0  0  0
 56  2  1  0  0  0  0
 57 56  2  0  0  0  0
 58 57  1  0  0  0  0
 58 60  2  0  0  0  0
 59 58  1  0  0  0  0
 60 62  1  0  0  0  0
 61 60  1  0  0  0  0
 62 63  1  0  0  0  0
 62 64  2  0  0  0  0
 64 65  1  0  0  0  0
 66 57  1  0  0  0  0
 66 67  1  0  0  0  0
 68 66  1  0  0  0  0
 69 66  1  0  0  0  0
M  END
