1
 OpenBabel05122313063D

 72 76  0  0  0  0  0  0  0  0999 V2000
   -1.9305   -1.0093   -0.3734 P   0  0  0  0  0  0  0  0  0  0  0  0
   -0.5902   -0.5101    2.1070 N   0  0  0  0  0  0  0  0  0  0  0  0
   -0.6416   -0.7390    3.4391 N   0  0  0  0  0  0  0  0  0  0  0  0
    2.3803    0.9793    0.7689 N   0  0  0  0  0  0  0  0  0  0  0  0
    1.6213    2.0935    0.8580 N   0  0  0  0  0  0  0  0  0  0  0  0
   -1.7375   -1.4841    3.6335 C   0  0  0  0  0  0  0  0  0  0  0  0
   -2.0030   -1.8078    4.6479 H   0  0  0  0  0  0  0  0  0  0  0  0
   -2.4069   -1.7464    2.4180 C   0  0  0  0  0  0  0  0  0  0  0  0
   -3.3211   -2.3280    2.2725 H   0  0  0  0  0  0  0  0  0  0  0  0
   -1.6461   -1.1045    1.4289 C   0  0  0  0  0  0  0  0  0  0  0  0
    0.4432    1.7019    1.3661 C   0  0  0  0  0  0  0  0  0  0  0  0
    0.4631    0.2938    1.6029 C   0  0  0  0  0  0  0  0  0  0  0  0
    1.7302   -0.1560    1.2017 C   0  0  0  0  0  0  0  0  0  0  0  0
   -3.6910   -0.2818   -0.5615 C   0  0  0  0  0  0  0  0  0  0  0  0
   -3.7178    0.9692    0.3343 C   0  0  0  0  0  0  0  0  0  0  0  0
   -2.8910    1.6673    0.0942 H   0  0  0  0  0  0  0  0  0  0  0  0
   -4.6730    1.5094    0.1671 H   0  0  0  0  0  0  0  0  0  0  0  0
   -3.6504    0.7180    1.4095 H   0  0  0  0  0  0  0  0  0  0  0  0
   -4.8196   -1.2427   -0.1640 C   0  0  0  0  0  0  0  0  0  0  0  0
   -4.8811   -2.1218   -0.8343 H   0  0  0  0  0  0  0  0  0  0  0  0
   -4.7291   -1.5953    0.8809 H   0  0  0  0  0  0  0  0  0  0  0  0
   -5.7872   -0.7033   -0.2415 H   0  0  0  0  0  0  0  0  0  0  0  0
   -3.8725    0.1565   -2.0281 C   0  0  0  0  0  0  0  0  0  0  0  0
   -3.8637   -0.6936   -2.7353 H   0  0  0  0  0  0  0  0  0  0  0  0
   -4.8543    0.6655   -2.1254 H   0  0  0  0  0  0  0  0  0  0  0  0
   -3.0823    0.8695   -2.3383 H   0  0  0  0  0  0  0  0  0  0  0  0
   -1.7682   -2.8137   -0.9785 C   0  0  0  0  0  0  0  0  0  0  0  0
   -0.2650   -3.1325   -0.8841 C   0  0  0  0  0  0  0  0  0  0  0  0
    0.1082   -3.0750    0.1572 H   0  0  0  0  0  0  0  0  0  0  0  0
   -0.0912   -4.1676   -1.2461 H   0  0  0  0  0  0  0  0  0  0  0  0
    0.3420   -2.4422   -1.5023 H   0  0  0  0  0  0  0  0  0  0  0  0
   -2.2135   -2.8621   -2.4502 C   0  0  0  0  0  0  0  0  0  0  0  0
   -1.7174   -2.0742   -3.0532 H   0  0  0  0  0  0  0  0  0  0  0  0
   -1.9299   -3.8462   -2.8785 H   0  0  0  0  0  0  0  0  0  0  0  0
   -3.3103   -2.7561   -2.5623 H   0  0  0  0  0  0  0  0  0  0  0  0
   -2.5448   -3.8416   -0.1428 C   0  0  0  0  0  0  0  0  0  0  0  0
   -2.1728   -3.8843    0.8983 H   0  0  0  0  0  0  0  0  0  0  0  0
   -3.6342   -3.6549   -0.1246 H   0  0  0  0  0  0  0  0  0  0  0  0
   -2.3883   -4.8459   -0.5900 H   0  0  0  0  0  0  0  0  0  0  0  0
    3.7300    1.0977    0.3190 C   0  0  0  0  0  0  0  0  0  0  0  0
    3.9910    1.8384   -0.8458 C   0  0  0  0  0  0  0  0  0  0  0  0
    3.1456    2.2740   -1.3981 H   0  0  0  0  0  0  0  0  0  0  0  0
    5.3155    1.9633   -1.2869 C   0  0  0  0  0  0  0  0  0  0  0  0
    5.5271    2.5369   -2.2018 H   0  0  0  0  0  0  0  0  0  0  0  0
    6.3638    1.3512   -0.5799 C   0  0  0  0  0  0  0  0  0  0  0  0
    7.4005    1.4492   -0.9357 H   0  0  0  0  0  0  0  0  0  0  0  0
    6.0878    0.6156    0.5842 C   0  0  0  0  0  0  0  0  0  0  0  0
    6.9060    0.1428    1.1479 H   0  0  0  0  0  0  0  0  0  0  0  0
    4.7699    0.4918    1.0449 C   0  0  0  0  0  0  0  0  0  0  0  0
    4.5436   -0.0661    1.9644 H   0  0  0  0  0  0  0  0  0  0  0  0
   -0.6725    2.6440    1.5348 C   0  0  0  0  0  0  0  0  0  0  0  0
   -0.8766    3.6540    0.5676 C   0  0  0  0  0  0  0  0  0  0  0  0
   -0.1847    3.7146   -0.2856 H   0  0  0  0  0  0  0  0  0  0  0  0
   -1.9587    4.5353    0.6902 C   0  0  0  0  0  0  0  0  0  0  0  0
   -2.1162    5.3139   -0.0717 H   0  0  0  0  0  0  0  0  0  0  0  0
   -2.8462    4.4211    1.7742 C   0  0  0  0  0  0  0  0  0  0  0  0
   -3.6975    5.1130    1.8660 H   0  0  0  0  0  0  0  0  0  0  0  0
   -2.6417    3.4242    2.7421 C   0  0  0  0  0  0  0  0  0  0  0  0
   -3.3280    3.3381    3.5984 H   0  0  0  0  0  0  0  0  0  0  0  0
   -1.5615    2.5377    2.6263 C   0  0  0  0  0  0  0  0  0  0  0  0
   -1.3924    1.7632    3.3893 H   0  0  0  0  0  0  0  0  0  0  0  0
    2.2441   -1.5272    1.1024 C   0  0  0  0  0  0  0  0  0  0  0  0
    2.9221   -1.9665   -0.0585 C   0  0  0  0  0  0  0  0  0  0  0  0
    3.0931   -1.2636   -0.8867 H   0  0  0  0  0  0  0  0  0  0  0  0
    3.3444   -3.2969   -0.1655 C   0  0  0  0  0  0  0  0  0  0  0  0
    3.8662   -3.6289   -1.0758 H   0  0  0  0  0  0  0  0  0  0  0  0
    3.0924   -4.2080    0.8744 C   0  0  0  0  0  0  0  0  0  0  0  0
    3.4238   -5.2536    0.7844 H   0  0  0  0  0  0  0  0  0  0  0  0
    2.4160   -3.7792    2.0277 C   0  0  0  0  0  0  0  0  0  0  0  0
    2.2180   -4.4869    2.8470 H   0  0  0  0  0  0  0  0  0  0  0  0
    1.9953   -2.4468    2.1466 C   0  0  0  0  0  0  0  0  0  0  0  0
    1.4709   -2.1033    3.0507 H   0  0  0  0  0  0  0  0  0  0  0  0
  1 10  1  0  0  0  0
  2  3  1  0  0  0  0
  3  6  2  0  0  0  0
  4  5  1  0  0  0  0
  4 13  1  0  0  0  0
  5 11  2  0  0  0  0
  6  7  1  0  0  0  0
  8  6  1  0  0  0  0
  9  8  1  0  0  0  0
 10  2  1  0  0  0  0
 10  8  2  0  0  0  0
 11 51  1  0  0  0  0
 11 12  1  0  0  0  0
 12  2  1  0  0  0  0
 13 12  2  0  0  0  0
 14  1  1  0  0  0  0
 14 19  1  0  0  0  0
 14 15  1  0  0  0  0
 15 18  1  0  0  0  0
 16 15  1  0  0  0  0
 17 15  1  0  0  0  0
 19 21  1  0  0  0  0
 20 19  1  0  0  0  0
 22 19  1  0  0  0  0
 23 14  1  0  0  0  0
 24 23  1  0  0  0  0
 25 23  1  0  0  0  0
 26 23  1  0  0  0  0
 27 28  1  0  0  0  0
 27  1  1  0  0  0  0
 27 36  1  0  0  0  0
 28 29  1  0  0  0  0
 30 28  1  0  0  0  0
 31 28  1  0  0  0  0
 32 27  1  0  0  0  0
 33 32  1  0  0  0  0
 34 32  1  0  0  0  0
 35 32  1  0  0  0  0
 36 38  1  0  0  0  0
 36 37  1  0  0  0  0
 39 36  1  0  0  0  0
 40  4  1  0  0  0  0
 40 49  1  0  0  0  0
 41 40  2  0  0  0  0
 42 41  1  0  0  0  0
 43 41  1  0  0  0  0
 43 45  2  0  0  0  0
 44 43  1  0  0  0  0
 45 47  1  0  0  0  0
 46 45  1  0  0  0  0
 47 49  2  0  0  0  0
 47 48  1  0  0  0  0
 49 50  1  0  0  0  0
 51 60  1  0  0  0  0
 52 54  1  0  0  0  0
 52 51  2  0  0  0  0
 53 52  1  0  0  0  0
 54 56  2  0  0  0  0
 55 54  1  0  0  0  0
 56 57  1  0  0  0  0
 56 58  1  0  0  0  0
 58 59  1  0  0  0  0
 60 58  2  0  0  0  0
 60 61  1  0  0  0  0
 62 13  1  0  0  0  0
 62 71  1  0  0  0  0
 63 62  2  0  0  0  0
 64 63  1  0  0  0  0
 65 63  1  0  0  0  0
 65 67  2  0  0  0  0
 66 65  1  0  0  0  0
 67 69  1  0  0  0  0
 68 67  1  0  0  0  0
 69 71  2  0  0  0  0
 69 70  1  0  0  0  0
 71 72  1  0  0  0  0
M  END
