1
 OpenBabel05122313063D

  3  2  0  0  0  0  0  0  0  0999 V2000
    0.9207   -3.3251    0.1305 P   0  0  0  0  0  2  0  0  0  0  0  0
    2.1448   -3.3983    0.8923 H   0  0  0  0  0  0  0  0  0  0  0  0
    1.5979   -3.5158   -1.1307 H   0  0  0  0  0  0  0  0  0  0  0  0
  1  2  1  0  0  0  0
  3  1  1  0  0  0  0
M  END
