1
 OpenBabel05122313063D

 62 64  0  0  0  0  0  0  0  0999 V2000
   -0.0001    0.4999    0.5774 P   0  0  0  0  0  0  0  0  0  0  0  0
   -1.2716   -0.7226   -0.2867 B   0  0  0  0  0  0  0  0  0  0  0  0
   -2.5513   -1.2254    0.0253 N   0  0  0  0  0  0  0  0  0  0  0  0
   -3.1444   -0.9614    1.3995 C   0  0  0  0  0  0  0  0  0  0  0  0
   -4.6560   -1.2831    1.4802 C   0  0  0  0  0  0  0  0  0  0  0  0
   -5.0577   -2.5901    0.8226 C   0  0  0  0  0  0  0  0  0  0  0  0
   -4.6802   -2.4697   -0.6425 C   0  0  0  0  0  0  0  0  0  0  0  0
   -3.1663   -2.2727   -0.8933 C   0  0  0  0  0  0  0  0  0  0  0  0
   -3.0362    0.5313    1.7531 C   0  0  0  0  0  0  0  0  0  0  0  0
   -2.3854   -1.8108    2.4401 C   0  0  0  0  0  0  0  0  0  0  0  0
   -2.4463   -3.6208   -0.6868 C   0  0  0  0  0  0  0  0  0  0  0  0
   -3.0618   -1.8172   -2.3624 C   0  0  0  0  0  0  0  0  0  0  0  0
   -0.0001   -1.0034   -1.7269 P   0  0  0  0  0  0  0  0  0  0  0  0
    1.2714   -0.7228   -0.2867 B   0  0  0  0  0  0  0  0  0  0  0  0
    2.5510   -1.2257    0.0253 N   0  0  0  0  0  0  0  0  0  0  0  0
    3.1443   -0.9619    1.3995 C   0  0  0  0  0  0  0  0  0  0  0  0
    4.6558   -1.2841    1.4801 C   0  0  0  0  0  0  0  0  0  0  0  0
    5.0570   -2.5912    0.8224 C   0  0  0  0  0  0  0  0  0  0  0  0
    4.6795   -2.4707   -0.6426 C   0  0  0  0  0  0  0  0  0  0  0  0
    3.1657   -2.2731   -0.8933 C   0  0  0  0  0  0  0  0  0  0  0  0
    3.0368    0.5309    1.7531 C   0  0  0  0  0  0  0  0  0  0  0  0
    2.3850   -1.8109    2.4401 C   0  0  0  0  0  0  0  0  0  0  0  0
    2.4453   -3.6211   -0.6869 C   0  0  0  0  0  0  0  0  0  0  0  0
    3.0613   -1.8175   -2.3624 C   0  0  0  0  0  0  0  0  0  0  0  0
   -0.0002    0.3462    2.0041 H   0  0  0  0  0  0  0  0  0  0  0  0
   -5.2187   -0.4591    0.9901 H   0  0  0  0  0  0  0  0  0  0  0  0
   -4.9350   -1.2558    2.5532 H   0  0  0  0  0  0  0  0  0  0  0  0
   -6.1479   -2.7625    0.9323 H   0  0  0  0  0  0  0  0  0  0  0  0
   -4.5544   -3.4571    1.3012 H   0  0  0  0  0  0  0  0  0  0  0  0
   -4.9902   -3.3615   -1.2245 H   0  0  0  0  0  0  0  0  0  0  0  0
   -5.2284   -1.6055   -1.0766 H   0  0  0  0  0  0  0  0  0  0  0  0
   -2.0146    0.8517    2.0130 H   0  0  0  0  0  0  0  0  0  0  0  0
   -3.6665    0.7454    2.6389 H   0  0  0  0  0  0  0  0  0  0  0  0
   -3.3967    1.1577    0.9153 H   0  0  0  0  0  0  0  0  0  0  0  0
   -2.7351   -1.5751    3.4654 H   0  0  0  0  0  0  0  0  0  0  0  0
   -1.2977   -1.6073    2.3907 H   0  0  0  0  0  0  0  0  0  0  0  0
   -2.5312   -2.8954    2.2704 H   0  0  0  0  0  0  0  0  0  0  0  0
   -1.3521   -3.5065   -0.8046 H   0  0  0  0  0  0  0  0  0  0  0  0
   -2.7990   -4.3654   -1.4285 H   0  0  0  0  0  0  0  0  0  0  0  0
   -2.6343   -4.0335    0.3236 H   0  0  0  0  0  0  0  0  0  0  0  0
   -2.0419   -1.8715   -2.7815 H   0  0  0  0  0  0  0  0  0  0  0  0
   -3.4141   -0.7726   -2.4683 H   0  0  0  0  0  0  0  0  0  0  0  0
   -3.7024   -2.4698   -2.9886 H   0  0  0  0  0  0  0  0  0  0  0  0
   -0.0002   -2.4024   -2.0387 H   0  0  0  0  0  0  0  0  0  0  0  0
    4.9348   -1.2569    2.5531 H   0  0  0  0  0  0  0  0  0  0  0  0
    5.2188   -0.4603    0.9900 H   0  0  0  0  0  0  0  0  0  0  0  0
    4.5534   -3.4581    1.3010 H   0  0  0  0  0  0  0  0  0  0  0  0
    6.1472   -2.7640    0.9322 H   0  0  0  0  0  0  0  0  0  0  0  0
    5.2280   -1.6066   -1.0767 H   0  0  0  0  0  0  0  0  0  0  0  0
    4.9892   -3.3625   -1.2247 H   0  0  0  0  0  0  0  0  0  0  0  0
    2.0153    0.8517    2.0133 H   0  0  0  0  0  0  0  0  0  0  0  0
    3.3972    1.1571    0.9151 H   0  0  0  0  0  0  0  0  0  0  0  0
    3.6675    0.7448    2.6386 H   0  0  0  0  0  0  0  0  0  0  0  0
    2.7348   -1.5753    3.4654 H   0  0  0  0  0  0  0  0  0  0  0  0
    2.5302   -2.8955    2.2705 H   0  0  0  0  0  0  0  0  0  0  0  0
    1.2973   -1.6068    2.3908 H   0  0  0  0  0  0  0  0  0  0  0  0
    1.3511   -3.5064   -0.8047 H   0  0  0  0  0  0  0  0  0  0  0  0
    2.6332   -4.0339    0.3234 H   0  0  0  0  0  0  0  0  0  0  0  0
    2.7977   -4.3657   -1.4287 H   0  0  0  0  0  0  0  0  0  0  0  0
    2.0413   -1.8716   -2.7815 H   0  0  0  0  0  0  0  0  0  0  0  0
    3.7017   -2.4703   -2.9887 H   0  0  0  0  0  0  0  0  0  0  0  0
    3.4139   -0.7731   -2.4683 H   0  0  0  0  0  0  0  0  0  0  0  0
  1 25  1  0  0  0  0
  2  3  1  0  0  0  0
  2  1  1  0  0  0  0
  3  4  1  0  0  0  0
  4  5  1  0  0  0  0
  4  9  1  0  0  0  0
  4 10  1  0  0  0  0
  5 27  1  0  0  0  0
  6 28  1  0  0  0  0
  6 29  1  0  0  0  0
  6  5  1  0  0  0  0
  7  6  1  0  0  0  0
  8 11  1  0  0  0  0
  8  7  1  0  0  0  0
  8  3  1  0  0  0  0
  9 32  1  0  0  0  0
  9 33  1  0  0  0  0
 10 35  1  0  0  0  0
 11 40  1  0  0  0  0
 12  8  1  0  0  0  0
 13  2  1  0  0  0  0
 13 14  1  0  0  0  0
 14 15  1  0  0  0  0
 14  1  1  0  0  0  0
 15 16  1  0  0  0  0
 16 17  1  0  0  0  0
 16 21  1  0  0  0  0
 16 22  1  0  0  0  0
 17 45  1  0  0  0  0
 18 48  1  0  0  0  0
 18 47  1  0  0  0  0
 18 17  1  0  0  0  0
 19 18  1  0  0  0  0
 20 23  1  0  0  0  0
 20 19  1  0  0  0  0
 20 15  1  0  0  0  0
 21 51  1  0  0  0  0
 21 53  1  0  0  0  0
 22 54  1  0  0  0  0
 23 58  1  0  0  0  0
 24 20  1  0  0  0  0
 26  5  1  0  0  0  0
 30  7  1  0  0  0  0
 31  7  1  0  0  0  0
 34  9  1  0  0  0  0
 36 10  1  0  0  0  0
 37 10  1  0  0  0  0
 38 11  1  0  0  0  0
 39 11  1  0  0  0  0
 41 12  1  0  0  0  0
 42 12  1  0  0  0  0
 43 12  1  0  0  0  0
 44 13  1  0  0  0  0
 46 17  1  0  0  0  0
 49 19  1  0  0  0  0
 50 19  1  0  0  0  0
 52 21  1  0  0  0  0
 55 22  1  0  0  0  0
 56 22  1  0  0  0  0
 57 23  1  0  0  0  0
 59 23  1  0  0  0  0
 60 24  1  0  0  0  0
 61 24  1  0  0  0  0
 62 24  1  0  0  0  0
M  END
