1
 OpenBabel05122313063D

 52 56  0  0  0  0  0  0  0  0999 V2000
    0.0845   -0.8828    0.7688 P   0  0  0  0  0  0  0  0  0  0  0  0
    1.0060   -1.2014   -0.6047 O   0  0  0  0  0  0  0  0  0  0  0  0
    1.1096    0.2222    1.5243 O   0  0  0  0  0  0  0  0  0  0  0  0
    0.2375   -2.1071    1.9043 N   0  0  0  0  0  0  0  0  0  0  0  0
   -0.8738   -3.0215    2.1285 C   0  0  0  0  0  0  0  0  0  0  0  0
   -0.6474   -4.0418    1.7469 H   0  0  0  0  0  0  0  0  0  0  0  0
   -1.7752   -2.6515    1.6005 H   0  0  0  0  0  0  0  0  0  0  0  0
   -1.0963   -3.0897    3.2163 H   0  0  0  0  0  0  0  0  0  0  0  0
    1.4761   -2.4364    2.5980 C   0  0  0  0  0  0  0  0  0  0  0  0
    1.2937   -2.4751    3.6949 H   0  0  0  0  0  0  0  0  0  0  0  0
    2.2443   -1.6685    2.4003 H   0  0  0  0  0  0  0  0  0  0  0  0
    1.8705   -3.4240    2.2725 H   0  0  0  0  0  0  0  0  0  0  0  0
    2.3483   -1.5010   -0.4530 C   0  0  0  0  0  0  0  0  0  0  0  0
    2.7677   -2.8310   -0.5897 C   0  0  0  0  0  0  0  0  0  0  0  0
    2.0266   -3.5945   -0.8662 H   0  0  0  0  0  0  0  0  0  0  0  0
    4.1082   -3.1383   -0.3478 C   0  0  0  0  0  0  0  0  0  0  0  0
    4.4536   -4.1799   -0.4482 H   0  0  0  0  0  0  0  0  0  0  0  0
    5.0249   -2.1520    0.0720 C   0  0  0  0  0  0  0  0  0  0  0  0
    4.5993   -0.8041    0.1811 C   0  0  0  0  0  0  0  0  0  0  0  0
    3.2556   -0.4644   -0.1464 C   0  0  0  0  0  0  0  0  0  0  0  0
    6.4312   -2.5827    0.4535 C   0  0  0  0  0  0  0  0  0  0  0  0
    6.8244   -3.2764   -0.3200 H   0  0  0  0  0  0  0  0  0  0  0  0
    6.3646   -3.1896    1.3855 H   0  0  0  0  0  0  0  0  0  0  0  0
    7.4009   -1.4216    0.6849 C   0  0  0  0  0  0  0  0  0  0  0  0
    7.7186   -0.9926   -0.2915 H   0  0  0  0  0  0  0  0  0  0  0  0
    8.3220   -1.7891    1.1821 H   0  0  0  0  0  0  0  0  0  0  0  0
    4.2104    2.6195   -3.2371 C   0  0  0  0  0  0  0  0  0  0  0  0
    5.0269    2.3787   -3.9483 H   0  0  0  0  0  0  0  0  0  0  0  0
    3.2590    2.5508   -3.8100 H   0  0  0  0  0  0  0  0  0  0  0  0
    5.5431    0.2549    0.7213 C   0  0  0  0  0  0  0  0  0  0  0  0
    4.9664    0.9789    1.3327 H   0  0  0  0  0  0  0  0  0  0  0  0
    5.9570    0.8512   -0.1215 H   0  0  0  0  0  0  0  0  0  0  0  0
    1.6749    1.2389    0.7625 C   0  0  0  0  0  0  0  0  0  0  0  0
    2.7361    0.9339   -0.1174 C   0  0  0  0  0  0  0  0  0  0  0  0
    3.2210    1.9503   -0.9892 C   0  0  0  0  0  0  0  0  0  0  0  0
    2.7171    3.2693   -0.8710 C   0  0  0  0  0  0  0  0  0  0  0  0
    1.7340    3.5500    0.0991 C   0  0  0  0  0  0  0  0  0  0  0  0
    1.3575    4.5809    0.1988 H   0  0  0  0  0  0  0  0  0  0  0  0
    1.1895    2.5457    0.9021 C   0  0  0  0  0  0  0  0  0  0  0  0
    0.3913    2.7512    1.6264 H   0  0  0  0  0  0  0  0  0  0  0  0
    4.2053    1.6037   -2.0922 C   0  0  0  0  0  0  0  0  0  0  0  0
    5.2355    1.5535   -1.6751 H   0  0  0  0  0  0  0  0  0  0  0  0
    3.9904    0.5811   -2.4639 H   0  0  0  0  0  0  0  0  0  0  0  0
    6.7185   -0.3286    1.5090 C   0  0  0  0  0  0  0  0  0  0  0  0
    7.4317    0.4792    1.7724 H   0  0  0  0  0  0  0  0  0  0  0  0
    6.3574   -0.7592    2.4697 H   0  0  0  0  0  0  0  0  0  0  0  0
    4.3666    4.0329   -2.6740 C   0  0  0  0  0  0  0  0  0  0  0  0
    4.4828    4.7818   -3.4842 H   0  0  0  0  0  0  0  0  0  0  0  0
    5.2971    4.0791   -2.0652 H   0  0  0  0  0  0  0  0  0  0  0  0
    3.1566    4.3838   -1.8052 C   0  0  0  0  0  0  0  0  0  0  0  0
    2.2968    4.6347   -2.4678 H   0  0  0  0  0  0  0  0  0  0  0  0
    3.3489    5.3041   -1.2132 H   0  0  0  0  0  0  0  0  0  0  0  0
  1  3  1  0  0  0  0
  1  4  1  0  0  0  0
  2 13  1  0  0  0  0
  2  1  1  0  0  0  0
  4  5  1  0  0  0  0
  4  9  1  0  0  0  0
  5  8  1  0  0  0  0
  6  5  1  0  0  0  0
  7  5  1  0  0  0  0
  9 10  1  0  0  0  0
 11  9  1  0  0  0  0
 12  9  1  0  0  0  0
 13 20  1  0  0  0  0
 14 13  2  0  0  0  0
 14 16  1  0  0  0  0
 15 14  1  0  0  0  0
 16 18  2  0  0  0  0
 17 16  1  0  0  0  0
 18 19  1  0  0  0  0
 18 21  1  0  0  0  0
 19 30  1  0  0  0  0
 20 34  1  0  0  0  0
 20 19  2  0  0  0  0
 21 24  1  0  0  0  0
 21 23  1  0  0  0  0
 22 21  1  0  0  0  0
 24 26  1  0  0  0  0
 24 44  1  0  0  0  0
 25 24  1  0  0  0  0
 27 47  1  0  0  0  0
 27 41  1  0  0  0  0
 28 27  1  0  0  0  0
 29 27  1  0  0  0  0
 30 31  1  0  0  0  0
 30 44  1  0  0  0  0
 32 30  1  0  0  0  0
 33 39  1  0  0  0  0
 33  3  1  0  0  0  0
 34 33  2  0  0  0  0
 35 36  2  0  0  0  0
 35 34  1  0  0  0  0
 36 37  1  0  0  0  0
 37 38  1  0  0  0  0
 37 39  2  0  0  0  0
 39 40  1  0  0  0  0
 41 42  1  0  0  0  0
 41 35  1  0  0  0  0
 43 41  1  0  0  0  0
 44 45  1  0  0  0  0
 44 46  1  0  0  0  0
 47 49  1  0  0  0  0
 47 50  1  0  0  0  0
 48 47  1  0  0  0  0
 50 52  1  0  0  0  0
 50 36  1  0  0  0  0
 51 50  1  0  0  0  0
M  END
