1
 OpenBabel05122313063D

 46 48  0  0  0  0  0  0  0  0999 V2000
    0.3565    0.6188    0.3691 P   0  0  0  0  0  0  0  0  0  0  0  0
    1.5242   -0.6196   -0.3097 C   0  0  0  0  0  0  0  0  0  0  0  0
    1.2238   -2.0155   -0.2463 C   0  0  0  0  0  0  0  0  0  0  0  0
    0.0040   -2.3493    0.2235 O   0  0  0  0  0  0  0  0  0  0  0  0
   -0.3256   -3.6965    0.5442 C   0  0  0  0  0  0  0  0  0  0  0  0
   -0.4404   -4.3110   -0.3750 H   0  0  0  0  0  0  0  0  0  0  0  0
   -1.2841   -3.6282    1.0977 H   0  0  0  0  0  0  0  0  0  0  0  0
    0.4486   -4.1497    1.1992 H   0  0  0  0  0  0  0  0  0  0  0  0
    2.1574   -2.9777   -0.6616 C   0  0  0  0  0  0  0  0  0  0  0  0
    1.9408   -4.0512   -0.6210 H   0  0  0  0  0  0  0  0  0  0  0  0
    3.4074   -2.5663   -1.1601 C   0  0  0  0  0  0  0  0  0  0  0  0
    4.2432   -3.5675   -1.5393 O   0  0  0  0  0  0  0  0  0  0  0  0
    5.5201   -3.2327   -2.0496 C   0  0  0  0  0  0  0  0  0  0  0  0
    5.4489   -2.6254   -2.9798 H   0  0  0  0  0  0  0  0  0  0  0  0
    6.0232   -4.1889   -2.2840 H   0  0  0  0  0  0  0  0  0  0  0  0
    6.1314   -2.6762   -1.3045 H   0  0  0  0  0  0  0  0  0  0  0  0
    3.7348   -1.1995   -1.2571 C   0  0  0  0  0  0  0  0  0  0  0  0
    4.7021   -0.8802   -1.6566 H   0  0  0  0  0  0  0  0  0  0  0  0
    2.7885   -0.2452   -0.8335 C   0  0  0  0  0  0  0  0  0  0  0  0
    3.0186    1.0907   -0.9070 O   0  0  0  0  0  0  0  0  0  0  0  0
    4.2787    1.5631   -1.3407 C   0  0  0  0  0  0  0  0  0  0  0  0
    5.1038    1.1843   -0.6984 H   0  0  0  0  0  0  0  0  0  0  0  0
    4.2383    2.6651   -1.2609 H   0  0  0  0  0  0  0  0  0  0  0  0
    4.4824    1.2836   -2.3983 H   0  0  0  0  0  0  0  0  0  0  0  0
    1.3425    1.6088    1.5735 C   0  0  0  0  0  0  0  0  0  0  0  0
    1.4263    1.0996    2.8858 C   0  0  0  0  0  0  0  0  0  0  0  0
    0.8923    0.1687    3.1389 H   0  0  0  0  0  0  0  0  0  0  0  0
    2.1670    1.7804    3.8630 C   0  0  0  0  0  0  0  0  0  0  0  0
    2.2276    1.3725    4.8834 H   0  0  0  0  0  0  0  0  0  0  0  0
    2.8083    2.9884    3.5451 C   0  0  0  0  0  0  0  0  0  0  0  0
    3.3774    3.5308    4.3154 H   0  0  0  0  0  0  0  0  0  0  0  0
    2.7101    3.5098    2.2445 C   0  0  0  0  0  0  0  0  0  0  0  0
    3.2042    4.4613    1.9935 H   0  0  0  0  0  0  0  0  0  0  0  0
    1.9873    2.8215    1.2588 C   0  0  0  0  0  0  0  0  0  0  0  0
    1.9199    3.2256    0.2387 H   0  0  0  0  0  0  0  0  0  0  0  0
   -0.0186    1.7614   -1.0196 C   0  0  0  0  0  0  0  0  0  0  0  0
   -0.6803    2.9777   -0.7403 C   0  0  0  0  0  0  0  0  0  0  0  0
   -0.8707    3.2701    0.3044 H   0  0  0  0  0  0  0  0  0  0  0  0
   -1.1122    3.8059   -1.7856 C   0  0  0  0  0  0  0  0  0  0  0  0
   -1.6252    4.7519   -1.5542 H   0  0  0  0  0  0  0  0  0  0  0  0
   -0.9061    3.4234   -3.1224 C   0  0  0  0  0  0  0  0  0  0  0  0
   -1.2540    4.0698   -3.9423 H   0  0  0  0  0  0  0  0  0  0  0  0
   -0.2571    2.2108   -3.4051 C   0  0  0  0  0  0  0  0  0  0  0  0
   -0.0948    1.9026   -4.4494 H   0  0  0  0  0  0  0  0  0  0  0  0
    0.1888    1.3852   -2.3614 C   0  0  0  0  0  0  0  0  0  0  0  0
    0.6911    0.4320   -2.5853 H   0  0  0  0  0  0  0  0  0  0  0  0
  1 25  1  0  0  0  0
  2  3  1  0  0  0  0
  2  1  1  0  0  0  0
  3  4  1  0  0  0  0
  4  5  1  0  0  0  0
  5  7  1  0  0  0  0
  5  8  1  0  0  0  0
  6  5  1  0  0  0  0
  9 10  1  0  0  0  0
  9  3  2  0  0  0  0
 11  9  1  0  0  0  0
 12 11  1  0  0  0  0
 13 12  1  0  0  0  0
 13 16  1  0  0  0  0
 14 13  1  0  0  0  0
 15 13  1  0  0  0  0
 17 11  2  0  0  0  0
 17 19  1  0  0  0  0
 18 17  1  0  0  0  0
 19  2  2  0  0  0  0
 20 19  1  0  0  0  0
 21 23  1  0  0  0  0
 21 20  1  0  0  0  0
 21 22  1  0  0  0  0
 24 21  1  0  0  0  0
 25 26  1  0  0  0  0
 26 27  1  0  0  0  0
 26 28  2  0  0  0  0
 28 29  1  0  0  0  0
 30 28  1  0  0  0  0
 30 31  1  0  0  0  0
 32 30  2  0  0  0  0
 33 32  1  0  0  0  0
 34 25  2  0  0  0  0
 34 32  1  0  0  0  0
 35 34  1  0  0  0  0
 36 37  1  0  0  0  0
 36  1  1  0  0  0  0
 37 38  1  0  0  0  0
 39 40  1  0  0  0  0
 39 37  2  0  0  0  0
 41 39  1  0  0  0  0
 42 41  1  0  0  0  0
 43 41  2  0  0  0  0
 43 45  1  0  0  0  0
 44 43  1  0  0  0  0
 45 36  2  0  0  0  0
 46 45  1  0  0  0  0
M  END
