1
 OpenBabel05122313063D

 51 51  0  0  0  0  0  0  0  0999 V2000
    0.3382    0.0815    0.0515 P   0  0  2  0  0  0  0  0  0  0  0  0
    1.5247    2.7422   -1.0910 Si  0  0  0  0  0  0  0  0  0  0  0  0
    2.6378    1.4586    1.7147 Si  0  0  0  0  0  0  0  0  0  0  0  0
    0.8413   -1.1884    1.1315 N   0  0  0  0  0  0  0  0  0  0  0  0
    1.1965   -0.4931   -1.3429 N   0  0  0  0  0  0  0  0  0  0  0  0
    2.4963   -2.3546   -1.9275 N   0  0  0  0  0  0  0  0  0  0  0  0
    1.7402   -3.3463    0.8960 N   0  0  0  0  0  0  0  0  0  0  0  0
    1.7338   -1.6424   -1.0297 C   0  0  0  0  0  0  0  0  0  0  0  0
    1.4290   -2.0988    0.3995 C   0  0  0  0  0  0  0  0  0  0  0  0
    1.1781    1.6538    0.4730 C   0  0  0  0  0  0  0  0  0  0  0  0
    0.4056    2.2253    1.0353 H   0  0  0  0  0  0  0  0  0  0  0  0
    1.3591    4.5467   -0.5427 C   0  0  0  0  0  0  0  0  0  0  0  0
    2.0733    4.8318    0.2529 H   0  0  0  0  0  0  0  0  0  0  0  0
    0.3299    4.7314   -0.1704 H   0  0  0  0  0  0  0  0  0  0  0  0
    1.5263    5.2188   -1.4099 H   0  0  0  0  0  0  0  0  0  0  0  0
    0.2772    2.4655   -2.4825 C   0  0  0  0  0  0  0  0  0  0  0  0
   -0.7621    2.6741   -2.1644 H   0  0  0  0  0  0  0  0  0  0  0  0
    0.3281    1.4309   -2.8708 H   0  0  0  0  0  0  0  0  0  0  0  0
    0.5199    3.1636   -3.3113 H   0  0  0  0  0  0  0  0  0  0  0  0
    3.2478    2.3859   -1.7888 C   0  0  0  0  0  0  0  0  0  0  0  0
    3.4199    3.0129   -2.6879 H   0  0  0  0  0  0  0  0  0  0  0  0
    3.3046    1.3222   -2.0960 H   0  0  0  0  0  0  0  0  0  0  0  0
    4.0652    2.5917   -1.0702 H   0  0  0  0  0  0  0  0  0  0  0  0
    3.9417    0.2226    1.1052 C   0  0  0  0  0  0  0  0  0  0  0  0
    4.8807    0.3702    1.6782 H   0  0  0  0  0  0  0  0  0  0  0  0
    4.1744    0.3621    0.0316 H   0  0  0  0  0  0  0  0  0  0  0  0
    3.6144   -0.8236    1.2589 H   0  0  0  0  0  0  0  0  0  0  0  0
    1.9392    0.9175    3.3854 C   0  0  0  0  0  0  0  0  0  0  0  0
    2.7556    0.7771    4.1241 H   0  0  0  0  0  0  0  0  0  0  0  0
    1.3795   -0.0327    3.2820 H   0  0  0  0  0  0  0  0  0  0  0  0
    1.2452    1.6835    3.7889 H   0  0  0  0  0  0  0  0  0  0  0  0
    3.4837    3.1370    1.9696 C   0  0  0  0  0  0  0  0  0  0  0  0
    2.7655    3.9026    2.3268 H   0  0  0  0  0  0  0  0  0  0  0  0
    3.9720    3.5233    1.0533 H   0  0  0  0  0  0  0  0  0  0  0  0
    4.2673    3.0257    2.7481 H   0  0  0  0  0  0  0  0  0  0  0  0
    3.7243   -3.0158   -1.4937 C   0  0  0  0  0  0  0  0  0  0  0  0
    4.6051   -2.3612   -1.6857 H   0  0  0  0  0  0  0  0  0  0  0  0
    3.8724   -3.9671   -2.0450 H   0  0  0  0  0  0  0  0  0  0  0  0
    3.6870   -3.2268   -0.4110 H   0  0  0  0  0  0  0  0  0  0  0  0
    2.5283   -1.8517   -3.2941 C   0  0  0  0  0  0  0  0  0  0  0  0
    1.5093   -1.5621   -3.6085 H   0  0  0  0  0  0  0  0  0  0  0  0
    2.9159   -2.6478   -3.9598 H   0  0  0  0  0  0  0  0  0  0  0  0
    3.1798   -0.9528   -3.3914 H   0  0  0  0  0  0  0  0  0  0  0  0
    1.4501   -4.5317    0.0871 C   0  0  0  0  0  0  0  0  0  0  0  0
    0.4278   -4.9088    0.3126 H   0  0  0  0  0  0  0  0  0  0  0  0
    2.1844   -5.3352    0.2994 H   0  0  0  0  0  0  0  0  0  0  0  0
    1.4847   -4.2834   -0.9876 H   0  0  0  0  0  0  0  0  0  0  0  0
    1.5142   -3.5294    2.3248 C   0  0  0  0  0  0  0  0  0  0  0  0
    1.9714   -2.6948    2.8871 H   0  0  0  0  0  0  0  0  0  0  0  0
    1.9749   -4.4858    2.6395 H   0  0  0  0  0  0  0  0  0  0  0  0
    0.4282   -3.5451    2.5696 H   0  0  0  0  0  0  0  0  0  0  0  0
  1 10  1  1  0  0  0
  1  4  1  0  0  0  0
  2 12  1  0  0  0  0
  2 10  1  0  0  0  0
  3 32  1  0  0  0  0
  3 28  1  0  0  0  0
  5  8  2  0  0  0  0
  5  1  1  0  0  0  0
  6 36  1  0  0  0  0
  6  8  1  0  0  0  0
  7 48  1  0  0  0  0
  8  9  1  0  0  0  0
  9  7  1  0  0  0  0
  9  4  2  0  0  0  0
 10 11  1  0  0  0  0
 10  3  1  0  0  0  0
 12 14  1  0  0  0  0
 12 13  1  0  0  0  0
 15 12  1  0  0  0  0
 16 17  1  0  0  0  0
 16  2  1  0  0  0  0
 18 16  1  0  0  0  0
 19 16  1  0  0  0  0
 20  2  1  0  0  0  0
 20 23  1  0  0  0  0
 21 20  1  0  0  0  0
 22 20  1  0  0  0  0
 24 27  1  0  0  0  0
 24 25  1  0  0  0  0
 24  3  1  0  0  0  0
 26 24  1  0  0  0  0
 28 31  1  0  0  0  0
 28 29  1  0  0  0  0
 30 28  1  0  0  0  0
 32 33  1  0  0  0  0
 32 35  1  0  0  0  0
 34 32  1  0  0  0  0
 36 39  1  0  0  0  0
 37 36  1  0  0  0  0
 38 36  1  0  0  0  0
 40  6  1  0  0  0  0
 41 40  1  0  0  0  0
 42 40  1  0  0  0  0
 43 40  1  0  0  0  0
 44 46  1  0  0  0  0
 44 45  1  0  0  0  0
 44  7  1  0  0  0  0
 47 44  1  0  0  0  0
 48 51  1  0  0  0  0
 48 50  1  0  0  0  0
 48 49  1  0  0  0  0
M  END
