1
 OpenBabel05122313063D

 57 56  0  0  0  0  0  0  0  0999 V2000
    0.6154    0.9123    0.0393 P   0  0  0  0  0  0  0  0  0  0  0  0
   -2.4259   -0.2640    0.5711 P   0  0  0  0  0  0  0  0  0  0  0  0
   -1.1878    0.7048   -0.4550 C   0  0  0  0  0  0  0  0  0  0  0  0
    1.0841    2.2837   -1.2673 C   0  0  0  0  0  0  0  0  0  0  0  0
    0.8159    1.6460   -2.6465 C   0  0  0  0  0  0  0  0  0  0  0  0
    2.5953    2.5593   -1.1774 C   0  0  0  0  0  0  0  0  0  0  0  0
    0.3150    3.6062   -1.1558 C   0  0  0  0  0  0  0  0  0  0  0  0
    0.4778    1.7246    1.7867 C   0  0  0  0  0  0  0  0  0  0  0  0
    0.3491    0.5494    2.7757 C   0  0  0  0  0  0  0  0  0  0  0  0
    1.7881    2.4668    2.0936 C   0  0  0  0  0  0  0  0  0  0  0  0
   -0.7276    2.6573    1.9783 C   0  0  0  0  0  0  0  0  0  0  0  0
   -4.0463    0.2653   -0.3500 C   0  0  0  0  0  0  0  0  0  0  0  0
   -4.1512    1.7972   -0.1937 C   0  0  0  0  0  0  0  0  0  0  0  0
   -5.2371   -0.3445    0.4157 C   0  0  0  0  0  0  0  0  0  0  0  0
   -4.1147   -0.1005   -1.8378 C   0  0  0  0  0  0  0  0  0  0  0  0
   -1.9981   -2.0893    0.1010 C   0  0  0  0  0  0  0  0  0  0  0  0
   -0.9865   -2.5131    1.1847 C   0  0  0  0  0  0  0  0  0  0  0  0
   -1.3488   -2.2616   -1.2799 C   0  0  0  0  0  0  0  0  0  0  0  0
   -3.2355   -2.9916    0.2239 C   0  0  0  0  0  0  0  0  0  0  0  0
   -1.1666    0.3040   -1.4861 H   0  0  0  0  0  0  0  0  0  0  0  0
   -1.6125    1.7251   -0.5161 H   0  0  0  0  0  0  0  0  0  0  0  0
    1.2563    0.6278   -2.6995 H   0  0  0  0  0  0  0  0  0  0  0  0
    1.2830    2.2674   -3.4404 H   0  0  0  0  0  0  0  0  0  0  0  0
   -0.2644    1.5718   -2.8792 H   0  0  0  0  0  0  0  0  0  0  0  0
    2.8830    3.0668   -0.2390 H   0  0  0  0  0  0  0  0  0  0  0  0
    2.9031    3.2135   -2.0217 H   0  0  0  0  0  0  0  0  0  0  0  0
    3.1665    1.6133   -1.2411 H   0  0  0  0  0  0  0  0  0  0  0  0
    0.5758    4.1651   -0.2362 H   0  0  0  0  0  0  0  0  0  0  0  0
   -0.7850    3.4658   -1.1756 H   0  0  0  0  0  0  0  0  0  0  0  0
    0.5715    4.2595   -2.0183 H   0  0  0  0  0  0  0  0  0  0  0  0
    1.1892   -0.1642    2.6579 H   0  0  0  0  0  0  0  0  0  0  0  0
   -0.6010   -0.0011    2.6276 H   0  0  0  0  0  0  0  0  0  0  0  0
    0.3560    0.9409    3.8164 H   0  0  0  0  0  0  0  0  0  0  0  0
    2.6692    1.8325    1.8624 H   0  0  0  0  0  0  0  0  0  0  0  0
    1.8246    2.7207    3.1749 H   0  0  0  0  0  0  0  0  0  0  0  0
    1.8799    3.4154    1.5295 H   0  0  0  0  0  0  0  0  0  0  0  0
   -1.6829    2.1042    1.8813 H   0  0  0  0  0  0  0  0  0  0  0  0
   -0.7366    3.5070    1.2713 H   0  0  0  0  0  0  0  0  0  0  0  0
   -0.7020    3.0819    3.0056 H   0  0  0  0  0  0  0  0  0  0  0  0
   -3.9981    2.1140    0.8589 H   0  0  0  0  0  0  0  0  0  0  0  0
   -5.1662    2.1290   -0.5002 H   0  0  0  0  0  0  0  0  0  0  0  0
   -3.4272    2.3453   -0.8286 H   0  0  0  0  0  0  0  0  0  0  0  0
   -5.1733   -0.1143    1.4990 H   0  0  0  0  0  0  0  0  0  0  0  0
   -5.3035   -1.4412    0.3047 H   0  0  0  0  0  0  0  0  0  0  0  0
   -6.1872    0.0861    0.0316 H   0  0  0  0  0  0  0  0  0  0  0  0
   -3.2576    0.3149   -2.4059 H   0  0  0  0  0  0  0  0  0  0  0  0
   -5.0416    0.3146   -2.2918 H   0  0  0  0  0  0  0  0  0  0  0  0
   -4.1331   -1.1961   -1.9977 H   0  0  0  0  0  0  0  0  0  0  0  0
   -1.4176   -2.4237    2.2020 H   0  0  0  0  0  0  0  0  0  0  0  0
   -0.0671   -1.8946    1.1288 H   0  0  0  0  0  0  0  0  0  0  0  0
   -0.6908   -3.5741    1.0275 H   0  0  0  0  0  0  0  0  0  0  0  0
   -1.9949   -1.9052   -2.1056 H   0  0  0  0  0  0  0  0  0  0  0  0
   -1.1449   -3.3401   -1.4617 H   0  0  0  0  0  0  0  0  0  0  0  0
   -0.3754   -1.7311   -1.3288 H   0  0  0  0  0  0  0  0  0  0  0  0
   -3.9688   -2.8251   -0.5891 H   0  0  0  0  0  0  0  0  0  0  0  0
   -3.7521   -2.8563    1.1960 H   0  0  0  0  0  0  0  0  0  0  0  0
   -2.9153   -4.0545    0.1644 H   0  0  0  0  0  0  0  0  0  0  0  0
  1  8  1  0  0  0  0
  3  1  1  0  0  0  0
  3  2  1  0  0  0  0
  4  6  1  0  0  0  0
  4  7  1  0  0  0  0
  4  1  1  0  0  0  0
  5  4  1  0  0  0  0
  6 25  1  0  0  0  0
  7 28  1  0  0  0  0
  8 11  1  0  0  0  0
  8 10  1  0  0  0  0
  8  9  1  0  0  0  0
  9 33  1  0  0  0  0
 10 35  1  0  0  0  0
 11 39  1  0  0  0  0
 12 13  1  0  0  0  0
 12 14  1  0  0  0  0
 12  2  1  0  0  0  0
 13 40  1  0  0  0  0
 14 43  1  0  0  0  0
 15 12  1  0  0  0  0
 16 19  1  0  0  0  0
 16  2  1  0  0  0  0
 16 17  1  0  0  0  0
 17 49  1  0  0  0  0
 18 16  1  0  0  0  0
 19 56  1  0  0  0  0
 20  3  1  0  0  0  0
 21  3  1  0  0  0  0
 22  5  1  0  0  0  0
 23  5  1  0  0  0  0
 24  5  1  0  0  0  0
 26  6  1  0  0  0  0
 27  6  1  0  0  0  0
 29  7  1  0  0  0  0
 30  7  1  0  0  0  0
 31  9  1  0  0  0  0
 32  9  1  0  0  0  0
 34 10  1  0  0  0  0
 36 10  1  0  0  0  0
 37 11  1  0  0  0  0
 38 11  1  0  0  0  0
 41 13  1  0  0  0  0
 42 13  1  0  0  0  0
 44 14  1  0  0  0  0
 45 14  1  0  0  0  0
 46 15  1  0  0  0  0
 47 15  1  0  0  0  0
 48 15  1  0  0  0  0
 50 17  1  0  0  0  0
 51 17  1  0  0  0  0
 52 18  1  0  0  0  0
 53 18  1  0  0  0  0
 54 18  1  0  0  0  0
 55 19  1  0  0  0  0
 57 19  1  0  0  0  0
M  END
