1
 OpenBabel05122313063D

 43 45  0  0  0  0  0  0  0  0999 V2000
   -0.2225   -0.1020    0.0298 P   0  0  0  0  0  0  0  0  0  0  0  0
   -1.9048   -0.7018   -0.4257 C   0  0  0  0  0  0  0  0  0  0  0  0
   -2.6298   -1.6007    0.3752 C   0  0  0  0  0  0  0  0  0  0  0  0
   -2.1726   -2.0380    1.2748 H   0  0  0  0  0  0  0  0  0  0  0  0
   -3.9386   -1.9592    0.0196 C   0  0  0  0  0  0  0  0  0  0  0  0
   -4.5036   -2.6726    0.6360 H   0  0  0  0  0  0  0  0  0  0  0  0
   -4.5262   -1.4147   -1.1322 C   0  0  0  0  0  0  0  0  0  0  0  0
   -3.8004   -0.5173   -1.9380 C   0  0  0  0  0  0  0  0  0  0  0  0
   -4.2577   -0.1105   -2.8512 H   0  0  0  0  0  0  0  0  0  0  0  0
   -2.4945   -0.1656   -1.5882 C   0  0  0  0  0  0  0  0  0  0  0  0
   -1.9139    0.5160   -2.2277 H   0  0  0  0  0  0  0  0  0  0  0  0
   -5.9562   -1.7494   -1.4869 C   0  0  0  0  0  0  0  0  0  0  0  0
   -6.8132   -0.8156   -0.9996 F   0  0  0  0  0  0  0  0  0  0  0  0
   -6.3382   -2.9439   -0.9770 F   0  0  0  0  0  0  0  0  0  0  0  0
   -6.1426   -1.7950   -2.8272 F   0  0  0  0  0  0  0  0  0  0  0  0
   -0.6697    1.5223    0.7809 C   0  0  0  0  0  0  0  0  0  0  0  0
   -0.1628    2.7176    0.2391 C   0  0  0  0  0  0  0  0  0  0  0  0
    0.5481    2.6690   -0.5983 H   0  0  0  0  0  0  0  0  0  0  0  0
   -0.5591    3.9540    0.7670 C   0  0  0  0  0  0  0  0  0  0  0  0
   -0.1649    4.8875    0.3414 H   0  0  0  0  0  0  0  0  0  0  0  0
   -1.4657    4.0026    1.8377 C   0  0  0  0  0  0  0  0  0  0  0  0
   -1.9955    2.8124    2.3685 C   0  0  0  0  0  0  0  0  0  0  0  0
   -2.7272    2.8567    3.1879 H   0  0  0  0  0  0  0  0  0  0  0  0
   -1.6053    1.5786    1.8367 C   0  0  0  0  0  0  0  0  0  0  0  0
   -2.0486    0.6537    2.2356 H   0  0  0  0  0  0  0  0  0  0  0  0
   -1.8454    5.3307    2.4529 C   0  0  0  0  0  0  0  0  0  0  0  0
   -3.1169    5.3207    2.9182 F   0  0  0  0  0  0  0  0  0  0  0  0
   -1.7390    6.3462    1.5653 F   0  0  0  0  0  0  0  0  0  0  0  0
   -1.0397    5.6295    3.5027 F   0  0  0  0  0  0  0  0  0  0  0  0
    0.3091   -1.2062    1.3983 C   0  0  0  0  0  0  0  0  0  0  0  0
    0.5449   -0.7725    2.7154 C   0  0  0  0  0  0  0  0  0  0  0  0
    0.3615    0.2739    2.9994 H   0  0  0  0  0  0  0  0  0  0  0  0
    1.0200   -1.6761    3.6778 C   0  0  0  0  0  0  0  0  0  0  0  0
    1.2031   -1.3410    4.7084 H   0  0  0  0  0  0  0  0  0  0  0  0
    1.2550   -3.0144    3.3280 C   0  0  0  0  0  0  0  0  0  0  0  0
    1.0228   -3.4513    2.0097 C   0  0  0  0  0  0  0  0  0  0  0  0
    1.2072   -4.5014    1.7405 H   0  0  0  0  0  0  0  0  0  0  0  0
    0.5631   -2.5513    1.0438 C   0  0  0  0  0  0  0  0  0  0  0  0
    0.4045   -2.8761    0.0009 H   0  0  0  0  0  0  0  0  0  0  0  0
    1.8117   -3.9831    4.3463 C   0  0  0  0  0  0  0  0  0  0  0  0
    1.2805   -5.2200    4.1969 F   0  0  0  0  0  0  0  0  0  0  0  0
    3.1557   -4.1101    4.2190 F   0  0  0  0  0  0  0  0  0  0  0  0
    1.5655   -3.5803    5.6151 F   0  0  0  0  0  0  0  0  0  0  0  0
  1 16  1  0  0  0  0
  1 30  1  0  0  0  0
  2  1  1  0  0  0  0
  2  3  1  0  0  0  0
  3  4  1  0  0  0  0
  5  3  2  0  0  0  0
  5  6  1  0  0  0  0
  7  5  1  0  0  0  0
  8 10  1  0  0  0  0
  8  7  2  0  0  0  0
  9  8  1  0  0  0  0
 10  2  2  0  0  0  0
 11 10  1  0  0  0  0
 12  7  1  0  0  0  0
 12 13  1  0  0  0  0
 12 14  1  0  0  0  0
 15 12  1  0  0  0  0
 16 24  1  0  0  0  0
 17 19  1  0  0  0  0
 17 16  2  0  0  0  0
 18 17  1  0  0  0  0
 19 21  2  0  0  0  0
 20 19  1  0  0  0  0
 21 22  1  0  0  0  0
 21 26  1  0  0  0  0
 22 23  1  0  0  0  0
 24 25  1  0  0  0  0
 24 22  2  0  0  0  0
 26 27  1  0  0  0  0
 26 29  1  0  0  0  0
 28 26  1  0  0  0  0
 30 31  1  0  0  0  0
 31 32  1  0  0  0  0
 31 33  2  0  0  0  0
 33 34  1  0  0  0  0
 35 33  1  0  0  0  0
 35 40  1  0  0  0  0
 36 35  2  0  0  0  0
 37 36  1  0  0  0  0
 38 30  2  0  0  0  0
 38 36  1  0  0  0  0
 39 38  1  0  0  0  0
 40 43  1  0  0  0  0
 41 40  1  0  0  0  0
 42 40  1  0  0  0  0
M  END
