1
 OpenBabel05122313063D

 23 23  0  0  0  0  0  0  0  0999 V2000
    0.9210   -1.8918   -0.0252 P   0  0  0  0  0  0  0  0  0  0  0  0
    2.6914   -1.3542   -0.1183 C   0  0  0  0  0  0  0  0  0  0  0  0
    3.3166   -1.0336   -1.3568 C   0  0  0  0  0  0  0  0  0  0  0  0
    4.6269   -0.5125   -1.3222 C   0  0  0  0  0  0  0  0  0  0  0  0
    5.3164   -0.3040   -0.1207 C   0  0  0  0  0  0  0  0  0  0  0  0
    4.6972   -0.6237    1.0944 C   0  0  0  0  0  0  0  0  0  0  0  0
    3.3954   -1.1422    1.0886 C   0  0  0  0  0  0  0  0  0  0  0  0
    2.6566   -1.2516   -2.6940 C   0  0  0  0  0  0  0  0  0  0  0  0
    0.7336   -3.3088   -1.1921 C   0  0  0  0  0  0  0  0  0  0  0  0
    0.8864   -2.7658    1.6097 C   0  0  0  0  0  0  0  0  0  0  0  0
    5.1163   -0.2669   -2.2778 H   0  0  0  0  0  0  0  0  0  0  0  0
    6.3389    0.1022   -0.1365 H   0  0  0  0  0  0  0  0  0  0  0  0
    5.2243   -0.4765    2.0490 H   0  0  0  0  0  0  0  0  0  0  0  0
    2.9271   -1.3789    2.0531 H   0  0  0  0  0  0  0  0  0  0  0  0
    1.5692   -1.0336   -2.6868 H   0  0  0  0  0  0  0  0  0  0  0  0
    3.1280   -0.6189   -3.4701 H   0  0  0  0  0  0  0  0  0  0  0  0
    2.7733   -2.3051   -3.0250 H   0  0  0  0  0  0  0  0  0  0  0  0
    1.6652   -3.9049   -1.2322 H   0  0  0  0  0  0  0  0  0  0  0  0
   -0.0909   -3.9557   -0.8350 H   0  0  0  0  0  0  0  0  0  0  0  0
    0.4565   -2.9293   -2.1916 H   0  0  0  0  0  0  0  0  0  0  0  0
    1.7079   -3.5059    1.6672 H   0  0  0  0  0  0  0  0  0  0  0  0
    0.9771   -2.0514    2.4480 H   0  0  0  0  0  0  0  0  0  0  0  0
   -0.0763   -3.2966    1.7304 H   0  0  0  0  0  0  0  0  0  0  0  0
  1 10  1  0  0  0  0
  2  1  1  0  0  0  0
  2  7  1  0  0  0  0
  3  4  1  0  0  0  0
  3  2  2  0  0  0  0
  4  5  2  0  0  0  0
  5  6  1  0  0  0  0
  6 13  1  0  0  0  0
  7  6  2  0  0  0  0
  7 14  1  0  0  0  0
  8 15  1  0  0  0  0
  8  3  1  0  0  0  0
  9 19  1  0  0  0  0
  9  1  1  0  0  0  0
 10 21  1  0  0  0  0
 10 23  1  0  0  0  0
 10 22  1  0  0  0  0
 11  4  1  0  0  0  0
 12  5  1  0  0  0  0
 16  8  1  0  0  0  0
 17  8  1  0  0  0  0
 18  9  1  0  0  0  0
 20  9  1  0  0  0  0
M  END
