2
 OpenBabel05122313063D

 20 19  0  0  0  0  0  0  0  0999 V2000
   -4.8342    1.0534   -1.5161 S   0  0  0  0  0  0  0  0  0  0  0  0
   -0.5150   -0.3869   -1.6096 P   0  0  0  0  0  0  0  0  0  0  0  0
    0.0775    0.0194   -3.3056 C   0  0  0  0  0  0  0  0  0  0  0  0
   -1.0601   -2.1319   -1.8124 C   0  0  0  0  0  0  0  0  0  0  0  0
   -2.0601    0.6662   -1.5141 C   0  0  0  0  0  0  0  0  0  0  0  0
   -3.3829    0.0281   -1.9427 C   0  0  0  0  0  0  0  0  0  0  0  0
   -4.5973    2.4703   -2.6339 C   0  0  0  0  0  0  0  0  0  0  0  0
    0.8631   -0.6969   -3.6088 H   0  0  0  0  0  0  0  0  0  0  0  0
    0.5113    1.0387   -3.3115 H   0  0  0  0  0  0  0  0  0  0  0  0
   -0.7701   -0.0250   -4.0183 H   0  0  0  0  0  0  0  0  0  0  0  0
   -1.5460   -2.5150   -0.8964 H   0  0  0  0  0  0  0  0  0  0  0  0
   -1.7490   -2.2311   -2.6734 H   0  0  0  0  0  0  0  0  0  0  0  0
   -0.1530   -2.7394   -1.9956 H   0  0  0  0  0  0  0  0  0  0  0  0
   -1.8351    1.5671   -2.1220 H   0  0  0  0  0  0  0  0  0  0  0  0
   -2.1658    1.0280   -0.4763 H   0  0  0  0  0  0  0  0  0  0  0  0
   -3.5754   -0.9113   -1.3843 H   0  0  0  0  0  0  0  0  0  0  0  0
   -3.3983   -0.2156   -3.0265 H   0  0  0  0  0  0  0  0  0  0  0  0
   -3.6899    3.0602   -2.3937 H   0  0  0  0  0  0  0  0  0  0  0  0
   -4.5660    2.1430   -3.6929 H   0  0  0  0  0  0  0  0  0  0  0  0
   -5.4806    3.1229   -2.4963 H   0  0  0  0  0  0  0  0  0  0  0  0
  2  5  1  0  0  0  0
  3  2  1  0  0  0  0
  4  2  1  0  0  0  0
  4 11  1  0  0  0  0
  5 15  1  0  0  0  0
  6  1  1  0  0  0  0
  6  5  1  0  0  0  0
  6 16  1  0  0  0  0
  7 20  1  0  0  0  0
  7 18  1  0  0  0  0
  7  1  1  0  0  0  0
  8  3  1  0  0  0  0
  9  3  1  0  0  0  0
 10  3  1  0  0  0  0
 12  4  1  0  0  0  0
 13  4  1  0  0  0  0
 14  5  1  0  0  0  0
 17  6  1  0  0  0  0
 19  7  1  0  0  0  0
M  END
