1
 OpenBabel05122313063D

 72 76  0  0  0  0  0  0  0  0999 V2000
    0.7341    0.0586    0.6305 P   0  0  2  0  0  0  0  0  0  0  0  0
   -0.9460    1.5748    0.7064 P   0  0  2  0  0  0  0  0  0  0  0  0
   -2.1653    0.0131   -0.3752 P   0  0  1  0  0  0  0  0  0  0  0  0
   -0.9240   -1.4871    0.7705 P   0  0  1  0  0  0  0  0  0  0  0  0
    1.2721    0.1043    2.4278 C   0  0  0  0  0  0  0  0  0  0  0  0
    1.9681    1.4278    2.7766 C   0  0  0  0  0  0  0  0  0  0  0  0
    2.4028    1.4480    4.2500 C   0  0  0  0  0  0  0  0  0  0  0  0
    3.2691    0.2297    4.5949 C   0  0  0  0  0  0  0  0  0  0  0  0
    2.5368   -1.0794    4.2730 C   0  0  0  0  0  0  0  0  0  0  0  0
    2.1065   -1.1291    2.7994 C   0  0  0  0  0  0  0  0  0  0  0  0
   -0.6021    2.8419   -0.6443 C   0  0  0  0  0  0  0  0  0  0  0  0
    0.1812    4.0189   -0.0333 C   0  0  0  0  0  0  0  0  0  0  0  0
    0.4040    5.1452   -1.0534 C   0  0  0  0  0  0  0  0  0  0  0  0
   -0.9160    5.6125   -1.6775 C   0  0  0  0  0  0  0  0  0  0  0  0
   -1.6841    4.4363   -2.2929 C   0  0  0  0  0  0  0  0  0  0  0  0
   -1.9256    3.3249   -1.2618 C   0  0  0  0  0  0  0  0  0  0  0  0
   -3.7107    0.0042    0.7223 C   0  0  0  0  0  0  0  0  0  0  0  0
   -4.5814    1.2339    0.4205 C   0  0  0  0  0  0  0  0  0  0  0  0
   -5.8850    1.2126    1.2323 C   0  0  0  0  0  0  0  0  0  0  0  0
   -6.6639   -0.0901    1.0114 C   0  0  0  0  0  0  0  0  0  0  0  0
   -5.7956   -1.3150    1.3248 C   0  0  0  0  0  0  0  0  0  0  0  0
   -4.4916   -1.3028    0.5137 C   0  0  0  0  0  0  0  0  0  0  0  0
   -0.5478   -2.8380   -0.4956 C   0  0  0  0  0  0  0  0  0  0  0  0
   -1.7605   -3.1702   -1.3792 C   0  0  0  0  0  0  0  0  0  0  0  0
   -1.4254   -4.3045   -2.3585 C   0  0  0  0  0  0  0  0  0  0  0  0
   -0.9223   -5.5548   -1.6260 C   0  0  0  0  0  0  0  0  0  0  0  0
    0.2722   -5.2292   -0.7215 C   0  0  0  0  0  0  0  0  0  0  0  0
   -0.0533   -4.0894    0.2543 C   0  0  0  0  0  0  0  0  0  0  0  0
    0.3117    0.0575    2.9898 H   0  0  0  0  0  0  0  0  0  0  0  0
    2.8598    1.5685    2.1314 H   0  0  0  0  0  0  0  0  0  0  0  0
    1.2818    2.2757    2.5625 H   0  0  0  0  0  0  0  0  0  0  0  0
    1.4975    1.4503    4.8977 H   0  0  0  0  0  0  0  0  0  0  0  0
    2.9471    2.3905    4.4677 H   0  0  0  0  0  0  0  0  0  0  0  0
    4.2125    0.2745    4.0061 H   0  0  0  0  0  0  0  0  0  0  0  0
    3.5632    0.2551    5.6649 H   0  0  0  0  0  0  0  0  0  0  0  0
    1.6358   -1.1662    4.9207 H   0  0  0  0  0  0  0  0  0  0  0  0
    3.1775   -1.9551    4.5065 H   0  0  0  0  0  0  0  0  0  0  0  0
    3.0117   -1.1788    2.1588 H   0  0  0  0  0  0  0  0  0  0  0  0
    1.5212   -2.0517    2.5937 H   0  0  0  0  0  0  0  0  0  0  0  0
    0.0021    2.3584   -1.4414 H   0  0  0  0  0  0  0  0  0  0  0  0
    1.1535    3.6686    0.3715 H   0  0  0  0  0  0  0  0  0  0  0  0
   -0.3960    4.4114    0.8347 H   0  0  0  0  0  0  0  0  0  0  0  0
    0.9283    5.9932   -0.5650 H   0  0  0  0  0  0  0  0  0  0  0  0
    1.0831    4.7772   -1.8517 H   0  0  0  0  0  0  0  0  0  0  0  0
   -0.7265    6.3942   -2.4426 H   0  0  0  0  0  0  0  0  0  0  0  0
   -1.5474    6.0884   -0.8932 H   0  0  0  0  0  0  0  0  0  0  0  0
   -2.6536    4.7768   -2.7133 H   0  0  0  0  0  0  0  0  0  0  0  0
   -1.1008    4.0197   -3.1442 H   0  0  0  0  0  0  0  0  0  0  0  0
   -2.5870    3.7150   -0.4544 H   0  0  0  0  0  0  0  0  0  0  0  0
   -2.4607    2.4700   -1.7277 H   0  0  0  0  0  0  0  0  0  0  0  0
   -3.3729    0.0542    1.7812 H   0  0  0  0  0  0  0  0  0  0  0  0
   -4.8217    1.2533   -0.6671 H   0  0  0  0  0  0  0  0  0  0  0  0
   -4.0114    2.1630    0.6342 H   0  0  0  0  0  0  0  0  0  0  0  0
   -6.5098    2.0918    0.9690 H   0  0  0  0  0  0  0  0  0  0  0  0
   -5.6401    1.3143    2.3134 H   0  0  0  0  0  0  0  0  0  0  0  0
   -7.5861   -0.1002    1.6294 H   0  0  0  0  0  0  0  0  0  0  0  0
   -6.9976   -0.1406   -0.0497 H   0  0  0  0  0  0  0  0  0  0  0  0
   -5.5471   -1.3201    2.4097 H   0  0  0  0  0  0  0  0  0  0  0  0
   -6.3559   -2.2530    1.1275 H   0  0  0  0  0  0  0  0  0  0  0  0
   -4.7256   -1.4210   -0.5690 H   0  0  0  0  0  0  0  0  0  0  0  0
   -3.8563   -2.1700    0.7966 H   0  0  0  0  0  0  0  0  0  0  0  0
    0.2642   -2.4684   -1.1554 H   0  0  0  0  0  0  0  0  0  0  0  0
   -2.6159   -3.4794   -0.7364 H   0  0  0  0  0  0  0  0  0  0  0  0
   -2.0875   -2.2643   -1.9317 H   0  0  0  0  0  0  0  0  0  0  0  0
   -2.3162   -4.5444   -2.9764 H   0  0  0  0  0  0  0  0  0  0  0  0
   -0.6418   -3.9476   -3.0638 H   0  0  0  0  0  0  0  0  0  0  0  0
   -0.6521   -6.3478   -2.3545 H   0  0  0  0  0  0  0  0  0  0  0  0
   -1.7490   -5.9690   -1.0052 H   0  0  0  0  0  0  0  0  0  0  0  0
    1.1422   -4.9286   -1.3455 H   0  0  0  0  0  0  0  0  0  0  0  0
    0.5918   -6.1295   -0.1559 H   0  0  0  0  0  0  0  0  0  0  0  0
    0.8381   -3.8473    0.8695 H   0  0  0  0  0  0  0  0  0  0  0  0
   -0.8467   -4.4166    0.9637 H   0  0  0  0  0  0  0  0  0  0  0  0
  1  2  1  0  0  0  0
  1  4  1  0  0  0  0
  1  5  1  1  0  0  0
  2 11  1  6  0  0  0
  3  2  1  0  0  0  0
  3 17  1  1  0  0  0
  3  4  1  0  0  0  0
  4 23  1  6  0  0  0
  5  6  1  0  0  0  0
  5 10  1  0  0  0  0
  5 29  1  0  0  0  0
  6  7  1  0  0  0  0
  7 33  1  0  0  0  0
  7  8  1  0  0  0  0
  7 32  1  0  0  0  0
  8 35  1  0  0  0  0
  9 37  1  0  0  0  0
  9  8  1  0  0  0  0
  9 36  1  0  0  0  0
 10  9  1  0  0  0  0
 11 12  1  0  0  0  0
 12 41  1  0  0  0  0
 12 42  1  0  0  0  0
 13 43  1  0  0  0  0
 13 12  1  0  0  0  0
 14 13  1  0  0  0  0
 14 46  1  0  0  0  0
 15 14  1  0  0  0  0
 15 16  1  0  0  0  0
 16 11  1  0  0  0  0
 16 49  1  0  0  0  0
 17 51  1  0  0  0  0
 18 53  1  0  0  0  0
 18 17  1  0  0  0  0
 18 19  1  0  0  0  0
 19 55  1  0  0  0  0
 20 19  1  0  0  0  0
 20 21  1  0  0  0  0
 20 56  1  0  0  0  0
 21 58  1  0  0  0  0
 22 17  1  0  0  0  0
 22 61  1  0  0  0  0
 22 21  1  0  0  0  0
 23 28  1  0  0  0  0
 24 63  1  0  0  0  0
 24 23  1  0  0  0  0
 25 26  1  0  0  0  0
 25 24  1  0  0  0  0
 26 68  1  0  0  0  0
 26 27  1  0  0  0  0
 27 70  1  0  0  0  0
 27 28  1  0  0  0  0
 28 71  1  0  0  0  0
 28 72  1  0  0  0  0
 30  6  1  0  0  0  0
 31  6  1  0  0  0  0
 34  8  1  0  0  0  0
 38 10  1  0  0  0  0
 39 10  1  0  0  0  0
 40 11  1  0  0  0  0
 44 13  1  0  0  0  0
 45 14  1  0  0  0  0
 47 15  1  0  0  0  0
 48 15  1  0  0  0  0
 50 16  1  0  0  0  0
 52 18  1  0  0  0  0
 54 19  1  0  0  0  0
 57 20  1  0  0  0  0
 59 21  1  0  0  0  0
 60 22  1  0  0  0  0
 62 23  1  0  0  0  0
 64 24  1  0  0  0  0
 65 25  1  0  0  0  0
 66 25  1  0  0  0  0
 67 26  1  0  0  0  0
 69 27  1  0  0  0  0
M  END
