23
 OpenBabel05122313063D

 52 56  0  0  1  0  0  0  0  0999 V2000
    2.3515    0.3256   -1.0040 Se  0  0  0  0  0  0  0  0  0  0  0  0
    2.9631    0.5929    0.8460 C   0  0  0  0  0  0  0  0  0  0  0  0
    3.4353   -0.5367    1.5345 C   0  0  0  0  0  0  0  0  0  0  0  0
    3.4224   -1.5248    1.0433 H   0  0  0  0  0  0  0  0  0  0  0  0
    3.8919   -0.3823    2.8523 C   0  0  0  0  0  0  0  0  0  0  0  0
    4.2524   -1.2657    3.4007 H   0  0  0  0  0  0  0  0  0  0  0  0
    3.8817    0.8789    3.4702 C   0  0  0  0  0  0  0  0  0  0  0  0
    4.2363    0.9898    4.5059 H   0  0  0  0  0  0  0  0  0  0  0  0
    3.4171    1.9981    2.7629 C   0  0  0  0  0  0  0  0  0  0  0  0
    3.4065    2.9904    3.2390 H   0  0  0  0  0  0  0  0  0  0  0  0
    2.9560    1.8630    1.4426 C   0  0  0  0  0  0  0  0  0  0  0  0
    2.5822    2.7431    0.9003 H   0  0  0  0  0  0  0  0  0  0  0  0
    1.1832    1.8813   -1.1407 C   0  0  0  0  0  0  0  0  0  0  0  0
   -0.2048    1.7508   -0.9089 C   0  0  0  0  0  0  0  0  0  0  0  0
   -1.0216    2.8826   -1.1378 C   0  0  0  0  0  0  0  0  0  0  0  0
   -2.1085    2.7886   -1.0092 H   0  0  0  0  0  0  0  0  0  0  0  0
   -0.4618    4.0968   -1.5630 C   0  0  0  0  0  0  0  0  0  0  0  0
   -1.1203    4.9597   -1.7437 H   0  0  0  0  0  0  0  0  0  0  0  0
    0.9202    4.2114   -1.7728 C   0  0  0  0  0  0  0  0  0  0  0  0
    1.3571    5.1624   -2.1125 H   0  0  0  0  0  0  0  0  0  0  0  0
    1.7451    3.0940   -1.5724 C   0  0  0  0  0  0  0  0  0  0  0  0
    2.8268    3.1592   -1.7661 H   0  0  0  0  0  0  0  0  0  0  0  0
   -0.8474    0.0946   -0.3741 P   0  0  1  0  0  0  0  0  0  0  0  0
   -1.4205    0.2147    1.4523 C   0  0  1  0  0  0  0  0  0  0  0  0
   -2.3651    1.4095    1.6128 C   0  0  0  0  0  0  0  0  0  0  0  0
   -1.8773    2.3535    1.3027 H   0  0  0  0  0  0  0  0  0  0  0  0
   -2.6285    1.4964    2.6874 H   0  0  0  0  0  0  0  0  0  0  0  0
   -3.6644    1.1671    0.8233 C   0  0  1  0  0  0  0  0  0  0  0  0
   -3.3927    1.1088   -0.5951 O   0  0  0  0  0  0  0  0  0  0  0  0
   -2.6282   -0.0214   -1.0532 C   0  0  2  0  0  0  0  0  0  0  0  0
   -3.2160   -1.3042   -0.4680 C   0  0  0  0  0  0  0  0  0  0  0  0
   -2.5627   -2.1721   -0.6965 H   0  0  0  0  0  0  0  0  0  0  0  0
   -4.2186   -1.4593   -0.9176 H   0  0  0  0  0  0  0  0  0  0  0  0
   -3.3899   -1.1673    1.0496 C   0  0  1  0  0  0  0  0  0  0  0  0
   -2.1277   -0.9946    1.7141 O   0  0  0  0  0  0  0  0  0  0  0  0
   -0.2281    0.2494    2.3895 C   0  0  0  0  0  0  0  0  0  0  0  0
   -0.5895    0.2494    3.4377 H   0  0  0  0  0  0  0  0  0  0  0  0
    0.3838    1.1558    2.2190 H   0  0  0  0  0  0  0  0  0  0  0  0
    0.4113   -0.6409    2.2324 H   0  0  0  0  0  0  0  0  0  0  0  0
   -4.2429   -0.0397    1.2907 O   0  0  0  0  0  0  0  0  0  0  0  0
   -4.6943    2.2654    1.0019 C   0  0  0  0  0  0  0  0  0  0  0  0
   -5.5879    2.0214    0.3976 H   0  0  0  0  0  0  0  0  0  0  0  0
   -4.2836    3.2379    0.6699 H   0  0  0  0  0  0  0  0  0  0  0  0
   -4.9852    2.3354    2.0664 H   0  0  0  0  0  0  0  0  0  0  0  0
   -2.6296   -0.0035   -2.5715 C   0  0  0  0  0  0  0  0  0  0  0  0
   -3.6737   -0.0766   -2.9372 H   0  0  0  0  0  0  0  0  0  0  0  0
   -2.0531   -0.8695   -2.9511 H   0  0  0  0  0  0  0  0  0  0  0  0
   -2.1816    0.9281   -2.9684 H   0  0  0  0  0  0  0  0  0  0  0  0
   -4.0241   -2.3843    1.6867 C   0  0  0  0  0  0  0  0  0  0  0  0
   -4.1363   -2.2097    2.7732 H   0  0  0  0  0  0  0  0  0  0  0  0
   -3.3661   -3.2573    1.5186 H   0  0  0  0  0  0  0  0  0  0  0  0
   -5.0182   -2.5734    1.2410 H   0  0  0  0  0  0  0  0  0  0  0  0
  1  2  1  0  0  0  0
  2 11  2  0  0  0  0
  2  3  1  0  0  0  0
  3  5  2  0  0  0  0
  4  3  1  0  0  0  0
  5  6  1  0  0  0  0
  5  7  1  0  0  0  0
  7  8  1  0  0  0  0
  9 10  1  0  0  0  0
  9  7  2  0  0  0  0
 11  9  1  0  0  0  0
 12 11  1  0  0  0  0
 13  1  1  0  0  0  0
 13 14  1  0  0  0  0
 15 16  1  0  0  0  0
 15 14  2  0  0  0  0
 17 15  1  0  0  0  0
 18 17  1  0  0  0  0
 19 21  1  0  0  0  0
 19 17  2  0  0  0  0
 20 19  1  0  0  0  0
 21 13  2  0  0  0  0
 22 21  1  0  0  0  0
 23 14  1  6  0  0  0
 23 24  1  0  0  0  0
 24 25  1  0  0  0  0
 24 35  1  0  0  0  0
 24 36  1  1  0  0  0
 25 27  1  0  0  0  0
 26 25  1  0  0  0  0
 28 41  1  1  0  0  0
 28 40  1  0  0  0  0
 28 25  1  0  0  0  0
 29 28  1  0  0  0  0
 30 45  1  6  0  0  0
 30 29  1  0  0  0  0
 30 31  1  0  0  0  0
 30 23  1  0  0  0  0
 31 34  1  0  0  0  0
 32 31  1  0  0  0  0
 33 31  1  0  0  0  0
 34 40  1  0  0  0  0
 34 49  1  1  0  0  0
 34 35  1  0  0  0  0
 36 37  1  0  0  0  0
 38 36  1  0  0  0  0
 39 36  1  0  0  0  0
 41 44  1  0  0  0  0
 42 41  1  0  0  0  0
 43 41  1  0  0  0  0
 46 45  1  0  0  0  0
 47 45  1  0  0  0  0
 48 45  1  0  0  0  0
 49 50  1  0  0  0  0
 51 49  1  0  0  0  0
 52 49  1  0  0  0  0
M  END
