1
 OpenBabel05122313063D

 45 48  0  0  0  0  0  0  0  0999 V2000
   -1.0749    0.3816    0.0391 P   0  0  0  0  0  0  0  0  0  0  0  0
    1.5987   -0.5148   -1.5736 Se  0  0  0  0  0  0  0  0  0  0  0  0
   -0.6273    1.3707   -1.4568 C   0  0  0  0  0  0  0  0  0  0  0  0
    0.5495    1.0298   -2.1535 C   0  0  0  0  0  0  0  0  0  0  0  0
    0.9479    1.7416   -3.2949 C   0  0  0  0  0  0  0  0  0  0  0  0
    1.8611    1.4517   -3.8367 H   0  0  0  0  0  0  0  0  0  0  0  0
    0.1632    2.8163   -3.7466 C   0  0  0  0  0  0  0  0  0  0  0  0
    0.4675    3.3742   -4.6449 H   0  0  0  0  0  0  0  0  0  0  0  0
   -1.0145    3.1614   -3.0657 C   0  0  0  0  0  0  0  0  0  0  0  0
   -1.6380    3.9916   -3.4298 H   0  0  0  0  0  0  0  0  0  0  0  0
   -1.4108    2.4411   -1.9274 C   0  0  0  0  0  0  0  0  0  0  0  0
   -2.3449    2.6998   -1.4052 H   0  0  0  0  0  0  0  0  0  0  0  0
   -0.5723    1.4229    1.4623 C   0  0  0  0  0  0  0  0  0  0  0  0
   -0.0770    2.7330    1.3182 C   0  0  0  0  0  0  0  0  0  0  0  0
   -0.0060    3.1934    0.3220 H   0  0  0  0  0  0  0  0  0  0  0  0
    0.3406    3.4492    2.4512 C   0  0  0  0  0  0  0  0  0  0  0  0
    0.7346    4.4703    2.3353 H   0  0  0  0  0  0  0  0  0  0  0  0
    0.2624    2.8634    3.7234 C   0  0  0  0  0  0  0  0  0  0  0  0
    0.5942    3.4261    4.6092 H   0  0  0  0  0  0  0  0  0  0  0  0
   -0.2296    1.5543    3.8655 C   0  0  0  0  0  0  0  0  0  0  0  0
   -0.2816    1.0883    4.8610 H   0  0  0  0  0  0  0  0  0  0  0  0
   -0.6403    0.8269    2.7411 C   0  0  0  0  0  0  0  0  0  0  0  0
   -0.9950   -0.2137    2.8355 H   0  0  0  0  0  0  0  0  0  0  0  0
   -2.9008    0.3503    0.0534 C   0  0  0  0  0  0  0  0  0  0  0  0
   -3.6490    1.3586    0.6927 C   0  0  0  0  0  0  0  0  0  0  0  0
   -3.1342    2.1620    1.2420 H   0  0  0  0  0  0  0  0  0  0  0  0
   -5.0511    1.3213    0.6429 C   0  0  0  0  0  0  0  0  0  0  0  0
   -5.6368    2.1057    1.1459 H   0  0  0  0  0  0  0  0  0  0  0  0
   -5.7031    0.2798   -0.0361 C   0  0  0  0  0  0  0  0  0  0  0  0
   -6.8029    0.2488   -0.0674 H   0  0  0  0  0  0  0  0  0  0  0  0
   -4.9551   -0.7316   -0.6620 C   0  0  0  0  0  0  0  0  0  0  0  0
   -5.4664   -1.5580   -1.1780 H   0  0  0  0  0  0  0  0  0  0  0  0
   -3.5550   -0.7036   -0.6155 C   0  0  0  0  0  0  0  0  0  0  0  0
   -2.9582   -1.5059   -1.0757 H   0  0  0  0  0  0  0  0  0  0  0  0
    2.7595    0.4206   -0.2890 C   0  0  0  0  0  0  0  0  0  0  0  0
    2.9783    1.8035   -0.3552 C   0  0  0  0  0  0  0  0  0  0  0  0
    2.5016    2.4167   -1.1334 H   0  0  0  0  0  0  0  0  0  0  0  0
    3.8069    2.4066    0.6061 C   0  0  0  0  0  0  0  0  0  0  0  0
    3.9744    3.4938    0.5687 H   0  0  0  0  0  0  0  0  0  0  0  0
    4.4086    1.6324    1.6088 C   0  0  0  0  0  0  0  0  0  0  0  0
    5.0510    2.1114    2.3629 H   0  0  0  0  0  0  0  0  0  0  0  0
    4.1854    0.2462    1.6520 C   0  0  0  0  0  0  0  0  0  0  0  0
    4.6498   -0.3660    2.4398 H   0  0  0  0  0  0  0  0  0  0  0  0
    3.3573   -0.3731    0.7044 C   0  0  0  0  0  0  0  0  0  0  0  0
    3.1503   -1.4560    0.7465 H   0  0  0  0  0  0  0  0  0  0  0  0
  1 24  1  0  0  0  0
  1 13  1  0  0  0  0
  2 35  1  0  0  0  0
  3  1  1  0  0  0  0
  4  2  1  0  0  0  0
  4  3  2  0  0  0  0
  5  4  1  0  0  0  0
  6  5  1  0  0  0  0
  7  5  2  0  0  0  0
  7  9  1  0  0  0  0
  8  7  1  0  0  0  0
  9 11  2  0  0  0  0
 10  9  1  0  0  0  0
 11  3  1  0  0  0  0
 11 12  1  0  0  0  0
 13 22  1  0  0  0  0
 14 13  2  0  0  0  0
 14 16  1  0  0  0  0
 15 14  1  0  0  0  0
 16 18  2  0  0  0  0
 17 16  1  0  0  0  0
 18 20  1  0  0  0  0
 18 19  1  0  0  0  0
 20 21  1  0  0  0  0
 22 23  1  0  0  0  0
 22 20  2  0  0  0  0
 24 25  1  0  0  0  0
 25 26  1  0  0  0  0
 27 25  2  0  0  0  0
 27 28  1  0  0  0  0
 29 27  1  0  0  0  0
 30 29  1  0  0  0  0
 31 33  1  0  0  0  0
 31 29  2  0  0  0  0
 32 31  1  0  0  0  0
 33 24  2  0  0  0  0
 34 33  1  0  0  0  0
 35 44  1  0  0  0  0
 36 35  2  0  0  0  0
 36 38  1  0  0  0  0
 37 36  1  0  0  0  0
 38 40  2  0  0  0  0
 39 38  1  0  0  0  0
 40 42  1  0  0  0  0
 40 41  1  0  0  0  0
 42 43  1  0  0  0  0
 44 45  1  0  0  0  0
 44 42  2  0  0  0  0
M  END
