1
 OpenBabel05122313063D

 45 47  0  0  1  0  0  0  0  0999 V2000
   -0.3103   -0.7705    0.6256 P   0  0  2  0  0  0  0  0  0  0  0  0
   -1.6024    0.5147    1.0613 C   0  0  2  0  0  0  0  0  0  0  0  0
   -2.1820   -0.0060    1.8585 H   0  0  0  0  0  0  0  0  0  0  0  0
   -2.4501    0.6422   -0.2025 C   0  0  1  0  0  0  0  0  0  0  0  0
   -2.3057   -0.5801   -1.1413 C   0  0  2  0  0  0  0  0  0  0  0  0
   -3.6220   -0.3371   -0.4150 C   0  0  1  0  0  0  0  0  0  0  0  0
   -3.7445   -1.4484    0.5957 C   0  0  0  0  0  0  0  0  0  0  0  0
   -2.6589   -2.2732    0.5709 C   0  0  0  0  0  0  0  0  0  0  0  0
   -1.5971   -1.7455   -0.3935 C   0  0  2  0  0  0  0  0  0  0  0  0
   -2.1598   -0.4189   -2.6330 C   0  0  0  0  0  0  0  0  0  0  0  0
   -2.7772    0.4227   -3.0004 H   0  0  0  0  0  0  0  0  0  0  0  0
   -1.1162   -0.2127   -2.9328 H   0  0  0  0  0  0  0  0  0  0  0  0
   -2.4984   -1.3317   -3.1636 H   0  0  0  0  0  0  0  0  0  0  0  0
   -4.8933    0.0921   -1.1191 C   0  0  0  0  0  0  0  0  0  0  0  0
   -4.7030    0.8079   -1.9359 H   0  0  0  0  0  0  0  0  0  0  0  0
   -5.4112   -0.7968   -1.5346 H   0  0  0  0  0  0  0  0  0  0  0  0
   -5.5816    0.5991   -0.4144 H   0  0  0  0  0  0  0  0  0  0  0  0
   -4.9596   -1.5613    1.4616 C   0  0  0  0  0  0  0  0  0  0  0  0
   -5.1108   -0.6296    2.0492 H   0  0  0  0  0  0  0  0  0  0  0  0
   -5.8819   -1.6958    0.8579 H   0  0  0  0  0  0  0  0  0  0  0  0
   -4.8937   -2.4063    2.1723 H   0  0  0  0  0  0  0  0  0  0  0  0
   -2.4543   -3.5365    1.3476 C   0  0  0  0  0  0  0  0  0  0  0  0
   -1.5095   -3.5051    1.9247 H   0  0  0  0  0  0  0  0  0  0  0  0
   -3.2869   -3.7251    2.0513 H   0  0  0  0  0  0  0  0  0  0  0  0
   -2.3921   -4.4109    0.6645 H   0  0  0  0  0  0  0  0  0  0  0  0
   -0.9372   -2.8101   -1.2675 C   0  0  0  0  0  0  0  0  0  0  0  0
   -1.7007   -3.3423   -1.8701 H   0  0  0  0  0  0  0  0  0  0  0  0
   -0.4103   -3.5618   -0.6482 H   0  0  0  0  0  0  0  0  0  0  0  0
   -0.1952   -2.3702   -1.9603 H   0  0  0  0  0  0  0  0  0  0  0  0
   -1.1002    1.7955    1.6913 C   0  0  0  0  0  0  0  0  0  0  0  0
    0.5209    2.6664    3.1780 C   0  0  0  0  0  0  0  0  0  0  0  0
    0.8494    3.4326    2.4484 H   0  0  0  0  0  0  0  0  0  0  0  0
    1.3830    2.2757    3.7460 H   0  0  0  0  0  0  0  0  0  0  0  0
   -0.2265    3.1199    3.8587 H   0  0  0  0  0  0  0  0  0  0  0  0
   -2.4699    1.9965   -0.8711 C   0  0  0  0  0  0  0  0  0  0  0  0
   -1.0685    3.6673   -1.7617 C   0  0  0  0  0  0  0  0  0  0  0  0
   -1.7392    3.8194   -2.6301 H   0  0  0  0  0  0  0  0  0  0  0  0
   -1.3244    4.4069   -0.9770 H   0  0  0  0  0  0  0  0  0  0  0  0
   -0.0103    3.7728   -2.0556 H   0  0  0  0  0  0  0  0  0  0  0  0
   -0.0391    1.5350    2.4936 O   0  0  0  0  0  0  0  0  0  0  0  0
   -1.5888    2.8997    1.5558 O   0  0  0  0  0  0  0  0  0  0  0  0
   -1.2075    2.3387   -1.2394 O   0  0  0  0  0  0  0  0  0  0  0  0
   -3.4460    2.6791   -1.1102 O   0  0  0  0  0  0  0  0  0  0  0  0
   -0.1685   -1.6489    2.0451 O   0  0  0  0  0  0  0  0  0  0  0  0
    0.7706   -1.6349    2.3128 H   0  0  0  0  0  0  0  0  0  0  0  0
  1  2  1  0  0  0  0
  1 44  1  1  0  0  0
  2 30  1  0  0  0  0
  2  3  1  1  0  0  0
  4 35  1  6  0  0  0
  4  2  1  0  0  0  0
  5 10  1  6  0  0  0
  5  6  1  0  0  0  0
  5  9  1  0  0  0  0
  5  4  1  0  0  0  0
  6 14  1  6  0  0  0
  6  4  1  0  0  0  0
  6  7  1  0  0  0  0
  7 18  1  0  0  0  0
  8  7  2  0  0  0  0
  8 22  1  0  0  0  0
  9 26  1  6  0  0  0
  9  8  1  0  0  0  0
  9  1  1  0  0  0  0
 11 10  1  0  0  0  0
 12 10  1  0  0  0  0
 13 10  1  0  0  0  0
 14 17  1  0  0  0  0
 15 14  1  0  0  0  0
 16 14  1  0  0  0  0
 18 19  1  0  0  0  0
 18 21  1  0  0  0  0
 20 18  1  0  0  0  0
 22 23  1  0  0  0  0
 22 24  1  0  0  0  0
 25 22  1  0  0  0  0
 26 28  1  0  0  0  0
 27 26  1  0  0  0  0
 29 26  1  0  0  0  0
 30 40  1  0  0  0  0
 31 33  1  0  0  0  0
 31 34  1  0  0  0  0
 32 31  1  0  0  0  0
 36 42  1  0  0  0  0
 36 38  1  0  0  0  0
 37 36  1  0  0  0  0
 39 36  1  0  0  0  0
 40 31  1  0  0  0  0
 41 30  2  0  0  0  0
 42 35  1  0  0  0  0
 43 35  2  0  0  0  0
 44 45  1  0  0  0  0
M  END
