1
 OpenBabel05122313063D

 28 29  0  0  0  0  0  0  0  0999 V2000
    1.9298   -0.2582   -0.0851 P   0  0  0  0  0  0  0  0  0  0  0  0
    4.3424    0.1304   -1.2771 F   0  0  0  0  0  0  0  0  0  0  0  0
    2.8622   -3.0965   -1.1559 F   0  0  0  0  0  0  0  0  0  0  0  0
    3.4519   -0.8313   -0.9644 C   0  0  0  0  0  0  0  0  0  0  0  0
    3.7152   -2.0889   -1.3680 C   0  0  0  0  0  0  0  0  0  0  0  0
    4.6208   -2.3573   -1.9350 H   0  0  0  0  0  0  0  0  0  0  0  0
    2.5298    1.3025    0.6621 C   0  0  0  0  0  0  0  0  0  0  0  0
    1.7196    2.4498    0.5648 C   0  0  0  0  0  0  0  0  0  0  0  0
    0.7613    2.3916    0.0278 H   0  0  0  0  0  0  0  0  0  0  0  0
    2.1387    3.6580    1.1390 C   0  0  0  0  0  0  0  0  0  0  0  0
    1.4953    4.5469    1.0588 H   0  0  0  0  0  0  0  0  0  0  0  0
    3.3720    3.7302    1.8040 C   0  0  0  0  0  0  0  0  0  0  0  0
    3.7025    4.6796    2.2522 H   0  0  0  0  0  0  0  0  0  0  0  0
    4.1938    2.5937    1.8852 C   0  0  0  0  0  0  0  0  0  0  0  0
    5.1700    2.6523    2.3899 H   0  0  0  0  0  0  0  0  0  0  0  0
    3.7798    1.3827    1.3135 C   0  0  0  0  0  0  0  0  0  0  0  0
    4.4411    0.5048    1.3600 H   0  0  0  0  0  0  0  0  0  0  0  0
    1.7183   -1.4925    1.2688 C   0  0  0  0  0  0  0  0  0  0  0  0
    0.9539   -2.6407    0.9746 C   0  0  0  0  0  0  0  0  0  0  0  0
    0.5301   -2.7622   -0.0338 H   0  0  0  0  0  0  0  0  0  0  0  0
    0.7185   -3.6041    1.9634 C   0  0  0  0  0  0  0  0  0  0  0  0
    0.1145   -4.4923    1.7261 H   0  0  0  0  0  0  0  0  0  0  0  0
    1.2332   -3.4217    3.2571 C   0  0  0  0  0  0  0  0  0  0  0  0
    1.0409   -4.1729    4.0382 H   0  0  0  0  0  0  0  0  0  0  0  0
    1.9850   -2.2738    3.5559 C   0  0  0  0  0  0  0  0  0  0  0  0
    2.3809   -2.1221    4.5717 H   0  0  0  0  0  0  0  0  0  0  0  0
    2.2314   -1.3096    2.5659 C   0  0  0  0  0  0  0  0  0  0  0  0
    2.7953   -0.4006    2.8175 H   0  0  0  0  0  0  0  0  0  0  0  0
  1  7  1  0  0  0  0
  1 18  1  0  0  0  0
  2  4  1  0  0  0  0
  4  1  1  0  0  0  0
  5  3  1  0  0  0  0
  5  4  2  0  0  0  0
  6  5  1  0  0  0  0
  7 16  1  0  0  0  0
  8  7  2  0  0  0  0
  8 10  1  0  0  0  0
  9  8  1  0  0  0  0
 10 12  2  0  0  0  0
 11 10  1  0  0  0  0
 12 14  1  0  0  0  0
 12 13  1  0  0  0  0
 14 15  1  0  0  0  0
 16 17  1  0  0  0  0
 16 14  2  0  0  0  0
 18 27  1  0  0  0  0
 19 18  2  0  0  0  0
 19 21  1  0  0  0  0
 20 19  1  0  0  0  0
 21 23  2  0  0  0  0
 22 21  1  0  0  0  0
 23 25  1  0  0  0  0
 23 24  1  0  0  0  0
 25 26  1  0  0  0  0
 27 28  1  0  0  0  0
 27 25  2  0  0  0  0
M  END
