2
 OpenBabel05122313063D

 53 56  0  0  0  0  0  0  0  0999 V2000
   -2.0316   -0.4144   -0.8806 P   0  0  0  0  0  4  0  0  0  0  0  0
    0.3236    1.1356   -0.0321 P   0  0  0  0  0  0  0  0  0  0  0  0
   -0.9670   -1.4086   -2.1261 B   0  0  0  0  0  0  0  0  0  0  0  0
   -1.4082    1.3146   -0.7362 C   0  0  0  0  0  0  0  0  0  0  0  0
   -2.0753    1.9610   -0.1334 H   0  0  0  0  0  0  0  0  0  0  0  0
   -1.3374    1.7271   -1.7620 H   0  0  0  0  0  0  0  0  0  0  0  0
   -3.7875   -0.2798   -1.3856 C   0  0  0  0  0  0  0  0  0  0  0  0
   -4.1162    0.5110   -2.5074 C   0  0  0  0  0  0  0  0  0  0  0  0
   -3.3323    1.0682   -3.0431 H   0  0  0  0  0  0  0  0  0  0  0  0
   -5.4424    0.5821   -2.9542 C   0  0  0  0  0  0  0  0  0  0  0  0
   -5.6910    1.2044   -3.8271 H   0  0  0  0  0  0  0  0  0  0  0  0
   -6.4485   -0.1432   -2.2947 C   0  0  0  0  0  0  0  0  0  0  0  0
   -7.4890   -0.0879   -2.6485 H   0  0  0  0  0  0  0  0  0  0  0  0
   -6.1233   -0.9429   -1.1887 C   0  0  0  0  0  0  0  0  0  0  0  0
   -6.9067   -1.5191   -0.6738 H   0  0  0  0  0  0  0  0  0  0  0  0
   -4.7978   -1.0146   -0.7334 C   0  0  0  0  0  0  0  0  0  0  0  0
   -4.5483   -1.6444    0.1333 H   0  0  0  0  0  0  0  0  0  0  0  0
   -2.0316   -1.0524    0.8288 C   0  0  0  0  0  0  0  0  0  0  0  0
   -1.2492   -2.1851    1.1266 C   0  0  0  0  0  0  0  0  0  0  0  0
   -0.7197   -2.7115    0.3157 H   0  0  0  0  0  0  0  0  0  0  0  0
   -1.1578   -2.6467    2.4499 C   0  0  0  0  0  0  0  0  0  0  0  0
   -0.5294   -3.5199    2.6774 H   0  0  0  0  0  0  0  0  0  0  0  0
   -1.8545   -1.9856    3.4703 C   0  0  0  0  0  0  0  0  0  0  0  0
   -1.7789   -2.3440    4.5080 H   0  0  0  0  0  0  0  0  0  0  0  0
   -2.6412   -0.8573    3.1754 C   0  0  0  0  0  0  0  0  0  0  0  0
   -3.1735   -0.3296    3.9804 H   0  0  0  0  0  0  0  0  0  0  0  0
   -2.7289   -0.3871    1.8603 C   0  0  0  0  0  0  0  0  0  0  0  0
   -3.3318    0.5063    1.6372 H   0  0  0  0  0  0  0  0  0  0  0  0
    0.0456    1.4650    1.7617 C   0  0  0  0  0  0  0  0  0  0  0  0
    0.5407    0.5577    2.7156 C   0  0  0  0  0  0  0  0  0  0  0  0
    1.0965   -0.3285    2.3772 H   0  0  0  0  0  0  0  0  0  0  0  0
    0.3115    0.7822    4.0823 C   0  0  0  0  0  0  0  0  0  0  0  0
    0.7009    0.0654    4.8207 H   0  0  0  0  0  0  0  0  0  0  0  0
   -0.4115    1.9081    4.5025 C   0  0  0  0  0  0  0  0  0  0  0  0
   -0.5915    2.0811    5.5746 H   0  0  0  0  0  0  0  0  0  0  0  0
   -0.9002    2.8223    3.5526 C   0  0  0  0  0  0  0  0  0  0  0  0
   -1.4582    3.7134    3.8785 H   0  0  0  0  0  0  0  0  0  0  0  0
   -0.6678    2.6056    2.1876 C   0  0  0  0  0  0  0  0  0  0  0  0
   -1.0332    3.3381    1.4502 H   0  0  0  0  0  0  0  0  0  0  0  0
    1.1702    2.6540   -0.6220 C   0  0  0  0  0  0  0  0  0  0  0  0
    2.0148    3.3760    0.2445 C   0  0  0  0  0  0  0  0  0  0  0  0
    2.1033    3.0777    1.2992 H   0  0  0  0  0  0  0  0  0  0  0  0
    2.7484    4.4700   -0.2386 C   0  0  0  0  0  0  0  0  0  0  0  0
    3.4071    5.0258    0.4455 H   0  0  0  0  0  0  0  0  0  0  0  0
    2.6478    4.8510   -1.5851 C   0  0  0  0  0  0  0  0  0  0  0  0
    3.2246    5.7095   -1.9609 H   0  0  0  0  0  0  0  0  0  0  0  0
    1.8189    4.1249   -2.4557 C   0  0  0  0  0  0  0  0  0  0  0  0
    1.7486    4.4073   -3.5170 H   0  0  0  0  0  0  0  0  0  0  0  0
    1.0919    3.0255   -1.9802 C   0  0  0  0  0  0  0  0  0  0  0  0
    0.4800    2.4396   -2.6839 H   0  0  0  0  0  0  0  0  0  0  0  0
   -1.2803   -2.5893   -2.0666 H   0  0  0  0  0  0  0  0  0  0  0  0
   -1.2568   -0.8775   -3.1971 H   0  0  0  0  0  0  0  0  0  0  0  0
    0.3068   -1.2205   -2.0837 H   0  0  0  0  0  0  0  0  0  0  0  0
  1  4  1  0  0  0  0
  1 18  1  0  0  0  0
  2 29  1  0  0  0  0
  3 53  1  0  0  0  0
  3 51  1  0  0  0  0
  3  1  1  0  0  0  0
  4  5  1  0  0  0  0
  4  2  1  0  0  0  0
  6  4  1  0  0  0  0
  7  1  1  0  0  0  0
  7 16  1  0  0  0  0
  8  7  2  0  0  0  0
  9  8  1  0  0  0  0
 10  8  1  0  0  0  0
 10 12  2  0  0  0  0
 11 10  1  0  0  0  0
 12 14  1  0  0  0  0
 13 12  1  0  0  0  0
 14 16  2  0  0  0  0
 14 15  1  0  0  0  0
 16 17  1  0  0  0  0
 18 19  2  0  0  0  0
 18 27  1  0  0  0  0
 19 21  1  0  0  0  0
 20 19  1  0  0  0  0
 21 22  1  0  0  0  0
 21 23  2  0  0  0  0
 23 24  1  0  0  0  0
 25 23  1  0  0  0  0
 25 26  1  0  0  0  0
 27 25  2  0  0  0  0
 28 27  1  0  0  0  0
 29 38  2  0  0  0  0
 29 30  1  0  0  0  0
 30 32  2  0  0  0  0
 31 30  1  0  0  0  0
 32 34  1  0  0  0  0
 32 33  1  0  0  0  0
 34 35  1  0  0  0  0
 36 37  1  0  0  0  0
 36 34  2  0  0  0  0
 38 36  1  0  0  0  0
 39 38  1  0  0  0  0
 40  2  1  0  0  0  0
 40 41  1  0  0  0  0
 41 42  1  0  0  0  0
 43 41  2  0  0  0  0
 43 44  1  0  0  0  0
 45 43  1  0  0  0  0
 46 45  1  0  0  0  0
 47 49  1  0  0  0  0
 47 45  2  0  0  0  0
 48 47  1  0  0  0  0
 49 40  2  0  0  0  0
 50 49  1  0  0  0  0
 52  3  1  0  0  0  0
M  END
