1
 OpenBabel05122313063D

 22 22  0  0  0  0  0  0  0  0999 V2000
   -1.4602   -0.3123   -1.0900 P   0  0  2  0  0  0  0  0  0  0  0  0
   -1.4441   -0.9767   -2.5878 O   0  0  0  0  0  0  0  0  0  0  0  0
   -0.5552   -0.7121   -2.9740 H   0  0  0  0  0  0  0  0  0  0  0  0
   -2.6098   -1.4441   -0.2307 C   0  0  0  0  0  0  0  0  0  0  0  0
   -3.0875   -1.0765    1.0463 C   0  0  0  0  0  0  0  0  0  0  0  0
   -2.8134   -0.1015    1.4783 H   0  0  0  0  0  0  0  0  0  0  0  0
   -3.9338   -1.9408    1.7543 C   0  0  0  0  0  0  0  0  0  0  0  0
   -4.3086   -1.6489    2.7469 H   0  0  0  0  0  0  0  0  0  0  0  0
   -4.3093   -3.1738    1.1942 C   0  0  0  0  0  0  0  0  0  0  0  0
   -4.9741   -3.8508    1.7515 H   0  0  0  0  0  0  0  0  0  0  0  0
   -3.8466   -3.5369   -0.0806 C   0  0  0  0  0  0  0  0  0  0  0  0
   -4.1552   -4.4943   -0.5269 H   0  0  0  0  0  0  0  0  0  0  0  0
   -2.9993   -2.6762   -0.7958 C   0  0  0  0  0  0  0  0  0  0  0  0
   -2.6441   -2.9424   -1.8024 H   0  0  0  0  0  0  0  0  0  0  0  0
   -2.3298    1.0907   -1.1801 O   0  0  0  0  0  0  0  0  0  0  0  0
   -3.6514    1.1200   -1.7716 C   0  0  0  0  0  0  0  0  0  0  0  0
   -3.6163    0.6109   -2.7582 H   0  0  0  0  0  0  0  0  0  0  0  0
   -4.3533    0.5536   -1.1206 H   0  0  0  0  0  0  0  0  0  0  0  0
   -4.0697    2.5694   -1.9087 C   0  0  0  0  0  0  0  0  0  0  0  0
   -4.0880    3.0701   -0.9201 H   0  0  0  0  0  0  0  0  0  0  0  0
   -5.0844    2.6332   -2.3491 H   0  0  0  0  0  0  0  0  0  0  0  0
   -3.3699    3.1217   -2.5665 H   0  0  0  0  0  0  0  0  0  0  0  0
  1  2  1  6  0  0  0
  1  4  1  0  0  0  0
  3  2  1  0  0  0  0
  4  5  1  0  0  0  0
  5  6  1  0  0  0  0
  5  7  2  0  0  0  0
  7  8  1  0  0  0  0
  9 10  1  0  0  0  0
  9  7  1  0  0  0  0
 11  9  2  0  0  0  0
 12 11  1  0  0  0  0
 13  4  2  0  0  0  0
 13 11  1  0  0  0  0
 14 13  1  0  0  0  0
 15  1  1  0  0  0  0
 16 15  1  0  0  0  0
 16 18  1  0  0  0  0
 17 16  1  0  0  0  0
 19 16  1  0  0  0  0
 19 20  1  0  0  0  0
 21 19  1  0  0  0  0
 22 19  1  0  0  0  0
M  END
