1
 OpenBabel05122313063D

 36 37  0  0  0  0  0  0  0  0999 V2000
    0.4439    0.8491   -0.1440 P   0  0  0  0  0  0  0  0  0  0  0  0
   -0.8254    1.8259   -1.0551 C   0  0  0  0  0  0  0  0  0  0  0  0
   -1.7530    2.6160   -0.3463 C   0  0  0  0  0  0  0  0  0  0  0  0
   -1.6812    2.6903    0.7484 H   0  0  0  0  0  0  0  0  0  0  0  0
   -2.7649    3.3049   -1.0335 C   0  0  0  0  0  0  0  0  0  0  0  0
   -3.4757    3.9305   -0.4715 H   0  0  0  0  0  0  0  0  0  0  0  0
   -2.8616    3.2098   -2.4311 C   0  0  0  0  0  0  0  0  0  0  0  0
   -3.6498    3.7582   -2.9696 H   0  0  0  0  0  0  0  0  0  0  0  0
   -1.9443    2.4180   -3.1405 C   0  0  0  0  0  0  0  0  0  0  0  0
   -2.0149    2.3356   -4.2356 H   0  0  0  0  0  0  0  0  0  0  0  0
   -0.9371    1.7216   -2.4568 C   0  0  0  0  0  0  0  0  0  0  0  0
   -0.2374    1.0900   -3.0235 H   0  0  0  0  0  0  0  0  0  0  0  0
    0.8071    1.9486    1.2929 C   0  0  0  0  0  0  0  0  0  0  0  0
    0.5594    1.5244    2.6115 C   0  0  0  0  0  0  0  0  0  0  0  0
    0.1390    0.5253    2.7904 H   0  0  0  0  0  0  0  0  0  0  0  0
    0.8396    2.3742    3.6935 C   0  0  0  0  0  0  0  0  0  0  0  0
    0.6432    2.0292    4.7197 H   0  0  0  0  0  0  0  0  0  0  0  0
    1.3692    3.6529    3.4672 C   0  0  0  0  0  0  0  0  0  0  0  0
    1.5921    4.3167    4.3164 H   0  0  0  0  0  0  0  0  0  0  0  0
    1.6129    4.0864    2.1529 C   0  0  0  0  0  0  0  0  0  0  0  0
    2.0238    5.0908    1.9688 H   0  0  0  0  0  0  0  0  0  0  0  0
    1.3305    3.2413    1.0713 C   0  0  0  0  0  0  0  0  0  0  0  0
    1.5093    3.5963    0.0447 H   0  0  0  0  0  0  0  0  0  0  0  0
    1.9576    1.0328   -1.2028 C   0  0  0  0  0  0  0  0  0  0  0  0
    1.7957    0.4139   -2.1080 H   0  0  0  0  0  0  0  0  0  0  0  0
    2.0596    2.0804   -1.5504 H   0  0  0  0  0  0  0  0  0  0  0  0
    3.2170    0.5611   -0.4837 C   0  0  0  0  0  0  0  0  0  0  0  0
    3.4959    1.2418    0.3478 H   0  0  0  0  0  0  0  0  0  0  0  0
    3.0675   -0.4302   -0.0060 H   0  0  0  0  0  0  0  0  0  0  0  0
    4.3947    0.4435   -1.4318 C   0  0  0  0  0  0  0  0  0  0  0  0
    4.3675    0.6789   -2.6254 O   0  0  0  0  0  0  0  0  0  0  0  0
    5.5014    0.0296   -0.7709 O   0  0  0  0  0  0  0  0  0  0  0  0
    6.6699   -0.1443   -1.5815 C   0  0  0  0  0  0  0  0  0  0  0  0
    6.4922   -0.9021   -2.3712 H   0  0  0  0  0  0  0  0  0  0  0  0
    7.4699   -0.4807   -0.8984 H   0  0  0  0  0  0  0  0  0  0  0  0
    6.9557    0.8073   -2.0739 H   0  0  0  0  0  0  0  0  0  0  0  0
  1 13  1  0  0  0  0
  2  3  1  0  0  0  0
  2  1  1  0  0  0  0
  3  4  1  0  0  0  0
  5  6  1  0  0  0  0
  5  3  2  0  0  0  0
  7  5  1  0  0  0  0
  8  7  1  0  0  0  0
  9 11  1  0  0  0  0
  9  7  2  0  0  0  0
 10  9  1  0  0  0  0
 11  2  2  0  0  0  0
 12 11  1  0  0  0  0
 13 14  1  0  0  0  0
 14 15  1  0  0  0  0
 14 16  2  0  0  0  0
 16 17  1  0  0  0  0
 18 16  1  0  0  0  0
 18 19  1  0  0  0  0
 20 18  2  0  0  0  0
 21 20  1  0  0  0  0
 22 13  2  0  0  0  0
 22 20  1  0  0  0  0
 23 22  1  0  0  0  0
 24 27  1  0  0  0  0
 24  1  1  0  0  0  0
 25 24  1  0  0  0  0
 26 24  1  0  0  0  0
 27 29  1  0  0  0  0
 27 28  1  0  0  0  0
 30 32  1  0  0  0  0
 30 27  1  0  0  0  0
 31 30  2  0  0  0  0
 33 35  1  0  0  0  0
 33 32  1  0  0  0  0
 34 33  1  0  0  0  0
 36 33  1  0  0  0  0
M  END
