1
 OpenBabel05122313063D

 46 47  0  0  0  0  0  0  0  0999 V2000
    0.3874   -0.3171    0.6582 P   0  0  0  0  0  0  0  0  0  0  0  0
   -0.0658    1.4593    0.5096 C   0  0  0  0  0  0  0  0  0  0  0  0
   -1.0692    1.8764   -0.3906 C   0  0  0  0  0  0  0  0  0  0  0  0
   -1.6817    1.1415   -0.9364 H   0  0  0  0  0  0  0  0  0  0  0  0
   -1.3124    3.2449   -0.5842 C   0  0  0  0  0  0  0  0  0  0  0  0
   -2.1010    3.5590   -1.2846 H   0  0  0  0  0  0  0  0  0  0  0  0
   -0.5588    4.2062    0.1076 C   0  0  0  0  0  0  0  0  0  0  0  0
   -0.7529    5.2783   -0.0494 H   0  0  0  0  0  0  0  0  0  0  0  0
    0.4370    3.7936    1.0078 C   0  0  0  0  0  0  0  0  0  0  0  0
    1.0265    4.5413    1.5612 H   0  0  0  0  0  0  0  0  0  0  0  0
    0.6838    2.4282    1.2101 C   0  0  0  0  0  0  0  0  0  0  0  0
    1.4729    2.1053    1.9055 H   0  0  0  0  0  0  0  0  0  0  0  0
    0.6912   -0.5133    2.4708 C   0  0  0  0  0  0  0  0  0  0  0  0
   -0.1055    0.1668    3.4186 C   0  0  0  0  0  0  0  0  0  0  0  0
   -0.8772    0.8744    3.0822 H   0  0  0  0  0  0  0  0  0  0  0  0
    0.0990   -0.0297    4.7920 C   0  0  0  0  0  0  0  0  0  0  0  0
   -0.5274    0.5097    5.5190 H   0  0  0  0  0  0  0  0  0  0  0  0
    1.1035   -0.9040    5.2376 C   0  0  0  0  0  0  0  0  0  0  0  0
    1.2655   -1.0555    6.3157 H   0  0  0  0  0  0  0  0  0  0  0  0
    1.9062   -1.5747    4.3028 C   0  0  0  0  0  0  0  0  0  0  0  0
    2.7031   -2.2535    4.6419 H   0  0  0  0  0  0  0  0  0  0  0  0
    1.7046   -1.3779    2.9281 C   0  0  0  0  0  0  0  0  0  0  0  0
    2.3448   -1.8982    2.2035 H   0  0  0  0  0  0  0  0  0  0  0  0
   -1.2089   -1.2121    0.3623 C   0  0  0  0  0  0  0  0  0  0  0  0
   -1.4277   -1.0742   -0.7176 H   0  0  0  0  0  0  0  0  0  0  0  0
   -0.9708   -2.2874    0.4913 H   0  0  0  0  0  0  0  0  0  0  0  0
   -2.4368   -0.7929    1.1754 C   0  0  0  0  0  0  0  0  0  0  0  0
   -2.5314   -1.3799    2.1109 H   0  0  0  0  0  0  0  0  0  0  0  0
   -2.3506    0.2731    1.4797 H   0  0  0  0  0  0  0  0  0  0  0  0
   -3.7028   -0.8526    0.3171 C   0  0  0  0  0  0  0  0  0  0  0  0
   -3.7043   -0.4854   -0.8613 O   0  0  0  0  0  0  0  0  0  0  0  0
   -4.8338   -1.2893    0.9448 N   0  0  0  0  0  0  0  0  0  0  0  0
   -4.7803   -1.5744    1.9224 H   0  0  0  0  0  0  0  0  0  0  0  0
   -6.1173   -1.3198    0.2613 C   0  0  0  0  0  0  0  0  0  0  0  0
   -6.8117   -1.9713    0.8248 H   0  0  0  0  0  0  0  0  0  0  0  0
   -5.9733   -1.7824   -0.7363 H   0  0  0  0  0  0  0  0  0  0  0  0
   -6.7279    0.0731    0.0794 C   0  0  0  0  0  0  0  0  0  0  0  0
   -6.8011    0.6032    1.0542 H   0  0  0  0  0  0  0  0  0  0  0  0
   -6.0754    0.6969   -0.5639 H   0  0  0  0  0  0  0  0  0  0  0  0
   -8.1158    0.0066   -0.5218 C   0  0  0  0  0  0  0  0  0  0  0  0
   -8.7852   -1.0042   -0.6359 O   0  0  0  0  0  0  0  0  0  0  0  0
   -8.5388    1.2335   -0.9116 O   0  0  0  0  0  0  0  0  0  0  0  0
   -9.8568    1.2763   -1.4731 C   0  0  0  0  0  0  0  0  0  0  0  0
   -9.9209    0.6392   -2.3783 H   0  0  0  0  0  0  0  0  0  0  0  0
  -10.0458    2.3332   -1.7322 H   0  0  0  0  0  0  0  0  0  0  0  0
  -10.6106    0.9158   -0.7441 H   0  0  0  0  0  0  0  0  0  0  0  0
  1 13  1  0  0  0  0
  2  1  1  0  0  0  0
  2 11  1  0  0  0  0
  3  2  2  0  0  0  0
  4  3  1  0  0  0  0
  5  3  1  0  0  0  0
  5  7  2  0  0  0  0
  6  5  1  0  0  0  0
  7  9  1  0  0  0  0
  8  7  1  0  0  0  0
  9 11  2  0  0  0  0
  9 10  1  0  0  0  0
 11 12  1  0  0  0  0
 13 22  2  0  0  0  0
 13 14  1  0  0  0  0
 14 16  2  0  0  0  0
 15 14  1  0  0  0  0
 16 18  1  0  0  0  0
 16 17  1  0  0  0  0
 18 19  1  0  0  0  0
 20 21  1  0  0  0  0
 20 18  2  0  0  0  0
 22 20  1  0  0  0  0
 23 22  1  0  0  0  0
 24 26  1  0  0  0  0
 24  1  1  0  0  0  0
 24 27  1  0  0  0  0
 25 24  1  0  0  0  0
 27 29  1  0  0  0  0
 27 28  1  0  0  0  0
 30 32  1  0  0  0  0
 30 27  1  0  0  0  0
 31 30  2  0  0  0  0
 32 33  1  0  0  0  0
 34 35  1  0  0  0  0
 34 32  1  0  0  0  0
 36 34  1  0  0  0  0
 37 34  1  0  0  0  0
 37 38  1  0  0  0  0
 39 37  1  0  0  0  0
 40 37  1  0  0  0  0
 41 40  2  0  0  0  0
 42 40  1  0  0  0  0
 43 42  1  0  0  0  0
 43 46  1  0  0  0  0
 44 43  1  0  0  0  0
 45 43  1  0  0  0  0
M  END
