1
 OpenBabel05122313063D

 44 43  0  0  0  0  0  0  0  0999 V2000
    0.4688    0.1357   -0.5257 P   0  0  0  0  0  0  0  0  0  0  0  0
    2.4922   -0.6294    1.7488 Si  0  0  0  0  0  0  0  0  0  0  0  0
    2.9393   -1.5328   -1.3739 Si  0  0  0  0  0  0  0  0  0  0  0  0
    1.0416    3.2441   -0.3290 Si  0  0  0  0  0  0  0  0  0  0  0  0
    1.1547    1.5561   -0.0445 O   0  0  0  0  0  0  0  0  0  0  0  0
    1.7161   -1.0840    0.0368 C   0  0  0  0  0  0  0  0  0  0  0  0
    2.9465   -2.2697    2.5778 C   0  0  0  0  0  0  0  0  0  0  0  0
    4.0238    0.4608    1.5295 C   0  0  0  0  0  0  0  0  0  0  0  0
    1.2917    0.2644    2.9054 C   0  0  0  0  0  0  0  0  0  0  0  0
    3.7260    0.0326   -2.0876 C   0  0  0  0  0  0  0  0  0  0  0  0
    4.2912   -2.7087   -0.7645 C   0  0  0  0  0  0  0  0  0  0  0  0
    1.9548   -2.4202   -2.7274 C   0  0  0  0  0  0  0  0  0  0  0  0
    1.1567    4.0270    1.3730 C   0  0  0  0  0  0  0  0  0  0  0  0
   -0.5742    3.6720   -1.1863 C   0  0  0  0  0  0  0  0  0  0  0  0
    2.5147    3.6998   -1.4079 C   0  0  0  0  0  0  0  0  0  0  0  0
    0.6932    0.2025   -1.9485 H   0  0  0  0  0  0  0  0  0  0  0  0
    1.1315   -2.0090    0.2404 H   0  0  0  0  0  0  0  0  0  0  0  0
    3.6703   -2.8679    1.9916 H   0  0  0  0  0  0  0  0  0  0  0  0
    2.0334   -2.8815    2.7321 H   0  0  0  0  0  0  0  0  0  0  0  0
    3.3919   -2.0768    3.5758 H   0  0  0  0  0  0  0  0  0  0  0  0
    3.7539    1.3946    0.9975 H   0  0  0  0  0  0  0  0  0  0  0  0
    4.8313   -0.0429    0.9618 H   0  0  0  0  0  0  0  0  0  0  0  0
    4.4321    0.7351    2.5240 H   0  0  0  0  0  0  0  0  0  0  0  0
    0.9440    1.2249    2.4830 H   0  0  0  0  0  0  0  0  0  0  0  0
    1.8204    0.4770    3.8584 H   0  0  0  0  0  0  0  0  0  0  0  0
    0.4076   -0.3552    3.1486 H   0  0  0  0  0  0  0  0  0  0  0  0
    4.3364    0.5680   -1.3351 H   0  0  0  0  0  0  0  0  0  0  0  0
    2.9607    0.7388   -2.4663 H   0  0  0  0  0  0  0  0  0  0  0  0
    4.3857   -0.2345   -2.9389 H   0  0  0  0  0  0  0  0  0  0  0  0
    3.8577   -3.6328   -0.3312 H   0  0  0  0  0  0  0  0  0  0  0  0
    4.9454   -2.2439   -0.0005 H   0  0  0  0  0  0  0  0  0  0  0  0
    4.9315   -3.0072   -1.6204 H   0  0  0  0  0  0  0  0  0  0  0  0
    1.4549   -3.3278   -2.3310 H   0  0  0  0  0  0  0  0  0  0  0  0
    2.6277   -2.7347   -3.5519 H   0  0  0  0  0  0  0  0  0  0  0  0
    1.1677   -1.7750   -3.1676 H   0  0  0  0  0  0  0  0  0  0  0  0
    1.1802    5.1336    1.2990 H   0  0  0  0  0  0  0  0  0  0  0  0
    2.0761    3.6981    1.8982 H   0  0  0  0  0  0  0  0  0  0  0  0
    0.2819    3.7404    1.9906 H   0  0  0  0  0  0  0  0  0  0  0  0
   -0.6868    3.1499   -2.1573 H   0  0  0  0  0  0  0  0  0  0  0  0
   -0.6069    4.7631   -1.3875 H   0  0  0  0  0  0  0  0  0  0  0  0
   -1.4495    3.4196   -0.5564 H   0  0  0  0  0  0  0  0  0  0  0  0
    2.5618    4.7975   -1.5632 H   0  0  0  0  0  0  0  0  0  0  0  0
    2.4491    3.2190   -2.4050 H   0  0  0  0  0  0  0  0  0  0  0  0
    3.4665    3.3793   -0.9379 H   0  0  0  0  0  0  0  0  0  0  0  0
  1  5  1  0  0  0  0
  1  6  1  0  0  0  0
  2  7  1  0  0  0  0
  2  9  1  0  0  0  0
  3 11  1  0  0  0  0
  3  6  1  0  0  0  0
  4  5  1  0  0  0  0
  4 13  1  0  0  0  0
  6 17  1  0  0  0  0
  6  2  1  0  0  0  0
  7 19  1  0  0  0  0
  7 20  1  0  0  0  0
  8  2  1  0  0  0  0
  8 23  1  0  0  0  0
  9 26  1  0  0  0  0
  9 25  1  0  0  0  0
 10  3  1  0  0  0  0
 10 27  1  0  0  0  0
 11 30  1  0  0  0  0
 11 31  1  0  0  0  0
 12 33  1  0  0  0  0
 12  3  1  0  0  0  0
 13 37  1  0  0  0  0
 13 38  1  0  0  0  0
 14 41  1  0  0  0  0
 14  4  1  0  0  0  0
 15 44  1  0  0  0  0
 15  4  1  0  0  0  0
 16  1  1  0  0  0  0
 18  7  1  0  0  0  0
 21  8  1  0  0  0  0
 22  8  1  0  0  0  0
 24  9  1  0  0  0  0
 28 10  1  0  0  0  0
 29 10  1  0  0  0  0
 32 11  1  0  0  0  0
 34 12  1  0  0  0  0
 35 12  1  0  0  0  0
 36 13  1  0  0  0  0
 39 14  1  0  0  0  0
 40 14  1  0  0  0  0
 42 15  1  0  0  0  0
 43 15  1  0  0  0  0
M  END
