1
 OpenBabel05122313063D

 54 55  0  0  0  0  0  0  0  0999 V2000
    0.1607    0.4625    0.0817 P   0  0  2  0  0  0  0  0  0  0  0  0
    0.8971    2.8235   -1.8392 Si  0  0  0  0  0  0  0  0  0  0  0  0
   -0.0216    3.3788    1.2561 Si  0  0  0  0  0  0  0  0  0  0  0  0
   -0.7892    0.3607    1.5139 N   0  0  0  0  0  0  0  0  0  0  0  0
   -2.9303   -0.2404    2.2131 N   0  0  0  0  0  0  0  0  0  0  0  0
    0.7962    2.1865   -0.0242 C   0  0  0  0  0  0  0  0  0  0  0  0
   -1.9189    3.3513    1.1471 C   0  0  0  0  0  0  0  0  0  0  0  0
    0.5847    2.9230    2.9860 C   0  0  0  0  0  0  0  0  0  0  0  0
    0.5565    5.1567    0.9232 C   0  0  0  0  0  0  0  0  0  0  0  0
    2.2987    4.0890   -1.9428 C   0  0  0  0  0  0  0  0  0  0  0  0
    1.3473    1.4583   -3.0726 C   0  0  0  0  0  0  0  0  0  0  0  0
   -0.7637    3.5721   -2.3565 C   0  0  0  0  0  0  0  0  0  0  0  0
   -1.2746    0.2107   -1.0159 C   0  0  0  0  0  0  0  0  0  0  0  0
   -2.3479   -0.1419   -0.2483 C   0  0  0  0  0  0  0  0  0  0  0  0
   -2.0228    0.0140    1.2149 C   0  0  0  0  0  0  0  0  0  0  0  0
   -4.3484    0.0673    2.0966 C   0  0  0  0  0  0  0  0  0  0  0  0
   -2.4221   -0.3020    3.5749 C   0  0  0  0  0  0  0  0  0  0  0  0
   -3.5769   -0.7564   -0.8006 C   0  0  0  0  0  0  0  0  0  0  0  0
   -4.2977   -0.1272   -1.8387 C   0  0  0  0  0  0  0  0  0  0  0  0
   -5.4341   -0.7387   -2.3878 C   0  0  0  0  0  0  0  0  0  0  0  0
   -5.8607   -1.9888   -1.9127 C   0  0  0  0  0  0  0  0  0  0  0  0
   -5.1426   -2.6271   -0.8874 C   0  0  0  0  0  0  0  0  0  0  0  0
   -4.0106   -2.0180   -0.3310 C   0  0  0  0  0  0  0  0  0  0  0  0
    1.8581    2.1029    0.2989 H   0  0  0  0  0  0  0  0  0  0  0  0
   -2.3462    2.7100    1.9418 H   0  0  0  0  0  0  0  0  0  0  0  0
   -2.2723    2.9628    0.1721 H   0  0  0  0  0  0  0  0  0  0  0  0
   -2.3251    4.3759    1.2724 H   0  0  0  0  0  0  0  0  0  0  0  0
    0.1245    3.5888    3.7457 H   0  0  0  0  0  0  0  0  0  0  0  0
    1.6861    3.0353    3.0616 H   0  0  0  0  0  0  0  0  0  0  0  0
    0.3205    1.8736    3.2187 H   0  0  0  0  0  0  0  0  0  0  0  0
    0.1474    5.8096    1.7228 H   0  0  0  0  0  0  0  0  0  0  0  0
    0.2041    5.5585   -0.0475 H   0  0  0  0  0  0  0  0  0  0  0  0
    1.6613    5.2448    0.9551 H   0  0  0  0  0  0  0  0  0  0  0  0
    2.4226    4.4205   -2.9945 H   0  0  0  0  0  0  0  0  0  0  0  0
    3.2521    3.6167   -1.6270 H   0  0  0  0  0  0  0  0  0  0  0  0
    2.1315    4.9860   -1.3182 H   0  0  0  0  0  0  0  0  0  0  0  0
    0.6017    0.6459   -3.1574 H   0  0  0  0  0  0  0  0  0  0  0  0
    2.3234    0.9966   -2.8268 H   0  0  0  0  0  0  0  0  0  0  0  0
    1.4429    1.9232   -4.0765 H   0  0  0  0  0  0  0  0  0  0  0  0
   -0.7129    3.9143   -3.4107 H   0  0  0  0  0  0  0  0  0  0  0  0
   -1.0500    4.4402   -1.7302 H   0  0  0  0  0  0  0  0  0  0  0  0
   -1.5751    2.8190   -2.2839 H   0  0  0  0  0  0  0  0  0  0  0  0
   -1.2426    0.0815   -2.1058 H   0  0  0  0  0  0  0  0  0  0  0  0
   -4.6229    0.2953    1.0541 H   0  0  0  0  0  0  0  0  0  0  0  0
   -4.5980    0.9563    2.7195 H   0  0  0  0  0  0  0  0  0  0  0  0
   -4.9717   -0.7846    2.4410 H   0  0  0  0  0  0  0  0  0  0  0  0
   -1.4375   -0.8035    3.5802 H   0  0  0  0  0  0  0  0  0  0  0  0
   -3.1399   -0.8685    4.2007 H   0  0  0  0  0  0  0  0  0  0  0  0
   -2.2854    0.7119    4.0165 H   0  0  0  0  0  0  0  0  0  0  0  0
   -3.9647    0.8571   -2.2027 H   0  0  0  0  0  0  0  0  0  0  0  0
   -5.9909   -0.2343   -3.1920 H   0  0  0  0  0  0  0  0  0  0  0  0
   -6.7519   -2.4688   -2.3442 H   0  0  0  0  0  0  0  0  0  0  0  0
   -5.4639   -3.6142   -0.5217 H   0  0  0  0  0  0  0  0  0  0  0  0
   -3.4363   -2.5211    0.4609 H   0  0  0  0  0  0  0  0  0  0  0  0
  1  6  1  6  0  0  0
  1  4  1  0  0  0  0
  2  6  1  0  0  0  0
  3  8  1  0  0  0  0
  5 17  1  0  0  0  0
  6 24  1  0  0  0  0
  6  3  1  0  0  0  0
  7  3  1  0  0  0  0
  7 27  1  0  0  0  0
  7 25  1  0  0  0  0
  8 29  1  0  0  0  0
  8 30  1  0  0  0  0
  8 28  1  0  0  0  0
  9 33  1  0  0  0  0
  9  3  1  0  0  0  0
  9 31  1  0  0  0  0
 10  2  1  0  0  0  0
 10 35  1  0  0  0  0
 10 36  1  0  0  0  0
 11 38  1  0  0  0  0
 11  2  1  0  0  0  0
 12 42  1  0  0  0  0
 12  2  1  0  0  0  0
 12 41  1  0  0  0  0
 13 14  2  0  0  0  0
 13  1  1  0  0  0  0
 14 15  1  0  0  0  0
 15  4  2  0  0  0  0
 15  5  1  0  0  0  0
 16  5  1  0  0  0  0
 16 46  1  0  0  0  0
 16 45  1  0  0  0  0
 17 47  1  0  0  0  0
 17 49  1  0  0  0  0
 17 48  1  0  0  0  0
 18 23  1  0  0  0  0
 18 14  1  0  0  0  0
 19 18  2  0  0  0  0
 20 21  2  0  0  0  0
 20 19  1  0  0  0  0
 21 22  1  0  0  0  0
 22 53  1  0  0  0  0
 22 23  2  0  0  0  0
 23 54  1  0  0  0  0
 26  7  1  0  0  0  0
 32  9  1  0  0  0  0
 34 10  1  0  0  0  0
 37 11  1  0  0  0  0
 39 11  1  0  0  0  0
 40 12  1  0  0  0  0
 43 13  1  0  0  0  0
 44 16  1  0  0  0  0
 50 19  1  0  0  0  0
 51 20  1  0  0  0  0
 52 21  1  0  0  0  0
M  END
