1
 OpenBabel05122313063D

 42 44  0  0  0  0  0  0  0  0999 V2000
    0.7687    0.1672    0.1876 P   0  0  0  0  0  0  0  0  0  0  0  0
    0.0217   -2.6540    0.1557 O   0  0  0  0  0  0  0  0  0  0  0  0
    3.6136    0.2470   -0.9045 O   0  0  0  0  0  0  0  0  0  0  0  0
    1.8352   -1.2081   -0.3962 C   0  0  0  0  0  0  0  0  0  0  0  0
    1.3180   -2.5208   -0.3299 C   0  0  0  0  0  0  0  0  0  0  0  0
    2.0648   -3.6317   -0.7468 C   0  0  0  0  0  0  0  0  0  0  0  0
    3.3505   -3.4151   -1.2643 C   0  0  0  0  0  0  0  0  0  0  0  0
    3.8977   -2.1305   -1.3562 C   0  0  0  0  0  0  0  0  0  0  0  0
    3.1505   -1.0227   -0.9052 C   0  0  0  0  0  0  0  0  0  0  0  0
   -0.3302   -3.8864    0.8005 C   0  0  0  0  0  0  0  0  0  0  0  0
    4.8469    0.5504   -1.5501 C   0  0  0  0  0  0  0  0  0  0  0  0
    1.0639    1.5793   -0.9300 C   0  0  0  0  0  0  0  0  0  0  0  0
    0.7823    1.3983   -2.2993 C   0  0  0  0  0  0  0  0  0  0  0  0
    0.9513    2.4633   -3.1927 C   0  0  0  0  0  0  0  0  0  0  0  0
    1.3851    3.7152   -2.7228 C   0  0  0  0  0  0  0  0  0  0  0  0
    1.6511    3.8982   -1.3574 C   0  0  0  0  0  0  0  0  0  0  0  0
    1.4934    2.8327   -0.4571 C   0  0  0  0  0  0  0  0  0  0  0  0
    1.3251    0.6261    1.8675 C   0  0  0  0  0  0  0  0  0  0  0  0
    2.6753    0.9433    2.1363 C   0  0  0  0  0  0  0  0  0  0  0  0
    3.0636    1.2731    3.4419 C   0  0  0  0  0  0  0  0  0  0  0  0
    2.1175    1.2891    4.4809 C   0  0  0  0  0  0  0  0  0  0  0  0
    0.7767    0.9703    4.2165 C   0  0  0  0  0  0  0  0  0  0  0  0
    0.3784    0.6362    2.9134 C   0  0  0  0  0  0  0  0  0  0  0  0
    1.6551   -4.6481   -0.6956 H   0  0  0  0  0  0  0  0  0  0  0  0
    3.9415   -4.2766   -1.6083 H   0  0  0  0  0  0  0  0  0  0  0  0
    4.9081   -1.9956   -1.7618 H   0  0  0  0  0  0  0  0  0  0  0  0
    0.4263    0.4217   -2.6643 H   0  0  0  0  0  0  0  0  0  0  0  0
    0.7350    2.3197   -4.2619 H   0  0  0  0  0  0  0  0  0  0  0  0
    1.5091    4.5531   -3.4250 H   0  0  0  0  0  0  0  0  0  0  0  0
    1.9836    4.8790   -0.9860 H   0  0  0  0  0  0  0  0  0  0  0  0
    1.7074    2.9795    0.6118 H   0  0  0  0  0  0  0  0  0  0  0  0
    3.4129    0.9294    1.3215 H   0  0  0  0  0  0  0  0  0  0  0  0
    4.1154    1.5192    3.6512 H   0  0  0  0  0  0  0  0  0  0  0  0
    2.4293    1.5499    5.5034 H   0  0  0  0  0  0  0  0  0  0  0  0
    0.0349    0.9800    5.0288 H   0  0  0  0  0  0  0  0  0  0  0  0
   -0.6713    0.3810    2.6972 H   0  0  0  0  0  0  0  0  0  0  0  0
   -0.5345   -4.6852    0.0584 H   0  0  0  0  0  0  0  0  0  0  0  0
    0.4805   -4.2061    1.4852 H   0  0  0  0  0  0  0  0  0  0  0  0
   -1.2435   -3.6820    1.3875 H   0  0  0  0  0  0  0  0  0  0  0  0
    4.8283    0.2392   -2.6157 H   0  0  0  0  0  0  0  0  0  0  0  0
    4.9548    1.6484   -1.4927 H   0  0  0  0  0  0  0  0  0  0  0  0
    5.7057    0.0678   -1.0366 H   0  0  0  0  0  0  0  0  0  0  0  0
  1 18  1  0  0  0  0
  2 10  1  0  0  0  0
  4  5  1  0  0  0  0
  4  1  1  0  0  0  0
  5  2  1  0  0  0  0
  6 24  1  0  0  0  0
  6  5  2  0  0  0  0
  7  6  1  0  0  0  0
  8  7  2  0  0  0  0
  8  9  1  0  0  0  0
  9  3  1  0  0  0  0
  9  4  2  0  0  0  0
 10 39  1  0  0  0  0
 10 38  1  0  0  0  0
 11 41  1  0  0  0  0
 11 42  1  0  0  0  0
 11  3  1  0  0  0  0
 12 17  1  0  0  0  0
 12  1  1  0  0  0  0
 13 12  2  0  0  0  0
 14 15  2  0  0  0  0
 14 13  1  0  0  0  0
 15 16  1  0  0  0  0
 16 30  1  0  0  0  0
 16 17  2  0  0  0  0
 17 31  1  0  0  0  0
 18 19  2  0  0  0  0
 18 23  1  0  0  0  0
 19 20  1  0  0  0  0
 20 33  1  0  0  0  0
 20 21  2  0  0  0  0
 21 34  1  0  0  0  0
 22 21  1  0  0  0  0
 22 35  1  0  0  0  0
 23 22  2  0  0  0  0
 25  7  1  0  0  0  0
 26  8  1  0  0  0  0
 27 13  1  0  0  0  0
 28 14  1  0  0  0  0
 29 15  1  0  0  0  0
 32 19  1  0  0  0  0
 36 23  1  0  0  0  0
 37 10  1  0  0  0  0
 40 11  1  0  0  0  0
M  END
