1
 OpenBabel05122313063D

 50 52  0  0  0  0  0  0  0  0999 V2000
   -0.6492   -0.0368    0.2955 P   0  0  0  0  0  0  0  0  0  0  0  0
    0.6400   -2.6575    0.7077 O   0  0  0  0  0  0  0  0  0  0  0  0
   -3.5305   -0.7117   -0.5332 O   0  0  0  0  0  0  0  0  0  0  0  0
   -2.2946    2.5650    0.4801 O   0  0  0  0  0  0  0  0  0  0  0  0
   -0.2899   -0.5006   -2.4739 O   0  0  0  0  0  0  0  0  0  0  0  0
   -1.4572   -1.6703    0.0338 C   0  0  0  0  0  0  0  0  0  0  0  0
   -0.6656   -2.8180    0.2088 C   0  0  0  0  0  0  0  0  0  0  0  0
   -1.1245   -4.1044   -0.0947 C   0  0  0  0  0  0  0  0  0  0  0  0
   -2.4275   -4.2413   -0.5944 C   0  0  0  0  0  0  0  0  0  0  0  0
   -3.2593   -3.1261   -0.7667 C   0  0  0  0  0  0  0  0  0  0  0  0
   -2.7871   -1.8373   -0.4406 C   0  0  0  0  0  0  0  0  0  0  0  0
    0.7188   -2.9419    2.1274 C   0  0  0  0  0  0  0  0  0  0  0  0
   -4.8196   -0.7668   -1.1324 C   0  0  0  0  0  0  0  0  0  0  0  0
   -1.3056    1.0392   -1.0219 C   0  0  0  0  0  0  0  0  0  0  0  0
   -2.0550    2.2277   -0.8048 C   0  0  0  0  0  0  0  0  0  0  0  0
   -2.4934    2.9949   -1.9049 C   0  0  0  0  0  0  0  0  0  0  0  0
   -2.1849    2.5786   -3.2055 C   0  0  0  0  0  0  0  0  0  0  0  0
   -1.4455    1.4139   -3.4501 C   0  0  0  0  0  0  0  0  0  0  0  0
   -1.0084    0.6461   -2.3553 C   0  0  0  0  0  0  0  0  0  0  0  0
   -3.0137    3.7519    0.7806 C   0  0  0  0  0  0  0  0  0  0  0  0
    0.0804   -0.9646   -3.7645 C   0  0  0  0  0  0  0  0  0  0  0  0
   -1.1543    0.5320    1.9578 C   0  0  0  0  0  0  0  0  0  0  0  0
   -0.2378    1.3051    2.6992 C   0  0  0  0  0  0  0  0  0  0  0  0
   -0.5784    1.7437    3.9873 C   0  0  0  0  0  0  0  0  0  0  0  0
   -1.8210    1.3994    4.5432 C   0  0  0  0  0  0  0  0  0  0  0  0
   -2.7276    0.6166    3.8080 C   0  0  0  0  0  0  0  0  0  0  0  0
   -2.4008    0.1834    2.5155 C   0  0  0  0  0  0  0  0  0  0  0  0
   -0.4674   -4.9732    0.0493 H   0  0  0  0  0  0  0  0  0  0  0  0
   -2.8077   -5.2404   -0.8537 H   0  0  0  0  0  0  0  0  0  0  0  0
   -4.2788   -3.2644   -1.1487 H   0  0  0  0  0  0  0  0  0  0  0  0
   -3.0695    3.9149   -1.7480 H   0  0  0  0  0  0  0  0  0  0  0  0
   -2.5283    3.1844   -4.0573 H   0  0  0  0  0  0  0  0  0  0  0  0
   -1.2148    1.1145   -4.4796 H   0  0  0  0  0  0  0  0  0  0  0  0
    0.7398    1.5613    2.2616 H   0  0  0  0  0  0  0  0  0  0  0  0
    0.1360    2.3509    4.5631 H   0  0  0  0  0  0  0  0  0  0  0  0
   -2.0825    1.7360    5.5578 H   0  0  0  0  0  0  0  0  0  0  0  0
   -3.6995    0.3422    4.2452 H   0  0  0  0  0  0  0  0  0  0  0  0
   -3.1202   -0.4077    1.9318 H   0  0  0  0  0  0  0  0  0  0  0  0
    0.0919   -2.2266    2.6990 H   0  0  0  0  0  0  0  0  0  0  0  0
    0.3821   -3.9799    2.3202 H   0  0  0  0  0  0  0  0  0  0  0  0
    1.7773   -2.8320    2.4190 H   0  0  0  0  0  0  0  0  0  0  0  0
   -5.1855    0.2752   -1.1608 H   0  0  0  0  0  0  0  0  0  0  0  0
   -4.7659   -1.1633   -2.1687 H   0  0  0  0  0  0  0  0  0  0  0  0
   -5.5223   -1.3869   -0.5354 H   0  0  0  0  0  0  0  0  0  0  0  0
   -2.4897    4.6550    0.4000 H   0  0  0  0  0  0  0  0  0  0  0  0
   -4.0434    3.7237    0.3629 H   0  0  0  0  0  0  0  0  0  0  0  0
   -3.0689    3.7989    1.8833 H   0  0  0  0  0  0  0  0  0  0  0  0
    0.6557   -1.8941   -3.6008 H   0  0  0  0  0  0  0  0  0  0  0  0
   -0.8119   -1.1939   -4.3855 H   0  0  0  0  0  0  0  0  0  0  0  0
    0.7185   -0.2260   -4.2952 H   0  0  0  0  0  0  0  0  0  0  0  0
  1 22  1  0  0  0  0
  2 12  1  0  0  0  0
  3 11  1  0  0  0  0
  4 20  1  0  0  0  0
  5 19  1  0  0  0  0
  6  7  1  0  0  0  0
  6  1  1  0  0  0  0
  7  2  1  0  0  0  0
  8 28  1  0  0  0  0
  8  7  2  0  0  0  0
  9  8  1  0  0  0  0
 10  9  2  0  0  0  0
 10 11  1  0  0  0  0
 11  6  2  0  0  0  0
 12 40  1  0  0  0  0
 12 41  1  0  0  0  0
 12 39  1  0  0  0  0
 13 44  1  0  0  0  0
 13  3  1  0  0  0  0
 14 15  1  0  0  0  0
 14  1  1  0  0  0  0
 15  4  1  0  0  0  0
 16 31  1  0  0  0  0
 16 15  2  0  0  0  0
 17 16  1  0  0  0  0
 18 17  2  0  0  0  0
 18 19  1  0  0  0  0
 19 14  2  0  0  0  0
 20 47  1  0  0  0  0
 21 48  1  0  0  0  0
 21  5  1  0  0  0  0
 22 27  2  0  0  0  0
 22 23  1  0  0  0  0
 23 24  2  0  0  0  0
 24 25  1  0  0  0  0
 24 35  1  0  0  0  0
 25 36  1  0  0  0  0
 26 37  1  0  0  0  0
 26 25  2  0  0  0  0
 27 26  1  0  0  0  0
 29  9  1  0  0  0  0
 30 10  1  0  0  0  0
 32 17  1  0  0  0  0
 33 18  1  0  0  0  0
 34 23  1  0  0  0  0
 38 27  1  0  0  0  0
 42 13  1  0  0  0  0
 43 13  1  0  0  0  0
 45 20  1  0  0  0  0
 46 20  1  0  0  0  0
 49 21  1  0  0  0  0
 50 21  1  0  0  0  0
M  END
