1
 OpenBabel05122313063D

 42 44  0  0  1  0  0  0  0  0999 V2000
    0.9150    0.8871   -0.1612 P   0  0  1  0  0  0  0  0  0  0  0  0
    4.1386   -1.7075    2.7477 S   0  0  0  0  0  0  0  0  0  0  0  0
    4.0288   -2.7749    0.3180 N   0  0  0  0  0  0  0  0  0  0  0  0
    2.6230    0.1181   -0.0443 C   0  0  1  0  0  0  0  0  0  0  0  0
    3.0983   -0.1012   -1.0152 H   0  0  0  0  0  0  0  0  0  0  0  0
    3.3421    1.0914    0.8684 C   0  0  0  0  0  0  0  0  0  0  0  0
    2.5043    1.5225    1.8549 C   0  0  0  0  0  0  0  0  0  0  0  0
    1.1311    0.8832    1.7033 C   0  0  2  0  0  0  0  0  0  0  0  0
    0.3196    1.3294    2.3054 H   0  0  0  0  0  0  0  0  0  0  0  0
    1.2990   -0.6520    1.9238 C   0  0  0  0  0  0  0  0  0  0  0  0
    1.7847   -0.8353    2.9039 H   0  0  0  0  0  0  0  0  0  0  0  0
    0.3159   -1.1625    1.8998 H   0  0  0  0  0  0  0  0  0  0  0  0
    2.2196   -1.1695    0.7815 C   0  0  2  0  0  0  0  0  0  0  0  0
    1.6165   -1.8076    0.1039 H   0  0  0  0  0  0  0  0  0  0  0  0
    3.4606   -1.9362    1.2275 C   0  0  0  0  0  0  0  0  0  0  0  0
    3.5917   -2.9622   -1.0634 C   0  0  0  0  0  0  0  0  0  0  0  0
    4.4058   -2.6698   -1.7612 H   0  0  0  0  0  0  0  0  0  0  0  0
    2.7013   -2.3648   -1.3284 H   0  0  0  0  0  0  0  0  0  0  0  0
    3.3580   -4.0326   -1.2481 H   0  0  0  0  0  0  0  0  0  0  0  0
    5.2362   -3.5040    0.6866 C   0  0  0  0  0  0  0  0  0  0  0  0
    5.4415   -4.2720   -0.0826 H   0  0  0  0  0  0  0  0  0  0  0  0
    5.1071   -3.9738    1.6818 H   0  0  0  0  0  0  0  0  0  0  0  0
    6.1071   -2.8185    0.7714 H   0  0  0  0  0  0  0  0  0  0  0  0
    4.7933    1.3891    0.6797 C   0  0  0  0  0  0  0  0  0  0  0  0
    4.9999    1.7168   -0.3616 H   0  0  0  0  0  0  0  0  0  0  0  0
    5.4023    0.4781    0.8677 H   0  0  0  0  0  0  0  0  0  0  0  0
    5.1512    2.1776    1.3691 H   0  0  0  0  0  0  0  0  0  0  0  0
    2.8323    2.3554    3.0504 C   0  0  0  0  0  0  0  0  0  0  0  0
    2.0899    3.1679    3.2052 H   0  0  0  0  0  0  0  0  0  0  0  0
    3.8370    2.8136    2.9769 H   0  0  0  0  0  0  0  0  0  0  0  0
    2.8180    1.7295    3.9700 H   0  0  0  0  0  0  0  0  0  0  0  0
    1.0695    2.5731   -0.8428 C   0  0  0  0  0  0  0  0  0  0  0  0
    1.1612    2.6837   -2.2477 C   0  0  0  0  0  0  0  0  0  0  0  0
    1.1547    1.7676   -2.8622 H   0  0  0  0  0  0  0  0  0  0  0  0
    1.2554    3.9500   -2.8419 C   0  0  0  0  0  0  0  0  0  0  0  0
    1.3353    4.0332   -3.9365 H   0  0  0  0  0  0  0  0  0  0  0  0
    1.2370    5.1078   -2.0462 C   0  0  0  0  0  0  0  0  0  0  0  0
    1.3020    6.1008   -2.5168 H   0  0  0  0  0  0  0  0  0  0  0  0
    1.1293    4.9992   -0.6508 C   0  0  0  0  0  0  0  0  0  0  0  0
    1.1102    5.9050   -0.0257 H   0  0  0  0  0  0  0  0  0  0  0  0
    1.0500    3.7353   -0.0462 C   0  0  0  0  0  0  0  0  0  0  0  0
    0.9750    3.6549    1.0479 H   0  0  0  0  0  0  0  0  0  0  0  0
  1 32  1  6  0  0  0
  1  4  1  0  0  0  0
  1  8  1  0  0  0  0
  3 20  1  0  0  0  0
  3 15  1  0  0  0  0
  4  5  1  6  0  0  0
  4 13  1  0  0  0  0
  4  6  1  0  0  0  0
  6  7  2  0  0  0  0
  7 28  1  0  0  0  0
  8  7  1  0  0  0  0
  8 10  1  0  0  0  0
  8  9  1  1  0  0  0
 10 11  1  0  0  0  0
 12 10  1  0  0  0  0
 13 14  1  6  0  0  0
 13 15  1  0  0  0  0
 13 10  1  0  0  0  0
 15  2  2  0  0  0  0
 16  3  1  0  0  0  0
 17 16  1  0  0  0  0
 18 16  1  0  0  0  0
 19 16  1  0  0  0  0
 20 23  1  0  0  0  0
 20 22  1  0  0  0  0
 21 20  1  0  0  0  0
 24 26  1  0  0  0  0
 24  6  1  0  0  0  0
 24 27  1  0  0  0  0
 25 24  1  0  0  0  0
 28 29  1  0  0  0  0
 28 31  1  0  0  0  0
 30 28  1  0  0  0  0
 32 41  1  0  0  0  0
 33 32  2  0  0  0  0
 34 33  1  0  0  0  0
 35 33  1  0  0  0  0
 35 37  2  0  0  0  0
 36 35  1  0  0  0  0
 37 39  1  0  0  0  0
 38 37  1  0  0  0  0
 39 41  2  0  0  0  0
 39 40  1  0  0  0  0
 41 42  1  0  0  0  0
M  END
