2
 OpenBabel05122313063D

 24 26  0  0  0  0  0  0  0  0999 V2000
   -6.6285   -1.5570   -0.0000 Cl  0  0  0  0  0  0  0  0  0  0  0  0
    0.1953    0.9854    0.0002 P   0  0  0  0  0  0  0  0  0  0  0  0
   -1.5842    2.8818   -0.0000 O   0  0  0  0  0  0  0  0  0  0  0  0
   -2.7126   -0.6456    0.0003 C   0  0  0  0  0  0  0  0  0  0  0  0
   -1.7601   -1.1930    0.0006 H   0  0  0  0  0  0  0  0  0  0  0  0
    0.7511    2.6783    0.0001 C   0  0  0  0  0  0  0  0  0  0  0  0
    2.0420    3.2502    0.0002 C   0  0  0  0  0  0  0  0  0  0  0  0
    2.9332    2.6052    0.0002 H   0  0  0  0  0  0  0  0  0  0  0  0
   -0.2744    4.9249   -0.0001 C   0  0  0  0  0  0  0  0  0  0  0  0
   -1.1769    5.5520   -0.0001 H   0  0  0  0  0  0  0  0  0  0  0  0
   -2.7084    0.7715    0.0001 C   0  0  0  0  0  0  0  0  0  0  0  0
   -3.9540    1.4484   -0.0002 C   0  0  0  0  0  0  0  0  0  0  0  0
   -3.9696    2.5467   -0.0005 H   0  0  0  0  0  0  0  0  0  0  0  0
   -5.1328   -0.6682    0.0000 C   0  0  0  0  0  0  0  0  0  0  0  0
   -5.1567    0.7374   -0.0003 C   0  0  0  0  0  0  0  0  0  0  0  0
   -6.1208    1.2648   -0.0005 H   0  0  0  0  0  0  0  0  0  0  0  0
    1.0144    5.4710   -0.0000 C   0  0  0  0  0  0  0  0  0  0  0  0
    1.1351    6.5644   -0.0001 H   0  0  0  0  0  0  0  0  0  0  0  0
   -0.3806    3.5281    0.0000 C   0  0  0  0  0  0  0  0  0  0  0  0
   -3.9092   -1.3629    0.0003 C   0  0  0  0  0  0  0  0  0  0  0  0
   -3.9040   -2.4615    0.0006 H   0  0  0  0  0  0  0  0  0  0  0  0
   -1.4607    1.5164    0.0001 C   0  0  0  0  0  0  0  0  0  0  0  0
    2.1615    4.6427    0.0001 C   0  0  0  0  0  0  0  0  0  0  0  0
    3.1607    5.1023    0.0001 H   0  0  0  0  0  0  0  0  0  0  0  0
  1 14  1  0  0  0  0
  3 19  1  0  0  0  0
  3 22  1  0  0  0  0
  4  5  1  0  0  0  0
  6  7  1  0  0  0  0
  6  2  1  0  0  0  0
  7  8  1  0  0  0  0
  9 17  2  0  0  0  0
  9 19  1  0  0  0  0
 10  9  1  0  0  0  0
 11 22  1  0  0  0  0
 11  4  2  0  0  0  0
 12 11  1  0  0  0  0
 13 12  1  0  0  0  0
 14 20  2  0  0  0  0
 15 12  2  0  0  0  0
 15 14  1  0  0  0  0
 16 15  1  0  0  0  0
 17 23  1  0  0  0  0
 18 17  1  0  0  0  0
 19  6  2  0  0  0  0
 20  4  1  0  0  0  0
 20 21  1  0  0  0  0
 22  2  2  0  0  0  0
 23 24  1  0  0  0  0
 23  7  2  0  0  0  0
M  END
