1
 OpenBabel05122313063D

 27 29  0  0  0  0  0  0  0  0999 V2000
   -0.1750    0.9222    0.0001 P   0  0  0  0  0  0  0  0  0  0  0  0
   -2.2552    2.4812    0.0000 O   0  0  0  0  0  0  0  0  0  0  0  0
    0.0799    2.6858    0.0001 C   0  0  0  0  0  0  0  0  0  0  0  0
    1.2516    3.4734    0.0001 C   0  0  0  0  0  0  0  0  0  0  0  0
    2.2412    2.9929    0.0001 H   0  0  0  0  0  0  0  0  0  0  0  0
    1.1277    4.8657    0.0001 C   0  0  0  0  0  0  0  0  0  0  0  0
    2.0322    5.4917    0.0001 H   0  0  0  0  0  0  0  0  0  0  0  0
   -0.1455    5.4825   -0.0000 C   0  0  0  0  0  0  0  0  0  0  0  0
   -0.2166    6.5802   -0.0000 H   0  0  0  0  0  0  0  0  0  0  0  0
   -2.7545   -1.1900    0.0002 C   0  0  0  0  0  0  0  0  0  0  0  0
   -1.7204   -1.5610    0.0003 H   0  0  0  0  0  0  0  0  0  0  0  0
   -1.3198    4.7204   -0.0000 C   0  0  0  0  0  0  0  0  0  0  0  0
   -2.3177    5.1808   -0.0001 H   0  0  0  0  0  0  0  0  0  0  0  0
   -1.1820    3.3264    0.0000 C   0  0  0  0  0  0  0  0  0  0  0  0
   -1.8984    1.1576    0.0001 C   0  0  0  0  0  0  0  0  0  0  0  0
   -2.9973    0.2066    0.0000 C   0  0  0  0  0  0  0  0  0  0  0  0
   -4.3415    0.6509   -0.0001 C   0  0  0  0  0  0  0  0  0  0  0  0
   -4.5512    1.7292   -0.0002 H   0  0  0  0  0  0  0  0  0  0  0  0
   -5.3938   -0.2705   -0.0001 C   0  0  0  0  0  0  0  0  0  0  0  0
   -6.4317    0.0980   -0.0003 H   0  0  0  0  0  0  0  0  0  0  0  0
   -5.1570   -1.6601    0.0000 C   0  0  0  0  0  0  0  0  0  0  0  0
   -3.8127   -2.0975    0.0002 C   0  0  0  0  0  0  0  0  0  0  0  0
   -3.5938   -3.1768    0.0003 H   0  0  0  0  0  0  0  0  0  0  0  0
   -6.2880   -2.6540   -0.0000 C   0  0  0  0  0  0  0  0  0  0  0  0
   -7.2749   -2.1530   -0.0003 H   0  0  0  0  0  0  0  0  0  0  0  0
   -6.2409   -3.3155    0.8904 H   0  0  0  0  0  0  0  0  0  0  0  0
   -6.2406   -3.3159   -0.8901 H   0  0  0  0  0  0  0  0  0  0  0  0
  2 14  1  0  0  0  0
  2 15  1  0  0  0  0
  3  4  1  0  0  0  0
  3  1  1  0  0  0  0
  4  5  1  0  0  0  0
  6  7  1  0  0  0  0
  6  4  2  0  0  0  0
  8  6  1  0  0  0  0
  9  8  1  0  0  0  0
 10 11  1  0  0  0  0
 12  8  2  0  0  0  0
 12 14  1  0  0  0  0
 13 12  1  0  0  0  0
 14  3  2  0  0  0  0
 15  1  2  0  0  0  0
 16 15  1  0  0  0  0
 16 10  2  0  0  0  0
 17 16  1  0  0  0  0
 18 17  1  0  0  0  0
 19 17  2  0  0  0  0
 19 21  1  0  0  0  0
 20 19  1  0  0  0  0
 21 22  2  0  0  0  0
 22 10  1  0  0  0  0
 22 23  1  0  0  0  0
 24 21  1  0  0  0  0
 24 26  1  0  0  0  0
 25 24  1  0  0  0  0
 27 24  1  0  0  0  0
M  END
