1
 OpenBabel05122313063D

 38 39  0  0  0  0  0  0  0  0999 V2000
    2.3657    0.1184   -0.0124 P   0  0  0  0  0  0  0  0  0  0  0  0
    4.5056    4.0642   -0.0899 O   0  0  0  0  0  0  0  0  0  0  0  0
    3.3104    0.9468    1.4359 C   0  0  0  0  0  0  0  0  0  0  0  0
    3.2516    2.4668    1.1837 C   0  0  0  0  0  0  0  0  0  0  0  0
    3.6766    3.0177    2.0488 H   0  0  0  0  0  0  0  0  0  0  0  0
    2.1841    2.7807    1.1167 H   0  0  0  0  0  0  0  0  0  0  0  0
    3.9765    2.9644   -0.0618 C   0  0  0  0  0  0  0  0  0  0  0  0
    4.0282    2.0449   -1.2876 C   0  0  0  0  0  0  0  0  0  0  0  0
    4.2287    2.6950   -2.1649 H   0  0  0  0  0  0  0  0  0  0  0  0
    4.9272    1.3998   -1.1789 H   0  0  0  0  0  0  0  0  0  0  0  0
    2.7745    1.1878   -1.5457 C   0  0  0  0  0  0  0  0  0  0  0  0
    2.6013    0.5633    2.7462 C   0  0  0  0  0  0  0  0  0  0  0  0
    1.5556    0.9203    2.7662 H   0  0  0  0  0  0  0  0  0  0  0  0
    2.6098   -0.5372    2.8872 H   0  0  0  0  0  0  0  0  0  0  0  0
    3.1499    1.0127    3.6006 H   0  0  0  0  0  0  0  0  0  0  0  0
    4.7756    0.4846    1.5492 C   0  0  0  0  0  0  0  0  0  0  0  0
    5.2529    1.0706    2.3629 H   0  0  0  0  0  0  0  0  0  0  0  0
    4.8479   -0.5862    1.8156 H   0  0  0  0  0  0  0  0  0  0  0  0
    5.3767    0.6461    0.6353 H   0  0  0  0  0  0  0  0  0  0  0  0
    1.5719    2.1279   -1.7892 C   0  0  0  0  0  0  0  0  0  0  0  0
    0.6695    1.5438   -2.0631 H   0  0  0  0  0  0  0  0  0  0  0  0
    1.3090    2.7474   -0.9108 H   0  0  0  0  0  0  0  0  0  0  0  0
    1.8203    2.8053   -2.6334 H   0  0  0  0  0  0  0  0  0  0  0  0
    2.9311    0.3031   -2.7939 C   0  0  0  0  0  0  0  0  0  0  0  0
    3.8520   -0.3068   -2.7835 H   0  0  0  0  0  0  0  0  0  0  0  0
    2.0669   -0.3835   -2.8982 H   0  0  0  0  0  0  0  0  0  0  0  0
    2.9709    0.9559   -3.6909 H   0  0  0  0  0  0  0  0  0  0  0  0
    3.1964   -1.5203   -0.0782 C   0  0  0  0  0  0  0  0  0  0  0  0
    4.4493   -1.7528   -0.6813 C   0  0  0  0  0  0  0  0  0  0  0  0
    4.9627   -0.9530   -1.2318 H   0  0  0  0  0  0  0  0  0  0  0  0
    5.0715   -3.0054   -0.5711 C   0  0  0  0  0  0  0  0  0  0  0  0
    6.0451   -3.1724   -1.0560 H   0  0  0  0  0  0  0  0  0  0  0  0
    4.4610   -4.0355    0.1604 C   0  0  0  0  0  0  0  0  0  0  0  0
    4.9514   -5.0169    0.2469 H   0  0  0  0  0  0  0  0  0  0  0  0
    3.2226   -3.8079    0.7805 C   0  0  0  0  0  0  0  0  0  0  0  0
    2.7346   -4.6098    1.3546 H   0  0  0  0  0  0  0  0  0  0  0  0
    2.5908   -2.5631    0.6559 C   0  0  0  0  0  0  0  0  0  0  0  0
    1.6056   -2.3972    1.1153 H   0  0  0  0  0  0  0  0  0  0  0  0
  1  3  1  0  0  0  0
  2  7  2  0  0  0  0
  3 16  1  0  0  0  0
  3 12  1  0  0  0  0
  4  3  1  0  0  0  0
  4  5  1  0  0  0  0
  6  4  1  0  0  0  0
  7  4  1  0  0  0  0
  8 10  1  0  0  0  0
  8  7  1  0  0  0  0
  9  8  1  0  0  0  0
 11  8  1  0  0  0  0
 11  1  1  0  0  0  0
 12 13  1  0  0  0  0
 12 14  1  0  0  0  0
 12 15  1  0  0  0  0
 16 18  1  0  0  0  0
 16 17  1  0  0  0  0
 19 16  1  0  0  0  0
 20 11  1  0  0  0  0
 20 22  1  0  0  0  0
 21 20  1  0  0  0  0
 23 20  1  0  0  0  0
 24 25  1  0  0  0  0
 24 11  1  0  0  0  0
 26 24  1  0  0  0  0
 27 24  1  0  0  0  0
 28  1  1  0  0  0  0
 28 37  1  0  0  0  0
 29 31  1  0  0  0  0
 29 28  2  0  0  0  0
 30 29  1  0  0  0  0
 31 33  2  0  0  0  0
 32 31  1  0  0  0  0
 33 34  1  0  0  0  0
 33 35  1  0  0  0  0
 35 36  1  0  0  0  0
 37 35  2  0  0  0  0
 37 38  1  0  0  0  0
M  END
