1
 OpenBabel05122313063D

 60 64  0  0  1  0  0  0  0  0999 V2000
   -0.0899   -0.1783    0.0693 P   0  0  2  0  0  0  0  0  0  0  0  0
    1.1575   -1.2982    0.0346 N   0  0  0  0  0  0  0  0  0  0  0  0
    3.3544   -1.9497    0.0084 N   0  0  0  0  0  0  0  0  0  0  0  0
    0.2206    2.9184    2.6493 O   0  0  0  0  0  0  0  0  0  0  0  0
   -1.4706    2.1565    1.3545 O   0  0  0  0  0  0  0  0  0  0  0  0
   -0.8940    1.8402   -2.5636 O   0  0  0  0  0  0  0  0  0  0  0  0
   -0.5744    3.4420   -0.9883 O   0  0  0  0  0  0  0  0  0  0  0  0
    2.4124   -0.9294    0.0177 C   0  0  0  0  0  0  0  0  0  0  0  0
    2.8254    0.5377   -0.0948 C   0  0  2  0  0  0  0  0  0  0  0  0
    2.2459    1.4502    1.0640 C   0  0  2  0  0  0  0  0  0  0  0  0
    2.6184    2.8380    0.4962 C   0  0  0  0  0  0  0  0  0  0  0  0
    2.4902    2.7711   -0.8563 C   0  0  0  0  0  0  0  0  0  0  0  0
    2.0247    1.3436   -1.2185 C   0  0  1  0  0  0  0  0  0  0  0  0
    4.3390    0.7096   -0.3466 C   0  0  0  0  0  0  0  0  0  0  0  0
    2.6905    1.0986    2.4731 C   0  0  0  0  0  0  0  0  0  0  0  0
    2.9725    3.9983    1.3624 C   0  0  0  0  0  0  0  0  0  0  0  0
    2.6604    3.8394   -1.8829 C   0  0  0  0  0  0  0  0  0  0  0  0
    2.1844    0.8651   -2.6493 C   0  0  0  0  0  0  0  0  0  0  0  0
    0.5518    1.3691   -0.7026 C   0  0  2  0  0  0  0  0  0  0  0  0
    0.7010    1.4161    0.8174 C   0  0  1  0  0  0  0  0  0  0  0  0
   -0.1662    2.2490    1.7031 C   0  0  0  0  0  0  0  0  0  0  0  0
   -2.3897    2.9332    2.1305 C   0  0  0  0  0  0  0  0  0  0  0  0
   -0.3908    2.2110   -1.5179 C   0  0  0  0  0  0  0  0  0  0  0  0
   -1.5044    4.2786   -1.6925 C   0  0  0  0  0  0  0  0  0  0  0  0
    2.8717   -3.2977   -0.3252 C   0  0  0  0  0  0  0  0  0  0  0  0
    4.0257   -4.1490   -0.8614 C   0  0  0  0  0  0  0  0  0  0  0  0
    5.2002   -4.2043    0.1216 C   0  0  0  0  0  0  0  0  0  0  0  0
    5.6298   -2.7876    0.5190 C   0  0  0  0  0  0  0  0  0  0  0  0
    4.4278   -1.9847    1.0143 C   0  0  0  0  0  0  0  0  0  0  0  0
    4.9152    0.8080    0.5930 H   0  0  0  0  0  0  0  0  0  0  0  0
    4.5464    1.6233   -0.9280 H   0  0  0  0  0  0  0  0  0  0  0  0
    4.7349   -0.1555   -0.9093 H   0  0  0  0  0  0  0  0  0  0  0  0
    3.7946    1.1410    2.5669 H   0  0  0  0  0  0  0  0  0  0  0  0
    2.3579    0.0746    2.7386 H   0  0  0  0  0  0  0  0  0  0  0  0
    2.2512    1.7990    3.2064 H   0  0  0  0  0  0  0  0  0  0  0  0
    3.1767    4.9089    0.7669 H   0  0  0  0  0  0  0  0  0  0  0  0
    3.8733    3.7829    1.9769 H   0  0  0  0  0  0  0  0  0  0  0  0
    2.1488    4.2146    2.0739 H   0  0  0  0  0  0  0  0  0  0  0  0
    2.9414    4.8061   -1.4228 H   0  0  0  0  0  0  0  0  0  0  0  0
    1.7257    4.0031   -2.4614 H   0  0  0  0  0  0  0  0  0  0  0  0
    3.4432    3.5726   -2.6261 H   0  0  0  0  0  0  0  0  0  0  0  0
    1.6066    1.4956   -3.3517 H   0  0  0  0  0  0  0  0  0  0  0  0
    1.8004   -0.1692   -2.7544 H   0  0  0  0  0  0  0  0  0  0  0  0
    3.2479    0.8806   -2.9596 H   0  0  0  0  0  0  0  0  0  0  0  0
   -2.4557    2.5375    3.1634 H   0  0  0  0  0  0  0  0  0  0  0  0
   -3.3649    2.8401    1.6216 H   0  0  0  0  0  0  0  0  0  0  0  0
   -2.0665    3.9921    2.1712 H   0  0  0  0  0  0  0  0  0  0  0  0
   -1.1872    4.4208   -2.7449 H   0  0  0  0  0  0  0  0  0  0  0  0
   -1.5124    5.2429   -1.1545 H   0  0  0  0  0  0  0  0  0  0  0  0
   -2.5118    3.8175   -1.6855 H   0  0  0  0  0  0  0  0  0  0  0  0
    2.0607   -3.1971   -1.0691 H   0  0  0  0  0  0  0  0  0  0  0  0
    2.4070   -3.7737    0.5714 H   0  0  0  0  0  0  0  0  0  0  0  0
    3.6469   -5.1680   -1.0829 H   0  0  0  0  0  0  0  0  0  0  0  0
    4.3676   -3.7150   -1.8262 H   0  0  0  0  0  0  0  0  0  0  0  0
    6.0514   -4.7685   -0.3118 H   0  0  0  0  0  0  0  0  0  0  0  0
    4.8872   -4.7570    1.0357 H   0  0  0  0  0  0  0  0  0  0  0  0
    6.4037   -2.8145    1.3139 H   0  0  0  0  0  0  0  0  0  0  0  0
    6.0781   -2.2655   -0.3544 H   0  0  0  0  0  0  0  0  0  0  0  0
    4.0184   -2.4653    1.9377 H   0  0  0  0  0  0  0  0  0  0  0  0
    4.7130   -0.9606    1.3011 H   0  0  0  0  0  0  0  0  0  0  0  0
  1  2  1  6  0  0  0
  1 20  1  0  0  0  0
  3  8  1  0  0  0  0
  3 29  1  0  0  0  0
  5 21  1  0  0  0  0
  5 22  1  0  0  0  0
  6 23  2  0  0  0  0
  8  2  2  0  0  0  0
  9 14  1  6  0  0  0
  9  8  1  0  0  0  0
  9 10  1  0  0  0  0
 10 15  1  1  0  0  0
 11 10  1  0  0  0  0
 11 16  1  0  0  0  0
 12 11  2  0  0  0  0
 13 18  1  6  0  0  0
 13 12  1  0  0  0  0
 13 19  1  0  0  0  0
 13  9  1  0  0  0  0
 14 30  1  0  0  0  0
 15 33  1  0  0  0  0
 15 34  1  0  0  0  0
 15 35  1  0  0  0  0
 16 37  1  0  0  0  0
 16 38  1  0  0  0  0
 17 39  1  0  0  0  0
 17 12  1  0  0  0  0
 19 23  1  6  0  0  0
 19  1  1  0  0  0  0
 19 20  1  0  0  0  0
 20 10  1  0  0  0  0
 20 21  1  1  0  0  0
 21  4  2  0  0  0  0
 22 47  1  0  0  0  0
 22 45  1  0  0  0  0
 23  7  1  0  0  0  0
 24 50  1  0  0  0  0
 24 49  1  0  0  0  0
 24  7  1  0  0  0  0
 25  3  1  0  0  0  0
 25 52  1  0  0  0  0
 26 25  1  0  0  0  0
 26 27  1  0  0  0  0
 27 28  1  0  0  0  0
 27 56  1  0  0  0  0
 28 29  1  0  0  0  0
 28 57  1  0  0  0  0
 29 60  1  0  0  0  0
 29 59  1  0  0  0  0
 31 14  1  0  0  0  0
 32 14  1  0  0  0  0
 36 16  1  0  0  0  0
 40 17  1  0  0  0  0
 41 17  1  0  0  0  0
 42 18  1  0  0  0  0
 43 18  1  0  0  0  0
 44 18  1  0  0  0  0
 46 22  1  0  0  0  0
 48 24  1  0  0  0  0
 51 25  1  0  0  0  0
 53 26  1  0  0  0  0
 54 26  1  0  0  0  0
 55 27  1  0  0  0  0
 58 28  1  0  0  0  0
M  END
