1
 OpenBabel05122313063D

 32 32  0  0  1  0  0  0  0  0999 V2000
   -2.3712    0.0541   -0.0217 P   0  0  2  0  0  0  0  0  0  0  0  0
   -3.0574   -0.9097   -1.4957 C   0  0  2  0  0  0  0  0  0  0  0  0
   -3.9312   -0.3111   -1.8314 H   0  0  0  0  0  0  0  0  0  0  0  0
   -3.5767   -2.2365   -0.9012 C   0  0  0  0  0  0  0  0  0  0  0  0
   -4.3387   -2.6901   -1.5695 H   0  0  0  0  0  0  0  0  0  0  0  0
   -2.7257   -2.9451   -0.8309 H   0  0  0  0  0  0  0  0  0  0  0  0
   -4.1244   -1.9658    0.5054 C   0  0  0  0  0  0  0  0  0  0  0  0
   -4.3373   -2.9107    1.0500 H   0  0  0  0  0  0  0  0  0  0  0  0
   -5.0819   -1.4047    0.4543 H   0  0  0  0  0  0  0  0  0  0  0  0
   -3.0564   -1.1500    1.2583 C   0  0  2  0  0  0  0  0  0  0  0  0
   -2.1739   -1.8145    1.3774 H   0  0  0  0  0  0  0  0  0  0  0  0
   -2.0874   -1.0692   -2.6655 C   0  0  0  0  0  0  0  0  0  0  0  0
   -1.1911   -1.6377   -2.3485 H   0  0  0  0  0  0  0  0  0  0  0  0
   -1.7505   -0.0875   -3.0544 H   0  0  0  0  0  0  0  0  0  0  0  0
   -2.5766   -1.6180   -3.4974 H   0  0  0  0  0  0  0  0  0  0  0  0
   -3.4413   -0.6307    2.6397 C   0  0  0  0  0  0  0  0  0  0  0  0
   -4.3246    0.0378    2.6244 H   0  0  0  0  0  0  0  0  0  0  0  0
   -2.6040   -0.0828    3.1161 H   0  0  0  0  0  0  0  0  0  0  0  0
   -3.6920   -1.4879    3.2989 H   0  0  0  0  0  0  0  0  0  0  0  0
   -3.3921    1.6671   -0.0148 C   0  0  0  0  0  0  0  0  0  0  0  0
   -4.9042    1.3903    0.0654 C   0  0  0  0  0  0  0  0  0  0  0  0
   -5.2003    0.8935    1.0085 H   0  0  0  0  0  0  0  0  0  0  0  0
   -5.2767    0.7794   -0.7807 H   0  0  0  0  0  0  0  0  0  0  0  0
   -5.4396    2.3628    0.0224 H   0  0  0  0  0  0  0  0  0  0  0  0
   -2.9605    2.5271    1.1870 C   0  0  0  0  0  0  0  0  0  0  0  0
   -1.8768    2.7471    1.1490 H   0  0  0  0  0  0  0  0  0  0  0  0
   -3.1961    2.0396    2.1520 H   0  0  0  0  0  0  0  0  0  0  0  0
   -3.5116    3.4916    1.1571 H   0  0  0  0  0  0  0  0  0  0  0  0
   -3.0841    2.4006   -1.3344 C   0  0  0  0  0  0  0  0  0  0  0  0
   -3.6310    3.3678   -1.3440 H   0  0  0  0  0  0  0  0  0  0  0  0
   -3.4224    1.8230   -2.2187 H   0  0  0  0  0  0  0  0  0  0  0  0
   -2.0025    2.6133   -1.4329 H   0  0  0  0  0  0  0  0  0  0  0  0
  1 20  1  1  0  0  0
  1 10  1  0  0  0  0
  2  3  1  6  0  0  0
  2  4  1  0  0  0  0
  2  1  1  0  0  0  0
  4  6  1  0  0  0  0
  4  7  1  0  0  0  0
  5  4  1  0  0  0  0
  7  8  1  0  0  0  0
  7 10  1  0  0  0  0
  9  7  1  0  0  0  0
 10 11  1  1  0  0  0
 10 16  1  0  0  0  0
 12 13  1  0  0  0  0
 12  2  1  0  0  0  0
 14 12  1  0  0  0  0
 15 12  1  0  0  0  0
 16 18  1  0  0  0  0
 16 19  1  0  0  0  0
 17 16  1  0  0  0  0
 20 21  1  0  0  0  0
 20 25  1  0  0  0  0
 21 22  1  0  0  0  0
 23 21  1  0  0  0  0
 24 21  1  0  0  0  0
 25 27  1  0  0  0  0
 26 25  1  0  0  0  0
 28 25  1  0  0  0  0
 29 20  1  0  0  0  0
 30 29  1  0  0  0  0
 31 29  1  0  0  0  0
 32 29  1  0  0  0  0
M  END
