1
 OpenBabel05122313063D

 36 37  0  0  1  0  0  0  0  0999 V2000
    2.3959   -0.4668   -0.3819 P   0  0  2  0  0  0  0  0  0  0  0  0
    3.1344    1.1393    0.2475 C   0  0  0  0  0  0  0  0  0  0  0  0
    4.0153    1.3340   -0.4083 H   0  0  0  0  0  0  0  0  0  0  0  0
    2.1065    2.2733    0.0509 C   0  0  0  0  0  0  0  0  0  0  0  0
    1.2064    2.0242    0.6554 H   0  0  0  0  0  0  0  0  0  0  0  0
    1.7681    2.3157   -1.0044 H   0  0  0  0  0  0  0  0  0  0  0  0
    2.6687    3.6304    0.4924 C   0  0  0  0  0  0  0  0  0  0  0  0
    3.5154    3.9143   -0.1734 H   0  0  0  0  0  0  0  0  0  0  0  0
    1.8946    4.4160    0.3649 H   0  0  0  0  0  0  0  0  0  0  0  0
    3.1582    3.5828    1.9444 C   0  0  0  0  0  0  0  0  0  0  0  0
    3.5922    4.5603    2.2427 H   0  0  0  0  0  0  0  0  0  0  0  0
    2.2883    3.4036    2.6149 H   0  0  0  0  0  0  0  0  0  0  0  0
    4.1814    2.4579    2.1417 C   0  0  0  0  0  0  0  0  0  0  0  0
    4.5041    2.4066    3.2028 H   0  0  0  0  0  0  0  0  0  0  0  0
    5.0954    2.6880    1.5475 H   0  0  0  0  0  0  0  0  0  0  0  0
    3.6209    1.0958    1.7073 C   0  0  0  0  0  0  0  0  0  0  0  0
    4.3998    0.3163    1.8385 H   0  0  0  0  0  0  0  0  0  0  0  0
    2.7677    0.8073    2.3564 H   0  0  0  0  0  0  0  0  0  0  0  0
    3.5038   -1.8735    0.2202 C   0  0  2  0  0  0  0  0  0  0  0  0
    4.2967   -1.3812    0.8222 H   0  0  0  0  0  0  0  0  0  0  0  0
    4.1472   -2.4465   -1.0619 C   0  0  0  0  0  0  0  0  0  0  0  0
    5.1030   -2.9582   -0.8244 H   0  0  0  0  0  0  0  0  0  0  0  0
    3.4690   -3.2149   -1.4933 H   0  0  0  0  0  0  0  0  0  0  0  0
    4.3202   -1.3089   -2.0720 C   0  0  0  0  0  0  0  0  0  0  0  0
    4.6447   -1.6773   -3.0685 H   0  0  0  0  0  0  0  0  0  0  0  0
    5.1031   -0.5971   -1.7239 H   0  0  0  0  0  0  0  0  0  0  0  0
    2.9620   -0.5975   -2.1676 C   0  0  2  0  0  0  0  0  0  0  0  0
    2.2165   -1.3012   -2.5990 H   0  0  0  0  0  0  0  0  0  0  0  0
    2.7801   -2.9051    1.0832 C   0  0  0  0  0  0  0  0  0  0  0  0
    1.9429   -3.3690    0.5210 H   0  0  0  0  0  0  0  0  0  0  0  0
    2.3447   -2.4412    1.9887 H   0  0  0  0  0  0  0  0  0  0  0  0
    3.4793   -3.7115    1.3887 H   0  0  0  0  0  0  0  0  0  0  0  0
    2.9246    0.6818   -2.9960 C   0  0  0  0  0  0  0  0  0  0  0  0
    3.5850    1.4736   -2.5867 H   0  0  0  0  0  0  0  0  0  0  0  0
    1.8908    1.0732   -3.0617 H   0  0  0  0  0  0  0  0  0  0  0  0
    3.2677    0.4694   -4.0300 H   0  0  0  0  0  0  0  0  0  0  0  0
  1 19  1  0  0  0  0
  1  2  1  1  0  0  0
  2 16  1  0  0  0  0
  3  2  1  0  0  0  0
  4  2  1  0  0  0  0
  4  7  1  0  0  0  0
  4  5  1  0  0  0  0
  6  4  1  0  0  0  0
  7 10  1  0  0  0  0
  8  7  1  0  0  0  0
  9  7  1  0  0  0  0
 10 13  1  0  0  0  0
 10 11  1  0  0  0  0
 10 12  1  0  0  0  0
 13 14  1  0  0  0  0
 15 13  1  0  0  0  0
 16 17  1  0  0  0  0
 16 13  1  0  0  0  0
 16 18  1  0  0  0  0
 19 20  1  1  0  0  0
 19 29  1  0  0  0  0
 21 22  1  0  0  0  0
 21 19  1  0  0  0  0
 23 21  1  0  0  0  0
 24 26  1  0  0  0  0
 24 21  1  0  0  0  0
 25 24  1  0  0  0  0
 27 28  1  6  0  0  0
 27 24  1  0  0  0  0
 27  1  1  0  0  0  0
 29 32  1  0  0  0  0
 29 31  1  0  0  0  0
 30 29  1  0  0  0  0
 33 34  1  0  0  0  0
 33 27  1  0  0  0  0
 35 33  1  0  0  0  0
 36 33  1  0  0  0  0
M  END
