22
 OpenBabel05122313063D

 22 24  0  0  1  0  0  0  0  0999 V2000
   -0.8215    2.9922   -0.0005 C   0  0  0  0  0  0  0  0  0  0  0  0
   -1.8020    3.5057   -0.0006 H   0  0  0  0  0  0  0  0  0  0  0  0
   -0.2467    3.2942   -0.8981 H   0  0  0  0  0  0  0  0  0  0  0  0
   -0.2468    3.2944    0.8970 H   0  0  0  0  0  0  0  0  0  0  0  0
   -2.6758    0.9380    0.7713 C   0  0  1  0  0  0  0  0  0  0  0  0
   -3.0652    1.8046    1.3327 H   0  0  0  0  0  0  0  0  0  0  0  0
   -2.6761    0.9381   -0.7716 C   0  0  2  0  0  0  0  0  0  0  0  0
   -3.0657    1.8048   -1.3328 H   0  0  0  0  0  0  0  0  0  0  0  0
   -3.2286   -0.4422   -1.1381 C   0  0  2  0  0  0  0  0  0  0  0  0
   -3.0041   -0.7741   -2.1692 H   0  0  0  0  0  0  0  0  0  0  0  0
   -4.7412   -0.3786   -0.7828 C   0  0  0  0  0  0  0  0  0  0  0  0
   -5.2666   -1.2669   -1.1872 H   0  0  0  0  0  0  0  0  0  0  0  0
   -5.2334    0.5161   -1.2140 H   0  0  0  0  0  0  0  0  0  0  0  0
   -4.7408   -0.3788    0.7832 C   0  0  0  0  0  0  0  0  0  0  0  0
   -5.2660   -1.2673    1.1877 H   0  0  0  0  0  0  0  0  0  0  0  0
   -5.2328    0.5157    1.2149 H   0  0  0  0  0  0  0  0  0  0  0  0
   -3.2280   -0.4425    1.1377 C   0  0  1  0  0  0  0  0  0  0  0  0
   -3.0029   -0.7746    2.1686 H   0  0  0  0  0  0  0  0  0  0  0  0
   -2.7071   -1.3423   -0.0004 C   0  0  0  0  0  0  0  0  0  0  0  0
   -1.6103   -1.4732   -0.0008 H   0  0  0  0  0  0  0  0  0  0  0  0
   -3.1782   -2.3449   -0.0004 H   0  0  0  0  0  0  0  0  0  0  0  0
   -1.0015    1.1538   -0.0005 P   0  0  1  0  0  0  0  0  0  0  0  0
  1  4  1  0  0  0  0
  2  1  1  0  0  0  0
  3  1  1  0  0  0  0
  5 17  1  0  0  0  0
  5  6  1  1  0  0  0
  7  8  1  6  0  0  0
  7 22  1  0  0  0  0
  7  5  1  0  0  0  0
  9 10  1  6  0  0  0
  9 11  1  0  0  0  0
  9  7  1  0  0  0  0
  9 19  1  0  0  0  0
 11 14  1  0  0  0  0
 12 11  1  0  0  0  0
 13 11  1  0  0  0  0
 14 17  1  0  0  0  0
 14 15  1  0  0  0  0
 14 16  1  0  0  0  0
 17 18  1  1  0  0  0
 19 21  1  0  0  0  0
 19 17  1  0  0  0  0
 20 19  1  0  0  0  0
 22  1  1  1  0  0  0
 22  5  1  0  0  0  0
M  END
