1
 OpenBabel05122313063D

 41 42  0  0  0  0  0  0  0  0999 V2000
    1.5214    0.7689   -0.0085 P   0  0  0  0  0  0  0  0  0  0  0  0
    3.0206    1.1271   -1.0307 C   0  0  0  0  0  0  0  0  0  0  0  0
    3.3154    0.1251   -2.1470 C   0  0  0  0  0  0  0  0  0  0  0  0
    4.7762    0.2197   -2.6015 C   0  0  0  0  0  0  0  0  0  0  0  0
    5.7326    0.0433   -1.5118 N   0  0  0  0  0  0  0  0  0  0  0  0
    5.6993   -1.2833   -0.9221 C   0  0  0  0  0  0  0  0  0  0  0  0
    7.0756    0.4342   -1.8934 C   0  0  0  0  0  0  0  0  0  0  0  0
    2.0582   -0.7607    0.8728 C   0  0  0  0  0  0  0  0  0  0  0  0
    1.8946   -1.9752    0.1707 C   0  0  0  0  0  0  0  0  0  0  0  0
    2.3899   -3.1760    0.6974 C   0  0  0  0  0  0  0  0  0  0  0  0
    3.0443   -3.1803    1.9393 C   0  0  0  0  0  0  0  0  0  0  0  0
    3.1812   -1.9816    2.6562 C   0  0  0  0  0  0  0  0  0  0  0  0
    2.6933   -0.7761    2.1282 C   0  0  0  0  0  0  0  0  0  0  0  0
    1.5255    2.1755    1.1746 C   0  0  0  0  0  0  0  0  0  0  0  0
    0.3549    2.9521    1.2933 C   0  0  0  0  0  0  0  0  0  0  0  0
    0.3232    4.0624    2.1494 C   0  0  0  0  0  0  0  0  0  0  0  0
    1.4631    4.4122    2.8902 C   0  0  0  0  0  0  0  0  0  0  0  0
    2.6426    3.6625    2.7537 C   0  0  0  0  0  0  0  0  0  0  0  0
    2.6798    2.5554    1.8926 C   0  0  0  0  0  0  0  0  0  0  0  0
    3.8824    1.1611   -0.3297 H   0  0  0  0  0  0  0  0  0  0  0  0
    2.8519    2.1397   -1.4487 H   0  0  0  0  0  0  0  0  0  0  0  0
    3.1020   -0.9122   -1.8172 H   0  0  0  0  0  0  0  0  0  0  0  0
    2.6403    0.3261   -3.0024 H   0  0  0  0  0  0  0  0  0  0  0  0
    4.9541    1.2257   -3.0386 H   0  0  0  0  0  0  0  0  0  0  0  0
    4.9501   -0.5199   -3.4305 H   0  0  0  0  0  0  0  0  0  0  0  0
    6.4240   -1.3388   -0.0846 H   0  0  0  0  0  0  0  0  0  0  0  0
    4.6979   -1.5101   -0.5058 H   0  0  0  0  0  0  0  0  0  0  0  0
    5.9593   -2.0982   -1.6518 H   0  0  0  0  0  0  0  0  0  0  0  0
    7.7526    0.3813   -1.0158 H   0  0  0  0  0  0  0  0  0  0  0  0
    7.0777    1.4793   -2.2645 H   0  0  0  0  0  0  0  0  0  0  0  0
    7.5182   -0.2124   -2.6996 H   0  0  0  0  0  0  0  0  0  0  0  0
    1.3524   -1.9763   -0.7869 H   0  0  0  0  0  0  0  0  0  0  0  0
    2.2519   -4.1126    0.1363 H   0  0  0  0  0  0  0  0  0  0  0  0
    3.4328   -4.1214    2.3571 H   0  0  0  0  0  0  0  0  0  0  0  0
    3.6654   -1.9822    3.6445 H   0  0  0  0  0  0  0  0  0  0  0  0
    2.7881    0.1489    2.7130 H   0  0  0  0  0  0  0  0  0  0  0  0
   -0.5242    2.6793    0.6870 H   0  0  0  0  0  0  0  0  0  0  0  0
   -0.5958    4.6625    2.2295 H   0  0  0  0  0  0  0  0  0  0  0  0
    1.4391    5.2830    3.5629 H   0  0  0  0  0  0  0  0  0  0  0  0
    3.5462    3.9475    3.3138 H   0  0  0  0  0  0  0  0  0  0  0  0
    3.6208    1.9983    1.7727 H   0  0  0  0  0  0  0  0  0  0  0  0
  1  8  1  0  0  0  0
  1 14  1  0  0  0  0
  2 20  1  0  0  0  0
  2  1  1  0  0  0  0
  3 22  1  0  0  0  0
  3  2  1  0  0  0  0
  4  3  1  0  0  0  0
  4  5  1  0  0  0  0
  5  6  1  0  0  0  0
  6 27  1  0  0  0  0
  6 26  1  0  0  0  0
  7  5  1  0  0  0  0
  7 29  1  0  0  0  0
  8 13  1  0  0  0  0
  9 10  1  0  0  0  0
  9  8  2  0  0  0  0
 10 11  2  0  0  0  0
 11 34  1  0  0  0  0
 11 12  1  0  0  0  0
 12 35  1  0  0  0  0
 13 12  2  0  0  0  0
 13 36  1  0  0  0  0
 14 15  2  0  0  0  0
 14 19  1  0  0  0  0
 15 16  1  0  0  0  0
 16 38  1  0  0  0  0
 16 17  2  0  0  0  0
 17 39  1  0  0  0  0
 18 17  1  0  0  0  0
 18 40  1  0  0  0  0
 19 18  2  0  0  0  0
 21  2  1  0  0  0  0
 23  3  1  0  0  0  0
 24  4  1  0  0  0  0
 25  4  1  0  0  0  0
 28  6  1  0  0  0  0
 30  7  1  0  0  0  0
 31  7  1  0  0  0  0
 32  9  1  0  0  0  0
 33 10  1  0  0  0  0
 37 15  1  0  0  0  0
 41 19  1  0  0  0  0
M  END
