1
 OpenBabel05122313063D

 31 32  0  0  0  0  0  0  0  0999 V2000
   -0.4454   -0.0281    0.1405 P   0  0  0  0  0  0  0  0  0  0  0  0
   -0.6484   -0.9503    3.0297 S   0  0  0  0  0  0  0  0  0  0  0  0
   -1.3571    1.5002    2.2134 N   0  0  0  0  0  0  0  0  0  0  0  0
   -1.4941    2.1507    1.4317 H   0  0  0  0  0  0  0  0  0  0  0  0
   -0.9103    0.2616    1.9304 C   0  0  0  0  0  0  0  0  0  0  0  0
   -1.6366    1.9479    3.5633 C   0  0  0  0  0  0  0  0  0  0  0  0
   -0.7446    1.8015    4.2078 H   0  0  0  0  0  0  0  0  0  0  0  0
   -2.4595    1.3532    4.0132 H   0  0  0  0  0  0  0  0  0  0  0  0
   -1.9165    3.0168    3.5406 H   0  0  0  0  0  0  0  0  0  0  0  0
   -1.3499   -1.5374   -0.3500 C   0  0  0  0  0  0  0  0  0  0  0  0
   -2.5546   -1.9381    0.2634 C   0  0  0  0  0  0  0  0  0  0  0  0
   -2.9460   -1.3855    1.1300 H   0  0  0  0  0  0  0  0  0  0  0  0
   -3.2361   -3.0674   -0.2124 C   0  0  0  0  0  0  0  0  0  0  0  0
   -4.1718   -3.3828    0.2733 H   0  0  0  0  0  0  0  0  0  0  0  0
   -2.7222   -3.7997   -1.2953 C   0  0  0  0  0  0  0  0  0  0  0  0
   -3.2578   -4.6889   -1.6610 H   0  0  0  0  0  0  0  0  0  0  0  0
   -1.5190   -3.4063   -1.9014 C   0  0  0  0  0  0  0  0  0  0  0  0
   -1.1054   -3.9855   -2.7404 H   0  0  0  0  0  0  0  0  0  0  0  0
   -0.8299   -2.2797   -1.4293 C   0  0  0  0  0  0  0  0  0  0  0  0
    0.1245   -1.9763   -1.8883 H   0  0  0  0  0  0  0  0  0  0  0  0
   -1.2667    1.3508   -0.7669 C   0  0  0  0  0  0  0  0  0  0  0  0
   -2.6326    1.3035   -1.1208 C   0  0  0  0  0  0  0  0  0  0  0  0
   -3.2220    0.3963   -0.9182 H   0  0  0  0  0  0  0  0  0  0  0  0
   -3.2329    2.4059   -1.7454 C   0  0  0  0  0  0  0  0  0  0  0  0
   -4.2958    2.3604   -2.0271 H   0  0  0  0  0  0  0  0  0  0  0  0
   -2.4809    3.5614   -2.0180 C   0  0  0  0  0  0  0  0  0  0  0  0
   -2.9556    4.4226   -2.5121 H   0  0  0  0  0  0  0  0  0  0  0  0
   -1.1215    3.6124   -1.6707 C   0  0  0  0  0  0  0  0  0  0  0  0
   -0.5256    4.5100   -1.8946 H   0  0  0  0  0  0  0  0  0  0  0  0
   -0.5121    2.5104   -1.0515 C   0  0  0  0  0  0  0  0  0  0  0  0
    0.5604    2.5324   -0.7971 H   0  0  0  0  0  0  0  0  0  0  0  0
  1  5  1  0  0  0  0
  3  6  1  0  0  0  0
  4  3  1  0  0  0  0
  5  3  1  0  0  0  0
  5  2  2  0  0  0  0
  6  8  1  0  0  0  0
  6  7  1  0  0  0  0
  9  6  1  0  0  0  0
 10  1  1  0  0  0  0
 10 11  1  0  0  0  0
 11 12  1  0  0  0  0
 13 11  2  0  0  0  0
 13 14  1  0  0  0  0
 15 13  1  0  0  0  0
 16 15  1  0  0  0  0
 17 19  1  0  0  0  0
 17 15  2  0  0  0  0
 18 17  1  0  0  0  0
 19 10  2  0  0  0  0
 20 19  1  0  0  0  0
 21  1  1  0  0  0  0
 22 23  1  0  0  0  0
 22 21  2  0  0  0  0
 24 22  1  0  0  0  0
 25 24  1  0  0  0  0
 26 24  2  0  0  0  0
 26 28  1  0  0  0  0
 27 26  1  0  0  0  0
 28 30  2  0  0  0  0
 29 28  1  0  0  0  0
 30 31  1  0  0  0  0
 30 21  1  0  0  0  0
M  END
