1
 OpenBabel05122313063D

 41 44  0  0  1  0  0  0  0  0999 V2000
    2.3061    0.3581    0.0792 P   0  0  1  0  0  0  0  0  0  0  0  0
    3.2297   -1.9081    1.2846 O   0  0  0  0  0  0  0  0  0  0  0  0
    5.0982   -2.1923   -0.1182 O   0  0  0  0  0  0  0  0  0  0  0  0
    4.6162   -0.2234   -1.3152 O   0  0  0  0  0  0  0  0  0  0  0  0
    2.7711    2.1280    0.1591 C   0  0  0  0  0  0  0  0  0  0  0  0
    3.8561    2.6934   -0.5433 C   0  0  0  0  0  0  0  0  0  0  0  0
    4.4753    2.0573   -1.1913 H   0  0  0  0  0  0  0  0  0  0  0  0
    4.1417    4.0608   -0.4062 C   0  0  0  0  0  0  0  0  0  0  0  0
    4.9837    4.4968   -0.9653 H   0  0  0  0  0  0  0  0  0  0  0  0
    3.3632    4.8691    0.4363 C   0  0  0  0  0  0  0  0  0  0  0  0
    3.5936    5.9403    0.5412 H   0  0  0  0  0  0  0  0  0  0  0  0
    2.2844    4.3088    1.1397 C   0  0  0  0  0  0  0  0  0  0  0  0
    1.6638    4.9387    1.7948 H   0  0  0  0  0  0  0  0  0  0  0  0
    1.9826    2.9487    0.9946 C   0  0  0  0  0  0  0  0  0  0  0  0
    1.1152    2.5137    1.5156 H   0  0  0  0  0  0  0  0  0  0  0  0
    3.2040   -0.4816   -1.3713 C   0  0  1  0  0  0  0  0  0  0  0  0
    2.9433   -1.9818   -1.1523 C   0  0  0  0  0  0  0  0  0  0  0  0
    3.3064   -2.5325   -2.0444 H   0  0  0  0  0  0  0  0  0  0  0  0
    1.8586   -2.1728   -1.0251 H   0  0  0  0  0  0  0  0  0  0  0  0
    3.7116   -2.4967    0.0786 C   0  0  2  0  0  0  0  0  0  0  0  0
    5.3212   -0.7897   -0.1968 C   0  0  1  0  0  0  0  0  0  0  0  0
    3.3946   -0.4967    1.4091 C   0  0  1  0  0  0  0  0  0  0  0  0
    4.8624   -0.1471    1.1250 C   0  0  0  0  0  0  0  0  0  0  0  0
    5.4765   -0.5718    1.9462 H   0  0  0  0  0  0  0  0  0  0  0  0
    5.0224    0.9477    1.1029 H   0  0  0  0  0  0  0  0  0  0  0  0
    2.9377   -0.1062    2.8039 C   0  0  0  0  0  0  0  0  0  0  0  0
    3.5620   -0.6355    3.5524 H   0  0  0  0  0  0  0  0  0  0  0  0
    3.0468    0.9855    2.9562 H   0  0  0  0  0  0  0  0  0  0  0  0
    1.8803   -0.4031    2.9438 H   0  0  0  0  0  0  0  0  0  0  0  0
    6.7950   -0.5815   -0.4857 C   0  0  0  0  0  0  0  0  0  0  0  0
    7.0432   -1.0641   -1.4495 H   0  0  0  0  0  0  0  0  0  0  0  0
    7.0226    0.4993   -0.5493 H   0  0  0  0  0  0  0  0  0  0  0  0
    7.4031   -1.0389    0.3166 H   0  0  0  0  0  0  0  0  0  0  0  0
    2.7146    0.0044   -2.7244 C   0  0  0  0  0  0  0  0  0  0  0  0
    3.2813   -0.5254   -3.5168 H   0  0  0  0  0  0  0  0  0  0  0  0
    1.6329   -0.1976   -2.8336 H   0  0  0  0  0  0  0  0  0  0  0  0
    2.8611    1.0943   -2.8416 H   0  0  0  0  0  0  0  0  0  0  0  0
    3.5898   -3.9943    0.2718 C   0  0  0  0  0  0  0  0  0  0  0  0
    3.9658   -4.5283   -0.6206 H   0  0  0  0  0  0  0  0  0  0  0  0
    4.1878   -4.2910    1.1537 H   0  0  0  0  0  0  0  0  0  0  0  0
    2.5291   -4.2528    0.4496 H   0  0  0  0  0  0  0  0  0  0  0  0
  1  5  1  6  0  0  0
  1 22  1  0  0  0  0
  2 22  1  0  0  0  0
  3 20  1  0  0  0  0
  4 21  1  0  0  0  0
  5 14  1  0  0  0  0
  6  8  1  0  0  0  0
  6  5  2  0  0  0  0
  7  6  1  0  0  0  0
  8 10  2  0  0  0  0
  9  8  1  0  0  0  0
 10 11  1  0  0  0  0
 10 12  1  0  0  0  0
 12 13  1  0  0  0  0
 14 12  2  0  0  0  0
 14 15  1  0  0  0  0
 16 34  1  6  0  0  0
 16  4  1  0  0  0  0
 16 17  1  0  0  0  0
 16  1  1  0  0  0  0
 17 19  1  0  0  0  0
 17 20  1  0  0  0  0
 18 17  1  0  0  0  0
 20 38  1  1  0  0  0
 20  2  1  0  0  0  0
 21 30  1  6  0  0  0
 21  3  1  0  0  0  0
 21 23  1  0  0  0  0
 22 26  1  1  0  0  0
 23 22  1  0  0  0  0
 23 24  1  0  0  0  0
 25 23  1  0  0  0  0
 26 29  1  0  0  0  0
 26 28  1  0  0  0  0
 26 27  1  0  0  0  0
 30 33  1  0  0  0  0
 31 30  1  0  0  0  0
 32 30  1  0  0  0  0
 35 34  1  0  0  0  0
 36 34  1  0  0  0  0
 37 34  1  0  0  0  0
 38 41  1  0  0  0  0
 38 40  1  0  0  0  0
 39 38  1  0  0  0  0
M  END
