2
 OpenBabel05122313063D

 54 56  0  0  1  0  0  0  0  0999 V2000
   -0.4977   -2.1144   -0.6519 P   0  0  0  0  0  0  0  0  0  0  0  0
   -0.0940    0.7244   -0.0119 P   0  0  0  0  0  0  0  0  0  0  0  0
   -0.6511   -2.3934    0.9368 O   0  0  0  0  0  0  0  0  0  0  0  0
   -0.7576    0.9148    1.6815 C   0  0  0  0  0  0  0  0  0  0  0  0
   -0.4399    3.5253   -0.1081 C   0  0  0  0  0  0  0  0  0  0  0  0
   -0.3624    3.4920    0.9877 H   0  0  0  0  0  0  0  0  0  0  0  0
   -1.4686   -3.2391   -1.3158 O   0  0  0  0  0  0  0  0  0  0  0  0
    0.9189   -2.1388   -1.2024 O   0  0  0  0  0  0  0  0  0  0  0  0
   -1.2922   -0.4797   -0.8749 C   0  0  2  0  0  0  0  0  0  0  0  0
   -1.0978   -0.2856   -1.9510 H   0  0  0  0  0  0  0  0  0  0  0  0
   -2.7607   -0.3182   -0.5883 C   0  0  0  0  0  0  0  0  0  0  0  0
   -4.7480   -0.7215    0.7692 C   0  0  0  0  0  0  0  0  0  0  0  0
   -5.2236   -1.2227    1.6258 H   0  0  0  0  0  0  0  0  0  0  0  0
    0.3442   -3.2151    1.6147 C   0  0  0  0  0  0  0  0  0  0  0  0
    1.3222   -2.6911    1.5550 H   0  0  0  0  0  0  0  0  0  0  0  0
    0.4409   -4.1837    1.0801 H   0  0  0  0  0  0  0  0  0  0  0  0
    0.0060    0.4172    2.7555 C   0  0  0  0  0  0  0  0  0  0  0  0
    0.9934   -0.0222    2.5450 H   0  0  0  0  0  0  0  0  0  0  0  0
   -3.5233    0.5425   -1.4076 C   0  0  0  0  0  0  0  0  0  0  0  0
   -3.0418    1.0472   -2.2593 H   0  0  0  0  0  0  0  0  0  0  0  0
   -0.4339    2.3873   -2.2602 C   0  0  0  0  0  0  0  0  0  0  0  0
   -0.3415    1.4672   -2.8585 H   0  0  0  0  0  0  0  0  0  0  0  0
   -2.5038    1.5868    3.2395 C   0  0  0  0  0  0  0  0  0  0  0  0
   -3.4869    2.0447    3.4257 H   0  0  0  0  0  0  0  0  0  0  0  0
   -0.5548    4.7580   -0.7690 C   0  0  0  0  0  0  0  0  0  0  0  0
   -0.5852    5.6871   -0.1799 H   0  0  0  0  0  0  0  0  0  0  0  0
   -1.7457    1.0796    4.3067 C   0  0  0  0  0  0  0  0  0  0  0  0
   -2.1326    1.1443    5.3352 H   0  0  0  0  0  0  0  0  0  0  0  0
   -0.1162   -3.4099    3.0424 C   0  0  0  0  0  0  0  0  0  0  0  0
    0.6364   -4.0018    3.6003 H   0  0  0  0  0  0  0  0  0  0  0  0
   -1.0837   -3.9490    3.0810 H   0  0  0  0  0  0  0  0  0  0  0  0
   -0.2401   -2.4328    3.5492 H   0  0  0  0  0  0  0  0  0  0  0  0
   -0.3979    2.3280   -0.8508 C   0  0  0  0  0  0  0  0  0  0  0  0
   -3.3900   -0.9484    0.5061 C   0  0  0  0  0  0  0  0  0  0  0  0
   -2.8052   -1.6124    1.1573 H   0  0  0  0  0  0  0  0  0  0  0  0
   -0.4897    0.4993    4.0639 C   0  0  0  0  0  0  0  0  0  0  0  0
    0.1137    0.1161    4.9007 H   0  0  0  0  0  0  0  0  0  0  0  0
   -2.0131    1.5091    1.9276 C   0  0  0  0  0  0  0  0  0  0  0  0
   -2.6104    1.9117    1.0967 H   0  0  0  0  0  0  0  0  0  0  0  0
   -1.1945   -3.7535   -2.6433 C   0  0  0  0  0  0  0  0  0  0  0  0
   -1.8175   -4.6665   -2.7179 H   0  0  0  0  0  0  0  0  0  0  0  0
   -0.1263   -4.0485   -2.7020 H   0  0  0  0  0  0  0  0  0  0  0  0
   -0.6242    4.8092   -2.1691 C   0  0  0  0  0  0  0  0  0  0  0  0
   -0.7173    5.7777   -2.6832 H   0  0  0  0  0  0  0  0  0  0  0  0
   -0.5574    3.6201   -2.9146 C   0  0  0  0  0  0  0  0  0  0  0  0
   -0.5906    3.6533   -4.0141 H   0  0  0  0  0  0  0  0  0  0  0  0
   -4.8787    0.7756   -1.1352 C   0  0  0  0  0  0  0  0  0  0  0  0
   -5.4559    1.4533   -1.7824 H   0  0  0  0  0  0  0  0  0  0  0  0
   -5.4964    0.1436   -0.0440 C   0  0  0  0  0  0  0  0  0  0  0  0
   -6.5610    0.3232    0.1692 H   0  0  0  0  0  0  0  0  0  0  0  0
   -1.5460   -2.7561   -3.7339 C   0  0  0  0  0  0  0  0  0  0  0  0
   -1.4635   -3.2368   -4.7294 H   0  0  0  0  0  0  0  0  0  0  0  0
   -0.8466   -1.8952   -3.7257 H   0  0  0  0  0  0  0  0  0  0  0  0
   -2.5819   -2.3813   -3.6109 H   0  0  0  0  0  0  0  0  0  0  0  0
  1  3  1  0  0  0  0
  2  4  1  0  0  0  0
  3 14  1  0  0  0  0
  4 38  2  0  0  0  0
  4 17  1  0  0  0  0
  5  6  1  0  0  0  0
  7  1  1  0  0  0  0
  8  1  2  0  0  0  0
  9 10  1  6  0  0  0
  9  1  1  0  0  0  0
  9 11  1  0  0  0  0
  9  2  1  0  0  0  0
 11 34  1  0  0  0  0
 12 13  1  0  0  0  0
 14 29  1  0  0  0  0
 15 14  1  0  0  0  0
 16 14  1  0  0  0  0
 17 36  2  0  0  0  0
 18 17  1  0  0  0  0
 19 47  1  0  0  0  0
 19 11  2  0  0  0  0
 20 19  1  0  0  0  0
 21 33  1  0  0  0  0
 22 21  1  0  0  0  0
 23 24  1  0  0  0  0
 23 27  2  0  0  0  0
 25 26  1  0  0  0  0
 25  5  1  0  0  0  0
 27 28  1  0  0  0  0
 29 31  1  0  0  0  0
 29 32  1  0  0  0  0
 29 30  1  0  0  0  0
 33  5  2  0  0  0  0
 33  2  1  0  0  0  0
 34 12  2  0  0  0  0
 34 35  1  0  0  0  0
 36 27  1  0  0  0  0
 36 37  1  0  0  0  0
 38 23  1  0  0  0  0
 39 38  1  0  0  0  0
 40  7  1  0  0  0  0
 41 40  1  0  0  0  0
 42 40  1  0  0  0  0
 43 25  2  0  0  0  0
 44 43  1  0  0  0  0
 45 21  2  0  0  0  0
 45 43  1  0  0  0  0
 46 45  1  0  0  0  0
 47 49  2  0  0  0  0
 48 47  1  0  0  0  0
 49 50  1  0  0  0  0
 49 12  1  0  0  0  0
 51 53  1  0  0  0  0
 51 54  1  0  0  0  0
 51 40  1  0  0  0  0
 52 51  1  0  0  0  0
M  END
