4
 OpenBabel05122313063D

 35 37  0  0  0  0  0  0  0  0999 V2000
    4.3814   -2.8347    1.2150 Br  0  0  0  0  0  0  0  0  0  0  0  0
    6.6658    2.0415   -0.6441 Br  0  0  0  0  0  0  0  0  0  0  0  0
    1.9222    0.0127   -3.0701 Br  0  0  0  0  0  0  0  0  0  0  0  0
    0.7565   -1.9989   -0.3400 P   0  0  0  0  0  0  0  0  0  0  0  0
    2.3288   -2.2089   -0.9689 O   0  0  0  0  0  0  0  0  0  0  0  0
    3.2937   -1.2464   -0.9001 C   0  0  0  0  0  0  0  0  0  0  0  0
    4.3500   -1.3581    0.0321 C   0  0  0  0  0  0  0  0  0  0  0  0
    5.3623   -0.3930    0.1094 C   0  0  0  0  0  0  0  0  0  0  0  0
    6.1660   -0.4952    0.8493 H   0  0  0  0  0  0  0  0  0  0  0  0
    5.3148    0.7080   -0.7582 C   0  0  0  0  0  0  0  0  0  0  0  0
    4.2970    0.8450   -1.7125 C   0  0  0  0  0  0  0  0  0  0  0  0
    4.2739    1.7021   -2.3973 H   0  0  0  0  0  0  0  0  0  0  0  0
    3.3030   -0.1405   -1.7790 C   0  0  0  0  0  0  0  0  0  0  0  0
    0.7465   -3.1248    1.1050 C   0  0  0  0  0  0  0  0  0  0  0  0
    0.8414   -2.6096    2.4132 C   0  0  0  0  0  0  0  0  0  0  0  0
    0.9171   -1.5220    2.5617 H   0  0  0  0  0  0  0  0  0  0  0  0
    0.8817   -3.4877    3.5056 C   0  0  0  0  0  0  0  0  0  0  0  0
    0.9559   -3.0813    4.5257 H   0  0  0  0  0  0  0  0  0  0  0  0
    0.8357   -4.8753    3.3005 C   0  0  0  0  0  0  0  0  0  0  0  0
    0.8677   -5.5613    4.1609 H   0  0  0  0  0  0  0  0  0  0  0  0
    0.7495   -5.3908    1.9961 C   0  0  0  0  0  0  0  0  0  0  0  0
    0.7160   -6.4785    1.8318 H   0  0  0  0  0  0  0  0  0  0  0  0
    0.7017   -4.5213    0.8987 C   0  0  0  0  0  0  0  0  0  0  0  0
    0.6290   -4.9255   -0.1217 H   0  0  0  0  0  0  0  0  0  0  0  0
   -0.1932   -2.9348   -1.5793 C   0  0  0  0  0  0  0  0  0  0  0  0
    0.3843   -3.4250   -2.7634 C   0  0  0  0  0  0  0  0  0  0  0  0
    1.4511   -3.2513   -2.9609 H   0  0  0  0  0  0  0  0  0  0  0  0
   -0.4109   -4.1325   -3.6795 C   0  0  0  0  0  0  0  0  0  0  0  0
    0.0415   -4.5205   -4.6048 H   0  0  0  0  0  0  0  0  0  0  0  0
   -1.7740   -4.3419   -3.4200 C   0  0  0  0  0  0  0  0  0  0  0  0
   -2.3934   -4.8925   -4.1443 H   0  0  0  0  0  0  0  0  0  0  0  0
   -2.3511   -3.8435   -2.2393 C   0  0  0  0  0  0  0  0  0  0  0  0
   -3.4228   -3.9885   -2.0351 H   0  0  0  0  0  0  0  0  0  0  0  0
   -1.5654   -3.1381   -1.3205 C   0  0  0  0  0  0  0  0  0  0  0  0
   -2.0232   -2.7317   -0.4060 H   0  0  0  0  0  0  0  0  0  0  0  0
  3 13  1  0  0  0  0
  4 14  1  0  0  0  0
  5  6  1  0  0  0  0
  5  4  1  0  0  0  0
  6  7  1  0  0  0  0
  7  8  2  0  0  0  0
  7  1  1  0  0  0  0
  8  9  1  0  0  0  0
 10  2  1  0  0  0  0
 10  8  1  0  0  0  0
 11 10  2  0  0  0  0
 12 11  1  0  0  0  0
 13 11  1  0  0  0  0
 13  6  2  0  0  0  0
 14 15  1  0  0  0  0
 15 16  1  0  0  0  0
 15 17  2  0  0  0  0
 17 18  1  0  0  0  0
 19 17  1  0  0  0  0
 19 20  1  0  0  0  0
 21 19  2  0  0  0  0
 22 21  1  0  0  0  0
 23 14  2  0  0  0  0
 23 21  1  0  0  0  0
 24 23  1  0  0  0  0
 25 34  1  0  0  0  0
 25  4  1  0  0  0  0
 26 25  2  0  0  0  0
 27 26  1  0  0  0  0
 28 30  2  0  0  0  0
 28 26  1  0  0  0  0
 29 28  1  0  0  0  0
 30 32  1  0  0  0  0
 31 30  1  0  0  0  0
 32 33  1  0  0  0  0
 32 34  2  0  0  0  0
 34 35  1  0  0  0  0
M  END
