1
 OpenBabel05122313063D

 26 29  0  0  0  0  0  0  0  0999 V2000
    1.7786   -0.2042   -0.0776 P   0  0  0  0  0  0  0  0  0  0  0  0
    2.0594    3.2805   -2.5373 S   0  0  0  0  0  0  0  0  0  0  0  0
    1.5110    3.8620    1.2386 S   0  0  0  0  0  0  0  0  0  0  0  0
    1.3379    2.8745    2.6666 C   0  0  0  0  0  0  0  0  0  0  0  0
    1.1816    3.3624    3.6358 H   0  0  0  0  0  0  0  0  0  0  0  0
    1.3939    1.5193    2.3890 C   0  0  0  0  0  0  0  0  0  0  0  0
    1.2821    0.7393    3.1530 H   0  0  0  0  0  0  0  0  0  0  0  0
    1.5935    1.2769    1.0010 C   0  0  0  0  0  0  0  0  0  0  0  0
    1.6788    2.4527    0.2440 C   0  0  0  0  0  0  0  0  0  0  0  0
    1.8795    2.2340   -1.1702 C   0  0  0  0  0  0  0  0  0  0  0  0
    1.9495    0.8833   -1.5447 C   0  0  0  0  0  0  0  0  0  0  0  0
    2.1364    0.7041   -2.9442 C   0  0  0  0  0  0  0  0  0  0  0  0
    2.2022   -0.2686   -3.4487 H   0  0  0  0  0  0  0  0  0  0  0  0
    2.2210    1.9162   -3.6106 C   0  0  0  0  0  0  0  0  0  0  0  0
    2.3633    2.0931   -4.6836 H   0  0  0  0  0  0  0  0  0  0  0  0
    3.5218   -0.7052    0.2950 C   0  0  0  0  0  0  0  0  0  0  0  0
    4.6201   -0.1661   -0.4034 C   0  0  0  0  0  0  0  0  0  0  0  0
    4.4534    0.5571   -1.2151 H   0  0  0  0  0  0  0  0  0  0  0  0
    5.9245   -0.5547   -0.0630 C   0  0  0  0  0  0  0  0  0  0  0  0
    6.7781   -0.1359   -0.6177 H   0  0  0  0  0  0  0  0  0  0  0  0
    6.1421   -1.4726    0.9764 C   0  0  0  0  0  0  0  0  0  0  0  0
    7.1667   -1.7770    1.2385 H   0  0  0  0  0  0  0  0  0  0  0  0
    5.0487   -2.0064    1.6765 C   0  0  0  0  0  0  0  0  0  0  0  0
    5.2107   -2.7300    2.4896 H   0  0  0  0  0  0  0  0  0  0  0  0
    3.7420   -1.6300    1.3348 C   0  0  0  0  0  0  0  0  0  0  0  0
    2.8870   -2.0624    1.8753 H   0  0  0  0  0  0  0  0  0  0  0  0
  1 16  1  0  0  0  0
  1  8  1  0  0  0  0
  2 10  1  0  0  0  0
  3  4  1  0  0  0  0
  4  5  1  0  0  0  0
  6  4  2  0  0  0  0
  6  7  1  0  0  0  0
  8  6  1  0  0  0  0
  9  8  2  0  0  0  0
  9  3  1  0  0  0  0
 10  9  1  0  0  0  0
 11 10  2  0  0  0  0
 11  1  1  0  0  0  0
 12 11  1  0  0  0  0
 13 12  1  0  0  0  0
 14 12  2  0  0  0  0
 14  2  1  0  0  0  0
 15 14  1  0  0  0  0
 16 25  1  0  0  0  0
 17 19  1  0  0  0  0
 17 16  2  0  0  0  0
 18 17  1  0  0  0  0
 19 21  2  0  0  0  0
 20 19  1  0  0  0  0
 21 22  1  0  0  0  0
 21 23  1  0  0  0  0
 23 24  1  0  0  0  0
 25 23  2  0  0  0  0
 25 26  1  0  0  0  0
M  END
