2
 OpenBabel05122313063D

 37 39  0  0  0  0  0  0  0  0999 V2000
    0.6669   -2.0160   -1.9350 Cl  0  0  0  0  0  0  0  0  0  0  0  0
    0.3097   -0.1679   -0.9840 P   0  0  0  0  0  0  0  0  0  0  0  0
    1.8892    0.1521    0.1253 C   0  0  0  0  0  0  0  0  0  0  0  0
    3.1152   -0.5411   -0.4786 C   0  0  0  0  0  0  0  0  0  0  0  0
    3.9774   -1.3125    0.3253 C   0  0  0  0  0  0  0  0  0  0  0  0
    3.7541   -1.4408    1.3931 H   0  0  0  0  0  0  0  0  0  0  0  0
    5.1233   -1.9160   -0.2173 C   0  0  0  0  0  0  0  0  0  0  0  0
    5.7800   -2.5117    0.4347 H   0  0  0  0  0  0  0  0  0  0  0  0
    5.4294   -1.7639   -1.5760 C   0  0  0  0  0  0  0  0  0  0  0  0
    6.3246   -2.2412   -2.0022 H   0  0  0  0  0  0  0  0  0  0  0  0
    4.5795   -0.9980   -2.3902 C   0  0  0  0  0  0  0  0  0  0  0  0
    4.8025   -0.8717   -3.4604 H   0  0  0  0  0  0  0  0  0  0  0  0
    3.4384   -0.3954   -1.8474 C   0  0  0  0  0  0  0  0  0  0  0  0
    2.7885    0.1993   -2.5058 H   0  0  0  0  0  0  0  0  0  0  0  0
    1.9889    1.6873    0.0856 C   0  0  0  0  0  0  0  0  0  0  0  0
    3.1012    2.3634   -0.4582 C   0  0  0  0  0  0  0  0  0  0  0  0
    3.9597    1.7903   -0.8318 H   0  0  0  0  0  0  0  0  0  0  0  0
    3.1340    3.7654   -0.5134 C   0  0  0  0  0  0  0  0  0  0  0  0
    4.0182    4.2671   -0.9348 H   0  0  0  0  0  0  0  0  0  0  0  0
    2.0544    4.5238   -0.0371 C   0  0  0  0  0  0  0  0  0  0  0  0
    2.0790    5.6225   -0.0921 H   0  0  0  0  0  0  0  0  0  0  0  0
    0.9489    3.8668    0.5234 C   0  0  0  0  0  0  0  0  0  0  0  0
    0.0963    4.4426    0.9130 H   0  0  0  0  0  0  0  0  0  0  0  0
    0.9249    2.4676    0.5959 C   0  0  0  0  0  0  0  0  0  0  0  0
    0.0711    1.9707    1.0732 H   0  0  0  0  0  0  0  0  0  0  0  0
    1.5635   -0.3858    1.5224 C   0  0  0  0  0  0  0  0  0  0  0  0
    0.9927   -1.6690    1.6660 C   0  0  0  0  0  0  0  0  0  0  0  0
    0.7857   -2.2774    0.7732 H   0  0  0  0  0  0  0  0  0  0  0  0
    0.7030   -2.1912    2.9332 C   0  0  0  0  0  0  0  0  0  0  0  0
    0.2391   -3.1856    3.0150 H   0  0  0  0  0  0  0  0  0  0  0  0
    0.9972   -1.4455    4.0856 C   0  0  0  0  0  0  0  0  0  0  0  0
    0.7635   -1.8492    5.0821 H   0  0  0  0  0  0  0  0  0  0  0  0
    1.5937   -0.1829    3.9565 C   0  0  0  0  0  0  0  0  0  0  0  0
    1.8380    0.4067    4.8530 H   0  0  0  0  0  0  0  0  0  0  0  0
    1.8735    0.3439    2.6857 C   0  0  0  0  0  0  0  0  0  0  0  0
    2.3361    1.3371    2.5989 H   0  0  0  0  0  0  0  0  0  0  0  0
    0.6718    0.6728   -2.0850 H   0  0  0  0  0  0  0  0  0  0  0  0
  1  2  1  0  0  0  0
  2  3  1  0  0  0  0
  3 26  1  0  0  0  0
  4  3  1  0  0  0  0
  4  5  1  0  0  0  0
  5  6  1  0  0  0  0
  7  5  2  0  0  0  0
  7  8  1  0  0  0  0
  9  7  1  0  0  0  0
 10  9  1  0  0  0  0
 11 13  1  0  0  0  0
 11  9  2  0  0  0  0
 12 11  1  0  0  0  0
 13  4  2  0  0  0  0
 14 13  1  0  0  0  0
 15  3  1  0  0  0  0
 15 24  1  0  0  0  0
 16 15  2  0  0  0  0
 17 16  1  0  0  0  0
 18 16  1  0  0  0  0
 18 20  2  0  0  0  0
 19 18  1  0  0  0  0
 20 22  1  0  0  0  0
 21 20  1  0  0  0  0
 22 24  2  0  0  0  0
 22 23  1  0  0  0  0
 24 25  1  0  0  0  0
 26 27  2  0  0  0  0
 26 35  1  0  0  0  0
 27 29  1  0  0  0  0
 28 27  1  0  0  0  0
 29 30  1  0  0  0  0
 29 31  2  0  0  0  0
 31 32  1  0  0  0  0
 33 31  1  0  0  0  0
 33 34  1  0  0  0  0
 35 33  2  0  0  0  0
 36 35  1  0  0  0  0
 37  2  1  0  0  0  0
M  END
