1
 OpenBabel05122313063D

 48 50  0  0  0  0  0  0  0  0999 V2000
    0.3294   -0.7051   -0.7519 P   0  0  2  0  0  0  0  0  0  0  0  0
    0.6124   -2.3992   -0.6521 N   0  0  0  0  0  0  0  0  0  0  0  0
    0.6622   -0.4137   -2.5437 C   0  0  0  0  0  0  0  0  0  0  0  0
   -0.0139   -1.0851   -3.1074 H   0  0  0  0  0  0  0  0  0  0  0  0
    1.7112   -0.6111   -2.8289 H   0  0  0  0  0  0  0  0  0  0  0  0
    0.4226    0.6332   -2.7947 H   0  0  0  0  0  0  0  0  0  0  0  0
    1.5934   -3.1361   -1.4383 C   0  0  0  0  0  0  0  0  0  0  0  0
    1.1127   -4.0524   -1.8493 H   0  0  0  0  0  0  0  0  0  0  0  0
    2.4704   -3.4498   -0.8293 H   0  0  0  0  0  0  0  0  0  0  0  0
    1.9714   -2.5435   -2.2863 H   0  0  0  0  0  0  0  0  0  0  0  0
    0.0476   -3.2139    0.4072 C   0  0  0  0  0  0  0  0  0  0  0  0
   -0.7957   -2.6942    0.8924 H   0  0  0  0  0  0  0  0  0  0  0  0
    0.8006   -3.4796    1.1864 H   0  0  0  0  0  0  0  0  0  0  0  0
   -0.3473   -4.1617   -0.0201 H   0  0  0  0  0  0  0  0  0  0  0  0
    1.8515    0.2854    0.1347 C   0  0  0  0  0  0  0  0  0  0  0  0
    1.4303    0.5815    1.5827 C   0  0  0  0  0  0  0  0  0  0  0  0
    0.7232   -0.3674    2.3527 C   0  0  0  0  0  0  0  0  0  0  0  0
    0.4645   -1.3397    1.9182 H   0  0  0  0  0  0  0  0  0  0  0  0
    0.3364   -0.1008    3.6740 C   0  0  0  0  0  0  0  0  0  0  0  0
   -0.2336   -0.8583    4.2322 H   0  0  0  0  0  0  0  0  0  0  0  0
    0.6572    1.1292    4.2657 C   0  0  0  0  0  0  0  0  0  0  0  0
    0.3462    1.3478    5.2983 H   0  0  0  0  0  0  0  0  0  0  0  0
    1.3740    2.0780    3.5227 C   0  0  0  0  0  0  0  0  0  0  0  0
    1.6338    3.0491    3.9707 H   0  0  0  0  0  0  0  0  0  0  0  0
    1.7524    1.8090    2.1992 C   0  0  0  0  0  0  0  0  0  0  0  0
    2.2982    2.5761    1.6339 H   0  0  0  0  0  0  0  0  0  0  0  0
    2.0972    1.6144   -0.5939 C   0  0  0  0  0  0  0  0  0  0  0  0
    1.0138    2.4129   -1.0159 C   0  0  0  0  0  0  0  0  0  0  0  0
   -0.0118    2.0501   -0.8672 H   0  0  0  0  0  0  0  0  0  0  0  0
    1.2112    3.6681   -1.6060 C   0  0  0  0  0  0  0  0  0  0  0  0
    0.3389    4.2523   -1.9361 H   0  0  0  0  0  0  0  0  0  0  0  0
    2.5098    4.1756   -1.7644 C   0  0  0  0  0  0  0  0  0  0  0  0
    2.6708    5.1620   -2.2247 H   0  0  0  0  0  0  0  0  0  0  0  0
    3.5986    3.4158   -1.3124 C   0  0  0  0  0  0  0  0  0  0  0  0
    4.6228    3.8087   -1.4042 H   0  0  0  0  0  0  0  0  0  0  0  0
    3.3950    2.1534   -0.7328 C   0  0  0  0  0  0  0  0  0  0  0  0
    4.2625    1.5873   -0.3665 H   0  0  0  0  0  0  0  0  0  0  0  0
    3.0455   -0.6713    0.0494 C   0  0  0  0  0  0  0  0  0  0  0  0
    3.4163   -1.5018    1.1290 C   0  0  0  0  0  0  0  0  0  0  0  0
    2.8808   -1.4211    2.0841 H   0  0  0  0  0  0  0  0  0  0  0  0
    4.4695   -2.4221    1.0145 C   0  0  0  0  0  0  0  0  0  0  0  0
    4.7306   -3.0524    1.8783 H   0  0  0  0  0  0  0  0  0  0  0  0
    5.1936   -2.5319   -0.1817 C   0  0  0  0  0  0  0  0  0  0  0  0
    6.0231   -3.2495   -0.2694 H   0  0  0  0  0  0  0  0  0  0  0  0
    4.8544   -1.7004   -1.2602 C   0  0  0  0  0  0  0  0  0  0  0  0
    5.4184   -1.7595   -2.2036 H   0  0  0  0  0  0  0  0  0  0  0  0
    3.7970   -0.7883   -1.1454 C   0  0  0  0  0  0  0  0  0  0  0  0
    3.5647   -0.1382   -2.0003 H   0  0  0  0  0  0  0  0  0  0  0  0
  1  3  1  6  0  0  0
  1  2  1  0  0  0  0
  1 15  1  0  0  0  0
  2 11  1  0  0  0  0
  4  3  1  0  0  0  0
  5  3  1  0  0  0  0
  6  3  1  0  0  0  0
  7  9  1  0  0  0  0
  7  2  1  0  0  0  0
  8  7  1  0  0  0  0
 10  7  1  0  0  0  0
 11 12  1  0  0  0  0
 11 13  1  0  0  0  0
 14 11  1  0  0  0  0
 15 16  1  0  0  0  0
 16 25  2  0  0  0  0
 16 17  1  0  0  0  0
 17 19  2  0  0  0  0
 18 17  1  0  0  0  0
 19 20  1  0  0  0  0
 19 21  1  0  0  0  0
 21 22  1  0  0  0  0
 23 24  1  0  0  0  0
 23 21  2  0  0  0  0
 25 23  1  0  0  0  0
 26 25  1  0  0  0  0
 27 15  1  0  0  0  0
 28 29  1  0  0  0  0
 28 27  2  0  0  0  0
 30 28  1  0  0  0  0
 31 30  1  0  0  0  0
 32 30  2  0  0  0  0
 32 34  1  0  0  0  0
 33 32  1  0  0  0  0
 34 36  2  0  0  0  0
 35 34  1  0  0  0  0
 36 27  1  0  0  0  0
 36 37  1  0  0  0  0
 38 15  1  0  0  0  0
 38 39  1  0  0  0  0
 39 40  1  0  0  0  0
 41 39  2  0  0  0  0
 41 42  1  0  0  0  0
 43 41  1  0  0  0  0
 44 43  1  0  0  0  0
 45 47  1  0  0  0  0
 45 43  2  0  0  0  0
 46 45  1  0  0  0  0
 47 38  2  0  0  0  0
 48 47  1  0  0  0  0
M  END
