1
 OpenBabel05122313063D

 45 47  0  0  0  0  0  0  0  0999 V2000
    0.3055   -0.3820   -0.9548 P   0  0  0  0  0  0  0  0  0  0  0  0
    0.6371    0.3116   -2.1626 H   0  0  0  0  0  0  0  0  0  0  0  0
    0.6359   -1.9622   -1.4916 N   0  0  0  0  0  0  0  0  0  0  0  0
    1.5203   -2.0620   -2.0039 H   0  0  0  0  0  0  0  0  0  0  0  0
    0.1682   -3.2094   -0.8941 C   0  0  0  0  0  0  0  0  0  0  0  0
   -0.2659   -3.8450   -1.6985 H   0  0  0  0  0  0  0  0  0  0  0  0
   -0.6764   -2.9696   -0.2190 H   0  0  0  0  0  0  0  0  0  0  0  0
    1.2502   -3.9898   -0.1480 C   0  0  0  0  0  0  0  0  0  0  0  0
    1.6504   -3.4196    0.7132 H   0  0  0  0  0  0  0  0  0  0  0  0
    2.1088   -4.2199   -0.8127 H   0  0  0  0  0  0  0  0  0  0  0  0
    0.8467   -4.9519    0.2274 H   0  0  0  0  0  0  0  0  0  0  0  0
    1.8653    0.3308    0.0766 C   0  0  0  0  0  0  0  0  0  0  0  0
    3.0312   -0.6027   -0.2489 C   0  0  0  0  0  0  0  0  0  0  0  0
    3.4767   -0.7292   -1.5885 C   0  0  0  0  0  0  0  0  0  0  0  0
    3.0135   -0.1099   -2.3729 H   0  0  0  0  0  0  0  0  0  0  0  0
    4.5117   -1.6086   -1.9320 C   0  0  0  0  0  0  0  0  0  0  0  0
    4.8356   -1.6846   -2.9812 H   0  0  0  0  0  0  0  0  0  0  0  0
    5.1384   -2.3831   -0.9406 C   0  0  0  0  0  0  0  0  0  0  0  0
    5.9517   -3.0747   -1.2069 H   0  0  0  0  0  0  0  0  0  0  0  0
    4.7242   -2.2526    0.3916 C   0  0  0  0  0  0  0  0  0  0  0  0
    5.2158   -2.8396    1.1823 H   0  0  0  0  0  0  0  0  0  0  0  0
    3.6828   -1.3730    0.7332 C   0  0  0  0  0  0  0  0  0  0  0  0
    3.3752   -1.2816    1.7839 H   0  0  0  0  0  0  0  0  0  0  0  0
    2.1118    1.7559   -0.4296 C   0  0  0  0  0  0  0  0  0  0  0  0
    3.4109    2.2398   -0.6917 C   0  0  0  0  0  0  0  0  0  0  0  0
    4.2766    1.5768   -0.5550 H   0  0  0  0  0  0  0  0  0  0  0  0
    3.6162    3.5630   -1.1135 C   0  0  0  0  0  0  0  0  0  0  0  0
    4.6409    3.9161   -1.3058 H   0  0  0  0  0  0  0  0  0  0  0  0
    2.5282    4.4310   -1.2885 C   0  0  0  0  0  0  0  0  0  0  0  0
    2.6905    5.4652   -1.6274 H   0  0  0  0  0  0  0  0  0  0  0  0
    1.2313    3.9681   -1.0179 C   0  0  0  0  0  0  0  0  0  0  0  0
    0.3638    4.6339   -1.1415 H   0  0  0  0  0  0  0  0  0  0  0  0
    1.0314    2.6514   -0.5828 C   0  0  0  0  0  0  0  0  0  0  0  0
    0.0131    2.3158   -0.3436 H   0  0  0  0  0  0  0  0  0  0  0  0
    1.4944    0.3231    1.5590 C   0  0  0  0  0  0  0  0  0  0  0  0
    0.8530   -0.7984    2.1279 C   0  0  0  0  0  0  0  0  0  0  0  0
    0.6212   -1.6690    1.4983 H   0  0  0  0  0  0  0  0  0  0  0  0
    0.5045   -0.8295    3.4845 C   0  0  0  0  0  0  0  0  0  0  0  0
   -0.0149   -1.7105    3.8901 H   0  0  0  0  0  0  0  0  0  0  0  0
    0.8012    0.2669    4.3093 C   0  0  0  0  0  0  0  0  0  0  0  0
    0.5200    0.2527    5.3730 H   0  0  0  0  0  0  0  0  0  0  0  0
    1.4543    1.3813    3.7636 C   0  0  0  0  0  0  0  0  0  0  0  0
    1.6927    2.2472    4.3996 H   0  0  0  0  0  0  0  0  0  0  0  0
    1.7963    1.4100    2.4026 C   0  0  0  0  0  0  0  0  0  0  0  0
    2.2972    2.2958    1.9876 H   0  0  0  0  0  0  0  0  0  0  0  0
  1 12  1  0  0  0  0
  2  1  1  0  0  0  0
  3  1  1  0  0  0  0
  3  5  1  0  0  0  0
  4  3  1  0  0  0  0
  5  7  1  0  0  0  0
  5  8  1  0  0  0  0
  6  5  1  0  0  0  0
  8 11  1  0  0  0  0
  8  9  1  0  0  0  0
 10  8  1  0  0  0  0
 12 35  1  0  0  0  0
 13 12  1  0  0  0  0
 13 22  1  0  0  0  0
 14 13  2  0  0  0  0
 15 14  1  0  0  0  0
 16 14  1  0  0  0  0
 16 18  2  0  0  0  0
 17 16  1  0  0  0  0
 18 20  1  0  0  0  0
 19 18  1  0  0  0  0
 20 22  2  0  0  0  0
 20 21  1  0  0  0  0
 22 23  1  0  0  0  0
 24 12  1  0  0  0  0
 25 26  1  0  0  0  0
 25 24  2  0  0  0  0
 27 25  1  0  0  0  0
 28 27  1  0  0  0  0
 29 27  2  0  0  0  0
 29 31  1  0  0  0  0
 30 29  1  0  0  0  0
 31 33  2  0  0  0  0
 32 31  1  0  0  0  0
 33 24  1  0  0  0  0
 33 34  1  0  0  0  0
 35 36  2  0  0  0  0
 35 44  1  0  0  0  0
 36 38  1  0  0  0  0
 37 36  1  0  0  0  0
 38 39  1  0  0  0  0
 38 40  2  0  0  0  0
 40 41  1  0  0  0  0
 42 40  1  0  0  0  0
 42 43  1  0  0  0  0
 44 42  2  0  0  0  0
 45 44  1  0  0  0  0
M  END
