1
 OpenBabel05122313063D

 65 69  0  0  0  0  0  0  0  0999 V2000
   -0.0152    0.1282    0.4975 P   0  0  0  0  0  0  0  0  0  0  0  0
   -0.1681   -0.0241    1.9067 H   0  0  0  0  0  0  0  0  0  0  0  0
    1.3547   -0.8917    0.3214 N   0  0  0  0  0  0  0  0  0  0  0  0
    1.6379   -1.4830   -0.9931 C   0  0  0  0  0  0  0  0  0  0  0  0
    1.0549   -0.9212   -1.7485 H   0  0  0  0  0  0  0  0  0  0  0  0
    1.2791   -2.5368   -1.0326 H   0  0  0  0  0  0  0  0  0  0  0  0
    3.1094   -1.4364   -1.3569 C   0  0  0  0  0  0  0  0  0  0  0  0
    3.7452   -0.2042   -1.6135 C   0  0  0  0  0  0  0  0  0  0  0  0
    3.1588    0.7246   -1.5828 H   0  0  0  0  0  0  0  0  0  0  0  0
    5.1102   -0.1558   -1.9270 C   0  0  0  0  0  0  0  0  0  0  0  0
    5.5859    0.8160   -2.1298 H   0  0  0  0  0  0  0  0  0  0  0  0
    5.8632   -1.3406   -1.9938 C   0  0  0  0  0  0  0  0  0  0  0  0
    6.9353   -1.3025   -2.2398 H   0  0  0  0  0  0  0  0  0  0  0  0
    5.2380   -2.5736   -1.7561 C   0  0  0  0  0  0  0  0  0  0  0  0
    5.8168   -3.5079   -1.8165 H   0  0  0  0  0  0  0  0  0  0  0  0
    3.8697   -2.6179   -1.4407 C   0  0  0  0  0  0  0  0  0  0  0  0
    3.3773   -3.5881   -1.2676 H   0  0  0  0  0  0  0  0  0  0  0  0
    1.8799   -1.6296    1.4868 C   0  0  0  0  0  0  0  0  0  0  0  0
    1.8717   -0.9493    2.3594 H   0  0  0  0  0  0  0  0  0  0  0  0
    2.9464   -1.8626    1.2815 H   0  0  0  0  0  0  0  0  0  0  0  0
    1.1161   -2.9035    1.7977 C   0  0  0  0  0  0  0  0  0  0  0  0
    1.5590   -4.1495    1.3134 C   0  0  0  0  0  0  0  0  0  0  0  0
    2.5093   -4.2032    0.7596 H   0  0  0  0  0  0  0  0  0  0  0  0
    0.8138   -5.3174    1.5393 C   0  0  0  0  0  0  0  0  0  0  0  0
    1.1736   -6.2810    1.1478 H   0  0  0  0  0  0  0  0  0  0  0  0
   -0.3873   -5.2560    2.2607 C   0  0  0  0  0  0  0  0  0  0  0  0
   -0.9762   -6.1694    2.4336 H   0  0  0  0  0  0  0  0  0  0  0  0
   -0.8315   -4.0240    2.7673 C   0  0  0  0  0  0  0  0  0  0  0  0
   -1.7669   -3.9665    3.3444 H   0  0  0  0  0  0  0  0  0  0  0  0
   -0.0835   -2.8609    2.5399 C   0  0  0  0  0  0  0  0  0  0  0  0
   -0.4390   -1.9042    2.9531 H   0  0  0  0  0  0  0  0  0  0  0  0
    0.6304    2.0006    0.6198 C   0  0  0  0  0  0  0  0  0  0  0  0
   -0.6286    2.8382    0.8709 C   0  0  0  0  0  0  0  0  0  0  0  0
   -1.5905    2.4440    1.8318 C   0  0  0  0  0  0  0  0  0  0  0  0
   -1.4427    1.5310    2.4250 H   0  0  0  0  0  0  0  0  0  0  0  0
   -2.7417    3.2086    2.0658 C   0  0  0  0  0  0  0  0  0  0  0  0
   -3.4761    2.8645    2.8096 H   0  0  0  0  0  0  0  0  0  0  0  0
   -2.9555    4.3974    1.3529 C   0  0  0  0  0  0  0  0  0  0  0  0
   -3.8608    4.9968    1.5305 H   0  0  0  0  0  0  0  0  0  0  0  0
   -2.0051    4.8102    0.4082 C   0  0  0  0  0  0  0  0  0  0  0  0
   -2.1584    5.7410   -0.1586 H   0  0  0  0  0  0  0  0  0  0  0  0
   -0.8606    4.0370    0.1654 C   0  0  0  0  0  0  0  0  0  0  0  0
   -0.1341    4.3712   -0.5879 H   0  0  0  0  0  0  0  0  0  0  0  0
    1.2950    2.3881   -0.7061 C   0  0  0  0  0  0  0  0  0  0  0  0
    0.7027    2.0208   -1.9317 C   0  0  0  0  0  0  0  0  0  0  0  0
   -0.2378    1.4555   -1.9188 H   0  0  0  0  0  0  0  0  0  0  0  0
    1.2804    2.3711   -3.1593 C   0  0  0  0  0  0  0  0  0  0  0  0
    0.8022    2.0415   -4.0939 H   0  0  0  0  0  0  0  0  0  0  0  0
    2.4588    3.1332   -3.1879 C   0  0  0  0  0  0  0  0  0  0  0  0
    2.9211    3.4078   -4.1479 H   0  0  0  0  0  0  0  0  0  0  0  0
    3.0338    3.5513   -1.9778 C   0  0  0  0  0  0  0  0  0  0  0  0
    3.9444    4.1698   -1.9841 H   0  0  0  0  0  0  0  0  0  0  0  0
    2.4592    3.1835   -0.7501 C   0  0  0  0  0  0  0  0  0  0  0  0
    2.9265    3.5179    0.1862 H   0  0  0  0  0  0  0  0  0  0  0  0
    1.6149    2.0249    1.7941 C   0  0  0  0  0  0  0  0  0  0  0  0
    1.3154    2.6520    3.0221 C   0  0  0  0  0  0  0  0  0  0  0  0
    0.3622    3.1830    3.1458 H   0  0  0  0  0  0  0  0  0  0  0  0
    2.2256    2.6250    4.0909 C   0  0  0  0  0  0  0  0  0  0  0  0
    1.9634    3.1269    5.0349 H   0  0  0  0  0  0  0  0  0  0  0  0
    3.4609    1.9756    3.9578 C   0  0  0  0  0  0  0  0  0  0  0  0
    4.1733    1.9551    4.7963 H   0  0  0  0  0  0  0  0  0  0  0  0
    3.7828    1.3646    2.7354 C   0  0  0  0  0  0  0  0  0  0  0  0
    4.7526    0.8605    2.6043 H   0  0  0  0  0  0  0  0  0  0  0  0
    2.8757    1.3923    1.6681 C   0  0  0  0  0  0  0  0  0  0  0  0
    3.1472    0.9100    0.7207 H   0  0  0  0  0  0  0  0  0  0  0  0
  1 32  1  0  0  0  0
  1  2  1  0  0  0  0
  3  1  1  0  0  0  0
  3 18  1  0  0  0  0
  4  3  1  0  0  0  0
  5  4  1  0  0  0  0
  6  4  1  0  0  0  0
  7  4  1  0  0  0  0
  8  9  1  0  0  0  0
  8  7  2  0  0  0  0
 10  8  1  0  0  0  0
 11 10  1  0  0  0  0
 12 10  2  0  0  0  0
 12 14  1  0  0  0  0
 13 12  1  0  0  0  0
 14 16  2  0  0  0  0
 15 14  1  0  0  0  0
 16  7  1  0  0  0  0
 16 17  1  0  0  0  0
 18 21  1  0  0  0  0
 18 19  1  0  0  0  0
 20 18  1  0  0  0  0
 21 30  1  0  0  0  0
 22 24  1  0  0  0  0
 22 21  2  0  0  0  0
 23 22  1  0  0  0  0
 24 26  2  0  0  0  0
 25 24  1  0  0  0  0
 26 27  1  0  0  0  0
 26 28  1  0  0  0  0
 28 29  1  0  0  0  0
 30 28  2  0  0  0  0
 30 31  1  0  0  0  0
 32 33  1  0  0  0  0
 32 55  1  0  0  0  0
 33 34  1  0  0  0  0
 34 36  2  0  0  0  0
 34 35  1  0  0  0  0
 36 37  1  0  0  0  0
 38 39  1  0  0  0  0
 38 36  1  0  0  0  0
 40 38  2  0  0  0  0
 41 40  1  0  0  0  0
 42 40  1  0  0  0  0
 42 33  2  0  0  0  0
 43 42  1  0  0  0  0
 44 32  1  0  0  0  0
 45 46  1  0  0  0  0
 45 44  2  0  0  0  0
 47 45  1  0  0  0  0
 48 47  1  0  0  0  0
 49 47  2  0  0  0  0
 49 51  1  0  0  0  0
 50 49  1  0  0  0  0
 51 53  2  0  0  0  0
 52 51  1  0  0  0  0
 53 44  1  0  0  0  0
 53 54  1  0  0  0  0
 55 56  1  0  0  0  0
 56 57  1  0  0  0  0
 56 58  2  0  0  0  0
 58 59  1  0  0  0  0
 60 58  1  0  0  0  0
 60 61  1  0  0  0  0
 62 60  2  0  0  0  0
 63 62  1  0  0  0  0
 64 55  2  0  0  0  0
 64 62  1  0  0  0  0
 65 64  1  0  0  0  0
M  END
