1
 OpenBabel05122313063D

 47 50  0  0  0  0  0  0  0  0999 V2000
   -0.6001   -0.1813    0.6825 P   0  0  2  0  0  0  0  0  0  0  0  0
    2.5199    1.2441    1.5297 C   0  0  0  0  0  0  0  0  0  0  0  0
    1.8233    1.4261    2.3612 H   0  0  0  0  0  0  0  0  0  0  0  0
    3.7611    0.6348    1.7843 C   0  0  0  0  0  0  0  0  0  0  0  0
    4.1020    0.1219    3.1601 C   0  0  0  0  0  0  0  0  0  0  0  0
    5.1856    0.2058    3.3749 H   0  0  0  0  0  0  0  0  0  0  0  0
    3.8316   -0.9528    3.2431 H   0  0  0  0  0  0  0  0  0  0  0  0
    3.5481    0.6660    3.9504 H   0  0  0  0  0  0  0  0  0  0  0  0
    4.6575    0.4716    0.7098 C   0  0  0  0  0  0  0  0  0  0  0  0
    5.6308   -0.0125    0.8928 H   0  0  0  0  0  0  0  0  0  0  0  0
    4.3486    0.9128   -0.5900 C   0  0  0  0  0  0  0  0  0  0  0  0
    5.3015    0.7025   -1.7383 C   0  0  0  0  0  0  0  0  0  0  0  0
    6.2927    0.3518   -1.3920 H   0  0  0  0  0  0  0  0  0  0  0  0
    5.4474    1.6350   -2.3208 H   0  0  0  0  0  0  0  0  0  0  0  0
    4.8924   -0.0554   -2.4387 H   0  0  0  0  0  0  0  0  0  0  0  0
    3.0974    1.5203   -0.8113 C   0  0  0  0  0  0  0  0  0  0  0  0
    2.8223    1.8462   -1.8263 H   0  0  0  0  0  0  0  0  0  0  0  0
    2.1665    1.6680    0.2329 C   0  0  0  0  0  0  0  0  0  0  0  0
    0.8374    2.2765   -0.0365 C   0  0  0  0  0  0  0  0  0  0  0  0
    0.7587    3.5758   -0.5858 C   0  0  0  0  0  0  0  0  0  0  0  0
    1.6941    4.1237   -0.7745 H   0  0  0  0  0  0  0  0  0  0  0  0
   -0.4785    4.1714   -0.8739 C   0  0  0  0  0  0  0  0  0  0  0  0
   -0.5088    5.1872   -1.2962 H   0  0  0  0  0  0  0  0  0  0  0  0
   -1.6736    3.4800   -0.6350 C   0  0  0  0  0  0  0  0  0  0  0  0
   -2.6400    3.9449   -0.8799 H   0  0  0  0  0  0  0  0  0  0  0  0
   -1.6271    2.1795   -0.1022 C   0  0  0  0  0  0  0  0  0  0  0  0
   -0.3708    1.5868    0.2080 C   0  0  0  0  0  0  0  0  0  0  0  0
   -2.7835    1.2969    0.1396 C   0  0  0  0  0  0  0  0  0  0  0  0
   -4.1376    1.6234   -0.0440 C   0  0  0  0  0  0  0  0  0  0  0  0
   -4.4233    2.6283   -0.3913 H   0  0  0  0  0  0  0  0  0  0  0  0
   -5.1389    0.6693    0.2104 C   0  0  0  0  0  0  0  0  0  0  0  0
   -6.5955    0.9922   -0.0087 C   0  0  0  0  0  0  0  0  0  0  0  0
   -6.7543    2.0741   -0.1804 H   0  0  0  0  0  0  0  0  0  0  0  0
   -7.2140    0.6861    0.8594 H   0  0  0  0  0  0  0  0  0  0  0  0
   -6.9933    0.4503   -0.8930 H   0  0  0  0  0  0  0  0  0  0  0  0
   -4.7544   -0.6130    0.6565 C   0  0  0  0  0  0  0  0  0  0  0  0
   -5.5359   -1.3650    0.8546 H   0  0  0  0  0  0  0  0  0  0  0  0
   -3.4079   -0.9756    0.8547 C   0  0  0  0  0  0  0  0  0  0  0  0
   -3.0471   -2.3494    1.3562 C   0  0  0  0  0  0  0  0  0  0  0  0
   -2.0627   -2.6703    0.9620 H   0  0  0  0  0  0  0  0  0  0  0  0
   -3.8045   -3.1013    1.0622 H   0  0  0  0  0  0  0  0  0  0  0  0
   -2.9847   -2.3660    2.4658 H   0  0  0  0  0  0  0  0  0  0  0  0
   -2.4261   -0.0001    0.5855 C   0  0  0  0  0  0  0  0  0  0  0  0
   -0.3286   -0.3331    2.5055 C   0  0  0  0  0  0  0  0  0  0  0  0
   -0.7608    0.5433    3.0243 H   0  0  0  0  0  0  0  0  0  0  0  0
    0.7481   -0.4244    2.7303 H   0  0  0  0  0  0  0  0  0  0  0  0
   -0.8396   -1.2545    2.8440 H   0  0  0  0  0  0  0  0  0  0  0  0
  1 44  1  1  0  0  0
  2  4  1  0  0  0  0
  2  3  1  0  0  0  0
  4  5  1  0  0  0  0
  5  7  1  0  0  0  0
  5  6  1  0  0  0  0
  5  8  1  0  0  0  0
  9 10  1  0  0  0  0
  9  4  2  0  0  0  0
 11  9  1  0  0  0  0
 12 13  1  0  0  0  0
 12 11  1  0  0  0  0
 14 12  1  0  0  0  0
 15 12  1  0  0  0  0
 16 11  2  0  0  0  0
 16 18  1  0  0  0  0
 17 16  1  0  0  0  0
 18  2  2  0  0  0  0
 19 27  1  0  0  0  0
 19 18  1  0  0  0  0
 20 19  2  0  0  0  0
 21 20  1  0  0  0  0
 22 24  2  0  0  0  0
 22 20  1  0  0  0  0
 23 22  1  0  0  0  0
 24 26  1  0  0  0  0
 25 24  1  0  0  0  0
 26 28  1  0  0  0  0
 26 27  2  0  0  0  0
 27  1  1  0  0  0  0
 28 43  1  0  0  0  0
 29 28  2  0  0  0  0
 29 31  1  0  0  0  0
 30 29  1  0  0  0  0
 31 36  2  0  0  0  0
 32 31  1  0  0  0  0
 32 34  1  0  0  0  0
 33 32  1  0  0  0  0
 35 32  1  0  0  0  0
 36 37  1  0  0  0  0
 36 38  1  0  0  0  0
 38 39  1  0  0  0  0
 39 42  1  0  0  0  0
 40 39  1  0  0  0  0
 41 39  1  0  0  0  0
 43  1  1  0  0  0  0
 43 38  2  0  0  0  0
 44 46  1  0  0  0  0
 44 47  1  0  0  0  0
 44 45  1  0  0  0  0
M  END
