1
 OpenBabel05122313063D

 41 44  0  0  0  0  0  0  0  0999 V2000
   -0.6795    0.0468    0.0250 P   0  0  0  0  0  0  0  0  0  0  0  0
    1.7154    1.5506    0.8194 N   0  0  0  0  0  0  0  0  0  0  0  0
    2.9941    1.3740    1.1695 N   0  0  0  0  0  0  0  0  0  0  0  0
    3.2046    0.9149    2.0568 H   0  0  0  0  0  0  0  0  0  0  0  0
   -0.6515    1.5758   -1.0157 C   0  0  0  0  0  0  0  0  0  0  0  0
   -1.8039    1.9162   -1.7551 C   0  0  0  0  0  0  0  0  0  0  0  0
   -2.7101    1.3016   -1.6574 H   0  0  0  0  0  0  0  0  0  0  0  0
   -1.8099    3.0112   -2.6298 C   0  0  0  0  0  0  0  0  0  0  0  0
   -2.7224    3.2536   -3.1946 H   0  0  0  0  0  0  0  0  0  0  0  0
   -0.6483    3.7813   -2.7865 C   0  0  0  0  0  0  0  0  0  0  0  0
   -0.6380    4.6393   -3.4755 H   0  0  0  0  0  0  0  0  0  0  0  0
    0.5002    3.4609   -2.0547 C   0  0  0  0  0  0  0  0  0  0  0  0
    1.4059    4.0770   -2.1570 H   0  0  0  0  0  0  0  0  0  0  0  0
    0.5245    2.3721   -1.1551 C   0  0  0  0  0  0  0  0  0  0  0  0
    1.7623    2.0897   -0.4162 C   0  0  0  0  0  0  0  0  0  0  0  0
    3.1141    2.2604   -0.8421 C   0  0  0  0  0  0  0  0  0  0  0  0
    3.4767    2.6423   -1.8012 H   0  0  0  0  0  0  0  0  0  0  0  0
    3.8797    1.7709    0.2099 C   0  0  0  0  0  0  0  0  0  0  0  0
    4.9617    1.6639    0.3403 H   0  0  0  0  0  0  0  0  0  0  0  0
   -1.0517    0.5855    1.7380 C   0  0  0  0  0  0  0  0  0  0  0  0
   -0.8850   -0.3483    2.7792 C   0  0  0  0  0  0  0  0  0  0  0  0
   -0.4949   -1.3533    2.5508 H   0  0  0  0  0  0  0  0  0  0  0  0
   -1.2020    0.0091    4.0974 C   0  0  0  0  0  0  0  0  0  0  0  0
   -1.0692   -0.7232    4.9083 H   0  0  0  0  0  0  0  0  0  0  0  0
   -1.6802    1.2990    4.3825 C   0  0  0  0  0  0  0  0  0  0  0  0
   -1.9239    1.5798    5.4184 H   0  0  0  0  0  0  0  0  0  0  0  0
   -1.8401    2.2317    3.3454 C   0  0  0  0  0  0  0  0  0  0  0  0
   -2.2071    3.2456    3.5664 H   0  0  0  0  0  0  0  0  0  0  0  0
   -1.5276    1.8783    2.0236 C   0  0  0  0  0  0  0  0  0  0  0  0
   -1.6427    2.6122    1.2117 H   0  0  0  0  0  0  0  0  0  0  0  0
   -2.2313   -0.8021   -0.4917 C   0  0  0  0  0  0  0  0  0  0  0  0
   -3.4648   -0.5772    0.1524 C   0  0  0  0  0  0  0  0  0  0  0  0
   -3.5203    0.1147    1.0062 H   0  0  0  0  0  0  0  0  0  0  0  0
   -4.6196   -1.2406   -0.2910 C   0  0  0  0  0  0  0  0  0  0  0  0
   -5.5787   -1.0649    0.2195 H   0  0  0  0  0  0  0  0  0  0  0  0
   -4.5516   -2.1275   -1.3770 C   0  0  0  0  0  0  0  0  0  0  0  0
   -5.4582   -2.6488   -1.7201 H   0  0  0  0  0  0  0  0  0  0  0  0
   -3.3228   -2.3584   -2.0175 C   0  0  0  0  0  0  0  0  0  0  0  0
   -3.2622   -3.0622   -2.8614 H   0  0  0  0  0  0  0  0  0  0  0  0
   -2.1652   -1.7044   -1.5737 C   0  0  0  0  0  0  0  0  0  0  0  0
   -1.1940   -1.8998   -2.0566 H   0  0  0  0  0  0  0  0  0  0  0  0
  1 20  1  0  0  0  0
  2  3  1  0  0  0  0
  3  4  1  0  0  0  0
  5  1  1  0  0  0  0
  6  7  1  0  0  0  0
  6  5  2  0  0  0  0
  8  6  1  0  0  0  0
  9  8  1  0  0  0  0
 10  8  2  0  0  0  0
 10 12  1  0  0  0  0
 11 10  1  0  0  0  0
 12 14  2  0  0  0  0
 13 12  1  0  0  0  0
 14  5  1  0  0  0  0
 14 15  1  0  0  0  0
 15  2  2  0  0  0  0
 16 15  1  0  0  0  0
 16 18  2  0  0  0  0
 17 16  1  0  0  0  0
 18 19  1  0  0  0  0
 18  3  1  0  0  0  0
 20 29  2  0  0  0  0
 20 21  1  0  0  0  0
 21 23  2  0  0  0  0
 22 21  1  0  0  0  0
 23 25  1  0  0  0  0
 23 24  1  0  0  0  0
 25 26  1  0  0  0  0
 27 28  1  0  0  0  0
 27 25  2  0  0  0  0
 29 27  1  0  0  0  0
 30 29  1  0  0  0  0
 31  1  1  0  0  0  0
 31 32  1  0  0  0  0
 32 33  1  0  0  0  0
 34 32  2  0  0  0  0
 34 35  1  0  0  0  0
 36 34  1  0  0  0  0
 37 36  1  0  0  0  0
 38 40  1  0  0  0  0
 38 36  2  0  0  0  0
 39 38  1  0  0  0  0
 40 31  2  0  0  0  0
 41 40  1  0  0  0  0
M  END
