3
 OpenBabel05122313063D

 39 39  0  0  0  0  0  0  0  0999 V2000
    1.9624   -1.4614    1.5834 Si  0  0  0  0  0  0  0  0  0  0  0  0
    1.9807   -1.4346   -1.5941 Si  0  0  0  0  0  0  0  0  0  0  0  0
    0.1964    0.4017   -0.0258 P   0  0  0  0  0  2  0  0  0  0  0  0
    1.4472   -0.7912   -0.0031 N   0  0  0  0  0  0  0  0  0  0  0  0
    1.8940   -3.3514    1.5256 C   0  0  0  0  0  0  0  0  0  0  0  0
    3.7218   -0.9112    2.0063 C   0  0  0  0  0  0  0  0  0  0  0  0
    0.8056   -0.8287    2.9308 C   0  0  0  0  0  0  0  0  0  0  0  0
    0.9827   -2.9690   -2.0612 C   0  0  0  0  0  0  0  0  0  0  0  0
    3.8166   -1.8778   -1.5012 C   0  0  0  0  0  0  0  0  0  0  0  0
    1.7195   -0.1107   -2.9118 C   0  0  0  0  0  0  0  0  0  0  0  0
    0.4053    3.2002    0.0150 C   0  0  0  0  0  0  0  0  0  0  0  0
    1.0924    4.4201    0.0261 C   0  0  0  0  0  0  0  0  0  0  0  0
    2.4978    4.4438    0.0154 C   0  0  0  0  0  0  0  0  0  0  0  0
    3.2148    3.2366   -0.0072 C   0  0  0  0  0  0  0  0  0  0  0  0
    2.5319    2.0124   -0.0171 C   0  0  0  0  0  0  0  0  0  0  0  0
    1.1190    1.9791   -0.0049 C   0  0  0  0  0  0  0  0  0  0  0  0
    2.2067   -3.7674    2.5057 H   0  0  0  0  0  0  0  0  0  0  0  0
    2.5653   -3.7786    0.7540 H   0  0  0  0  0  0  0  0  0  0  0  0
    0.8649   -3.7095    1.3195 H   0  0  0  0  0  0  0  0  0  0  0  0
    4.0403   -1.3737    2.9640 H   0  0  0  0  0  0  0  0  0  0  0  0
    3.7682    0.1895    2.1319 H   0  0  0  0  0  0  0  0  0  0  0  0
    4.4551   -1.2015    1.2290 H   0  0  0  0  0  0  0  0  0  0  0  0
    1.1383   -1.2340    3.9093 H   0  0  0  0  0  0  0  0  0  0  0  0
   -0.2446   -1.1350    2.7576 H   0  0  0  0  0  0  0  0  0  0  0  0
    0.8182    0.2782    2.9991 H   0  0  0  0  0  0  0  0  0  0  0  0
    1.3277   -3.3776   -3.0336 H   0  0  0  0  0  0  0  0  0  0  0  0
   -0.0889   -2.7072   -2.1637 H   0  0  0  0  0  0  0  0  0  0  0  0
    1.0717   -3.7705   -1.3016 H   0  0  0  0  0  0  0  0  0  0  0  0
    4.1459   -2.2703   -2.4857 H   0  0  0  0  0  0  0  0  0  0  0  0
    4.0329   -2.6576   -0.7441 H   0  0  0  0  0  0  0  0  0  0  0  0
    4.4355   -0.9881   -1.2677 H   0  0  0  0  0  0  0  0  0  0  0  0
    2.0595   -0.4999   -3.8940 H   0  0  0  0  0  0  0  0  0  0  0  0
    2.2896    0.8131   -2.6895 H   0  0  0  0  0  0  0  0  0  0  0  0
    0.6493    0.1643   -3.0063 H   0  0  0  0  0  0  0  0  0  0  0  0
   -0.6934    3.1894    0.0210 H   0  0  0  0  0  0  0  0  0  0  0  0
    0.5243    5.3624    0.0425 H   0  0  0  0  0  0  0  0  0  0  0  0
    3.0340    5.4050    0.0236 H   0  0  0  0  0  0  0  0  0  0  0  0
    4.3156    3.2473   -0.0173 H   0  0  0  0  0  0  0  0  0  0  0  0
    3.0869    1.0639   -0.0349 H   0  0  0  0  0  0  0  0  0  0  0  0
  1  6  1  0  0  0  0
  1  7  1  0  0  0  0
  2  9  1  0  0  0  0
  2  4  1  0  0  0  0
  3 16  1  0  0  0  0
  3  4  1  0  0  0  0
  4  1  1  0  0  0  0
  5  1  1  0  0  0  0
  5 17  1  0  0  0  0
  6 21  1  0  0  0  0
  6 20  1  0  0  0  0
  7 25  1  0  0  0  0
  7 23  1  0  0  0  0
  8  2  1  0  0  0  0
  8 28  1  0  0  0  0
  9 31  1  0  0  0  0
  9 30  1  0  0  0  0
 10 33  1  0  0  0  0
 10  2  1  0  0  0  0
 11 35  1  0  0  0  0
 11 12  1  0  0  0  0
 12 36  1  0  0  0  0
 13 37  1  0  0  0  0
 13 12  2  0  0  0  0
 14 13  1  0  0  0  0
 15 14  2  0  0  0  0
 15 16  1  0  0  0  0
 16 11  2  0  0  0  0
 18  5  1  0  0  0  0
 19  5  1  0  0  0  0
 22  6  1  0  0  0  0
 24  7  1  0  0  0  0
 26  8  1  0  0  0  0
 27  8  1  0  0  0  0
 29  9  1  0  0  0  0
 32 10  1  0  0  0  0
 34 10  1  0  0  0  0
 38 14  1  0  0  0  0
 39 15  1  0  0  0  0
M  END
