1
 OpenBabel05122313063D

 19 18  0  0  0  0  0  0  0  0999 V2000
    2.3003    0.0940   -0.0779 P   0  0  1  0  0  0  0  0  0  0  0  0
    3.1353    0.3580   -1.9570 Cl  0  0  0  0  0  0  0  0  0  0  0  0
    2.4713    3.0680    0.1241 Cl  0  0  0  0  0  0  0  0  0  0  0  0
    3.1428   -1.4732    0.5602 C   0  0  0  0  0  0  0  0  0  0  0  0
    2.7485   -1.6310    2.0405 C   0  0  0  0  0  0  0  0  0  0  0  0
    1.6510   -1.6047    2.1853 H   0  0  0  0  0  0  0  0  0  0  0  0
    3.1918   -0.8419    2.6800 H   0  0  0  0  0  0  0  0  0  0  0  0
    3.1296   -2.6095    2.4007 H   0  0  0  0  0  0  0  0  0  0  0  0
    2.5578   -2.6285   -0.2732 C   0  0  0  0  0  0  0  0  0  0  0  0
    1.4575   -2.6971   -0.1573 H   0  0  0  0  0  0  0  0  0  0  0  0
    3.0079   -3.5828    0.0713 H   0  0  0  0  0  0  0  0  0  0  0  0
    2.7767   -2.5086   -1.3522 H   0  0  0  0  0  0  0  0  0  0  0  0
    4.6675   -1.3954    0.4031 C   0  0  0  0  0  0  0  0  0  0  0  0
    5.1122   -0.5911    1.0231 H   0  0  0  0  0  0  0  0  0  0  0  0
    4.9644   -1.2337   -0.6510 H   0  0  0  0  0  0  0  0  0  0  0  0
    5.1116   -2.3547    0.7418 H   0  0  0  0  0  0  0  0  0  0  0  0
    3.0450    1.5298    0.8299 C   0  0  0  0  0  0  0  0  0  0  0  0
    2.6739    1.4657    1.8715 H   0  0  0  0  0  0  0  0  0  0  0  0
    4.1500    1.5020    0.7811 H   0  0  0  0  0  0  0  0  0  0  0  0
  1  2  1  6  0  0  0
  1  4  1  0  0  0  0
  1 17  1  0  0  0  0
  3 17  1  0  0  0  0
  4  5  1  0  0  0  0
  5  6  1  0  0  0  0
  5  8  1  0  0  0  0
  5  7  1  0  0  0  0
  9 10  1  0  0  0  0
  9 11  1  0  0  0  0
  9  4  1  0  0  0  0
 12  9  1  0  0  0  0
 13  4  1  0  0  0  0
 13 16  1  0  0  0  0
 13 14  1  0  0  0  0
 15 13  1  0  0  0  0
 17 18  1  0  0  0  0
 19 17  1  0  0  0  0
M  END
