51
 OpenBabel05122313063D

 51 56  0  0  1  0  0  0  0  0999 V2000
   -2.4645    0.9121   -1.2577 C   0  0  0  0  0  0  0  0  0  0  0  0
   -1.4756   -0.0255   -1.9474 C   0  0  1  0  0  0  0  0  0  0  0  0
   -1.8682   -0.2470   -2.9573 H   0  0  0  0  0  0  0  0  0  0  0  0
   -0.1428    0.7455   -1.9336 C   0  0  1  0  0  0  0  0  0  0  0  0
    0.2501    1.0550   -2.9213 H   0  0  0  0  0  0  0  0  0  0  0  0
   -0.3761    1.9747   -1.0575 C   0  0  0  0  0  0  0  0  0  0  0  0
    0.9581   -1.7964   -2.3436 C   0  0  0  0  0  0  0  0  0  0  0  0
    1.2056   -1.4094   -3.3515 H   0  0  0  0  0  0  0  0  0  0  0  0
    1.7239   -2.5482   -2.0738 H   0  0  0  0  0  0  0  0  0  0  0  0
   -0.4872   -2.3295   -2.2012 C   0  0  0  0  0  0  0  0  0  0  0  0
   -0.4788   -3.3636   -1.8084 H   0  0  0  0  0  0  0  0  0  0  0  0
   -1.0095   -2.3520   -3.1764 H   0  0  0  0  0  0  0  0  0  0  0  0
   -1.2507   -1.4063   -1.1854 C   0  0  2  0  0  0  0  0  0  0  0  0
   -2.5428   -1.9847   -0.6426 C   0  0  0  0  0  0  0  0  0  0  0  0
   -3.0368   -1.5650    0.6097 C   0  0  0  0  0  0  0  0  0  0  0  0
   -2.4627   -0.8380    1.2018 H   0  0  0  0  0  0  0  0  0  0  0  0
   -4.2432   -2.0710    1.1068 C   0  0  0  0  0  0  0  0  0  0  0  0
   -4.6090   -1.7370    2.0894 H   0  0  0  0  0  0  0  0  0  0  0  0
   -4.9828   -2.9991    0.3568 C   0  0  0  0  0  0  0  0  0  0  0  0
   -5.9321   -3.3961    0.7470 H   0  0  0  0  0  0  0  0  0  0  0  0
   -4.5048   -3.4160   -0.8933 C   0  0  0  0  0  0  0  0  0  0  0  0
   -5.0785   -4.1395   -1.4919 H   0  0  0  0  0  0  0  0  0  0  0  0
   -3.2913   -2.9136   -1.3887 C   0  0  0  0  0  0  0  0  0  0  0  0
   -2.9355   -3.2521   -2.3724 H   0  0  0  0  0  0  0  0  0  0  0  0
   -2.3307    2.9825    0.1437 C   0  0  0  0  0  0  0  0  0  0  0  0
   -3.3239    2.6099    1.0708 C   0  0  0  0  0  0  0  0  0  0  0  0
   -3.6483    1.5639    1.1370 H   0  0  0  0  0  0  0  0  0  0  0  0
   -3.9037    3.5859    1.8911 C   0  0  0  0  0  0  0  0  0  0  0  0
   -4.6810    3.2915    2.6122 H   0  0  0  0  0  0  0  0  0  0  0  0
   -3.4972    4.9264    1.7995 C   0  0  0  0  0  0  0  0  0  0  0  0
   -3.9533    5.6883    2.4491 H   0  0  0  0  0  0  0  0  0  0  0  0
   -2.5050    5.2890    0.8761 C   0  0  0  0  0  0  0  0  0  0  0  0
   -2.1777    6.3366    0.7986 H   0  0  0  0  0  0  0  0  0  0  0  0
   -1.9204    4.3254    0.0427 C   0  0  0  0  0  0  0  0  0  0  0  0
   -1.1361    4.6082   -0.6695 H   0  0  0  0  0  0  0  0  0  0  0  0
    0.0253   -1.8437    1.0160 C   0  0  0  0  0  0  0  0  0  0  0  0
    0.6687   -1.2095    2.1017 C   0  0  0  0  0  0  0  0  0  0  0  0
    0.8908   -0.1339    2.0360 H   0  0  0  0  0  0  0  0  0  0  0  0
    1.0157   -1.9387    3.2451 C   0  0  0  0  0  0  0  0  0  0  0  0
    1.5286   -1.4283    4.0739 H   0  0  0  0  0  0  0  0  0  0  0  0
    0.6975   -3.3035    3.3400 C   0  0  0  0  0  0  0  0  0  0  0  0
    0.9601   -3.8737    4.2432 H   0  0  0  0  0  0  0  0  0  0  0  0
    0.0358   -3.9305    2.2744 C   0  0  0  0  0  0  0  0  0  0  0  0
   -0.2265   -4.9974    2.3378 H   0  0  0  0  0  0  0  0  0  0  0  0
   -0.2916   -3.2145    1.1126 C   0  0  0  0  0  0  0  0  0  0  0  0
   -0.8124   -3.7257    0.2929 H   0  0  0  0  0  0  0  0  0  0  0  0
   -1.7362    1.9823   -0.6847 N   0  0  0  0  0  0  0  0  0  0  0  0
   -0.2726   -1.0403   -0.1269 N   0  0  0  0  0  0  0  0  0  0  0  0
   -3.6692    0.7770   -1.2102 O   0  0  0  0  0  0  0  0  0  0  0  0
    0.4574    2.7982   -0.7394 O   0  0  0  0  0  0  0  0  0  0  0  0
    1.0393   -0.4149   -1.0925 P   0  0  2  0  0  0  0  0  0  0  0  0
  1 49  2  0  0  0  0
  1 47  1  0  0  0  0
  2  3  1  6  0  0  0
  2  4  1  0  0  0  0
  2  1  1  0  0  0  0
  2 13  1  0  0  0  0
  4  5  1  6  0  0  0
  4 51  1  0  0  0  0
  4  6  1  0  0  0  0
  6 50  2  0  0  0  0
  6 47  1  0  0  0  0
  7 10  1  0  0  0  0
  7  9  1  0  0  0  0
  8  7  1  0  0  0  0
 10 11  1  0  0  0  0
 10 13  1  0  0  0  0
 12 10  1  0  0  0  0
 13 14  1  1  0  0  0
 13 48  1  0  0  0  0
 14 15  1  0  0  0  0
 15 17  2  0  0  0  0
 15 16  1  0  0  0  0
 17 18  1  0  0  0  0
 19 20  1  0  0  0  0
 19 17  1  0  0  0  0
 21 19  2  0  0  0  0
 22 21  1  0  0  0  0
 23 21  1  0  0  0  0
 23 14  2  0  0  0  0
 24 23  1  0  0  0  0
 25 26  1  0  0  0  0
 26 27  1  0  0  0  0
 26 28  2  0  0  0  0
 28 29  1  0  0  0  0
 30 28  1  0  0  0  0
 30 31  1  0  0  0  0
 32 30  2  0  0  0  0
 33 32  1  0  0  0  0
 34 25  2  0  0  0  0
 34 32  1  0  0  0  0
 35 34  1  0  0  0  0
 36 45  2  0  0  0  0
 36 37  1  0  0  0  0
 37 39  2  0  0  0  0
 38 37  1  0  0  0  0
 39 41  1  0  0  0  0
 39 40  1  0  0  0  0
 41 42  1  0  0  0  0
 43 44  1  0  0  0  0
 43 41  2  0  0  0  0
 45 43  1  0  0  0  0
 46 45  1  0  0  0  0
 47 25  1  0  0  0  0
 48 36  1  0  0  0  0
 51  7  1  6  0  0  0
 51 48  1  0  0  0  0
M  END
