1
 OpenBabel05122313063D

 47 50  0  0  0  0  0  0  0  0999 V2000
   -0.5100    0.8025    0.0463 P   0  0  0  0  0  0  0  0  0  0  0  0
    1.1942    1.0408   -0.0415 N   0  0  0  0  0  0  0  0  0  0  0  0
    2.0790    0.0908    0.0527 C   0  0  0  0  0  0  0  0  0  0  0  0
    1.7419   -1.3222    0.4000 C   0  0  0  0  0  0  0  0  0  0  0  0
    2.0090   -2.3599   -0.5197 C   0  0  0  0  0  0  0  0  0  0  0  0
    2.5236   -2.1283   -1.4642 H   0  0  0  0  0  0  0  0  0  0  0  0
    1.5722   -3.6641   -0.2535 C   0  0  0  0  0  0  0  0  0  0  0  0
    1.7401   -4.4579   -0.9960 H   0  0  0  0  0  0  0  0  0  0  0  0
    0.9033   -3.9534    0.9462 C   0  0  0  0  0  0  0  0  0  0  0  0
    0.5512   -4.9760    1.1458 H   0  0  0  0  0  0  0  0  0  0  0  0
    0.6706   -2.9345    1.8823 C   0  0  0  0  0  0  0  0  0  0  0  0
    0.1496   -3.1573    2.8252 H   0  0  0  0  0  0  0  0  0  0  0  0
    1.0746   -1.6209    1.6077 C   0  0  0  0  0  0  0  0  0  0  0  0
    0.8745   -0.8184    2.3325 H   0  0  0  0  0  0  0  0  0  0  0  0
    3.5005    0.4313   -0.2210 C   0  0  0  0  0  0  0  0  0  0  0  0
    3.8190    1.6338   -0.8937 C   0  0  0  0  0  0  0  0  0  0  0  0
    2.9918    2.2809   -1.2196 H   0  0  0  0  0  0  0  0  0  0  0  0
    5.1513    1.9719   -1.1471 C   0  0  0  0  0  0  0  0  0  0  0  0
    5.3888    2.9043   -1.6814 H   0  0  0  0  0  0  0  0  0  0  0  0
    6.1880    1.1183   -0.7272 C   0  0  0  0  0  0  0  0  0  0  0  0
    7.2368    1.3855   -0.9277 H   0  0  0  0  0  0  0  0  0  0  0  0
    5.8836   -0.0758   -0.0552 C   0  0  0  0  0  0  0  0  0  0  0  0
    6.6923   -0.7432    0.2785 H   0  0  0  0  0  0  0  0  0  0  0  0
    4.5482   -0.4211    0.1947 C   0  0  0  0  0  0  0  0  0  0  0  0
    4.3091   -1.3524    0.7283 H   0  0  0  0  0  0  0  0  0  0  0  0
   -0.8933    1.1741    1.8072 C   0  0  0  0  0  0  0  0  0  0  0  0
   -0.1522    2.1426    2.5151 C   0  0  0  0  0  0  0  0  0  0  0  0
    0.6714    2.6750    2.0162 H   0  0  0  0  0  0  0  0  0  0  0  0
   -0.4595    2.4115    3.8563 C   0  0  0  0  0  0  0  0  0  0  0  0
    0.1230    3.1638    4.4096 H   0  0  0  0  0  0  0  0  0  0  0  0
   -1.5068    1.7238    4.4929 C   0  0  0  0  0  0  0  0  0  0  0  0
   -1.7451    1.9381    5.5458 H   0  0  0  0  0  0  0  0  0  0  0  0
   -2.2459    0.7612    3.7875 C   0  0  0  0  0  0  0  0  0  0  0  0
   -3.0637    0.2176    4.2843 H   0  0  0  0  0  0  0  0  0  0  0  0
   -1.9395    0.4820    2.4467 C   0  0  0  0  0  0  0  0  0  0  0  0
   -2.4997   -0.2856    1.8886 H   0  0  0  0  0  0  0  0  0  0  0  0
   -1.1102    2.2878   -0.8450 C   0  0  0  0  0  0  0  0  0  0  0  0
   -0.3231    3.4498   -0.9665 C   0  0  0  0  0  0  0  0  0  0  0  0
    0.6989    3.4519   -0.5600 H   0  0  0  0  0  0  0  0  0  0  0  0
   -0.8433    4.5782   -1.6168 C   0  0  0  0  0  0  0  0  0  0  0  0
   -0.2263    5.4844   -1.7157 H   0  0  0  0  0  0  0  0  0  0  0  0
   -2.1448    4.5528   -2.1446 C   0  0  0  0  0  0  0  0  0  0  0  0
   -2.5484    5.4398   -2.6564 H   0  0  0  0  0  0  0  0  0  0  0  0
   -2.9270    3.3924   -2.0291 C   0  0  0  0  0  0  0  0  0  0  0  0
   -3.9425    3.3649   -2.4520 H   0  0  0  0  0  0  0  0  0  0  0  0
   -2.4104    2.2583   -1.3857 C   0  0  0  0  0  0  0  0  0  0  0  0
   -3.0093    1.3360   -1.3093 H   0  0  0  0  0  0  0  0  0  0  0  0
  1 26  1  0  0  0  0
  2  1  1  0  0  0  0
  2  3  2  0  0  0  0
  3  4  1  0  0  0  0
  4 13  1  0  0  0  0
  5  7  1  0  0  0  0
  5  4  2  0  0  0  0
  6  5  1  0  0  0  0
  7  9  2  0  0  0  0
  8  7  1  0  0  0  0
  9 10  1  0  0  0  0
  9 11  1  0  0  0  0
 11 12  1  0  0  0  0
 13 11  2  0  0  0  0
 13 14  1  0  0  0  0
 15  3  1  0  0  0  0
 15 24  1  0  0  0  0
 16 15  2  0  0  0  0
 17 16  1  0  0  0  0
 18 16  1  0  0  0  0
 18 20  2  0  0  0  0
 19 18  1  0  0  0  0
 20 22  1  0  0  0  0
 21 20  1  0  0  0  0
 22 24  2  0  0  0  0
 22 23  1  0  0  0  0
 24 25  1  0  0  0  0
 26 35  2  0  0  0  0
 26 27  1  0  0  0  0
 27 29  2  0  0  0  0
 28 27  1  0  0  0  0
 29 30  1  0  0  0  0
 29 31  1  0  0  0  0
 31 32  1  0  0  0  0
 33 34  1  0  0  0  0
 33 31  2  0  0  0  0
 35 33  1  0  0  0  0
 36 35  1  0  0  0  0
 37  1  1  0  0  0  0
 38 37  1  0  0  0  0
 38 39  1  0  0  0  0
 40 38  2  0  0  0  0
 41 40  1  0  0  0  0
 42 44  2  0  0  0  0
 42 40  1  0  0  0  0
 43 42  1  0  0  0  0
 44 46  1  0  0  0  0
 45 44  1  0  0  0  0
 46 47  1  0  0  0  0
 46 37  2  0  0  0  0
M  END
