1
 OpenBabel05122313063D

 35 37  0  0  0  0  0  0  0  0999 V2000
    0.7126    0.3651    0.0126 P   0  0  0  0  0  0  0  0  0  0  0  0
    1.0299   -1.0021   -0.9692 O   0  0  0  0  0  0  0  0  0  0  0  0
    2.2616   -1.6337   -1.0351 C   0  0  0  0  0  0  0  0  0  0  0  0
    2.5577   -2.6531   -0.1129 C   0  0  0  0  0  0  0  0  0  0  0  0
    3.7855   -3.3242   -0.1945 C   0  0  0  0  0  0  0  0  0  0  0  0
    4.7157   -2.9821   -1.1898 C   0  0  0  0  0  0  0  0  0  0  0  0
    4.4097   -1.9656   -2.1087 C   0  0  0  0  0  0  0  0  0  0  0  0
    3.1835   -1.2862   -2.0372 C   0  0  0  0  0  0  0  0  0  0  0  0
    1.8598    0.1390    1.4135 C   0  0  0  0  0  0  0  0  0  0  0  0
    1.3419   -0.2806    2.6559 C   0  0  0  0  0  0  0  0  0  0  0  0
    2.2135   -0.5709    3.7136 C   0  0  0  0  0  0  0  0  0  0  0  0
    3.6016   -0.4413    3.5391 C   0  0  0  0  0  0  0  0  0  0  0  0
    4.1191   -0.0146    2.3061 C   0  0  0  0  0  0  0  0  0  0  0  0
    3.2529    0.2759    1.2421 C   0  0  0  0  0  0  0  0  0  0  0  0
    1.3975    1.7122   -1.0206 C   0  0  0  0  0  0  0  0  0  0  0  0
    1.2340    1.6472   -2.4197 C   0  0  0  0  0  0  0  0  0  0  0  0
    1.6793    2.7016   -3.2296 C   0  0  0  0  0  0  0  0  0  0  0  0
    2.2837    3.8276   -2.6476 C   0  0  0  0  0  0  0  0  0  0  0  0
    2.4334    3.9002   -1.2536 C   0  0  0  0  0  0  0  0  0  0  0  0
    1.9872    2.8514   -0.4364 C   0  0  0  0  0  0  0  0  0  0  0  0
    1.8280   -2.8921    0.6741 H   0  0  0  0  0  0  0  0  0  0  0  0
    4.0188   -4.1174    0.5318 H   0  0  0  0  0  0  0  0  0  0  0  0
    5.6797   -3.5088   -1.2497 H   0  0  0  0  0  0  0  0  0  0  0  0
    5.1331   -1.6943   -2.8927 H   0  0  0  0  0  0  0  0  0  0  0  0
    2.9360   -0.4825   -2.7439 H   0  0  0  0  0  0  0  0  0  0  0  0
    0.2509   -0.3459    2.7880 H   0  0  0  0  0  0  0  0  0  0  0  0
    1.8049   -0.8892    4.6844 H   0  0  0  0  0  0  0  0  0  0  0  0
    4.2840   -0.6672    4.3728 H   0  0  0  0  0  0  0  0  0  0  0  0
    5.2055    0.0913    2.1676 H   0  0  0  0  0  0  0  0  0  0  0  0
    3.6633    0.6031    0.2758 H   0  0  0  0  0  0  0  0  0  0  0  0
    0.7538    0.7687   -2.8752 H   0  0  0  0  0  0  0  0  0  0  0  0
    1.5490    2.6448   -4.3210 H   0  0  0  0  0  0  0  0  0  0  0  0
    2.6318    4.6559   -3.2832 H   0  0  0  0  0  0  0  0  0  0  0  0
    2.8947    4.7870   -0.7934 H   0  0  0  0  0  0  0  0  0  0  0  0
    2.0710    2.9198    0.6570 H   0  0  0  0  0  0  0  0  0  0  0  0
  1  9  1  0  0  0  0
  2  1  1  0  0  0  0
  3  2  1  0  0  0  0
  3  4  1  0  0  0  0
  4 21  1  0  0  0  0
  5  4  2  0  0  0  0
  5 22  1  0  0  0  0
  6  5  1  0  0  0  0
  7  8  1  0  0  0  0
  7  6  2  0  0  0  0
  8  3  2  0  0  0  0
  9 10  1  0  0  0  0
 10 26  1  0  0  0  0
 10 11  2  0  0  0  0
 11 27  1  0  0  0  0
 12 11  1  0  0  0  0
 12 28  1  0  0  0  0
 13 12  2  0  0  0  0
 14  9  2  0  0  0  0
 14 13  1  0  0  0  0
 15 20  1  0  0  0  0
 15  1  1  0  0  0  0
 16 15  2  0  0  0  0
 17 18  2  0  0  0  0
 17 16  1  0  0  0  0
 18 19  1  0  0  0  0
 19 34  1  0  0  0  0
 19 20  2  0  0  0  0
 20 35  1  0  0  0  0
 23  6  1  0  0  0  0
 24  7  1  0  0  0  0
 25  8  1  0  0  0  0
 29 13  1  0  0  0  0
 30 14  1  0  0  0  0
 31 16  1  0  0  0  0
 32 17  1  0  0  0  0
 33 18  1  0  0  0  0
M  END
