1
 OpenBabel05122313063D

 38 39  0  0  0  0  0  0  0  0999 V2000
   -0.0122    1.1673    0.4604 P   0  0  0  0  0  0  0  0  0  0  0  0
   -1.6946    1.2293    1.2427 C   0  0  0  0  0  0  0  0  0  0  0  0
   -2.7734    0.6723    0.3584 C   0  0  0  0  0  0  0  0  0  0  0  0
   -3.3887   -0.5040    0.6282 C   0  0  0  0  0  0  0  0  0  0  0  0
   -3.0594   -1.0894    1.5030 H   0  0  0  0  0  0  0  0  0  0  0  0
   -4.4954   -1.0800   -0.2106 C   0  0  0  0  0  0  0  0  0  0  0  0
   -4.0900   -1.9501   -0.7784 H   0  0  0  0  0  0  0  0  0  0  0  0
   -5.2822   -1.5059    0.4492 H   0  0  0  0  0  0  0  0  0  0  0  0
   -5.0940   -0.0532   -1.1804 C   0  0  0  0  0  0  0  0  0  0  0  0
   -5.7432   -0.5598   -1.9236 H   0  0  0  0  0  0  0  0  0  0  0  0
   -5.7474    0.6483   -0.6154 H   0  0  0  0  0  0  0  0  0  0  0  0
   -3.9847    0.7410   -1.8777 C   0  0  0  0  0  0  0  0  0  0  0  0
   -4.4093    1.4467   -2.6208 H   0  0  0  0  0  0  0  0  0  0  0  0
   -3.3373    0.0358   -2.4414 H   0  0  0  0  0  0  0  0  0  0  0  0
   -3.1293    1.5025   -0.8575 C   0  0  0  0  0  0  0  0  0  0  0  0
   -3.6540    2.4252   -0.5151 H   0  0  0  0  0  0  0  0  0  0  0  0
   -2.1923    1.8694   -1.3330 H   0  0  0  0  0  0  0  0  0  0  0  0
   -2.0400    2.3587    2.2003 C   0  0  0  0  0  0  0  0  0  0  0  0
   -1.3116    3.1673    2.3663 H   0  0  0  0  0  0  0  0  0  0  0  0
   -3.0929    2.6822    2.2069 H   0  0  0  0  0  0  0  0  0  0  0  0
   -1.7214    0.9879    2.7405 C   0  0  0  0  0  0  0  0  0  0  0  0
   -2.5399    0.3708    3.1404 H   0  0  0  0  0  0  0  0  0  0  0  0
   -0.7570    0.8510    3.2553 H   0  0  0  0  0  0  0  0  0  0  0  0
    0.4450    2.7634    0.1855 C   0  0  0  0  0  0  0  0  0  0  0  0
   -0.3410    3.4956    0.4466 H   0  0  0  0  0  0  0  0  0  0  0  0
    1.7136    3.3690   -0.3851 C   0  0  0  0  0  0  0  0  0  0  0  0
    1.8827    4.7755    0.2302 C   0  0  0  0  0  0  0  0  0  0  0  0
    2.7894    5.2690   -0.1751 H   0  0  0  0  0  0  0  0  0  0  0  0
    1.9887    4.7185    1.3326 H   0  0  0  0  0  0  0  0  0  0  0  0
    1.0113    5.4230    0.0007 H   0  0  0  0  0  0  0  0  0  0  0  0
    1.5399    3.5017   -1.9189 C   0  0  0  0  0  0  0  0  0  0  0  0
    2.4151    4.0249   -2.3579 H   0  0  0  0  0  0  0  0  0  0  0  0
    0.6306    4.0837   -2.1718 H   0  0  0  0  0  0  0  0  0  0  0  0
    1.4566    2.5060   -2.3963 H   0  0  0  0  0  0  0  0  0  0  0  0
    2.9684    2.5347   -0.0725 C   0  0  0  0  0  0  0  0  0  0  0  0
    3.8698    3.0380   -0.4768 H   0  0  0  0  0  0  0  0  0  0  0  0
    2.9182    1.5285   -0.5265 H   0  0  0  0  0  0  0  0  0  0  0  0
    3.1030    2.4081    1.0201 H   0  0  0  0  0  0  0  0  0  0  0  0
  1  2  1  0  0  0  0
  2 18  1  0  0  0  0
  2 21  1  0  0  0  0
  3  4  2  0  0  0  0
  3  2  1  0  0  0  0
  4  5  1  0  0  0  0
  6  8  1  0  0  0  0
  6  4  1  0  0  0  0
  7  6  1  0  0  0  0
  9 11  1  0  0  0  0
  9  6  1  0  0  0  0
 10  9  1  0  0  0  0
 12  9  1  0  0  0  0
 12 15  1  0  0  0  0
 13 12  1  0  0  0  0
 14 12  1  0  0  0  0
 15 16  1  0  0  0  0
 15  3  1  0  0  0  0
 17 15  1  0  0  0  0
 18 20  1  0  0  0  0
 18 19  1  0  0  0  0
 18 21  1  0  0  0  0
 21 22  1  0  0  0  0
 21 23  1  0  0  0  0
 24 25  1  0  0  0  0
 24  1  2  0  0  0  0
 26 35  1  0  0  0  0
 26 24  1  0  0  0  0
 26 27  1  0  0  0  0
 27 29  1  0  0  0  0
 28 27  1  0  0  0  0
 30 27  1  0  0  0  0
 31 26  1  0  0  0  0
 32 31  1  0  0  0  0
 33 31  1  0  0  0  0
 34 31  1  0  0  0  0
 35 38  1  0  0  0  0
 36 35  1  0  0  0  0
 37 35  1  0  0  0  0
M  END
