1
 OpenBabel05122313063D

 50 53  0  0  0  0  0  0  0  0999 V2000
    0.1737   -0.2356   -0.6788 P   0  0  0  0  0  0  0  0  0  0  0  0
   -0.2632    0.1299   -2.2852 N   0  0  0  0  0  0  0  0  0  0  0  0
   -0.9845    0.8512   -2.4167 H   0  0  0  0  0  0  0  0  0  0  0  0
   -0.4872   -0.7027   -2.8403 H   0  0  0  0  0  0  0  0  0  0  0  0
   -1.3887   -0.2944    0.1533 N   0  0  0  0  0  0  0  0  0  0  0  0
   -1.4757   -0.6520    1.5162 C   0  0  0  0  0  0  0  0  0  0  0  0
   -0.3263   -0.6460    2.3471 C   0  0  0  0  0  0  0  0  0  0  0  0
    0.6473   -0.3449    1.9416 H   0  0  0  0  0  0  0  0  0  0  0  0
   -0.4219   -1.0069    3.6975 C   0  0  0  0  0  0  0  0  0  0  0  0
    0.4912   -1.0013    4.3124 H   0  0  0  0  0  0  0  0  0  0  0  0
   -1.6548   -1.3620    4.2653 C   0  0  0  0  0  0  0  0  0  0  0  0
   -1.7236   -1.6417    5.3267 H   0  0  0  0  0  0  0  0  0  0  0  0
   -2.7996   -1.3451    3.4535 C   0  0  0  0  0  0  0  0  0  0  0  0
   -3.7804   -1.6105    3.8773 H   0  0  0  0  0  0  0  0  0  0  0  0
   -2.7196   -0.9972    2.0990 C   0  0  0  0  0  0  0  0  0  0  0  0
   -3.6291   -0.9918    1.4838 H   0  0  0  0  0  0  0  0  0  0  0  0
   -2.5743   -0.3207   -0.6536 C   0  0  0  0  0  0  0  0  0  0  0  0
   -3.0573   -1.5436   -1.1621 C   0  0  0  0  0  0  0  0  0  0  0  0
   -2.5316   -2.4743   -0.9011 H   0  0  0  0  0  0  0  0  0  0  0  0
   -4.1956   -1.5629   -1.9809 C   0  0  0  0  0  0  0  0  0  0  0  0
   -4.5668   -2.5204   -2.3769 H   0  0  0  0  0  0  0  0  0  0  0  0
   -4.8581   -0.3647   -2.2971 C   0  0  0  0  0  0  0  0  0  0  0  0
   -5.7489   -0.3813   -2.9430 H   0  0  0  0  0  0  0  0  0  0  0  0
   -4.3829    0.8527   -1.7843 C   0  0  0  0  0  0  0  0  0  0  0  0
   -4.9009    1.7936   -2.0246 H   0  0  0  0  0  0  0  0  0  0  0  0
   -3.2465    0.8784   -0.9598 C   0  0  0  0  0  0  0  0  0  0  0  0
   -2.8687    1.8238   -0.5448 H   0  0  0  0  0  0  0  0  0  0  0  0
    0.7719    1.2782   -0.0800 N   0  0  0  0  0  0  0  0  0  0  0  0
   -0.0982    2.4163    0.0121 C   0  0  0  0  0  0  0  0  0  0  0  0
   -0.8827    2.6363    1.1605 C   0  0  0  0  0  0  0  0  0  0  0  0
   -0.8082    1.9344    2.0030 H   0  0  0  0  0  0  0  0  0  0  0  0
   -1.7578    3.7321    1.2110 C   0  0  0  0  0  0  0  0  0  0  0  0
   -2.3722    3.8943    2.1095 H   0  0  0  0  0  0  0  0  0  0  0  0
   -1.8528    4.6153    0.1228 C   0  0  0  0  0  0  0  0  0  0  0  0
   -2.5413    5.4728    0.1662 H   0  0  0  0  0  0  0  0  0  0  0  0
   -1.0601    4.4058   -1.0182 C   0  0  0  0  0  0  0  0  0  0  0  0
   -1.1241    5.0994   -1.8705 H   0  0  0  0  0  0  0  0  0  0  0  0
   -0.1848    3.3112   -1.0748 C   0  0  0  0  0  0  0  0  0  0  0  0
    0.4441    3.1326   -1.9599 H   0  0  0  0  0  0  0  0  0  0  0  0
    2.1804    1.5005   -0.0293 C   0  0  0  0  0  0  0  0  0  0  0  0
    3.0208    1.0895   -1.0846 C   0  0  0  0  0  0  0  0  0  0  0  0
    2.5736    0.6597   -1.9917 H   0  0  0  0  0  0  0  0  0  0  0  0
    4.4110    1.2434   -0.9747 C   0  0  0  0  0  0  0  0  0  0  0  0
    5.0592    0.9044   -1.7971 H   0  0  0  0  0  0  0  0  0  0  0  0
    4.9709    1.8401    0.1648 C   0  0  0  0  0  0  0  0  0  0  0  0
    6.0611    1.9632    0.2463 H   0  0  0  0  0  0  0  0  0  0  0  0
    4.1303    2.2872    1.1989 C   0  0  0  0  0  0  0  0  0  0  0  0
    4.5614    2.7598    2.0945 H   0  0  0  0  0  0  0  0  0  0  0  0
    2.7437    2.1130    1.1094 C   0  0  0  0  0  0  0  0  0  0  0  0
    2.0811    2.4361    1.9259 H   0  0  0  0  0  0  0  0  0  0  0  0
  1 28  1  0  0  0  0
  1  5  1  0  0  0  0
  2  1  1  0  0  0  0
  3  2  1  0  0  0  0
  4  2  1  0  0  0  0
  5  6  1  0  0  0  0
  6 15  2  0  0  0  0
  6  7  1  0  0  0  0
  7  9  2  0  0  0  0
  8  7  1  0  0  0  0
  9 11  1  0  0  0  0
  9 10  1  0  0  0  0
 11 12  1  0  0  0  0
 13 14  1  0  0  0  0
 13 11  2  0  0  0  0
 15 13  1  0  0  0  0
 16 15  1  0  0  0  0
 17  5  1  0  0  0  0
 18 19  1  0  0  0  0
 18 17  2  0  0  0  0
 20 18  1  0  0  0  0
 21 20  1  0  0  0  0
 22 20  2  0  0  0  0
 22 24  1  0  0  0  0
 23 22  1  0  0  0  0
 24 26  2  0  0  0  0
 25 24  1  0  0  0  0
 26 17  1  0  0  0  0
 26 27  1  0  0  0  0
 28 40  1  0  0  0  0
 28 29  1  0  0  0  0
 29 30  1  0  0  0  0
 30 32  2  0  0  0  0
 30 31  1  0  0  0  0
 32 33  1  0  0  0  0
 34 35  1  0  0  0  0
 34 32  1  0  0  0  0
 36 34  2  0  0  0  0
 37 36  1  0  0  0  0
 38 36  1  0  0  0  0
 38 29  2  0  0  0  0
 39 38  1  0  0  0  0
 40 49  1  0  0  0  0
 41 43  1  0  0  0  0
 41 40  2  0  0  0  0
 42 41  1  0  0  0  0
 43 45  2  0  0  0  0
 44 43  1  0  0  0  0
 45 46  1  0  0  0  0
 45 47  1  0  0  0  0
 47 48  1  0  0  0  0
 49 47  2  0  0  0  0
 49 50  1  0  0  0  0
M  END
