1
 OpenBabel05122313063D

 20 20  0  0  0  0  0  0  0  0999 V2000
    0.5213    1.7557   -0.1860 P   0  0  0  0  0  0  0  0  0  0  0  0
    1.0109    3.1989    0.8465 C   0  0  0  0  0  0  0  0  0  0  0  0
    2.0429    3.4634    0.5482 H   0  0  0  0  0  0  0  0  0  0  0  0
    1.0095    2.8967    1.9098 H   0  0  0  0  0  0  0  0  0  0  0  0
    0.3043    4.0361    0.6834 H   0  0  0  0  0  0  0  0  0  0  0  0
    0.4642    2.4146   -1.8931 C   0  0  0  0  0  0  0  0  0  0  0  0
   -0.1435    3.3348   -1.9703 H   0  0  0  0  0  0  0  0  0  0  0  0
    0.0815    1.6375   -2.5781 H   0  0  0  0  0  0  0  0  0  0  0  0
    1.5287    2.6152   -2.1278 H   0  0  0  0  0  0  0  0  0  0  0  0
   -1.2217    1.5380    0.4050 C   0  0  0  0  0  0  0  0  0  0  0  0
   -2.4012    1.7774   -0.3283 C   0  0  0  0  0  0  0  0  0  0  0  0
   -2.3200    2.1085   -1.6322 F   0  0  0  0  0  0  0  0  0  0  0  0
   -3.6797    1.6814    0.2333 C   0  0  0  0  0  0  0  0  0  0  0  0
   -4.5508    1.8870   -0.4034 H   0  0  0  0  0  0  0  0  0  0  0  0
   -3.8102    1.3140    1.5783 C   0  0  0  0  0  0  0  0  0  0  0  0
   -4.8101    1.2331    2.0288 H   0  0  0  0  0  0  0  0  0  0  0  0
   -2.6730    1.0370    2.3497 C   0  0  0  0  0  0  0  0  0  0  0  0
   -2.7368    0.7309    3.4025 H   0  0  0  0  0  0  0  0  0  0  0  0
   -1.4179    1.1553    1.7498 C   0  0  0  0  0  0  0  0  0  0  0  0
   -0.3269    0.8838    2.5008 F   0  0  0  0  0  0  0  0  0  0  0  0
  1 10  1  0  0  0  0
  1  2  1  0  0  0  0
  2  4  1  0  0  0  0
  3  2  1  0  0  0  0
  5  2  1  0  0  0  0
  6  1  1  0  0  0  0
  7  6  1  0  0  0  0
  8  6  1  0  0  0  0
  9  6  1  0  0  0  0
 10 19  1  0  0  0  0
 11 13  1  0  0  0  0
 11 10  2  0  0  0  0
 12 11  1  0  0  0  0
 13 15  2  0  0  0  0
 14 13  1  0  0  0  0
 15 16  1  0  0  0  0
 15 17  1  0  0  0  0
 17 18  1  0  0  0  0
 19 17  2  0  0  0  0
 19 20  1  0  0  0  0
M  END
