1
 OpenBabel05122313063D

 31 31  0  0  0  0  0  0  0  0999 V2000
    0.7189   -0.7564    0.0974 P   0  0  0  0  0  2  0  0  0  0  0  0
    2.0968   -0.6490   -1.5149 P   0  0  0  0  0  0  0  0  0  0  0  0
    3.4309   -0.8850    1.2714 P   0  0  0  0  0  0  0  0  0  0  0  0
    3.5273   -0.7718   -0.5007 C   0  0  0  0  0  0  0  0  0  0  0  0
    1.7025   -0.7715    1.5520 C   0  0  0  0  0  0  0  0  0  0  0  0
    4.9262   -0.8850   -1.1478 C   0  0  0  0  0  0  0  0  0  0  0  0
    1.0948   -0.8851    2.9623 C   0  0  0  0  0  0  0  0  0  0  0  0
    4.8901   -0.5433   -2.6496 C   0  0  0  0  0  0  0  0  0  0  0  0
    5.9013    0.0887   -0.4493 C   0  0  0  0  0  0  0  0  0  0  0  0
    2.1916   -0.9553    4.0429 C   0  0  0  0  0  0  0  0  0  0  0  0
    0.1899    0.3271    3.2596 C   0  0  0  0  0  0  0  0  0  0  0  0
    5.9087   -0.6184   -3.0833 H   0  0  0  0  0  0  0  0  0  0  0  0
    4.2304   -1.2372   -3.2096 H   0  0  0  0  0  0  0  0  0  0  0  0
    6.9142    0.0110   -0.8974 H   0  0  0  0  0  0  0  0  0  0  0  0
    5.5526    1.1363   -0.5539 H   0  0  0  0  0  0  0  0  0  0  0  0
    5.9871   -0.1325    0.6339 H   0  0  0  0  0  0  0  0  0  0  0  0
    1.7272   -1.0207    5.0486 H   0  0  0  0  0  0  0  0  0  0  0  0
    2.8431   -1.8409    3.9028 H   0  0  0  0  0  0  0  0  0  0  0  0
   -0.2935    0.2245    4.2536 H   0  0  0  0  0  0  0  0  0  0  0  0
    0.7772    1.2669    3.2637 H   0  0  0  0  0  0  0  0  0  0  0  0
   -0.6078    0.4242    2.4917 H   0  0  0  0  0  0  0  0  0  0  0  0
    5.4436   -2.3336   -0.9843 C   0  0  0  0  0  0  0  0  0  0  0  0
    0.2426   -2.1715    3.0452 C   0  0  0  0  0  0  0  0  0  0  0  0
    4.5188    0.4882   -2.8198 H   0  0  0  0  0  0  0  0  0  0  0  0
    2.8396   -0.0562    4.0180 H   0  0  0  0  0  0  0  0  0  0  0  0
    6.4467   -2.4483   -1.4477 H   0  0  0  0  0  0  0  0  0  0  0  0
    4.7507   -3.0508   -1.4688 H   0  0  0  0  0  0  0  0  0  0  0  0
    5.5187   -2.6067    0.0873 H   0  0  0  0  0  0  0  0  0  0  0  0
   -0.1714   -2.3034    4.0671 H   0  0  0  0  0  0  0  0  0  0  0  0
    0.8488   -3.0636    2.7907 H   0  0  0  0  0  0  0  0  0  0  0  0
   -0.6084   -2.1173    2.3380 H   0  0  0  0  0  0  0  0  0  0  0  0
  1  5  1  0  0  0  0
  2  4  2  0  0  0  0
  2  1  1  0  0  0  0
  3  5  2  0  0  0  0
  4  3  1  0  0  0  0
  5  7  1  0  0  0  0
  6 22  1  0  0  0  0
  6  4  1  0  0  0  0
  6  9  1  0  0  0  0
  7 23  1  0  0  0  0
  7 11  1  0  0  0  0
  7 10  1  0  0  0  0
  8  6  1  0  0  0  0
  9 16  1  0  0  0  0
 10 17  1  0  0  0  0
 11 20  1  0  0  0  0
 11 19  1  0  0  0  0
 12  8  1  0  0  0  0
 13  8  1  0  0  0  0
 14  9  1  0  0  0  0
 15  9  1  0  0  0  0
 18 10  1  0  0  0  0
 21 11  1  0  0  0  0
 22 28  1  0  0  0  0
 23 29  1  0  0  0  0
 24  8  1  0  0  0  0
 25 10  1  0  0  0  0
 26 22  1  0  0  0  0
 27 22  1  0  0  0  0
 30 23  1  0  0  0  0
 31 23  1  0  0  0  0
M  END
