1
 OpenBabel05122313063D

 31 31  0  0  1  0  0  0  0  0999 V2000
    0.9328   -0.3567   -0.1560 P   0  0  2  0  0  0  0  0  0  0  0  0
    1.7051    2.3104   -0.3593 N   0  0  0  0  0  0  0  0  0  0  0  0
    1.8789   -0.8232    1.3967 C   0  0  1  0  0  0  0  0  0  0  0  0
    1.1044   -1.3263    2.0156 H   0  0  0  0  0  0  0  0  0  0  0  0
    2.8802   -1.8888    0.9140 C   0  0  0  0  0  0  0  0  0  0  0  0
    3.7502   -1.3906    0.4291 H   0  0  0  0  0  0  0  0  0  0  0  0
    3.2853   -2.4684    1.7697 H   0  0  0  0  0  0  0  0  0  0  0  0
    2.1513   -2.7792   -0.0986 C   0  0  0  0  0  0  0  0  0  0  0  0
    1.3731   -3.3760    0.4260 H   0  0  0  0  0  0  0  0  0  0  0  0
    2.8308   -3.5039   -0.5929 H   0  0  0  0  0  0  0  0  0  0  0  0
    1.4666   -1.8705   -1.1424 C   0  0  1  0  0  0  0  0  0  0  0  0
    2.2430   -1.4948   -1.8467 H   0  0  0  0  0  0  0  0  0  0  0  0
    2.4697    0.3392    2.1893 C   0  0  0  0  0  0  0  0  0  0  0  0
    3.2741    0.8522    1.6251 H   0  0  0  0  0  0  0  0  0  0  0  0
    2.9125   -0.0340    3.1357 H   0  0  0  0  0  0  0  0  0  0  0  0
    1.7029    1.0977    2.4378 H   0  0  0  0  0  0  0  0  0  0  0  0
    0.3421   -2.5341   -1.9347 C   0  0  0  0  0  0  0  0  0  0  0  0
   -0.4774   -2.8608   -1.2626 H   0  0  0  0  0  0  0  0  0  0  0  0
    0.7220   -3.4242   -2.4778 H   0  0  0  0  0  0  0  0  0  0  0  0
   -0.1002   -1.8425   -2.6786 H   0  0  0  0  0  0  0  0  0  0  0  0
    1.9227    1.0137   -0.9598 C   0  0  0  0  0  0  0  0  0  0  0  0
    2.9875    0.7214   -0.8421 H   0  0  0  0  0  0  0  0  0  0  0  0
    1.7031    0.9713   -2.0612 H   0  0  0  0  0  0  0  0  0  0  0  0
    2.8745    3.1708   -0.4137 C   0  0  0  0  0  0  0  0  0  0  0  0
    3.7456    2.6684    0.0554 H   0  0  0  0  0  0  0  0  0  0  0  0
    2.6769    4.1020    0.1546 H   0  0  0  0  0  0  0  0  0  0  0  0
    3.1664    3.4662   -1.4564 H   0  0  0  0  0  0  0  0  0  0  0  0
    0.5014    2.9752   -0.8324 C   0  0  0  0  0  0  0  0  0  0  0  0
    0.3288    3.9004   -0.2478 H   0  0  0  0  0  0  0  0  0  0  0  0
   -0.3824    2.3188   -0.6900 H   0  0  0  0  0  0  0  0  0  0  0  0
    0.5573    3.2518   -1.9185 H   0  0  0  0  0  0  0  0  0  0  0  0
  1 21  1  6  0  0  0
  1  3  1  0  0  0  0
  3  4  1  1  0  0  0
  3 13  1  0  0  0  0
  5  3  1  0  0  0  0
  5  7  1  0  0  0  0
  6  5  1  0  0  0  0
  8  9  1  0  0  0  0
  8  5  1  0  0  0  0
 10  8  1  0  0  0  0
 11 12  1  6  0  0  0
 11  1  1  0  0  0  0
 11  8  1  0  0  0  0
 13 16  1  0  0  0  0
 13 15  1  0  0  0  0
 14 13  1  0  0  0  0
 17 18  1  0  0  0  0
 17 11  1  0  0  0  0
 19 17  1  0  0  0  0
 20 17  1  0  0  0  0
 21 22  1  0  0  0  0
 21  2  1  0  0  0  0
 23 21  1  0  0  0  0
 24  2  1  0  0  0  0
 24 25  1  0  0  0  0
 24 26  1  0  0  0  0
 27 24  1  0  0  0  0
 28 30  1  0  0  0  0
 28  2  1  0  0  0  0
 28 29  1  0  0  0  0
 31 28  1  0  0  0  0
M  END
