1
 OpenBabel05122313063D

 32 34  0  0  0  0  0  0  0  0999 V2000
   -2.4092    0.1617    0.0013 P   0  0  0  0  0  0  0  0  0  0  0  0
   -3.1597    1.6272    0.8394 C   0  0  0  0  0  0  0  0  0  0  0  0
   -3.8805    1.6544    2.0261 C   0  0  0  0  0  3  0  0  0  0  0  0
   -4.3572    2.6665    2.6222 C   0  0  0  0  0  3  0  0  0  0  0  0
   -4.2626    3.9897    2.2068 C   0  0  0  0  0  0  0  0  0  0  0  0
   -3.5371    4.0814    0.9842 C   0  0  0  0  0  0  0  0  0  0  0  0
   -3.0058    2.9537    0.3299 C   0  0  0  0  0  0  0  0  0  0  0  0
   -3.3006    0.1970   -1.6108 C   0  0  0  0  0  0  0  0  0  0  0  0
   -2.6311    0.0393   -2.8378 C   0  0  0  0  0  0  0  0  0  0  0  0
   -3.3489    0.0791   -4.0429 C   0  0  0  0  0  0  0  0  0  0  0  0
   -4.7395    0.2679   -4.0302 C   0  0  0  0  0  0  0  0  0  0  0  0
   -5.4134    0.4236   -2.8077 C   0  0  0  0  0  0  0  0  0  0  0  0
   -4.6986    0.3943   -1.6021 C   0  0  0  0  0  0  0  0  0  0  0  0
   -3.1556   -1.2204    0.9378 C   0  0  0  0  0  0  0  0  0  0  0  0
   -3.0036   -1.2466    2.3397 C   0  0  0  0  0  0  0  0  0  0  0  0
   -3.5587   -2.2982    3.0845 C   0  0  0  0  0  0  0  0  0  0  0  0
   -4.2349   -3.3403    2.4326 C   0  0  0  0  0  0  0  0  0  0  0  0
   -4.3554   -3.3322    1.0336 C   0  0  0  0  0  0  0  0  0  0  0  0
   -3.8161   -2.2759    0.2839 C   0  0  0  0  0  0  0  0  0  0  0  0
   -4.6697    4.8773    2.7131 H   0  0  0  0  0  0  0  0  0  0  0  0
   -3.3837    5.0765    0.5362 H   0  0  0  0  0  0  0  0  0  0  0  0
   -2.4502    3.0928   -0.6122 H   0  0  0  0  0  0  0  0  0  0  0  0
   -1.5434   -0.1192   -2.8465 H   0  0  0  0  0  0  0  0  0  0  0  0
   -2.8147   -0.0409   -4.9973 H   0  0  0  0  0  0  0  0  0  0  0  0
   -5.3011    0.2956   -4.9764 H   0  0  0  0  0  0  0  0  0  0  0  0
   -6.5036    0.5728   -2.7915 H   0  0  0  0  0  0  0  0  0  0  0  0
   -2.4408   -0.4510    2.8499 H   0  0  0  0  0  0  0  0  0  0  0  0
   -3.4438   -2.3103    4.1787 H   0  0  0  0  0  0  0  0  0  0  0  0
   -4.6616   -4.1698    3.0169 H   0  0  0  0  0  0  0  0  0  0  0  0
   -4.8730   -4.1555    0.5184 H   0  0  0  0  0  0  0  0  0  0  0  0
   -3.9010   -2.2734   -0.8120 H   0  0  0  0  0  0  0  0  0  0  0  0
   -5.2280    0.5239   -0.6459 H   0  0  0  0  0  0  0  0  0  0  0  0
  1  2  1  0  0  0  0
  1 14  1  0  0  0  0
  2  3  1  0  0  0  0
  3  4  2  0  0  0  0
  5  4  1  0  0  0  0
  5 20  1  0  0  0  0
  6  5  2  0  0  0  0
  7  2  2  0  0  0  0
  7  6  1  0  0  0  0
  8 13  1  0  0  0  0
  8  1  1  0  0  0  0
  9  8  2  0  0  0  0
 10 11  2  0  0  0  0
 10  9  1  0  0  0  0
 11 12  1  0  0  0  0
 12 26  1  0  0  0  0
 12 13  2  0  0  0  0
 13 32  1  0  0  0  0
 14 15  1  0  0  0  0
 15 27  1  0  0  0  0
 15 16  2  0  0  0  0
 16 28  1  0  0  0  0
 17 29  1  0  0  0  0
 17 16  1  0  0  0  0
 18 17  2  0  0  0  0
 19 14  2  0  0  0  0
 19 18  1  0  0  0  0
 21  6  1  0  0  0  0
 22  7  1  0  0  0  0
 23  9  1  0  0  0  0
 24 10  1  0  0  0  0
 25 11  1  0  0  0  0
 30 18  1  0  0  0  0
 31 19  1  0  0  0  0
M  END
