2
 OpenBabel05122313063D

 53 56  0  0  0  0  0  0  0  0999 V2000
    2.8586   -0.3794   -0.5075 P   0  0  0  0  0  0  0  0  0  0  0  0
   -1.4866   -0.3039   -0.3644 P   0  0  0  0  0  0  0  0  0  0  0  0
    2.7372   -0.8919   -1.9409 O   0  0  0  0  0  0  0  0  0  0  0  0
    1.2331    0.1760    0.1560 C   0  0  0  0  0  0  0  0  0  0  0  0
    1.2985    0.5152    1.2090 H   0  0  0  0  0  0  0  0  0  0  0  0
    0.9799    1.0734   -0.4476 H   0  0  0  0  0  0  0  0  0  0  0  0
    0.2094   -0.9524   -0.0321 C   0  0  0  0  0  0  0  0  0  0  0  0
    0.1341   -1.5926    0.8688 H   0  0  0  0  0  0  0  0  0  0  0  0
    0.4959   -1.6123   -0.8790 H   0  0  0  0  0  0  0  0  0  0  0  0
    3.9787    1.0572   -0.3748 C   0  0  0  0  0  0  0  0  0  0  0  0
    4.3085    1.6744    0.8481 C   0  0  0  0  0  0  0  0  0  0  0  0
    3.9130    1.2845    1.7985 H   0  0  0  0  0  0  0  0  0  0  0  0
    5.1557    2.7915    0.8582 C   0  0  0  0  0  0  0  0  0  0  0  0
    5.4126    3.2751    1.8128 H   0  0  0  0  0  0  0  0  0  0  0  0
    5.6764    3.2912   -0.3476 C   0  0  0  0  0  0  0  0  0  0  0  0
    6.3415    4.1680   -0.3354 H   0  0  0  0  0  0  0  0  0  0  0  0
    5.3513    2.6735   -1.5656 C   0  0  0  0  0  0  0  0  0  0  0  0
    5.7618    3.0641   -2.5093 H   0  0  0  0  0  0  0  0  0  0  0  0
    4.5026    1.5566   -1.5827 C   0  0  0  0  0  0  0  0  0  0  0  0
    4.2311    1.0495   -2.5216 H   0  0  0  0  0  0  0  0  0  0  0  0
    3.4563   -1.6764    0.6353 C   0  0  0  0  0  0  0  0  0  0  0  0
    3.3185   -1.6092    2.0366 C   0  0  0  0  0  0  0  0  0  0  0  0
    2.8209   -0.7500    2.5129 H   0  0  0  0  0  0  0  0  0  0  0  0
    3.8042   -2.6529    2.8382 C   0  0  0  0  0  0  0  0  0  0  0  0
    3.6927   -2.6003    3.9318 H   0  0  0  0  0  0  0  0  0  0  0  0
    4.4240   -3.7652    2.2452 C   0  0  0  0  0  0  0  0  0  0  0  0
    4.8029   -4.5831    2.8769 H   0  0  0  0  0  0  0  0  0  0  0  0
    4.5514   -3.8392    0.8487 C   0  0  0  0  0  0  0  0  0  0  0  0
    5.0277   -4.7160    0.3841 H   0  0  0  0  0  0  0  0  0  0  0  0
    4.0655   -2.7997    0.0424 C   0  0  0  0  0  0  0  0  0  0  0  0
    4.1346   -2.8417   -1.0557 H   0  0  0  0  0  0  0  0  0  0  0  0
   -1.3780    0.4757   -2.0215 C   0  0  0  0  0  0  0  0  0  0  0  0
   -0.2846    0.2843   -2.8937 C   0  0  0  0  0  0  0  0  0  0  0  0
    0.6023   -0.3045   -2.6043 H   0  0  0  0  0  0  0  0  0  0  0  0
   -0.2971    0.8918   -4.1605 C   0  0  0  0  0  0  0  0  0  0  0  0
    0.5635    0.7474   -4.8313 H   0  0  0  0  0  0  0  0  0  0  0  0
   -1.3867    1.6771   -4.5651 C   0  0  0  0  0  0  0  0  0  0  0  0
   -1.3876    2.1490   -5.5595 H   0  0  0  0  0  0  0  0  0  0  0  0
   -2.4718    1.8718   -3.6941 C   0  0  0  0  0  0  0  0  0  0  0  0
   -3.3241    2.4964   -4.0011 H   0  0  0  0  0  0  0  0  0  0  0  0
   -2.4655    1.2809   -2.4241 C   0  0  0  0  0  0  0  0  0  0  0  0
   -3.3048    1.4481   -1.7300 H   0  0  0  0  0  0  0  0  0  0  0  0
   -2.4809   -1.8242   -0.6204 C   0  0  0  0  0  0  0  0  0  0  0  0
   -3.4028   -2.2246    0.3664 C   0  0  0  0  0  0  0  0  0  0  0  0
   -3.5486   -1.5943    1.2585 H   0  0  0  0  0  0  0  0  0  0  0  0
   -4.1325   -3.4120    0.2021 C   0  0  0  0  0  0  0  0  0  0  0  0
   -4.8540   -3.7199    0.9738 H   0  0  0  0  0  0  0  0  0  0  0  0
   -3.9476   -4.1981   -0.9459 C   0  0  0  0  0  0  0  0  0  0  0  0
   -4.5243   -5.1265   -1.0757 H   0  0  0  0  0  0  0  0  0  0  0  0
   -3.0329   -3.7969   -1.9344 C   0  0  0  0  0  0  0  0  0  0  0  0
   -2.8927   -4.4087   -2.8384 H   0  0  0  0  0  0  0  0  0  0  0  0
   -2.3005   -2.6122   -1.7761 C   0  0  0  0  0  0  0  0  0  0  0  0
   -1.5957   -2.2914   -2.5592 H   0  0  0  0  0  0  0  0  0  0  0  0
  1 10  1  0  0  0  0
  1  4  1  0  0  0  0
  1 21  1  0  0  0  0
  2  7  1  0  0  0  0
  3  1  2  0  0  0  0
  4  5  1  0  0  0  0
  6  4  1  0  0  0  0
  7  4  1  0  0  0  0
  7  8  1  0  0  0  0
  9  7  1  0  0  0  0
 10 11  1  0  0  0  0
 11 13  2  0  0  0  0
 11 12  1  0  0  0  0
 13 14  1  0  0  0  0
 15 16  1  0  0  0  0
 15 13  1  0  0  0  0
 17 15  2  0  0  0  0
 18 17  1  0  0  0  0
 19 17  1  0  0  0  0
 19 10  2  0  0  0  0
 20 19  1  0  0  0  0
 21 22  1  0  0  0  0
 22 23  1  0  0  0  0
 22 24  2  0  0  0  0
 24 25  1  0  0  0  0
 26 24  1  0  0  0  0
 26 27  1  0  0  0  0
 28 26  2  0  0  0  0
 29 28  1  0  0  0  0
 30 21  2  0  0  0  0
 30 28  1  0  0  0  0
 31 30  1  0  0  0  0
 32  2  1  0  0  0  0
 33 34  1  0  0  0  0
 33 32  2  0  0  0  0
 35 33  1  0  0  0  0
 36 35  1  0  0  0  0
 37 35  2  0  0  0  0
 37 39  1  0  0  0  0
 38 37  1  0  0  0  0
 39 41  2  0  0  0  0
 40 39  1  0  0  0  0
 41 32  1  0  0  0  0
 41 42  1  0  0  0  0
 43  2  1  0  0  0  0
 43 44  1  0  0  0  0
 44 45  1  0  0  0  0
 46 44  2  0  0  0  0
 46 47  1  0  0  0  0
 48 46  1  0  0  0  0
 49 48  1  0  0  0  0
 50 52  1  0  0  0  0
 50 48  2  0  0  0  0
 51 50  1  0  0  0  0
 52 43  2  0  0  0  0
 53 52  1  0  0  0  0
M  END
