1
 OpenBabel05122313063D

 42 45  0  0  1  0  0  0  0  0999 V2000
    0.8379    0.2820    0.0446 P   0  0  2  0  0  0  0  0  0  0  0  0
    1.6065    0.3010    1.7207 C   0  0  0  0  0  0  0  0  0  0  0  0
    2.4551   -0.9423    1.8787 C   0  0  0  0  0  0  0  0  0  0  0  0
    1.8206   -1.7617    2.2871 H   0  0  0  0  0  0  0  0  0  0  0  0
    3.2635   -0.7908    2.6217 H   0  0  0  0  0  0  0  0  0  0  0  0
    3.0426   -1.3747    0.5160 C   0  0  2  0  0  0  0  0  0  0  0  0
    4.0435   -0.9139    0.3884 H   0  0  0  0  0  0  0  0  0  0  0  0
    2.0920   -0.9356   -0.6568 C   0  0  1  0  0  0  0  0  0  0  0  0
    2.6349   -0.3591   -1.4306 H   0  0  0  0  0  0  0  0  0  0  0  0
    1.5946   -2.2777   -1.2452 C   0  0  2  0  0  0  0  0  0  0  0  0
    0.6351   -2.2018   -1.7901 H   0  0  0  0  0  0  0  0  0  0  0  0
    1.6296   -3.2195   -0.0241 C   0  0  0  0  0  0  0  0  0  0  0  0
    1.4476   -4.2797   -0.2914 H   0  0  0  0  0  0  0  0  0  0  0  0
    0.9172   -2.9420    0.7756 H   0  0  0  0  0  0  0  0  0  0  0  0
    3.0993   -2.9097    0.3256 C   0  0  1  0  0  0  0  0  0  0  0  0
    3.5161   -3.4399    1.2047 H   0  0  0  0  0  0  0  0  0  0  0  0
    3.8220   -3.2254   -1.0052 C   0  0  0  0  0  0  0  0  0  0  0  0
    4.0895   -4.2993   -1.0609 H   0  0  0  0  0  0  0  0  0  0  0  0
    4.7651   -2.6508   -1.1064 H   0  0  0  0  0  0  0  0  0  0  0  0
    2.7610   -2.8460   -2.0874 C   0  0  0  0  0  0  0  0  0  0  0  0
    3.1366   -2.1131   -2.8292 H   0  0  0  0  0  0  0  0  0  0  0  0
    2.4239   -3.7394   -2.6504 H   0  0  0  0  0  0  0  0  0  0  0  0
    1.3675    1.2451    2.6707 C   0  0  0  0  0  0  0  0  0  0  0  0
    0.4881    2.4447    2.4417 C   0  0  0  0  0  0  0  0  0  0  0  0
   -0.0231    2.4362    1.4630 H   0  0  0  0  0  0  0  0  0  0  0  0
    1.0856    3.3803    2.4998 H   0  0  0  0  0  0  0  0  0  0  0  0
   -0.2870    2.5123    3.2340 H   0  0  0  0  0  0  0  0  0  0  0  0
    1.9442    1.1588    4.0604 C   0  0  0  0  0  0  0  0  0  0  0  0
    1.1450    0.8651    4.7762 H   0  0  0  0  0  0  0  0  0  0  0  0
    2.3189    2.1480    4.3974 H   0  0  0  0  0  0  0  0  0  0  0  0
    2.7621    0.4211    4.1561 H   0  0  0  0  0  0  0  0  0  0  0  0
    1.3990    1.8524   -0.7653 C   0  0  0  0  0  0  0  0  0  0  0  0
    0.7129    2.3473   -1.8911 C   0  0  0  0  0  0  0  0  0  0  0  0
   -0.1858    1.8301   -2.2554 H   0  0  0  0  0  0  0  0  0  0  0  0
    1.1683    3.4994   -2.5506 C   0  0  0  0  0  0  0  0  0  0  0  0
    0.6205    3.8756   -3.4277 H   0  0  0  0  0  0  0  0  0  0  0  0
    2.3101    4.1711   -2.0889 C   0  0  0  0  0  0  0  0  0  0  0  0
    2.6621    5.0792   -2.6014 H   0  0  0  0  0  0  0  0  0  0  0  0
    2.9997    3.6824   -0.9672 C   0  0  0  0  0  0  0  0  0  0  0  0
    3.8950    4.2060   -0.5983 H   0  0  0  0  0  0  0  0  0  0  0  0
    2.5499    2.5287   -0.3093 C   0  0  0  0  0  0  0  0  0  0  0  0
    3.0856    2.1524    0.5756 H   0  0  0  0  0  0  0  0  0  0  0  0
  1 32  1  6  0  0  0
  1  2  1  0  0  0  0
  2  3  1  0  0  0  0
  2 23  2  0  0  0  0
  3  4  1  0  0  0  0
  3  5  1  0  0  0  0
  6  7  1  6  0  0  0
  6  3  1  0  0  0  0
  8  9  1  6  0  0  0
  8  1  1  0  0  0  0
  8  6  1  0  0  0  0
 10 11  1  6  0  0  0
 10  8  1  0  0  0  0
 10 12  1  0  0  0  0
 12 15  1  0  0  0  0
 12 14  1  0  0  0  0
 13 12  1  0  0  0  0
 15  6  1  0  0  0  0
 15 16  1  1  0  0  0
 17 15  1  0  0  0  0
 18 17  1  0  0  0  0
 19 17  1  0  0  0  0
 20 10  1  0  0  0  0
 20 17  1  0  0  0  0
 21 20  1  0  0  0  0
 22 20  1  0  0  0  0
 23 28  1  0  0  0  0
 24 26  1  0  0  0  0
 24 23  1  0  0  0  0
 24 27  1  0  0  0  0
 25 24  1  0  0  0  0
 28 31  1  0  0  0  0
 28 30  1  0  0  0  0
 28 29  1  0  0  0  0
 32 41  1  0  0  0  0
 33 32  2  0  0  0  0
 34 33  1  0  0  0  0
 35 37  2  0  0  0  0
 35 33  1  0  0  0  0
 36 35  1  0  0  0  0
 37 39  1  0  0  0  0
 38 37  1  0  0  0  0
 39 40  1  0  0  0  0
 39 41  2  0  0  0  0
 41 42  1  0  0  0  0
M  END
