1
 OpenBabel05122313063D

 35 36  0  0  0  0  0  0  0  0999 V2000
    1.4201    0.4045    0.5672 P   0  0  0  0  0  2  0  0  0  0  0  0
    2.5383   -1.0458    1.0089 C   0  0  0  0  0  0  0  0  0  0  0  0
    2.9737   -0.9131    2.4877 C   0  0  0  0  0  0  0  0  0  0  0  0
    3.6348   -2.2122    2.9736 C   0  0  0  0  0  0  0  0  0  0  0  0
    3.7390   -1.4155    0.1232 C   0  0  0  0  0  0  0  0  0  0  0  0
    4.3873   -2.7218    0.6054 C   0  0  0  0  0  0  0  0  0  0  0  0
    4.8086   -2.6266    2.0770 C   0  0  0  0  0  0  0  0  0  0  0  0
    2.4571    1.7008   -0.3172 C   0  0  0  0  0  0  0  0  0  0  0  0
    3.5183    2.2444    0.6656 C   0  0  0  0  0  0  0  0  0  0  0  0
    4.1864    3.5069    0.0983 C   0  0  0  0  0  0  0  0  0  0  0  0
    4.7819    3.2521   -1.2919 C   0  0  0  0  0  0  0  0  0  0  0  0
    3.7289    2.6925   -2.2568 C   0  0  0  0  0  0  0  0  0  0  0  0
    3.0646    1.4234   -1.7029 C   0  0  0  0  0  0  0  0  0  0  0  0
    1.8150   -1.8917    0.9771 H   0  0  0  0  0  0  0  0  0  0  0  0
    3.6888   -0.0672    2.5933 H   0  0  0  0  0  0  0  0  0  0  0  0
    2.0961   -0.6648    3.1208 H   0  0  0  0  0  0  0  0  0  0  0  0
    2.8697   -3.0206    2.9729 H   0  0  0  0  0  0  0  0  0  0  0  0
    3.9697   -2.0965    4.0263 H   0  0  0  0  0  0  0  0  0  0  0  0
    3.4466   -1.5003   -0.9406 H   0  0  0  0  0  0  0  0  0  0  0  0
    4.4929   -0.5994    0.1692 H   0  0  0  0  0  0  0  0  0  0  0  0
    5.2598   -2.9716   -0.0342 H   0  0  0  0  0  0  0  0  0  0  0  0
    3.6575   -3.5515    0.4740 H   0  0  0  0  0  0  0  0  0  0  0  0
    5.6223   -1.8720    2.1724 H   0  0  0  0  0  0  0  0  0  0  0  0
    5.2367   -3.5908    2.4232 H   0  0  0  0  0  0  0  0  0  0  0  0
    1.6956    2.5030   -0.4613 H   0  0  0  0  0  0  0  0  0  0  0  0
    4.2963    1.4689    0.8389 H   0  0  0  0  0  0  0  0  0  0  0  0
    3.0601    2.4601    1.6547 H   0  0  0  0  0  0  0  0  0  0  0  0
    3.4259    4.3168    0.0296 H   0  0  0  0  0  0  0  0  0  0  0  0
    4.9678    3.8677    0.8004 H   0  0  0  0  0  0  0  0  0  0  0  0
    5.2273    4.1851   -1.6968 H   0  0  0  0  0  0  0  0  0  0  0  0
    5.6174    2.5213   -1.2004 H   0  0  0  0  0  0  0  0  0  0  0  0
    2.9433    3.4613   -2.4335 H   0  0  0  0  0  0  0  0  0  0  0  0
    4.1834    2.4786   -3.2469 H   0  0  0  0  0  0  0  0  0  0  0  0
    3.8180    0.6131   -1.6350 H   0  0  0  0  0  0  0  0  0  0  0  0
    2.2764    1.0727   -2.3963 H   0  0  0  0  0  0  0  0  0  0  0  0
  1  2  1  0  0  0  0
  2  3  1  0  0  0  0
  3 15  1  0  0  0  0
  3  4  1  0  0  0  0
  3 16  1  0  0  0  0
  4 18  1  0  0  0  0
  5 20  1  0  0  0  0
  5  6  1  0  0  0  0
  5  2  1  0  0  0  0
  6  7  1  0  0  0  0
  7 23  1  0  0  0  0
  7 24  1  0  0  0  0
  7  4  1  0  0  0  0
  8  1  1  0  0  0  0
  8  9  1  0  0  0  0
  9 26  1  0  0  0  0
  9 27  1  0  0  0  0
 10  9  1  0  0  0  0
 10 29  1  0  0  0  0
 11 31  1  0  0  0  0
 11 10  1  0  0  0  0
 12 13  1  0  0  0  0
 12 11  1  0  0  0  0
 13 34  1  0  0  0  0
 13  8  1  0  0  0  0
 14  2  1  0  0  0  0
 17  4  1  0  0  0  0
 19  5  1  0  0  0  0
 21  6  1  0  0  0  0
 22  6  1  0  0  0  0
 25  8  1  0  0  0  0
 28 10  1  0  0  0  0
 30 11  1  0  0  0  0
 32 12  1  0  0  0  0
 33 12  1  0  0  0  0
 35 13  1  0  0  0  0
M  END
