1
 OpenBabel05122313063D

 55 59  0  0  0  0  0  0  0  0999 V2000
   -0.3506    1.0887    0.4896 P   0  0  0  0  0  0  0  0  0  0  0  0
    3.9572    1.2366    0.5613 O   0  0  0  0  0  0  0  0  0  0  0  0
    2.4273    0.4780   -0.9913 N   0  0  0  0  0  0  0  0  0  0  0  0
    2.3220   -1.7936   -1.6825 N   0  0  0  0  0  0  0  0  0  0  0  0
    0.7173    2.2149   -0.5245 C   0  0  0  0  0  0  0  0  0  0  0  0
    0.2269    3.5143   -0.7778 C   0  0  0  0  0  0  0  0  0  0  0  0
    0.9558    4.4075   -1.5674 C   0  0  0  0  0  0  0  0  0  0  0  0
    2.1802    4.0179   -2.1251 C   0  0  0  0  0  0  0  0  0  0  0  0
    2.6877    2.7231   -1.9247 C   0  0  0  0  0  0  0  0  0  0  0  0
    1.9290    1.8225   -1.1374 C   0  0  0  0  0  0  0  0  0  0  0  0
    3.4914    0.2863   -0.0623 C   0  0  0  0  0  0  0  0  0  0  0  0
    3.9167   -1.1114    0.0564 C   0  0  0  0  0  0  0  0  0  0  0  0
    3.2729   -2.1072   -0.7302 C   0  0  0  0  0  0  0  0  0  0  0  0
    1.9522   -0.5474   -1.8168 C   0  0  0  0  0  0  0  0  0  0  0  0
    3.6423   -3.4629   -0.5420 C   0  0  0  0  0  0  0  0  0  0  0  0
   -1.1621    2.2622    1.6611 C   0  0  0  0  0  0  0  0  0  0  0  0
   -2.5432    2.1128    1.8984 C   0  0  0  0  0  0  0  0  0  0  0  0
   -3.2032    2.9610    2.8009 C   0  0  0  0  0  0  0  0  0  0  0  0
   -2.4928    3.9706    3.4667 C   0  0  0  0  0  0  0  0  0  0  0  0
   -1.1206    4.1406    3.2173 C   0  0  0  0  0  0  0  0  0  0  0  0
   -0.4575    3.2956    2.3169 C   0  0  0  0  0  0  0  0  0  0  0  0
    0.7766    0.0638    1.5399 C   0  0  0  0  0  0  0  0  0  0  0  0
    0.8050   -1.3326    1.3487 C   0  0  0  0  0  0  0  0  0  0  0  0
    1.5848   -2.1480    2.1792 C   0  0  0  0  0  0  0  0  0  0  0  0
    2.3555   -1.5770    3.2018 C   0  0  0  0  0  0  0  0  0  0  0  0
    2.3528   -0.1850    3.3823 C   0  0  0  0  0  0  0  0  0  0  0  0
    1.5669    0.6332    2.5588 C   0  0  0  0  0  0  0  0  0  0  0  0
    4.0087    2.3069   -2.5146 C   0  0  0  0  0  0  0  0  0  0  0  0
    4.9182   -1.4637    0.9841 C   0  0  0  0  0  0  0  0  0  0  0  0
    4.6230   -3.8013    0.3900 C   0  0  0  0  0  0  0  0  0  0  0  0
    5.2715   -2.8023    1.1524 C   0  0  0  0  0  0  0  0  0  0  0  0
    1.0311   -0.1661   -2.9342 C   0  0  0  0  0  0  0  0  0  0  0  0
   -0.7398    3.8213   -0.3589 H   0  0  0  0  0  0  0  0  0  0  0  0
    0.5582    5.4157   -1.7561 H   0  0  0  0  0  0  0  0  0  0  0  0
    2.7568    4.7259   -2.7404 H   0  0  0  0  0  0  0  0  0  0  0  0
    3.1348   -4.2218   -1.1548 H   0  0  0  0  0  0  0  0  0  0  0  0
   -3.0963    1.3288    1.3574 H   0  0  0  0  0  0  0  0  0  0  0  0
   -4.2821    2.8341    2.9762 H   0  0  0  0  0  0  0  0  0  0  0  0
   -3.0109    4.6377    4.1724 H   0  0  0  0  0  0  0  0  0  0  0  0
   -0.5624    4.9444    3.7209 H   0  0  0  0  0  0  0  0  0  0  0  0
    0.6065    3.4672    2.0970 H   0  0  0  0  0  0  0  0  0  0  0  0
    0.1993   -1.7779    0.5483 H   0  0  0  0  0  0  0  0  0  0  0  0
    1.5974   -3.2351    2.0138 H   0  0  0  0  0  0  0  0  0  0  0  0
    2.9729   -2.2169    3.8499 H   0  0  0  0  0  0  0  0  0  0  0  0
    2.9712    0.2739    4.1681 H   0  0  0  0  0  0  0  0  0  0  0  0
    1.5840    1.7192    2.7138 H   0  0  0  0  0  0  0  0  0  0  0  0
    4.3762    3.0601   -3.2364 H   0  0  0  0  0  0  0  0  0  0  0  0
    3.9446    1.3297   -3.0352 H   0  0  0  0  0  0  0  0  0  0  0  0
    4.7650    2.1943   -1.7103 H   0  0  0  0  0  0  0  0  0  0  0  0
    5.3837   -0.6570    1.5690 H   0  0  0  0  0  0  0  0  0  0  0  0
    4.9011   -4.8577    0.5279 H   0  0  0  0  0  0  0  0  0  0  0  0
    6.0486   -3.0834    1.8790 H   0  0  0  0  0  0  0  0  0  0  0  0
    1.5195    0.5713   -3.6042 H   0  0  0  0  0  0  0  0  0  0  0  0
    0.0900    0.3159   -2.5901 H   0  0  0  0  0  0  0  0  0  0  0  0
    0.7947   -1.0799   -3.5063 H   0  0  0  0  0  0  0  0  0  0  0  0
  1 22  1  0  0  0  0
  1 16  1  0  0  0  0
  3 11  1  0  0  0  0
  4 13  1  0  0  0  0
  5  1  1  0  0  0  0
  6  5  1  0  0  0  0
  6 33  1  0  0  0  0
  7  6  2  0  0  0  0
  8  9  2  0  0  0  0
  8  7  1  0  0  0  0
  9 10  1  0  0  0  0
 10  3  1  0  0  0  0
 10  5  2  0  0  0  0
 11 12  1  0  0  0  0
 11  2  2  0  0  0  0
 12 29  1  0  0  0  0
 13 15  1  0  0  0  0
 13 12  2  0  0  0  0
 14  4  2  0  0  0  0
 14  3  1  0  0  0  0
 15 30  2  0  0  0  0
 16 17  2  0  0  0  0
 16 21  1  0  0  0  0
 17 18  1  0  0  0  0
 18 38  1  0  0  0  0
 18 19  2  0  0  0  0
 19 39  1  0  0  0  0
 20 19  1  0  0  0  0
 20 40  1  0  0  0  0
 21 20  2  0  0  0  0
 22 27  1  0  0  0  0
 23 22  2  0  0  0  0
 23 24  1  0  0  0  0
 24 25  2  0  0  0  0
 25 26  1  0  0  0  0
 25 44  1  0  0  0  0
 26 45  1  0  0  0  0
 27 46  1  0  0  0  0
 27 26  2  0  0  0  0
 28  9  1  0  0  0  0
 28 49  1  0  0  0  0
 29 31  2  0  0  0  0
 29 50  1  0  0  0  0
 30 51  1  0  0  0  0
 30 31  1  0  0  0  0
 31 52  1  0  0  0  0
 32 54  1  0  0  0  0
 32 14  1  0  0  0  0
 34  7  1  0  0  0  0
 35  8  1  0  0  0  0
 36 15  1  0  0  0  0
 37 17  1  0  0  0  0
 41 21  1  0  0  0  0
 42 23  1  0  0  0  0
 43 24  1  0  0  0  0
 47 28  1  0  0  0  0
 48 28  1  0  0  0  0
 53 32  1  0  0  0  0
 55 32  1  0  0  0  0
M  END
