1
 OpenBabel05122313063D

 61 63  0  0  0  0  0  0  0  0999 V2000
   -0.0363    0.0622   -0.2121 P   0  0  0  0  0  0  0  0  0  0  0  0
   -0.7544    1.7612   -0.4810 C   0  0  0  0  0  0  0  0  0  0  0  0
   -1.8409    2.3019    0.2684 C   0  0  0  0  0  0  0  0  0  0  0  0
   -2.3345    3.5690   -0.1092 C   0  0  0  0  0  0  0  0  0  0  0  0
   -1.8260    4.2796   -1.2023 C   0  0  0  0  0  0  0  0  0  0  0  0
   -0.7957    3.7179   -1.9664 C   0  0  0  0  0  0  0  0  0  0  0  0
   -0.2707    2.4727   -1.6030 C   0  0  0  0  0  0  0  0  0  0  0  0
   -2.5580    1.5663    1.3959 C   0  0  0  0  0  0  0  0  0  0  0  0
   -2.7086    2.4038    2.6767 C   0  0  0  0  0  0  0  0  0  0  0  0
   -3.9318    1.0720    0.9086 C   0  0  0  0  0  0  0  0  0  0  0  0
    0.6897    0.0297    1.4995 C   0  0  0  0  0  0  0  0  0  0  0  0
    1.4111   -1.1043    1.9621 C   0  0  0  0  0  0  0  0  0  0  0  0
    1.9200   -1.0704    3.2783 C   0  0  0  0  0  0  0  0  0  0  0  0
    1.7428    0.0354    4.1172 C   0  0  0  0  0  0  0  0  0  0  0  0
    1.0517    1.1593    3.6424 C   0  0  0  0  0  0  0  0  0  0  0  0
    0.5344    1.1495    2.3426 C   0  0  0  0  0  0  0  0  0  0  0  0
    1.6982   -2.3229    1.0972 C   0  0  0  0  0  0  0  0  0  0  0  0
    1.2110   -3.6290    1.7436 C   0  0  0  0  0  0  0  0  0  0  0  0
    3.1856   -2.4000    0.7133 C   0  0  0  0  0  0  0  0  0  0  0  0
    1.4860    0.0421   -1.2979 C   0  0  0  0  0  0  0  0  0  0  0  0
    2.6269    0.8763   -1.1008 C   0  0  0  0  0  0  0  0  0  0  0  0
    3.7471    0.6578   -1.9313 C   0  0  0  0  0  0  0  0  0  0  0  0
    3.7581   -0.3136   -2.9396 C   0  0  0  0  0  0  0  0  0  0  0  0
    2.6159   -1.0944   -3.1570 C   0  0  0  0  0  0  0  0  0  0  0  0
    1.4964   -0.9106   -2.3374 C   0  0  0  0  0  0  0  0  0  0  0  0
    2.7146    2.0004   -0.0727 C   0  0  0  0  0  0  0  0  0  0  0  0
    3.0647    3.3501   -0.7234 C   0  0  0  0  0  0  0  0  0  0  0  0
    3.7038    1.6595    1.0548 C   0  0  0  0  0  0  0  0  0  0  0  0
   -3.1632    4.0035    0.4702 H   0  0  0  0  0  0  0  0  0  0  0  0
   -2.2464    5.2622   -1.4647 H   0  0  0  0  0  0  0  0  0  0  0  0
   -0.3956    4.2428   -2.8468 H   0  0  0  0  0  0  0  0  0  0  0  0
    0.5323    2.0370   -2.2125 H   0  0  0  0  0  0  0  0  0  0  0  0
   -1.9601    0.6747    1.6589 H   0  0  0  0  0  0  0  0  0  0  0  0
   -1.7375    2.7925    3.0417 H   0  0  0  0  0  0  0  0  0  0  0  0
   -3.1486    1.7837    3.4832 H   0  0  0  0  0  0  0  0  0  0  0  0
   -3.3827    3.2715    2.5248 H   0  0  0  0  0  0  0  0  0  0  0  0
   -4.4195    0.4530    1.6890 H   0  0  0  0  0  0  0  0  0  0  0  0
   -3.8230    0.4526   -0.0011 H   0  0  0  0  0  0  0  0  0  0  0  0
   -4.6020    1.9246    0.6754 H   0  0  0  0  0  0  0  0  0  0  0  0
    2.4790   -1.9428    3.6496 H   0  0  0  0  0  0  0  0  0  0  0  0
    2.1532    0.0236    5.1383 H   0  0  0  0  0  0  0  0  0  0  0  0
    0.9155    2.0468    4.2785 H   0  0  0  0  0  0  0  0  0  0  0  0
    0.0210    2.0434    1.9643 H   0  0  0  0  0  0  0  0  0  0  0  0
    1.1285   -2.1975    0.1580 H   0  0  0  0  0  0  0  0  0  0  0  0
    1.3133   -4.4681    1.0269 H   0  0  0  0  0  0  0  0  0  0  0  0
    0.1472   -3.5608    2.0426 H   0  0  0  0  0  0  0  0  0  0  0  0
    1.8020   -3.8846    2.6473 H   0  0  0  0  0  0  0  0  0  0  0  0
    3.3626   -3.2665    0.0442 H   0  0  0  0  0  0  0  0  0  0  0  0
    3.8287   -2.5255    1.6094 H   0  0  0  0  0  0  0  0  0  0  0  0
    3.5146   -1.4867    0.1800 H   0  0  0  0  0  0  0  0  0  0  0  0
    4.6421    1.2810   -1.7822 H   0  0  0  0  0  0  0  0  0  0  0  0
    4.6562   -0.4508   -3.5609 H   0  0  0  0  0  0  0  0  0  0  0  0
    2.5917   -1.8510   -3.9552 H   0  0  0  0  0  0  0  0  0  0  0  0
    0.6035   -1.5299   -2.4936 H   0  0  0  0  0  0  0  0  0  0  0  0
    1.7158    2.1203    0.3828 H   0  0  0  0  0  0  0  0  0  0  0  0
    3.0361    4.1560    0.0378 H   0  0  0  0  0  0  0  0  0  0  0  0
    2.3476    3.6161   -1.5244 H   0  0  0  0  0  0  0  0  0  0  0  0
    4.0832    3.3473   -1.1628 H   0  0  0  0  0  0  0  0  0  0  0  0
    3.7153    2.4658    1.8158 H   0  0  0  0  0  0  0  0  0  0  0  0
    4.7358    1.5505    0.6613 H   0  0  0  0  0  0  0  0  0  0  0  0
    3.4312    0.7162    1.5649 H   0  0  0  0  0  0  0  0  0  0  0  0
  1 11  1  0  0  0  0
  2  1  1  0  0  0  0
  2  3  1  0  0  0  0
  3  8  1  0  0  0  0
  4  3  2  0  0  0  0
  4 29  1  0  0  0  0
  5  4  1  0  0  0  0
  6  7  1  0  0  0  0
  6  5  2  0  0  0  0
  7  2  2  0  0  0  0
  8 33  1  0  0  0  0
  8  9  1  0  0  0  0
  9 34  1  0  0  0  0
  9 35  1  0  0  0  0
 10  8  1  0  0  0  0
 10 37  1  0  0  0  0
 11 12  2  0  0  0  0
 11 16  1  0  0  0  0
 12 13  1  0  0  0  0
 13 40  1  0  0  0  0
 13 14  2  0  0  0  0
 14 41  1  0  0  0  0
 15 14  1  0  0  0  0
 15 42  1  0  0  0  0
 16 15  2  0  0  0  0
 17 18  1  0  0  0  0
 17 12  1  0  0  0  0
 18 46  1  0  0  0  0
 18 47  1  0  0  0  0
 19 17  1  0  0  0  0
 19 49  1  0  0  0  0
 20 21  1  0  0  0  0
 20  1  1  0  0  0  0
 21 26  1  0  0  0  0
 22 51  1  0  0  0  0
 22 21  2  0  0  0  0
 23 22  1  0  0  0  0
 24 23  2  0  0  0  0
 24 25  1  0  0  0  0
 25 20  2  0  0  0  0
 26 55  1  0  0  0  0
 26 28  1  0  0  0  0
 27 26  1  0  0  0  0
 27 56  1  0  0  0  0
 28 61  1  0  0  0  0
 28 59  1  0  0  0  0
 30  5  1  0  0  0  0
 31  6  1  0  0  0  0
 32  7  1  0  0  0  0
 36  9  1  0  0  0  0
 38 10  1  0  0  0  0
 39 10  1  0  0  0  0
 43 16  1  0  0  0  0
 44 17  1  0  0  0  0
 45 18  1  0  0  0  0
 48 19  1  0  0  0  0
 50 19  1  0  0  0  0
 52 23  1  0  0  0  0
 53 24  1  0  0  0  0
 54 25  1  0  0  0  0
 57 27  1  0  0  0  0
 58 27  1  0  0  0  0
 60 28  1  0  0  0  0
M  END
