1
 OpenBabel05122313063D

 50 51  0  0  1  0  0  0  0  0999 V2000
    0.2753   -0.1303    0.3904 P   0  0  0  0  0  2  0  0  0  0  0  0
    1.3278    1.1747    0.1289 C   0  0  2  0  0  3  0  0  0  0  0  0
    2.6594    1.7097    0.0382 C   0  0  0  0  0  0  0  0  0  0  0  0
    1.6285    2.5769    0.0351 C   0  0  0  0  0  0  0  0  0  0  0  0
    4.1114    1.3658    0.0411 C   0  0  0  0  0  0  0  0  0  0  0  0
    4.9662    2.6446    0.0625 C   0  0  0  0  0  0  0  0  0  0  0  0
    4.3789    0.5066    1.2996 C   0  0  0  0  0  0  0  0  0  0  0  0
    4.4194    0.5293   -1.2224 C   0  0  0  0  0  0  0  0  0  0  0  0
    1.0613    3.9568    0.0088 C   0  0  0  0  0  0  0  0  0  0  0  0
   -0.1194    3.9781   -0.9857 C   0  0  0  0  0  0  0  0  0  0  0  0
    2.1420    4.9695   -0.4083 C   0  0  0  0  0  0  0  0  0  0  0  0
    0.5515    4.2723    1.4362 C   0  0  0  0  0  0  0  0  0  0  0  0
    1.3409   -1.6136    0.1620 C   0  0  0  0  0  0  0  0  0  0  0  0
    1.7412   -2.3590    1.3026 C   0  0  0  0  0  0  0  0  0  0  0  0
    2.5457   -3.4988    1.1193 C   0  0  0  0  0  0  0  0  0  0  0  0
    2.9511   -3.9269   -0.1575 C   0  0  0  0  0  0  0  0  0  0  0  0
    2.5272   -3.1801   -1.2716 C   0  0  0  0  0  0  0  0  0  0  0  0
    1.7212   -2.0335   -1.1421 C   0  0  0  0  0  0  0  0  0  0  0  0
    1.3297   -1.9434    2.6942 C   0  0  0  0  0  0  0  0  0  0  0  0
    3.7821   -5.1728   -0.3312 C   0  0  0  0  0  0  0  0  0  0  0  0
    1.2868   -1.2850   -2.3780 C   0  0  0  0  0  0  0  0  0  0  0  0
    4.7733    3.2717   -0.8303 H   0  0  0  0  0  0  0  0  0  0  0  0
    4.7540    3.2535    0.9642 H   0  0  0  0  0  0  0  0  0  0  0  0
    6.0433    2.3833    0.0724 H   0  0  0  0  0  0  0  0  0  0  0  0
    4.1450    1.0669    2.2270 H   0  0  0  0  0  0  0  0  0  0  0  0
    3.7701   -0.4188    1.2834 H   0  0  0  0  0  0  0  0  0  0  0  0
    5.4491    0.2188    1.3311 H   0  0  0  0  0  0  0  0  0  0  0  0
    3.8348   -0.4108   -1.2289 H   0  0  0  0  0  0  0  0  0  0  0  0
    4.1927    1.0963   -2.1473 H   0  0  0  0  0  0  0  0  0  0  0  0
    5.4963    0.2656   -1.2344 H   0  0  0  0  0  0  0  0  0  0  0  0
    0.2076    3.7136   -2.0108 H   0  0  0  0  0  0  0  0  0  0  0  0
   -0.9067    3.2621   -0.6847 H   0  0  0  0  0  0  0  0  0  0  0  0
   -0.5667    4.9918   -1.0135 H   0  0  0  0  0  0  0  0  0  0  0  0
    2.9921    4.9673    0.3021 H   0  0  0  0  0  0  0  0  0  0  0  0
    2.5355    4.7416   -1.4194 H   0  0  0  0  0  0  0  0  0  0  0  0
    1.7158    5.9923   -0.4296 H   0  0  0  0  0  0  0  0  0  0  0  0
   -0.2210    3.5491    1.7605 H   0  0  0  0  0  0  0  0  0  0  0  0
    1.3821    4.2585    2.1698 H   0  0  0  0  0  0  0  0  0  0  0  0
    0.0960    5.2832    1.4470 H   0  0  0  0  0  0  0  0  0  0  0  0
    2.8653   -4.0709    2.0057 H   0  0  0  0  0  0  0  0  0  0  0  0
    2.8290   -3.5031   -2.2814 H   0  0  0  0  0  0  0  0  0  0  0  0
    1.6747   -0.9155    2.9296 H   0  0  0  0  0  0  0  0  0  0  0  0
    0.2258   -1.9329    2.8057 H   0  0  0  0  0  0  0  0  0  0  0  0
    1.7417   -2.6324    3.4565 H   0  0  0  0  0  0  0  0  0  0  0  0
    4.4099   -5.3739    0.5590 H   0  0  0  0  0  0  0  0  0  0  0  0
    3.1328   -6.0624   -0.4807 H   0  0  0  0  0  0  0  0  0  0  0  0
    4.4445   -5.1029   -1.2166 H   0  0  0  0  0  0  0  0  0  0  0  0
    0.1819   -1.2496   -2.4588 H   0  0  0  0  0  0  0  0  0  0  0  0
    1.6230   -0.2286   -2.3631 H   0  0  0  0  0  0  0  0  0  0  0  0
    1.6833   -1.7638   -3.2936 H   0  0  0  0  0  0  0  0  0  0  0  0
  2  1  1  1  0  0  0
  3  5  1  0  0  0  0
  3  2  1  0  0  0  0
  4  3  2  0  0  0  0
  4  2  1  0  0  0  0
  5  6  1  0  0  0  0
  5  7  1  0  0  0  0
  6 24  1  0  0  0  0
  6 23  1  0  0  0  0
  7 27  1  0  0  0  0
  7 25  1  0  0  0  0
  8  5  1  0  0  0  0
  9  4  1  0  0  0  0
  9 12  1  0  0  0  0
 10 32  1  0  0  0  0
 10  9  1  0  0  0  0
 11  9  1  0  0  0  0
 11 34  1  0  0  0  0
 12 39  1  0  0  0  0
 12 37  1  0  0  0  0
 12 38  1  0  0  0  0
 13  1  1  0  0  0  0
 13 14  1  0  0  0  0
 14 19  1  0  0  0  0
 15 14  2  0  0  0  0
 15 40  1  0  0  0  0
 16 15  1  0  0  0  0
 17 18  1  0  0  0  0
 17 16  2  0  0  0  0
 18 13  2  0  0  0  0
 19 43  1  0  0  0  0
 19 42  1  0  0  0  0
 19 44  1  0  0  0  0
 20 16  1  0  0  0  0
 20 45  1  0  0  0  0
 21 49  1  0  0  0  0
 21 18  1  0  0  0  0
 22  6  1  0  0  0  0
 26  7  1  0  0  0  0
 28  8  1  0  0  0  0
 29  8  1  0  0  0  0
 30  8  1  0  0  0  0
 31 10  1  0  0  0  0
 33 10  1  0  0  0  0
 35 11  1  0  0  0  0
 36 11  1  0  0  0  0
 41 17  1  0  0  0  0
 46 20  1  0  0  0  0
 47 20  1  0  0  0  0
 48 21  1  0  0  0  0
 50 21  1  0  0  0  0
M  END
