1
 OpenBabel05122313063D

 47 51  0  0  1  0  0  0  0  0999 V2000
   -0.8800    0.6207   -0.5089 P   0  0  1  0  0  0  0  0  0  0  0  0
   -0.8629    2.4491   -0.6734 C   0  0  0  0  0  0  0  0  0  0  0  0
    0.3539    3.1365   -0.8845 C   0  0  0  0  0  0  0  0  0  0  0  0
    1.3043    2.5841   -0.9109 H   0  0  0  0  0  0  0  0  0  0  0  0
    0.3397    4.5268   -1.0615 C   0  0  0  0  0  0  0  0  0  0  0  0
    1.2879    5.0610   -1.2249 H   0  0  0  0  0  0  0  0  0  0  0  0
   -0.8729    5.2359   -1.0300 C   0  0  0  0  0  0  0  0  0  0  0  0
   -0.8751    6.3282   -1.1648 H   0  0  0  0  0  0  0  0  0  0  0  0
   -2.0809    4.5525   -0.8241 C   0  0  0  0  0  0  0  0  0  0  0  0
   -3.0330    5.1031   -0.7972 H   0  0  0  0  0  0  0  0  0  0  0  0
   -2.0781    3.1610   -0.6457 C   0  0  0  0  0  0  0  0  0  0  0  0
   -3.0250    2.6257   -0.4857 H   0  0  0  0  0  0  0  0  0  0  0  0
   -0.2342   -0.0071   -2.1218 C   0  0  2  0  0  0  0  0  0  0  0  0
   -0.9574   -0.2433   -2.9239 H   0  0  0  0  0  0  0  0  0  0  0  0
    1.0028   -0.8118   -1.9427 C   0  0  2  0  0  0  0  0  0  0  0  0
    1.2607   -1.9626   -2.8841 C   0  0  0  0  0  0  0  0  0  0  0  0
    0.8655   -1.7045   -3.8845 H   0  0  0  0  0  0  0  0  0  0  0  0
    0.7380   -2.8716   -2.5271 H   0  0  0  0  0  0  0  0  0  0  0  0
    2.3346   -2.2038   -2.9729 H   0  0  0  0  0  0  0  0  0  0  0  0
    0.7300    0.2324    0.2835 C   0  0  0  0  0  0  0  0  0  0  0  0
    1.5349   -0.8190   -0.4835 C   0  0  1  0  0  0  0  0  0  0  0  0
    1.2977   -2.1971    0.1852 C   0  0  0  0  0  0  0  0  0  0  0  0
    1.8899   -2.9787   -0.3212 H   0  0  0  0  0  0  0  0  0  0  0  0
    0.2252   -2.4618    0.1436 H   0  0  0  0  0  0  0  0  0  0  0  0
    1.5990   -2.1577    1.2493 H   0  0  0  0  0  0  0  0  0  0  0  0
    3.0321   -0.4423   -0.4002 C   0  0  2  0  0  0  0  0  0  0  0  0
    4.0625   -1.3408   -1.0754 C   0  0  0  0  0  0  0  0  0  0  0  0
    6.2958   -1.4481   -1.7931 C   0  0  0  0  0  0  0  0  0  0  0  0
    6.6351   -2.1074   -0.9687 H   0  0  0  0  0  0  0  0  0  0  0  0
    7.0886   -0.7313   -2.0689 H   0  0  0  0  0  0  0  0  0  0  0  0
    6.0114   -2.0740   -2.6610 H   0  0  0  0  0  0  0  0  0  0  0  0
    3.5190    0.2439    0.8407 C   0  0  2  0  0  0  0  0  0  0  0  0
    4.9338    0.0223    1.3572 C   0  0  0  0  0  0  0  0  0  0  0  0
    6.9032    1.1074    2.0205 C   0  0  0  0  0  0  0  0  0  0  0  0
    6.8789    0.6626    3.0350 H   0  0  0  0  0  0  0  0  0  0  0  0
    7.2834    2.1429    2.0585 H   0  0  0  0  0  0  0  0  0  0  0  0
    7.5494    0.4790    1.3752 H   0  0  0  0  0  0  0  0  0  0  0  0
    2.5148    0.5946    1.9364 C   0  0  0  0  0  0  0  0  0  0  0  0
    1.1440    0.8017    1.4403 C   0  0  0  0  0  0  0  0  0  0  0  0
    0.4956    1.4731    2.0260 H   0  0  0  0  0  0  0  0  0  0  0  0
    1.0326    0.5105   -2.5260 O   0  0  0  0  0  0  0  0  0  0  0  0
    3.9099   -2.5267   -1.3033 O   0  0  0  0  0  0  0  0  0  0  0  0
    5.1844   -0.6544   -1.3497 O   0  0  0  0  0  0  0  0  0  0  0  0
    3.3501    0.9454   -0.3954 O   0  0  0  0  0  0  0  0  0  0  0  0
    5.3834   -1.0684    1.6484 O   0  0  0  0  0  0  0  0  0  0  0  0
    5.5770    1.1914    1.4780 O   0  0  0  0  0  0  0  0  0  0  0  0
    2.8813    0.7518    3.0938 O   0  0  0  0  0  0  0  0  0  0  0  0
  1  2  1  6  0  0  0
  1 20  1  0  0  0  0
  2 11  1  0  0  0  0
  3  2  2  0  0  0  0
  4  3  1  0  0  0  0
  5  7  2  0  0  0  0
  5  3  1  0  0  0  0
  6  5  1  0  0  0  0
  7  9  1  0  0  0  0
  8  7  1  0  0  0  0
  9 10  1  0  0  0  0
  9 11  2  0  0  0  0
 11 12  1  0  0  0  0
 13 14  1  6  0  0  0
 13 15  1  0  0  0  0
 13  1  1  0  0  0  0
 15 16  1  6  0  0  0
 15 21  1  0  0  0  0
 16 18  1  0  0  0  0
 17 16  1  0  0  0  0
 19 16  1  0  0  0  0
 20 39  2  0  0  0  0
 21 26  1  0  0  0  0
 21 22  1  1  0  0  0
 21 20  1  0  0  0  0
 22 25  1  0  0  0  0
 23 22  1  0  0  0  0
 24 22  1  0  0  0  0
 26 27  1  6  0  0  0
 26 44  1  0  0  0  0
 26 32  1  0  0  0  0
 28 43  1  0  0  0  0
 28 29  1  0  0  0  0
 30 28  1  0  0  0  0
 31 28  1  0  0  0  0
 32 33  1  1  0  0  0
 32 38  1  0  0  0  0
 33 46  1  0  0  0  0
 33 45  2  0  0  0  0
 34 36  1  0  0  0  0
 34 35  1  0  0  0  0
 37 34  1  0  0  0  0
 38 47  2  0  0  0  0
 39 38  1  0  0  0  0
 39 40  1  0  0  0  0
 41 13  1  0  0  0  0
 41 15  1  0  0  0  0
 42 27  2  0  0  0  0
 43 27  1  0  0  0  0
 44 32  1  0  0  0  0
 46 34  1  0  0  0  0
M  END
