30
 OpenBabel05122313063D

 30 31  0  0  0  0  0  0  0  0999 V2000
   -1.7621    1.3403    0.9614 C   0  0  0  0  0  0  0  0  0  0  0  0
   -1.8711    1.0860    2.3829 C   0  0  0  0  0  0  0  0  0  0  0  0
   -2.2734    1.9129    2.9935 H   0  0  0  0  0  0  0  0  0  0  0  0
   -1.5400   -0.0700    3.0083 C   0  0  0  0  0  0  0  0  0  0  0  0
   -1.1345   -0.9353    2.4609 H   0  0  0  0  0  0  0  0  0  0  0  0
   -1.6597   -0.1803    4.0959 H   0  0  0  0  0  0  0  0  0  0  0  0
   -2.1461    2.4782    0.2742 C   0  0  0  0  0  0  0  0  0  0  0  0
   -2.6971    3.7256    0.8982 C   0  0  0  0  0  0  0  0  0  0  0  0
   -2.7794    3.6512    1.9973 H   0  0  0  0  0  0  0  0  0  0  0  0
   -3.7044    3.9641    0.4956 H   0  0  0  0  0  0  0  0  0  0  0  0
   -2.0538    4.6006    0.6653 H   0  0  0  0  0  0  0  0  0  0  0  0
   -1.9636    2.3968   -1.1954 C   0  0  0  0  0  0  0  0  0  0  0  0
   -2.2968    3.5555   -2.0891 C   0  0  0  0  0  0  0  0  0  0  0  0
   -2.1266    3.3066   -3.1529 H   0  0  0  0  0  0  0  0  0  0  0  0
   -1.6737    4.4407   -1.8405 H   0  0  0  0  0  0  0  0  0  0  0  0
   -3.3547    3.8699   -1.9697 H   0  0  0  0  0  0  0  0  0  0  0  0
   -1.4528    1.2054   -1.6289 C   0  0  0  0  0  0  0  0  0  0  0  0
   -1.2168    0.9533   -2.6716 H   0  0  0  0  0  0  0  0  0  0  0  0
   -2.1336   -1.2931   -0.2784 C   0  0  0  0  0  0  0  0  0  0  0  0
   -3.5220   -1.1033   -0.1154 C   0  0  0  0  0  0  0  0  0  0  0  0
   -3.9165   -0.0913    0.0638 H   0  0  0  0  0  0  0  0  0  0  0  0
   -4.3897   -2.2012   -0.1752 C   0  0  0  0  0  0  0  0  0  0  0  0
   -5.4718   -2.0498   -0.0432 H   0  0  0  0  0  0  0  0  0  0  0  0
   -3.8808   -3.4925   -0.3989 C   0  0  0  0  0  0  0  0  0  0  0  0
   -4.5648   -4.3537   -0.4417 H   0  0  0  0  0  0  0  0  0  0  0  0
   -2.5011   -3.6828   -0.5637 C   0  0  0  0  0  0  0  0  0  0  0  0
   -2.0972   -4.6915   -0.7375 H   0  0  0  0  0  0  0  0  0  0  0  0
   -1.6264   -2.5861   -0.5021 C   0  0  0  0  0  0  0  0  0  0  0  0
   -0.5446   -2.7357   -0.6268 H   0  0  0  0  0  0  0  0  0  0  0  0
   -1.0009    0.1580   -0.2218 P   0  0  2  0  0  0  0  0  0  0  0  0
  1  2  1  0  0  0  0
  2  3  1  0  0  0  0
  2  4  2  0  0  0  0
  4  6  1  0  0  0  0
  5  4  1  0  0  0  0
  7  8  1  0  0  0  0
  7  1  2  0  0  0  0
  8  9  1  0  0  0  0
 10  8  1  0  0  0  0
 11  8  1  0  0  0  0
 12  7  1  0  0  0  0
 13 16  1  0  0  0  0
 13 15  1  0  0  0  0
 13 12  1  0  0  0  0
 14 13  1  0  0  0  0
 17 12  2  0  0  0  0
 17 30  1  0  0  0  0
 18 17  1  0  0  0  0
 19 20  1  0  0  0  0
 20 21  1  0  0  0  0
 22 20  2  0  0  0  0
 22 23  1  0  0  0  0
 24 22  1  0  0  0  0
 25 24  1  0  0  0  0
 26 28  1  0  0  0  0
 26 24  2  0  0  0  0
 27 26  1  0  0  0  0
 28 19  2  0  0  0  0
 29 28  1  0  0  0  0
 30 19  1  6  0  0  0
 30  1  1  0  0  0  0
M  END
