46
 OpenBabel05122313063D

 46 48  0  0  1  0  0  0  0  0999 V2000
    0.4511    2.3636   -0.5562 C   0  0  0  0  0  0  0  0  0  0  0  0
    1.5595    3.2082   -0.3698 C   0  0  0  0  0  0  0  0  0  0  0  0
    2.5472    2.7757   -0.1555 H   0  0  0  0  0  0  0  0  0  0  0  0
    1.4049    4.6016   -0.4581 C   0  0  0  0  0  0  0  0  0  0  0  0
    2.2761    5.2571   -0.3093 H   0  0  0  0  0  0  0  0  0  0  0  0
    0.1448    5.1520   -0.7331 C   0  0  0  0  0  0  0  0  0  0  0  0
    0.0237    6.2439   -0.8006 H   0  0  0  0  0  0  0  0  0  0  0  0
   -0.9645    4.3090   -0.9248 C   0  0  0  0  0  0  0  0  0  0  0  0
   -1.9539    4.7383   -1.1442 H   0  0  0  0  0  0  0  0  0  0  0  0
   -0.8159    2.9190   -0.8395 C   0  0  0  0  0  0  0  0  0  0  0  0
   -1.6871    2.2625   -0.9957 H   0  0  0  0  0  0  0  0  0  0  0  0
   -0.1727   -0.0803   -1.9630 C   0  0  0  0  0  0  0  0  0  0  0  0
    0.3104    0.0067   -2.9477 H   0  0  0  0  0  0  0  0  0  0  0  0
   -1.3457   -0.7309   -1.7657 C   0  0  0  0  0  0  0  0  0  0  0  0
   -2.0920   -1.3949   -2.8892 C   0  0  0  0  0  0  0  0  0  0  0  0
   -2.9385   -0.7611   -3.2229 H   0  0  0  0  0  0  0  0  0  0  0  0
   -2.5108   -2.3745   -2.5875 H   0  0  0  0  0  0  0  0  0  0  0  0
   -1.4281   -1.5503   -3.7603 H   0  0  0  0  0  0  0  0  0  0  0  0
   -1.7700   -0.8817   -0.2907 C   0  0  1  0  0  0  0  0  0  0  0  0
   -1.5772   -2.3784    0.1060 C   0  0  0  0  0  0  0  0  0  0  0  0
   -0.5586   -2.7145   -0.1704 H   0  0  0  0  0  0  0  0  0  0  0  0
   -2.3212   -3.0184   -0.4071 H   0  0  0  0  0  0  0  0  0  0  0  0
   -1.7038   -2.5077    1.1974 H   0  0  0  0  0  0  0  0  0  0  0  0
   -0.8214   -0.0013    0.5256 C   0  0  0  0  0  0  0  0  0  0  0  0
   -1.0967    0.3622    1.7905 C   0  0  0  0  0  0  0  0  0  0  0  0
   -0.3860    0.9740    2.3699 H   0  0  0  0  0  0  0  0  0  0  0  0
   -2.4156    0.0089    2.4083 C   0  0  0  0  0  0  0  0  0  0  0  0
   -2.7379    0.7669    3.1496 H   0  0  0  0  0  0  0  0  0  0  0  0
   -2.3257   -0.9330    3.0022 H   0  0  0  0  0  0  0  0  0  0  0  0
   -3.5023   -0.1483    1.3690 C   0  0  0  0  0  0  0  0  0  0  0  0
   -4.8747    0.1550    1.8706 C   0  0  0  0  0  0  0  0  0  0  0  0
   -7.1723    0.2954    1.3584 C   0  0  0  0  0  0  0  0  0  0  0  0
   -7.4805   -0.3508    2.2048 H   0  0  0  0  0  0  0  0  0  0  0  0
   -7.8206    0.1202    0.4816 H   0  0  0  0  0  0  0  0  0  0  0  0
   -7.2410    1.3522    1.6854 H   0  0  0  0  0  0  0  0  0  0  0  0
   -3.2098   -0.4916    0.0837 C   0  0  0  0  0  0  0  0  0  0  0  0
   -4.2329   -0.4816   -1.0124 C   0  0  0  0  0  0  0  0  0  0  0  0
   -5.7945   -1.7680   -2.2122 C   0  0  0  0  0  0  0  0  0  0  0  0
   -6.6019   -1.0329   -2.0224 H   0  0  0  0  0  0  0  0  0  0  0  0
   -6.1917   -2.7978   -2.1829 H   0  0  0  0  0  0  0  0  0  0  0  0
   -5.3523   -1.5533   -3.2063 H   0  0  0  0  0  0  0  0  0  0  0  0
   -5.1140    0.5231    3.0101 O   0  0  0  0  0  0  0  0  0  0  0  0
   -5.8419   -0.0211    0.9367 O   0  0  0  0  0  0  0  0  0  0  0  0
   -4.4480    0.4866   -1.7183 O   0  0  0  0  0  0  0  0  0  0  0  0
   -4.7994   -1.6963   -1.1823 O   0  0  0  0  0  0  0  0  0  0  0  0
    0.6277    0.5284   -0.4526 P   0  0  2  0  0  0  0  0  0  0  0  0
  1  2  1  0  0  0  0
  2  3  1  0  0  0  0
  4  2  2  0  0  0  0
  4  5  1  0  0  0  0
  6  4  1  0  0  0  0
  7  6  1  0  0  0  0
  8 10  1  0  0  0  0
  8  6  2  0  0  0  0
  9  8  1  0  0  0  0
 10  1  2  0  0  0  0
 11 10  1  0  0  0  0
 12 14  2  0  0  0  0
 12 46  1  0  0  0  0
 13 12  1  0  0  0  0
 14 19  1  0  0  0  0
 15 17  1  0  0  0  0
 15 14  1  0  0  0  0
 16 15  1  0  0  0  0
 18 15  1  0  0  0  0
 19 36  1  0  0  0  0
 19 20  1  1  0  0  0
 19 24  1  0  0  0  0
 20 23  1  0  0  0  0
 21 20  1  0  0  0  0
 22 20  1  0  0  0  0
 24 25  2  0  0  0  0
 25 26  1  0  0  0  0
 25 27  1  0  0  0  0
 27 29  1  0  0  0  0
 27 28  1  0  0  0  0
 30 31  1  0  0  0  0
 30 27  1  0  0  0  0
 31 42  2  0  0  0  0
 32 35  1  0  0  0  0
 32 33  1  0  0  0  0
 34 32  1  0  0  0  0
 36 30  2  0  0  0  0
 37 36  1  0  0  0  0
 38 40  1  0  0  0  0
 38 39  1  0  0  0  0
 38 45  1  0  0  0  0
 41 38  1  0  0  0  0
 43 32  1  0  0  0  0
 43 31  1  0  0  0  0
 44 37  2  0  0  0  0
 45 37  1  0  0  0  0
 46  1  1  6  0  0  0
 46 24  1  0  0  0  0
M  END
