2
 OpenBabel05122313063D

 23 23  0  0  0  0  0  0  0  0999 V2000
   -0.5198    1.7499    0.7792 O   0  0  0  0  0  0  0  0  0  0  0  0
    2.1192    0.4217    0.7198 P   0  0  1  0  0  0  0  0  0  0  0  0
    3.5204    0.4036   -0.4197 C   0  0  0  0  0  0  0  0  0  0  0  0
    4.3045    1.5489   -0.6749 C   0  0  0  0  0  0  0  0  0  0  0  0
    4.0469    2.5093   -0.2059 H   0  0  0  0  0  0  0  0  0  0  0  0
    5.4005    1.4519   -1.5428 C   0  0  0  0  0  0  0  0  0  0  0  0
    6.0122    2.3426   -1.7497 H   0  0  0  0  0  0  0  0  0  0  0  0
    5.7162    0.2246   -2.1498 C   0  0  0  0  0  0  0  0  0  0  0  0
    6.5776    0.1564   -2.8309 H   0  0  0  0  0  0  0  0  0  0  0  0
    4.9339   -0.9139   -1.8965 C   0  0  0  0  0  0  0  0  0  0  0  0
    5.1787   -1.8723   -2.3773 H   0  0  0  0  0  0  0  0  0  0  0  0
    3.8322   -0.8288   -1.0344 C   0  0  0  0  0  0  0  0  0  0  0  0
    3.2127   -1.7195   -0.8441 H   0  0  0  0  0  0  0  0  0  0  0  0
    2.6810    0.0527    2.2158 O   0  0  0  0  0  0  0  0  0  0  0  0
    3.9456    0.5446    2.7044 C   0  0  0  0  0  0  0  0  0  0  0  0
    4.0676    0.1289    3.7209 H   0  0  0  0  0  0  0  0  0  0  0  0
    3.9472    1.6525    2.7537 H   0  0  0  0  0  0  0  0  0  0  0  0
    4.7799    0.2007    2.0597 H   0  0  0  0  0  0  0  0  0  0  0  0
    1.8114    2.0965    0.7646 O   0  0  0  0  0  0  0  0  0  0  0  0
    0.5977    2.4390    1.3783 C   0  0  0  0  0  0  0  0  0  0  0  0
    0.4633    3.5329    1.2735 H   0  0  0  0  0  0  0  0  0  0  0  0
    0.5823    2.1376    2.4472 H   0  0  0  0  0  0  0  0  0  0  0  0
   -0.9329    2.2572    0.0441 H   0  0  0  0  0  0  0  0  0  0  0  0
  1 20  1  0  0  0  0
  2 19  1  1  0  0  0
  2 14  1  0  0  0  0
  3  2  1  0  0  0  0
  4  3  1  0  0  0  0
  4  5  1  0  0  0  0
  6  4  2  0  0  0  0
  7  6  1  0  0  0  0
  8 10  2  0  0  0  0
  8  6  1  0  0  0  0
  9  8  1  0  0  0  0
 10 12  1  0  0  0  0
 11 10  1  0  0  0  0
 12 13  1  0  0  0  0
 12  3  2  0  0  0  0
 14 15  1  0  0  0  0
 15 17  1  0  0  0  0
 15 16  1  0  0  0  0
 18 15  1  0  0  0  0
 19 20  1  0  0  0  0
 20 22  1  0  0  0  0
 21 20  1  0  0  0  0
 23  1  1  0  0  0  0
M  END
