1
 OpenBabel05122313063D

 35 38  0  0  1  0  0  0  0  0999 V2000
   -0.0318    0.9024    0.0000 P   0  0  2  0  0  0  0  0  0  0  0  0
   -1.7140    0.9644   -0.7556 C   0  0  2  0  0  0  0  0  0  0  0  0
   -1.7138    0.9645    0.7562 C   0  0  1  0  0  0  0  0  0  0  0  0
   -2.2827   -0.2262    0.0005 C   0  0  1  0  0  0  0  0  0  0  0  0
   -1.6992   -1.1669    0.0006 H   0  0  0  0  0  0  0  0  0  0  0  0
   -2.2501    1.7029   -1.9413 C   0  0  0  0  0  0  0  0  0  0  0  0
   -3.3517    1.8099   -1.8943 H   0  0  0  0  0  0  0  0  0  0  0  0
   -2.0104    1.1366   -2.8643 H   0  0  0  0  0  0  0  0  0  0  0  0
   -1.8024    2.7109   -2.0381 H   0  0  0  0  0  0  0  0  0  0  0  0
   -2.2492    1.7036    1.9419 C   0  0  0  0  0  0  0  0  0  0  0  0
   -1.8016    2.7117    2.0378 H   0  0  0  0  0  0  0  0  0  0  0  0
   -2.0088    1.1379    2.8651 H   0  0  0  0  0  0  0  0  0  0  0  0
   -3.3509    1.8105    1.8958 H   0  0  0  0  0  0  0  0  0  0  0  0
    0.5440    2.6469   -0.0001 C   0  0  0  0  0  0  0  0  0  0  0  0
    1.9343    2.8835   -0.0002 C   0  0  0  0  0  0  0  0  0  0  0  0
    2.6300    2.0326   -0.0001 H   0  0  0  0  0  0  0  0  0  0  0  0
    2.4379    4.1927   -0.0004 C   0  0  0  0  0  0  0  0  0  0  0  0
    3.5260    4.3556   -0.0004 H   0  0  0  0  0  0  0  0  0  0  0  0
    1.5590    5.2856   -0.0005 C   0  0  0  0  0  0  0  0  0  0  0  0
    1.9527    6.3131   -0.0007 H   0  0  0  0  0  0  0  0  0  0  0  0
    0.1724    5.0621   -0.0005 C   0  0  0  0  0  0  0  0  0  0  0  0
   -0.5243    5.9141   -0.0006 H   0  0  0  0  0  0  0  0  0  0  0  0
   -0.3344    3.7552   -0.0003 C   0  0  0  0  0  0  0  0  0  0  0  0
   -1.4221    3.6020   -0.0003 H   0  0  0  0  0  0  0  0  0  0  0  0
   -3.7546   -0.4853    0.0003 C   0  0  0  0  0  0  0  0  0  0  0  0
   -4.7370    0.5311    0.0009 C   0  0  0  0  0  0  0  0  0  0  0  0
   -4.4386    1.5894    0.0016 H   0  0  0  0  0  0  0  0  0  0  0  0
   -6.1028    0.2115    0.0006 C   0  0  0  0  0  0  0  0  0  0  0  0
   -6.8494    1.0203    0.0010 H   0  0  0  0  0  0  0  0  0  0  0  0
   -6.5183   -1.1289   -0.0004 C   0  0  0  0  0  0  0  0  0  0  0  0
   -7.5902   -1.3774   -0.0006 H   0  0  0  0  0  0  0  0  0  0  0  0
   -5.5540   -2.1487   -0.0010 C   0  0  0  0  0  0  0  0  0  0  0  0
   -5.8657   -3.2042   -0.0018 H   0  0  0  0  0  0  0  0  0  0  0  0
   -4.1898   -1.8280   -0.0007 C   0  0  0  0  0  0  0  0  0  0  0  0
   -3.4368   -2.6316   -0.0012 H   0  0  0  0  0  0  0  0  0  0  0  0
  1 14  1  6  0  0  0
  1  3  1  0  0  0  0
  2  6  1  6  0  0  0
  2  1  1  0  0  0  0
  2  4  1  0  0  0  0
  2  3  1  0  0  0  0
  3 10  1  1  0  0  0
  4  5  1  6  0  0  0
  4  3  1  0  0  0  0
  6  7  1  0  0  0  0
  8  6  1  0  0  0  0
  9  6  1  0  0  0  0
 10 11  1  0  0  0  0
 10 12  1  0  0  0  0
 13 10  1  0  0  0  0
 15 14  1  0  0  0  0
 15 16  1  0  0  0  0
 17 15  2  0  0  0  0
 18 17  1  0  0  0  0
 19 21  2  0  0  0  0
 19 17  1  0  0  0  0
 20 19  1  0  0  0  0
 21 23  1  0  0  0  0
 22 21  1  0  0  0  0
 23 24  1  0  0  0  0
 23 14  2  0  0  0  0
 25  4  1  0  0  0  0
 25 26  1  0  0  0  0
 26 27  1  0  0  0  0
 28 26  2  0  0  0  0
 28 29  1  0  0  0  0
 30 28  1  0  0  0  0
 31 30  1  0  0  0  0
 32 34  1  0  0  0  0
 32 30  2  0  0  0  0
 33 32  1  0  0  0  0
 34 25  2  0  0  0  0
 35 34  1  0  0  0  0
M  END
