1
 OpenBabel05122313063D

 49 54  0  0  1  0  0  0  0  0999 V2000
    0.3455    0.5088   -0.0458 P   0  0  1  0  0  0  0  0  0  0  0  0
   -1.2397   -0.0571    0.7158 C   0  0  1  0  0  0  0  0  0  0  0  0
   -1.3028    0.0447   -0.7809 C   0  0  2  0  0  0  0  0  0  0  0  0
   -1.3827   -1.3231   -0.1249 C   0  0  2  0  0  0  0  0  0  0  0  0
   -0.5016   -1.9878   -0.2059 H   0  0  0  0  0  0  0  0  0  0  0  0
    0.3345    2.3295    0.0687 C   0  0  0  0  0  0  0  0  0  0  0  0
    0.5711    3.0912   -1.0958 C   0  0  0  0  0  0  0  0  0  0  0  0
    0.7024    2.5887   -2.0662 H   0  0  0  0  0  0  0  0  0  0  0  0
    0.6318    4.4898   -1.0169 C   0  0  0  0  0  0  0  0  0  0  0  0
    0.8109    5.0802   -1.9281 H   0  0  0  0  0  0  0  0  0  0  0  0
    0.4664    5.1330    0.2209 C   0  0  0  0  0  0  0  0  0  0  0  0
    0.5169    6.2307    0.2808 H   0  0  0  0  0  0  0  0  0  0  0  0
    0.2475    4.3765    1.3833 C   0  0  0  0  0  0  0  0  0  0  0  0
    0.1278    4.8782    2.3554 H   0  0  0  0  0  0  0  0  0  0  0  0
    0.1856    2.9765    1.3131 C   0  0  0  0  0  0  0  0  0  0  0  0
    0.0193    2.3868    2.2266 H   0  0  0  0  0  0  0  0  0  0  0  0
   -1.9995    0.3749    1.9027 C   0  0  0  0  0  0  0  0  0  0  0  0
   -1.8594   -0.3724    3.0932 C   0  0  0  0  0  0  0  0  0  0  0  0
   -1.2064   -1.2586    3.0937 H   0  0  0  0  0  0  0  0  0  0  0  0
   -2.5399    0.0124    4.2556 C   0  0  0  0  0  0  0  0  0  0  0  0
   -2.4243   -0.5788    5.1766 H   0  0  0  0  0  0  0  0  0  0  0  0
   -3.3682    1.1474    4.2463 C   0  0  0  0  0  0  0  0  0  0  0  0
   -3.9028    1.4483    5.1599 H   0  0  0  0  0  0  0  0  0  0  0  0
   -3.5146    1.8936    3.0663 C   0  0  0  0  0  0  0  0  0  0  0  0
   -4.1666    2.7802    3.0508 H   0  0  0  0  0  0  0  0  0  0  0  0
   -2.8360    1.5110    1.9003 C   0  0  0  0  0  0  0  0  0  0  0  0
   -2.9568    2.0920    0.9757 H   0  0  0  0  0  0  0  0  0  0  0  0
   -2.1411    0.6434   -1.8332 C   0  0  0  0  0  0  0  0  0  0  0  0
   -2.5432    1.9981   -1.8066 C   0  0  0  0  0  0  0  0  0  0  0  0
   -2.2320    2.6429   -0.9728 H   0  0  0  0  0  0  0  0  0  0  0  0
   -3.3218    2.5280   -2.8446 C   0  0  0  0  0  0  0  0  0  0  0  0
   -3.6267    3.5850   -2.8096 H   0  0  0  0  0  0  0  0  0  0  0  0
   -3.7130    1.7171   -3.9223 C   0  0  0  0  0  0  0  0  0  0  0  0
   -4.3277    2.1348   -4.7339 H   0  0  0  0  0  0  0  0  0  0  0  0
   -3.3160    0.3706   -3.9588 C   0  0  0  0  0  0  0  0  0  0  0  0
   -3.6186   -0.2719   -4.7995 H   0  0  0  0  0  0  0  0  0  0  0  0
   -2.5342   -0.1622   -2.9255 C   0  0  0  0  0  0  0  0  0  0  0  0
   -2.2233   -1.2171   -2.9500 H   0  0  0  0  0  0  0  0  0  0  0  0
   -2.6750   -2.0709   -0.1072 C   0  0  0  0  0  0  0  0  0  0  0  0
   -3.9323   -1.4329   -0.0322 C   0  0  0  0  0  0  0  0  0  0  0  0
   -3.9918   -0.3368    0.0131 H   0  0  0  0  0  0  0  0  0  0  0  0
   -5.1125   -2.1881   -0.0169 C   0  0  0  0  0  0  0  0  0  0  0  0
   -6.0837   -1.6739    0.0423 H   0  0  0  0  0  0  0  0  0  0  0  0
   -5.0610   -3.5901   -0.0781 C   0  0  0  0  0  0  0  0  0  0  0  0
   -5.9904   -4.1795   -0.0667 H   0  0  0  0  0  0  0  0  0  0  0  0
   -3.8166   -4.2340   -0.1539 C   0  0  0  0  0  0  0  0  0  0  0  0
   -3.7633   -5.3322   -0.2020 H   0  0  0  0  0  0  0  0  0  0  0  0
   -2.6350   -3.4790   -0.1677 C   0  0  0  0  0  0  0  0  0  0  0  0
   -1.6589   -3.9858   -0.2265 H   0  0  0  0  0  0  0  0  0  0  0  0
  1  6  1  1  0  0  0
  1  2  1  0  0  0  0
  2 17  1  1  0  0  0
  3 28  1  6  0  0  0
  3  4  1  0  0  0  0
  3  1  1  0  0  0  0
  3  2  1  0  0  0  0
  4  5  1  6  0  0  0
  4 39  1  0  0  0  0
  4  2  1  0  0  0  0
  6 15  1  0  0  0  0
  7  9  1  0  0  0  0
  7  6  2  0  0  0  0
  8  7  1  0  0  0  0
  9 11  2  0  0  0  0
 10  9  1  0  0  0  0
 11 12  1  0  0  0  0
 11 13  1  0  0  0  0
 13 14  1  0  0  0  0
 15 13  2  0  0  0  0
 15 16  1  0  0  0  0
 17 18  1  0  0  0  0
 18 19  1  0  0  0  0
 18 20  2  0  0  0  0
 20 21  1  0  0  0  0
 22 20  1  0  0  0  0
 22 23  1  0  0  0  0
 24 22  2  0  0  0  0
 25 24  1  0  0  0  0
 26 17  2  0  0  0  0
 26 24  1  0  0  0  0
 27 26  1  0  0  0  0
 28 29  1  0  0  0  0
 29 30  1  0  0  0  0
 31 32  1  0  0  0  0
 31 29  2  0  0  0  0
 33 31  1  0  0  0  0
 34 33  1  0  0  0  0
 35 33  2  0  0  0  0
 35 37  1  0  0  0  0
 36 35  1  0  0  0  0
 37 28  2  0  0  0  0
 38 37  1  0  0  0  0
 39 40  1  0  0  0  0
 40 42  2  0  0  0  0
 40 41  1  0  0  0  0
 42 43  1  0  0  0  0
 44 45  1  0  0  0  0
 44 42  1  0  0  0  0
 46 44  2  0  0  0  0
 47 46  1  0  0  0  0
 48 46  1  0  0  0  0
 48 39  2  0  0  0  0
 49 48  1  0  0  0  0
M  END
