1
 OpenBabel05122313063D

 48 48  0  0  0  0  0  0  0  0999 V2000
   -0.0000    0.0424    0.5911 P   0  0  0  0  0  0  0  0  0  0  0  0
   -0.0001   -2.1310   -1.2283 P   0  0  0  0  0  0  0  0  0  0  0  0
   -1.2722   -1.3178   -0.0347 B   0  0  0  0  0  0  0  0  0  0  0  0
    1.2720   -1.3180   -0.0346 B   0  0  0  0  0  0  0  0  0  0  0  0
   -2.6214   -1.4701    0.2835 N   0  0  0  0  0  0  0  0  0  0  0  0
    2.6212   -1.4704    0.2835 N   0  0  0  0  0  0  0  0  0  0  0  0
   -3.2937   -0.5183    1.2008 C   0  0  0  0  0  0  0  0  0  0  0  0
   -3.7991   -1.2061    2.4741 C   0  0  0  0  0  0  0  0  0  0  0  0
   -4.3878    0.2906    0.4945 C   0  0  0  0  0  0  0  0  0  0  0  0
   -3.4710   -2.5506   -0.2818 C   0  0  0  0  0  0  0  0  0  0  0  0
   -3.5342   -2.4696   -1.8104 C   0  0  0  0  0  0  0  0  0  0  0  0
   -3.0350   -3.9295    0.2238 C   0  0  0  0  0  0  0  0  0  0  0  0
    3.4707   -2.5509   -0.2818 C   0  0  0  0  0  0  0  0  0  0  0  0
    3.0346   -3.9298    0.2239 C   0  0  0  0  0  0  0  0  0  0  0  0
    3.5338   -2.4700   -1.8104 C   0  0  0  0  0  0  0  0  0  0  0  0
    3.2936   -0.5187    1.2008 C   0  0  0  0  0  0  0  0  0  0  0  0
    3.7990   -1.2064    2.4741 C   0  0  0  0  0  0  0  0  0  0  0  0
    4.3877    0.2902    0.4945 C   0  0  0  0  0  0  0  0  0  0  0  0
   -0.0001   -0.0790    2.0256 H   0  0  0  0  0  0  0  0  0  0  0  0
   -0.0002   -3.5634   -1.1505 H   0  0  0  0  0  0  0  0  0  0  0  0
   -2.5048    0.1974    1.5043 H   0  0  0  0  0  0  0  0  0  0  0  0
   -4.2094   -0.4514    3.1741 H   0  0  0  0  0  0  0  0  0  0  0  0
   -2.9775   -1.7441    2.9874 H   0  0  0  0  0  0  0  0  0  0  0  0
   -4.6097   -1.9333    2.2613 H   0  0  0  0  0  0  0  0  0  0  0  0
   -4.7622    1.0830    1.1724 H   0  0  0  0  0  0  0  0  0  0  0  0
   -5.2543   -0.3396    0.2062 H   0  0  0  0  0  0  0  0  0  0  0  0
   -3.9920    0.7773   -0.4173 H   0  0  0  0  0  0  0  0  0  0  0  0
   -4.4971   -2.3682    0.0992 H   0  0  0  0  0  0  0  0  0  0  0  0
   -4.2455   -3.2205   -2.2087 H   0  0  0  0  0  0  0  0  0  0  0  0
   -2.5428   -2.6621   -2.2688 H   0  0  0  0  0  0  0  0  0  0  0  0
   -3.8607   -1.4636   -2.1382 H   0  0  0  0  0  0  0  0  0  0  0  0
   -3.7144   -4.7180   -0.1575 H   0  0  0  0  0  0  0  0  0  0  0  0
   -3.0440   -3.9674    1.3307 H   0  0  0  0  0  0  0  0  0  0  0  0
   -2.0077   -4.1696   -0.1156 H   0  0  0  0  0  0  0  0  0  0  0  0
    4.4968   -2.3687    0.0991 H   0  0  0  0  0  0  0  0  0  0  0  0
    3.7139   -4.7184   -0.1575 H   0  0  0  0  0  0  0  0  0  0  0  0
    2.0073   -4.1698   -0.1155 H   0  0  0  0  0  0  0  0  0  0  0  0
    3.0437   -3.9677    1.3308 H   0  0  0  0  0  0  0  0  0  0  0  0
    4.2451   -3.2209   -2.2087 H   0  0  0  0  0  0  0  0  0  0  0  0
    3.8604   -1.4640   -2.1382 H   0  0  0  0  0  0  0  0  0  0  0  0
    2.5425   -2.6625   -2.2687 H   0  0  0  0  0  0  0  0  0  0  0  0
    2.5048    0.1971    1.5043 H   0  0  0  0  0  0  0  0  0  0  0  0
    4.2094   -0.4518    3.1741 H   0  0  0  0  0  0  0  0  0  0  0  0
    4.6096   -1.9337    2.2612 H   0  0  0  0  0  0  0  0  0  0  0  0
    2.9774   -1.7444    2.9874 H   0  0  0  0  0  0  0  0  0  0  0  0
    4.7621    1.0826    1.1724 H   0  0  0  0  0  0  0  0  0  0  0  0
    3.9918    0.7769   -0.4173 H   0  0  0  0  0  0  0  0  0  0  0  0
    5.2542   -0.3400    0.2061 H   0  0  0  0  0  0  0  0  0  0  0  0
  1 19  1  0  0  0  0
  2 20  1  0  0  0  0
  2  3  1  0  0  0  0
  2  4  1  0  0  0  0
  3  5  1  0  0  0  0
  3  1  1  0  0  0  0
  4  6  1  0  0  0  0
  4  1  1  0  0  0  0
  5  7  1  0  0  0  0
  6 16  1  0  0  0  0
  7 21  1  0  0  0  0
  7  8  1  0  0  0  0
  8 23  1  0  0  0  0
  8 22  1  0  0  0  0
  9 25  1  0  0  0  0
  9  7  1  0  0  0  0
 10 28  1  0  0  0  0
 10 12  1  0  0  0  0
 10  5  1  0  0  0  0
 11 10  1  0  0  0  0
 12 33  1  0  0  0  0
 13 35  1  0  0  0  0
 13 14  1  0  0  0  0
 13  6  1  0  0  0  0
 14 38  1  0  0  0  0
 15 13  1  0  0  0  0
 16 42  1  0  0  0  0
 16 17  1  0  0  0  0
 17 45  1  0  0  0  0
 17 43  1  0  0  0  0
 18 46  1  0  0  0  0
 18 16  1  0  0  0  0
 24  8  1  0  0  0  0
 26  9  1  0  0  0  0
 27  9  1  0  0  0  0
 29 11  1  0  0  0  0
 30 11  1  0  0  0  0
 31 11  1  0  0  0  0
 32 12  1  0  0  0  0
 34 12  1  0  0  0  0
 36 14  1  0  0  0  0
 37 14  1  0  0  0  0
 39 15  1  0  0  0  0
 40 15  1  0  0  0  0
 41 15  1  0  0  0  0
 44 17  1  0  0  0  0
 47 18  1  0  0  0  0
 48 18  1  0  0  0  0
M  END
