1
 OpenBabel05122313063D

 21 21  0  0  0  0  0  0  0  0999 V2000
   -0.3541    0.0029   -1.9404 P   0  0  0  0  0  1  0  0  0  0  0  0
   -0.7438   -2.6138   -2.7792 C   0  0  0  0  0  0  0  0  0  0  0  0
   -0.3251   -3.8970   -3.1471 C   0  0  0  0  0  0  0  0  0  0  0  0
    1.0373   -4.2697   -3.1577 C   0  0  0  0  0  0  0  0  0  0  0  0
    1.9889   -3.3070   -2.7862 C   0  0  0  0  0  0  0  0  0  0  0  0
    1.6258   -1.9973   -2.4195 C   0  0  0  0  0  0  0  0  0  0  0  0
    0.2430   -1.6440   -2.4040 C   0  0  0  0  0  0  0  0  0  0  0  0
   -1.0889   -4.6428   -3.4236 H   0  0  0  0  0  0  0  0  0  0  0  0
    3.0575   -3.5781   -2.7844 H   0  0  0  0  0  0  0  0  0  0  0  0
   -2.2109   -2.2752   -2.7051 C   0  0  0  0  0  0  0  0  0  0  0  0
   -2.8384   -3.1048   -3.0847 H   0  0  0  0  0  0  0  0  0  0  0  0
   -2.5134   -2.0598   -1.6567 H   0  0  0  0  0  0  0  0  0  0  0  0
   -2.4513   -1.3612   -3.2891 H   0  0  0  0  0  0  0  0  0  0  0  0
    1.4451   -5.6604   -3.5702 C   0  0  0  0  0  0  0  0  0  0  0  0
    2.5235   -5.8403   -3.3961 H   0  0  0  0  0  0  0  0  0  0  0  0
    0.8727   -6.4311   -3.0137 H   0  0  0  0  0  0  0  0  0  0  0  0
    1.2447   -5.8334   -4.6492 H   0  0  0  0  0  0  0  0  0  0  0  0
    2.6652   -1.0081   -2.0021 C   0  0  0  0  0  0  0  0  0  0  0  0
    3.6930   -1.3910   -2.1502 H   0  0  0  0  0  0  0  0  0  0  0  0
    2.5639   -0.0374   -2.5299 H   0  0  0  0  0  0  0  0  0  0  0  0
    2.5386   -0.7600   -0.9137 H   0  0  0  0  0  0  0  0  0  0  0  0
  2 10  1  0  0  0  0
  2  7  1  0  0  0  0
  3  2  2  0  0  0  0
  4  3  1  0  0  0  0
  4  5  2  0  0  0  0
  5  9  1  0  0  0  0
  5  6  1  0  0  0  0
  6  7  2  0  0  0  0
  6 18  1  0  0  0  0
  7  1  1  0  0  0  0
  8  3  1  0  0  0  0
 10 12  1  0  0  0  0
 11 10  1  0  0  0  0
 13 10  1  0  0  0  0
 14 15  1  0  0  0  0
 14  4  1  0  0  0  0
 14 16  1  0  0  0  0
 17 14  1  0  0  0  0
 18 21  1  0  0  0  0
 19 18  1  0  0  0  0
 20 18  1  0  0  0  0
M  END
