1
 OpenBabel05122313063D

 33 32  0  0  0  0  0  0  0  0999 V2000
    1.9608   -0.0429    0.1488 P   0  0  0  0  0  0  0  0  0  0  0  0
    2.0564    2.7299   -0.0335 N   0  0  0  0  0  0  0  0  0  0  0  0
    4.6194   -1.2587    0.2087 C   0  0  0  0  0  0  0  0  0  0  0  0
    5.0734   -0.2510    0.1300 H   0  0  0  0  0  0  0  0  0  0  0  0
    5.2989   -1.9642   -0.3151 H   0  0  0  0  0  0  0  0  0  0  0  0
    4.6156   -1.5489    1.2783 H   0  0  0  0  0  0  0  0  0  0  0  0
    3.2212   -1.3310   -0.4141 C   0  0  0  0  0  0  0  0  0  0  0  0
    3.3112   -1.0608   -1.4878 H   0  0  0  0  0  0  0  0  0  0  0  0
    2.6325   -2.7482   -0.3621 C   0  0  0  0  0  0  0  0  0  0  0  0
    2.5705   -3.1353    0.6741 H   0  0  0  0  0  0  0  0  0  0  0  0
    3.2711   -3.4491   -0.9396 H   0  0  0  0  0  0  0  0  0  0  0  0
    1.6126   -2.7634   -0.7978 H   0  0  0  0  0  0  0  0  0  0  0  0
    2.8270    1.5427   -0.3711 C   0  0  0  0  0  0  0  0  0  0  0  0
    3.8024    1.5832    0.1513 H   0  0  0  0  0  0  0  0  0  0  0  0
    3.0544    1.4598   -1.4649 H   0  0  0  0  0  0  0  0  0  0  0  0
    2.8885    3.9008    0.1856 C   0  0  0  0  0  0  0  0  0  0  0  0
    3.4394    4.2328   -0.7350 H   0  0  0  0  0  0  0  0  0  0  0  0
    3.6390    3.7031    0.9786 H   0  0  0  0  0  0  0  0  0  0  0  0
    2.2572    4.7491    0.5205 H   0  0  0  0  0  0  0  0  0  0  0  0
    0.9940    3.0001   -0.9908 C   0  0  0  0  0  0  0  0  0  0  0  0
    1.3903    3.3208   -1.9906 H   0  0  0  0  0  0  0  0  0  0  0  0
    0.3273    3.7984   -0.6065 H   0  0  0  0  0  0  0  0  0  0  0  0
    0.3907    2.0772   -1.1494 H   0  0  0  0  0  0  0  0  0  0  0  0
    2.0767    0.0774    2.0380 C   0  0  0  0  0  0  0  0  0  0  0  0
    1.1549    0.6436    2.2687 H   0  0  0  0  0  0  0  0  0  0  0  0
    1.9647   -1.2996    2.7002 C   0  0  0  0  0  0  0  0  0  0  0  0
    1.1617   -1.9125    2.2524 H   0  0  0  0  0  0  0  0  0  0  0  0
    1.7423   -1.1873    3.7824 H   0  0  0  0  0  0  0  0  0  0  0  0
    2.9101   -1.8723    2.6198 H   0  0  0  0  0  0  0  0  0  0  0  0
    3.2418    0.8894    2.6151 C   0  0  0  0  0  0  0  0  0  0  0  0
    4.2329    0.4735    2.3486 H   0  0  0  0  0  0  0  0  0  0  0  0
    3.1742    0.8866    3.7240 H   0  0  0  0  0  0  0  0  0  0  0  0
    3.2008    1.9456    2.2901 H   0  0  0  0  0  0  0  0  0  0  0  0
  1 24  1  0  0  0  0
  2 16  1  0  0  0  0
  3  6  1  0  0  0  0
  4  3  1  0  0  0  0
  5  3  1  0  0  0  0
  7  9  1  0  0  0  0
  7  1  1  0  0  0  0
  7  3  1  0  0  0  0
  8  7  1  0  0  0  0
  9 10  1  0  0  0  0
 11  9  1  0  0  0  0
 12  9  1  0  0  0  0
 13  2  1  0  0  0  0
 13  1  1  0  0  0  0
 13 14  1  0  0  0  0
 15 13  1  0  0  0  0
 16 19  1  0  0  0  0
 16 18  1  0  0  0  0
 17 16  1  0  0  0  0
 20 22  1  0  0  0  0
 20  2  1  0  0  0  0
 21 20  1  0  0  0  0
 23 20  1  0  0  0  0
 24 25  1  0  0  0  0
 24 30  1  0  0  0  0
 24 26  1  0  0  0  0
 26 28  1  0  0  0  0
 27 26  1  0  0  0  0
 29 26  1  0  0  0  0
 30 32  1  0  0  0  0
 31 30  1  0  0  0  0
 33 30  1  0  0  0  0
M  END
