56
 OpenBabel05122313063D

 56 57  0  0  0  0  0  0  0  0999 V2000
   -3.1171    0.3335    0.3650 C   0  0  0  0  0  0  0  0  0  0  0  0
   -4.3548    0.9715    0.6199 C   0  0  0  0  0  0  0  0  0  0  0  0
   -4.3953    2.0630    0.7109 H   0  0  0  0  0  0  0  0  0  0  0  0
   -5.5444    0.2484    0.7643 C   0  0  0  0  0  0  0  0  0  0  0  0
   -6.4873    0.7798    0.9633 H   0  0  0  0  0  0  0  0  0  0  0  0
   -5.5211   -1.1485    0.6507 C   0  0  0  0  0  0  0  0  0  0  0  0
   -6.4475   -1.7338    0.7533 H   0  0  0  0  0  0  0  0  0  0  0  0
   -4.3043   -1.7970    0.4173 C   0  0  0  0  0  0  0  0  0  0  0  0
   -4.2691   -2.8942    0.3452 H   0  0  0  0  0  0  0  0  0  0  0  0
   -3.0907   -1.0861    0.2817 C   0  0  0  0  0  0  0  0  0  0  0  0
   -1.8664   -1.9290    0.1155 C   0  0  0  0  0  0  0  0  0  0  0  0
   -1.4026   -2.3176   -1.1651 C   0  0  0  0  0  0  0  0  0  0  0  0
   -0.3395   -3.2356   -1.2983 C   0  0  0  0  0  0  0  0  0  0  0  0
    0.0474   -3.5098   -2.2861 H   0  0  0  0  0  0  0  0  0  0  0  0
    0.2565   -3.7596   -0.1463 C   0  0  0  0  0  0  0  0  0  0  0  0
    1.0916   -4.4687   -0.2493 H   0  0  0  0  0  0  0  0  0  0  0  0
   -0.1759   -3.3934    1.1361 C   0  0  0  0  0  0  0  0  0  0  0  0
    0.3144   -3.8169    2.0211 H   0  0  0  0  0  0  0  0  0  0  0  0
   -1.2428   -2.4815    1.2609 C   0  0  0  0  0  0  0  0  0  0  0  0
   -1.4998   -1.9420   -3.5174 C   0  0  0  0  0  0  0  0  0  0  0  0
   -0.4333   -1.6304   -3.5561 H   0  0  0  0  0  0  0  0  0  0  0  0
   -2.0962   -1.3093   -4.2006 H   0  0  0  0  0  0  0  0  0  0  0  0
   -1.5861   -3.0028   -3.8420 H   0  0  0  0  0  0  0  0  0  0  0  0
   -1.1501   -2.5385    3.6463 C   0  0  0  0  0  0  0  0  0  0  0  0
   -1.2361   -3.6442    3.7398 H   0  0  0  0  0  0  0  0  0  0  0  0
   -1.6966   -2.0628    4.4817 H   0  0  0  0  0  0  0  0  0  0  0  0
   -0.0750   -2.2573    3.7099 H   0  0  0  0  0  0  0  0  0  0  0  0
   -1.3870    2.3217    1.8156 C   0  0  0  0  0  0  0  0  0  0  0  0
    0.0586    2.8563    1.8752 C   0  0  0  0  0  0  0  0  0  0  0  0
    0.2567    3.6341    1.1145 H   0  0  0  0  0  0  0  0  0  0  0  0
    0.7983    2.0433    1.7272 H   0  0  0  0  0  0  0  0  0  0  0  0
    0.2317    3.3105    2.8739 H   0  0  0  0  0  0  0  0  0  0  0  0
   -1.5643    1.2657    2.9226 C   0  0  0  0  0  0  0  0  0  0  0  0
   -1.3143    1.7242    3.9028 H   0  0  0  0  0  0  0  0  0  0  0  0
   -0.8909    0.4001    2.7631 H   0  0  0  0  0  0  0  0  0  0  0  0
   -2.5998    0.8774    2.9717 H   0  0  0  0  0  0  0  0  0  0  0  0
   -2.3668    3.4842    2.0292 C   0  0  0  0  0  0  0  0  0  0  0  0
   -2.1578    3.9510    3.0156 H   0  0  0  0  0  0  0  0  0  0  0  0
   -3.4232    3.1560    2.0465 H   0  0  0  0  0  0  0  0  0  0  0  0
   -2.2522    4.2762    1.2637 H   0  0  0  0  0  0  0  0  0  0  0  0
   -1.9115    2.4873   -1.3392 C   0  0  0  0  0  0  0  0  0  0  0  0
   -0.7794    3.5272   -1.4090 C   0  0  0  0  0  0  0  0  0  0  0  0
   -0.8259    4.0450   -2.3903 H   0  0  0  0  0  0  0  0  0  0  0  0
    0.2191    3.0530   -1.3247 H   0  0  0  0  0  0  0  0  0  0  0  0
   -0.8703    4.3012   -0.6219 H   0  0  0  0  0  0  0  0  0  0  0  0
   -1.8150    1.5443   -2.5555 C   0  0  0  0  0  0  0  0  0  0  0  0
   -2.5521    0.7198   -2.4929 H   0  0  0  0  0  0  0  0  0  0  0  0
   -0.8065    1.0893   -2.6351 H   0  0  0  0  0  0  0  0  0  0  0  0
   -2.0123    2.1257   -3.4813 H   0  0  0  0  0  0  0  0  0  0  0  0
   -3.2724    3.1986   -1.3771 C   0  0  0  0  0  0  0  0  0  0  0  0
   -3.4516    3.8413   -0.4944 H   0  0  0  0  0  0  0  0  0  0  0  0
   -4.1104    2.4831   -1.4729 H   0  0  0  0  0  0  0  0  0  0  0  0
   -3.2983    3.8557   -2.2726 H   0  0  0  0  0  0  0  0  0  0  0  0
   -2.0453   -1.7468   -2.2198 O   0  0  0  0  0  0  0  0  0  0  0  0
   -1.7488   -2.0615    2.4570 O   0  0  0  0  0  0  0  0  0  0  0  0
   -1.5831    1.3538    0.1715 P   0  0  0  0  0  0  0  0  0  0  0  0
  1  2  1  0  0  0  0
  2  3  1  0  0  0  0
  2  4  2  0  0  0  0
  4  5  1  0  0  0  0
  6  7  1  0  0  0  0
  6  4  1  0  0  0  0
  8  6  2  0  0  0  0
  9  8  1  0  0  0  0
 10  1  2  0  0  0  0
 10  8  1  0  0  0  0
 11 10  1  0  0  0  0
 11 19  1  0  0  0  0
 12 11  2  0  0  0  0
 13 12  1  0  0  0  0
 13 15  2  0  0  0  0
 14 13  1  0  0  0  0
 15 17  1  0  0  0  0
 16 15  1  0  0  0  0
 17 19  2  0  0  0  0
 17 18  1  0  0  0  0
 19 55  1  0  0  0  0
 20 54  1  0  0  0  0
 21 20  1  0  0  0  0
 22 20  1  0  0  0  0
 23 20  1  0  0  0  0
 24 27  1  0  0  0  0
 24 25  1  0  0  0  0
 24 26  1  0  0  0  0
 28 29  1  0  0  0  0
 28 37  1  0  0  0  0
 28 33  1  0  0  0  0
 29 32  1  0  0  0  0
 30 29  1  0  0  0  0
 31 29  1  0  0  0  0
 33 36  1  0  0  0  0
 33 34  1  0  0  0  0
 35 33  1  0  0  0  0
 37 39  1  0  0  0  0
 37 38  1  0  0  0  0
 40 37  1  0  0  0  0
 41 56  1  0  0  0  0
 42 41  1  0  0  0  0
 42 44  1  0  0  0  0
 42 45  1  0  0  0  0
 43 42  1  0  0  0  0
 46 47  1  0  0  0  0
 46 41  1  0  0  0  0
 48 46  1  0  0  0  0
 49 46  1  0  0  0  0
 50 41  1  0  0  0  0
 50 51  1  0  0  0  0
 52 50  1  0  0  0  0
 53 50  1  0  0  0  0
 54 12  1  0  0  0  0
 55 24  1  0  0  0  0
 56  1  1  0  0  0  0
 56 28  1  0  0  0  0
M  END
