1
 OpenBabel05122313063D

 47 48  0  0  1  0  0  0  0  0999 V2000
    0.3536   -0.2873   -0.4552 P   0  0  1  0  0  0  0  0  0  0  0  0
    1.8543    1.3376    1.8148 Si  0  0  0  0  0  0  0  0  0  0  0  0
    1.4789    2.5581   -1.2309 Si  0  0  0  0  0  0  0  0  0  0  0  0
    0.9537   -1.0113   -1.9471 N   0  0  0  0  0  0  0  0  0  0  0  0
    1.2829   -1.8734   -0.8170 C   0  0  1  0  0  0  0  0  0  0  0  0
    0.6279   -2.7553   -0.6515 H   0  0  0  0  0  0  0  0  0  0  0  0
    2.7108   -2.1010   -0.4767 C   0  0  0  0  0  0  0  0  0  0  0  0
    3.0508   -3.0092    0.5488 C   0  0  0  0  0  0  0  0  0  0  0  0
    2.2518   -3.5649    1.0646 H   0  0  0  0  0  0  0  0  0  0  0  0
    4.3884   -3.1944    0.9207 C   0  0  0  0  0  0  0  0  0  0  0  0
    4.6388   -3.9037    1.7241 H   0  0  0  0  0  0  0  0  0  0  0  0
    5.4089   -2.4768    0.2721 C   0  0  0  0  0  0  0  0  0  0  0  0
    6.4591   -2.6209    0.5675 H   0  0  0  0  0  0  0  0  0  0  0  0
    5.0815   -1.5860   -0.7623 C   0  0  0  0  0  0  0  0  0  0  0  0
    5.8764   -1.0345   -1.2874 H   0  0  0  0  0  0  0  0  0  0  0  0
    3.7423   -1.4012   -1.1380 C   0  0  0  0  0  0  0  0  0  0  0  0
    3.4694   -0.7289   -1.9654 H   0  0  0  0  0  0  0  0  0  0  0  0
    0.1061   -1.5353   -3.0053 C   0  0  0  0  0  0  0  0  0  0  0  0
    0.7102   -2.2141   -3.6424 H   0  0  0  0  0  0  0  0  0  0  0  0
   -0.2617   -0.7029   -3.6360 H   0  0  0  0  0  0  0  0  0  0  0  0
   -0.7765   -2.1067   -2.6343 H   0  0  0  0  0  0  0  0  0  0  0  0
    1.5596    1.0213   -0.0610 C   0  0  0  0  0  0  0  0  0  0  0  0
    2.5335    0.5589   -0.3462 H   0  0  0  0  0  0  0  0  0  0  0  0
    0.4741    2.2849    2.6878 C   0  0  0  0  0  0  0  0  0  0  0  0
   -0.4663    1.7036    2.7270 H   0  0  0  0  0  0  0  0  0  0  0  0
    0.2561    3.2596    2.2130 H   0  0  0  0  0  0  0  0  0  0  0  0
    0.7879    2.4761    3.7352 H   0  0  0  0  0  0  0  0  0  0  0  0
    3.4719    2.3204    1.9185 C   0  0  0  0  0  0  0  0  0  0  0  0
    3.3963    3.3203    1.4464 H   0  0  0  0  0  0  0  0  0  0  0  0
    4.2978    1.7676    1.4251 H   0  0  0  0  0  0  0  0  0  0  0  0
    3.7538    2.4712    2.9811 H   0  0  0  0  0  0  0  0  0  0  0  0
    2.1195   -0.3196    2.6836 C   0  0  0  0  0  0  0  0  0  0  0  0
    1.2314   -0.9785    2.6111 H   0  0  0  0  0  0  0  0  0  0  0  0
    2.3179   -0.1493    3.7622 H   0  0  0  0  0  0  0  0  0  0  0  0
    2.9849   -0.8619    2.2538 H   0  0  0  0  0  0  0  0  0  0  0  0
    3.2364    2.7733   -1.9027 C   0  0  0  0  0  0  0  0  0  0  0  0
    3.5462    1.8795   -2.4825 H   0  0  0  0  0  0  0  0  0  0  0  0
    3.9689    2.9196   -1.0832 H   0  0  0  0  0  0  0  0  0  0  0  0
    3.2967    3.6533   -2.5758 H   0  0  0  0  0  0  0  0  0  0  0  0
    0.3018    2.2476   -2.6769 C   0  0  0  0  0  0  0  0  0  0  0  0
   -0.7364    2.0573   -2.3393 H   0  0  0  0  0  0  0  0  0  0  0  0
    0.6369    1.3778   -3.2752 H   0  0  0  0  0  0  0  0  0  0  0  0
    0.2820    3.1369   -3.3400 H   0  0  0  0  0  0  0  0  0  0  0  0
    0.9464    4.1507   -0.3618 C   0  0  0  0  0  0  0  0  0  0  0  0
    1.6049    4.4157    0.4888 H   0  0  0  0  0  0  0  0  0  0  0  0
   -0.0955    4.0889    0.0077 H   0  0  0  0  0  0  0  0  0  0  0  0
    0.9953    4.9832   -1.0944 H   0  0  0  0  0  0  0  0  0  0  0  0
  1 22  1  1  0  0  0
  2 28  1  0  0  0  0
  2 32  1  0  0  0  0
  2 24  1  0  0  0  0
  3 44  1  0  0  0  0
  3 22  1  0  0  0  0
  4  5  1  0  0  0  0
  4  1  1  0  0  0  0
  5  6  1  1  0  0  0
  5  7  1  0  0  0  0
  5  1  1  0  0  0  0
  7  8  1  0  0  0  0
  8 10  2  0  0  0  0
  8  9  1  0  0  0  0
 10 11  1  0  0  0  0
 12 13  1  0  0  0  0
 12 10  1  0  0  0  0
 14 12  2  0  0  0  0
 15 14  1  0  0  0  0
 16 14  1  0  0  0  0
 16  7  2  0  0  0  0
 17 16  1  0  0  0  0
 18 21  1  0  0  0  0
 18  4  1  0  0  0  0
 19 18  1  0  0  0  0
 20 18  1  0  0  0  0
 22  2  1  0  0  0  0
 23 22  1  0  0  0  0
 24 25  1  0  0  0  0
 24 27  1  0  0  0  0
 26 24  1  0  0  0  0
 28 31  1  0  0  0  0
 29 28  1  0  0  0  0
 30 28  1  0  0  0  0
 32 34  1  0  0  0  0
 33 32  1  0  0  0  0
 35 32  1  0  0  0  0
 36  3  1  0  0  0  0
 36 38  1  0  0  0  0
 37 36  1  0  0  0  0
 39 36  1  0  0  0  0
 40 41  1  0  0  0  0
 40  3  1  0  0  0  0
 42 40  1  0  0  0  0
 43 40  1  0  0  0  0
 44 46  1  0  0  0  0
 44 45  1  0  0  0  0
 47 44  1  0  0  0  0
M  END
