1
 OpenBabel05122313063D

 33 34  0  0  1  0  0  0  0  0999 V2000
   -1.7124    0.7508    0.4851 P   0  0  2  0  0  0  0  0  0  0  0  0
   -3.4601    0.4328    0.0160 C   0  0  0  0  0  0  0  0  0  0  0  0
   -3.8659    0.6274   -1.3304 C   0  0  0  0  0  0  0  0  0  0  0  0
   -5.1966    0.3365   -1.6863 C   0  0  0  0  0  0  0  0  0  0  0  0
   -6.1212   -0.1753   -0.7623 C   0  0  0  0  0  0  0  0  0  0  0  0
   -5.6776   -0.4106    0.5520 C   0  0  0  0  0  0  0  0  0  0  0  0
   -4.3650   -0.1243    0.9633 C   0  0  0  0  0  0  0  0  0  0  0  0
   -2.9082    1.0745   -2.4081 C   0  0  0  0  0  0  0  0  0  0  0  0
   -7.5412   -0.4885   -1.1607 C   0  0  0  0  0  0  0  0  0  0  0  0
   -3.9620   -0.4338    2.3850 C   0  0  0  0  0  0  0  0  0  0  0  0
   -1.7911    1.9762    1.8888 C   0  0  2  0  0  0  0  0  0  0  0  0
   -1.5157    2.6188    0.5460 C   0  0  2  0  0  0  0  0  0  0  0  0
   -0.7274    1.9766    2.9636 C   0  0  0  0  0  0  0  0  0  0  0  0
   -2.5058    3.5853   -0.0610 C   0  0  0  0  0  0  0  0  0  0  0  0
   -5.5141    0.5031   -2.7287 H   0  0  0  0  0  0  0  0  0  0  0  0
   -6.3765   -0.8448    1.2857 H   0  0  0  0  0  0  0  0  0  0  0  0
   -2.0506    1.6423   -2.0030 H   0  0  0  0  0  0  0  0  0  0  0  0
   -2.4886    0.1951   -2.9403 H   0  0  0  0  0  0  0  0  0  0  0  0
   -3.4195    1.7029   -3.1638 H   0  0  0  0  0  0  0  0  0  0  0  0
   -7.7251   -0.2679   -2.2298 H   0  0  0  0  0  0  0  0  0  0  0  0
   -7.7789   -1.5588   -0.9878 H   0  0  0  0  0  0  0  0  0  0  0  0
   -8.2667    0.1006   -0.5615 H   0  0  0  0  0  0  0  0  0  0  0  0
   -2.9207   -0.8035    2.4533 H   0  0  0  0  0  0  0  0  0  0  0  0
   -4.0260    0.4625    3.0379 H   0  0  0  0  0  0  0  0  0  0  0  0
   -4.6275   -1.2046    2.8182 H   0  0  0  0  0  0  0  0  0  0  0  0
   -2.8207    2.1373    2.2555 H   0  0  0  0  0  0  0  0  0  0  0  0
   -0.4591    2.9013    0.3999 H   0  0  0  0  0  0  0  0  0  0  0  0
   -0.6663    2.9724    3.4526 H   0  0  0  0  0  0  0  0  0  0  0  0
   -0.9352    1.2196    3.7449 H   0  0  0  0  0  0  0  0  0  0  0  0
    0.2713    1.7529    2.5378 H   0  0  0  0  0  0  0  0  0  0  0  0
   -2.4691    4.5535    0.4837 H   0  0  0  0  0  0  0  0  0  0  0  0
   -2.2724    3.7942   -1.1235 H   0  0  0  0  0  0  0  0  0  0  0  0
   -3.5434    3.2010   -0.0032 H   0  0  0  0  0  0  0  0  0  0  0  0
  1  2  1  6  0  0  0
  1 12  1  0  0  0  0
  1 11  1  0  0  0  0
  2  7  1  0  0  0  0
  3  2  2  0  0  0  0
  4  3  1  0  0  0  0
  4  5  2  0  0  0  0
  5  6  1  0  0  0  0
  6  7  2  0  0  0  0
  6 16  1  0  0  0  0
  7 10  1  0  0  0  0
  8 17  1  0  0  0  0
  8  3  1  0  0  0  0
  9 21  1  0  0  0  0
  9  5  1  0  0  0  0
  9 22  1  0  0  0  0
 10 23  1  0  0  0  0
 10 25  1  0  0  0  0
 10 24  1  0  0  0  0
 11 26  1  1  0  0  0
 11 13  1  0  0  0  0
 12 27  1  6  0  0  0
 12 11  1  0  0  0  0
 13 28  1  0  0  0  0
 13 29  1  0  0  0  0
 14 33  1  0  0  0  0
 14 31  1  0  0  0  0
 14 12  1  0  0  0  0
 15  4  1  0  0  0  0
 18  8  1  0  0  0  0
 19  8  1  0  0  0  0
 20  9  1  0  0  0  0
 30 13  1  0  0  0  0
 32 14  1  0  0  0  0
M  END
