40
 OpenBabel05122313063D

 40 42  0  0  0  0  0  0  0  0999 V2000
   -1.3112   -0.7849   -0.6824 C   0  0  0  0  0  0  0  0  0  0  0  0
   -1.6432   -1.4125   -1.8788 C   0  0  0  0  0  0  0  0  0  0  0  0
   -1.0356   -1.9046   -2.6439 H   0  0  0  0  0  0  0  0  0  0  0  0
   -3.4679   -0.6367   -0.8429 C   0  0  0  0  0  0  0  0  0  0  0  0
   -4.9125   -0.2730   -0.6251 C   0  0  0  0  0  0  0  0  0  0  0  0
   -5.5300   -1.0912   -1.0611 H   0  0  0  0  0  0  0  0  0  0  0  0
   -5.2245   -0.1626    0.8718 C   0  0  0  0  0  0  0  0  0  0  0  0
   -4.5842    0.6117    1.3381 H   0  0  0  0  0  0  0  0  0  0  0  0
   -5.0304   -1.1179    1.3979 H   0  0  0  0  0  0  0  0  0  0  0  0
   -6.2855    0.1151    1.0278 H   0  0  0  0  0  0  0  0  0  0  0  0
   -5.2523    1.0334   -1.3720 C   0  0  0  0  0  0  0  0  0  0  0  0
   -6.3245    1.2872   -1.2488 H   0  0  0  0  0  0  0  0  0  0  0  0
   -5.0410    0.9539   -2.4575 H   0  0  0  0  0  0  0  0  0  0  0  0
   -4.6474    1.8712   -0.9706 H   0  0  0  0  0  0  0  0  0  0  0  0
    1.4245   -1.4287   -1.1376 C   0  0  0  0  0  0  0  0  0  0  0  0
    1.3540   -2.8382   -1.1585 C   0  0  0  0  0  0  0  0  0  0  0  0
    0.6754   -3.3632   -0.4686 H   0  0  0  0  0  0  0  0  0  0  0  0
    2.1547   -3.5649   -2.0506 C   0  0  0  0  0  0  0  0  0  0  0  0
    2.1012   -4.6642   -2.0628 H   0  0  0  0  0  0  0  0  0  0  0  0
    3.0284   -2.8918   -2.9225 C   0  0  0  0  0  0  0  0  0  0  0  0
    3.6590   -3.4656   -3.6186 H   0  0  0  0  0  0  0  0  0  0  0  0
    3.1031   -1.4907   -2.9001 C   0  0  0  0  0  0  0  0  0  0  0  0
    3.7913   -0.9619   -3.5765 H   0  0  0  0  0  0  0  0  0  0  0  0
    2.3042   -0.7576   -2.0082 C   0  0  0  0  0  0  0  0  0  0  0  0
    2.3596    0.3424   -1.9744 H   0  0  0  0  0  0  0  0  0  0  0  0
    0.4265   -1.3559    1.5920 C   0  0  0  0  0  0  0  0  0  0  0  0
   -0.7285   -1.5561    2.3736 C   0  0  0  0  0  0  0  0  0  0  0  0
   -1.7033   -1.2068    2.0009 H   0  0  0  0  0  0  0  0  0  0  0  0
   -0.6195   -2.1849    3.6237 C   0  0  0  0  0  0  0  0  0  0  0  0
   -1.5231   -2.3413    4.2324 H   0  0  0  0  0  0  0  0  0  0  0  0
    0.6312   -2.6079    4.0999 C   0  0  0  0  0  0  0  0  0  0  0  0
    0.7108   -3.0993    5.0815 H   0  0  0  0  0  0  0  0  0  0  0  0
    1.7835   -2.3960    3.3249 C   0  0  0  0  0  0  0  0  0  0  0  0
    2.7676   -2.7195    3.6965 H   0  0  0  0  0  0  0  0  0  0  0  0
    1.6857   -1.7674    2.0760 C   0  0  0  0  0  0  0  0  0  0  0  0
    2.5911   -1.5980    1.4726 H   0  0  0  0  0  0  0  0  0  0  0  0
   -2.4492   -0.3070   -0.0602 N   0  0  0  0  0  0  0  0  0  0  0  0
   -3.0153   -1.3049   -1.9607 N   0  0  0  0  0  0  0  0  0  0  0  0
   -3.5961   -1.6554   -2.7239 H   0  0  0  0  0  0  0  0  0  0  0  0
    0.3455   -0.4614   -0.0107 P   0  0  0  0  0  0  0  0  0  0  0  0
  1 37  1  0  0  0  0
  1 40  1  0  0  0  0
  2  1  2  0  0  0  0
  3  2  1  0  0  0  0
  4  5  1  0  0  0  0
  4 37  2  0  0  0  0
  5  7  1  0  0  0  0
  6  5  1  0  0  0  0
  7 10  1  0  0  0  0
  7  8  1  0  0  0  0
  7  9  1  0  0  0  0
 11 12  1  0  0  0  0
 11 14  1  0  0  0  0
 11  5  1  0  0  0  0
 13 11  1  0  0  0  0
 15 40  1  0  0  0  0
 16 15  1  0  0  0  0
 16 17  1  0  0  0  0
 18 16  2  0  0  0  0
 19 18  1  0  0  0  0
 20 22  2  0  0  0  0
 20 18  1  0  0  0  0
 21 20  1  0  0  0  0
 22 24  1  0  0  0  0
 23 22  1  0  0  0  0
 24 25  1  0  0  0  0
 24 15  2  0  0  0  0
 26 35  2  0  0  0  0
 26 27  1  0  0  0  0
 27 29  2  0  0  0  0
 28 27  1  0  0  0  0
 29 31  1  0  0  0  0
 29 30  1  0  0  0  0
 31 32  1  0  0  0  0
 33 34  1  0  0  0  0
 33 31  2  0  0  0  0
 35 33  1  0  0  0  0
 36 35  1  0  0  0  0
 38  2  1  0  0  0  0
 38  4  1  0  0  0  0
 39 38  1  0  0  0  0
 40 26  1  0  0  0  0
M  END
