1
 OpenBabel05122313063D

 38 38  0  0  0  0  0  0  0  0999 V2000
   -1.1313    0.3178    0.0516 P   0  0  0  0  0  0  0  0  0  0  0  0
   -0.1141    2.3546   -0.2705 Se  0  0  0  0  0  0  0  0  0  0  0  0
    1.7484    1.8347   -0.0432 C   0  0  0  0  0  0  0  0  0  0  0  0
    2.7163    2.6595   -0.6528 C   0  0  0  0  0  0  0  0  0  0  0  0
    2.4215    3.5315   -1.2555 H   0  0  0  0  0  0  0  0  0  0  0  0
    4.0621    2.3154   -0.4780 C   0  0  0  0  0  0  0  0  0  0  0  0
    4.8517    2.9301   -0.9367 H   0  0  0  0  0  0  0  0  0  0  0  0
    4.3874    1.1674    0.2642 C   0  0  0  0  0  0  0  0  0  0  0  0
    5.4320    0.8557    0.4070 H   0  0  0  0  0  0  0  0  0  0  0  0
    3.3407    0.4144    0.8136 C   0  0  0  0  0  0  0  0  0  0  0  0
    3.5365   -0.5124    1.3797 H   0  0  0  0  0  0  0  0  0  0  0  0
    2.0486    0.7589    0.6759 N   0  0  0  0  0  0  0  0  0  0  0  0
   -1.8515    0.4268    1.8183 C   0  0  0  0  0  0  0  0  0  0  0  0
   -2.4684   -0.9399    2.1730 C   0  0  0  0  0  0  0  0  0  0  0  0
   -1.7481   -1.7657    2.0017 H   0  0  0  0  0  0  0  0  0  0  0  0
   -3.3881   -1.1572    1.5995 H   0  0  0  0  0  0  0  0  0  0  0  0
   -2.7377   -0.9385    3.2502 H   0  0  0  0  0  0  0  0  0  0  0  0
   -0.6369    0.6738    2.7331 C   0  0  0  0  0  0  0  0  0  0  0  0
   -0.1728    1.6611    2.5407 H   0  0  0  0  0  0  0  0  0  0  0  0
    0.1437   -0.0997    2.5930 H   0  0  0  0  0  0  0  0  0  0  0  0
   -0.9784    0.6480    3.7892 H   0  0  0  0  0  0  0  0  0  0  0  0
   -2.8759    1.5551    1.9858 C   0  0  0  0  0  0  0  0  0  0  0  0
   -3.1360    1.6525    3.0610 H   0  0  0  0  0  0  0  0  0  0  0  0
   -3.8165    1.3528    1.4378 H   0  0  0  0  0  0  0  0  0  0  0  0
   -2.4694    2.5315    1.6522 H   0  0  0  0  0  0  0  0  0  0  0  0
   -2.4387    0.3555   -1.3418 C   0  0  0  0  0  0  0  0  0  0  0  0
   -1.6438    0.1164   -2.6404 C   0  0  0  0  0  0  0  0  0  0  0  0
   -2.3490    0.1160   -3.4981 H   0  0  0  0  0  0  0  0  0  0  0  0
   -1.1154   -0.8580   -2.6206 H   0  0  0  0  0  0  0  0  0  0  0  0
   -0.8923    0.9129   -2.8108 H   0  0  0  0  0  0  0  0  0  0  0  0
   -3.4083   -0.8172   -1.1131 C   0  0  0  0  0  0  0  0  0  0  0  0
   -4.0283   -0.9520   -2.0242 H   0  0  0  0  0  0  0  0  0  0  0  0
   -4.0984   -0.6308   -0.2677 H   0  0  0  0  0  0  0  0  0  0  0  0
   -2.8665   -1.7674   -0.9287 H   0  0  0  0  0  0  0  0  0  0  0  0
   -3.2061    1.6825   -1.4467 C   0  0  0  0  0  0  0  0  0  0  0  0
   -2.5266    2.5374   -1.6385 H   0  0  0  0  0  0  0  0  0  0  0  0
   -3.8054    1.9051   -0.5452 H   0  0  0  0  0  0  0  0  0  0  0  0
   -3.9063    1.6233   -2.3067 H   0  0  0  0  0  0  0  0  0  0  0  0
  1 13  1  0  0  0  0
  2  3  1  0  0  0  0
  2  1  1  0  0  0  0
  3 12  1  0  0  0  0
  4  6  1  0  0  0  0
  4  3  2  0  0  0  0
  5  4  1  0  0  0  0
  6  8  2  0  0  0  0
  7  6  1  0  0  0  0
  8  9  1  0  0  0  0
  8 10  1  0  0  0  0
 10 11  1  0  0  0  0
 12 10  2  0  0  0  0
 13 22  1  0  0  0  0
 13 14  1  0  0  0  0
 13 18  1  0  0  0  0
 14 17  1  0  0  0  0
 15 14  1  0  0  0  0
 16 14  1  0  0  0  0
 18 21  1  0  0  0  0
 19 18  1  0  0  0  0
 20 18  1  0  0  0  0
 22 23  1  0  0  0  0
 24 22  1  0  0  0  0
 25 22  1  0  0  0  0
 26 31  1  0  0  0  0
 26  1  1  0  0  0  0
 27 29  1  0  0  0  0
 27 26  1  0  0  0  0
 28 27  1  0  0  0  0
 30 27  1  0  0  0  0
 31 34  1  0  0  0  0
 31 33  1  0  0  0  0
 32 31  1  0  0  0  0
 35 26  1  0  0  0  0
 35 37  1  0  0  0  0
 36 35  1  0  0  0  0
 38 35  1  0  0  0  0
M  END
