1
 OpenBabel05122313063D

 39 42  0  0  1  0  0  0  0  0999 V2000
    1.7393    0.2773   -0.0884 P   0  0  2  0  0  0  0  0  0  0  0  0
    3.0821    2.6673    0.2800 N   0  0  0  0  0  0  0  0  0  0  0  0
    4.2209    0.6967    1.1946 N   0  0  2  0  0  0  0  0  0  0  0  0
    4.1784    1.0786   -1.2347 N   0  0  2  0  0  0  0  0  0  0  0  0
    0.9682    4.3271    0.5603 N   0  0  0  0  0  0  0  0  0  0  0  0
    1.9804    4.4941    0.6391 H   0  0  0  0  0  0  0  0  0  0  0  0
    0.4456    5.0563    0.0700 H   0  0  0  0  0  0  0  0  0  0  0  0
   -4.7026    2.1355   -1.2803 O   0  0  0  0  0  0  0  0  0  0  0  0
    1.7463    2.1074    0.1487 C   0  0  0  0  0  0  0  0  0  0  0  0
    3.0341   -0.1437    1.2410 C   0  0  0  0  0  0  0  0  0  0  0  0
    2.5440   -0.0728    2.2340 H   0  0  0  0  0  0  0  0  0  0  0  0
    3.3079   -1.2068    1.0788 H   0  0  0  0  0  0  0  0  0  0  0  0
    2.9935    0.2768   -1.5250 C   0  0  0  0  0  0  0  0  0  0  0  0
    3.2841   -0.7758   -1.7168 H   0  0  0  0  0  0  0  0  0  0  0  0
    2.4803    0.6585   -2.4323 H   0  0  0  0  0  0  0  0  0  0  0  0
    3.8687    2.1016    1.3936 C   0  0  0  0  0  0  0  0  0  0  0  0
    3.2898    2.2092    2.3325 H   0  0  0  0  0  0  0  0  0  0  0  0
    4.8061    2.6915    1.4838 H   0  0  0  0  0  0  0  0  0  0  0  0
    4.9291    0.5549   -0.0846 C   0  0  0  0  0  0  0  0  0  0  0  0
    5.8866    1.1130   -0.0149 H   0  0  0  0  0  0  0  0  0  0  0  0
    5.1572   -0.5166   -0.2562 H   0  0  0  0  0  0  0  0  0  0  0  0
    3.8478    2.4760   -0.9755 C   0  0  0  0  0  0  0  0  0  0  0  0
    3.2529    2.8841   -1.8168 H   0  0  0  0  0  0  0  0  0  0  0  0
    4.7948    3.0519   -0.8921 H   0  0  0  0  0  0  0  0  0  0  0  0
    0.7111    3.0246    0.1593 C   0  0  0  0  0  0  0  0  0  0  0  0
   -0.6898    2.7510   -0.2214 C   0  0  0  0  0  0  0  0  0  0  0  0
   -1.7611    3.3808    0.4619 C   0  0  0  0  0  0  0  0  0  0  0  0
   -1.5345    4.0258    1.3240 H   0  0  0  0  0  0  0  0  0  0  0  0
   -3.0853    3.1731    0.0775 C   0  0  0  0  0  0  0  0  0  0  0  0
   -3.9198    3.6423    0.6184 H   0  0  0  0  0  0  0  0  0  0  0  0
   -3.3847    2.3221   -1.0115 C   0  0  0  0  0  0  0  0  0  0  0  0
   -2.3311    1.7164   -1.7270 C   0  0  0  0  0  0  0  0  0  0  0  0
   -2.5205    1.0645   -2.5889 H   0  0  0  0  0  0  0  0  0  0  0  0
   -1.0027    1.9466   -1.3360 C   0  0  0  0  0  0  0  0  0  0  0  0
   -0.1894    1.5022   -1.9249 H   0  0  0  0  0  0  0  0  0  0  0  0
   -5.0536    1.2430   -2.3272 C   0  0  0  0  0  0  0  0  0  0  0  0
   -6.1580    1.2140   -2.3541 H   0  0  0  0  0  0  0  0  0  0  0  0
   -4.6743    1.5939   -3.3119 H   0  0  0  0  0  0  0  0  0  0  0  0
   -4.6649    0.2176   -2.1395 H   0  0  0  0  0  0  0  0  0  0  0  0
  1  9  1  1  0  0  0
  1 10  1  0  0  0  0
  2 16  1  0  0  0  0
  3 19  1  6  0  0  0
  3 10  1  0  0  0  0
  3 16  1  0  0  0  0
  4 13  1  1  0  0  0
  4 22  1  0  0  0  0
  4 19  1  0  0  0  0
  5  6  1  0  0  0  0
  7  5  1  0  0  0  0
  8 31  1  0  0  0  0
  9 25  2  0  0  0  0
  9  2  1  0  0  0  0
 10 11  1  0  0  0  0
 12 10  1  0  0  0  0
 13  1  1  0  0  0  0
 14 13  1  0  0  0  0
 15 13  1  0  0  0  0
 16 18  1  0  0  0  0
 16 17  1  0  0  0  0
 19 20  1  0  0  0  0
 21 19  1  0  0  0  0
 22 24  1  0  0  0  0
 22  2  1  0  0  0  0
 23 22  1  0  0  0  0
 25  5  1  0  0  0  0
 26 25  1  0  0  0  0
 26 27  1  0  0  0  0
 27 28  1  0  0  0  0
 29 27  2  0  0  0  0
 29 30  1  0  0  0  0
 31 29  1  0  0  0  0
 32 34  1  0  0  0  0
 32 31  2  0  0  0  0
 33 32  1  0  0  0  0
 34 26  2  0  0  0  0
 35 34  1  0  0  0  0
 36 39  1  0  0  0  0
 36  8  1  0  0  0  0
 37 36  1  0  0  0  0
 38 36  1  0  0  0  0
M  END
