1
 OpenBabel05122313063D

 37 39  0  0  0  0  0  0  0  0999 V2000
    0.8503   -0.0805   -0.0594 P   0  0  0  0  0  0  0  0  0  0  0  0
    7.8340   -0.4093    1.9769 N   0  0  0  0  0  0  0  0  0  0  0  0
   -3.5368   -2.9480    4.9814 N   0  0  0  0  0  0  0  0  0  0  0  0
   -0.3296    7.0592    0.8552 N   0  0  0  0  0  0  0  0  0  0  0  0
    2.5998   -0.2194    0.5339 C   0  0  0  0  0  0  0  0  0  0  0  0
    3.6084    0.1336   -0.3884 C   0  0  0  0  0  0  0  0  0  0  0  0
    3.3339    0.4471   -1.4067 H   0  0  0  0  0  0  0  0  0  0  0  0
    4.9559    0.0917   -0.0239 C   0  0  0  0  0  0  0  0  0  0  0  0
    5.7362    0.3681   -0.7468 H   0  0  0  0  0  0  0  0  0  0  0  0
    5.3223   -0.3175    1.2801 C   0  0  0  0  0  0  0  0  0  0  0  0
    4.3166   -0.6711    2.2078 C   0  0  0  0  0  0  0  0  0  0  0  0
    4.6003   -0.9833    3.2229 H   0  0  0  0  0  0  0  0  0  0  0  0
    2.9681   -0.6153    1.8357 C   0  0  0  0  0  0  0  0  0  0  0  0
    2.1982   -0.8775    2.5752 H   0  0  0  0  0  0  0  0  0  0  0  0
    6.7039   -0.3696    1.6613 C   0  0  0  0  0  0  0  0  0  0  0  0
   -0.1554   -0.7325    1.3480 C   0  0  0  0  0  0  0  0  0  0  0  0
    0.0338   -2.0639    1.7809 C   0  0  0  0  0  0  0  0  0  0  0  0
    0.8445   -2.6730    1.3550 H   0  0  0  0  0  0  0  0  0  0  0  0
   -0.8135   -2.6328    2.7358 C   0  0  0  0  0  0  0  0  0  0  0  0
   -0.6605   -3.6697    3.0663 H   0  0  0  0  0  0  0  0  0  0  0  0
   -1.8895   -1.8802    3.2648 C   0  0  0  0  0  0  0  0  0  0  0  0
   -2.0862   -0.5489    2.8322 C   0  0  0  0  0  0  0  0  0  0  0  0
   -2.9236    0.0351    3.2397 H   0  0  0  0  0  0  0  0  0  0  0  0
   -1.2234    0.0155    1.8868 C   0  0  0  0  0  0  0  0  0  0  0  0
   -1.3878    1.0507    1.5568 H   0  0  0  0  0  0  0  0  0  0  0  0
   -2.7890   -2.4680    4.2138 C   0  0  0  0  0  0  0  0  0  0  0  0
    0.5965    1.7526    0.1461 C   0  0  0  0  0  0  0  0  0  0  0  0
    1.2391    2.4557    1.1877 C   0  0  0  0  0  0  0  0  0  0  0  0
    1.9289    1.9304    1.8646 H   0  0  0  0  0  0  0  0  0  0  0  0
    1.0120    3.8226    1.3734 C   0  0  0  0  0  0  0  0  0  0  0  0
    1.5140    4.3654    2.1869 H   0  0  0  0  0  0  0  0  0  0  0  0
    0.1318    4.5154    0.5092 C   0  0  0  0  0  0  0  0  0  0  0  0
   -0.5059    3.8170   -0.5411 C   0  0  0  0  0  0  0  0  0  0  0  0
   -1.1803    4.3572   -1.2210 H   0  0  0  0  0  0  0  0  0  0  0  0
   -0.2730    2.4483   -0.7160 C   0  0  0  0  0  0  0  0  0  0  0  0
   -0.7804    1.9018   -1.5221 H   0  0  0  0  0  0  0  0  0  0  0  0
   -0.1158    5.9155    0.6981 C   0  0  0  0  0  0  0  0  0  0  0  0
  1 27  1  0  0  0  0
  1  5  1  0  0  0  0
  1 16  1  0  0  0  0
  5 13  1  0  0  0  0
  6  8  1  0  0  0  0
  6  5  2  0  0  0  0
  7  6  1  0  0  0  0
  8 10  2  0  0  0  0
  9  8  1  0  0  0  0
 10 15  1  0  0  0  0
 10 11  1  0  0  0  0
 11 12  1  0  0  0  0
 13 11  2  0  0  0  0
 13 14  1  0  0  0  0
 15  2  3  0  0  0  0
 16 17  2  0  0  0  0
 16 24  1  0  0  0  0
 17 19  1  0  0  0  0
 18 17  1  0  0  0  0
 19 20  1  0  0  0  0
 19 21  2  0  0  0  0
 21 26  1  0  0  0  0
 22 23  1  0  0  0  0
 22 21  1  0  0  0  0
 24 22  2  0  0  0  0
 25 24  1  0  0  0  0
 26  3  3  0  0  0  0
 27 28  1  0  0  0  0
 28 30  2  0  0  0  0
 28 29  1  0  0  0  0
 30 31  1  0  0  0  0
 32 37  1  0  0  0  0
 32 30  1  0  0  0  0
 33 32  2  0  0  0  0
 34 33  1  0  0  0  0
 35 33  1  0  0  0  0
 35 27  2  0  0  0  0
 36 35  1  0  0  0  0
 37  4  3  0  0  0  0
M  END
