22
 OpenBabel05122313063D

 23 24  0  0  1  0  0  0  0  0999 V2000
   -1.2337   -2.5307    3.3845 Cl  0  0  0  0  0  0  0  0  0  0  0  0
   -2.4773    0.1193    3.3756 Cl  0  0  0  0  0  0  0  0  0  0  0  0
   -3.8155   -2.1312    2.0566 Cl  0  0  0  0  0  0  0  0  0  0  0  0
   -2.5066   -2.8469   -1.7223 Cl  0  0  0  0  0  0  0  0  0  0  0  0
   -1.0484   -1.5938   -3.9282 Cl  0  0  0  0  0  0  0  0  0  0  0  0
   -3.6434   -0.5182   -3.0932 Cl  0  0  0  0  0  0  0  0  0  0  0  0
   -2.1792    3.0580   -1.7422 Cl  0  0  0  0  0  0  0  0  0  0  0  0
   -3.4933    3.1720    0.8754 Cl  0  0  0  0  0  0  0  0  0  0  0  0
   -0.7839    4.2403    0.5417 Cl  0  0  0  0  0  0  0  0  0  0  0  0
   -1.5314   -1.1080    1.0894 C   0  0  2  0  0  0  0  0  0  0  0  0
   -1.5155   -2.0720    0.5377 H   0  0  0  0  0  0  0  0  0  0  0  0
   -2.2220   -1.3944    2.4290 C   0  0  0  0  0  0  0  0  0  0  0  0
   -1.4433   -0.3022   -1.5706 C   0  0  2  0  0  0  0  0  0  0  0  0
   -1.3476    0.6540   -2.1279 H   0  0  0  0  0  0  0  0  0  0  0  0
   -2.1209   -1.2873   -2.5331 C   0  0  0  0  0  0  0  0  0  0  0  0
   -1.3659    1.5898    0.4549 C   0  0  2  0  0  0  0  0  0  0  0  0
   -1.3507    1.5934    1.5657 H   0  0  0  0  0  0  0  0  0  0  0  0
   -1.9188    2.9599    0.0388 C   0  0  0  0  0  0  0  0  0  0  0  0
   -0.1907   -0.6776    1.3400 O   0  0  0  0  0  0  0  0  0  0  0  0
   -0.1457   -0.8028   -1.2368 O   0  0  0  0  0  0  0  0  0  0  0  0
   -0.0338    1.4560   -0.0473 O   0  0  0  0  0  0  0  0  0  0  0  0
    0.6170   -0.0650    0.0327 P   0  0  1  0  0  0  0  0  0  0  0  0
   -2.5093    0.1183   -0.0270 P   0  0  2  0  0  0  0  0  0  0  0  0
  3 12  1  0  0  0  0
  5 15  1  0  0  0  0
  6 15  1  0  0  0  0
  7 18  1  0  0  0  0
 10 11  1  6  0  0  0
 10 19  1  0  0  0  0
 10 12  1  0  0  0  0
 12  2  1  0  0  0  0
 12  1  1  0  0  0  0
 13 14  1  6  0  0  0
 13 20  1  0  0  0  0
 13 23  1  0  0  0  0
 15  4  1  0  0  0  0
 15 13  1  0  0  0  0
 16 17  1  1  0  0  0
 18 16  1  0  0  0  0
 18  9  1  0  0  0  0
 18  8  1  0  0  0  0
 21 22  1  0  0  0  0
 21 16  1  0  0  0  0
 22 20  1  6  0  0  0
 22 19  1  0  0  0  0
 23 16  1  0  0  0  0
 23 10  1  0  0  0  0
M  END
