1
 OpenBabel05122313063D

 31 30  0  0  0  0  0  0  0  0999 V2000
    0.4485   -0.4742    0.5837 P   0  0  0  0  0  0  0  0  0  0  0  0
    2.3937    1.9229   -0.0100 Si  0  0  0  0  0  0  0  0  0  0  0  0
    3.4054   -1.1398   -0.5587 Si  0  0  0  0  0  0  0  0  0  0  0  0
    1.8907    0.0673   -0.3836 C   0  0  0  0  0  0  0  0  0  0  0  0
    1.4493    0.1146   -1.4072 H   0  0  0  0  0  0  0  0  0  0  0  0
    0.9936    3.0048    0.6551 C   0  0  0  0  0  0  0  0  0  0  0  0
    0.6151    2.6687    1.6381 H   0  0  0  0  0  0  0  0  0  0  0  0
    0.1422    3.0892   -0.0455 H   0  0  0  0  0  0  0  0  0  0  0  0
    1.4144    4.0243    0.7870 H   0  0  0  0  0  0  0  0  0  0  0  0
    2.8969    2.6613   -1.6761 C   0  0  0  0  0  0  0  0  0  0  0  0
    2.0306    2.6513   -2.3691 H   0  0  0  0  0  0  0  0  0  0  0  0
    3.7405    2.1348   -2.1593 H   0  0  0  0  0  0  0  0  0  0  0  0
    3.1941    3.7202   -1.5279 H   0  0  0  0  0  0  0  0  0  0  0  0
    3.7926    1.9885    1.2592 C   0  0  0  0  0  0  0  0  0  0  0  0
    3.4626    1.5402    2.2170 H   0  0  0  0  0  0  0  0  0  0  0  0
    4.0488    3.0511    1.4508 H   0  0  0  0  0  0  0  0  0  0  0  0
    4.7149    1.4724    0.9320 H   0  0  0  0  0  0  0  0  0  0  0  0
    4.8302   -0.2780   -1.4670 C   0  0  0  0  0  0  0  0  0  0  0  0
    4.5339    0.0278   -2.4906 H   0  0  0  0  0  0  0  0  0  0  0  0
    5.6500   -1.0198   -1.5708 H   0  0  0  0  0  0  0  0  0  0  0  0
    5.2449    0.6049   -0.9450 H   0  0  0  0  0  0  0  0  0  0  0  0
    4.0064   -1.7138    1.1341 C   0  0  0  0  0  0  0  0  0  0  0  0
    3.2052   -2.2198    1.7050 H   0  0  0  0  0  0  0  0  0  0  0  0
    4.3768   -0.8621    1.7374 H   0  0  0  0  0  0  0  0  0  0  0  0
    4.8437   -2.4300    1.0020 H   0  0  0  0  0  0  0  0  0  0  0  0
    2.9092   -2.5649   -1.6994 C   0  0  0  0  0  0  0  0  0  0  0  0
    2.6206   -2.1699   -2.6959 H   0  0  0  0  0  0  0  0  0  0  0  0
    2.0680   -3.1661   -1.3093 H   0  0  0  0  0  0  0  0  0  0  0  0
    3.7804   -3.2366   -1.8480 H   0  0  0  0  0  0  0  0  0  0  0  0
    0.5902   -2.5832    0.8271 Cl  0  0  0  0  0  0  0  0  0  0  0  0
    0.9735    0.0354    2.5616 Cl  0  0  0  0  0  0  0  0  0  0  0  0
  1 30  1  0  0  0  0
  1 31  1  0  0  0  0
  2  6  1  0  0  0  0
  2 14  1  0  0  0  0
  3  4  1  0  0  0  0
  3 22  1  0  0  0  0
  4  2  1  0  0  0  0
  4  1  1  0  0  0  0
  5  4  1  0  0  0  0
  6  9  1  0  0  0  0
  6  7  1  0  0  0  0
  8  6  1  0  0  0  0
 10 13  1  0  0  0  0
 10  2  1  0  0  0  0
 11 10  1  0  0  0  0
 12 10  1  0  0  0  0
 14 16  1  0  0  0  0
 14 15  1  0  0  0  0
 17 14  1  0  0  0  0
 18 21  1  0  0  0  0
 18  3  1  0  0  0  0
 19 18  1  0  0  0  0
 20 18  1  0  0  0  0
 22 23  1  0  0  0  0
 22 24  1  0  0  0  0
 25 22  1  0  0  0  0
 26 28  1  0  0  0  0
 26  3  1  0  0  0  0
 27 26  1  0  0  0  0
 29 26  1  0  0  0  0
M  END
