1
 OpenBabel05122313063D

 27 31  0  0  1  0  0  0  0  0999 V2000
    0.4351   -0.0088   -0.2829 P   0  0  1  0  0  0  0  0  0  0  0  0
    1.8748   -0.0023    0.9759 C   0  0  2  0  0  0  0  0  0  0  0  0
    1.5336   -0.0039    2.0281 H   0  0  0  0  0  0  0  0  0  0  0  0
    2.7175    1.2092    0.5920 C   0  0  0  0  0  0  0  0  0  0  0  0
    2.6209    1.5462   -0.7824 C   0  0  0  0  0  0  0  0  0  0  0  0
    1.5836    0.7733   -1.5238 C   0  0  1  0  0  0  0  0  0  0  0  0
    1.1558    1.2318   -2.4301 H   0  0  0  0  0  0  0  0  0  0  0  0
    1.5899   -0.7835   -1.5230 C   0  0  1  0  0  0  0  0  0  0  0  0
    1.1670   -1.2467   -2.4292 H   0  0  0  0  0  0  0  0  0  0  0  0
    2.6337   -1.5466   -0.7807 C   0  0  0  0  0  0  0  0  0  0  0  0
    2.7280   -1.2067    0.5931 C   0  0  0  0  0  0  0  0  0  0  0  0
    3.6217   -1.8829    1.4307 C   0  0  0  0  0  0  0  0  0  0  0  0
    3.6945   -1.6135    2.4957 H   0  0  0  0  0  0  0  0  0  0  0  0
    4.4143   -2.9183    0.9017 C   0  0  0  0  0  0  0  0  0  0  0  0
    5.1011   -3.4704    1.5608 H   0  0  0  0  0  0  0  0  0  0  0  0
    4.3258   -3.2551   -0.4579 C   0  0  0  0  0  0  0  0  0  0  0  0
    4.9467   -4.0681   -0.8631 H   0  0  0  0  0  0  0  0  0  0  0  0
    3.4382   -2.5682   -1.3056 C   0  0  0  0  0  0  0  0  0  0  0  0
    3.3627   -2.8385   -2.3699 H   0  0  0  0  0  0  0  0  0  0  0  0
    3.4168    2.5740   -1.3084 C   0  0  0  0  0  0  0  0  0  0  0  0
    3.3393    2.8422   -2.3731 H   0  0  0  0  0  0  0  0  0  0  0  0
    4.2979    3.2698   -0.4613 C   0  0  0  0  0  0  0  0  0  0  0  0
    4.9118    4.0878   -0.8673 H   0  0  0  0  0  0  0  0  0  0  0  0
    4.3887    2.9359    0.8989 C   0  0  0  0  0  0  0  0  0  0  0  0
    5.0703    3.4949    1.5574 H   0  0  0  0  0  0  0  0  0  0  0  0
    3.6050    1.8943    1.4290 C   0  0  0  0  0  0  0  0  0  0  0  0
    3.6797    1.6270    2.4944 H   0  0  0  0  0  0  0  0  0  0  0  0
  1  2  1  0  0  0  0
  2  3  1  0  0  0  0
  4  2  1  0  0  0  0
  4 26  1  0  0  0  0
  5  4  2  0  0  0  0
  6  7  1  6  0  0  0
  6  8  1  0  0  0  0
  6  5  1  0  0  0  0
  6  1  1  0  0  0  0
  8  9  1  6  0  0  0
  8 10  1  0  0  0  0
  8  1  1  0  0  0  0
 10 11  1  0  0  0  0
 11  2  1  0  0  0  0
 11 12  2  0  0  0  0
 12 13  1  0  0  0  0
 14 12  1  0  0  0  0
 14 15  1  0  0  0  0
 16 14  2  0  0  0  0
 17 16  1  0  0  0  0
 18 10  2  0  0  0  0
 18 16  1  0  0  0  0
 19 18  1  0  0  0  0
 20  5  1  0  0  0  0
 20 22  2  0  0  0  0
 21 20  1  0  0  0  0
 22 24  1  0  0  0  0
 23 22  1  0  0  0  0
 24 26  2  0  0  0  0
 24 25  1  0  0  0  0
 26 27  1  0  0  0  0
M  END
