2
 OpenBabel05122313063D

 51 56  0  0  1  0  0  0  0  0999 V2000
   -1.6703    0.4755   -1.6482 S   0  0  0  0  0  0  0  0  0  0  0  0
   -0.2379    0.2571   -0.0740 P   0  0  2  0  0  0  0  0  0  0  0  0
   -3.0746    0.2035   -0.5630 C   0  0  0  0  0  0  0  0  0  0  0  0
   -2.8241   -0.3241    0.6641 C   0  0  0  0  0  0  0  0  0  0  0  0
   -3.6511   -0.5038    1.3694 H   0  0  0  0  0  0  0  0  0  0  0  0
   -1.4288   -0.6586    1.1514 C   0  0  2  0  0  0  0  0  0  0  0  0
   -1.1873    0.0993    2.4596 C   0  0  0  0  0  0  0  0  0  0  0  0
   -1.5400   -0.4011    3.7257 C   0  0  0  0  0  0  0  0  0  0  0  0
   -1.9454   -1.4198    3.8163 H   0  0  0  0  0  0  0  0  0  0  0  0
   -1.3595    0.3941    4.8662 C   0  0  0  0  0  0  0  0  0  0  0  0
   -1.6285   -0.0023    5.8569 H   0  0  0  0  0  0  0  0  0  0  0  0
   -0.8331    1.6915    4.7453 C   0  0  0  0  0  0  0  0  0  0  0  0
   -0.6917    2.3147    5.6412 H   0  0  0  0  0  0  0  0  0  0  0  0
   -0.4898    2.1986    3.4839 C   0  0  0  0  0  0  0  0  0  0  0  0
   -0.0837    3.2160    3.3853 H   0  0  0  0  0  0  0  0  0  0  0  0
   -0.6713    1.4079    2.3349 C   0  0  0  0  0  0  0  0  0  0  0  0
   -0.4225    1.8893    0.9201 C   0  0  1  0  0  0  0  0  0  0  0  0
   -1.3715    2.3091    0.5202 H   0  0  0  0  0  0  0  0  0  0  0  0
   -4.4106    0.5265   -1.1064 C   0  0  0  0  0  0  0  0  0  0  0  0
   -5.5556   -0.1770   -0.6636 C   0  0  0  0  0  0  0  0  0  0  0  0
   -5.4407   -0.9970    0.0607 H   0  0  0  0  0  0  0  0  0  0  0  0
   -6.8254    0.1413   -1.1589 C   0  0  0  0  0  0  0  0  0  0  0  0
   -7.7034   -0.4204   -0.8055 H   0  0  0  0  0  0  0  0  0  0  0  0
   -6.9790    1.1598   -2.1148 C   0  0  0  0  0  0  0  0  0  0  0  0
   -7.9774    1.4036   -2.5079 H   0  0  0  0  0  0  0  0  0  0  0  0
   -5.8497    1.8553   -2.5729 C   0  0  0  0  0  0  0  0  0  0  0  0
   -5.9585    2.6519   -3.3243 H   0  0  0  0  0  0  0  0  0  0  0  0
   -4.5775    1.5409   -2.0765 C   0  0  0  0  0  0  0  0  0  0  0  0
   -3.6945    2.0943   -2.4313 H   0  0  0  0  0  0  0  0  0  0  0  0
    0.6808    2.8888    0.7089 C   0  0  0  0  0  0  0  0  0  0  0  0
    1.8802    2.8370    1.4521 C   0  0  0  0  0  0  0  0  0  0  0  0
    2.0206    2.0485    2.2056 H   0  0  0  0  0  0  0  0  0  0  0  0
    2.8885    3.7879    1.2437 C   0  0  0  0  0  0  0  0  0  0  0  0
    3.8162    3.7347    1.8332 H   0  0  0  0  0  0  0  0  0  0  0  0
    2.7236    4.7942    0.2792 C   0  0  0  0  0  0  0  0  0  0  0  0
    3.5192    5.5356    0.1119 H   0  0  0  0  0  0  0  0  0  0  0  0
    1.5429    4.8439   -0.4779 C   0  0  0  0  0  0  0  0  0  0  0  0
    1.4089    5.6249   -1.2414 H   0  0  0  0  0  0  0  0  0  0  0  0
    0.5294    3.9000   -0.2618 C   0  0  0  0  0  0  0  0  0  0  0  0
   -0.3990    3.9411   -0.8532 H   0  0  0  0  0  0  0  0  0  0  0  0
   -1.1648   -2.1544    1.2284 C   0  0  0  0  0  0  0  0  0  0  0  0
   -0.1455   -2.6674    2.0605 C   0  0  0  0  0  0  0  0  0  0  0  0
    0.4687   -1.9793    2.6587 H   0  0  0  0  0  0  0  0  0  0  0  0
    0.0854   -4.0471    2.1364 C   0  0  0  0  0  0  0  0  0  0  0  0
    0.8829   -4.4290    2.7916 H   0  0  0  0  0  0  0  0  0  0  0  0
   -0.6871   -4.9369    1.3731 C   0  0  0  0  0  0  0  0  0  0  0  0
   -0.5014   -6.0199    1.4298 H   0  0  0  0  0  0  0  0  0  0  0  0
   -1.6853   -4.4352    0.5252 C   0  0  0  0  0  0  0  0  0  0  0  0
   -2.2846   -5.1233   -0.0900 H   0  0  0  0  0  0  0  0  0  0  0  0
   -1.9219   -3.0545    0.4529 C   0  0  0  0  0  0  0  0  0  0  0  0
   -2.7026   -2.6623   -0.2158 H   0  0  0  0  0  0  0  0  0  0  0  0
  1  3  1  0  0  0  0
  2  1  1  6  0  0  0
  2 17  1  0  0  0  0
  2  6  1  0  0  0  0
  3  4  2  0  0  0  0
  4  6  1  0  0  0  0
  4  5  1  0  0  0  0
  6 41  1  1  0  0  0
  6  7  1  0  0  0  0
  7  8  1  0  0  0  0
  8  9  1  0  0  0  0
  8 10  2  0  0  0  0
 10 11  1  0  0  0  0
 12 10  1  0  0  0  0
 12 13  1  0  0  0  0
 14 12  2  0  0  0  0
 15 14  1  0  0  0  0
 16  7  2  0  0  0  0
 16 14  1  0  0  0  0
 17 18  1  6  0  0  0
 17 16  1  0  0  0  0
 19 20  1  0  0  0  0
 19  3  1  0  0  0  0
 20 21  1  0  0  0  0
 22 23  1  0  0  0  0
 22 20  2  0  0  0  0
 24 22  1  0  0  0  0
 25 24  1  0  0  0  0
 26 24  2  0  0  0  0
 26 28  1  0  0  0  0
 27 26  1  0  0  0  0
 28 19  2  0  0  0  0
 29 28  1  0  0  0  0
 30 17  1  0  0  0  0
 30 31  1  0  0  0  0
 31 32  1  0  0  0  0
 33 31  2  0  0  0  0
 33 34  1  0  0  0  0
 35 33  1  0  0  0  0
 36 35  1  0  0  0  0
 37 39  1  0  0  0  0
 37 35  2  0  0  0  0
 38 37  1  0  0  0  0
 39 30  2  0  0  0  0
 40 39  1  0  0  0  0
 41 42  1  0  0  0  0
 42 44  2  0  0  0  0
 42 43  1  0  0  0  0
 44 45  1  0  0  0  0
 46 47  1  0  0  0  0
 46 44  1  0  0  0  0
 48 46  2  0  0  0  0
 49 48  1  0  0  0  0
 50 48  1  0  0  0  0
 50 41  2  0  0  0  0
 51 50  1  0  0  0  0
M  END
