1
 OpenBabel05122313063D

 51 56  0  0  1  0  0  0  0  0999 V2000
   -0.0315   -0.3018    0.0242 P   0  0  1  0  0  0  0  0  0  0  0  0
   -1.6438   -1.6835    0.1863 S   0  0  0  0  0  0  0  0  0  0  0  0
   -2.8302   -0.6627   -0.6653 C   0  0  0  0  0  0  0  0  0  0  0  0
   -2.3960    0.5385   -1.1366 C   0  0  0  0  0  0  0  0  0  0  0  0
   -3.0735    1.1810   -1.7195 H   0  0  0  0  0  0  0  0  0  0  0  0
   -1.0246    1.0483   -0.8646 C   0  0  1  0  0  0  0  0  0  0  0  0
   -0.7052    1.3526    0.6472 C   0  0  0  0  0  0  0  0  0  0  0  0
   -4.1987   -1.1989   -0.7910 C   0  0  0  0  0  0  0  0  0  0  0  0
   -4.7597   -1.9979    0.2311 C   0  0  0  0  0  0  0  0  0  0  0  0
   -4.1660   -2.2129    1.1328 H   0  0  0  0  0  0  0  0  0  0  0  0
   -6.0683   -2.4863    0.1177 C   0  0  0  0  0  0  0  0  0  0  0  0
   -6.4904   -3.1019    0.9264 H   0  0  0  0  0  0  0  0  0  0  0  0
   -6.8389   -2.1877   -1.0164 C   0  0  0  0  0  0  0  0  0  0  0  0
   -7.8655   -2.5738   -1.1060 H   0  0  0  0  0  0  0  0  0  0  0  0
   -6.2894   -1.3980   -2.0405 C   0  0  0  0  0  0  0  0  0  0  0  0
   -6.8820   -1.1701   -2.9395 H   0  0  0  0  0  0  0  0  0  0  0  0
   -4.9815   -0.9107   -1.9330 C   0  0  0  0  0  0  0  0  0  0  0  0
   -4.5461   -0.3191   -2.7519 H   0  0  0  0  0  0  0  0  0  0  0  0
   -0.4683    1.8836   -1.9820 C   0  0  0  0  0  0  0  0  0  0  0  0
    0.1944    1.2669   -3.0606 C   0  0  0  0  0  0  0  0  0  0  0  0
    0.3436    0.1760   -3.0437 H   0  0  0  0  0  0  0  0  0  0  0  0
    0.6808    2.0363   -4.1273 C   0  0  0  0  0  0  0  0  0  0  0  0
    1.2127    1.5461   -4.9565 H   0  0  0  0  0  0  0  0  0  0  0  0
    0.4952    3.4280   -4.1318 C   0  0  0  0  0  0  0  0  0  0  0  0
    0.8807    4.0332   -4.9661 H   0  0  0  0  0  0  0  0  0  0  0  0
   -0.1801    4.0469   -3.0671 C   0  0  0  0  0  0  0  0  0  0  0  0
   -0.3257    5.1377   -3.0655 H   0  0  0  0  0  0  0  0  0  0  0  0
   -0.6580    3.2797   -1.9952 C   0  0  0  0  0  0  0  0  0  0  0  0
   -1.1622    3.7662   -1.1461 H   0  0  0  0  0  0  0  0  0  0  0  0
   -1.8648    1.3192    1.6057 C   0  0  0  0  0  0  0  0  0  0  0  0
   -1.8360    0.4900    2.7432 C   0  0  0  0  0  0  0  0  0  0  0  0
   -0.9656   -0.1634    2.9089 H   0  0  0  0  0  0  0  0  0  0  0  0
   -2.9009    0.4936    3.6570 C   0  0  0  0  0  0  0  0  0  0  0  0
   -2.8631   -0.1593    4.5420 H   0  0  0  0  0  0  0  0  0  0  0  0
   -4.0117    1.3229    3.4383 C   0  0  0  0  0  0  0  0  0  0  0  0
   -4.8518    1.3205    4.1493 H   0  0  0  0  0  0  0  0  0  0  0  0
   -4.0471    2.1580    2.3093 C   0  0  0  0  0  0  0  0  0  0  0  0
   -4.9127    2.8146    2.1346 H   0  0  0  0  0  0  0  0  0  0  0  0
   -2.9801    2.1553    1.4003 C   0  0  0  0  0  0  0  0  0  0  0  0
   -3.0080    2.8116    0.5170 H   0  0  0  0  0  0  0  0  0  0  0  0
    0.4025    2.3144    1.0014 C   0  0  0  0  0  0  0  0  0  0  0  0
    1.5301    2.5239    0.1711 C   0  0  0  0  0  0  0  0  0  0  0  0
    1.6030    2.0289   -0.8025 H   0  0  0  0  0  0  0  0  0  0  0  0
    2.5737    3.3720    0.5628 C   0  0  0  0  0  0  0  0  0  0  0  0
    3.4365    3.5019   -0.1079 H   0  0  0  0  0  0  0  0  0  0  0  0
    2.5224    4.0391    1.7949 C   0  0  0  0  0  0  0  0  0  0  0  0
    3.3446    4.7010    2.1057 H   0  0  0  0  0  0  0  0  0  0  0  0
    1.4075    3.8518    2.6257 C   0  0  0  0  0  0  0  0  0  0  0  0
    1.3472    4.3694    3.5951 H   0  0  0  0  0  0  0  0  0  0  0  0
    0.3624    3.0029    2.2365 C   0  0  0  0  0  0  0  0  0  0  0  0
   -0.4986    2.8669    2.9046 H   0  0  0  0  0  0  0  0  0  0  0  0
  1  2  1  1  0  0  0
  1  7  1  0  0  0  0
  3  2  1  0  0  0  0
  4  6  1  0  0  0  0
  4  3  2  0  0  0  0
  5  4  1  0  0  0  0
  6 19  1  6  0  0  0
  6  1  1  0  0  0  0
  6  7  1  0  0  0  0
  7 41  1  0  0  0  0
  7 30  1  0  0  0  0
  8  3  1  0  0  0  0
  8  9  1  0  0  0  0
  9 10  1  0  0  0  0
 11  9  2  0  0  0  0
 11 12  1  0  0  0  0
 13 11  1  0  0  0  0
 14 13  1  0  0  0  0
 15 17  1  0  0  0  0
 15 13  2  0  0  0  0
 16 15  1  0  0  0  0
 17  8  2  0  0  0  0
 18 17  1  0  0  0  0
 20 21  1  0  0  0  0
 20 19  2  0  0  0  0
 22 20  1  0  0  0  0
 23 22  1  0  0  0  0
 24 22  2  0  0  0  0
 24 26  1  0  0  0  0
 25 24  1  0  0  0  0
 26 27  1  0  0  0  0
 26 28  2  0  0  0  0
 28 19  1  0  0  0  0
 28 29  1  0  0  0  0
 30 31  1  0  0  0  0
 31 32  1  0  0  0  0
 31 33  2  0  0  0  0
 33 34  1  0  0  0  0
 35 33  1  0  0  0  0
 35 36  1  0  0  0  0
 37 35  2  0  0  0  0
 38 37  1  0  0  0  0
 39 30  2  0  0  0  0
 39 37  1  0  0  0  0
 40 39  1  0  0  0  0
 41 50  1  0  0  0  0
 42 44  1  0  0  0  0
 42 41  2  0  0  0  0
 43 42  1  0  0  0  0
 44 46  2  0  0  0  0
 45 44  1  0  0  0  0
 46 47  1  0  0  0  0
 46 48  1  0  0  0  0
 48 49  1  0  0  0  0
 50 48  2  0  0  0  0
 50 51  1  0  0  0  0
M  END
