1
 OpenBabel05122313063D

 58 61  0  0  0  0  0  0  0  0999 V2000
    0.9871    0.0842    0.1914 P   0  0  0  0  0  0  0  0  0  0  0  0
    0.5659    0.7344    1.8274 C   0  0  0  0  0  0  0  0  0  0  0  0
    1.4295    1.2225    2.8215 C   0  0  0  0  0  0  0  0  0  0  0  0
    2.5189    1.2973    2.7362 H   0  0  0  0  0  0  0  0  0  0  0  0
    0.6453    1.5728    3.9524 C   0  0  0  0  0  0  0  0  0  0  0  0
    1.0036    1.9897    4.9001 H   0  0  0  0  0  0  0  0  0  0  0  0
   -0.6780    1.2836    3.6339 C   0  0  0  0  0  0  0  0  0  0  0  0
   -1.6026    1.3948    4.2102 H   0  0  0  0  0  0  0  0  0  0  0  0
   -0.7255    0.7730    2.3571 N   0  0  0  0  0  0  0  0  0  0  0  0
   -1.9318    0.2985    1.7519 C   0  0  0  0  0  0  0  0  0  0  0  0
   -2.4232   -0.9721    2.0800 C   0  0  0  0  0  0  0  0  0  0  0  0
   -1.8449   -1.5872    2.7849 H   0  0  0  0  0  0  0  0  0  0  0  0
   -3.6061   -1.4482    1.4978 C   0  0  0  0  0  0  0  0  0  0  0  0
   -3.9755   -2.4545    1.7399 H   0  0  0  0  0  0  0  0  0  0  0  0
   -4.2920   -0.6383    0.5832 C   0  0  0  0  0  0  0  0  0  0  0  0
   -5.2040   -1.0099    0.0943 H   0  0  0  0  0  0  0  0  0  0  0  0
   -3.8201    0.6414    0.2570 C   0  0  0  0  0  0  0  0  0  0  0  0
   -4.3650    1.2455   -0.4791 H   0  0  0  0  0  0  0  0  0  0  0  0
   -2.6322    1.1260    0.8368 C   0  0  0  0  0  0  0  0  0  0  0  0
   -2.0770    2.3360    0.5730 O   0  0  0  0  0  0  0  0  0  0  0  0
   -2.6659    3.1332   -0.4412 C   0  0  0  0  0  0  0  0  0  0  0  0
   -2.0280    4.0307   -0.5395 H   0  0  0  0  0  0  0  0  0  0  0  0
   -3.6973    3.4493   -0.1693 H   0  0  0  0  0  0  0  0  0  0  0  0
   -2.6949    2.5960   -1.4144 H   0  0  0  0  0  0  0  0  0  0  0  0
    1.8335    1.4592   -0.7467 C   0  0  0  0  0  0  0  0  0  0  0  0
    2.1208    0.9564   -1.6987 H   0  0  0  0  0  0  0  0  0  0  0  0
    3.0953    2.0384   -0.0904 C   0  0  0  0  0  0  0  0  0  0  0  0
    3.8360    1.2382    0.1186 H   0  0  0  0  0  0  0  0  0  0  0  0
    2.8161    2.4862    0.8870 H   0  0  0  0  0  0  0  0  0  0  0  0
    3.7258    3.1261   -0.9741 C   0  0  0  0  0  0  0  0  0  0  0  0
    4.6228    3.5453   -0.4720 H   0  0  0  0  0  0  0  0  0  0  0  0
    4.0835    2.6660   -1.9226 H   0  0  0  0  0  0  0  0  0  0  0  0
    2.7188    4.2368   -1.2967 C   0  0  0  0  0  0  0  0  0  0  0  0
    2.4411    4.7598   -0.3539 H   0  0  0  0  0  0  0  0  0  0  0  0
    3.1821    5.0013   -1.9547 H   0  0  0  0  0  0  0  0  0  0  0  0
    1.4534    3.6637   -1.9462 C   0  0  0  0  0  0  0  0  0  0  0  0
    1.7123    3.2391   -2.9420 H   0  0  0  0  0  0  0  0  0  0  0  0
    0.7126    4.4692   -2.1352 H   0  0  0  0  0  0  0  0  0  0  0  0
    0.8183    2.5658   -1.0829 C   0  0  0  0  0  0  0  0  0  0  0  0
    0.4352    2.9988   -0.1331 H   0  0  0  0  0  0  0  0  0  0  0  0
   -0.0570    2.1182   -1.5983 H   0  0  0  0  0  0  0  0  0  0  0  0
    2.2923   -1.1920    0.5619 C   0  0  0  0  0  0  0  0  0  0  0  0
    3.0731   -0.6865    1.1742 H   0  0  0  0  0  0  0  0  0  0  0  0
    2.9274   -1.7308   -0.7317 C   0  0  0  0  0  0  0  0  0  0  0  0
    3.4267   -0.9136   -1.2930 H   0  0  0  0  0  0  0  0  0  0  0  0
    2.1150   -2.1145   -1.3897 H   0  0  0  0  0  0  0  0  0  0  0  0
    3.9321   -2.8544   -0.4377 C   0  0  0  0  0  0  0  0  0  0  0  0
    4.3421   -3.2477   -1.3912 H   0  0  0  0  0  0  0  0  0  0  0  0
    4.7961   -2.4334    0.1247 H   0  0  0  0  0  0  0  0  0  0  0  0
    3.2966   -3.9824    0.3839 C   0  0  0  0  0  0  0  0  0  0  0  0
    2.5009   -4.4707   -0.2219 H   0  0  0  0  0  0  0  0  0  0  0  0
    4.0478   -4.7682    0.6082 H   0  0  0  0  0  0  0  0  0  0  0  0
    2.6806   -3.4411    1.6796 C   0  0  0  0  0  0  0  0  0  0  0  0
    3.4892   -3.0437    2.3339 H   0  0  0  0  0  0  0  0  0  0  0  0
    2.1903   -4.2571    2.2503 H   0  0  0  0  0  0  0  0  0  0  0  0
    1.6663   -2.3258    1.3957 C   0  0  0  0  0  0  0  0  0  0  0  0
    1.2595   -1.9151    2.3431 H   0  0  0  0  0  0  0  0  0  0  0  0
    0.8003   -2.7400    0.8309 H   0  0  0  0  0  0  0  0  0  0  0  0
  1 42  1  0  0  0  0
  1  2  1  0  0  0  0
  2  9  1  0  0  0  0
  2  3  2  0  0  0  0
  3  5  1  0  0  0  0
  4  3  1  0  0  0  0
  5  6  1  0  0  0  0
  7  5  2  0  0  0  0
  7  8  1  0  0  0  0
  9  7  1  0  0  0  0
 10 11  1  0  0  0  0
 10  9  1  0  0  0  0
 11 12  1  0  0  0  0
 13 14  1  0  0  0  0
 13 11  2  0  0  0  0
 15 13  1  0  0  0  0
 16 15  1  0  0  0  0
 17 15  2  0  0  0  0
 17 19  1  0  0  0  0
 18 17  1  0  0  0  0
 19 10  2  0  0  0  0
 20 19  1  0  0  0  0
 21 23  1  0  0  0  0
 21 20  1  0  0  0  0
 22 21  1  0  0  0  0
 24 21  1  0  0  0  0
 25 27  1  0  0  0  0
 25  1  1  0  0  0  0
 26 25  1  0  0  0  0
 27 28  1  0  0  0  0
 27 29  1  0  0  0  0
 30 31  1  0  0  0  0
 30 27  1  0  0  0  0
 32 30  1  0  0  0  0
 33 30  1  0  0  0  0
 33 34  1  0  0  0  0
 35 33  1  0  0  0  0
 36 33  1  0  0  0  0
 36 39  1  0  0  0  0
 37 36  1  0  0  0  0
 38 36  1  0  0  0  0
 39 25  1  0  0  0  0
 39 40  1  0  0  0  0
 41 39  1  0  0  0  0
 42 43  1  0  0  0  0
 42 56  1  0  0  0  0
 44 47  1  0  0  0  0
 44 42  1  0  0  0  0
 45 44  1  0  0  0  0
 46 44  1  0  0  0  0
 47 49  1  0  0  0  0
 47 50  1  0  0  0  0
 48 47  1  0  0  0  0
 50 52  1  0  0  0  0
 50 53  1  0  0  0  0
 51 50  1  0  0  0  0
 53 55  1  0  0  0  0
 53 54  1  0  0  0  0
 56 53  1  0  0  0  0
 56 57  1  0  0  0  0
 58 56  1  0  0  0  0
M  END
