1
 OpenBabel05122313063D

 34 38  0  0  0  0  0  0  0  0999 V2000
    0.2369    0.4609   -1.1280 P   0  0  0  0  0  0  0  0  0  0  0  0
   -1.0320   -2.5263   -1.2934 C   0  0  0  0  0  0  0  0  0  0  0  0
   -0.0077   -2.2770   -1.6069 H   0  0  0  0  0  0  0  0  0  0  0  0
   -1.4813   -3.8370   -1.3892 C   0  0  0  0  0  0  0  0  0  0  0  0
   -0.8131   -4.6216   -1.7739 H   0  0  0  0  0  0  0  0  0  0  0  0
   -2.8015   -4.1526   -0.9961 C   0  0  0  0  0  0  0  0  0  0  0  0
   -3.1670   -5.1872   -1.0771 H   0  0  0  0  0  0  0  0  0  0  0  0
   -3.6448   -3.1597   -0.5051 C   0  0  0  0  0  0  0  0  0  0  0  0
   -4.6658   -3.4361   -0.2098 H   0  0  0  0  0  0  0  0  0  0  0  0
   -3.2127   -1.8130   -0.3798 C   0  0  0  0  0  0  0  0  0  0  0  0
   -1.8772   -1.4959   -0.7974 C   0  0  0  0  0  0  0  0  0  0  0  0
   -1.4522   -0.1288   -0.7480 C   0  0  0  0  0  0  0  0  0  0  0  0
   -2.2768    0.9202   -0.3335 C   0  0  0  0  0  0  0  0  0  0  0  0
   -3.5719    0.6015    0.2446 C   0  0  0  0  0  0  0  0  0  0  0  0
   -4.0496   -0.7581    0.1851 C   0  0  0  0  0  0  0  0  0  0  0  0
   -5.3301   -1.0465    0.7269 C   0  0  0  0  0  0  0  0  0  0  0  0
   -5.7156   -2.0737    0.6833 H   0  0  0  0  0  0  0  0  0  0  0  0
   -6.1058   -0.0701    1.3424 C   0  0  0  0  0  0  0  0  0  0  0  0
   -7.0912   -0.3318    1.7561 H   0  0  0  0  0  0  0  0  0  0  0  0
   -5.6071    1.2430    1.4663 C   0  0  0  0  0  0  0  0  0  0  0  0
   -6.1885    2.0103    1.9989 H   0  0  0  0  0  0  0  0  0  0  0  0
   -4.3657    1.5646    0.9281 C   0  0  0  0  0  0  0  0  0  0  0  0
   -3.9727    2.5748    1.0815 H   0  0  0  0  0  0  0  0  0  0  0  0
   -1.6693    2.2599   -0.5491 C   0  0  0  0  0  0  0  0  0  0  0  0
   -0.3100    2.1933   -0.9731 C   0  0  0  0  0  0  0  0  0  0  0  0
    0.4579    3.3361   -1.2150 C   0  0  0  0  0  0  0  0  0  0  0  0
    1.5144    3.2462   -1.5099 H   0  0  0  0  0  0  0  0  0  0  0  0
   -0.1412    4.5999   -1.0865 C   0  0  0  0  0  0  0  0  0  0  0  0
    0.4458    5.5103   -1.2777 H   0  0  0  0  0  0  0  0  0  0  0  0
   -1.4968    4.6911   -0.7346 C   0  0  0  0  0  0  0  0  0  0  0  0
   -1.9784    5.6782   -0.6664 H   0  0  0  0  0  0  0  0  0  0  0  0
   -2.2577    3.5415   -0.4687 C   0  0  0  0  0  0  0  0  0  0  0  0
   -3.3222    3.6611   -0.2368 H   0  0  0  0  0  0  0  0  0  0  0  0
    0.3367    0.3030   -2.5519 H   0  0  0  0  0  0  0  0  0  0  0  0
  1 25  1  0  0  0  0
  1 12  1  0  0  0  0
  2 11  1  0  0  0  0
  3  2  1  0  0  0  0
  4  2  2  0  0  0  0
  4  6  1  0  0  0  0
  5  4  1  0  0  0  0
  6  8  2  0  0  0  0
  7  6  1  0  0  0  0
  8 10  1  0  0  0  0
  8  9  1  0  0  0  0
 10 15  1  0  0  0  0
 11 12  1  0  0  0  0
 11 10  2  0  0  0  0
 12 13  2  0  0  0  0
 13 14  1  0  0  0  0
 14 22  1  0  0  0  0
 15 14  2  0  0  0  0
 15 16  1  0  0  0  0
 16 18  2  0  0  0  0
 17 16  1  0  0  0  0
 18 20  1  0  0  0  0
 18 19  1  0  0  0  0
 20 21  1  0  0  0  0
 22 23  1  0  0  0  0
 22 20  2  0  0  0  0
 24 32  1  0  0  0  0
 24 13  1  0  0  0  0
 25 24  2  0  0  0  0
 26 28  2  0  0  0  0
 26 25  1  0  0  0  0
 27 26  1  0  0  0  0
 28 30  1  0  0  0  0
 29 28  1  0  0  0  0
 30 31  1  0  0  0  0
 30 32  2  0  0  0  0
 32 33  1  0  0  0  0
 34  1  1  0  0  0  0
M  END
