1
 OpenBabel05122313063D

 63 68  0  0  1  0  0  0  0  0999 V2000
   -0.5087    0.1650   -0.1312 P   0  0  1  0  0  0  0  0  0  0  0  0
    2.2683    1.1661   -2.8959 F   0  0  0  0  0  0  0  0  0  0  0  0
    4.9264    0.7345   -2.6865 F   0  0  0  0  0  0  0  0  0  0  0  0
    5.8594   -1.5823   -1.5501 F   0  0  0  0  0  0  0  0  0  0  0  0
    4.0894   -3.4374   -0.5862 F   0  0  0  0  0  0  0  0  0  0  0  0
    1.4437   -2.9835   -0.6943 F   0  0  0  0  0  0  0  0  0  0  0  0
   -0.5232   -1.6110   -2.0789 O   0  0  0  0  0  0  0  0  0  0  0  0
   -1.9360   -0.6180   -0.5510 O   0  0  0  0  0  0  0  0  0  0  0  0
    0.3012   -0.5053   -1.7680 C   0  0  2  0  0  0  0  0  0  0  0  0
    0.1487    0.3065   -2.5080 H   0  0  0  0  0  0  0  0  0  0  0  0
   -1.8670   -1.2463   -1.8700 C   0  0  2  0  0  0  0  0  0  0  0  0
   -2.1900   -0.4850   -2.6160 H   0  0  0  0  0  0  0  0  0  0  0  0
    1.7534   -0.8564   -1.7374 C   0  0  0  0  0  0  0  0  0  0  0  0
    2.6884    0.0488   -2.2802 C   0  0  0  0  0  0  0  0  0  0  0  0
    4.0708   -0.1675   -2.2004 C   0  0  0  0  0  0  0  0  0  0  0  0
    4.5490   -1.3573   -1.6263 C   0  0  0  0  0  0  0  0  0  0  0  0
    3.6405   -2.3069   -1.1324 C   0  0  0  0  0  0  0  0  0  0  0  0
    2.2611   -2.0525   -1.1953 C   0  0  0  0  0  0  0  0  0  0  0  0
   -2.7656   -2.4482   -1.8941 C   0  0  0  0  0  0  0  0  0  0  0  0
   -2.3250   -3.6847   -1.3881 C   0  0  0  0  0  0  0  0  0  0  0  0
   -1.2966   -3.7797   -1.0143 H   0  0  0  0  0  0  0  0  0  0  0  0
   -3.1989   -4.7801   -1.3737 C   0  0  0  0  0  0  0  0  0  0  0  0
   -2.8536   -5.7474   -0.9786 H   0  0  0  0  0  0  0  0  0  0  0  0
   -4.5109   -4.6449   -1.8581 C   0  0  0  0  0  0  0  0  0  0  0  0
   -5.1946   -5.5075   -1.8432 H   0  0  0  0  0  0  0  0  0  0  0  0
   -4.9499   -3.4110   -2.3638 C   0  0  0  0  0  0  0  0  0  0  0  0
   -5.9760   -3.3040   -2.7467 H   0  0  0  0  0  0  0  0  0  0  0  0
   -4.0765   -2.3137   -2.3835 C   0  0  0  0  0  0  0  0  0  0  0  0
   -4.4092   -1.3406   -2.7789 H   0  0  0  0  0  0  0  0  0  0  0  0
   -0.8562    2.0637   -0.5803 C   0  0  0  0  0  0  0  0  0  0  0  0
   -1.7398    2.0683   -1.8405 C   0  0  0  0  0  0  0  0  0  0  0  0
   -1.1662    2.0419   -3.1368 C   0  0  0  0  0  0  0  0  0  0  0  0
   -0.0771    2.1230   -3.2559 H   0  0  0  0  0  0  0  0  0  0  0  0
   -1.9596    1.9322   -4.2879 C   0  0  0  0  0  0  0  0  0  0  0  0
   -1.4762    1.9126   -5.2763 H   0  0  0  0  0  0  0  0  0  0  0  0
   -3.3557    1.8472   -4.1804 C   0  0  0  0  0  0  0  0  0  0  0  0
   -3.9804    1.7545   -5.0814 H   0  0  0  0  0  0  0  0  0  0  0  0
   -3.9433    1.9026   -2.9076 C   0  0  0  0  0  0  0  0  0  0  0  0
   -5.0380    1.8612   -2.8015 H   0  0  0  0  0  0  0  0  0  0  0  0
   -3.1478    2.0202   -1.7580 C   0  0  0  0  0  0  0  0  0  0  0  0
   -3.6389    2.0736   -0.7790 H   0  0  0  0  0  0  0  0  0  0  0  0
   -1.5717    2.6717    0.6411 C   0  0  0  0  0  0  0  0  0  0  0  0
   -2.5929    1.9615    1.3124 C   0  0  0  0  0  0  0  0  0  0  0  0
   -2.8842    0.9607    0.9634 H   0  0  0  0  0  0  0  0  0  0  0  0
   -3.2487    2.5086    2.4246 C   0  0  0  0  0  0  0  0  0  0  0  0
   -4.0243    1.9185    2.9350 H   0  0  0  0  0  0  0  0  0  0  0  0
   -2.9030    3.7857    2.8896 C   0  0  0  0  0  0  0  0  0  0  0  0
   -3.4104    4.2141    3.7670 H   0  0  0  0  0  0  0  0  0  0  0  0
   -1.8967    4.5052    2.2298 C   0  0  0  0  0  0  0  0  0  0  0  0
   -1.6062    5.5044    2.5876 H   0  0  0  0  0  0  0  0  0  0  0  0
   -1.2354    3.9529    1.1230 C   0  0  0  0  0  0  0  0  0  0  0  0
   -0.4318    4.5252    0.6413 H   0  0  0  0  0  0  0  0  0  0  0  0
    0.4965    2.7563   -0.8049 C   0  0  0  0  0  0  0  0  0  0  0  0
    0.5785    3.9307   -1.5865 C   0  0  0  0  0  0  0  0  0  0  0  0
   -0.3280    4.3300   -2.0639 H   0  0  0  0  0  0  0  0  0  0  0  0
    1.7992    4.5973   -1.7625 C   0  0  0  0  0  0  0  0  0  0  0  0
    1.8343    5.5077   -2.3801 H   0  0  0  0  0  0  0  0  0  0  0  0
    2.9699    4.1110   -1.1586 C   0  0  0  0  0  0  0  0  0  0  0  0
    3.9292    4.6285   -1.3082 H   0  0  0  0  0  0  0  0  0  0  0  0
    2.8997    2.9649   -0.3562 C   0  0  0  0  0  0  0  0  0  0  0  0
    3.8003    2.5693    0.1374 H   0  0  0  0  0  0  0  0  0  0  0  0
    1.6730    2.3088   -0.1750 C   0  0  0  0  0  0  0  0  0  0  0  0
    1.6404    1.4275    0.4791 H   0  0  0  0  0  0  0  0  0  0  0  0
  1 30  1  6  0  0  0
  2 14  1  0  0  0  0
  3 15  1  0  0  0  0
  7 11  1  0  0  0  0
  7  9  1  0  0  0  0
  8  1  1  0  0  0  0
  9 10  1  6  0  0  0
  9 13  1  0  0  0  0
  9  1  1  0  0  0  0
 11 12  1  6  0  0  0
 11  8  1  0  0  0  0
 13 18  1  0  0  0  0
 14 15  1  0  0  0  0
 14 13  2  0  0  0  0
 15 16  2  0  0  0  0
 16  4  1  0  0  0  0
 16 17  1  0  0  0  0
 17  5  1  0  0  0  0
 18 17  2  0  0  0  0
 18  6  1  0  0  0  0
 19 11  1  0  0  0  0
 19 20  1  0  0  0  0
 20 22  2  0  0  0  0
 20 21  1  0  0  0  0
 22 23  1  0  0  0  0
 24 25  1  0  0  0  0
 24 22  1  0  0  0  0
 26 24  2  0  0  0  0
 27 26  1  0  0  0  0
 28 26  1  0  0  0  0
 28 19  2  0  0  0  0
 29 28  1  0  0  0  0
 30 42  1  0  0  0  0
 31 40  1  0  0  0  0
 31 30  1  0  0  0  0
 32 31  2  0  0  0  0
 33 32  1  0  0  0  0
 34 36  2  0  0  0  0
 34 32  1  0  0  0  0
 35 34  1  0  0  0  0
 36 38  1  0  0  0  0
 37 36  1  0  0  0  0
 38 39  1  0  0  0  0
 38 40  2  0  0  0  0
 40 41  1  0  0  0  0
 42 51  2  0  0  0  0
 42 43  1  0  0  0  0
 43 45  2  0  0  0  0
 44 43  1  0  0  0  0
 45 47  1  0  0  0  0
 45 46  1  0  0  0  0
 47 48  1  0  0  0  0
 49 50  1  0  0  0  0
 49 47  2  0  0  0  0
 51 49  1  0  0  0  0
 52 51  1  0  0  0  0
 53 30  1  0  0  0  0
 53 62  1  0  0  0  0
 54 53  2  0  0  0  0
 55 54  1  0  0  0  0
 56 54  1  0  0  0  0
 56 58  2  0  0  0  0
 57 56  1  0  0  0  0
 58 60  1  0  0  0  0
 59 58  1  0  0  0  0
 60 62  2  0  0  0  0
 60 61  1  0  0  0  0
 62 63  1  0  0  0  0
M  END
