1
 OpenBabel05122313063D

 36 37  0  0  0  0  0  0  0  0999 V2000
   -1.7014   -0.0779    0.1028 P   0  0  0  0  0  0  0  0  0  0  0  0
   -1.2975    0.2932    1.6280 F   0  0  0  0  0  0  0  0  0  0  0  0
   -3.0943    1.0732   -0.2273 C   0  0  0  0  0  0  0  0  0  0  0  0
   -3.0860    2.4536    0.0916 C   0  0  0  0  0  0  0  0  0  0  0  0
   -4.1854    3.2503   -0.2637 C   0  0  0  0  0  0  0  0  0  0  0  0
   -5.2816    2.7007   -0.9415 C   0  0  0  0  0  0  0  0  0  0  0  0
   -5.2911    1.3368   -1.2652 C   0  0  0  0  0  0  0  0  0  0  0  0
   -4.2017    0.5353   -0.9119 C   0  0  0  0  0  0  0  0  0  0  0  0
   -1.9654    3.1301    0.8645 C   0  0  0  0  0  0  0  0  0  0  0  0
   -0.7402    2.7156    0.4391 F   0  0  0  0  0  0  0  0  0  0  0  0
   -1.9988    4.4719    0.7089 F   0  0  0  0  0  0  0  0  0  0  0  0
   -2.0445    2.8758    2.1853 F   0  0  0  0  0  0  0  0  0  0  0  0
   -6.4275    3.5938   -1.3673 C   0  0  0  0  0  0  0  0  0  0  0  0
   -6.5815    4.6409   -0.5252 F   0  0  0  0  0  0  0  0  0  0  0  0
   -6.2144    4.0984   -2.6050 F   0  0  0  0  0  0  0  0  0  0  0  0
   -7.5960    2.9140   -1.4038 F   0  0  0  0  0  0  0  0  0  0  0  0
   -2.4517   -1.7463    0.3152 C   0  0  0  0  0  0  0  0  0  0  0  0
   -3.2544   -2.1643    1.4128 C   0  0  0  0  0  0  0  0  0  0  0  0
   -3.7282   -3.4844    1.4499 C   0  0  0  0  0  0  0  0  0  0  0  0
   -3.4323   -4.3898    0.4202 C   0  0  0  0  0  0  0  0  0  0  0  0
   -2.6424   -3.9835   -0.6622 C   0  0  0  0  0  0  0  0  0  0  0  0
   -2.1561   -2.6720   -0.7064 C   0  0  0  0  0  0  0  0  0  0  0  0
   -3.5971   -1.2880    2.6127 C   0  0  0  0  0  0  0  0  0  0  0  0
   -4.6557   -1.7894    3.2913 F   0  0  0  0  0  0  0  0  0  0  0  0
   -2.5674   -1.2139    3.4779 F   0  0  0  0  0  0  0  0  0  0  0  0
   -3.9291   -0.0277    2.2447 F   0  0  0  0  0  0  0  0  0  0  0  0
   -4.0140   -5.7879    0.4638 C   0  0  0  0  0  0  0  0  0  0  0  0
   -3.2313   -6.6710   -0.1934 F   0  0  0  0  0  0  0  0  0  0  0  0
   -5.2367   -5.8161   -0.1180 F   0  0  0  0  0  0  0  0  0  0  0  0
   -4.1613   -6.2247    1.7347 F   0  0  0  0  0  0  0  0  0  0  0  0
   -4.1829    4.3171   -0.0051 H   0  0  0  0  0  0  0  0  0  0  0  0
   -6.1507    0.8997   -1.7922 H   0  0  0  0  0  0  0  0  0  0  0  0
   -4.2104   -0.5296   -1.1797 H   0  0  0  0  0  0  0  0  0  0  0  0
   -4.3386   -3.8113    2.3016 H   0  0  0  0  0  0  0  0  0  0  0  0
   -2.3962   -4.6898   -1.4672 H   0  0  0  0  0  0  0  0  0  0  0  0
   -1.5442   -2.3453   -1.5605 H   0  0  0  0  0  0  0  0  0  0  0  0
  1 17  1  0  0  0  0
  1  2  1  0  0  0  0
  3  4  1  0  0  0  0
  3  1  1  0  0  0  0
  4  9  1  0  0  0  0
  5 31  1  0  0  0  0
  5  4  2  0  0  0  0
  6  5  1  0  0  0  0
  7  6  2  0  0  0  0
  7  8  1  0  0  0  0
  8  3  2  0  0  0  0
  9 12  1  0  0  0  0
 10  9  1  0  0  0  0
 11  9  1  0  0  0  0
 13  6  1  0  0  0  0
 13 14  1  0  0  0  0
 15 13  1  0  0  0  0
 16 13  1  0  0  0  0
 17 18  1  0  0  0  0
 18 19  2  0  0  0  0
 18 23  1  0  0  0  0
 19 34  1  0  0  0  0
 20 27  1  0  0  0  0
 20 19  1  0  0  0  0
 21 20  2  0  0  0  0
 22 21  1  0  0  0  0
 22 17  2  0  0  0  0
 23 24  1  0  0  0  0
 23 25  1  0  0  0  0
 26 23  1  0  0  0  0
 27 30  1  0  0  0  0
 28 27  1  0  0  0  0
 29 27  1  0  0  0  0
 32  7  1  0  0  0  0
 33  8  1  0  0  0  0
 35 21  1  0  0  0  0
 36 22  1  0  0  0  0
M  END
