1
 OpenBabel05122313063D

 37 38  0  0  0  0  0  0  0  0999 V2000
    0.0930    1.0843    0.0971 P   0  0  0  0  0  0  0  0  0  0  0  0
   -3.8191    1.0808   -1.2877 C   0  0  0  0  0  0  0  0  0  0  0  0
   -4.5963    1.7670   -0.8810 H   0  0  0  0  0  0  0  0  0  0  0  0
   -4.0882    0.9269   -2.3577 H   0  0  0  0  0  0  0  0  0  0  0  0
   -2.4362    1.6589   -1.1397 C   0  0  0  0  0  0  0  0  0  0  0  0
   -2.1388    2.6226   -1.5748 H   0  0  0  0  0  0  0  0  0  0  0  0
   -1.6382    0.8220   -0.4090 C   0  0  0  0  0  0  0  0  0  0  0  0
   -2.4203   -0.3670   -0.0122 C   0  0  0  0  0  0  0  0  0  0  0  0
   -2.0654   -1.5060    0.7309 C   0  0  0  0  0  0  0  0  0  0  0  0
   -1.0386   -1.6368    1.1079 H   0  0  0  0  0  0  0  0  0  0  0  0
   -3.0419   -2.4900    0.9561 C   0  0  0  0  0  0  0  0  0  0  0  0
   -2.7795   -3.3912    1.5301 H   0  0  0  0  0  0  0  0  0  0  0  0
   -4.3460   -2.3414    0.4495 C   0  0  0  0  0  0  0  0  0  0  0  0
   -5.0947   -3.1260    0.6361 H   0  0  0  0  0  0  0  0  0  0  0  0
   -4.7016   -1.2037   -0.2994 C   0  0  0  0  0  0  0  0  0  0  0  0
   -5.7222   -1.0968   -0.6988 H   0  0  0  0  0  0  0  0  0  0  0  0
   -3.7365   -0.2192   -0.5272 C   0  0  0  0  0  0  0  0  0  0  0  0
    0.6974    2.5199   -0.9307 C   0  0  0  0  0  0  0  0  0  0  0  0
   -0.0634    3.3243   -0.8285 H   0  0  0  0  0  0  0  0  0  0  0  0
    0.7998    2.0830   -2.3991 C   0  0  0  0  0  0  0  0  0  0  0  0
    1.1143    2.9424   -3.0265 H   0  0  0  0  0  0  0  0  0  0  0  0
   -0.1594    1.6986   -2.7960 H   0  0  0  0  0  0  0  0  0  0  0  0
    1.5563    1.2795   -2.5131 H   0  0  0  0  0  0  0  0  0  0  0  0
    2.0472    3.0266   -0.4066 C   0  0  0  0  0  0  0  0  0  0  0  0
    2.4427    3.8089   -1.0863 H   0  0  0  0  0  0  0  0  0  0  0  0
    2.7905    2.2031   -0.3684 H   0  0  0  0  0  0  0  0  0  0  0  0
    1.9725    3.4696    0.6050 H   0  0  0  0  0  0  0  0  0  0  0  0
   -0.1339    1.6399    1.8791 C   0  0  0  0  0  0  0  0  0  0  0  0
   -0.8528    0.8715    2.2423 H   0  0  0  0  0  0  0  0  0  0  0  0
   -0.7983    3.0152    1.9854 C   0  0  0  0  0  0  0  0  0  0  0  0
   -1.0765    3.2218    3.0393 H   0  0  0  0  0  0  0  0  0  0  0  0
   -1.7223    3.0764    1.3759 H   0  0  0  0  0  0  0  0  0  0  0  0
   -0.1139    3.8260    1.6624 H   0  0  0  0  0  0  0  0  0  0  0  0
    1.1496    1.5127    2.7072 C   0  0  0  0  0  0  0  0  0  0  0  0
    0.9234    1.6884    3.7790 H   0  0  0  0  0  0  0  0  0  0  0  0
    1.9172    2.2512    2.4030 H   0  0  0  0  0  0  0  0  0  0  0  0
    1.5959    0.5032    2.6063 H   0  0  0  0  0  0  0  0  0  0  0  0
  1 28  1  0  0  0  0
  2  5  1  0  0  0  0
  2  3  1  0  0  0  0
  2 17  1  0  0  0  0
  4  2  1  0  0  0  0
  5  7  2  0  0  0  0
  6  5  1  0  0  0  0
  7  8  1  0  0  0  0
  7  1  1  0  0  0  0
  8  9  1  0  0  0  0
  9 11  2  0  0  0  0
  9 10  1  0  0  0  0
 11 12  1  0  0  0  0
 13 14  1  0  0  0  0
 13 11  1  0  0  0  0
 15 13  2  0  0  0  0
 16 15  1  0  0  0  0
 17 15  1  0  0  0  0
 17  8  2  0  0  0  0
 18 19  1  0  0  0  0
 18 24  1  0  0  0  0
 18  1  1  0  0  0  0
 20 18  1  0  0  0  0
 21 20  1  0  0  0  0
 22 20  1  0  0  0  0
 23 20  1  0  0  0  0
 24 26  1  0  0  0  0
 24 27  1  0  0  0  0
 25 24  1  0  0  0  0
 28 30  1  0  0  0  0
 28 29  1  0  0  0  0
 28 34  1  0  0  0  0
 30 31  1  0  0  0  0
 32 30  1  0  0  0  0
 33 30  1  0  0  0  0
 34 35  1  0  0  0  0
 36 34  1  0  0  0  0
 37 34  1  0  0  0  0
M  END
