1
 OpenBabel05122313063D

 38 40  0  0  0  0  0  0  0  0999 V2000
   -2.3307   -0.1624   -0.0344 P   0  0  0  0  0  0  0  0  0  0  0  0
   -3.2232    1.4007   -0.3663 C   0  0  0  0  0  0  0  0  0  0  0  0
   -3.8310    1.6415   -1.5523 C   0  0  0  0  0  0  0  0  0  0  0  0
   -4.4908    2.9507   -1.8905 C   0  0  0  0  0  0  0  0  0  0  0  0
   -4.6709    3.8690   -0.6744 C   0  0  0  0  0  0  0  0  0  0  0  0
   -3.4266    3.8423    0.2194 C   0  0  0  0  0  0  0  0  0  0  0  0
   -3.1623    2.4282    0.7463 C   0  0  0  0  0  0  0  0  0  0  0  0
   -2.1648    2.3805    1.2299 H   0  0  0  0  0  0  0  0  0  0  0  0
   -3.9051    2.1575    1.5308 H   0  0  0  0  0  0  0  0  0  0  0  0
   -3.5353    4.5486    1.0679 H   0  0  0  0  0  0  0  0  0  0  0  0
   -2.5373    4.1682   -0.3620 H   0  0  0  0  0  0  0  0  0  0  0  0
   -5.5501    3.5273   -0.0840 H   0  0  0  0  0  0  0  0  0  0  0  0
   -4.9004    4.9019   -1.0080 H   0  0  0  0  0  0  0  0  0  0  0  0
   -3.8648    3.4545   -2.6647 H   0  0  0  0  0  0  0  0  0  0  0  0
   -5.4641    2.7588   -2.3931 H   0  0  0  0  0  0  0  0  0  0  0  0
   -3.8229    0.8671   -2.3376 H   0  0  0  0  0  0  0  0  0  0  0  0
   -3.1727   -0.7640    1.4877 C   0  0  0  0  0  0  0  0  0  0  0  0
   -4.5649   -0.5706    1.6266 C   0  0  0  0  0  0  0  0  0  0  0  0
   -5.2262   -1.0099    2.7825 C   0  0  0  0  0  0  0  0  0  0  0  0
   -4.5027   -1.6368    3.8104 C   0  0  0  0  0  0  0  0  0  0  0  0
   -3.1184   -1.8256    3.6765 C   0  0  0  0  0  0  0  0  0  0  0  0
   -2.4507   -1.3931    2.5203 C   0  0  0  0  0  0  0  0  0  0  0  0
   -1.3711   -1.5634    2.3937 H   0  0  0  0  0  0  0  0  0  0  0  0
   -2.5485   -2.3172    4.4797 H   0  0  0  0  0  0  0  0  0  0  0  0
   -5.0213   -1.9768    4.7199 H   0  0  0  0  0  0  0  0  0  0  0  0
   -6.3116   -0.8568    2.8829 H   0  0  0  0  0  0  0  0  0  0  0  0
   -5.1275   -0.0672    0.8244 H   0  0  0  0  0  0  0  0  0  0  0  0
   -2.7998   -1.3107   -1.3859 C   0  0  0  0  0  0  0  0  0  0  0  0
   -3.8070   -2.2842   -1.2568 C   0  0  0  0  0  0  0  0  0  0  0  0
   -4.1088   -3.1267   -2.3383 C   0  0  0  0  0  0  0  0  0  0  0  0
   -3.4130   -2.9996   -3.5504 C   0  0  0  0  0  0  0  0  0  0  0  0
   -2.4030   -2.0318   -3.6801 C   0  0  0  0  0  0  0  0  0  0  0  0
   -2.0896   -1.1957   -2.6002 C   0  0  0  0  0  0  0  0  0  0  0  0
   -1.2783   -0.4544   -2.6844 H   0  0  0  0  0  0  0  0  0  0  0  0
   -1.8456   -1.9365   -4.6243 H   0  0  0  0  0  0  0  0  0  0  0  0
   -3.6511   -3.6642   -4.3949 H   0  0  0  0  0  0  0  0  0  0  0  0
   -4.8916   -3.8927   -2.2289 H   0  0  0  0  0  0  0  0  0  0  0  0
   -4.3483   -2.3941   -0.3057 H   0  0  0  0  0  0  0  0  0  0  0  0
  1 17  1  0  0  0  0
  2  1  1  0  0  0  0
  2  7  1  0  0  0  0
  3  2  2  0  0  0  0
  4  3  1  0  0  0  0
  4  5  1  0  0  0  0
  5 12  1  0  0  0  0
  5  6  1  0  0  0  0
  6  7  1  0  0  0  0
  6 10  1  0  0  0  0
  7  8  1  0  0  0  0
  7  9  1  0  0  0  0
 11  6  1  0  0  0  0
 13  5  1  0  0  0  0
 14  4  1  0  0  0  0
 15  4  1  0  0  0  0
 16  3  1  0  0  0  0
 17 18  2  0  0  0  0
 17 22  1  0  0  0  0
 18 19  1  0  0  0  0
 19 26  1  0  0  0  0
 19 20  2  0  0  0  0
 20 25  1  0  0  0  0
 21 20  1  0  0  0  0
 21 24  1  0  0  0  0
 22 21  2  0  0  0  0
 23 22  1  0  0  0  0
 27 18  1  0  0  0  0
 28 29  1  0  0  0  0
 28  1  1  0  0  0  0
 29 38  1  0  0  0  0
 30 37  1  0  0  0  0
 30 29  2  0  0  0  0
 31 30  1  0  0  0  0
 32 31  2  0  0  0  0
 32 33  1  0  0  0  0
 33 28  2  0  0  0  0
 34 33  1  0  0  0  0
 35 32  1  0  0  0  0
 36 31  1  0  0  0  0
M  END
