3
 OpenBabel05122313063D

 54 54  0  0  0  0  0  0  0  0999 V2000
   -3.5152    0.2461   -0.1208 N   0  0  0  0  0  0  0  0  0  0  0  0
   -4.5271    0.1882   -0.2223 H   0  0  0  0  0  0  0  0  0  0  0  0
    0.3077   -1.0877    0.2319 P   0  0  0  0  0  0  0  0  0  0  0  0
   -2.6950   -0.8661   -0.1092 C   0  0  0  0  0  0  0  0  0  0  0  0
   -1.3694   -0.3635    0.0265 C   0  0  0  0  0  0  0  0  0  0  0  0
   -1.4868    1.0695    0.1135 C   0  0  0  0  0  0  0  0  0  0  0  0
   -0.6572    1.7645    0.2448 H   0  0  0  0  0  0  0  0  0  0  0  0
   -2.8204    1.4269    0.0149 C   0  0  0  0  0  0  0  0  0  0  0  0
   -3.3714   -2.2339   -0.2764 C   0  0  0  0  0  0  0  0  0  0  0  0
   -3.2126   -2.7418   -1.7294 C   0  0  0  0  0  0  0  0  0  0  0  0
   -3.6275   -2.0071   -2.4483 H   0  0  0  0  0  0  0  0  0  0  0  0
   -3.7524   -3.7019   -1.8661 H   0  0  0  0  0  0  0  0  0  0  0  0
   -2.1538   -2.9055   -1.9971 H   0  0  0  0  0  0  0  0  0  0  0  0
   -4.8890   -2.1167    0.0066 C   0  0  0  0  0  0  0  0  0  0  0  0
   -5.4129   -1.4836   -0.7406 H   0  0  0  0  0  0  0  0  0  0  0  0
   -5.0926   -1.7190    1.0216 H   0  0  0  0  0  0  0  0  0  0  0  0
   -5.3543   -3.1195   -0.0608 H   0  0  0  0  0  0  0  0  0  0  0  0
   -2.8236   -3.2797    0.7146 C   0  0  0  0  0  0  0  0  0  0  0  0
   -3.3818   -4.2318    0.6067 H   0  0  0  0  0  0  0  0  0  0  0  0
   -2.9279   -2.9345    1.7621 H   0  0  0  0  0  0  0  0  0  0  0  0
   -1.7576   -3.5073    0.5363 H   0  0  0  0  0  0  0  0  0  0  0  0
   -3.5051    2.7771    0.0338 C   0  0  0  0  0  0  0  0  0  0  0  0
   -4.2864    2.9827   -1.2841 C   0  0  0  0  0  0  0  0  0  0  0  0
   -4.7876    3.9724   -1.2909 H   0  0  0  0  0  0  0  0  0  0  0  0
   -5.0749    2.2131   -1.4210 H   0  0  0  0  0  0  0  0  0  0  0  0
   -3.6064    2.9300   -2.1575 H   0  0  0  0  0  0  0  0  0  0  0  0
   -4.4786    2.8522    1.2321 C   0  0  0  0  0  0  0  0  0  0  0  0
   -3.9374    2.7121    2.1890 H   0  0  0  0  0  0  0  0  0  0  0  0
   -5.2665    2.0723    1.1717 H   0  0  0  0  0  0  0  0  0  0  0  0
   -4.9890    3.8368    1.2612 H   0  0  0  0  0  0  0  0  0  0  0  0
   -2.4391    3.8780    0.1694 C   0  0  0  0  0  0  0  0  0  0  0  0
   -1.8582    3.7624    1.1063 H   0  0  0  0  0  0  0  0  0  0  0  0
   -2.9189    4.8771    0.1850 H   0  0  0  0  0  0  0  0  0  0  0  0
   -1.7276    3.8515   -0.6800 H   0  0  0  0  0  0  0  0  0  0  0  0
    0.2077   -1.9316    1.9322 C   0  0  0  0  0  0  0  0  0  0  0  0
   -0.3249   -2.8861    1.7374 H   0  0  0  0  0  0  0  0  0  0  0  0
   -0.6220   -1.0953    2.9135 C   0  0  0  0  0  0  0  0  0  0  0  0
   -0.6612   -1.6061    3.8982 H   0  0  0  0  0  0  0  0  0  0  0  0
   -1.6577   -0.9344    2.5603 H   0  0  0  0  0  0  0  0  0  0  0  0
   -0.1653   -0.0974    3.0746 H   0  0  0  0  0  0  0  0  0  0  0  0
    1.5789   -2.2508    2.5327 C   0  0  0  0  0  0  0  0  0  0  0  0
    2.0731   -1.3288    2.8936 H   0  0  0  0  0  0  0  0  0  0  0  0
    2.2675   -2.7456    1.8234 H   0  0  0  0  0  0  0  0  0  0  0  0
    1.4541   -2.9226    3.4076 H   0  0  0  0  0  0  0  0  0  0  0  0
    0.3728   -2.5074   -1.0017 C   0  0  0  0  0  0  0  0  0  0  0  0
   -0.5350   -3.1106   -0.7961 H   0  0  0  0  0  0  0  0  0  0  0  0
    1.5955   -3.4077   -0.8050 C   0  0  0  0  0  0  0  0  0  0  0  0
    1.6496   -4.1541   -1.6244 H   0  0  0  0  0  0  0  0  0  0  0  0
    1.5539   -3.9668    0.1498 H   0  0  0  0  0  0  0  0  0  0  0  0
    2.5394   -2.8269   -0.8221 H   0  0  0  0  0  0  0  0  0  0  0  0
    0.2699   -1.9565   -2.4283 C   0  0  0  0  0  0  0  0  0  0  0  0
    1.1893   -1.4162   -2.7209 H   0  0  0  0  0  0  0  0  0  0  0  0
   -0.5814   -1.2563   -2.5397 H   0  0  0  0  0  0  0  0  0  0  0  0
    0.1302   -2.7898   -3.1483 H   0  0  0  0  0  0  0  0  0  0  0  0
  1  4  1  0  0  0  0
  1  8  1  0  0  0  0
  2  1  1  0  0  0  0
  3 35  1  0  0  0  0
  4  5  2  0  0  0  0
  5  6  1  0  0  0  0
  5  3  1  0  0  0  0
  6  7  1  0  0  0  0
  8 22  1  0  0  0  0
  8  6  2  0  0  0  0
  9  4  1  0  0  0  0
  9 14  1  0  0  0  0
  9 18  1  0  0  0  0
 10  9  1  0  0  0  0
 11 10  1  0  0  0  0
 12 10  1  0  0  0  0
 13 10  1  0  0  0  0
 14 16  1  0  0  0  0
 15 14  1  0  0  0  0
 17 14  1  0  0  0  0
 18 20  1  0  0  0  0
 19 18  1  0  0  0  0
 21 18  1  0  0  0  0
 22 31  1  0  0  0  0
 22 27  1  0  0  0  0
 23 22  1  0  0  0  0
 24 23  1  0  0  0  0
 25 23  1  0  0  0  0
 26 23  1  0  0  0  0
 27 30  1  0  0  0  0
 27 28  1  0  0  0  0
 29 27  1  0  0  0  0
 31 33  1  0  0  0  0
 31 32  1  0  0  0  0
 34 31  1  0  0  0  0
 35 41  1  0  0  0  0
 35 37  1  0  0  0  0
 36 35  1  0  0  0  0
 37 40  1  0  0  0  0
 37 38  1  0  0  0  0
 39 37  1  0  0  0  0
 41 42  1  0  0  0  0
 41 44  1  0  0  0  0
 43 41  1  0  0  0  0
 45 47  1  0  0  0  0
 45 46  1  0  0  0  0
 45  3  1  0  0  0  0
 47 49  1  0  0  0  0
 48 47  1  0  0  0  0
 50 47  1  0  0  0  0
 51 45  1  0  0  0  0
 52 51  1  0  0  0  0
 53 51  1  0  0  0  0
 54 51  1  0  0  0  0
M  END
