1
 OpenBabel05122313063D

 66 70  0  0  0  0  0  0  0  0999 V2000
    1.7340   -0.8500    1.0631 P   0  0  0  0  0  0  0  0  0  0  0  0
    1.2558    2.0727    0.2917 P   0  0  0  0  0  4  0  0  0  0  0  0
   -6.9773    1.2937   -0.6767 N   0  0  0  0  0  0  0  0  0  0  0  0
   -1.1240    1.8915    1.9379 O   0  0  0  0  0  0  0  0  0  0  0  0
   -7.2672    1.0415   -1.8462 O   0  0  0  0  0  0  0  0  0  0  0  0
   -7.7882    1.4523    0.2362 O   0  0  0  0  0  0  0  0  0  0  0  0
    1.7384    0.9171    1.6388 C   0  0  0  0  0  0  0  0  0  0  0  0
    0.9382    1.0297    2.3977 H   0  0  0  0  0  0  0  0  0  0  0  0
    2.7153    1.2110    2.0710 H   0  0  0  0  0  0  0  0  0  0  0  0
    1.5876   -1.7709    2.6334 C   0  0  0  0  0  0  0  0  0  0  0  0
    0.4879   -1.4809    3.4722 C   0  0  0  0  0  0  0  0  0  0  0  0
   -0.2319   -0.6909    3.2039 H   0  0  0  0  0  0  0  0  0  0  0  0
    0.2901   -2.2259    4.6423 C   0  0  0  0  0  0  0  0  0  0  0  0
   -0.5699   -1.9964    5.2888 H   0  0  0  0  0  0  0  0  0  0  0  0
    1.1676   -3.2705    4.9746 C   0  0  0  0  0  0  0  0  0  0  0  0
    1.0038   -3.8570    5.8912 H   0  0  0  0  0  0  0  0  0  0  0  0
    2.2451   -3.5756    4.1283 C   0  0  0  0  0  0  0  0  0  0  0  0
    2.9287   -4.4010    4.3784 H   0  0  0  0  0  0  0  0  0  0  0  0
    2.4565   -2.8334    2.9568 C   0  0  0  0  0  0  0  0  0  0  0  0
    3.2983   -3.0822    2.2939 H   0  0  0  0  0  0  0  0  0  0  0  0
    3.4249   -1.1225    0.4171 C   0  0  0  0  0  0  0  0  0  0  0  0
    3.5637   -1.5409   -0.9211 C   0  0  0  0  0  0  0  0  0  0  0  0
    2.6694   -1.7121   -1.5431 H   0  0  0  0  0  0  0  0  0  0  0  0
    4.8447   -1.7137   -1.4684 C   0  0  0  0  0  0  0  0  0  0  0  0
    4.9466   -2.0332   -2.5162 H   0  0  0  0  0  0  0  0  0  0  0  0
    5.9845   -1.4755   -0.6863 C   0  0  0  0  0  0  0  0  0  0  0  0
    6.9875   -1.6137   -1.1180 H   0  0  0  0  0  0  0  0  0  0  0  0
    5.8486   -1.0610    0.6503 C   0  0  0  0  0  0  0  0  0  0  0  0
    6.7425   -0.8782    1.2659 H   0  0  0  0  0  0  0  0  0  0  0  0
    4.5734   -0.8830    1.2031 C   0  0  0  0  0  0  0  0  0  0  0  0
    4.4698   -0.5665    2.2531 H   0  0  0  0  0  0  0  0  0  0  0  0
    2.4890    1.8755   -1.0264 C   0  0  0  0  0  0  0  0  0  0  0  0
    2.1239    1.5047   -2.3329 C   0  0  0  0  0  0  0  0  0  0  0  0
    1.0743    1.3185   -2.5980 H   0  0  0  0  0  0  0  0  0  0  0  0
    3.1168    1.3134   -3.3065 C   0  0  0  0  0  0  0  0  0  0  0  0
    2.8191    1.0018   -4.3185 H   0  0  0  0  0  0  0  0  0  0  0  0
    4.4678    1.4927   -2.9814 C   0  0  0  0  0  0  0  0  0  0  0  0
    5.2438    1.3356   -3.7458 H   0  0  0  0  0  0  0  0  0  0  0  0
    4.8361    1.8610   -1.6751 C   0  0  0  0  0  0  0  0  0  0  0  0
    5.8966    1.9887   -1.4131 H   0  0  0  0  0  0  0  0  0  0  0  0
    3.8528    2.0525   -0.6989 C   0  0  0  0  0  0  0  0  0  0  0  0
    4.1483    2.3405    0.3216 H   0  0  0  0  0  0  0  0  0  0  0  0
    1.4788    3.7573    0.9711 C   0  0  0  0  0  0  0  0  0  0  0  0
    0.9922    4.0791    2.2573 C   0  0  0  0  0  0  0  0  0  0  0  0
    0.4846    3.3125    2.8582 H   0  0  0  0  0  0  0  0  0  0  0  0
    1.1142    5.3917    2.7353 C   0  0  0  0  0  0  0  0  0  0  0  0
    0.7327    5.6400    3.7371 H   0  0  0  0  0  0  0  0  0  0  0  0
    1.7083    6.3855    1.9413 C   0  0  0  0  0  0  0  0  0  0  0  0
    1.8001    7.4137    2.3228 H   0  0  0  0  0  0  0  0  0  0  0  0
    2.1793    6.0686    0.6573 C   0  0  0  0  0  0  0  0  0  0  0  0
    2.6403    6.8455    0.0289 H   0  0  0  0  0  0  0  0  0  0  0  0
    2.0652    4.7595    0.1688 C   0  0  0  0  0  0  0  0  0  0  0  0
    2.4367    4.5159   -0.8377 H   0  0  0  0  0  0  0  0  0  0  0  0
   -0.3566    1.6982   -0.2871 C   0  0  0  0  0  3  0  0  0  0  0  0
   -0.5574    1.8615   -1.3545 H   0  0  0  0  0  0  0  0  0  0  0  0
   -1.3908    1.7727    0.7144 C   0  0  0  0  0  0  0  0  0  0  0  0
   -2.8321    1.6627    0.2872 C   0  0  0  0  0  0  0  0  0  0  0  0
   -3.2321    1.3607   -1.0323 C   0  0  0  0  0  0  0  0  0  0  0  0
   -2.4854    1.1859   -1.8207 H   0  0  0  0  0  0  0  0  0  0  0  0
   -4.5869    1.2358   -1.3535 C   0  0  0  0  0  0  0  0  0  0  0  0
   -4.9272    0.9872   -2.3670 H   0  0  0  0  0  0  0  0  0  0  0  0
   -5.5372    1.4214   -0.3410 C   0  0  0  0  0  0  0  0  0  0  0  0
   -5.1715    1.7197    0.9787 C   0  0  0  0  0  0  0  0  0  0  0  0
   -5.9588    1.8462    1.7334 H   0  0  0  0  0  0  0  0  0  0  0  0
   -3.8139    1.8356    1.2846 C   0  0  0  0  0  0  0  0  0  0  0  0
   -3.4691    2.0484    2.3063 H   0  0  0  0  0  0  0  0  0  0  0  0
  1  7  1  0  0  0  0
  1 10  1  0  0  0  0
  2 43  1  0  0  0  0
  2  7  1  0  0  0  0
  3 62  1  0  0  0  0
  3  6  2  0  0  0  0
  5  3  2  0  0  0  0
  7  9  1  0  0  0  0
  7  8  1  0  0  0  0
 10 19  2  0  0  0  0
 10 11  1  0  0  0  0
 11 13  2  0  0  0  0
 12 11  1  0  0  0  0
 13 15  1  0  0  0  0
 13 14  1  0  0  0  0
 15 16  1  0  0  0  0
 17 18  1  0  0  0  0
 17 15  2  0  0  0  0
 19 17  1  0  0  0  0
 20 19  1  0  0  0  0
 21  1  1  0  0  0  0
 21 30  1  0  0  0  0
 22 21  2  0  0  0  0
 23 22  1  0  0  0  0
 24 22  1  0  0  0  0
 24 26  2  0  0  0  0
 25 24  1  0  0  0  0
 26 28  1  0  0  0  0
 27 26  1  0  0  0  0
 28 30  2  0  0  0  0
 28 29  1  0  0  0  0
 30 31  1  0  0  0  0
 32 41  1  0  0  0  0
 32  2  1  0  0  0  0
 33 32  2  0  0  0  0
 34 33  1  0  0  0  0
 35 37  2  0  0  0  0
 35 33  1  0  0  0  0
 36 35  1  0  0  0  0
 37 39  1  0  0  0  0
 38 37  1  0  0  0  0
 39 40  1  0  0  0  0
 39 41  2  0  0  0  0
 41 42  1  0  0  0  0
 43 44  1  0  0  0  0
 44 46  2  0  0  0  0
 44 45  1  0  0  0  0
 46 47  1  0  0  0  0
 48 49  1  0  0  0  0
 48 46  1  0  0  0  0
 50 48  2  0  0  0  0
 51 50  1  0  0  0  0
 52 50  1  0  0  0  0
 52 43  2  0  0  0  0
 53 52  1  0  0  0  0
 54  2  1  0  0  0  0
 54 56  1  0  0  0  0
 55 54  1  0  0  0  0
 56  4  2  0  0  0  0
 57 56  1  0  0  0  0
 57 65  1  0  0  0  0
 58 57  2  0  0  0  0
 59 58  1  0  0  0  0
 60 58  1  0  0  0  0
 60 62  2  0  0  0  0
 61 60  1  0  0  0  0
 62 63  1  0  0  0  0
 63 65  2  0  0  0  0
 63 64  1  0  0  0  0
 65 66  1  0  0  0  0
M  END
