1
 OpenBabel05122313063D

 53 54  0  0  0  0  0  0  0  0999 V2000
   -1.6524    0.7593    0.6465 P   0  0  0  0  0  2  0  0  0  0  0  0
   -0.2710    1.6315    1.0991 O   0  0  0  0  0  0  0  0  0  0  0  0
    1.4924    1.5380   -0.5126 C   0  0  0  0  0  0  0  0  0  0  0  0
    2.6880    0.9660   -0.9626 C   0  0  0  0  0  0  0  0  0  0  0  0
    3.3649   -0.0279   -0.2254 C   0  0  0  0  0  0  0  0  0  0  0  0
    2.8324   -0.3754    1.0239 C   0  0  0  0  0  0  0  0  0  0  0  0
    1.6390    0.1741    1.5541 C   0  0  0  0  0  0  0  0  0  0  0  0
    0.9602    1.1005    0.7311 C   0  0  0  0  0  0  0  0  0  0  0  0
    0.8279    2.6597   -1.2719 C   0  0  0  0  0  0  0  0  0  0  0  0
    0.8862    3.9990   -0.5455 C   0  0  0  0  0  0  0  0  0  0  0  0
    0.9248    2.6866   -2.7835 C   0  0  0  0  0  0  0  0  0  0  0  0
   -0.4004    2.3861   -2.1254 C   0  0  0  0  0  0  0  0  0  0  0  0
    4.6351   -0.6771   -0.8011 C   0  0  0  0  0  0  0  0  0  0  0  0
    4.2780   -1.3635   -2.1398 C   0  0  0  0  0  0  0  0  0  0  0  0
    5.7035    0.4122   -1.0458 C   0  0  0  0  0  0  0  0  0  0  0  0
    5.2275   -1.7358    0.1444 C   0  0  0  0  0  0  0  0  0  0  0  0
    1.2162   -0.3006    2.9683 C   0  0  0  0  0  0  0  0  0  0  0  0
    0.8600   -1.8047    2.9110 C   0  0  0  0  0  0  0  0  0  0  0  0
    2.4128   -0.0856    3.9285 C   0  0  0  0  0  0  0  0  0  0  0  0
    0.0141    0.4379    3.5926 C   0  0  0  0  0  0  0  0  0  0  0  0
   -2.8474    1.9579    1.4297 C   0  0  0  0  0  0  0  0  0  0  0  0
   -2.7951    3.2859    0.8445 C   0  0  0  0  0  0  0  0  0  0  0  0
   -2.7342    4.3940    0.3312 C   0  0  0  0  0  0  0  0  0  0  0  0
    3.0973    1.3166   -1.9216 H   0  0  0  0  0  0  0  0  0  0  0  0
    3.3600   -1.1218    1.6306 H   0  0  0  0  0  0  0  0  0  0  0  0
    0.3549    3.9426    0.4245 H   0  0  0  0  0  0  0  0  0  0  0  0
    0.4033    4.7928   -1.1507 H   0  0  0  0  0  0  0  0  0  0  0  0
    1.9378    4.2993   -0.3583 H   0  0  0  0  0  0  0  0  0  0  0  0
    1.4352    1.8571   -3.2977 H   0  0  0  0  0  0  0  0  0  0  0  0
   -1.1923    3.1514   -2.1257 H   0  0  0  0  0  0  0  0  0  0  0  0
   -0.7816    1.3557   -2.1744 H   0  0  0  0  0  0  0  0  0  0  0  0
    1.0682    3.6664   -3.2655 H   0  0  0  0  0  0  0  0  0  0  0  0
    3.5041   -2.1440   -1.9911 H   0  0  0  0  0  0  0  0  0  0  0  0
    5.1745   -1.8453   -2.5821 H   0  0  0  0  0  0  0  0  0  0  0  0
    3.8860   -0.6382   -2.8804 H   0  0  0  0  0  0  0  0  0  0  0  0
    5.9744    0.9201   -0.0981 H   0  0  0  0  0  0  0  0  0  0  0  0
    5.3480    1.1869   -1.7537 H   0  0  0  0  0  0  0  0  0  0  0  0
    6.6243   -0.0365   -1.4727 H   0  0  0  0  0  0  0  0  0  0  0  0
    5.5258   -1.2988    1.1188 H   0  0  0  0  0  0  0  0  0  0  0  0
    6.1342   -2.1816   -0.3116 H   0  0  0  0  0  0  0  0  0  0  0  0
    4.5131   -2.5611    0.3396 H   0  0  0  0  0  0  0  0  0  0  0  0
    1.6999   -2.4164    2.5249 H   0  0  0  0  0  0  0  0  0  0  0  0
   -0.0203   -1.9680    2.2564 H   0  0  0  0  0  0  0  0  0  0  0  0
    0.6078   -2.1781    3.9250 H   0  0  0  0  0  0  0  0  0  0  0  0
    3.3160   -0.6453    3.6179 H   0  0  0  0  0  0  0  0  0  0  0  0
    2.1438   -0.4283    4.9485 H   0  0  0  0  0  0  0  0  0  0  0  0
    2.6831    0.9882    3.9863 H   0  0  0  0  0  0  0  0  0  0  0  0
   -0.9390    0.1704    3.0949 H   0  0  0  0  0  0  0  0  0  0  0  0
    0.1315    1.5374    3.5654 H   0  0  0  0  0  0  0  0  0  0  0  0
   -0.0797    0.1237    4.6520 H   0  0  0  0  0  0  0  0  0  0  0  0
   -2.6192    1.9900    2.5177 H   0  0  0  0  0  0  0  0  0  0  0  0
   -3.8467    1.4914    1.3030 H   0  0  0  0  0  0  0  0  0  0  0  0
   -2.6898    5.3779   -0.1132 H   0  0  0  0  0  0  0  0  0  0  0  0
  1  2  1  0  0  0  0
  1 21  1  0  0  0  0
  3  8  1  0  0  0  0
  4  3  2  0  0  0  0
  4  5  1  0  0  0  0
  5  6  2  0  0  0  0
  6  7  1  0  0  0  0
  6 25  1  0  0  0  0
  7 17  1  0  0  0  0
  8  2  1  0  0  0  0
  8  7  2  0  0  0  0
  9 10  1  0  0  0  0
  9  3  1  0  0  0  0
 10 28  1  0  0  0  0
 10 26  1  0  0  0  0
 11 12  1  0  0  0  0
 11  9  1  0  0  0  0
 12  9  1  0  0  0  0
 13  5  1  0  0  0  0
 13 16  1  0  0  0  0
 14 33  1  0  0  0  0
 14 13  1  0  0  0  0
 15 13  1  0  0  0  0
 15 36  1  0  0  0  0
 16 41  1  0  0  0  0
 16 39  1  0  0  0  0
 17 20  1  0  0  0  0
 17 19  1  0  0  0  0
 18 17  1  0  0  0  0
 18 44  1  0  0  0  0
 19 47  1  0  0  0  0
 19 46  1  0  0  0  0
 20 50  1  0  0  0  0
 21 51  1  0  0  0  0
 22 21  1  0  0  0  0
 23 22  3  0  0  0  0
 24  4  1  0  0  0  0
 27 10  1  0  0  0  0
 29 11  1  0  0  0  0
 30 12  1  0  0  0  0
 31 12  1  0  0  0  0
 32 11  1  0  0  0  0
 34 14  1  0  0  0  0
 35 14  1  0  0  0  0
 37 15  1  0  0  0  0
 38 15  1  0  0  0  0
 40 16  1  0  0  0  0
 42 18  1  0  0  0  0
 43 18  1  0  0  0  0
 45 19  1  0  0  0  0
 48 20  1  0  0  0  0
 49 20  1  0  0  0  0
 52 21  1  0  0  0  0
 53 23  1  0  0  0  0
M  END
