1
 OpenBabel05122313063D

 69 72  0  0  0  0  0  0  0  0999 V2000
    0.1163    0.7666    0.4080 P   0  0  2  0  0  0  0  0  0  0  0  0
   -2.5406   -0.8350   -0.1462 N   0  0  0  0  0  0  0  0  0  0  0  0
   -3.3049    0.2470   -0.8793 C   0  0  0  0  0  0  0  0  0  0  0  0
   -4.8177    0.0325   -0.6416 C   0  0  0  0  0  0  0  0  0  0  0  0
   -5.3699   -1.3111   -1.1306 C   0  0  0  0  0  0  0  0  0  0  0  0
   -4.2732   -2.3787   -1.1585 C   0  0  0  0  0  0  0  0  0  0  0  0
   -3.1681   -2.2227   -0.0889 C   0  0  0  0  0  0  0  0  0  0  0  0
   -2.9824    1.6336   -0.3055 C   0  0  0  0  0  0  0  0  0  0  0  0
   -2.9450    0.2530   -2.3780 C   0  0  0  0  0  0  0  0  0  0  0  0
   -2.1198   -3.3001   -0.4294 C   0  0  0  0  0  0  0  0  0  0  0  0
   -3.7536   -2.4689    1.3141 C   0  0  0  0  0  0  0  0  0  0  0  0
   -1.3216   -0.5899    0.5120 B   0  0  0  0  0  0  0  0  0  0  0  0
    0.9247   -1.0330    0.5317 B   0  0  0  0  0  0  0  0  0  0  0  0
    1.9325   -1.7168   -0.1770 N   0  0  0  0  0  0  0  0  0  0  0  0
    2.2669   -1.3657   -1.6119 C   0  0  0  0  0  0  0  0  0  0  0  0
    2.8769   -2.5941   -2.3218 C   0  0  0  0  0  0  0  0  0  0  0  0
    4.1309   -3.1677   -1.6565 C   0  0  0  0  0  0  0  0  0  0  0  0
    4.0922   -2.9550   -0.1387 C   0  0  0  0  0  0  0  0  0  0  0  0
    2.6765   -2.8617    0.4763 C   0  0  0  0  0  0  0  0  0  0  0  0
    0.9689   -1.0461   -2.3730 C   0  0  0  0  0  0  0  0  0  0  0  0
    3.2142   -0.1555   -1.6791 C   0  0  0  0  0  0  0  0  0  0  0  0
    1.8994   -4.1846    0.3316 C   0  0  0  0  0  0  0  0  0  0  0  0
    2.8963   -2.5746    1.9747 C   0  0  0  0  0  0  0  0  0  0  0  0
   -0.3565   -1.7302    1.8515 P   0  0  1  0  0  0  0  0  0  0  0  0
   -0.0318    0.3728    2.6336 Si  0  0  0  0  0  0  0  0  0  0  0  0
   -1.5167    1.1646    3.4874 C   0  0  0  0  0  0  0  0  0  0  0  0
    1.5556    0.7203    3.5893 C   0  0  0  0  0  0  0  0  0  0  0  0
   -4.9903    0.1462    0.4490 H   0  0  0  0  0  0  0  0  0  0  0  0
   -5.3555    0.8744   -1.1217 H   0  0  0  0  0  0  0  0  0  0  0  0
   -5.8023   -1.2112   -2.1469 H   0  0  0  0  0  0  0  0  0  0  0  0
   -6.2076   -1.6261   -0.4756 H   0  0  0  0  0  0  0  0  0  0  0  0
   -4.7088   -3.3892   -1.0257 H   0  0  0  0  0  0  0  0  0  0  0  0
   -3.7834   -2.3980   -2.1521 H   0  0  0  0  0  0  0  0  0  0  0  0
   -1.9652    1.9748   -0.5612 H   0  0  0  0  0  0  0  0  0  0  0  0
   -3.0960    1.6561    0.7960 H   0  0  0  0  0  0  0  0  0  0  0  0
   -3.6863    2.3740   -0.7341 H   0  0  0  0  0  0  0  0  0  0  0  0
   -3.1882   -0.6977   -2.8861 H   0  0  0  0  0  0  0  0  0  0  0  0
   -1.8641    0.4468   -2.5129 H   0  0  0  0  0  0  0  0  0  0  0  0
   -3.4935    1.0653   -2.8962 H   0  0  0  0  0  0  0  0  0  0  0  0
   -1.3412   -3.4006    0.3488 H   0  0  0  0  0  0  0  0  0  0  0  0
   -1.6239   -3.0654   -1.3921 H   0  0  0  0  0  0  0  0  0  0  0  0
   -2.6194   -4.2845   -0.5279 H   0  0  0  0  0  0  0  0  0  0  0  0
   -4.1953   -3.4841    1.3742 H   0  0  0  0  0  0  0  0  0  0  0  0
   -4.5437   -1.7335    1.5601 H   0  0  0  0  0  0  0  0  0  0  0  0
   -2.9618   -2.3955    2.0852 H   0  0  0  0  0  0  0  0  0  0  0  0
    3.0865   -2.2987   -3.3695 H   0  0  0  0  0  0  0  0  0  0  0  0
    2.0884   -3.3715   -2.3823 H   0  0  0  0  0  0  0  0  0  0  0  0
    4.2129   -4.2463   -1.9017 H   0  0  0  0  0  0  0  0  0  0  0  0
    5.0446   -2.6923   -2.0677 H   0  0  0  0  0  0  0  0  0  0  0  0
    4.6331   -3.7679    0.3863 H   0  0  0  0  0  0  0  0  0  0  0  0
    4.6224   -2.0175    0.1266 H   0  0  0  0  0  0  0  0  0  0  0  0
    0.4533   -0.1612   -1.9650 H   0  0  0  0  0  0  0  0  0  0  0  0
    0.2692   -1.9043   -2.3313 H   0  0  0  0  0  0  0  0  0  0  0  0
    1.1944   -0.8250   -3.4348 H   0  0  0  0  0  0  0  0  0  0  0  0
    4.1227   -0.3005   -1.0650 H   0  0  0  0  0  0  0  0  0  0  0  0
    2.6959    0.7532   -1.3210 H   0  0  0  0  0  0  0  0  0  0  0  0
    3.5266    0.0296   -2.7268 H   0  0  0  0  0  0  0  0  0  0  0  0
    1.7393   -4.4681   -0.7251 H   0  0  0  0  0  0  0  0  0  0  0  0
    0.9076   -4.0947    0.8176 H   0  0  0  0  0  0  0  0  0  0  0  0
    2.4484   -5.0097    0.8291 H   0  0  0  0  0  0  0  0  0  0  0  0
    1.9547   -2.5902    2.5538 H   0  0  0  0  0  0  0  0  0  0  0  0
    3.3807   -1.5879    2.1141 H   0  0  0  0  0  0  0  0  0  0  0  0
    3.5639   -3.3493    2.4019 H   0  0  0  0  0  0  0  0  0  0  0  0
   -2.4630    0.8615    2.9985 H   0  0  0  0  0  0  0  0  0  0  0  0
   -1.4417    2.2702    3.4492 H   0  0  0  0  0  0  0  0  0  0  0  0
   -1.5546    0.8515    4.5510 H   0  0  0  0  0  0  0  0  0  0  0  0
    2.4463    0.3463    3.0509 H   0  0  0  0  0  0  0  0  0  0  0  0
    1.5164    0.2523    4.5941 H   0  0  0  0  0  0  0  0  0  0  0  0
    1.6694    1.8159    3.7209 H   0  0  0  0  0  0  0  0  0  0  0  0
  1 12  1  6  0  0  0
  1 13  1  0  0  0  0
  1 25  1  0  0  0  0
  2  7  1  0  0  0  0
  2 12  1  0  0  0  0
  3  4  1  0  0  0  0
  3  8  1  0  0  0  0
  3  2  1  0  0  0  0
  4 28  1  0  0  0  0
  5  4  1  0  0  0  0
  5 31  1  0  0  0  0
  6  5  1  0  0  0  0
  6 32  1  0  0  0  0
  6  7  1  0  0  0  0
  7 11  1  0  0  0  0
  8 35  1  0  0  0  0
  9  3  1  0  0  0  0
 10  7  1  0  0  0  0
 10 40  1  0  0  0  0
 11 43  1  0  0  0  0
 11 44  1  0  0  0  0
 11 45  1  0  0  0  0
 13 24  1  0  0  0  0
 14 19  1  0  0  0  0
 14 13  1  0  0  0  0
 15 14  1  0  0  0  0
 16 17  1  0  0  0  0
 16 15  1  0  0  0  0
 17 18  1  0  0  0  0
 18 51  1  0  0  0  0
 18 50  1  0  0  0  0
 18 19  1  0  0  0  0
 19 23  1  0  0  0  0
 20 53  1  0  0  0  0
 20 52  1  0  0  0  0
 20 15  1  0  0  0  0
 21 15  1  0  0  0  0
 21 56  1  0  0  0  0
 21 55  1  0  0  0  0
 22 19  1  0  0  0  0
 22 59  1  0  0  0  0
 22 60  1  0  0  0  0
 23 62  1  0  0  0  0
 23 63  1  0  0  0  0
 23 61  1  0  0  0  0
 24 12  1  6  0  0  0
 24 25  1  0  0  0  0
 25 26  1  0  0  0  0
 25 27  1  0  0  0  0
 26 66  1  0  0  0  0
 27 69  1  0  0  0  0
 27 68  1  0  0  0  0
 29  4  1  0  0  0  0
 30  5  1  0  0  0  0
 33  6  1  0  0  0  0
 34  8  1  0  0  0  0
 36  8  1  0  0  0  0
 37  9  1  0  0  0  0
 38  9  1  0  0  0  0
 39  9  1  0  0  0  0
 41 10  1  0  0  0  0
 42 10  1  0  0  0  0
 46 16  1  0  0  0  0
 47 16  1  0  0  0  0
 48 17  1  0  0  0  0
 49 17  1  0  0  0  0
 54 20  1  0  0  0  0
 57 21  1  0  0  0  0
 58 22  1  0  0  0  0
 64 26  1  0  0  0  0
 65 26  1  0  0  0  0
 67 27  1  0  0  0  0
M  END
