1
 OpenBabel05122313063D

 55 57  0  0  0  0  0  0  0  0999 V2000
    1.0243   -0.3804    0.1160 P   0  0  0  0  0  0  0  0  0  0  0  0
    1.0329    0.7189    1.3697 O   0  0  0  0  0  0  0  0  0  0  0  0
    1.9423    0.4373   -0.9964 O   0  0  0  0  0  0  0  0  0  0  0  0
    2.1639   -1.4989    0.5294 O   0  0  0  0  0  0  0  0  0  0  0  0
   -0.0645    0.9606    2.2182 C   0  0  0  0  0  0  0  0  0  0  0  0
   -0.6670    2.2353    2.1315 C   0  0  0  0  0  0  0  0  0  0  0  0
   -1.7367    2.5095    3.0025 C   0  0  0  0  0  0  0  0  0  0  0  0
   -2.1863    1.5537    3.9234 C   0  0  0  0  0  0  0  0  0  0  0  0
   -1.5583    0.3052    3.9911 C   0  0  0  0  0  0  0  0  0  0  0  0
   -0.4807   -0.0212    3.1421 C   0  0  0  0  0  0  0  0  0  0  0  0
    1.7517    1.7380   -1.4695 C   0  0  0  0  0  0  0  0  0  0  0  0
    2.5621    2.7555   -0.9215 C   0  0  0  0  0  0  0  0  0  0  0  0
    2.3900    4.0595   -1.4232 C   0  0  0  0  0  0  0  0  0  0  0  0
    1.4574    4.3284   -2.4343 C   0  0  0  0  0  0  0  0  0  0  0  0
    0.7062    3.2839   -2.9893 C   0  0  0  0  0  0  0  0  0  0  0  0
    0.8487    1.9589   -2.5319 C   0  0  0  0  0  0  0  0  0  0  0  0
    3.5378   -1.4426    0.2511 C   0  0  0  0  0  0  0  0  0  0  0  0
    4.4187   -0.9801    1.2509 C   0  0  0  0  0  0  0  0  0  0  0  0
    5.7949   -0.9768    0.9482 C   0  0  0  0  0  0  0  0  0  0  0  0
    6.2669   -1.4249   -0.2924 C   0  0  0  0  0  0  0  0  0  0  0  0
    5.3643   -1.9039   -1.2513 C   0  0  0  0  0  0  0  0  0  0  0  0
    3.9795   -1.9276   -0.9990 C   0  0  0  0  0  0  0  0  0  0  0  0
   -0.2019    3.2446    1.1215 C   0  0  0  0  0  0  0  0  0  0  0  0
    0.1646   -1.3794    3.2192 C   0  0  0  0  0  0  0  0  0  0  0  0
    3.5687    2.4475    0.1532 C   0  0  0  0  0  0  0  0  0  0  0  0
    0.1008    0.8217   -3.1695 C   0  0  0  0  0  0  0  0  0  0  0  0
    3.9177   -0.5347    2.5987 C   0  0  0  0  0  0  0  0  0  0  0  0
    3.0018   -2.4555   -2.0133 C   0  0  0  0  0  0  0  0  0  0  0  0
    0.8744    3.4808    1.2353 H   0  0  0  0  0  0  0  0  0  0  0  0
   -0.7745    4.1869    1.2150 H   0  0  0  0  0  0  0  0  0  0  0  0
   -0.3379    2.8525    0.0929 H   0  0  0  0  0  0  0  0  0  0  0  0
   -2.2246    3.4949    2.9440 H   0  0  0  0  0  0  0  0  0  0  0  0
   -3.0269    1.7857    4.5945 H   0  0  0  0  0  0  0  0  0  0  0  0
   -1.8999   -0.4471    4.7191 H   0  0  0  0  0  0  0  0  0  0  0  0
   -0.2177   -2.0418    2.4128 H   0  0  0  0  0  0  0  0  0  0  0  0
   -0.0587   -1.8645    4.1886 H   0  0  0  0  0  0  0  0  0  0  0  0
    1.2613   -1.3280    3.0928 H   0  0  0  0  0  0  0  0  0  0  0  0
    4.2354    3.3129    0.3285 H   0  0  0  0  0  0  0  0  0  0  0  0
    4.1894    1.5685   -0.1131 H   0  0  0  0  0  0  0  0  0  0  0  0
    3.0654    2.1979    1.1098 H   0  0  0  0  0  0  0  0  0  0  0  0
    3.0058    4.8722   -1.0074 H   0  0  0  0  0  0  0  0  0  0  0  0
    1.3312    5.3556   -2.8079 H   0  0  0  0  0  0  0  0  0  0  0  0
   -0.0016    3.4856   -3.8082 H   0  0  0  0  0  0  0  0  0  0  0  0
    0.7951    0.0200   -3.4964 H   0  0  0  0  0  0  0  0  0  0  0  0
   -0.4709    1.1699   -4.0502 H   0  0  0  0  0  0  0  0  0  0  0  0
   -0.6127    0.3507   -2.4583 H   0  0  0  0  0  0  0  0  0  0  0  0
    3.1081    0.2149    2.5127 H   0  0  0  0  0  0  0  0  0  0  0  0
    4.7390   -0.1002    3.1991 H   0  0  0  0  0  0  0  0  0  0  0  0
    3.4997   -1.3917    3.1680 H   0  0  0  0  0  0  0  0  0  0  0  0
    6.5019   -0.6147    1.7108 H   0  0  0  0  0  0  0  0  0  0  0  0
    7.3454   -1.4101   -0.5095 H   0  0  0  0  0  0  0  0  0  0  0  0
    5.7314   -2.2720   -2.2219 H   0  0  0  0  0  0  0  0  0  0  0  0
    2.3603   -3.2499   -1.5818 H   0  0  0  0  0  0  0  0  0  0  0  0
    3.5309   -2.8725   -2.8907 H   0  0  0  0  0  0  0  0  0  0  0  0
    2.3232   -1.6537   -2.3707 H   0  0  0  0  0  0  0  0  0  0  0  0
  1  4  1  0  0  0  0
  1  2  1  0  0  0  0
  2  5  1  0  0  0  0
  3  1  1  0  0  0  0
  5 10  1  0  0  0  0
  6  5  2  0  0  0  0
  6  7  1  0  0  0  0
  7  8  2  0  0  0  0
  8  9  1  0  0  0  0
  8 33  1  0  0  0  0
  9 34  1  0  0  0  0
 10 24  1  0  0  0  0
 10  9  2  0  0  0  0
 11  3  1  0  0  0  0
 11 12  1  0  0  0  0
 12 25  1  0  0  0  0
 13 41  1  0  0  0  0
 13 12  2  0  0  0  0
 14 13  1  0  0  0  0
 15 16  1  0  0  0  0
 15 14  2  0  0  0  0
 16 11  2  0  0  0  0
 17  4  1  0  0  0  0
 17 18  1  0  0  0  0
 18 27  1  0  0  0  0
 19 18  2  0  0  0  0
 19 50  1  0  0  0  0
 20 19  1  0  0  0  0
 21 22  1  0  0  0  0
 21 20  2  0  0  0  0
 22 17  2  0  0  0  0
 23 30  1  0  0  0  0
 23 29  1  0  0  0  0
 23  6  1  0  0  0  0
 24 36  1  0  0  0  0
 25 38  1  0  0  0  0
 25 40  1  0  0  0  0
 26 16  1  0  0  0  0
 26 46  1  0  0  0  0
 27 49  1  0  0  0  0
 27 48  1  0  0  0  0
 28 53  1  0  0  0  0
 28 22  1  0  0  0  0
 31 23  1  0  0  0  0
 32  7  1  0  0  0  0
 35 24  1  0  0  0  0
 37 24  1  0  0  0  0
 39 25  1  0  0  0  0
 42 14  1  0  0  0  0
 43 15  1  0  0  0  0
 44 26  1  0  0  0  0
 45 26  1  0  0  0  0
 47 27  1  0  0  0  0
 51 20  1  0  0  0  0
 52 21  1  0  0  0  0
 54 28  1  0  0  0  0
 55 28  1  0  0  0  0
M  END
