1
 OpenBabel05122313063D

 42 44  0  0  0  0  0  0  0  0999 V2000
   -0.6312    0.6503   -0.3532 P   0  0  0  0  0  0  0  0  0  0  0  0
   -2.1557    1.4183   -1.0453 C   0  0  0  0  0  0  0  0  0  0  0  0
   -3.1245    1.8697   -0.1222 C   0  0  0  0  0  0  0  0  0  0  0  0
   -4.3500    2.3744   -0.5734 C   0  0  0  0  0  0  0  0  0  0  0  0
   -4.6270    2.4308   -1.9498 C   0  0  0  0  0  0  0  0  0  0  0  0
   -3.6714    1.9791   -2.8707 C   0  0  0  0  0  0  0  0  0  0  0  0
   -2.4397    1.4731   -2.4231 C   0  0  0  0  0  0  0  0  0  0  0  0
   -0.0045    1.9904    0.7518 C   0  0  0  0  0  0  0  0  0  0  0  0
    0.5589    1.6785    2.0018 C   0  0  0  0  0  0  0  0  0  0  0  0
    1.0856    2.6950    2.8134 C   0  0  0  0  0  0  0  0  0  0  0  0
    1.0541    4.0291    2.3802 C   0  0  0  0  0  0  0  0  0  0  0  0
    0.4871    4.3472    1.1342 C   0  0  0  0  0  0  0  0  0  0  0  0
   -0.0427    3.3339    0.3240 C   0  0  0  0  0  0  0  0  0  0  0  0
    0.5646    0.7443   -1.8044 C   0  0  0  0  0  0  0  0  0  0  0  0
    1.9262    0.2363   -1.4570 C   0  0  0  0  0  0  0  0  0  0  0  0
    2.5231   -0.8609   -2.0071 C   0  0  0  0  0  0  0  0  0  0  0  0
    3.7622   -1.3919   -1.4370 C   0  0  0  0  0  0  0  0  0  0  0  0
    3.9589    0.7515   -0.3126 C   0  0  0  0  0  0  0  0  0  0  0  0
    4.2622    1.1905    1.1076 C   0  0  0  0  0  0  0  0  0  0  0  0
    4.6919    1.5592   -1.3830 C   0  0  0  0  0  0  0  0  0  0  0  0
    2.5238    0.9622   -0.4910 O   0  0  0  0  0  0  0  0  0  0  0  0
    4.2863   -2.4470   -1.7213 O   0  0  0  0  0  0  0  0  0  0  0  0
    4.2961   -0.6273   -0.4034 O   0  0  0  0  0  0  0  0  0  0  0  0
   -2.9163    1.8197    0.9584 H   0  0  0  0  0  0  0  0  0  0  0  0
   -5.0969    2.7227    0.1558 H   0  0  0  0  0  0  0  0  0  0  0  0
   -5.5921    2.8236   -2.3033 H   0  0  0  0  0  0  0  0  0  0  0  0
   -3.8825    2.0166   -3.9501 H   0  0  0  0  0  0  0  0  0  0  0  0
   -1.7093    1.1177   -3.1640 H   0  0  0  0  0  0  0  0  0  0  0  0
    0.5949    0.6332    2.3379 H   0  0  0  0  0  0  0  0  0  0  0  0
    1.5231    2.4396    3.7903 H   0  0  0  0  0  0  0  0  0  0  0  0
    1.4657    4.8264    3.0176 H   0  0  0  0  0  0  0  0  0  0  0  0
    0.4526    5.3932    0.7937 H   0  0  0  0  0  0  0  0  0  0  0  0
   -0.4996    3.5914   -0.6445 H   0  0  0  0  0  0  0  0  0  0  0  0
    0.1412    0.1263   -2.6177 H   0  0  0  0  0  0  0  0  0  0  0  0
    0.6150    1.8037   -2.1326 H   0  0  0  0  0  0  0  0  0  0  0  0
    2.0286   -1.4503   -2.7872 H   0  0  0  0  0  0  0  0  0  0  0  0
    3.9346    2.2359    1.2603 H   0  0  0  0  0  0  0  0  0  0  0  0
    3.7208    0.5311    1.8108 H   0  0  0  0  0  0  0  0  0  0  0  0
    5.3480    1.1084    1.2998 H   0  0  0  0  0  0  0  0  0  0  0  0
    4.4633    2.6363   -1.2720 H   0  0  0  0  0  0  0  0  0  0  0  0
    5.7823    1.4061   -1.2744 H   0  0  0  0  0  0  0  0  0  0  0  0
    4.3943    1.2309   -2.3977 H   0  0  0  0  0  0  0  0  0  0  0  0
  1  8  1  0  0  0  0
  2  1  1  0  0  0  0
  2  3  1  0  0  0  0
  3 24  1  0  0  0  0
  4  3  2  0  0  0  0
  4 25  1  0  0  0  0
  5  4  1  0  0  0  0
  6  7  1  0  0  0  0
  6  5  2  0  0  0  0
  7  2  2  0  0  0  0
  8  9  1  0  0  0  0
  9 29  1  0  0  0  0
  9 10  2  0  0  0  0
 10 30  1  0  0  0  0
 11 10  1  0  0  0  0
 11 31  1  0  0  0  0
 12 11  2  0  0  0  0
 13  8  2  0  0  0  0
 13 12  1  0  0  0  0
 14 15  1  0  0  0  0
 14  1  1  0  0  0  0
 15 21  1  0  0  0  0
 16 15  2  0  0  0  0
 16 17  1  0  0  0  0
 17 23  1  0  0  0  0
 18 19  1  0  0  0  0
 19 37  1  0  0  0  0
 19 39  1  0  0  0  0
 19 38  1  0  0  0  0
 20 41  1  0  0  0  0
 20 40  1  0  0  0  0
 20 18  1  0  0  0  0
 21 18  1  0  0  0  0
 22 17  2  0  0  0  0
 23 18  1  0  0  0  0
 26  5  1  0  0  0  0
 27  6  1  0  0  0  0
 28  7  1  0  0  0  0
 32 12  1  0  0  0  0
 33 13  1  0  0  0  0
 34 14  1  0  0  0  0
 35 14  1  0  0  0  0
 36 16  1  0  0  0  0
 42 20  1  0  0  0  0
M  END
