1
 OpenBabel05122313063D

 32 33  0  0  1  0  0  0  0  0999 V2000
    0.1355   -0.1102   -0.4097 P   0  0  1  0  0  0  0  0  0  0  0  0
   -0.4079   -0.4889   -1.9149 F   0  0  0  0  0  0  0  0  0  0  0  0
   -3.2406    2.6062   -1.2066 O   0  0  0  0  0  0  0  0  0  0  0  0
   -4.6932    1.1806   -0.1965 O   0  0  0  0  0  0  0  0  0  0  0  0
   -3.6015   -2.4934    1.0807 O   0  0  0  0  0  0  0  0  0  0  0  0
   -4.2952   -1.5211   -0.8536 O   0  0  0  0  0  0  0  0  0  0  0  0
   -1.0075    1.2871    0.1767 C   0  0  1  0  0  0  0  0  0  0  0  0
   -2.3827    0.6976   -0.0708 C   0  0  0  0  0  0  0  0  0  0  0  0
   -2.3902   -0.6348    0.2350 C   0  0  0  0  0  0  0  0  0  0  0  0
   -1.0281   -1.0608    0.7520 C   0  0  2  0  0  0  0  0  0  0  0  0
   -0.6323   -0.2262    1.9710 C   0  0  0  0  0  0  0  0  0  0  0  0
   -0.6078    1.1015    1.6428 C   0  0  0  0  0  0  0  0  0  0  0  0
   -0.2235    2.2737    2.4819 C   0  0  0  0  0  0  0  0  0  0  0  0
   -0.3227   -0.8935    3.2680 C   0  0  0  0  0  0  0  0  0  0  0  0
   -3.4589    1.5896   -0.5661 C   0  0  0  0  0  0  0  0  0  0  0  0
   -5.7735    1.9769   -0.6959 C   0  0  0  0  0  0  0  0  0  0  0  0
   -3.4875   -1.6345    0.2195 C   0  0  0  0  0  0  0  0  0  0  0  0
   -5.4017   -2.4304   -0.8842 C   0  0  0  0  0  0  0  0  0  0  0  0
   -0.8510    2.2932   -0.2472 H   0  0  0  0  0  0  0  0  0  0  0  0
   -0.8803   -2.1484    0.8587 H   0  0  0  0  0  0  0  0  0  0  0  0
   -1.0744    2.9794    2.5922 H   0  0  0  0  0  0  0  0  0  0  0  0
    0.5985    2.8438    1.9986 H   0  0  0  0  0  0  0  0  0  0  0  0
    0.1173    1.9730    3.4900 H   0  0  0  0  0  0  0  0  0  0  0  0
   -0.0196   -0.1738    4.0509 H   0  0  0  0  0  0  0  0  0  0  0  0
    0.4979   -1.6319    3.1439 H   0  0  0  0  0  0  0  0  0  0  0  0
   -1.2086   -1.4603    3.6252 H   0  0  0  0  0  0  0  0  0  0  0  0
   -5.6600    3.0358   -0.3882 H   0  0  0  0  0  0  0  0  0  0  0  0
   -6.6951    1.5446   -0.2678 H   0  0  0  0  0  0  0  0  0  0  0  0
   -5.8081    1.9406   -1.8037 H   0  0  0  0  0  0  0  0  0  0  0  0
   -5.0549   -3.4793   -0.7962 H   0  0  0  0  0  0  0  0  0  0  0  0
   -5.9052   -2.2665   -1.8532 H   0  0  0  0  0  0  0  0  0  0  0  0
   -6.0992   -2.2236   -0.0471 H   0  0  0  0  0  0  0  0  0  0  0  0
  1  2  1  6  0  0  0
  1  7  1  0  0  0  0
  1 10  1  0  0  0  0
  3 15  2  0  0  0  0
  6 17  1  0  0  0  0
  7 19  1  6  0  0  0
  7 12  1  0  0  0  0
  8  7  1  0  0  0  0
  8  9  2  0  0  0  0
  9 10  1  0  0  0  0
 10 20  1  1  0  0  0
 10 11  1  0  0  0  0
 11 14  1  0  0  0  0
 12 11  2  0  0  0  0
 12 13  1  0  0  0  0
 13 21  1  0  0  0  0
 13 23  1  0  0  0  0
 14 26  1  0  0  0  0
 14 24  1  0  0  0  0
 15  4  1  0  0  0  0
 15  8  1  0  0  0  0
 16 27  1  0  0  0  0
 16 28  1  0  0  0  0
 16  4  1  0  0  0  0
 17  9  1  0  0  0  0
 17  5  2  0  0  0  0
 18  6  1  0  0  0  0
 18 30  1  0  0  0  0
 18 32  1  0  0  0  0
 22 13  1  0  0  0  0
 25 14  1  0  0  0  0
 29 16  1  0  0  0  0
 31 18  1  0  0  0  0
M  END
