1
 OpenBabel05122313063D

 38 40  0  0  0  0  0  0  0  0999 V2000
   -1.8835    0.5129   -0.3625 P   0  0  0  0  0  0  0  0  0  0  0  0
   -2.1562    0.3310    1.4472 C   0  0  0  0  0  0  0  0  0  0  0  0
   -1.3613    1.1327    2.2950 C   0  0  0  0  0  0  0  0  0  0  0  0
   -0.5894    1.7877    1.8611 H   0  0  0  0  0  0  0  0  0  0  0  0
   -1.5481    1.0984    3.6821 C   0  0  0  0  0  0  0  0  0  0  0  0
   -0.9285    1.7363    4.3307 H   0  0  0  0  0  0  0  0  0  0  0  0
   -2.5104    0.2404    4.2418 C   0  0  0  0  0  0  0  0  0  0  0  0
   -2.6525    0.2070    5.3328 H   0  0  0  0  0  0  0  0  0  0  0  0
   -3.2807   -0.5816    3.4062 C   0  0  0  0  0  0  0  0  0  0  0  0
   -4.0261   -1.2656    3.8397 H   0  0  0  0  0  0  0  0  0  0  0  0
   -3.1114   -0.5338    2.0129 C   0  0  0  0  0  0  0  0  0  0  0  0
   -3.7310   -1.1649    1.3594 H   0  0  0  0  0  0  0  0  0  0  0  0
   -2.6224    2.1577   -0.7283 C   0  0  0  0  0  0  0  0  0  0  0  0
   -3.5140    2.8179    0.1413 C   0  0  0  0  0  0  0  0  0  0  0  0
   -3.7880    2.3559    1.1019 H   0  0  0  0  0  0  0  0  0  0  0  0
   -4.0451    4.0668   -0.2177 C   0  0  0  0  0  0  0  0  0  0  0  0
   -4.7398    4.5808    0.4644 H   0  0  0  0  0  0  0  0  0  0  0  0
   -3.6919    4.6583   -1.4413 C   0  0  0  0  0  0  0  0  0  0  0  0
   -4.1092    5.6384   -1.7190 H   0  0  0  0  0  0  0  0  0  0  0  0
   -2.8007    4.0018   -2.3068 C   0  0  0  0  0  0  0  0  0  0  0  0
   -2.5149    4.4660   -3.2631 H   0  0  0  0  0  0  0  0  0  0  0  0
   -2.2592    2.7571   -1.9547 C   0  0  0  0  0  0  0  0  0  0  0  0
   -1.5414    2.2449   -2.6205 H   0  0  0  0  0  0  0  0  0  0  0  0
   -3.0647   -0.6937   -1.1264 C   0  0  0  0  0  0  0  0  0  0  0  0
   -4.3508   -0.3515   -1.3679 C   0  0  0  0  0  0  0  0  0  0  0  0
   -5.0310   -1.0557   -1.8758 H   0  0  0  0  0  0  0  0  0  0  0  0
   -4.7491    0.6399   -1.1014 H   0  0  0  0  0  0  0  0  0  0  0  0
   -2.5187   -2.0317   -1.4747 C   0  0  0  0  0  0  0  0  0  0  0  0
   -1.3240   -2.1565   -2.2215 C   0  0  0  0  0  0  0  0  0  0  0  0
   -0.7882   -1.2541   -2.5681 H   0  0  0  0  0  0  0  0  0  0  0  0
   -0.8464   -3.4232   -2.5862 C   0  0  0  0  0  0  0  0  0  0  0  0
    0.0803   -3.4962   -3.1758 H   0  0  0  0  0  0  0  0  0  0  0  0
   -1.5482   -4.5833   -2.2174 C   0  0  0  0  0  0  0  0  0  0  0  0
   -1.1697   -5.5759   -2.5056 H   0  0  0  0  0  0  0  0  0  0  0  0
   -2.7369   -4.4688   -1.4773 C   0  0  0  0  0  0  0  0  0  0  0  0
   -3.2909   -5.3718   -1.1783 H   0  0  0  0  0  0  0  0  0  0  0  0
   -3.2152   -3.2042   -1.1052 C   0  0  0  0  0  0  0  0  0  0  0  0
   -4.1369   -3.1156   -0.5097 H   0  0  0  0  0  0  0  0  0  0  0  0
  1  2  1  0  0  0  0
  2 11  2  0  0  0  0
  2  3  1  0  0  0  0
  3  5  2  0  0  0  0
  4  3  1  0  0  0  0
  5  7  1  0  0  0  0
  5  6  1  0  0  0  0
  7  8  1  0  0  0  0
  9 10  1  0  0  0  0
  9  7  2  0  0  0  0
 11  9  1  0  0  0  0
 12 11  1  0  0  0  0
 13  1  1  0  0  0  0
 13 14  1  0  0  0  0
 14 15  1  0  0  0  0
 16 14  2  0  0  0  0
 16 17  1  0  0  0  0
 18 16  1  0  0  0  0
 19 18  1  0  0  0  0
 20 22  1  0  0  0  0
 20 18  2  0  0  0  0
 21 20  1  0  0  0  0
 22 13  2  0  0  0  0
 23 22  1  0  0  0  0
 24  1  1  0  0  0  0
 25 24  2  0  0  0  0
 25 27  1  0  0  0  0
 26 25  1  0  0  0  0
 28 24  1  0  0  0  0
 28 37  1  0  0  0  0
 29 28  2  0  0  0  0
 30 29  1  0  0  0  0
 31 29  1  0  0  0  0
 31 33  2  0  0  0  0
 32 31  1  0  0  0  0
 33 35  1  0  0  0  0
 34 33  1  0  0  0  0
 35 36  1  0  0  0  0
 35 37  2  0  0  0  0
 37 38  1  0  0  0  0
M  END
