1
 OpenBabel05122313063D

 55 60  0  0  0  0  0  0  0  0999 V2000
    0.7651   -0.2166   -0.0201 P   0  0  0  0  0  0  0  0  0  0  0  0
    2.8770   -0.4096    1.8333 N   0  0  0  0  0  0  0  0  0  0  0  0
    3.5228   -0.7235    1.1075 H   0  0  0  0  0  0  0  0  0  0  0  0
    3.1119   -0.5156   -1.5107 N   0  0  0  0  0  0  0  0  0  0  0  0
    3.2664    0.4946   -1.5027 H   0  0  0  0  0  0  0  0  0  0  0  0
    1.2198    2.5434    0.2828 N   0  0  0  0  0  0  0  0  0  0  0  0
    1.4973    2.3991    1.2562 H   0  0  0  0  0  0  0  0  0  0  0  0
    1.5293   -0.1475    1.6186 C   0  0  0  0  0  0  0  0  0  0  0  0
    0.9204    0.2164    2.8241 C   0  0  0  0  0  0  0  0  0  0  0  0
    1.9582    0.1691    3.8253 C   0  0  0  0  0  0  0  0  0  0  0  0
    1.9784    0.4228    5.2169 C   0  0  0  0  0  0  0  0  0  0  0  0
    1.0631    0.7357    5.7416 H   0  0  0  0  0  0  0  0  0  0  0  0
    3.1796    0.2672    5.9099 C   0  0  0  0  0  0  0  0  0  0  0  0
    3.2137    0.4600    6.9923 H   0  0  0  0  0  0  0  0  0  0  0  0
    4.3648   -0.1381    5.2429 C   0  0  0  0  0  0  0  0  0  0  0  0
    5.2943   -0.2514    5.8204 H   0  0  0  0  0  0  0  0  0  0  0  0
    4.3794   -0.3968    3.8700 C   0  0  0  0  0  0  0  0  0  0  0  0
    5.3004   -0.7120    3.3579 H   0  0  0  0  0  0  0  0  0  0  0  0
    3.1686   -0.2367    3.1706 C   0  0  0  0  0  0  0  0  0  0  0  0
   -0.5187    0.5703    3.0325 C   0  0  0  0  0  0  0  0  0  0  0  0
   -1.1045    0.4578    2.0926 H   0  0  0  0  0  0  0  0  0  0  0  0
   -0.6478    1.6200    3.3719 H   0  0  0  0  0  0  0  0  0  0  0  0
   -0.9880   -0.0765    3.8030 H   0  0  0  0  0  0  0  0  0  0  0  0
    1.9306   -1.1103   -1.0579 C   0  0  0  0  0  0  0  0  0  0  0  0
    1.8739   -2.4363   -1.4929 C   0  0  0  0  0  0  0  0  0  0  0  0
    3.0695   -2.6549   -2.2709 C   0  0  0  0  0  0  0  0  0  0  0  0
    3.5789   -3.7740   -2.9699 C   0  0  0  0  0  0  0  0  0  0  0  0
    3.0355   -4.7309   -2.9658 H   0  0  0  0  0  0  0  0  0  0  0  0
    4.7814   -3.6399   -3.6652 C   0  0  0  0  0  0  0  0  0  0  0  0
    5.1920   -4.4990   -4.2157 H   0  0  0  0  0  0  0  0  0  0  0  0
    5.4886   -2.4100   -3.6767 C   0  0  0  0  0  0  0  0  0  0  0  0
    6.4320   -2.3380   -4.2382 H   0  0  0  0  0  0  0  0  0  0  0  0
    5.0169   -1.2882   -2.9895 C   0  0  0  0  0  0  0  0  0  0  0  0
    5.5706   -0.3379   -2.9997 H   0  0  0  0  0  0  0  0  0  0  0  0
    3.8077   -1.4268   -2.2839 C   0  0  0  0  0  0  0  0  0  0  0  0
    0.8004   -3.4358   -1.2050 C   0  0  0  0  0  0  0  0  0  0  0  0
   -0.0966   -2.9303   -0.7873 H   0  0  0  0  0  0  0  0  0  0  0  0
    1.1312   -4.2015   -0.4713 H   0  0  0  0  0  0  0  0  0  0  0  0
    0.4979   -3.9752   -2.1257 H   0  0  0  0  0  0  0  0  0  0  0  0
    0.9065    1.5088   -0.5898 C   0  0  0  0  0  0  0  0  0  0  0  0
    0.5487    2.0337   -1.8356 C   0  0  0  0  0  0  0  0  0  0  0  0
    0.6628    3.4675   -1.7123 C   0  0  0  0  0  0  0  0  0  0  0  0
    0.4394    4.5424   -2.6053 C   0  0  0  0  0  0  0  0  0  0  0  0
    0.1266    4.3511   -3.6430 H   0  0  0  0  0  0  0  0  0  0  0  0
    0.6308    5.8472   -2.1474 C   0  0  0  0  0  0  0  0  0  0  0  0
    0.4637    6.6940   -2.8294 H   0  0  0  0  0  0  0  0  0  0  0  0
    1.0471    6.1051   -0.8155 C   0  0  0  0  0  0  0  0  0  0  0  0
    1.1935    7.1456   -0.4898 H   0  0  0  0  0  0  0  0  0  0  0  0
    1.2789    5.0671    0.0913 C   0  0  0  0  0  0  0  0  0  0  0  0
    1.6043    5.2711    1.1221 H   0  0  0  0  0  0  0  0  0  0  0  0
    1.0794    3.7520   -0.3681 C   0  0  0  0  0  0  0  0  0  0  0  0
    0.1186    1.2580   -3.0415 C   0  0  0  0  0  0  0  0  0  0  0  0
   -0.1505    0.2138   -2.7820 H   0  0  0  0  0  0  0  0  0  0  0  0
    0.9187    1.2046   -3.8104 H   0  0  0  0  0  0  0  0  0  0  0  0
   -0.7619    1.7252   -3.5293 H   0  0  0  0  0  0  0  0  0  0  0  0
  1  8  1  0  0  0  0
  2 19  1  0  0  0  0
  3  2  1  0  0  0  0
  4  5  1  0  0  0  0
  4 24  1  0  0  0  0
  6  7  1  0  0  0  0
  8  2  1  0  0  0  0
  8  9  2  0  0  0  0
  9 20  1  0  0  0  0
  9 10  1  0  0  0  0
 10 11  1  0  0  0  0
 11 12  1  0  0  0  0
 11 13  2  0  0  0  0
 13 14  1  0  0  0  0
 15 16  1  0  0  0  0
 15 13  1  0  0  0  0
 17 15  2  0  0  0  0
 18 17  1  0  0  0  0
 19 10  2  0  0  0  0
 19 17  1  0  0  0  0
 20 22  1  0  0  0  0
 20 23  1  0  0  0  0
 21 20  1  0  0  0  0
 24  1  1  0  0  0  0
 25 36  1  0  0  0  0
 25 24  2  0  0  0  0
 26 25  1  0  0  0  0
 27 28  1  0  0  0  0
 27 26  2  0  0  0  0
 29 27  1  0  0  0  0
 30 29  1  0  0  0  0
 31 29  2  0  0  0  0
 31 33  1  0  0  0  0
 32 31  1  0  0  0  0
 33 35  2  0  0  0  0
 34 33  1  0  0  0  0
 35 26  1  0  0  0  0
 35  4  1  0  0  0  0
 36 37  1  0  0  0  0
 36 38  1  0  0  0  0
 39 36  1  0  0  0  0
 40  1  1  0  0  0  0
 40  6  1  0  0  0  0
 41 42  1  0  0  0  0
 41 40  2  0  0  0  0
 42 51  1  0  0  0  0
 43 45  1  0  0  0  0
 43 42  2  0  0  0  0
 44 43  1  0  0  0  0
 45 47  2  0  0  0  0
 46 45  1  0  0  0  0
 47 48  1  0  0  0  0
 47 49  1  0  0  0  0
 49 50  1  0  0  0  0
 51 49  2  0  0  0  0
 51  6  1  0  0  0  0
 52 53  1  0  0  0  0
 52 41  1  0  0  0  0
 54 52  1  0  0  0  0
 55 52  1  0  0  0  0
M  END
