1
 OpenBabel05122313063D

 29 30  0  0  0  0  0  0  0  0999 V2000
    0.2525    0.0022    0.4236 P   0  0  0  0  0  0  0  0  0  0  0  0
    1.2811    0.7015    2.8774 O   0  0  0  0  0  0  0  0  0  0  0  0
    0.4975   -0.0552    2.3461 C   0  0  0  0  0  0  0  0  0  0  0  0
   -0.3284   -1.0845    3.0666 C   0  0  0  0  0  0  0  0  0  0  0  0
    1.2099    1.4864   -0.0532 C   0  0  0  0  0  0  0  0  0  0  0  0
    0.9754    2.7120    0.6052 C   0  0  0  0  0  0  0  0  0  0  0  0
    1.6517    3.8671    0.1909 C   0  0  0  0  0  0  0  0  0  0  0  0
    2.5520    3.8138   -0.8856 C   0  0  0  0  0  0  0  0  0  0  0  0
    2.7765    2.5986   -1.5499 C   0  0  0  0  0  0  0  0  0  0  0  0
    2.1102    1.4356   -1.1361 C   0  0  0  0  0  0  0  0  0  0  0  0
    1.3369   -1.4052   -0.0518 C   0  0  0  0  0  0  0  0  0  0  0  0
    0.8915   -2.3823   -0.9610 C   0  0  0  0  0  0  0  0  0  0  0  0
    1.7352   -3.4477   -1.3119 C   0  0  0  0  0  0  0  0  0  0  0  0
    3.0194   -3.5430   -0.7549 C   0  0  0  0  0  0  0  0  0  0  0  0
    3.4674   -2.5669    0.1519 C   0  0  0  0  0  0  0  0  0  0  0  0
    2.6329   -1.4977    0.5034 C   0  0  0  0  0  0  0  0  0  0  0  0
    0.0158   -1.1723    4.1135 H   0  0  0  0  0  0  0  0  0  0  0  0
   -1.3918   -0.7680    3.0437 H   0  0  0  0  0  0  0  0  0  0  0  0
   -0.2839   -2.0637    2.5500 H   0  0  0  0  0  0  0  0  0  0  0  0
    0.2654    2.7698    1.4416 H   0  0  0  0  0  0  0  0  0  0  0  0
    1.4711    4.8181    0.7142 H   0  0  0  0  0  0  0  0  0  0  0  0
    3.0779    4.7246   -1.2096 H   0  0  0  0  0  0  0  0  0  0  0  0
    3.4746    2.5520   -2.3993 H   0  0  0  0  0  0  0  0  0  0  0  0
    2.2892    0.4858   -1.6612 H   0  0  0  0  0  0  0  0  0  0  0  0
   -0.1158   -2.2960   -1.3950 H   0  0  0  0  0  0  0  0  0  0  0  0
    1.3839   -4.2071   -2.0265 H   0  0  0  0  0  0  0  0  0  0  0  0
    3.6776   -4.3814   -1.0291 H   0  0  0  0  0  0  0  0  0  0  0  0
    4.4756   -2.6377    0.5874 H   0  0  0  0  0  0  0  0  0  0  0  0
    2.9897   -0.7261    1.2032 H   0  0  0  0  0  0  0  0  0  0  0  0
  1  3  1  0  0  0  0
  3  2  2  0  0  0  0
  3  4  1  0  0  0  0
  4 17  1  0  0  0  0
  5  1  1  0  0  0  0
  5  6  1  0  0  0  0
  6 20  1  0  0  0  0
  7  6  2  0  0  0  0
  7 21  1  0  0  0  0
  8  7  1  0  0  0  0
  9 10  1  0  0  0  0
  9  8  2  0  0  0  0
 10  5  2  0  0  0  0
 11  1  1  0  0  0  0
 11 16  1  0  0  0  0
 12 11  2  0  0  0  0
 13 12  1  0  0  0  0
 13 14  2  0  0  0  0
 14 15  1  0  0  0  0
 15 16  2  0  0  0  0
 15 28  1  0  0  0  0
 16 29  1  0  0  0  0
 18  4  1  0  0  0  0
 19  4  1  0  0  0  0
 22  8  1  0  0  0  0
 23  9  1  0  0  0  0
 24 10  1  0  0  0  0
 25 12  1  0  0  0  0
 26 13  1  0  0  0  0
 27 14  1  0  0  0  0
M  END
