1
 OpenBabel05122313063D

 36 37  0  0  1  0  0  0  0  0999 V2000
    2.3085   -0.2690   -0.1456 P   0  0  2  0  0  0  0  0  0  0  0  0
    3.1497    0.8412   -1.3713 C   0  0  1  0  0  0  0  0  0  0  0  0
    2.6506    0.6447   -2.3426 H   0  0  0  0  0  0  0  0  0  0  0  0
    2.8133    2.2899   -0.9555 C   0  0  0  0  0  0  0  0  0  0  0  0
    1.7068    2.3889   -1.0038 H   0  0  0  0  0  0  0  0  0  0  0  0
    3.2219    2.9836   -1.7222 H   0  0  0  0  0  0  0  0  0  0  0  0
    3.3089    2.7246    0.4376 C   0  0  0  0  0  0  0  0  0  0  0  0
    4.3916    2.9555    0.3896 H   0  0  0  0  0  0  0  0  0  0  0  0
    2.8214    3.6885    0.6953 H   0  0  0  0  0  0  0  0  0  0  0  0
    3.0318    1.7294    1.5825 C   0  0  0  0  0  0  0  0  0  0  0  0
    3.6076    2.0421    2.4809 H   0  0  0  0  0  0  0  0  0  0  0  0
    1.9617    1.7810    1.8723 H   0  0  0  0  0  0  0  0  0  0  0  0
    3.3460    0.2370    1.3122 C   0  0  2  0  0  0  0  0  0  0  0  0
    2.9832   -0.3373    2.1883 H   0  0  0  0  0  0  0  0  0  0  0  0
    4.8288   -0.1019    1.0577 C   0  0  0  0  0  0  0  0  0  0  0  0
    4.9303   -1.2065    0.9890 H   0  0  0  0  0  0  0  0  0  0  0  0
    5.4104    0.1892    1.9598 H   0  0  0  0  0  0  0  0  0  0  0  0
    5.4713    0.5557   -0.1805 C   0  0  0  0  0  0  0  0  0  0  0  0
    6.4568    0.0772   -0.3624 H   0  0  0  0  0  0  0  0  0  0  0  0
    5.7043    1.6129    0.0508 H   0  0  0  0  0  0  0  0  0  0  0  0
    4.6478    0.4878   -1.4834 C   0  0  0  0  0  0  0  0  0  0  0  0
    5.1101    1.1656   -2.2345 H   0  0  0  0  0  0  0  0  0  0  0  0
    4.7301   -0.5310   -1.9194 H   0  0  0  0  0  0  0  0  0  0  0  0
    2.6914   -2.0018   -0.6728 C   0  0  0  0  0  0  0  0  0  0  0  0
    3.7632   -2.2362   -0.5016 H   0  0  0  0  0  0  0  0  0  0  0  0
    2.5289   -1.9794   -1.7721 H   0  0  0  0  0  0  0  0  0  0  0  0
    1.7884   -3.0774   -0.0398 C   0  0  0  0  0  0  0  0  0  0  0  0
    0.7376   -2.7756   -0.2579 H   0  0  0  0  0  0  0  0  0  0  0  0
    1.9453   -3.1483    1.4833 C   0  0  0  0  0  0  0  0  0  0  0  0
    1.5918   -2.2180    1.9741 H   0  0  0  0  0  0  0  0  0  0  0  0
    1.3436   -3.9813    1.9009 H   0  0  0  0  0  0  0  0  0  0  0  0
    3.0044   -3.3254    1.7707 H   0  0  0  0  0  0  0  0  0  0  0  0
    2.0511   -4.4346   -0.7029 C   0  0  0  0  0  0  0  0  0  0  0  0
    3.0928   -4.7750   -0.5181 H   0  0  0  0  0  0  0  0  0  0  0  0
    1.3707   -5.2123   -0.2998 H   0  0  0  0  0  0  0  0  0  0  0  0
    1.9015   -4.3882   -1.8010 H   0  0  0  0  0  0  0  0  0  0  0  0
  1 24  1  6  0  0  0
  1 13  1  0  0  0  0
  2  3  1  6  0  0  0
  2  4  1  0  0  0  0
  2  1  1  0  0  0  0
  4  7  1  0  0  0  0
  5  4  1  0  0  0  0
  6  4  1  0  0  0  0
  7  9  1  0  0  0  0
  7 10  1  0  0  0  0
  8  7  1  0  0  0  0
 10 12  1  0  0  0  0
 10 11  1  0  0  0  0
 13 10  1  0  0  0  0
 13 14  1  1  0  0  0
 15 13  1  0  0  0  0
 15 17  1  0  0  0  0
 16 15  1  0  0  0  0
 18 20  1  0  0  0  0
 18 15  1  0  0  0  0
 19 18  1  0  0  0  0
 21  2  1  0  0  0  0
 21 18  1  0  0  0  0
 22 21  1  0  0  0  0
 23 21  1  0  0  0  0
 24 25  1  0  0  0  0
 24 27  1  0  0  0  0
 26 24  1  0  0  0  0
 27 29  1  0  0  0  0
 28 27  1  0  0  0  0
 29 32  1  0  0  0  0
 29 31  1  0  0  0  0
 29 30  1  0  0  0  0
 33 34  1  0  0  0  0
 33 35  1  0  0  0  0
 33 27  1  0  0  0  0
 36 33  1  0  0  0  0
M  END
