1
 OpenBabel05122313063D

 40 42  0  0  0  0  0  0  0  0999 V2000
   -1.7402    0.1504    0.1075 P   0  0  0  0  0  0  0  0  0  0  0  0
   -2.4973    0.6818   -1.3111 N   0  0  0  0  0  0  0  0  0  0  0  0
   -3.5322    1.7082   -1.3769 C   0  0  0  0  0  0  0  0  0  0  0  0
   -3.4760    2.3808   -0.4995 H   0  0  0  0  0  0  0  0  0  0  0  0
   -4.5514    1.2501   -1.3848 H   0  0  0  0  0  0  0  0  0  0  0  0
   -3.2372    2.4061   -2.7170 C   0  0  0  0  0  0  0  0  0  0  0  0
   -2.5022    3.2209   -2.5548 H   0  0  0  0  0  0  0  0  0  0  0  0
   -4.1441    2.8641   -3.1587 H   0  0  0  0  0  0  0  0  0  0  0  0
   -2.6240    1.2907   -3.6050 C   0  0  0  0  0  0  0  0  0  0  0  0
   -3.3114    0.9857   -4.4181 H   0  0  0  0  0  0  0  0  0  0  0  0
   -1.6902    1.6392   -4.0891 H   0  0  0  0  0  0  0  0  0  0  0  0
   -2.3514    0.1000   -2.6496 C   0  0  0  0  0  0  0  0  0  0  0  0
   -1.3492   -0.3586   -2.7569 H   0  0  0  0  0  0  0  0  0  0  0  0
   -3.0848   -0.7222   -2.8058 H   0  0  0  0  0  0  0  0  0  0  0  0
   -1.6013    1.5892    1.0181 N   0  0  0  0  0  0  0  0  0  0  0  0
   -0.8551    2.7749    0.5678 C   0  0  0  0  0  0  0  0  0  0  0  0
   -0.9395    2.9068   -0.5312 H   0  0  0  0  0  0  0  0  0  0  0  0
    0.2247    2.6792    0.8067 H   0  0  0  0  0  0  0  0  0  0  0  0
   -1.4986    3.9279    1.3478 C   0  0  0  0  0  0  0  0  0  0  0  0
   -0.8151    4.7908    1.4728 H   0  0  0  0  0  0  0  0  0  0  0  0
   -2.4076    4.2919    0.8222 H   0  0  0  0  0  0  0  0  0  0  0  0
   -1.8911    3.2518    2.6658 C   0  0  0  0  0  0  0  0  0  0  0  0
   -2.6355    3.8181    3.2590 H   0  0  0  0  0  0  0  0  0  0  0  0
   -0.9889    3.1105    3.2993 H   0  0  0  0  0  0  0  0  0  0  0  0
   -2.4227    1.8883    2.2053 C   0  0  0  0  0  0  0  0  0  0  0  0
   -2.3167    1.1132    2.9922 H   0  0  0  0  0  0  0  0  0  0  0  0
   -3.5076    1.9428    1.9552 H   0  0  0  0  0  0  0  0  0  0  0  0
   -2.9058   -0.6550    1.0626 N   0  0  0  0  0  0  0  0  0  0  0  0
   -2.4605   -1.5752    2.1251 C   0  0  0  0  0  0  0  0  0  0  0  0
   -1.6768   -2.2681    1.7400 H   0  0  0  0  0  0  0  0  0  0  0  0
   -2.0356   -1.0195    2.9900 H   0  0  0  0  0  0  0  0  0  0  0  0
   -3.7363   -2.3398    2.4952 C   0  0  0  0  0  0  0  0  0  0  0  0
   -3.5149   -3.3190    2.9631 H   0  0  0  0  0  0  0  0  0  0  0  0
   -4.3446   -1.7486    3.2132 H   0  0  0  0  0  0  0  0  0  0  0  0
   -4.4543   -2.4557    1.1455 C   0  0  0  0  0  0  0  0  0  0  0  0
   -5.5332   -2.6911    1.2337 H   0  0  0  0  0  0  0  0  0  0  0  0
   -3.9638   -3.2371    0.5313 H   0  0  0  0  0  0  0  0  0  0  0  0
   -4.1984   -1.0901    0.4947 C   0  0  0  0  0  0  0  0  0  0  0  0
   -4.1437   -1.1700   -0.6087 H   0  0  0  0  0  0  0  0  0  0  0  0
   -5.0005   -0.3572    0.7512 H   0  0  0  0  0  0  0  0  0  0  0  0
  1 15  1  0  0  0  0
  1 28  1  0  0  0  0
  2  1  1  0  0  0  0
  3  2  1  0  0  0  0
  3  4  1  0  0  0  0
  5  3  1  0  0  0  0
  6  7  1  0  0  0  0
  6  3  1  0  0  0  0
  8  6  1  0  0  0  0
  9  6  1  0  0  0  0
  9 12  1  0  0  0  0
 10  9  1  0  0  0  0
 11  9  1  0  0  0  0
 12  2  1  0  0  0  0
 13 12  1  0  0  0  0
 14 12  1  0  0  0  0
 15 25  1  0  0  0  0
 16 18  1  0  0  0  0
 16 15  1  0  0  0  0
 16 19  1  0  0  0  0
 17 16  1  0  0  0  0
 19 20  1  0  0  0  0
 19 22  1  0  0  0  0
 21 19  1  0  0  0  0
 22 23  1  0  0  0  0
 22 24  1  0  0  0  0
 25 22  1  0  0  0  0
 25 26  1  0  0  0  0
 27 25  1  0  0  0  0
 28 29  1  0  0  0  0
 29 32  1  0  0  0  0
 29 31  1  0  0  0  0
 30 29  1  0  0  0  0
 32 33  1  0  0  0  0
 32 34  1  0  0  0  0
 35 36  1  0  0  0  0
 35 32  1  0  0  0  0
 37 35  1  0  0  0  0
 38 40  1  0  0  0  0
 38 28  1  0  0  0  0
 38 35  1  0  0  0  0
 39 38  1  0  0  0  0
M  END
