1
q = 0.0, confidence = 1.0

 42 45  0  0  0  0  0  0  0  0999 V2000
    0.5649    0.9800   -0.0283 P   0  0  0  0  0  0  0  0  0  0  0  0
   -2.0578    0.6910   -0.5526 N   0  0  0  0  0  0  0  0  0  0  0  0
   -5.5579    0.1839   -1.3585 N   0  0  0  0  0  0  0  0  0  0  0  0
   -0.9206    1.1019   -1.1268 C   0  0  0  0  0  0  0  0  0  0  0  0
   -0.8336    1.5073   -2.4703 C   0  0  0  0  0  0  0  0  0  0  0  0
    0.1233    1.8327   -2.8993 H   0  0  0  0  0  0  0  0  0  0  0  0
   -2.0084    1.4654   -3.2376 C   0  0  0  0  0  0  0  0  0  0  0  0
   -1.9860    1.7595   -4.2979 H   0  0  0  0  0  0  0  0  0  0  0  0
   -3.2018    1.0423   -2.6458 C   0  0  0  0  0  0  0  0  0  0  0  0
   -4.1525    0.9851   -3.1929 H   0  0  0  0  0  0  0  0  0  0  0  0
   -3.1898    0.6681   -1.2844 C   0  0  0  0  0  0  0  0  0  0  0  0
   -4.4402    0.2311   -0.6037 C   0  0  0  0  0  0  0  0  0  0  0  0
   -4.4335   -0.1081    0.7663 C   0  0  0  0  0  0  0  0  0  0  0  0
   -3.4920   -0.0470    1.3278 H   0  0  0  0  0  0  0  0  0  0  0  0
   -5.6325   -0.5157    1.3612 C   0  0  0  0  0  0  0  0  0  0  0  0
   -5.6598   -0.7904    2.4267 H   0  0  0  0  0  0  0  0  0  0  0  0
   -6.7943   -0.5703    0.5770 C   0  0  0  0  0  0  0  0  0  0  0  0
   -7.7586   -0.8867    1.0014 H   0  0  0  0  0  0  0  0  0  0  0  0
   -6.6980   -0.2074   -0.7779 C   0  0  0  0  0  0  0  0  0  0  0  0
   -7.5926   -0.2362   -1.4255 H   0  0  0  0  0  0  0  0  0  0  0  0
    1.8465    1.9631   -0.9183 C   0  0  0  0  0  0  0  0  0  0  0  0
    1.9551    3.3538   -0.7043 C   0  0  0  0  0  0  0  0  0  0  0  0
    1.3015    3.8520    0.0267 H   0  0  0  0  0  0  0  0  0  0  0  0
    2.9017    4.1027   -1.4183 C   0  0  0  0  0  0  0  0  0  0  0  0
    2.9829    5.1860   -1.2419 H   0  0  0  0  0  0  0  0  0  0  0  0
    3.7425    3.4741   -2.3509 C   0  0  0  0  0  0  0  0  0  0  0  0
    4.4872    4.0639   -2.9068 H   0  0  0  0  0  0  0  0  0  0  0  0
    3.6300    2.0927   -2.5721 C   0  0  0  0  0  0  0  0  0  0  0  0
    4.2822    1.5936   -3.3046 H   0  0  0  0  0  0  0  0  0  0  0  0
    2.6871    1.3352   -1.8609 C   0  0  0  0  0  0  0  0  0  0  0  0
    2.5772    0.2559   -2.0574 H   0  0  0  0  0  0  0  0  0  0  0  0
    0.1970    2.0192    1.4460 C   0  0  0  0  0  0  0  0  0  0  0  0
   -1.0480    2.6301    1.6879 C   0  0  0  0  0  0  0  0  0  0  0  0
   -1.8740    2.4946    0.9776 H   0  0  0  0  0  0  0  0  0  0  0  0
   -1.2378    3.3956    2.8501 C   0  0  0  0  0  0  0  0  0  0  0  0
   -2.2150    3.8680    3.0325 H   0  0  0  0  0  0  0  0  0  0  0  0
   -0.1942    3.5576    3.7731 C   0  0  0  0  0  0  0  0  0  0  0  0
   -0.3494    4.1562    4.6835 H   0  0  0  0  0  0  0  0  0  0  0  0
    1.0489    2.9486    3.5346 C   0  0  0  0  0  0  0  0  0  0  0  0
    1.8717    3.0658    4.2556 H   0  0  0  0  0  0  0  0  0  0  0  0
    1.2435    2.1802    2.3801 C   0  0  0  0  0  0  0  0  0  0  0  0
    2.2197    1.7032    2.1999 H   0  0  0  0  0  0  0  0  0  0  0  0
  1 32  1  0  0  0  0
  3 19  2  0  0  0  0
  3 12  1  0  0  0  0
  4  2  1  0  0  0  0
  4  1  1  0  0  0  0
  5  4  2  0  0  0  0
  6  5  1  0  0  0  0
  7  9  2  0  0  0  0
  7  5  1  0  0  0  0
  8  7  1  0  0  0  0
  9 11  1  0  0  0  0
 10  9  1  0  0  0  0
 11 12  1  0  0  0  0
 11  2  2  0  0  0  0
 12 13  2  0  0  0  0
 13 14  1  0  0  0  0
 13 15  1  0  0  0  0
 15 16  1  0  0  0  0
 17 18  1  0  0  0  0
 17 15  2  0  0  0  0
 19 17  1  0  0  0  0
 20 19  1  0  0  0  0
 21 22  1  0  0  0  0
 21  1  1  0  0  0  0
 22 23  1  0  0  0  0
 24 25  1  0  0  0  0
 24 22  2  0  0  0  0
 26 24  1  0  0  0  0
 27 26  1  0  0  0  0
 28 26  2  0  0  0  0
 28 30  1  0  0  0  0
 29 28  1  0  0  0  0
 30 21  2  0  0  0  0
 31 30  1  0  0  0  0
 32 33  2  0  0  0  0
 32 41  1  0  0  0  0
 33 35  1  0  0  0  0
 34 33  1  0  0  0  0
 35 36  1  0  0  0  0
 35 37  2  0  0  0  0
 37 38  1  0  0  0  0
 39 37  1  0  0  0  0
 39 40  1  0  0  0  0
 41 39  2  0  0  0  0
 42 41  1  0  0  0  0
M  END
