1
 OpenBabel05122313063D

 46 50  0  0  1  0  0  0  0  0999 V2000
   -0.1879    1.2854    0.2944 P   0  0  2  0  0  0  0  0  0  0  0  0
    0.8288   -0.0142    1.2056 C   0  0  2  0  0  0  0  0  0  0  0  0
    1.9289    0.8304    1.8385 C   0  0  0  0  0  0  0  0  0  0  0  0
    2.4944    0.4660    3.1741 C   0  0  0  0  0  0  0  0  0  0  0  0
    2.3179    1.8247    0.9865 C   0  0  0  0  0  0  0  0  0  0  0  0
    3.3980    2.8419    1.1600 C   0  0  0  0  0  0  0  0  0  0  0  0
    1.5311    1.7530   -0.3119 C   0  0  1  0  0  0  0  0  0  0  0  0
    1.8758    0.3999   -1.0190 C   0  0  2  0  0  0  0  0  0  0  0  0
    1.4281   -0.7240   -0.0567 C   0  0  1  0  0  0  0  0  0  0  0  0
   -0.7702    2.5527    1.4674 C   0  0  0  0  0  0  0  0  0  0  0  0
   -0.7797    2.3599    2.8632 C   0  0  0  0  0  0  0  0  0  0  0  0
   -1.2893    3.3615    3.7035 C   0  0  0  0  0  0  0  0  0  0  0  0
   -1.7818    4.5566    3.1561 C   0  0  0  0  0  0  0  0  0  0  0  0
   -1.7767    4.7472    1.7639 C   0  0  0  0  0  0  0  0  0  0  0  0
   -1.2840    3.7466    0.9149 C   0  0  0  0  0  0  0  0  0  0  0  0
    3.3763    0.2120   -1.1919 C   0  0  0  0  0  0  0  0  0  0  0  0
    2.6932   -1.5023    0.2810 C   0  0  0  0  0  0  0  0  0  0  0  0
    5.1216   -1.3596   -0.3276 C   0  0  0  0  0  0  0  0  0  0  0  0
    5.9348   -1.3844   -1.4769 C   0  0  0  0  0  0  0  0  0  0  0  0
    7.2670   -1.8064   -1.3730 C   0  0  0  0  0  0  0  0  0  0  0  0
    7.7913   -2.2119   -0.1359 C   0  0  0  0  0  0  0  0  0  0  0  0
    6.9743   -2.1882    1.0050 C   0  0  0  0  0  0  0  0  0  0  0  0
    5.6429   -1.7594    0.9181 C   0  0  0  0  0  0  0  0  0  0  0  0
    3.7687   -0.9172   -0.4278 N   0  0  0  0  0  0  0  0  0  0  0  0
    4.1302    0.9115   -1.8397 O   0  0  0  0  0  0  0  0  0  0  0  0
    2.7835   -2.4438    1.0461 O   0  0  0  0  0  0  0  0  0  0  0  0
    0.3011   -0.7128    1.8767 H   0  0  0  0  0  0  0  0  0  0  0  0
    3.3298    1.1286    3.4698 H   0  0  0  0  0  0  0  0  0  0  0  0
    2.8613   -0.5827    3.1718 H   0  0  0  0  0  0  0  0  0  0  0  0
    1.7191    0.5206    3.9694 H   0  0  0  0  0  0  0  0  0  0  0  0
    3.9063    2.7566    2.1392 H   0  0  0  0  0  0  0  0  0  0  0  0
    2.9819    3.8687    1.0738 H   0  0  0  0  0  0  0  0  0  0  0  0
    4.1609    2.7428    0.3583 H   0  0  0  0  0  0  0  0  0  0  0  0
    1.5763    2.6249   -0.9849 H   0  0  0  0  0  0  0  0  0  0  0  0
    1.3790    0.3668   -2.0102 H   0  0  0  0  0  0  0  0  0  0  0  0
    0.6771   -1.4130   -0.4937 H   0  0  0  0  0  0  0  0  0  0  0  0
   -0.3913    1.4274    3.2979 H   0  0  0  0  0  0  0  0  0  0  0  0
   -1.2988    3.2068    4.7931 H   0  0  0  0  0  0  0  0  0  0  0  0
   -2.1781    5.3416    3.8181 H   0  0  0  0  0  0  0  0  0  0  0  0
   -2.1690    5.6808    1.3330 H   0  0  0  0  0  0  0  0  0  0  0  0
   -1.2977    3.8708   -0.1815 H   0  0  0  0  0  0  0  0  0  0  0  0
    5.5268   -1.0602   -2.4422 H   0  0  0  0  0  0  0  0  0  0  0  0
    7.8999   -1.8200   -2.2731 H   0  0  0  0  0  0  0  0  0  0  0  0
    8.8369   -2.5462   -0.0608 H   0  0  0  0  0  0  0  0  0  0  0  0
    7.3761   -2.5046    1.9794 H   0  0  0  0  0  0  0  0  0  0  0  0
    5.0025   -1.7465    1.8083 H   0  0  0  0  0  0  0  0  0  0  0  0
  1  2  1  0  0  0  0
  1 10  1  1  0  0  0
  2  3  1  0  0  0  0
  2 27  1  1  0  0  0
  3  4  1  0  0  0  0
  4 28  1  0  0  0  0
  4 30  1  0  0  0  0
  5  6  1  0  0  0  0
  5  3  2  0  0  0  0
  6 31  1  0  0  0  0
  7 34  1  6  0  0  0
  7  1  1  0  0  0  0
  7  5  1  0  0  0  0
  8 35  1  6  0  0  0
  8  7  1  0  0  0  0
  8  9  1  0  0  0  0
  9 36  1  6  0  0  0
  9 17  1  0  0  0  0
  9  2  1  0  0  0  0
 10 11  1  0  0  0  0
 11 37  1  0  0  0  0
 11 12  2  0  0  0  0
 12 38  1  0  0  0  0
 13 12  1  0  0  0  0
 13 39  1  0  0  0  0
 14 13  2  0  0  0  0
 15 10  2  0  0  0  0
 15 14  1  0  0  0  0
 16  8  1  0  0  0  0
 16 24  1  0  0  0  0
 17 26  2  0  0  0  0
 18 23  1  0  0  0  0
 19 20  1  0  0  0  0
 19 18  2  0  0  0  0
 20 21  2  0  0  0  0
 21 44  1  0  0  0  0
 21 22  1  0  0  0  0
 22 45  1  0  0  0  0
 23 22  2  0  0  0  0
 23 46  1  0  0  0  0
 24 18  1  0  0  0  0
 24 17  1  0  0  0  0
 25 16  2  0  0  0  0
 29  4  1  0  0  0  0
 32  6  1  0  0  0  0
 33  6  1  0  0  0  0
 40 14  1  0  0  0  0
 41 15  1  0  0  0  0
 42 19  1  0  0  0  0
 43 20  1  0  0  0  0
M  END
