1
 OpenBabel05122313063D

 16 15  0  0  0  0  0  0  0  0999 V2000
    0.1432   -1.6327   -0.1930 P   0  0  0  0  0  2  0  0  0  0  0  0
    0.0261   -2.5584   -1.5772 O   0  0  0  0  0  0  0  0  0  0  0  0
    0.3366   -2.0438   -2.3476 H   0  0  0  0  0  0  0  0  0  0  0  0
    0.1451   -3.0828    1.0344 C   0  0  0  0  0  0  0  0  0  0  0  0
   -0.7898   -4.2096    0.5569 C   0  0  0  0  0  0  0  0  0  0  0  0
   -0.4642   -4.6143   -0.4183 H   0  0  0  0  0  0  0  0  0  0  0  0
   -1.8410   -3.8862    0.4625 H   0  0  0  0  0  0  0  0  0  0  0  0
   -0.7535   -5.0292    1.3045 H   0  0  0  0  0  0  0  0  0  0  0  0
   -0.2122   -2.6173    2.4548 C   0  0  0  0  0  0  0  0  0  0  0  0
   -0.0121   -3.4551    3.1545 H   0  0  0  0  0  0  0  0  0  0  0  0
   -1.2773   -2.3465    2.5576 H   0  0  0  0  0  0  0  0  0  0  0  0
    0.4050   -1.7611    2.7863 H   0  0  0  0  0  0  0  0  0  0  0  0
    1.5937   -3.6125    1.0284 C   0  0  0  0  0  0  0  0  0  0  0  0
    1.6234   -4.5440    1.6307 H   0  0  0  0  0  0  0  0  0  0  0  0
    2.3044   -2.8972    1.4828 H   0  0  0  0  0  0  0  0  0  0  0  0
    1.9430   -3.8601    0.0078 H   0  0  0  0  0  0  0  0  0  0  0  0
  1  4  1  0  0  0  0
  2  1  1  0  0  0  0
  3  2  1  0  0  0  0
  4  9  1  0  0  0  0
  5  4  1  0  0  0  0
  5  8  1  0  0  0  0
  6  5  1  0  0  0  0
  7  5  1  0  0  0  0
  9 11  1  0  0  0  0
  9 12  1  0  0  0  0
  9 10  1  0  0  0  0
 13  4  1  0  0  0  0
 13 15  1  0  0  0  0
 13 14  1  0  0  0  0
 16 13  1  0  0  0  0
M  END
