1
 OpenBabel05122313063D

 42 43  0  0  0  0  0  0  0  0999 V2000
    1.3748    0.0158    0.1463 P   0  0  0  0  0  0  0  0  0  0  0  0
    1.0073   -0.0072    1.5211 H   0  0  0  0  0  0  0  0  0  0  0  0
    2.8504   -1.0759    0.2226 C   0  0  0  0  0  0  0  0  0  0  0  0
    2.7407   -2.2140    1.0684 C   0  0  0  0  0  0  0  0  0  0  0  0
    3.8474   -3.0738    1.1888 C   0  0  0  0  0  0  0  0  0  0  0  0
    3.7603   -3.9573    1.8418 H   0  0  0  0  0  0  0  0  0  0  0  0
    5.0465   -2.8468    0.4949 C   0  0  0  0  0  0  0  0  0  0  0  0
    5.1120   -1.7294   -0.3566 C   0  0  0  0  0  0  0  0  0  0  0  0
    6.0331   -1.5477   -0.9340 H   0  0  0  0  0  0  0  0  0  0  0  0
    4.0365   -0.8403   -0.5244 C   0  0  0  0  0  0  0  0  0  0  0  0
    1.4736   -2.5394    1.8209 C   0  0  0  0  0  0  0  0  0  0  0  0
    1.5252   -3.5545    2.2577 H   0  0  0  0  0  0  0  0  0  0  0  0
    0.5855   -2.4948    1.1537 H   0  0  0  0  0  0  0  0  0  0  0  0
    1.2824   -1.8261    2.6521 H   0  0  0  0  0  0  0  0  0  0  0  0
    6.2165   -3.7890    0.6194 C   0  0  0  0  0  0  0  0  0  0  0  0
    6.0778   -4.5081    1.4496 H   0  0  0  0  0  0  0  0  0  0  0  0
    7.1637   -3.2386    0.7930 H   0  0  0  0  0  0  0  0  0  0  0  0
    6.3535   -4.3762   -0.3135 H   0  0  0  0  0  0  0  0  0  0  0  0
    4.1746    0.2970   -1.5028 C   0  0  0  0  0  0  0  0  0  0  0  0
    5.0873    0.1702   -2.1156 H   0  0  0  0  0  0  0  0  0  0  0  0
    4.2340    1.2831   -1.0001 H   0  0  0  0  0  0  0  0  0  0  0  0
    3.3033    0.3130   -2.1882 H   0  0  0  0  0  0  0  0  0  0  0  0
    1.8929    1.7799    0.0457 C   0  0  0  0  0  0  0  0  0  0  0  0
    2.6376    2.3077    1.1412 C   0  0  0  0  0  0  0  0  0  0  0  0
    2.9842    3.6715    1.1298 C   0  0  0  0  0  0  0  0  0  0  0  0
    3.5606    4.0749    1.9780 H   0  0  0  0  0  0  0  0  0  0  0  0
    2.6231    4.5262    0.0759 C   0  0  0  0  0  0  0  0  0  0  0  0
    1.8948    3.9764   -0.9931 C   0  0  0  0  0  0  0  0  0  0  0  0
    1.6059    4.6261   -1.8349 H   0  0  0  0  0  0  0  0  0  0  0  0
    1.5198    2.6207   -1.0422 C   0  0  0  0  0  0  0  0  0  0  0  0
    3.0663    1.4696    2.3198 C   0  0  0  0  0  0  0  0  0  0  0  0
    3.6946    2.0619    3.0115 H   0  0  0  0  0  0  0  0  0  0  0  0
    3.6409    0.5746    2.0078 H   0  0  0  0  0  0  0  0  0  0  0  0
    2.1897    1.1027    2.8959 H   0  0  0  0  0  0  0  0  0  0  0  0
    3.0209    5.9797    0.0711 C   0  0  0  0  0  0  0  0  0  0  0  0
    3.4037    6.3044    1.0579 H   0  0  0  0  0  0  0  0  0  0  0  0
    2.1670    6.6325   -0.2021 H   0  0  0  0  0  0  0  0  0  0  0  0
    3.8199    6.1693   -0.6769 H   0  0  0  0  0  0  0  0  0  0  0  0
    0.7514    2.1441   -2.2475 C   0  0  0  0  0  0  0  0  0  0  0  0
    1.2307    1.2750   -2.7425 H   0  0  0  0  0  0  0  0  0  0  0  0
    0.6461    2.9600   -2.9871 H   0  0  0  0  0  0  0  0  0  0  0  0
   -0.2670    1.7927   -1.9743 H   0  0  0  0  0  0  0  0  0  0  0  0
  1  3  1  0  0  0  0
  1  2  1  0  0  0  0
  3  4  1  0  0  0  0
  4  5  2  0  0  0  0
  4 11  1  0  0  0  0
  5  6  1  0  0  0  0
  7 15  1  0  0  0  0
  7  5  1  0  0  0  0
  8  7  2  0  0  0  0
  9  8  1  0  0  0  0
 10  8  1  0  0  0  0
 10  3  2  0  0  0  0
 11 12  1  0  0  0  0
 11 14  1  0  0  0  0
 13 11  1  0  0  0  0
 15 17  1  0  0  0  0
 15 16  1  0  0  0  0
 18 15  1  0  0  0  0
 19 21  1  0  0  0  0
 19 10  1  0  0  0  0
 20 19  1  0  0  0  0
 22 19  1  0  0  0  0
 23  1  1  0  0  0  0
 23 24  1  0  0  0  0
 24 31  1  0  0  0  0
 25 24  2  0  0  0  0
 25 26  1  0  0  0  0
 27 25  1  0  0  0  0
 28 27  2  0  0  0  0
 29 28  1  0  0  0  0
 30 28  1  0  0  0  0
 30 23  2  0  0  0  0
 31 34  1  0  0  0  0
 31 32  1  0  0  0  0
 33 31  1  0  0  0  0
 35 27  1  0  0  0  0
 35 36  1  0  0  0  0
 37 35  1  0  0  0  0
 38 35  1  0  0  0  0
 39 42  1  0  0  0  0
 39 30  1  0  0  0  0
 40 39  1  0  0  0  0
 41 39  1  0  0  0  0
M  END
