1
 OpenBabel05122313063D

 40 44  0  0  0  0  0  0  0  0999 V2000
    0.3860    0.5991   -0.3025 P   0  0  1  0  0  0  0  0  0  0  0  0
    1.6828   -0.5365   -1.7587 P   0  0  1  0  0  0  0  0  0  0  0  0
    1.6745    0.7139    1.0113 C   0  0  0  0  0  0  0  0  0  0  0  0
    1.4610    1.2033    2.2957 C   0  0  0  0  0  0  0  0  0  0  0  0
    2.5541    1.3287    3.1964 C   0  0  0  0  0  0  0  0  0  0  0  0
    3.8366    0.9620    2.8130 C   0  0  0  0  0  0  0  0  0  0  0  0
    5.3772    0.0082    1.0744 C   0  0  0  0  0  0  0  0  0  0  0  0
    5.5516   -0.5289   -0.1940 C   0  0  0  0  0  0  0  0  0  0  0  0
    4.4504   -0.6807   -1.0790 C   0  0  0  0  0  0  0  0  0  0  0  0
    3.1747   -0.2859   -0.6861 C   0  0  0  0  0  0  0  0  0  0  0  0
    2.9799    0.2951    0.6066 C   0  0  0  0  0  0  0  0  0  0  0  0
    4.0881    0.4299    1.5135 C   0  0  0  0  0  0  0  0  0  0  0  0
    0.4497    2.2754   -1.0811 C   0  0  0  0  0  0  0  0  0  0  0  0
    0.0665    2.4069   -2.4320 C   0  0  0  0  0  0  0  0  0  0  0  0
    0.0119    3.6743   -3.0279 C   0  0  0  0  0  0  0  0  0  0  0  0
    0.3357    4.8195   -2.2825 C   0  0  0  0  0  0  0  0  0  0  0  0
    0.7179    4.6910   -0.9385 C   0  0  0  0  0  0  0  0  0  0  0  0
    0.7768    3.4246   -0.3365 C   0  0  0  0  0  0  0  0  0  0  0  0
    1.2414   -2.2749   -1.2958 C   0  0  0  0  0  0  0  0  0  0  0  0
    0.8745   -3.1406   -2.3456 C   0  0  0  0  0  0  0  0  0  0  0  0
    0.5044   -4.4671   -2.0745 C   0  0  0  0  0  0  0  0  0  0  0  0
    0.4877   -4.9340   -0.7521 C   0  0  0  0  0  0  0  0  0  0  0  0
    0.8543   -4.0772    0.3000 C   0  0  0  0  0  0  0  0  0  0  0  0
    1.2385   -2.7571    0.0310 C   0  0  0  0  0  0  0  0  0  0  0  0
    0.4526    1.4989    2.6193 H   0  0  0  0  0  0  0  0  0  0  0  0
    2.3729    1.7216    4.2079 H   0  0  0  0  0  0  0  0  0  0  0  0
    4.6781    1.0645    3.5157 H   0  0  0  0  0  0  0  0  0  0  0  0
    6.2328    0.1122    1.7594 H   0  0  0  0  0  0  0  0  0  0  0  0
    6.5522   -0.8492   -0.5215 H   0  0  0  0  0  0  0  0  0  0  0  0
    4.6087   -1.1240   -2.0742 H   0  0  0  0  0  0  0  0  0  0  0  0
   -0.1862    1.5127   -3.0223 H   0  0  0  0  0  0  0  0  0  0  0  0
   -0.2873    3.7663   -4.0829 H   0  0  0  0  0  0  0  0  0  0  0  0
    0.2908    5.8140   -2.7513 H   0  0  0  0  0  0  0  0  0  0  0  0
    0.9755    5.5841   -0.3492 H   0  0  0  0  0  0  0  0  0  0  0  0
    1.0818    3.3333    0.7162 H   0  0  0  0  0  0  0  0  0  0  0  0
    0.8710   -2.7663   -3.3815 H   0  0  0  0  0  0  0  0  0  0  0  0
    0.2149   -5.1343   -2.9003 H   0  0  0  0  0  0  0  0  0  0  0  0
    0.1840   -5.9699   -0.5375 H   0  0  0  0  0  0  0  0  0  0  0  0
    0.8361   -4.4360    1.3403 H   0  0  0  0  0  0  0  0  0  0  0  0
    1.5336   -2.0984    0.8613 H   0  0  0  0  0  0  0  0  0  0  0  0
  1 13  1  6  0  0  0
  1  3  1  0  0  0  0
  2 19  1  1  0  0  0
  2 10  1  0  0  0  0
  2  1  1  0  0  0  0
  3  4  1  0  0  0  0
  4 25  1  0  0  0  0
  4  5  2  0  0  0  0
  5 26  1  0  0  0  0
  6  5  1  0  0  0  0
  6 27  1  0  0  0  0
  7 12  1  0  0  0  0
  7 28  1  0  0  0  0
  8  7  2  0  0  0  0
  9 10  2  0  0  0  0
  9  8  1  0  0  0  0
 10 11  1  0  0  0  0
 11  3  2  0  0  0  0
 11 12  1  0  0  0  0
 12  6  2  0  0  0  0
 13 18  1  0  0  0  0
 14 13  2  0  0  0  0
 15 14  1  0  0  0  0
 15 16  2  0  0  0  0
 16 17  1  0  0  0  0
 17 34  1  0  0  0  0
 17 18  2  0  0  0  0
 18 35  1  0  0  0  0
 19 24  1  0  0  0  0
 20 21  1  0  0  0  0
 20 19  2  0  0  0  0
 21 22  2  0  0  0  0
 22 38  1  0  0  0  0
 22 23  1  0  0  0  0
 23 39  1  0  0  0  0
 24 23  2  0  0  0  0
 24 40  1  0  0  0  0
 29  8  1  0  0  0  0
 30  9  1  0  0  0  0
 31 14  1  0  0  0  0
 32 15  1  0  0  0  0
 33 16  1  0  0  0  0
 36 20  1  0  0  0  0
 37 21  1  0  0  0  0
M  END
