1
 OpenBabel05122313063D

 71 74  0  0  0  0  0  0  0  0999 V2000
    2.3046    0.3644    0.1012 P   0  0  0  0  0  0  0  0  0  0  0  0
   -1.7425   -1.8195    0.6717 O   0  0  0  0  0  0  0  0  0  0  0  0
   -0.8273   -1.5212    0.4574 H   0  0  0  0  0  0  0  0  0  0  0  0
   -0.6717    0.6948    0.4200 N   0  0  0  0  0  0  0  0  0  0  0  0
   -0.2003    1.1310   -0.3773 H   0  0  0  0  0  0  0  0  0  0  0  0
   -2.0818    0.5276    0.3089 C   0  0  0  0  0  0  0  0  0  0  0  0
   -2.5898   -0.7866    0.4468 C   0  0  0  0  0  0  0  0  0  0  0  0
   -3.9904   -1.0163    0.3502 C   0  0  0  0  0  0  0  0  0  0  0  0
   -4.8023    0.1032    0.1023 C   0  0  0  0  0  0  0  0  0  0  0  0
   -5.8846   -0.0600    0.0187 H   0  0  0  0  0  0  0  0  0  0  0  0
   -4.3180    1.4211   -0.0629 C   0  0  0  0  0  0  0  0  0  0  0  0
   -2.9339    1.6136    0.0513 C   0  0  0  0  0  0  0  0  0  0  0  0
   -2.4788    2.6085   -0.0466 H   0  0  0  0  0  0  0  0  0  0  0  0
   -4.5668   -2.4390    0.4702 C   0  0  0  0  0  0  0  0  0  0  0  0
   -4.2042   -3.0340    1.8518 C   0  0  0  0  0  0  0  0  0  0  0  0
   -4.6356   -2.4184    2.6679 H   0  0  0  0  0  0  0  0  0  0  0  0
   -3.1101   -3.0894    1.9964 H   0  0  0  0  0  0  0  0  0  0  0  0
   -4.6183   -4.0596    1.9429 H   0  0  0  0  0  0  0  0  0  0  0  0
   -3.9889   -3.3233   -0.6623 C   0  0  0  0  0  0  0  0  0  0  0  0
   -4.3871   -4.3557   -0.5757 H   0  0  0  0  0  0  0  0  0  0  0  0
   -2.8850   -3.3735   -0.6278 H   0  0  0  0  0  0  0  0  0  0  0  0
   -4.2859   -2.9256   -1.6540 H   0  0  0  0  0  0  0  0  0  0  0  0
   -6.1008   -2.4472    0.3424 C   0  0  0  0  0  0  0  0  0  0  0  0
   -6.5891   -1.8448    1.1356 H   0  0  0  0  0  0  0  0  0  0  0  0
   -6.4707   -3.4876    0.4393 H   0  0  0  0  0  0  0  0  0  0  0  0
   -6.4397   -2.0661   -0.6423 H   0  0  0  0  0  0  0  0  0  0  0  0
   -5.3025    2.5687   -0.3486 C   0  0  0  0  0  0  0  0  0  0  0  0
   -4.5825    3.9204   -0.4926 C   0  0  0  0  0  0  0  0  0  0  0  0
   -5.3206    4.7214   -0.6996 H   0  0  0  0  0  0  0  0  0  0  0  0
   -3.8557    3.9117   -1.3300 H   0  0  0  0  0  0  0  0  0  0  0  0
   -4.0395    4.1982    0.4335 H   0  0  0  0  0  0  0  0  0  0  0  0
   -6.3149    2.6775    0.8140 C   0  0  0  0  0  0  0  0  0  0  0  0
   -7.0416    3.4948    0.6241 H   0  0  0  0  0  0  0  0  0  0  0  0
   -5.7964    2.8911    1.7707 H   0  0  0  0  0  0  0  0  0  0  0  0
   -6.8904    1.7397    0.9457 H   0  0  0  0  0  0  0  0  0  0  0  0
   -6.0589    2.2772   -1.6647 C   0  0  0  0  0  0  0  0  0  0  0  0
   -6.6272    1.3276   -1.6091 H   0  0  0  0  0  0  0  0  0  0  0  0
   -5.3533    2.1969   -2.5162 H   0  0  0  0  0  0  0  0  0  0  0  0
   -6.7812    3.0898   -1.8883 H   0  0  0  0  0  0  0  0  0  0  0  0
    0.0009    0.7251    1.6394 C   0  0  0  0  0  0  0  0  0  0  0  0
   -0.7008    0.7509    2.8665 C   0  0  0  0  0  0  0  0  0  0  0  0
   -1.7999    0.7594    2.8449 H   0  0  0  0  0  0  0  0  0  0  0  0
   -0.0060    0.7777    4.0793 C   0  0  0  0  0  0  0  0  0  0  0  0
   -0.5747    0.8019    5.0215 H   0  0  0  0  0  0  0  0  0  0  0  0
    1.3998    0.7865    4.1081 C   0  0  0  0  0  0  0  0  0  0  0  0
    1.9406    0.8155    5.0649 H   0  0  0  0  0  0  0  0  0  0  0  0
    2.1089    0.7345    2.9017 C   0  0  0  0  0  0  0  0  0  0  0  0
    3.2087    0.7041    2.9099 H   0  0  0  0  0  0  0  0  0  0  0  0
    1.4294    0.6867    1.6682 C   0  0  0  0  0  0  0  0  0  0  0  0
    4.0876    0.3400    0.5160 C   0  0  0  0  0  0  0  0  0  0  0  0
    4.7033   -0.9059    0.7520 C   0  0  0  0  0  0  0  0  0  0  0  0
    4.1155   -1.8314    0.6428 H   0  0  0  0  0  0  0  0  0  0  0  0
    6.0576   -0.9595    1.1125 C   0  0  0  0  0  0  0  0  0  0  0  0
    6.5349   -1.9339    1.2949 H   0  0  0  0  0  0  0  0  0  0  0  0
    6.8022    0.2252    1.2287 C   0  0  0  0  0  0  0  0  0  0  0  0
    7.8667    0.1809    1.5045 H   0  0  0  0  0  0  0  0  0  0  0  0
    6.1924    1.4667    0.9841 C   0  0  0  0  0  0  0  0  0  0  0  0
    6.7770    2.3953    1.0674 H   0  0  0  0  0  0  0  0  0  0  0  0
    4.8370    1.5283    0.6285 C   0  0  0  0  0  0  0  0  0  0  0  0
    4.3623    2.5013    0.4315 H   0  0  0  0  0  0  0  0  0  0  0  0
    2.0553    1.8747   -0.9187 C   0  0  0  0  0  0  0  0  0  0  0  0
    1.7434    3.1134   -0.3193 C   0  0  0  0  0  0  0  0  0  0  0  0
    1.6338    3.1776    0.7749 H   0  0  0  0  0  0  0  0  0  0  0  0
    1.5589    4.2512   -1.1201 C   0  0  0  0  0  0  0  0  0  0  0  0
    1.3102    5.2149   -0.6504 H   0  0  0  0  0  0  0  0  0  0  0  0
    1.6864    4.1587   -2.5153 C   0  0  0  0  0  0  0  0  0  0  0  0
    1.5367    5.0515   -3.1411 H   0  0  0  0  0  0  0  0  0  0  0  0
    1.9926    2.9253   -3.1145 C   0  0  0  0  0  0  0  0  0  0  0  0
    2.0823    2.8493   -4.2085 H   0  0  0  0  0  0  0  0  0  0  0  0
    2.1719    1.7833   -2.3216 C   0  0  0  0  0  0  0  0  0  0  0  0
    2.3893    0.8082   -2.7861 H   0  0  0  0  0  0  0  0  0  0  0  0
  1 50  1  0  0  0  0
  1 49  1  0  0  0  0
  3  2  1  0  0  0  0
  4 40  1  0  0  0  0
  5  4  1  0  0  0  0
  6  4  1  0  0  0  0
  6  7  1  0  0  0  0
  7  2  1  0  0  0  0
  8  7  2  0  0  0  0
  8 14  1  0  0  0  0
  9  8  1  0  0  0  0
 10  9  1  0  0  0  0
 11 12  1  0  0  0  0
 11  9  2  0  0  0  0
 12  6  2  0  0  0  0
 13 12  1  0  0  0  0
 14 15  1  0  0  0  0
 15 18  1  0  0  0  0
 15 17  1  0  0  0  0
 15 16  1  0  0  0  0
 19 21  1  0  0  0  0
 19 20  1  0  0  0  0
 19 14  1  0  0  0  0
 22 19  1  0  0  0  0
 23 25  1  0  0  0  0
 23 14  1  0  0  0  0
 23 24  1  0  0  0  0
 26 23  1  0  0  0  0
 27 11  1  0  0  0  0
 27 32  1  0  0  0  0
 28 27  1  0  0  0  0
 28 31  1  0  0  0  0
 29 28  1  0  0  0  0
 30 28  1  0  0  0  0
 32 35  1  0  0  0  0
 32 34  1  0  0  0  0
 33 32  1  0  0  0  0
 36 37  1  0  0  0  0
 36 27  1  0  0  0  0
 38 36  1  0  0  0  0
 39 36  1  0  0  0  0
 40 49  2  0  0  0  0
 40 41  1  0  0  0  0
 41 43  2  0  0  0  0
 42 41  1  0  0  0  0
 43 45  1  0  0  0  0
 43 44  1  0  0  0  0
 45 46  1  0  0  0  0
 47 48  1  0  0  0  0
 47 45  2  0  0  0  0
 49 47  1  0  0  0  0
 50 59  2  0  0  0  0
 50 51  1  0  0  0  0
 51 53  2  0  0  0  0
 52 51  1  0  0  0  0
 53 55  1  0  0  0  0
 53 54  1  0  0  0  0
 55 56  1  0  0  0  0
 57 58  1  0  0  0  0
 57 55  2  0  0  0  0
 59 57  1  0  0  0  0
 60 59  1  0  0  0  0
 61 62  1  0  0  0  0
 61  1  1  0  0  0  0
 62 63  1  0  0  0  0
 64 65  1  0  0  0  0
 64 62  2  0  0  0  0
 66 64  1  0  0  0  0
 67 66  1  0  0  0  0
 68 66  2  0  0  0  0
 68 70  1  0  0  0  0
 69 68  1  0  0  0  0
 70 61  2  0  0  0  0
 71 70  1  0  0  0  0
M  END
