1
 OpenBabel05122313063D

 37 39  0  0  0  0  0  0  0  0999 V2000
   -1.6663    0.5826   -0.0841 P   0  0  0  0  0  0  0  0  0  0  0  0
   -1.4847    1.4541   -1.4559 F   0  0  0  0  0  0  0  0  0  0  0  0
   -1.4453    1.8023    0.9814 F   0  0  0  0  0  0  0  0  0  0  0  0
   -3.5993    0.4662   -0.0341 C   0  0  0  0  0  0  0  0  0  0  0  0
   -3.9344   -0.8451   -0.7582 C   0  0  0  0  0  0  0  0  0  0  0  0
   -3.3526   -1.1130   -2.0179 C   0  0  0  0  0  0  0  0  0  0  0  0
   -2.6772   -0.3760   -2.4769 H   0  0  0  0  0  0  0  0  0  0  0  0
   -3.6449   -2.2955   -2.7097 C   0  0  0  0  0  0  0  0  0  0  0  0
   -3.1622   -2.4881   -3.6795 H   0  0  0  0  0  0  0  0  0  0  0  0
   -4.5452   -3.2246   -2.1648 C   0  0  0  0  0  0  0  0  0  0  0  0
   -4.7736   -4.1566   -2.7032 H   0  0  0  0  0  0  0  0  0  0  0  0
   -5.1534   -2.9538   -0.9307 C   0  0  0  0  0  0  0  0  0  0  0  0
   -5.8681   -3.6704   -0.4985 H   0  0  0  0  0  0  0  0  0  0  0  0
   -4.8474   -1.7766   -0.2304 C   0  0  0  0  0  0  0  0  0  0  0  0
   -5.3233   -1.5810    0.7405 H   0  0  0  0  0  0  0  0  0  0  0  0
   -3.9669    0.4306    1.4586 C   0  0  0  0  0  0  0  0  0  0  0  0
   -3.3960   -0.5529    2.2972 C   0  0  0  0  0  0  0  0  0  0  0  0
   -2.7193   -1.3043    1.8695 H   0  0  0  0  0  0  0  0  0  0  0  0
   -3.6866   -0.5975    3.6664 C   0  0  0  0  0  0  0  0  0  0  0  0
   -3.2106   -1.3646    4.2954 H   0  0  0  0  0  0  0  0  0  0  0  0
   -4.5795    0.3291    4.2268 C   0  0  0  0  0  0  0  0  0  0  0  0
   -4.8128    0.2962    5.3017 H   0  0  0  0  0  0  0  0  0  0  0  0
   -5.1765    1.2920    3.4008 C   0  0  0  0  0  0  0  0  0  0  0  0
   -5.8895    2.0164    3.8229 H   0  0  0  0  0  0  0  0  0  0  0  0
   -4.8703    1.3466    2.0316 C   0  0  0  0  0  0  0  0  0  0  0  0
   -5.3462    2.1101    1.4020 H   0  0  0  0  0  0  0  0  0  0  0  0
   -4.2125    1.6744   -0.7633 C   0  0  0  0  0  0  0  0  0  0  0  0
   -5.2315    1.4930   -1.7199 C   0  0  0  0  0  0  0  0  0  0  0  0
   -5.5652    0.4780   -1.9745 H   0  0  0  0  0  0  0  0  0  0  0  0
   -5.8368    2.5924   -2.3492 C   0  0  0  0  0  0  0  0  0  0  0  0
   -6.6328    2.4200   -3.0895 H   0  0  0  0  0  0  0  0  0  0  0  0
   -5.4319    3.8976   -2.0395 C   0  0  0  0  0  0  0  0  0  0  0  0
   -5.9016    4.7596   -2.5369 H   0  0  0  0  0  0  0  0  0  0  0  0
   -4.4202    4.0927   -1.0858 C   0  0  0  0  0  0  0  0  0  0  0  0
   -4.0902    5.1109   -0.8294 H   0  0  0  0  0  0  0  0  0  0  0  0
   -3.8217    2.9969   -0.4515 C   0  0  0  0  0  0  0  0  0  0  0  0
   -3.0400    3.1726    0.2986 H   0  0  0  0  0  0  0  0  0  0  0  0
  1  4  1  0  0  0  0
  1  3  1  0  0  0  0
  2  1  1  0  0  0  0
  4 16  1  0  0  0  0
  5 14  1  0  0  0  0
  5  4  1  0  0  0  0
  6  5  2  0  0  0  0
  7  6  1  0  0  0  0
  8 10  2  0  0  0  0
  8  6  1  0  0  0  0
  9  8  1  0  0  0  0
 10 12  1  0  0  0  0
 11 10  1  0  0  0  0
 12 13  1  0  0  0  0
 12 14  2  0  0  0  0
 14 15  1  0  0  0  0
 16 25  2  0  0  0  0
 16 17  1  0  0  0  0
 17 19  2  0  0  0  0
 18 17  1  0  0  0  0
 19 21  1  0  0  0  0
 19 20  1  0  0  0  0
 21 22  1  0  0  0  0
 23 24  1  0  0  0  0
 23 21  2  0  0  0  0
 25 23  1  0  0  0  0
 26 25  1  0  0  0  0
 27 36  1  0  0  0  0
 27  4  1  0  0  0  0
 28 27  2  0  0  0  0
 29 28  1  0  0  0  0
 30 32  2  0  0  0  0
 30 28  1  0  0  0  0
 31 30  1  0  0  0  0
 32 34  1  0  0  0  0
 33 32  1  0  0  0  0
 34 35  1  0  0  0  0
 34 36  2  0  0  0  0
 36 37  1  0  0  0  0
M  END
