1
 OpenBabel05122313063D

 38 40  0  0  0  0  0  0  0  0999 V2000
    0.9344    0.0838    0.3303 P   0  0  0  0  0  0  0  0  0  0  0  0
   -0.3776    1.9624    2.4763 S   0  0  0  0  0  0  0  0  0  0  0  0
    0.7495    0.5663    2.1275 C   0  0  0  0  0  0  0  0  0  0  0  0
    2.5125   -0.8595    0.3706 C   0  0  0  0  0  0  0  0  0  0  0  0
    2.4443   -2.2556    0.5603 C   0  0  0  0  0  0  0  0  0  0  0  0
    3.6225   -3.0098    0.6585 C   0  0  0  0  0  0  0  0  0  0  0  0
    4.8728   -2.3798    0.5534 C   0  0  0  0  0  0  0  0  0  0  0  0
    4.9435   -0.9920    0.3502 C   0  0  0  0  0  0  0  0  0  0  0  0
    3.7691   -0.2301    0.2615 C   0  0  0  0  0  0  0  0  0  0  0  0
    1.2781    1.6369   -0.5713 C   0  0  0  0  0  0  0  0  0  0  0  0
    1.9364    2.7312    0.0282 C   0  0  0  0  0  0  0  0  0  0  0  0
    2.1831    3.8942   -0.7161 C   0  0  0  0  0  0  0  0  0  0  0  0
    1.7729    3.9746   -2.0567 C   0  0  0  0  0  0  0  0  0  0  0  0
    1.1108    2.8907   -2.6548 C   0  0  0  0  0  0  0  0  0  0  0  0
    0.8589    1.7267   -1.9143 C   0  0  0  0  0  0  0  0  0  0  0  0
   -1.8502    1.4585    1.5868 C   0  0  0  0  0  0  0  0  0  0  0  0
   -2.1833    2.1123    0.3848 C   0  0  0  0  0  0  0  0  0  0  0  0
   -3.3255    1.7152   -0.3274 C   0  0  0  0  0  0  0  0  0  0  0  0
   -4.1263    0.6667    0.1495 C   0  0  0  0  0  0  0  0  0  0  0  0
   -3.8002    0.0260    1.3556 C   0  0  0  0  0  0  0  0  0  0  0  0
   -2.6708    0.4260    2.0825 C   0  0  0  0  0  0  0  0  0  0  0  0
    1.7393    0.8674    2.5289 H   0  0  0  0  0  0  0  0  0  0  0  0
    0.4399   -0.3584    2.6572 H   0  0  0  0  0  0  0  0  0  0  0  0
    1.4597   -2.7480    0.6126 H   0  0  0  0  0  0  0  0  0  0  0  0
    3.5615   -4.0987    0.8049 H   0  0  0  0  0  0  0  0  0  0  0  0
    5.7966   -2.9741    0.6200 H   0  0  0  0  0  0  0  0  0  0  0  0
    5.9218   -0.4971    0.2542 H   0  0  0  0  0  0  0  0  0  0  0  0
    3.8316    0.8551    0.0900 H   0  0  0  0  0  0  0  0  0  0  0  0
    2.2452    2.6901    1.0825 H   0  0  0  0  0  0  0  0  0  0  0  0
    2.6919    4.7468   -0.2417 H   0  0  0  0  0  0  0  0  0  0  0  0
    1.9639    4.8910   -2.6356 H   0  0  0  0  0  0  0  0  0  0  0  0
    0.7800    2.9529   -3.7024 H   0  0  0  0  0  0  0  0  0  0  0  0
    0.3182    0.8802   -2.3675 H   0  0  0  0  0  0  0  0  0  0  0  0
   -1.5296    2.9112    0.0054 H   0  0  0  0  0  0  0  0  0  0  0  0
   -3.5762    2.2140   -1.2757 H   0  0  0  0  0  0  0  0  0  0  0  0
   -4.9983    0.3313   -0.4301 H   0  0  0  0  0  0  0  0  0  0  0  0
   -4.4209   -0.8042    1.7228 H   0  0  0  0  0  0  0  0  0  0  0  0
   -2.4089   -0.0691    3.0295 H   0  0  0  0  0  0  0  0  0  0  0  0
  1  4  1  0  0  0  0
  1  3  1  0  0  0  0
  3  2  1  0  0  0  0
  3 22  1  0  0  0  0
  3 23  1  0  0  0  0
  4  5  1  0  0  0  0
  5 24  1  0  0  0  0
  5  6  2  0  0  0  0
  6 25  1  0  0  0  0
  7 26  1  0  0  0  0
  7  6  1  0  0  0  0
  8  7  2  0  0  0  0
  9  8  1  0  0  0  0
  9  4  2  0  0  0  0
 10 11  1  0  0  0  0
 10  1  1  0  0  0  0
 11 29  1  0  0  0  0
 12 30  1  0  0  0  0
 12 11  2  0  0  0  0
 13 12  1  0  0  0  0
 14 13  2  0  0  0  0
 14 15  1  0  0  0  0
 15 10  2  0  0  0  0
 16 21  1  0  0  0  0
 16  2  1  0  0  0  0
 17 16  2  0  0  0  0
 18 19  2  0  0  0  0
 18 17  1  0  0  0  0
 19 20  1  0  0  0  0
 20 37  1  0  0  0  0
 20 21  2  0  0  0  0
 21 38  1  0  0  0  0
 27  8  1  0  0  0  0
 28  9  1  0  0  0  0
 31 13  1  0  0  0  0
 32 14  1  0  0  0  0
 33 15  1  0  0  0  0
 34 17  1  0  0  0  0
 35 18  1  0  0  0  0
 36 19  1  0  0  0  0
M  END
