1
 OpenBabel05122313063D

 31 31  0  0  0  0  0  0  0  0999 V2000
   -2.4393   -0.0002   -0.8149 P   0  0  0  0  0  0  0  0  0  0  0  0
   -4.2989    0.6978    0.9012 N   0  0  0  0  0  0  0  0  0  0  0  0
   -4.2982   -0.7017    0.9005 N   0  0  0  0  0  0  0  0  0  0  0  0
   -3.4065    1.2511    0.1305 C   0  0  0  0  0  3  0  0  0  0  0  0
   -3.4051   -1.2533    0.1294 C   0  0  0  0  0  0  0  0  0  0  0  0
   -3.2698    2.7545   -0.0182 C   0  0  0  0  0  0  0  0  0  0  0  0
   -1.8264    3.1703    0.3378 C   0  0  0  0  0  0  0  0  0  0  0  0
   -1.7094    4.2688    0.2358 H   0  0  0  0  0  0  0  0  0  0  0  0
   -1.0877    2.6841   -0.3347 H   0  0  0  0  0  0  0  0  0  0  0  0
   -1.5715    2.8790    1.3753 H   0  0  0  0  0  0  0  0  0  0  0  0
   -4.2630    3.4642    0.9171 C   0  0  0  0  0  0  0  0  0  0  0  0
   -5.3049    3.1728    0.6850 H   0  0  0  0  0  0  0  0  0  0  0  0
   -4.1635    4.5631    0.8071 H   0  0  0  0  0  0  0  0  0  0  0  0
   -4.0754    3.1920    1.9733 H   0  0  0  0  0  0  0  0  0  0  0  0
   -3.5663    3.1337   -1.4874 C   0  0  0  0  0  0  0  0  0  0  0  0
   -4.5955    2.8398   -1.7754 H   0  0  0  0  0  0  0  0  0  0  0  0
   -2.8591    2.6389   -2.1847 H   0  0  0  0  0  0  0  0  0  0  0  0
   -3.4691    4.2307   -1.6222 H   0  0  0  0  0  0  0  0  0  0  0  0
   -3.2667   -2.7565   -0.0206 C   0  0  0  0  0  0  0  0  0  0  0  0
   -3.5617   -3.1348   -1.4902 C   0  0  0  0  0  0  0  0  0  0  0  0
   -4.5910   -2.8418   -1.7788 H   0  0  0  0  0  0  0  0  0  0  0  0
   -3.4631   -4.2316   -1.6259 H   0  0  0  0  0  0  0  0  0  0  0  0
   -2.8546   -2.6386   -2.1866 H   0  0  0  0  0  0  0  0  0  0  0  0
   -4.2597   -3.4681    0.9135 C   0  0  0  0  0  0  0  0  0  0  0  0
   -4.0732   -3.1966    1.9700 H   0  0  0  0  0  0  0  0  0  0  0  0
   -4.1589   -4.5668    0.8026 H   0  0  0  0  0  0  0  0  0  0  0  0
   -5.3018   -3.1776    0.6810 H   0  0  0  0  0  0  0  0  0  0  0  0
   -1.8231   -3.1710    0.3362 C   0  0  0  0  0  0  0  0  0  0  0  0
   -1.5693   -2.8803    1.3741 H   0  0  0  0  0  0  0  0  0  0  0  0
   -1.0844   -2.6833   -0.3354 H   0  0  0  0  0  0  0  0  0  0  0  0
   -1.7047   -4.2692    0.2333 H   0  0  0  0  0  0  0  0  0  0  0  0
  1  5  2  0  0  0  0
  1  4  1  0  0  0  0
  3  2  2  0  0  0  0
  4  2  1  0  0  0  0
  5  3  1  0  0  0  0
  6  4  1  0  0  0  0
  6  7  1  0  0  0  0
  6 11  1  0  0  0  0
  7 10  1  0  0  0  0
  8  7  1  0  0  0  0
  9  7  1  0  0  0  0
 11 14  1  0  0  0  0
 12 11  1  0  0  0  0
 13 11  1  0  0  0  0
 15  6  1  0  0  0  0
 16 15  1  0  0  0  0
 17 15  1  0  0  0  0
 18 15  1  0  0  0  0
 19  5  1  0  0  0  0
 19 28  1  0  0  0  0
 19 24  1  0  0  0  0
 20 19  1  0  0  0  0
 21 20  1  0  0  0  0
 22 20  1  0  0  0  0
 23 20  1  0  0  0  0
 24 25  1  0  0  0  0
 26 24  1  0  0  0  0
 27 24  1  0  0  0  0
 28 29  1  0  0  0  0
 30 28  1  0  0  0  0
 31 28  1  0  0  0  0
M  END
