1
 OpenBabel05122313063D

 32 32  0  0  0  0  0  0  0  0999 V2000
    2.1181    0.0001   -0.5268 P   0  0  1  0  0  0  0  0  0  0  0  0
    3.2125   -0.0003   -2.3240 Cl  0  0  0  0  0  0  0  0  0  0  0  0
    3.8567   -0.7059    1.3143 N   0  0  0  0  0  0  0  0  0  0  0  0
    3.8560    0.7096    1.3137 N   0  0  0  0  0  0  0  0  0  0  0  0
    3.0648   -1.2720    0.4659 C   0  0  0  0  0  0  0  0  0  0  0  0
    3.0637    1.2740    0.4646 C   0  0  0  0  0  0  0  0  0  0  0  0
    2.8733   -2.7737    0.3845 C   0  0  0  0  0  0  0  0  0  0  0  0
    2.2751   -3.1754   -0.9753 C   0  0  0  0  0  0  0  0  0  0  0  0
    2.1170   -4.2718   -1.0070 H   0  0  0  0  0  0  0  0  0  0  0  0
    1.2873   -2.6933   -1.1393 H   0  0  0  0  0  0  0  0  0  0  0  0
    2.9394   -2.8971   -1.8165 H   0  0  0  0  0  0  0  0  0  0  0  0
    4.2312   -3.4701    0.5994 C   0  0  0  0  0  0  0  0  0  0  0  0
    4.6847   -3.1542    1.5574 H   0  0  0  0  0  0  0  0  0  0  0  0
    4.0907   -4.5695    0.6118 H   0  0  0  0  0  0  0  0  0  0  0  0
    4.9392   -3.2175   -0.2152 H   0  0  0  0  0  0  0  0  0  0  0  0
    1.8932   -3.1602    1.5206 C   0  0  0  0  0  0  0  0  0  0  0  0
    2.3291   -2.9108    2.5073 H   0  0  0  0  0  0  0  0  0  0  0  0
    0.9328   -2.6179    1.4272 H   0  0  0  0  0  0  0  0  0  0  0  0
    1.6923   -4.2504    1.4816 H   0  0  0  0  0  0  0  0  0  0  0  0
    2.8709    2.7755    0.3816 C   0  0  0  0  0  0  0  0  0  0  0  0
    1.8916    3.1625    1.5182 C   0  0  0  0  0  0  0  0  0  0  0  0
    2.3286    2.9145    2.5048 H   0  0  0  0  0  0  0  0  0  0  0  0
    1.6898    4.2525    1.4782 H   0  0  0  0  0  0  0  0  0  0  0  0
    0.9315    2.6194    1.4263 H   0  0  0  0  0  0  0  0  0  0  0  0
    4.2285    3.4732    0.5944 C   0  0  0  0  0  0  0  0  0  0  0  0
    4.9358    3.2202   -0.2207 H   0  0  0  0  0  0  0  0  0  0  0  0
    4.0872    4.5725    0.6057 H   0  0  0  0  0  0  0  0  0  0  0  0
    4.6832    3.1586    1.5524 H   0  0  0  0  0  0  0  0  0  0  0  0
    2.2711    3.1753   -0.9780 C   0  0  0  0  0  0  0  0  0  0  0  0
    2.9348    2.8965   -1.8196 H   0  0  0  0  0  0  0  0  0  0  0  0
    1.2835    2.6922   -1.1406 H   0  0  0  0  0  0  0  0  0  0  0  0
    2.1121    4.2714   -1.0109 H   0  0  0  0  0  0  0  0  0  0  0  0
  1  2  1  6  0  0  0
  1  6  1  0  0  0  0
  1  5  1  0  0  0  0
  4  3  1  0  0  0  0
  5  3  2  0  0  0  0
  6  4  2  0  0  0  0
  7  5  1  0  0  0  0
  7 12  1  0  0  0  0
  7 16  1  0  0  0  0
  8  7  1  0  0  0  0
  9  8  1  0  0  0  0
 10  8  1  0  0  0  0
 11  8  1  0  0  0  0
 12 14  1  0  0  0  0
 12 13  1  0  0  0  0
 15 12  1  0  0  0  0
 16 17  1  0  0  0  0
 18 16  1  0  0  0  0
 19 16  1  0  0  0  0
 20  6  1  0  0  0  0
 20 25  1  0  0  0  0
 20 21  1  0  0  0  0
 21 22  1  0  0  0  0
 23 21  1  0  0  0  0
 24 21  1  0  0  0  0
 25 27  1  0  0  0  0
 25 28  1  0  0  0  0
 26 25  1  0  0  0  0
 29 20  1  0  0  0  0
 30 29  1  0  0  0  0
 31 29  1  0  0  0  0
 32 29  1  0  0  0  0
M  END
