2
 OpenBabel05122313063D

 32 31  0  0  0  0  0  0  0  0999 V2000
   -1.2223   -1.2059    3.2303 N   0  0  0  0  0  0  0  0  0  0  0  0
   -0.5119    0.3661    0.8058 P   0  0  0  0  0  0  0  0  0  0  0  0
   -0.7095    1.6504    1.4167 H   0  0  0  0  0  0  0  0  0  0  0  0
   -2.6357   -1.6484   -0.4485 Si  0  0  0  0  0  0  0  0  0  0  0  0
   -3.2516    1.5664   -0.0274 Si  0  0  0  0  0  0  0  0  0  0  0  0
   -1.9618    0.1642   -0.3085 C   0  0  0  0  0  0  0  0  0  0  0  0
   -1.5165    0.3565   -1.3111 H   0  0  0  0  0  0  0  0  0  0  0  0
   -1.2805   -2.9339   -0.1613 C   0  0  0  0  0  0  0  0  0  0  0  0
   -0.8677   -2.9114    0.8657 H   0  0  0  0  0  0  0  0  0  0  0  0
   -0.4460   -2.8303   -0.8810 H   0  0  0  0  0  0  0  0  0  0  0  0
   -1.7270   -3.9393   -0.3125 H   0  0  0  0  0  0  0  0  0  0  0  0
   -3.2501   -1.8347   -2.2260 C   0  0  0  0  0  0  0  0  0  0  0  0
   -3.6453   -2.8596   -2.3823 H   0  0  0  0  0  0  0  0  0  0  0  0
   -2.4107   -1.6862   -2.9365 H   0  0  0  0  0  0  0  0  0  0  0  0
   -4.0542   -1.1176   -2.4809 H   0  0  0  0  0  0  0  0  0  0  0  0
   -4.0189   -1.9474    0.8032 C   0  0  0  0  0  0  0  0  0  0  0  0
   -4.8848   -1.2722    0.6558 H   0  0  0  0  0  0  0  0  0  0  0  0
   -3.6490   -1.8259    1.8411 H   0  0  0  0  0  0  0  0  0  0  0  0
   -4.3841   -2.9899    0.6974 H   0  0  0  0  0  0  0  0  0  0  0  0
   -4.7424    1.3276   -1.1652 C   0  0  0  0  0  0  0  0  0  0  0  0
   -5.4407    2.1804   -1.0364 H   0  0  0  0  0  0  0  0  0  0  0  0
   -5.3024    0.3979   -0.9428 H   0  0  0  0  0  0  0  0  0  0  0  0
   -4.4378    1.3018   -2.2311 H   0  0  0  0  0  0  0  0  0  0  0  0
   -3.8022    1.6020    1.7790 C   0  0  0  0  0  0  0  0  0  0  0  0
   -2.9563    1.7713    2.4754 H   0  0  0  0  0  0  0  0  0  0  0  0
   -4.2980    0.6577    2.0769 H   0  0  0  0  0  0  0  0  0  0  0  0
   -4.5252    2.4304    1.9290 H   0  0  0  0  0  0  0  0  0  0  0  0
   -2.4115    3.2005   -0.4882 C   0  0  0  0  0  0  0  0  0  0  0  0
   -2.0842    3.1930   -1.5484 H   0  0  0  0  0  0  0  0  0  0  0  0
   -1.5204    3.4221    0.1336 H   0  0  0  0  0  0  0  0  0  0  0  0
   -3.1201    4.0449   -0.3600 H   0  0  0  0  0  0  0  0  0  0  0  0
   -0.9656   -0.5633    2.2814 C   0  0  0  0  0  0  0  0  0  0  0  0
  2  3  1  0  0  0  0
  2 32  1  0  0  0  0
  4  6  1  0  0  0  0
  4  8  1  0  0  0  0
  4 16  1  0  0  0  0
  5 24  1  0  0  0  0
  6  5  1  0  0  0  0
  6  2  1  0  0  0  0
  7  6  1  0  0  0  0
  8  9  1  0  0  0  0
 10  8  1  0  0  0  0
 11  8  1  0  0  0  0
 12  4  1  0  0  0  0
 13 12  1  0  0  0  0
 14 12  1  0  0  0  0
 15 12  1  0  0  0  0
 16 18  1  0  0  0  0
 17 16  1  0  0  0  0
 19 16  1  0  0  0  0
 20 21  1  0  0  0  0
 20 22  1  0  0  0  0
 20  5  1  0  0  0  0
 23 20  1  0  0  0  0
 24 27  1  0  0  0  0
 24 26  1  0  0  0  0
 24 25  1  0  0  0  0
 28 31  1  0  0  0  0
 28  5  1  0  0  0  0
 28 30  1  0  0  0  0
 29 28  1  0  0  0  0
 32  1  3  0  0  0  0
M  END
