1
 OpenBabel05122313063D

 46 48  0  0  0  0  0  0  0  0999 V2000
    0.0322    0.2285    0.0485 P   0  0  0  0  0  0  0  0  0  0  0  0
    0.4722    1.9393   -0.4821 C   0  0  0  0  0  0  0  0  0  0  0  0
    1.7178    2.4918   -0.0725 C   0  0  0  0  0  0  0  0  0  0  0  0
    2.1430    3.7344   -0.5775 C   0  0  0  0  0  0  0  0  0  0  0  0
    1.3361    4.4254   -1.4954 C   0  0  0  0  0  0  0  0  0  0  0  0
    0.1108    3.8896   -1.9128 C   0  0  0  0  0  0  0  0  0  0  0  0
   -0.3138    2.6512   -1.4047 C   0  0  0  0  0  0  0  0  0  0  0  0
   -0.0955    0.3641    1.8907 C   0  0  0  0  0  0  0  0  0  0  0  0
   -0.4168   -0.8030    2.6341 C   0  0  0  0  0  0  0  0  0  0  0  0
   -0.5184   -0.7450    4.0383 C   0  0  0  0  0  0  0  0  0  0  0  0
   -0.3331    0.4767    4.7020 C   0  0  0  0  0  0  0  0  0  0  0  0
   -0.0536    1.6432    3.9781 C   0  0  0  0  0  0  0  0  0  0  0  0
    0.0641    1.5776    2.5808 C   0  0  0  0  0  0  0  0  0  0  0  0
   -1.7611    0.1205   -0.3811 C   0  0  0  0  0  0  0  0  0  0  0  0
   -2.2401   -0.7034   -1.4213 C   0  0  0  0  0  0  0  0  0  0  0  0
   -3.5997   -0.7500   -1.7338 C   0  0  0  0  0  0  0  0  0  0  0  0
   -4.5258    0.0301   -1.0089 C   0  0  0  0  0  0  0  0  0  0  0  0
   -4.0620    0.8585    0.0363 C   0  0  0  0  0  0  0  0  0  0  0  0
   -2.6945    0.8934    0.3392 C   0  0  0  0  0  0  0  0  0  0  0  0
    2.4253    1.7447    0.8145 O   0  0  0  0  0  0  0  0  0  0  0  0
    3.7054    2.1815    1.2364 C   0  0  0  0  0  0  0  0  0  0  0  0
   -0.6321   -1.9286    1.9081 O   0  0  0  0  0  0  0  0  0  0  0  0
   -0.9025   -3.1489    2.5774 C   0  0  0  0  0  0  0  0  0  0  0  0
   -5.8262   -0.0832   -1.3816 O   0  0  0  0  0  0  0  0  0  0  0  0
   -6.7983    0.6765   -0.6866 C   0  0  0  0  0  0  0  0  0  0  0  0
    3.1051    4.1612   -0.2650 H   0  0  0  0  0  0  0  0  0  0  0  0
    1.6795    5.3943   -1.8887 H   0  0  0  0  0  0  0  0  0  0  0  0
   -0.5172    4.4298   -2.6359 H   0  0  0  0  0  0  0  0  0  0  0  0
   -1.2718    2.2223   -1.7333 H   0  0  0  0  0  0  0  0  0  0  0  0
   -0.7493   -1.6495    4.6158 H   0  0  0  0  0  0  0  0  0  0  0  0
   -0.4175    0.5109    5.7989 H   0  0  0  0  0  0  0  0  0  0  0  0
    0.0751    2.6052    4.4953 H   0  0  0  0  0  0  0  0  0  0  0  0
    0.2735    2.4942    2.0118 H   0  0  0  0  0  0  0  0  0  0  0  0
   -1.5439   -1.3235   -1.9994 H   0  0  0  0  0  0  0  0  0  0  0  0
   -3.9763   -1.3937   -2.5415 H   0  0  0  0  0  0  0  0  0  0  0  0
   -4.7561    1.4751    0.6226 H   0  0  0  0  0  0  0  0  0  0  0  0
   -2.3504    1.5386    1.1614 H   0  0  0  0  0  0  0  0  0  0  0  0
    3.6486    3.1547    1.7719 H   0  0  0  0  0  0  0  0  0  0  0  0
    4.4032    2.2688    0.3761 H   0  0  0  0  0  0  0  0  0  0  0  0
    4.0765    1.4052    1.9302 H   0  0  0  0  0  0  0  0  0  0  0  0
   -0.0610   -3.4393    3.2438 H   0  0  0  0  0  0  0  0  0  0  0  0
   -1.0231   -3.9083    1.7846 H   0  0  0  0  0  0  0  0  0  0  0  0
   -1.8387   -3.0873    3.1743 H   0  0  0  0  0  0  0  0  0  0  0  0
   -7.7730    0.4340   -1.1484 H   0  0  0  0  0  0  0  0  0  0  0  0
   -6.6153    1.7703   -0.7815 H   0  0  0  0  0  0  0  0  0  0  0  0
   -6.8347    0.4136    0.3943 H   0  0  0  0  0  0  0  0  0  0  0  0
  1  8  1  0  0  0  0
  2  3  1  0  0  0  0
  2  1  1  0  0  0  0
  3 20  1  0  0  0  0
  4 26  1  0  0  0  0
  4  3  2  0  0  0  0
  5  4  1  0  0  0  0
  6  5  2  0  0  0  0
  6  7  1  0  0  0  0
  7  2  2  0  0  0  0
  8 13  2  0  0  0  0
  8  9  1  0  0  0  0
  9 10  2  0  0  0  0
 10 30  1  0  0  0  0
 10 11  1  0  0  0  0
 11 31  1  0  0  0  0
 12 32  1  0  0  0  0
 12 11  2  0  0  0  0
 13 12  1  0  0  0  0
 14  1  1  0  0  0  0
 14 19  1  0  0  0  0
 15 14  2  0  0  0  0
 16 15  1  0  0  0  0
 16 17  2  0  0  0  0
 17 18  1  0  0  0  0
 18 19  2  0  0  0  0
 18 36  1  0  0  0  0
 19 37  1  0  0  0  0
 20 21  1  0  0  0  0
 21 38  1  0  0  0  0
 21 40  1  0  0  0  0
 22 23  1  0  0  0  0
 22  9  1  0  0  0  0
 23 43  1  0  0  0  0
 23 41  1  0  0  0  0
 24 17  1  0  0  0  0
 24 25  1  0  0  0  0
 25 46  1  0  0  0  0
 27  5  1  0  0  0  0
 28  6  1  0  0  0  0
 29  7  1  0  0  0  0
 33 13  1  0  0  0  0
 34 15  1  0  0  0  0
 35 16  1  0  0  0  0
 39 21  1  0  0  0  0
 42 23  1  0  0  0  0
 44 25  1  0  0  0  0
 45 25  1  0  0  0  0
M  END
