1
 OpenBabel05122313063D

 31 33  0  0  0  0  0  0  0  0999 V2000
   -0.4104    0.0008   -0.0000 P   0  0  0  0  0  0  0  0  0  0  0  0
   -1.1482    1.6789   -0.0713 C   0  0  0  0  0  0  0  0  0  0  0  0
   -2.3489    1.9589   -0.7588 C   0  0  0  0  0  0  0  0  0  0  0  0
   -2.8778    1.1575   -1.3048 H   0  0  0  0  0  0  0  0  0  0  0  0
   -2.2831    4.1754   -0.1581 C   0  0  0  0  0  0  0  0  0  0  0  0
   -2.7659    5.1676   -0.2097 H   0  0  0  0  0  0  0  0  0  0  0  0
   -1.0784    4.0119    0.5479 C   0  0  0  0  0  0  0  0  0  0  0  0
   -0.6022    4.8679    1.0482 H   0  0  0  0  0  0  0  0  0  0  0  0
   -0.4965    2.7400    0.5885 C   0  0  0  0  0  0  0  0  0  0  0  0
    0.4569    2.5655    1.1131 H   0  0  0  0  0  0  0  0  0  0  0  0
   -1.1480   -0.7779    1.4881 C   0  0  0  0  0  0  0  0  0  0  0  0
   -2.3408   -0.3149    2.0841 C   0  0  0  0  0  0  0  0  0  0  0  0
   -2.8637    0.5663    1.6717 H   0  0  0  0  0  0  0  0  0  0  0  0
   -2.2814   -1.9541    3.6927 C   0  0  0  0  0  0  0  0  0  0  0  0
   -2.7635   -2.4067    4.5776 H   0  0  0  0  0  0  0  0  0  0  0  0
   -1.0847   -2.4923    3.1876 C   0  0  0  0  0  0  0  0  0  0  0  0
   -0.6140   -3.3613    3.6706 H   0  0  0  0  0  0  0  0  0  0  0  0
   -0.5035   -1.8899    2.0665 C   0  0  0  0  0  0  0  0  0  0  0  0
    0.4441   -2.2634    1.6454 H   0  0  0  0  0  0  0  0  0  0  0  0
   -1.1469   -0.9003   -1.4181 C   0  0  0  0  0  0  0  0  0  0  0  0
   -2.3455   -1.6390   -1.3170 C   0  0  0  0  0  0  0  0  0  0  0  0
   -2.8735   -1.7137   -0.3496 H   0  0  0  0  0  0  0  0  0  0  0  0
   -2.2797   -2.2244   -3.5375 C   0  0  0  0  0  0  0  0  0  0  0  0
   -2.7615   -2.7655   -4.3713 H   0  0  0  0  0  0  0  0  0  0  0  0
   -1.0770   -1.5276   -3.7490 C   0  0  0  0  0  0  0  0  0  0  0  0
   -0.6015   -1.5199   -4.7408 H   0  0  0  0  0  0  0  0  0  0  0  0
   -0.4962   -0.8562   -2.6675 C   0  0  0  0  0  0  0  0  0  0  0  0
    0.4557   -0.3118   -2.7787 H   0  0  0  0  0  0  0  0  0  0  0  0
   -2.9071    3.1770   -0.8027 N   0  0  0  0  0  0  0  0  0  0  0  0
   -2.8981   -0.8873    3.1608 N   0  0  0  0  0  0  0  0  0  0  0  0
   -2.9026   -2.2865   -2.3502 N   0  0  0  0  0  0  0  0  0  0  0  0
  1 11  1  0  0  0  0
  2  1  1  0  0  0  0
  2  9  1  0  0  0  0
  3  2  2  0  0  0  0
  4  3  1  0  0  0  0
  5  7  1  0  0  0  0
  6  5  1  0  0  0  0
  7  9  2  0  0  0  0
  7  8  1  0  0  0  0
  9 10  1  0  0  0  0
 11 18  2  0  0  0  0
 11 12  1  0  0  0  0
 12 30  2  0  0  0  0
 13 12  1  0  0  0  0
 14 15  1  0  0  0  0
 16 17  1  0  0  0  0
 16 14  2  0  0  0  0
 18 16  1  0  0  0  0
 19 18  1  0  0  0  0
 20 21  1  0  0  0  0
 20  1  1  0  0  0  0
 21 22  1  0  0  0  0
 23 31  1  0  0  0  0
 24 23  1  0  0  0  0
 25 23  2  0  0  0  0
 25 27  1  0  0  0  0
 26 25  1  0  0  0  0
 27 20  2  0  0  0  0
 28 27  1  0  0  0  0
 29  3  1  0  0  0  0
 29  5  2  0  0  0  0
 30 14  1  0  0  0  0
 31 21  2  0  0  0  0
M  END
