1
 OpenBabel05122313063D

 38 39  0  0  0  0  0  0  0  0999 V2000
    2.2916    0.4393   -0.1056 P   0  0  0  0  0  0  0  0  0  0  0  0
    5.4674   -2.0768   -0.0575 O   0  0  0  0  0  0  0  0  0  0  0  0
    3.2913   -0.8461    0.4483 N   0  0  0  0  0  0  0  0  0  0  0  0
    4.1823   -1.1368   -0.0761 H   0  0  0  0  0  0  0  0  0  0  0  0
    6.2314   -3.8995    1.2875 C   0  0  0  0  0  0  0  0  0  0  0  0
    7.2493   -3.5951    0.9787 H   0  0  0  0  0  0  0  0  0  0  0  0
    6.2212   -4.1746    2.3595 H   0  0  0  0  0  0  0  0  0  0  0  0
    5.9651   -4.8046    0.7008 H   0  0  0  0  0  0  0  0  0  0  0  0
    5.2494   -2.7927    0.9568 C   0  0  0  0  0  0  0  0  0  0  0  0
    4.0911   -2.6191    1.8001 C   0  0  0  0  0  0  0  0  0  0  0  0
    3.9571   -3.2682    2.6752 H   0  0  0  0  0  0  0  0  0  0  0  0
    3.1227   -1.6520    1.5358 C   0  0  0  0  0  0  0  0  0  0  0  0
    1.9154   -1.4766    2.4064 C   0  0  0  0  0  0  0  0  0  0  0  0
    1.0002   -1.7129    1.8189 H   0  0  0  0  0  0  0  0  0  0  0  0
    1.9603   -2.1425    3.2868 H   0  0  0  0  0  0  0  0  0  0  0  0
    1.8092   -0.4262    2.7497 H   0  0  0  0  0  0  0  0  0  0  0  0
    2.9517    0.7084   -1.7944 C   0  0  0  0  0  0  0  0  0  0  0  0
    2.0881    0.7270   -2.9049 C   0  0  0  0  0  0  0  0  0  0  0  0
    1.0172    0.5227   -2.7620 H   0  0  0  0  0  0  0  0  0  0  0  0
    2.6035    0.9777   -4.1857 C   0  0  0  0  0  0  0  0  0  0  0  0
    1.9252    0.9911   -5.0521 H   0  0  0  0  0  0  0  0  0  0  0  0
    3.9783    1.1953   -4.3617 C   0  0  0  0  0  0  0  0  0  0  0  0
    4.3814    1.3840   -5.3684 H   0  0  0  0  0  0  0  0  0  0  0  0
    4.8424    1.1709   -3.2540 C   0  0  0  0  0  0  0  0  0  0  0  0
    5.9216    1.3380   -3.3893 H   0  0  0  0  0  0  0  0  0  0  0  0
    4.3326    0.9389   -1.9699 C   0  0  0  0  0  0  0  0  0  0  0  0
    5.0112    0.9354   -1.1031 H   0  0  0  0  0  0  0  0  0  0  0  0
    2.9570    1.9026    0.7887 C   0  0  0  0  0  0  0  0  0  0  0  0
    2.5281    3.1861    0.3919 C   0  0  0  0  0  0  0  0  0  0  0  0
    1.8038    3.2952   -0.4290 H   0  0  0  0  0  0  0  0  0  0  0  0
    3.0260    4.3215    1.0428 C   0  0  0  0  0  0  0  0  0  0  0  0
    2.6902    5.3209    0.7277 H   0  0  0  0  0  0  0  0  0  0  0  0
    3.9409    4.1852    2.1007 C   0  0  0  0  0  0  0  0  0  0  0  0
    4.3255    5.0794    2.6144 H   0  0  0  0  0  0  0  0  0  0  0  0
    4.3647    2.9092    2.4995 C   0  0  0  0  0  0  0  0  0  0  0  0
    5.0864    2.7974    3.3229 H   0  0  0  0  0  0  0  0  0  0  0  0
    3.8769    1.7665    1.8444 C   0  0  0  0  0  0  0  0  0  0  0  0
    4.2282    0.7683    2.1445 H   0  0  0  0  0  0  0  0  0  0  0  0
  1  3  1  0  0  0  0
  1 28  1  0  0  0  0
  2  9  2  0  0  0  0
  3 12  1  0  0  0  0
  4  3  1  0  0  0  0
  5  7  1  0  0  0  0
  6  5  1  0  0  0  0
  8  5  1  0  0  0  0
  9  5  1  0  0  0  0
  9 10  1  0  0  0  0
 10 11  1  0  0  0  0
 12 10  2  0  0  0  0
 12 13  1  0  0  0  0
 13 16  1  0  0  0  0
 13 15  1  0  0  0  0
 14 13  1  0  0  0  0
 17  1  1  0  0  0  0
 18 19  1  0  0  0  0
 18 17  2  0  0  0  0
 20 18  1  0  0  0  0
 21 20  1  0  0  0  0
 22 20  2  0  0  0  0
 22 24  1  0  0  0  0
 23 22  1  0  0  0  0
 24 26  2  0  0  0  0
 25 24  1  0  0  0  0
 26 17  1  0  0  0  0
 26 27  1  0  0  0  0
 28 37  1  0  0  0  0
 29 28  2  0  0  0  0
 29 31  1  0  0  0  0
 30 29  1  0  0  0  0
 31 33  2  0  0  0  0
 32 31  1  0  0  0  0
 33 35  1  0  0  0  0
 33 34  1  0  0  0  0
 35 36  1  0  0  0  0
 37 38  1  0  0  0  0
 37 35  2  0  0  0  0
M  END
