1
 OpenBabel05122313063D

 42 43  0  0  1  0  0  0  0  0999 V2000
   -0.5797   -0.4236    0.0773 P   0  0  2  0  0  0  0  0  0  0  0  0
   -1.2952    0.1617    1.6736 C   0  0  0  0  0  0  0  0  0  0  0  0
   -2.2785   -0.3375    1.8322 H   0  0  0  0  0  0  0  0  0  0  0  0
   -0.6287   -0.1974    2.4866 H   0  0  0  0  0  0  0  0  0  0  0  0
   -1.4390    1.6700    1.7627 C   0  0  0  0  0  0  0  0  0  0  0  0
   -1.4588    2.4979    0.6808 C   0  0  0  0  0  0  0  0  0  0  0  0
   -1.3210    2.0407   -0.7615 C   0  0  0  0  0  0  0  0  0  0  0  0
   -0.2866    2.2712   -1.1001 H   0  0  0  0  0  0  0  0  0  0  0  0
   -1.9754    2.6805   -1.3914 H   0  0  0  0  0  0  0  0  0  0  0  0
   -1.6472    0.5723   -1.0804 C   0  0  2  0  0  0  0  0  0  0  0  0
   -1.2707    0.3452   -2.1024 H   0  0  0  0  0  0  0  0  0  0  0  0
   -3.1751    0.2843   -1.0574 C   0  0  2  0  0  0  0  0  0  0  0  0
   -3.5704    0.5552   -0.0546 H   0  0  0  0  0  0  0  0  0  0  0  0
   -3.5194   -1.2089   -1.3408 C   0  0  0  0  0  0  0  0  0  0  0  0
   -4.5018   -1.2419   -1.8536 H   0  0  0  0  0  0  0  0  0  0  0  0
   -2.7845   -1.6156   -2.0690 H   0  0  0  0  0  0  0  0  0  0  0  0
   -3.5987   -2.0706   -0.0954 C   0  0  0  0  0  0  0  0  0  0  0  0
   -2.4700   -2.5401    0.5031 C   0  0  0  0  0  0  0  0  0  0  0  0
   -1.1103   -2.2078   -0.0629 C   0  0  0  0  0  0  0  0  0  0  0  0
   -1.0189   -2.4460   -1.1447 H   0  0  0  0  0  0  0  0  0  0  0  0
   -0.3130   -2.7872    0.4433 H   0  0  0  0  0  0  0  0  0  0  0  0
   -1.5329    2.1393    3.1937 C   0  0  0  0  0  0  0  0  0  0  0  0
   -1.8486    3.1924    3.2991 H   0  0  0  0  0  0  0  0  0  0  0  0
   -0.5497    2.0286    3.7025 H   0  0  0  0  0  0  0  0  0  0  0  0
   -2.2516    1.5116    3.7630 H   0  0  0  0  0  0  0  0  0  0  0  0
   -1.5241    4.0001    0.7819 C   0  0  0  0  0  0  0  0  0  0  0  0
   -1.5751    4.3814    1.8164 H   0  0  0  0  0  0  0  0  0  0  0  0
   -2.3982    4.3956    0.2208 H   0  0  0  0  0  0  0  0  0  0  0  0
   -0.6215    4.4460    0.3098 H   0  0  0  0  0  0  0  0  0  0  0  0
   -3.8658    1.1612   -2.0733 C   0  0  0  0  0  0  0  0  0  0  0  0
   -3.5791    0.9810   -3.1273 H   0  0  0  0  0  0  0  0  0  0  0  0
   -4.7893    2.0969   -1.7934 C   0  0  0  0  0  0  0  0  0  0  0  0
   -5.0945    2.3045   -0.7538 H   0  0  0  0  0  0  0  0  0  0  0  0
   -5.2724    2.6878   -2.5869 H   0  0  0  0  0  0  0  0  0  0  0  0
   -4.9969   -2.2866    0.4172 C   0  0  0  0  0  0  0  0  0  0  0  0
   -5.0456   -2.8521    1.3651 H   0  0  0  0  0  0  0  0  0  0  0  0
   -5.6112   -2.8274   -0.3354 H   0  0  0  0  0  0  0  0  0  0  0  0
   -5.5045   -1.3098    0.5782 H   0  0  0  0  0  0  0  0  0  0  0  0
   -2.4298   -3.3564    1.7682 C   0  0  0  0  0  0  0  0  0  0  0  0
   -1.8265   -2.8422    2.5484 H   0  0  0  0  0  0  0  0  0  0  0  0
   -1.9265   -4.3313    1.5882 H   0  0  0  0  0  0  0  0  0  0  0  0
   -3.4275   -3.5643    2.1945 H   0  0  0  0  0  0  0  0  0  0  0  0
  1 19  1  6  0  0  0
  1  2  1  0  0  0  0
  2  5  1  0  0  0  0
  2  3  1  0  0  0  0
  2  4  1  0  0  0  0
  5 22  1  0  0  0  0
  6 26  1  0  0  0  0
  6  5  2  0  0  0  0
  7  6  1  0  0  0  0
  8  7  1  0  0  0  0
  9  7  1  0  0  0  0
 10 11  1  6  0  0  0
 10 12  1  0  0  0  0
 10  7  1  0  0  0  0
 10  1  1  0  0  0  0
 12 13  1  1  0  0  0
 14 12  1  0  0  0  0
 14 17  1  0  0  0  0
 15 14  1  0  0  0  0
 16 14  1  0  0  0  0
 17 35  1  0  0  0  0
 17 18  2  0  0  0  0
 18 39  1  0  0  0  0
 19 21  1  0  0  0  0
 19 18  1  0  0  0  0
 20 19  1  0  0  0  0
 22 23  1  0  0  0  0
 22 24  1  0  0  0  0
 22 25  1  0  0  0  0
 26 27  1  0  0  0  0
 28 26  1  0  0  0  0
 29 26  1  0  0  0  0
 30 32  2  0  0  0  0
 30 12  1  0  0  0  0
 31 30  1  0  0  0  0
 32 33  1  0  0  0  0
 34 32  1  0  0  0  0
 35 38  1  0  0  0  0
 35 36  1  0  0  0  0
 37 35  1  0  0  0  0
 39 42  1  0  0  0  0
 39 40  1  0  0  0  0
 41 39  1  0  0  0  0
M  END
