1
 OpenBabel05122313063D

 44 44  0  0  0  0  0  0  0  0999 V2000
   -2.5457   -1.6944    0.2223 P   0  0  0  0  0  0  0  0  0  0  0  0
   -4.0554   -1.3152   -0.8087 C   0  0  0  0  0  0  0  0  0  0  0  0
   -4.4896   -0.5193   -0.1626 H   0  0  0  0  0  0  0  0  0  0  0  0
   -5.1335   -2.3949   -1.0096 C   0  0  0  0  0  0  0  0  0  0  0  0
   -4.7804   -3.1578   -1.7345 H   0  0  0  0  0  0  0  0  0  0  0  0
   -5.3520   -2.9344   -0.0663 H   0  0  0  0  0  0  0  0  0  0  0  0
   -6.4142   -1.7433   -1.5571 C   0  0  0  0  0  0  0  0  0  0  0  0
   -6.8164   -1.0426   -0.7918 H   0  0  0  0  0  0  0  0  0  0  0  0
   -7.1932   -2.5186   -1.7142 H   0  0  0  0  0  0  0  0  0  0  0  0
   -6.1456   -0.9780   -2.8596 C   0  0  0  0  0  0  0  0  0  0  0  0
   -5.8678   -1.7065   -3.6548 H   0  0  0  0  0  0  0  0  0  0  0  0
   -7.0722   -0.4764   -3.2086 H   0  0  0  0  0  0  0  0  0  0  0  0
   -5.0121    0.0428   -2.6963 C   0  0  0  0  0  0  0  0  0  0  0  0
   -5.3212    0.8482   -1.9946 H   0  0  0  0  0  0  0  0  0  0  0  0
   -4.7915    0.5369   -3.6651 H   0  0  0  0  0  0  0  0  0  0  0  0
   -3.7382   -0.6119   -2.1448 C   0  0  0  0  0  0  0  0  0  0  0  0
   -3.3550   -1.3487   -2.8822 H   0  0  0  0  0  0  0  0  0  0  0  0
   -2.9464    0.1535   -2.0095 H   0  0  0  0  0  0  0  0  0  0  0  0
   -1.5099   -3.0923   -0.5748 C   0  0  0  0  0  0  0  0  0  0  0  0
   -0.9439   -2.5471   -1.9017 C   0  0  0  0  0  0  0  0  0  0  0  0
   -0.1711   -3.2520   -2.2735 H   0  0  0  0  0  0  0  0  0  0  0  0
   -0.4737   -1.5550   -1.8035 H   0  0  0  0  0  0  0  0  0  0  0  0
   -1.7261   -2.4748   -2.6796 H   0  0  0  0  0  0  0  0  0  0  0  0
   -0.3510   -3.4570    0.3709 C   0  0  0  0  0  0  0  0  0  0  0  0
    0.2573   -2.5776    0.6439 H   0  0  0  0  0  0  0  0  0  0  0  0
    0.3178   -4.1766   -0.1459 H   0  0  0  0  0  0  0  0  0  0  0  0
   -0.7012   -3.9420    1.3017 H   0  0  0  0  0  0  0  0  0  0  0  0
   -2.3230   -4.3595   -0.9008 C   0  0  0  0  0  0  0  0  0  0  0  0
   -2.7786   -4.8320   -0.0142 H   0  0  0  0  0  0  0  0  0  0  0  0
   -1.6312   -5.1012   -1.3534 H   0  0  0  0  0  0  0  0  0  0  0  0
   -3.1188   -4.1630   -1.6417 H   0  0  0  0  0  0  0  0  0  0  0  0
   -3.1593   -2.1706    1.9825 C   0  0  0  0  0  0  0  0  0  0  0  0
   -2.0547   -1.7673    2.9780 C   0  0  0  0  0  0  0  0  0  0  0  0
   -2.3815   -2.0399    4.0033 H   0  0  0  0  0  0  0  0  0  0  0  0
   -1.8745   -0.6746    2.9613 H   0  0  0  0  0  0  0  0  0  0  0  0
   -1.0899   -2.2695    2.7848 H   0  0  0  0  0  0  0  0  0  0  0  0
   -3.4818   -3.6660    2.1472 C   0  0  0  0  0  0  0  0  0  0  0  0
   -4.2599   -4.0155    1.4416 H   0  0  0  0  0  0  0  0  0  0  0  0
   -3.8759   -3.8204    3.1738 H   0  0  0  0  0  0  0  0  0  0  0  0
   -2.5917   -4.3139    2.0419 H   0  0  0  0  0  0  0  0  0  0  0  0
   -4.4247   -1.3532    2.3089 C   0  0  0  0  0  0  0  0  0  0  0  0
   -4.6753   -1.5264    3.3764 H   0  0  0  0  0  0  0  0  0  0  0  0
   -5.3007   -1.6693    1.7103 H   0  0  0  0  0  0  0  0  0  0  0  0
   -4.2700   -0.2669    2.1622 H   0  0  0  0  0  0  0  0  0  0  0  0
  1 32  1  0  0  0  0
  2  3  1  0  0  0  0
  2  1  1  0  0  0  0
  4  2  1  0  0  0  0
  4  6  1  0  0  0  0
  5  4  1  0  0  0  0
  7  4  1  0  0  0  0
  7  8  1  0  0  0  0
  9  7  1  0  0  0  0
 10 13  1  0  0  0  0
 10  7  1  0  0  0  0
 11 10  1  0  0  0  0
 12 10  1  0  0  0  0
 13 16  1  0  0  0  0
 13 14  1  0  0  0  0
 15 13  1  0  0  0  0
 16 18  1  0  0  0  0
 16  2  1  0  0  0  0
 17 16  1  0  0  0  0
 19  1  1  0  0  0  0
 19 24  1  0  0  0  0
 20 22  1  0  0  0  0
 20 19  1  0  0  0  0
 21 20  1  0  0  0  0
 23 20  1  0  0  0  0
 24 25  1  0  0  0  0
 24 27  1  0  0  0  0
 26 24  1  0  0  0  0
 28 19  1  0  0  0  0
 28 29  1  0  0  0  0
 30 28  1  0  0  0  0
 31 28  1  0  0  0  0
 32 37  1  0  0  0  0
 32 41  1  0  0  0  0
 32 33  1  0  0  0  0
 33 34  1  0  0  0  0
 35 33  1  0  0  0  0
 36 33  1  0  0  0  0
 37 39  1  0  0  0  0
 38 37  1  0  0  0  0
 40 37  1  0  0  0  0
 41 42  1  0  0  0  0
 43 41  1  0  0  0  0
 44 41  1  0  0  0  0
M  END
