1
 OpenBabel05122313063D

 41 41  0  0  0  0  0  0  0  0999 V2000
   -1.9554   -2.3367   -0.0690 P   0  0  0  0  0  0  0  0  0  0  0  0
   -2.7954   -3.0783   -1.6249 C   0  0  0  0  0  0  0  0  0  0  0  0
   -2.1848   -2.3314   -2.8340 C   0  0  0  0  0  0  0  0  0  0  0  0
   -2.5003   -1.2691   -2.8243 H   0  0  0  0  0  0  0  0  0  0  0  0
   -2.5808   -2.7913   -3.7632 H   0  0  0  0  0  0  0  0  0  0  0  0
   -1.0843   -2.3407   -2.8859 H   0  0  0  0  0  0  0  0  0  0  0  0
   -4.3110   -2.7963   -1.6828 C   0  0  0  0  0  0  0  0  0  0  0  0
   -4.8952   -3.4360   -1.0009 H   0  0  0  0  0  0  0  0  0  0  0  0
   -4.6460   -3.0258   -2.7159 H   0  0  0  0  0  0  0  0  0  0  0  0
   -4.5516   -1.7388   -1.4656 H   0  0  0  0  0  0  0  0  0  0  0  0
   -2.5838   -4.6038   -1.6843 C   0  0  0  0  0  0  0  0  0  0  0  0
   -1.5276   -4.9217   -1.6263 H   0  0  0  0  0  0  0  0  0  0  0  0
   -3.0006   -4.9812   -2.6419 H   0  0  0  0  0  0  0  0  0  0  0  0
   -3.1337   -5.1119   -0.8678 H   0  0  0  0  0  0  0  0  0  0  0  0
   -2.6811   -2.9882    1.5933 C   0  0  0  0  0  0  0  0  0  0  0  0
   -2.4722   -1.8913    2.6608 C   0  0  0  0  0  0  0  0  0  0  0  0
   -1.4194   -1.5801    2.7931 H   0  0  0  0  0  0  0  0  0  0  0  0
   -2.8258   -2.2821    3.6378 H   0  0  0  0  0  0  0  0  0  0  0  0
   -3.0651   -0.9869    2.4210 H   0  0  0  0  0  0  0  0  0  0  0  0
   -4.1979   -3.2173    1.4727 C   0  0  0  0  0  0  0  0  0  0  0  0
   -4.7200   -2.3189    1.0923 H   0  0  0  0  0  0  0  0  0  0  0  0
   -4.5878   -3.4336    2.4895 H   0  0  0  0  0  0  0  0  0  0  0  0
   -4.4417   -4.0892    0.8374 H   0  0  0  0  0  0  0  0  0  0  0  0
   -1.9975   -4.3044    2.0017 C   0  0  0  0  0  0  0  0  0  0  0  0
   -2.1010   -5.0843    1.2219 H   0  0  0  0  0  0  0  0  0  0  0  0
   -2.4875   -4.6831    2.9233 H   0  0  0  0  0  0  0  0  0  0  0  0
   -0.9203   -4.1832    2.2171 H   0  0  0  0  0  0  0  0  0  0  0  0
   -0.1793   -2.8568   -0.0777 C   0  0  0  0  0  0  0  0  0  0  0  0
    0.4961   -3.4149   -1.1849 C   0  0  0  0  0  0  0  0  0  0  0  0
   -0.0450   -3.7012   -2.0921 H   0  0  0  0  0  0  0  0  0  0  0  0
    1.8858   -3.5915   -1.1758 C   0  0  0  0  0  0  0  0  0  0  0  0
    2.3737   -4.0076   -2.0710 H   0  0  0  0  0  0  0  0  0  0  0  0
    2.6686   -3.2278   -0.0641 C   0  0  0  0  0  0  0  0  0  0  0  0
    1.9932   -2.7106    1.0587 C   0  0  0  0  0  0  0  0  0  0  0  0
    2.5682   -2.4109    1.9462 H   0  0  0  0  0  0  0  0  0  0  0  0
    0.6079   -2.5179    1.0476 C   0  0  0  0  0  0  0  0  0  0  0  0
    0.1458   -2.0587    1.9304 H   0  0  0  0  0  0  0  0  0  0  0  0
    4.1696   -3.3341   -0.1047 C   0  0  0  0  0  0  0  0  0  0  0  0
    4.5847   -2.5448   -0.7676 H   0  0  0  0  0  0  0  0  0  0  0  0
    4.5004   -4.3084   -0.5173 H   0  0  0  0  0  0  0  0  0  0  0  0
    4.6205   -3.2001    0.8960 H   0  0  0  0  0  0  0  0  0  0  0  0
  1 15  1  0  0  0  0
  2  1  1  0  0  0  0
  3  4  1  0  0  0  0
  3  2  1  0  0  0  0
  5  3  1  0  0  0  0
  6  3  1  0  0  0  0
  7  2  1  0  0  0  0
  7 10  1  0  0  0  0
  7  8  1  0  0  0  0
  9  7  1  0  0  0  0
 11 12  1  0  0  0  0
 11  2  1  0  0  0  0
 11 14  1  0  0  0  0
 13 11  1  0  0  0  0
 15 24  1  0  0  0  0
 15 16  1  0  0  0  0
 16 17  1  0  0  0  0
 16 18  1  0  0  0  0
 19 16  1  0  0  0  0
 20 15  1  0  0  0  0
 20 22  1  0  0  0  0
 21 20  1  0  0  0  0
 23 20  1  0  0  0  0
 24 27  1  0  0  0  0
 24 26  1  0  0  0  0
 25 24  1  0  0  0  0
 28  1  1  0  0  0  0
 28 36  1  0  0  0  0
 29 31  1  0  0  0  0
 29 28  2  0  0  0  0
 30 29  1  0  0  0  0
 31 33  2  0  0  0  0
 32 31  1  0  0  0  0
 33 34  1  0  0  0  0
 34 35  1  0  0  0  0
 36 34  2  0  0  0  0
 36 37  1  0  0  0  0
 38 33  1  0  0  0  0
 38 41  1  0  0  0  0
 39 38  1  0  0  0  0
 40 38  1  0  0  0  0
M  END
