1
 OpenBabel05122313063D

 21 22  0  0  1  0  0  0  0  0999 V2000
   -1.2323    0.4735    0.0003 P   0  0  1  0  0  0  0  0  0  0  0  0
   -2.2185   -0.4208    1.3347 C   0  0  1  0  0  0  0  0  0  0  0  0
   -3.5897    0.1356    1.6274 C   0  0  0  0  0  0  0  0  0  0  0  0
   -4.5563    0.4878    0.7290 C   0  0  0  0  0  0  0  0  0  0  0  0
   -4.5563    0.4883   -0.7286 C   0  0  0  0  0  0  0  0  0  0  0  0
   -3.5897    0.1366   -1.6272 C   0  0  0  0  0  0  0  0  0  0  0  0
   -2.2185   -0.4199   -1.3348 C   0  0  2  0  0  0  0  0  0  0  0  0
   -2.3806   -1.7796   -0.6770 C   0  0  0  0  0  0  0  0  0  0  0  0
   -2.3806   -1.7801    0.6759 C   0  0  0  0  0  0  0  0  0  0  0  0
   -1.7196    2.2423    0.0009 C   0  0  0  0  0  0  0  0  0  0  0  0
   -1.6142   -0.4739    2.2602 H   0  0  0  0  0  0  0  0  0  0  0  0
   -3.8474    0.2363    2.6953 H   0  0  0  0  0  0  0  0  0  0  0  0
   -5.5022    0.8408    1.1727 H   0  0  0  0  0  0  0  0  0  0  0  0
   -5.5023    0.8414   -1.1721 H   0  0  0  0  0  0  0  0  0  0  0  0
   -3.8474    0.2379   -2.6951 H   0  0  0  0  0  0  0  0  0  0  0  0
   -1.6142   -0.4723   -2.2603 H   0  0  0  0  0  0  0  0  0  0  0  0
   -2.5654   -2.6764   -1.2881 H   0  0  0  0  0  0  0  0  0  0  0  0
   -2.5655   -2.6773    1.2864 H   0  0  0  0  0  0  0  0  0  0  0  0
   -1.2770    2.7207   -0.8950 H   0  0  0  0  0  0  0  0  0  0  0  0
   -2.8163    2.3780   -0.0003 H   0  0  0  0  0  0  0  0  0  0  0  0
   -1.2791    2.7196    0.8985 H   0  0  0  0  0  0  0  0  0  0  0  0
  1 10  1  1  0  0  0
  1  2  1  0  0  0  0
  2  3  1  0  0  0  0
  2 11  1  1  0  0  0
  3 12  1  0  0  0  0
  4 13  1  0  0  0  0
  4  3  2  0  0  0  0
  5  4  1  0  0  0  0
  6  7  1  0  0  0  0
  6  5  2  0  0  0  0
  7 16  1  6  0  0  0
  7  8  1  0  0  0  0
  7  1  1  0  0  0  0
  8  9  2  0  0  0  0
  9 18  1  0  0  0  0
  9  2  1  0  0  0  0
 10 21  1  0  0  0  0
 14  5  1  0  0  0  0
 15  6  1  0  0  0  0
 17  8  1  0  0  0  0
 19 10  1  0  0  0  0
 20 10  1  0  0  0  0
M  END
