1
 OpenBabel05122313063D

 43 44  0  0  1  0  0  0  0  0999 V2000
    0.7669    0.0708    0.9406 P   0  0  2  0  0  4  0  0  0  0  0  0
    0.9800   -0.9557    2.0737 O   0  0  0  0  0  0  0  0  0  0  0  0
    1.6008   -0.3713   -0.4533 O   0  0  0  0  0  0  0  0  0  0  0  0
    1.6551    1.6033    1.4553 C   0  0  0  0  0  0  0  0  0  0  0  0
    2.0042    1.7371    2.8133 C   0  0  0  0  0  0  0  0  0  0  0  0
    1.7528    0.9153    3.5012 H   0  0  0  0  0  0  0  0  0  0  0  0
    2.6712    2.8890    3.2588 C   0  0  0  0  0  0  0  0  0  0  0  0
    2.9434    2.9897    4.3211 H   0  0  0  0  0  0  0  0  0  0  0  0
    2.9950    3.9089    2.3493 C   0  0  0  0  0  0  0  0  0  0  0  0
    3.5149    4.8146    2.6988 H   0  0  0  0  0  0  0  0  0  0  0  0
    2.6597    3.7712    0.9916 C   0  0  0  0  0  0  0  0  0  0  0  0
    2.9148    4.5670    0.2750 H   0  0  0  0  0  0  0  0  0  0  0  0
    1.9923    2.6227    0.5419 C   0  0  0  0  0  0  0  0  0  0  0  0
    1.7292    2.5179   -0.5203 H   0  0  0  0  0  0  0  0  0  0  0  0
    2.8831   -1.0222   -0.3255 C   0  0  1  0  0  0  0  0  0  0  0  0
    3.0751   -1.2241    0.7527 H   0  0  0  0  0  0  0  0  0  0  0  0
    2.8392   -2.3612   -1.0851 C   0  0  1  0  0  0  0  0  0  0  0  0
    2.6206   -2.0946   -2.1461 H   0  0  0  0  0  0  0  0  0  0  0  0
    4.2350   -3.0091   -1.0482 C   0  0  0  0  0  0  0  0  0  0  0  0
    4.2231   -3.9659   -1.6108 H   0  0  0  0  0  0  0  0  0  0  0  0
    4.4898   -3.2704    0.0024 H   0  0  0  0  0  0  0  0  0  0  0  0
    5.3206   -2.0819   -1.6042 C   0  0  0  0  0  0  0  0  0  0  0  0
    6.3144   -2.5767   -1.5539 H   0  0  0  0  0  0  0  0  0  0  0  0
    5.1238   -1.8831   -2.6828 H   0  0  0  0  0  0  0  0  0  0  0  0
    5.3624   -0.7403   -0.8566 C   0  0  2  0  0  0  0  0  0  0  0  0
    5.6177   -0.9608    0.2067 H   0  0  0  0  0  0  0  0  0  0  0  0
    3.9693   -0.0933   -0.8712 C   0  0  0  0  0  0  0  0  0  0  0  0
    3.9711    0.8482   -0.2849 H   0  0  0  0  0  0  0  0  0  0  0  0
    3.6982    0.1811   -1.9158 H   0  0  0  0  0  0  0  0  0  0  0  0
    1.6893   -3.2916   -0.6185 C   0  0  0  0  0  0  0  0  0  0  0  0
    0.7881   -2.6414   -0.5754 H   0  0  0  0  0  0  0  0  0  0  0  0
    1.8970   -3.8794    0.7833 C   0  0  0  0  0  0  0  0  0  0  0  0
    1.0120   -4.4808    1.0798 H   0  0  0  0  0  0  0  0  0  0  0  0
    2.0200   -3.0812    1.5420 H   0  0  0  0  0  0  0  0  0  0  0  0
    2.7750   -4.5576    0.8217 H   0  0  0  0  0  0  0  0  0  0  0  0
    1.4066   -4.3943   -1.6466 C   0  0  0  0  0  0  0  0  0  0  0  0
    0.5163   -4.9892   -1.3546 H   0  0  0  0  0  0  0  0  0  0  0  0
    2.2565   -5.1039   -1.7362 H   0  0  0  0  0  0  0  0  0  0  0  0
    1.2148   -3.9721   -2.6549 H   0  0  0  0  0  0  0  0  0  0  0  0
    6.4285    0.2039   -1.4162 C   0  0  0  0  0  0  0  0  0  0  0  0
    6.4625    1.1569   -0.8498 H   0  0  0  0  0  0  0  0  0  0  0  0
    6.2150    0.4537   -2.4775 H   0  0  0  0  0  0  0  0  0  0  0  0
    7.4385   -0.2535   -1.3762 H   0  0  0  0  0  0  0  0  0  0  0  0
  1  4  1  0  0  0  0
  1  2  2  1  0  0  0
  3 15  1  0  0  0  0
  3  1  1  0  0  0  0
  4  5  1  0  0  0  0
  5  7  2  0  0  0  0
  5  6  1  0  0  0  0
  7  8  1  0  0  0  0
  9 10  1  0  0  0  0
  9  7  1  0  0  0  0
 11  9  2  0  0  0  0
 12 11  1  0  0  0  0
 13 11  1  0  0  0  0
 13  4  2  0  0  0  0
 14 13  1  0  0  0  0
 15 16  1  1  0  0  0
 17 18  1  6  0  0  0
 17 19  1  0  0  0  0
 17 30  1  0  0  0  0
 17 15  1  0  0  0  0
 19 21  1  0  0  0  0
 20 19  1  0  0  0  0
 22 23  1  0  0  0  0
 22 19  1  0  0  0  0
 22 25  1  0  0  0  0
 24 22  1  0  0  0  0
 25 26  1  1  0  0  0
 27 25  1  0  0  0  0
 27 15  1  0  0  0  0
 27 28  1  0  0  0  0
 29 27  1  0  0  0  0
 30 31  1  0  0  0  0
 30 32  1  0  0  0  0
 32 35  1  0  0  0  0
 32 33  1  0  0  0  0
 32 34  1  0  0  0  0
 36 37  1  0  0  0  0
 36 30  1  0  0  0  0
 38 36  1  0  0  0  0
 39 36  1  0  0  0  0
 40 43  1  0  0  0  0
 40 25  1  0  0  0  0
 40 41  1  0  0  0  0
 42 40  1  0  0  0  0
M  END
