1
 OpenBabel05122313063D

 38 40  0  0  0  0  0  0  0  0999 V2000
   -0.6537    0.5747   -0.0047 P   0  0  0  0  0  0  0  0  0  0  0  0
   -0.7749    2.2667   -0.0526 N   0  0  0  0  0  0  0  0  0  0  0  0
   -1.9377   -0.2733   -1.0824 C   0  0  0  0  0  0  0  0  0  0  0  0
   -2.3752   -0.6985   -2.3269 C   0  0  0  0  0  0  0  0  0  0  0  0
   -1.9559   -0.3291   -3.2745 H   0  0  0  0  0  0  0  0  0  0  0  0
   -3.4226   -1.6779   -2.3419 C   0  0  0  0  0  0  0  0  0  0  0  0
   -3.7944   -2.0179   -3.3211 H   0  0  0  0  0  0  0  0  0  0  0  0
   -3.9877   -2.2346   -1.1883 C   0  0  0  0  0  0  0  0  0  0  0  0
   -4.7860   -2.9870   -1.2844 H   0  0  0  0  0  0  0  0  0  0  0  0
   -3.9015   -2.2382    1.4221 C   0  0  0  0  0  0  0  0  0  0  0  0
   -4.6915   -2.9912    1.5682 H   0  0  0  0  0  0  0  0  0  0  0  0
   -3.2599   -1.6856    2.5364 C   0  0  0  0  0  0  0  0  0  0  0  0
   -3.5664   -2.0288    3.5370 H   0  0  0  0  0  0  0  0  0  0  0  0
   -2.2103   -0.7106    2.4524 C   0  0  0  0  0  0  0  0  0  0  0  0
   -1.7243   -0.3476    3.3711 H   0  0  0  0  0  0  0  0  0  0  0  0
   -1.8541   -0.2843    1.1850 C   0  0  0  0  0  0  0  0  0  0  0  0
   -2.5185   -0.8453    0.0719 C   0  0  0  0  0  0  0  0  0  0  0  0
   -3.5273   -1.8332    0.1034 C   0  0  0  0  0  0  0  0  0  0  0  0
   -2.0365    3.0135   -0.2957 C   0  0  0  0  0  0  0  0  0  0  0  0
   -1.7936    4.0592   -0.0142 H   0  0  0  0  0  0  0  0  0  0  0  0
   -2.4141    3.0280   -1.7821 C   0  0  0  0  0  0  0  0  0  0  0  0
   -2.7029    2.0184   -2.1322 H   0  0  0  0  0  0  0  0  0  0  0  0
   -1.5662    3.3814   -2.4001 H   0  0  0  0  0  0  0  0  0  0  0  0
   -3.2763    3.7041   -1.9538 H   0  0  0  0  0  0  0  0  0  0  0  0
   -3.2064    2.5862    0.5987 C   0  0  0  0  0  0  0  0  0  0  0  0
   -3.6093    1.5954    0.3147 H   0  0  0  0  0  0  0  0  0  0  0  0
   -4.0324    3.3197    0.5041 H   0  0  0  0  0  0  0  0  0  0  0  0
   -2.9031    2.5404    1.6625 H   0  0  0  0  0  0  0  0  0  0  0  0
    0.3821    3.0672    0.4148 C   0  0  0  0  0  0  0  0  0  0  0  0
    1.2171    2.3432    0.4943 H   0  0  0  0  0  0  0  0  0  0  0  0
    0.8012    4.1281   -0.6074 C   0  0  0  0  0  0  0  0  0  0  0  0
    1.0014    3.6658   -1.5933 H   0  0  0  0  0  0  0  0  0  0  0  0
    1.7292    4.6320   -0.2715 H   0  0  0  0  0  0  0  0  0  0  0  0
    0.0279    4.9133   -0.7381 H   0  0  0  0  0  0  0  0  0  0  0  0
    0.1559    3.6466    1.8173 C   0  0  0  0  0  0  0  0  0  0  0  0
   -0.6816    4.3748    1.8363 H   0  0  0  0  0  0  0  0  0  0  0  0
    1.0640    4.1770    2.1674 H   0  0  0  0  0  0  0  0  0  0  0  0
   -0.0695    2.8404    2.5434 H   0  0  0  0  0  0  0  0  0  0  0  0
  1 16  1  0  0  0  0
  2  1  1  0  0  0  0
  2 29  1  0  0  0  0
  3  1  1  0  0  0  0
  3 17  1  0  0  0  0
  4  3  2  0  0  0  0
  5  4  1  0  0  0  0
  6  4  1  0  0  0  0
  6  8  2  0  0  0  0
  7  6  1  0  0  0  0
  8 18  1  0  0  0  0
  9  8  1  0  0  0  0
 10 11  1  0  0  0  0
 10 12  1  0  0  0  0
 12 13  1  0  0  0  0
 14 12  2  0  0  0  0
 14 15  1  0  0  0  0
 16 14  1  0  0  0  0
 17 18  1  0  0  0  0
 17 16  2  0  0  0  0
 18 10  2  0  0  0  0
 19  2  1  0  0  0  0
 19 20  1  0  0  0  0
 19 25  1  0  0  0  0
 21 19  1  0  0  0  0
 22 21  1  0  0  0  0
 23 21  1  0  0  0  0
 24 21  1  0  0  0  0
 25 28  1  0  0  0  0
 26 25  1  0  0  0  0
 27 25  1  0  0  0  0
 29 30  1  0  0  0  0
 29 35  1  0  0  0  0
 31 33  1  0  0  0  0
 31 29  1  0  0  0  0
 32 31  1  0  0  0  0
 34 31  1  0  0  0  0
 35 36  1  0  0  0  0
 35 37  1  0  0  0  0
 35 38  1  0  0  0  0
M  END
