43
 OpenBabel05122313063D

 43 47  0  0  1  0  0  0  0  0999 V2000
    4.0118   -1.7272   -0.9635 C   0  0  0  0  0  0  0  0  0  0  0  0
    3.4686   -2.6528   -1.2081 H   0  0  0  0  0  0  0  0  0  0  0  0
    5.3332   -1.5242   -1.4142 C   0  0  0  0  0  0  0  0  0  0  0  0
    5.8319   -2.3081   -2.0040 H   0  0  0  0  0  0  0  0  0  0  0  0
    6.0251   -0.3384   -1.1143 C   0  0  0  0  0  0  0  0  0  0  0  0
    7.0574   -0.2085   -1.4730 H   0  0  0  0  0  0  0  0  0  0  0  0
    5.4186    0.6842   -0.3542 C   0  0  0  0  0  0  0  0  0  0  0  0
    5.9633    1.6149   -0.1321 H   0  0  0  0  0  0  0  0  0  0  0  0
    4.1232    0.4672    0.1140 C   0  0  0  0  0  0  0  0  0  0  0  0
    3.4301   -0.7255   -0.1874 C   0  0  0  0  0  0  0  0  0  0  0  0
    2.0622   -0.5287    0.4416 C   0  0  2  0  0  0  0  0  0  0  0  0
    1.4877   -1.4303    0.7238 H   0  0  0  0  0  0  0  0  0  0  0  0
    1.2966    0.4963   -0.4805 C   0  0  2  0  0  0  0  0  0  0  0  0
    1.3824    0.2011   -1.5457 H   0  0  0  0  0  0  0  0  0  0  0  0
    2.0528    1.8132   -0.1404 C   0  0  0  0  0  0  0  0  0  0  0  0
    2.5224    2.2803   -1.0270 H   0  0  0  0  0  0  0  0  0  0  0  0
    1.3931    2.5571    0.3472 H   0  0  0  0  0  0  0  0  0  0  0  0
    3.1116    1.2946    0.8899 C   0  0  1  0  0  0  0  0  0  0  0  0
    3.4963    2.0516    1.5965 H   0  0  0  0  0  0  0  0  0  0  0  0
   -1.3212    1.4301   -1.4850 C   0  0  0  0  0  0  0  0  0  0  0  0
   -2.7016    1.2336   -1.7039 C   0  0  0  0  0  0  0  0  0  0  0  0
   -3.2469    0.4949   -1.0949 H   0  0  0  0  0  0  0  0  0  0  0  0
   -3.3688    1.9602   -2.6992 C   0  0  0  0  0  0  0  0  0  0  0  0
   -4.4446    1.7980   -2.8632 H   0  0  0  0  0  0  0  0  0  0  0  0
   -2.6636    2.8799   -3.4927 C   0  0  0  0  0  0  0  0  0  0  0  0
   -3.1866    3.4437   -4.2799 H   0  0  0  0  0  0  0  0  0  0  0  0
   -1.2889    3.0719   -3.2868 C   0  0  0  0  0  0  0  0  0  0  0  0
   -0.7310    3.7865   -3.9106 H   0  0  0  0  0  0  0  0  0  0  0  0
   -0.6174    2.3534   -2.2850 C   0  0  0  0  0  0  0  0  0  0  0  0
    0.4587    2.5174   -2.1333 H   0  0  0  0  0  0  0  0  0  0  0  0
   -0.7910    1.4882    1.3729 C   0  0  0  0  0  0  0  0  0  0  0  0
   -0.5908    0.8807    2.6296 C   0  0  0  0  0  0  0  0  0  0  0  0
   -0.3267   -0.1860    2.6858 H   0  0  0  0  0  0  0  0  0  0  0  0
   -0.7384    1.6334    3.8020 C   0  0  0  0  0  0  0  0  0  0  0  0
   -0.5806    1.1536    4.7795 H   0  0  0  0  0  0  0  0  0  0  0  0
   -1.0954    2.9901    3.7302 C   0  0  0  0  0  0  0  0  0  0  0  0
   -1.2184    3.5764    4.6535 H   0  0  0  0  0  0  0  0  0  0  0  0
   -1.3062    3.5948    2.4814 C   0  0  0  0  0  0  0  0  0  0  0  0
   -1.5961    4.6547    2.4217 H   0  0  0  0  0  0  0  0  0  0  0  0
   -1.1541    2.8484    1.3024 C   0  0  0  0  0  0  0  0  0  0  0  0
   -1.3283    3.3226    0.3247 H   0  0  0  0  0  0  0  0  0  0  0  0
    2.3658    0.2799    1.5886 O   0  0  0  0  0  0  0  0  0  0  0  0
   -0.5377    0.4715   -0.1336 P   0  0  0  0  0  0  0  0  0  0  0  0
  1 10  1  0  0  0  0
  2  1  1  0  0  0  0
  3  5  1  0  0  0  0
  3  1  2  0  0  0  0
  4  3  1  0  0  0  0
  5  7  2  0  0  0  0
  6  5  1  0  0  0  0
  7  8  1  0  0  0  0
  7  9  1  0  0  0  0
  9 18  1  0  0  0  0
 10  9  2  0  0  0  0
 10 11  1  0  0  0  0
 11 12  1  1  0  0  0
 11 42  1  0  0  0  0
 13 14  1  6  0  0  0
 13 15  1  0  0  0  0
 13 43  1  0  0  0  0
 13 11  1  0  0  0  0
 15 17  1  0  0  0  0
 15 18  1  0  0  0  0
 16 15  1  0  0  0  0
 18 42  1  0  0  0  0
 18 19  1  1  0  0  0
 20 43  1  0  0  0  0
 21 20  1  0  0  0  0
 21 22  1  0  0  0  0
 23 21  2  0  0  0  0
 24 23  1  0  0  0  0
 25 27  2  0  0  0  0
 25 23  1  0  0  0  0
 26 25  1  0  0  0  0
 27 29  1  0  0  0  0
 28 27  1  0  0  0  0
 29 30  1  0  0  0  0
 29 20  2  0  0  0  0
 31 32  1  0  0  0  0
 32 33  1  0  0  0  0
 32 34  2  0  0  0  0
 34 35  1  0  0  0  0
 36 34  1  0  0  0  0
 36 37  1  0  0  0  0
 38 36  2  0  0  0  0
 39 38  1  0  0  0  0
 40 31  2  0  0  0  0
 40 38  1  0  0  0  0
 41 40  1  0  0  0  0
 43 31  1  0  0  0  0
M  END
