1
 OpenBabel05122313063D

 70 74  0  0  0  0  0  0  0  0999 V2000
    0.3772    0.9774    0.2056 P   0  0  0  0  0  0  0  0  0  0  0  0
   -3.5497   -2.3407   -0.6739 O   0  0  0  0  0  0  0  0  0  0  0  0
   -1.8375   -2.3072    1.8997 O   0  0  0  0  0  0  0  0  0  0  0  0
   -1.2919    0.5758   -0.4271 C   0  0  0  0  0  0  0  0  0  0  0  0
   -2.1503    1.6008   -0.8177 C   0  0  0  0  0  0  0  0  0  0  0  0
   -1.8024    2.6403   -0.8728 H   0  0  0  0  0  0  0  0  0  0  0  0
   -3.5124    1.3447   -1.1367 C   0  0  0  0  0  0  0  0  0  0  0  0
   -4.0094   -0.0027   -1.0518 C   0  0  0  0  0  0  0  0  0  0  0  0
   -3.0902   -1.0503   -0.7201 C   0  0  0  0  0  0  0  0  0  0  0  0
   -1.7477   -0.7884   -0.4266 C   0  0  0  0  0  0  0  0  0  0  0  0
   -4.4097    2.3886   -1.5085 C   0  0  0  0  0  0  0  0  0  0  0  0
   -4.0274    3.4188   -1.5766 H   0  0  0  0  0  0  0  0  0  0  0  0
   -5.7429    2.1123   -1.7711 C   0  0  0  0  0  0  0  0  0  0  0  0
   -6.4278    2.9247   -2.0561 H   0  0  0  0  0  0  0  0  0  0  0  0
   -6.2345    0.7834   -1.6625 C   0  0  0  0  0  0  0  0  0  0  0  0
   -7.2984    0.5808   -1.8564 H   0  0  0  0  0  0  0  0  0  0  0  0
   -5.3863   -0.2563   -1.3074 C   0  0  0  0  0  0  0  0  0  0  0  0
   -5.7619   -1.2836   -1.2027 H   0  0  0  0  0  0  0  0  0  0  0  0
   -0.8508   -1.9621   -0.2114 C   0  0  0  0  0  0  0  0  0  0  0  0
   -0.9640   -2.7558    0.9620 C   0  0  0  0  0  0  0  0  0  0  0  0
   -0.1964   -3.9316    1.0951 C   0  0  0  0  0  0  0  0  0  0  0  0
   -0.2981   -4.5635    1.9880 H   0  0  0  0  0  0  0  0  0  0  0  0
    0.6756   -4.3218    0.0625 C   0  0  0  0  0  0  0  0  0  0  0  0
    1.2501   -5.2551    0.1699 H   0  0  0  0  0  0  0  0  0  0  0  0
    0.7889   -3.5549   -1.1036 C   0  0  0  0  0  0  0  0  0  0  0  0
    1.4537   -3.8697   -1.9206 H   0  0  0  0  0  0  0  0  0  0  0  0
    0.0238   -2.3821   -1.2323 C   0  0  0  0  0  0  0  0  0  0  0  0
    0.0612   -1.7920   -2.1610 H   0  0  0  0  0  0  0  0  0  0  0  0
   -3.5163   -3.0479   -1.9170 C   0  0  0  0  0  0  0  0  0  0  0  0
   -3.9651   -4.0410   -1.7298 H   0  0  0  0  0  0  0  0  0  0  0  0
   -2.4722   -3.1809   -2.2751 H   0  0  0  0  0  0  0  0  0  0  0  0
   -4.1038   -2.5211   -2.7004 H   0  0  0  0  0  0  0  0  0  0  0  0
   -2.2242   -3.1824    2.9481 C   0  0  0  0  0  0  0  0  0  0  0  0
   -3.0156   -2.6578    3.5133 H   0  0  0  0  0  0  0  0  0  0  0  0
   -1.3804   -3.4059    3.6387 H   0  0  0  0  0  0  0  0  0  0  0  0
   -2.6297   -4.1358    2.5466 H   0  0  0  0  0  0  0  0  0  0  0  0
    0.3536    0.4634    2.0018 C   0  0  0  0  0  0  0  0  0  0  0  0
    0.4216   -0.6440    1.9273 H   0  0  0  0  0  0  0  0  0  0  0  0
   -0.9576    0.7839    2.7470 C   0  0  0  0  0  0  0  0  0  0  0  0
   -1.8223    0.3696    2.1945 H   0  0  0  0  0  0  0  0  0  0  0  0
   -1.1008    1.8817    2.8109 H   0  0  0  0  0  0  0  0  0  0  0  0
   -0.9092    0.1920    4.1643 C   0  0  0  0  0  0  0  0  0  0  0  0
   -1.8427    0.4507    4.7052 H   0  0  0  0  0  0  0  0  0  0  0  0
   -0.8909   -0.9169    4.0838 H   0  0  0  0  0  0  0  0  0  0  0  0
    0.3193    0.6622    4.9511 C   0  0  0  0  0  0  0  0  0  0  0  0
    0.2484    1.7588    5.1259 H   0  0  0  0  0  0  0  0  0  0  0  0
    0.3423    0.1897    5.9546 H   0  0  0  0  0  0  0  0  0  0  0  0
    1.6150    0.3633    4.1874 C   0  0  0  0  0  0  0  0  0  0  0  0
    1.7466   -0.7408    4.1062 H   0  0  0  0  0  0  0  0  0  0  0  0
    2.4966    0.7445    4.7430 H   0  0  0  0  0  0  0  0  0  0  0  0
    1.5826    0.9719    2.7784 C   0  0  0  0  0  0  0  0  0  0  0  0
    2.5201    0.7510    2.2297 H   0  0  0  0  0  0  0  0  0  0  0  0
    1.5269    2.0771    2.8712 H   0  0  0  0  0  0  0  0  0  0  0  0
    0.6426    2.8132    0.0365 C   0  0  0  0  0  0  0  0  0  0  0  0
    0.2749    2.9866   -0.9994 H   0  0  0  0  0  0  0  0  0  0  0  0
   -0.1493    3.7017    1.0172 C   0  0  0  0  0  0  0  0  0  0  0  0
    0.2359    3.5480    2.0476 H   0  0  0  0  0  0  0  0  0  0  0  0
   -1.2227    3.4279    1.0400 H   0  0  0  0  0  0  0  0  0  0  0  0
    0.0187    5.1819    0.6395 C   0  0  0  0  0  0  0  0  0  0  0  0
   -0.4381    5.3554   -0.3606 H   0  0  0  0  0  0  0  0  0  0  0  0
   -0.5473    5.8128    1.3554 H   0  0  0  0  0  0  0  0  0  0  0  0
    1.4957    5.5903    0.6056 C   0  0  0  0  0  0  0  0  0  0  0  0
    1.9140    5.5274    1.6354 H   0  0  0  0  0  0  0  0  0  0  0  0
    1.5961    6.6502    0.2941 H   0  0  0  0  0  0  0  0  0  0  0  0
    2.3045    4.6796   -0.3255 C   0  0  0  0  0  0  0  0  0  0  0  0
    1.9695    4.8287   -1.3759 H   0  0  0  0  0  0  0  0  0  0  0  0
    3.3801    4.9501   -0.2997 H   0  0  0  0  0  0  0  0  0  0  0  0
    2.1383    3.1969    0.0359 C   0  0  0  0  0  0  0  0  0  0  0  0
    2.5781    3.0054    1.0378 H   0  0  0  0  0  0  0  0  0  0  0  0
    2.6877    2.5620   -0.6885 H   0  0  0  0  0  0  0  0  0  0  0  0
  1 37  1  0  0  0  0
  3 33  1  0  0  0  0
  4 10  1  0  0  0  0
  4  1  1  0  0  0  0
  5  4  2  0  0  0  0
  6  5  1  0  0  0  0
  7  8  1  0  0  0  0
  7  5  1  0  0  0  0
  8  9  1  0  0  0  0
  9  2  1  0  0  0  0
  9 10  2  0  0  0  0
 10 19  1  0  0  0  0
 11  7  2  0  0  0  0
 12 11  1  0  0  0  0
 13 15  2  0  0  0  0
 13 11  1  0  0  0  0
 14 13  1  0  0  0  0
 15 17  1  0  0  0  0
 16 15  1  0  0  0  0
 17 18  1  0  0  0  0
 17  8  2  0  0  0  0
 19 20  1  0  0  0  0
 20 21  2  0  0  0  0
 20  3  1  0  0  0  0
 21 22  1  0  0  0  0
 23 24  1  0  0  0  0
 23 21  1  0  0  0  0
 25 23  2  0  0  0  0
 26 25  1  0  0  0  0
 27 25  1  0  0  0  0
 27 19  2  0  0  0  0
 28 27  1  0  0  0  0
 29 30  1  0  0  0  0
 29  2  1  0  0  0  0
 31 29  1  0  0  0  0
 32 29  1  0  0  0  0
 33 34  1  0  0  0  0
 33 35  1  0  0  0  0
 36 33  1  0  0  0  0
 37 39  1  0  0  0  0
 37 51  1  0  0  0  0
 38 37  1  0  0  0  0
 39 41  1  0  0  0  0
 39 42  1  0  0  0  0
 40 39  1  0  0  0  0
 42 43  1  0  0  0  0
 42 45  1  0  0  0  0
 44 42  1  0  0  0  0
 45 46  1  0  0  0  0
 45 47  1  0  0  0  0
 48 50  1  0  0  0  0
 48 45  1  0  0  0  0
 49 48  1  0  0  0  0
 51 53  1  0  0  0  0
 51 48  1  0  0  0  0
 52 51  1  0  0  0  0
 54  1  1  0  0  0  0
 54 56  1  0  0  0  0
 55 54  1  0  0  0  0
 56 58  1  0  0  0  0
 56 57  1  0  0  0  0
 59 56  1  0  0  0  0
 59 61  1  0  0  0  0
 60 59  1  0  0  0  0
 62 59  1  0  0  0  0
 62 63  1  0  0  0  0
 64 62  1  0  0  0  0
 65 67  1  0  0  0  0
 65 68  1  0  0  0  0
 65 62  1  0  0  0  0
 66 65  1  0  0  0  0
 68 54  1  0  0  0  0
 68 69  1  0  0  0  0
 70 68  1  0  0  0  0
M  END
