1
 OpenBabel05122313063D

 48 48  0  0  0  0  0  0  0  0999 V2000
   -0.3035    0.0489   -1.5719 P   0  0  0  0  0  1  0  0  0  0  0  0
    1.4930    0.0370   -1.0661 C   0  0  0  0  0  0  0  0  0  0  0  0
    2.1676    1.2683   -0.7752 C   0  0  0  0  0  0  0  0  0  0  0  0
    3.3714    1.2125   -0.0447 C   0  0  0  0  0  0  0  0  0  0  0  0
    3.8584    2.1546    0.2259 H   0  0  0  0  0  0  0  0  0  0  0  0
    3.9593    0.0124    0.3705 C   0  0  0  0  0  0  0  0  0  0  0  0
    1.6506    2.6788   -1.1808 C   0  0  0  0  0  0  0  0  0  0  0  0
    2.8103    3.7008   -1.2495 C   0  0  0  0  0  0  0  0  0  0  0  0
    3.6356    3.3441   -1.8983 H   0  0  0  0  0  0  0  0  0  0  0  0
    3.2308    3.9390   -0.2527 H   0  0  0  0  0  0  0  0  0  0  0  0
    2.4302    4.6532   -1.6709 H   0  0  0  0  0  0  0  0  0  0  0  0
    0.6318    3.2047   -0.1423 C   0  0  0  0  0  0  0  0  0  0  0  0
   -0.2710    2.5653   -0.0917 H   0  0  0  0  0  0  0  0  0  0  0  0
    0.3205    4.2388   -0.4014 H   0  0  0  0  0  0  0  0  0  0  0  0
    1.0846    3.2226    0.8698 H   0  0  0  0  0  0  0  0  0  0  0  0
    1.0176    2.6667   -2.5860 C   0  0  0  0  0  0  0  0  0  0  0  0
    1.7375    2.3057   -3.3481 H   0  0  0  0  0  0  0  0  0  0  0  0
    0.6882    3.6886   -2.8659 H   0  0  0  0  0  0  0  0  0  0  0  0
    0.1194    2.0107   -2.6459 H   0  0  0  0  0  0  0  0  0  0  0  0
    5.1998   -0.0459    1.2762 C   0  0  0  0  0  0  0  0  0  0  0  0
    5.7239    1.3555    1.6340 C   0  0  0  0  0  0  0  0  0  0  0  0
    6.6107    1.2686    2.2939 H   0  0  0  0  0  0  0  0  0  0  0  0
    4.9624    1.9530    2.1744 H   0  0  0  0  0  0  0  0  0  0  0  0
    6.0320    1.9232    0.7327 H   0  0  0  0  0  0  0  0  0  0  0  0
    6.3322   -0.8246    0.5705 C   0  0  0  0  0  0  0  0  0  0  0  0
    7.2265   -0.8884    1.2248 H   0  0  0  0  0  0  0  0  0  0  0  0
    6.0267   -1.8597    0.3192 H   0  0  0  0  0  0  0  0  0  0  0  0
    3.3611   -1.1753   -0.0777 C   0  0  0  0  0  0  0  0  0  0  0  0
    2.1604   -1.2093   -0.8057 C   0  0  0  0  0  0  0  0  0  0  0  0
    1.6374   -2.6064   -1.2485 C   0  0  0  0  0  0  0  0  0  0  0  0
    2.7959   -3.6261   -1.3595 C   0  0  0  0  0  0  0  0  0  0  0  0
    3.6150   -3.2494   -2.0048 H   0  0  0  0  0  0  0  0  0  0  0  0
    3.2258   -3.8946   -0.3745 H   0  0  0  0  0  0  0  0  0  0  0  0
    2.4117   -4.5655   -1.8057 H   0  0  0  0  0  0  0  0  0  0  0  0
    0.6288   -3.1613   -0.2154 C   0  0  0  0  0  0  0  0  0  0  0  0
   -0.2681   -2.5169   -0.1321 H   0  0  0  0  0  0  0  0  0  0  0  0
    0.3075   -4.1842   -0.5051 H   0  0  0  0  0  0  0  0  0  0  0  0
    1.0941   -3.2158    0.7897 H   0  0  0  0  0  0  0  0  0  0  0  0
    0.9897   -2.5533   -2.6457 C   0  0  0  0  0  0  0  0  0  0  0  0
    1.6998   -2.1665   -3.4044 H   0  0  0  0  0  0  0  0  0  0  0  0
    0.6603   -3.5672   -2.9533 H   0  0  0  0  0  0  0  0  0  0  0  0
    0.0889   -1.8988   -2.6755 H   0  0  0  0  0  0  0  0  0  0  0  0
    3.8480   -2.1259    0.1728 H   0  0  0  0  0  0  0  0  0  0  0  0
    4.8071   -0.7705    2.5850 C   0  0  0  0  0  0  0  0  0  0  0  0
    5.6686   -0.8114    3.2841 H   0  0  0  0  0  0  0  0  0  0  0  0
    3.9693   -0.2461    3.0872 H   0  0  0  0  0  0  0  0  0  0  0  0
    4.4780   -1.8106    2.3900 H   0  0  0  0  0  0  0  0  0  0  0  0
    6.6295   -0.3225   -0.3724 H   0  0  0  0  0  0  0  0  0  0  0  0
  1  2  1  0  0  0  0
  2 29  2  0  0  0  0
  2  3  1  0  0  0  0
  3  4  2  0  0  0  0
  4  5  1  0  0  0  0
  4  6  1  0  0  0  0
  6 20  1  0  0  0  0
  7  3  1  0  0  0  0
  7 12  1  0  0  0  0
  8  7  1  0  0  0  0
  8 10  1  0  0  0  0
  9  8  1  0  0  0  0
 11  8  1  0  0  0  0
 12 13  1  0  0  0  0
 12 15  1  0  0  0  0
 14 12  1  0  0  0  0
 16  7  1  0  0  0  0
 17 16  1  0  0  0  0
 18 16  1  0  0  0  0
 19 16  1  0  0  0  0
 20 21  1  0  0  0  0
 20 44  1  0  0  0  0
 21 23  1  0  0  0  0
 21 22  1  0  0  0  0
 24 21  1  0  0  0  0
 25 26  1  0  0  0  0
 25 20  1  0  0  0  0
 27 25  1  0  0  0  0
 28 43  1  0  0  0  0
 28  6  2  0  0  0  0
 29 28  1  0  0  0  0
 30 29  1  0  0  0  0
 30 35  1  0  0  0  0
 31 30  1  0  0  0  0
 31 33  1  0  0  0  0
 32 31  1  0  0  0  0
 34 31  1  0  0  0  0
 35 36  1  0  0  0  0
 35 38  1  0  0  0  0
 37 35  1  0  0  0  0
 39 30  1  0  0  0  0
 40 39  1  0  0  0  0
 41 39  1  0  0  0  0
 42 39  1  0  0  0  0
 44 46  1  0  0  0  0
 44 45  1  0  0  0  0
 47 44  1  0  0  0  0
 48 25  1  0  0  0  0
M  END
