1
 OpenBabel05122313063D

 29 29  0  0  0  0  0  0  0  0999 V2000
    1.6304   -0.9898   -0.0244 P   0  0  1  0  0  0  0  0  0  0  0  0
    2.2811   -2.4011   -1.0178 C   0  0  0  0  0  0  0  0  0  0  0  0
    3.3827   -2.4560   -0.9242 H   0  0  0  0  0  0  0  0  0  0  0  0
    2.0028   -2.2235   -2.0727 H   0  0  0  0  0  0  0  0  0  0  0  0
    1.7895   -3.3388   -0.7030 H   0  0  0  0  0  0  0  0  0  0  0  0
    2.1083   -1.4125    1.7645 C   0  0  0  0  0  0  0  0  0  0  0  0
    1.1123   -2.5064    2.2025 C   0  0  0  0  0  0  0  0  0  0  0  0
    1.3425   -2.8080    3.2461 H   0  0  0  0  0  0  0  0  0  0  0  0
    1.1650   -3.4094    1.5634 H   0  0  0  0  0  0  0  0  0  0  0  0
    0.0693   -2.1357    2.1629 H   0  0  0  0  0  0  0  0  0  0  0  0
    3.5392   -1.9677    1.8778 C   0  0  0  0  0  0  0  0  0  0  0  0
    3.7601   -2.1771    2.9459 H   0  0  0  0  0  0  0  0  0  0  0  0
    4.3143   -1.2686    1.5102 H   0  0  0  0  0  0  0  0  0  0  0  0
    3.6536   -2.9215    1.3273 H   0  0  0  0  0  0  0  0  0  0  0  0
    1.9088   -0.1772    2.6583 C   0  0  0  0  0  0  0  0  0  0  0  0
    2.0954   -0.4607    3.7157 H   0  0  0  0  0  0  0  0  0  0  0  0
    0.8736    0.2075    2.5782 H   0  0  0  0  0  0  0  0  0  0  0  0
    2.5918    0.6568    2.4068 H   0  0  0  0  0  0  0  0  0  0  0  0
    2.7012    0.3520   -0.7112 C   0  0  0  0  0  0  0  0  0  0  0  0
    2.3309    0.7982   -2.0003 C   0  0  0  0  0  0  0  0  0  0  0  0
    1.4334    0.3736   -2.4794 H   0  0  0  0  0  0  0  0  0  0  0  0
    3.0685    1.7936   -2.6530 C   0  0  0  0  0  0  0  0  0  0  0  0
    2.7624    2.1306   -3.6550 H   0  0  0  0  0  0  0  0  0  0  0  0
    4.1840    2.3706   -2.0234 C   0  0  0  0  0  0  0  0  0  0  0  0
    4.7583    3.1610   -2.5299 H   0  0  0  0  0  0  0  0  0  0  0  0
    4.5570    1.9390   -0.7425 C   0  0  0  0  0  0  0  0  0  0  0  0
    5.4259    2.3892   -0.2387 H   0  0  0  0  0  0  0  0  0  0  0  0
    3.8247    0.9327   -0.0906 C   0  0  0  0  0  0  0  0  0  0  0  0
    4.1321    0.6195    0.9154 H   0  0  0  0  0  0  0  0  0  0  0  0
  1  2  1  6  0  0  0
  1  6  1  0  0  0  0
  2  3  1  0  0  0  0
  2  5  1  0  0  0  0
  4  2  1  0  0  0  0
  6 11  1  0  0  0  0
  6  7  1  0  0  0  0
  6 15  1  0  0  0  0
  7  8  1  0  0  0  0
  9  7  1  0  0  0  0
 10  7  1  0  0  0  0
 11 12  1  0  0  0  0
 13 11  1  0  0  0  0
 14 11  1  0  0  0  0
 15 16  1  0  0  0  0
 17 15  1  0  0  0  0
 18 15  1  0  0  0  0
 19 28  1  0  0  0  0
 19  1  1  0  0  0  0
 20 19  2  0  0  0  0
 21 20  1  0  0  0  0
 22 24  2  0  0  0  0
 22 20  1  0  0  0  0
 23 22  1  0  0  0  0
 24 26  1  0  0  0  0
 25 24  1  0  0  0  0
 26 27  1  0  0  0  0
 26 28  2  0  0  0  0
 28 29  1  0  0  0  0
M  END
