1
 OpenBabel05122313063D

 19 19  0  0  0  0  0  0  0  0999 V2000
   -1.7649   -1.6359   -1.3926 P   0  0  0  0  0  2  0  0  0  0  0  0
   -3.1568   -1.2531   -0.2487 C   0  0  0  0  0  0  0  0  0  0  0  0
   -4.4302   -0.7466   -0.6568 C   0  0  0  0  0  0  0  0  0  0  0  0
   -5.3916   -0.4283    0.3242 C   0  0  0  0  0  0  0  0  0  0  0  0
   -6.3641   -0.0250   -0.0021 H   0  0  0  0  0  0  0  0  0  0  0  0
   -5.1468   -0.6337    1.6883 C   0  0  0  0  0  0  0  0  0  0  0  0
   -5.9126   -0.3801    2.4367 H   0  0  0  0  0  0  0  0  0  0  0  0
   -3.9287   -1.2095    2.0806 C   0  0  0  0  0  0  0  0  0  0  0  0
   -3.7391   -1.4288    3.1440 H   0  0  0  0  0  0  0  0  0  0  0  0
   -2.9390   -1.5335    1.1374 C   0  0  0  0  0  0  0  0  0  0  0  0
   -1.6649   -2.2014    1.5806 C   0  0  0  0  0  0  0  0  0  0  0  0
   -1.6661   -2.4013    2.6692 H   0  0  0  0  0  0  0  0  0  0  0  0
   -0.7703   -1.5803    1.3646 H   0  0  0  0  0  0  0  0  0  0  0  0
   -1.5115   -3.1609    1.0404 H   0  0  0  0  0  0  0  0  0  0  0  0
   -4.7907   -0.5760   -2.1118 C   0  0  0  0  0  0  0  0  0  0  0  0
   -4.6430   -1.5220   -2.6740 H   0  0  0  0  0  0  0  0  0  0  0  0
   -4.1628    0.1842   -2.6264 H   0  0  0  0  0  0  0  0  0  0  0  0
   -5.8478   -0.2663   -2.2251 H   0  0  0  0  0  0  0  0  0  0  0  0
   -2.2980   -1.0704   -2.6021 H   0  0  0  0  0  0  0  0  0  0  0  0
  1  2  1  0  0  0  0
  2 10  1  0  0  0  0
  3  2  2  0  0  0  0
  3  4  1  0  0  0  0
  4  6  2  0  0  0  0
  5  4  1  0  0  0  0
  6  8  1  0  0  0  0
  6  7  1  0  0  0  0
  8  9  1  0  0  0  0
 10 11  1  0  0  0  0
 10  8  2  0  0  0  0
 11 12  1  0  0  0  0
 13 11  1  0  0  0  0
 14 11  1  0  0  0  0
 15  3  1  0  0  0  0
 16 15  1  0  0  0  0
 17 15  1  0  0  0  0
 18 15  1  0  0  0  0
 19  1  1  0  0  0  0
M  END
