4
 OpenBabel05122313063D

 31 30  0  0  0  0  0  0  0  0999 V2000
   -1.1339    2.5570    0.0030 I   0  0  0  0  0  0  0  0  0  0  0  0
   -3.1875   -1.2547   -1.1370 Si  0  0  0  0  0  0  0  0  0  0  0  0
   -2.2375   -0.6081    1.9289 Si  0  0  0  0  0  0  0  0  0  0  0  0
   -0.3569    0.2121   -0.4925 P   0  0  2  0  0  0  0  0  0  0  0  0
   -0.5101    0.3550   -2.6154 Cl  0  0  0  0  0  0  0  0  0  0  0  0
   -1.7028   -0.8889    0.0664 C   0  0  0  0  0  0  0  0  0  0  0  0
   -2.5727   -2.3658   -2.5394 C   0  0  0  0  0  0  0  0  0  0  0  0
   -3.4308   -2.6453   -3.1859 H   0  0  0  0  0  0  0  0  0  0  0  0
   -2.1511   -3.3047   -2.1237 H   0  0  0  0  0  0  0  0  0  0  0  0
   -1.8003   -1.8903   -3.1703 H   0  0  0  0  0  0  0  0  0  0  0  0
   -3.9747    0.3449   -1.7496 C   0  0  0  0  0  0  0  0  0  0  0  0
   -3.2562    0.9632   -2.3207 H   0  0  0  0  0  0  0  0  0  0  0  0
   -4.3611    0.9528   -0.9078 H   0  0  0  0  0  0  0  0  0  0  0  0
   -4.8275    0.0996   -2.4162 H   0  0  0  0  0  0  0  0  0  0  0  0
   -4.5060   -2.3012   -0.2612 C   0  0  0  0  0  0  0  0  0  0  0  0
   -4.9700   -1.8241    0.6223 H   0  0  0  0  0  0  0  0  0  0  0  0
   -4.1037   -3.2879    0.0446 H   0  0  0  0  0  0  0  0  0  0  0  0
   -5.3125   -2.4914   -1.0004 H   0  0  0  0  0  0  0  0  0  0  0  0
   -2.5358   -2.3358    2.6380 C   0  0  0  0  0  0  0  0  0  0  0  0
   -2.8371   -2.2405    3.7019 H   0  0  0  0  0  0  0  0  0  0  0  0
   -1.5959   -2.9241    2.6084 H   0  0  0  0  0  0  0  0  0  0  0  0
   -3.3243   -2.9035    2.1105 H   0  0  0  0  0  0  0  0  0  0  0  0
   -3.7840    0.4741    2.0356 C   0  0  0  0  0  0  0  0  0  0  0  0
   -4.6518    0.0621    1.4869 H   0  0  0  0  0  0  0  0  0  0  0  0
   -3.5791    1.4914    1.6481 H   0  0  0  0  0  0  0  0  0  0  0  0
   -4.0721    0.5694    3.1032 H   0  0  0  0  0  0  0  0  0  0  0  0
   -0.9140    0.1865    3.0201 C   0  0  0  0  0  0  0  0  0  0  0  0
   -0.6358    1.2100    2.7068 H   0  0  0  0  0  0  0  0  0  0  0  0
    0.0040   -0.4259    3.0919 H   0  0  0  0  0  0  0  0  0  0  0  0
   -1.3456    0.2564    4.0413 H   0  0  0  0  0  0  0  0  0  0  0  0
   -1.1481   -1.8571    0.1138 H   0  0  0  0  0  0  0  0  0  0  0  0
  2 15  1  0  0  0  0
  2  6  1  0  0  0  0
  3 23  1  0  0  0  0
  3 19  1  0  0  0  0
  3 27  1  0  0  0  0
  4  5  1  6  0  0  0
  4  1  1  0  0  0  0
  4  6  1  0  0  0  0
  6 31  1  0  0  0  0
  6  3  1  0  0  0  0
  7  9  1  0  0  0  0
  7  2  1  0  0  0  0
  8  7  1  0  0  0  0
 10  7  1  0  0  0  0
 11  2  1  0  0  0  0
 11 13  1  0  0  0  0
 12 11  1  0  0  0  0
 14 11  1  0  0  0  0
 15 17  1  0  0  0  0
 15 16  1  0  0  0  0
 18 15  1  0  0  0  0
 19 20  1  0  0  0  0
 21 19  1  0  0  0  0
 22 19  1  0  0  0  0
 23 26  1  0  0  0  0
 24 23  1  0  0  0  0
 25 23  1  0  0  0  0
 27 29  1  0  0  0  0
 27 30  1  0  0  0  0
 28 27  1  0  0  0  0
M  END
