2
 OpenBabel05122313063D

 55 56  0  0  0  0  0  0  0  0999 V2000
   -1.2592    0.8975    2.8163 I   0  0  0  0  0  0  0  0  0  0  0  0
    0.1256    0.2160   -0.0357 P   0  0  0  0  0  0  0  0  0  0  0  0
    2.0446    1.3225    2.2537 Si  0  0  0  0  0  0  0  0  0  0  0  0
   -0.1186    3.3069    0.8094 Si  0  0  0  0  0  0  0  0  0  0  0  0
    0.3082    1.4751    1.3517 C   0  0  0  0  0  0  0  0  0  0  0  0
    2.6673   -0.4559    2.3034 C   0  0  0  0  0  0  0  0  0  0  0  0
    3.6177   -0.4578    2.8778 H   0  0  0  0  0  0  0  0  0  0  0  0
    2.8828   -0.8655    1.2994 H   0  0  0  0  0  0  0  0  0  0  0  0
    1.9613   -1.1310    2.8218 H   0  0  0  0  0  0  0  0  0  0  0  0
    1.9183    1.9205    4.0428 C   0  0  0  0  0  0  0  0  0  0  0  0
    1.3291    1.2155    4.6609 H   0  0  0  0  0  0  0  0  0  0  0  0
    1.4723    2.9269    4.1445 H   0  0  0  0  0  0  0  0  0  0  0  0
    2.9488    1.9589    4.4553 H   0  0  0  0  0  0  0  0  0  0  0  0
    3.3525    2.3685    1.3644 C   0  0  0  0  0  0  0  0  0  0  0  0
    4.3070    2.2399    1.9169 H   0  0  0  0  0  0  0  0  0  0  0  0
    3.1180    3.4500    1.3527 H   0  0  0  0  0  0  0  0  0  0  0  0
    3.5156    2.0310    0.3240 H   0  0  0  0  0  0  0  0  0  0  0  0
    0.7722    3.7012   -0.8138 C   0  0  0  0  0  0  0  0  0  0  0  0
    0.3899    3.0796   -1.6467 H   0  0  0  0  0  0  0  0  0  0  0  0
    1.8660    3.5517   -0.7433 H   0  0  0  0  0  0  0  0  0  0  0  0
    0.5813    4.7663   -1.0626 H   0  0  0  0  0  0  0  0  0  0  0  0
   -1.9738    3.6190    0.6165 C   0  0  0  0  0  0  0  0  0  0  0  0
   -2.1001    4.5825    0.0785 H   0  0  0  0  0  0  0  0  0  0  0  0
   -2.4589    3.7147    1.6077 H   0  0  0  0  0  0  0  0  0  0  0  0
   -2.4993    2.8345    0.0442 H   0  0  0  0  0  0  0  0  0  0  0  0
    0.4435    4.5212    2.1509 C   0  0  0  0  0  0  0  0  0  0  0  0
    0.1356    5.5383    1.8291 H   0  0  0  0  0  0  0  0  0  0  0  0
    1.5353    4.5399    2.3279 H   0  0  0  0  0  0  0  0  0  0  0  0
   -0.0666    4.3087    3.1118 H   0  0  0  0  0  0  0  0  0  0  0  0
   -1.1339    0.8503   -1.1010 C   0  0  0  0  0  0  0  0  0  0  0  0
   -2.0928    1.0708   -1.8455 C   0  0  0  0  0  0  0  0  0  0  0  0
   -3.2282    1.3359   -2.6613 C   0  0  0  0  0  0  0  0  0  0  0  0
   -3.1366    2.2032   -3.7793 C   0  0  0  0  0  0  0  0  0  0  0  0
   -2.1703    2.6709   -4.0170 H   0  0  0  0  0  0  0  0  0  0  0  0
   -4.2656    2.4532   -4.5668 C   0  0  0  0  0  0  0  0  0  0  0  0
   -4.1866    3.1251   -5.4347 H   0  0  0  0  0  0  0  0  0  0  0  0
   -5.4959    1.8515   -4.2522 C   0  0  0  0  0  0  0  0  0  0  0  0
   -6.3813    2.0524   -4.8742 H   0  0  0  0  0  0  0  0  0  0  0  0
   -5.5954    0.9930   -3.1444 C   0  0  0  0  0  0  0  0  0  0  0  0
   -6.5580    0.5207   -2.8972 H   0  0  0  0  0  0  0  0  0  0  0  0
   -4.4735    0.7299   -2.3508 C   0  0  0  0  0  0  0  0  0  0  0  0
   -4.5390    0.0572   -1.4835 H   0  0  0  0  0  0  0  0  0  0  0  0
    1.5873    0.4652   -0.9922 C   0  0  0  0  0  0  0  0  0  0  0  0
    2.6464    0.4547   -1.6244 C   0  0  0  0  0  0  0  0  0  0  0  0
    3.8866    0.4662   -2.3233 C   0  0  0  0  0  0  0  0  0  0  0  0
    4.3261    1.6395   -2.9880 C   0  0  0  0  0  0  0  0  0  0  0  0
    3.6905    2.5369   -2.9658 H   0  0  0  0  0  0  0  0  0  0  0  0
    5.5527    1.6462   -3.6608 C   0  0  0  0  0  0  0  0  0  0  0  0
    5.8879    2.5596   -4.1748 H   0  0  0  0  0  0  0  0  0  0  0  0
    6.3546    0.4924   -3.6809 C   0  0  0  0  0  0  0  0  0  0  0  0
    7.3186    0.5022   -4.2117 H   0  0  0  0  0  0  0  0  0  0  0  0
    5.9264   -0.6737   -3.0238 C   0  0  0  0  0  0  0  0  0  0  0  0
    6.5541   -1.5773   -3.0393 H   0  0  0  0  0  0  0  0  0  0  0  0
    4.7017   -0.6951   -2.3475 C   0  0  0  0  0  0  0  0  0  0  0  0
    4.3560   -1.6007   -1.8286 H   0  0  0  0  0  0  0  0  0  0  0  0
  2  5  1  0  0  0  0
  3  6  1  0  0  0  0
  3 10  1  0  0  0  0
  4  5  1  0  0  0  0
  4 26  1  0  0  0  0
  5  3  1  0  0  0  0
  5  1  1  0  0  0  0
  6  9  1  0  0  0  0
  6  7  1  0  0  0  0
  8  6  1  0  0  0  0
 10 12  1  0  0  0  0
 10 13  1  0  0  0  0
 10 11  1  0  0  0  0
 14 15  1  0  0  0  0
 14  3  1  0  0  0  0
 16 14  1  0  0  0  0
 17 14  1  0  0  0  0
 18 20  1  0  0  0  0
 18  4  1  0  0  0  0
 19 18  1  0  0  0  0
 21 18  1  0  0  0  0
 22  4  1  0  0  0  0
 22 24  1  0  0  0  0
 23 22  1  0  0  0  0
 25 22  1  0  0  0  0
 26 28  1  0  0  0  0
 26 29  1  0  0  0  0
 27 26  1  0  0  0  0
 30  2  1  0  0  0  0
 31 30  3  0  0  0  0
 32 41  1  0  0  0  0
 32 31  1  0  0  0  0
 33 32  2  0  0  0  0
 34 33  1  0  0  0  0
 35 37  2  0  0  0  0
 35 33  1  0  0  0  0
 36 35  1  0  0  0  0
 37 39  1  0  0  0  0
 38 37  1  0  0  0  0
 39 40  1  0  0  0  0
 39 41  2  0  0  0  0
 41 42  1  0  0  0  0
 43  2  1  0  0  0  0
 44 43  3  0  0  0  0
 45 44  1  0  0  0  0
 46 47  1  0  0  0  0
 46 45  2  0  0  0  0
 48 46  1  0  0  0  0
 49 48  1  0  0  0  0
 50 48  2  0  0  0  0
 50 52  1  0  0  0  0
 51 50  1  0  0  0  0
 52 54  2  0  0  0  0
 53 52  1  0  0  0  0
 54 45  1  0  0  0  0
 54 55  1  0  0  0  0
M  END
