31
 OpenBabel05122313063D

 31 32  0  0  1  0  0  0  0  0999 V2000
   -0.7767    0.5732   -1.9926 C   0  0  0  0  0  0  0  0  0  0  0  0
   -1.8787    0.4895   -2.0323 H   0  0  0  0  0  0  0  0  0  0  0  0
   -0.3197   -0.0839   -2.7592 H   0  0  0  0  0  0  0  0  0  0  0  0
   -0.4741    1.6202   -2.1832 H   0  0  0  0  0  0  0  0  0  0  0  0
   -0.8721   -1.7047   -0.2345 C   0  0  0  0  0  0  0  0  0  0  0  0
   -1.9238   -1.7989    0.9122 C   0  0  1  0  0  0  0  0  0  0  0  0
   -2.3191   -2.8285    0.9553 H   0  0  0  0  0  0  0  0  0  0  0  0
   -1.2105   -1.3421    2.1669 C   0  0  0  0  0  0  0  0  0  0  0  0
   -0.9671   -2.0664    2.9565 H   0  0  0  0  0  0  0  0  0  0  0  0
   -0.8486   -0.0437    2.2022 C   0  0  0  0  0  0  0  0  0  0  0  0
   -0.2892    0.4137    3.0303 H   0  0  0  0  0  0  0  0  0  0  0  0
   -1.2079    0.7866    0.9858 C   0  0  2  0  0  0  0  0  0  0  0  0
   -0.9898    1.8639    1.0897 H   0  0  0  0  0  0  0  0  0  0  0  0
   -2.6397    0.5090    0.5804 C   0  0  0  0  0  0  0  0  0  0  0  0
   -3.4653    1.6826    0.1741 C   0  0  0  0  0  0  0  0  0  0  0  0
   -5.5590    2.7400    0.3082 C   0  0  0  0  0  0  0  0  0  0  0  0
   -5.0734    3.7240    0.4603 H   0  0  0  0  0  0  0  0  0  0  0  0
   -6.4700    2.6527    0.9255 H   0  0  0  0  0  0  0  0  0  0  0  0
   -5.8092    2.6351   -0.7672 H   0  0  0  0  0  0  0  0  0  0  0  0
   -2.9988   -0.8038    0.5094 C   0  0  0  0  0  0  0  0  0  0  0  0
   -4.2818   -1.3597   -0.0014 C   0  0  0  0  0  0  0  0  0  0  0  0
   -6.0885   -1.0269   -1.4769 C   0  0  0  0  0  0  0  0  0  0  0  0
   -6.0165   -2.0694   -1.8453 H   0  0  0  0  0  0  0  0  0  0  0  0
   -6.3467   -0.3389   -2.3010 H   0  0  0  0  0  0  0  0  0  0  0  0
   -6.8628   -0.9895   -0.6840 H   0  0  0  0  0  0  0  0  0  0  0  0
   -0.5767   -2.6139   -0.9745 O   0  0  0  0  0  0  0  0  0  0  0  0
   -3.0325    2.5671   -0.5471 O   0  0  0  0  0  0  0  0  0  0  0  0
   -4.6943    1.6729    0.7230 O   0  0  0  0  0  0  0  0  0  0  0  0
   -4.7577   -2.4186    0.3678 O   0  0  0  0  0  0  0  0  0  0  0  0
   -4.8249   -0.5798   -0.9682 O   0  0  0  0  0  0  0  0  0  0  0  0
   -0.0949    0.0405   -0.3671 P   0  0  2  0  0  0  0  0  0  0  0  0
  2  1  1  0  0  0  0
  3  1  1  0  0  0  0
  4  1  1  0  0  0  0
  5  6  1  0  0  0  0
  6  7  1  1  0  0  0
  6  8  1  0  0  0  0
  8 10  2  0  0  0  0
  8  9  1  0  0  0  0
 10 11  1  0  0  0  0
 12 13  1  1  0  0  0
 12 10  1  0  0  0  0
 14 12  1  0  0  0  0
 15 14  1  0  0  0  0
 15 28  1  0  0  0  0
 16 17  1  0  0  0  0
 16 28  1  0  0  0  0
 16 18  1  0  0  0  0
 19 16  1  0  0  0  0
 20 14  2  0  0  0  0
 20  6  1  0  0  0  0
 21 29  2  0  0  0  0
 21 20  1  0  0  0  0
 22 30  1  0  0  0  0
 22 25  1  0  0  0  0
 23 22  1  0  0  0  0
 24 22  1  0  0  0  0
 26  5  2  0  0  0  0
 27 15  2  0  0  0  0
 30 21  1  0  0  0  0
 31  1  1  6  0  0  0
 31  5  1  0  0  0  0
 31 12  1  0  0  0  0
M  END
