1
 OpenBabel05122313063D

 45 46  0  0  0  0  0  0  0  0999 V2000
   -0.2850   -0.0685    0.0403 P   0  0  2  0  0  0  0  0  0  0  0  0
   -0.0864    2.7335    1.5266 Si  0  0  0  0  0  0  0  0  0  0  0  0
   -1.1692    2.4795   -1.5654 Si  0  0  0  0  0  0  0  0  0  0  0  0
    1.6136   -0.5413    2.2375 O   0  0  0  0  0  0  0  0  0  0  0  0
    1.3458   -0.3606    1.0730 C   0  0  0  0  0  0  0  0  0  0  0  0
    2.1605   -0.3650   -0.1894 C   0  0  0  0  0  0  0  0  0  0  0  0
    1.1657   -0.0968   -1.0997 C   0  0  0  0  0  0  0  0  0  0  0  0
    1.2343   -0.0233   -2.1938 H   0  0  0  0  0  0  0  0  0  0  0  0
   -0.9250    1.6559    0.1636 C   0  0  0  0  0  0  0  0  0  0  0  0
   -1.9652    1.5254    0.5374 H   0  0  0  0  0  0  0  0  0  0  0  0
   -0.4438    1.9276    3.1966 C   0  0  0  0  0  0  0  0  0  0  0  0
   -0.0469    2.5617    4.0166 H   0  0  0  0  0  0  0  0  0  0  0  0
    0.0270    0.9284    3.2828 H   0  0  0  0  0  0  0  0  0  0  0  0
   -1.5350    1.8099    3.3576 H   0  0  0  0  0  0  0  0  0  0  0  0
    1.7800    2.9303    1.2721 C   0  0  0  0  0  0  0  0  0  0  0  0
    2.0332    3.2688    0.2490 H   0  0  0  0  0  0  0  0  0  0  0  0
    2.3475    2.0036    1.4812 H   0  0  0  0  0  0  0  0  0  0  0  0
    2.1459    3.7010    1.9825 H   0  0  0  0  0  0  0  0  0  0  0  0
   -0.8678    4.4598    1.5203 C   0  0  0  0  0  0  0  0  0  0  0  0
   -1.9697    4.4122    1.6339 H   0  0  0  0  0  0  0  0  0  0  0  0
   -0.6379    5.0326    0.5999 H   0  0  0  0  0  0  0  0  0  0  0  0
   -0.4668    5.0345    2.3811 H   0  0  0  0  0  0  0  0  0  0  0  0
   -1.5839    1.2208   -2.9190 C   0  0  0  0  0  0  0  0  0  0  0  0
   -2.5383    0.7003   -2.7085 H   0  0  0  0  0  0  0  0  0  0  0  0
   -0.8099    0.4499   -3.0942 H   0  0  0  0  0  0  0  0  0  0  0  0
   -1.7145    1.7774   -3.8710 H   0  0  0  0  0  0  0  0  0  0  0  0
   -2.6589    3.6372   -1.4488 C   0  0  0  0  0  0  0  0  0  0  0  0
   -2.5161    4.4614   -0.7250 H   0  0  0  0  0  0  0  0  0  0  0  0
   -3.5587    3.0610   -1.1494 H   0  0  0  0  0  0  0  0  0  0  0  0
   -2.8623    4.0849   -2.4436 H   0  0  0  0  0  0  0  0  0  0  0  0
    0.3911    3.4186   -2.0834 C   0  0  0  0  0  0  0  0  0  0  0  0
    0.2575    3.8316   -3.1045 H   0  0  0  0  0  0  0  0  0  0  0  0
    1.2795    2.7549   -2.1002 H   0  0  0  0  0  0  0  0  0  0  0  0
    0.6133    4.2651   -1.4036 H   0  0  0  0  0  0  0  0  0  0  0  0
    3.5937   -0.6177   -0.3352 C   0  0  0  0  0  0  0  0  0  0  0  0
    4.2206   -0.5560   -1.6029 C   0  0  0  0  0  0  0  0  0  0  0  0
    3.6227   -0.3226   -2.4968 H   0  0  0  0  0  0  0  0  0  0  0  0
    5.5934   -0.7888   -1.7275 C   0  0  0  0  0  0  0  0  0  0  0  0
    6.0693   -0.7386   -2.7184 H   0  0  0  0  0  0  0  0  0  0  0  0
    6.3645   -1.0881   -0.5898 C   0  0  0  0  0  0  0  0  0  0  0  0
    7.4448   -1.2724   -0.6904 H   0  0  0  0  0  0  0  0  0  0  0  0
    5.7536   -1.1522    0.6721 C   0  0  0  0  0  0  0  0  0  0  0  0
    6.3535   -1.3880    1.5639 H   0  0  0  0  0  0  0  0  0  0  0  0
    4.3784   -0.9190    0.8042 C   0  0  0  0  0  0  0  0  0  0  0  0
    3.8915   -0.9699    1.7882 H   0  0  0  0  0  0  0  0  0  0  0  0
  1  9  1  1  0  0  0
  1  5  1  0  0  0  0
  2 11  1  0  0  0  0
  3 27  1  0  0  0  0
  3  9  1  0  0  0  0
  5  4  2  0  0  0  0
  6  5  1  0  0  0  0
  7  6  2  0  0  0  0
  7  1  1  0  0  0  0
  8  7  1  0  0  0  0
  9 10  1  0  0  0  0
  9  2  1  0  0  0  0
 11 13  1  0  0  0  0
 11 14  1  0  0  0  0
 11 12  1  0  0  0  0
 15 17  1  0  0  0  0
 15  2  1  0  0  0  0
 15 18  1  0  0  0  0
 16 15  1  0  0  0  0
 19  2  1  0  0  0  0
 19 20  1  0  0  0  0
 19 22  1  0  0  0  0
 21 19  1  0  0  0  0
 23 24  1  0  0  0  0
 23  3  1  0  0  0  0
 25 23  1  0  0  0  0
 26 23  1  0  0  0  0
 27 29  1  0  0  0  0
 27 28  1  0  0  0  0
 30 27  1  0  0  0  0
 31  3  1  0  0  0  0
 31 34  1  0  0  0  0
 32 31  1  0  0  0  0
 33 31  1  0  0  0  0
 35  6  1  0  0  0  0
 35 44  1  0  0  0  0
 36 35  2  0  0  0  0
 37 36  1  0  0  0  0
 38 36  1  0  0  0  0
 38 40  2  0  0  0  0
 39 38  1  0  0  0  0
 40 42  1  0  0  0  0
 41 40  1  0  0  0  0
 42 44  2  0  0  0  0
 42 43  1  0  0  0  0
 44 45  1  0  0  0  0
M  END
