1
 OpenBabel05122313063D

 77 77  0  0  0  0  0  0  0  0999 V2000
    1.1718    0.0902    0.3215 P   0  0  0  0  0  2  0  0  0  0  0  0
    0.6540    0.6508   -1.5952 P   0  0  0  0  0  2  0  0  0  0  0  0
    3.0186    0.0541    0.4044 C   0  0  0  0  0  0  0  0  0  0  0  0
    3.2166   -0.0332    1.4979 H   0  0  0  0  0  0  0  0  0  0  0  0
    3.6895   -1.6177   -0.2943 Si  0  0  0  0  0  0  0  0  0  0  0  0
    3.4107   -1.7854   -2.1553 C   0  0  0  0  0  0  0  0  0  0  0  0
    2.3620   -1.5775   -2.4423 H   0  0  0  0  0  0  0  0  0  0  0  0
    3.6475   -2.8249   -2.4640 H   0  0  0  0  0  0  0  0  0  0  0  0
    4.0622   -1.1004   -2.7312 H   0  0  0  0  0  0  0  0  0  0  0  0
    5.5482   -1.7445    0.0502 C   0  0  0  0  0  0  0  0  0  0  0  0
    5.7823   -1.5783    1.1212 H   0  0  0  0  0  0  0  0  0  0  0  0
    6.1331   -1.0197   -0.5508 H   0  0  0  0  0  0  0  0  0  0  0  0
    5.8986   -2.7629   -0.2188 H   0  0  0  0  0  0  0  0  0  0  0  0
    2.8207   -3.0259    0.6243 C   0  0  0  0  0  0  0  0  0  0  0  0
    3.0632   -2.9994    1.7061 H   0  0  0  0  0  0  0  0  0  0  0  0
    3.1497   -4.0068    0.2233 H   0  0  0  0  0  0  0  0  0  0  0  0
    1.7184   -2.9662    0.5281 H   0  0  0  0  0  0  0  0  0  0  0  0
    3.9563    1.6534   -0.1128 Si  0  0  0  0  0  0  0  0  0  0  0  0
    2.9393    3.1907    0.3096 C   0  0  0  0  0  0  0  0  0  0  0  0
    2.0691    3.3096   -0.3635 H   0  0  0  0  0  0  0  0  0  0  0  0
    3.5766    4.0937    0.2070 H   0  0  0  0  0  0  0  0  0  0  0  0
    2.5615    3.1568    1.3520 H   0  0  0  0  0  0  0  0  0  0  0  0
    4.3625    1.6739   -1.9586 C   0  0  0  0  0  0  0  0  0  0  0  0
    3.4487    1.5123   -2.5660 H   0  0  0  0  0  0  0  0  0  0  0  0
    5.1032    0.8952   -2.2302 H   0  0  0  0  0  0  0  0  0  0  0  0
    4.7906    2.6593   -2.2364 H   0  0  0  0  0  0  0  0  0  0  0  0
    5.5502    1.7374    0.9096 C   0  0  0  0  0  0  0  0  0  0  0  0
    6.2382    0.8947    0.7057 H   0  0  0  0  0  0  0  0  0  0  0  0
    5.3228    1.7382    1.9958 H   0  0  0  0  0  0  0  0  0  0  0  0
    6.0897    2.6800    0.6808 H   0  0  0  0  0  0  0  0  0  0  0  0
   -1.1973    0.4959   -1.3874 C   0  0  0  0  0  0  0  0  0  0  0  0
   -1.9532    1.5678   -0.8060 C   0  0  0  0  0  0  0  0  0  0  0  0
   -3.1927    1.2511   -0.2230 C   0  0  0  0  0  0  0  0  0  0  0  0
   -3.7459    2.0474    0.2912 H   0  0  0  0  0  0  0  0  0  0  0  0
   -3.7520   -0.0361   -0.2576 C   0  0  0  0  0  0  0  0  0  0  0  0
   -3.0932   -0.9903   -1.0437 C   0  0  0  0  0  0  0  0  0  0  0  0
   -3.5619   -1.9692   -1.1827 H   0  0  0  0  0  0  0  0  0  0  0  0
   -1.8371   -0.7616   -1.6385 C   0  0  0  0  0  0  0  0  0  0  0  0
   -1.5291    3.0649   -0.8121 C   0  0  0  0  0  0  0  0  0  0  0  0
   -0.6560    3.4154   -2.0339 C   0  0  0  0  0  0  0  0  0  0  0  0
   -1.1452    3.1128   -2.9818 H   0  0  0  0  0  0  0  0  0  0  0  0
    0.3427    2.9308   -2.0046 H   0  0  0  0  0  0  0  0  0  0  0  0
   -0.4782    4.5097   -2.0658 H   0  0  0  0  0  0  0  0  0  0  0  0
   -2.7803    3.9716   -0.9189 C   0  0  0  0  0  0  0  0  0  0  0  0
   -3.4094    3.6978   -1.7897 H   0  0  0  0  0  0  0  0  0  0  0  0
   -2.4576    5.0249   -1.0439 H   0  0  0  0  0  0  0  0  0  0  0  0
   -3.4136    3.9391   -0.0115 H   0  0  0  0  0  0  0  0  0  0  0  0
   -0.7881    3.4339    0.4908 C   0  0  0  0  0  0  0  0  0  0  0  0
   -1.4554    3.3247    1.3666 H   0  0  0  0  0  0  0  0  0  0  0  0
   -0.4393    4.4869    0.4531 H   0  0  0  0  0  0  0  0  0  0  0  0
    0.0915    2.7845    0.6537 H   0  0  0  0  0  0  0  0  0  0  0  0
   -5.0485   -0.3387    0.5109 C   0  0  0  0  0  0  0  0  0  0  0  0
   -5.4995   -1.7985    0.3296 C   0  0  0  0  0  0  0  0  0  0  0  0
   -4.7255   -2.5104    0.6803 H   0  0  0  0  0  0  0  0  0  0  0  0
   -5.7317   -2.0317   -0.7294 H   0  0  0  0  0  0  0  0  0  0  0  0
   -6.4194   -1.9834    0.9201 H   0  0  0  0  0  0  0  0  0  0  0  0
   -6.1775    0.5927    0.0162 C   0  0  0  0  0  0  0  0  0  0  0  0
   -5.9274    1.6615    0.1679 H   0  0  0  0  0  0  0  0  0  0  0  0
   -7.1185    0.3871    0.5675 H   0  0  0  0  0  0  0  0  0  0  0  0
   -6.3708    0.4408   -1.0651 H   0  0  0  0  0  0  0  0  0  0  0  0
   -4.7949   -0.0927    2.0162 C   0  0  0  0  0  0  0  0  0  0  0  0
   -3.9974   -0.7632    2.3950 H   0  0  0  0  0  0  0  0  0  0  0  0
   -5.7171   -0.2886    2.6015 H   0  0  0  0  0  0  0  0  0  0  0  0
   -4.4777    0.9492    2.2181 H   0  0  0  0  0  0  0  0  0  0  0  0
   -1.2606   -1.8807   -2.5542 C   0  0  0  0  0  0  0  0  0  0  0  0
   -2.3958   -2.7650   -3.1223 C   0  0  0  0  0  0  0  0  0  0  0  0
   -3.1752   -2.1600   -3.6278 H   0  0  0  0  0  0  0  0  0  0  0  0
   -2.8855   -3.3842   -2.3456 H   0  0  0  0  0  0  0  0  0  0  0  0
   -1.9695   -3.4663   -3.8675 H   0  0  0  0  0  0  0  0  0  0  0  0
   -0.5398   -1.2798   -3.7799 C   0  0  0  0  0  0  0  0  0  0  0  0
   -1.2107   -0.6021   -4.3453 H   0  0  0  0  0  0  0  0  0  0  0  0
   -0.2083   -2.0917   -4.4590 H   0  0  0  0  0  0  0  0  0  0  0  0
    0.3669   -0.7008   -3.5063 H   0  0  0  0  0  0  0  0  0  0  0  0
   -0.3046   -2.8090   -1.7732 C   0  0  0  0  0  0  0  0  0  0  0  0
    0.5354   -2.2468   -1.3284 H   0  0  0  0  0  0  0  0  0  0  0  0
    0.1174   -3.5829   -2.4476 H   0  0  0  0  0  0  0  0  0  0  0  0
   -0.8409   -3.3232   -0.9528 H   0  0  0  0  0  0  0  0  0  0  0  0
  1  3  1  0  0  0  0
  2 31  1  0  0  0  0
  2  1  1  0  0  0  0
  3  4  1  0  0  0  0
  5 10  1  0  0  0  0
  5  3  1  0  0  0  0
  5 14  1  0  0  0  0
  6  5  1  0  0  0  0
  7  6  1  0  0  0  0
  8  6  1  0  0  0  0
  9  6  1  0  0  0  0
 10 11  1  0  0  0  0
 12 10  1  0  0  0  0
 13 10  1  0  0  0  0
 14 15  1  0  0  0  0
 16 14  1  0  0  0  0
 17 14  1  0  0  0  0
 18 19  1  0  0  0  0
 18  3  1  0  0  0  0
 18 27  1  0  0  0  0
 19 22  1  0  0  0  0
 20 19  1  0  0  0  0
 21 19  1  0  0  0  0
 23 18  1  0  0  0  0
 24 23  1  0  0  0  0
 25 23  1  0  0  0  0
 26 23  1  0  0  0  0
 27 29  1  0  0  0  0
 28 27  1  0  0  0  0
 30 27  1  0  0  0  0
 31 32  1  0  0  0  0
 32 33  2  0  0  0  0
 33 34  1  0  0  0  0
 35 33  1  0  0  0  0
 35 52  1  0  0  0  0
 36 35  2  0  0  0  0
 37 36  1  0  0  0  0
 38 31  2  0  0  0  0
 38 36  1  0  0  0  0
 39 32  1  0  0  0  0
 39 48  1  0  0  0  0
 40 42  1  0  0  0  0
 40 39  1  0  0  0  0
 41 40  1  0  0  0  0
 43 40  1  0  0  0  0
 44 39  1  0  0  0  0
 44 47  1  0  0  0  0
 45 44  1  0  0  0  0
 46 44  1  0  0  0  0
 48 51  1  0  0  0  0
 48 49  1  0  0  0  0
 50 48  1  0  0  0  0
 52 61  1  0  0  0  0
 53 52  1  0  0  0  0
 53 54  1  0  0  0  0
 53 56  1  0  0  0  0
 55 53  1  0  0  0  0
 57 58  1  0  0  0  0
 57 52  1  0  0  0  0
 57 59  1  0  0  0  0
 60 57  1  0  0  0  0
 61 64  1  0  0  0  0
 61 62  1  0  0  0  0
 61 63  1  0  0  0  0
 65 74  1  0  0  0  0
 65 38  1  0  0  0  0
 66 65  1  0  0  0  0
 66 68  1  0  0  0  0
 67 66  1  0  0  0  0
 69 66  1  0  0  0  0
 70 73  1  0  0  0  0
 70 65  1  0  0  0  0
 71 70  1  0  0  0  0
 72 70  1  0  0  0  0
 74 75  1  0  0  0  0
 74 77  1  0  0  0  0
 76 74  1  0  0  0  0
M  END
