1
 OpenBabel05122313063D

 32 33  0  0  0  0  0  0  0  0999 V2000
    1.7092    0.1351    0.2710 P   0  0  0  0  0  0  0  0  0  0  0  0
    1.3286   -0.0332    1.8474 F   0  0  0  0  0  0  0  0  0  0  0  0
    0.5331    2.5909    1.1389 O   0  0  0  0  0  0  0  0  0  0  0  0
    4.1448   -0.2271    1.9433 O   0  0  0  0  0  0  0  0  0  0  0  0
    2.5323    1.7507    0.2383 C   0  0  0  0  0  0  0  0  0  0  0  0
    1.7733    2.8716    0.6679 C   0  0  0  0  0  0  0  0  0  0  0  0
    2.3220    4.1646    0.5710 C   0  0  0  0  0  0  0  0  0  0  0  0
    3.6106    4.3301    0.0385 C   0  0  0  0  0  0  0  0  0  0  0  0
    4.3557    3.2282   -0.4075 C   0  0  0  0  0  0  0  0  0  0  0  0
    3.8094    1.9401   -0.3102 C   0  0  0  0  0  0  0  0  0  0  0  0
   -0.3415    3.6428    1.5035 C   0  0  0  0  0  0  0  0  0  0  0  0
    2.9592   -1.1835    0.1371 C   0  0  0  0  0  0  0  0  0  0  0  0
    4.0417   -1.2487    1.0602 C   0  0  0  0  0  0  0  0  0  0  0  0
    4.9332   -2.3405    1.0113 C   0  0  0  0  0  0  0  0  0  0  0  0
    4.7394   -3.3593    0.0658 C   0  0  0  0  0  0  0  0  0  0  0  0
    3.6695   -3.3074   -0.8392 C   0  0  0  0  0  0  0  0  0  0  0  0
    2.7845   -2.2211   -0.7968 C   0  0  0  0  0  0  0  0  0  0  0  0
    5.2269   -0.2014    2.8549 C   0  0  0  0  0  0  0  0  0  0  0  0
    1.7477    5.0407    0.9006 H   0  0  0  0  0  0  0  0  0  0  0  0
    4.0309    5.3447   -0.0370 H   0  0  0  0  0  0  0  0  0  0  0  0
    5.3560    3.3712   -0.8408 H   0  0  0  0  0  0  0  0  0  0  0  0
    4.3665    1.0677   -0.6820 H   0  0  0  0  0  0  0  0  0  0  0  0
   -1.2833    3.1561    1.8154 H   0  0  0  0  0  0  0  0  0  0  0  0
    0.0661    4.2390    2.3498 H   0  0  0  0  0  0  0  0  0  0  0  0
   -0.5504    4.3178    0.6448 H   0  0  0  0  0  0  0  0  0  0  0  0
    5.7775   -2.4009    1.7105 H   0  0  0  0  0  0  0  0  0  0  0  0
    5.4434   -4.2054    0.0411 H   0  0  0  0  0  0  0  0  0  0  0  0
    3.5239   -4.1057   -1.5809 H   0  0  0  0  0  0  0  0  0  0  0  0
    1.9455   -2.1502   -1.5047 H   0  0  0  0  0  0  0  0  0  0  0  0
    5.1097    0.7263    3.4442 H   0  0  0  0  0  0  0  0  0  0  0  0
    5.2070   -1.0752    3.5433 H   0  0  0  0  0  0  0  0  0  0  0  0
    6.2073   -0.1776    2.3296 H   0  0  0  0  0  0  0  0  0  0  0  0
  1  2  1  0  0  0  0
  3 11  1  0  0  0  0
  4 18  1  0  0  0  0
  5  1  1  0  0  0  0
  5  6  1  0  0  0  0
  6  3  1  0  0  0  0
  7  6  2  0  0  0  0
  7 19  1  0  0  0  0
  8  7  1  0  0  0  0
  9 10  1  0  0  0  0
  9  8  2  0  0  0  0
 10  5  2  0  0  0  0
 11 23  1  0  0  0  0
 11 24  1  0  0  0  0
 12  1  1  0  0  0  0
 12 13  1  0  0  0  0
 13  4  1  0  0  0  0
 14 13  2  0  0  0  0
 14 26  1  0  0  0  0
 15 14  1  0  0  0  0
 16 17  1  0  0  0  0
 16 15  2  0  0  0  0
 17 12  2  0  0  0  0
 18 30  1  0  0  0  0
 18 31  1  0  0  0  0
 20  8  1  0  0  0  0
 21  9  1  0  0  0  0
 22 10  1  0  0  0  0
 25 11  1  0  0  0  0
 27 15  1  0  0  0  0
 28 16  1  0  0  0  0
 29 17  1  0  0  0  0
 32 18  1  0  0  0  0
M  END
