1
 OpenBabel05122313063D

 49 50  0  0  0  0  0  0  0  0999 V2000
    0.0594    0.4369    0.4442 P   0  0  2  0  0  0  0  0  0  0  0  0
   -1.2613    2.9909   -0.9405 Si  0  0  0  0  0  0  0  0  0  0  0  0
    1.6808    3.1517    0.4699 Si  0  0  0  0  0  0  0  0  0  0  0  0
   -2.3566   -0.4779    2.1848 O   0  0  0  0  0  0  0  0  0  0  0  0
   -1.5305   -0.0418   -0.0009 N   0  0  0  0  0  0  0  0  0  0  0  0
   -2.4446   -0.4204    0.8279 C   0  0  0  0  0  0  0  0  0  0  0  0
   -1.0843   -0.2934    2.8284 C   0  0  0  0  0  0  0  0  0  0  0  0
   -0.5344   -1.2584    2.7894 H   0  0  0  0  0  0  0  0  0  0  0  0
   -1.3312   -0.0890    3.8882 H   0  0  0  0  0  0  0  0  0  0  0  0
   -0.2416    0.8312    2.2367 C   0  0  0  0  0  0  0  0  0  0  0  0
    0.7101    0.9110    2.7954 H   0  0  0  0  0  0  0  0  0  0  0  0
   -0.7736    1.8008    2.3057 H   0  0  0  0  0  0  0  0  0  0  0  0
   -3.7854   -0.8338    0.3407 C   0  0  0  0  0  0  0  0  0  0  0  0
   -3.9581   -1.1206   -1.0308 C   0  0  0  0  0  0  0  0  0  0  0  0
   -3.0843   -1.0575   -1.6954 H   0  0  0  0  0  0  0  0  0  0  0  0
   -5.2145   -1.5003   -1.5164 C   0  0  0  0  0  0  0  0  0  0  0  0
   -5.3398   -1.7301   -2.5852 H   0  0  0  0  0  0  0  0  0  0  0  0
   -6.3103   -1.5951   -0.6413 C   0  0  0  0  0  0  0  0  0  0  0  0
   -7.2980   -1.8926   -1.0251 H   0  0  0  0  0  0  0  0  0  0  0  0
   -6.1414   -1.3183    0.7250 C   0  0  0  0  0  0  0  0  0  0  0  0
   -6.9967   -1.3965    1.4130 H   0  0  0  0  0  0  0  0  0  0  0  0
   -4.8840   -0.9457    1.2188 C   0  0  0  0  0  0  0  0  0  0  0  0
   -4.7417   -0.7334    2.2872 H   0  0  0  0  0  0  0  0  0  0  0  0
    0.3377    2.0543   -0.3884 C   0  0  0  0  0  0  0  0  0  0  0  0
    0.8224    1.7669   -1.3492 H   0  0  0  0  0  0  0  0  0  0  0  0
   -0.7938    4.6925   -1.6422 C   0  0  0  0  0  0  0  0  0  0  0  0
   -0.1311    4.5937   -2.5259 H   0  0  0  0  0  0  0  0  0  0  0  0
   -0.3010    5.3657   -0.9144 H   0  0  0  0  0  0  0  0  0  0  0  0
   -1.7250    5.1917   -1.9831 H   0  0  0  0  0  0  0  0  0  0  0  0
   -2.4610    3.2552    0.5020 C   0  0  0  0  0  0  0  0  0  0  0  0
   -1.9933    3.8197    1.3332 H   0  0  0  0  0  0  0  0  0  0  0  0
   -2.8578    2.3020    0.9017 H   0  0  0  0  0  0  0  0  0  0  0  0
   -3.3280    3.8484    0.1438 H   0  0  0  0  0  0  0  0  0  0  0  0
   -2.1037    2.0613   -2.3521 C   0  0  0  0  0  0  0  0  0  0  0  0
   -2.6047    1.1483   -1.9824 H   0  0  0  0  0  0  0  0  0  0  0  0
   -1.3655    1.7545   -3.1216 H   0  0  0  0  0  0  0  0  0  0  0  0
   -2.8560    2.7142   -2.8414 H   0  0  0  0  0  0  0  0  0  0  0  0
    2.9892    2.1800    1.4387 C   0  0  0  0  0  0  0  0  0  0  0  0
    3.7250    2.9188    1.8213 H   0  0  0  0  0  0  0  0  0  0  0  0
    3.5417    1.4653    0.8007 H   0  0  0  0  0  0  0  0  0  0  0  0
    2.6027    1.6255    2.3148 H   0  0  0  0  0  0  0  0  0  0  0  0
    2.6177    4.0624   -0.8964 C   0  0  0  0  0  0  0  0  0  0  0  0
    1.9681    4.7043   -1.5203 H   0  0  0  0  0  0  0  0  0  0  0  0
    3.1210    3.3260   -1.5564 H   0  0  0  0  0  0  0  0  0  0  0  0
    3.4043    4.7031   -0.4469 H   0  0  0  0  0  0  0  0  0  0  0  0
    0.8985    4.3711    1.6938 C   0  0  0  0  0  0  0  0  0  0  0  0
    0.3958    3.8447    2.5303 H   0  0  0  0  0  0  0  0  0  0  0  0
    0.1590    5.0469    1.2222 H   0  0  0  0  0  0  0  0  0  0  0  0
    1.6978    5.0024    2.1345 H   0  0  0  0  0  0  0  0  0  0  0  0
  1 24  1  6  0  0  0
  1 10  1  0  0  0  0
  2 24  1  0  0  0  0
  2 30  1  0  0  0  0
  3 38  1  0  0  0  0
  3 46  1  0  0  0  0
  4  7  1  0  0  0  0
  5  1  1  0  0  0  0
  5  6  2  0  0  0  0
  6  4  1  0  0  0  0
  7  9  1  0  0  0  0
  8  7  1  0  0  0  0
 10 12  1  0  0  0  0
 10 11  1  0  0  0  0
 10  7  1  0  0  0  0
 13  6  1  0  0  0  0
 13 22  1  0  0  0  0
 14 13  2  0  0  0  0
 15 14  1  0  0  0  0
 16 14  1  0  0  0  0
 16 18  2  0  0  0  0
 17 16  1  0  0  0  0
 18 20  1  0  0  0  0
 19 18  1  0  0  0  0
 20 22  2  0  0  0  0
 20 21  1  0  0  0  0
 22 23  1  0  0  0  0
 24  3  1  0  0  0  0
 25 24  1  0  0  0  0
 26  2  1  0  0  0  0
 26 28  1  0  0  0  0
 27 26  1  0  0  0  0
 29 26  1  0  0  0  0
 30 32  1  0  0  0  0
 30 31  1  0  0  0  0
 33 30  1  0  0  0  0
 34 35  1  0  0  0  0
 34  2  1  0  0  0  0
 36 34  1  0  0  0  0
 37 34  1  0  0  0  0
 38 39  1  0  0  0  0
 38 41  1  0  0  0  0
 40 38  1  0  0  0  0
 42 45  1  0  0  0  0
 42  3  1  0  0  0  0
 43 42  1  0  0  0  0
 44 42  1  0  0  0  0
 46 49  1  0  0  0  0
 46 47  1  0  0  0  0
 48 46  1  0  0  0  0
M  END
