1
 OpenBabel05122313063D

 51 51  0  0  0  0  0  0  0  0999 V2000
   -0.4446   -0.0558    0.3990 P   0  0  1  0  0  0  0  0  0  0  0  0
   -3.2060   -0.7156   -1.0636 Si  0  0  0  0  0  0  0  0  0  0  0  0
   -1.6617   -2.9573    0.7486 Si  0  0  0  0  0  0  0  0  0  0  0  0
   -0.9286    2.6013    1.9019 O   0  0  0  0  0  0  0  0  0  0  0  0
   -1.0291    1.4639   -0.1806 N   0  0  0  0  0  0  0  0  0  0  0  0
   -1.1542    2.5077    0.5637 C   0  0  0  0  0  0  0  0  0  0  0  0
   -0.4266    1.4846    2.6557 C   0  0  0  0  0  0  0  0  0  0  0  0
   -0.7403    1.6823    3.6996 H   0  0  0  0  0  0  0  0  0  0  0  0
    0.6834    1.5163    2.6244 H   0  0  0  0  0  0  0  0  0  0  0  0
   -0.9368    0.1297    2.1804 C   0  0  0  0  0  0  0  0  0  0  0  0
   -2.0421    0.0729    2.2501 H   0  0  0  0  0  0  0  0  0  0  0  0
   -0.5017   -0.6685    2.8105 H   0  0  0  0  0  0  0  0  0  0  0  0
   -1.5890    3.8665    0.0061 C   0  0  0  0  0  0  0  0  0  0  0  0
   -2.8414    4.3492    0.7703 C   0  0  0  0  0  0  0  0  0  0  0  0
   -3.6905    3.6490    0.6321 H   0  0  0  0  0  0  0  0  0  0  0  0
   -3.1545    5.3412    0.3870 H   0  0  0  0  0  0  0  0  0  0  0  0
   -2.6394    4.4419    1.8545 H   0  0  0  0  0  0  0  0  0  0  0  0
   -0.4277    4.8638    0.2255 C   0  0  0  0  0  0  0  0  0  0  0  0
    0.4873    4.5347   -0.3054 H   0  0  0  0  0  0  0  0  0  0  0  0
   -0.1822    4.9634    1.3000 H   0  0  0  0  0  0  0  0  0  0  0  0
   -0.7146    5.8614   -0.1642 H   0  0  0  0  0  0  0  0  0  0  0  0
   -1.8988    3.7491   -1.4915 C   0  0  0  0  0  0  0  0  0  0  0  0
   -1.0244    3.3700   -2.0545 H   0  0  0  0  0  0  0  0  0  0  0  0
   -2.1733    4.7452   -1.8928 H   0  0  0  0  0  0  0  0  0  0  0  0
   -2.7414    3.0557   -1.6756 H   0  0  0  0  0  0  0  0  0  0  0  0
   -1.5413   -1.3494   -0.3178 C   0  0  0  0  0  0  0  0  0  0  0  0
   -0.9750   -1.6896   -1.2143 H   0  0  0  0  0  0  0  0  0  0  0  0
   -2.8156    0.2188   -2.6568 C   0  0  0  0  0  0  0  0  0  0  0  0
   -3.7334    0.6714   -3.0860 H   0  0  0  0  0  0  0  0  0  0  0  0
   -2.3995   -0.4795   -3.4127 H   0  0  0  0  0  0  0  0  0  0  0  0
   -2.0724    1.0165   -2.4743 H   0  0  0  0  0  0  0  0  0  0  0  0
   -4.1791    0.3335    0.1774 C   0  0  0  0  0  0  0  0  0  0  0  0
   -4.4024   -0.2346    1.1030 H   0  0  0  0  0  0  0  0  0  0  0  0
   -5.1494    0.6277   -0.2739 H   0  0  0  0  0  0  0  0  0  0  0  0
   -3.6406    1.2594    0.4533 H   0  0  0  0  0  0  0  0  0  0  0  0
   -4.3167   -2.1705   -1.5681 C   0  0  0  0  0  0  0  0  0  0  0  0
   -3.8280   -2.8108   -2.3299 H   0  0  0  0  0  0  0  0  0  0  0  0
   -5.2353   -1.7516   -2.0307 H   0  0  0  0  0  0  0  0  0  0  0  0
   -4.6327   -2.8142   -0.7242 H   0  0  0  0  0  0  0  0  0  0  0  0
   -1.8407   -4.4135   -0.4439 C   0  0  0  0  0  0  0  0  0  0  0  0
   -2.7469   -4.3577   -1.0750 H   0  0  0  0  0  0  0  0  0  0  0  0
   -1.8812   -5.3614    0.1318 H   0  0  0  0  0  0  0  0  0  0  0  0
   -0.9529   -4.4625   -1.1077 H   0  0  0  0  0  0  0  0  0  0  0  0
   -0.1128   -3.3341    1.7760 C   0  0  0  0  0  0  0  0  0  0  0  0
   -0.2837   -4.3098    2.2783 H   0  0  0  0  0  0  0  0  0  0  0  0
    0.1169   -2.5976    2.5689 H   0  0  0  0  0  0  0  0  0  0  0  0
    0.7885   -3.4432    1.1436 H   0  0  0  0  0  0  0  0  0  0  0  0
   -3.1257   -2.8703    1.9502 C   0  0  0  0  0  0  0  0  0  0  0  0
   -3.0026   -2.0518    2.6878 H   0  0  0  0  0  0  0  0  0  0  0  0
   -3.1898   -3.8211    2.5188 H   0  0  0  0  0  0  0  0  0  0  0  0
   -4.0948   -2.7215    1.4350 H   0  0  0  0  0  0  0  0  0  0  0  0
  1 26  1  6  0  0  0
  1 10  1  0  0  0  0
  2 26  1  0  0  0  0
  2 32  1  0  0  0  0
  3 44  1  0  0  0  0
  3 48  1  0  0  0  0
  4  7  1  0  0  0  0
  5  1  1  0  0  0  0
  5  6  2  0  0  0  0
  6  4  1  0  0  0  0
  7  8  1  0  0  0  0
  9  7  1  0  0  0  0
 10 11  1  0  0  0  0
 10  7  1  0  0  0  0
 10 12  1  0  0  0  0
 13 18  1  0  0  0  0
 13  6  1  0  0  0  0
 13 14  1  0  0  0  0
 14 17  1  0  0  0  0
 15 14  1  0  0  0  0
 16 14  1  0  0  0  0
 18 20  1  0  0  0  0
 19 18  1  0  0  0  0
 21 18  1  0  0  0  0
 22 13  1  0  0  0  0
 23 22  1  0  0  0  0
 24 22  1  0  0  0  0
 25 22  1  0  0  0  0
 26  3  1  0  0  0  0
 27 26  1  0  0  0  0
 28 31  1  0  0  0  0
 28  2  1  0  0  0  0
 29 28  1  0  0  0  0
 30 28  1  0  0  0  0
 32 35  1  0  0  0  0
 32 33  1  0  0  0  0
 34 32  1  0  0  0  0
 36  2  1  0  0  0  0
 36 39  1  0  0  0  0
 37 36  1  0  0  0  0
 38 36  1  0  0  0  0
 40 42  1  0  0  0  0
 40  3  1  0  0  0  0
 41 40  1  0  0  0  0
 43 40  1  0  0  0  0
 44 45  1  0  0  0  0
 44 46  1  0  0  0  0
 47 44  1  0  0  0  0
 48 50  1  0  0  0  0
 48 49  1  0  0  0  0
 51 48  1  0  0  0  0
M  END
