1
 OpenBabel05122313063D

 42 42  0  0  0  0  0  0  0  0999 V2000
   -0.4761    0.4455    0.3606 P   0  0  1  0  0  0  0  0  0  0  0  0
   -3.3133    0.5007   -1.0937 Si  0  0  0  0  0  0  0  0  0  0  0  0
   -2.4083   -2.0291    0.7713 Si  0  0  0  0  0  0  0  0  0  0  0  0
   -0.3539    3.2100    1.7689 O   0  0  0  0  0  0  0  0  0  0  0  0
   -0.6583    2.0382   -0.2803 N   0  0  0  0  0  0  0  0  0  0  0  0
   -0.5651    3.1088    0.4293 C   0  0  0  0  0  0  0  0  0  0  0  0
   -0.1051    2.0335    2.5592 C   0  0  0  0  0  0  0  0  0  0  0  0
   -0.3567    2.3301    3.5961 H   0  0  0  0  0  0  0  0  0  0  0  0
    0.9840    1.8150    2.5253 H   0  0  0  0  0  0  0  0  0  0  0  0
   -0.9109    0.8122    2.1304 C   0  0  0  0  0  0  0  0  0  0  0  0
   -1.9997    1.0114    2.1968 H   0  0  0  0  0  0  0  0  0  0  0  0
   -0.6672   -0.0391    2.7932 H   0  0  0  0  0  0  0  0  0  0  0  0
   -0.6861    4.4748   -0.1824 C   0  0  0  0  0  0  0  0  0  0  0  0
    0.2968    4.9869   -0.1326 H   0  0  0  0  0  0  0  0  0  0  0  0
   -1.4063    5.0917    0.3906 H   0  0  0  0  0  0  0  0  0  0  0  0
   -1.0022    4.3903   -1.2359 H   0  0  0  0  0  0  0  0  0  0  0  0
   -1.8701   -0.5359   -0.3339 C   0  0  0  0  0  0  0  0  0  0  0  0
   -1.4109   -1.0328   -1.2187 H   0  0  0  0  0  0  0  0  0  0  0  0
   -4.7356   -0.6420   -1.6191 C   0  0  0  0  0  0  0  0  0  0  0  0
   -5.5214   -0.0168   -2.0927 H   0  0  0  0  0  0  0  0  0  0  0  0
   -5.2065   -1.1921   -0.7812 H   0  0  0  0  0  0  0  0  0  0  0  0
   -4.4027   -1.3811   -2.3756 H   0  0  0  0  0  0  0  0  0  0  0  0
   -4.0090    1.7519    0.1482 C   0  0  0  0  0  0  0  0  0  0  0  0
   -4.8810    2.2676   -0.3050 H   0  0  0  0  0  0  0  0  0  0  0  0
   -3.2671    2.5261    0.4217 H   0  0  0  0  0  0  0  0  0  0  0  0
   -4.3611    1.2576    1.0757 H   0  0  0  0  0  0  0  0  0  0  0  0
   -2.7067    1.3451   -2.6702 C   0  0  0  0  0  0  0  0  0  0  0  0
   -2.3789    0.5877   -3.4125 H   0  0  0  0  0  0  0  0  0  0  0  0
   -1.8469    2.0064   -2.4527 H   0  0  0  0  0  0  0  0  0  0  0  0
   -3.5226    1.9395   -3.1315 H   0  0  0  0  0  0  0  0  0  0  0  0
   -3.8237   -1.5438    1.9360 C   0  0  0  0  0  0  0  0  0  0  0  0
   -4.1245   -2.4303    2.5319 H   0  0  0  0  0  0  0  0  0  0  0  0
   -4.7208   -1.1820    1.3968 H   0  0  0  0  0  0  0  0  0  0  0  0
   -3.5139   -0.7550    2.6511 H   0  0  0  0  0  0  0  0  0  0  0  0
   -1.0260   -2.7486    1.8526 C   0  0  0  0  0  0  0  0  0  0  0  0
   -1.4545   -3.6226    2.3875 H   0  0  0  0  0  0  0  0  0  0  0  0
   -0.6266   -2.0620    2.6226 H   0  0  0  0  0  0  0  0  0  0  0  0
   -0.1740   -3.1170    1.2514 H   0  0  0  0  0  0  0  0  0  0  0  0
   -2.9288   -3.4280   -0.3891 C   0  0  0  0  0  0  0  0  0  0  0  0
   -2.0666   -3.7285   -1.0197 H   0  0  0  0  0  0  0  0  0  0  0  0
   -3.7705   -3.1572   -1.0535 H   0  0  0  0  0  0  0  0  0  0  0  0
   -3.2326   -4.3134    0.2068 H   0  0  0  0  0  0  0  0  0  0  0  0
  1 17  1  6  0  0  0
  1 10  1  0  0  0  0
  2 17  1  0  0  0  0
  2 23  1  0  0  0  0
  3 35  1  0  0  0  0
  3 31  1  0  0  0  0
  4  7  1  0  0  0  0
  5  1  1  0  0  0  0
  5  6  2  0  0  0  0
  6  4  1  0  0  0  0
  7  8  1  0  0  0  0
  9  7  1  0  0  0  0
 10 11  1  0  0  0  0
 10  7  1  0  0  0  0
 10 12  1  0  0  0  0
 13 14  1  0  0  0  0
 13 15  1  0  0  0  0
 13  6  1  0  0  0  0
 16 13  1  0  0  0  0
 17  3  1  0  0  0  0
 18 17  1  0  0  0  0
 19  2  1  0  0  0  0
 19 21  1  0  0  0  0
 20 19  1  0  0  0  0
 22 19  1  0  0  0  0
 23 25  1  0  0  0  0
 23 26  1  0  0  0  0
 24 23  1  0  0  0  0
 27 29  1  0  0  0  0
 27  2  1  0  0  0  0
 28 27  1  0  0  0  0
 30 27  1  0  0  0  0
 31 32  1  0  0  0  0
 31 34  1  0  0  0  0
 33 31  1  0  0  0  0
 35 36  1  0  0  0  0
 35 37  1  0  0  0  0
 38 35  1  0  0  0  0
 39 42  1  0  0  0  0
 39  3  1  0  0  0  0
 40 39  1  0  0  0  0
 41 39  1  0  0  0  0
M  END
