1
 OpenBabel05122313063D

 20 21  0  0  0  0  0  0  0  0999 V2000
    1.8256    0.2359   -0.3111 P   0  0  2  0  0  0  0  0  0  0  0  0
    1.7717   -0.2317   -1.8818 F   0  0  0  0  0  0  0  0  0  0  0  0
    3.3254    0.9428   -0.3391 O   0  0  0  0  0  0  0  0  0  0  0  0
    5.4997    0.9491   -0.8820 O   0  0  0  0  0  0  0  0  0  0  0  0
    2.2058   -1.2498    0.4549 N   0  0  0  0  0  0  0  0  0  0  0  0
    4.5386    0.2820   -0.5842 C   0  0  0  0  0  0  0  0  0  0  0  0
    4.5186   -1.1867   -0.4078 C   0  0  0  0  0  0  0  0  0  0  0  0
    5.7080   -1.8751   -0.7278 C   0  0  0  0  0  0  0  0  0  0  0  0
    6.5421   -1.2751   -1.1197 H   0  0  0  0  0  0  0  0  0  0  0  0
    5.8226   -3.2526   -0.5404 C   0  0  0  0  0  0  0  0  0  0  0  0
    6.7557   -3.7748   -0.7954 H   0  0  0  0  0  0  0  0  0  0  0  0
    4.7271   -3.9589   -0.0147 C   0  0  0  0  0  0  0  0  0  0  0  0
    4.7942   -5.0466    0.1403 H   0  0  0  0  0  0  0  0  0  0  0  0
    3.5362   -3.3017    0.3111 C   0  0  0  0  0  0  0  0  0  0  0  0
    2.6940   -3.8834    0.7048 H   0  0  0  0  0  0  0  0  0  0  0  0
    3.4028   -1.9063    0.1190 C   0  0  0  0  0  0  0  0  0  0  0  0
    1.1685   -1.9768    1.1829 C   0  0  0  0  0  0  0  0  0  0  0  0
    0.3841   -1.2740    1.5096 H   0  0  0  0  0  0  0  0  0  0  0  0
    1.6024   -2.4417    2.0897 H   0  0  0  0  0  0  0  0  0  0  0  0
    0.6859   -2.7601    0.5620 H   0  0  0  0  0  0  0  0  0  0  0  0
  1  2  1  6  0  0  0
  1  5  1  0  0  0  0
  3  1  1  0  0  0  0
  4  6  2  0  0  0  0
  5 17  1  0  0  0  0
  6  7  1  0  0  0  0
  6  3  1  0  0  0  0
  7 16  1  0  0  0  0
  8 10  1  0  0  0  0
  8  7  2  0  0  0  0
  9  8  1  0  0  0  0
 10 12  2  0  0  0  0
 11 10  1  0  0  0  0
 12 13  1  0  0  0  0
 12 14  1  0  0  0  0
 14 15  1  0  0  0  0
 16 14  2  0  0  0  0
 16  5  1  0  0  0  0
 17 18  1  0  0  0  0
 17 19  1  0  0  0  0
 20 17  1  0  0  0  0
M  END
