1
 OpenBabel05122313063D

 24 25  0  0  1  0  0  0  0  0999 V2000
    0.9505    0.8048    0.0005 P   0  0  2  0  0  0  0  0  0  0  0  0
    1.4785    2.4204   -0.7637 C   0  0  1  0  0  0  0  0  0  0  0  0
    1.4787    2.4209    0.7632 C   0  0  2  0  0  0  0  0  0  0  0  0
    2.7549    2.5902   -1.5576 C   0  0  0  0  0  0  0  0  0  0  0  0
    2.7551    2.5916    1.5568 C   0  0  0  0  0  0  0  0  0  0  0  0
    2.3947   -0.3146    0.0004 C   0  0  0  0  0  0  0  0  0  0  0  0
    2.9104   -0.8037    1.2194 C   0  0  0  0  0  0  0  0  0  0  0  0
    3.9436   -1.7522    1.2163 C   0  0  0  0  0  0  0  0  0  0  0  0
    4.4626   -2.2253    0.0004 C   0  0  0  0  0  0  0  0  0  0  0  0
    3.9423   -1.7535   -1.2156 C   0  0  0  0  0  0  0  0  0  0  0  0
    2.9091   -0.8051   -1.2187 C   0  0  0  0  0  0  0  0  0  0  0  0
    0.6063    2.9296   -1.2126 H   0  0  0  0  0  0  0  0  0  0  0  0
    0.6064    2.9303    1.2118 H   0  0  0  0  0  0  0  0  0  0  0  0
    2.6039    2.2983   -2.6159 H   0  0  0  0  0  0  0  0  0  0  0  0
    3.0756    3.6537   -1.5457 H   0  0  0  0  0  0  0  0  0  0  0  0
    3.5881    1.9822   -1.1575 H   0  0  0  0  0  0  0  0  0  0  0  0
    2.6043    2.3007    2.6153 H   0  0  0  0  0  0  0  0  0  0  0  0
    3.5884    1.9834    1.1572 H   0  0  0  0  0  0  0  0  0  0  0  0
    3.0757    3.6552    1.5439 H   0  0  0  0  0  0  0  0  0  0  0  0
    2.4940   -0.4471    2.1738 H   0  0  0  0  0  0  0  0  0  0  0  0
    4.3413   -2.1291    2.1707 H   0  0  0  0  0  0  0  0  0  0  0  0
    5.2705   -2.9726    0.0004 H   0  0  0  0  0  0  0  0  0  0  0  0
    4.3390   -2.1314   -2.1700 H   0  0  0  0  0  0  0  0  0  0  0  0
    2.4917   -0.4496   -2.1731 H   0  0  0  0  0  0  0  0  0  0  0  0
  1  6  1  6  0  0  0
  1  3  1  0  0  0  0
  2 12  1  6  0  0  0
  2  1  1  0  0  0  0
  2  3  1  0  0  0  0
  3 13  1  1  0  0  0
  3  5  1  0  0  0  0
  4 15  1  0  0  0  0
  4 16  1  0  0  0  0
  4  2  1  0  0  0  0
  5 17  1  0  0  0  0
  6  7  1  0  0  0  0
  7 20  1  0  0  0  0
  8  7  2  0  0  0  0
  8 21  1  0  0  0  0
  9  8  1  0  0  0  0
 10  9  2  0  0  0  0
 11 10  1  0  0  0  0
 11  6  2  0  0  0  0
 14  4  1  0  0  0  0
 18  5  1  0  0  0  0
 19  5  1  0  0  0  0
 22  9  1  0  0  0  0
 23 10  1  0  0  0  0
 24 11  1  0  0  0  0
M  END
