1
 OpenBabel05122313063D

 50 51  0  0  1  0  0  0  0  0999 V2000
    0.4174   -0.8142    0.3175 P   0  0  0  0  0  0  0  0  0  0  0  0
   -0.2204   -0.6871    2.1434 C   0  0  0  0  0  0  0  0  0  0  0  0
   -0.1643    0.7851    2.5882 C   0  0  0  0  0  0  0  0  0  0  0  0
   -1.6724   -1.1764    2.2928 C   0  0  0  0  0  0  0  0  0  0  0  0
    0.6908   -1.4889    3.0935 C   0  0  0  0  0  0  0  0  0  0  0  0
    0.7964   -2.6712   -0.0628 C   0  0  0  0  0  0  0  0  0  0  0  0
    2.1830   -3.0440    0.4994 C   0  0  0  0  0  0  0  0  0  0  0  0
    0.8307   -2.8052   -1.5986 C   0  0  0  0  0  0  0  0  0  0  0  0
   -0.2217   -3.6720    0.5168 C   0  0  0  0  0  0  0  0  0  0  0  0
   -2.7907    1.2115   -0.3214 C   0  0  0  0  0  0  0  0  0  0  0  0
   -3.5335    2.2929   -0.0226 O   0  0  0  0  0  0  0  0  0  0  0  0
   -2.8317    3.5400    0.0636 C   0  0  0  0  0  0  0  0  0  0  0  0
   -3.8203    4.6192    0.4532 C   0  0  0  0  0  0  0  0  0  0  0  0
   -1.4451    1.0966   -0.5444 C   0  0  0  0  0  0  0  0  0  0  0  0
   -1.0817   -0.3462   -0.8080 C   0  0  2  0  0  0  0  0  0  0  0  0
   -2.4355   -1.0457   -0.8026 C   0  0  0  0  0  0  0  0  0  0  0  0
   -2.8326   -2.3371   -1.1713 C   0  0  0  0  0  0  0  0  0  0  0  0
   -4.1973   -2.6843   -1.1253 C   0  0  0  0  0  0  0  0  0  0  0  0
   -5.1700   -1.7463   -0.7378 C   0  0  0  0  0  0  0  0  0  0  0  0
   -4.7983   -0.4279   -0.4301 C   0  0  0  0  0  0  0  0  0  0  0  0
   -3.4391   -0.0904   -0.4835 C   0  0  0  0  0  0  0  0  0  0  0  0
    0.8723    1.1645    2.6408 H   0  0  0  0  0  0  0  0  0  0  0  0
   -0.5983    0.8570    3.6080 H   0  0  0  0  0  0  0  0  0  0  0  0
   -0.7525    1.4447    1.9246 H   0  0  0  0  0  0  0  0  0  0  0  0
   -1.9315   -1.1682    3.3731 H   0  0  0  0  0  0  0  0  0  0  0  0
   -1.8331   -2.2025    1.9207 H   0  0  0  0  0  0  0  0  0  0  0  0
   -2.3867   -0.5106    1.7784 H   0  0  0  0  0  0  0  0  0  0  0  0
    1.7560   -1.2077    3.0094 H   0  0  0  0  0  0  0  0  0  0  0  0
    0.6001   -2.5819    2.9587 H   0  0  0  0  0  0  0  0  0  0  0  0
    0.3768   -1.2650    4.1349 H   0  0  0  0  0  0  0  0  0  0  0  0
    2.9973   -2.4324    0.0785 H   0  0  0  0  0  0  0  0  0  0  0  0
    2.3927   -4.1017    0.2336 H   0  0  0  0  0  0  0  0  0  0  0  0
    2.2299   -2.9640    1.5996 H   0  0  0  0  0  0  0  0  0  0  0  0
    1.4909   -2.0542   -2.0722 H   0  0  0  0  0  0  0  0  0  0  0  0
   -0.1718   -2.7136   -2.0568 H   0  0  0  0  0  0  0  0  0  0  0  0
    1.2275   -3.8070   -1.8654 H   0  0  0  0  0  0  0  0  0  0  0  0
   -1.2688   -3.4265    0.2746 H   0  0  0  0  0  0  0  0  0  0  0  0
   -0.1372   -3.7632    1.6152 H   0  0  0  0  0  0  0  0  0  0  0  0
   -0.0061   -4.6759    0.0926 H   0  0  0  0  0  0  0  0  0  0  0  0
   -2.3551    3.7569   -0.9201 H   0  0  0  0  0  0  0  0  0  0  0  0
   -2.0091    3.4502    0.8097 H   0  0  0  0  0  0  0  0  0  0  0  0
   -4.6300    4.7022   -0.2984 H   0  0  0  0  0  0  0  0  0  0  0  0
   -3.3072    5.5982    0.5228 H   0  0  0  0  0  0  0  0  0  0  0  0
   -4.2803    4.3959    1.4361 H   0  0  0  0  0  0  0  0  0  0  0  0
   -0.7179    1.9103   -0.5466 H   0  0  0  0  0  0  0  0  0  0  0  0
   -0.6250   -0.4609   -1.8151 H   0  0  0  0  0  0  0  0  0  0  0  0
   -2.1048   -3.0833   -1.5155 H   0  0  0  0  0  0  0  0  0  0  0  0
   -4.5027   -3.7033   -1.4068 H   0  0  0  0  0  0  0  0  0  0  0  0
   -6.2300   -2.0404   -0.7046 H   0  0  0  0  0  0  0  0  0  0  0  0
   -5.5463    0.3372   -0.1761 H   0  0  0  0  0  0  0  0  0  0  0  0
  1  2  1  0  0  0  0
  2  4  1  0  0  0  0
  2  3  1  0  0  0  0
  2  5  1  0  0  0  0
  3 22  1  0  0  0  0
  3 23  1  0  0  0  0
  4 25  1  0  0  0  0
  5 30  1  0  0  0  0
  6  1  1  0  0  0  0
  6  7  1  0  0  0  0
  6  9  1  0  0  0  0
  7 33  1  0  0  0  0
  8  6  1  0  0  0  0
  9 38  1  0  0  0  0
 10 11  1  0  0  0  0
 11 12  1  0  0  0  0
 12 13  1  0  0  0  0
 12 41  1  0  0  0  0
 13 43  1  0  0  0  0
 13 44  1  0  0  0  0
 14 10  2  0  0  0  0
 15 46  1  6  0  0  0
 15 16  1  0  0  0  0
 15 14  1  0  0  0  0
 15  1  1  0  0  0  0
 16 21  1  0  0  0  0
 17 18  1  0  0  0  0
 17 16  2  0  0  0  0
 18 19  2  0  0  0  0
 19 49  1  0  0  0  0
 19 20  1  0  0  0  0
 20 50  1  0  0  0  0
 21 20  2  0  0  0  0
 21 10  1  0  0  0  0
 24  3  1  0  0  0  0
 26  4  1  0  0  0  0
 27  4  1  0  0  0  0
 28  5  1  0  0  0  0
 29  5  1  0  0  0  0
 31  7  1  0  0  0  0
 32  7  1  0  0  0  0
 34  8  1  0  0  0  0
 35  8  1  0  0  0  0
 36  8  1  0  0  0  0
 37  9  1  0  0  0  0
 39  9  1  0  0  0  0
 40 12  1  0  0  0  0
 42 13  1  0  0  0  0
 45 14  1  0  0  0  0
 47 17  1  0  0  0  0
 48 18  1  0  0  0  0
M  END
