1
 OpenBabel05122313063D

 32 33  0  0  0  0  0  0  0  0999 V2000
   -2.4647   -0.1096    0.0000 P   0  0  1  0  0  0  0  0  0  0  0  0
   -3.2142   -1.1338    1.3181 C   0  0  0  0  0  0  0  0  0  0  0  0
   -3.8176   -2.2226    0.7438 C   0  0  0  0  0  0  0  0  0  0  0  0
   -3.8175   -2.2209   -0.7485 C   0  0  0  0  0  0  0  0  0  0  0  0
   -3.2141   -1.1310   -1.3204 C   0  0  0  0  0  0  0  0  0  0  0  0
   -3.5023    1.4224    0.0014 C   0  0  0  0  0  0  0  0  0  0  0  0
   -2.9229    2.7032    0.0007 C   0  0  0  0  0  0  0  0  0  0  0  0
   -1.8290    2.8052   -0.0005 H   0  0  0  0  0  0  0  0  0  0  0  0
   -3.7388    3.8472    0.0016 C   0  0  0  0  0  0  0  0  0  0  0  0
   -3.2756    4.8456    0.0010 H   0  0  0  0  0  0  0  0  0  0  0  0
   -5.1348    3.7171    0.0032 C   0  0  0  0  0  0  0  0  0  0  0  0
   -5.7730    4.6140    0.0039 H   0  0  0  0  0  0  0  0  0  0  0  0
   -5.7189    2.4377    0.0039 C   0  0  0  0  0  0  0  0  0  0  0  0
   -6.8147    2.3313    0.0052 H   0  0  0  0  0  0  0  0  0  0  0  0
   -4.9082    1.2955    0.0030 C   0  0  0  0  0  0  0  0  0  0  0  0
   -5.3599    0.2908    0.0035 H   0  0  0  0  0  0  0  0  0  0  0  0
   -3.0854   -0.7551   -2.7603 C   0  0  0  0  0  0  0  0  0  0  0  0
   -3.6967    0.1461   -2.9876 H   0  0  0  0  0  0  0  0  0  0  0  0
   -2.0382   -0.4966   -3.0192 H   0  0  0  0  0  0  0  0  0  0  0  0
   -3.4128   -1.5666   -3.4389 H   0  0  0  0  0  0  0  0  0  0  0  0
   -4.4477   -3.3560   -1.5039 C   0  0  0  0  0  0  0  0  0  0  0  0
   -4.3644   -3.2239   -2.5984 H   0  0  0  0  0  0  0  0  0  0  0  0
   -3.9713   -4.3247   -1.2426 H   0  0  0  0  0  0  0  0  0  0  0  0
   -5.5254   -3.4603   -1.2559 H   0  0  0  0  0  0  0  0  0  0  0  0
   -4.4478   -3.3592    1.4967 C   0  0  0  0  0  0  0  0  0  0  0  0
   -4.3636   -3.2299    2.5915 H   0  0  0  0  0  0  0  0  0  0  0  0
   -5.5257   -3.4622    1.2494 H   0  0  0  0  0  0  0  0  0  0  0  0
   -3.9723   -4.3275    1.2326 H   0  0  0  0  0  0  0  0  0  0  0  0
   -3.0862   -0.7610    2.7588 C   0  0  0  0  0  0  0  0  0  0  0  0
   -3.4077   -1.5763    3.4358 H   0  0  0  0  0  0  0  0  0  0  0  0
   -2.0403   -0.4966    3.0172 H   0  0  0  0  0  0  0  0  0  0  0  0
   -3.7028    0.1357    2.9893 H   0  0  0  0  0  0  0  0  0  0  0  0
  1  6  1  1  0  0  0
  1  2  1  0  0  0  0
  2 29  1  0  0  0  0
  3  2  2  0  0  0  0
  3 25  1  0  0  0  0
  4  3  1  0  0  0  0
  5  4  2  0  0  0  0
  5  1  1  0  0  0  0
  6 15  1  0  0  0  0
  7  6  2  0  0  0  0
  7  9  1  0  0  0  0
  8  7  1  0  0  0  0
  9 11  2  0  0  0  0
 10  9  1  0  0  0  0
 11 12  1  0  0  0  0
 11 13  1  0  0  0  0
 13 14  1  0  0  0  0
 15 16  1  0  0  0  0
 15 13  2  0  0  0  0
 17  5  1  0  0  0  0
 18 17  1  0  0  0  0
 19 17  1  0  0  0  0
 20 17  1  0  0  0  0
 21 24  1  0  0  0  0
 21 23  1  0  0  0  0
 21  4  1  0  0  0  0
 22 21  1  0  0  0  0
 25 26  1  0  0  0  0
 27 25  1  0  0  0  0
 28 25  1  0  0  0  0
 29 32  1  0  0  0  0
 29 31  1  0  0  0  0
 29 30  1  0  0  0  0
M  END
