4
 OpenBabel05122313063D

 37 39  0  0  0  0  0  0  0  0999 V2000
    0.4044    0.9271   -2.5293 Cl  0  0  0  0  0  0  0  0  0  0  0  0
    1.9655   -1.8114    0.9711 S   0  0  0  0  0  0  0  0  0  0  0  0
    4.7714   -2.8820    1.4562 S   0  0  0  0  0  0  0  0  0  0  0  0
    0.1433    0.1685   -0.5712 P   0  0  1  0  0  0  0  0  0  0  0  0
    3.9202   -1.3108   -0.6203 N   0  0  0  0  0  0  0  0  0  0  0  0
    1.6765   -0.7846   -0.4320 C   0  0  0  0  0  0  0  0  0  0  0  0
    3.6894   -2.0089    0.5648 C   0  0  0  0  0  0  0  0  0  0  0  0
    2.8381   -0.6370   -1.1414 C   0  0  0  0  0  0  0  0  0  0  0  0
    2.9633   -0.0174   -2.0380 H   0  0  0  0  0  0  0  0  0  0  0  0
    5.2398   -1.2497   -1.2352 C   0  0  0  0  0  0  0  0  0  0  0  0
    5.6020   -0.2022   -1.2473 H   0  0  0  0  0  0  0  0  0  0  0  0
    5.2007   -1.6445   -2.2692 H   0  0  0  0  0  0  0  0  0  0  0  0
    5.9165   -1.8736   -0.6203 H   0  0  0  0  0  0  0  0  0  0  0  0
    0.5842    1.6588    0.5436 C   0  0  0  0  0  0  0  0  0  0  0  0
    0.6314    1.1059    1.5079 H   0  0  0  0  0  0  0  0  0  0  0  0
    1.9702    2.2033    0.2730 C   0  0  0  0  0  0  0  0  0  0  0  0
    3.0576    1.6888    1.0127 C   0  0  0  0  0  0  0  0  0  0  0  0
    2.8698    0.9411    1.7995 H   0  0  0  0  0  0  0  0  0  0  0  0
    4.3715    2.0998    0.7494 C   0  0  0  0  0  0  0  0  0  0  0  0
    5.2004    1.6809    1.3402 H   0  0  0  0  0  0  0  0  0  0  0  0
    4.6220    3.0420   -0.2611 C   0  0  0  0  0  0  0  0  0  0  0  0
    5.6512    3.3711   -0.4707 H   0  0  0  0  0  0  0  0  0  0  0  0
    3.5472    3.5756   -0.9903 C   0  0  0  0  0  0  0  0  0  0  0  0
    3.7316    4.3267   -1.7734 H   0  0  0  0  0  0  0  0  0  0  0  0
    2.2325    3.1634   -0.7253 C   0  0  0  0  0  0  0  0  0  0  0  0
    1.4042    3.5988   -1.2993 H   0  0  0  0  0  0  0  0  0  0  0  0
   -0.5554    2.6492    0.6505 C   0  0  0  0  0  0  0  0  0  0  0  0
   -1.1074    2.9019    1.9243 C   0  0  0  0  0  0  0  0  0  0  0  0
   -0.7179    2.3557    2.7978 H   0  0  0  0  0  0  0  0  0  0  0  0
   -2.1434    3.8312    2.0884 C   0  0  0  0  0  0  0  0  0  0  0  0
   -2.5611    4.0109    3.0904 H   0  0  0  0  0  0  0  0  0  0  0  0
   -2.6495    4.5228    0.9775 C   0  0  0  0  0  0  0  0  0  0  0  0
   -3.4668    5.2488    1.1025 H   0  0  0  0  0  0  0  0  0  0  0  0
   -2.1191    4.2696   -0.2963 C   0  0  0  0  0  0  0  0  0  0  0  0
   -2.5243    4.7917   -1.1762 H   0  0  0  0  0  0  0  0  0  0  0  0
   -1.0837    3.3388   -0.4619 C   0  0  0  0  0  0  0  0  0  0  0  0
   -0.7071    3.1247   -1.4715 H   0  0  0  0  0  0  0  0  0  0  0  0
  4  1  1  6  0  0  0
  4  6  1  0  0  0  0
  4 14  1  0  0  0  0
  5  7  1  0  0  0  0
  6  2  1  0  0  0  0
  7  2  1  0  0  0  0
  7  3  2  0  0  0  0
  8  5  1  0  0  0  0
  8  6  2  0  0  0  0
  9  8  1  0  0  0  0
 10  5  1  0  0  0  0
 10 13  1  0  0  0  0
 11 10  1  0  0  0  0
 12 10  1  0  0  0  0
 14 27  1  0  0  0  0
 14 15  1  0  0  0  0
 16 14  1  0  0  0  0
 16 17  1  0  0  0  0
 17 18  1  0  0  0  0
 19 17  2  0  0  0  0
 19 20  1  0  0  0  0
 21 19  1  0  0  0  0
 22 21  1  0  0  0  0
 23 25  1  0  0  0  0
 23 21  2  0  0  0  0
 24 23  1  0  0  0  0
 25 16  2  0  0  0  0
 26 25  1  0  0  0  0
 27 28  1  0  0  0  0
 28 30  2  0  0  0  0
 28 29  1  0  0  0  0
 30 31  1  0  0  0  0
 32 33  1  0  0  0  0
 32 30  1  0  0  0  0
 34 32  2  0  0  0  0
 35 34  1  0  0  0  0
 36 34  1  0  0  0  0
 36 27  2  0  0  0  0
 37 36  1  0  0  0  0
M  END
