1
 OpenBabel05122313063D

 79 87  0  0  1  0  0  0  0  0999 V2000
    0.1560    0.0231   -0.4750 P   0  0  0  0  0  0  0  0  0  0  0  0
    1.4113   -0.8054   -1.0752 O   0  0  0  0  0  0  0  0  0  0  0  0
    0.8300    1.4785   -0.1628 O   0  0  0  0  0  0  0  0  0  0  0  0
   -0.0937   -0.4996    1.0666 O   0  0  0  0  0  0  0  0  0  0  0  0
    2.8183   -0.8245   -0.6630 C   0  0  1  0  0  0  0  0  0  0  0  0
    3.5617    0.3261   -1.3606 C   0  0  0  0  0  0  0  0  0  0  0  0
    3.3840    0.2550   -2.4539 H   0  0  0  0  0  0  0  0  0  0  0  0
    3.1424    1.2921   -1.0165 H   0  0  0  0  0  0  0  0  0  0  0  0
    5.0667    0.2289   -1.0395 C   0  0  1  0  0  0  0  0  0  0  0  0
    5.5995    1.0630   -1.5429 H   0  0  0  0  0  0  0  0  0  0  0  0
    5.2659    0.3284    0.4858 C   0  0  0  0  0  0  0  0  0  0  0  0
    6.3479    0.2860    0.7343 H   0  0  0  0  0  0  0  0  0  0  0  0
    4.8860    1.3044    0.8572 H   0  0  0  0  0  0  0  0  0  0  0  0
    4.5193   -0.8279    1.1794 C   0  0  1  0  0  0  0  0  0  0  0  0
    4.6554   -0.7555    2.2792 H   0  0  0  0  0  0  0  0  0  0  0  0
    3.0121   -0.7324    0.8595 C   0  0  0  0  0  0  0  0  0  0  0  0
    2.4546   -1.5522    1.3570 H   0  0  0  0  0  0  0  0  0  0  0  0
    2.5966    0.2227    1.2363 H   0  0  0  0  0  0  0  0  0  0  0  0
    3.3598   -2.1702   -1.1671 C   0  0  0  0  0  0  0  0  0  0  0  0
    2.7947   -2.9930   -0.6804 H   0  0  0  0  0  0  0  0  0  0  0  0
    3.1757   -2.2447   -2.2588 H   0  0  0  0  0  0  0  0  0  0  0  0
    4.8646   -2.2735   -0.8498 C   0  0  1  0  0  0  0  0  0  0  0  0
    5.2476   -3.2478   -1.2197 H   0  0  0  0  0  0  0  0  0  0  0  0
    5.6145   -1.1199   -1.5448 C   0  0  0  0  0  0  0  0  0  0  0  0
    6.7030   -1.1934   -1.3349 H   0  0  0  0  0  0  0  0  0  0  0  0
    5.4917   -1.1929   -2.6465 H   0  0  0  0  0  0  0  0  0  0  0  0
    5.0699   -2.1752    0.6743 C   0  0  0  0  0  0  0  0  0  0  0  0
    6.1495   -2.2632    0.9208 H   0  0  0  0  0  0  0  0  0  0  0  0
    4.5518   -3.0151    1.1853 H   0  0  0  0  0  0  0  0  0  0  0  0
    0.2004    2.6024    0.5314 C   0  0  1  0  0  0  0  0  0  0  0  0
    0.8617    3.8623   -0.0456 C   0  0  0  0  0  0  0  0  0  0  0  0
    0.6653    3.9040   -1.1371 H   0  0  0  0  0  0  0  0  0  0  0  0
    1.9611    3.7866    0.0916 H   0  0  0  0  0  0  0  0  0  0  0  0
    0.3039    5.1109    0.6667 C   0  0  1  0  0  0  0  0  0  0  0  0
    0.7887    6.0162    0.2448 H   0  0  0  0  0  0  0  0  0  0  0  0
   -1.2196    5.1836    0.4466 C   0  0  0  0  0  0  0  0  0  0  0  0
   -1.4469    5.2739   -0.6368 H   0  0  0  0  0  0  0  0  0  0  0  0
   -1.6334    6.0882    0.9410 H   0  0  0  0  0  0  0  0  0  0  0  0
   -1.8820    3.9173    1.0220 C   0  0  1  0  0  0  0  0  0  0  0  0
   -2.9785    3.9576    0.8551 H   0  0  0  0  0  0  0  0  0  0  0  0
   -1.3181    2.6733    0.3041 C   0  0  0  0  0  0  0  0  0  0  0  0
   -1.8063    1.7565    0.6962 H   0  0  0  0  0  0  0  0  0  0  0  0
   -1.5341    2.7179   -0.7840 H   0  0  0  0  0  0  0  0  0  0  0  0
    0.5010    2.5035    2.0364 C   0  0  0  0  0  0  0  0  0  0  0  0
    1.6003    2.4317    2.1790 H   0  0  0  0  0  0  0  0  0  0  0  0
    0.0535    1.5727    2.4377 H   0  0  0  0  0  0  0  0  0  0  0  0
   -0.0615    3.7481    2.7528 C   0  0  1  0  0  0  0  0  0  0  0  0
    0.1567    3.6711    3.8389 H   0  0  0  0  0  0  0  0  0  0  0  0
    0.6010    5.0146    2.1762 C   0  0  0  0  0  0  0  0  0  0  0  0
    0.2172    5.9174    2.6975 H   0  0  0  0  0  0  0  0  0  0  0  0
    1.6982    4.9837    2.3494 H   0  0  0  0  0  0  0  0  0  0  0  0
   -1.5853    3.8154    2.5306 C   0  0  0  0  0  0  0  0  0  0  0  0
   -2.0732    2.9114    2.9549 H   0  0  0  0  0  0  0  0  0  0  0  0
   -2.0109    4.6927    3.0628 H   0  0  0  0  0  0  0  0  0  0  0  0
   -0.9433   -1.6302    1.4419 C   0  0  1  0  0  0  0  0  0  0  0  0
   -2.4201   -1.2033    1.4445 C   0  0  0  0  0  0  0  0  0  0  0  0
   -2.7215   -0.8975    0.4192 H   0  0  0  0  0  0  0  0  0  0  0  0
   -2.5375   -0.3169    2.1038 H   0  0  0  0  0  0  0  0  0  0  0  0
   -3.2914   -2.3744    1.9407 C   0  0  1  0  0  0  0  0  0  0  0  0
   -4.3566   -2.0625    1.9309 H   0  0  0  0  0  0  0  0  0  0  0  0
   -3.0950   -3.5846    1.0063 C   0  0  0  0  0  0  0  0  0  0  0  0
   -3.4079   -3.3229   -0.0267 H   0  0  0  0  0  0  0  0  0  0  0  0
   -3.7371   -4.4283    1.3371 H   0  0  0  0  0  0  0  0  0  0  0  0
   -1.6142   -4.0130    1.0189 C   0  0  1  0  0  0  0  0  0  0  0  0
   -1.4699   -4.8825    0.3441 H   0  0  0  0  0  0  0  0  0  0  0  0
   -0.7427   -2.8435    0.5172 C   0  0  0  0  0  0  0  0  0  0  0  0
    0.3312   -3.1251    0.5037 H   0  0  0  0  0  0  0  0  0  0  0  0
   -1.0264   -2.5780   -0.5236 H   0  0  0  0  0  0  0  0  0  0  0  0
   -0.5181   -2.0026    2.8702 C   0  0  0  0  0  0  0  0  0  0  0  0
   -0.6289   -1.1118    3.5237 H   0  0  0  0  0  0  0  0  0  0  0  0
    0.5573   -2.2793    2.8687 H   0  0  0  0  0  0  0  0  0  0  0  0
   -1.3852   -3.1715    3.3794 C   0  0  1  0  0  0  0  0  0  0  0  0
   -1.0718   -3.4320    4.4123 H   0  0  0  0  0  0  0  0  0  0  0  0
   -2.8683   -2.7508    3.3740 C   0  0  0  0  0  0  0  0  0  0  0  0
   -3.0241   -1.8889    4.0578 H   0  0  0  0  0  0  0  0  0  0  0  0
   -3.4998   -3.5824    3.7530 H   0  0  0  0  0  0  0  0  0  0  0  0
   -1.1930   -4.3879    2.4527 C   0  0  0  0  0  0  0  0  0  0  0  0
   -0.1313   -4.7157    2.4664 H   0  0  0  0  0  0  0  0  0  0  0  0
   -1.8003   -5.2436    2.8171 H   0  0  0  0  0  0  0  0  0  0  0  0
  1  3  1  0  0  0  0
  1  4  1  0  0  0  0
  2  1  1  0  0  0  0
  5  2  1  6  0  0  0
  5 16  1  0  0  0  0
  6  9  1  0  0  0  0
  6  8  1  0  0  0  0
  6  5  1  0  0  0  0
  7  6  1  0  0  0  0
  9 10  1  6  0  0  0
  9 11  1  0  0  0  0
 11 12  1  0  0  0  0
 11 13  1  0  0  0  0
 11 14  1  0  0  0  0
 14 15  1  1  0  0  0
 16 14  1  0  0  0  0
 16 18  1  0  0  0  0
 16 17  1  0  0  0  0
 19 22  1  0  0  0  0
 19 20  1  0  0  0  0
 19  5  1  0  0  0  0
 21 19  1  0  0  0  0
 22 23  1  6  0  0  0
 22 27  1  0  0  0  0
 24 25  1  0  0  0  0
 24  9  1  0  0  0  0
 24 22  1  0  0  0  0
 26 24  1  0  0  0  0
 27 28  1  0  0  0  0
 27 14  1  0  0  0  0
 27 29  1  0  0  0  0
 30  3  1  6  0  0  0
 30 44  1  0  0  0  0
 31 33  1  0  0  0  0
 31 30  1  0  0  0  0
 31 34  1  0  0  0  0
 32 31  1  0  0  0  0
 34 35  1  6  0  0  0
 34 49  1  0  0  0  0
 36 34  1  0  0  0  0
 36 38  1  0  0  0  0
 36 39  1  0  0  0  0
 37 36  1  0  0  0  0
 39 40  1  6  0  0  0
 39 52  1  0  0  0  0
 41 30  1  0  0  0  0
 41 42  1  0  0  0  0
 41 39  1  0  0  0  0
 43 41  1  0  0  0  0
 44 45  1  0  0  0  0
 44 46  1  0  0  0  0
 44 47  1  0  0  0  0
 47 48  1  1  0  0  0
 49 51  1  0  0  0  0
 49 50  1  0  0  0  0
 49 47  1  0  0  0  0
 52 47  1  0  0  0  0
 52 53  1  0  0  0  0
 52 54  1  0  0  0  0
 55  4  1  6  0  0  0
 55 56  1  0  0  0  0
 55 69  1  0  0  0  0
 56 59  1  0  0  0  0
 56 58  1  0  0  0  0
 57 56  1  0  0  0  0
 59 60  1  6  0  0  0
 59 74  1  0  0  0  0
 61 64  1  0  0  0  0
 61 63  1  0  0  0  0
 61 59  1  0  0  0  0
 62 61  1  0  0  0  0
 64 65  1  6  0  0  0
 64 77  1  0  0  0  0
 66 64  1  0  0  0  0
 66 55  1  0  0  0  0
 67 66  1  0  0  0  0
 68 66  1  0  0  0  0
 69 72  1  0  0  0  0
 69 70  1  0  0  0  0
 71 69  1  0  0  0  0
 72 73  1  1  0  0  0
 74 72  1  0  0  0  0
 74 76  1  0  0  0  0
 74 75  1  0  0  0  0
 77 78  1  0  0  0  0
 77 79  1  0  0  0  0
 77 72  1  0  0  0  0
M  END
