1
 OpenBabel05122313063D

 41 43  0  0  1  0  0  0  0  0999 V2000
    2.1631   -0.0138    0.2196 P   0  0  0  0  0  0  0  0  0  0  0  0
    1.2912   -2.3058   -1.5612 O   0  0  0  0  0  0  0  0  0  0  0  0
    2.7473    0.7219    1.7979 C   0  0  0  0  0  0  0  0  0  0  0  0
    3.4473    1.9401    1.9039 C   0  0  0  0  0  0  0  0  0  0  0  0
    3.7824    2.4548    3.1674 C   0  0  0  0  0  0  0  0  0  0  0  0
    3.4258    1.7602    4.3319 C   0  0  0  0  0  0  0  0  0  0  0  0
    2.7143    0.5520    4.2321 C   0  0  0  0  0  0  0  0  0  0  0  0
    2.3662    0.0386    2.9764 C   0  0  0  0  0  0  0  0  0  0  0  0
    3.0278    0.8134   -1.1728 C   0  0  0  0  0  0  0  0  0  0  0  0
    4.3997    1.1458   -1.1250 C   0  0  0  0  0  0  0  0  0  0  0  0
    5.0363    1.6819   -2.2550 C   0  0  0  0  0  0  0  0  0  0  0  0
    4.3156    1.8793   -3.4433 C   0  0  0  0  0  0  0  0  0  0  0  0
    2.9552    1.5377   -3.5003 C   0  0  0  0  0  0  0  0  0  0  0  0
    2.3129    1.0087   -2.3722 C   0  0  0  0  0  0  0  0  0  0  0  0
    2.9090   -1.7329    0.2252 C   0  0  1  0  0  0  0  0  0  0  0  0
    2.6274   -2.4392   -1.1221 C   0  0  1  0  0  0  0  0  0  0  0  0
    3.0594   -3.9118   -1.0169 C   0  0  0  0  0  0  0  0  0  0  0  0
    4.5316   -4.0514   -0.6112 C   0  0  0  0  0  0  0  0  0  0  0  0
    4.8274   -3.2953    0.6898 C   0  0  0  0  0  0  0  0  0  0  0  0
    4.3958   -1.8236    0.5923 C   0  0  0  0  0  0  0  0  0  0  0  0
    0.7034   -2.5124   -0.7892 H   0  0  0  0  0  0  0  0  0  0  0  0
    3.7308    2.4980    1.0000 H   0  0  0  0  0  0  0  0  0  0  0  0
    4.3264    3.4091    3.2372 H   0  0  0  0  0  0  0  0  0  0  0  0
    3.6922    2.1646    5.3201 H   0  0  0  0  0  0  0  0  0  0  0  0
    2.4146    0.0102    5.1420 H   0  0  0  0  0  0  0  0  0  0  0  0
    1.7671   -0.8840    2.9025 H   0  0  0  0  0  0  0  0  0  0  0  0
    4.9774    0.9895   -0.2030 H   0  0  0  0  0  0  0  0  0  0  0  0
    6.1041    1.9441   -2.2053 H   0  0  0  0  0  0  0  0  0  0  0  0
    4.8171    2.3003   -4.3281 H   0  0  0  0  0  0  0  0  0  0  0  0
    2.3852    1.6881   -4.4294 H   0  0  0  0  0  0  0  0  0  0  0  0
    1.2454    0.7461   -2.4037 H   0  0  0  0  0  0  0  0  0  0  0  0
    2.3025   -2.2495    1.0023 H   0  0  0  0  0  0  0  0  0  0  0  0
    3.2544   -1.9452   -1.9009 H   0  0  0  0  0  0  0  0  0  0  0  0
    2.4050   -4.4061   -0.2644 H   0  0  0  0  0  0  0  0  0  0  0  0
    2.8588   -4.4042   -1.9905 H   0  0  0  0  0  0  0  0  0  0  0  0
    5.1737   -3.6412   -1.4231 H   0  0  0  0  0  0  0  0  0  0  0  0
    4.8057   -5.1223   -0.5102 H   0  0  0  0  0  0  0  0  0  0  0  0
    4.2803   -3.7774    1.5301 H   0  0  0  0  0  0  0  0  0  0  0  0
    5.9075   -3.3558    0.9402 H   0  0  0  0  0  0  0  0  0  0  0  0
    5.0047   -1.3192   -0.1892 H   0  0  0  0  0  0  0  0  0  0  0  0
    4.5929   -1.2961    1.5483 H   0  0  0  0  0  0  0  0  0  0  0  0
  1 15  1  0  0  0  0
  1  3  1  0  0  0  0
  2 16  1  0  0  0  0
  2 21  1  0  0  0  0
  3  4  2  0  0  0  0
  3  8  1  0  0  0  0
  4  5  1  0  0  0  0
  5 23  1  0  0  0  0
  5  6  2  0  0  0  0
  6 24  1  0  0  0  0
  7  6  1  0  0  0  0
  7 25  1  0  0  0  0
  8  7  2  0  0  0  0
  9 10  1  0  0  0  0
  9  1  1  0  0  0  0
 10 27  1  0  0  0  0
 11 28  1  0  0  0  0
 11 10  2  0  0  0  0
 12 11  1  0  0  0  0
 13 12  2  0  0  0  0
 13 14  1  0  0  0  0
 14  9  2  0  0  0  0
 15 20  1  0  0  0  0
 15 32  1  1  0  0  0
 16 33  1  6  0  0  0
 16 17  1  0  0  0  0
 16 15  1  0  0  0  0
 17 18  1  0  0  0  0
 17 34  1  0  0  0  0
 18 37  1  0  0  0  0
 18 19  1  0  0  0  0
 19 39  1  0  0  0  0
 19 38  1  0  0  0  0
 20 19  1  0  0  0  0
 20 41  1  0  0  0  0
 22  4  1  0  0  0  0
 26  8  1  0  0  0  0
 29 12  1  0  0  0  0
 30 13  1  0  0  0  0
 31 14  1  0  0  0  0
 35 17  1  0  0  0  0
 36 18  1  0  0  0  0
 40 20  1  0  0  0  0
M  END
