1
 OpenBabel05122313063D

 53 55  0  0  0  0  0  0  0  0999 V2000
    0.4108    0.4885    0.0291 P   0  0  2  0  0  0  0  0  0  0  0  0
    0.0972    3.2660   -1.4537 Si  0  0  0  0  0  0  0  0  0  0  0  0
    1.7200    2.9793    1.3871 Si  0  0  0  0  0  0  0  0  0  0  0  0
   -2.8517   -0.6946   -3.0760 S   0  0  0  0  0  0  0  0  0  0  0  0
   -0.8242    0.2313   -1.1569 N   0  0  0  0  0  0  0  0  0  0  0  0
   -1.9756   -0.0045   -0.5684 C   0  0  0  0  0  0  0  0  0  0  0  0
   -1.9977    0.1026    0.9272 C   0  0  0  0  0  0  0  0  0  0  0  0
   -0.7771    0.4906    1.4061 C   0  0  0  0  0  0  0  0  0  0  0  0
   -3.1376   -0.3142   -1.3894 C   0  0  0  0  0  0  0  0  0  0  0  0
   -4.5046   -0.3021   -1.1058 C   0  0  0  0  0  0  0  0  0  0  0  0
   -5.3045   -0.6025   -2.2421 C   0  0  0  0  0  0  0  0  0  0  0  0
   -4.5436   -0.8449   -3.3753 C   0  0  0  0  0  0  0  0  0  0  0  0
   -3.1518   -0.2388    1.7906 C   0  0  0  0  0  0  0  0  0  0  0  0
   -3.6785   -1.5505    1.7880 C   0  0  0  0  0  0  0  0  0  0  0  0
   -4.7512   -1.8807    2.6266 C   0  0  0  0  0  0  0  0  0  0  0  0
   -5.3163   -0.9099    3.4708 C   0  0  0  0  0  0  0  0  0  0  0  0
   -4.7962    0.3938    3.4814 C   0  0  0  0  0  0  0  0  0  0  0  0
   -3.7170    0.7275    2.6494 C   0  0  0  0  0  0  0  0  0  0  0  0
    1.1314    2.1528   -0.2548 C   0  0  0  0  0  0  0  0  0  0  0  0
    0.8732    4.9970   -1.5113 C   0  0  0  0  0  0  0  0  0  0  0  0
    0.2025    2.5446   -3.1947 C   0  0  0  0  0  0  0  0  0  0  0  0
   -1.7040    3.4415   -0.8962 C   0  0  0  0  0  0  0  0  0  0  0  0
    3.2034    4.0779    0.9804 C   0  0  0  0  0  0  0  0  0  0  0  0
    2.3354    1.7224    2.6629 C   0  0  0  0  0  0  0  0  0  0  0  0
    0.3060    3.9658    2.1687 C   0  0  0  0  0  0  0  0  0  0  0  0
   -0.5383    0.5634    2.4751 H   0  0  0  0  0  0  0  0  0  0  0  0
   -4.9097   -0.0673   -0.1146 H   0  0  0  0  0  0  0  0  0  0  0  0
   -6.4021   -0.6419   -2.2285 H   0  0  0  0  0  0  0  0  0  0  0  0
   -4.8981   -1.1100   -4.3794 H   0  0  0  0  0  0  0  0  0  0  0  0
   -3.2289   -2.3091    1.1301 H   0  0  0  0  0  0  0  0  0  0  0  0
   -5.1483   -2.9071    2.6228 H   0  0  0  0  0  0  0  0  0  0  0  0
   -6.1622   -1.1718    4.1243 H   0  0  0  0  0  0  0  0  0  0  0  0
   -5.2339    1.1580    4.1414 H   0  0  0  0  0  0  0  0  0  0  0  0
   -3.3104    1.7506    2.6467 H   0  0  0  0  0  0  0  0  0  0  0  0
    2.0752    1.9410   -0.8061 H   0  0  0  0  0  0  0  0  0  0  0  0
    0.3261    5.5972   -2.2684 H   0  0  0  0  0  0  0  0  0  0  0  0
    1.9370    4.9612   -1.8218 H   0  0  0  0  0  0  0  0  0  0  0  0
    0.8107    5.5399   -0.5474 H   0  0  0  0  0  0  0  0  0  0  0  0
    1.2569    2.4737   -3.5335 H   0  0  0  0  0  0  0  0  0  0  0  0
   -0.3418    3.1925   -3.9128 H   0  0  0  0  0  0  0  0  0  0  0  0
   -0.2419    1.5308   -3.2192 H   0  0  0  0  0  0  0  0  0  0  0  0
   -2.3129    2.5708   -1.2054 H   0  0  0  0  0  0  0  0  0  0  0  0
   -1.7948    3.5581    0.2013 H   0  0  0  0  0  0  0  0  0  0  0  0
   -2.1423    4.3450   -1.3686 H   0  0  0  0  0  0  0  0  0  0  0  0
    2.9634    4.9001    0.2808 H   0  0  0  0  0  0  0  0  0  0  0  0
    4.0120    3.4631    0.5332 H   0  0  0  0  0  0  0  0  0  0  0  0
    3.6013    4.5262    1.9143 H   0  0  0  0  0  0  0  0  0  0  0  0
    2.7011    2.2878    3.5459 H   0  0  0  0  0  0  0  0  0  0  0  0
    3.1854    1.1286    2.2748 H   0  0  0  0  0  0  0  0  0  0  0  0
    1.5655    1.0150    3.0240 H   0  0  0  0  0  0  0  0  0  0  0  0
   -0.5679    3.3134    2.3715 H   0  0  0  0  0  0  0  0  0  0  0  0
    0.6387    4.3953    3.1360 H   0  0  0  0  0  0  0  0  0  0  0  0
   -0.0343    4.8010    1.5253 H   0  0  0  0  0  0  0  0  0  0  0  0
  1 19  1  6  0  0  0
  1  8  1  0  0  0  0
  2 22  1  0  0  0  0
  2 19  1  0  0  0  0
  3 25  1  0  0  0  0
  3 24  1  0  0  0  0
  4  9  1  0  0  0  0
  5  6  2  0  0  0  0
  5  1  1  0  0  0  0
  6  7  1  0  0  0  0
  7  8  2  0  0  0  0
  7 13  1  0  0  0  0
  8 26  1  0  0  0  0
  9 10  2  0  0  0  0
  9  6  1  0  0  0  0
 10 27  1  0  0  0  0
 11 28  1  0  0  0  0
 11 10  1  0  0  0  0
 12  4  1  0  0  0  0
 12 11  2  0  0  0  0
 13 18  1  0  0  0  0
 14 13  2  0  0  0  0
 14 15  1  0  0  0  0
 15 16  2  0  0  0  0
 16 17  1  0  0  0  0
 16 32  1  0  0  0  0
 17 33  1  0  0  0  0
 18 17  2  0  0  0  0
 19  3  1  0  0  0  0
 20  2  1  0  0  0  0
 20 38  1  0  0  0  0
 21  2  1  0  0  0  0
 22 43  1  0  0  0  0
 23  3  1  0  0  0  0
 23 47  1  0  0  0  0
 24 50  1  0  0  0  0
 24 48  1  0  0  0  0
 25 51  1  0  0  0  0
 25 52  1  0  0  0  0
 29 12  1  0  0  0  0
 30 14  1  0  0  0  0
 31 15  1  0  0  0  0
 34 18  1  0  0  0  0
 35 19  1  0  0  0  0
 36 20  1  0  0  0  0
 37 20  1  0  0  0  0
 39 21  1  0  0  0  0
 40 21  1  0  0  0  0
 41 21  1  0  0  0  0
 42 22  1  0  0  0  0
 44 22  1  0  0  0  0
 45 23  1  0  0  0  0
 46 23  1  0  0  0  0
 49 24  1  0  0  0  0
 53 25  1  0  0  0  0
M  END
