1
 OpenBabel05122313063D

 30 31  0  0  1  0  0  0  0  0999 V2000
   -0.2905   -0.0949   -0.3412 P   0  0  1  0  0  0  0  0  0  0  0  0
   -0.9380   -1.0275   -2.1133 Cl  0  0  0  0  0  0  0  0  0  0  0  0
   -0.9190   -0.4509    2.5172 Cl  0  0  0  0  0  0  0  0  0  0  0  0
   -1.1700    1.5127   -0.4007 C   0  0  0  0  0  0  0  0  0  0  0  0
   -2.2877    1.7411   -1.2279 C   0  0  0  0  0  0  0  0  0  0  0  0
   -2.9584    2.9705   -1.1713 C   0  0  0  0  0  0  0  0  0  0  0  0
   -2.5298    3.9703   -0.2839 C   0  0  0  0  0  0  0  0  0  0  0  0
   -1.4183    3.7439    0.5431 C   0  0  0  0  0  0  0  0  0  0  0  0
   -0.7319    2.5227    0.4822 C   0  0  0  0  0  0  0  0  0  0  0  0
   -1.3543   -1.1070    0.8875 C   0  0  1  0  0  0  0  0  0  0  0  0
   -2.8295   -1.0996    0.6257 C   0  0  0  0  0  0  0  0  0  0  0  0
   -3.4016   -2.1520   -0.1174 C   0  0  0  0  0  0  0  0  0  0  0  0
   -4.7634   -2.1353   -0.4433 C   0  0  0  0  0  0  0  0  0  0  0  0
   -5.5993   -1.0768   -0.0338 C   0  0  0  0  0  0  0  0  0  0  0  0
   -7.0726   -1.0793   -0.3512 C   0  0  0  0  0  0  0  0  0  0  0  0
   -5.0192   -0.0319    0.7157 C   0  0  0  0  0  0  0  0  0  0  0  0
   -3.6587   -0.0376    1.0407 C   0  0  0  0  0  0  0  0  0  0  0  0
   -0.9378   -2.1322    0.8353 H   0  0  0  0  0  0  0  0  0  0  0  0
   -2.6283    0.9541   -1.9153 H   0  0  0  0  0  0  0  0  0  0  0  0
   -3.8268    3.1446   -1.8242 H   0  0  0  0  0  0  0  0  0  0  0  0
   -3.0599    4.9339   -0.2414 H   0  0  0  0  0  0  0  0  0  0  0  0
   -1.0733    4.5259    1.2358 H   0  0  0  0  0  0  0  0  0  0  0  0
    0.1435    2.3547    1.1245 H   0  0  0  0  0  0  0  0  0  0  0  0
   -2.7697   -2.9889   -0.4511 H   0  0  0  0  0  0  0  0  0  0  0  0
   -5.1891   -2.9673   -1.0259 H   0  0  0  0  0  0  0  0  0  0  0  0
   -5.6486    0.8078    1.0504 H   0  0  0  0  0  0  0  0  0  0  0  0
   -3.2291    0.7832    1.6326 H   0  0  0  0  0  0  0  0  0  0  0  0
   -7.6552   -1.5387    0.4765 H   0  0  0  0  0  0  0  0  0  0  0  0
   -7.2933   -1.6610   -1.2675 H   0  0  0  0  0  0  0  0  0  0  0  0
   -7.4623   -0.0513   -0.4888 H   0  0  0  0  0  0  0  0  0  0  0  0
  1  2  1  6  0  0  0
  1 10  1  0  0  0  0
  4  1  1  0  0  0  0
  4  9  1  0  0  0  0
  5  6  1  0  0  0  0
  5  4  2  0  0  0  0
  6  7  2  0  0  0  0
  7 21  1  0  0  0  0
  7  8  1  0  0  0  0
  8 22  1  0  0  0  0
  9  8  2  0  0  0  0
  9 23  1  0  0  0  0
 10 18  1  6  0  0  0
 10  3  1  0  0  0  0
 11 10  1  0  0  0  0
 11 17  1  0  0  0  0
 12 11  2  0  0  0  0
 13 12  1  0  0  0  0
 13 14  2  0  0  0  0
 14 16  1  0  0  0  0
 15 14  1  0  0  0  0
 15 28  1  0  0  0  0
 16 17  2  0  0  0  0
 16 26  1  0  0  0  0
 17 27  1  0  0  0  0
 19  5  1  0  0  0  0
 20  6  1  0  0  0  0
 24 12  1  0  0  0  0
 25 13  1  0  0  0  0
 29 15  1  0  0  0  0
 30 15  1  0  0  0  0
M  END
