1
 OpenBabel05122313063D

 30 31  0  0  0  0  0  0  0  0999 V2000
   -0.1674    0.4280    0.2029 P   0  0  1  0  0  0  0  0  0  0  0  0
   -3.1654    3.3643   -1.7437 Cl  0  0  0  0  0  0  0  0  0  0  0  0
   -2.5059   -1.1810    2.1614 Cl  0  0  0  0  0  0  0  0  0  0  0  0
    0.7492    1.5469   -0.6767 O   0  0  0  0  0  0  0  0  0  0  0  0
    0.3981    0.8333    1.7333 O   0  0  0  0  0  0  0  0  0  0  0  0
    2.1223    0.9605    3.1691 O   0  0  0  0  0  0  0  0  0  0  0  0
   -1.6704    1.1377    0.1385 N   0  0  0  0  0  0  0  0  0  0  0  0
    1.7613    0.9952    2.0193 C   0  0  0  0  0  0  0  0  0  0  0  0
    2.6325    1.2471    0.8427 C   0  0  0  0  0  0  0  0  0  0  0  0
    4.0313    1.2795    1.0318 C   0  0  0  0  0  0  0  0  0  0  0  0
    4.4143    1.0577    2.0386 H   0  0  0  0  0  0  0  0  0  0  0  0
    4.8860    1.5905   -0.0274 C   0  0  0  0  0  0  0  0  0  0  0  0
    5.9744    1.6049    0.1272 H   0  0  0  0  0  0  0  0  0  0  0  0
    4.3465    1.8905   -1.2932 C   0  0  0  0  0  0  0  0  0  0  0  0
    5.0151    2.1365   -2.1320 H   0  0  0  0  0  0  0  0  0  0  0  0
    2.9626    1.8698   -1.5041 C   0  0  0  0  0  0  0  0  0  0  0  0
    2.5218    2.0895   -2.4865 H   0  0  0  0  0  0  0  0  0  0  0  0
    2.1081    1.5458   -0.4399 C   0  0  0  0  0  0  0  0  0  0  0  0
   -1.8549    2.5295    0.5602 C   0  0  0  0  0  0  0  0  0  0  0  0
   -1.0635    2.7919    1.2939 H   0  0  0  0  0  0  0  0  0  0  0  0
   -2.8195    2.6148    1.1027 H   0  0  0  0  0  0  0  0  0  0  0  0
   -1.7974    3.5419   -0.5769 C   0  0  0  0  0  0  0  0  0  0  0  0
   -0.8620    3.4214   -1.1538 H   0  0  0  0  0  0  0  0  0  0  0  0
   -1.8507    4.5711   -0.1713 H   0  0  0  0  0  0  0  0  0  0  0  0
   -2.8516    0.3122   -0.1293 C   0  0  0  0  0  0  0  0  0  0  0  0
   -3.5527    0.9050   -0.7522 H   0  0  0  0  0  0  0  0  0  0  0  0
   -2.5369   -0.5631   -0.7346 H   0  0  0  0  0  0  0  0  0  0  0  0
   -3.5717   -0.1662    1.1271 C   0  0  0  0  0  0  0  0  0  0  0  0
   -4.4520   -0.7763    0.8468 H   0  0  0  0  0  0  0  0  0  0  0  0
   -3.9183    0.6797    1.7535 H   0  0  0  0  0  0  0  0  0  0  0  0
  1  7  1  1  0  0  0
  1  5  1  0  0  0  0
  2 22  1  0  0  0  0
  4 18  1  0  0  0  0
  4  1  1  0  0  0  0
  5  8  1  0  0  0  0
  7 19  1  0  0  0  0
  8  6  2  0  0  0  0
  9 10  1  0  0  0  0
  9  8  1  0  0  0  0
 10 11  1  0  0  0  0
 12 13  1  0  0  0  0
 12 10  2  0  0  0  0
 14 12  1  0  0  0  0
 15 14  1  0  0  0  0
 16 14  2  0  0  0  0
 16 18  1  0  0  0  0
 17 16  1  0  0  0  0
 18  9  2  0  0  0  0
 19 21  1  0  0  0  0
 19 20  1  0  0  0  0
 22 24  1  0  0  0  0
 22 19  1  0  0  0  0
 23 22  1  0  0  0  0
 25  7  1  0  0  0  0
 25 28  1  0  0  0  0
 26 25  1  0  0  0  0
 27 25  1  0  0  0  0
 28 30  1  0  0  0  0
 28  3  1  0  0  0  0
 29 28  1  0  0  0  0
M  END
