1
 OpenBabel05122313063D

 35 35  0  0  0  0  0  0  0  0999 V2000
    0.1923   -0.3756    0.0343 P   0  0  0  0  0  0  0  0  0  0  0  0
   -2.2316    4.1526    0.4411 Cl  0  0  0  0  0  0  0  0  0  0  0  0
    4.4852    2.3107   -0.6478 Cl  0  0  0  0  0  0  0  0  0  0  0  0
    2.7058   -1.6053    2.7448 O   0  0  0  0  0  0  0  0  0  0  0  0
    3.2801   -1.8252   -1.7994 O   0  0  0  0  0  0  0  0  0  0  0  0
    0.9147   -0.9602    1.4807 N   0  0  0  0  0  0  0  0  0  0  0  0
    2.9972   -1.5454    0.4575 N   0  0  0  0  0  0  0  0  0  0  0  0
    1.1870   -1.2366   -1.0764 N   0  0  0  0  0  0  0  0  0  0  0  0
    0.5911    1.2743   -0.0762 N   0  0  0  0  0  0  0  0  0  0  0  0
    2.2374   -1.3966    1.6354 C   0  0  0  0  0  0  0  0  0  0  0  0
    2.5341   -1.5564   -0.8671 C   0  0  0  0  0  0  0  0  0  0  0  0
    0.1701   -0.7532    2.7299 C   0  0  0  0  0  0  0  0  0  0  0  0
   -0.9053   -0.6452    2.4894 H   0  0  0  0  0  0  0  0  0  0  0  0
    0.5244    0.1493    3.2691 H   0  0  0  0  0  0  0  0  0  0  0  0
    0.3130   -1.6287    3.3889 H   0  0  0  0  0  0  0  0  0  0  0  0
    4.4334   -1.8088    0.6121 C   0  0  0  0  0  0  0  0  0  0  0  0
    4.6430   -1.8815    1.6916 H   0  0  0  0  0  0  0  0  0  0  0  0
    5.0121   -0.9802    0.1586 H   0  0  0  0  0  0  0  0  0  0  0  0
    4.7056   -2.7495    0.0995 H   0  0  0  0  0  0  0  0  0  0  0  0
    0.7416   -1.2676   -2.4750 C   0  0  0  0  0  0  0  0  0  0  0  0
    1.1498   -0.4148   -3.0572 H   0  0  0  0  0  0  0  0  0  0  0  0
   -0.3650   -1.2308   -2.4955 H   0  0  0  0  0  0  0  0  0  0  0  0
    1.0910   -2.2041   -2.9457 H   0  0  0  0  0  0  0  0  0  0  0  0
   -0.4314    2.2757   -0.3956 C   0  0  0  0  0  0  0  0  0  0  0  0
   -1.2089    1.8268   -1.0478 H   0  0  0  0  0  0  0  0  0  0  0  0
    0.0345    3.0992   -0.9753 H   0  0  0  0  0  0  0  0  0  0  0  0
   -1.0924    2.8318    0.8650 C   0  0  0  0  0  0  0  0  0  0  0  0
   -0.3422    3.2419    1.5701 H   0  0  0  0  0  0  0  0  0  0  0  0
   -1.6696    2.0359    1.3774 H   0  0  0  0  0  0  0  0  0  0  0  0
    1.9529    1.7416    0.1795 C   0  0  0  0  0  0  0  0  0  0  0  0
    2.4579    1.0655    0.8982 H   0  0  0  0  0  0  0  0  0  0  0  0
    1.9154    2.7348    0.6739 H   0  0  0  0  0  0  0  0  0  0  0  0
    2.8055    1.8402   -1.0902 C   0  0  0  0  0  0  0  0  0  0  0  0
    2.4128    2.6058   -1.7875 H   0  0  0  0  0  0  0  0  0  0  0  0
    2.8722    0.8750   -1.6260 H   0  0  0  0  0  0  0  0  0  0  0  0
  1  6  1  0  0  0  0
  2 27  1  0  0  0  0
  5 11  2  0  0  0  0
  6 10  1  0  0  0  0
  6 12  1  0  0  0  0
  7 16  1  0  0  0  0
  7 10  1  0  0  0  0
  8 11  1  0  0  0  0
  8  1  1  0  0  0  0
  9  1  1  0  0  0  0
  9 30  1  0  0  0  0
 10  4  2  0  0  0  0
 11  7  1  0  0  0  0
 12 14  1  0  0  0  0
 12 15  1  0  0  0  0
 13 12  1  0  0  0  0
 16 17  1  0  0  0  0
 18 16  1  0  0  0  0
 19 16  1  0  0  0  0
 20  8  1  0  0  0  0
 21 20  1  0  0  0  0
 22 20  1  0  0  0  0
 23 20  1  0  0  0  0
 24  9  1  0  0  0  0
 24 27  1  0  0  0  0
 25 24  1  0  0  0  0
 26 24  1  0  0  0  0
 27 29  1  0  0  0  0
 27 28  1  0  0  0  0
 30 32  1  0  0  0  0
 30 31  1  0  0  0  0
 33  3  1  0  0  0  0
 33 30  1  0  0  0  0
 34 33  1  0  0  0  0
 35 33  1  0  0  0  0
M  END
