1
 OpenBabel05122313063D

 48 50  0  0  0  0  0  0  0  0999 V2000
   -0.4965   -0.0101    0.0788 P   0  0  1  0  0  0  0  0  0  0  0  0
    2.9067   -0.0246    2.5743 Cl  0  0  0  0  0  0  0  0  0  0  0  0
   -1.3395    3.7006    1.1038 O   0  0  0  0  0  0  0  0  0  0  0  0
   -0.9466   -1.0145    1.3831 N   0  0  0  0  0  0  0  0  0  0  0  0
   -1.7754    0.1272   -1.0659 N   0  0  0  0  0  0  0  0  0  0  0  0
   -0.5521    1.5745    0.7779 N   0  0  0  0  0  0  0  0  0  0  0  0
   -1.4892    2.6007    0.5711 C   0  0  0  0  0  0  0  0  0  0  0  0
   -2.6748    2.2722   -0.2570 C   0  0  0  0  0  0  0  0  0  0  0  0
   -3.7158    3.2239   -0.2689 C   0  0  0  0  0  0  0  0  0  0  0  0
   -3.5569    4.1361    0.3241 H   0  0  0  0  0  0  0  0  0  0  0  0
   -4.8863    3.0137   -0.9991 C   0  0  0  0  0  0  0  0  0  0  0  0
   -5.6900    3.7637   -0.9943 H   0  0  0  0  0  0  0  0  0  0  0  0
   -5.0194    1.8248   -1.7371 C   0  0  0  0  0  0  0  0  0  0  0  0
   -5.9373    1.6308   -2.3127 H   0  0  0  0  0  0  0  0  0  0  0  0
   -3.9989    0.8689   -1.7504 C   0  0  0  0  0  0  0  0  0  0  0  0
   -4.1378   -0.0560   -2.3220 H   0  0  0  0  0  0  0  0  0  0  0  0
   -2.8015    1.0751   -1.0192 C   0  0  0  0  0  0  0  0  0  0  0  0
   -1.8587   -0.9632   -2.0419 C   0  0  0  0  0  0  0  0  0  0  0  0
   -2.6382   -1.7019   -1.7656 H   0  0  0  0  0  0  0  0  0  0  0  0
   -0.8857   -1.4891   -2.0692 H   0  0  0  0  0  0  0  0  0  0  0  0
   -2.0620   -0.5479   -3.0489 H   0  0  0  0  0  0  0  0  0  0  0  0
   -2.0393   -0.6718    2.2934 C   0  0  0  0  0  0  0  0  0  0  0  0
   -1.8811    0.3462    2.7237 H   0  0  0  0  0  0  0  0  0  0  0  0
   -1.9907   -1.3819    3.1430 H   0  0  0  0  0  0  0  0  0  0  0  0
   -3.4574   -0.6764    1.7256 C   0  0  0  0  0  0  0  0  0  0  0  0
   -3.6178    0.1282    0.9858 H   0  0  0  0  0  0  0  0  0  0  0  0
   -4.1773   -0.5257    2.5534 H   0  0  0  0  0  0  0  0  0  0  0  0
   -3.8950   -2.2190    0.9045 Cl  0  0  0  0  0  0  0  0  0  0  0  0
   -0.1023   -2.1536    1.7483 C   0  0  0  0  0  0  0  0  0  0  0  0
    0.1010   -2.1110    2.8425 H   0  0  0  0  0  0  0  0  0  0  0  0
    0.8827   -2.0359    1.2485 H   0  0  0  0  0  0  0  0  0  0  0  0
   -0.6765   -3.5253    1.4231 C   0  0  0  0  0  0  0  0  0  0  0  0
   -1.7154   -3.6334    1.7905 H   0  0  0  0  0  0  0  0  0  0  0  0
   -0.0415   -4.3138    1.8715 H   0  0  0  0  0  0  0  0  0  0  0  0
   -0.7240   -3.8366   -0.3505 Cl  0  0  0  0  0  0  0  0  0  0  0  0
    0.5445    1.8477    1.7314 C   0  0  0  0  0  0  0  0  0  0  0  0
    0.6011    1.0185    2.4630 H   0  0  0  0  0  0  0  0  0  0  0  0
    0.2404    2.7730    2.2593 H   0  0  0  0  0  0  0  0  0  0  0  0
    1.8858    2.0431    1.0630 C   0  0  0  0  0  0  0  0  0  0  0  0
    3.0125    1.2497    1.3658 C   0  0  0  0  0  0  0  0  0  0  0  0
    4.2344    1.4161    0.6973 C   0  0  0  0  0  0  0  0  0  0  0  0
    5.0760    0.7536    0.9389 H   0  0  0  0  0  0  0  0  0  0  0  0
    4.3449    2.3958   -0.2960 C   0  0  0  0  0  0  0  0  0  0  0  0
    5.2959    2.5119   -0.8362 H   0  0  0  0  0  0  0  0  0  0  0  0
    3.2447    3.2103   -0.6079 C   0  0  0  0  0  0  0  0  0  0  0  0
    3.3299    3.9822   -1.3867 H   0  0  0  0  0  0  0  0  0  0  0  0
    2.0330    3.0329    0.0692 C   0  0  0  0  0  0  0  0  0  0  0  0
    1.1644    3.6670   -0.1666 H   0  0  0  0  0  0  0  0  0  0  0  0
  1  6  1  0  0  0  0
  1  4  1  1  0  0  0
  4 29  1  0  0  0  0
  4 22  1  0  0  0  0
  5 17  1  0  0  0  0
  5  1  1  0  0  0  0
  6 36  1  0  0  0  0
  7  6  1  0  0  0  0
  7  3  2  0  0  0  0
  8  7  1  0  0  0  0
  9  8  1  0  0  0  0
  9 10  1  0  0  0  0
 11 12  1  0  0  0  0
 11  9  2  0  0  0  0
 13 11  1  0  0  0  0
 14 13  1  0  0  0  0
 15 13  2  0  0  0  0
 15 17  1  0  0  0  0
 16 15  1  0  0  0  0
 17  8  2  0  0  0  0
 18 19  1  0  0  0  0
 18  5  1  0  0  0  0
 20 18  1  0  0  0  0
 21 18  1  0  0  0  0
 22 23  1  0  0  0  0
 22 24  1  0  0  0  0
 25 22  1  0  0  0  0
 25 27  1  0  0  0  0
 26 25  1  0  0  0  0
 28 25  1  0  0  0  0
 29 30  1  0  0  0  0
 31 29  1  0  0  0  0
 32 29  1  0  0  0  0
 32 33  1  0  0  0  0
 32 34  1  0  0  0  0
 35 32  1  0  0  0  0
 36 38  1  0  0  0  0
 36 37  1  0  0  0  0
 39 40  1  0  0  0  0
 39 36  1  0  0  0  0
 40  2  1  0  0  0  0
 41 42  1  0  0  0  0
 41 40  2  0  0  0  0
 43 41  1  0  0  0  0
 44 43  1  0  0  0  0
 45 43  2  0  0  0  0
 45 47  1  0  0  0  0
 46 45  1  0  0  0  0
 47 39  2  0  0  0  0
 48 47  1  0  0  0  0
M  END
