1
q = 0.0, confidence = 1.0

 37 38  0  0  0  0  0  0  0  0999 V2000
   -1.1611   -0.3735    0.2297 P   0  0  0  0  0  0  0  0  0  0  0  0
    2.0171   -3.2427    1.8246 O   0  0  0  0  0  0  0  0  0  0  0  0
    1.7586   -3.0526    0.8880 H   0  0  0  0  0  0  0  0  0  0  0  0
   -1.2998   -1.7533    1.4590 C   0  0  0  0  0  0  0  0  0  0  0  0
   -2.3415   -1.8110    1.8370 H   0  0  0  0  0  0  0  0  0  0  0  0
   -1.0847   -2.6591    0.8557 H   0  0  0  0  0  0  0  0  0  0  0  0
   -0.2888   -1.5897    2.6050 C   0  0  0  0  0  0  0  0  0  0  0  0
    0.6531   -1.1619    2.1942 H   0  0  0  0  0  0  0  0  0  0  0  0
   -0.6755   -0.8540    3.3396 H   0  0  0  0  0  0  0  0  0  0  0  0
    0.0895   -2.8956    3.3120 C   0  0  0  0  0  0  0  0  0  0  0  0
    0.7052   -2.6386    4.2007 H   0  0  0  0  0  0  0  0  0  0  0  0
   -0.8141   -3.4217    3.6941 H   0  0  0  0  0  0  0  0  0  0  0  0
    0.8929   -3.8592    2.4212 C   0  0  0  0  0  0  0  0  0  0  0  0
    1.2372   -4.7148    3.0468 H   0  0  0  0  0  0  0  0  0  0  0  0
    0.2286   -4.2942    1.6375 H   0  0  0  0  0  0  0  0  0  0  0  0
   -2.3650   -0.7348   -1.1019 C   0  0  0  0  0  0  0  0  0  0  0  0
   -3.5675   -1.4340   -0.8718 C   0  0  0  0  0  0  0  0  0  0  0  0
   -3.8139   -1.8007    0.1357 H   0  0  0  0  0  0  0  0  0  0  0  0
   -4.4567   -1.6715   -1.9309 C   0  0  0  0  0  0  0  0  0  0  0  0
   -5.3905   -2.2239   -1.7460 H   0  0  0  0  0  0  0  0  0  0  0  0
   -4.1546   -1.2106   -3.2223 C   0  0  0  0  0  0  0  0  0  0  0  0
   -4.8528   -1.4010   -4.0515 H   0  0  0  0  0  0  0  0  0  0  0  0
   -2.9570   -0.5161   -3.4565 C   0  0  0  0  0  0  0  0  0  0  0  0
   -2.7114   -0.1633   -4.4695 H   0  0  0  0  0  0  0  0  0  0  0  0
   -2.0622   -0.2834   -2.4026 C   0  0  0  0  0  0  0  0  0  0  0  0
   -1.1070    0.2364   -2.5799 H   0  0  0  0  0  0  0  0  0  0  0  0
   -1.8661    1.0670    1.1364 C   0  0  0  0  0  0  0  0  0  0  0  0
   -3.1765    1.5336    0.9148 C   0  0  0  0  0  0  0  0  0  0  0  0
   -3.8118    1.0523    0.1565 H   0  0  0  0  0  0  0  0  0  0  0  0
   -3.6709    2.6216    1.6526 C   0  0  0  0  0  0  0  0  0  0  0  0
   -4.6937    2.9839    1.4679 H   0  0  0  0  0  0  0  0  0  0  0  0
   -2.8650    3.2469    2.6158 C   0  0  0  0  0  0  0  0  0  0  0  0
   -3.2537    4.1018    3.1897 H   0  0  0  0  0  0  0  0  0  0  0  0
   -1.5559    2.7874    2.8366 C   0  0  0  0  0  0  0  0  0  0  0  0
   -0.9130    3.2842    3.5788 H   0  0  0  0  0  0  0  0  0  0  0  0
   -1.0542    1.7097    2.0956 C   0  0  0  0  0  0  0  0  0  0  0  0
   -0.0131    1.3810    2.2322 H   0  0  0  0  0  0  0  0  0  0  0  0
  1 27  1  0  0  0  0
  1  4  1  0  0  0  0
  2 13  1  0  0  0  0
  3  2  1  0  0  0  0
  4  5  1  0  0  0  0
  4  7  1  0  0  0  0
  6  4  1  0  0  0  0
  7 10  1  0  0  0  0
  7  9  1  0  0  0  0
  8  7  1  0  0  0  0
 10 12  1  0  0  0  0
 10 11  1  0  0  0  0
 13 14  1  0  0  0  0
 13 10  1  0  0  0  0
 15 13  1  0  0  0  0
 16 17  1  0  0  0  0
 16  1  1  0  0  0  0
 17 18  1  0  0  0  0
 19 20  1  0  0  0  0
 19 17  2  0  0  0  0
 21 19  1  0  0  0  0
 22 21  1  0  0  0  0
 23 21  2  0  0  0  0
 23 25  1  0  0  0  0
 24 23  1  0  0  0  0
 25 16  2  0  0  0  0
 26 25  1  0  0  0  0
 27 36  1  0  0  0  0
 28 27  2  0  0  0  0
 28 30  1  0  0  0  0
 29 28  1  0  0  0  0
 30 32  2  0  0  0  0
 31 30  1  0  0  0  0
 32 34  1  0  0  0  0
 32 33  1  0  0  0  0
 34 35  1  0  0  0  0
 36 37  1  0  0  0  0
 36 34  2  0  0  0  0
M  END
