1
 OpenBabel05122313063D

 60 65  0  0  0  0  0  0  0  0999 V2000
    0.8768    0.1804    0.4769 P   0  0  1  0  0  0  0  0  0  0  0  0
   -0.2525   -1.0844   -1.0157 P   0  0  2  0  0  0  0  0  0  0  0  0
   -2.2679   -0.7266   -0.1003 P   0  0  1  0  0  0  0  0  0  0  0  0
   -2.2381    1.4766   -0.6047 P   0  0  2  0  0  0  0  0  0  0  0  0
   -0.1637    2.1256    0.0323 P   0  0  2  0  0  0  0  0  0  0  0  0
    0.1482   -0.2343    2.1219 C   0  0  0  0  0  0  0  0  0  0  0  0
    0.5556   -1.4351    2.7454 C   0  0  0  0  0  0  0  0  0  0  0  0
   -0.0054   -1.8196    3.9709 C   0  0  0  0  0  0  0  0  0  0  0  0
   -0.9713   -1.0127    4.5936 C   0  0  0  0  0  0  0  0  0  0  0  0
   -1.3675    0.1888    3.9879 C   0  0  0  0  0  0  0  0  0  0  0  0
   -0.8107    0.5783    2.7611 C   0  0  0  0  0  0  0  0  0  0  0  0
    0.1023   -2.8136   -0.4939 C   0  0  0  0  0  0  0  0  0  0  0  0
   -0.5503   -3.4874    0.5609 C   0  0  0  0  0  0  0  0  0  0  0  0
   -0.2035   -4.8098    0.8707 C   0  0  0  0  0  0  0  0  0  0  0  0
    0.7958   -5.4702    0.1369 C   0  0  0  0  0  0  0  0  0  0  0  0
    1.4411   -4.8095   -0.9202 C   0  0  0  0  0  0  0  0  0  0  0  0
    1.0905   -3.4915   -1.2426 C   0  0  0  0  0  0  0  0  0  0  0  0
   -3.2487   -1.3768   -1.5394 C   0  0  0  0  0  0  0  0  0  0  0  0
   -4.0913   -2.4747   -1.2664 C   0  0  0  0  0  0  0  0  0  0  0  0
   -4.8486   -3.0624   -2.2926 C   0  0  0  0  0  0  0  0  0  0  0  0
   -4.7737   -2.5548   -3.5980 C   0  0  0  0  0  0  0  0  0  0  0  0
   -3.9381   -1.4592   -3.8767 C   0  0  0  0  0  0  0  0  0  0  0  0
   -3.1772   -0.8738   -2.8562 C   0  0  0  0  0  0  0  0  0  0  0  0
   -3.1875    2.1323    0.8490 C   0  0  0  0  0  0  0  0  0  0  0  0
   -2.9952    3.4771    1.2372 C   0  0  0  0  0  0  0  0  0  0  0  0
   -3.7495    4.0324    2.2805 C   0  0  0  0  0  0  0  0  0  0  0  0
   -4.7185    3.2605    2.9426 C   0  0  0  0  0  0  0  0  0  0  0  0
   -4.9299    1.9298    2.5494 C   0  0  0  0  0  0  0  0  0  0  0  0
   -4.1717    1.3688    1.5106 C   0  0  0  0  0  0  0  0  0  0  0  0
    0.5481    2.6117   -1.6022 C   0  0  0  0  0  0  0  0  0  0  0  0
    0.5543    1.8254   -2.7739 C   0  0  0  0  0  0  0  0  0  0  0  0
    1.1063    2.3283   -3.9598 C   0  0  0  0  0  0  0  0  0  0  0  0
    1.6418    3.6262   -3.9976 C   0  0  0  0  0  0  0  0  0  0  0  0
    1.6250    4.4222   -2.8425 C   0  0  0  0  0  0  0  0  0  0  0  0
    1.0821    3.9183   -1.6514 C   0  0  0  0  0  0  0  0  0  0  0  0
    1.3098   -2.0789    2.2740 H   0  0  0  0  0  0  0  0  0  0  0  0
    0.3210   -2.7590    4.4425 H   0  0  0  0  0  0  0  0  0  0  0  0
   -1.4090   -1.3179    5.5562 H   0  0  0  0  0  0  0  0  0  0  0  0
   -2.1191    0.8359    4.4646 H   0  0  0  0  0  0  0  0  0  0  0  0
   -1.1268    1.5321    2.3142 H   0  0  0  0  0  0  0  0  0  0  0  0
   -1.3264   -2.9674    1.1435 H   0  0  0  0  0  0  0  0  0  0  0  0
   -0.7158   -5.3274    1.6963 H   0  0  0  0  0  0  0  0  0  0  0  0
    1.0689   -6.5066    0.3871 H   0  0  0  0  0  0  0  0  0  0  0  0
    2.2226   -5.3237   -1.4995 H   0  0  0  0  0  0  0  0  0  0  0  0
    1.5909   -2.9744   -2.0767 H   0  0  0  0  0  0  0  0  0  0  0  0
   -4.1506   -2.8717   -0.2402 H   0  0  0  0  0  0  0  0  0  0  0  0
   -5.5016   -3.9196   -2.0683 H   0  0  0  0  0  0  0  0  0  0  0  0
   -5.3691   -3.0123   -4.4028 H   0  0  0  0  0  0  0  0  0  0  0  0
   -3.8782   -1.0576   -4.8999 H   0  0  0  0  0  0  0  0  0  0  0  0
   -2.5271   -0.0127   -3.0770 H   0  0  0  0  0  0  0  0  0  0  0  0
   -2.2349    4.0913    0.7288 H   0  0  0  0  0  0  0  0  0  0  0  0
   -3.5773    5.0780    2.5783 H   0  0  0  0  0  0  0  0  0  0  0  0
   -5.3097    3.6973    3.7615 H   0  0  0  0  0  0  0  0  0  0  0  0
   -5.6883    1.3160    3.0593 H   0  0  0  0  0  0  0  0  0  0  0  0
   -4.3344    0.3166    1.2271 H   0  0  0  0  0  0  0  0  0  0  0  0
    0.1439    0.8044   -2.7538 H   0  0  0  0  0  0  0  0  0  0  0  0
    1.1202    1.6968   -4.8608 H   0  0  0  0  0  0  0  0  0  0  0  0
    2.0736    4.0177   -4.9312 H   0  0  0  0  0  0  0  0  0  0  0  0
    2.0434    5.4398   -2.8636 H   0  0  0  0  0  0  0  0  0  0  0  0
    1.0845    4.5375   -0.7411 H   0  0  0  0  0  0  0  0  0  0  0  0
  1  6  1  1  0  0  0
  2 12  1  1  0  0  0
  2  3  1  0  0  0  0
  2  1  1  0  0  0  0
  3 18  1  6  0  0  0
  4  3  1  0  0  0  0
  4  5  1  0  0  0  0
  4 24  1  1  0  0  0
  5 30  1  6  0  0  0
  5  1  1  0  0  0  0
  6  7  2  0  0  0  0
  6 11  1  0  0  0  0
  7  8  1  0  0  0  0
  8 37  1  0  0  0  0
  8  9  2  0  0  0  0
  9 38  1  0  0  0  0
 10 39  1  0  0  0  0
 10  9  1  0  0  0  0
 11 10  2  0  0  0  0
 12 13  1  0  0  0  0
 13 14  2  0  0  0  0
 13 41  1  0  0  0  0
 14 42  1  0  0  0  0
 15 43  1  0  0  0  0
 15 14  1  0  0  0  0
 16 15  2  0  0  0  0
 17 16  1  0  0  0  0
 17 12  2  0  0  0  0
 18 19  1  0  0  0  0
 19 46  1  0  0  0  0
 20 47  1  0  0  0  0
 20 19  2  0  0  0  0
 21 20  1  0  0  0  0
 22 21  2  0  0  0  0
 22 23  1  0  0  0  0
 23 18  2  0  0  0  0
 24 25  2  0  0  0  0
 24 29  1  0  0  0  0
 25 26  1  0  0  0  0
 26 52  1  0  0  0  0
 26 27  2  0  0  0  0
 27 53  1  0  0  0  0
 28 27  1  0  0  0  0
 28 54  1  0  0  0  0
 29 28  2  0  0  0  0
 31 56  1  0  0  0  0
 31 30  2  0  0  0  0
 32 31  1  0  0  0  0
 33 32  2  0  0  0  0
 33 34  1  0  0  0  0
 34 35  2  0  0  0  0
 35 30  1  0  0  0  0
 35 60  1  0  0  0  0
 36  7  1  0  0  0  0
 40 11  1  0  0  0  0
 44 16  1  0  0  0  0
 45 17  1  0  0  0  0
 48 21  1  0  0  0  0
 49 22  1  0  0  0  0
 50 23  1  0  0  0  0
 51 25  1  0  0  0  0
 55 29  1  0  0  0  0
 57 32  1  0  0  0  0
 58 33  1  0  0  0  0
 59 34  1  0  0  0  0
M  END
