1
 OpenBabel05122313063D

 36 37  0  0  1  0  0  0  0  0999 V2000
    0.1267   -2.2125   -0.4010 P   0  0  0  0  0  0  0  0  0  0  0  0
    3.2251    0.0559    1.2394 C   0  0  1  0  0  0  0  0  0  0  0  0
    4.5383   -0.7566    1.0879 C   0  0  0  0  0  0  0  0  0  0  0  0
    5.1982   -0.6891   -0.3033 C   0  0  0  0  0  0  0  0  0  0  0  0
    4.2182   -0.8663   -1.4805 C   0  0  0  0  0  0  0  0  0  0  0  0
    2.8864   -0.0903   -1.3424 C   0  0  2  0  0  0  0  0  0  0  0  0
    3.0438    1.4411   -1.4214 C   0  0  0  0  0  0  0  0  0  0  0  0
    3.7978    2.1073   -0.2523 C   0  0  0  0  0  0  0  0  0  0  0  0
    3.4260    1.5777    1.1491 C   0  0  0  0  0  0  0  0  0  0  0  0
    1.7962   -2.0741    0.3023 C   0  0  0  0  0  0  0  0  0  0  0  0
    0.3957   -2.7707   -2.1439 C   0  0  0  0  0  0  0  0  0  0  0  0
   -0.5459   -3.7890    0.3275 C   0  0  0  0  0  0  0  0  0  0  0  0
    2.2206   -0.5030    0.0827 B   0  0  1  0  0  0  0  0  0  0  0  0
    2.8408   -0.1684    2.2582 H   0  0  0  0  0  0  0  0  0  0  0  0
    1.0324    0.2646    0.2076 H   0  0  0  0  0  0  0  0  0  0  0  0
    4.3151   -1.8205    1.3249 H   0  0  0  0  0  0  0  0  0  0  0  0
    5.2795   -0.4308    1.8545 H   0  0  0  0  0  0  0  0  0  0  0  0
    5.9938   -1.4637   -0.3677 H   0  0  0  0  0  0  0  0  0  0  0  0
    5.7324    0.2764   -0.4101 H   0  0  0  0  0  0  0  0  0  0  0  0
    3.9772   -1.9482   -1.5812 H   0  0  0  0  0  0  0  0  0  0  0  0
    4.7367   -0.5893   -2.4278 H   0  0  0  0  0  0  0  0  0  0  0  0
    2.2441   -0.3842   -2.2014 H   0  0  0  0  0  0  0  0  0  0  0  0
    2.0158    1.8570   -1.4594 H   0  0  0  0  0  0  0  0  0  0  0  0
    3.5300    1.7466   -2.3772 H   0  0  0  0  0  0  0  0  0  0  0  0
    3.6243    3.2070   -0.2873 H   0  0  0  0  0  0  0  0  0  0  0  0
    4.8891    1.9944   -0.4080 H   0  0  0  0  0  0  0  0  0  0  0  0
    4.1954    1.9256    1.8778 H   0  0  0  0  0  0  0  0  0  0  0  0
    2.4755    2.0535    1.4749 H   0  0  0  0  0  0  0  0  0  0  0  0
    2.4963   -2.8281   -0.1172 H   0  0  0  0  0  0  0  0  0  0  0  0
    1.6977   -2.2914    1.3898 H   0  0  0  0  0  0  0  0  0  0  0  0
    0.9180   -3.7489   -2.1738 H   0  0  0  0  0  0  0  0  0  0  0  0
    1.0072   -2.0048   -2.6554 H   0  0  0  0  0  0  0  0  0  0  0  0
   -0.5720   -2.8535   -2.6769 H   0  0  0  0  0  0  0  0  0  0  0  0
    0.1867   -4.6034    0.1532 H   0  0  0  0  0  0  0  0  0  0  0  0
   -1.5152   -4.0788   -0.1191 H   0  0  0  0  0  0  0  0  0  0  0  0
   -0.6821   -3.6700    1.4188 H   0  0  0  0  0  0  0  0  0  0  0  0
  1 10  1  0  0  0  0
  1 12  1  0  0  0  0
  2 14  1  1  0  0  0
  3  2  1  0  0  0  0
  3 16  1  0  0  0  0
  3 17  1  0  0  0  0
  4  3  1  0  0  0  0
  5  6  1  0  0  0  0
  5  4  1  0  0  0  0
  6 22  1  6  0  0  0
  6 13  1  0  0  0  0
  7  6  1  0  0  0  0
  7  8  1  0  0  0  0
  8  9  1  0  0  0  0
  9  2  1  0  0  0  0
  9 28  1  0  0  0  0
  9 27  1  0  0  0  0
 10 30  1  0  0  0  0
 11  1  1  0  0  0  0
 12 36  1  0  0  0  0
 13 15  1  1  0  0  0
 13 10  1  0  0  0  0
 13  2  1  0  0  0  0
 18  4  1  0  0  0  0
 19  4  1  0  0  0  0
 20  5  1  0  0  0  0
 21  5  1  0  0  0  0
 23  7  1  0  0  0  0
 24  7  1  0  0  0  0
 25  8  1  0  0  0  0
 26  8  1  0  0  0  0
 29 10  1  0  0  0  0
 31 11  1  0  0  0  0
 32 11  1  0  0  0  0
 33 11  1  0  0  0  0
 34 12  1  0  0  0  0
 35 12  1  0  0  0  0
M  END
