1
 OpenBabel05122313063D

 58 62  0  0  0  0  0  0  0  0999 V2000
    0.5004    0.9398    0.1959 P   0  0  0  0  0  0  0  0  0  0  0  0
   -2.2128   -0.6044    0.2343 Si  0  0  0  0  0  0  0  0  0  0  0  0
   -0.8828    0.2904    0.8352 O   0  0  0  0  0  0  0  0  0  0  0  0
   -0.1025    1.9201   -1.2433 C   0  0  0  0  0  0  0  0  0  0  0  0
   -1.2314    2.7511   -1.0795 C   0  0  0  0  0  0  0  0  0  0  0  0
   -1.7005    2.8533   -0.0909 H   0  0  0  0  0  0  0  0  0  0  0  0
   -1.7700    3.4298   -2.1800 C   0  0  0  0  0  0  0  0  0  0  0  0
   -2.6652    4.0560   -2.0473 H   0  0  0  0  0  0  0  0  0  0  0  0
   -1.1698    3.3061   -3.4456 C   0  0  0  0  0  0  0  0  0  0  0  0
   -1.5936    3.8400   -4.3099 H   0  0  0  0  0  0  0  0  0  0  0  0
   -0.0270    2.5073   -3.6054 C   0  0  0  0  0  0  0  0  0  0  0  0
    0.4512    2.4144   -4.5921 H   0  0  0  0  0  0  0  0  0  0  0  0
    0.5020    1.8095   -2.5082 C   0  0  0  0  0  0  0  0  0  0  0  0
    1.3821    1.1652   -2.6382 H   0  0  0  0  0  0  0  0  0  0  0  0
    0.8002    2.2578    1.4411 C   0  0  0  0  0  0  0  0  0  0  0  0
    1.6830    3.3109    1.1270 C   0  0  0  0  0  0  0  0  0  0  0  0
    2.1338    3.3759    0.1245 H   0  0  0  0  0  0  0  0  0  0  0  0
    1.9855    4.2818    2.0912 C   0  0  0  0  0  0  0  0  0  0  0  0
    2.6727    5.1039    1.8399 H   0  0  0  0  0  0  0  0  0  0  0  0
    1.4131    4.2069    3.3724 C   0  0  0  0  0  0  0  0  0  0  0  0
    1.6544    4.9691    4.1287 H   0  0  0  0  0  0  0  0  0  0  0  0
    0.5349    3.1586    3.6856 C   0  0  0  0  0  0  0  0  0  0  0  0
    0.0850    3.0960    4.6882 H   0  0  0  0  0  0  0  0  0  0  0  0
    0.2275    2.1825    2.7243 C   0  0  0  0  0  0  0  0  0  0  0  0
   -0.4589    1.3571    2.9632 H   0  0  0  0  0  0  0  0  0  0  0  0
   -2.5544   -1.8669    1.5804 C   0  0  0  0  0  0  0  0  0  0  0  0
   -1.7383   -1.9728    2.7269 C   0  0  0  0  0  0  0  0  0  0  0  0
   -0.8639   -1.3120    2.8297 H   0  0  0  0  0  0  0  0  0  0  0  0
   -2.0236   -2.9155    3.7266 C   0  0  0  0  0  0  0  0  0  0  0  0
   -1.3754   -2.9881    4.6133 H   0  0  0  0  0  0  0  0  0  0  0  0
   -3.1296   -3.7691    3.5919 C   0  0  0  0  0  0  0  0  0  0  0  0
   -3.3523   -4.5110    4.3742 H   0  0  0  0  0  0  0  0  0  0  0  0
   -3.9524   -3.6762    2.4570 C   0  0  0  0  0  0  0  0  0  0  0  0
   -4.8211   -4.3438    2.3492 H   0  0  0  0  0  0  0  0  0  0  0  0
   -3.6675   -2.7298    1.4620 C   0  0  0  0  0  0  0  0  0  0  0  0
   -4.3247   -2.6626    0.5789 H   0  0  0  0  0  0  0  0  0  0  0  0
   -3.6448    0.6116    0.0840 C   0  0  0  0  0  0  0  0  0  0  0  0
   -4.6044    0.5238   -0.9478 C   0  0  0  0  0  0  0  0  0  0  0  0
   -4.5157   -0.2637   -1.7129 H   0  0  0  0  0  0  0  0  0  0  0  0
   -5.6688    1.4376   -1.0225 C   0  0  0  0  0  0  0  0  0  0  0  0
   -6.4047    1.3571   -1.8374 H   0  0  0  0  0  0  0  0  0  0  0  0
   -5.7907    2.4544   -0.0632 C   0  0  0  0  0  0  0  0  0  0  0  0
   -6.6220    3.1735   -0.1232 H   0  0  0  0  0  0  0  0  0  0  0  0
   -4.8511    2.5494    0.9778 C   0  0  0  0  0  0  0  0  0  0  0  0
   -4.9462    3.3421    1.7359 H   0  0  0  0  0  0  0  0  0  0  0  0
   -3.7920    1.6337    1.0507 C   0  0  0  0  0  0  0  0  0  0  0  0
   -3.0560    1.7221    1.8664 H   0  0  0  0  0  0  0  0  0  0  0  0
   -1.8281   -1.4117   -1.4171 C   0  0  0  0  0  0  0  0  0  0  0  0
   -1.4784   -2.7806   -1.4813 C   0  0  0  0  0  0  0  0  0  0  0  0
   -1.4340   -3.3760   -0.5560 H   0  0  0  0  0  0  0  0  0  0  0  0
   -1.1817   -3.3892   -2.7100 C   0  0  0  0  0  0  0  0  0  0  0  0
   -0.9064   -4.4544   -2.7418 H   0  0  0  0  0  0  0  0  0  0  0  0
   -1.2295   -2.6388   -3.8950 C   0  0  0  0  0  0  0  0  0  0  0  0
   -0.9886   -3.1142   -4.8581 H   0  0  0  0  0  0  0  0  0  0  0  0
   -1.5747   -1.2787   -3.8499 C   0  0  0  0  0  0  0  0  0  0  0  0
   -1.6049   -0.6840   -4.7757 H   0  0  0  0  0  0  0  0  0  0  0  0
   -1.8743   -0.6711   -2.6224 C   0  0  0  0  0  0  0  0  0  0  0  0
   -2.1428    0.3965   -2.6030 H   0  0  0  0  0  0  0  0  0  0  0  0
  1  3  1  0  0  0  0
  1 15  1  0  0  0  0
  2  3  1  0  0  0  0
  2 26  1  0  0  0  0
  4  5  1  0  0  0  0
  4  1  1  0  0  0  0
  5  6  1  0  0  0  0
  7  8  1  0  0  0  0
  7  5  2  0  0  0  0
  9  7  1  0  0  0  0
 10  9  1  0  0  0  0
 11  9  2  0  0  0  0
 11 13  1  0  0  0  0
 12 11  1  0  0  0  0
 13  4  2  0  0  0  0
 14 13  1  0  0  0  0
 15 24  1  0  0  0  0
 16 15  2  0  0  0  0
 16 18  1  0  0  0  0
 17 16  1  0  0  0  0
 18 20  2  0  0  0  0
 19 18  1  0  0  0  0
 20 22  1  0  0  0  0
 20 21  1  0  0  0  0
 22 23  1  0  0  0  0
 24 25  1  0  0  0  0
 24 22  2  0  0  0  0
 26 27  1  0  0  0  0
 27 28  1  0  0  0  0
 27 29  2  0  0  0  0
 29 30  1  0  0  0  0
 31 29  1  0  0  0  0
 31 32  1  0  0  0  0
 33 31  2  0  0  0  0
 34 33  1  0  0  0  0
 35 26  2  0  0  0  0
 35 33  1  0  0  0  0
 36 35  1  0  0  0  0
 37  2  1  0  0  0  0
 37 46  1  0  0  0  0
 38 37  2  0  0  0  0
 39 38  1  0  0  0  0
 40 38  1  0  0  0  0
 40 42  2  0  0  0  0
 41 40  1  0  0  0  0
 42 44  1  0  0  0  0
 43 42  1  0  0  0  0
 44 46  2  0  0  0  0
 44 45  1  0  0  0  0
 46 47  1  0  0  0  0
 48  2  1  0  0  0  0
 49 48  1  0  0  0  0
 49 50  1  0  0  0  0
 51 49  2  0  0  0  0
 52 51  1  0  0  0  0
 53 55  2  0  0  0  0
 53 51  1  0  0  0  0
 54 53  1  0  0  0  0
 55 57  1  0  0  0  0
 56 55  1  0  0  0  0
 57 58  1  0  0  0  0
 57 48  2  0  0  0  0
M  END
