1
 OpenBabel05122313063D

 18 17  0  0  0  0  0  0  0  0999 V2000
    1.6492    0.4142   -0.4189 P   0  0  0  0  0  0  0  0  0  0  0  0
    6.7006    0.8338   -1.1969 Cl  0  0  0  0  0  0  0  0  0  0  0  0
    0.9876   -2.9221   -1.2720 Cl  0  0  0  0  0  0  0  0  0  0  0  0
    2.3134    1.8819   -0.3000 F   0  0  0  0  0  0  0  0  0  0  0  0
    1.2712    0.5633   -1.9812 F   0  0  0  0  0  0  0  0  0  0  0  0
    2.9784   -0.5836   -0.4083 N   0  0  0  0  0  0  0  0  0  0  0  0
    4.1809   -0.2111   -1.1592 C   0  0  0  0  0  0  0  0  0  0  0  0
    3.9062    0.4430   -2.0106 H   0  0  0  0  0  0  0  0  0  0  0  0
    4.6315   -1.1242   -1.6019 H   0  0  0  0  0  0  0  0  0  0  0  0
    5.2000    0.4980   -0.2661 C   0  0  0  0  0  0  0  0  0  0  0  0
    5.4761   -0.1232    0.6080 H   0  0  0  0  0  0  0  0  0  0  0  0
    4.7923    1.4591    0.0989 H   0  0  0  0  0  0  0  0  0  0  0  0
    2.9634   -1.8491    0.3223 C   0  0  0  0  0  0  0  0  0  0  0  0
    2.2494   -1.7653    1.1665 H   0  0  0  0  0  0  0  0  0  0  0  0
    3.9635   -2.0047    0.7823 H   0  0  0  0  0  0  0  0  0  0  0  0
    2.6323   -3.0555   -0.5482 C   0  0  0  0  0  0  0  0  0  0  0  0
    2.6562   -3.9809    0.0587 H   0  0  0  0  0  0  0  0  0  0  0  0
    3.3413   -3.1666   -1.3924 H   0  0  0  0  0  0  0  0  0  0  0  0
  1  6  1  0  0  0  0
  1  4  1  0  0  0  0
  2 10  1  0  0  0  0
  3 16  1  0  0  0  0
  5  1  1  0  0  0  0
  6 13  1  0  0  0  0
  7  6  1  0  0  0  0
  7 10  1  0  0  0  0
  8  7  1  0  0  0  0
  9  7  1  0  0  0  0
 10 12  1  0  0  0  0
 10 11  1  0  0  0  0
 13 15  1  0  0  0  0
 13 14  1  0  0  0  0
 16 17  1  0  0  0  0
 16 13  1  0  0  0  0
 18 16  1  0  0  0  0
M  END
