1
 OpenBabel05122313063D

 67 69  0  0  1  0  0  0  0  0999 V2000
    0.2074   -0.1581   -1.1845 P   0  0  0  0  0  2  0  0  0  0  0  0
    2.0258    0.5761    0.9031 N   0  0  0  0  0  0  0  0  0  0  0  0
    0.1588    1.7179    0.9600 N   0  0  0  0  0  0  0  0  0  0  0  0
    0.7850    0.6776    0.3082 C   0  0  1  0  0  3  0  0  0  0  0  0
   -2.2128    2.1497    1.4646 C   0  0  0  0  0  0  0  0  0  0  0  0
    2.1680    1.5439    1.8950 C   0  0  0  0  0  0  0  0  0  0  0  0
    3.0919    1.6373    2.4712 H   0  0  0  0  0  0  0  0  0  0  0  0
    1.0022    2.2545    1.9313 C   0  0  0  0  0  0  0  0  0  0  0  0
    0.6890    3.0996    2.5486 H   0  0  0  0  0  0  0  0  0  0  0  0
    3.2201   -1.5722    1.0018 C   0  0  0  0  0  0  0  0  0  0  0  0
   -2.1407    1.3181    2.7392 C   0  0  0  0  0  0  0  0  0  0  0  0
   -1.2443    0.6697    2.6690 H   0  0  0  0  0  0  0  0  0  0  0  0
   -1.1037    2.3149    0.5985 C   0  0  0  0  0  0  0  0  0  0  0  0
    3.1002   -0.2715    0.4538 C   0  0  0  0  0  0  0  0  0  0  0  0
   -3.4894    3.5976   -0.0345 C   0  0  0  0  0  0  0  0  0  0  0  0
   -4.4366    4.0958   -0.2901 H   0  0  0  0  0  0  0  0  0  0  0  0
    3.9923    0.2463   -0.5155 C   0  0  0  0  0  0  0  0  0  0  0  0
    4.2859   -2.3665    0.5425 C   0  0  0  0  0  0  0  0  0  0  0  0
    4.4071   -3.3849    0.9378 H   0  0  0  0  0  0  0  0  0  0  0  0
   -2.3772    3.7420   -0.8713 C   0  0  0  0  0  0  0  0  0  0  0  0
   -2.4527    4.3660   -1.7738 H   0  0  0  0  0  0  0  0  0  0  0  0
   -1.1527    3.1187   -0.5696 C   0  0  0  0  0  0  0  0  0  0  0  0
    5.0410   -0.5926   -0.9385 C   0  0  0  0  0  0  0  0  0  0  0  0
    5.7513   -0.2273   -1.6956 H   0  0  0  0  0  0  0  0  0  0  0  0
   -3.4025    2.8190    1.1237 C   0  0  0  0  0  0  0  0  0  0  0  0
   -4.2849    2.7067    1.7698 H   0  0  0  0  0  0  0  0  0  0  0  0
    0.0786    3.3989   -1.4241 C   0  0  0  0  0  0  0  0  0  0  0  0
    0.8376    2.6272   -1.1932 H   0  0  0  0  0  0  0  0  0  0  0  0
    5.1860   -1.8831   -0.4169 C   0  0  0  0  0  0  0  0  0  0  0  0
    6.0093   -2.5249   -0.7656 H   0  0  0  0  0  0  0  0  0  0  0  0
   -3.3595    0.3978    2.9148 C   0  0  0  0  0  0  0  0  0  0  0  0
   -4.2819    0.9756    3.1285 H   0  0  0  0  0  0  0  0  0  0  0  0
   -3.1941   -0.2916    3.7660 H   0  0  0  0  0  0  0  0  0  0  0  0
   -3.5430   -0.2153    2.0127 H   0  0  0  0  0  0  0  0  0  0  0  0
   -1.9752    2.2232    3.9753 C   0  0  0  0  0  0  0  0  0  0  0  0
   -1.0726    2.8628    3.9119 H   0  0  0  0  0  0  0  0  0  0  0  0
   -1.8938    1.6124    4.8974 H   0  0  0  0  0  0  0  0  0  0  0  0
   -2.8500    2.8964    4.0889 H   0  0  0  0  0  0  0  0  0  0  0  0
    3.8344    1.6422   -1.1069 C   0  0  0  0  0  0  0  0  0  0  0  0
    2.9946    2.1415   -0.5825 H   0  0  0  0  0  0  0  0  0  0  0  0
   -0.2035    3.2859   -2.9279 C   0  0  0  0  0  0  0  0  0  0  0  0
   -0.6228    2.2901   -3.1728 H   0  0  0  0  0  0  0  0  0  0  0  0
    0.7369    3.4104   -3.5018 H   0  0  0  0  0  0  0  0  0  0  0  0
   -0.9104    4.0640   -3.2820 H   0  0  0  0  0  0  0  0  0  0  0  0
    2.2475   -2.0692    2.0609 C   0  0  0  0  0  0  0  0  0  0  0  0
    1.2835   -1.5532    1.8836 H   0  0  0  0  0  0  0  0  0  0  0  0
    0.6819    4.7664   -1.0533 C   0  0  0  0  0  0  0  0  0  0  0  0
   -0.0283    5.5909   -1.2700 H   0  0  0  0  0  0  0  0  0  0  0  0
    1.6091    4.9533   -1.6339 H   0  0  0  0  0  0  0  0  0  0  0  0
    0.9380    4.8186    0.0246 H   0  0  0  0  0  0  0  0  0  0  0  0
    3.4601    1.5807   -2.5981 C   0  0  0  0  0  0  0  0  0  0  0  0
    4.2552    1.0887   -3.1953 H   0  0  0  0  0  0  0  0  0  0  0  0
    3.3184    2.6041   -3.0023 H   0  0  0  0  0  0  0  0  0  0  0  0
    2.5156    1.0201   -2.7475 H   0  0  0  0  0  0  0  0  0  0  0  0
    5.0864    2.5023   -0.8679 C   0  0  0  0  0  0  0  0  0  0  0  0
    5.3359    2.5661    0.2105 H   0  0  0  0  0  0  0  0  0  0  0  0
    4.9258    3.5326   -1.2455 H   0  0  0  0  0  0  0  0  0  0  0  0
    5.9723    2.0902   -1.3935 H   0  0  0  0  0  0  0  0  0  0  0  0
    1.9776   -3.5773    1.9850 C   0  0  0  0  0  0  0  0  0  0  0  0
    1.7117   -3.8969    0.9596 H   0  0  0  0  0  0  0  0  0  0  0  0
    1.1336   -3.8387    2.6533 H   0  0  0  0  0  0  0  0  0  0  0  0
    2.8549   -4.1713    2.3155 H   0  0  0  0  0  0  0  0  0  0  0  0
    2.7276   -1.6739    3.4710 C   0  0  0  0  0  0  0  0  0  0  0  0
    3.7003   -2.1546    3.7042 H   0  0  0  0  0  0  0  0  0  0  0  0
    1.9909   -1.9995    4.2330 H   0  0  0  0  0  0  0  0  0  0  0  0
    2.8587   -0.5788    3.5755 H   0  0  0  0  0  0  0  0  0  0  0  0
    1.3869   -0.9758   -1.2254 H   0  0  0  0  0  0  0  0  0  0  0  0
  2  6  1  0  0  0  0
  3  8  1  0  0  0  0
  4  1  1  6  0  0  0
  4  2  1  0  0  0  0
  4  3  1  0  0  0  0
  5 11  1  0  0  0  0
  6  8  2  0  0  0  0
  6  7  1  0  0  0  0
  8  9  1  0  0  0  0
 10 45  1  0  0  0  0
 11 31  1  0  0  0  0
 11 35  1  0  0  0  0
 12 11  1  0  0  0  0
 13  3  1  0  0  0  0
 13  5  2  0  0  0  0
 14  2  1  0  0  0  0
 14 10  2  0  0  0  0
 15 25  2  0  0  0  0
 16 15  1  0  0  0  0
 17 14  1  0  0  0  0
 18 19  1  0  0  0  0
 18 10  1  0  0  0  0
 20 22  2  0  0  0  0
 20 15  1  0  0  0  0
 21 20  1  0  0  0  0
 22 13  1  0  0  0  0
 23 17  2  0  0  0  0
 23 29  1  0  0  0  0
 24 23  1  0  0  0  0
 25  5  1  0  0  0  0
 25 26  1  0  0  0  0
 27 28  1  0  0  0  0
 27 47  1  0  0  0  0
 27 22  1  0  0  0  0
 29 18  2  0  0  0  0
 30 29  1  0  0  0  0
 31 32  1  0  0  0  0
 31 33  1  0  0  0  0
 34 31  1  0  0  0  0
 35 38  1  0  0  0  0
 35 37  1  0  0  0  0
 36 35  1  0  0  0  0
 39 55  1  0  0  0  0
 39 40  1  0  0  0  0
 39 17  1  0  0  0  0
 41 27  1  0  0  0  0
 42 41  1  0  0  0  0
 43 41  1  0  0  0  0
 44 41  1  0  0  0  0
 45 63  1  0  0  0  0
 46 45  1  0  0  0  0
 47 50  1  0  0  0  0
 48 47  1  0  0  0  0
 49 47  1  0  0  0  0
 51 39  1  0  0  0  0
 52 51  1  0  0  0  0
 53 51  1  0  0  0  0
 54 51  1  0  0  0  0
 55 56  1  0  0  0  0
 57 55  1  0  0  0  0
 58 55  1  0  0  0  0
 59 45  1  0  0  0  0
 59 62  1  0  0  0  0
 59 61  1  0  0  0  0
 60 59  1  0  0  0  0
 63 66  1  0  0  0  0
 63 64  1  0  0  0  0
 63 65  1  0  0  0  0
 67  1  1  0  0  0  0
M  END
