1
 OpenBabel05122313063D

 20 19  0  0  0  0  0  0  0  0999 V2000
   -1.1792   -0.6514    0.0509 P   0  0  1  0  0  0  0  0  0  0  0  0
   -1.6390   -1.4243    1.4578 O   0  0  0  0  0  0  0  0  0  0  0  0
   -0.9245   -1.3300    2.1167 H   0  0  0  0  0  0  0  0  0  0  0  0
   -1.7130   -1.8707   -1.1976 C   0  0  0  0  0  0  0  0  0  0  0  0
   -1.0497   -2.7529   -1.1193 H   0  0  0  0  0  0  0  0  0  0  0  0
   -1.6084   -1.4368   -2.2106 H   0  0  0  0  0  0  0  0  0  0  0  0
   -2.7613   -2.1802   -1.0210 H   0  0  0  0  0  0  0  0  0  0  0  0
   -2.3583    0.8014   -0.0536 C   0  0  0  0  0  0  0  0  0  0  0  0
   -2.0961    1.5286   -1.3826 C   0  0  0  0  0  0  0  0  0  0  0  0
   -2.7172    2.4474   -1.4297 H   0  0  0  0  0  0  0  0  0  0  0  0
   -2.3605    0.9052   -2.2606 H   0  0  0  0  0  0  0  0  0  0  0  0
   -1.0332    1.8322   -1.4790 H   0  0  0  0  0  0  0  0  0  0  0  0
   -2.0146    1.7144    1.1375 C   0  0  0  0  0  0  0  0  0  0  0  0
   -0.9637    2.0665    1.0892 H   0  0  0  0  0  0  0  0  0  0  0  0
   -2.1615    1.1885    2.1021 H   0  0  0  0  0  0  0  0  0  0  0  0
   -2.6779    2.6040    1.1293 H   0  0  0  0  0  0  0  0  0  0  0  0
   -3.8112    0.3123    0.0479 C   0  0  0  0  0  0  0  0  0  0  0  0
   -3.9675   -0.2987    0.9591 H   0  0  0  0  0  0  0  0  0  0  0  0
   -4.1137   -0.2866   -0.8344 H   0  0  0  0  0  0  0  0  0  0  0  0
   -4.4932    1.1864    0.1013 H   0  0  0  0  0  0  0  0  0  0  0  0
  1  2  1  1  0  0  0
  2  3  1  0  0  0  0
  4  5  1  0  0  0  0
  4  7  1  0  0  0  0
  4  1  1  0  0  0  0
  6  4  1  0  0  0  0
  8 17  1  0  0  0  0
  8  1  1  0  0  0  0
  8 13  1  0  0  0  0
  9  8  1  0  0  0  0
 10  9  1  0  0  0  0
 11  9  1  0  0  0  0
 12  9  1  0  0  0  0
 13 15  1  0  0  0  0
 14 13  1  0  0  0  0
 16 13  1  0  0  0  0
 17 20  1  0  0  0  0
 17 18  1  0  0  0  0
 19 17  1  0  0  0  0
M  END
