2
 OpenBabel05122313063D

 72 72  0  0  0  0  0  0  0  0999 V2000
    1.5071   -0.4829   -0.2030 P   0  0  0  0  0  4  0  0  0  0  0  0
   -0.3676    0.4767   -0.8766 P   0  0  0  0  0  2  0  0  0  0  0  0
    3.8137    1.8907    0.3080 Si  0  0  0  0  0  0  0  0  0  0  0  0
    2.0768    1.2405   -0.0886 C   0  0  0  0  0  0  0  0  0  0  0  0
    4.9777    0.4666    0.7989 C   0  0  0  0  0  0  0  0  0  0  0  0
    4.6628    2.7241   -1.1700 C   0  0  0  0  0  0  0  0  0  0  0  0
    3.8014    3.0335    1.8302 C   0  0  0  0  0  0  0  0  0  0  0  0
    0.8300    1.8029   -0.3843 C   0  0  0  0  0  0  0  0  0  0  0  0
    0.3955    3.2648   -0.4287 C   0  0  0  0  0  0  0  0  0  0  0  0
    1.5399    4.2257   -0.7879 C   0  0  0  0  0  0  0  0  0  0  0  0
   -0.7102    3.4532   -1.4892 C   0  0  0  0  0  0  0  0  0  0  0  0
    1.7524   -1.2488    1.3053 N   0  0  0  0  0  0  0  0  0  0  0  0
    2.1363   -1.5465   -1.3674 N   0  0  0  0  0  0  0  0  0  0  0  0
    0.7108    0.3291    3.0223 C   0  0  0  0  0  0  0  0  0  0  0  0
    1.9685   -0.3641    2.4849 C   0  0  0  0  0  0  0  0  0  0  0  0
    1.2115   -2.6300    1.4511 C   0  0  0  0  0  0  0  0  0  0  0  0
    3.4668   -2.1748   -1.1739 C   0  0  0  0  0  0  0  0  0  0  0  0
   -0.1542    3.6007    0.9797 C   0  0  0  0  0  0  0  0  0  0  0  0
    1.5783   -1.6555   -2.7500 C   0  0  0  0  0  0  0  0  0  0  0  0
    2.7697   -1.0339    3.6044 C   0  0  0  0  0  0  0  0  0  0  0  0
   -0.0563   -2.7314    2.3044 C   0  0  0  0  0  0  0  0  0  0  0  0
    1.6758   -0.3586   -3.5641 C   0  0  0  0  0  0  0  0  0  0  0  0
    2.2647   -3.6493    1.9231 C   0  0  0  0  0  0  0  0  0  0  0  0
    0.1786   -2.2755   -2.7843 C   0  0  0  0  0  0  0  0  0  0  0  0
    4.5445   -1.5716   -2.0878 C   0  0  0  0  0  0  0  0  0  0  0  0
    3.4064   -3.7004   -1.3442 C   0  0  0  0  0  0  0  0  0  0  0  0
    4.5755   -0.2034    1.5815 H   0  0  0  0  0  0  0  0  0  0  0  0
    5.9005    0.9314    1.2050 H   0  0  0  0  0  0  0  0  0  0  0  0
    5.2816   -0.1522   -0.0645 H   0  0  0  0  0  0  0  0  0  0  0  0
    4.2148    3.6966   -1.4456 H   0  0  0  0  0  0  0  0  0  0  0  0
    4.6117    2.0641   -2.0605 H   0  0  0  0  0  0  0  0  0  0  0  0
    5.7342    2.8926   -0.9339 H   0  0  0  0  0  0  0  0  0  0  0  0
    3.4165    2.4910    2.7181 H   0  0  0  0  0  0  0  0  0  0  0  0
    3.1909    3.9488    1.7124 H   0  0  0  0  0  0  0  0  0  0  0  0
    4.8416    3.3484    2.0564 H   0  0  0  0  0  0  0  0  0  0  0  0
    2.3490    4.2217   -0.0373 H   0  0  0  0  0  0  0  0  0  0  0  0
    1.1493    5.2619   -0.8418 H   0  0  0  0  0  0  0  0  0  0  0  0
    1.9734    3.9740   -1.7755 H   0  0  0  0  0  0  0  0  0  0  0  0
   -0.3140    3.2709   -2.5081 H   0  0  0  0  0  0  0  0  0  0  0  0
   -1.1063    4.4880   -1.4479 H   0  0  0  0  0  0  0  0  0  0  0  0
   -1.5608    2.7635   -1.3325 H   0  0  0  0  0  0  0  0  0  0  0  0
    0.1132    0.7563    2.1947 H   0  0  0  0  0  0  0  0  0  0  0  0
    1.0072    1.1628    3.6914 H   0  0  0  0  0  0  0  0  0  0  0  0
    0.0570   -0.3465    3.6017 H   0  0  0  0  0  0  0  0  0  0  0  0
    2.6072    0.4466    2.0902 H   0  0  0  0  0  0  0  0  0  0  0  0
    0.9296   -2.9179    0.4162 H   0  0  0  0  0  0  0  0  0  0  0  0
    3.7417   -1.9588   -0.1218 H   0  0  0  0  0  0  0  0  0  0  0  0
    0.6410    3.5065    1.7455 H   0  0  0  0  0  0  0  0  0  0  0  0
   -0.9801    2.9188    1.2587 H   0  0  0  0  0  0  0  0  0  0  0  0
   -0.5422    4.6398    0.9994 H   0  0  0  0  0  0  0  0  0  0  0  0
    2.2512   -2.3908   -3.2356 H   0  0  0  0  0  0  0  0  0  0  0  0
    3.6937   -1.5127    3.2265 H   0  0  0  0  0  0  0  0  0  0  0  0
    2.1790   -1.7942    4.1513 H   0  0  0  0  0  0  0  0  0  0  0  0
    3.0619   -0.2588    4.3409 H   0  0  0  0  0  0  0  0  0  0  0  0
   -0.8169   -1.9995    1.9827 H   0  0  0  0  0  0  0  0  0  0  0  0
    0.1542   -2.5695    3.3795 H   0  0  0  0  0  0  0  0  0  0  0  0
   -0.4932   -3.7437    2.1962 H   0  0  0  0  0  0  0  0  0  0  0  0
    2.7071    0.0431   -3.5634 H   0  0  0  0  0  0  0  0  0  0  0  0
    0.9913    0.4092   -3.1499 H   0  0  0  0  0  0  0  0  0  0  0  0
    1.3801   -0.5495   -4.6156 H   0  0  0  0  0  0  0  0  0  0  0  0
    3.2456   -3.4857    1.4401 H   0  0  0  0  0  0  0  0  0  0  0  0
    1.9242   -4.6738    1.6705 H   0  0  0  0  0  0  0  0  0  0  0  0
    2.4135   -3.6186    3.0183 H   0  0  0  0  0  0  0  0  0  0  0  0
    0.1346   -3.2063   -2.1865 H   0  0  0  0  0  0  0  0  0  0  0  0
   -0.0966   -2.5196   -3.8301 H   0  0  0  0  0  0  0  0  0  0  0  0
   -0.5880   -1.5741   -2.4010 H   0  0  0  0  0  0  0  0  0  0  0  0
    4.5664   -0.4677   -2.0162 H   0  0  0  0  0  0  0  0  0  0  0  0
    4.3751   -1.8403   -3.1499 H   0  0  0  0  0  0  0  0  0  0  0  0
    5.5446   -1.9584   -1.8066 H   0  0  0  0  0  0  0  0  0  0  0  0
    2.5982   -4.1477   -0.7377 H   0  0  0  0  0  0  0  0  0  0  0  0
    4.3675   -4.1562   -1.0323 H   0  0  0  0  0  0  0  0  0  0  0  0
    3.2379   -3.9878   -2.4019 H   0  0  0  0  0  0  0  0  0  0  0  0
  1  4  1  0  0  0  0
  1 12  1  0  0  0  0
  2  8  1  0  0  0  0
  2  1  1  0  0  0  0
  3  5  1  0  0  0  0
  3  7  1  0  0  0  0
  4  3  1  0  0  0  0
  5 28  1  0  0  0  0
  5 27  1  0  0  0  0
  6 32  1  0  0  0  0
  6  3  1  0  0  0  0
  7 35  1  0  0  0  0
  7 33  1  0  0  0  0
  8  4  2  0  0  0  0
  9  8  1  0  0  0  0
  9 18  1  0  0  0  0
 10  9  1  0  0  0  0
 10 36  1  0  0  0  0
 11 40  1  0  0  0  0
 11 41  1  0  0  0  0
 11  9  1  0  0  0  0
 12 16  1  0  0  0  0
 12 15  1  0  0  0  0
 13 17  1  0  0  0  0
 13  1  1  0  0  0  0
 14 44  1  0  0  0  0
 14 43  1  0  0  0  0
 15 14  1  0  0  0  0
 15 20  1  0  0  0  0
 16 23  1  0  0  0  0
 16 21  1  0  0  0  0
 17 47  1  0  0  0  0
 18 50  1  0  0  0  0
 18 49  1  0  0  0  0
 18 48  1  0  0  0  0
 19 13  1  0  0  0  0
 20 53  1  0  0  0  0
 20 54  1  0  0  0  0
 21 56  1  0  0  0  0
 22 58  1  0  0  0  0
 22 59  1  0  0  0  0
 22 19  1  0  0  0  0
 23 63  1  0  0  0  0
 24 19  1  0  0  0  0
 24 66  1  0  0  0  0
 24 64  1  0  0  0  0
 25 67  1  0  0  0  0
 25 69  1  0  0  0  0
 25 17  1  0  0  0  0
 26 17  1  0  0  0  0
 26 71  1  0  0  0  0
 26 70  1  0  0  0  0
 29  5  1  0  0  0  0
 30  6  1  0  0  0  0
 31  6  1  0  0  0  0
 34  7  1  0  0  0  0
 37 10  1  0  0  0  0
 38 10  1  0  0  0  0
 39 11  1  0  0  0  0
 42 14  1  0  0  0  0
 45 15  1  0  0  0  0
 46 16  1  0  0  0  0
 51 19  1  0  0  0  0
 52 20  1  0  0  0  0
 55 21  1  0  0  0  0
 57 21  1  0  0  0  0
 60 22  1  0  0  0  0
 61 23  1  0  0  0  0
 62 23  1  0  0  0  0
 65 24  1  0  0  0  0
 68 25  1  0  0  0  0
 72 26  1  0  0  0  0
M  END
