2
 OpenBabel05122313063D

 57 61  0  0  0  0  0  0  0  0999 V2000
   -2.0042   -0.3754   -0.0584 P   0  0  0  0  0  4  0  0  0  0  0  0
    1.4802   -0.5130    0.1983 P   0  0  0  0  0  0  0  0  0  0  0  0
   -1.3062   -0.8134   -2.0143 Se  0  0  0  0  0  1  0  0  0  0  0  0
   -1.1103   -1.2923    1.2847 C   0  0  0  0  0  0  0  0  0  0  0  0
    0.3090   -1.3313    1.3930 C   0  0  0  0  0  0  0  0  0  0  0  0
    0.8840   -2.0546    2.4598 C   0  0  0  0  0  0  0  0  0  0  0  0
    1.9781   -2.0805    2.5622 H   0  0  0  0  0  0  0  0  0  0  0  0
    0.0952   -2.7430    3.3929 C   0  0  0  0  0  0  0  0  0  0  0  0
    0.5789   -3.3026    4.2076 H   0  0  0  0  0  0  0  0  0  0  0  0
   -1.2986   -2.7123    3.2772 C   0  0  0  0  0  0  0  0  0  0  0  0
   -1.9342   -3.2464    3.9994 H   0  0  0  0  0  0  0  0  0  0  0  0
   -1.8899   -1.9884    2.2320 C   0  0  0  0  0  0  0  0  0  0  0  0
   -2.9854   -1.9621    2.1494 H   0  0  0  0  0  0  0  0  0  0  0  0
   -1.9495    1.3849    0.4519 C   0  0  0  0  0  0  0  0  0  0  0  0
   -2.3460    2.3527   -0.4907 C   0  0  0  0  0  0  0  0  0  0  0  0
   -2.6145    2.0362   -1.5105 H   0  0  0  0  0  0  0  0  0  0  0  0
   -2.3302    3.7078   -0.1413 C   0  0  0  0  0  0  0  0  0  0  0  0
   -2.6055    4.4656   -0.8888 H   0  0  0  0  0  0  0  0  0  0  0  0
   -1.9256    4.0996    1.1448 C   0  0  0  0  0  0  0  0  0  0  0  0
   -1.8925    5.1674    1.4076 H   0  0  0  0  0  0  0  0  0  0  0  0
   -1.5397    3.1345    2.0873 C   0  0  0  0  0  0  0  0  0  0  0  0
   -1.2123    3.4426    3.0918 H   0  0  0  0  0  0  0  0  0  0  0  0
   -1.5507    1.7732    1.7470 C   0  0  0  0  0  0  0  0  0  0  0  0
   -1.2353    1.0165    2.4807 H   0  0  0  0  0  0  0  0  0  0  0  0
   -3.7758   -0.8392    0.1653 C   0  0  0  0  0  0  0  0  0  0  0  0
   -4.2802   -1.9445   -0.5462 C   0  0  0  0  0  0  0  0  0  0  0  0
   -3.6118   -2.4805   -1.2394 H   0  0  0  0  0  0  0  0  0  0  0  0
   -5.6197   -2.3260   -0.3871 C   0  0  0  0  0  0  0  0  0  0  0  0
   -6.0114   -3.1898   -0.9455 H   0  0  0  0  0  0  0  0  0  0  0  0
   -6.4625   -1.6007    0.4720 C   0  0  0  0  0  0  0  0  0  0  0  0
   -7.5163   -1.8964    0.5886 H   0  0  0  0  0  0  0  0  0  0  0  0
   -5.9637   -0.4909    1.1722 C   0  0  0  0  0  0  0  0  0  0  0  0
   -6.6249    0.0870    1.8358 H   0  0  0  0  0  0  0  0  0  0  0  0
   -4.6216   -0.1075    1.0229 C   0  0  0  0  0  0  0  0  0  0  0  0
   -4.2323    0.7658    1.5677 H   0  0  0  0  0  0  0  0  0  0  0  0
    1.8357   -1.7948   -1.0648 C   0  0  0  0  0  0  0  0  0  0  0  0
    2.4335   -1.3742   -2.2698 C   0  0  0  0  0  0  0  0  0  0  0  0
    2.6064   -0.3000   -2.4430 H   0  0  0  0  0  0  0  0  0  0  0  0
    2.7747   -2.3185   -3.2470 C   0  0  0  0  0  0  0  0  0  0  0  0
    3.2349   -1.9847   -4.1891 H   0  0  0  0  0  0  0  0  0  0  0  0
    2.5174   -3.6827   -3.0306 C   0  0  0  0  0  0  0  0  0  0  0  0
    2.7777   -4.4217   -3.8035 H   0  0  0  0  0  0  0  0  0  0  0  0
    1.9204   -4.1012   -1.8312 C   0  0  0  0  0  0  0  0  0  0  0  0
    1.7094   -5.1681   -1.6618 H   0  0  0  0  0  0  0  0  0  0  0  0
    1.5804   -3.1616   -0.8461 C   0  0  0  0  0  0  0  0  0  0  0  0
    1.1001   -3.4921    0.0866 H   0  0  0  0  0  0  0  0  0  0  0  0
    3.0451   -0.4346    1.1780 C   0  0  0  0  0  0  0  0  0  0  0  0
    3.2045    0.6463    2.0708 C   0  0  0  0  0  0  0  0  0  0  0  0
    2.4136    1.4103    2.1425 H   0  0  0  0  0  0  0  0  0  0  0  0
    4.3694    0.7575    2.8411 C   0  0  0  0  0  0  0  0  0  0  0  0
    4.4863    1.6042    3.5343 H   0  0  0  0  0  0  0  0  0  0  0  0
    5.3925   -0.1976    2.7137 C   0  0  0  0  0  0  0  0  0  0  0  0
    6.3124   -0.1024    3.3104 H   0  0  0  0  0  0  0  0  0  0  0  0
    5.2453   -1.2642    1.8141 C   0  0  0  0  0  0  0  0  0  0  0  0
    6.0493   -2.0076    1.7024 H   0  0  0  0  0  0  0  0  0  0  0  0
    4.0744   -1.3876    1.0483 C   0  0  0  0  0  0  0  0  0  0  0  0
    3.9624   -2.2247    0.3432 H   0  0  0  0  0  0  0  0  0  0  0  0
  1 25  1  0  0  0  0
  1 14  1  0  0  0  0
  1  4  1  0  0  0  0
  2 47  1  0  0  0  0
  2  5  1  0  0  0  0
  3  1  1  0  0  0  0
  4  5  2  0  0  0  0
  4 12  1  0  0  0  0
  5  6  1  0  0  0  0
  6  7  1  0  0  0  0
  6  8  2  0  0  0  0
  8  9  1  0  0  0  0
 10  8  1  0  0  0  0
 10 11  1  0  0  0  0
 12 10  2  0  0  0  0
 13 12  1  0  0  0  0
 14 23  1  0  0  0  0
 15 17  1  0  0  0  0
 15 14  2  0  0  0  0
 16 15  1  0  0  0  0
 17 19  2  0  0  0  0
 18 17  1  0  0  0  0
 19 20  1  0  0  0  0
 19 21  1  0  0  0  0
 21 22  1  0  0  0  0
 23 21  2  0  0  0  0
 23 24  1  0  0  0  0
 25 34  1  0  0  0  0
 26 28  1  0  0  0  0
 26 25  2  0  0  0  0
 27 26  1  0  0  0  0
 28 30  2  0  0  0  0
 29 28  1  0  0  0  0
 30 31  1  0  0  0  0
 30 32  1  0  0  0  0
 32 33  1  0  0  0  0
 34 32  2  0  0  0  0
 34 35  1  0  0  0  0
 36 45  1  0  0  0  0
 36  2  1  0  0  0  0
 37 36  2  0  0  0  0
 38 37  1  0  0  0  0
 39 41  2  0  0  0  0
 39 37  1  0  0  0  0
 40 39  1  0  0  0  0
 41 43  1  0  0  0  0
 42 41  1  0  0  0  0
 43 44  1  0  0  0  0
 43 45  2  0  0  0  0
 45 46  1  0  0  0  0
 47 48  1  0  0  0  0
 48 49  1  0  0  0  0
 48 50  2  0  0  0  0
 50 51  1  0  0  0  0
 52 50  1  0  0  0  0
 52 53  1  0  0  0  0
 54 52  2  0  0  0  0
 55 54  1  0  0  0  0
 56 47  2  0  0  0  0
 56 54  1  0  0  0  0
 57 56  1  0  0  0  0
M  END
