1
 OpenBabel05122313063D

 34 36  0  0  1  0  0  0  0  0999 V2000
   -0.6996    0.4842   -0.0000 P   0  0  2  0  0  0  0  0  0  0  0  0
    0.3347    2.8377    1.2195 N   0  0  2  0  0  0  0  0  0  0  0  0
    2.0770    1.7040    0.0000 N   0  0  0  0  0  0  0  0  0  0  0  0
    0.3347    2.8377   -1.2195 N   0  0  1  0  0  0  0  0  0  0  0  0
   -2.4688   -0.0087   -0.0000 C   0  0  0  0  0  0  0  0  0  0  0  0
   -2.7952   -1.3810    0.0000 C   0  0  0  0  0  0  0  0  0  0  0  0
   -4.1365   -1.7911    0.0001 C   0  0  0  0  0  0  0  0  0  0  0  0
   -5.1661   -0.8371    0.0000 C   0  0  0  0  0  0  0  0  0  0  0  0
   -4.8514    0.5319   -0.0000 C   0  0  0  0  0  0  0  0  0  0  0  0
   -3.5116    0.9449   -0.0001 C   0  0  0  0  0  0  0  0  0  0  0  0
   -0.5760    1.7310    1.4390 C   0  0  0  0  0  0  0  0  0  0  0  0
   -0.5760    1.7310   -1.4390 C   0  0  0  0  0  0  0  0  0  0  0  0
    0.0251    3.5878   -0.0000 C   0  0  0  0  0  0  0  0  0  0  0  0
    1.7403    2.4619    1.2043 C   0  0  0  0  0  0  0  0  0  0  0  0
    3.4167    1.1489    0.0000 C   0  0  0  0  0  0  0  0  0  0  0  0
    1.7403    2.4619   -1.2042 C   0  0  0  0  0  0  0  0  0  0  0  0
   -1.9799   -2.1231    0.0001 H   0  0  0  0  0  0  0  0  0  0  0  0
   -4.3773   -2.8649    0.0001 H   0  0  0  0  0  0  0  0  0  0  0  0
   -6.2183   -1.1598    0.0000 H   0  0  0  0  0  0  0  0  0  0  0  0
   -5.6551    1.2838   -0.0001 H   0  0  0  0  0  0  0  0  0  0  0  0
   -3.2858    2.0237   -0.0001 H   0  0  0  0  0  0  0  0  0  0  0  0
   -0.2832    1.1639    2.3443 H   0  0  0  0  0  0  0  0  0  0  0  0
   -1.6001    2.1264    1.6041 H   0  0  0  0  0  0  0  0  0  0  0  0
   -1.6001    2.1264   -1.6042 H   0  0  0  0  0  0  0  0  0  0  0  0
   -0.2831    1.1639   -2.3443 H   0  0  0  0  0  0  0  0  0  0  0  0
    0.6321    4.5167   -0.0000 H   0  0  0  0  0  0  0  0  0  0  0  0
   -1.0477    3.8703   -0.0000 H   0  0  0  0  0  0  0  0  0  0  0  0
    1.9728    1.8371    2.0912 H   0  0  0  0  0  0  0  0  0  0  0  0
    2.3432    3.4070    1.2820 H   0  0  0  0  0  0  0  0  0  0  0  0
    3.5562    0.5040   -0.8903 H   0  0  0  0  0  0  0  0  0  0  0  0
    4.2183    1.9323    0.0002 H   0  0  0  0  0  0  0  0  0  0  0  0
    3.5561    0.5038    0.8903 H   0  0  0  0  0  0  0  0  0  0  0  0
    1.9728    1.8371   -2.0912 H   0  0  0  0  0  0  0  0  0  0  0  0
    2.3432    3.4070   -1.2819 H   0  0  0  0  0  0  0  0  0  0  0  0
  1  5  1  1  0  0  0
  1 11  1  0  0  0  0
  2 13  1  6  0  0  0
  2 11  1  0  0  0  0
  3 15  1  0  0  0  0
  3 14  1  0  0  0  0
  4 12  1  1  0  0  0
  4 16  1  0  0  0  0
  4 13  1  0  0  0  0
  5  6  1  0  0  0  0
  6  7  2  0  0  0  0
  6 17  1  0  0  0  0
  7 18  1  0  0  0  0
  8 19  1  0  0  0  0
  8  7  1  0  0  0  0
  9  8  2  0  0  0  0
 10  9  1  0  0  0  0
 10  5  2  0  0  0  0
 11 23  1  0  0  0  0
 11 22  1  0  0  0  0
 12  1  1  0  0  0  0
 13 26  1  0  0  0  0
 14  2  1  0  0  0  0
 14 29  1  0  0  0  0
 14 28  1  0  0  0  0
 15 31  1  0  0  0  0
 15 32  1  0  0  0  0
 16  3  1  0  0  0  0
 20  9  1  0  0  0  0
 21 10  1  0  0  0  0
 24 12  1  0  0  0  0
 25 12  1  0  0  0  0
 27 13  1  0  0  0  0
 30 15  1  0  0  0  0
 33 16  1  0  0  0  0
 34 16  1  0  0  0  0
M  END
