1
 OpenBabel05122313063D

 37 38  0  0  0  0  0  0  0  0999 V2000
   -0.7840    0.0097    0.4270 P   0  0  0  0  0  0  0  0  0  0  0  0
    2.0462   -1.0715    2.7854 O   0  0  0  0  0  0  0  0  0  0  0  0
    3.1166    0.6817    1.7657 N   0  0  0  0  0  0  0  0  0  0  0  0
   -2.0482   -1.3004    0.2368 C   0  0  0  0  0  0  0  0  0  0  0  0
   -2.2716   -1.8147   -1.0579 C   0  0  0  0  0  0  0  0  0  0  0  0
   -3.2497   -2.7959   -1.2660 C   0  0  0  0  0  0  0  0  0  0  0  0
   -4.0048   -3.2789   -0.1843 C   0  0  0  0  0  0  0  0  0  0  0  0
   -3.7785   -2.7786    1.1068 C   0  0  0  0  0  0  0  0  0  0  0  0
   -2.8041   -1.7908    1.3208 C   0  0  0  0  0  0  0  0  0  0  0  0
   -1.6678    1.5718    0.0207 C   0  0  0  0  0  0  0  0  0  0  0  0
   -0.9845    2.5985   -0.6608 C   0  0  0  0  0  0  0  0  0  0  0  0
   -1.6288    3.8172   -0.9252 C   0  0  0  0  0  0  0  0  0  0  0  0
   -2.9578    4.0127   -0.5196 C   0  0  0  0  0  0  0  0  0  0  0  0
   -3.6457    2.9871    0.1510 C   0  0  0  0  0  0  0  0  0  0  0  0
   -3.0053    1.7699    0.4218 C   0  0  0  0  0  0  0  0  0  0  0  0
   -0.4660    0.1595    2.2468 C   0  0  0  0  0  0  0  0  0  0  0  0
    0.7995    0.9745    2.5307 C   0  0  0  0  0  0  0  0  0  0  0  0
    2.0437    0.0859    2.3638 C   0  0  0  0  0  0  0  0  0  0  0  0
    4.3347   -0.0422    1.4526 C   0  0  0  0  0  0  0  0  0  0  0  0
    2.9698    1.5902    1.3247 H   0  0  0  0  0  0  0  0  0  0  0  0
   -1.6629   -1.4485   -1.8999 H   0  0  0  0  0  0  0  0  0  0  0  0
   -3.4158   -3.1941   -2.2782 H   0  0  0  0  0  0  0  0  0  0  0  0
   -4.7671   -4.0556   -0.3478 H   0  0  0  0  0  0  0  0  0  0  0  0
   -4.3610   -3.1619    1.9582 H   0  0  0  0  0  0  0  0  0  0  0  0
   -2.6327   -1.4140    2.3395 H   0  0  0  0  0  0  0  0  0  0  0  0
    0.0519    2.4272   -0.9945 H   0  0  0  0  0  0  0  0  0  0  0  0
   -1.0902    4.6137   -1.4602 H   0  0  0  0  0  0  0  0  0  0  0  0
   -3.4647    4.9658   -0.7340 H   0  0  0  0  0  0  0  0  0  0  0  0
   -4.6916    3.1346    0.4602 H   0  0  0  0  0  0  0  0  0  0  0  0
   -3.5533    0.9634    0.9342 H   0  0  0  0  0  0  0  0  0  0  0  0
   -1.3651    0.6035    2.7189 H   0  0  0  0  0  0  0  0  0  0  0  0
   -0.3037   -0.8626    2.6500 H   0  0  0  0  0  0  0  0  0  0  0  0
    0.8500    1.8951    1.9109 H   0  0  0  0  0  0  0  0  0  0  0  0
    0.7804    1.3032    3.5916 H   0  0  0  0  0  0  0  0  0  0  0  0
    5.2286    0.5099    1.8088 H   0  0  0  0  0  0  0  0  0  0  0  0
    4.4153   -0.2203    0.3584 H   0  0  0  0  0  0  0  0  0  0  0  0
    4.2776   -1.0182    1.9690 H   0  0  0  0  0  0  0  0  0  0  0  0
  1 16  1  0  0  0  0
  3 18  1  0  0  0  0
  4  1  1  0  0  0  0
  4  9  1  0  0  0  0
  5  4  2  0  0  0  0
  6  5  1  0  0  0  0
  6  7  2  0  0  0  0
  7  8  1  0  0  0  0
  8  9  2  0  0  0  0
  8 24  1  0  0  0  0
  9 25  1  0  0  0  0
 10 15  1  0  0  0  0
 10  1  1  0  0  0  0
 11 10  2  0  0  0  0
 12 11  1  0  0  0  0
 12 13  2  0  0  0  0
 13 14  1  0  0  0  0
 14 15  2  0  0  0  0
 14 29  1  0  0  0  0
 15 30  1  0  0  0  0
 16 17  1  0  0  0  0
 16 32  1  0  0  0  0
 16 31  1  0  0  0  0
 17 34  1  0  0  0  0
 18 17  1  0  0  0  0
 18  2  2  0  0  0  0
 19  3  1  0  0  0  0
 19 35  1  0  0  0  0
 19 37  1  0  0  0  0
 20  3  1  0  0  0  0
 21  5  1  0  0  0  0
 22  6  1  0  0  0  0
 23  7  1  0  0  0  0
 26 11  1  0  0  0  0
 27 12  1  0  0  0  0
 28 13  1  0  0  0  0
 33 17  1  0  0  0  0
 36 19  1  0  0  0  0
M  END
