38
 OpenBabel05122313063D

 38 40  0  0  0  0  0  0  0  0999 V2000
   -0.7736   -2.1966   -2.9817 C   0  0  0  0  0  3  0  0  0  0  0  0
   -0.7428   -2.7256   -3.9404 H   0  0  0  0  0  0  0  0  0  0  0  0
   -1.5208   -1.1810   -1.1575 C   0  0  0  0  0  0  0  0  0  0  0  0
   -0.1251   -1.1627   -1.1070 C   0  0  0  0  0  0  0  0  0  0  0  0
    1.6771   -2.0419   -2.7258 C   0  0  0  0  0  0  0  0  0  0  0  0
    1.6368   -2.5951   -3.6806 H   0  0  0  0  0  0  0  0  0  0  0  0
    2.2335   -2.6294   -1.9744 H   0  0  0  0  0  0  0  0  0  0  0  0
    2.1961   -1.0780   -2.8747 H   0  0  0  0  0  0  0  0  0  0  0  0
   -3.2596   -2.0654   -2.7934 C   0  0  0  0  0  0  0  0  0  0  0  0
   -3.2233   -2.6216   -3.7464 H   0  0  0  0  0  0  0  0  0  0  0  0
   -3.7709   -1.0959   -2.9473 H   0  0  0  0  0  0  0  0  0  0  0  0
   -3.8154   -2.6538   -2.0390 H   0  0  0  0  0  0  0  0  0  0  0  0
    2.6072   -0.5922   -0.1326 C   0  0  0  0  0  0  0  0  0  0  0  0
    3.3501    0.3568   -0.8672 C   0  0  0  0  0  0  0  0  0  0  0  0
    2.8662    1.2866   -1.2085 H   0  0  0  0  0  0  0  0  0  0  0  0
    4.7049    0.1186   -1.1421 C   0  0  0  0  0  0  0  0  0  0  0  0
    5.2846    0.8606   -1.7109 H   0  0  0  0  0  0  0  0  0  0  0  0
    5.3224   -1.0523   -0.6723 C   0  0  0  0  0  0  0  0  0  0  0  0
    6.3877   -1.2323   -0.8804 H   0  0  0  0  0  0  0  0  0  0  0  0
    4.5903   -1.9820    0.0862 C   0  0  0  0  0  0  0  0  0  0  0  0
    5.0828   -2.8847    0.4772 H   0  0  0  0  0  0  0  0  0  0  0  0
    3.2340   -1.7549    0.3629 C   0  0  0  0  0  0  0  0  0  0  0  0
    2.6700   -2.4737    0.9761 H   0  0  0  0  0  0  0  0  0  0  0  0
    0.3866   -1.1216    1.7112 C   0  0  0  0  0  0  0  0  0  0  0  0
    0.1029   -2.5033    1.7362 C   0  0  0  0  0  0  0  0  0  0  0  0
    0.1029   -3.0911    0.8047 H   0  0  0  0  0  0  0  0  0  0  0  0
   -0.1969   -3.1304    2.9537 C   0  0  0  0  0  0  0  0  0  0  0  0
   -0.4226   -4.2069    2.9739 H   0  0  0  0  0  0  0  0  0  0  0  0
   -0.2118   -2.3845    4.1442 C   0  0  0  0  0  0  0  0  0  0  0  0
   -0.4500   -2.8791    5.0975 H   0  0  0  0  0  0  0  0  0  0  0  0
    0.0681   -1.0087    4.1191 C   0  0  0  0  0  0  0  0  0  0  0  0
    0.0486   -0.4229    5.0499 H   0  0  0  0  0  0  0  0  0  0  0  0
    0.3634   -0.3719    2.9053 C   0  0  0  0  0  0  0  0  0  0  0  0
    0.5651    0.7108    2.8788 H   0  0  0  0  0  0  0  0  0  0  0  0
   -2.8839   -0.3626    0.1650 I   0  0  0  0  0  0  0  0  0  0  0  0
    0.3028   -1.8080   -2.2711 N   0  0  0  0  0  0  0  0  0  0  0  0
   -1.8936   -1.8321   -2.3274 N   0  0  0  0  0  0  0  0  0  0  0  0
    0.8402   -0.2399    0.1781 P   0  0  0  0  0  0  0  0  0  0  0  0
  1 37  1  0  0  0  0
  1 36  1  0  0  0  0
  2  1  1  0  0  0  0
  3  4  2  0  0  0  0
  3 35  1  0  0  0  0
  4 38  1  0  0  0  0
  5 36  1  0  0  0  0
  5  7  1  0  0  0  0
  6  5  1  0  0  0  0
  8  5  1  0  0  0  0
  9 37  1  0  0  0  0
  9 12  1  0  0  0  0
 10  9  1  0  0  0  0
 11  9  1  0  0  0  0
 13 38  1  0  0  0  0
 13 22  1  0  0  0  0
 14 13  2  0  0  0  0
 15 14  1  0  0  0  0
 16 14  1  0  0  0  0
 16 18  2  0  0  0  0
 17 16  1  0  0  0  0
 18 20  1  0  0  0  0
 19 18  1  0  0  0  0
 20 22  2  0  0  0  0
 20 21  1  0  0  0  0
 22 23  1  0  0  0  0
 24 25  2  0  0  0  0
 24 33  1  0  0  0  0
 25 27  1  0  0  0  0
 26 25  1  0  0  0  0
 27 28  1  0  0  0  0
 27 29  2  0  0  0  0
 29 30  1  0  0  0  0
 31 29  1  0  0  0  0
 31 32  1  0  0  0  0
 33 31  2  0  0  0  0
 34 33  1  0  0  0  0
 36  4  1  0  0  0  0
 37  3  1  0  0  0  0
 38 24  1  0  0  0  0
M  END
