2
q = 0.0, confidence = 0.998

 36 36  0  0  1  0  0  0  0  0999 V2000
    1.2254   -1.4594   -0.1509 Se  0  0  0  0  0  0  0  0  0  0  0  0
   -0.2113    0.2285    0.4205 P   0  0  2  0  0  0  0  0  0  0  0  0
    2.6389    1.3644   -0.2379 P   0  0  0  0  0  2  0  0  0  0  0  0
    0.7570    1.6089   -0.4175 C   0  0  2  0  0  0  0  0  0  0  0  0
    0.5395    1.4125   -1.4942 H   0  0  0  0  0  0  0  0  0  0  0  0
    2.7758   -0.3300   -0.1338 C   0  0  2  0  0  3  0  0  0  0  0  0
    0.1487    0.4100    2.2238 C   0  0  0  0  0  0  0  0  0  0  0  0
   -0.0881   -0.5525    2.7150 H   0  0  0  0  0  0  0  0  0  0  0  0
   -0.5041    1.1949    2.6539 H   0  0  0  0  0  0  0  0  0  0  0  0
    1.2120    0.6670    2.3925 H   0  0  0  0  0  0  0  0  0  0  0  0
    0.3922    3.1117   -0.1248 C   0  0  0  0  0  0  0  0  0  0  0  0
   -1.1199    3.3696   -0.2156 C   0  0  0  0  0  0  0  0  0  0  0  0
   -1.6884    2.8078    0.5497 H   0  0  0  0  0  0  0  0  0  0  0  0
   -1.5217    3.1080   -1.2117 H   0  0  0  0  0  0  0  0  0  0  0  0
   -1.3219    4.4468   -0.0456 H   0  0  0  0  0  0  0  0  0  0  0  0
    1.0856    3.9641   -1.2119 C   0  0  0  0  0  0  0  0  0  0  0  0
    2.1892    3.8598   -1.1804 H   0  0  0  0  0  0  0  0  0  0  0  0
    0.8430    5.0361   -1.0643 H   0  0  0  0  0  0  0  0  0  0  0  0
    0.7426    3.6736   -2.2260 H   0  0  0  0  0  0  0  0  0  0  0  0
    0.8917    3.5730    1.2592 C   0  0  0  0  0  0  0  0  0  0  0  0
    1.9741    3.3698    1.3960 H   0  0  0  0  0  0  0  0  0  0  0  0
    0.3431    3.0835    2.0854 H   0  0  0  0  0  0  0  0  0  0  0  0
    0.7382    4.6658    1.3658 H   0  0  0  0  0  0  0  0  0  0  0  0
    4.1230   -1.0501   -0.0311 C   0  0  0  0  0  0  0  0  0  0  0  0
    4.2251   -1.7292    1.3555 C   0  0  0  0  0  0  0  0  0  0  0  0
    5.1925   -2.2644    1.4453 H   0  0  0  0  0  0  0  0  0  0  0  0
    3.4068   -2.4603    1.5096 H   0  0  0  0  0  0  0  0  0  0  0  0
    4.1676   -0.9752    2.1659 H   0  0  0  0  0  0  0  0  0  0  0  0
    4.2205   -2.1210   -1.1420 C   0  0  0  0  0  0  0  0  0  0  0  0
    5.1983   -2.6408   -1.0821 H   0  0  0  0  0  0  0  0  0  0  0  0
    4.1293   -1.6617   -2.1463 H   0  0  0  0  0  0  0  0  0  0  0  0
    3.4269   -2.8905   -1.0430 H   0  0  0  0  0  0  0  0  0  0  0  0
    5.2946   -0.0622   -0.1889 C   0  0  0  0  0  0  0  0  0  0  0  0
    6.2565   -0.6079   -0.1091 H   0  0  0  0  0  0  0  0  0  0  0  0
    5.2776    0.7169    0.5996 H   0  0  0  0  0  0  0  0  0  0  0  0
    5.2657    0.4467   -1.1731 H   0  0  0  0  0  0  0  0  0  0  0  0
  1  6  1  0  0  0  0
  1  2  1  0  0  0  0
  2  7  1  1  0  0  0
  3  6  1  0  0  0  0
  4  5  1  6  0  0  0
  4  3  1  0  0  0  0
  4 11  1  0  0  0  0
  4  2  1  0  0  0  0
  6 24  1  6  0  0  0
  7 10  1  0  0  0  0
  7  9  1  0  0  0  0
  7  8  1  0  0  0  0
 11 20  1  0  0  0  0
 12 11  1  0  0  0  0
 12 15  1  0  0  0  0
 12 13  1  0  0  0  0
 14 12  1  0  0  0  0
 16 17  1  0  0  0  0
 16 18  1  0  0  0  0
 16 11  1  0  0  0  0
 19 16  1  0  0  0  0
 20 23  1  0  0  0  0
 20 21  1  0  0  0  0
 20 22  1  0  0  0  0
 24 25  1  0  0  0  0
 25 26  1  0  0  0  0
 25 27  1  0  0  0  0
 25 28  1  0  0  0  0
 29 30  1  0  0  0  0
 29 32  1  0  0  0  0
 29 24  1  0  0  0  0
 31 29  1  0  0  0  0
 33 34  1  0  0  0  0
 33 24  1  0  0  0  0
 33 35  1  0  0  0  0
 36 33  1  0  0  0  0
M  END
