1
q = 0.0, confidence = 0.998

 20 20  0  0  0  0  0  0  0  0999 V2000
    0.7284    0.5386    0.0311 P   0  0  2  0  0  0  0  0  0  0  0  0
    2.0649   -1.7216    1.4241 S   0  0  0  0  0  0  0  0  0  0  0  0
    2.4971   -1.2926   -1.4140 S   0  0  0  0  0  0  0  0  0  0  0  0
    2.6979   -2.1430   -0.0755 N   0  0  0  0  0  2  0  0  0  0  0  0
    1.6921   -0.0419    1.3994 N   0  0  0  0  0  0  0  0  0  0  0  0
    1.6315    0.0417   -1.3577 N   0  0  0  0  0  2  0  0  0  0  0  0
    1.1854    2.3763    0.0812 C   0  0  0  0  0  0  0  0  0  0  0  0
    0.7177    2.9604    1.4242 C   0  0  0  0  0  0  0  0  0  0  0  0
    2.7037    2.5532   -0.0905 C   0  0  0  0  0  0  0  0  0  0  0  0
    0.4551    3.0351   -1.1017 C   0  0  0  0  0  0  0  0  0  0  0  0
    2.5576    0.5080    1.5077 H   0  0  0  0  0  0  0  0  0  0  0  0
   -0.3764    2.8793    1.5597 H   0  0  0  0  0  0  0  0  0  0  0  0
    0.9767    4.0393    1.4595 H   0  0  0  0  0  0  0  0  0  0  0  0
    1.2072    2.4659    2.2865 H   0  0  0  0  0  0  0  0  0  0  0  0
    3.0661    2.0577   -1.0118 H   0  0  0  0  0  0  0  0  0  0  0  0
    3.2856    2.1687    0.7738 H   0  0  0  0  0  0  0  0  0  0  0  0
    2.9366    3.6357   -0.1640 H   0  0  0  0  0  0  0  0  0  0  0  0
   -0.6445    2.9829   -0.9914 H   0  0  0  0  0  0  0  0  0  0  0  0
    0.7336    2.5618   -2.0642 H   0  0  0  0  0  0  0  0  0  0  0  0
    0.7370    4.1074   -1.1521 H   0  0  0  0  0  0  0  0  0  0  0  0
  1  7  1  1  0  0  0
  1  5  1  0  0  0  0
  3  6  1  0  0  0  0
  3  4  1  0  0  0  0
  4  2  1  0  0  0  0
  5  2  1  0  0  0  0
  5 11  1  0  0  0  0
  6  1  1  0  0  0  0
  7  8  1  0  0  0  0
  8 13  1  0  0  0  0
  8 12  1  0  0  0  0
  8 14  1  0  0  0  0
  9  7  1  0  0  0  0
  9 16  1  0  0  0  0
 10 18  1  0  0  0  0
 10  7  1  0  0  0  0
 15  9  1  0  0  0  0
 17  9  1  0  0  0  0
 19 10  1  0  0  0  0
 20 10  1  0  0  0  0
M  END
