1
q = 0.0, confidence = 0.99

 34 36  0  0  1  0  0  0  0  0999 V2000
   -0.5522    0.6400   -0.0029 P   0  0  1  0  0  0  0  0  0  0  0  0
   -0.8332    2.3622    0.1042 N   0  0  2  0  0  0  0  0  0  0  0  0
   -1.6058    0.3384    1.3676 N   0  0  2  0  0  0  0  0  0  0  0  0
   -3.3492   -1.2464   -0.0040 N   0  3  1  0  0  0  0  0  0  0  0  0
   -1.4871    0.4647   -1.4437 N   0  0  1  0  0  0  0  0  0  0  0  0
   -1.6762    2.6908    1.2709 C   0  0  0  0  0  0  0  0  0  0  0  0
   -1.5932    1.5082    2.2409 C   0  0  0  0  0  0  0  0  0  0  0  0
   -1.7840   -1.0027    1.9068 C   0  0  0  0  0  0  0  0  0  0  0  0
   -2.3012   -1.9390    0.8008 C   0  0  0  0  0  0  0  0  0  0  0  0
   -3.1845   -1.3844   -1.4736 C   0  0  0  0  0  0  0  0  0  0  0  0
   -1.8447   -0.8275   -1.9996 C   0  0  0  0  0  0  0  0  0  0  0  0
   -2.2457    1.6765   -1.7497 C   0  0  0  0  0  0  0  0  0  0  0  0
   -1.3487    2.8040   -1.2023 C   0  0  0  0  0  0  0  0  0  0  0  0
   -4.8606   -1.5716    0.5104 B   0  0  0  0  0  0  0  0  0  0  0  0
   -1.3313    3.6326    1.7467 H   0  0  0  0  0  0  0  0  0  0  0  0
   -2.7394    2.8282    0.9639 H   0  0  0  0  0  0  0  0  0  0  0  0
   -2.4684    1.4860    2.9232 H   0  0  0  0  0  0  0  0  0  0  0  0
   -0.6740    1.5629    2.8726 H   0  0  0  0  0  0  0  0  0  0  0  0
   -0.8555   -1.4381    2.3461 H   0  0  0  0  0  0  0  0  0  0  0  0
   -2.5404   -0.9353    2.7157 H   0  0  0  0  0  0  0  0  0  0  0  0
   -2.7392   -2.8570    1.2354 H   0  0  0  0  0  0  0  0  0  0  0  0
   -1.4649   -2.2467    0.1447 H   0  0  0  0  0  0  0  0  0  0  0  0
   -3.3053   -2.4529   -1.7419 H   0  0  0  0  0  0  0  0  0  0  0  0
   -4.0423   -0.8448   -1.9204 H   0  0  0  0  0  0  0  0  0  0  0  0
   -1.8977   -0.7659   -3.1088 H   0  0  0  0  0  0  0  0  0  0  0  0
   -1.0084   -1.5238   -1.7771 H   0  0  0  0  0  0  0  0  0  0  0  0
   -2.3946    1.7596   -2.8475 H   0  0  0  0  0  0  0  0  0  0  0  0
   -3.2571    1.6976   -1.2722 H   0  0  0  0  0  0  0  0  0  0  0  0
   -1.8871    3.7648   -1.0871 H   0  0  0  0  0  0  0  0  0  0  0  0
   -0.4993    2.9734   -1.8970 H   0  0  0  0  0  0  0  0  0  0  0  0
   -4.8447   -1.3764    1.7307 H   0  0  0  0  0  0  0  0  0  0  0  0
   -5.0818   -2.7506    0.2195 H   0  0  0  0  0  0  0  0  0  0  0  0
   -5.5978   -0.7758   -0.0813 H   0  0  0  0  0  0  0  0  0  0  0  0
   -3.1905   -0.2416    0.2157 H   0  0  0  0  0  0  0  0  0  0  0  0
  1  2  1  0  0  0  0
  1  3  1  0  0  0  0
  2  6  1  0  0  0  0
  3  8  1  1  0  0  0
  3  7  1  0  0  0  0
  4 34  1  0  0  0  0
  4 14  1  0  0  0  0
  4  9  1  0  0  0  0
  5 11  1  1  0  0  0
  5  1  1  0  0  0  0
  6 15  1  0  0  0  0
  6  7  1  0  0  0  0
  7 18  1  0  0  0  0
  7 17  1  0  0  0  0
  8 19  1  0  0  0  0
  8 20  1  0  0  0  0
  9 21  1  0  0  0  0
  9  8  1  0  0  0  0
 10  4  1  0  0  0  0
 11 26  1  0  0  0  0
 11 10  1  0  0  0  0
 12  5  1  0  0  0  0
 12 28  1  0  0  0  0
 12 13  1  0  0  0  0
 13 29  1  0  0  0  0
 13  2  1  0  0  0  0
 14 31  1  0  0  0  0
 16  6  1  0  0  0  0
 22  9  1  0  0  0  0
 23 10  1  0  0  0  0
 24 10  1  0  0  0  0
 25 11  1  0  0  0  0
 27 12  1  0  0  0  0
 30 13  1  0  0  0  0
 32 14  1  0  0  0  0
 33 14  1  0  0  0  0
M  CHG  1   4   1
M  END
