1
q = 0.0, confidence = 1.0

 72 75  0  0  0  0  0  0  0  0999 V2000
   -0.7498    0.9316   -0.2476 P   0  0  0  0  0  0  0  0  0  0  0  0
    1.5179   -0.8702   -2.7675 N   0  0  0  0  0  0  0  0  0  0  0  0
    2.9231    1.0740    1.5729 N   0  0  0  0  0  0  0  0  0  0  0  0
    2.3099    0.1939   -0.6704 C   0  0  0  0  0  0  0  0  0  0  0  0
    2.3348   -0.9094   -1.5980 C   0  0  0  0  0  0  0  0  0  0  0  0
    1.8286    1.5320   -1.1623 C   0  0  0  0  0  0  0  0  0  0  0  0
    0.4931    1.9872   -1.1008 C   0  0  0  0  0  0  0  0  0  0  0  0
   -2.1985    0.9500   -1.4329 C   0  0  0  0  0  0  0  0  0  0  0  0
   -2.2574    1.9906   -1.8254 H   0  0  0  0  0  0  0  0  0  0  0  0
    0.1481    3.2229   -1.6941 C   0  0  0  0  0  0  0  0  0  0  0  0
   -0.8961    3.5654   -1.6767 H   0  0  0  0  0  0  0  0  0  0  0  0
   -3.5517    0.6151   -0.7795 C   0  0  0  0  0  0  0  0  0  0  0  0
   -3.7976    1.3559    0.0082 H   0  0  0  0  0  0  0  0  0  0  0  0
   -3.4924   -0.3713   -0.2788 H   0  0  0  0  0  0  0  0  0  0  0  0
   -1.3281    1.9046    1.2411 C   0  0  0  0  0  0  0  0  0  0  0  0
   -2.1856    1.2867    1.5925 H   0  0  0  0  0  0  0  0  0  0  0  0
    1.1136    4.0231   -2.3161 C   0  0  0  0  0  0  0  0  0  0  0  0
    0.8238    4.9832   -2.7690 H   0  0  0  0  0  0  0  0  0  0  0  0
    3.0530    0.0852    0.5598 C   0  0  0  0  0  0  0  0  0  0  0  0
    3.8295   -1.0678    0.7930 C   0  0  0  0  0  0  0  0  0  0  0  0
    4.3881   -1.1574    1.7335 H   0  0  0  0  0  0  0  0  0  0  0  0
   -1.8792    0.0112   -2.6096 C   0  0  0  0  0  0  0  0  0  0  0  0
   -0.9203    0.3111   -3.0798 H   0  0  0  0  0  0  0  0  0  0  0  0
   -1.7110   -1.0078   -2.2023 H   0  0  0  0  0  0  0  0  0  0  0  0
    3.1225   -2.0420   -1.3130 C   0  0  0  0  0  0  0  0  0  0  0  0
    3.1272   -2.8858   -2.0151 H   0  0  0  0  0  0  0  0  0  0  0  0
   -0.2566    1.8892    2.3426 C   0  0  0  0  0  0  0  0  0  0  0  0
    0.0753    0.8457    2.5248 H   0  0  0  0  0  0  0  0  0  0  0  0
    0.6465    2.4256    1.9789 H   0  0  0  0  0  0  0  0  0  0  0  0
   -0.7769    2.5346    3.6328 C   0  0  0  0  0  0  0  0  0  0  0  0
   -1.5966    1.9051    4.0476 H   0  0  0  0  0  0  0  0  0  0  0  0
    0.0251    2.5451    4.4009 H   0  0  0  0  0  0  0  0  0  0  0  0
    2.7916    2.3544   -1.7966 C   0  0  0  0  0  0  0  0  0  0  0  0
    3.8308    1.9949   -1.8553 H   0  0  0  0  0  0  0  0  0  0  0  0
   -1.8319    3.3325    0.9828 C   0  0  0  0  0  0  0  0  0  0  0  0
   -2.6182    3.3443    0.1990 H   0  0  0  0  0  0  0  0  0  0  0  0
   -0.9905    3.9526    0.6054 H   0  0  0  0  0  0  0  0  0  0  0  0
    2.4476    3.5890   -2.3597 C   0  0  0  0  0  0  0  0  0  0  0  0
    3.2186    4.2051   -2.8465 H   0  0  0  0  0  0  0  0  0  0  0  0
    3.8747   -2.1095   -0.1375 C   0  0  0  0  0  0  0  0  0  0  0  0
    4.4893   -2.9980    0.0683 H   0  0  0  0  0  0  0  0  0  0  0  0
   -4.6741    0.5840   -1.8276 C   0  0  0  0  0  0  0  0  0  0  0  0
   -5.6295    0.3041   -1.3368 H   0  0  0  0  0  0  0  0  0  0  0  0
   -4.8218    1.6067   -2.2444 H   0  0  0  0  0  0  0  0  0  0  0  0
   -3.0179   -0.0236   -3.6355 C   0  0  0  0  0  0  0  0  0  0  0  0
   -3.1070    0.9736   -4.1239 H   0  0  0  0  0  0  0  0  0  0  0  0
   -2.7731   -0.7451   -4.4435 H   0  0  0  0  0  0  0  0  0  0  0  0
    0.9171   -2.1405   -3.1420 C   0  0  0  0  0  0  0  0  0  0  0  0
    1.6186   -2.8393   -3.6647 H   0  0  0  0  0  0  0  0  0  0  0  0
    0.0711   -1.9485   -3.8346 H   0  0  0  0  0  0  0  0  0  0  0  0
    0.5238   -2.6450   -2.2373 H   0  0  0  0  0  0  0  0  0  0  0  0
   -1.3061    3.9525    3.3852 C   0  0  0  0  0  0  0  0  0  0  0  0
   -1.7171    4.3856    4.3212 H   0  0  0  0  0  0  0  0  0  0  0  0
   -0.4596    4.6090    3.0808 H   0  0  0  0  0  0  0  0  0  0  0  0
   -4.3530   -0.3837   -2.9729 C   0  0  0  0  0  0  0  0  0  0  0  0
   -4.2914   -1.4174   -2.5652 H   0  0  0  0  0  0  0  0  0  0  0  0
   -5.1728   -0.3859   -3.7215 H   0  0  0  0  0  0  0  0  0  0  0  0
    2.0343   -0.1444   -3.9189 C   0  0  0  0  0  0  0  0  0  0  0  0
    2.4091    0.8514   -3.6243 H   0  0  0  0  0  0  0  0  0  0  0  0
    1.2181    0.0061   -4.6564 H   0  0  0  0  0  0  0  0  0  0  0  0
    2.8644   -0.6924   -4.4345 H   0  0  0  0  0  0  0  0  0  0  0  0
   -2.3677    3.9629    2.2783 C   0  0  0  0  0  0  0  0  0  0  0  0
   -2.7143    4.9987    2.0791 H   0  0  0  0  0  0  0  0  0  0  0  0
   -3.2612    3.3927    2.6185 H   0  0  0  0  0  0  0  0  0  0  0  0
    2.9509    0.5781    2.9394 C   0  0  0  0  0  0  0  0  0  0  0  0
    2.3667   -0.3604    3.0094 H   0  0  0  0  0  0  0  0  0  0  0  0
    2.4832    1.3348    3.6044 H   0  0  0  0  0  0  0  0  0  0  0  0
    3.9820    0.3887    3.3323 H   0  0  0  0  0  0  0  0  0  0  0  0
    3.6324    2.3347    1.4266 C   0  0  0  0  0  0  0  0  0  0  0  0
    4.7289    2.2367    1.6354 H   0  0  0  0  0  0  0  0  0  0  0  0
    3.2187    3.0756    2.1429 H   0  0  0  0  0  0  0  0  0  0  0  0
    3.5096    2.7479    0.4112 H   0  0  0  0  0  0  0  0  0  0  0  0
  1 15  1  0  0  0  0
  2  5  1  0  0  0  0
  3 65  1  0  0  0  0
  4 19  1  0  0  0  0
  5 25  1  0  0  0  0
  5  4  2  0  0  0  0
  6  7  1  0  0  0  0
  6  4  1  0  0  0  0
  7  1  1  0  0  0  0
  8 12  1  0  0  0  0
  8  1  1  0  0  0  0
  9  8  1  0  0  0  0
 10 11  1  0  0  0  0
 10  7  2  0  0  0  0
 12 14  1  0  0  0  0
 12 13  1  0  0  0  0
 15 16  1  0  0  0  0
 15 27  1  0  0  0  0
 17 10  1  0  0  0  0
 18 17  1  0  0  0  0
 19 20  2  0  0  0  0
 19  3  1  0  0  0  0
 20 21  1  0  0  0  0
 22 24  1  0  0  0  0
 22  8  1  0  0  0  0
 23 22  1  0  0  0  0
 25 40  2  0  0  0  0
 26 25  1  0  0  0  0
 27 28  1  0  0  0  0
 27 30  1  0  0  0  0
 29 27  1  0  0  0  0
 30 31  1  0  0  0  0
 30 32  1  0  0  0  0
 33  6  2  0  0  0  0
 34 33  1  0  0  0  0
 35 15  1  0  0  0  0
 35 62  1  0  0  0  0
 36 35  1  0  0  0  0
 37 35  1  0  0  0  0
 38 17  2  0  0  0  0
 38 33  1  0  0  0  0
 39 38  1  0  0  0  0
 40 41  1  0  0  0  0
 40 20  1  0  0  0  0
 42 43  1  0  0  0  0
 42 12  1  0  0  0  0
 44 42  1  0  0  0  0
 45 55  1  0  0  0  0
 45 22  1  0  0  0  0
 46 45  1  0  0  0  0
 47 45  1  0  0  0  0
 48  2  1  0  0  0  0
 48 51  1  0  0  0  0
 49 48  1  0  0  0  0
 50 48  1  0  0  0  0
 52 30  1  0  0  0  0
 52 53  1  0  0  0  0
 54 52  1  0  0  0  0
 55 56  1  0  0  0  0
 55 42  1  0  0  0  0
 57 55  1  0  0  0  0
 58 59  1  0  0  0  0
 58  2  1  0  0  0  0
 60 58  1  0  0  0  0
 61 58  1  0  0  0  0
 62 64  1  0  0  0  0
 62 52  1  0  0  0  0
 63 62  1  0  0  0  0
 65 66  1  0  0  0  0
 65 68  1  0  0  0  0
 65 67  1  0  0  0  0
 69  3  1  0  0  0  0
 69 70  1  0  0  0  0
 69 71  1  0  0  0  0
 72 69  1  0  0  0  0
M  END
