1
q = 0.0, confidence = 1.0

 45 46  0  0  1  0  0  0  0  0999 V2000
   -0.2061    0.7540    0.1305 P   0  0  0  0  0  0  0  0  0  0  0  0
    0.0072   -2.5136   -0.4681 N   0  0  0  0  0  0  0  0  0  0  0  0
   -1.3153   -0.3793   -0.9152 C   0  0  1  0  0  0  0  0  0  0  0  0
   -0.9564   -0.2197   -1.9533 H   0  0  0  0  0  0  0  0  0  0  0  0
   -1.1845   -1.8280   -0.4414 C   0  0  0  0  0  0  0  0  0  0  0  0
   -2.3896   -2.2406    0.0966 C   0  0  0  0  0  0  0  0  0  0  0  0
   -2.5932   -3.2249    0.5343 H   0  0  0  0  0  0  0  0  0  0  0  0
   -3.3838   -1.1945   -0.0697 C   0  0  0  0  0  0  0  0  0  0  0  0
   -4.7472   -1.1467    0.2757 C   0  0  0  0  0  0  0  0  0  0  0  0
   -5.2175   -1.9864    0.8096 H   0  0  0  0  0  0  0  0  0  0  0  0
   -5.5042   -0.0185   -0.0871 C   0  0  0  0  0  0  0  0  0  0  0  0
   -6.5715    0.0257    0.1790 H   0  0  0  0  0  0  0  0  0  0  0  0
   -4.9247    1.0437   -0.8024 C   0  0  0  0  0  0  0  0  0  0  0  0
   -5.5392    1.9057   -1.1012 H   0  0  0  0  0  0  0  0  0  0  0  0
   -3.5563    1.0077   -1.1428 C   0  0  0  0  0  0  0  0  0  0  0  0
   -3.1134    1.8352   -1.7173 H   0  0  0  0  0  0  0  0  0  0  0  0
   -2.7883   -0.0891   -0.7479 C   0  0  0  0  0  0  0  0  0  0  0  0
   -0.7976    0.8067    1.9062 C   0  0  0  0  0  0  0  0  0  0  0  0
   -0.0562    1.5350    2.3071 H   0  0  0  0  0  0  0  0  0  0  0  0
   -2.2047    1.3640    2.1476 C   0  0  0  0  0  0  0  0  0  0  0  0
   -2.3458    1.5311    3.2358 H   0  0  0  0  0  0  0  0  0  0  0  0
   -2.9907    0.6638    1.8081 H   0  0  0  0  0  0  0  0  0  0  0  0
   -2.3739    2.3332    1.6388 H   0  0  0  0  0  0  0  0  0  0  0  0
   -0.5519   -0.5270    2.6252 C   0  0  0  0  0  0  0  0  0  0  0  0
   -0.6537   -0.3820    3.7201 H   0  0  0  0  0  0  0  0  0  0  0  0
    0.4658   -0.9167    2.4211 H   0  0  0  0  0  0  0  0  0  0  0  0
   -1.2876   -1.2912    2.3098 H   0  0  0  0  0  0  0  0  0  0  0  0
   -0.4919    2.4688   -0.5542 C   0  0  0  0  0  0  0  0  0  0  0  0
   -1.5775    2.6753   -0.4465 H   0  0  0  0  0  0  0  0  0  0  0  0
   -0.1022    2.5178   -2.0368 C   0  0  0  0  0  0  0  0  0  0  0  0
   -0.2159    3.5513   -2.4232 H   0  0  0  0  0  0  0  0  0  0  0  0
   -0.7328    1.8598   -2.6673 H   0  0  0  0  0  0  0  0  0  0  0  0
    0.9571    2.2166   -2.1772 H   0  0  0  0  0  0  0  0  0  0  0  0
    0.3024    3.4919    0.2690 C   0  0  0  0  0  0  0  0  0  0  0  0
    0.1778    4.5027   -0.1709 H   0  0  0  0  0  0  0  0  0  0  0  0
    1.3855    3.2486    0.2670 H   0  0  0  0  0  0  0  0  0  0  0  0
   -0.0363    3.5450    1.3221 H   0  0  0  0  0  0  0  0  0  0  0  0
    0.8778   -2.4341   -1.6358 C   0  0  0  0  0  0  0  0  0  0  0  0
    0.8533   -1.4211   -2.0758 H   0  0  0  0  0  0  0  0  0  0  0  0
    0.5754   -3.1690   -2.4205 H   0  0  0  0  0  0  0  0  0  0  0  0
    1.9270   -2.6317   -1.3408 H   0  0  0  0  0  0  0  0  0  0  0  0
    0.0691   -3.7711    0.2506 C   0  0  0  0  0  0  0  0  0  0  0  0
   -0.3371   -3.6404    1.2729 H   0  0  0  0  0  0  0  0  0  0  0  0
    1.1256   -4.0912    0.3322 H   0  0  0  0  0  0  0  0  0  0  0  0
   -0.5076   -4.5851   -0.2526 H   0  0  0  0  0  0  0  0  0  0  0  0
  1 18  1  0  0  0  0
  2  5  1  0  0  0  0
  2 42  1  0  0  0  0
  3  4  1  6  0  0  0
  3 17  1  0  0  0  0
  3  5  1  0  0  0  0
  3  1  1  0  0  0  0
  5  6  2  0  0  0  0
  6  7  1  0  0  0  0
  8  6  1  0  0  0  0
  8  9  1  0  0  0  0
  9 10  1  0  0  0  0
 11 12  1  0  0  0  0
 11  9  2  0  0  0  0
 13 11  1  0  0  0  0
 14 13  1  0  0  0  0
 15 13  2  0  0  0  0
 15 17  1  0  0  0  0
 16 15  1  0  0  0  0
 17  8  2  0  0  0  0
 18 20  1  0  0  0  0
 18 19  1  0  0  0  0
 18 24  1  0  0  0  0
 20 21  1  0  0  0  0
 22 20  1  0  0  0  0
 23 20  1  0  0  0  0
 24 25  1  0  0  0  0
 26 24  1  0  0  0  0
 27 24  1  0  0  0  0
 28 29  1  0  0  0  0
 28  1  1  0  0  0  0
 28 34  1  0  0  0  0
 30 28  1  0  0  0  0
 31 30  1  0  0  0  0
 32 30  1  0  0  0  0
 33 30  1  0  0  0  0
 34 37  1  0  0  0  0
 35 34  1  0  0  0  0
 36 34  1  0  0  0  0
 38 41  1  0  0  0  0
 38  2  1  0  0  0  0
 39 38  1  0  0  0  0
 40 38  1  0  0  0  0
 42 44  1  0  0  0  0
 42 43  1  0  0  0  0
 45 42  1  0  0  0  0
M  END
