1
q = 0.0, confidence = 0.996

 23 22  0  0  1  0  0  0  0  0999 V2000
    0.3327    0.3046   -1.1726 P   0  0  0  0  0  2  0  0  0  0  0  0
    1.5117   -0.7857   -0.3515 C   0  0  2  0  0  3  0  0  0  0  0  0
    1.1834    1.9502   -0.7138 C   0  0  0  0  0  0  0  0  0  0  0  0
    3.7322   -0.3797    0.5568 C   0  0  0  0  0  0  0  0  0  0  0  0
    4.2740    0.7054    1.4607 C   0  0  0  0  0  0  0  0  0  0  0  0
    2.1892   -3.0764    0.2209 C   0  0  0  0  0  0  0  0  0  0  0  0
    0.9434   -2.6146   -1.8721 C   0  0  0  0  0  0  0  0  0  0  0  0
    1.6160   -2.0867   -0.6897 N   0  0  0  0  0  0  0  0  0  0  0  0
    0.5460    2.9275   -1.4010 F   0  0  0  0  0  0  0  0  0  0  0  0
    1.1830    2.3145    0.5863 F   0  0  0  0  0  0  0  0  0  0  0  0
    2.4902    1.9543   -1.1203 F   0  0  0  0  0  0  0  0  0  0  0  0
    2.2750   -0.3190    0.6412 O   0  0  0  0  0  0  0  0  0  0  0  0
    4.0174   -0.2167   -0.5030 H   0  0  0  0  0  0  0  0  0  0  0  0
    4.0870   -1.3848    0.8691 H   0  0  0  0  0  0  0  0  0  0  0  0
    5.3818    0.6826    1.4501 H   0  0  0  0  0  0  0  0  0  0  0  0
    3.9301    0.5539    2.5025 H   0  0  0  0  0  0  0  0  0  0  0  0
    3.9316    1.6995    1.1184 H   0  0  0  0  0  0  0  0  0  0  0  0
    1.5010   -3.9409    0.2857 H   0  0  0  0  0  0  0  0  0  0  0  0
    2.2883   -2.6399    1.2300 H   0  0  0  0  0  0  0  0  0  0  0  0
    3.1803   -3.4279   -0.1360 H   0  0  0  0  0  0  0  0  0  0  0  0
    1.5704   -3.4134   -2.3155 H   0  0  0  0  0  0  0  0  0  0  0  0
    0.7998   -1.7979   -2.6061 H   0  0  0  0  0  0  0  0  0  0  0  0
   -0.0482   -3.0377   -1.6108 H   0  0  0  0  0  0  0  0  0  0  0  0
  1  3  1  0  0  0  0
  2  1  1  1  0  0  0
  2 12  1  0  0  0  0
  3 10  1  0  0  0  0
  4 12  1  0  0  0  0
  4 14  1  0  0  0  0
  4  5  1  0  0  0  0
  5 16  1  0  0  0  0
  6 18  1  0  0  0  0
  6 19  1  0  0  0  0
  7 23  1  0  0  0  0
  7  8  1  0  0  0  0
  8  2  1  0  0  0  0
  8  6  1  0  0  0  0
  9  3  1  0  0  0  0
 11  3  1  0  0  0  0
 13  4  1  0  0  0  0
 15  5  1  0  0  0  0
 17  5  1  0  0  0  0
 20  6  1  0  0  0  0
 21  7  1  0  0  0  0
 22  7  1  0  0  0  0
M  END
