1
q = 0.0, confidence = 1.0

 30 30  0  0  0  0  0  0  0  0999 V2000
   -1.4989    0.1808   -0.6171 P   0  0  0  0  0  0  0  0  0  0  0  0
   -0.8372    1.3049   -1.6456 N   0  0  0  0  0  0  0  0  0  0  0  0
   -1.5150    2.4647   -2.2404 C   0  0  0  0  0  0  0  0  0  0  0  0
   -0.9993    2.6679   -3.6673 C   0  0  0  0  0  0  0  0  0  0  0  0
   -1.3616    3.7221   -1.3766 C   0  0  0  0  0  0  0  0  0  0  0  0
   -2.9532   -0.0848   -1.3969 O   0  0  0  0  0  0  0  0  0  0  0  0
   -2.0920    1.1369    0.6747 O   0  0  0  0  0  0  0  0  0  0  0  0
   -3.1724    0.5650    1.4304 C   0  0  0  0  0  0  0  0  0  0  0  0
   -4.4209    0.3104    0.5610 C   0  0  0  0  0  0  0  0  0  0  0  0
   -4.0097   -0.6299   -0.5924 C   0  0  0  0  0  0  0  0  0  0  0  0
   -4.9647    1.6359    0.0081 C   0  0  0  0  0  0  0  0  0  0  0  0
   -5.4795   -0.3989    1.4155 C   0  0  0  0  0  0  0  0  0  0  0  0
    0.1931    1.3357   -1.6151 H   0  0  0  0  0  0  0  0  0  0  0  0
   -2.5894    2.1918   -2.2933 H   0  0  0  0  0  0  0  0  0  0  0  0
   -1.1452    1.7518   -4.2719 H   0  0  0  0  0  0  0  0  0  0  0  0
    0.0856    2.9073   -3.6605 H   0  0  0  0  0  0  0  0  0  0  0  0
   -1.5248    3.5088   -4.1625 H   0  0  0  0  0  0  0  0  0  0  0  0
   -1.7436    3.5337   -0.3547 H   0  0  0  0  0  0  0  0  0  0  0  0
   -1.9179    4.5758   -1.8146 H   0  0  0  0  0  0  0  0  0  0  0  0
   -0.2942    4.0150   -1.2969 H   0  0  0  0  0  0  0  0  0  0  0  0
   -3.4015    1.2847    2.2437 H   0  0  0  0  0  0  0  0  0  0  0  0
   -2.8448   -0.3888    1.9039 H   0  0  0  0  0  0  0  0  0  0  0  0
   -3.7034   -1.6197   -0.1827 H   0  0  0  0  0  0  0  0  0  0  0  0
   -4.8624   -0.8000   -1.2812 H   0  0  0  0  0  0  0  0  0  0  0  0
   -4.1979    2.1638   -0.5898 H   0  0  0  0  0  0  0  0  0  0  0  0
   -5.2748    2.3079    0.8343 H   0  0  0  0  0  0  0  0  0  0  0  0
   -5.8474    1.4610   -0.6404 H   0  0  0  0  0  0  0  0  0  0  0  0
   -5.1014   -1.3598    1.8217 H   0  0  0  0  0  0  0  0  0  0  0  0
   -6.3883   -0.6163    0.8180 H   0  0  0  0  0  0  0  0  0  0  0  0
   -5.7864    0.2357    2.2718 H   0  0  0  0  0  0  0  0  0  0  0  0
  1  7  1  0  0  0  0
  2 13  1  0  0  0  0
  2  1  1  0  0  0  0
  3  2  1  0  0  0  0
  3  5  1  0  0  0  0
  4 16  1  0  0  0  0
  4  3  1  0  0  0  0
  5 20  1  0  0  0  0
  5 18  1  0  0  0  0
  6  1  1  0  0  0  0
  6 10  1  0  0  0  0
  7  8  1  0  0  0  0
  8 22  1  0  0  0  0
  8 21  1  0  0  0  0
  9 12  1  0  0  0  0
  9  8  1  0  0  0  0
 10 23  1  0  0  0  0
 10  9  1  0  0  0  0
 11  9  1  0  0  0  0
 11 26  1  0  0  0  0
 12 28  1  0  0  0  0
 12 30  1  0  0  0  0
 14  3  1  0  0  0  0
 15  4  1  0  0  0  0
 17  4  1  0  0  0  0
 19  5  1  0  0  0  0
 24 10  1  0  0  0  0
 25 11  1  0  0  0  0
 27 11  1  0  0  0  0
 29 12  1  0  0  0  0
M  END
