1
q = 0.0, confidence = 0.998

 29 29  0  0  0  0  0  0  0  0999 V2000
   -1.6384    0.4391   -0.1083 P   0  0  0  0  0  0  0  0  0  0  0  0
   -2.0237    1.2985   -1.4772 O   0  0  0  0  0  0  0  0  0  0  0  0
   -2.6069    2.6051   -1.3360 C   0  0  0  0  0  0  0  0  0  0  0  0
   -1.7407    3.5442   -0.4719 C   0  0  0  0  0  0  0  0  0  0  0  0
   -0.3567    3.7393   -1.1126 C   0  0  0  0  0  0  0  0  0  0  0  0
   -2.4729    4.8837   -0.3231 C   0  0  0  0  0  0  0  0  0  0  0  0
   -1.5918    2.9040    0.9221 C   0  0  0  0  0  0  0  0  0  0  0  0
   -0.9700    1.6085    0.8541 O   0  0  0  0  0  0  0  0  0  0  0  0
   -3.0888    0.3349    0.6949 O   0  0  0  0  0  0  0  0  0  0  0  0
   -3.9866   -0.7901    0.5091 C   0  0  0  0  0  0  0  0  0  0  0  0
   -4.7703   -0.9365    1.8047 C   0  0  0  0  0  0  0  0  0  0  0  0
   -4.8582   -0.5704   -0.7220 C   0  0  0  0  0  0  0  0  0  0  0  0
   -3.6256    2.5118   -0.8965 H   0  0  0  0  0  0  0  0  0  0  0  0
   -2.7073    3.0057   -2.3653 H   0  0  0  0  0  0  0  0  0  0  0  0
   -0.4542    4.1591   -2.1344 H   0  0  0  0  0  0  0  0  0  0  0  0
    0.1995    2.7844   -1.1770 H   0  0  0  0  0  0  0  0  0  0  0  0
    0.2509    4.4454   -0.5097 H   0  0  0  0  0  0  0  0  0  0  0  0
   -2.6095    5.3698   -1.3108 H   0  0  0  0  0  0  0  0  0  0  0  0
   -1.8926    5.5816    0.3146 H   0  0  0  0  0  0  0  0  0  0  0  0
   -3.4755    4.7566    0.1357 H   0  0  0  0  0  0  0  0  0  0  0  0
   -2.5831    2.8127    1.4188 H   0  0  0  0  0  0  0  0  0  0  0  0
   -0.9322    3.5216    1.5661 H   0  0  0  0  0  0  0  0  0  0  0  0
   -3.3644   -1.6999    0.3582 H   0  0  0  0  0  0  0  0  0  0  0  0
   -4.0819   -1.1101    2.6545 H   0  0  0  0  0  0  0  0  0  0  0  0
   -5.4684   -1.7944    1.7382 H   0  0  0  0  0  0  0  0  0  0  0  0
   -5.3600   -0.0197    2.0096 H   0  0  0  0  0  0  0  0  0  0  0  0
   -4.2360   -0.4537   -1.6308 H   0  0  0  0  0  0  0  0  0  0  0  0
   -5.4802    0.3405   -0.6015 H   0  0  0  0  0  0  0  0  0  0  0  0
   -5.5324   -1.4359   -0.8783 H   0  0  0  0  0  0  0  0  0  0  0  0
  1  9  1  0  0  0  0
  1  8  1  0  0  0  0
  2  3  1  0  0  0  0
  2  1  1  0  0  0  0
  3 13  1  0  0  0  0
  3  4  1  0  0  0  0
  4  6  1  0  0  0  0
  4  7  1  0  0  0  0
  5 17  1  0  0  0  0
  5  4  1  0  0  0  0
  6 20  1  0  0  0  0
  6 19  1  0  0  0  0
  7 21  1  0  0  0  0
  7 22  1  0  0  0  0
  8  7  1  0  0  0  0
 10  9  1  0  0  0  0
 10 11  1  0  0  0  0
 11 26  1  0  0  0  0
 11 24  1  0  0  0  0
 12 28  1  0  0  0  0
 12 10  1  0  0  0  0
 14  3  1  0  0  0  0
 15  5  1  0  0  0  0
 16  5  1  0  0  0  0
 18  6  1  0  0  0  0
 23 10  1  0  0  0  0
 25 11  1  0  0  0  0
 27 12  1  0  0  0  0
 29 12  1  0  0  0  0
M  END
