3
q = 0.0, confidence = 0.988

 68 70  0  0  0  0  0  0  0  0999 V2000
   -0.8590    1.2132    0.2416 Si  0  0  0  0  0  0  0  0  0  0  0  0
   -2.1148    3.2054    0.5793 Si  0  0  0  0  0  0  0  0  0  0  0  0
    1.2593    1.1052    0.6706 P   0  0  0  0  0  2  0  0  0  0  0  0
   -2.0704   -0.6014    2.4871 C   0  0  0  0  0  0  0  0  0  0  0  0
   -1.8442    0.2187   -1.0387 N   0  0  0  0  0  0  0  0  0  0  0  0
   -1.8636   -0.1182    1.1018 N   0  0  0  0  0  0  0  0  0  0  0  0
   -2.4395   -0.4907   -0.0617 C   0  0  0  0  0  0  0  0  0  0  0  0
   -3.5876   -1.4260   -0.2299 C   0  0  0  0  0  0  0  0  0  0  0  0
   -2.0544    0.2675   -2.5008 C   0  0  0  0  0  0  0  0  0  0  0  0
   -4.8964   -0.9002   -0.2594 C   0  0  0  0  0  0  0  0  0  0  0  0
   -5.0509    0.1813   -0.1365 H   0  0  0  0  0  0  0  0  0  0  0  0
   -1.0636    0.1441    3.3773 C   0  0  0  0  0  0  0  0  0  0  0  0
   -0.0208   -0.0673    3.0770 H   0  0  0  0  0  0  0  0  0  0  0  0
   -1.1979   -0.1689    4.4309 H   0  0  0  0  0  0  0  0  0  0  0  0
   -1.2145    1.2401    3.3209 H   0  0  0  0  0  0  0  0  0  0  0  0
   -3.5001   -0.2935    2.9714 C   0  0  0  0  0  0  0  0  0  0  0  0
   -3.6932    0.7978    2.9591 H   0  0  0  0  0  0  0  0  0  0  0  0
   -3.6254   -0.6476    4.0138 H   0  0  0  0  0  0  0  0  0  0  0  0
   -4.2643   -0.7960    2.3484 H   0  0  0  0  0  0  0  0  0  0  0  0
   -1.7216    3.8858    2.3068 C   0  0  0  0  0  0  0  0  0  0  0  0
   -0.6333    3.8961    2.5107 H   0  0  0  0  0  0  0  0  0  0  0  0
   -2.2084    3.2683    3.0886 H   0  0  0  0  0  0  0  0  0  0  0  0
   -2.1060    4.9226    2.4057 H   0  0  0  0  0  0  0  0  0  0  0  0
   -3.9722    2.8053    0.5120 C   0  0  0  0  0  0  0  0  0  0  0  0
   -4.5496    3.7211    0.7587 H   0  0  0  0  0  0  0  0  0  0  0  0
   -4.2461    2.0233    1.2469 H   0  0  0  0  0  0  0  0  0  0  0  0
   -4.2858    2.4673   -0.4942 H   0  0  0  0  0  0  0  0  0  0  0  0
   -3.2168    1.2202   -2.8402 C   0  0  0  0  0  0  0  0  0  0  0  0
   -4.1698    0.8558   -2.4085 H   0  0  0  0  0  0  0  0  0  0  0  0
   -3.3447    1.2891   -3.9388 H   0  0  0  0  0  0  0  0  0  0  0  0
   -3.0191    2.2395   -2.4546 H   0  0  0  0  0  0  0  0  0  0  0  0
   -1.7600    4.5234   -0.7400 C   0  0  0  0  0  0  0  0  0  0  0  0
   -1.9717    4.1513   -1.7627 H   0  0  0  0  0  0  0  0  0  0  0  0
   -0.7105    4.8731   -0.7158 H   0  0  0  0  0  0  0  0  0  0  0  0
   -2.4156    5.4011   -0.5582 H   0  0  0  0  0  0  0  0  0  0  0  0
   -2.3336   -1.1246   -3.0950 C   0  0  0  0  0  0  0  0  0  0  0  0
   -1.5725   -1.8571   -2.7675 H   0  0  0  0  0  0  0  0  0  0  0  0
   -2.2960   -1.0525   -4.1999 H   0  0  0  0  0  0  0  0  0  0  0  0
   -3.3337   -1.5055   -2.8180 H   0  0  0  0  0  0  0  0  0  0  0  0
   -3.3892   -2.8133   -0.3806 C   0  0  0  0  0  0  0  0  0  0  0  0
   -2.3677   -3.2156   -0.3853 H   0  0  0  0  0  0  0  0  0  0  0  0
   -1.7932   -2.1150    2.5664 C   0  0  0  0  0  0  0  0  0  0  0  0
   -2.5743   -2.7011    2.0476 H   0  0  0  0  0  0  0  0  0  0  0  0
   -1.7759   -2.4358    3.6266 H   0  0  0  0  0  0  0  0  0  0  0  0
   -0.8102   -2.3556    2.1203 H   0  0  0  0  0  0  0  0  0  0  0  0
    2.1771    2.9737   -0.2554 Si  0  0  0  0  0  0  0  0  0  0  0  0
   -5.7945   -3.1363   -0.5833 C   0  0  0  0  0  0  0  0  0  0  0  0
   -6.6564   -3.8061   -0.7223 H   0  0  0  0  0  0  0  0  0  0  0  0
   -0.7449    0.8142   -3.0885 C   0  0  0  0  0  0  0  0  0  0  0  0
   -0.5078    1.8109   -2.6681 H   0  0  0  0  0  0  0  0  0  0  0  0
   -0.8275    0.9188   -4.1877 H   0  0  0  0  0  0  0  0  0  0  0  0
    0.1030    0.1424   -2.8579 H   0  0  0  0  0  0  0  0  0  0  0  0
   -4.4924   -3.6605   -0.5564 C   0  0  0  0  0  0  0  0  0  0  0  0
   -4.3295   -4.7418   -0.6784 H   0  0  0  0  0  0  0  0  0  0  0  0
   -5.9942   -1.7549   -0.4346 C   0  0  0  0  0  0  0  0  0  0  0  0
   -7.0118   -1.3367   -0.4542 H   0  0  0  0  0  0  0  0  0  0  0  0
    4.0501    2.7102   -0.2281 C   0  0  0  0  0  0  0  0  0  0  0  0
    4.5463    3.6529   -0.5420 H   0  0  0  0  0  0  0  0  0  0  0  0
    4.3612    1.9114   -0.9290 H   0  0  0  0  0  0  0  0  0  0  0  0
    4.4195    2.4456    0.7817 H   0  0  0  0  0  0  0  0  0  0  0  0
    1.6901    3.3828   -2.0425 C   0  0  0  0  0  0  0  0  0  0  0  0
    2.2589    4.2762   -2.3781 H   0  0  0  0  0  0  0  0  0  0  0  0
    0.6117    3.6094   -2.1502 H   0  0  0  0  0  0  0  0  0  0  0  0
    1.9417    2.5417   -2.7177 H   0  0  0  0  0  0  0  0  0  0  0  0
    1.8059    4.4660    0.8590 C   0  0  0  0  0  0  0  0  0  0  0  0
    2.1466    4.2618    1.8942 H   0  0  0  0  0  0  0  0  0  0  0  0
    0.7299    4.7210    0.9021 H   0  0  0  0  0  0  0  0  0  0  0  0
    2.3504    5.3589    0.4850 H   0  0  0  0  0  0  0  0  0  0  0  0
  1  2  1  0  0  0  0
  1  3  1  0  0  0  0
  1  6  1  0  0  0  0
  1  7  1  0  0  0  0
  2 20  1  0  0  0  0
  4 42  1  0  0  0  0
  4 16  1  0  0  0  0
  4 12  1  0  0  0  0
  5  7  1  0  0  0  0
  5  1  1  0  0  0  0
  6  4  1  0  0  0  0
  7  6  1  0  0  0  0
  8  7  1  0  0  0  0
  9  5  1  0  0  0  0
 10  8  1  0  0  0  0
 10 11  1  0  0  0  0
 12 14  1  0  0  0  0
 13 12  1  0  0  0  0
 15 12  1  0  0  0  0
 16 18  1  0  0  0  0
 17 16  1  0  0  0  0
 19 16  1  0  0  0  0
 20 23  1  0  0  0  0
 20 21  1  0  0  0  0
 20 22  1  0  0  0  0
 24  2  1  0  0  0  0
 24 25  1  0  0  0  0
 24 26  1  0  0  0  0
 27 24  1  0  0  0  0
 28  9  1  0  0  0  0
 28 31  1  0  0  0  0
 28 29  1  0  0  0  0
 30 28  1  0  0  0  0
 32 34  1  0  0  0  0
 32 35  1  0  0  0  0
 32  2  1  0  0  0  0
 33 32  1  0  0  0  0
 36 39  1  0  0  0  0
 36 37  1  0  0  0  0
 36  9  1  0  0  0  0
 38 36  1  0  0  0  0
 40  8  2  0  0  0  0
 41 40  1  0  0  0  0
 42 44  1  0  0  0  0
 43 42  1  0  0  0  0
 45 42  1  0  0  0  0
 46 57  1  0  0  0  0
 46  3  1  0  0  0  0
 46 65  1  0  0  0  0
 47 53  2  0  0  0  0
 47 55  1  0  0  0  0
 48 47  1  0  0  0  0
 49 52  1  0  0  0  0
 49 50  1  0  0  0  0
 49  9  1  0  0  0  0
 51 49  1  0  0  0  0
 53 40  1  0  0  0  0
 54 53  1  0  0  0  0
 55 10  2  0  0  0  0
 56 55  1  0  0  0  0
 57 60  1  0  0  0  0
 58 57  1  0  0  0  0
 59 57  1  0  0  0  0
 61 46  1  0  0  0  0
 62 61  1  0  0  0  0
 63 61  1  0  0  0  0
 64 61  1  0  0  0  0
 65 67  1  0  0  0  0
 65 66  1  0  0  0  0
 68 65  1  0  0  0  0
M  HYD  2   3   0   7   0
M  ZBO  1   4   0
M  END
