1
q = 0.0, confidence = 0.976

 65 69  0  0  1  0  0  0  0  0999 V2000
    0.0134   -0.0349    0.5179 P   0  0  2  0  0  0  0  0  0  0  0  0
    0.1942   -0.3556    3.8399 N   0  0  1  0  0  0  0  0  0  0  0  0
   -0.1225    1.0515    3.9007 C   0  0  0  0  0  0  0  0  0  0  0  0
    0.8187    1.6083    4.0963 H   0  0  0  0  0  0  0  0  0  0  0  0
   -0.7938    1.2713    4.7688 H   0  0  0  0  0  0  0  0  0  0  0  0
   -0.0353    1.4401    1.4067 N   0  0  0  0  0  0  0  0  0  0  0  0
   -0.8017    1.6120    2.6355 C   0  0  0  0  0  0  0  0  0  0  0  0
   -1.7937    1.1267    2.5258 H   0  0  0  0  0  0  0  0  0  0  0  0
   -1.0104    2.6963    2.7628 H   0  0  0  0  0  0  0  0  0  0  0  0
   -1.2430   -0.9704    1.2353 N   0  0  0  0  0  0  0  0  0  0  0  0
    0.7464    2.5732    0.9418 C   0  0  0  0  0  0  0  0  0  0  0  0
    1.4802    2.2056    0.1925 H   0  0  0  0  0  0  0  0  0  0  0  0
    1.3705    2.9779    1.7729 H   0  0  0  0  0  0  0  0  0  0  0  0
    1.4499   -0.7857    1.1001 N   0  0  0  0  0  0  0  0  0  0  0  0
   -0.0551    3.7057    0.3187 C   0  0  0  0  0  0  0  0  0  0  0  0
   -1.3593    3.4939   -0.1606 C   0  0  0  0  0  0  0  0  0  0  0  0
   -1.8140    2.5022   -0.0305 H   0  0  0  0  0  0  0  0  0  0  0  0
   -2.0657    4.5250   -0.7978 C   0  0  0  0  0  0  0  0  0  0  0  0
   -3.0819    4.3348   -1.1756 H   0  0  0  0  0  0  0  0  0  0  0  0
   -1.4739    5.7868   -0.9609 C   0  0  0  0  0  0  0  0  0  0  0  0
   -2.0247    6.5970   -1.4623 H   0  0  0  0  0  0  0  0  0  0  0  0
   -0.1735    6.0105   -0.4784 C   0  0  0  0  0  0  0  0  0  0  0  0
    0.2968    6.9985   -0.5989 H   0  0  0  0  0  0  0  0  0  0  0  0
    0.5287    4.9768    0.1577 C   0  0  0  0  0  0  0  0  0  0  0  0
    1.5504    5.1566    0.5309 H   0  0  0  0  0  0  0  0  0  0  0  0
   -0.8709   -1.3217    3.7103 C   0  0  0  0  0  0  0  0  0  0  0  0
   -1.8226   -0.8270    3.9994 H   0  0  0  0  0  0  0  0  0  0  0  0
   -0.7335   -2.1651    4.4332 H   0  0  0  0  0  0  0  0  0  0  0  0
   -1.0114   -1.9359    2.3041 C   0  0  0  0  0  0  0  0  0  0  0  0
   -0.0947   -2.5205    2.0832 H   0  0  0  0  0  0  0  0  0  0  0  0
   -1.8461   -2.6698    2.2897 H   0  0  0  0  0  0  0  0  0  0  0  0
   -2.6194   -0.7698    0.8115 C   0  0  0  0  0  0  0  0  0  0  0  0
   -2.6456    0.1181    0.1437 H   0  0  0  0  0  0  0  0  0  0  0  0
   -3.2644   -0.4969    1.6799 H   0  0  0  0  0  0  0  0  0  0  0  0
   -3.2407   -1.9462    0.0768 C   0  0  0  0  0  0  0  0  0  0  0  0
   -4.6293   -2.1690    0.1311 C   0  0  0  0  0  0  0  0  0  0  0  0
   -5.2601   -1.5120    0.7522 H   0  0  0  0  0  0  0  0  0  0  0  0
   -5.2151   -3.2144   -0.5987 C   0  0  0  0  0  0  0  0  0  0  0  0
   -6.3027   -3.3767   -0.5460 H   0  0  0  0  0  0  0  0  0  0  0  0
   -4.4158   -4.0545   -1.3906 C   0  0  0  0  0  0  0  0  0  0  0  0
   -4.8741   -4.8751   -1.9632 H   0  0  0  0  0  0  0  0  0  0  0  0
   -3.0286   -3.8442   -1.4436 C   0  0  0  0  0  0  0  0  0  0  0  0
   -2.3917   -4.4949   -2.0623 H   0  0  0  0  0  0  0  0  0  0  0  0
   -2.4471   -2.7981   -0.7130 C   0  0  0  0  0  0  0  0  0  0  0  0
   -1.3623   -2.6269   -0.7473 H   0  0  0  0  0  0  0  0  0  0  0  0
    1.5612   -0.7703    3.6277 C   0  0  0  0  0  0  0  0  0  0  0  0
    1.6017   -1.8774    3.7086 H   0  0  0  0  0  0  0  0  0  0  0  0
    2.2249   -0.3809    4.4403 H   0  0  0  0  0  0  0  0  0  0  0  0
    2.1686   -0.3250    2.2831 C   0  0  0  0  0  0  0  0  0  0  0  0
    2.2247    0.7830    2.2730 H   0  0  0  0  0  0  0  0  0  0  0  0
    3.2187   -0.6807    2.2040 H   0  0  0  0  0  0  0  0  0  0  0  0
    1.9499   -1.9875    0.4476 C   0  0  0  0  0  0  0  0  0  0  0  0
    1.2260   -2.2660   -0.3479 H   0  0  0  0  0  0  0  0  0  0  0  0
    1.9582   -2.8520    1.1531 H   0  0  0  0  0  0  0  0  0  0  0  0
    3.3286   -1.8356   -0.1708 C   0  0  0  0  0  0  0  0  0  0  0  0
    3.6617   -0.6648   -0.8789 C   0  0  0  0  0  0  0  0  0  0  0  0
    2.9169    0.1407   -0.9471 H   0  0  0  0  0  0  0  0  0  0  0  0
    4.9158   -0.5322   -1.4898 C   0  0  0  0  0  0  0  0  0  0  0  0
    5.1566    0.3876   -2.0448 H   0  0  0  0  0  0  0  0  0  0  0  0
    5.8585   -1.5699   -1.3977 C   0  0  0  0  0  0  0  0  0  0  0  0
    6.8445   -1.4661   -1.8757 H   0  0  0  0  0  0  0  0  0  0  0  0
    5.5379   -2.7382   -0.6893 C   0  0  0  0  0  0  0  0  0  0  0  0
    6.2734   -3.5531   -0.6066 H   0  0  0  0  0  0  0  0  0  0  0  0
    4.2803   -2.8673   -0.0784 C   0  0  0  0  0  0  0  0  0  0  0  0
    4.0320   -3.7847    0.4803 H   0  0  0  0  0  0  0  0  0  0  0  0
  1 14  1  1  0  0  0
  1 10  1  0  0  0  0
  1  6  1  0  0  0  0
  2 46  1  6  0  0  0
  2  3  1  0  0  0  0
  3  4  1  0  0  0  0
  3  5  1  0  0  0  0
  6  7  1  0  0  0  0
  7  9  1  0  0  0  0
  7  3  1  0  0  0  0
  8  7  1  0  0  0  0
 10 29  1  0  0  0  0
 11  6  1  0  0  0  0
 11 13  1  0  0  0  0
 12 11  1  0  0  0  0
 14 49  1  0  0  0  0
 15 11  1  0  0  0  0
 16 17  1  0  0  0  0
 16 15  2  0  0  0  0
 18 16  1  0  0  0  0
 19 18  1  0  0  0  0
 20 18  2  0  0  0  0
 20 22  1  0  0  0  0
 21 20  1  0  0  0  0
 22 24  2  0  0  0  0
 23 22  1  0  0  0  0
 24 15  1  0  0  0  0
 24 25  1  0  0  0  0
 26  2  1  0  0  0  0
 26 27  1  0  0  0  0
 26 28  1  0  0  0  0
 29 26  1  0  0  0  0
 30 29  1  0  0  0  0
 31 29  1  0  0  0  0
 32 10  1  0  0  0  0
 32 34  1  0  0  0  0
 33 32  1  0  0  0  0
 35 36  1  0  0  0  0
 35 32  1  0  0  0  0
 36 37  1  0  0  0  0
 38 39  1  0  0  0  0
 38 36  2  0  0  0  0
 40 38  1  0  0  0  0
 41 40  1  0  0  0  0
 42 40  2  0  0  0  0
 42 44  1  0  0  0  0
 43 42  1  0  0  0  0
 44 35  2  0  0  0  0
 45 44  1  0  0  0  0
 46 47  1  0  0  0  0
 46 48  1  0  0  0  0
 49 46  1  0  0  0  0
 50 49  1  0  0  0  0
 51 49  1  0  0  0  0
 52 14  1  0  0  0  0
 52 54  1  0  0  0  0
 53 52  1  0  0  0  0
 55 64  1  0  0  0  0
 55 52  1  0  0  0  0
 56 55  2  0  0  0  0
 57 56  1  0  0  0  0
 58 60  2  0  0  0  0
 58 56  1  0  0  0  0
 59 58  1  0  0  0  0
 60 62  1  0  0  0  0
 61 60  1  0  0  0  0
 62 63  1  0  0  0  0
 62 64  2  0  0  0  0
 64 65  1  0  0  0  0
M  END
