2
q = 0.0, confidence = 1.0

 41 43  0  0  0  0  0  0  0  0999 V2000
   -4.8793    2.3397   -1.5158 S   0  0  0  0  0  0  0  0  0  0  0  0
   -2.0309   -0.8298   -0.1642 P   0  0  0  0  0  0  0  0  0  0  0  0
   -3.2532    0.0789   -1.2230 C   0  0  0  0  0  0  0  0  0  0  0  0
   -4.1950   -0.5080   -1.2182 H   0  0  0  0  0  0  0  0  0  0  0  0
   -2.8461    0.1174   -2.2517 H   0  0  0  0  0  0  0  0  0  0  0  0
   -3.4764    1.5016   -0.7103 C   0  0  0  0  0  0  0  0  0  0  0  0
   -3.6140    1.5425    0.3896 H   0  0  0  0  0  0  0  0  0  0  0  0
   -2.5901    2.1221   -0.9504 H   0  0  0  0  0  0  0  0  0  0  0  0
   -6.2913    1.4952   -0.8398 C   0  0  0  0  0  0  0  0  0  0  0  0
   -6.2591    0.6735    0.3074 C   0  0  0  0  0  0  0  0  0  0  0  0
   -5.3233    0.4928    0.8531 H   0  0  0  0  0  0  0  0  0  0  0  0
   -7.4385    0.0713    0.7727 C   0  0  0  0  0  0  0  0  0  0  0  0
   -7.3860   -0.5712    1.6652 H   0  0  0  0  0  0  0  0  0  0  0  0
   -8.6613    0.2838    0.1198 C   0  0  0  0  0  0  0  0  0  0  0  0
   -9.5817   -0.1905    0.4915 H   0  0  0  0  0  0  0  0  0  0  0  0
   -8.6957    1.1079   -1.0183 C   0  0  0  0  0  0  0  0  0  0  0  0
   -9.6462    1.2833   -1.5454 H   0  0  0  0  0  0  0  0  0  0  0  0
   -7.5239    1.7027   -1.5011 C   0  0  0  0  0  0  0  0  0  0  0  0
   -7.5547    2.3333   -2.4033 H   0  0  0  0  0  0  0  0  0  0  0  0
   -3.0200   -1.0599    1.3675 C   0  0  0  0  0  0  0  0  0  0  0  0
   -4.0132   -2.0561    1.4430 C   0  0  0  0  0  0  0  0  0  0  0  0
   -4.1287   -2.7806    0.6223 H   0  0  0  0  0  0  0  0  0  0  0  0
   -4.8575   -2.1233    2.5620 C   0  0  0  0  0  0  0  0  0  0  0  0
   -5.6298   -2.9057    2.6158 H   0  0  0  0  0  0  0  0  0  0  0  0
   -4.7203   -1.1934    3.6052 C   0  0  0  0  0  0  0  0  0  0  0  0
   -5.3862   -1.2445    4.4800 H   0  0  0  0  0  0  0  0  0  0  0  0
   -3.7265   -0.2033    3.5355 C   0  0  0  0  0  0  0  0  0  0  0  0
   -3.6085    0.5198    4.3565 H   0  0  0  0  0  0  0  0  0  0  0  0
   -2.8717   -0.1399    2.4254 C   0  0  0  0  0  0  0  0  0  0  0  0
   -2.0689    0.6108    2.3798 H   0  0  0  0  0  0  0  0  0  0  0  0
   -1.9114   -2.5050   -0.8981 C   0  0  0  0  0  0  0  0  0  0  0  0
   -1.2251   -3.4996   -0.1651 C   0  0  0  0  0  0  0  0  0  0  0  0
   -0.8037   -3.2486    0.8212 H   0  0  0  0  0  0  0  0  0  0  0  0
   -1.0722   -4.7847   -0.7005 C   0  0  0  0  0  0  0  0  0  0  0  0
   -0.5399   -5.5547   -0.1216 H   0  0  0  0  0  0  0  0  0  0  0  0
   -1.5874   -5.0886   -1.9724 C   0  0  0  0  0  0  0  0  0  0  0  0
   -1.4619   -6.0982   -2.3923 H   0  0  0  0  0  0  0  0  0  0  0  0
   -2.2591   -4.1005   -2.7072 C   0  0  0  0  0  0  0  0  0  0  0  0
   -2.6630   -4.3314   -3.7047 H   0  0  0  0  0  0  0  0  0  0  0  0
   -2.4226   -2.8114   -2.1751 C   0  0  0  0  0  0  0  0  0  0  0  0
   -2.9520   -2.0491   -2.7639 H   0  0  0  0  0  0  0  0  0  0  0  0
  1  9  1  0  0  0  0
  1  6  1  0  0  0  0
  2 20  1  0  0  0  0
  3  4  1  0  0  0  0
  3  6  1  0  0  0  0
  3  2  1  0  0  0  0
  5  3  1  0  0  0  0
  6  7  1  0  0  0  0
  8  6  1  0  0  0  0
  9 10  1  0  0  0  0
 10 12  2  0  0  0  0
 10 11  1  0  0  0  0
 12 13  1  0  0  0  0
 14 15  1  0  0  0  0
 14 12  1  0  0  0  0
 16 14  2  0  0  0  0
 17 16  1  0  0  0  0
 18 16  1  0  0  0  0
 18  9  2  0  0  0  0
 19 18  1  0  0  0  0
 20 21  2  0  0  0  0
 20 29  1  0  0  0  0
 21 23  1  0  0  0  0
 22 21  1  0  0  0  0
 23 24  1  0  0  0  0
 23 25  2  0  0  0  0
 25 26  1  0  0  0  0
 27 25  1  0  0  0  0
 27 28  1  0  0  0  0
 29 27  2  0  0  0  0
 30 29  1  0  0  0  0
 31 32  1  0  0  0  0
 31  2  1  0  0  0  0
 32 33  1  0  0  0  0
 34 32  2  0  0  0  0
 34 35  1  0  0  0  0
 36 34  1  0  0  0  0
 37 36  1  0  0  0  0
 38 40  1  0  0  0  0
 38 36  2  0  0  0  0
 39 38  1  0  0  0  0
 40 31  2  0  0  0  0
 41 40  1  0  0  0  0
M  END
