1
q = 0.0, confidence = 0.97

 73 75  0  0  0  0  0  0  0  0999 V2000
    0.7285   -0.3686   -0.0141 P   0  0  0  0  0  2  0  0  0  0  0  0
   -0.2238    1.0023   -0.1136 C   0  0  0  0  0  0  0  0  0  0  0  0
   -1.0165    1.9882   -0.1395 C   0  0  0  0  0  0  0  0  0  0  0  0
   -1.9454    2.9834   -0.1277 C   0  0  0  0  0  3  0  0  0  0  0  0
   -3.3703    2.5798   -0.0605 C   0  0  0  0  0  0  0  0  0  0  0  0
   -3.7371    1.3676    0.5761 C   0  0  0  0  0  0  0  0  0  0  0  0
   -5.0736    0.9594    0.6242 C   0  0  0  0  0  0  0  0  0  0  0  0
   -6.0769    1.7399    0.0239 C   0  0  0  0  0  0  0  0  0  0  0  0
   -5.7258    2.9318   -0.6302 C   0  0  0  0  0  0  0  0  0  0  0  0
   -4.3894    3.3509   -0.6719 C   0  0  0  0  0  0  0  0  0  0  0  0
   -1.5153    4.3952   -0.1667 C   0  0  0  0  0  0  0  0  0  0  0  0
   -0.2550    4.7399   -0.7170 C   0  0  0  0  0  0  0  0  0  0  0  0
    0.1884    6.0655   -0.7179 C   0  0  0  0  0  0  0  0  0  0  0  0
   -0.6126    7.0815   -0.1676 C   0  0  0  0  0  0  0  0  0  0  0  0
   -1.8573    6.7542    0.3938 C   0  0  0  0  0  0  0  0  0  0  0  0
   -2.3062    5.4273    0.3973 C   0  0  0  0  0  0  0  0  0  0  0  0
   -0.6181   -1.6573    0.0281 C   0  0  0  0  0  0  0  0  0  0  0  0
   -1.2976   -1.9081    1.2624 C   0  0  0  0  0  0  0  0  0  0  0  0
   -2.5850   -2.4797    1.1902 C   0  0  0  0  0  0  0  0  0  0  0  0
   -3.1926   -2.8482   -0.0172 C   0  0  0  0  0  0  0  0  0  0  0  0
   -2.4224   -2.7314   -1.1852 C   0  0  0  0  0  0  0  0  0  0  0  0
   -1.1381   -2.1626   -1.2082 C   0  0  0  0  0  0  0  0  0  0  0  0
   -0.6765   -1.6760    2.6699 C   0  0  0  0  0  0  0  0  0  0  0  0
   -0.5640   -0.1799    3.0479 C   0  0  0  0  0  0  0  0  0  0  0  0
    0.7132   -2.3483    2.7127 C   0  0  0  0  0  0  0  0  0  0  0  0
   -1.5218   -2.3419    3.7781 C   0  0  0  0  0  0  0  0  0  0  0  0
   -4.6161   -3.4249   -0.0940 C   0  0  0  0  0  0  0  0  0  0  0  0
   -5.3358   -3.3773    1.2650 C   0  0  0  0  0  0  0  0  0  0  0  0
   -5.4434   -2.6102   -1.1146 C   0  0  0  0  0  0  0  0  0  0  0  0
   -4.5358   -4.8988   -0.5547 C   0  0  0  0  0  0  0  0  0  0  0  0
   -0.3360   -2.1974   -2.5374 C   0  0  0  0  0  0  0  0  0  0  0  0
    0.9970   -2.9340   -2.2753 C   0  0  0  0  0  0  0  0  0  0  0  0
   -0.0810   -0.7886   -3.1225 C   0  0  0  0  0  0  0  0  0  0  0  0
   -1.0766   -2.9945   -3.6325 C   0  0  0  0  0  0  0  0  0  0  0  0
   -2.9561    0.7460    1.0383 H   0  0  0  0  0  0  0  0  0  0  0  0
   -5.3340    0.0230    1.1403 H   0  0  0  0  0  0  0  0  0  0  0  0
   -7.1282    1.4168    0.0616 H   0  0  0  0  0  0  0  0  0  0  0  0
   -6.5006    3.5402   -1.1211 H   0  0  0  0  0  0  0  0  0  0  0  0
   -4.1232    4.2721   -1.2098 H   0  0  0  0  0  0  0  0  0  0  0  0
    0.3772    3.9489   -1.1460 H   0  0  0  0  0  0  0  0  0  0  0  0
    1.1698    6.3082   -1.1528 H   0  0  0  0  0  0  0  0  0  0  0  0
   -0.2635    8.1252   -0.1704 H   0  0  0  0  0  0  0  0  0  0  0  0
   -2.4826    7.5396    0.8450 H   0  0  0  0  0  0  0  0  0  0  0  0
   -3.2664    5.1787    0.8711 H   0  0  0  0  0  0  0  0  0  0  0  0
   -3.1331   -2.6426    2.1227 H   0  0  0  0  0  0  0  0  0  0  0  0
   -2.8505   -3.0951   -2.1262 H   0  0  0  0  0  0  0  0  0  0  0  0
   -1.5428    0.3313    2.9466 H   0  0  0  0  0  0  0  0  0  0  0  0
   -0.2364   -0.0877    4.1035 H   0  0  0  0  0  0  0  0  0  0  0  0
    0.1656    0.3685    2.4269 H   0  0  0  0  0  0  0  0  0  0  0  0
    1.4006   -1.9294    1.9551 H   0  0  0  0  0  0  0  0  0  0  0  0
    1.1861   -2.1972    3.7044 H   0  0  0  0  0  0  0  0  0  0  0  0
    0.6328   -3.4374    2.5236 H   0  0  0  0  0  0  0  0  0  0  0  0
   -1.6801   -3.4228    3.5915 H   0  0  0  0  0  0  0  0  0  0  0  0
   -0.9861   -2.2431    4.7429 H   0  0  0  0  0  0  0  0  0  0  0  0
   -2.5113   -1.8584    3.9049 H   0  0  0  0  0  0  0  0  0  0  0  0
   -5.4103   -2.3417    1.6553 H   0  0  0  0  0  0  0  0  0  0  0  0
   -6.3668   -3.7700    1.1585 H   0  0  0  0  0  0  0  0  0  0  0  0
   -4.8240   -3.9956    2.0296 H   0  0  0  0  0  0  0  0  0  0  0  0
   -5.0062   -2.6573   -2.1314 H   0  0  0  0  0  0  0  0  0  0  0  0
   -6.4772   -3.0083   -1.1767 H   0  0  0  0  0  0  0  0  0  0  0  0
   -5.4982   -1.5420   -0.8240 H   0  0  0  0  0  0  0  0  0  0  0  0
   -3.9468   -5.5063    0.1617 H   0  0  0  0  0  0  0  0  0  0  0  0
   -5.5522   -5.3385   -0.6271 H   0  0  0  0  0  0  0  0  0  0  0  0
   -4.0561   -4.9904   -1.5495 H   0  0  0  0  0  0  0  0  0  0  0  0
    0.8106   -3.9761   -1.9469 H   0  0  0  0  0  0  0  0  0  0  0  0
    1.6150   -2.9606   -3.1956 H   0  0  0  0  0  0  0  0  0  0  0  0
    1.5956   -2.4405   -1.4876 H   0  0  0  0  0  0  0  0  0  0  0  0
    0.6088   -0.1843   -2.5057 H   0  0  0  0  0  0  0  0  0  0  0  0
    0.3754   -0.8801   -4.1292 H   0  0  0  0  0  0  0  0  0  0  0  0
   -1.0283   -0.2206   -3.2156 H   0  0  0  0  0  0  0  0  0  0  0  0
   -2.0190   -2.5028   -3.9473 H   0  0  0  0  0  0  0  0  0  0  0  0
   -0.4265   -3.0605   -4.5273 H   0  0  0  0  0  0  0  0  0  0  0  0
   -1.3092   -4.0298   -3.3130 H   0  0  0  0  0  0  0  0  0  0  0  0
  1 17  1  0  0  0  0
  2  1  1  0  0  0  0
  3  4  1  0  0  0  0
  3  2  3  0  0  0  0
  4  5  1  0  0  0  0
  5  6  1  0  0  0  0
  6  7  2  0  0  0  0
  6 35  1  0  0  0  0
  7 36  1  0  0  0  0
  8 37  1  0  0  0  0
  8  7  1  0  0  0  0
  9  8  2  0  0  0  0
 10  9  1  0  0  0  0
 10  5  2  0  0  0  0
 11  4  1  0  0  0  0
 11 16  1  0  0  0  0
 12 11  2  0  0  0  0
 13 12  1  0  0  0  0
 13 14  2  0  0  0  0
 14 15  1  0  0  0  0
 15 16  2  0  0  0  0
 15 43  1  0  0  0  0
 16 44  1  0  0  0  0
 17 18  1  0  0  0  0
 18 23  1  0  0  0  0
 19 18  2  0  0  0  0
 19 45  1  0  0  0  0
 20 19  1  0  0  0  0
 21 20  2  0  0  0  0
 22 21  1  0  0  0  0
 22 17  2  0  0  0  0
 23 25  1  0  0  0  0
 23 24  1  0  0  0  0
 23 26  1  0  0  0  0
 24 48  1  0  0  0  0
 25 51  1  0  0  0  0
 26 55  1  0  0  0  0
 26 54  1  0  0  0  0
 27 20  1  0  0  0  0
 27 28  1  0  0  0  0
 28 56  1  0  0  0  0
 28 58  1  0  0  0  0
 29 61  1  0  0  0  0
 29 27  1  0  0  0  0
 30 27  1  0  0  0  0
 30 62  1  0  0  0  0
 31 32  1  0  0  0  0
 31 22  1  0  0  0  0
 32 65  1  0  0  0  0
 32 67  1  0  0  0  0
 33 31  1  0  0  0  0
 33 68  1  0  0  0  0
 34 73  1  0  0  0  0
 34 31  1  0  0  0  0
 38  9  1  0  0  0  0
 39 10  1  0  0  0  0
 40 12  1  0  0  0  0
 41 13  1  0  0  0  0
 42 14  1  0  0  0  0
 46 21  1  0  0  0  0
 47 24  1  0  0  0  0
 49 24  1  0  0  0  0
 50 25  1  0  0  0  0
 52 25  1  0  0  0  0
 53 26  1  0  0  0  0
 57 28  1  0  0  0  0
 59 29  1  0  0  0  0
 60 29  1  0  0  0  0
 63 30  1  0  0  0  0
 64 30  1  0  0  0  0
 66 32  1  0  0  0  0
 69 33  1  0  0  0  0
 70 33  1  0  0  0  0
 71 34  1  0  0  0  0
 72 34  1  0  0  0  0
M  END
