1
q = 0.0, confidence = 0.998

 28 29  0  0  0  0  0  0  0  0999 V2000
   -1.4393   -0.1143   -1.0033 P   0  0  0  0  0  0  0  0  0  0  0  0
   -3.2584   -1.7311   -2.2909 O   0  0  0  0  0  0  0  0  0  0  0  0
   -2.3237   -0.7511   -2.5621 C   0  0  0  0  0  0  0  0  0  0  0  0
   -2.8217    0.1652    0.1612 C   0  0  0  0  0  0  0  0  0  0  0  0
   -3.9997    0.8284   -0.2440 C   0  0  0  0  0  0  0  0  0  0  0  0
   -5.0579    0.9971    0.6600 C   0  0  0  0  0  0  0  0  0  0  0  0
   -4.9580    0.4889    1.9657 C   0  0  0  0  0  0  0  0  0  0  0  0
   -3.8028   -0.2025    2.3617 C   0  0  0  0  0  0  0  0  0  0  0  0
   -2.7390   -0.3692    1.4628 C   0  0  0  0  0  0  0  0  0  0  0  0
   -0.8048    1.4970   -1.6031 C   0  0  0  0  0  0  0  0  0  0  0  0
   -1.4739    2.7219   -1.4203 C   0  0  0  0  0  0  0  0  0  0  0  0
   -0.9654    3.8906   -2.0065 C   0  0  0  0  0  0  0  0  0  0  0  0
    0.2076    3.8471   -2.7765 C   0  0  0  0  0  0  0  0  0  0  0  0
    0.8819    2.6278   -2.9548 C   0  0  0  0  0  0  0  0  0  0  0  0
    0.3792    1.4566   -2.3712 C   0  0  0  0  0  0  0  0  0  0  0  0
   -2.7295   -2.5107   -1.9705 H   0  0  0  0  0  0  0  0  0  0  0  0
   -1.5004   -1.0568   -3.2525 H   0  0  0  0  0  0  0  0  0  0  0  0
   -2.8294    0.1357   -3.0024 H   0  0  0  0  0  0  0  0  0  0  0  0
   -4.1041    1.2034   -1.2728 H   0  0  0  0  0  0  0  0  0  0  0  0
   -5.9729    1.5166    0.3375 H   0  0  0  0  0  0  0  0  0  0  0  0
   -5.7933    0.6176    2.6708 H   0  0  0  0  0  0  0  0  0  0  0  0
   -3.7281   -0.6249    3.3751 H   0  0  0  0  0  0  0  0  0  0  0  0
   -1.8370   -0.9285    1.7622 H   0  0  0  0  0  0  0  0  0  0  0  0
   -2.3751    2.7718   -0.7927 H   0  0  0  0  0  0  0  0  0  0  0  0
   -1.4857    4.8472   -1.8472 H   0  0  0  0  0  0  0  0  0  0  0  0
    0.6025    4.7675   -3.2326 H   0  0  0  0  0  0  0  0  0  0  0  0
    1.8088    2.5871   -3.5466 H   0  0  0  0  0  0  0  0  0  0  0  0
    0.9159    0.5018   -2.4909 H   0  0  0  0  0  0  0  0  0  0  0  0
  1  4  1  0  0  0  0
  2 16  1  0  0  0  0
  3  2  1  0  0  0  0
  3  1  1  0  0  0  0
  4  9  1  0  0  0  0
  5  4  2  0  0  0  0
  5  6  1  0  0  0  0
  6  7  2  0  0  0  0
  7  8  1  0  0  0  0
  7 21  1  0  0  0  0
  8 22  1  0  0  0  0
  9 23  1  0  0  0  0
  9  8  2  0  0  0  0
 10 11  1  0  0  0  0
 10  1  1  0  0  0  0
 11 24  1  0  0  0  0
 12 25  1  0  0  0  0
 12 11  2  0  0  0  0
 13 12  1  0  0  0  0
 14 13  2  0  0  0  0
 14 15  1  0  0  0  0
 15 10  2  0  0  0  0
 17  3  1  0  0  0  0
 18  3  1  0  0  0  0
 19  5  1  0  0  0  0
 20  6  1  0  0  0  0
 26 13  1  0  0  0  0
 27 14  1  0  0  0  0
 28 15  1  0  0  0  0
M  END
