29
q = 0.0, confidence = 0.992

 51 53  0  0  0  0  0  0  0  0999 V2000
   -2.3814   -0.4192    0.5795 O   0  0  0  0  0  0  0  0  0  0  0  0
   -3.2317   -1.5290    0.9272 C   0  0  0  0  0  0  0  0  0  0  0  0
   -3.8202   -1.7056    0.0044 H   0  0  0  0  0  0  0  0  0  0  0  0
   -3.9194   -1.1955    1.7370 H   0  0  0  0  0  0  0  0  0  0  0  0
   -2.4538   -2.7756    1.3191 C   0  0  0  0  0  0  0  0  0  0  0  0
   -1.7596   -3.0548    0.5003 H   0  0  0  0  0  0  0  0  0  0  0  0
   -3.1561   -3.6196    1.4744 H   0  0  0  0  0  0  0  0  0  0  0  0
   -1.8649   -2.6378    2.2469 H   0  0  0  0  0  0  0  0  0  0  0  0
   -1.9333    0.4650    1.6213 C   0  0  0  0  0  0  0  0  0  0  0  0
   -2.8047    0.5966    2.3155 H   0  0  0  0  0  0  0  0  0  0  0  0
   -1.5539    1.6564    1.0360 O   0  0  0  0  0  0  0  0  0  0  0  0
   -2.5917    2.3478    0.3137 C   0  0  0  0  0  0  0  0  0  0  0  0
   -3.4580    2.5067    1.0001 H   0  0  0  0  0  0  0  0  0  0  0  0
   -2.9362    1.7130   -0.5309 H   0  0  0  0  0  0  0  0  0  0  0  0
   -2.0203    3.6613   -0.1779 C   0  0  0  0  0  0  0  0  0  0  0  0
   -1.6590    4.2822    0.6659 H   0  0  0  0  0  0  0  0  0  0  0  0
   -2.7952    4.2288   -0.7298 H   0  0  0  0  0  0  0  0  0  0  0  0
   -1.1680    3.4790   -0.8610 H   0  0  0  0  0  0  0  0  0  0  0  0
   -0.7434   -0.0872    2.3826 C   0  0  0  0  0  0  0  0  0  0  0  0
   -0.8870   -0.3545    3.7538 C   0  0  0  0  0  0  0  0  0  0  0  0
   -1.8517   -0.1372    4.2394 H   0  0  0  0  0  0  0  0  0  0  0  0
    0.1680   -0.8958    4.5029 C   0  0  0  0  0  0  0  0  0  0  0  0
    0.0353   -1.0998    5.5760 H   0  0  0  0  0  0  0  0  0  0  0  0
    1.3870   -1.1760    3.8716 C   0  0  0  0  0  0  0  0  0  0  0  0
    2.2243   -1.6041    4.4431 H   0  0  0  0  0  0  0  0  0  0  0  0
    1.5450   -0.9102    2.5024 C   0  0  0  0  0  0  0  0  0  0  0  0
    2.5046   -1.1360    2.0153 H   0  0  0  0  0  0  0  0  0  0  0  0
    0.4942   -0.3602    1.7407 C   0  0  0  0  0  0  0  0  0  0  0  0
    0.7217   -0.0525   -0.0751 P   0  0  0  0  0  0  0  0  0  0  0  0
    1.2793    1.6980   -0.1879 C   0  0  0  0  0  0  0  0  0  0  0  0
    1.3082    2.3004   -1.4628 C   0  0  0  0  0  0  0  0  0  0  0  0
    0.9820    1.7270   -2.3434 H   0  0  0  0  0  0  0  0  0  0  0  0
    1.7243    3.6322   -1.6018 C   0  0  0  0  0  0  0  0  0  0  0  0
    1.7426    4.0956   -2.5998 H   0  0  0  0  0  0  0  0  0  0  0  0
    2.0993    4.3762   -0.4706 C   0  0  0  0  0  0  0  0  0  0  0  0
    2.4154    5.4248   -0.5798 H   0  0  0  0  0  0  0  0  0  0  0  0
    2.0612    3.7815    0.8002 C   0  0  0  0  0  0  0  0  0  0  0  0
    2.3456    4.3629    1.6905 H   0  0  0  0  0  0  0  0  0  0  0  0
    1.6555    2.4455    0.9438 C   0  0  0  0  0  0  0  0  0  0  0  0
    1.6167    1.9863    1.9425 H   0  0  0  0  0  0  0  0  0  0  0  0
    2.2467   -1.0139   -0.4550 C   0  0  0  0  0  0  0  0  0  0  0  0
    2.0950   -2.3822   -0.7620 C   0  0  0  0  0  0  0  0  0  0  0  0
    1.0815   -2.8129   -0.8054 H   0  0  0  0  0  0  0  0  0  0  0  0
    3.2204   -3.1723   -1.0314 C   0  0  0  0  0  0  0  0  0  0  0  0
    3.0946   -4.2389   -1.2716 H   0  0  0  0  0  0  0  0  0  0  0  0
    4.5037   -2.5998   -1.0118 C   0  0  0  0  0  0  0  0  0  0  0  0
    5.3863   -3.2188   -1.2336 H   0  0  0  0  0  0  0  0  0  0  0  0
    4.6578   -1.2352   -0.7218 C   0  0  0  0  0  0  0  0  0  0  0  0
    5.6607   -0.7818   -0.7156 H   0  0  0  0  0  0  0  0  0  0  0  0
    3.5334   -0.4413   -0.4424 C   0  0  0  0  0  0  0  0  0  0  0  0
    3.6550    0.6290   -0.2172 H   0  0  0  0  0  0  0  0  0  0  0  0
  1  2  1  0  0  0  0
  1  9  1  0  0  0  0
  2  5  1  0  0  0  0
  2  4  1  0  0  0  0
  3  2  1  0  0  0  0
  5  7  1  0  0  0  0
  5  8  1  0  0  0  0
  6  5  1  0  0  0  0
  9 10  1  0  0  0  0
  9 19  1  0  0  0  0
 11  9  1  0  0  0  0
 12 13  1  0  0  0  0
 12 11  1  0  0  0  0
 14 12  1  0  0  0  0
 15 12  1  0  0  0  0
 15 16  1  0  0  0  0
 17 15  1  0  0  0  0
 18 15  1  0  0  0  0
 19 20  1  0  0  0  0
 20 21  1  0  0  0  0
 20 22  2  0  0  0  0
 22 23  1  0  0  0  0
 24 25  1  0  0  0  0
 24 22  1  0  0  0  0
 26 24  2  0  0  0  0
 27 26  1  0  0  0  0
 28 19  2  0  0  0  0
 28 26  1  0  0  0  0
 29 28  1  0  0  0  0
 30 29  1  0  0  0  0
 30 39  1  0  0  0  0
 31 30  2  0  0  0  0
 32 31  1  0  0  0  0
 33 31  1  0  0  0  0
 33 35  2  0  0  0  0
 34 33  1  0  0  0  0
 35 37  1  0  0  0  0
 36 35  1  0  0  0  0
 37 39  2  0  0  0  0
 37 38  1  0  0  0  0
 39 40  1  0  0  0  0
 41 50  1  0  0  0  0
 41 29  1  0  0  0  0
 42 41  2  0  0  0  0
 43 42  1  0  0  0  0
 44 46  2  0  0  0  0
 44 42  1  0  0  0  0
 45 44  1  0  0  0  0
 46 48  1  0  0  0  0
 47 46  1  0  0  0  0
 48 49  1  0  0  0  0
 48 50  2  0  0  0  0
 50 51  1  0  0  0  0
M  END
