2
q = 0.0, confidence = 1.0

 42 43  0  0  0  0  0  0  0  0999 V2000
   -3.4329    0.2670   -0.1646 P   0  0  0  0  0  0  0  0  0  0  0  0
   -1.6033   -0.9677    0.4286 P   0  0  0  0  0  0  0  0  0  0  0  0
   -4.8839    0.9799   -0.6383 F   0  0  0  0  0  0  0  0  0  0  0  0
   -3.0094   -2.7257   -2.6452 O   0  0  0  0  0  0  0  0  0  0  0  0
   -4.0222   -1.3158    3.3764 O   0  0  0  0  0  0  0  0  0  0  0  0
   -2.0355   -2.2784   -0.6140 N   0  0  0  0  0  0  0  0  0  0  0  0
   -3.4996   -0.7085   -1.6042 N   0  0  0  0  0  0  0  0  0  0  0  0
   -2.2004   -1.3760    1.9867 N   0  0  0  0  0  0  0  0  0  0  0  0
   -4.1701   -0.1991    1.3477 N   0  0  0  0  0  0  0  0  0  0  0  0
   -2.6119    1.7475   -0.1851 N   0  0  0  0  0  0  0  0  0  0  0  0
   -1.1885   -3.4660   -0.7193 C   0  0  0  0  0  0  0  0  0  0  0  0
   -2.8492   -1.9688   -1.6992 C   0  0  0  0  0  0  0  0  0  0  0  0
   -4.3763   -0.3781   -2.7369 C   0  0  0  0  0  0  0  0  0  0  0  0
   -1.4917   -2.2561    2.9162 C   0  0  0  0  0  0  0  0  0  0  0  0
   -3.5045   -0.9964    2.3152 C   0  0  0  0  0  0  0  0  0  0  0  0
   -5.5155    0.2594    1.7271 C   0  0  0  0  0  0  0  0  0  0  0  0
   -1.7851    2.1418    0.9545 C   0  0  0  0  0  0  0  0  0  0  0  0
   -2.4901    3.0883    1.9271 C   0  0  0  0  0  0  0  0  0  0  0  0
   -2.7925    2.7295   -1.2589 C   0  0  0  0  0  0  0  0  0  0  0  0
   -1.7024    2.6398   -2.3270 C   0  0  0  0  0  0  0  0  0  0  0  0
   -1.7749   -4.2782   -1.1865 H   0  0  0  0  0  0  0  0  0  0  0  0
   -0.2956   -3.2572   -1.3457 H   0  0  0  0  0  0  0  0  0  0  0  0
   -0.8641   -3.7749    0.2921 H   0  0  0  0  0  0  0  0  0  0  0  0
   -4.1401   -1.1035   -3.5361 H   0  0  0  0  0  0  0  0  0  0  0  0
   -5.4457   -0.4634   -2.4679 H   0  0  0  0  0  0  0  0  0  0  0  0
   -4.1781    0.6480   -3.0986 H   0  0  0  0  0  0  0  0  0  0  0  0
   -1.7258   -1.9495    3.9520 H   0  0  0  0  0  0  0  0  0  0  0  0
   -1.8061   -3.3134    2.7863 H   0  0  0  0  0  0  0  0  0  0  0  0
   -0.4054   -2.1480    2.7448 H   0  0  0  0  0  0  0  0  0  0  0  0
   -5.6992   -0.1051    2.7536 H   0  0  0  0  0  0  0  0  0  0  0  0
   -5.5747    1.3637    1.7014 H   0  0  0  0  0  0  0  0  0  0  0  0
   -6.2819   -0.1495    1.0432 H   0  0  0  0  0  0  0  0  0  0  0  0
   -0.8398    2.5897    0.5775 H   0  0  0  0  0  0  0  0  0  0  0  0
   -1.4562    1.2417    1.5145 H   0  0  0  0  0  0  0  0  0  0  0  0
   -1.8048    3.3648    2.7534 H   0  0  0  0  0  0  0  0  0  0  0  0
   -2.8170    4.0250    1.4308 H   0  0  0  0  0  0  0  0  0  0  0  0
   -3.3846    2.6047    2.3685 H   0  0  0  0  0  0  0  0  0  0  0  0
   -2.8107    3.7440   -0.8030 H   0  0  0  0  0  0  0  0  0  0  0  0
   -3.7951    2.5876   -1.7050 H   0  0  0  0  0  0  0  0  0  0  0  0
   -1.8615    3.4020   -3.1173 H   0  0  0  0  0  0  0  0  0  0  0  0
   -0.6979    2.8041   -1.8899 H   0  0  0  0  0  0  0  0  0  0  0  0
   -1.6830    1.6347   -2.7923 H   0  0  0  0  0  0  0  0  0  0  0  0
  1  2  1  0  0  0  0
  1  9  1  0  0  0  0
  2  8  1  0  0  0  0
  3  1  1  0  0  0  0
  4 12  2  0  0  0  0
  6  2  1  0  0  0  0
  7  1  1  0  0  0  0
  8 15  1  0  0  0  0
  8 14  1  0  0  0  0
  9 16  1  0  0  0  0
  9 15  1  0  0  0  0
 10  1  1  0  0  0  0
 10 17  1  0  0  0  0
 11  6  1  0  0  0  0
 11 23  1  0  0  0  0
 12  7  1  0  0  0  0
 12  6  1  0  0  0  0
 13 25  1  0  0  0  0
 13  7  1  0  0  0  0
 14 27  1  0  0  0  0
 15  5  2  0  0  0  0
 16 30  1  0  0  0  0
 17 34  1  0  0  0  0
 17 18  1  0  0  0  0
 18 37  1  0  0  0  0
 18 35  1  0  0  0  0
 19 38  1  0  0  0  0
 19 10  1  0  0  0  0
 20 41  1  0  0  0  0
 20 19  1  0  0  0  0
 21 11  1  0  0  0  0
 22 11  1  0  0  0  0
 24 13  1  0  0  0  0
 26 13  1  0  0  0  0
 28 14  1  0  0  0  0
 29 14  1  0  0  0  0
 31 16  1  0  0  0  0
 32 16  1  0  0  0  0
 33 17  1  0  0  0  0
 36 18  1  0  0  0  0
 39 19  1  0  0  0  0
 40 20  1  0  0  0  0
 42 20  1  0  0  0  0
M  END
