1
q = 0.0, confidence = 0.99

 36 38  0  0  0  0  0  0  0  0999 V2000
   -1.6902    0.4806   -0.3051 P   0  0  0  0  0  0  0  0  0  0  0  0
   -1.8862    0.1339    2.3623 N   0  0  0  0  0  0  0  0  0  0  0  0
   -1.8799    1.1051    1.4302 C   0  0  0  0  0  0  0  0  0  0  0  0
   -2.0471    0.4699    3.6608 C   0  0  0  0  0  0  0  0  0  0  0  0
   -2.0679   -0.6511    4.6639 C   0  0  0  0  0  0  0  0  0  0  0  0
   -2.1857    1.8185    4.0562 C   0  0  0  0  0  0  0  0  0  0  0  0
   -2.1682    2.8244    3.0834 C   0  0  0  0  0  0  0  0  0  0  0  0
   -2.0138    2.4705    1.7356 C   0  0  0  0  0  0  0  0  0  0  0  0
   -1.6122    1.9927   -1.3440 C   0  0  0  0  0  0  0  0  0  0  0  0
   -0.4020    2.3720   -1.9543 C   0  0  0  0  0  0  0  0  0  0  0  0
   -0.3336    3.5453   -2.7201 C   0  0  0  0  0  0  0  0  0  0  0  0
   -1.4756    4.3422   -2.8877 C   0  0  0  0  0  0  0  0  0  0  0  0
   -2.6912    3.9614   -2.2935 C   0  0  0  0  0  0  0  0  0  0  0  0
   -2.7643    2.7902   -1.5277 C   0  0  0  0  0  0  0  0  0  0  0  0
   -3.3474   -0.2126   -0.7147 C   0  0  0  0  0  0  0  0  0  0  0  0
   -3.6331   -0.4255   -2.0811 C   0  0  0  0  0  0  0  0  0  0  0  0
   -4.8385   -1.0317   -2.4577 C   0  0  0  0  0  0  0  0  0  0  0  0
   -5.7626   -1.4342   -1.4788 C   0  0  0  0  0  0  0  0  0  0  0  0
   -5.4760   -1.2284   -0.1215 C   0  0  0  0  0  0  0  0  0  0  0  0
   -4.2703   -0.6207    0.2657 C   0  0  0  0  0  0  0  0  0  0  0  0
   -2.4272   -0.3126    5.6531 H   0  0  0  0  0  0  0  0  0  0  0  0
   -1.0484   -1.0701    4.7945 H   0  0  0  0  0  0  0  0  0  0  0  0
   -2.7149   -1.4766    4.3082 H   0  0  0  0  0  0  0  0  0  0  0  0
   -2.3139    2.0671    5.1200 H   0  0  0  0  0  0  0  0  0  0  0  0
   -2.2801    3.8810    3.3708 H   0  0  0  0  0  0  0  0  0  0  0  0
   -1.9929    3.2309    0.9439 H   0  0  0  0  0  0  0  0  0  0  0  0
    0.4889    1.7405   -1.8330 H   0  0  0  0  0  0  0  0  0  0  0  0
    0.6169    3.8327   -3.1938 H   0  0  0  0  0  0  0  0  0  0  0  0
   -1.4236    5.2594   -3.4933 H   0  0  0  0  0  0  0  0  0  0  0  0
   -3.5916    4.5779   -2.4345 H   0  0  0  0  0  0  0  0  0  0  0  0
   -3.7216    2.4866   -1.0772 H   0  0  0  0  0  0  0  0  0  0  0  0
   -2.9102   -0.1183   -2.8532 H   0  0  0  0  0  0  0  0  0  0  0  0
   -5.0563   -1.1925   -3.5240 H   0  0  0  0  0  0  0  0  0  0  0  0
   -6.7076   -1.9119   -1.7770 H   0  0  0  0  0  0  0  0  0  0  0  0
   -6.1969   -1.5424    0.6483 H   0  0  0  0  0  0  0  0  0  0  0  0
   -4.0477   -0.4741    1.3318 H   0  0  0  0  0  0  0  0  0  0  0  0
  1  3  1  0  0  0  0
  2  4  1  0  0  0  0
  3  8  1  0  0  0  0
  3  2  2  0  0  0  0
  4  6  2  0  0  0  0
  4  5  1  0  0  0  0
  5 22  1  0  0  0  0
  5 21  1  0  0  0  0
  6 24  1  0  0  0  0
  7 25  1  0  0  0  0
  7  6  1  0  0  0  0
  8  7  2  0  0  0  0
  9  1  1  0  0  0  0
 10 27  1  0  0  0  0
 10  9  2  0  0  0  0
 11 10  1  0  0  0  0
 12 11  2  0  0  0  0
 12 13  1  0  0  0  0
 13 14  2  0  0  0  0
 14  9  1  0  0  0  0
 14 31  1  0  0  0  0
 15  1  1  0  0  0  0
 15 20  1  0  0  0  0
 16 15  2  0  0  0  0
 17 16  1  0  0  0  0
 17 18  2  0  0  0  0
 18 19  1  0  0  0  0
 19 20  2  0  0  0  0
 19 35  1  0  0  0  0
 20 36  1  0  0  0  0
 23  5  1  0  0  0  0
 26  8  1  0  0  0  0
 28 11  1  0  0  0  0
 29 12  1  0  0  0  0
 30 13  1  0  0  0  0
 32 16  1  0  0  0  0
 33 17  1  0  0  0  0
 34 18  1  0  0  0  0
M  END
