1
q = -1.0, confidence = 0.0

 33 36  0  0  0  0  0  0  0  0999 V2000
    0.4616   -0.6303   -0.1302 P   0  0  0  0  0  4  0  0  0  0  0  0
    1.5155   -0.7091    1.2926 O   0  0  0  0  0  0  0  0  0  0  0  0
   -0.6626   -0.5652   -1.6237 O   0  0  0  0  0  0  0  0  0  0  0  0
    1.8828   -0.8377   -1.1375 N   0  0  0  0  0  0  0  0  0  0  0  0
   -0.2599   -2.2000    0.1908 N   0  0  0  0  0  0  0  0  0  0  0  0
    1.9330   -0.8824   -2.5859 C   0  0  0  0  0  0  0  0  0  0  0  0
    0.2773   -3.2389    1.0461 C   0  0  0  0  0  0  0  0  0  0  0  0
    3.0551   -1.0271   -0.4058 C   0  0  0  0  0  0  0  0  0  0  0  0
    4.3549   -1.2470   -0.8852 C   0  0  0  0  0  0  0  0  0  0  0  0
    5.4069   -1.3766    0.0470 C   0  0  0  0  0  0  0  0  0  0  0  0
    5.1656   -1.2843    1.4249 C   0  0  0  0  0  0  0  0  0  0  0  0
    3.8586   -1.0627    1.9118 C   0  0  0  0  0  0  0  0  0  0  0  0
    2.8194   -0.9381    0.9897 C   0  0  0  0  0  0  0  0  0  0  0  0
   -1.4942   -2.3749   -0.4341 C   0  0  0  0  0  0  0  0  0  0  0  0
   -2.4811   -3.3316   -0.1523 C   0  0  0  0  0  0  0  0  0  0  0  0
   -3.6897   -3.2918   -0.8802 C   0  0  0  0  0  0  0  0  0  0  0  0
   -3.9062   -2.3114   -1.8617 C   0  0  0  0  0  0  0  0  0  0  0  0
   -2.9148   -1.3519   -2.1535 C   0  0  0  0  0  0  0  0  0  0  0  0
   -1.7096   -1.4013   -1.4479 C   0  0  0  0  0  0  0  0  0  0  0  0
    2.6337   -0.1109   -2.9777 H   0  0  0  0  0  0  0  0  0  0  0  0
    2.2898   -1.8749   -2.9393 H   0  0  0  0  0  0  0  0  0  0  0  0
    0.9264   -0.6992   -2.9946 H   0  0  0  0  0  0  0  0  0  0  0  0
    1.3272   -3.0255    1.3044 H   0  0  0  0  0  0  0  0  0  0  0  0
    0.2375   -4.2125    0.5125 H   0  0  0  0  0  0  0  0  0  0  0  0
   -0.2922   -3.3473    1.9970 H   0  0  0  0  0  0  0  0  0  0  0  0
    4.5525   -1.3191   -1.9637 H   0  0  0  0  0  0  0  0  0  0  0  0
    6.4292   -1.5520   -0.3197 H   0  0  0  0  0  0  0  0  0  0  0  0
    5.9977   -1.3854    2.1372 H   0  0  0  0  0  0  0  0  0  0  0  0
    3.6448   -0.9861    2.9876 H   0  0  0  0  0  0  0  0  0  0  0  0
   -2.3182   -4.0962    0.6208 H   0  0  0  0  0  0  0  0  0  0  0  0
   -4.4701   -4.0378   -0.6686 H   0  0  0  0  0  0  0  0  0  0  0  0
   -4.8589   -2.2876   -2.4114 H   0  0  0  0  0  0  0  0  0  0  0  0
   -3.0641   -0.5705   -2.9116 H   0  0  0  0  0  0  0  0  0  0  0  0
  1  5  1  0  0  0  0
  1  2  1  0  0  0  0
  3 19  1  0  0  0  0
  3  1  1  0  0  0  0
  4  8  1  0  0  0  0
  4  1  1  0  0  0  0
  5  7  1  0  0  0  0
  6  4  1  0  0  0  0
  7 23  1  0  0  0  0
  7 25  1  0  0  0  0
  8 13  1  0  0  0  0
  9  8  2  0  0  0  0
  9 10  1  0  0  0  0
 10 11  2  0  0  0  0
 11 12  1  0  0  0  0
 11 28  1  0  0  0  0
 12 29  1  0  0  0  0
 13  2  1  0  0  0  0
 13 12  2  0  0  0  0
 14 15  1  0  0  0  0
 14  5  1  0  0  0  0
 15 30  1  0  0  0  0
 16 31  1  0  0  0  0
 16 15  2  0  0  0  0
 17 16  1  0  0  0  0
 18 17  2  0  0  0  0
 18 19  1  0  0  0  0
 19 14  2  0  0  0  0
 20  6  1  0  0  0  0
 21  6  1  0  0  0  0
 22  6  1  0  0  0  0
 24  7  1  0  0  0  0
 26  9  1  0  0  0  0
 27 10  1  0  0  0  0
 32 17  1  0  0  0  0
 33 18  1  0  0  0  0
M  END
