1
q = 0.0, confidence = 1.0

 51 54  0  0  0  0  0  0  0  0999 V2000
    1.4594    0.3556    0.3185 P   0  0  0  0  0  0  0  0  0  0  0  0
   -2.8586    0.4154    0.5121 P   0  0  0  0  0  0  0  0  0  0  0  0
   -2.7926    1.0726    1.8895 O   0  0  0  0  0  0  0  0  0  0  0  0
   -4.0026   -1.7745   -0.6500 N   0  0  0  0  0  0  0  0  0  0  0  0
   -3.2036    1.3023   -2.0596 N   0  0  0  0  0  0  0  0  0  0  0  0
   -0.2358    0.9546   -0.0992 C   0  0  0  0  0  0  0  0  0  0  0  0
   -0.5118    1.7208    0.6581 H   0  0  0  0  0  0  0  0  0  0  0  0
   -0.1566    1.4739   -1.0743 H   0  0  0  0  0  0  0  0  0  0  0  0
   -1.2638   -0.1852   -0.1571 C   0  0  0  0  0  0  0  0  0  0  0  0
   -0.9750   -1.0546    0.4699 H   0  0  0  0  0  0  0  0  0  0  0  0
   -1.4421   -0.5533   -1.1861 H   0  0  0  0  0  0  0  0  0  0  0  0
    1.3463   -0.2259    2.0556 C   0  0  0  0  0  0  0  0  0  0  0  0
    2.4384   -0.9688    2.5543 C   0  0  0  0  0  0  0  0  0  0  0  0
    3.2827   -1.2077    1.8879 H   0  0  0  0  0  0  0  0  0  0  0  0
    2.4431   -1.4084    3.8843 C   0  0  0  0  0  0  0  0  0  0  0  0
    3.2993   -1.9852    4.2653 H   0  0  0  0  0  0  0  0  0  0  0  0
    1.3512   -1.1249    4.7220 C   0  0  0  0  0  0  0  0  0  0  0  0
    1.3507   -1.4785    5.7644 H   0  0  0  0  0  0  0  0  0  0  0  0
    0.2571   -0.4022    4.2238 C   0  0  0  0  0  0  0  0  0  0  0  0
   -0.6091   -0.1893    4.8684 H   0  0  0  0  0  0  0  0  0  0  0  0
    0.2469    0.0543    2.8950 C   0  0  0  0  0  0  0  0  0  0  0  0
   -0.6436    0.5984    2.5378 H   0  0  0  0  0  0  0  0  0  0  0  0
    2.4390    1.9059    0.4076 C   0  0  0  0  0  0  0  0  0  0  0  0
    3.3590    2.2047   -0.6162 C   0  0  0  0  0  0  0  0  0  0  0  0
    3.5135    1.4809   -1.4327 H   0  0  0  0  0  0  0  0  0  0  0  0
    4.0760    3.4106   -0.5834 C   0  0  0  0  0  0  0  0  0  0  0  0
    4.7961    3.6387   -1.3836 H   0  0  0  0  0  0  0  0  0  0  0  0
    3.8809    4.3168    0.4706 C   0  0  0  0  0  0  0  0  0  0  0  0
    4.4482    5.2596    0.4978 H   0  0  0  0  0  0  0  0  0  0  0  0
    2.9682    4.0176    1.4963 C   0  0  0  0  0  0  0  0  0  0  0  0
    2.8203    4.7236    2.3275 H   0  0  0  0  0  0  0  0  0  0  0  0
    2.2481    2.8151    1.4687 C   0  0  0  0  0  0  0  0  0  0  0  0
    1.5450    2.5749    2.2816 H   0  0  0  0  0  0  0  0  0  0  0  0
   -3.9815   -1.0416    0.4761 C   0  0  0  0  0  0  0  0  0  0  0  0
   -4.7441   -1.3255    1.6223 C   0  0  0  0  0  0  0  0  0  0  0  0
   -4.6508   -0.6756    2.5055 H   0  0  0  0  0  0  0  0  0  0  0  0
   -5.5882   -2.4450    1.5821 C   0  0  0  0  0  0  0  0  0  0  0  0
   -6.2064   -2.7133    2.4528 H   0  0  0  0  0  0  0  0  0  0  0  0
   -5.6255   -3.2176    0.4122 C   0  0  0  0  0  0  0  0  0  0  0  0
   -6.2717   -4.1051    0.3376 H   0  0  0  0  0  0  0  0  0  0  0  0
   -4.8130   -2.8428   -0.6736 C   0  0  0  0  0  0  0  0  0  0  0  0
   -4.8158   -3.4365   -1.6048 H   0  0  0  0  0  0  0  0  0  0  0  0
   -3.4828    1.5804   -0.7748 C   0  0  0  0  0  0  0  0  0  0  0  0
   -4.1963    2.7158   -0.3509 C   0  0  0  0  0  0  0  0  0  0  0  0
   -4.3511    2.8851    0.7254 H   0  0  0  0  0  0  0  0  0  0  0  0
   -4.6673    3.5979   -1.3337 C   0  0  0  0  0  0  0  0  0  0  0  0
   -5.2326    4.5002   -1.0538 H   0  0  0  0  0  0  0  0  0  0  0  0
   -4.3973    3.3110   -2.6801 C   0  0  0  0  0  0  0  0  0  0  0  0
   -4.7455    3.9763   -3.4843 H   0  0  0  0  0  0  0  0  0  0  0  0
   -3.6571    2.1559   -2.9899 C   0  0  0  0  0  0  0  0  0  0  0  0
   -3.4147    1.9119   -4.0393 H   0  0  0  0  0  0  0  0  0  0  0  0
  1 23  1  0  0  0  0
  1 12  1  0  0  0  0
  2  3  2  0  0  0  0
  4 34  1  0  0  0  0
  5 43  1  0  0  0  0
  6  1  1  0  0  0  0
  6  7  1  0  0  0  0
  8  6  1  0  0  0  0
  9  6  1  0  0  0  0
  9 10  1  0  0  0  0
  9  2  1  0  0  0  0
 11  9  1  0  0  0  0
 12 13  2  0  0  0  0
 12 21  1  0  0  0  0
 13 15  1  0  0  0  0
 14 13  1  0  0  0  0
 15 16  1  0  0  0  0
 15 17  2  0  0  0  0
 17 18  1  0  0  0  0
 19 17  1  0  0  0  0
 19 20  1  0  0  0  0
 21 19  2  0  0  0  0
 22 21  1  0  0  0  0
 23 32  1  0  0  0  0
 24 26  1  0  0  0  0
 24 23  2  0  0  0  0
 25 24  1  0  0  0  0
 26 28  2  0  0  0  0
 27 26  1  0  0  0  0
 28 29  1  0  0  0  0
 28 30  1  0  0  0  0
 30 31  1  0  0  0  0
 32 30  2  0  0  0  0
 32 33  1  0  0  0  0
 34  2  1  0  0  0  0
 34 35  2  0  0  0  0
 35 36  1  0  0  0  0
 37 35  1  0  0  0  0
 37 38  1  0  0  0  0
 39 37  2  0  0  0  0
 40 39  1  0  0  0  0
 41  4  2  0  0  0  0
 41 39  1  0  0  0  0
 42 41  1  0  0  0  0
 43 44  2  0  0  0  0
 43  2  1  0  0  0  0
 44 45  1  0  0  0  0
 46 47  1  0  0  0  0
 46 44  1  0  0  0  0
 48 46  2  0  0  0  0
 49 48  1  0  0  0  0
 50 48  1  0  0  0  0
 50  5  2  0  0  0  0
 51 50  1  0  0  0  0
M  END
