1
q = 0.0, confidence = 0.996

 54 55  0  0  0  0  0  0  0  0999 V2000
   -1.4024    0.5474    0.1171 P   0  0  0  0  0  0  0  0  0  0  0  0
    3.0854    1.2027    0.2444 Si  0  0  0  0  0  0  0  0  0  0  0  0
    3.3503    0.4442    1.7139 O   0  0  0  0  0  0  0  0  0  0  0  0
    4.2719    0.8901   -0.8909 O   0  0  0  0  0  0  0  0  0  0  0  0
    3.1748    2.8409    0.5478 O   0  0  0  0  0  0  0  0  0  0  0  0
   -2.4629    1.0356    1.5437 C   0  0  0  0  0  0  0  0  0  0  0  0
   -3.8315    1.2874    1.3014 C   0  0  0  0  0  0  0  0  0  0  0  0
   -4.2151    1.2599    0.2692 H   0  0  0  0  0  0  0  0  0  0  0  0
   -4.7026    1.5607    2.3623 C   0  0  0  0  0  0  0  0  0  0  0  0
   -5.7661    1.7556    2.1572 H   0  0  0  0  0  0  0  0  0  0  0  0
   -4.2251    1.5748    3.6843 C   0  0  0  0  0  0  0  0  0  0  0  0
   -4.9124    1.7832    4.5180 H   0  0  0  0  0  0  0  0  0  0  0  0
   -2.8695    1.3203    3.9354 C   0  0  0  0  0  0  0  0  0  0  0  0
   -2.4866    1.3351    4.9675 H   0  0  0  0  0  0  0  0  0  0  0  0
   -1.9894    1.0554    2.8717 C   0  0  0  0  0  0  0  0  0  0  0  0
   -0.9268    0.8729    3.0877 H   0  0  0  0  0  0  0  0  0  0  0  0
   -1.5721    2.0041   -1.0131 C   0  0  0  0  0  0  0  0  0  0  0  0
   -1.3744    1.8477   -2.3991 C   0  0  0  0  0  0  0  0  0  0  0  0
   -1.2107    0.8467   -2.8212 H   0  0  0  0  0  0  0  0  0  0  0  0
   -1.3856    2.9668   -3.2473 C   0  0  0  0  0  0  0  0  0  0  0  0
   -1.2293    2.8300   -4.3280 H   0  0  0  0  0  0  0  0  0  0  0  0
   -1.6046    4.2489   -2.7222 C   0  0  0  0  0  0  0  0  0  0  0  0
   -1.6203    5.1241   -3.3893 H   0  0  0  0  0  0  0  0  0  0  0  0
   -1.8082    4.4116   -1.3419 C   0  0  0  0  0  0  0  0  0  0  0  0
   -1.9822    5.4146   -0.9232 H   0  0  0  0  0  0  0  0  0  0  0  0
   -1.7870    3.2977   -0.4910 C   0  0  0  0  0  0  0  0  0  0  0  0
   -1.9432    3.4332    0.5903 H   0  0  0  0  0  0  0  0  0  0  0  0
    0.3211    0.8726    0.7517 C   0  0  0  0  0  0  0  0  0  0  0  0
    0.3453    1.9171    1.1287 H   0  0  0  0  0  0  0  0  0  0  0  0
    0.4954    0.2055    1.6185 H   0  0  0  0  0  0  0  0  0  0  0  0
    1.3929    0.6381   -0.3125 C   0  0  0  0  0  0  0  0  0  0  0  0
    1.1543    1.1847   -1.2500 H   0  0  0  0  0  0  0  0  0  0  0  0
    1.4421   -0.4345   -0.5855 H   0  0  0  0  0  0  0  0  0  0  0  0
    4.4540    0.7474    2.5660 C   0  0  0  0  0  0  0  0  0  0  0  0
    4.5653    1.8509    2.6636 H   0  0  0  0  0  0  0  0  0  0  0  0
    5.3979    0.3646    2.1123 H   0  0  0  0  0  0  0  0  0  0  0  0
    4.2262    0.1122    3.9271 C   0  0  0  0  0  0  0  0  0  0  0  0
    5.0703    0.3334    4.6110 H   0  0  0  0  0  0  0  0  0  0  0  0
    4.1319   -0.9897    3.8395 H   0  0  0  0  0  0  0  0  0  0  0  0
    3.2946    0.5006    4.3861 H   0  0  0  0  0  0  0  0  0  0  0  0
    4.5024   -0.3730   -1.5180 C   0  0  0  0  0  0  0  0  0  0  0  0
    4.1830   -1.2096   -0.8552 H   0  0  0  0  0  0  0  0  0  0  0  0
    5.6026   -0.4707   -1.6485 H   0  0  0  0  0  0  0  0  0  0  0  0
    3.8067   -0.4814   -2.8676 C   0  0  0  0  0  0  0  0  0  0  0  0
    4.1005   -1.4229   -3.3755 H   0  0  0  0  0  0  0  0  0  0  0  0
    4.0917    0.3679   -3.5209 H   0  0  0  0  0  0  0  0  0  0  0  0
    2.7033   -0.4932   -2.7662 H   0  0  0  0  0  0  0  0  0  0  0  0
    3.2809    3.8545   -0.4506 C   0  0  0  0  0  0  0  0  0  0  0  0
    3.8684    3.4785   -1.3188 H   0  0  0  0  0  0  0  0  0  0  0  0
    3.8620    4.6904   -0.0036 H   0  0  0  0  0  0  0  0  0  0  0  0
    1.9147    4.3551   -0.9029 C   0  0  0  0  0  0  0  0  0  0  0  0
    2.0235    5.1991   -1.6144 H   0  0  0  0  0  0  0  0  0  0  0  0
    1.3198    4.7089   -0.0370 H   0  0  0  0  0  0  0  0  0  0  0  0
    1.3284    3.5628   -1.4113 H   0  0  0  0  0  0  0  0  0  0  0  0
  1 28  1  0  0  0  0
  1  6  1  0  0  0  0
  2  5  1  0  0  0  0
  2  3  1  0  0  0  0
  3 34  1  0  0  0  0
  4  2  1  0  0  0  0
  6 15  1  0  0  0  0
  7  6  2  0  0  0  0
  7  9  1  0  0  0  0
  8  7  1  0  0  0  0
  9 11  2  0  0  0  0
 10  9  1  0  0  0  0
 11 13  1  0  0  0  0
 11 12  1  0  0  0  0
 13 14  1  0  0  0  0
 15 16  1  0  0  0  0
 15 13  2  0  0  0  0
 17 26  1  0  0  0  0
 17  1  1  0  0  0  0
 18 17  2  0  0  0  0
 19 18  1  0  0  0  0
 20 22  2  0  0  0  0
 20 18  1  0  0  0  0
 21 20  1  0  0  0  0
 22 24  1  0  0  0  0
 23 22  1  0  0  0  0
 24 25  1  0  0  0  0
 24 26  2  0  0  0  0
 26 27  1  0  0  0  0
 28 29  1  0  0  0  0
 28 30  1  0  0  0  0
 31  2  1  0  0  0  0
 31 28  1  0  0  0  0
 32 31  1  0  0  0  0
 33 31  1  0  0  0  0
 34 35  1  0  0  0  0
 34 37  1  0  0  0  0
 36 34  1  0  0  0  0
 37 40  1  0  0  0  0
 37 38  1  0  0  0  0
 39 37  1  0  0  0  0
 41  4  1  0  0  0  0
 41 42  1  0  0  0  0
 43 41  1  0  0  0  0
 44 47  1  0  0  0  0
 44 41  1  0  0  0  0
 45 44  1  0  0  0  0
 46 44  1  0  0  0  0
 48 50  1  0  0  0  0
 48  5  1  0  0  0  0
 49 48  1  0  0  0  0
 51 48  1  0  0  0  0
 51 53  1  0  0  0  0
 52 51  1  0  0  0  0
 54 51  1  0  0  0  0
M  END
