1
q = 0.0, confidence = 0.996

 31 32  0  0  0  0  0  0  0  0999 V2000
    2.2266   -0.0028   -0.4475 P   0  0  0  0  0  0  0  0  0  0  0  0
    0.8061   -2.3393   -1.6209 O   0  0  0  0  0  0  0  0  0  0  0  0
    2.5321   -0.8861   -1.9302 N   0  0  0  0  0  0  0  0  0  0  0  0
    3.1992    1.5065   -0.7575 C   0  0  0  0  0  0  0  0  0  0  0  0
    2.5547    2.7583   -0.6963 C   0  0  0  0  0  0  0  0  0  0  0  0
    3.2829    3.9327   -0.9408 C   0  0  0  0  0  0  0  0  0  0  0  0
    4.6498    3.8604   -1.2499 C   0  0  0  0  0  0  0  0  0  0  0  0
    5.2973    2.6140   -1.3078 C   0  0  0  0  0  0  0  0  0  0  0  0
    4.5788    1.4372   -1.0575 C   0  0  0  0  0  0  0  0  0  0  0  0
    3.1027   -0.9213    0.8658 C   0  0  0  0  0  0  0  0  0  0  0  0
    3.9553   -0.2598    1.7729 C   0  0  0  0  0  0  0  0  0  0  0  0
    4.5434   -0.9777    2.8256 C   0  0  0  0  0  0  0  0  0  0  0  0
    4.2814   -2.3477    2.9786 C   0  0  0  0  0  0  0  0  0  0  0  0
    3.4195   -3.0031    2.0827 C   0  0  0  0  0  0  0  0  0  0  0  0
    2.8191   -2.2948    1.0335 C   0  0  0  0  0  0  0  0  0  0  0  0
    1.6964   -1.9026   -2.3534 C   0  0  0  0  0  0  0  0  0  0  0  0
    1.9199   -2.3998   -3.7655 C   0  0  0  0  0  0  0  0  0  0  0  0
    1.4805    2.8025   -0.4571 H   0  0  0  0  0  0  0  0  0  0  0  0
    2.7784    4.9090   -0.8914 H   0  0  0  0  0  0  0  0  0  0  0  0
    5.2187    4.7821   -1.4438 H   0  0  0  0  0  0  0  0  0  0  0  0
    6.3710    2.5598   -1.5414 H   0  0  0  0  0  0  0  0  0  0  0  0
    5.0977    0.4654   -1.0754 H   0  0  0  0  0  0  0  0  0  0  0  0
    4.1658    0.8137    1.6576 H   0  0  0  0  0  0  0  0  0  0  0  0
    5.2152   -0.4612    3.5274 H   0  0  0  0  0  0  0  0  0  0  0  0
    4.7502   -2.9084    3.8012 H   0  0  0  0  0  0  0  0  0  0  0  0
    3.2104   -4.0767    2.2038 H   0  0  0  0  0  0  0  0  0  0  0  0
    2.1236   -2.7981    0.3450 H   0  0  0  0  0  0  0  0  0  0  0  0
    1.6190   -3.4611   -3.8252 H   0  0  0  0  0  0  0  0  0  0  0  0
    1.2680   -1.8218   -4.4532 H   0  0  0  0  0  0  0  0  0  0  0  0
    2.9668   -2.2873   -4.1067 H   0  0  0  0  0  0  0  0  0  0  0  0
    3.2736   -0.5521   -2.5529 H   0  0  0  0  0  0  0  0  0  0  0  0
  1 10  1  0  0  0  0
  3  1  1  0  0  0  0
  4  5  1  0  0  0  0
  4  1  1  0  0  0  0
  5 18  1  0  0  0  0
  6 19  1  0  0  0  0
  6  5  2  0  0  0  0
  7  6  1  0  0  0  0
  8  7  2  0  0  0  0
  8  9  1  0  0  0  0
  9  4  2  0  0  0  0
 10 15  2  0  0  0  0
 10 11  1  0  0  0  0
 11 12  2  0  0  0  0
 12 13  1  0  0  0  0
 12 24  1  0  0  0  0
 13 25  1  0  0  0  0
 14 26  1  0  0  0  0
 14 13  2  0  0  0  0
 15 14  1  0  0  0  0
 16  3  1  0  0  0  0
 16  2  2  0  0  0  0
 17 16  1  0  0  0  0
 20  7  1  0  0  0  0
 21  8  1  0  0  0  0
 22  9  1  0  0  0  0
 23 11  1  0  0  0  0
 27 15  1  0  0  0  0
 28 17  1  0  0  0  0
 29 17  1  0  0  0  0
 30 17  1  0  0  0  0
 31  3  1  0  0  0  0
M  END
