1
q = 0.0, confidence = 0.998

 39 40  0  0  0  0  0  0  0  0999 V2000
    0.0882   -0.1973    0.9596 P   0  0  1  0  0  0  0  0  0  0  0  0
   -1.1187   -1.3551    0.6175 N   0  0  0  0  0  0  0  0  0  0  0  0
   -3.1710   -1.5707   -0.4735 N   0  0  0  0  0  0  0  0  0  0  0  0
    0.6090    2.8015    1.0543 O   0  0  0  0  0  0  0  0  0  0  0  0
   -1.2702    3.5649    0.0208 O   0  0  0  0  0  0  0  0  0  0  0  0
   -3.9473    2.1370    0.0574 O   0  0  0  0  0  0  0  0  0  0  0  0
   -3.0738    1.8146   -2.0222 O   0  0  0  0  0  0  0  0  0  0  0  0
   -0.9555    1.2090    0.4176 C   0  0  0  0  0  0  0  0  0  0  0  0
   -2.0984    0.7002   -0.1311 C   0  0  0  0  0  0  0  0  0  0  0  0
   -2.1458   -0.8003   -0.0022 C   0  0  0  0  0  0  0  0  0  0  0  0
    0.1218   -0.0799    2.7949 C   0  0  0  0  0  0  0  0  0  0  0  0
   -0.9032    0.0304    3.1966 H   0  0  0  0  0  0  0  0  0  0  0  0
    0.7463    0.7905    3.0729 H   0  0  0  0  0  0  0  0  0  0  0  0
    0.5867   -1.0047    3.1878 H   0  0  0  0  0  0  0  0  0  0  0  0
   -0.5973    2.6450    0.4551 C   0  0  0  0  0  0  0  0  0  0  0  0
    1.1416    4.1325    1.0680 C   0  0  0  0  0  0  0  0  0  0  0  0
    1.2879    4.4933    0.0302 H   0  0  0  0  0  0  0  0  0  0  0  0
    2.1098    4.0605    1.5931 H   0  0  0  0  0  0  0  0  0  0  0  0
    0.4546    4.8256    1.5928 H   0  0  0  0  0  0  0  0  0  0  0  0
   -3.0793    1.6048   -0.8250 C   0  0  0  0  0  0  0  0  0  0  0  0
   -4.8184    3.1458   -0.4793 C   0  0  0  0  0  0  0  0  0  0  0  0
   -4.2186    4.0238   -0.7909 H   0  0  0  0  0  0  0  0  0  0  0  0
   -5.5100    3.4177    0.3370 H   0  0  0  0  0  0  0  0  0  0  0  0
   -5.3766    2.7631   -1.3569 H   0  0  0  0  0  0  0  0  0  0  0  0
   -3.2206   -2.9800   -0.0683 C   0  0  0  0  0  0  0  0  0  0  0  0
   -2.2000   -3.2893    0.2186 H   0  0  0  0  0  0  0  0  0  0  0  0
   -3.5429   -3.5762   -0.9498 H   0  0  0  0  0  0  0  0  0  0  0  0
   -4.2178   -3.1458    1.0883 C   0  0  0  0  0  0  0  0  0  0  0  0
   -3.8143   -2.6073    1.9732 H   0  0  0  0  0  0  0  0  0  0  0  0
   -4.2872   -4.2170    1.3702 H   0  0  0  0  0  0  0  0  0  0  0  0
   -5.6019   -2.5909    0.7163 C   0  0  0  0  0  0  0  0  0  0  0  0
   -6.0556   -3.2435   -0.0633 H   0  0  0  0  0  0  0  0  0  0  0  0
   -6.2845   -2.6307    1.5901 H   0  0  0  0  0  0  0  0  0  0  0  0
   -5.5111   -1.1586    0.1676 C   0  0  0  0  0  0  0  0  0  0  0  0
   -6.4954   -0.8214   -0.2196 H   0  0  0  0  0  0  0  0  0  0  0  0
   -5.2184   -0.4466    0.9696 H   0  0  0  0  0  0  0  0  0  0  0  0
   -4.4627   -1.0830   -0.9503 C   0  0  0  0  0  0  0  0  0  0  0  0
   -4.7662   -1.7423   -1.7937 H   0  0  0  0  0  0  0  0  0  0  0  0
   -4.3685   -0.0754   -1.3833 H   0  0  0  0  0  0  0  0  0  0  0  0
  1 11  1  1  0  0  0
  2  1  1  0  0  0  0
  3 25  1  0  0  0  0
  3 10  1  0  0  0  0
  4 16  1  0  0  0  0
  5 15  2  0  0  0  0
  7 20  2  0  0  0  0
  8 15  1  0  0  0  0
  8  1  1  0  0  0  0
  9 10  1  0  0  0  0
  9  8  2  0  0  0  0
 10  2  2  0  0  0  0
 11 13  1  0  0  0  0
 11 14  1  0  0  0  0
 11 12  1  0  0  0  0
 15  4  1  0  0  0  0
 16 19  1  0  0  0  0
 16 18  1  0  0  0  0
 17 16  1  0  0  0  0
 20  9  1  0  0  0  0
 20  6  1  0  0  0  0
 21  6  1  0  0  0  0
 21 23  1  0  0  0  0
 22 21  1  0  0  0  0
 24 21  1  0  0  0  0
 25 26  1  0  0  0  0
 25 28  1  0  0  0  0
 27 25  1  0  0  0  0
 28 30  1  0  0  0  0
 28 29  1  0  0  0  0
 31 28  1  0  0  0  0
 31 33  1  0  0  0  0
 32 31  1  0  0  0  0
 34 31  1  0  0  0  0
 34 36  1  0  0  0  0
 35 34  1  0  0  0  0
 37  3  1  0  0  0  0
 37 34  1  0  0  0  0
 38 37  1  0  0  0  0
 39 37  1  0  0  0  0
M  END
