1
q = 0.0, confidence = 0.998

 64 66  0  0  0  0  0  0  0  0999 V2000
    0.1733   -0.7396   -0.0951 P   0  0  2  0  0  0  0  0  0  0  0  0
    1.9026    0.1123   -1.2452 P   0  0  2  0  0  0  0  0  0  0  0  0
    1.5774   -0.9184    1.1250 C   0  0  0  0  0  0  0  0  0  0  0  0
    2.6183   -0.3341    0.4372 C   0  0  0  0  0  0  0  0  0  0  0  0
    1.3367   -1.5115    2.5201 C   0  0  0  0  0  0  0  0  0  0  0  0
    0.1483   -2.4988    2.4596 C   0  0  0  0  0  0  0  0  0  0  0  0
   -0.7408   -2.0530    1.9744 H   0  0  0  0  0  0  0  0  0  0  0  0
   -0.1527   -2.7957    3.4838 H   0  0  0  0  0  0  0  0  0  0  0  0
    0.4185   -3.4192    1.9048 H   0  0  0  0  0  0  0  0  0  0  0  0
    2.5091   -2.2928    3.1429 C   0  0  0  0  0  0  0  0  0  0  0  0
    2.1903   -2.6958    4.1257 H   0  0  0  0  0  0  0  0  0  0  0  0
    3.4044   -1.6717    3.3210 H   0  0  0  0  0  0  0  0  0  0  0  0
    2.8005   -3.1543    2.5097 H   0  0  0  0  0  0  0  0  0  0  0  0
    0.9618   -0.3182    3.4361 C   0  0  0  0  0  0  0  0  0  0  0  0
    0.1152    0.2566    3.0135 H   0  0  0  0  0  0  0  0  0  0  0  0
    1.8164    0.3769    3.5490 H   0  0  0  0  0  0  0  0  0  0  0  0
    0.6641   -0.6794    4.4422 H   0  0  0  0  0  0  0  0  0  0  0  0
    4.1254   -0.1854    0.7088 C   0  0  0  0  0  0  0  0  0  0  0  0
    4.7950    0.6194   -0.4276 C   0  0  0  0  0  0  0  0  0  0  0  0
    5.8900    0.6658   -0.2611 H   0  0  0  0  0  0  0  0  0  0  0  0
    4.4236    1.6611   -0.4757 H   0  0  0  0  0  0  0  0  0  0  0  0
    4.6236    0.1456   -1.4159 H   0  0  0  0  0  0  0  0  0  0  0  0
    4.4024    0.5575    2.0328 C   0  0  0  0  0  0  0  0  0  0  0  0
    5.4956    0.6740    2.1816 H   0  0  0  0  0  0  0  0  0  0  0  0
    3.9997    0.0251    2.9129 H   0  0  0  0  0  0  0  0  0  0  0  0
    3.9501    1.5689    2.0191 H   0  0  0  0  0  0  0  0  0  0  0  0
    4.7839   -1.5865    0.6997 C   0  0  0  0  0  0  0  0  0  0  0  0
    5.8827   -1.4895    0.8208 H   0  0  0  0  0  0  0  0  0  0  0  0
    4.5913   -2.0962   -0.2660 H   0  0  0  0  0  0  0  0  0  0  0  0
    4.4051   -2.2350    1.5067 H   0  0  0  0  0  0  0  0  0  0  0  0
    0.0049   -2.4168   -0.9489 C   0  0  0  0  0  0  0  0  0  0  0  0
   -0.7770   -2.9518   -0.3655 H   0  0  0  0  0  0  0  0  0  0  0  0
    1.2870   -3.2621   -0.9566 C   0  0  0  0  0  0  0  0  0  0  0  0
    2.0852   -2.6995   -1.4914 H   0  0  0  0  0  0  0  0  0  0  0  0
    1.6613   -3.4211    0.0748 H   0  0  0  0  0  0  0  0  0  0  0  0
    1.0510   -4.6105   -1.6537 C   0  0  0  0  0  0  0  0  0  0  0  0
    1.9942   -5.1961   -1.6684 H   0  0  0  0  0  0  0  0  0  0  0  0
    0.3231   -5.2040   -1.0554 H   0  0  0  0  0  0  0  0  0  0  0  0
    0.5065   -4.4284   -3.0756 C   0  0  0  0  0  0  0  0  0  0  0  0
    0.3014   -5.4151   -3.5411 H   0  0  0  0  0  0  0  0  0  0  0  0
    1.2856   -3.9404   -3.7032 H   0  0  0  0  0  0  0  0  0  0  0  0
   -0.7562   -3.5584   -3.0804 C   0  0  0  0  0  0  0  0  0  0  0  0
   -1.1088   -3.3866   -4.1187 H   0  0  0  0  0  0  0  0  0  0  0  0
   -1.5800   -4.0901   -2.5535 H   0  0  0  0  0  0  0  0  0  0  0  0
   -0.5102   -2.2120   -2.3863 C   0  0  0  0  0  0  0  0  0  0  0  0
   -1.4363   -1.6038   -2.3916 H   0  0  0  0  0  0  0  0  0  0  0  0
    0.2514   -1.6309   -2.9531 H   0  0  0  0  0  0  0  0  0  0  0  0
    1.5526    1.9799   -1.2209 C   0  0  0  0  0  0  0  0  0  0  0  0
    0.4549    2.0211   -1.3996 H   0  0  0  0  0  0  0  0  0  0  0  0
    2.2429    2.6544   -2.4218 C   0  0  0  0  0  0  0  0  0  0  0  0
    3.3471    2.5645   -2.3130 H   0  0  0  0  0  0  0  0  0  0  0  0
    1.9792    2.1202   -3.3586 H   0  0  0  0  0  0  0  0  0  0  0  0
    1.8611    4.1381   -2.5186 C   0  0  0  0  0  0  0  0  0  0  0  0
    2.3921    4.6125   -3.3706 H   0  0  0  0  0  0  0  0  0  0  0  0
    0.7736    4.2159   -2.7434 H   0  0  0  0  0  0  0  0  0  0  0  0
    2.1604    4.8810   -1.2106 C   0  0  0  0  0  0  0  0  0  0  0  0
    1.8535    5.9449   -1.2898 H   0  0  0  0  0  0  0  0  0  0  0  0
    3.2607    4.8852   -1.0368 H   0  0  0  0  0  0  0  0  0  0  0  0
    1.4613    4.2101   -0.0221 C   0  0  0  0  0  0  0  0  0  0  0  0
    0.3607    4.2993   -0.1472 H   0  0  0  0  0  0  0  0  0  0  0  0
    1.7052    4.7323    0.9266 H   0  0  0  0  0  0  0  0  0  0  0  0
    1.8392    2.7254    0.0882 C   0  0  0  0  0  0  0  0  0  0  0  0
    1.3118    2.2419    0.9338 H   0  0  0  0  0  0  0  0  0  0  0  0
    2.9231    2.6518    0.3218 H   0  0  0  0  0  0  0  0  0  0  0  0
  1 31  1  6  0  0  0
  1  3  1  0  0  0  0
  2 48  1  1  0  0  0
  2  1  1  0  0  0  0
  2  4  1  0  0  0  0
  3  5  1  0  0  0  0
  4 18  1  0  0  0  0
  4  3  2  0  0  0  0
  5 10  1  0  0  0  0
  5 14  1  0  0  0  0
  6  5  1  0  0  0  0
  6  8  1  0  0  0  0
  7  6  1  0  0  0  0
  9  6  1  0  0  0  0
 10 12  1  0  0  0  0
 10 11  1  0  0  0  0
 13 10  1  0  0  0  0
 14 16  1  0  0  0  0
 14 17  1  0  0  0  0
 15 14  1  0  0  0  0
 18 23  1  0  0  0  0
 19 20  1  0  0  0  0
 19 18  1  0  0  0  0
 21 19  1  0  0  0  0
 22 19  1  0  0  0  0
 23 24  1  0  0  0  0
 23 25  1  0  0  0  0
 26 23  1  0  0  0  0
 27 18  1  0  0  0  0
 27 28  1  0  0  0  0
 27 30  1  0  0  0  0
 29 27  1  0  0  0  0
 31 32  1  0  0  0  0
 33 31  1  0  0  0  0
 33 35  1  0  0  0  0
 34 33  1  0  0  0  0
 36 38  1  0  0  0  0
 36 33  1  0  0  0  0
 37 36  1  0  0  0  0
 39 36  1  0  0  0  0
 40 39  1  0  0  0  0
 41 39  1  0  0  0  0
 42 39  1  0  0  0  0
 42 44  1  0  0  0  0
 42 45  1  0  0  0  0
 43 42  1  0  0  0  0
 45 31  1  0  0  0  0
 46 45  1  0  0  0  0
 47 45  1  0  0  0  0
 48 62  1  0  0  0  0
 49 48  1  0  0  0  0
 50 51  1  0  0  0  0
 50 48  1  0  0  0  0
 52 50  1  0  0  0  0
 53 50  1  0  0  0  0
 53 56  1  0  0  0  0
 54 53  1  0  0  0  0
 55 53  1  0  0  0  0
 56 58  1  0  0  0  0
 56 59  1  0  0  0  0
 57 56  1  0  0  0  0
 59 62  1  0  0  0  0
 59 61  1  0  0  0  0
 60 59  1  0  0  0  0
 62 64  1  0  0  0  0
 62 63  1  0  0  0  0
M  END
