1
q = 0.0, confidence = 1.0

 42 44  0  0  0  0  0  0  0  0999 V2000
   -0.1885    0.3099   -0.2321 P   0  0  0  0  0  0  0  0  0  0  0  0
    1.0346    1.5997   -0.7206 C   0  0  0  0  0  0  0  0  0  0  0  0
    2.0720    1.9427    0.1911 C   0  0  0  0  0  0  0  0  0  0  0  0
    3.1030    2.8153   -0.2030 C   0  0  0  0  0  0  0  0  0  0  0  0
    3.1099    3.3408   -1.5047 C   0  0  0  0  0  0  0  0  0  0  0  0
    2.0995    3.0049   -2.4153 C   0  0  0  0  0  0  0  0  0  0  0  0
    1.0690    2.1372   -2.0192 C   0  0  0  0  0  0  0  0  0  0  0  0
   -1.0702    1.0634    1.2107 C   0  0  0  0  0  0  0  0  0  0  0  0
   -2.1062    0.3160    1.8321 C   0  0  0  0  0  0  0  0  0  0  0  0
   -2.8005    0.8477    2.9369 C   0  0  0  0  0  0  0  0  0  0  0  0
   -2.4878    2.1322    3.4053 C   0  0  0  0  0  0  0  0  0  0  0  0
   -1.4942    2.8952    2.7780 C   0  0  0  0  0  0  0  0  0  0  0  0
   -0.7936    2.3557    1.6879 C   0  0  0  0  0  0  0  0  0  0  0  0
   -1.5032    0.5060   -1.5274 C   0  0  0  0  0  0  0  0  0  0  0  0
   -1.7362   -0.4792   -2.5037 C   0  0  0  0  0  0  0  0  0  0  0  0
   -2.7279   -0.2924   -3.4802 C   0  0  0  0  0  0  0  0  0  0  0  0
   -3.4965    0.8801   -3.4907 C   0  0  0  0  0  0  0  0  0  0  0  0
   -3.2707    1.8688   -2.5184 C   0  0  0  0  0  0  0  0  0  0  0  0
   -2.2834    1.6831   -1.5417 C   0  0  0  0  0  0  0  0  0  0  0  0
    1.9776    1.3779    1.4230 O   0  0  0  0  0  0  0  0  0  0  0  0
    2.9952    1.6099    2.3818 C   0  0  0  0  0  0  0  0  0  0  0  0
   -2.3771   -0.8938    1.2811 O   0  0  0  0  0  0  0  0  0  0  0  0
   -3.3720   -1.7188    1.8651 C   0  0  0  0  0  0  0  0  0  0  0  0
    3.9055    3.0792    0.4982 H   0  0  0  0  0  0  0  0  0  0  0  0
    3.9231    4.0188   -1.8054 H   0  0  0  0  0  0  0  0  0  0  0  0
    2.1097    3.4133   -3.4361 H   0  0  0  0  0  0  0  0  0  0  0  0
    0.2778    1.8662   -2.7331 H   0  0  0  0  0  0  0  0  0  0  0  0
   -3.5904    0.2654    3.4286 H   0  0  0  0  0  0  0  0  0  0  0  0
   -3.0383    2.5388    4.2673 H   0  0  0  0  0  0  0  0  0  0  0  0
   -1.2604    3.9096    3.1328 H   0  0  0  0  0  0  0  0  0  0  0  0
   -0.0226    2.9585    1.1885 H   0  0  0  0  0  0  0  0  0  0  0  0
   -1.1451   -1.4032   -2.5066 H   0  0  0  0  0  0  0  0  0  0  0  0
   -2.8992   -1.0746   -4.2350 H   0  0  0  0  0  0  0  0  0  0  0  0
   -4.2749    1.0245   -4.2553 H   0  0  0  0  0  0  0  0  0  0  0  0
   -3.8707    2.7916   -2.5175 H   0  0  0  0  0  0  0  0  0  0  0  0
   -2.1168    2.4583   -0.7790 H   0  0  0  0  0  0  0  0  0  0  0  0
    2.7018    1.0350    3.2791 H   0  0  0  0  0  0  0  0  0  0  0  0
    3.0694    2.6878    2.6452 H   0  0  0  0  0  0  0  0  0  0  0  0
    3.9797    1.2454    2.0178 H   0  0  0  0  0  0  0  0  0  0  0  0
   -3.3981   -2.6389    1.2548 H   0  0  0  0  0  0  0  0  0  0  0  0
   -4.3707   -1.2306    1.8406 H   0  0  0  0  0  0  0  0  0  0  0  0
   -3.1162   -1.9787    2.9156 H   0  0  0  0  0  0  0  0  0  0  0  0
  1  8  1  0  0  0  0
  2  1  1  0  0  0  0
  2  3  1  0  0  0  0
  3 20  1  0  0  0  0
  4  3  2  0  0  0  0
  4 24  1  0  0  0  0
  5  4  1  0  0  0  0
  6  7  1  0  0  0  0
  6  5  2  0  0  0  0
  7  2  2  0  0  0  0
  8 13  2  0  0  0  0
  8  9  1  0  0  0  0
  9 10  2  0  0  0  0
 10 11  1  0  0  0  0
 10 28  1  0  0  0  0
 11 29  1  0  0  0  0
 12 30  1  0  0  0  0
 12 11  2  0  0  0  0
 13 12  1  0  0  0  0
 14  1  1  0  0  0  0
 15 14  2  0  0  0  0
 16 15  1  0  0  0  0
 17 16  2  0  0  0  0
 17 18  1  0  0  0  0
 18 35  1  0  0  0  0
 18 19  2  0  0  0  0
 19 14  1  0  0  0  0
 19 36  1  0  0  0  0
 20 21  1  0  0  0  0
 21 38  1  0  0  0  0
 21 37  1  0  0  0  0
 22  9  1  0  0  0  0
 22 23  1  0  0  0  0
 23 42  1  0  0  0  0
 25  5  1  0  0  0  0
 26  6  1  0  0  0  0
 27  7  1  0  0  0  0
 31 13  1  0  0  0  0
 32 15  1  0  0  0  0
 33 16  1  0  0  0  0
 34 17  1  0  0  0  0
 39 21  1  0  0  0  0
 40 23  1  0  0  0  0
 41 23  1  0  0  0  0
M  END
