1
q = 0.0, confidence = 0.992

 43 45  0  0  0  0  0  0  0  0999 V2000
   -0.3149   -0.0532    0.3499 P   0  0  0  0  0  0  0  0  0  0  0  0
   -5.3086   -0.4161   -1.4052 F   0  0  0  0  0  0  0  0  0  0  0  0
   -5.7369    1.3192   -2.6658 F   0  0  0  0  0  0  0  0  0  0  0  0
   -6.0202    1.4408   -0.5083 F   0  0  0  0  0  0  0  0  0  0  0  0
    4.4761   -2.2293   -0.3894 F   0  0  0  0  0  0  0  0  0  0  0  0
    4.8218   -2.4700   -2.5354 F   0  0  0  0  0  0  0  0  0  0  0  0
    3.7109   -3.9859   -1.4321 F   0  0  0  0  0  0  0  0  0  0  0  0
    4.6840    4.0162    0.9410 F   0  0  0  0  0  0  0  0  0  0  0  0
    4.3772    2.5469   -0.6495 F   0  0  0  0  0  0  0  0  0  0  0  0
    3.1546    4.3493   -0.5816 F   0  0  0  0  0  0  0  0  0  0  0  0
   -1.5397    1.0695   -0.4601 C   0  0  0  0  0  0  0  0  0  0  0  0
   -2.8537    0.6053   -0.6532 C   0  0  0  0  0  0  0  0  0  0  0  0
   -3.7941    1.4111   -1.3124 C   0  0  0  0  0  0  0  0  0  0  0  0
   -3.4331    2.6873   -1.7769 C   0  0  0  0  0  0  0  0  0  0  0  0
   -2.1273    3.1545   -1.5747 C   0  0  0  0  0  0  0  0  0  0  0  0
   -1.1811    2.3532   -0.9190 C   0  0  0  0  0  0  0  0  0  0  0  0
   -5.2199    0.9308   -1.4748 C   0  0  0  0  0  0  0  0  0  0  0  0
    0.6618   -0.7097   -1.0664 C   0  0  0  0  0  0  0  0  0  0  0  0
    1.8844   -1.3566   -0.7944 C   0  0  0  0  0  0  0  0  0  0  0  0
    2.6220   -1.9242   -1.8416 C   0  0  0  0  0  0  0  0  0  0  0  0
    2.1430   -1.8644   -3.1636 C   0  0  0  0  0  0  0  0  0  0  0  0
    0.9217   -1.2347   -3.4293 C   0  0  0  0  0  0  0  0  0  0  0  0
    0.1794   -0.6567   -2.3868 C   0  0  0  0  0  0  0  0  0  0  0  0
    3.9154   -2.6515   -1.5452 C   0  0  0  0  0  0  0  0  0  0  0  0
    0.8602    1.1136    1.1591 C   0  0  0  0  0  0  0  0  0  0  0  0
    1.8788    1.7407    0.4189 C   0  0  0  0  0  0  0  0  0  0  0  0
    2.7167    2.6839    1.0361 C   0  0  0  0  0  0  0  0  0  0  0  0
    2.5581    2.9898    2.3971 C   0  0  0  0  0  0  0  0  0  0  0  0
    1.5551    2.3487    3.1391 C   0  0  0  0  0  0  0  0  0  0  0  0
    0.7076    1.4155    2.5269 C   0  0  0  0  0  0  0  0  0  0  0  0
    3.7454    3.3996    0.1908 C   0  0  0  0  0  0  0  0  0  0  0  0
   -3.1432   -0.3900   -0.2867 H   0  0  0  0  0  0  0  0  0  0  0  0
   -4.1758    3.3103   -2.2959 H   0  0  0  0  0  0  0  0  0  0  0  0
   -1.8408    4.1554   -1.9301 H   0  0  0  0  0  0  0  0  0  0  0  0
   -0.1627    2.7375   -0.7623 H   0  0  0  0  0  0  0  0  0  0  0  0
    2.2762   -1.4141    0.2315 H   0  0  0  0  0  0  0  0  0  0  0  0
    2.7338   -2.3072   -3.9782 H   0  0  0  0  0  0  0  0  0  0  0  0
    0.5411   -1.1871   -4.4602 H   0  0  0  0  0  0  0  0  0  0  0  0
   -0.7777   -0.1615   -2.6059 H   0  0  0  0  0  0  0  0  0  0  0  0
    2.0346    1.4916   -0.6411 H   0  0  0  0  0  0  0  0  0  0  0  0
    3.2283    3.7201    2.8718 H   0  0  0  0  0  0  0  0  0  0  0  0
    1.4360    2.5743    4.2090 H   0  0  0  0  0  0  0  0  0  0  0  0
   -0.0710    0.9043    3.1119 H   0  0  0  0  0  0  0  0  0  0  0  0
  1 25  1  0  0  0  0
  3 17  1  0  0  0  0
  6 24  1  0  0  0  0
  9 31  1  0  0  0  0
 10 31  1  0  0  0  0
 11  1  1  0  0  0  0
 12 11  1  0  0  0  0
 12 32  1  0  0  0  0
 13 12  2  0  0  0  0
 14 15  2  0  0  0  0
 14 13  1  0  0  0  0
 15 16  1  0  0  0  0
 16 35  1  0  0  0  0
 16 11  2  0  0  0  0
 17  2  1  0  0  0  0
 17 13  1  0  0  0  0
 17  4  1  0  0  0  0
 18 19  1  0  0  0  0
 18  1  1  0  0  0  0
 19 36  1  0  0  0  0
 20 24  1  0  0  0  0
 20 19  2  0  0  0  0
 21 20  1  0  0  0  0
 22 21  2  0  0  0  0
 22 23  1  0  0  0  0
 23 18  2  0  0  0  0
 24  7  1  0  0  0  0
 24  5  1  0  0  0  0
 25 30  1  0  0  0  0
 26 27  1  0  0  0  0
 26 25  2  0  0  0  0
 27 28  2  0  0  0  0
 28 41  1  0  0  0  0
 28 29  1  0  0  0  0
 29 42  1  0  0  0  0
 30 43  1  0  0  0  0
 30 29  2  0  0  0  0
 31  8  1  0  0  0  0
 31 27  1  0  0  0  0
 33 14  1  0  0  0  0
 34 15  1  0  0  0  0
 37 21  1  0  0  0  0
 38 22  1  0  0  0  0
 39 23  1  0  0  0  0
 40 26  1  0  0  0  0
M  END
