1
q = 0.0, confidence = 0.994

 36 35  0  0  0  0  0  0  0  0999 V2000
    2.0129   -1.1868   -0.0219 P   0  0  0  0  0  0  0  0  0  0  0  0
    5.6693    0.1317   -0.9317 O   0  0  0  0  0  0  0  0  0  0  0  0
    3.4656   -0.3018    0.2674 N   0  0  0  0  0  0  0  0  0  0  0  0
    4.2981   -0.4114   -0.4100 H   0  0  0  0  0  0  0  0  0  0  0  0
    7.0850    1.9656   -0.3557 C   0  0  0  0  0  0  0  0  0  0  0  0
    7.9746    1.3051   -0.3837 H   0  0  0  0  0  0  0  0  0  0  0  0
    7.2157    2.7342    0.4286 H   0  0  0  0  0  0  0  0  0  0  0  0
    7.0315    2.4670   -1.3444 H   0  0  0  0  0  0  0  0  0  0  0  0
    5.8403    1.1225   -0.1633 C   0  0  0  0  0  0  0  0  0  0  0  0
    4.8989    1.4853    0.8609 C   0  0  0  0  0  0  0  0  0  0  0  0
    5.1066    2.3513    1.5028 H   0  0  0  0  0  0  0  0  0  0  0  0
    3.7024    0.7892    1.0492 C   0  0  0  0  0  0  0  0  0  0  0  0
    2.7347    1.1826    2.1270 C   0  0  0  0  0  0  0  0  0  0  0  0
    1.6984    0.8876    1.8663 H   0  0  0  0  0  0  0  0  0  0  0  0
    2.7602    2.2752    2.2915 H   0  0  0  0  0  0  0  0  0  0  0  0
    3.0040    0.6822    3.0805 H   0  0  0  0  0  0  0  0  0  0  0  0
    2.1403   -2.6650    1.1156 C   0  0  0  0  0  0  0  0  0  0  0  0
    1.2365   -3.2542    0.8511 H   0  0  0  0  0  0  0  0  0  0  0  0
    1.9950   -2.2195    2.5744 C   0  0  0  0  0  0  0  0  0  0  0  0
    1.9352   -3.1112    3.2314 H   0  0  0  0  0  0  0  0  0  0  0  0
    1.0700   -1.6289    2.7219 H   0  0  0  0  0  0  0  0  0  0  0  0
    2.8693   -1.6223    2.9032 H   0  0  0  0  0  0  0  0  0  0  0  0
    3.4159   -3.4786    0.8815 C   0  0  0  0  0  0  0  0  0  0  0  0
    4.3223   -2.8497    1.0032 H   0  0  0  0  0  0  0  0  0  0  0  0
    3.4503   -3.9420   -0.1238 H   0  0  0  0  0  0  0  0  0  0  0  0
    3.4762   -4.3006    1.6246 H   0  0  0  0  0  0  0  0  0  0  0  0
    2.3668   -1.8434   -1.7332 C   0  0  0  0  0  0  0  0  0  0  0  0
    3.3438   -2.3679   -1.6444 H   0  0  0  0  0  0  0  0  0  0  0  0
    2.5099   -0.7063   -2.7511 C   0  0  0  0  0  0  0  0  0  0  0  0
    2.7422   -1.1353   -3.7475 H   0  0  0  0  0  0  0  0  0  0  0  0
    3.3254   -0.0094   -2.4799 H   0  0  0  0  0  0  0  0  0  0  0  0
    1.5758   -0.1159   -2.8269 H   0  0  0  0  0  0  0  0  0  0  0  0
    1.2828   -2.8517   -2.1337 C   0  0  0  0  0  0  0  0  0  0  0  0
    0.2831   -2.3729   -2.1546 H   0  0  0  0  0  0  0  0  0  0  0  0
    1.2213   -3.7142   -1.4414 H   0  0  0  0  0  0  0  0  0  0  0  0
    1.4975   -3.2453   -3.1480 H   0  0  0  0  0  0  0  0  0  0  0  0
  1  3  1  0  0  0  0
  1 17  1  0  0  0  0
  2  9  2  0  0  0  0
  3 12  1  0  0  0  0
  4  3  1  0  0  0  0
  5  9  1  0  0  0  0
  5  7  1  0  0  0  0
  6  5  1  0  0  0  0
  8  5  1  0  0  0  0
  9 10  1  0  0  0  0
 10 12  2  0  0  0  0
 10 11  1  0  0  0  0
 12 13  1  0  0  0  0
 13 15  1  0  0  0  0
 13 16  1  0  0  0  0
 14 13  1  0  0  0  0
 17 19  1  0  0  0  0
 18 17  1  0  0  0  0
 19 21  1  0  0  0  0
 19 22  1  0  0  0  0
 19 20  1  0  0  0  0
 23 24  1  0  0  0  0
 23 17  1  0  0  0  0
 23 26  1  0  0  0  0
 25 23  1  0  0  0  0
 27 28  1  0  0  0  0
 27  1  1  0  0  0  0
 29 31  1  0  0  0  0
 29 27  1  0  0  0  0
 30 29  1  0  0  0  0
 32 29  1  0  0  0  0
 33 27  1  0  0  0  0
 33 35  1  0  0  0  0
 34 33  1  0  0  0  0
 36 33  1  0  0  0  0
M  END
