1
q = 0.0, confidence = 0.994

 41 41  0  0  0  0  0  0  0  0999 V2000
   -1.8061   -2.4844   -0.0634 P   0  0  0  0  0  0  0  0  0  0  0  0
    4.9103   -3.7273   -0.7439 F   0  0  0  0  0  0  0  0  0  0  0  0
    4.8247   -1.5509   -0.6683 F   0  0  0  0  0  0  0  0  0  0  0  0
    4.9182   -2.6996    1.1851 F   0  0  0  0  0  0  0  0  0  0  0  0
    0.0369   -2.7113   -0.0730 C   0  0  0  0  0  0  0  0  0  0  0  0
    0.7623   -2.2256    1.0412 C   0  0  0  0  0  0  0  0  0  0  0  0
    0.2348   -1.7971    1.9020 H   0  0  0  0  0  0  0  0  0  0  0  0
    2.1605   -2.2434    1.0707 C   0  0  0  0  0  0  0  0  0  0  0  0
    2.6978   -1.8482    1.9428 H   0  0  0  0  0  0  0  0  0  0  0  0
    2.8779   -2.7375   -0.0308 C   0  0  0  0  0  0  0  0  0  0  0  0
    2.1804   -3.2273   -1.1434 C   0  0  0  0  0  0  0  0  0  0  0  0
    2.7330   -3.6220   -2.0077 H   0  0  0  0  0  0  0  0  0  0  0  0
    0.7797   -3.2164   -1.1612 C   0  0  0  0  0  0  0  0  0  0  0  0
    0.2824   -3.5987   -2.0574 H   0  0  0  0  0  0  0  0  0  0  0  0
    4.3875   -2.6850   -0.0563 C   0  0  0  0  0  0  0  0  0  0  0  0
   -2.3998   -3.2510    1.6018 C   0  0  0  0  0  0  0  0  0  0  0  0
   -2.3694   -2.1365    2.6705 C   0  0  0  0  0  0  0  0  0  0  0  0
   -3.1008   -1.3389    2.4341 H   0  0  0  0  0  0  0  0  0  0  0  0
   -1.3800   -1.6606    2.8027 H   0  0  0  0  0  0  0  0  0  0  0  0
   -2.6527   -2.5814    3.6471 H   0  0  0  0  0  0  0  0  0  0  0  0
   -1.5042   -4.4351    2.0040 C   0  0  0  0  0  0  0  0  0  0  0  0
   -1.9218   -4.8939    2.9246 H   0  0  0  0  0  0  0  0  0  0  0  0
   -0.4631   -4.1341    2.2219 H   0  0  0  0  0  0  0  0  0  0  0  0
   -1.4752   -5.2192    1.2222 H   0  0  0  0  0  0  0  0  0  0  0  0
   -3.8585   -3.7267    1.4840 C   0  0  0  0  0  0  0  0  0  0  0  0
   -4.2034   -4.0087    2.5008 H   0  0  0  0  0  0  0  0  0  0  0  0
   -3.9588   -4.6239    0.8450 H   0  0  0  0  0  0  0  0  0  0  0  0
   -4.5224   -2.9241    1.1101 H   0  0  0  0  0  0  0  0  0  0  0  0
   -2.5116   -3.3580   -1.6170 C   0  0  0  0  0  0  0  0  0  0  0  0
   -2.0851   -4.8386   -1.6607 C   0  0  0  0  0  0  0  0  0  0  0  0
   -2.5675   -5.4135   -0.8462 H   0  0  0  0  0  0  0  0  0  0  0  0
   -0.9959   -5.0072   -1.5895 H   0  0  0  0  0  0  0  0  0  0  0  0
   -2.4334   -5.2778   -2.6192 H   0  0  0  0  0  0  0  0  0  0  0  0
   -4.0519   -3.2976   -1.6831 C   0  0  0  0  0  0  0  0  0  0  0  0
   -4.3453   -3.5957   -2.7112 H   0  0  0  0  0  0  0  0  0  0  0  0
   -4.4431   -2.2814   -1.4895 H   0  0  0  0  0  0  0  0  0  0  0  0
   -4.5421   -3.9982   -0.9871 H   0  0  0  0  0  0  0  0  0  0  0  0
   -2.0089   -2.5401   -2.8301 C   0  0  0  0  0  0  0  0  0  0  0  0
   -0.9185   -2.3890   -2.8802 H   0  0  0  0  0  0  0  0  0  0  0  0
   -2.4741   -1.5343   -2.8309 H   0  0  0  0  0  0  0  0  0  0  0  0
   -2.3302   -3.0597   -3.7564 H   0  0  0  0  0  0  0  0  0  0  0  0
  1 16  1  0  0  0  0
  2 15  1  0  0  0  0
  3 15  1  0  0  0  0
  5  1  1  0  0  0  0
  5  6  1  0  0  0  0
  6  8  2  0  0  0  0
  6  7  1  0  0  0  0
  8  9  1  0  0  0  0
 10  8  1  0  0  0  0
 11 10  2  0  0  0  0
 12 11  1  0  0  0  0
 13 11  1  0  0  0  0
 13  5  2  0  0  0  0
 14 13  1  0  0  0  0
 15 10  1  0  0  0  0
 15  4  1  0  0  0  0
 16 21  1  0  0  0  0
 16 17  1  0  0  0  0
 17 19  1  0  0  0  0
 17 20  1  0  0  0  0
 18 17  1  0  0  0  0
 21 23  1  0  0  0  0
 21 22  1  0  0  0  0
 24 21  1  0  0  0  0
 25 16  1  0  0  0  0
 25 26  1  0  0  0  0
 27 25  1  0  0  0  0
 28 25  1  0  0  0  0
 29  1  1  0  0  0  0
 30 29  1  0  0  0  0
 30 32  1  0  0  0  0
 30 31  1  0  0  0  0
 33 30  1  0  0  0  0
 34 29  1  0  0  0  0
 34 36  1  0  0  0  0
 34 37  1  0  0  0  0
 35 34  1  0  0  0  0
 38 29  1  0  0  0  0
 39 38  1  0  0  0  0
 40 38  1  0  0  0  0
 41 38  1  0  0  0  0
M  END
