1
q = -1.0, confidence = 0.086

 65 70  0  0  1  0  0  0  0  0999 V2000
   -1.7613    0.3216    0.3882 P   0  0  0  0  0  0  0  0  0  0  0  0
   -0.4000   -0.4318   -2.3011 S   0  0  0  0  0  0  0  0  0  0  0  0
    1.3044   -0.0644   -0.0041 S   0  0  0  0  0  0  0  0  0  0  0  0
   -0.2846   -0.0706   -0.6580 C   0  0  1  0  0  3  0  0  0  0  0  0
    1.2737   -0.5715   -2.6156 C   0  0  0  0  0  0  0  0  0  0  0  0
    2.1411   -0.3824   -1.5327 C   0  0  0  0  0  0  0  0  0  0  0  0
    3.4854   -0.4443   -1.5839 N   0  0  0  0  0  0  0  0  0  0  0  0
    4.4497   -0.2156   -0.4717 C   0  0  0  0  0  0  0  0  0  0  0  0
   -1.1441   -0.3968    1.9745 C   0  0  0  0  0  0  0  0  0  0  0  0
   -1.3372   -1.7777    2.1898 C   0  0  0  0  0  0  0  0  0  0  0  0
   -0.8735   -2.3730    3.3702 C   0  0  0  0  0  0  0  0  0  0  0  0
   -0.2235   -1.5948    4.3425 C   0  0  0  0  0  0  0  0  0  0  0  0
   -0.0229   -0.2229    4.1262 C   0  0  0  0  0  0  0  0  0  0  0  0
   -0.4757    0.3805    2.9429 C   0  0  0  0  0  0  0  0  0  0  0  0
   -1.5753    2.1403    0.6020 C   0  0  0  0  0  0  0  0  0  0  0  0
   -0.7474    2.9321   -0.2165 C   0  0  0  0  0  0  0  0  0  0  0  0
   -0.7214    4.3250   -0.0465 C   0  0  0  0  0  0  0  0  0  0  0  0
   -1.5155    4.9317    0.9380 C   0  0  0  0  0  0  0  0  0  0  0  0
   -2.3439    4.1436    1.7540 C   0  0  0  0  0  0  0  0  0  0  0  0
   -2.3815    2.7530    1.5857 C   0  0  0  0  0  0  0  0  0  0  0  0
    4.6044    1.2934   -0.1849 C   0  0  0  0  0  0  0  0  0  0  0  0
    5.6667    1.7140    0.6432 C   0  0  0  0  0  0  0  0  0  0  0  0
    5.8358    3.0683    0.9582 C   0  0  0  0  0  0  0  0  0  0  0  0
    4.9517    4.0308    0.4426 C   0  0  0  0  0  0  0  0  0  0  0  0
    3.9092    3.6260   -0.4009 C   0  0  0  0  0  0  0  0  0  0  0  0
    3.7387    2.2668   -0.7156 C   0  0  0  0  0  0  0  0  0  0  0  0
    5.8045   -0.7511   -0.9869 C   0  0  0  0  0  0  0  0  0  0  0  0
    6.5468   -1.7291   -0.3033 C   0  0  0  0  0  0  0  0  0  0  0  0
    7.7830   -2.1624   -0.8120 C   0  0  0  0  0  0  0  0  0  0  0  0
    8.2852   -1.6298   -2.0072 C   0  0  0  0  0  0  0  0  0  0  0  0
    7.5547   -0.6423   -2.6887 C   0  0  0  0  0  0  0  0  0  0  0  0
    6.3296   -0.1974   -2.1750 C   0  0  0  0  0  0  0  0  0  0  0  0
    3.9358   -1.0029    0.7513 C   0  0  0  0  0  0  0  0  0  0  0  0
    3.5428   -2.3492    0.5653 C   0  0  0  0  0  0  0  0  0  0  0  0
    3.0361   -3.1031    1.6307 C   0  0  0  0  0  0  0  0  0  0  0  0
    2.9167   -2.5259    2.9056 C   0  0  0  0  0  0  0  0  0  0  0  0
    3.3105   -1.1952    3.1028 C   0  0  0  0  0  0  0  0  0  0  0  0
    3.8150   -0.4367    2.0350 C   0  0  0  0  0  0  0  0  0  0  0  0
    1.5958   -0.8137   -3.6376 H   0  0  0  0  0  0  0  0  0  0  0  0
    3.9082   -0.6779   -2.4863 H   0  0  0  0  0  0  0  0  0  0  0  0
   -1.8566   -2.3861    1.4339 H   0  0  0  0  0  0  0  0  0  0  0  0
   -1.0348   -3.4483    3.5375 H   0  0  0  0  0  0  0  0  0  0  0  0
    0.1218   -2.0602    5.2781 H   0  0  0  0  0  0  0  0  0  0  0  0
    0.4827    0.3893    4.8880 H   0  0  0  0  0  0  0  0  0  0  0  0
   -0.3205    1.4572    2.7813 H   0  0  0  0  0  0  0  0  0  0  0  0
   -0.1225    2.4717   -0.9955 H   0  0  0  0  0  0  0  0  0  0  0  0
   -0.0763    4.9395   -0.6924 H   0  0  0  0  0  0  0  0  0  0  0  0
   -1.4941    6.0238    1.0676 H   0  0  0  0  0  0  0  0  0  0  0  0
   -2.9730    4.6144    2.5237 H   0  0  0  0  0  0  0  0  0  0  0  0
   -3.0401    2.1435    2.2240 H   0  0  0  0  0  0  0  0  0  0  0  0
    6.3775    0.9703    1.0338 H   0  0  0  0  0  0  0  0  0  0  0  0
    6.6729    3.3759    1.6025 H   0  0  0  0  0  0  0  0  0  0  0  0
    5.0875    5.0948    0.6862 H   0  0  0  0  0  0  0  0  0  0  0  0
    3.2226    4.3717   -0.8292 H   0  0  0  0  0  0  0  0  0  0  0  0
    2.9312    1.9845   -1.4050 H   0  0  0  0  0  0  0  0  0  0  0  0
    6.1665   -2.1555    0.6350 H   0  0  0  0  0  0  0  0  0  0  0  0
    8.3552   -2.9263   -0.2647 H   0  0  0  0  0  0  0  0  0  0  0  0
    9.2515   -1.9746   -2.4040 H   0  0  0  0  0  0  0  0  0  0  0  0
    7.9501   -0.2025   -3.6164 H   0  0  0  0  0  0  0  0  0  0  0  0
    5.7938    0.6183   -2.6880 H   0  0  0  0  0  0  0  0  0  0  0  0
    3.6348   -2.8083   -0.4307 H   0  0  0  0  0  0  0  0  0  0  0  0
    2.7336   -4.1478    1.4648 H   0  0  0  0  0  0  0  0  0  0  0  0
    2.5149   -3.1145    3.7431 H   0  0  0  0  0  0  0  0  0  0  0  0
    3.2178   -0.7337    4.0968 H   0  0  0  0  0  0  0  0  0  0  0  0
    4.0986    0.6110    2.2019 H   0  0  0  0  0  0  0  0  0  0  0  0
  1 15  1  0  0  0  0
  1  9  1  0  0  0  0
  2  4  1  0  0  0  0
  4  3  1  0  0  0  0
  4  1  1  6  0  0  0
  5  2  1  0  0  0  0
  5  6  2  0  0  0  0
  6  3  1  0  0  0  0
  7  6  1  0  0  0  0
  7  8  1  0  0  0  0
  8 21  1  0  0  0  0
  8 33  1  0  0  0  0
  9 10  2  0  0  0  0
  9 14  1  0  0  0  0
 10 11  1  0  0  0  0
 11 42  1  0  0  0  0
 11 12  2  0  0  0  0
 12 43  1  0  0  0  0
 13 12  1  0  0  0  0
 13 44  1  0  0  0  0
 14 13  2  0  0  0  0
 15 20  1  0  0  0  0
 16 17  1  0  0  0  0
 16 15  2  0  0  0  0
 17 18  2  0  0  0  0
 18 48  1  0  0  0  0
 18 19  1  0  0  0  0
 19 49  1  0  0  0  0
 20 19  2  0  0  0  0
 20 50  1  0  0  0  0
 21 22  1  0  0  0  0
 22 23  2  0  0  0  0
 22 51  1  0  0  0  0
 23 52  1  0  0  0  0
 24 53  1  0  0  0  0
 24 23  1  0  0  0  0
 25 24  2  0  0  0  0
 26 25  1  0  0  0  0
 26 21  2  0  0  0  0
 27  8  1  0  0  0  0
 27 28  1  0  0  0  0
 28 56  1  0  0  0  0
 29 28  2  0  0  0  0
 29 57  1  0  0  0  0
 30 29  1  0  0  0  0
 31 32  1  0  0  0  0
 31 30  2  0  0  0  0
 32 27  2  0  0  0  0
 33 38  1  0  0  0  0
 34 33  2  0  0  0  0
 34 35  1  0  0  0  0
 35 36  2  0  0  0  0
 36 37  1  0  0  0  0
 36 63  1  0  0  0  0
 37 64  1  0  0  0  0
 38 65  1  0  0  0  0
 38 37  2  0  0  0  0
 39  5  1  0  0  0  0
 40  7  1  0  0  0  0
 41 10  1  0  0  0  0
 45 14  1  0  0  0  0
 46 16  1  0  0  0  0
 47 17  1  0  0  0  0
 54 25  1  0  0  0  0
 55 26  1  0  0  0  0
 58 30  1  0  0  0  0
 59 31  1  0  0  0  0
 60 32  1  0  0  0  0
 61 34  1  0  0  0  0
 62 35  1  0  0  0  0
M  END
