1
q = 0.0, confidence = 0.984

 36 36  0  0  0  0  0  0  0  0999 V2000
   -2.3427    0.1415   -0.0774 P   0  0  2  0  0  0  0  0  0  0  0  0
   -2.9579   -1.4185    0.1579 N   0  0  0  0  0  0  0  0  0  0  0  0
   -2.9905    1.3683    1.0922 C   0  0  0  0  0  0  0  0  0  0  0  0
   -2.7905    1.3258    2.1701 H   0  0  0  0  0  0  0  0  0  0  0  0
   -3.5189    2.4223    0.4073 C   0  0  0  0  0  0  0  0  0  0  0  0
   -3.5609    2.2276   -1.0786 C   0  0  0  0  0  0  0  0  0  0  0  0
   -3.0574    1.0320   -1.4939 C   0  0  0  0  0  0  0  0  0  0  0  0
   -2.9391    0.7110   -2.5360 H   0  0  0  0  0  0  0  0  0  0  0  0
   -4.3809   -1.7044    0.4383 C   0  0  0  0  0  0  0  0  0  0  0  0
   -4.4621   -2.8100    0.3691 H   0  0  0  0  0  0  0  0  0  0  0  0
   -5.3266   -1.1218   -0.6173 C   0  0  0  0  0  0  0  0  0  0  0  0
   -5.0202   -1.4284   -1.6366 H   0  0  0  0  0  0  0  0  0  0  0  0
   -5.3339   -0.0143   -0.5840 H   0  0  0  0  0  0  0  0  0  0  0  0
   -6.3635   -1.4728   -0.4402 H   0  0  0  0  0  0  0  0  0  0  0  0
   -4.7957   -1.3040    1.8611 C   0  0  0  0  0  0  0  0  0  0  0  0
   -4.0995   -1.7265    2.6105 H   0  0  0  0  0  0  0  0  0  0  0  0
   -5.8192   -1.6681    2.0855 H   0  0  0  0  0  0  0  0  0  0  0  0
   -4.7947   -0.2015    1.9757 H   0  0  0  0  0  0  0  0  0  0  0  0
   -2.0247   -2.5683    0.0858 C   0  0  0  0  0  0  0  0  0  0  0  0
   -1.0213   -2.1047   -0.0421 H   0  0  0  0  0  0  0  0  0  0  0  0
   -1.9737   -3.3596    1.3950 C   0  0  0  0  0  0  0  0  0  0  0  0
   -1.6926   -2.6829    2.2256 H   0  0  0  0  0  0  0  0  0  0  0  0
   -1.2061   -4.1567    1.3242 H   0  0  0  0  0  0  0  0  0  0  0  0
   -2.9402   -3.8511    1.6332 H   0  0  0  0  0  0  0  0  0  0  0  0
   -2.2855   -3.4355   -1.1494 C   0  0  0  0  0  0  0  0  0  0  0  0
   -2.2108   -2.8224   -2.0696 H   0  0  0  0  0  0  0  0  0  0  0  0
   -3.2891   -3.9105   -1.1240 H   0  0  0  0  0  0  0  0  0  0  0  0
   -1.5351   -4.2490   -1.2163 H   0  0  0  0  0  0  0  0  0  0  0  0
   -3.9903    3.7021    1.0312 C   0  0  0  0  0  0  0  0  0  0  0  0
   -5.0529    3.9071    0.7806 H   0  0  0  0  0  0  0  0  0  0  0  0
   -3.4077    4.5692    0.6533 H   0  0  0  0  0  0  0  0  0  0  0  0
   -3.8917    3.6758    2.1324 H   0  0  0  0  0  0  0  0  0  0  0  0
   -4.0934    3.2998   -1.9823 C   0  0  0  0  0  0  0  0  0  0  0  0
   -5.1451    3.5561   -1.7320 H   0  0  0  0  0  0  0  0  0  0  0  0
   -4.0545    2.9892   -3.0429 H   0  0  0  0  0  0  0  0  0  0  0  0
   -3.5086    4.2385   -1.8780 H   0  0  0  0  0  0  0  0  0  0  0  0
  1  2  1  1  0  0  0
  1  3  1  0  0  0  0
  2  9  1  0  0  0  0
  3  4  1  0  0  0  0
  5 29  1  0  0  0  0
  5  3  2  0  0  0  0
  6  5  1  0  0  0  0
  7  6  2  0  0  0  0
  7  1  1  0  0  0  0
  8  7  1  0  0  0  0
  9 15  1  0  0  0  0
 10  9  1  0  0  0  0
 11 13  1  0  0  0  0
 11 14  1  0  0  0  0
 11  9  1  0  0  0  0
 12 11  1  0  0  0  0
 15 18  1  0  0  0  0
 15 17  1  0  0  0  0
 15 16  1  0  0  0  0
 19  2  1  0  0  0  0
 19 21  1  0  0  0  0
 20 19  1  0  0  0  0
 21 24  1  0  0  0  0
 21 22  1  0  0  0  0
 23 21  1  0  0  0  0
 25 27  1  0  0  0  0
 25 19  1  0  0  0  0
 26 25  1  0  0  0  0
 28 25  1  0  0  0  0
 29 32  1  0  0  0  0
 30 29  1  0  0  0  0
 31 29  1  0  0  0  0
 33 36  1  0  0  0  0
 33 34  1  0  0  0  0
 33  6  1  0  0  0  0
 35 33  1  0  0  0  0
M  END
