1
q = 0.0, confidence = 0.974

 52 56  0  0  1  0  0  0  0  0999 V2000
   -1.7429   -0.8517   -0.3090 P   0  0  1  0  0  0  0  0  0  0  0  0
    1.3200   -1.1254   -0.7570 N   0  0  0  0  0  0  0  0  0  0  0  0
   -0.7575   -0.1786   -1.6426 C   0  0  0  0  0  3  0  0  0  0  0  0
   -1.2361    0.5250   -2.3376 H   0  0  0  0  0  0  0  0  0  0  0  0
    0.6071   -0.2621   -1.6096 C   0  0  1  0  0  3  0  0  0  0  0  0
    1.4132    0.6570   -2.4651 C   0  0  0  0  0  0  0  0  0  0  0  0
    2.1190    0.1966   -3.5944 C   0  0  0  0  0  0  0  0  0  0  0  0
    2.0779   -0.8709   -3.8602 H   0  0  0  0  0  0  0  0  0  0  0  0
    2.8530    1.0955   -4.3811 C   0  0  0  0  0  0  0  0  0  0  0  0
    3.3933    0.7319   -5.2684 H   0  0  0  0  0  0  0  0  0  0  0  0
    2.8957    2.4577   -4.0397 C   0  0  0  0  0  0  0  0  0  0  0  0
    3.4774    3.1606   -4.6555 H   0  0  0  0  0  0  0  0  0  0  0  0
    2.1899    2.9209   -2.9183 C   0  0  0  0  0  0  0  0  0  0  0  0
    2.2155    3.9866   -2.6446 H   0  0  0  0  0  0  0  0  0  0  0  0
    1.4436    2.0273   -2.1370 C   0  0  0  0  0  0  0  0  0  0  0  0
    0.8878    2.3844   -1.2567 H   0  0  0  0  0  0  0  0  0  0  0  0
    2.5928   -0.6595   -0.2339 C   0  0  0  0  0  0  0  0  0  0  0  0
    3.7837   -0.7797   -0.9660 C   0  0  0  0  0  0  0  0  0  0  0  0
    3.7698   -1.2465   -1.9593 H   0  0  0  0  0  0  0  0  0  0  0  0
    4.9828   -0.3004   -0.4197 C   0  0  0  0  0  0  0  0  0  0  0  0
    5.9157   -0.3897   -0.9964 H   0  0  0  0  0  0  0  0  0  0  0  0
    4.9958    0.2802    0.8586 C   0  0  0  0  0  0  0  0  0  0  0  0
    5.9406    0.6487    1.2860 H   0  0  0  0  0  0  0  0  0  0  0  0
    3.8028    0.3818    1.5914 C   0  0  0  0  0  0  0  0  0  0  0  0
    3.8066    0.8258    2.5987 H   0  0  0  0  0  0  0  0  0  0  0  0
    2.5960   -0.0806    1.0472 C   0  0  0  0  0  0  0  0  0  0  0  0
    1.6497   -0.0101    1.6095 H   0  0  0  0  0  0  0  0  0  0  0  0
   -3.2794   -1.5997   -0.9625 C   0  0  0  0  0  0  0  0  0  0  0  0
   -3.1843   -2.6593   -1.8878 C   0  0  0  0  0  0  0  0  0  0  0  0
   -2.1937   -3.0117   -2.2154 H   0  0  0  0  0  0  0  0  0  0  0  0
   -4.3511   -3.2569   -2.3843 C   0  0  0  0  0  0  0  0  0  0  0  0
   -4.2779   -4.0829   -3.1081 H   0  0  0  0  0  0  0  0  0  0  0  0
   -5.6101   -2.8013   -1.9576 C   0  0  0  0  0  0  0  0  0  0  0  0
   -6.5252   -3.2726   -2.3479 H   0  0  0  0  0  0  0  0  0  0  0  0
   -5.7023   -1.7466   -1.0361 C   0  0  0  0  0  0  0  0  0  0  0  0
   -6.6883   -1.3875   -0.7045 H   0  0  0  0  0  0  0  0  0  0  0  0
   -4.5392   -1.1414   -0.5360 C   0  0  0  0  0  0  0  0  0  0  0  0
   -4.5947   -0.2987    0.1690 H   0  0  0  0  0  0  0  0  0  0  0  0
   -0.6762   -2.2130    0.1422 C   0  0  0  0  0  0  0  0  0  0  0  0
   -1.0965   -3.0660    0.6921 H   0  0  0  0  0  0  0  0  0  0  0  0
    0.6799   -2.1415   -0.0230 C   0  0  0  0  0  0  0  0  0  0  0  0
    1.5613   -3.1702    0.5886 C   0  0  0  0  0  0  0  0  0  0  0  0
    2.5536   -3.8308   -0.1665 C   0  0  0  0  0  0  0  0  0  0  0  0
    2.6854   -3.5733   -1.2279 H   0  0  0  0  0  0  0  0  0  0  0  0
    3.3499   -4.8194    0.4249 C   0  0  0  0  0  0  0  0  0  0  0  0
    4.1147   -5.3365   -0.1742 H   0  0  0  0  0  0  0  0  0  0  0  0
    3.1707   -5.1532    1.7781 C   0  0  0  0  0  0  0  0  0  0  0  0
    3.8014   -5.9266    2.2424 H   0  0  0  0  0  0  0  0  0  0  0  0
    2.1905   -4.4941    2.5369 C   0  0  0  0  0  0  0  0  0  0  0  0
    2.0562   -4.7424    3.6006 H   0  0  0  0  0  0  0  0  0  0  0  0
    1.3883   -3.5065    1.9482 C   0  0  0  0  0  0  0  0  0  0  0  0
    0.6433   -2.9507    2.5389 H   0  0  0  0  0  0  0  0  0  0  0  0
  1 28  1  6  0  0  0
  1 39  1  0  0  0  0
  2 17  1  0  0  0  0
  2 41  1  0  0  0  0
  3  5  1  0  0  0  0
  3  1  1  0  0  0  0
  4  3  1  0  0  0  0
  5  6  1  1  0  0  0
  5  2  1  0  0  0  0
  6 15  1  0  0  0  0
  7  6  2  0  0  0  0
  8  7  1  0  0  0  0
  9 11  2  0  0  0  0
  9  7  1  0  0  0  0
 10  9  1  0  0  0  0
 11 13  1  0  0  0  0
 12 11  1  0  0  0  0
 13 14  1  0  0  0  0
 13 15  2  0  0  0  0
 15 16  1  0  0  0  0
 17 26  1  0  0  0  0
 18 20  1  0  0  0  0
 18 17  2  0  0  0  0
 19 18  1  0  0  0  0
 20 22  2  0  0  0  0
 21 20  1  0  0  0  0
 22 23  1  0  0  0  0
 22 24  1  0  0  0  0
 24 25  1  0  0  0  0
 26 24  2  0  0  0  0
 26 27  1  0  0  0  0
 28 37  1  0  0  0  0
 29 28  2  0  0  0  0
 30 29  1  0  0  0  0
 31 33  2  0  0  0  0
 31 29  1  0  0  0  0
 32 31  1  0  0  0  0
 33 35  1  0  0  0  0
 34 33  1  0  0  0  0
 35 36  1  0  0  0  0
 35 37  2  0  0  0  0
 37 38  1  0  0  0  0
 39 40  1  0  0  0  0
 41 39  2  0  0  0  0
 41 42  1  0  0  0  0
 42 51  1  0  0  0  0
 43 45  1  0  0  0  0
 43 42  2  0  0  0  0
 44 43  1  0  0  0  0
 45 47  2  0  0  0  0
 46 45  1  0  0  0  0
 47 48  1  0  0  0  0
 47 49  1  0  0  0  0
 49 50  1  0  0  0  0
 51 49  2  0  0  0  0
 51 52  1  0  0  0  0
M  END
