2
q = 0.0, confidence = 0.982

 62 63  0  0  0  0  0  0  0  0999 V2000
   -0.1366    2.5795   -0.1930 P   0  0  0  0  0  2  0  0  0  0  0  0
   -1.0279    0.7064   -0.1405 P   0  0  0  0  0  2  0  0  0  0  0  0
   -2.7332    1.0445   -0.1509 C   0  0  0  0  0  0  0  0  0  0  0  0
   -3.9683    1.1219   -0.0957 C   0  0  0  0  0  0  0  0  0  0  0  0
   -5.3847    1.1791   -0.0092 C   0  0  0  0  0  0  0  0  0  0  0  0
   -6.1022    0.0818    0.5385 C   0  0  0  0  0  0  0  0  0  0  0  0
   -7.4969    0.1313    0.6269 C   0  0  0  0  0  0  0  0  0  0  0  0
   -8.1973    1.2628    0.1743 C   0  0  0  0  0  0  0  0  0  0  0  0
   -7.4954    2.3534   -0.3670 C   0  0  0  0  0  0  0  0  0  0  0  0
   -6.1002    2.3193   -0.4594 C   0  0  0  0  0  0  0  0  0  0  0  0
    1.6202    1.9734   -0.0988 C   0  0  0  0  0  0  0  0  0  0  0  0
    2.3318    1.6096   -1.2854 C   0  0  0  0  0  0  0  0  0  0  0  0
    3.4988    0.8335   -1.1353 C   0  0  0  0  0  0  0  0  0  0  0  0
    3.9906    0.4290    0.1110 C   0  0  0  0  0  0  0  0  0  0  0  0
    3.3688    0.9672    1.2508 C   0  0  0  0  0  0  0  0  0  0  0  0
    2.2159    1.7667    1.1929 C   0  0  0  0  0  0  0  0  0  0  0  0
    1.9338    2.0557   -2.7233 C   0  0  0  0  0  0  0  0  0  0  0  0
    0.8391    1.1480   -3.3309 C   0  0  0  0  0  0  0  0  0  0  0  0
    1.4608    3.5249   -2.7267 C   0  0  0  0  0  0  0  0  0  0  0  0
    3.1513    1.9943   -3.6750 C   0  0  0  0  0  0  0  0  0  0  0  0
    5.1744   -0.5391    0.2665 C   0  0  0  0  0  0  0  0  0  0  0  0
    5.7309   -0.9952   -1.0934 C   0  0  0  0  0  0  0  0  0  0  0  0
    6.3091    0.1465    1.0599 C   0  0  0  0  0  0  0  0  0  0  0  0
    4.6843   -1.7882    1.0362 C   0  0  0  0  0  0  0  0  0  0  0  0
    1.7297    2.4684    2.4971 C   0  0  0  0  0  0  0  0  0  0  0  0
    2.7925    2.3591    3.6129 C   0  0  0  0  0  0  0  0  0  0  0  0
    1.5383    3.9763    2.2137 C   0  0  0  0  0  0  0  0  0  0  0  0
    0.4238    1.8775    3.0775 C   0  0  0  0  0  0  0  0  0  0  0  0
   -5.5437   -0.7949    0.8974 H   0  0  0  0  0  0  0  0  0  0  0  0
   -8.0449   -0.7218    1.0544 H   0  0  0  0  0  0  0  0  0  0  0  0
   -9.2950    1.2954    0.2451 H   0  0  0  0  0  0  0  0  0  0  0  0
   -8.0427    3.2402   -0.7204 H   0  0  0  0  0  0  0  0  0  0  0  0
   -5.5435    3.1684   -0.8812 H   0  0  0  0  0  0  0  0  0  0  0  0
    4.0260    0.5083   -2.0366 H   0  0  0  0  0  0  0  0  0  0  0  0
    3.8046    0.7444    2.2315 H   0  0  0  0  0  0  0  0  0  0  0  0
    1.1832    0.0973   -3.3805 H   0  0  0  0  0  0  0  0  0  0  0  0
   -0.0992    1.1747   -2.7471 H   0  0  0  0  0  0  0  0  0  0  0  0
    0.6054    1.4795   -4.3639 H   0  0  0  0  0  0  0  0  0  0  0  0
    0.5134    3.6701   -2.1631 H   0  0  0  0  0  0  0  0  0  0  0  0
    1.2609    3.8579   -3.7657 H   0  0  0  0  0  0  0  0  0  0  0  0
    2.2243    4.1949   -2.2826 H   0  0  0  0  0  0  0  0  0  0  0  0
    2.8692    2.4355   -4.6518 H   0  0  0  0  0  0  0  0  0  0  0  0
    4.0151    2.5652   -3.2790 H   0  0  0  0  0  0  0  0  0  0  0  0
    3.4817    0.9564   -3.8758 H   0  0  0  0  0  0  0  0  0  0  0  0
    4.9571   -1.5083   -1.6984 H   0  0  0  0  0  0  0  0  0  0  0  0
    6.1279   -0.1447   -1.6839 H   0  0  0  0  0  0  0  0  0  0  0  0
    6.5644   -1.7092   -0.9372 H   0  0  0  0  0  0  0  0  0  0  0  0
    6.6691    1.0533    0.5328 H   0  0  0  0  0  0  0  0  0  0  0  0
    7.1679   -0.5456    1.1816 H   0  0  0  0  0  0  0  0  0  0  0  0
    5.9802    0.4518    2.0731 H   0  0  0  0  0  0  0  0  0  0  0  0
    5.5194   -2.5038    1.1839 H   0  0  0  0  0  0  0  0  0  0  0  0
    4.2779   -1.5267    2.0329 H   0  0  0  0  0  0  0  0  0  0  0  0
    3.8822   -2.3072    0.4739 H   0  0  0  0  0  0  0  0  0  0  0  0
    3.7796    2.7452    3.2889 H   0  0  0  0  0  0  0  0  0  0  0  0
    2.4636    2.9597    4.4843 H   0  0  0  0  0  0  0  0  0  0  0  0
    2.9219    1.3171    3.9670 H   0  0  0  0  0  0  0  0  0  0  0  0
    2.4694    4.4298    1.8186 H   0  0  0  0  0  0  0  0  0  0  0  0
    1.2572    4.5073    3.1463 H   0  0  0  0  0  0  0  0  0  0  0  0
    0.7282    4.1657    1.4783 H   0  0  0  0  0  0  0  0  0  0  0  0
    0.1951    2.3695    4.0455 H   0  0  0  0  0  0  0  0  0  0  0  0
   -0.4456    2.0324    2.4135 H   0  0  0  0  0  0  0  0  0  0  0  0
    0.5268    0.7917    3.2639 H   0  0  0  0  0  0  0  0  0  0  0  0
  1  2  1  0  0  0  0
  1 11  1  0  0  0  0
  3  2  1  0  0  0  0
  3  4  3  0  0  0  0
  4  5  1  0  0  0  0
  5  6  1  0  0  0  0
  6  7  2  0  0  0  0
  6 29  1  0  0  0  0
  7 30  1  0  0  0  0
  8 31  1  0  0  0  0
  8  7  1  0  0  0  0
  9  8  2  0  0  0  0
 10  9  1  0  0  0  0
 10  5  2  0  0  0  0
 11 16  1  0  0  0  0
 12 13  1  0  0  0  0
 12 11  2  0  0  0  0
 13 14  2  0  0  0  0
 14 21  1  0  0  0  0
 14 15  1  0  0  0  0
 15 35  1  0  0  0  0
 16 15  2  0  0  0  0
 16 25  1  0  0  0  0
 17 12  1  0  0  0  0
 18 37  1  0  0  0  0
 18 17  1  0  0  0  0
 19 17  1  0  0  0  0
 19 41  1  0  0  0  0
 19 39  1  0  0  0  0
 20 43  1  0  0  0  0
 20 17  1  0  0  0  0
 21 24  1  0  0  0  0
 21 23  1  0  0  0  0
 22 47  1  0  0  0  0
 22 21  1  0  0  0  0
 23 49  1  0  0  0  0
 23 50  1  0  0  0  0
 24 51  1  0  0  0  0
 24 52  1  0  0  0  0
 25 28  1  0  0  0  0
 25 26  1  0  0  0  0
 26 56  1  0  0  0  0
 26 55  1  0  0  0  0
 27 25  1  0  0  0  0
 27 58  1  0  0  0  0
 28 62  1  0  0  0  0
 28 60  1  0  0  0  0
 32  9  1  0  0  0  0
 33 10  1  0  0  0  0
 34 13  1  0  0  0  0
 36 18  1  0  0  0  0
 38 18  1  0  0  0  0
 40 19  1  0  0  0  0
 42 20  1  0  0  0  0
 44 20  1  0  0  0  0
 45 22  1  0  0  0  0
 46 22  1  0  0  0  0
 48 23  1  0  0  0  0
 53 24  1  0  0  0  0
 54 26  1  0  0  0  0
 57 27  1  0  0  0  0
 59 27  1  0  0  0  0
 61 28  1  0  0  0  0
M  END
