1
q = 0.0, confidence = 0.998

 58 60  0  0  0  0  0  0  0  0999 V2000
   -0.2163    0.0243   -1.0484 P   0  0  0  0  0  0  0  0  0  0  0  0
   -3.0928    0.8314    0.3771 C   0  0  0  0  0  0  0  0  0  0  0  0
   -0.5723    1.3764    0.1877 C   0  0  0  0  0  0  0  0  0  0  0  0
    0.2986    3.1730    1.6139 C   0  0  0  0  0  0  0  0  0  0  0  0
    1.1659    3.7328    1.9958 H   0  0  0  0  0  0  0  0  0  0  0  0
    1.9605    1.7982    0.3936 C   0  0  0  0  0  0  0  0  0  0  0  0
   -1.8793    1.6484    0.6857 C   0  0  0  0  0  0  0  0  0  0  0  0
    2.6778    2.5624   -0.5617 C   0  0  0  0  0  0  0  0  0  0  0  0
    0.5329    2.1209    0.7083 C   0  0  0  0  0  0  0  0  0  0  0  0
   -5.2082    0.5341   -0.7851 C   0  0  0  0  0  0  0  0  0  0  0  0
   -5.9578    0.9052   -1.5030 H   0  0  0  0  0  0  0  0  0  0  0  0
    4.0045    2.2027   -0.8622 C   0  0  0  0  0  0  0  0  0  0  0  0
    4.5545    2.7836   -1.6205 H   0  0  0  0  0  0  0  0  0  0  0  0
   -2.0664    2.7113    1.5962 C   0  0  0  0  0  0  0  0  0  0  0  0
   -3.0852    2.9015    1.9671 H   0  0  0  0  0  0  0  0  0  0  0  0
   -4.0718    1.3195   -0.5242 C   0  0  0  0  0  0  0  0  0  0  0  0
   -1.7516   -0.4953   -1.9214 C   0  0  0  0  0  0  0  0  0  0  0  0
   -2.3007    0.3655   -2.3460 H   0  0  0  0  0  0  0  0  0  0  0  0
   -2.4221   -1.0821   -1.2718 H   0  0  0  0  0  0  0  0  0  0  0  0
   -1.3948   -1.1485   -2.7426 H   0  0  0  0  0  0  0  0  0  0  0  0
    2.6126    0.7634    1.1163 C   0  0  0  0  0  0  0  0  0  0  0  0
   -3.2794   -0.4115    1.0357 C   0  0  0  0  0  0  0  0  0  0  0  0
   -0.9943    3.4855    2.0466 C   0  0  0  0  0  0  0  0  0  0  0  0
   -1.1612    4.3080    2.7584 H   0  0  0  0  0  0  0  0  0  0  0  0
    3.9348    0.4300    0.7720 C   0  0  0  0  0  0  0  0  0  0  0  0
    4.4219   -0.4019    1.3050 H   0  0  0  0  0  0  0  0  0  0  0  0
    1.9519    0.0880    2.2937 C   0  0  0  0  0  0  0  0  0  0  0  0
    2.3990   -0.9044    2.4911 H   0  0  0  0  0  0  0  0  0  0  0  0
    0.8637   -0.0509    2.1492 H   0  0  0  0  0  0  0  0  0  0  0  0
    2.0757    0.7135    3.2049 H   0  0  0  0  0  0  0  0  0  0  0  0
   -4.4348   -1.1612    0.7466 C   0  0  0  0  0  0  0  0  0  0  0  0
   -4.5748   -2.1310    1.2512 H   0  0  0  0  0  0  0  0  0  0  0  0
    2.0434    3.7564   -1.2338 C   0  0  0  0  0  0  0  0  0  0  0  0
    2.0077    4.6269   -0.5446 H   0  0  0  0  0  0  0  0  0  0  0  0
    0.9950    3.5616   -1.5334 H   0  0  0  0  0  0  0  0  0  0  0  0
    2.6139    4.0655   -2.1309 H   0  0  0  0  0  0  0  0  0  0  0  0
    0.6734    0.8122   -2.4564 C   0  0  0  0  0  0  0  0  0  0  0  0
    0.7141    0.0544   -3.2627 H   0  0  0  0  0  0  0  0  0  0  0  0
    1.7046    1.0800   -2.1703 H   0  0  0  0  0  0  0  0  0  0  0  0
    0.1277    1.7060   -2.8176 H   0  0  0  0  0  0  0  0  0  0  0  0
   -2.2508   -0.9473    1.9997 C   0  0  0  0  0  0  0  0  0  0  0  0
   -1.8906   -0.1638    2.6956 H   0  0  0  0  0  0  0  0  0  0  0  0
   -1.3521   -1.3329    1.4654 H   0  0  0  0  0  0  0  0  0  0  0  0
   -2.6580   -1.7866    2.5946 H   0  0  0  0  0  0  0  0  0  0  0  0
    4.6420    1.1202   -0.2285 C   0  0  0  0  0  0  0  0  0  0  0  0
   -3.8781    2.6401   -1.2288 C   0  0  0  0  0  0  0  0  0  0  0  0
   -4.6781    2.8218   -1.9717 H   0  0  0  0  0  0  0  0  0  0  0  0
   -2.9001    2.6842   -1.7532 H   0  0  0  0  0  0  0  0  0  0  0  0
   -3.8745    3.4896   -0.5153 H   0  0  0  0  0  0  0  0  0  0  0  0
   -5.4096   -0.7118   -0.1629 C   0  0  0  0  0  0  0  0  0  0  0  0
    6.0393    0.7019   -0.6098 C   0  0  0  0  0  0  0  0  0  0  0  0
    6.6608    0.4973    0.2853 H   0  0  0  0  0  0  0  0  0  0  0  0
    6.5493    1.4753   -1.2165 H   0  0  0  0  0  0  0  0  0  0  0  0
    6.0209   -0.2351   -1.2063 H   0  0  0  0  0  0  0  0  0  0  0  0
   -6.6506   -1.5246   -0.4332 C   0  0  0  0  0  0  0  0  0  0  0  0
   -6.4515   -2.6117   -0.3570 H   0  0  0  0  0  0  0  0  0  0  0  0
   -7.0647   -1.3170   -1.4394 H   0  0  0  0  0  0  0  0  0  0  0  0
   -7.4483   -1.2880    0.3038 H   0  0  0  0  0  0  0  0  0  0  0  0
  1  3  1  0  0  0  0
  2  7  1  0  0  0  0
  2 22  1  0  0  0  0
  3  7  2  0  0  0  0
  3  9  1  0  0  0  0
  4  5  1  0  0  0  0
  4 23  1  0  0  0  0
  6  9  1  0  0  0  0
  6 21  1  0  0  0  0
  7 14  1  0  0  0  0
  8  6  2  0  0  0  0
  9  4  2  0  0  0  0
 10 16  1  0  0  0  0
 10 50  2  0  0  0  0
 11 10  1  0  0  0  0
 12  8  1  0  0  0  0
 12 45  2  0  0  0  0
 13 12  1  0  0  0  0
 14 15  1  0  0  0  0
 14 23  2  0  0  0  0
 16  2  2  0  0  0  0
 17 19  1  0  0  0  0
 17  1  1  0  0  0  0
 18 17  1  0  0  0  0
 20 17  1  0  0  0  0
 21 27  1  0  0  0  0
 22 41  1  0  0  0  0
 23 24  1  0  0  0  0
 25 21  2  0  0  0  0
 25 26  1  0  0  0  0
 27 28  1  0  0  0  0
 27 30  1  0  0  0  0
 29 27  1  0  0  0  0
 31 22  2  0  0  0  0
 31 32  1  0  0  0  0
 33  8  1  0  0  0  0
 33 34  1  0  0  0  0
 35 33  1  0  0  0  0
 36 33  1  0  0  0  0
 37 39  1  0  0  0  0
 37  1  1  0  0  0  0
 38 37  1  0  0  0  0
 40 37  1  0  0  0  0
 41 44  1  0  0  0  0
 41 42  1  0  0  0  0
 43 41  1  0  0  0  0
 45 25  1  0  0  0  0
 46 16  1  0  0  0  0
 46 49  1  0  0  0  0
 47 46  1  0  0  0  0
 48 46  1  0  0  0  0
 50 31  1  0  0  0  0
 51 45  1  0  0  0  0
 51 52  1  0  0  0  0
 53 51  1  0  0  0  0
 54 51  1  0  0  0  0
 55 56  1  0  0  0  0
 55 50  1  0  0  0  0
 55 58  1  0  0  0  0
 57 55  1  0  0  0  0
M  END
