1
q = 0.0, confidence = 0.996

 29 29  0  0  0  0  0  0  0  0999 V2000
   -1.5706   -0.3766   -0.7648 P   0  0  2  0  0  0  0  0  0  0  0  0
   -1.2336    0.2982   -2.4485 C   0  0  0  0  0  0  0  0  0  0  0  0
   -3.2472   -2.4699    0.1156 C   0  0  0  0  0  0  0  0  0  0  0  0
   -3.4502   -1.8386   -2.3013 C   0  0  0  0  0  0  0  0  0  0  0  0
   -1.3869   -3.0594   -1.4904 C   0  0  0  0  0  0  0  0  0  0  0  0
   -2.4681   -2.0246   -1.1323 C   0  0  0  0  0  0  0  0  0  0  0  0
   -2.8680    0.7039   -0.0405 C   0  0  0  0  0  0  0  0  0  0  0  0
   -3.0006    0.6866    1.3659 C   0  0  0  0  0  0  0  0  0  0  0  0
   -3.9794    1.4704    1.9914 C   0  0  0  0  0  0  0  0  0  0  0  0
   -4.8258    2.2885    1.2243 C   0  0  0  0  0  0  0  0  0  0  0  0
   -4.6925    2.3178   -0.1723 C   0  0  0  0  0  0  0  0  0  0  0  0
   -3.7198    1.5268   -0.8049 C   0  0  0  0  0  0  0  0  0  0  0  0
   -2.1530    0.4468   -3.0444 H   0  0  0  0  0  0  0  0  0  0  0  0
   -0.5799   -0.4243   -2.9740 H   0  0  0  0  0  0  0  0  0  0  0  0
   -0.6854    1.2522   -2.3490 H   0  0  0  0  0  0  0  0  0  0  0  0
   -3.6925   -3.4680   -0.0829 H   0  0  0  0  0  0  0  0  0  0  0  0
   -4.0748   -1.7718    0.3512 H   0  0  0  0  0  0  0  0  0  0  0  0
   -2.5786   -2.5585    0.9943 H   0  0  0  0  0  0  0  0  0  0  0  0
   -4.0365   -2.7740   -2.4213 H   0  0  0  0  0  0  0  0  0  0  0  0
   -2.9405   -1.6467   -3.2657 H   0  0  0  0  0  0  0  0  0  0  0  0
   -4.1748   -1.0203   -2.1108 H   0  0  0  0  0  0  0  0  0  0  0  0
   -1.8765   -4.0159   -1.7712 H   0  0  0  0  0  0  0  0  0  0  0  0
   -0.7232   -3.2437   -0.6227 H   0  0  0  0  0  0  0  0  0  0  0  0
   -0.7682   -2.7378   -2.3540 H   0  0  0  0  0  0  0  0  0  0  0  0
   -2.3191    0.0543    1.9588 H   0  0  0  0  0  0  0  0  0  0  0  0
   -4.0757    1.4490    3.0875 H   0  0  0  0  0  0  0  0  0  0  0  0
   -5.5876    2.9112    1.7178 H   0  0  0  0  0  0  0  0  0  0  0  0
   -5.3481    2.9631   -0.7766 H   0  0  0  0  0  0  0  0  0  0  0  0
   -3.6221    1.5663   -1.8998 H   0  0  0  0  0  0  0  0  0  0  0  0
  1  2  1  6  0  0  0
  1  7  1  0  0  0  0
  2 15  1  0  0  0  0
  3 17  1  0  0  0  0
  3 18  1  0  0  0  0
  4 21  1  0  0  0  0
  4  6  1  0  0  0  0
  5  6  1  0  0  0  0
  5 23  1  0  0  0  0
  6  1  1  0  0  0  0
  6  3  1  0  0  0  0
  7  8  1  0  0  0  0
  8 25  1  0  0  0  0
  8  9  2  0  0  0  0
  9 26  1  0  0  0  0
 10 27  1  0  0  0  0
 10  9  1  0  0  0  0
 11 10  2  0  0  0  0
 12 11  1  0  0  0  0
 12  7  2  0  0  0  0
 13  2  1  0  0  0  0
 14  2  1  0  0  0  0
 16  3  1  0  0  0  0
 19  4  1  0  0  0  0
 20  4  1  0  0  0  0
 22  5  1  0  0  0  0
 24  5  1  0  0  0  0
 28 11  1  0  0  0  0
 29 12  1  0  0  0  0
M  END
