40
q = 0.0, confidence = 0.99

 40 44  0  0  1  0  0  0  0  0999 V2000
    1.4188   -1.0222   -1.0540 C   0  0  0  0  0  0  0  0  0  0  0  0
    1.1146   -2.0422   -0.7570 H   0  0  0  0  0  0  0  0  0  0  0  0
    1.7031   -1.0081   -2.1226 H   0  0  0  0  0  0  0  0  0  0  0  0
    2.5633   -0.4397   -0.1631 C   0  0  2  0  0  0  0  0  0  0  0  0
    3.9555   -0.9203   -0.4883 C   0  0  0  0  0  0  0  0  0  0  0  0
    4.1831   -2.2505   -0.8890 C   0  0  0  0  0  0  0  0  0  0  0  0
    3.3362   -2.9410   -1.0192 H   0  0  0  0  0  0  0  0  0  0  0  0
    5.4894   -2.7044   -1.1286 C   0  0  0  0  0  0  0  0  0  0  0  0
    5.6557   -3.7462   -1.4418 H   0  0  0  0  0  0  0  0  0  0  0  0
    6.5772   -1.8314   -0.9768 C   0  0  0  0  0  0  0  0  0  0  0  0
    7.6009   -2.1859   -1.1702 H   0  0  0  0  0  0  0  0  0  0  0  0
    6.3534   -0.5033   -0.5793 C   0  0  0  0  0  0  0  0  0  0  0  0
    7.2024    0.1870   -0.4607 H   0  0  0  0  0  0  0  0  0  0  0  0
    5.0507   -0.0499   -0.3295 C   0  0  0  0  0  0  0  0  0  0  0  0
    4.8651    0.9859   -0.0128 H   0  0  0  0  0  0  0  0  0  0  0  0
    2.1332   -0.5920    1.2966 C   0  0  0  0  0  0  0  0  0  0  0  0
    2.3883   -1.5794    2.2464 C   0  0  0  0  0  0  0  0  0  0  0  0
    3.0544   -2.4253    2.0191 H   0  0  0  0  0  0  0  0  0  0  0  0
    1.7765   -1.4507    3.5084 C   0  0  0  0  0  0  0  0  0  0  0  0
    1.9651   -2.2080    4.2838 H   0  0  0  0  0  0  0  0  0  0  0  0
    0.9316   -0.3630    3.7917 C   0  0  0  0  0  0  0  0  0  0  0  0
    0.4703   -0.2784    4.7869 H   0  0  0  0  0  0  0  0  0  0  0  0
    0.6684    0.6248    2.8239 C   0  0  0  0  0  0  0  0  0  0  0  0
    0.0089    1.4720    3.0558 H   0  0  0  0  0  0  0  0  0  0  0  0
    1.2835    0.4974    1.5746 C   0  0  0  0  0  0  0  0  0  0  0  0
    1.2202    1.2947    0.2866 C   0  0  1  0  0  0  0  0  0  0  0  0
    0.8873    2.7511    0.2603 C   0  0  0  0  0  0  0  0  0  0  0  0
    1.7707    3.6627   -0.3482 C   0  0  0  0  0  0  0  0  0  0  0  0
    2.7052    3.2871   -0.7861 H   0  0  0  0  0  0  0  0  0  0  0  0
    1.4505    5.0270   -0.3971 C   0  0  0  0  0  0  0  0  0  0  0  0
    2.1485    5.7321   -0.8735 H   0  0  0  0  0  0  0  0  0  0  0  0
    0.2455    5.4927    0.1509 C   0  0  0  0  0  0  0  0  0  0  0  0
   -0.0048    6.5635    0.1082 H   0  0  0  0  0  0  0  0  0  0  0  0
   -0.6444    4.5842    0.7456 C   0  0  0  0  0  0  0  0  0  0  0  0
   -1.5977    4.9373    1.1668 H   0  0  0  0  0  0  0  0  0  0  0  0
   -0.3287    3.2198    0.7988 C   0  0  0  0  0  0  0  0  0  0  0  0
   -1.0450    2.5166    1.2438 H   0  0  0  0  0  0  0  0  0  0  0  0
    0.0435    1.2421   -2.5982 Cl  0  0  0  0  0  0  0  0  0  0  0  0
    2.4532    0.9918   -0.3511 O   0  0  0  0  0  0  0  0  0  0  0  0
    0.0021    0.1767   -0.7967 P   0  0  1  0  0  0  0  0  0  0  0  0
  1 40  1  0  0  0  0
  1  2  1  0  0  0  0
  1  4  1  0  0  0  0
  3  1  1  0  0  0  0
  4  5  1  6  0  0  0
  4 16  1  0  0  0  0
  5 14  1  0  0  0  0
  6  5  2  0  0  0  0
  7  6  1  0  0  0  0
  8 10  2  0  0  0  0
  8  6  1  0  0  0  0
  9  8  1  0  0  0  0
 10 12  1  0  0  0  0
 11 10  1  0  0  0  0
 12 13  1  0  0  0  0
 12 14  2  0  0  0  0
 14 15  1  0  0  0  0
 16 25  2  0  0  0  0
 16 17  1  0  0  0  0
 17 19  2  0  0  0  0
 18 17  1  0  0  0  0
 19 21  1  0  0  0  0
 19 20  1  0  0  0  0
 21 22  1  0  0  0  0
 23 24  1  0  0  0  0
 23 21  2  0  0  0  0
 25 23  1  0  0  0  0
 26 27  1  1  0  0  0
 26 25  1  0  0  0  0
 27 36  1  0  0  0  0
 28 27  2  0  0  0  0
 29 28  1  0  0  0  0
 30 28  1  0  0  0  0
 30 32  2  0  0  0  0
 31 30  1  0  0  0  0
 32 34  1  0  0  0  0
 33 32  1  0  0  0  0
 34 36  2  0  0  0  0
 34 35  1  0  0  0  0
 36 37  1  0  0  0  0
 39  4  1  0  0  0  0
 39 26  1  0  0  0  0
 40 38  1  6  0  0  0
 40 26  1  0  0  0  0
M  END
