1
q = nan, confidence = 0.0

 55 56  0  0  1  0  0  0  0  0999 V2000
    0.0952    0.2427    0.1715 P   0  0  1  0  0  0  0  0  0  0  0  0
    1.6275    2.5100   -1.5292 Si  0  0  0  0  0  0  0  0  0  0  0  0
   -0.5567    3.2912    0.7695 Si  0  0  0  0  0  0  0  0  0  0  0  0
    2.3578   -0.1546    1.5252 O   0  0  0  0  0  0  0  0  0  0  0  0
    1.4408   -0.5836   -0.5615 N   0  0  0  0  0  0  0  0  0  0  0  0
    2.4282   -0.6810    0.2685 C   0  0  0  0  0  0  0  0  0  0  0  0
    1.0431    0.3618    1.8370 C   0  0  2  0  0  0  0  0  0  0  0  0
    1.1772    1.4351    2.0801 H   0  0  0  0  0  0  0  0  0  0  0  0
    0.0924    1.9711   -0.4894 C   0  0  0  0  0  0  0  0  0  0  0  0
   -0.7263    1.9431   -1.2441 H   0  0  0  0  0  0  0  0  0  0  0  0
    1.7695    1.4282   -3.0698 C   0  0  0  0  0  0  0  0  0  0  0  0
    2.5974    1.7911   -3.7137 H   0  0  0  0  0  0  0  0  0  0  0  0
    0.8339    1.4561   -3.6649 H   0  0  0  0  0  0  0  0  0  0  0  0
    1.9620    0.3741   -2.7931 H   0  0  0  0  0  0  0  0  0  0  0  0
    1.3401    4.2847   -2.1404 C   0  0  0  0  0  0  0  0  0  0  0  0
    1.2916    5.0379   -1.3299 H   0  0  0  0  0  0  0  0  0  0  0  0
    0.4077    4.3585   -2.7366 H   0  0  0  0  0  0  0  0  0  0  0  0
    2.1821    4.5648   -2.8074 H   0  0  0  0  0  0  0  0  0  0  0  0
    3.2391    2.4624   -0.5321 C   0  0  0  0  0  0  0  0  0  0  0  0
    3.9708    3.1545   -0.9981 H   0  0  0  0  0  0  0  0  0  0  0  0
    3.6969    1.4546   -0.5307 H   0  0  0  0  0  0  0  0  0  0  0  0
    3.1026    2.7802    0.5197 H   0  0  0  0  0  0  0  0  0  0  0  0
   -1.5887    2.5390    2.1758 C   0  0  0  0  0  0  0  0  0  0  0  0
   -2.1963    3.3531    2.6234 H   0  0  0  0  0  0  0  0  0  0  0  0
   -0.9643    2.1179    2.9876 H   0  0  0  0  0  0  0  0  0  0  0  0
   -2.2878    1.7517    1.8348 H   0  0  0  0  0  0  0  0  0  0  0  0
   -1.6756    4.4764   -0.1856 C   0  0  0  0  0  0  0  0  0  0  0  0
   -2.0362    5.2779    0.4919 H   0  0  0  0  0  0  0  0  0  0  0  0
   -2.5631    3.9349   -0.5709 H   0  0  0  0  0  0  0  0  0  0  0  0
   -1.1596    4.9563   -1.0388 H   0  0  0  0  0  0  0  0  0  0  0  0
    0.8532    4.2538    1.5984 C   0  0  0  0  0  0  0  0  0  0  0  0
    1.4955    4.7913    0.8740 H   0  0  0  0  0  0  0  0  0  0  0  0
    1.5087    3.6007    2.2101 H   0  0  0  0  0  0  0  0  0  0  0  0
    0.4114    5.0082    2.2824 H   0  0  0  0  0  0  0  0  0  0  0  0
    3.7146   -1.3279   -0.0512 C   0  0  0  0  0  0  0  0  0  0  0  0
    3.8694   -1.9692   -1.2993 C   0  0  0  0  0  0  0  0  0  0  0  0
    3.0160   -1.9822   -1.9923 H   0  0  0  0  0  0  0  0  0  0  0  0
    5.0860   -2.5773   -1.6265 C   0  0  0  0  0  0  0  0  0  0  0  0
    5.2025   -3.0791   -2.5987 H   0  0  0  0  0  0  0  0  0  0  0  0
    6.1559   -2.5503   -0.7147 C   0  0  0  0  0  0  0  0  0  0  0  0
    7.1121   -3.0295   -0.9745 H   0  0  0  0  0  0  0  0  0  0  0  0
    6.0050   -1.9142    0.5283 C   0  0  0  0  0  0  0  0  0  0  0  0
    6.8420   -1.8936    1.2423 H   0  0  0  0  0  0  0  0  0  0  0  0
    4.7887   -1.3054    0.8640 C   0  0  0  0  0  0  0  0  0  0  0  0
    4.6586   -0.8040    1.8329 H   0  0  0  0  0  0  0  0  0  0  0  0
    0.4647   -0.3836    3.0480 C   0  0  0  0  0  0  0  0  0  0  0  0
   -0.6054   -0.0911    3.0978 H   0  0  0  0  0  0  0  0  0  0  0  0
    1.1525    0.0819    4.3391 C   0  0  0  0  0  0  0  0  0  0  0  0
    2.2390   -0.1396    4.3059 H   0  0  0  0  0  0  0  0  0  0  0  0
    0.7272   -0.4351    5.2224 H   0  0  0  0  0  0  0  0  0  0  0  0
    1.0331    1.1742    4.4946 H   0  0  0  0  0  0  0  0  0  0  0  0
    0.5445   -1.9047    2.8878 C   0  0  0  0  0  0  0  0  0  0  0  0
    1.5989   -2.2459    2.8755 H   0  0  0  0  0  0  0  0  0  0  0  0
    0.0649   -2.2457    1.9514 H   0  0  0  0  0  0  0  0  0  0  0  0
    0.0284   -2.4087    3.7280 H   0  0  0  0  0  0  0  0  0  0  0  0
  1  9  1  6  0  0  0
  1  7  1  0  0  0  0
  2 19  1  0  0  0  0
  2  9  1  0  0  0  0
  3 31  1  0  0  0  0
  3 23  1  0  0  0  0
  4  7  1  0  0  0  0
  5  1  1  0  0  0  0
  5  6  2  0  0  0  0
  6  4  1  0  0  0  0
  7  8  1  1  0  0  0
  7 46  1  0  0  0  0
  9  3  1  0  0  0  0
 10  9  1  0  0  0  0
 11 14  1  0  0  0  0
 11  2  1  0  0  0  0
 12 11  1  0  0  0  0
 13 11  1  0  0  0  0
 15  2  1  0  0  0  0
 15 16  1  0  0  0  0
 17 15  1  0  0  0  0
 18 15  1  0  0  0  0
 19 21  1  0  0  0  0
 19 22  1  0  0  0  0
 20 19  1  0  0  0  0
 23 24  1  0  0  0  0
 23 25  1  0  0  0  0
 26 23  1  0  0  0  0
 27 28  1  0  0  0  0
 27  3  1  0  0  0  0
 29 27  1  0  0  0  0
 30 27  1  0  0  0  0
 31 33  1  0  0  0  0
 31 34  1  0  0  0  0
 32 31  1  0  0  0  0
 35  6  1  0  0  0  0
 35 44  1  0  0  0  0
 36 35  2  0  0  0  0
 37 36  1  0  0  0  0
 38 36  1  0  0  0  0
 38 40  2  0  0  0  0
 39 38  1  0  0  0  0
 40 42  1  0  0  0  0
 41 40  1  0  0  0  0
 42 44  2  0  0  0  0
 42 43  1  0  0  0  0
 44 45  1  0  0  0  0
 46 47  1  0  0  0  0
 46 48  1  0  0  0  0
 48 51  1  0  0  0  0
 48 50  1  0  0  0  0
 49 48  1  0  0  0  0
 52 46  1  0  0  0  0
 52 55  1  0  0  0  0
 53 52  1  0  0  0  0
 54 52  1  0  0  0  0
M  END
