10
q = 0.0, confidence = 0.996

 70 76  0  0  1  0  0  0  0  0999 V2000
   -0.3944    0.6903   -0.2155 P   0  0  0  0  0  0  0  0  0  0  0  0
    0.7176   -0.6581   -0.1146 C   0  0  0  0  0  0  0  0  0  0  0  0
    0.0523   -1.9377   -0.0147 C   0  0  2  0  0  3  0  0  0  0  0  0
    0.6201   -3.2361    0.0739 C   0  0  0  0  0  0  0  0  0  0  0  0
   -0.2029   -4.3592    0.1496 C   0  0  0  0  0  0  0  0  0  0  0  0
   -1.6128   -4.2263    0.1360 C   0  0  0  0  0  0  0  0  0  0  0  0
   -2.2038   -2.9654    0.0502 C   0  0  0  0  0  0  0  0  0  0  0  0
   -1.3891   -1.8053   -0.0213 C   0  0  0  0  0  0  0  0  0  0  0  0
   -1.7818   -0.4175   -0.1114 C   0  0  0  0  0  0  0  0  0  0  0  0
    2.5010   -0.3748   -0.0206 P   0  0  0  0  0  0  0  0  0  0  0  0
    3.2397   -1.3596   -1.3950 C   0  0  0  0  0  0  0  0  0  0  0  0
    4.6385   -1.5385   -1.4621 C   0  0  0  0  0  0  0  0  0  0  0  0
    5.2158   -2.2237   -2.5400 C   0  0  0  0  0  0  0  0  0  0  0  0
    4.4062   -2.7211   -3.5742 C   0  0  0  0  0  0  0  0  0  0  0  0
    3.0174   -2.5272   -3.5243 C   0  0  0  0  0  0  0  0  0  0  0  0
    2.4344   -1.8523   -2.4407 C   0  0  0  0  0  0  0  0  0  0  0  0
    2.9444   -1.3041    1.5260 C   0  0  0  0  0  0  0  0  0  0  0  0
    3.8247   -2.4004    1.5775 C   0  0  0  0  0  0  0  0  0  0  0  0
    4.1069   -3.0265    2.8031 C   0  0  0  0  0  0  0  0  0  0  0  0
    3.5130   -2.5671    3.9868 C   0  0  0  0  0  0  0  0  0  0  0  0
    2.6273   -1.4776    3.9399 C   0  0  0  0  0  0  0  0  0  0  0  0
    2.3458   -0.8496    2.7203 C   0  0  0  0  0  0  0  0  0  0  0  0
   -3.4193    0.1716   -0.0614 P   0  0  0  0  0  4  0  0  0  0  0  0
   -4.2215   -0.0188    1.5701 C   0  0  0  0  0  0  0  0  0  0  0  0
   -3.6654   -0.9004    2.5177 C   0  0  0  0  0  0  0  0  0  0  0  0
   -4.2743   -1.0400    3.7739 C   0  0  0  0  0  0  0  0  0  0  0  0
   -5.4250   -0.2996    4.0886 C   0  0  0  0  0  0  0  0  0  0  0  0
   -5.9685    0.5930    3.1497 C   0  0  0  0  0  0  0  0  0  0  0  0
   -5.3678    0.7391    1.8911 C   0  0  0  0  0  0  0  0  0  0  0  0
   -4.4641   -0.6720   -1.3020 C   0  0  0  0  0  0  0  0  0  0  0  0
   -3.8478   -1.0331   -2.5185 C   0  0  0  0  0  0  0  0  0  0  0  0
   -4.6019   -1.6600   -3.5201 C   0  0  0  0  0  0  0  0  0  0  0  0
   -5.9627   -1.9362   -3.3085 C   0  0  0  0  0  0  0  0  0  0  0  0
   -6.5721   -1.5875   -2.0925 C   0  0  0  0  0  0  0  0  0  0  0  0
   -5.8267   -0.9554   -1.0861 C   0  0  0  0  0  0  0  0  0  0  0  0
   -3.4420    1.9544   -0.4222 C   0  0  0  0  0  0  0  0  0  0  0  0
   -3.9648    2.4509   -1.6310 C   0  0  0  0  0  0  0  0  0  0  0  0
   -3.9037    3.8268   -1.8987 C   0  0  0  0  0  0  0  0  0  0  0  0
   -3.3190    4.7004   -0.9688 C   0  0  0  0  0  0  0  0  0  0  0  0
   -2.7999    4.2037    0.2382 C   0  0  0  0  0  0  0  0  0  0  0  0
   -2.8629    2.8329    0.5195 C   0  0  0  0  0  0  0  0  0  0  0  0
    1.7118   -3.3543    0.0823 H   0  0  0  0  0  0  0  0  0  0  0  0
    0.2492   -5.3603    0.2190 H   0  0  0  0  0  0  0  0  0  0  0  0
   -2.2477   -5.1239    0.1899 H   0  0  0  0  0  0  0  0  0  0  0  0
   -3.3013   -2.8735    0.0338 H   0  0  0  0  0  0  0  0  0  0  0  0
    5.2859   -1.1253   -0.6739 H   0  0  0  0  0  0  0  0  0  0  0  0
    6.3076   -2.3564   -2.5786 H   0  0  0  0  0  0  0  0  0  0  0  0
    4.8608   -3.2522   -4.4242 H   0  0  0  0  0  0  0  0  0  0  0  0
    2.3773   -2.9064   -4.3356 H   0  0  0  0  0  0  0  0  0  0  0  0
    1.3456   -1.7028   -2.3993 H   0  0  0  0  0  0  0  0  0  0  0  0
    4.2864   -2.7842    0.6566 H   0  0  0  0  0  0  0  0  0  0  0  0
    4.7964   -3.8843    2.8268 H   0  0  0  0  0  0  0  0  0  0  0  0
    3.7372   -3.0581    4.9460 H   0  0  0  0  0  0  0  0  0  0  0  0
    2.1519   -1.1112    4.8626 H   0  0  0  0  0  0  0  0  0  0  0  0
    1.6442   -0.0022    2.6920 H   0  0  0  0  0  0  0  0  0  0  0  0
   -2.7527   -1.4633    2.2709 H   0  0  0  0  0  0  0  0  0  0  0  0
   -3.8393   -1.7277    4.5144 H   0  0  0  0  0  0  0  0  0  0  0  0
   -5.8957   -0.4089    5.0774 H   0  0  0  0  0  0  0  0  0  0  0  0
   -6.8590    1.1878    3.4030 H   0  0  0  0  0  0  0  0  0  0  0  0
   -5.7767    1.4591    1.1650 H   0  0  0  0  0  0  0  0  0  0  0  0
   -2.7746   -0.8315   -2.6611 H   0  0  0  0  0  0  0  0  0  0  0  0
   -4.1201   -1.9445   -4.4674 H   0  0  0  0  0  0  0  0  0  0  0  0
   -6.5504   -2.4356   -4.0936 H   0  0  0  0  0  0  0  0  0  0  0  0
   -7.6353   -1.8143   -1.9222 H   0  0  0  0  0  0  0  0  0  0  0  0
   -6.3024   -0.6972   -0.1286 H   0  0  0  0  0  0  0  0  0  0  0  0
   -4.4136    1.7632   -2.3631 H   0  0  0  0  0  0  0  0  0  0  0  0
   -4.3105    4.2162   -2.8438 H   0  0  0  0  0  0  0  0  0  0  0  0
   -3.2648    5.7777   -1.1865 H   0  0  0  0  0  0  0  0  0  0  0  0
   -2.3339    4.8859    0.9645 H   0  0  0  0  0  0  0  0  0  0  0  0
   -2.4501    2.4446    1.4626 H   0  0  0  0  0  0  0  0  0  0  0  0
  1  2  2  0  0  0  0
  1  9  1  0  0  0  0
  2 10  1  0  0  0  0
  3  2  1  6  0  0  0
  3  4  1  0  0  0  0
  4 42  1  0  0  0  0
  4  5  2  0  0  0  0
  5 43  1  0  0  0  0
  6  5  1  0  0  0  0
  6 44  1  0  0  0  0
  7  6  2  0  0  0  0
  8  3  1  0  0  0  0
  8  7  1  0  0  0  0
  9 23  1  0  0  0  0
  9  8  2  0  0  0  0
 10 17  1  0  0  0  0
 11 10  1  0  0  0  0
 12 11  1  0  0  0  0
 12 46  1  0  0  0  0
 13 12  2  0  0  0  0
 14 15  2  0  0  0  0
 14 13  1  0  0  0  0
 15 16  1  0  0  0  0
 16 50  1  0  0  0  0
 16 11  2  0  0  0  0
 17 18  2  0  0  0  0
 17 22  1  0  0  0  0
 18 19  1  0  0  0  0
 19 52  1  0  0  0  0
 19 20  2  0  0  0  0
 20 53  1  0  0  0  0
 21 20  1  0  0  0  0
 21 54  1  0  0  0  0
 22 21  2  0  0  0  0
 23 24  1  0  0  0  0
 24 29  2  0  0  0  0
 24 25  1  0  0  0  0
 25 26  2  0  0  0  0
 26 27  1  0  0  0  0
 26 57  1  0  0  0  0
 27 58  1  0  0  0  0
 28 59  1  0  0  0  0
 28 27  2  0  0  0  0
 29 28  1  0  0  0  0
 30 35  1  0  0  0  0
 30 23  1  0  0  0  0
 31 30  2  0  0  0  0
 32 33  2  0  0  0  0
 32 31  1  0  0  0  0
 33 34  1  0  0  0  0
 34 64  1  0  0  0  0
 34 35  2  0  0  0  0
 35 65  1  0  0  0  0
 36 23  1  0  0  0  0
 36 41  1  0  0  0  0
 37 36  2  0  0  0  0
 38 37  1  0  0  0  0
 38 39  2  0  0  0  0
 39 40  1  0  0  0  0
 40 41  2  0  0  0  0
 40 69  1  0  0  0  0
 41 70  1  0  0  0  0
 45  7  1  0  0  0  0
 47 13  1  0  0  0  0
 48 14  1  0  0  0  0
 49 15  1  0  0  0  0
 51 18  1  0  0  0  0
 55 22  1  0  0  0  0
 56 25  1  0  0  0  0
 60 29  1  0  0  0  0
 61 31  1  0  0  0  0
 62 32  1  0  0  0  0
 63 33  1  0  0  0  0
 66 37  1  0  0  0  0
 67 38  1  0  0  0  0
 68 39  1  0  0  0  0
M  END
