1
q = 0.0, confidence = 0.996

 27 28  0  0  0  0  0  0  0  0999 V2000
    0.5448   -1.5814   -0.0858 P   0  0  1  0  0  0  0  0  0  0  0  0
   -0.3537   -1.5227   -1.4612 O   0  0  0  0  0  0  0  0  0  0  0  0
   -1.7468   -1.6160   -1.6432 C   0  0  0  0  0  0  0  0  0  0  0  0
   -2.1477   -1.5670   -2.7830 O   0  0  0  0  0  0  0  0  0  0  0  0
   -2.5619   -1.6965   -0.4246 C   0  0  0  0  0  0  0  0  0  0  0  0
   -3.9581   -1.7824   -0.6110 C   0  0  0  0  0  0  0  0  0  0  0  0
   -4.3226   -1.8111   -1.6475 H   0  0  0  0  0  0  0  0  0  0  0  0
   -4.8332   -1.8226    0.4728 C   0  0  0  0  0  0  0  0  0  0  0  0
   -5.9185   -1.8892    0.3123 H   0  0  0  0  0  0  0  0  0  0  0  0
   -4.3017   -1.7689    1.7727 C   0  0  0  0  0  0  0  0  0  0  0  0
   -4.9718   -1.7941    2.6454 H   0  0  0  0  0  0  0  0  0  0  0  0
   -2.9234   -1.6789    1.9862 C   0  0  0  0  0  0  0  0  0  0  0  0
   -2.5450   -1.6263    3.0132 H   0  0  0  0  0  0  0  0  0  0  0  0
   -2.0239   -1.6373    0.8958 C   0  0  0  0  0  0  0  0  0  0  0  0
   -0.6509   -1.5007    1.1306 N   0  0  0  0  0  0  0  0  0  0  0  0
    1.2237   -3.1301   -0.0496 N   0  0  0  0  0  0  0  0  0  0  0  0
    2.2679   -3.1033   -0.0505 H   0  0  0  0  0  0  0  0  0  0  0  0
    0.4848   -4.3137   -0.1572 C   0  0  0  0  0  0  0  0  0  0  0  0
   -0.7362   -4.2957   -0.2274 O   0  0  0  0  0  0  0  0  0  0  0  0
    1.3267   -5.5713   -0.1839 C   0  0  0  0  0  0  0  0  0  0  0  0
    2.0104   -5.6107    0.6880 H   0  0  0  0  0  0  0  0  0  0  0  0
    1.9558   -5.5879   -1.0976 H   0  0  0  0  0  0  0  0  0  0  0  0
    0.6595   -6.4505   -0.1818 H   0  0  0  0  0  0  0  0  0  0  0  0
   -0.1311   -1.4267    2.4984 C   0  0  0  0  0  0  0  0  0  0  0  0
   -0.6026   -0.5902    3.0510 H   0  0  0  0  0  0  0  0  0  0  0  0
    0.9576   -1.2243    2.4534 H   0  0  0  0  0  0  0  0  0  0  0  0
   -0.2932   -2.3822    3.0395 H   0  0  0  0  0  0  0  0  0  0  0  0
  1 16  1  1  0  0  0
  1 15  1  0  0  0  0
  2  1  1  0  0  0  0
  3  2  1  0  0  0  0
  3  5  1  0  0  0  0
  4  3  2  0  0  0  0
  5 14  1  0  0  0  0
  6  5  2  0  0  0  0
  6  8  1  0  0  0  0
  7  6  1  0  0  0  0
  8 10  2  0  0  0  0
  9  8  1  0  0  0  0
 10 12  1  0  0  0  0
 10 11  1  0  0  0  0
 12 13  1  0  0  0  0
 14 15  1  0  0  0  0
 14 12  2  0  0  0  0
 15 24  1  0  0  0  0
 17 16  1  0  0  0  0
 18 16  1  0  0  0  0
 19 18  2  0  0  0  0
 20 23  1  0  0  0  0
 20 18  1  0  0  0  0
 20 21  1  0  0  0  0
 22 20  1  0  0  0  0
 24 27  1  0  0  0  0
 24 25  1  0  0  0  0
 26 24  1  0  0  0  0
M  END
