1
q = 0.0, confidence = 1.0

 27 26  0  0  0  0  0  0  0  0999 V2000
    2.1859   -0.2572   -0.0393 P   0  0  0  0  0  0  0  0  0  0  0  0
    3.1045    1.1387   -0.0133 O   0  0  0  0  0  0  0  0  0  0  0  0
    3.0015   -0.9469    1.3219 N   0  0  0  0  0  0  0  0  0  0  0  0
    2.8472   -1.1716   -1.3085 N   0  0  0  0  0  0  0  0  0  0  0  0
    2.7106    2.3034   -0.7482 C   0  0  0  0  0  0  0  0  0  0  0  0
    1.6155    2.2782   -0.9352 H   0  0  0  0  0  0  0  0  0  0  0  0
    3.2208    2.2909   -1.7381 H   0  0  0  0  0  0  0  0  0  0  0  0
    3.0836    3.5388    0.0514 C   0  0  0  0  0  0  0  0  0  0  0  0
    2.8476    4.4564   -0.5248 H   0  0  0  0  0  0  0  0  0  0  0  0
    4.1663    3.5459    0.2892 H   0  0  0  0  0  0  0  0  0  0  0  0
    2.5138    3.5668    1.0016 H   0  0  0  0  0  0  0  0  0  0  0  0
    2.9679   -0.1963    2.5677 C   0  0  0  0  0  0  0  0  0  0  0  0
    3.1128    0.8793    2.3635 H   0  0  0  0  0  0  0  0  0  0  0  0
    3.7914   -0.5415    3.2295 H   0  0  0  0  0  0  0  0  0  0  0  0
    2.0055   -0.3258    3.1227 H   0  0  0  0  0  0  0  0  0  0  0  0
    2.8331   -2.3787    1.5124 C   0  0  0  0  0  0  0  0  0  0  0  0
    2.7910   -2.8916    0.5326 H   0  0  0  0  0  0  0  0  0  0  0  0
    1.9043   -2.6398    2.0744 H   0  0  0  0  0  0  0  0  0  0  0  0
    3.6999   -2.7835    2.0791 H   0  0  0  0  0  0  0  0  0  0  0  0
    2.0543   -1.8626   -2.3042 C   0  0  0  0  0  0  0  0  0  0  0  0
    0.9822   -1.7671   -2.0508 H   0  0  0  0  0  0  0  0  0  0  0  0
    2.3126   -2.9466   -2.3345 H   0  0  0  0  0  0  0  0  0  0  0  0
    2.2141   -1.4426   -3.3238 H   0  0  0  0  0  0  0  0  0  0  0  0
    4.2892   -1.2617   -1.4632 C   0  0  0  0  0  0  0  0  0  0  0  0
    4.7878   -0.6803   -0.6660 H   0  0  0  0  0  0  0  0  0  0  0  0
    4.6102   -0.8592   -2.4513 H   0  0  0  0  0  0  0  0  0  0  0  0
    4.6379   -2.3186   -1.3971 H   0  0  0  0  0  0  0  0  0  0  0  0
  1  2  1  0  0  0  0
  1  3  1  0  0  0  0
  3 16  1  0  0  0  0
  3 12  1  0  0  0  0
  4  1  1  0  0  0  0
  5  2  1  0  0  0  0
  5  8  1  0  0  0  0
  6  5  1  0  0  0  0
  7  5  1  0  0  0  0
  8 10  1  0  0  0  0
  8 11  1  0  0  0  0
  9  8  1  0  0  0  0
 12 15  1  0  0  0  0
 12 14  1  0  0  0  0
 13 12  1  0  0  0  0
 16 18  1  0  0  0  0
 16 19  1  0  0  0  0
 17 16  1  0  0  0  0
 20 21  1  0  0  0  0
 20  4  1  0  0  0  0
 22 20  1  0  0  0  0
 23 20  1  0  0  0  0
 24 27  1  0  0  0  0
 24  4  1  0  0  0  0
 24 25  1  0  0  0  0
 26 24  1  0  0  0  0
M  END
