1
q = 0.0, confidence = 0.996

 52 53  0  0  1  0  0  0  0  0999 V2000
   -0.0785    0.4342    0.3349 P   0  0  1  0  0  0  0  0  0  0  0  0
    1.1944    2.9865   -1.0912 Si  0  0  0  0  0  0  0  0  0  0  0  0
   -1.6900    3.1556    0.4314 Si  0  0  0  0  0  0  0  0  0  0  0  0
    2.3890   -0.4788    1.9857 O   0  0  0  0  0  0  0  0  0  0  0  0
    1.4911   -0.0458   -0.1718 N   0  0  0  0  0  0  0  0  0  0  0  0
    2.4313   -0.4228    0.6281 C   0  0  0  0  0  0  0  0  0  0  0  0
    1.1379   -0.3018    2.6990 C   0  0  2  0  0  0  0  0  0  0  0  0
    0.5830   -1.2616    2.6052 H   0  0  0  0  0  0  0  0  0  0  0  0
    0.2859    0.8250    2.1144 C   0  0  0  0  0  0  0  0  0  0  0  0
    0.8313    1.7889    2.1696 H   0  0  0  0  0  0  0  0  0  0  0  0
   -0.6493    0.9162    2.6983 H   0  0  0  0  0  0  0  0  0  0  0  0
    3.7550   -0.8381    0.0963 C   0  0  0  0  0  0  0  0  0  0  0  0
    3.8822   -1.1251   -1.2802 C   0  0  0  0  0  0  0  0  0  0  0  0
    2.9870   -1.0605   -1.9155 H   0  0  0  0  0  0  0  0  0  0  0  0
    5.1216   -1.5058   -1.8070 C   0  0  0  0  0  0  0  0  0  0  0  0
    5.2114   -1.7357   -2.8793 H   0  0  0  0  0  0  0  0  0  0  0  0
    6.2456   -1.6015   -0.9686 C   0  0  0  0  0  0  0  0  0  0  0  0
    7.2199   -1.8998   -1.3848 H   0  0  0  0  0  0  0  0  0  0  0  0
    6.1223   -1.3241    0.4025 C   0  0  0  0  0  0  0  0  0  0  0  0
    6.9999   -1.4027    1.0618 H   0  0  0  0  0  0  0  0  0  0  0  0
    4.8821   -0.9505    0.9374 C   0  0  0  0  0  0  0  0  0  0  0  0
    4.7749   -0.7374    2.0097 H   0  0  0  0  0  0  0  0  0  0  0  0
    1.5125   -0.0742    4.1541 C   0  0  0  0  0  0  0  0  0  0  0  0
    2.0653    0.8795    4.2695 H   0  0  0  0  0  0  0  0  0  0  0  0
    2.1524   -0.8998    4.5213 H   0  0  0  0  0  0  0  0  0  0  0  0
    0.5989   -0.0322    4.7785 H   0  0  0  0  0  0  0  0  0  0  0  0
   -0.3862    2.0550   -0.4812 C   0  0  0  0  0  0  0  0  0  0  0  0
   -0.9090    1.7727   -1.4234 H   0  0  0  0  0  0  0  0  0  0  0  0
    1.9822    2.0567   -2.5342 C   0  0  0  0  0  0  0  0  0  0  0  0
    1.2130    1.7314   -3.2646 H   0  0  0  0  0  0  0  0  0  0  0  0
    2.5143    1.1545   -2.1820 H   0  0  0  0  0  0  0  0  0  0  0  0
    2.7000    2.7164   -3.0645 H   0  0  0  0  0  0  0  0  0  0  0  0
    2.4479    3.2459    0.3061 C   0  0  0  0  0  0  0  0  0  0  0  0
    2.8527    2.2909    0.6934 H   0  0  0  0  0  0  0  0  0  0  0  0
    2.0149    3.8152    1.1526 H   0  0  0  0  0  0  0  0  0  0  0  0
    3.3051    3.8323   -0.0853 H   0  0  0  0  0  0  0  0  0  0  0  0
    0.7072    4.6907   -1.7731 C   0  0  0  0  0  0  0  0  0  0  0  0
    0.2426    5.3641   -1.0271 H   0  0  0  0  0  0  0  0  0  0  0  0
    0.0129    4.5956   -2.6328 H   0  0  0  0  0  0  0  0  0  0  0  0
    1.6270    5.1880   -2.1462 H   0  0  0  0  0  0  0  0  0  0  0  0
   -2.6758    4.0715   -0.8965 C   0  0  0  0  0  0  0  0  0  0  0  0
   -3.2099    3.3378   -1.5348 H   0  0  0  0  0  0  0  0  0  0  0  0
   -2.0470    4.7080   -1.5467 H   0  0  0  0  0  0  0  0  0  0  0  0
   -3.4394    4.7183   -0.4170 H   0  0  0  0  0  0  0  0  0  0  0  0
   -0.8548    4.3702    1.6250 C   0  0  0  0  0  0  0  0  0  0  0  0
   -0.1356    5.0469    1.1242 H   0  0  0  0  0  0  0  0  0  0  0  0
   -0.3171    3.8402    2.4371 H   0  0  0  0  0  0  0  0  0  0  0  0
   -1.6337    5.0008    2.1018 H   0  0  0  0  0  0  0  0  0  0  0  0
   -2.9632    2.1890    1.4513 C   0  0  0  0  0  0  0  0  0  0  0  0
   -2.5440    1.6402    2.3158 H   0  0  0  0  0  0  0  0  0  0  0  0
   -3.5385    1.4703    0.8385 H   0  0  0  0  0  0  0  0  0  0  0  0
   -3.6846    2.9301    1.8562 H   0  0  0  0  0  0  0  0  0  0  0  0
  1 27  1  6  0  0  0
  1  9  1  0  0  0  0
  2 27  1  0  0  0  0
  2 33  1  0  0  0  0
  3 49  1  0  0  0  0
  3 45  1  0  0  0  0
  4  7  1  0  0  0  0
  5  1  1  0  0  0  0
  5  6  2  0  0  0  0
  6  4  1  0  0  0  0
  7  8  1  6  0  0  0
  7 23  1  0  0  0  0
  9 10  1  0  0  0  0
  9 11  1  0  0  0  0
  9  7  1  0  0  0  0
 12  6  1  0  0  0  0
 12 21  1  0  0  0  0
 13 12  2  0  0  0  0
 14 13  1  0  0  0  0
 15 13  1  0  0  0  0
 15 17  2  0  0  0  0
 16 15  1  0  0  0  0
 17 19  1  0  0  0  0
 18 17  1  0  0  0  0
 19 21  2  0  0  0  0
 19 20  1  0  0  0  0
 21 22  1  0  0  0  0
 23 24  1  0  0  0  0
 23 25  1  0  0  0  0
 23 26  1  0  0  0  0
 27  3  1  0  0  0  0
 28 27  1  0  0  0  0
 29 31  1  0  0  0  0
 29  2  1  0  0  0  0
 30 29  1  0  0  0  0
 32 29  1  0  0  0  0
 33 34  1  0  0  0  0
 33 35  1  0  0  0  0
 36 33  1  0  0  0  0
 37  2  1  0  0  0  0
 37 38  1  0  0  0  0
 39 37  1  0  0  0  0
 40 37  1  0  0  0  0
 41 44  1  0  0  0  0
 41  3  1  0  0  0  0
 42 41  1  0  0  0  0
 43 41  1  0  0  0  0
 45 48  1  0  0  0  0
 45 47  1  0  0  0  0
 46 45  1  0  0  0  0
 49 52  1  0  0  0  0
 49 50  1  0  0  0  0
 51 49  1  0  0  0  0
M  END
