2
q = 0.0, confidence = 1.0

 37 40  0  0  0  0  0  0  0  0999 V2000
   -2.5141    0.4855    0.2872 S   0  0  0  0  0  0  0  0  0  0  0  0
    0.6089    0.3904   -0.0207 P   0  0  0  0  0  0  0  0  0  0  0  0
   -2.6995   -1.8422   -0.8800 N   0  0  0  0  0  0  0  0  0  0  0  0
   -4.8090   -0.9410   -0.2577 N   0  0  0  0  0  0  0  0  0  0  0  0
   -6.8991   -1.6147   -0.4114 C   0  0  0  0  0  0  0  0  0  0  0  0
   -7.8206   -2.1780   -0.6040 H   0  0  0  0  0  0  0  0  0  0  0  0
    0.4528    1.3297    1.5500 C   0  0  0  0  0  0  0  0  0  0  0  0
    0.7391    0.6672    2.7606 C   0  0  0  0  0  0  0  0  0  0  0  0
    1.1038   -0.3722    2.7402 H   0  0  0  0  0  0  0  0  0  0  0  0
    0.5690    1.3385    3.9794 C   0  0  0  0  0  0  0  0  0  0  0  0
    0.7956    0.8205    4.9233 H   0  0  0  0  0  0  0  0  0  0  0  0
    0.1215    2.6700    3.9941 C   0  0  0  0  0  0  0  0  0  0  0  0
   -0.0054    3.1966    4.9520 H   0  0  0  0  0  0  0  0  0  0  0  0
   -0.1534    3.3335    2.7877 C   0  0  0  0  0  0  0  0  0  0  0  0
   -0.4945    4.3797    2.7977 H   0  0  0  0  0  0  0  0  0  0  0  0
    0.0117    2.6682    1.5635 C   0  0  0  0  0  0  0  0  0  0  0  0
   -0.1930    3.1924    0.6174 H   0  0  0  0  0  0  0  0  0  0  0  0
    0.8058    1.6738   -1.3159 C   0  0  0  0  0  0  0  0  0  0  0  0
    2.0920    2.2297   -1.4813 C   0  0  0  0  0  0  0  0  0  0  0  0
    2.9290    1.8670   -0.8634 H   0  0  0  0  0  0  0  0  0  0  0  0
    2.3033    3.2299   -2.4392 C   0  0  0  0  0  0  0  0  0  0  0  0
    3.3081    3.6599   -2.5656 H   0  0  0  0  0  0  0  0  0  0  0  0
    1.2393    3.6709   -3.2442 C   0  0  0  0  0  0  0  0  0  0  0  0
    1.4093    4.4506   -4.0019 H   0  0  0  0  0  0  0  0  0  0  0  0
   -0.0372    3.1091   -3.0898 C   0  0  0  0  0  0  0  0  0  0  0  0
   -0.8701    3.4457   -3.7253 H   0  0  0  0  0  0  0  0  0  0  0  0
   -0.2583    2.1114   -2.1271 C   0  0  0  0  0  0  0  0  0  0  0  0
   -1.2600    1.6718   -2.0112 H   0  0  0  0  0  0  0  0  0  0  0  0
   -1.3706   -1.5315   -0.8227 C   0  0  0  0  0  0  0  0  0  0  0  0
   -0.6192   -2.2342   -1.2131 H   0  0  0  0  0  0  0  0  0  0  0  0
   -1.0445   -0.3137   -0.2434 C   0  0  0  0  0  0  0  0  0  0  0  0
   -3.4218   -0.8872   -0.3443 C   0  0  0  0  0  0  0  0  0  0  0  0
   -5.6058   -2.0003   -0.6957 C   0  0  0  0  0  0  0  0  0  0  0  0
   -5.1525   -2.8862   -1.1487 H   0  0  0  0  0  0  0  0  0  0  0  0
   -5.6743    0.0185    0.2634 C   0  0  0  0  0  0  0  0  0  0  0  0
   -5.3027    0.9650    0.6798 H   0  0  0  0  0  0  0  0  0  0  0  0
   -6.9275   -0.3626    0.1819 N   0  0  0  0  0  0  0  0  0  0  0  0
  2  7  1  0  0  0  0
  3 29  1  0  0  0  0
  3 32  2  0  0  0  0
  4 35  1  0  0  0  0
  5 37  1  0  0  0  0
  6  5  1  0  0  0  0
  7 16  2  0  0  0  0
  7  8  1  0  0  0  0
  8 10  2  0  0  0  0
  9  8  1  0  0  0  0
 10 12  1  0  0  0  0
 10 11  1  0  0  0  0
 12 13  1  0  0  0  0
 14 15  1  0  0  0  0
 14 12  2  0  0  0  0
 16 14  1  0  0  0  0
 17 16  1  0  0  0  0
 18  2  1  0  0  0  0
 19 18  1  0  0  0  0
 19 20  1  0  0  0  0
 21 19  2  0  0  0  0
 22 21  1  0  0  0  0
 23 25  2  0  0  0  0
 23 21  1  0  0  0  0
 24 23  1  0  0  0  0
 25 27  1  0  0  0  0
 26 25  1  0  0  0  0
 27 28  1  0  0  0  0
 27 18  2  0  0  0  0
 29 31  2  0  0  0  0
 30 29  1  0  0  0  0
 31  2  1  0  0  0  0
 31  1  1  0  0  0  0
 32  4  1  0  0  0  0
 32  1  1  0  0  0  0
 33  5  2  0  0  0  0
 33  4  1  0  0  0  0
 34 33  1  0  0  0  0
 35 36  1  0  0  0  0
 37 35  2  0  0  0  0
M  END
