1
q = 0.0, confidence = 0.998

 65 68  0  0  0  0  0  0  0  0999 V2000
   -1.6497   -0.8128   -0.0424 P   0  0  0  0  0  0  0  0  0  0  0  0
   -1.4412   -2.5942    0.3752 C   0  0  0  0  0  0  0  0  0  0  0  0
   -0.7636   -3.4802   -0.4848 C   0  0  0  0  0  0  0  0  0  0  0  0
   -0.6432   -4.8379   -0.1464 C   0  0  0  0  0  0  0  0  0  0  0  0
   -1.1891   -5.3177    1.0535 C   0  0  0  0  0  0  0  0  0  0  0  0
   -1.8626   -4.4366    1.9164 C   0  0  0  0  0  0  0  0  0  0  0  0
   -1.9953   -3.0837    1.5773 C   0  0  0  0  0  0  0  0  0  0  0  0
   -0.6429    0.0486    1.2441 C   0  0  0  0  0  0  0  0  0  0  0  0
   -0.7136    1.4552    1.3199 C   0  0  0  0  0  0  0  0  0  0  0  0
    0.1091    2.1591    2.2080 C   0  0  0  0  0  0  0  0  0  0  0  0
    1.0072    1.4672    3.0349 C   0  0  0  0  0  0  0  0  0  0  0  0
    1.0809    0.0682    2.9671 C   0  0  0  0  0  0  0  0  0  0  0  0
    0.2617   -0.6407    2.0745 C   0  0  0  0  0  0  0  0  0  0  0  0
   -0.6029   -0.5591   -1.5456 C   0  0  0  0  0  0  0  0  0  0  0  0
    0.6296   -0.1134   -1.4221 C   0  0  0  0  0  0  0  0  0  0  0  0
    1.8196    0.3829   -1.0681 C   0  0  0  0  0  0  0  0  0  0  0  0
    1.9362    1.8446   -0.8299 C   0  0  0  0  0  0  0  0  0  0  0  0
    1.0193    2.7560   -1.4019 C   0  0  0  0  0  0  0  0  0  0  0  0
    1.0190    4.1093   -1.0688 C   0  0  0  0  0  0  0  0  0  0  0  0
    1.9594    4.6358   -0.1365 C   0  0  0  0  0  0  0  0  0  0  0  0
    1.9656    5.9775    0.2003 N   0  0  0  0  0  0  0  0  0  0  0  0
    0.9603    6.8647   -0.3472 C   0  0  0  0  0  0  0  0  0  0  0  0
    2.9043    6.4694    1.1855 C   0  0  0  0  0  0  0  0  0  0  0  0
    2.8882    3.7204    0.4335 C   0  0  0  0  0  0  0  0  0  0  0  0
    2.8700    2.3660    0.0921 C   0  0  0  0  0  0  0  0  0  0  0  0
    2.9682   -0.5370   -0.8600 C   0  0  0  0  0  0  0  0  0  0  0  0
    4.2879   -0.1703   -1.2039 C   0  0  0  0  0  0  0  0  0  0  0  0
    5.3612   -1.0487   -1.0372 C   0  0  0  0  0  0  0  0  0  0  0  0
    5.1661   -2.3570   -0.5104 C   0  0  0  0  0  0  0  0  0  0  0  0
    6.2247   -3.2292   -0.3324 N   0  0  0  0  0  0  0  0  0  0  0  0
    5.9842   -4.5642    0.1728 C   0  0  0  0  0  0  0  0  0  0  0  0
    7.5643   -2.8257   -0.7039 C   0  0  0  0  0  0  0  0  0  0  0  0
    3.8329   -2.7294   -0.1736 C   0  0  0  0  0  0  0  0  0  0  0  0
    2.7738   -1.8387   -0.3472 C   0  0  0  0  0  0  0  0  0  0  0  0
   -0.3211   -3.1025   -1.4184 H   0  0  0  0  0  0  0  0  0  0  0  0
   -0.1150   -5.5227   -0.8273 H   0  0  0  0  0  0  0  0  0  0  0  0
   -1.0926   -6.3816    1.3179 H   0  0  0  0  0  0  0  0  0  0  0  0
   -2.2946   -4.8070    2.8583 H   0  0  0  0  0  0  0  0  0  0  0  0
   -2.5265   -2.3994    2.2565 H   0  0  0  0  0  0  0  0  0  0  0  0
   -1.3981    2.0119    0.6652 H   0  0  0  0  0  0  0  0  0  0  0  0
    0.0594    3.2574    2.2380 H   0  0  0  0  0  0  0  0  0  0  0  0
    1.6588    2.0222    3.7267 H   0  0  0  0  0  0  0  0  0  0  0  0
    1.7888   -0.4814    3.6059 H   0  0  0  0  0  0  0  0  0  0  0  0
    0.3356   -1.7362    2.0206 H   0  0  0  0  0  0  0  0  0  0  0  0
   -1.1117   -0.6888   -2.5187 H   0  0  0  0  0  0  0  0  0  0  0  0
    0.2698    2.3858   -2.1178 H   0  0  0  0  0  0  0  0  0  0  0  0
    0.2763    4.7639   -1.5422 H   0  0  0  0  0  0  0  0  0  0  0  0
    0.9984    6.9011   -1.4590 H   0  0  0  0  0  0  0  0  0  0  0  0
   -0.0744    6.5650   -0.0605 H   0  0  0  0  0  0  0  0  0  0  0  0
    1.1327    7.8898    0.0278 H   0  0  0  0  0  0  0  0  0  0  0  0
    3.9593    6.2814    0.8841 H   0  0  0  0  0  0  0  0  0  0  0  0
    2.7780    7.5612    1.3004 H   0  0  0  0  0  0  0  0  0  0  0  0
    2.7578    6.0013    2.1874 H   0  0  0  0  0  0  0  0  0  0  0  0
    3.6272    4.0647    1.1683 H   0  0  0  0  0  0  0  0  0  0  0  0
    3.5756    1.6851    0.5894 H   0  0  0  0  0  0  0  0  0  0  0  0
    4.4769    0.8264   -1.6298 H   0  0  0  0  0  0  0  0  0  0  0  0
    6.3642   -0.7125   -1.3297 H   0  0  0  0  0  0  0  0  0  0  0  0
    5.5196   -4.5518    1.1850 H   0  0  0  0  0  0  0  0  0  0  0  0
    5.3133   -5.1551   -0.4926 H   0  0  0  0  0  0  0  0  0  0  0  0
    6.9444   -5.1055    0.2508 H   0  0  0  0  0  0  0  0  0  0  0  0
    7.6533   -2.5976   -1.7913 H   0  0  0  0  0  0  0  0  0  0  0  0
    7.8975   -1.9206   -0.1472 H   0  0  0  0  0  0  0  0  0  0  0  0
    8.2714   -3.6424   -0.4713 H   0  0  0  0  0  0  0  0  0  0  0  0
    3.6191   -3.7246    0.2370 H   0  0  0  0  0  0  0  0  0  0  0  0
    1.7579   -2.1566   -0.0696 H   0  0  0  0  0  0  0  0  0  0  0  0
  1  2  1  0  0  0  0
  1  8  1  0  0  0  0
  2  7  1  0  0  0  0
  3  4  1  0  0  0  0
  3  2  2  0  0  0  0
  4  5  2  0  0  0  0
  5 37  1  0  0  0  0
  5  6  1  0  0  0  0
  6 38  1  0  0  0  0
  7  6  2  0  0  0  0
  7 39  1  0  0  0  0
  8  9  2  0  0  0  0
  8 13  1  0  0  0  0
  9 10  1  0  0  0  0
 10 41  1  0  0  0  0
 10 11  2  0  0  0  0
 11 42  1  0  0  0  0
 12 11  1  0  0  0  0
 12 43  1  0  0  0  0
 13 12  2  0  0  0  0
 14 15  2  0  0  0  0
 14  1  1  0  0  0  0
 15 16  2  0  0  0  0
 16 26  1  0  0  0  0
 16 17  1  0  0  0  0
 17 25  1  0  0  0  0
 18 19  1  0  0  0  0
 18 17  2  0  0  0  0
 19 20  2  0  0  0  0
 20 21  1  0  0  0  0
 20 24  1  0  0  0  0
 21 23  1  0  0  0  0
 22 49  1  0  0  0  0
 22 50  1  0  0  0  0
 22 21  1  0  0  0  0
 23 52  1  0  0  0  0
 23 53  1  0  0  0  0
 24 54  1  0  0  0  0
 25 24  2  0  0  0  0
 25 55  1  0  0  0  0
 26 34  1  0  0  0  0
 27 28  1  0  0  0  0
 27 26  2  0  0  0  0
 28 29  2  0  0  0  0
 29 30  1  0  0  0  0
 29 33  1  0  0  0  0
 30 31  1  0  0  0  0
 31 60  1  0  0  0  0
 31 58  1  0  0  0  0
 32 63  1  0  0  0  0
 32 30  1  0  0  0  0
 32 62  1  0  0  0  0
 33 64  1  0  0  0  0
 34 33  2  0  0  0  0
 34 65  1  0  0  0  0
 35  3  1  0  0  0  0
 36  4  1  0  0  0  0
 40  9  1  0  0  0  0
 44 13  1  0  0  0  0
 45 14  1  0  0  0  0
 46 18  1  0  0  0  0
 47 19  1  0  0  0  0
 48 22  1  0  0  0  0
 51 23  1  0  0  0  0
 56 27  1  0  0  0  0
 57 28  1  0  0  0  0
 59 31  1  0  0  0  0
 61 32  1  0  0  0  0
M  END
