1
q = 0.0, confidence = 0.994

 48 51  0  0  0  0  0  0  0  0999 V2000
    0.2563   -0.2290   -0.1339 P   0  0  2  0  0  0  0  0  0  0  0  0
    3.7436   -3.2641   -0.7981 F   0  0  0  0  0  0  0  0  0  0  0  0
    3.8566   -2.0531    1.0210 F   0  0  0  0  0  0  0  0  0  0  0  0
    3.8704   -1.1093   -0.9455 F   0  0  0  0  0  0  0  0  0  0  0  0
   -0.0562   -3.4154    0.5062 F   0  0  0  0  0  0  0  0  0  0  0  0
    1.9293   -4.1121    1.0341 F   0  0  0  0  0  0  0  0  0  0  0  0
    1.2513   -4.2074   -1.0466 F   0  0  0  0  0  0  0  0  0  0  0  0
    1.3245   -1.1774    0.8845 O   0  0  0  0  0  0  0  0  0  0  0  0
    1.7777   -2.0383   -0.1687 C   0  0  0  0  0  0  0  0  0  0  0  0
    1.1489   -1.3101   -1.3783 C   0  0  0  0  0  0  0  0  0  0  0  0
    0.4802   -1.9107   -2.0194 H   0  0  0  0  0  0  0  0  0  0  0  0
    1.9089   -0.7905   -1.9858 H   0  0  0  0  0  0  0  0  0  0  0  0
    3.3418   -2.1126   -0.2145 C   0  0  0  0  0  0  0  0  0  0  0  0
    1.2216   -3.4737    0.0840 C   0  0  0  0  0  0  0  0  0  0  0  0
    1.0216    1.5478   -0.1050 C   0  0  0  0  0  0  0  0  0  0  0  0
    0.6830    2.1968    1.2505 C   0  0  0  0  0  0  0  0  0  0  0  0
    0.2871    1.4608    2.3831 C   0  0  0  0  0  0  0  0  0  0  0  0
    0.1632    0.3696    2.3323 H   0  0  0  0  0  0  0  0  0  0  0  0
    0.0572    2.0952    3.6148 C   0  0  0  0  0  0  0  0  0  0  0  0
   -0.2608    1.4937    4.4794 H   0  0  0  0  0  0  0  0  0  0  0  0
    0.2355    3.4785    3.7393 C   0  0  0  0  0  0  0  0  0  0  0  0
    0.0506    3.9781    4.7020 H   0  0  0  0  0  0  0  0  0  0  0  0
    0.6726    4.2192    2.6283 C   0  0  0  0  0  0  0  0  0  0  0  0
    0.8435    5.3026    2.7187 H   0  0  0  0  0  0  0  0  0  0  0  0
    0.9037    3.5834    1.4026 C   0  0  0  0  0  0  0  0  0  0  0  0
    1.2739    4.1681    0.5474 H   0  0  0  0  0  0  0  0  0  0  0  0
    2.5598    1.5736   -0.1950 C   0  0  0  0  0  0  0  0  0  0  0  0
    3.3084    1.0982    0.9071 C   0  0  0  0  0  0  0  0  0  0  0  0
    2.7886    0.6557    1.7660 H   0  0  0  0  0  0  0  0  0  0  0  0
    4.7047    1.1771    0.9218 C   0  0  0  0  0  0  0  0  0  0  0  0
    5.2577    0.7850    1.7884 H   0  0  0  0  0  0  0  0  0  0  0  0
    5.3944    1.7489   -0.1584 C   0  0  0  0  0  0  0  0  0  0  0  0
    6.4928    1.8146   -0.1469 H   0  0  0  0  0  0  0  0  0  0  0  0
    4.6658    2.2494   -1.2450 C   0  0  0  0  0  0  0  0  0  0  0  0
    5.1874    2.7231   -2.0907 H   0  0  0  0  0  0  0  0  0  0  0  0
    3.2636    2.1686   -1.2618 C   0  0  0  0  0  0  0  0  0  0  0  0
    2.7197    2.6063   -2.1085 H   0  0  0  0  0  0  0  0  0  0  0  0
    0.2848    2.1830   -1.2986 C   0  0  0  0  0  0  0  0  0  0  0  0
   -0.7291    3.1516   -1.1288 C   0  0  0  0  0  0  0  0  0  0  0  0
   -1.0079    3.4785   -0.1199 H   0  0  0  0  0  0  0  0  0  0  0  0
   -1.3896    3.7127   -2.2309 C   0  0  0  0  0  0  0  0  0  0  0  0
   -2.1693    4.4702   -2.0609 H   0  0  0  0  0  0  0  0  0  0  0  0
   -1.0734    3.3067   -3.5347 C   0  0  0  0  0  0  0  0  0  0  0  0
   -1.5951    3.7459   -4.3978 H   0  0  0  0  0  0  0  0  0  0  0  0
   -0.1023    2.3136   -3.7232 C   0  0  0  0  0  0  0  0  0  0  0  0
    0.1439    1.9633   -4.7367 H   0  0  0  0  0  0  0  0  0  0  0  0
    0.5619    1.7568   -2.6212 C   0  0  0  0  0  0  0  0  0  0  0  0
    1.3261    0.9912   -2.8052 H   0  0  0  0  0  0  0  0  0  0  0  0
  1 15  1  6  0  0  0
  1  8  1  0  0  0  0
  2 13  1  0  0  0  0
  4 13  1  0  0  0  0
  7 14  1  0  0  0  0
  9 14  1  0  0  0  0
  9  8  1  0  0  0  0
 10  9  1  0  0  0  0
 10  1  1  0  0  0  0
 11 10  1  0  0  0  0
 12 10  1  0  0  0  0
 13  9  1  0  0  0  0
 13  3  1  0  0  0  0
 14  5  1  0  0  0  0
 14  6  1  0  0  0  0
 15 16  1  0  0  0  0
 16 25  2  0  0  0  0
 16 17  1  0  0  0  0
 17 19  2  0  0  0  0
 18 17  1  0  0  0  0
 19 21  1  0  0  0  0
 19 20  1  0  0  0  0
 21 22  1  0  0  0  0
 23 24  1  0  0  0  0
 23 21  2  0  0  0  0
 25 23  1  0  0  0  0
 26 25  1  0  0  0  0
 27 15  1  0  0  0  0
 27 28  1  0  0  0  0
 28 30  2  0  0  0  0
 28 29  1  0  0  0  0
 30 31  1  0  0  0  0
 32 33  1  0  0  0  0
 32 30  1  0  0  0  0
 34 32  2  0  0  0  0
 35 34  1  0  0  0  0
 36 34  1  0  0  0  0
 36 27  2  0  0  0  0
 37 36  1  0  0  0  0
 38 39  1  0  0  0  0
 38 15  1  0  0  0  0
 39 40  1  0  0  0  0
 41 42  1  0  0  0  0
 41 39  2  0  0  0  0
 43 41  1  0  0  0  0
 44 43  1  0  0  0  0
 45 43  2  0  0  0  0
 45 47  1  0  0  0  0
 46 45  1  0  0  0  0
 47 38  2  0  0  0  0
 48 47  1  0  0  0  0
M  END
