1
q = 0.0, confidence = 0.998

 38 40  0  0  1  0  0  0  0  0999 V2000
   -1.7496    0.0630    0.0075 P   0  0  1  0  0  0  0  0  0  0  0  0
   -1.7178   -1.7307    0.5853 C   0  0  1  0  0  0  0  0  0  0  0  0
   -3.1928   -1.9833    0.8867 C   0  0  0  0  0  0  0  0  0  0  0  0
   -3.9801   -1.3493   -0.0306 C   0  0  0  0  0  0  0  0  0  0  0  0
   -3.1216   -0.6452   -1.0686 C   0  0  2  0  0  0  0  0  0  0  0  0
   -2.3213   -1.7326   -1.8370 C   0  0  0  0  0  0  0  0  0  0  0  0
   -1.4279   -2.4325   -0.7718 C   0  0  1  0  0  0  0  0  0  0  0  0
    0.3379   -2.4062   -1.4304 S   0  0  1  0  0  0  0  0  0  0  0  0
    1.1768   -3.0552    0.0460 C   0  0  0  0  0  0  0  0  0  0  0  0
    1.7056   -4.2834   -0.0407 C   0  0  0  0  0  0  0  0  0  0  0  0
    0.3326   -3.5203   -2.4691 O   0  0  0  0  0  0  0  0  0  0  0  0
   -3.5964   -2.8834    2.0099 C   0  0  0  0  0  0  0  0  0  0  0  0
   -5.4698   -1.3243   -0.1271 C   0  0  0  0  0  0  0  0  0  0  0  0
   -2.5353    1.1198    1.2726 C   0  0  0  0  0  0  0  0  0  0  0  0
   -2.8937    2.4219    0.8589 C   0  0  0  0  0  0  0  0  0  0  0  0
   -3.4791    3.3069    1.7752 C   0  0  0  0  0  0  0  0  0  0  0  0
   -3.6892    2.9111    3.1069 C   0  0  0  0  0  0  0  0  0  0  0  0
   -3.3169    1.6233    3.5229 C   0  0  0  0  0  0  0  0  0  0  0  0
   -2.7448    0.7254    2.6086 C   0  0  0  0  0  0  0  0  0  0  0  0
   -1.0169   -2.0022    1.3932 H   0  0  0  0  0  0  0  0  0  0  0  0
   -3.6196    0.0935   -1.7192 H   0  0  0  0  0  0  0  0  0  0  0  0
   -1.7103   -1.2660   -2.6378 H   0  0  0  0  0  0  0  0  0  0  0  0
   -3.0102   -2.4517   -2.3203 H   0  0  0  0  0  0  0  0  0  0  0  0
   -1.6019   -3.5253   -0.6999 H   0  0  0  0  0  0  0  0  0  0  0  0
    1.3095   -2.3467    0.8801 H   0  0  0  0  0  0  0  0  0  0  0  0
    2.2987   -4.7170    0.7790 H   0  0  0  0  0  0  0  0  0  0  0  0
    1.5434   -4.8670   -0.9648 H   0  0  0  0  0  0  0  0  0  0  0  0
   -4.6958   -2.9751    2.0973 H   0  0  0  0  0  0  0  0  0  0  0  0
   -3.1798   -3.9050    1.8715 H   0  0  0  0  0  0  0  0  0  0  0  0
   -3.2069   -2.5191    2.9857 H   0  0  0  0  0  0  0  0  0  0  0  0
   -5.9579   -1.9039    0.6795 H   0  0  0  0  0  0  0  0  0  0  0  0
   -5.8420   -0.2782   -0.0733 H   0  0  0  0  0  0  0  0  0  0  0  0
   -5.8177   -1.7298   -1.1019 H   0  0  0  0  0  0  0  0  0  0  0  0
   -2.6998    2.7281   -0.1834 H   0  0  0  0  0  0  0  0  0  0  0  0
   -3.7648    4.3180    1.4478 H   0  0  0  0  0  0  0  0  0  0  0  0
   -4.1402    3.6121    3.8257 H   0  0  0  0  0  0  0  0  0  0  0  0
   -3.4746    1.3122    4.5668 H   0  0  0  0  0  0  0  0  0  0  0  0
   -2.4625   -0.2844    2.9396 H   0  0  0  0  0  0  0  0  0  0  0  0
  1  2  1  0  0  0  0
  1 14  1  1  0  0  0
  2  3  1  0  0  0  0
  2 20  1  1  0  0  0
  3 12  1  0  0  0  0
  4  3  2  0  0  0  0
  5 21  1  6  0  0  0
  5  4  1  0  0  0  0
  5  1  1  0  0  0  0
  6  5  1  0  0  0  0
  6  7  1  0  0  0  0
  7 24  1  1  0  0  0
  7  2  1  0  0  0  0
  8 11  2  6  0  0  0
  8  7  1  0  0  0  0
  8  9  1  0  0  0  0
  9 25  1  0  0  0  0
 10  9  2  0  0  0  0
 10 26  1  0  0  0  0
 12 28  1  0  0  0  0
 12 30  1  0  0  0  0
 13 32  1  0  0  0  0
 13  4  1  0  0  0  0
 13 31  1  0  0  0  0
 14 19  1  0  0  0  0
 15 14  2  0  0  0  0
 15 16  1  0  0  0  0
 16 17  2  0  0  0  0
 17 18  1  0  0  0  0
 17 36  1  0  0  0  0
 18 37  1  0  0  0  0
 19 38  1  0  0  0  0
 19 18  2  0  0  0  0
 22  6  1  0  0  0  0
 23  6  1  0  0  0  0
 27 10  1  0  0  0  0
 29 12  1  0  0  0  0
 33 13  1  0  0  0  0
 34 15  1  0  0  0  0
 35 16  1  0  0  0  0
M  END
