2
q = 0.0, confidence = 0.994

 23 23  0  0  0  0  0  0  0  0999 V2000
    1.3913    1.4314   -2.3214 Cl  0  0  0  0  0  0  0  0  0  0  0  0
    1.8886    0.1635   -0.7160 P   0  0  1  0  0  0  0  0  0  0  0  0
    3.2296   -0.8691   -1.5011 C   0  0  0  0  0  0  0  0  0  0  0  0
    2.6139   -1.8153   -2.5353 C   0  0  0  0  0  0  0  0  0  0  0  0
    4.3938   -0.0391   -2.0381 C   0  0  0  0  0  0  0  0  0  0  0  0
    2.7524    1.2819    0.4524 C   0  0  0  0  0  0  0  0  0  0  0  0
    3.1000    0.7143    1.6992 C   0  0  0  0  0  0  0  0  0  0  0  0
    3.7836    1.4912    2.6448 C   0  0  0  0  0  0  0  0  0  0  0  0
    4.1061    2.8297    2.3647 C   0  0  0  0  0  0  0  0  0  0  0  0
    3.7495    3.3929    1.1298 C   0  0  0  0  0  0  0  0  0  0  0  0
    3.0765    2.6220    0.1693 C   0  0  0  0  0  0  0  0  0  0  0  0
    3.5418   -1.4715   -0.6176 H   0  0  0  0  0  0  0  0  0  0  0  0
    1.8217   -2.4373   -2.0738 H   0  0  0  0  0  0  0  0  0  0  0  0
    3.3966   -2.4938   -2.9316 H   0  0  0  0  0  0  0  0  0  0  0  0
    2.1817   -1.2537   -3.3884 H   0  0  0  0  0  0  0  0  0  0  0  0
    4.0737    0.6004   -2.8853 H   0  0  0  0  0  0  0  0  0  0  0  0
    5.1903   -0.7178   -2.4066 H   0  0  0  0  0  0  0  0  0  0  0  0
    4.8359    0.6127   -1.2590 H   0  0  0  0  0  0  0  0  0  0  0  0
    2.8304   -0.3342    1.9152 H   0  0  0  0  0  0  0  0  0  0  0  0
    4.0585    1.0470    3.6135 H   0  0  0  0  0  0  0  0  0  0  0  0
    4.6337    3.4379    3.1152 H   0  0  0  0  0  0  0  0  0  0  0  0
    3.9965    4.4424    0.9085 H   0  0  0  0  0  0  0  0  0  0  0  0
    2.7974    3.0579   -0.8012 H   0  0  0  0  0  0  0  0  0  0  0  0
  2  1  1  6  0  0  0
  2  6  1  0  0  0  0
  3  2  1  0  0  0  0
  3 12  1  0  0  0  0
  4 13  1  0  0  0  0
  4  3  1  0  0  0  0
  5  3  1  0  0  0  0
  5 18  1  0  0  0  0
  6  7  1  0  0  0  0
  7 19  1  0  0  0  0
  7  8  2  0  0  0  0
  8 20  1  0  0  0  0
  9  8  1  0  0  0  0
  9 21  1  0  0  0  0
 10  9  2  0  0  0  0
 11  6  2  0  0  0  0
 11 10  1  0  0  0  0
 14  4  1  0  0  0  0
 15  4  1  0  0  0  0
 16  5  1  0  0  0  0
 17  5  1  0  0  0  0
 22 10  1  0  0  0  0
 23 11  1  0  0  0  0
M  END
