1
q = 0.0, confidence = 0.972

 73 73  0  0  1  0  0  0  0  0999 V2000
    0.6547   -0.7092    0.2126 P   0  0  0  0  0  2  0  0  0  0  0  0
   -0.9551    0.5759   -0.5383 P   0  0  1  0  0  0  0  0  0  0  0  0
   -1.9890   -0.6754    1.0476 P   0  0  2  0  0  0  0  0  0  0  0  0
   -0.8919    3.6451   -1.2109 Si  0  0  0  0  0  0  0  0  0  0  0  0
   -0.6048    2.7083    1.9270 Si  0  0  0  0  0  0  0  0  0  0  0  0
   -4.9140   -0.3072    0.3507 Si  0  0  0  0  0  0  0  0  0  0  0  0
   -3.1672   -2.1594   -1.6725 Si  0  0  0  0  0  0  0  0  0  0  0  0
   -0.4855   -1.7315    0.9783 C   0  0  2  0  0  3  0  0  0  0  0  0
   -0.2660   -3.0338    1.7353 C   0  0  0  0  0  0  0  0  0  0  0  0
    0.8471   -3.8693    1.0743 C   0  0  0  0  0  0  0  0  0  0  0  0
   -1.5636   -3.8638    1.7987 C   0  0  0  0  0  0  0  0  0  0  0  0
    0.1575   -2.6702    3.1817 C   0  0  0  0  0  0  0  0  0  0  0  0
   -0.4362    2.2715    0.0651 C   0  0  0  0  0  0  0  0  0  0  0  0
   -3.4063   -1.4792    0.1111 C   0  0  0  0  0  0  0  0  0  0  0  0
    0.6601    4.7032   -1.4497 C   0  0  0  0  0  0  0  0  0  0  0  0
   -1.3420    2.8705   -2.8785 C   0  0  0  0  0  0  0  0  0  0  0  0
   -2.3412    4.7275   -0.6499 C   0  0  0  0  0  0  0  0  0  0  0  0
   -2.4053    2.8455    2.4898 C   0  0  0  0  0  0  0  0  0  0  0  0
    0.2518    1.4130    3.0098 C   0  0  0  0  0  0  0  0  0  0  0  0
    0.2747    4.3641    2.2106 C   0  0  0  0  0  0  0  0  0  0  0  0
   -5.2945   -0.1971    2.2035 C   0  0  0  0  0  0  0  0  0  0  0  0
   -6.4607   -0.9826   -0.5097 C   0  0  0  0  0  0  0  0  0  0  0  0
   -4.5161    1.4171   -0.3231 C   0  0  0  0  0  0  0  0  0  0  0  0
   -1.4308   -2.8157   -2.0413 C   0  0  0  0  0  0  0  0  0  0  0  0
   -3.5477   -0.8540   -2.9913 C   0  0  0  0  0  0  0  0  0  0  0  0
   -4.3595   -3.6255   -1.8561 C   0  0  0  0  0  0  0  0  0  0  0  0
    1.0011   -4.8141    1.6340 H   0  0  0  0  0  0  0  0  0  0  0  0
    1.8101   -3.3237    1.0692 H   0  0  0  0  0  0  0  0  0  0  0  0
    0.5969   -4.1220    0.0251 H   0  0  0  0  0  0  0  0  0  0  0  0
   -1.3856   -4.7988    2.3674 H   0  0  0  0  0  0  0  0  0  0  0  0
   -1.9243   -4.1409    0.7884 H   0  0  0  0  0  0  0  0  0  0  0  0
   -2.3716   -3.3087    2.3185 H   0  0  0  0  0  0  0  0  0  0  0  0
   -0.6179   -2.0517    3.6768 H   0  0  0  0  0  0  0  0  0  0  0  0
    1.1069   -2.1004    3.1873 H   0  0  0  0  0  0  0  0  0  0  0  0
    0.3015   -3.5933    3.7813 H   0  0  0  0  0  0  0  0  0  0  0  0
    0.6732    2.2127   -0.0517 H   0  0  0  0  0  0  0  0  0  0  0  0
   -3.6740   -2.3633    0.7341 H   0  0  0  0  0  0  0  0  0  0  0  0
    1.4879    4.0817   -1.8503 H   0  0  0  0  0  0  0  0  0  0  0  0
    1.0054    5.1613   -0.5020 H   0  0  0  0  0  0  0  0  0  0  0  0
    0.4699    5.5200   -2.1763 H   0  0  0  0  0  0  0  0  0  0  0  0
   -0.5373    2.2009   -3.2444 H   0  0  0  0  0  0  0  0  0  0  0  0
   -1.4896    3.6735   -3.6307 H   0  0  0  0  0  0  0  0  0  0  0  0
   -2.2787    2.2798   -2.8233 H   0  0  0  0  0  0  0  0  0  0  0  0
   -2.1318    5.2595    0.2994 H   0  0  0  0  0  0  0  0  0  0  0  0
   -3.2640    4.1281   -0.5146 H   0  0  0  0  0  0  0  0  0  0  0  0
   -2.5485    5.4933   -1.4259 H   0  0  0  0  0  0  0  0  0  0  0  0
   -2.9845    3.5853    1.9047 H   0  0  0  0  0  0  0  0  0  0  0  0
   -2.4258    3.1612    3.5537 H   0  0  0  0  0  0  0  0  0  0  0  0
   -2.9136    1.8637    2.4220 H   0  0  0  0  0  0  0  0  0  0  0  0
    1.3080    1.2514    2.7190 H   0  0  0  0  0  0  0  0  0  0  0  0
   -0.2717    0.4375    2.9745 H   0  0  0  0  0  0  0  0  0  0  0  0
    0.2404    1.7653    4.0627 H   0  0  0  0  0  0  0  0  0  0  0  0
   -0.1937    5.2016    1.6563 H   0  0  0  0  0  0  0  0  0  0  0  0
    1.3392    4.2968    1.9069 H   0  0  0  0  0  0  0  0  0  0  0  0
    0.2472    4.6191    3.2904 H   0  0  0  0  0  0  0  0  0  0  0  0
   -4.4200    0.1599    2.7837 H   0  0  0  0  0  0  0  0  0  0  0  0
   -5.5850   -1.1904    2.6044 H   0  0  0  0  0  0  0  0  0  0  0  0
   -6.1364    0.5018    2.3883 H   0  0  0  0  0  0  0  0  0  0  0  0
   -6.3478   -1.0505   -1.6094 H   0  0  0  0  0  0  0  0  0  0  0  0
   -7.3163   -0.3074   -0.2995 H   0  0  0  0  0  0  0  0  0  0  0  0
   -6.7262   -1.9892   -0.1275 H   0  0  0  0  0  0  0  0  0  0  0  0
   -4.3447    1.4008   -1.4167 H   0  0  0  0  0  0  0  0  0  0  0  0
   -3.6122    1.8379    0.1592 H   0  0  0  0  0  0  0  0  0  0  0  0
   -5.3551    2.1130   -0.1152 H   0  0  0  0  0  0  0  0  0  0  0  0
   -1.0922   -3.5732   -1.3084 H   0  0  0  0  0  0  0  0  0  0  0  0
   -0.6757   -2.0064   -2.0669 H   0  0  0  0  0  0  0  0  0  0  0  0
   -1.4539   -3.2978   -3.0414 H   0  0  0  0  0  0  0  0  0  0  0  0
   -2.8496    0.0019   -2.8964 H   0  0  0  0  0  0  0  0  0  0  0  0
   -4.5858   -0.4707   -2.9426 H   0  0  0  0  0  0  0  0  0  0  0  0
   -3.4008   -1.3008   -3.9965 H   0  0  0  0  0  0  0  0  0  0  0  0
   -4.1145   -4.4242   -1.1249 H   0  0  0  0  0  0  0  0  0  0  0  0
   -4.2712   -4.0647   -2.8716 H   0  0  0  0  0  0  0  0  0  0  0  0
   -5.4175   -3.3372   -1.7020 H   0  0  0  0  0  0  0  0  0  0  0  0
  1  8  1  0  0  0  0
  2 13  1  1  0  0  0
  2  1  1  0  0  0  0
  2  3  1  0  0  0  0
  3 14  1  6  0  0  0
  4 17  1  0  0  0  0
  4 13  1  0  0  0  0
  5 20  1  0  0  0  0
  5 18  1  0  0  0  0
  5 19  1  0  0  0  0
  6 21  1  0  0  0  0
  7 14  1  0  0  0  0
  8  3  1  0  0  0  0
  8  9  1  1  0  0  0
  9 11  1  0  0  0  0
  9 12  1  0  0  0  0
 10 27  1  0  0  0  0
 10  9  1  0  0  0  0
 11 32  1  0  0  0  0
 11 30  1  0  0  0  0
 12 34  1  0  0  0  0
 12 33  1  0  0  0  0
 12 35  1  0  0  0  0
 13  5  1  0  0  0  0
 14  6  1  0  0  0  0
 14 37  1  0  0  0  0
 15  4  1  0  0  0  0
 15 39  1  0  0  0  0
 16 43  1  0  0  0  0
 16  4  1  0  0  0  0
 17 45  1  0  0  0  0
 17 44  1  0  0  0  0
 18 48  1  0  0  0  0
 19 52  1  0  0  0  0
 20 55  1  0  0  0  0
 21 58  1  0  0  0  0
 21 57  1  0  0  0  0
 21 56  1  0  0  0  0
 22 60  1  0  0  0  0
 22 61  1  0  0  0  0
 22  6  1  0  0  0  0
 23 64  1  0  0  0  0
 23 63  1  0  0  0  0
 23  6  1  0  0  0  0
 24  7  1  0  0  0  0
 24 65  1  0  0  0  0
 25 69  1  0  0  0  0
 25 68  1  0  0  0  0
 25  7  1  0  0  0  0
 26 73  1  0  0  0  0
 26  7  1  0  0  0  0
 26 71  1  0  0  0  0
 28 10  1  0  0  0  0
 29 10  1  0  0  0  0
 31 11  1  0  0  0  0
 36 13  1  0  0  0  0
 38 15  1  0  0  0  0
 40 15  1  0  0  0  0
 41 16  1  0  0  0  0
 42 16  1  0  0  0  0
 46 17  1  0  0  0  0
 47 18  1  0  0  0  0
 49 18  1  0  0  0  0
 50 19  1  0  0  0  0
 51 19  1  0  0  0  0
 53 20  1  0  0  0  0
 54 20  1  0  0  0  0
 59 22  1  0  0  0  0
 62 23  1  0  0  0  0
 66 24  1  0  0  0  0
 67 24  1  0  0  0  0
 70 25  1  0  0  0  0
 72 26  1  0  0  0  0
M  END
