2
q = 0.0, confidence = 1.0

 51 54  0  0  0  0  0  0  0  0999 V2000
   -2.2726   -0.6028    0.2051 P   0  0  0  0  0  4  0  0  0  0  0  0
    1.0310    0.8178    0.5439 P   0  0  0  0  0  0  0  0  0  0  0  0
   -1.0931   -1.4657   -1.1187 S   0  0  0  0  0  1  0  0  0  0  0  0
   -1.4358   -0.0582    1.7435 C   0  0  0  0  0  0  0  0  0  0  0  0
   -1.9844   -0.3053    2.6703 H   0  0  0  0  0  0  0  0  0  0  0  0
   -0.1932    0.4642    1.8503 C   0  0  0  0  0  0  0  0  0  0  0  0
    0.2174    0.6166    2.8649 H   0  0  0  0  0  0  0  0  0  0  0  0
   -3.5676   -1.7401    0.8618 C   0  0  0  0  0  0  0  0  0  0  0  0
   -3.3747   -3.1246    0.7048 C   0  0  0  0  0  0  0  0  0  0  0  0
   -2.4811   -3.4774    0.1648 H   0  0  0  0  0  0  0  0  0  0  0  0
   -4.3201   -4.0236    1.2202 C   0  0  0  0  0  0  0  0  0  0  0  0
   -4.1663   -5.1062    1.0960 H   0  0  0  0  0  0  0  0  0  0  0  0
   -5.4591   -3.5443    1.8867 C   0  0  0  0  0  0  0  0  0  0  0  0
   -6.2020   -4.2512    2.2865 H   0  0  0  0  0  0  0  0  0  0  0  0
   -5.6559   -2.1618    2.0358 C   0  0  0  0  0  0  0  0  0  0  0  0
   -6.5542   -1.7832    2.5467 H   0  0  0  0  0  0  0  0  0  0  0  0
   -4.7134   -1.2570    1.5245 C   0  0  0  0  0  0  0  0  0  0  0  0
   -4.8858   -0.1750    1.6275 H   0  0  0  0  0  0  0  0  0  0  0  0
   -3.1835    0.8718   -0.4091 C   0  0  0  0  0  0  0  0  0  0  0  0
   -3.4392    0.9642   -1.7881 C   0  0  0  0  0  0  0  0  0  0  0  0
   -3.0372    0.1862   -2.4566 H   0  0  0  0  0  0  0  0  0  0  0  0
   -4.1714    2.0504   -2.2886 C   0  0  0  0  0  0  0  0  0  0  0  0
   -4.3663    2.1247   -3.3692 H   0  0  0  0  0  0  0  0  0  0  0  0
   -4.6449    3.0446   -1.4177 C   0  0  0  0  0  0  0  0  0  0  0  0
   -5.2183    3.8965   -1.8139 H   0  0  0  0  0  0  0  0  0  0  0  0
   -4.3762    2.9603   -0.0416 C   0  0  0  0  0  0  0  0  0  0  0  0
   -4.7340    3.7464    0.6407 H   0  0  0  0  0  0  0  0  0  0  0  0
   -3.6427    1.8775    0.4650 C   0  0  0  0  0  0  0  0  0  0  0  0
   -3.4111    1.8266    1.5403 H   0  0  0  0  0  0  0  0  0  0  0  0
    2.1352    2.0317    1.3811 C   0  0  0  0  0  0  0  0  0  0  0  0
    1.6525    2.9829    2.3045 C   0  0  0  0  0  0  0  0  0  0  0  0
    0.5880    2.9976    2.5855 H   0  0  0  0  0  0  0  0  0  0  0  0
    2.5281    3.9159    2.8788 C   0  0  0  0  0  0  0  0  0  0  0  0
    2.1445    4.6512    3.6023 H   0  0  0  0  0  0  0  0  0  0  0  0
    3.8891    3.9110    2.5326 C   0  0  0  0  0  0  0  0  0  0  0  0
    4.5746    4.6432    2.9854 H   0  0  0  0  0  0  0  0  0  0  0  0
    4.3744    2.9663    1.6151 C   0  0  0  0  0  0  0  0  0  0  0  0
    5.4415    2.9521    1.3471 H   0  0  0  0  0  0  0  0  0  0  0  0
    3.5035    2.0269    1.0436 C   0  0  0  0  0  0  0  0  0  0  0  0
    3.8819    1.2704    0.3373 H   0  0  0  0  0  0  0  0  0  0  0  0
    0.2120    1.8188   -0.7614 C   0  0  0  0  0  0  0  0  0  0  0  0
   -0.5670    2.9453   -0.4323 C   0  0  0  0  0  0  0  0  0  0  0  0
   -0.7474    3.2089    0.6201 H   0  0  0  0  0  0  0  0  0  0  0  0
   -1.1252    3.7326   -1.4483 C   0  0  0  0  0  0  0  0  0  0  0  0
   -1.7435    4.6035   -1.1858 H   0  0  0  0  0  0  0  0  0  0  0  0
   -0.9079    3.3997   -2.7946 C   0  0  0  0  0  0  0  0  0  0  0  0
   -1.3513    4.0167   -3.5909 H   0  0  0  0  0  0  0  0  0  0  0  0
   -0.1321    2.2774   -3.1249 C   0  0  0  0  0  0  0  0  0  0  0  0
    0.0366    2.0104   -4.1789 H   0  0  0  0  0  0  0  0  0  0  0  0
    0.4263    1.4848   -2.1124 C   0  0  0  0  0  0  0  0  0  0  0  0
    1.0225    0.5932   -2.3598 H   0  0  0  0  0  0  0  0  0  0  0  0
  1  8  1  0  0  0  0
  1  4  1  0  0  0  0
  2 30  1  0  0  0  0
  2  6  1  0  0  0  0
  3  1  1  0  0  0  0
  4  6  2  0  0  0  0
  4  5  1  0  0  0  0
  6  7  1  0  0  0  0
  8 17  1  0  0  0  0
  9  8  2  0  0  0  0
  9 11  1  0  0  0  0
 10  9  1  0  0  0  0
 11 13  2  0  0  0  0
 12 11  1  0  0  0  0
 13 15  1  0  0  0  0
 13 14  1  0  0  0  0
 15 16  1  0  0  0  0
 17 18  1  0  0  0  0
 17 15  2  0  0  0  0
 19  1  1  0  0  0  0
 19 28  1  0  0  0  0
 20 19  2  0  0  0  0
 21 20  1  0  0  0  0
 22 20  1  0  0  0  0
 22 24  2  0  0  0  0
 23 22  1  0  0  0  0
 24 26  1  0  0  0  0
 25 24  1  0  0  0  0
 26 28  2  0  0  0  0
 26 27  1  0  0  0  0
 28 29  1  0  0  0  0
 30 31  1  0  0  0  0
 31 32  1  0  0  0  0
 31 33  2  0  0  0  0
 33 34  1  0  0  0  0
 35 33  1  0  0  0  0
 35 36  1  0  0  0  0
 37 35  2  0  0  0  0
 38 37  1  0  0  0  0
 39 30  2  0  0  0  0
 39 37  1  0  0  0  0
 40 39  1  0  0  0  0
 41 42  1  0  0  0  0
 41  2  1  0  0  0  0
 42 43  1  0  0  0  0
 44 45  1  0  0  0  0
 44 42  2  0  0  0  0
 46 44  1  0  0  0  0
 47 46  1  0  0  0  0
 48 46  2  0  0  0  0
 48 50  1  0  0  0  0
 49 48  1  0  0  0  0
 50 41  2  0  0  0  0
 51 50  1  0  0  0  0
M  END
