1
q = 0.0, confidence = 0.994

 49 51  0  0  0  0  0  0  0  0999 V2000
    0.5519    0.2497    0.0934 P   0  0  0  0  0  0  0  0  0  0  0  0
   -2.5108   -1.4989   -2.4154 N   0  0  0  0  0  0  0  0  0  0  0  0
    4.7559   -1.2276   -1.0907 N   0  0  0  0  0  0  0  0  0  0  0  0
   -2.0679   -3.0085    2.1160 N   0  0  0  0  0  0  0  0  0  0  0  0
   -0.3591   -0.8921    1.2214 C   0  0  0  0  0  0  0  0  0  0  0  0
   -0.0422   -1.9377    1.0288 H   0  0  0  0  0  0  0  0  0  0  0  0
   -0.0381   -0.6343    2.2531 H   0  0  0  0  0  0  0  0  0  0  0  0
    0.0608   -0.2954   -1.6089 C   0  0  0  0  0  0  0  0  0  0  0  0
    0.9492   -0.1958   -2.2656 H   0  0  0  0  0  0  0  0  0  0  0  0
   -0.1949   -1.3741   -1.5489 H   0  0  0  0  0  0  0  0  0  0  0  0
   -3.7509   -1.3915    2.7261 C   0  0  0  0  0  0  0  0  0  0  0  0
   -4.1431   -0.3675    2.6319 H   0  0  0  0  0  0  0  0  0  0  0  0
   -2.6828   -3.9036    2.9022 C   0  0  0  0  0  0  0  0  0  0  0  0
   -2.2219   -4.9069    2.9541 H   0  0  0  0  0  0  0  0  0  0  0  0
   -3.8463   -3.6241    3.6364 C   0  0  0  0  0  0  0  0  0  0  0  0
   -4.3092   -4.3974    4.2672 H   0  0  0  0  0  0  0  0  0  0  0  0
    2.3240   -0.2373    0.2539 C   0  0  0  0  0  0  0  0  0  0  0  0
    2.8841    0.3827   -0.4776 H   0  0  0  0  0  0  0  0  0  0  0  0
    2.6576    0.0878    1.2614 H   0  0  0  0  0  0  0  0  0  0  0  0
   -1.8844   -0.8045    1.0912 C   0  0  0  0  0  0  0  0  0  0  0  0
   -2.1818   -1.0688    0.0493 H   0  0  0  0  0  0  0  0  0  0  0  0
   -2.2348    0.2312    1.2790 H   0  0  0  0  0  0  0  0  0  0  0  0
   -4.3881   -2.3341    3.5432 C   0  0  0  0  0  0  0  0  0  0  0  0
   -5.2949   -2.0624    4.1053 H   0  0  0  0  0  0  0  0  0  0  0  0
   -1.1411    0.4879   -2.1778 C   0  0  0  0  0  0  0  0  0  0  0  0
   -0.7931    1.3668   -2.7540 H   0  0  0  0  0  0  0  0  0  0  0  0
   -1.7466    0.9066   -1.3442 H   0  0  0  0  0  0  0  0  0  0  0  0
    2.6482   -1.7189    0.0086 C   0  0  0  0  0  0  0  0  0  0  0  0
    2.2403   -2.3574    0.8165 H   0  0  0  0  0  0  0  0  0  0  0  0
    2.1734   -2.0516   -0.9397 H   0  0  0  0  0  0  0  0  0  0  0  0
   -3.7789   -2.0331   -4.4012 C   0  0  0  0  0  0  0  0  0  0  0  0
   -4.4658   -2.7231   -4.9129 H   0  0  0  0  0  0  0  0  0  0  0  0
   -2.0569   -0.3781   -3.0139 C   0  0  0  0  0  0  0  0  0  0  0  0
    6.2238   -2.9830    0.5348 C   0  0  0  0  0  0  0  0  0  0  0  0
    6.7958   -3.6706    1.1766 H   0  0  0  0  0  0  0  0  0  0  0  0
   -3.3475   -2.2981   -3.0911 C   0  0  0  0  0  0  0  0  0  0  0  0
   -3.6959   -3.2015   -2.5595 H   0  0  0  0  0  0  0  0  0  0  0  0
    4.1410   -1.9391   -0.1247 C   0  0  0  0  0  0  0  0  0  0  0  0
   -3.3072   -0.8716   -5.0280 C   0  0  0  0  0  0  0  0  0  0  0  0
   -3.6149   -0.6225   -6.0552 H   0  0  0  0  0  0  0  0  0  0  0  0
    4.8419   -2.8276    0.7140 C   0  0  0  0  0  0  0  0  0  0  0  0
    4.3067   -3.3890    1.4950 H   0  0  0  0  0  0  0  0  0  0  0  0
    6.8609   -2.2454   -0.4722 C   0  0  0  0  0  0  0  0  0  0  0  0
    7.9430   -2.3322   -0.6495 H   0  0  0  0  0  0  0  0  0  0  0  0
   -2.4326   -0.0304   -4.3257 C   0  0  0  0  0  0  0  0  0  0  0  0
   -2.0420    0.8904   -4.7845 H   0  0  0  0  0  0  0  0  0  0  0  0
    6.0766   -1.3814   -1.2549 C   0  0  0  0  0  0  0  0  0  0  0  0
    6.5431   -0.7816   -2.0572 H   0  0  0  0  0  0  0  0  0  0  0  0
   -2.5901   -1.7692    2.0200 C   0  0  0  0  0  0  0  0  0  0  0  0
  1 17  1  0  0  0  0
  1  5  1  0  0  0  0
  3 38  1  0  0  0  0
  4 13  1  0  0  0  0
  5  7  1  0  0  0  0
  6  5  1  0  0  0  0
  8 10  1  0  0  0  0
  8  1  1  0  0  0  0
  9  8  1  0  0  0  0
 11 23  2  0  0  0  0
 12 11  1  0  0  0  0
 13 14  1  0  0  0  0
 13 15  2  0  0  0  0
 15 16  1  0  0  0  0
 17 19  1  0  0  0  0
 18 17  1  0  0  0  0
 20  5  1  0  0  0  0
 20 22  1  0  0  0  0
 20 49  1  0  0  0  0
 21 20  1  0  0  0  0
 23 15  1  0  0  0  0
 23 24  1  0  0  0  0
 25  8  1  0  0  0  0
 25 27  1  0  0  0  0
 26 25  1  0  0  0  0
 28 17  1  0  0  0  0
 28 29  1  0  0  0  0
 30 28  1  0  0  0  0
 31 36  1  0  0  0  0
 32 31  1  0  0  0  0
 33  2  1  0  0  0  0
 33 25  1  0  0  0  0
 34 41  1  0  0  0  0
 34 35  1  0  0  0  0
 36 37  1  0  0  0  0
 36  2  2  0  0  0  0
 38 28  1  0  0  0  0
 38 41  2  0  0  0  0
 39 31  2  0  0  0  0
 39 45  1  0  0  0  0
 40 39  1  0  0  0  0
 41 42  1  0  0  0  0
 43 34  2  0  0  0  0
 44 43  1  0  0  0  0
 45 33  2  0  0  0  0
 46 45  1  0  0  0  0
 47  3  2  0  0  0  0
 47 43  1  0  0  0  0
 48 47  1  0  0  0  0
 49  4  2  0  0  0  0
 49 11  1  0  0  0  0
M  END
