1
q = 0.0, confidence = 0.992

 27 27  0  0  0  0  0  0  0  0999 V2000
   -1.8953    0.2338    0.7265 P   0  0  1  0  0  0  0  0  0  0  0  0
   -1.4867    1.4065    1.8432 O   0  0  0  0  0  0  0  0  0  0  0  0
   -3.2088   -0.7738    1.5885 C   0  0  0  0  0  0  0  0  0  0  0  0
   -2.5817   -1.8011    2.5383 C   0  0  0  0  0  0  0  0  0  0  0  0
   -4.2469    0.1255    2.2622 C   0  0  0  0  0  0  0  0  0  0  0  0
   -2.8070    1.2789   -0.4612 C   0  0  0  0  0  0  0  0  0  0  0  0
   -3.2568    0.6810   -1.6582 C   0  0  0  0  0  0  0  0  0  0  0  0
   -3.9651    1.4501   -2.5920 C   0  0  0  0  0  0  0  0  0  0  0  0
   -4.2149    2.8110   -2.3468 C   0  0  0  0  0  0  0  0  0  0  0  0
   -3.7575    3.4052   -1.1602 C   0  0  0  0  0  0  0  0  0  0  0  0
   -3.0559    2.6436   -0.2129 C   0  0  0  0  0  0  0  0  0  0  0  0
   -0.5335    1.1299    2.8682 C   0  0  0  0  0  0  0  0  0  0  0  0
   -3.6580   -1.3283    0.7354 H   0  0  0  0  0  0  0  0  0  0  0  0
   -3.3752   -2.4506    2.9620 H   0  0  0  0  0  0  0  0  0  0  0  0
   -2.0596   -1.3180    3.3892 H   0  0  0  0  0  0  0  0  0  0  0  0
   -1.8646   -2.4476    1.9955 H   0  0  0  0  0  0  0  0  0  0  0  0
   -5.0525   -0.4960    2.7047 H   0  0  0  0  0  0  0  0  0  0  0  0
   -4.7144    0.8293    1.5455 H   0  0  0  0  0  0  0  0  0  0  0  0
   -3.7924    0.7245    3.0772 H   0  0  0  0  0  0  0  0  0  0  0  0
   -3.0376   -0.3838   -1.8477 H   0  0  0  0  0  0  0  0  0  0  0  0
   -4.3176    0.9832   -3.5243 H   0  0  0  0  0  0  0  0  0  0  0  0
   -4.7651    3.4122   -3.0868 H   0  0  0  0  0  0  0  0  0  0  0  0
   -3.9489    4.4720   -0.9677 H   0  0  0  0  0  0  0  0  0  0  0  0
   -2.6958    3.0970    0.7215 H   0  0  0  0  0  0  0  0  0  0  0  0
    0.1923    0.3518    2.5470 H   0  0  0  0  0  0  0  0  0  0  0  0
   -1.0445    0.8005    3.7983 H   0  0  0  0  0  0  0  0  0  0  0  0
    0.0237    2.0654    3.0708 H   0  0  0  0  0  0  0  0  0  0  0  0
  1  3  1  0  0  0  0
  1  2  1  1  0  0  0
  2 12  1  0  0  0  0
  3  5  1  0  0  0  0
  3  4  1  0  0  0  0
  4 14  1  0  0  0  0
  4 15  1  0  0  0  0
  5 17  1  0  0  0  0
  5 19  1  0  0  0  0
  6 11  1  0  0  0  0
  6  1  1  0  0  0  0
  7  6  2  0  0  0  0
  8  9  2  0  0  0  0
  8  7  1  0  0  0  0
  9 10  1  0  0  0  0
 10 23  1  0  0  0  0
 10 11  2  0  0  0  0
 11 24  1  0  0  0  0
 12 27  1  0  0  0  0
 12 26  1  0  0  0  0
 13  3  1  0  0  0  0
 16  4  1  0  0  0  0
 18  5  1  0  0  0  0
 20  7  1  0  0  0  0
 21  8  1  0  0  0  0
 22  9  1  0  0  0  0
 25 12  1  0  0  0  0
M  END
