1,2,7,25
 OpenBabel05122313063D

 39 42  0  0  0  0  0  0  0  0999 V2000
    1.2894   -1.4671    0.6831 O   0  5  0  0  0  0  0  0  0  0  0  0
   -1.2895   -1.4670    0.6833 O   0  5  0  0  0  0  0  0  0  0  0  0
    2.6409    0.8975   -0.1774 N   0  0  0  0  0  0  0  0  0  0  0  0
    1.1913    2.4944    0.1244 N   0  0  0  0  0  0  0  0  0  0  0  0
   -1.1913    2.4944    0.1244 N   0  0  0  0  0  0  0  0  0  0  0  0
   -2.6409    0.8975   -0.1774 N   0  0  0  0  0  0  0  0  0  0  0  0
    1.3199    1.1223    0.1453 C   0  0  0  0  0  2  0  0  0  0  0  0
    3.3019    2.1100   -0.3798 C   0  0  0  0  0  0  0  0  0  0  0  0
    4.3628    2.1663   -0.6287 H   0  0  0  0  0  0  0  0  0  0  0  0
    2.3914    3.1133   -0.1890 C   0  0  0  0  0  0  0  0  0  0  0  0
    2.5043    4.2002   -0.2432 H   0  0  0  0  0  0  0  0  0  0  0  0
    3.2533   -0.3852   -0.2454 C   0  0  0  0  0  0  0  0  0  0  0  0
    2.5176   -1.5146    0.2517 C   0  0  0  0  0  0  0  0  0  0  0  0
    3.2119   -2.7644    0.2603 C   0  0  0  0  0  0  0  0  0  0  0  0
    2.6555   -3.6261    0.6569 H   0  0  0  0  0  0  0  0  0  0  0  0
    4.5099   -2.8918   -0.2259 C   0  0  0  0  0  0  0  0  0  0  0  0
    4.9997   -3.8779   -0.2114 H   0  0  0  0  0  0  0  0  0  0  0  0
    5.1942   -1.7745   -0.7485 C   0  0  0  0  0  0  0  0  0  0  0  0
    6.2117   -1.8739   -1.1525 H   0  0  0  0  0  0  0  0  0  0  0  0
    4.5594   -0.5301   -0.7522 C   0  0  0  0  0  0  0  0  0  0  0  0
    5.0900    0.3385   -1.1684 H   0  0  0  0  0  0  0  0  0  0  0  0
   -0.0000    3.1636    0.5987 C   0  0  0  0  0  0  0  0  0  0  0  0
    0.0000    3.1783    1.7132 H   0  0  0  0  0  0  0  0  0  0  0  0
   -0.0000    4.2074    0.2308 H   0  0  0  0  0  0  0  0  0  0  0  0
   -1.3199    1.1223    0.1453 C   0  0  0  0  0  2  0  0  0  0  0  0
   -2.3914    3.1133   -0.1890 C   0  0  0  0  0  0  0  0  0  0  0  0
   -2.5044    4.2002   -0.2432 H   0  0  0  0  0  0  0  0  0  0  0  0
   -3.3019    2.1100   -0.3799 C   0  0  0  0  0  0  0  0  0  0  0  0
   -4.3628    2.1663   -0.6288 H   0  0  0  0  0  0  0  0  0  0  0  0
   -3.2533   -0.3852   -0.2454 C   0  0  0  0  0  0  0  0  0  0  0  0
   -2.5176   -1.5145    0.2518 C   0  0  0  0  0  0  0  0  0  0  0  0
   -3.2119   -2.7644    0.2604 C   0  0  0  0  0  0  0  0  0  0  0  0
   -2.6555   -3.6261    0.6570 H   0  0  0  0  0  0  0  0  0  0  0  0
   -4.5098   -2.8918   -0.2259 C   0  0  0  0  0  0  0  0  0  0  0  0
   -4.9996   -3.8779   -0.2114 H   0  0  0  0  0  0  0  0  0  0  0  0
   -5.1942   -1.7746   -0.7486 C   0  0  0  0  0  0  0  0  0  0  0  0
   -6.2117   -1.8740   -1.1527 H   0  0  0  0  0  0  0  0  0  0  0  0
   -4.5594   -0.5302   -0.7523 C   0  0  0  0  0  0  0  0  0  0  0  0
   -5.0899    0.3384   -1.1685 H   0  0  0  0  0  0  0  0  0  0  0  0
  3  7  1  0  0  0  0
  4  7  1  0  0  0  0
  4 22  1  0  0  0  0
  5 25  1  0  0  0  0
  5 22  1  0  0  0  0
  6 25  1  0  0  0  0
  8 10  2  0  0  0  0
  8  3  1  0  0  0  0
  9  8  1  0  0  0  0
 10  4  1  0  0  0  0
 11 10  1  0  0  0  0
 12  3  1  0  0  0  0
 12 13  1  0  0  0  0
 13 14  2  0  0  0  0
 13  1  1  0  0  0  0
 14 15  1  0  0  0  0
 16 17  1  0  0  0  0
 16 14  1  0  0  0  0
 18 16  2  0  0  0  0
 19 18  1  0  0  0  0
 20 18  1  0  0  0  0
 20 12  2  0  0  0  0
 21 20  1  0  0  0  0
 22 23  1  0  0  0  0
 24 22  1  0  0  0  0
 26  5  1  0  0  0  0
 27 26  1  0  0  0  0
 28 26  2  0  0  0  0
 28  6  1  0  0  0  0
 29 28  1  0  0  0  0
 30  6  1  0  0  0  0
 30 31  1  0  0  0  0
 31 32  2  0  0  0  0
 31  2  1  0  0  0  0
 32 33  1  0  0  0  0
 34 35  1  0  0  0  0
 34 32  1  0  0  0  0
 36 34  2  0  0  0  0
 37 36  1  0  0  0  0
 38 36  1  0  0  0  0
 38 30  2  0  0  0  0
 39 38  1  0  0  0  0
M  CHG  2   1  -1   2  -1
M  END
