1,2,6,19
 OpenBabel05122313063D

 32 33  0  0  0  0  0  0  0  0999 V2000
    1.7468   -2.1690    0.0002 O   0  5  0  0  0  0  0  0  0  0  0  0
   -1.7468   -2.1690   -0.0006 O   0  5  0  0  0  0  0  0  0  0  0  0
   -0.0000    2.5090   -0.0002 N   0  0  0  0  0  0  0  0  0  0  0  0
    2.8109   -1.5018    0.0003 C   0  0  0  0  0  0  0  0  0  0  0  0
    2.7375   -0.0346    0.0001 C   0  0  0  0  0  0  0  0  0  0  0  0
    1.4130    0.4964   -0.0001 C   0  0  0  0  0  2  0  0  0  0  0  0
    1.2513    1.9048   -0.0002 C   0  0  0  0  0  0  0  0  0  0  0  0
    3.6958    2.1904   -0.0003 C   0  0  0  0  0  0  0  0  0  0  0  0
    4.5643    2.8654   -0.0004 H   0  0  0  0  0  0  0  0  0  0  0  0
    2.4018    2.7325   -0.0003 C   0  0  0  0  0  0  0  0  0  0  0  0
    2.2746    3.8283   -0.0004 H   0  0  0  0  0  0  0  0  0  0  0  0
    3.8775    0.8034    0.0000 C   0  0  0  0  0  0  0  0  0  0  0  0
    4.8912    0.3767    0.0001 H   0  0  0  0  0  0  0  0  0  0  0  0
    4.1273   -2.2328    0.0002 C   0  0  0  0  0  0  0  0  0  0  0  0
    3.9457   -3.3220    0.0033 H   0  0  0  0  0  0  0  0  0  0  0  0
    4.7287   -1.9534    0.8893 H   0  0  0  0  0  0  0  0  0  0  0  0
    4.7251   -1.9583   -0.8928 H   0  0  0  0  0  0  0  0  0  0  0  0
   -1.2513    1.9048    0.0001 C   0  0  0  0  0  0  0  0  0  0  0  0
   -1.4130    0.4964    0.0001 C   0  0  0  0  0  2  0  0  0  0  0  0
   -2.4018    2.7325    0.0003 C   0  0  0  0  0  0  0  0  0  0  0  0
   -2.2746    3.8283    0.0003 H   0  0  0  0  0  0  0  0  0  0  0  0
   -2.8109   -1.5018   -0.0002 C   0  0  0  0  0  0  0  0  0  0  0  0
   -4.1273   -2.2328   -0.0002 C   0  0  0  0  0  0  0  0  0  0  0  0
   -3.9456   -3.3220   -0.0024 H   0  0  0  0  0  0  0  0  0  0  0  0
   -4.7281   -1.9541   -0.8899 H   0  0  0  0  0  0  0  0  0  0  0  0
   -4.7257   -1.9576    0.8922 H   0  0  0  0  0  0  0  0  0  0  0  0
   -2.7375   -0.0346    0.0000 C   0  0  0  0  0  0  0  0  0  0  0  0
   -3.6958    2.1904    0.0003 C   0  0  0  0  0  0  0  0  0  0  0  0
   -4.5643    2.8654    0.0005 H   0  0  0  0  0  0  0  0  0  0  0  0
   -3.8775    0.8034    0.0002 C   0  0  0  0  0  0  0  0  0  0  0  0
   -4.8912    0.3767    0.0001 H   0  0  0  0  0  0  0  0  0  0  0  0
   -0.0000    3.5290   -0.0002 H   0  0  0  0  0  0  0  0  0  0  0  0
  1  4  1  0  0  0  0
  2 22  1  0  0  0  0
  3  7  1  0  0  0  0
  3 18  1  0  0  0  0
  5  4  2  0  0  0  0
  6  5  1  0  0  0  0
  7  6  1  0  0  0  0
  8 12  2  0  0  0  0
  9  8  1  0  0  0  0
 10  8  1  0  0  0  0
 10  7  2  0  0  0  0
 11 10  1  0  0  0  0
 12 13  1  0  0  0  0
 12  5  1  0  0  0  0
 14  4  1  0  0  0  0
 14 15  1  0  0  0  0
 14 16  1  0  0  0  0
 17 14  1  0  0  0  0
 18 20  2  0  0  0  0
 19 18  1  0  0  0  0
 20 21  1  0  0  0  0
 20 28  1  0  0  0  0
 22 27  2  0  0  0  0
 23 22  1  0  0  0  0
 23 26  1  0  0  0  0
 24 23  1  0  0  0  0
 25 23  1  0  0  0  0
 27 19  1  0  0  0  0
 27 30  1  0  0  0  0
 28 29  1  0  0  0  0
 30 28  2  0  0  0  0
 31 30  1  0  0  0  0
 32  3  1  0  0  0  0
M  CHG  2   1  -1   2  -1
M  END
