3,4,18,26
 OpenBabel05122313063D

 39 42  0  0  0  0  0  0  0  0999 V2000
   -6.7165   -1.5077   -0.9731 F   0  0  0  0  0  0  0  0  0  0  0  0
    6.7165   -1.5078   -0.9731 F   0  0  0  0  0  0  0  0  0  0  0  0
   -1.4293   -1.5143    0.5736 O   0  5  0  0  0  0  0  0  0  0  0  0
    1.4293   -1.5143    0.5736 O   0  5  0  0  0  0  0  0  0  0  0  0
   -2.7262    1.0465   -0.1710 N   0  0  0  0  0  0  0  0  0  0  0  0
   -1.2081    2.6138    0.0109 N   0  0  0  0  0  0  0  0  0  0  0  0
    1.2081    2.6138    0.0109 N   0  0  0  0  0  0  0  0  0  0  0  0
    2.7262    1.0465   -0.1710 N   0  0  0  0  0  0  0  0  0  0  0  0
   -2.6881   -1.4196    0.2184 C   0  0  0  0  0  0  0  0  0  0  0  0
   -3.4641   -2.6204    0.2307 C   0  0  0  0  0  0  0  0  0  0  0  0
   -2.9356   -3.5277    0.5563 H   0  0  0  0  0  0  0  0  0  0  0  0
   -4.7998   -2.6685   -0.1548 C   0  0  0  0  0  0  0  0  0  0  0  0
   -5.3690   -3.6091   -0.1441 H   0  0  0  0  0  0  0  0  0  0  0  0
   -5.4237   -1.4847   -0.5770 C   0  0  0  0  0  0  0  0  0  0  0  0
   -4.7312   -0.2789   -0.5967 C   0  0  0  0  0  0  0  0  0  0  0  0
   -5.2730    0.6098   -0.9431 H   0  0  0  0  0  0  0  0  0  0  0  0
   -3.3794   -0.2247   -0.1910 C   0  0  0  0  0  0  0  0  0  0  0  0
   -1.3917    1.2507    0.0921 C   0  0  0  0  0  2  0  0  0  0  0  0
   -3.3525    2.2774   -0.3981 C   0  0  0  0  0  0  0  0  0  0  0  0
   -4.4167    2.3666   -0.6194 H   0  0  0  0  0  0  0  0  0  0  0  0
   -2.4044    3.2557   -0.2823 C   0  0  0  0  0  0  0  0  0  0  0  0
   -2.4875    4.3422   -0.3794 H   0  0  0  0  0  0  0  0  0  0  0  0
   -0.0000    3.2639    0.4841 C   0  0  0  0  0  0  0  0  0  0  0  0
   -0.0000    4.3122    0.1309 H   0  0  0  0  0  0  0  0  0  0  0  0
    0.0000    3.2599    1.5983 H   0  0  0  0  0  0  0  0  0  0  0  0
    1.3917    1.2507    0.0921 C   0  0  0  0  0  2  0  0  0  0  0  0
    2.4044    3.2557   -0.2823 C   0  0  0  0  0  0  0  0  0  0  0  0
    2.4875    4.3422   -0.3794 H   0  0  0  0  0  0  0  0  0  0  0  0
    3.3525    2.2774   -0.3981 C   0  0  0  0  0  0  0  0  0  0  0  0
    4.4167    2.3666   -0.6194 H   0  0  0  0  0  0  0  0  0  0  0  0
    2.6881   -1.4196    0.2184 C   0  0  0  0  0  0  0  0  0  0  0  0
    3.3794   -0.2247   -0.1910 C   0  0  0  0  0  0  0  0  0  0  0  0
    4.7312   -0.2789   -0.5968 C   0  0  0  0  0  0  0  0  0  0  0  0
    5.2730    0.6098   -0.9432 H   0  0  0  0  0  0  0  0  0  0  0  0
    5.4237   -1.4847   -0.5770 C   0  0  0  0  0  0  0  0  0  0  0  0
    4.7999   -2.6685   -0.1548 C   0  0  0  0  0  0  0  0  0  0  0  0
    5.3690   -3.6091   -0.1440 H   0  0  0  0  0  0  0  0  0  0  0  0
    3.4641   -2.6204    0.2307 C   0  0  0  0  0  0  0  0  0  0  0  0
    2.9356   -3.5277    0.5563 H   0  0  0  0  0  0  0  0  0  0  0  0
  1 14  1  0  0  0  0
  2 35  1  0  0  0  0
  5 18  1  0  0  0  0
  6 18  1  0  0  0  0
  6 23  1  0  0  0  0
  7 26  1  0  0  0  0
  7 23  1  0  0  0  0
  8 26  1  0  0  0  0
  9 10  1  0  0  0  0
  9  3  1  0  0  0  0
 10 11  1  0  0  0  0
 12 13  1  0  0  0  0
 12 10  2  0  0  0  0
 14 12  1  0  0  0  0
 15 14  2  0  0  0  0
 15 17  1  0  0  0  0
 16 15  1  0  0  0  0
 17  5  1  0  0  0  0
 17  9  2  0  0  0  0
 19 21  2  0  0  0  0
 19  5  1  0  0  0  0
 20 19  1  0  0  0  0
 21  6  1  0  0  0  0
 22 21  1  0  0  0  0
 23 25  1  0  0  0  0
 24 23  1  0  0  0  0
 27  7  1  0  0  0  0
 28 27  1  0  0  0  0
 29 27  2  0  0  0  0
 29  8  1  0  0  0  0
 30 29  1  0  0  0  0
 31 38  1  0  0  0  0
 31  4  1  0  0  0  0
 32  8  1  0  0  0  0
 32 31  2  0  0  0  0
 33 35  2  0  0  0  0
 33 32  1  0  0  0  0
 34 33  1  0  0  0  0
 35 36  1  0  0  0  0
 36 37  1  0  0  0  0
 36 38  2  0  0  0  0
 38 39  1  0  0  0  0
M  CHG  2   3  -1   4  -1
M  END
