1,2,42,50
q = -2.0, confidence = 0.88

 79 88  0  0  0  0  0  0  0  0999 V2000
   -1.4292   -1.3893   -0.5033 O   0  5  0  0  0  0  0  0  0  0  0  0
    1.4292   -1.3894   -0.5034 O   0  5  0  0  0  0  0  0  0  0  0  0
   -2.7261    1.2043   -1.1240 N   0  0  0  0  0  0  0  0  0  0  0  0
   -1.2082    2.4796   -2.0522 N   0  0  0  0  0  0  0  0  0  0  0  0
    1.2082    2.4796   -2.0522 N   0  0  0  0  0  0  0  0  0  0  0  0
    2.7261    1.2043   -1.1240 N   0  0  0  0  0  0  0  0  0  0  0  0
   -6.8100   -0.6207    0.8262 N   0  0  0  0  0  0  0  0  0  0  0  0
    6.8100   -0.6207    0.8262 N   0  0  0  0  0  0  0  0  0  0  0  0
   -7.2932    0.3548    1.7036 C   0  0  0  0  0  0  0  0  0  0  0  0
   -6.5850    1.3178    2.4427 C   0  0  0  0  0  0  0  0  0  0  0  0
   -5.4894    1.3858    2.3815 H   0  0  0  0  0  0  0  0  0  0  0  0
   -7.3234    2.1768    3.2682 C   0  0  0  0  0  0  0  0  0  0  0  0
   -6.7927    2.9380    3.8603 H   0  0  0  0  0  0  0  0  0  0  0  0
   -8.7309    2.0815    3.3613 C   0  0  0  0  0  0  0  0  0  0  0  0
   -9.2787    2.7728    4.0187 H   0  0  0  0  0  0  0  0  0  0  0  0
   -9.4310    1.1121    2.6318 C   0  0  0  0  0  0  0  0  0  0  0  0
  -10.5258    1.0323    2.7131 H   0  0  0  0  0  0  0  0  0  0  0  0
   -8.7163    0.2349    1.7948 C   0  0  0  0  0  0  0  0  0  0  0  0
   -9.0973   -0.8674    0.9323 C   0  0  0  0  0  0  0  0  0  0  0  0
  -10.3273   -1.4622    0.5936 C   0  0  0  0  0  0  0  0  0  0  0  0
  -11.2642   -1.0890    1.0346 H   0  0  0  0  0  0  0  0  0  0  0  0
  -10.3412   -2.5302   -0.3122 C   0  0  0  0  0  0  0  0  0  0  0  0
  -11.2958   -3.0050   -0.5833 H   0  0  0  0  0  0  0  0  0  0  0  0
   -9.1397   -3.0043   -0.8872 C   0  0  0  0  0  0  0  0  0  0  0  0
   -9.1755   -3.8402   -1.6023 H   0  0  0  0  0  0  0  0  0  0  0  0
   -7.9004   -2.4325   -0.5688 C   0  0  0  0  0  0  0  0  0  0  0  0
   -6.9683   -2.7995   -1.0213 H   0  0  0  0  0  0  0  0  0  0  0  0
   -7.8909   -1.3690    0.3494 C   0  0  0  0  0  0  0  0  0  0  0  0
   -5.4498   -0.8074    0.4611 C   0  0  0  0  0  0  0  0  0  0  0  0
   -4.7363    0.2413   -0.1306 C   0  0  0  0  0  0  0  0  0  0  0  0
   -5.2741    1.1811   -0.3072 H   0  0  0  0  0  0  0  0  0  0  0  0
   -3.3815    0.1030   -0.4868 C   0  0  0  0  0  0  0  0  0  0  0  0
   -2.6872   -1.1381   -0.2504 C   0  0  0  0  0  0  0  0  0  0  0  0
   -3.4640   -2.1908    0.3274 C   0  0  0  0  0  0  0  0  0  0  0  0
   -2.9316   -3.1365    0.5023 H   0  0  0  0  0  0  0  0  0  0  0  0
   -4.7965   -2.0390    0.6868 C   0  0  0  0  0  0  0  0  0  0  0  0
   -5.3465   -2.8657    1.1595 H   0  0  0  0  0  0  0  0  0  0  0  0
   -3.3513    2.3911   -1.5245 C   0  0  0  0  0  0  0  0  0  0  0  0
   -4.4136    2.5838   -1.3693 H   0  0  0  0  0  0  0  0  0  0  0  0
   -2.4032    3.1855   -2.1061 C   0  0  0  0  0  0  0  0  0  0  0  0
   -2.4857    4.1814   -2.5514 H   0  0  0  0  0  0  0  0  0  0  0  0
   -1.3927    1.2524   -1.4554 C   0  0  0  0  0  2  0  0  0  0  0  0
   -0.0000    2.8170   -2.7823 C   0  0  0  0  0  0  0  0  0  0  0  0
   -0.0000    3.9046   -2.9839 H   0  0  0  0  0  0  0  0  0  0  0  0
   -0.0000    2.2718   -3.7537 H   0  0  0  0  0  0  0  0  0  0  0  0
    2.4032    3.1855   -2.1062 C   0  0  0  0  0  0  0  0  0  0  0  0
    2.4857    4.1814   -2.5515 H   0  0  0  0  0  0  0  0  0  0  0  0
    3.3513    2.3911   -1.5246 C   0  0  0  0  0  0  0  0  0  0  0  0
    4.4136    2.5837   -1.3695 H   0  0  0  0  0  0  0  0  0  0  0  0
    1.3927    1.2524   -1.4554 C   0  0  0  0  0  2  0  0  0  0  0  0
    3.3815    0.1030   -0.4869 C   0  0  0  0  0  0  0  0  0  0  0  0
    4.7363    0.2413   -0.1306 C   0  0  0  0  0  0  0  0  0  0  0  0
    5.2741    1.1811   -0.3072 H   0  0  0  0  0  0  0  0  0  0  0  0
    5.4498   -0.8074    0.4611 C   0  0  0  0  0  0  0  0  0  0  0  0
    4.7966   -2.0390    0.6867 C   0  0  0  0  0  0  0  0  0  0  0  0
    5.3465   -2.8657    1.1594 H   0  0  0  0  0  0  0  0  0  0  0  0
    3.4641   -2.1908    0.3273 C   0  0  0  0  0  0  0  0  0  0  0  0
    2.9317   -3.1366    0.5021 H   0  0  0  0  0  0  0  0  0  0  0  0
    2.6873   -1.1381   -0.2505 C   0  0  0  0  0  0  0  0  0  0  0  0
    7.9004   -2.4324   -0.5689 C   0  0  0  0  0  0  0  0  0  0  0  0
    6.9683   -2.7994   -1.0214 H   0  0  0  0  0  0  0  0  0  0  0  0
    9.1398   -3.0042   -0.8873 C   0  0  0  0  0  0  0  0  0  0  0  0
    9.1757   -3.8400   -1.6025 H   0  0  0  0  0  0  0  0  0  0  0  0
   10.3412   -2.5300   -0.3122 C   0  0  0  0  0  0  0  0  0  0  0  0
   11.2959   -3.0049   -0.5834 H   0  0  0  0  0  0  0  0  0  0  0  0
   10.3273   -1.4621    0.5937 C   0  0  0  0  0  0  0  0  0  0  0  0
   11.2642   -1.0890    1.0347 H   0  0  0  0  0  0  0  0  0  0  0  0
    9.0973   -0.8673    0.9323 C   0  0  0  0  0  0  0  0  0  0  0  0
    7.8909   -1.3689    0.3494 C   0  0  0  0  0  0  0  0  0  0  0  0
    8.7163    0.2349    1.7948 C   0  0  0  0  0  0  0  0  0  0  0  0
    9.4310    1.1121    2.6320 C   0  0  0  0  0  0  0  0  0  0  0  0
   10.5258    1.0322    2.7133 H   0  0  0  0  0  0  0  0  0  0  0  0
    8.7308    2.0814    3.3614 C   0  0  0  0  0  0  0  0  0  0  0  0
    9.2786    2.7727    4.0190 H   0  0  0  0  0  0  0  0  0  0  0  0
    7.3233    2.1767    3.2684 C   0  0  0  0  0  0  0  0  0  0  0  0
    6.7926    2.9378    3.8605 H   0  0  0  0  0  0  0  0  0  0  0  0
    6.5849    1.3178    2.4428 C   0  0  0  0  0  0  0  0  0  0  0  0
    5.4893    1.3857    2.3815 H   0  0  0  0  0  0  0  0  0  0  0  0
    7.2932    0.3548    1.7036 C   0  0  0  0  0  0  0  0  0  0  0  0
  1 33  1  0  0  0  0
  2 59  1  0  0  0  0
  3 32  1  0  0  0  0
  4 42  1  0  0  0  0
  5 50  1  0  0  0  0
  6 51  1  0  0  0  0
  7  9  1  0  0  0  0
  8 79  1  0  0  0  0
  9 18  2  0  0  0  0
  9 10  1  0  0  0  0
 10 12  2  0  0  0  0
 11 10  1  0  0  0  0
 12 14  1  0  0  0  0
 12 13  1  0  0  0  0
 14 15  1  0  0  0  0
 16 17  1  0  0  0  0
 16 14  2  0  0  0  0
 18 16  1  0  0  0  0
 19 18  1  0  0  0  0
 20 19  1  0  0  0  0
 20 21  1  0  0  0  0
 22 20  2  0  0  0  0
 23 22  1  0  0  0  0
 24 26  2  0  0  0  0
 24 22  1  0  0  0  0
 25 24  1  0  0  0  0
 26 28  1  0  0  0  0
 27 26  1  0  0  0  0
 28  7  1  0  0  0  0
 28 19  2  0  0  0  0
 29 36  1  0  0  0  0
 29  7  1  0  0  0  0
 30 29  2  0  0  0  0
 31 30  1  0  0  0  0
 32 33  2  0  0  0  0
 32 30  1  0  0  0  0
 33 34  1  0  0  0  0
 34 35  1  0  0  0  0
 34 36  2  0  0  0  0
 36 37  1  0  0  0  0
 38 39  1  0  0  0  0
 38  3  1  0  0  0  0
 40  4  1  0  0  0  0
 40 38  2  0  0  0  0
 41 40  1  0  0  0  0
 42  3  1  0  0  0  0
 43  5  1  0  0  0  0
 43  4  1  0  0  0  0
 44 43  1  0  0  0  0
 45 43  1  0  0  0  0
 46  5  1  0  0  0  0
 46 48  2  0  0  0  0
 47 46  1  0  0  0  0
 48 49  1  0  0  0  0
 48  6  1  0  0  0  0
 50  6  1  0  0  0  0
 51 59  2  0  0  0  0
 51 52  1  0  0  0  0
 52 54  2  0  0  0  0
 53 52  1  0  0  0  0
 54 55  1  0  0  0  0
 54  8  1  0  0  0  0
 55 56  1  0  0  0  0
 57 58  1  0  0  0  0
 57 55  2  0  0  0  0
 59 57  1  0  0  0  0
 60 69  1  0  0  0  0
 61 60  1  0  0  0  0
 62 60  2  0  0  0  0
 62 64  1  0  0  0  0
 63 62  1  0  0  0  0
 64 66  2  0  0  0  0
 65 64  1  0  0  0  0
 66 68  1  0  0  0  0
 66 67  1  0  0  0  0
 68 70  1  0  0  0  0
 69  8  1  0  0  0  0
 69 68  2  0  0  0  0
 70 71  1  0  0  0  0
 71 72  1  0  0  0  0
 71 73  2  0  0  0  0
 73 74  1  0  0  0  0
 75 73  1  0  0  0  0
 75 76  1  0  0  0  0
 77 75  2  0  0  0  0
 78 77  1  0  0  0  0
 79 70  2  0  0  0  0
 79 77  1  0  0  0  0
M  CHG  2   1  -1   2  -1
M  END
