1,2,3,4
 OpenBabel05122313063D

 34 36  0  0  1  0  0  0  0  0999 V2000
   -0.4056    0.7258    2.0794 S   0  0  0  0  0  1  0  0  0  0  0  0
   -0.6940   -2.2905    0.3094 S   0  0  0  0  0  1  0  0  0  0  0  0
   -0.4102    2.2406   -0.9916 S   0  0  0  0  0  1  0  0  0  0  0  0
   -2.3245    0.0396   -0.1429 B   0  0  0  0  0  0  0  0  0  0  0  0
   -2.8582   -0.0951    1.3754 N   0  0  0  0  0  0  0  0  0  0  0  0
   -2.8890   -1.2638   -0.8532 N   0  0  0  0  0  0  0  0  0  0  0  0
   -2.9659    1.3873   -0.6971 N   0  0  0  0  0  0  0  0  0  0  0  0
   -2.0445    0.3674    2.3935 C   0  0  1  0  0  3  0  0  0  0  0  0
   -2.5923    0.4708    3.7089 C   0  0  0  0  0  0  0  0  0  0  0  0
   -1.9424    0.8776    4.4958 H   0  0  0  0  0  0  0  0  0  0  0  0
   -3.8728    0.0234    3.9817 C   0  0  0  0  0  0  0  0  0  0  0  0
   -4.2758    0.0852    5.0040 H   0  0  0  0  0  0  0  0  0  0  0  0
   -4.6459   -0.5477    2.9374 C   0  0  0  0  0  0  0  0  0  0  0  0
   -5.6462   -0.9637    3.1159 H   0  0  0  0  0  0  0  0  0  0  0  0
   -4.1012   -0.5797    1.6667 C   0  0  0  0  0  0  0  0  0  0  0  0
   -4.6493   -1.0275    0.8250 H   0  0  0  0  0  0  0  0  0  0  0  0
   -2.2393   -2.4234   -0.4411 C   0  0  1  0  0  3  0  0  0  0  0  0
   -2.8407   -3.6754   -0.7404 C   0  0  0  0  0  0  0  0  0  0  0  0
   -2.3530   -4.5813   -0.3541 H   0  0  0  0  0  0  0  0  0  0  0  0
   -3.9465   -3.7429   -1.5778 C   0  0  0  0  0  0  0  0  0  0  0  0
   -4.3745   -4.7197   -1.8491 H   0  0  0  0  0  0  0  0  0  0  0  0
   -4.4862   -2.5497   -2.1182 C   0  0  0  0  0  0  0  0  0  0  0  0
   -5.3170   -2.5622   -2.8357 H   0  0  0  0  0  0  0  0  0  0  0  0
   -3.9418   -1.3395   -1.7132 C   0  0  0  0  0  0  0  0  0  0  0  0
   -4.3356   -0.3804   -2.0762 H   0  0  0  0  0  0  0  0  0  0  0  0
   -2.1095    2.4024   -1.1063 C   0  0  1  0  0  3  0  0  0  0  0  0
   -2.6783    3.6220   -1.5929 C   0  0  0  0  0  0  0  0  0  0  0  0
   -1.9791    4.3948   -1.9418 H   0  0  0  0  0  0  0  0  0  0  0  0
   -4.0442    3.8229   -1.5989 C   0  0  0  0  0  0  0  0  0  0  0  0
   -4.4663    4.7695   -1.9685 H   0  0  0  0  0  0  0  0  0  0  0  0
   -4.8963    2.7978   -1.1011 C   0  0  0  0  0  0  0  0  0  0  0  0
   -5.9861    2.9217   -1.0510 H   0  0  0  0  0  0  0  0  0  0  0  0
   -4.3171    1.6241   -0.6654 C   0  0  0  0  0  0  0  0  0  0  0  0
   -4.9345    0.8169   -0.2511 H   0  0  0  0  0  0  0  0  0  0  0  0
  4  5  1  0  0  0  0
  5 15  1  0  0  0  0
  5  8  1  0  0  0  0
  6 17  1  0  0  0  0
  6  4  1  0  0  0  0
  7 33  1  0  0  0  0
  7  4  1  0  0  0  0
  8  1  1  1  0  0  0
  8  9  1  0  0  0  0
  9 11  2  0  0  0  0
  9 10  1  0  0  0  0
 11 12  1  0  0  0  0
 13 14  1  0  0  0  0
 13 11  1  0  0  0  0
 15 13  2  0  0  0  0
 16 15  1  0  0  0  0
 17  2  1  6  0  0  0
 18 17  1  0  0  0  0
 18 19  1  0  0  0  0
 20 18  2  0  0  0  0
 21 20  1  0  0  0  0
 22 24  2  0  0  0  0
 22 20  1  0  0  0  0
 23 22  1  0  0  0  0
 24  6  1  0  0  0  0
 25 24  1  0  0  0  0
 26  3  1  1  0  0  0
 26  7  1  0  0  0  0
 27 26  1  0  0  0  0
 28 27  1  0  0  0  0
 29 27  2  0  0  0  0
 29 31  1  0  0  0  0
 30 29  1  0  0  0  0
 31 32  1  0  0  0  0
 31 33  2  0  0  0  0
 33 34  1  0  0  0  0
M  END
