1,2,3,4
 OpenBabel05122313063D

 64 66  0  0  1  0  0  0  0  0999 V2000
   -0.0105   -0.4118   -0.5494 B   0  0  0  0  0  0  0  0  0  0  0  0
   -0.0336    1.8189    1.6036 S   0  0  0  0  0  1  0  0  0  0  0  0
    2.2796   -0.5291    1.3254 S   0  0  0  0  0  1  0  0  0  0  0  0
   -2.3117   -0.5661    1.3442 S   0  0  0  0  0  1  0  0  0  0  0  0
    0.0266    2.1114   -0.0825 C   0  0  2  0  0  3  0  0  0  0  0  0
    0.0424    1.0986   -0.9914 N   0  0  0  0  0  0  0  0  0  0  0  0
    0.0726    3.3038   -0.7796 N   0  0  0  0  0  0  0  0  0  0  0  0
    0.1194    3.0072   -2.1442 C   0  0  0  0  0  0  0  0  0  0  0  0
    0.1635    3.7813   -2.9119 H   0  0  0  0  0  0  0  0  0  0  0  0
    0.1006    1.6430   -2.2649 C   0  0  0  0  0  0  0  0  0  0  0  0
    0.1294    1.0226   -3.1646 H   0  0  0  0  0  0  0  0  0  0  0  0
    0.0816    4.6705   -0.1724 C   0  0  0  0  0  0  0  0  0  0  0  0
    0.1354    5.7251   -1.2862 C   0  0  0  0  0  0  0  0  0  0  0  0
   -0.7479    5.6715   -1.9535 H   0  0  0  0  0  0  0  0  0  0  0  0
    1.0564    5.6397   -1.8966 H   0  0  0  0  0  0  0  0  0  0  0  0
    0.1385    6.7276   -0.8172 H   0  0  0  0  0  0  0  0  0  0  0  0
    1.3318    4.8038    0.7158 C   0  0  0  0  0  0  0  0  0  0  0  0
    1.3435    4.0220    1.5001 H   0  0  0  0  0  0  0  0  0  0  0  0
    1.3418    5.7983    1.2037 H   0  0  0  0  0  0  0  0  0  0  0  0
    2.2518    4.7016    0.1059 H   0  0  0  0  0  0  0  0  0  0  0  0
   -1.2132    4.8547    0.6395 C   0  0  0  0  0  0  0  0  0  0  0  0
   -1.3035    4.0757    1.4214 H   0  0  0  0  0  0  0  0  0  0  0  0
   -2.0985    4.7889   -0.0244 H   0  0  0  0  0  0  0  0  0  0  0  0
   -1.2124    5.8495    1.1269 H   0  0  0  0  0  0  0  0  0  0  0  0
    2.3873   -1.0227   -0.3210 C   0  0  1  0  0  3  0  0  0  0  0  0
    1.2862   -1.0753   -1.1255 N   0  0  0  0  0  0  0  0  0  0  0  0
    1.6865   -1.4939   -2.3848 C   0  0  0  0  0  0  0  0  0  0  0  0
    0.9891   -1.6376   -3.2128 H   0  0  0  0  0  0  0  0  0  0  0  0
    3.4804   -1.4134   -1.0644 N   0  0  0  0  0  0  0  0  0  0  0  0
    3.0394   -1.7116   -2.3551 C   0  0  0  0  0  0  0  0  0  0  0  0
    3.7100   -2.0731   -3.1360 H   0  0  0  0  0  0  0  0  0  0  0  0
    4.8837   -1.5323   -0.5590 C   0  0  0  0  0  0  0  0  0  0  0  0
    4.9086   -2.5724    0.5752 C   0  0  0  0  0  0  0  0  0  0  0  0
    4.2200   -2.2812    1.3922 H   0  0  0  0  0  0  0  0  0  0  0  0
    5.9339   -2.6542    0.9863 H   0  0  0  0  0  0  0  0  0  0  0  0
    4.6005   -3.5669    0.1955 H   0  0  0  0  0  0  0  0  0  0  0  0
    5.3442   -0.1476   -0.0696 C   0  0  0  0  0  0  0  0  0  0  0  0
    5.3425    0.5799   -0.9059 H   0  0  0  0  0  0  0  0  0  0  0  0
    6.3733   -0.2162    0.3344 H   0  0  0  0  0  0  0  0  0  0  0  0
    4.6779    0.2351    0.7279 H   0  0  0  0  0  0  0  0  0  0  0  0
    5.7997   -1.9970   -1.6992 C   0  0  0  0  0  0  0  0  0  0  0  0
    5.8107   -1.2791   -2.5435 H   0  0  0  0  0  0  0  0  0  0  0  0
    5.5170   -2.9990   -2.0784 H   0  0  0  0  0  0  0  0  0  0  0  0
    6.8328   -2.0690   -1.3089 H   0  0  0  0  0  0  0  0  0  0  0  0
   -2.4287   -0.9791   -0.3225 C   0  0  2  0  0  3  0  0  0  0  0  0
   -1.3341   -1.0015   -1.1379 N   0  0  0  0  0  0  0  0  0  0  0  0
   -1.7530   -1.3302   -2.4187 C   0  0  0  0  0  0  0  0  0  0  0  0
   -1.0683   -1.4112   -3.2655 H   0  0  0  0  0  0  0  0  0  0  0  0
   -3.5331   -1.3117   -1.0785 N   0  0  0  0  0  0  0  0  0  0  0  0
   -3.1077   -1.5315   -2.3899 C   0  0  0  0  0  0  0  0  0  0  0  0
   -3.7908   -1.8278   -3.1873 H   0  0  0  0  0  0  0  0  0  0  0  0
   -4.9354   -1.4364   -0.5712 C   0  0  0  0  0  0  0  0  0  0  0  0
   -4.9687   -2.5303    0.5110 C   0  0  0  0  0  0  0  0  0  0  0  0
   -4.2706   -2.2902    1.3366 H   0  0  0  0  0  0  0  0  0  0  0  0
   -4.6785   -3.5096    0.0809 H   0  0  0  0  0  0  0  0  0  0  0  0
   -5.9924   -2.6167    0.9251 H   0  0  0  0  0  0  0  0  0  0  0  0
   -5.8633   -1.8341   -1.7270 C   0  0  0  0  0  0  0  0  0  0  0  0
   -5.8749   -1.0734   -2.5329 H   0  0  0  0  0  0  0  0  0  0  0  0
   -6.8941   -1.9178   -1.3330 H   0  0  0  0  0  0  0  0  0  0  0  0
   -5.5915   -2.8174   -2.1596 H   0  0  0  0  0  0  0  0  0  0  0  0
   -5.3758   -0.0713   -0.0128 C   0  0  0  0  0  0  0  0  0  0  0  0
   -5.3694    0.6956   -0.8132 H   0  0  0  0  0  0  0  0  0  0  0  0
   -4.7001    0.2645    0.7979 H   0  0  0  0  0  0  0  0  0  0  0  0
   -6.4034   -0.1465    0.3936 H   0  0  0  0  0  0  0  0  0  0  0  0
  5  2  1  1  0  0  0
  6  1  1  0  0  0  0
  6  5  1  0  0  0  0
  7 12  1  0  0  0  0
  7  5  1  0  0  0  0
  8  7  1  0  0  0  0
  9  8  1  0  0  0  0
 10  8  2  0  0  0  0
 10  6  1  0  0  0  0
 11 10  1  0  0  0  0
 12 21  1  0  0  0  0
 12 17  1  0  0  0  0
 13 16  1  0  0  0  0
 13 12  1  0  0  0  0
 14 13  1  0  0  0  0
 15 13  1  0  0  0  0
 17 19  1  0  0  0  0
 17 18  1  0  0  0  0
 20 17  1  0  0  0  0
 21 24  1  0  0  0  0
 21 22  1  0  0  0  0
 23 21  1  0  0  0  0
 25  3  1  6  0  0  0
 26  1  1  0  0  0  0
 26 25  1  0  0  0  0
 27 30  2  0  0  0  0
 27 26  1  0  0  0  0
 28 27  1  0  0  0  0
 29 32  1  0  0  0  0
 29 25  1  0  0  0  0
 30 29  1  0  0  0  0
 31 30  1  0  0  0  0
 32 37  1  0  0  0  0
 32 33  1  0  0  0  0
 33 35  1  0  0  0  0
 33 34  1  0  0  0  0
 36 33  1  0  0  0  0
 37 39  1  0  0  0  0
 37 40  1  0  0  0  0
 38 37  1  0  0  0  0
 41 44  1  0  0  0  0
 41 32  1  0  0  0  0
 42 41  1  0  0  0  0
 43 41  1  0  0  0  0
 45  4  1  6  0  0  0
 46  1  1  0  0  0  0
 46 45  1  0  0  0  0
 47 50  2  0  0  0  0
 47 46  1  0  0  0  0
 48 47  1  0  0  0  0
 49 52  1  0  0  0  0
 49 45  1  0  0  0  0
 50 49  1  0  0  0  0
 51 50  1  0  0  0  0
 52 61  1  0  0  0  0
 52 53  1  0  0  0  0
 53 56  1  0  0  0  0
 53 54  1  0  0  0  0
 55 53  1  0  0  0  0
 57 59  1  0  0  0  0
 57 52  1  0  0  0  0
 58 57  1  0  0  0  0
 60 57  1  0  0  0  0
 61 64  1  0  0  0  0
 61 63  1  0  0  0  0
 62 61  1  0  0  0  0
M  END
