1,2,24,46
 OpenBabel05122313063D

 67 69  0  0  0  0  0  0  0  0999 V2000
   -1.0306    0.0419   -0.1650 B   0  0  0  0  0  0  0  0  0  0  0  0
   -3.0080   -1.2515   -1.9761 S   0  0  0  0  0  1  0  0  0  0  0  0
    0.8719   -0.6923   -1.5659 N   0  0  0  0  0  2  0  0  0  0  0  0
   -0.4552   -0.7453   -1.3719 N   0  0  0  0  0  0  0  0  0  0  0  0
   -1.3345   -1.3844   -2.2244 C   0  0  0  0  0  0  0  0  0  0  0  0
   -0.7585   -2.1362   -3.2948 C   0  0  0  0  0  0  0  0  0  0  0  0
   -1.4319   -2.6947   -3.9603 H   0  0  0  0  0  0  0  0  0  0  0  0
    0.6044   -2.1252   -3.4696 C   0  0  0  0  0  0  0  0  0  0  0  0
    1.0666   -2.6923   -4.2903 H   0  0  0  0  0  0  0  0  0  0  0  0
    1.4156   -1.3425   -2.5771 C   0  0  0  0  0  0  0  0  0  0  0  0
    2.9293   -1.2227   -2.7704 C   0  0  0  0  0  0  0  0  0  0  0  0
    3.5395   -0.3115   -1.6945 C   0  0  0  0  0  0  0  0  0  0  0  0
    3.0873    0.6980   -1.7243 H   0  0  0  0  0  0  0  0  0  0  0  0
    4.6328   -0.2208   -1.8540 H   0  0  0  0  0  0  0  0  0  0  0  0
    3.3587   -0.7115   -0.6788 H   0  0  0  0  0  0  0  0  0  0  0  0
    3.2070   -0.6185   -4.1656 C   0  0  0  0  0  0  0  0  0  0  0  0
    2.8007   -1.2487   -4.9825 H   0  0  0  0  0  0  0  0  0  0  0  0
    4.3001   -0.5245   -4.3294 H   0  0  0  0  0  0  0  0  0  0  0  0
    2.7577    0.3909   -4.2574 H   0  0  0  0  0  0  0  0  0  0  0  0
    3.5646   -2.6283   -2.6759 C   0  0  0  0  0  0  0  0  0  0  0  0
    3.3771   -3.0830   -1.6828 H   0  0  0  0  0  0  0  0  0  0  0  0
    4.6620   -2.5607   -2.8223 H   0  0  0  0  0  0  0  0  0  0  0  0
    3.1678   -3.3181   -3.4481 H   0  0  0  0  0  0  0  0  0  0  0  0
   -2.9405    1.9032   -1.2038 S   0  0  0  0  0  1  0  0  0  0  0  0
    0.6863    1.8251    0.2392 N   0  0  0  0  0  2  0  0  0  0  0  0
   -0.5197    1.5323   -0.2484 N   0  0  0  0  0  0  0  0  0  0  0  0
   -1.3594    2.4398   -0.8492 C   0  0  0  0  0  0  0  0  0  0  0  0
   -0.8380    3.7426   -1.0867 C   0  0  0  0  0  0  0  0  0  0  0  0
   -1.4651    4.4802   -1.6073 H   0  0  0  0  0  0  0  0  0  0  0  0
    0.4214    4.0490   -0.6151 C   0  0  0  0  0  0  0  0  0  0  0  0
    0.8420    5.0538   -0.7649 H   0  0  0  0  0  0  0  0  0  0  0  0
    1.1657    3.0506    0.0984 C   0  0  0  0  0  0  0  0  0  0  0  0
    2.5303    3.3481    0.7245 C   0  0  0  0  0  0  0  0  0  0  0  0
    3.0540    2.1174    1.4839 C   0  0  0  0  0  0  0  0  0  0  0  0
    2.3593    1.8198    2.2933 H   0  0  0  0  0  0  0  0  0  0  0  0
    4.0418    2.3479    1.9315 H   0  0  0  0  0  0  0  0  0  0  0  0
    3.1586    1.2449    0.8126 H   0  0  0  0  0  0  0  0  0  0  0  0
    2.3827    4.5297    1.7093 C   0  0  0  0  0  0  0  0  0  0  0  0
    2.0342    5.4540    1.2056 H   0  0  0  0  0  0  0  0  0  0  0  0
    3.3609    4.7562    2.1804 H   0  0  0  0  0  0  0  0  0  0  0  0
    1.6611    4.2869    2.5152 H   0  0  0  0  0  0  0  0  0  0  0  0
    3.5260    3.7255   -0.3954 C   0  0  0  0  0  0  0  0  0  0  0  0
    3.6552    2.8878   -1.1097 H   0  0  0  0  0  0  0  0  0  0  0  0
    4.5189    3.9612    0.0394 H   0  0  0  0  0  0  0  0  0  0  0  0
    3.1917    4.6151   -0.9670 H   0  0  0  0  0  0  0  0  0  0  0  0
   -2.6679    0.9646    1.9150 S   0  0  0  0  0  1  0  0  0  0  0  0
    0.4482   -1.3268    1.3348 N   0  0  0  0  0  2  0  0  0  0  0  0
   -0.5709   -0.4842    1.2183 N   0  0  0  0  0  0  0  0  0  0  0  0
   -1.2460    0.0866    2.2779 C   0  0  0  0  0  0  0  0  0  0  0  0
   -0.6899   -0.1115    3.5689 C   0  0  0  0  0  0  0  0  0  0  0  0
   -1.1639    0.3768    4.4318 H   0  0  0  0  0  0  0  0  0  0  0  0
    0.3936   -0.9573    3.7019 C   0  0  0  0  0  0  0  0  0  0  0  0
    0.8308   -1.1486    4.6925 H   0  0  0  0  0  0  0  0  0  0  0  0
    0.9264   -1.6014    2.5412 C   0  0  0  0  0  0  0  0  0  0  0  0
    2.1011   -2.5786    2.6239 C   0  0  0  0  0  0  0  0  0  0  0  0
    2.3512   -3.2327    1.2555 C   0  0  0  0  0  0  0  0  0  0  0  0
    1.4623   -3.7973    0.9131 H   0  0  0  0  0  0  0  0  0  0  0  0
    3.2104   -3.9301    1.3243 H   0  0  0  0  0  0  0  0  0  0  0  0
    2.5653   -2.4706    0.4835 H   0  0  0  0  0  0  0  0  0  0  0  0
    1.7941   -3.6756    3.6658 C   0  0  0  0  0  0  0  0  0  0  0  0
    1.6491   -3.2607    4.6836 H   0  0  0  0  0  0  0  0  0  0  0  0
    2.6375   -4.3939    3.7192 H   0  0  0  0  0  0  0  0  0  0  0  0
    0.8796   -4.2393    3.3926 H   0  0  0  0  0  0  0  0  0  0  0  0
    3.3584   -1.7853    3.0503 C   0  0  0  0  0  0  0  0  0  0  0  0
    3.5934   -0.9925    2.3115 H   0  0  0  0  0  0  0  0  0  0  0  0
    4.2338   -2.4630    3.1232 H   0  0  0  0  0  0  0  0  0  0  0  0
    3.2251   -1.3002    4.0388 H   0  0  0  0  0  0  0  0  0  0  0  0
  1 48  1  0  0  0  0
  3  4  1  0  0  0  0
  4  1  1  0  0  0  0
  5  2  1  0  0  0  0
  5  4  1  0  0  0  0
  6  5  2  0  0  0  0
  7  6  1  0  0  0  0
  8  6  1  0  0  0  0
  8 10  2  0  0  0  0
  9  8  1  0  0  0  0
 10  3  1  0  0  0  0
 11 20  1  0  0  0  0
 11 10  1  0  0  0  0
 11 12  1  0  0  0  0
 12 15  1  0  0  0  0
 13 12  1  0  0  0  0
 14 12  1  0  0  0  0
 16 11  1  0  0  0  0
 17 16  1  0  0  0  0
 18 16  1  0  0  0  0
 19 16  1  0  0  0  0
 20 21  1  0  0  0  0
 22 20  1  0  0  0  0
 23 20  1  0  0  0  0
 24 27  1  0  0  0  0
 26  1  1  0  0  0  0
 26 25  1  0  0  0  0
 27 26  1  0  0  0  0
 28 27  2  0  0  0  0
 28 30  1  0  0  0  0
 29 28  1  0  0  0  0
 30 32  2  0  0  0  0
 31 30  1  0  0  0  0
 32 25  1  0  0  0  0
 32 33  1  0  0  0  0
 33 34  1  0  0  0  0
 33 38  1  0  0  0  0
 34 36  1  0  0  0  0
 34 35  1  0  0  0  0
 37 34  1  0  0  0  0
 38 40  1  0  0  0  0
 38 41  1  0  0  0  0
 39 38  1  0  0  0  0
 42 44  1  0  0  0  0
 42 33  1  0  0  0  0
 43 42  1  0  0  0  0
 45 42  1  0  0  0  0
 46 49  1  0  0  0  0
 47 54  1  0  0  0  0
 48 47  1  0  0  0  0
 48 49  1  0  0  0  0
 49 50  2  0  0  0  0
 50 52  1  0  0  0  0
 50 51  1  0  0  0  0
 52 53  1  0  0  0  0
 54 55  1  0  0  0  0
 54 52  2  0  0  0  0
 55 64  1  0  0  0  0
 55 60  1  0  0  0  0
 56 58  1  0  0  0  0
 56 55  1  0  0  0  0
 57 56  1  0  0  0  0
 59 56  1  0  0  0  0
 60 62  1  0  0  0  0
 60 61  1  0  0  0  0
 63 60  1  0  0  0  0
 64 66  1  0  0  0  0
 64 67  1  0  0  0  0
 65 64  1  0  0  0  0
M  END
