1,2,3,10
 OpenBabel05122313063D

 37 39  0  0  1  0  0  0  0  0999 V2000
   -0.3913    2.4011    1.0841 S   0  0  0  0  0  1  0  0  0  0  0  0
   -2.5258    0.1477    2.4923 S   0  0  0  0  0  1  0  0  0  0  0  0
   -0.7838   -2.3459    1.0069 S   0  0  0  0  0  1  0  0  0  0  0  0
   -1.5340    1.4228   -1.2116 N   0  0  0  0  0  0  0  0  0  0  0  0
   -1.1215    3.5902   -1.2926 N   0  0  0  0  0  0  0  0  0  0  0  0
   -3.1250   -0.2528   -0.1367 N   0  0  0  0  0  0  0  0  0  0  0  0
   -4.8829   -0.4565    1.1783 N   0  0  0  0  0  0  0  0  0  0  0  0
   -1.1542   -1.1618   -1.4103 N   0  0  0  0  0  0  0  0  0  0  0  0
   -0.6903   -3.3127   -1.6105 N   0  0  0  0  0  0  0  0  0  0  0  0
   -1.6451    0.0341   -0.5388 B   0  0  0  0  0  0  0  0  0  0  0  0
   -1.0194    2.4745   -0.5095 C   0  0  1  0  0  3  0  0  0  0  0  0
   -1.7332    3.2438   -2.4918 C   0  0  0  0  0  0  0  0  0  0  0  0
   -1.9292    3.9822   -3.2749 H   0  0  0  0  0  0  0  0  0  0  0  0
   -1.9977    1.8988   -2.4358 C   0  0  0  0  0  0  0  0  0  0  0  0
   -2.4946    1.2579   -3.1685 H   0  0  0  0  0  0  0  0  0  0  0  0
   -0.6328    4.9013   -0.9004 C   0  0  0  0  0  0  0  0  0  0  0  0
   -1.2328    5.3050   -0.0605 H   0  0  0  0  0  0  0  0  0  0  0  0
   -0.7005    5.5854   -1.7644 H   0  0  0  0  0  0  0  0  0  0  0  0
    0.4239    4.8177   -0.5784 H   0  0  0  0  0  0  0  0  0  0  0  0
   -3.5408   -0.1897    1.1584 C   0  0  1  0  0  3  0  0  0  0  0  0
   -5.3137   -0.6914   -0.1251 C   0  0  0  0  0  0  0  0  0  0  0  0
   -6.3565   -0.9307   -0.3540 H   0  0  0  0  0  0  0  0  0  0  0  0
   -4.2168   -0.5704   -0.9392 C   0  0  0  0  0  0  0  0  0  0  0  0
   -4.1295   -0.7030   -2.0213 H   0  0  0  0  0  0  0  0  0  0  0  0
   -5.6927   -0.4773    2.3842 C   0  0  0  0  0  0  0  0  0  0  0  0
   -5.1134   -0.9522    3.1999 H   0  0  0  0  0  0  0  0  0  0  0  0
   -6.6119   -1.0610    2.1979 H   0  0  0  0  0  0  0  0  0  0  0  0
   -5.9654    0.5508    2.6973 H   0  0  0  0  0  0  0  0  0  0  0  0
   -0.8716   -2.3015   -0.7104 C   0  0  2  0  0  3  0  0  0  0  0  0
   -0.8568   -2.8036   -2.8944 C   0  0  0  0  0  0  0  0  0  0  0  0
   -0.7349   -3.4304   -3.7827 H   0  0  0  0  0  0  0  0  0  0  0  0
   -1.1472   -1.4670   -2.7677 C   0  0  0  0  0  0  0  0  0  0  0  0
   -1.3226   -0.7167   -3.5431 H   0  0  0  0  0  0  0  0  0  0  0  0
   -0.3833   -4.6894   -1.2608 C   0  0  0  0  0  0  0  0  0  0  0  0
    0.0589   -4.6978   -0.2472 H   0  0  0  0  0  0  0  0  0  0  0  0
    0.3519   -5.0979   -1.9776 H   0  0  0  0  0  0  0  0  0  0  0  0
   -1.3007   -5.3116   -1.2644 H   0  0  0  0  0  0  0  0  0  0  0  0
  4 10  1  0  0  0  0
  4 11  1  0  0  0  0
  5 16  1  0  0  0  0
  5 11  1  0  0  0  0
  6 20  1  0  0  0  0
  7 25  1  0  0  0  0
  8 29  1  0  0  0  0
  8 10  1  0  0  0  0
  9 34  1  0  0  0  0
  9 29  1  0  0  0  0
 10  6  1  0  0  0  0
 11  1  1  1  0  0  0
 12 14  2  0  0  0  0
 12  5  1  0  0  0  0
 13 12  1  0  0  0  0
 14  4  1  0  0  0  0
 15 14  1  0  0  0  0
 16 19  1  0  0  0  0
 16 17  1  0  0  0  0
 18 16  1  0  0  0  0
 20  7  1  0  0  0  0
 20  2  1  1  0  0  0
 21  7  1  0  0  0  0
 22 21  1  0  0  0  0
 23  6  1  0  0  0  0
 23 21  2  0  0  0  0
 24 23  1  0  0  0  0
 25 28  1  0  0  0  0
 25 26  1  0  0  0  0
 27 25  1  0  0  0  0
 29  3  1  1  0  0  0
 30 32  2  0  0  0  0
 30  9  1  0  0  0  0
 31 30  1  0  0  0  0
 32  8  1  0  0  0  0
 33 32  1  0  0  0  0
 34 35  1  0  0  0  0
 36 34  1  0  0  0  0
 37 34  1  0  0  0  0
M  END
