1,2,3
q = -1.0

 20 20  0  0  0  0  0  0  0  0999 V2000
   -0.9298    1.7598    0.0168 S   0  0  0  0  0  0  0  0  0  0  0  0
   -0.9294   -1.7598    0.0172 S   0  0  0  0  0  0  0  0  0  0  0  0
    0.4621    0.0003    1.7487 O   0  0  0  0  0  1  0  0  0  0  0  0
   -1.5303    1.3130    1.6876 C   0  0  0  0  0  0  0  0  0  0  0  0
   -0.8677    0.0002    2.1625 C   0  0  0  0  0  0  0  0  0  0  0  0
   -1.5300   -1.3128    1.6879 C   0  0  0  0  0  0  0  0  0  0  0  0
   -2.2886   -1.3009   -1.1235 C   0  0  0  0  0  0  0  0  0  0  0  0
   -3.0445   -0.0003   -0.8814 C   0  0  0  0  0  0  0  0  0  0  0  0
   -2.2890    1.3004   -1.1238 C   0  0  0  0  0  0  0  0  0  0  0  0
   -2.6383    1.2947    1.7228 H   0  0  0  0  0  0  0  0  0  0  0  0
   -1.1845    2.1393    2.3384 H   0  0  0  0  0  0  0  0  0  0  0  0
   -0.9085    0.0003    3.2792 H   0  0  0  0  0  0  0  0  0  0  0  0
   -1.1841   -2.1390    2.3389 H   0  0  0  0  0  0  0  0  0  0  0  0
   -2.6380   -1.2947    1.7231 H   0  0  0  0  0  0  0  0  0  0  0  0
   -2.9932   -2.1565   -1.1277 H   0  0  0  0  0  0  0  0  0  0  0  0
   -1.7645   -1.2788   -2.1019 H   0  0  0  0  0  0  0  0  0  0  0  0
   -3.5080   -0.0003    0.1293 H   0  0  0  0  0  0  0  0  0  0  0  0
   -3.9074   -0.0006   -1.5835 H   0  0  0  0  0  0  0  0  0  0  0  0
   -1.7648    1.2782   -2.1023 H   0  0  0  0  0  0  0  0  0  0  0  0
   -2.9937    2.1559   -1.1280 H   0  0  0  0  0  0  0  0  0  0  0  0
  1  4  1  0  0  0  0
  2  6  1  0  0  0  0
  3  5  1  0  0  0  0
  4 10  1  0  0  0  0
  4  5  1  0  0  0  0
  4 11  1  0  0  0  0
  5 12  1  0  0  0  0
  6 14  1  0  0  0  0
  6  5  1  0  0  0  0
  6 13  1  0  0  0  0
  7  8  1  0  0  0  0
  7  2  1  0  0  0  0
  8 17  1  0  0  0  0
  9  8  1  0  0  0  0
  9  1  1  0  0  0  0
 15  7  1  0  0  0  0
 16  7  1  0  0  0  0
 18  8  1  0  0  0  0
 19  9  1  0  0  0  0
 20  9  1  0  0  0  0
M  END
