1,2,7,50
 OpenBabel05122313063D

 50 51  0  0  1  0  0  0  0  0999 V2000
    0.6171   -1.1365   -1.4142 O   0  5  0  0  0  0  0  0  0  0  0  0
   -1.4063    0.7397   -1.5767 O   0  5  0  0  0  0  0  0  0  0  0  0
   -3.4575    0.3711   -2.3756 O   0  0  0  0  0  0  0  0  0  0  0  0
    2.5179   -2.1323   -2.0272 O   0  0  0  0  0  0  0  0  0  0  0  0
    1.2304   -0.4544    1.2783 N   0  0  1  0  0  0  0  0  0  0  0  0
   -1.6272   -1.2448    0.2789 N   0  0  0  0  0  0  0  0  0  0  0  0
   -0.9745    1.4133    1.0273 N   0  0  2  0  0  0  0  0  0  0  0  0
    2.2480    1.3100   -0.9079 N   0  0  0  0  0  0  0  0  0  0  0  0
    1.8833   -1.1206   -1.7649 C   0  0  0  0  0  0  0  0  0  0  0  0
    2.5629    0.2717   -1.9000 C   0  0  0  0  0  0  0  0  0  0  0  0
    2.2656    0.6702   -2.8915 H   0  0  0  0  0  0  0  0  0  0  0  0
    3.6576    0.1204   -1.9164 H   0  0  0  0  0  0  0  0  0  0  0  0
   -2.5093    0.0150   -1.7006 C   0  0  0  0  0  0  0  0  0  0  0  0
   -0.9644    2.7472    0.3460 C   0  0  0  0  0  0  0  0  0  0  0  0
   -1.7548    2.7203   -0.4234 H   0  0  0  0  0  0  0  0  0  0  0  0
   -1.1882    3.5596    1.0693 H   0  0  0  0  0  0  0  0  0  0  0  0
    0.4062    2.8932   -0.3274 C   0  0  0  0  0  0  0  0  0  0  0  0
    1.1439    3.5258    0.2163 H   0  0  0  0  0  0  0  0  0  0  0  0
    0.2891    3.3948   -1.3171 H   0  0  0  0  0  0  0  0  0  0  0  0
    2.6749   -0.0801    1.0745 C   0  0  0  0  0  0  0  0  0  0  0  0
    3.1255   -0.8960    0.4777 H   0  0  0  0  0  0  0  0  0  0  0  0
    3.1881   -0.0944    2.0605 H   0  0  0  0  0  0  0  0  0  0  0  0
    1.2438   -1.9603    1.4203 C   0  0  0  0  0  0  0  0  0  0  0  0
    1.9566   -2.2052    2.2395 H   0  0  0  0  0  0  0  0  0  0  0  0
    1.6679   -2.3603    0.4796 H   0  0  0  0  0  0  0  0  0  0  0  0
   -1.1184   -2.6035    0.5969 C   0  0  0  0  0  0  0  0  0  0  0  0
   -1.9759   -3.2696    0.8446 H   0  0  0  0  0  0  0  0  0  0  0  0
   -0.6575   -2.9764   -0.3382 H   0  0  0  0  0  0  0  0  0  0  0  0
    0.6484    0.1683    2.5050 C   0  0  0  0  0  0  0  0  0  0  0  0
   -0.0458   -0.5593    2.9556 H   0  0  0  0  0  0  0  0  0  0  0  0
    1.4394    0.3455    3.2658 H   0  0  0  0  0  0  0  0  0  0  0  0
   -2.3502    0.9094    1.2993 C   0  0  0  0  0  0  0  0  0  0  0  0
   -2.7594    1.3644    2.2275 H   0  0  0  0  0  0  0  0  0  0  0  0
   -2.9902    1.2479    0.4633 H   0  0  0  0  0  0  0  0  0  0  0  0
   -0.0804    1.4735    2.2248 C   0  0  0  0  0  0  0  0  0  0  0  0
    0.6554    2.2780    2.0439 H   0  0  0  0  0  0  0  0  0  0  0  0
   -0.6634    1.7832    3.1191 H   0  0  0  0  0  0  0  0  0  0  0  0
    2.9929    1.2490    0.3633 C   0  0  0  0  0  0  0  0  0  0  0  0
    2.7343    2.1326    0.9781 H   0  0  0  0  0  0  0  0  0  0  0  0
    4.0836    1.2930    0.1685 H   0  0  0  0  0  0  0  0  0  0  0  0
   -0.0784   -2.6631    1.7059 C   0  0  0  0  0  0  0  0  0  0  0  0
    0.1829   -3.7342    1.8333 H   0  0  0  0  0  0  0  0  0  0  0  0
   -0.5028   -2.3785    2.6923 H   0  0  0  0  0  0  0  0  0  0  0  0
   -2.3708   -0.6162    1.4022 C   0  0  0  0  0  0  0  0  0  0  0  0
   -3.4259   -0.9690    1.4264 H   0  0  0  0  0  0  0  0  0  0  0  0
   -1.9140   -0.9454    2.3526 H   0  0  0  0  0  0  0  0  0  0  0  0
   -2.4584   -1.3162   -0.9506 C   0  0  0  0  0  0  0  0  0  0  0  0
   -3.4865   -1.6739   -0.7325 H   0  0  0  0  0  0  0  0  0  0  0  0
   -1.9788   -2.0391   -1.6406 H   0  0  0  0  0  0  0  0  0  0  0  0
    0.9323    1.5294   -0.6427 C   0  0  0  0  0  2  0  0  0  0  0  0
  3 13  2  0  0  0  0
  4  9  2  0  0  0  0
  5 20  1  1  0  0  0
  5 23  1  0  0  0  0
  5 29  1  0  0  0  0
  6 26  1  0  0  0  0
  6 44  1  0  0  0  0
  7 14  1  1  0  0  0
  7 32  1  0  0  0  0
  7 35  1  0  0  0  0
  8 50  1  0  0  0  0
  8 38  1  0  0  0  0
  9  1  1  0  0  0  0
 10  9  1  0  0  0  0
 10  8  1  0  0  0  0
 11 10  1  0  0  0  0
 12 10  1  0  0  0  0
 13  2  1  0  0  0  0
 13 47  1  0  0  0  0
 14 16  1  0  0  0  0
 15 14  1  0  0  0  0
 17 18  1  0  0  0  0
 17 14  1  0  0  0  0
 19 17  1  0  0  0  0
 20 22  1  0  0  0  0
 21 20  1  0  0  0  0
 23 41  1  0  0  0  0
 23 24  1  0  0  0  0
 25 23  1  0  0  0  0
 26 27  1  0  0  0  0
 26 41  1  0  0  0  0
 28 26  1  0  0  0  0
 29 30  1  0  0  0  0
 29 31  1  0  0  0  0
 32 44  1  0  0  0  0
 32 33  1  0  0  0  0
 34 32  1  0  0  0  0
 35 29  1  0  0  0  0
 35 37  1  0  0  0  0
 36 35  1  0  0  0  0
 38 39  1  0  0  0  0
 38 20  1  0  0  0  0
 40 38  1  0  0  0  0
 41 42  1  0  0  0  0
 41 43  1  0  0  0  0
 44 45  1  0  0  0  0
 44 46  1  0  0  0  0
 47 48  1  0  0  0  0
 47  6  1  0  0  0  0
 49 47  1  0  0  0  0
 50 17  1  0  0  0  0
M  CHG  2   1  -1   2  -1
M  END
