1,2,3,10,11
q = -2.0, confidence = 0.77

 49 48  0  0  0  0  0  0  0  0999 V2000
   -1.2111    2.1851   -0.1831 S   0  0  0  0  0  0  0  0  0  0  0  0
    1.1803   -1.0369    1.2477 S   0  0  0  0  0  5  0  0  0  0  0  0
   -0.7443   -0.7036   -1.5651 S   0  0  0  0  0  5  0  0  0  0  0  0
    3.9446    0.5301   -0.9924 O   0  0  0  0  0  0  0  0  0  0  0  0
    0.8960   -2.3977    1.8155 O   0  0  0  0  0  0  0  0  0  0  0  0
    1.2639    0.1445    2.2372 O   0  0  0  0  0  0  0  0  0  0  0  0
   -3.7261   -1.1623    0.9857 O   0  0  0  0  0  0  0  0  0  0  0  0
   -1.3298    0.3460   -2.4854 O   0  0  0  0  0  0  0  0  0  0  0  0
    0.1570   -1.7092   -2.2298 O   0  0  0  0  0  0  0  0  0  0  0  0
    1.6542    0.8097   -0.7135 N   0  0  0  0  0  2  0  0  0  0  0  0
   -1.6173   -0.2061    1.0689 N   0  0  0  0  0  2  0  0  0  0  0  0
   -0.2273    3.4999   -0.9983 C   0  0  0  0  0  0  0  0  0  0  0  0
    1.2789    3.2612   -1.0229 C   0  0  0  0  0  0  0  0  0  0  0  0
    1.6756    1.9158   -1.6553 C   0  0  0  0  0  0  0  0  0  0  0  0
   -1.1726    2.7030    1.5878 C   0  0  0  0  0  0  0  0  0  0  0  0
   -2.1894    1.8531    2.3560 C   0  0  0  0  0  0  0  0  0  0  0  0
   -1.8500    0.3529    2.3903 C   0  0  0  0  0  0  0  0  0  0  0  0
    2.8494    0.1933   -0.5033 C   0  0  0  0  0  0  0  0  0  0  0  0
    2.8209   -1.0726    0.3866 C   0  0  0  0  0  0  0  0  0  0  0  0
    3.9295   -1.0421    1.4329 C   0  0  0  0  0  0  0  0  0  0  0  0
    2.8615   -2.3217   -0.4981 C   0  0  0  0  0  0  0  0  0  0  0  0
   -2.5991   -0.9473    0.5021 C   0  0  0  0  0  0  0  0  0  0  0  0
   -2.1908   -1.6658   -0.8078 C   0  0  0  0  0  0  0  0  0  0  0  0
   -3.3326   -1.6957   -1.8136 C   0  0  0  0  0  0  0  0  0  0  0  0
   -1.6715   -3.0597   -0.4441 C   0  0  0  0  0  0  0  0  0  0  0  0
   -0.6288    3.5008   -2.0329 H   0  0  0  0  0  0  0  0  0  0  0  0
   -0.5072    4.4654   -0.5256 H   0  0  0  0  0  0  0  0  0  0  0  0
    1.7373    4.0942   -1.6022 H   0  0  0  0  0  0  0  0  0  0  0  0
    1.7056    3.3128    0.0016 H   0  0  0  0  0  0  0  0  0  0  0  0
    2.7101    1.9869   -2.0509 H   0  0  0  0  0  0  0  0  0  0  0  0
    0.9913    1.6885   -2.5053 H   0  0  0  0  0  0  0  0  0  0  0  0
   -0.1453    2.5708    1.9874 H   0  0  0  0  0  0  0  0  0  0  0  0
   -1.4425    3.7800    1.6197 H   0  0  0  0  0  0  0  0  0  0  0  0
   -2.2447    2.2375    3.3988 H   0  0  0  0  0  0  0  0  0  0  0  0
   -3.1940    1.9922    1.9006 H   0  0  0  0  0  0  0  0  0  0  0  0
   -2.6946   -0.1967    2.8572 H   0  0  0  0  0  0  0  0  0  0  0  0
   -0.9325    0.1999    2.9970 H   0  0  0  0  0  0  0  0  0  0  0  0
    3.7748   -0.2022    2.1381 H   0  0  0  0  0  0  0  0  0  0  0  0
    3.9585   -1.9921    2.0028 H   0  0  0  0  0  0  0  0  0  0  0  0
    4.8898   -0.8897    0.9005 H   0  0  0  0  0  0  0  0  0  0  0  0
    3.8108   -2.3108   -1.0713 H   0  0  0  0  0  0  0  0  0  0  0  0
    2.8133   -3.2354    0.1264 H   0  0  0  0  0  0  0  0  0  0  0  0
    2.0119   -2.3192   -1.2104 H   0  0  0  0  0  0  0  0  0  0  0  0
   -3.0803   -2.3312   -2.6857 H   0  0  0  0  0  0  0  0  0  0  0  0
   -4.2238   -2.1016   -1.2935 H   0  0  0  0  0  0  0  0  0  0  0  0
   -3.5617   -0.6745   -2.1734 H   0  0  0  0  0  0  0  0  0  0  0  0
   -0.8310   -3.0019    0.2757 H   0  0  0  0  0  0  0  0  0  0  0  0
   -2.5002   -3.6196    0.0366 H   0  0  0  0  0  0  0  0  0  0  0  0
   -1.3319   -3.5971   -1.3504 H   0  0  0  0  0  0  0  0  0  0  0  0
  1 15  1  0  0  0  0
  2  5  2  0  0  0  0
  2  6  2  0  0  0  0
  3 23  1  0  0  0  0
  4 18  2  0  0  0  0
  8  3  2  0  0  0  0
  9  3  2  0  0  0  0
 10 18  1  0  0  0  0
 11 17  1  0  0  0  0
 12 27  1  0  0  0  0
 12  1  1  0  0  0  0
 13 12  1  0  0  0  0
 13 29  1  0  0  0  0
 14 13  1  0  0  0  0
 14 10  1  0  0  0  0
 15 33  1  0  0  0  0
 15 32  1  0  0  0  0
 15 16  1  0  0  0  0
 16 17  1  0  0  0  0
 16 34  1  0  0  0  0
 17 36  1  0  0  0  0
 17 37  1  0  0  0  0
 18 19  1  0  0  0  0
 19  2  1  0  0  0  0
 19 20  1  0  0  0  0
 20 39  1  0  0  0  0
 20 38  1  0  0  0  0
 21 42  1  0  0  0  0
 21 19  1  0  0  0  0
 22  7  2  0  0  0  0
 22 11  1  0  0  0  0
 23 25  1  0  0  0  0
 23 22  1  0  0  0  0
 24 45  1  0  0  0  0
 24 23  1  0  0  0  0
 25 48  1  0  0  0  0
 25 47  1  0  0  0  0
 26 12  1  0  0  0  0
 28 13  1  0  0  0  0
 30 14  1  0  0  0  0
 31 14  1  0  0  0  0
 35 16  1  0  0  0  0
 40 20  1  0  0  0  0
 41 21  1  0  0  0  0
 43 21  1  0  0  0  0
 44 24  1  0  0  0  0
 46 24  1  0  0  0  0
 49 25  1  0  0  0  0
M  END
