1,2,3,4,5
q = -1.0, confidence = 0.0

 32 32  0  0  0  0  0  0  0  0999 V2000
   -0.8853   -1.5747   -1.2943 S   0  0  0  0  0  0  0  0  0  0  0  0
   -1.2430    0.0654    1.6934 S   0  0  0  0  0  0  0  0  0  0  0  0
   -0.7076    1.6634   -1.2906 S   0  0  0  0  0  0  0  0  0  0  0  0
    1.5647   -1.3636    0.2226 N   0  0  0  0  0  2  0  0  0  0  0  0
    1.7081    1.1811    0.2201 N   0  0  0  0  0  2  0  0  0  0  0  0
    2.8203   -1.3147    0.4215 N   0  0  0  0  0  2  0  0  0  0  0  0
    3.5466   -0.1989    0.4562 N   0  0  0  0  0  0  0  0  0  0  0  0
    2.9502    0.9920    0.4188 N   0  0  0  0  0  0  0  0  0  0  0  0
    0.9719   -2.7028    0.4242 C   0  0  0  0  0  0  0  0  0  0  0  0
    0.0835   -3.0447   -0.7609 C   0  0  0  0  0  0  0  0  0  0  0  0
   -2.4322   -1.6375   -0.2936 C   0  0  0  0  0  0  0  0  0  0  0  0
   -2.3273   -1.3221    1.1982 C   0  0  0  0  0  0  0  0  0  0  0  0
   -2.1575    1.5737    1.2083 C   0  0  0  0  0  0  0  0  0  0  0  0
   -2.2320    1.9037   -0.2821 C   0  0  0  0  0  0  0  0  0  0  0  0
    0.4237    3.0155   -0.7658 C   0  0  0  0  0  0  0  0  0  0  0  0
    1.2702    2.5791    0.4189 C   0  0  0  0  0  0  0  0  0  0  0  0
    0.3916   -2.6765    1.3712 H   0  0  0  0  0  0  0  0  0  0  0  0
    1.7916   -3.4393    0.5468 H   0  0  0  0  0  0  0  0  0  0  0  0
    0.6864   -3.3043   -1.6539 H   0  0  0  0  0  0  0  0  0  0  0  0
   -0.6107   -3.8828   -0.5554 H   0  0  0  0  0  0  0  0  0  0  0  0
   -3.0908   -0.9167   -0.8180 H   0  0  0  0  0  0  0  0  0  0  0  0
   -2.8802   -2.6402   -0.4546 H   0  0  0  0  0  0  0  0  0  0  0  0
   -1.9069   -2.1823    1.7579 H   0  0  0  0  0  0  0  0  0  0  0  0
   -3.3419   -1.1472    1.6130 H   0  0  0  0  0  0  0  0  0  0  0  0
   -3.1835    1.5192    1.6283 H   0  0  0  0  0  0  0  0  0  0  0  0
   -1.6345    2.3757    1.7681 H   0  0  0  0  0  0  0  0  0  0  0  0
   -2.5602    2.9524   -0.4388 H   0  0  0  0  0  0  0  0  0  0  0  0
   -2.9733    1.2665   -0.8043 H   0  0  0  0  0  0  0  0  0  0  0  0
    1.0502    3.2009   -1.6612 H   0  0  0  0  0  0  0  0  0  0  0  0
   -0.1698    3.9281   -0.5627 H   0  0  0  0  0  0  0  0  0  0  0  0
    0.6919    2.6199    1.3665 H   0  0  0  0  0  0  0  0  0  0  0  0
    2.1677    3.2189    0.5387 H   0  0  0  0  0  0  0  0  0  0  0  0
  1 10  1  0  0  0  0
  1 11  1  0  0  0  0
  3 15  1  0  0  0  0
  3 14  1  0  0  0  0
  4  6  1  0  0  0  0
  4  9  1  0  0  0  0
  5  8  1  0  0  0  0
  5 16  1  0  0  0  0
  6  7  1  0  0  0  0
  8  7  2  0  0  0  0
  9 18  1  0  0  0  0
  9 17  1  0  0  0  0
 10 20  1  0  0  0  0
 10  9  1  0  0  0  0
 11 12  1  0  0  0  0
 12 24  1  0  0  0  0
 12  2  1  0  0  0  0
 12 23  1  0  0  0  0
 13 25  1  0  0  0  0
 13  2  1  0  0  0  0
 13 26  1  0  0  0  0
 14 13  1  0  0  0  0
 15 30  1  0  0  0  0
 15 16  1  0  0  0  0
 16 32  1  0  0  0  0
 16 31  1  0  0  0  0
 19 10  1  0  0  0  0
 21 11  1  0  0  0  0
 22 11  1  0  0  0  0
 27 14  1  0  0  0  0
 28 14  1  0  0  0  0
 29 15  1  0  0  0  0
M  END
