1,2,3,8
 OpenBabel05122313063D

 50 50  0  0  0  0  0  0  0  0999 V2000
    0.8443   -2.2435   -1.2505 S   0  0  0  0  0  0  0  0  0  0  0  0
    1.7190    0.9809   -1.5610 S   0  0  0  0  0  5  0  0  0  0  0  0
    0.2751    1.5521    1.5001 S   0  0  0  0  0  3  0  0  0  0  0  0
    2.0017    0.1454   -2.8079 O   0  0  0  0  0  0  0  0  0  0  0  0
    1.2281    2.3787   -1.8845 O   0  0  0  0  0  0  0  0  0  0  0  0
    1.5698    2.0053    2.2713 O   0  0  0  0  0  0  0  0  0  0  0  0
    2.6446   -0.6895    0.7568 N   0  0  0  0  0  0  0  0  0  0  0  0
    0.0508   -1.5562    1.6907 N   0  0  0  0  0  0  0  0  0  0  0  0
    2.4252   -0.8860    2.2209 C   0  0  0  0  0  0  0  0  0  0  0  0
    2.1966    0.1249    2.6246 H   0  0  0  0  0  0  0  0  0  0  0  0
    3.3550   -1.2567    2.7140 H   0  0  0  0  0  0  0  0  0  0  0  0
    1.2876   -1.8581    2.4853 C   0  0  0  0  0  0  0  0  0  0  0  0
    1.0482   -1.8625    3.5700 H   0  0  0  0  0  0  0  0  0  0  0  0
    1.6009   -2.8932    2.2438 H   0  0  0  0  0  0  0  0  0  0  0  0
   -0.5093   -2.8268    1.1465 C   0  0  0  0  0  0  0  0  0  0  0  0
   -1.5035   -2.5928    0.7286 H   0  0  0  0  0  0  0  0  0  0  0  0
   -0.6687   -3.5617    1.9726 H   0  0  0  0  0  0  0  0  0  0  0  0
    0.3497   -3.4697    0.0612 C   0  0  0  0  0  0  0  0  0  0  0  0
   -0.2329   -4.2728   -0.4312 H   0  0  0  0  0  0  0  0  0  0  0  0
    1.2746   -3.9309    0.4601 H   0  0  0  0  0  0  0  0  0  0  0  0
    2.6750   -2.3435   -1.1955 C   0  0  0  0  0  0  0  0  0  0  0  0
    3.0146   -3.3617   -1.4743 H   0  0  0  0  0  0  0  0  0  0  0  0
    2.9308   -1.6283   -2.0047 H   0  0  0  0  0  0  0  0  0  0  0  0
    3.2407   -1.9304    0.1543 C   0  0  0  0  0  0  0  0  0  0  0  0
    3.1003   -2.7607    0.8745 H   0  0  0  0  0  0  0  0  0  0  0  0
    4.3400   -1.7899    0.0635 H   0  0  0  0  0  0  0  0  0  0  0  0
    3.5121    0.5250    0.5867 C   0  0  0  0  0  0  0  0  0  0  0  0
    4.5582    0.2493    0.8603 H   0  0  0  0  0  0  0  0  0  0  0  0
    3.1214    1.2408    1.3389 H   0  0  0  0  0  0  0  0  0  0  0  0
    3.4980    1.2322   -0.7739 C   0  0  0  0  0  0  0  0  0  0  0  0
   -1.0033   -0.8685    2.4942 C   0  0  0  0  0  0  0  0  0  0  0  0
   -1.1991   -1.4645    3.4212 H   0  0  0  0  0  0  0  0  0  0  0  0
   -1.9154   -0.9340    1.8770 H   0  0  0  0  0  0  0  0  0  0  0  0
   -0.7700    0.6014    2.8699 C   0  0  0  0  0  0  0  0  0  0  0  0
    3.6592    2.7369   -0.5464 C   0  0  0  0  0  0  0  0  0  0  0  0
    4.6616    2.9464   -0.1142 H   0  0  0  0  0  0  0  0  0  0  0  0
    2.8918    3.1139    0.1559 H   0  0  0  0  0  0  0  0  0  0  0  0
    3.5600    3.2868   -1.5009 H   0  0  0  0  0  0  0  0  0  0  0  0
    4.5309    0.7233   -1.7786 C   0  0  0  0  0  0  0  0  0  0  0  0
    5.5491    1.0058   -1.4348 H   0  0  0  0  0  0  0  0  0  0  0  0
    4.3573    1.1699   -2.7757 H   0  0  0  0  0  0  0  0  0  0  0  0
    4.5086   -0.3744   -1.9120 H   0  0  0  0  0  0  0  0  0  0  0  0
   -2.1180    1.3328    2.8848 C   0  0  0  0  0  0  0  0  0  0  0  0
   -2.8368    0.8363    3.5741 H   0  0  0  0  0  0  0  0  0  0  0  0
   -2.5712    1.3718    1.8738 H   0  0  0  0  0  0  0  0  0  0  0  0
   -1.9878    2.3793    3.2231 H   0  0  0  0  0  0  0  0  0  0  0  0
   -0.0510    0.7974    4.2024 C   0  0  0  0  0  0  0  0  0  0  0  0
    0.2049    1.8633    4.3489 H   0  0  0  0  0  0  0  0  0  0  0  0
    0.9007    0.2388    4.2714 H   0  0  0  0  0  0  0  0  0  0  0  0
   -0.7090    0.4640    5.0336 H   0  0  0  0  0  0  0  0  0  0  0  0
  1 21  1  0  0  0  0
  1 18  1  0  0  0  0
  2 30  1  0  0  0  0
  3  6  2  0  0  0  0
  3 34  1  0  0  0  0
  4  2  2  0  0  0  0
  5  2  2  0  0  0  0
  7  9  1  0  0  0  0
  8 12  1  0  0  0  0
  8 31  1  0  0  0  0
  9 12  1  0  0  0  0
  9 10  1  0  0  0  0
  9 11  1  0  0  0  0
 12 13  1  0  0  0  0
 14 12  1  0  0  0  0
 15  8  1  0  0  0  0
 15 17  1  0  0  0  0
 16 15  1  0  0  0  0
 18 20  1  0  0  0  0
 18 15  1  0  0  0  0
 19 18  1  0  0  0  0
 21 24  1  0  0  0  0
 22 21  1  0  0  0  0
 23 21  1  0  0  0  0
 24  7  1  0  0  0  0
 24 25  1  0  0  0  0
 26 24  1  0  0  0  0
 27  7  1  0  0  0  0
 27 28  1  0  0  0  0
 27 29  1  0  0  0  0
 30 35  1  0  0  0  0
 30 27  1  0  0  0  0
 31 34  1  0  0  0  0
 31 32  1  0  0  0  0
 33 31  1  0  0  0  0
 34 43  1  0  0  0  0
 34 47  1  0  0  0  0
 35 36  1  0  0  0  0
 35 37  1  0  0  0  0
 38 35  1  0  0  0  0
 39 40  1  0  0  0  0
 39 30  1  0  0  0  0
 41 39  1  0  0  0  0
 42 39  1  0  0  0  0
 43 46  1  0  0  0  0
 43 44  1  0  0  0  0
 45 43  1  0  0  0  0
 47 49  1  0  0  0  0
 47 48  1  0  0  0  0
 47 50  1  0  0  0  0
M  END
