1,2,3,4
q = 0.0, confidence = 0.956

 44 45  0  0  0  0  0  0  0  0999 V2000
   -1.6478   -1.1457   -0.6777 S   0  0  1  0  0  3  0  0  0  0  0  0
    1.5251   -1.2553    0.3460 S   0  0  2  0  0  3  0  0  0  0  0  0
    1.2728    1.8397    0.3661 N   0  0  0  0  0  2  0  0  0  0  0  0
   -1.3673    1.8620   -0.2378 N   0  0  0  0  0  2  0  0  0  0  0  0
    0.5554    3.1168    0.4866 C   0  0  0  0  0  0  0  0  0  0  0  0
    1.2249    3.9773    0.2817 H   0  0  0  0  0  0  0  0  0  0  0  0
    0.1826    3.2012    1.5305 H   0  0  0  0  0  0  0  0  0  0  0  0
   -0.6261    3.1011   -0.4802 C   0  0  0  0  0  0  0  0  0  0  0  0
   -1.2653    3.9982   -0.3468 H   0  0  0  0  0  0  0  0  0  0  0  0
   -0.2478    3.0608   -1.5252 H   0  0  0  0  0  0  0  0  0  0  0  0
    1.5751   -2.5814   -0.8770 C   0  0  0  0  0  0  0  0  0  0  0  0
    2.3148   -3.3450   -0.5788 H   0  0  0  0  0  0  0  0  0  0  0  0
    1.8137   -2.1028   -1.8465 H   0  0  0  0  0  0  0  0  0  0  0  0
    0.5448   -2.9897   -0.8680 H   0  0  0  0  0  0  0  0  0  0  0  0
    3.2259   -0.6341    0.3219 C   0  0  0  0  0  0  0  0  0  0  0  0
    4.2494   -1.5863    0.4204 C   0  0  0  0  0  0  0  0  0  0  0  0
    4.0071   -2.6575    0.4633 H   0  0  0  0  0  0  0  0  0  0  0  0
    5.5925   -1.1849    0.4724 C   0  0  0  0  0  0  0  0  0  0  0  0
    6.3863   -1.9434    0.5365 H   0  0  0  0  0  0  0  0  0  0  0  0
    5.9100    0.1809    0.4476 C   0  0  0  0  0  0  0  0  0  0  0  0
    6.9590    0.5088    0.4821 H   0  0  0  0  0  0  0  0  0  0  0  0
    4.8849    1.1293    0.3979 C   0  0  0  0  0  0  0  0  0  0  0  0
    5.1358    2.2011    0.4081 H   0  0  0  0  0  0  0  0  0  0  0  0
    3.5168    0.7563    0.3472 C   0  0  0  0  0  0  0  0  0  0  0  0
    2.5716    1.8673    0.3812 C   0  0  0  0  0  3  0  0  0  0  0  0
    3.0540    2.8606    0.4672 H   0  0  0  0  0  0  0  0  0  0  0  0
   -2.1514   -1.0219   -2.4194 C   0  0  0  0  0  0  0  0  0  0  0  0
   -2.9802   -1.7415   -2.5514 H   0  0  0  0  0  0  0  0  0  0  0  0
   -1.2561   -1.2860   -3.0110 H   0  0  0  0  0  0  0  0  0  0  0  0
   -2.4511    0.0188   -2.6411 H   0  0  0  0  0  0  0  0  0  0  0  0
   -3.1922   -0.5876    0.1208 C   0  0  0  0  0  0  0  0  0  0  0  0
   -4.0578   -1.6048    0.5329 C   0  0  0  0  0  0  0  0  0  0  0  0
   -3.7320   -2.6502    0.4140 H   0  0  0  0  0  0  0  0  0  0  0  0
   -5.3092   -1.2736    1.0803 C   0  0  0  0  0  0  0  0  0  0  0  0
   -5.9894   -2.0721    1.4115 H   0  0  0  0  0  0  0  0  0  0  0  0
   -5.6894    0.0733    1.1877 C   0  0  0  0  0  0  0  0  0  0  0  0
   -6.6739    0.3388    1.5997 H   0  0  0  0  0  0  0  0  0  0  0  0
   -4.8135    1.0858    0.7774 C   0  0  0  0  0  0  0  0  0  0  0  0
   -5.1119    2.1410    0.8770 H   0  0  0  0  0  0  0  0  0  0  0  0
   -3.5301    0.7857    0.2564 C   0  0  0  0  0  0  0  0  0  0  0  0
   -2.6563    1.9120   -0.0550 C   0  0  0  0  0  3  0  0  0  0  0  0
   -3.1450    2.9056   -0.0776 H   0  0  0  0  0  0  0  0  0  0  0  0
   -1.5161   -2.6212   -0.3611 O   0  0  0  0  0  1  0  0  0  0  0  0
    1.2992   -1.8608    1.7382 O   0  0  0  0  0  1  0  0  0  0  0  0
  1 43  1  1  0  0  0
  1 31  1  0  0  0  0
  2 44  1  1  0  0  0
  3 25  1  0  0  0  0
  3  5  1  0  0  0  0
  4 41  1  0  0  0  0
  5  7  1  0  0  0  0
  6  5  1  0  0  0  0
  8  9  1  0  0  0  0
  8  4  1  0  0  0  0
  8  5  1  0  0  0  0
 10  8  1  0  0  0  0
 11 14  1  0  0  0  0
 11 12  1  0  0  0  0
 11  2  1  0  0  0  0
 13 11  1  0  0  0  0
 15  2  1  0  0  0  0
 15 24  2  0  0  0  0
 15 16  1  0  0  0  0
 16 17  1  0  0  0  0
 16 18  2  0  0  0  0
 18 19  1  0  0  0  0
 20 18  1  0  0  0  0
 20 21  1  0  0  0  0
 22 23  1  0  0  0  0
 22 20  2  0  0  0  0
 24 25  1  0  0  0  0
 24 22  1  0  0  0  0
 25 26  1  0  0  0  0
 27  1  1  0  0  0  0
 28 27  1  0  0  0  0
 29 27  1  0  0  0  0
 30 27  1  0  0  0  0
 31 40  2  0  0  0  0
 31 32  1  0  0  0  0
 32 34  2  0  0  0  0
 33 32  1  0  0  0  0
 34 36  1  0  0  0  0
 34 35  1  0  0  0  0
 36 37  1  0  0  0  0
 38 39  1  0  0  0  0
 38 36  2  0  0  0  0
 40 38  1  0  0  0  0
 41 40  1  0  0  0  0
 42 41  1  0  0  0  0
M  END
