1,2,7,8
q = -1.0, confidence = 0.426

 55 55  0  0  0  0  0  0  0  0999 V2000
   -4.1876    1.6150    0.3542 S   0  0  0  0  0  1  0  0  0  0  0  0
   -4.4916   -1.0248   -1.4393 S   0  0  0  0  0  0  0  0  0  0  0  0
   10.8597   -1.6007   -0.0974 F   0  0  0  0  0  0  0  0  0  0  0  0
   -3.1637   -4.0648    0.7331 O   0  0  0  0  0  0  0  0  0  0  0  0
   -0.2484   -0.5783    3.0022 O   0  0  0  0  0  0  0  0  0  0  0  0
    5.5626   -0.1211   -0.4697 O   0  0  0  0  0  0  0  0  0  0  0  0
   -2.5098   -1.8615    0.5165 N   0  0  0  0  0  2  0  0  0  0  0  0
   -1.6594    0.3730    1.4175 N   0  0  0  0  0  2  0  0  0  0  0  0
    1.6075    2.8172   -0.1352 N   0  0  0  0  0  0  0  0  0  0  0  0
   -5.7051    1.2872   -0.6730 C   0  0  0  0  0  0  0  0  0  0  0  0
   -6.5430    1.8143   -0.1734 H   0  0  0  0  0  0  0  0  0  0  0  0
   -5.5703    1.7362   -1.6786 H   0  0  0  0  0  0  0  0  0  0  0  0
   -6.0102   -0.1959   -0.7651 C   0  0  0  0  0  0  0  0  0  0  0  0
   -6.8427   -0.4213   -1.4618 H   0  0  0  0  0  0  0  0  0  0  0  0
   -6.2182   -0.6313    0.2332 H   0  0  0  0  0  0  0  0  0  0  0  0
   -4.4943   -2.7061   -0.7102 C   0  0  0  0  0  0  0  0  0  0  0  0
   -5.4363   -2.8607   -0.1476 H   0  0  0  0  0  0  0  0  0  0  0  0
   -4.4662   -3.4448   -1.5340 H   0  0  0  0  0  0  0  0  0  0  0  0
   -3.3091   -2.9541    0.2387 C   0  0  0  0  0  0  0  0  0  0  0  0
   -1.4975   -2.0493    1.5525 C   0  0  0  0  0  0  0  0  0  0  0  0
   -0.6163   -2.6044    1.1631 H   0  0  0  0  0  0  0  0  0  0  0  0
   -1.8932   -2.6550    2.3943 H   0  0  0  0  0  0  0  0  0  0  0  0
   -1.0451   -0.6956    2.0794 C   0  0  0  0  0  0  0  0  0  0  0  0
   -1.4233    1.7144    1.9700 C   0  0  0  0  0  0  0  0  0  0  0  0
   -0.9172    1.5766    2.9473 H   0  0  0  0  0  0  0  0  0  0  0  0
   -2.4060    2.1973    2.1585 H   0  0  0  0  0  0  0  0  0  0  0  0
   -0.5778    2.5938    1.0461 C   0  0  0  0  0  0  0  0  0  0  0  0
   -1.1305    2.7498    0.0952 H   0  0  0  0  0  0  0  0  0  0  0  0
   -0.4575    3.5971    1.5057 H   0  0  0  0  0  0  0  0  0  0  0  0
    0.8044    1.9984    0.7641 C   0  0  0  0  0  0  0  0  0  0  0  0
    1.3493    1.8973    1.7266 H   0  0  0  0  0  0  0  0  0  0  0  0
    0.6756    0.9529    0.3767 H   0  0  0  0  0  0  0  0  0  0  0  0
    3.0427    2.6392    0.0258 C   0  0  0  0  0  0  0  0  0  0  0  0
    3.5537    3.4105   -0.5941 H   0  0  0  0  0  0  0  0  0  0  0  0
    3.2989    2.8738    1.0837 H   0  0  0  0  0  0  0  0  0  0  0  0
    3.6124    1.2504   -0.3295 C   0  0  0  0  0  0  0  0  0  0  0  0
    3.3929    0.9995   -1.3884 H   0  0  0  0  0  0  0  0  0  0  0  0
    3.1294    0.4662    0.2905 H   0  0  0  0  0  0  0  0  0  0  0  0
    5.1141    1.1822   -0.1155 C   0  0  0  0  0  0  0  0  0  0  0  0
    5.6358    1.9489   -0.7379 H   0  0  0  0  0  0  0  0  0  0  0  0
    5.3693    1.3988    0.9498 H   0  0  0  0  0  0  0  0  0  0  0  0
    6.8876   -0.4127   -0.3507 C   0  0  0  0  0  0  0  0  0  0  0  0
    7.8708    0.4927    0.1009 C   0  0  0  0  0  0  0  0  0  0  0  0
    7.6054    1.5175    0.3912 H   0  0  0  0  0  0  0  0  0  0  0  0
    9.2140    0.0871    0.1853 C   0  0  0  0  0  0  0  0  0  0  0  0
    9.9929    0.7796    0.5356 H   0  0  0  0  0  0  0  0  0  0  0  0
    9.5690   -1.2134   -0.1793 C   0  0  0  0  0  0  0  0  0  0  0  0
    8.6040   -2.1261   -0.6301 C   0  0  0  0  0  0  0  0  0  0  0  0
    8.9131   -3.1435   -0.9096 H   0  0  0  0  0  0  0  0  0  0  0  0
    7.2686   -1.7240   -0.7144 C   0  0  0  0  0  0  0  0  0  0  0  0
    6.4877   -2.4150   -1.0629 H   0  0  0  0  0  0  0  0  0  0  0  0
    1.1609    2.7739   -1.5160 C   0  0  0  0  0  0  0  0  0  0  0  0
    0.1079    3.1094   -1.5939 H   0  0  0  0  0  0  0  0  0  0  0  0
    1.2053    1.7542   -1.9815 H   0  0  0  0  0  0  0  0  0  0  0  0
    1.7762    3.4615   -2.1320 H   0  0  0  0  0  0  0  0  0  0  0  0
  2 13  1  0  0  0  0
  2 16  1  0  0  0  0
  6 42  1  0  0  0  0
  6 39  1  0  0  0  0
  7 20  1  0  0  0  0
  8 24  1  0  0  0  0
  8 23  1  0  0  0  0
  9 33  1  0  0  0  0
  9 30  1  0  0  0  0
 10 11  1  0  0  0  0
 10  1  1  0  0  0  0
 12 10  1  0  0  0  0
 13 10  1  0  0  0  0
 13 15  1  0  0  0  0
 14 13  1  0  0  0  0
 16 17  1  0  0  0  0
 16 19  1  0  0  0  0
 18 16  1  0  0  0  0
 19  7  1  0  0  0  0
 19  4  2  0  0  0  0
 20 23  1  0  0  0  0
 20 22  1  0  0  0  0
 21 20  1  0  0  0  0
 23  5  2  0  0  0  0
 24 26  1  0  0  0  0
 24 25  1  0  0  0  0
 27 29  1  0  0  0  0
 27 24  1  0  0  0  0
 28 27  1  0  0  0  0
 30 27  1  0  0  0  0
 30 31  1  0  0  0  0
 32 30  1  0  0  0  0
 33 35  1  0  0  0  0
 34 33  1  0  0  0  0
 36 39  1  0  0  0  0
 36 33  1  0  0  0  0
 36 38  1  0  0  0  0
 37 36  1  0  0  0  0
 39 41  1  0  0  0  0
 40 39  1  0  0  0  0
 42 43  1  0  0  0  0
 43 45  2  0  0  0  0
 43 44  1  0  0  0  0
 45 46  1  0  0  0  0
 47  3  1  0  0  0  0
 47 45  1  0  0  0  0
 48 47  2  0  0  0  0
 49 48  1  0  0  0  0
 50 48  1  0  0  0  0
 50 42  2  0  0  0  0
 51 50  1  0  0  0  0
 52  9  1  0  0  0  0
 53 52  1  0  0  0  0
 54 52  1  0  0  0  0
 55 52  1  0  0  0  0
M  END
