5,6,7,8
q = -2.0, confidence = 0.59

 50 53  0  0  1  0  0  0  0  0999 V2000
    1.6713   -3.4466    0.9524 Cl  0  0  0  0  0  0  0  0  0  0  0  0
    5.6975   -2.1702   -2.4326 Cl  0  0  0  0  0  0  0  0  0  0  0  0
   -1.6703   -3.4469   -0.9527 Cl  0  0  0  0  0  0  0  0  0  0  0  0
   -5.6968   -2.1716    2.4323 Cl  0  0  0  0  0  0  0  0  0  0  0  0
    0.7985    3.5749    1.3680 S   0  0  0  0  0  1  0  0  0  0  0  0
   -0.7993    3.5749   -1.3675 S   0  0  0  0  0  1  0  0  0  0  0  0
    0.6849    0.7869    1.0504 N   0  0  0  0  0  2  0  0  0  0  0  0
   -0.6849    0.7869   -1.0505 N   0  0  0  0  0  2  0  0  0  0  0  0
    1.5045    2.4598    2.5005 C   0  0  0  0  0  0  0  0  0  0  0  0
    1.3934    1.0584    2.1762 C   0  0  0  0  0  0  0  0  0  0  0  0
    2.0156    0.0944    3.0257 C   0  0  0  0  0  0  0  0  0  0  0  0
    2.6808    0.5221    4.1685 C   0  0  0  0  0  0  0  0  0  0  0  0
    2.7615    1.9013    4.5000 C   0  0  0  0  0  0  0  0  0  0  0  0
    2.1822    2.8624    3.6736 C   0  0  0  0  0  0  0  0  0  0  0  0
    0.6044   -0.5564    0.4909 C   0  0  2  0  0  0  0  0  0  0  0  0
    1.8933   -0.9625   -0.2106 C   0  0  0  0  0  0  0  0  0  0  0  0
    2.4407   -2.2558   -0.0805 C   0  0  0  0  0  0  0  0  0  0  0  0
    3.6097   -2.6391   -0.7559 C   0  0  0  0  0  0  0  0  0  0  0  0
    4.2457   -1.7066   -1.5880 C   0  0  0  0  0  0  0  0  0  0  0  0
    3.7303   -0.4090   -1.7421 C   0  0  0  0  0  0  0  0  0  0  0  0
    2.5669   -0.0552   -1.0518 C   0  0  0  0  0  0  0  0  0  0  0  0
   -0.6042   -0.5564   -0.4912 C   0  0  1  0  0  0  0  0  0  0  0  0
   -1.8930   -0.9629    0.2103 C   0  0  0  0  0  0  0  0  0  0  0  0
   -2.4400   -2.2563    0.0803 C   0  0  0  0  0  0  0  0  0  0  0  0
   -3.6089   -2.6400    0.7556 C   0  0  0  0  0  0  0  0  0  0  0  0
   -4.2451   -1.7076    1.5878 C   0  0  0  0  0  0  0  0  0  0  0  0
   -3.7301   -0.4099    1.7418 C   0  0  0  0  0  0  0  0  0  0  0  0
   -2.5668   -0.0558    1.0515 C   0  0  0  0  0  0  0  0  0  0  0  0
   -1.5053    2.4599   -2.5001 C   0  0  0  0  0  0  0  0  0  0  0  0
   -1.3937    1.0584   -2.1761 C   0  0  0  0  0  0  0  0  0  0  0  0
   -2.0160    0.0945   -3.0256 C   0  0  0  0  0  0  0  0  0  0  0  0
   -2.6815    0.5222   -4.1681 C   0  0  0  0  0  0  0  0  0  0  0  0
   -2.7626    1.9014   -4.4994 C   0  0  0  0  0  0  0  0  0  0  0  0
   -2.1833    2.8625   -3.6730 C   0  0  0  0  0  0  0  0  0  0  0  0
    1.9714   -0.9751    2.7759 H   0  0  0  0  0  0  0  0  0  0  0  0
    3.1566   -0.2211    4.8258 H   0  0  0  0  0  0  0  0  0  0  0  0
    3.2945    2.2126    5.4106 H   0  0  0  0  0  0  0  0  0  0  0  0
    2.2524    3.9340    3.9131 H   0  0  0  0  0  0  0  0  0  0  0  0
    0.4024   -1.2970    1.2916 H   0  0  0  0  0  0  0  0  0  0  0  0
    4.0165   -3.6508   -0.6317 H   0  0  0  0  0  0  0  0  0  0  0  0
    4.2429    0.3121   -2.3931 H   0  0  0  0  0  0  0  0  0  0  0  0
    2.1583    0.9625   -1.1509 H   0  0  0  0  0  0  0  0  0  0  0  0
   -0.4021   -1.2969   -1.2920 H   0  0  0  0  0  0  0  0  0  0  0  0
   -4.0154   -3.6517    0.6314 H   0  0  0  0  0  0  0  0  0  0  0  0
   -4.2429    0.3111    2.3928 H   0  0  0  0  0  0  0  0  0  0  0  0
   -2.1585    0.9620    1.1505 H   0  0  0  0  0  0  0  0  0  0  0  0
   -1.9714   -0.9751   -2.7760 H   0  0  0  0  0  0  0  0  0  0  0  0
   -3.1573   -0.2210   -4.8255 H   0  0  0  0  0  0  0  0  0  0  0  0
   -3.2959    2.2127   -5.4098 H   0  0  0  0  0  0  0  0  0  0  0  0
   -2.2538    3.9341   -3.9122 H   0  0  0  0  0  0  0  0  0  0  0  0
  2 19  1  0  0  0  0
  3 24  1  0  0  0  0
  5  9  1  0  0  0  0
  7 10  1  0  0  0  0
  8 22  1  0  0  0  0
  9 14  1  0  0  0  0
 10  9  2  0  0  0  0
 10 11  1  0  0  0  0
 11 12  2  0  0  0  0
 12 13  1  0  0  0  0
 12 36  1  0  0  0  0
 13 37  1  0  0  0  0
 14 38  1  0  0  0  0
 14 13  2  0  0  0  0
 15  7  1  0  0  0  0
 15 39  1  1  0  0  0
 16 17  1  0  0  0  0
 16 15  1  0  0  0  0
 17  1  1  0  0  0  0
 18 40  1  0  0  0  0
 18 17  2  0  0  0  0
 19 18  1  0  0  0  0
 20 19  2  0  0  0  0
 20 21  1  0  0  0  0
 21 16  2  0  0  0  0
 22 43  1  6  0  0  0
 22 23  1  0  0  0  0
 22 15  1  0  0  0  0
 23 28  1  0  0  0  0
 24 23  2  0  0  0  0
 24 25  1  0  0  0  0
 25 26  2  0  0  0  0
 26 27  1  0  0  0  0
 26  4  1  0  0  0  0
 27 45  1  0  0  0  0
 28 46  1  0  0  0  0
 28 27  2  0  0  0  0
 29 30  1  0  0  0  0
 29  6  1  0  0  0  0
 30  8  1  0  0  0  0
 31 47  1  0  0  0  0
 31 30  2  0  0  0  0
 32 31  1  0  0  0  0
 33 32  2  0  0  0  0
 33 34  1  0  0  0  0
 34 29  2  0  0  0  0
 35 11  1  0  0  0  0
 41 20  1  0  0  0  0
 42 21  1  0  0  0  0
 44 25  1  0  0  0  0
 48 32  1  0  0  0  0
 49 33  1  0  0  0  0
 50 34  1  0  0  0  0
M  END
