1,2,3,4
q = -2.0, confidence = 0.842

 30 29  0  0  0  0  0  0  0  0999 V2000
    1.1752   -0.0349   -2.2854 S   0  0  0  0  0  1  0  0  0  0  0  0
    1.2877   -0.5490    2.4905 S   0  0  0  0  0  1  0  0  0  0  0  0
    3.3603   -0.7351   -0.2002 N   0  0  0  0  0  0  0  0  0  0  0  0
    1.7530    1.7307    0.4502 N   0  0  0  0  0  0  0  0  0  0  0  0
    2.9560   -0.3211   -2.6603 C   0  0  0  0  0  0  0  0  0  0  0  0
    3.6203   -1.1792   -1.5973 C   0  0  0  0  0  0  0  0  0  0  0  0
    3.9383   -1.7470    0.7141 C   0  0  0  0  0  0  0  0  0  0  0  0
    3.9460    0.5939    0.1144 C   0  0  0  0  0  0  0  0  0  0  0  0
    3.0624    1.7928   -0.2247 C   0  0  0  0  0  0  0  0  0  0  0  0
    0.8035    2.6606   -0.1872 C   0  0  0  0  0  0  0  0  0  0  0  0
    1.8568    2.0500    1.8975 C   0  0  0  0  0  0  0  0  0  0  0  0
    0.8862    1.2165    2.7195 C   0  0  0  0  0  0  0  0  0  0  0  0
    3.0231   -0.8490   -3.6331 H   0  0  0  0  0  0  0  0  0  0  0  0
    3.4814    0.6489   -2.7929 H   0  0  0  0  0  0  0  0  0  0  0  0
    3.2210   -2.2100   -1.6676 H   0  0  0  0  0  0  0  0  0  0  0  0
    4.7246   -1.2275   -1.7670 H   0  0  0  0  0  0  0  0  0  0  0  0
    3.4802   -2.7289    0.4971 H   0  0  0  0  0  0  0  0  0  0  0  0
    5.0430   -1.8107    0.5859 H   0  0  0  0  0  0  0  0  0  0  0  0
    3.6868   -1.4707    1.7561 H   0  0  0  0  0  0  0  0  0  0  0  0
    4.1424    0.5970    1.2044 H   0  0  0  0  0  0  0  0  0  0  0  0
    4.9344    0.7072   -0.3891 H   0  0  0  0  0  0  0  0  0  0  0  0
    3.6121    2.7236    0.0593 H   0  0  0  0  0  0  0  0  0  0  0  0
    2.8636    1.8514   -1.3094 H   0  0  0  0  0  0  0  0  0  0  0  0
    1.1908    3.7065   -0.1617 H   0  0  0  0  0  0  0  0  0  0  0  0
    0.6376    2.3472   -1.2345 H   0  0  0  0  0  0  0  0  0  0  0  0
   -0.1641    2.6259    0.3442 H   0  0  0  0  0  0  0  0  0  0  0  0
    2.8825    1.8208    2.2469 H   0  0  0  0  0  0  0  0  0  0  0  0
    1.6956    3.1445    2.0462 H   0  0  0  0  0  0  0  0  0  0  0  0
    0.9831    1.4694    3.7954 H   0  0  0  0  0  0  0  0  0  0  0  0
   -0.1654    1.4129    2.4175 H   0  0  0  0  0  0  0  0  0  0  0  0
  2 12  1  0  0  0  0
  3  8  1  0  0  0  0
  3  7  1  0  0  0  0
  4 11  1  0  0  0  0
  5  1  1  0  0  0  0
  5  6  1  0  0  0  0
  6  3  1  0  0  0  0
  7 19  1  0  0  0  0
  8 20  1  0  0  0  0
  9 22  1  0  0  0  0
  9  8  1  0  0  0  0
  9  4  1  0  0  0  0
 10 24  1  0  0  0  0
 10 26  1  0  0  0  0
 10  4  1  0  0  0  0
 11 28  1  0  0  0  0
 11 27  1  0  0  0  0
 11 12  1  0  0  0  0
 12 29  1  0  0  0  0
 13  5  1  0  0  0  0
 14  5  1  0  0  0  0
 15  6  1  0  0  0  0
 16  6  1  0  0  0  0
 17  7  1  0  0  0  0
 18  7  1  0  0  0  0
 21  8  1  0  0  0  0
 23  9  1  0  0  0  0
 25 10  1  0  0  0  0
 30 12  1  0  0  0  0
M  END
