1,2,3
q = -2.0, confidence = 0.906

 45 45  0  0  0  0  0  0  0  0999 V2000
   -1.2912   -1.3893   -1.8897 S   0  0  0  0  0  1  0  0  0  0  0  0
   -0.0069    1.4489   -2.0668 S   0  0  0  0  0  1  0  0  0  0  0  0
   -1.0763   -1.0857    1.0886 N   0  0  0  0  0  0  0  0  0  0  0  0
   -0.6928    1.6421    0.8320 N   0  0  0  0  0  0  0  0  0  0  0  0
    1.6966   -0.1445    0.5863 N   0  0  0  0  0  0  0  0  0  0  0  0
   -1.8429   -2.6598   -0.6787 C   0  0  0  0  0  0  0  0  0  0  0  0
   -2.1852   -1.9831    0.6375 C   0  0  0  0  0  0  0  0  0  0  0  0
   -1.5185   -0.2157    2.2190 C   0  0  0  0  0  0  0  0  0  0  0  0
   -1.8010    1.1922    1.7092 C   0  0  0  0  0  0  0  0  0  0  0  0
   -1.0875    2.8413    0.0367 C   0  0  0  0  0  0  0  0  0  0  0  0
   -0.1519    3.0409   -1.1395 C   0  0  0  0  0  0  0  0  0  0  0  0
    0.1262   -1.8866    1.4464 C   0  0  0  0  0  0  0  0  0  0  0  0
    1.4057   -1.0615    1.6740 C   0  0  0  0  0  0  0  0  0  0  0  0
    1.8188    1.2625    0.9232 C   0  0  0  0  0  0  0  0  0  0  0  0
    0.5738    1.8605    1.5856 C   0  0  0  0  0  0  0  0  0  0  0  0
    2.6626   -0.5807   -0.4469 C   0  0  0  0  0  0  0  0  0  0  0  0
    2.3110   -1.9458   -1.0387 C   0  0  0  0  0  0  0  0  0  0  0  0
    4.1211   -0.5377    0.0401 C   0  0  0  0  0  0  0  0  0  0  0  0
   -2.7476   -3.1685   -1.0717 H   0  0  0  0  0  0  0  0  0  0  0  0
   -1.0786   -3.4556   -0.5322 H   0  0  0  0  0  0  0  0  0  0  0  0
   -3.0760   -1.3406    0.4898 H   0  0  0  0  0  0  0  0  0  0  0  0
   -2.4128   -2.7224    1.4469 H   0  0  0  0  0  0  0  0  0  0  0  0
   -0.7234   -0.1973    2.9893 H   0  0  0  0  0  0  0  0  0  0  0  0
   -2.4183   -0.6374    2.7161 H   0  0  0  0  0  0  0  0  0  0  0  0
   -2.7211    1.1927    1.0937 H   0  0  0  0  0  0  0  0  0  0  0  0
   -1.9652    1.8942    2.5651 H   0  0  0  0  0  0  0  0  0  0  0  0
   -1.1252    3.7374    0.7074 H   0  0  0  0  0  0  0  0  0  0  0  0
   -2.1083    2.6479   -0.3471 H   0  0  0  0  0  0  0  0  0  0  0  0
    0.8413    3.4097   -0.7970 H   0  0  0  0  0  0  0  0  0  0  0  0
   -0.5659    3.8256   -1.8061 H   0  0  0  0  0  0  0  0  0  0  0  0
    0.3026   -2.5796    0.6069 H   0  0  0  0  0  0  0  0  0  0  0  0
   -0.0870   -2.5056    2.3521 H   0  0  0  0  0  0  0  0  0  0  0  0
    1.3341   -0.4996    2.6299 H   0  0  0  0  0  0  0  0  0  0  0  0
    2.2317   -1.7913    1.8445 H   0  0  0  0  0  0  0  0  0  0  0  0
    2.0097    1.7904   -0.0325 H   0  0  0  0  0  0  0  0  0  0  0  0
    2.6810    1.4934    1.6047 H   0  0  0  0  0  0  0  0  0  0  0  0
    0.4522    1.4361    2.6020 H   0  0  0  0  0  0  0  0  0  0  0  0
    0.7406    2.9502    1.7363 H   0  0  0  0  0  0  0  0  0  0  0  0
    2.5252    0.1630   -1.2646 H   0  0  0  0  0  0  0  0  0  0  0  0
    2.4391   -2.7683   -0.3025 H   0  0  0  0  0  0  0  0  0  0  0  0
    2.9932   -2.1659   -1.8836 H   0  0  0  0  0  0  0  0  0  0  0  0
    1.2701   -1.9438   -1.4271 H   0  0  0  0  0  0  0  0  0  0  0  0
    4.8136   -0.8040   -0.7836 H   0  0  0  0  0  0  0  0  0  0  0  0
    4.2968   -1.2639    0.8630 H   0  0  0  0  0  0  0  0  0  0  0  0
    4.4119    0.4681    0.4051 H   0  0  0  0  0  0  0  0  0  0  0  0
  1  6  1  0  0  0  0
  2 11  1  0  0  0  0
  3 12  1  0  0  0  0
  3  8  1  0  0  0  0
  4 15  1  0  0  0  0
  4  9  1  0  0  0  0
  5 14  1  0  0  0  0
  5 13  1  0  0  0  0
  6 20  1  0  0  0  0
  6  7  1  0  0  0  0
  7  3  1  0  0  0  0
  7 22  1  0  0  0  0
  8 24  1  0  0  0  0
  8 23  1  0  0  0  0
  9  8  1  0  0  0  0
  9 26  1  0  0  0  0
 10 27  1  0  0  0  0
 10  4  1  0  0  0  0
 11 29  1  0  0  0  0
 11 10  1  0  0  0  0
 12 13  1  0  0  0  0
 12 32  1  0  0  0  0
 13 34  1  0  0  0  0
 13 33  1  0  0  0  0
 14 15  1  0  0  0  0
 14 36  1  0  0  0  0
 15 38  1  0  0  0  0
 15 37  1  0  0  0  0
 16 18  1  0  0  0  0
 16  5  1  0  0  0  0
 17 16  1  0  0  0  0
 17 40  1  0  0  0  0
 18 45  1  0  0  0  0
 18 44  1  0  0  0  0
 19  6  1  0  0  0  0
 21  7  1  0  0  0  0
 25  9  1  0  0  0  0
 28 10  1  0  0  0  0
 30 11  1  0  0  0  0
 31 12  1  0  0  0  0
 35 14  1  0  0  0  0
 39 16  1  0  0  0  0
 41 17  1  0  0  0  0
 42 17  1  0  0  0  0
 43 18  1  0  0  0  0
M  END
