1,12,22,33
q = 0.0, confidence = 0.622

 33 34  0  0  0  0  0  0  0  0999 V2000
    1.4895    1.5004   -1.0625 S   0  0  0  0  0  1  0  0  0  0  0  0
    2.9140    0.5372   -0.9150 C   0  0  0  0  0  0  0  0  0  0  0  0
    4.2020    0.9872   -1.2875 C   0  0  0  0  0  0  0  0  0  0  0  0
    4.3167    2.0181   -1.6556 H   0  0  0  0  0  0  0  0  0  0  0  0
    5.2940    0.1271   -1.2012 C   0  0  0  0  0  0  0  0  0  0  0  0
    6.2959    0.4729   -1.4963 H   0  0  0  0  0  0  0  0  0  0  0  0
    5.1057   -1.2013   -0.7454 C   0  0  0  0  0  0  0  0  0  0  0  0
    5.9660   -1.8861   -0.6953 H   0  0  0  0  0  0  0  0  0  0  0  0
    3.8483   -1.6618   -0.3648 C   0  0  0  0  0  0  0  0  0  0  0  0
    3.7447   -2.7037   -0.0362 H   0  0  0  0  0  0  0  0  0  0  0  0
    2.7080   -0.7978   -0.4199 C   0  0  0  0  0  0  0  0  0  0  0  0
    1.4278   -1.1328   -0.0485 N   0  0  0  0  0  2  0  0  0  0  0  0
    1.2745   -2.4766    0.4942 C   0  0  0  0  0  0  0  0  0  0  0  0
    2.1350   -2.7163    1.1576 H   0  0  0  0  0  0  0  0  0  0  0  0
    1.3049   -3.2296   -0.3309 H   0  0  0  0  0  0  0  0  0  0  0  0
   -0.0000   -2.6560    1.2969 C   0  0  0  0  0  0  0  0  0  0  0  0
   -0.0001   -1.9547    2.1581 H   0  0  0  0  0  0  0  0  0  0  0  0
    0.0000   -3.6796    1.7266 H   0  0  0  0  0  0  0  0  0  0  0  0
   -1.2743   -2.4767    0.4939 C   0  0  0  0  0  0  0  0  0  0  0  0
   -1.3044   -3.2297   -0.3313 H   0  0  0  0  0  0  0  0  0  0  0  0
   -2.1349   -2.7166    1.1571 H   0  0  0  0  0  0  0  0  0  0  0  0
   -1.4278   -1.1328   -0.0486 N   0  0  0  0  0  2  0  0  0  0  0  0
   -2.7080   -0.7978   -0.4200 C   0  0  0  0  0  0  0  0  0  0  0  0
   -3.8482   -1.6619   -0.3650 C   0  0  0  0  0  0  0  0  0  0  0  0
   -3.7446   -2.7039   -0.0367 H   0  0  0  0  0  0  0  0  0  0  0  0
   -5.1056   -1.2014   -0.7456 C   0  0  0  0  0  0  0  0  0  0  0  0
   -5.9660   -1.8863   -0.6956 H   0  0  0  0  0  0  0  0  0  0  0  0
   -5.2940    0.1271   -1.2011 C   0  0  0  0  0  0  0  0  0  0  0  0
   -6.2959    0.4729   -1.4962 H   0  0  0  0  0  0  0  0  0  0  0  0
   -4.2020    0.9872   -1.2873 C   0  0  0  0  0  0  0  0  0  0  0  0
   -4.3168    2.0181   -1.6552 H   0  0  0  0  0  0  0  0  0  0  0  0
   -2.9140    0.5372   -0.9149 C   0  0  0  0  0  0  0  0  0  0  0  0
   -1.4895    1.5005   -1.0623 S   0  0  0  0  0  1  0  0  0  0  0  0
  1  2  1  0  0  0  0
  2 11  1  0  0  0  0
  3  5  1  0  0  0  0
  3  2  2  0  0  0  0
  4  3  1  0  0  0  0
  5  7  2  0  0  0  0
  6  5  1  0  0  0  0
  7  8  1  0  0  0  0
  7  9  1  0  0  0  0
  9 10  1  0  0  0  0
 11  9  2  0  0  0  0
 11 12  1  0  0  0  0
 12 13  1  0  0  0  0
 13 14  1  0  0  0  0
 13 16  1  0  0  0  0
 15 13  1  0  0  0  0
 16 18  1  0  0  0  0
 16 17  1  0  0  0  0
 19 21  1  0  0  0  0
 19 16  1  0  0  0  0
 20 19  1  0  0  0  0
 22 19  1  0  0  0  0
 23 24  1  0  0  0  0
 23 22  1  0  0  0  0
 24 25  1  0  0  0  0
 26 27  1  0  0  0  0
 26 24  2  0  0  0  0
 28 26  1  0  0  0  0
 29 28  1  0  0  0  0
 30 28  2  0  0  0  0
 30 32  1  0  0  0  0
 31 30  1  0  0  0  0
 32 23  2  0  0  0  0
 33 32  1  0  0  0  0
M  END
