1,2,3,4
q = -2.0, confidence = 0.756

 39 38  0  0  0  0  0  0  0  0999 V2000
   -1.4757   -2.2777   -0.0860 S   0  0  0  0  0  1  0  0  0  0  0  0
    1.3924   -2.1837    0.5391 S   0  0  0  0  0  1  0  0  0  0  0  0
   -1.5646    0.7064   -0.2483 N   0  0  0  0  0  0  0  0  0  0  0  0
    1.5517    0.6206   -0.3231 N   0  0  0  0  0  0  0  0  0  0  0  0
   -3.0245   -1.2926   -0.0652 C   0  0  0  0  0  0  0  0  0  0  0  0
   -3.3938   -1.1054    0.9679 H   0  0  0  0  0  0  0  0  0  0  0  0
   -3.8198   -1.8626   -0.5886 H   0  0  0  0  0  0  0  0  0  0  0  0
   -2.7624    0.0011   -0.8025 C   0  0  0  0  0  0  0  0  0  0  0  0
   -2.5215   -0.2356   -1.8579 H   0  0  0  0  0  0  0  0  0  0  0  0
   -3.6414    0.6901   -0.7941 H   0  0  0  0  0  0  0  0  0  0  0  0
   -1.2882    1.8737   -1.1153 C   0  0  0  0  0  0  0  0  0  0  0  0
   -2.1245    2.6071   -1.0387 H   0  0  0  0  0  0  0  0  0  0  0  0
   -1.2992    1.4962   -2.1583 H   0  0  0  0  0  0  0  0  0  0  0  0
    0.0386    2.5816   -0.8684 C   0  0  0  0  0  0  0  0  0  0  0  0
    0.0481    3.4853   -1.5124 H   0  0  0  0  0  0  0  0  0  0  0  0
    0.1057    2.9690    0.1697 H   0  0  0  0  0  0  0  0  0  0  0  0
    1.2664    1.7538   -1.2303 C   0  0  0  0  0  0  0  0  0  0  0  0
    1.1208    1.3222   -2.2419 H   0  0  0  0  0  0  0  0  0  0  0  0
    2.1606    2.4164   -1.2971 H   0  0  0  0  0  0  0  0  0  0  0  0
    2.5938   -0.2359   -0.9725 C   0  0  0  0  0  0  0  0  0  0  0  0
    3.4933    0.3812   -1.2160 H   0  0  0  0  0  0  0  0  0  0  0  0
    2.1526   -0.5818   -1.9286 H   0  0  0  0  0  0  0  0  0  0  0  0
    2.9452   -1.4363   -0.1170 C   0  0  0  0  0  0  0  0  0  0  0  0
    3.4957   -2.1729   -0.7373 H   0  0  0  0  0  0  0  0  0  0  0  0
    3.6202   -1.1503    0.7194 H   0  0  0  0  0  0  0  0  0  0  0  0
   -1.7666    1.0907    1.1853 C   0  0  0  0  0  0  0  0  0  0  0  0
   -0.8412    1.5996    1.5151 H   0  0  0  0  0  0  0  0  0  0  0  0
   -1.8014    0.1427    1.7561 H   0  0  0  0  0  0  0  0  0  0  0  0
   -2.9787    1.9661    1.5085 C   0  0  0  0  0  0  0  0  0  0  0  0
   -2.9697    2.1997    2.5917 H   0  0  0  0  0  0  0  0  0  0  0  0
   -2.9723    2.9331    0.9658 H   0  0  0  0  0  0  0  0  0  0  0  0
   -3.9376    1.4553    1.2926 H   0  0  0  0  0  0  0  0  0  0  0  0
    1.9733    1.0695    1.0402 C   0  0  0  0  0  0  0  0  0  0  0  0
    2.0286    0.1485    1.6542 H   0  0  0  0  0  0  0  0  0  0  0  0
    1.1336    1.6554    1.4618 H   0  0  0  0  0  0  0  0  0  0  0  0
    3.2643    1.8835    1.1316 C   0  0  0  0  0  0  0  0  0  0  0  0
    3.4513    2.1357    2.1943 H   0  0  0  0  0  0  0  0  0  0  0  0
    4.1462    1.3173    0.7724 H   0  0  0  0  0  0  0  0  0  0  0  0
    3.2188    2.8406    0.5728 H   0  0  0  0  0  0  0  0  0  0  0  0
  1  5  1  0  0  0  0
  3 26  1  0  0  0  0
  4 33  1  0  0  0  0
  5  6  1  0  0  0  0
  7  5  1  0  0  0  0
  8 10  1  0  0  0  0
  8  3  1  0  0  0  0
  8  5  1  0  0  0  0
  9  8  1  0  0  0  0
 11 12  1  0  0  0  0
 11 14  1  0  0  0  0
 11  3  1  0  0  0  0
 13 11  1  0  0  0  0
 14 16  1  0  0  0  0
 15 14  1  0  0  0  0
 17 14  1  0  0  0  0
 17  4  1  0  0  0  0
 18 17  1  0  0  0  0
 19 17  1  0  0  0  0
 20  4  1  0  0  0  0
 20 23  1  0  0  0  0
 21 20  1  0  0  0  0
 22 20  1  0  0  0  0
 23  2  1  0  0  0  0
 23 25  1  0  0  0  0
 24 23  1  0  0  0  0
 26 29  1  0  0  0  0
 26 27  1  0  0  0  0
 26 28  1  0  0  0  0
 29 30  1  0  0  0  0
 31 29  1  0  0  0  0
 32 29  1  0  0  0  0
 33 36  1  0  0  0  0
 33 35  1  0  0  0  0
 33 34  1  0  0  0  0
 36 37  1  0  0  0  0
 38 36  1  0  0  0  0
 39 36  1  0  0  0  0
M  END
