1,2,3,4
q = -2.0, confidence = 0.698

 74 79  0  0  1  0  0  0  0  0999 V2000
    1.3146    1.3940    0.5704 S   0  0  0  0  0  1  0  0  0  0  0  0
   -1.3147    1.3939   -0.5713 S   0  0  0  0  0  1  0  0  0  0  0  0
    1.3176   -1.6398    0.1571 N   0  0  0  0  0  2  0  0  0  0  0  0
   -1.3178   -1.6397   -0.1575 N   0  0  0  0  0  2  0  0  0  0  0  0
    5.1408    1.0467   -0.3087 N   0  0  0  0  0  0  0  0  0  0  0  0
    4.0053    1.7292    0.0473 N   0  0  0  0  0  0  0  0  0  0  0  0
   -5.1406    1.0470    0.3094 N   0  0  0  0  0  0  0  0  0  0  0  0
   -4.0052    1.7294   -0.0471 N   0  0  0  0  0  0  0  0  0  0  0  0
    2.6410   -1.6231    0.0478 C   0  0  1  0  0  3  0  0  0  0  0  0
    3.4087   -0.4200   -0.0638 C   0  0  0  0  0  0  0  0  0  0  0  0
    4.8113   -0.2362   -0.3756 C   0  0  0  0  0  0  0  0  0  0  0  0
    5.8643   -1.2272   -0.7643 C   0  0  0  0  0  0  0  0  0  0  0  0
    2.9166    0.8931    0.1856 C   0  0  0  0  0  0  0  0  0  0  0  0
    4.0810    3.1427    0.1614 C   0  0  0  0  0  0  0  0  0  0  0  0
    3.2499    3.8539    1.0476 C   0  0  0  0  0  0  0  0  0  0  0  0
    2.5377    3.3180    1.6883 H   0  0  0  0  0  0  0  0  0  0  0  0
    3.3500    5.2512    1.1177 C   0  0  0  0  0  0  0  0  0  0  0  0
    2.6942    5.8006    1.8098 H   0  0  0  0  0  0  0  0  0  0  0  0
    4.2818    5.9425    0.3295 C   0  0  0  0  0  0  0  0  0  0  0  0
    4.3558    7.0385    0.3917 H   0  0  0  0  0  0  0  0  0  0  0  0
    5.1255    5.2230   -0.5337 C   0  0  0  0  0  0  0  0  0  0  0  0
    5.8656    5.7537   -1.1519 H   0  0  0  0  0  0  0  0  0  0  0  0
    5.0300    3.8299   -0.6232 C   0  0  0  0  0  0  0  0  0  0  0  0
    5.6824    3.2476   -1.2867 H   0  0  0  0  0  0  0  0  0  0  0  0
    3.4090   -2.9136    0.0712 C   0  0  0  0  0  0  0  0  0  0  0  0
    3.5207   -3.7034   -1.0910 C   0  0  0  0  0  0  0  0  0  0  0  0
    3.0312   -3.3696   -2.0189 H   0  0  0  0  0  0  0  0  0  0  0  0
    4.2589   -4.8959   -1.0675 C   0  0  0  0  0  0  0  0  0  0  0  0
    4.3469   -5.5025   -1.9816 H   0  0  0  0  0  0  0  0  0  0  0  0
    4.8876   -5.3122    0.1171 C   0  0  0  0  0  0  0  0  0  0  0  0
    5.4680   -6.2470    0.1342 H   0  0  0  0  0  0  0  0  0  0  0  0
    4.7752   -4.5318    1.2790 C   0  0  0  0  0  0  0  0  0  0  0  0
    5.2668   -4.8536    2.2096 H   0  0  0  0  0  0  0  0  0  0  0  0
    4.0419   -3.3358    1.2563 C   0  0  0  0  0  0  0  0  0  0  0  0
    3.9621   -2.7130    2.1602 H   0  0  0  0  0  0  0  0  0  0  0  0
   -2.6411   -1.6229   -0.0478 C   0  0  1  0  0  3  0  0  0  0  0  0
   -3.4087   -0.4198    0.0639 C   0  0  0  0  0  0  0  0  0  0  0  0
   -4.8112   -0.2360    0.3762 C   0  0  0  0  0  0  0  0  0  0  0  0
   -5.8642   -1.2269    0.7650 C   0  0  0  0  0  0  0  0  0  0  0  0
   -6.7969   -0.6774    0.9910 H   0  0  0  0  0  0  0  0  0  0  0  0
   -5.5669   -1.8127    1.6571 H   0  0  0  0  0  0  0  0  0  0  0  0
   -6.0676   -1.9590   -0.0415 H   0  0  0  0  0  0  0  0  0  0  0  0
   -2.9166    0.8932   -0.1857 C   0  0  0  0  0  0  0  0  0  0  0  0
   -4.0808    3.1429   -0.1611 C   0  0  0  0  0  0  0  0  0  0  0  0
   -5.0295    3.8302    0.6236 C   0  0  0  0  0  0  0  0  0  0  0  0
   -5.6818    3.2481    1.2873 H   0  0  0  0  0  0  0  0  0  0  0  0
   -5.1249    5.2234    0.5341 C   0  0  0  0  0  0  0  0  0  0  0  0
   -5.8648    5.7542    1.1524 H   0  0  0  0  0  0  0  0  0  0  0  0
   -4.2813    5.9427   -0.3294 C   0  0  0  0  0  0  0  0  0  0  0  0
   -4.3552    7.0388   -0.3916 H   0  0  0  0  0  0  0  0  0  0  0  0
   -3.3497    5.2513   -1.1177 C   0  0  0  0  0  0  0  0  0  0  0  0
   -2.6940    5.8006   -1.8100 H   0  0  0  0  0  0  0  0  0  0  0  0
   -3.2498    3.8540   -1.0476 C   0  0  0  0  0  0  0  0  0  0  0  0
   -2.5378    3.3180   -1.6884 H   0  0  0  0  0  0  0  0  0  0  0  0
   -3.4092   -2.9134   -0.0711 C   0  0  0  0  0  0  0  0  0  0  0  0
   -4.0429   -3.3352   -1.2560 C   0  0  0  0  0  0  0  0  0  0  0  0
   -3.9636   -2.7122   -2.1598 H   0  0  0  0  0  0  0  0  0  0  0  0
   -4.7763   -4.5311   -1.2786 C   0  0  0  0  0  0  0  0  0  0  0  0
   -5.2684   -4.8527   -2.2089 H   0  0  0  0  0  0  0  0  0  0  0  0
   -4.8880   -5.3119   -0.1168 C   0  0  0  0  0  0  0  0  0  0  0  0
   -5.4684   -6.2466   -0.1339 H   0  0  0  0  0  0  0  0  0  0  0  0
   -4.2585   -4.8960    1.0675 C   0  0  0  0  0  0  0  0  0  0  0  0
   -4.3460   -5.5029    1.9814 H   0  0  0  0  0  0  0  0  0  0  0  0
   -3.5202   -3.7035    1.0908 C   0  0  0  0  0  0  0  0  0  0  0  0
   -3.0301   -3.3701    2.0186 H   0  0  0  0  0  0  0  0  0  0  0  0
    0.6326   -2.9100    0.4153 C   0  0  0  0  0  0  0  0  0  0  0  0
   -0.6328   -2.9099   -0.4160 C   0  0  0  0  0  0  0  0  0  0  0  0
    6.0672   -1.9597    0.0420 H   0  0  0  0  0  0  0  0  0  0  0  0
    5.5674   -1.8126   -1.6568 H   0  0  0  0  0  0  0  0  0  0  0  0
    6.7973   -0.6778   -0.9896 H   0  0  0  0  0  0  0  0  0  0  0  0
    1.2613   -3.7916    0.1849 H   0  0  0  0  0  0  0  0  0  0  0  0
    0.3645   -2.9597    1.4946 H   0  0  0  0  0  0  0  0  0  0  0  0
   -1.2615   -3.7916   -0.1857 H   0  0  0  0  0  0  0  0  0  0  0  0
   -0.3647   -2.9594   -1.4952 H   0  0  0  0  0  0  0  0  0  0  0  0
  2 43  1  0  0  0  0
  3 66  1  0  0  0  0
  5  6  1  0  0  0  0
  6 14  1  0  0  0  0
  6 13  1  0  0  0  0
  7 38  2  0  0  0  0
  8  7  1  0  0  0  0
  9 25  1  0  0  0  0
  9  3  1  1  0  0  0
 10  9  1  0  0  0  0
 10 13  2  0  0  0  0
 11  5  2  0  0  0  0
 11 10  1  0  0  0  0
 12 11  1  0  0  0  0
 12 68  1  0  0  0  0
 13  1  1  0  0  0  0
 14 15  1  0  0  0  0
 15 17  2  0  0  0  0
 15 16  1  0  0  0  0
 17 18  1  0  0  0  0
 19 20  1  0  0  0  0
 19 17  1  0  0  0  0
 21 19  2  0  0  0  0
 22 21  1  0  0  0  0
 23 21  1  0  0  0  0
 23 14  2  0  0  0  0
 24 23  1  0  0  0  0
 25 34  1  0  0  0  0
 26 28  1  0  0  0  0
 26 25  2  0  0  0  0
 27 26  1  0  0  0  0
 28 30  2  0  0  0  0
 29 28  1  0  0  0  0
 30 31  1  0  0  0  0
 30 32  1  0  0  0  0
 32 33  1  0  0  0  0
 34 32  2  0  0  0  0
 34 35  1  0  0  0  0
 36  4  1  6  0  0  0
 36 37  1  0  0  0  0
 37 38  1  0  0  0  0
 38 39  1  0  0  0  0
 39 40  1  0  0  0  0
 39 41  1  0  0  0  0
 42 39  1  0  0  0  0
 43  8  1  0  0  0  0
 43 37  2  0  0  0  0
 44  8  1  0  0  0  0
 44 45  1  0  0  0  0
 45 46  1  0  0  0  0
 47 45  2  0  0  0  0
 47 48  1  0  0  0  0
 49 47  1  0  0  0  0
 50 49  1  0  0  0  0
 51 53  1  0  0  0  0
 51 49  2  0  0  0  0
 52 51  1  0  0  0  0
 53 44  2  0  0  0  0
 54 53  1  0  0  0  0
 55 36  1  0  0  0  0
 55 64  1  0  0  0  0
 56 55  2  0  0  0  0
 57 56  1  0  0  0  0
 58 56  1  0  0  0  0
 58 60  2  0  0  0  0
 59 58  1  0  0  0  0
 60 62  1  0  0  0  0
 61 60  1  0  0  0  0
 62 64  2  0  0  0  0
 62 63  1  0  0  0  0
 64 65  1  0  0  0  0
 66 72  1  0  0  0  0
 67 73  1  0  0  0  0
 67  4  1  0  0  0  0
 67 66  1  0  0  0  0
 69 12  1  0  0  0  0
 70 12  1  0  0  0  0
 71 66  1  0  0  0  0
 74 67  1  0  0  0  0
M  END
