1,2,3,4
q = -2.0, confidence = 0.812

 18 17  0  0  0  0  0  0  0  0999 V2000
   -0.1102   -1.8152   -1.4069 S   0  0  0  0  0  1  0  0  0  0  0  0
   -0.1100    1.8153   -1.4068 S   0  0  0  0  0  1  0  0  0  0  0  0
    0.0915   -1.2738    1.3869 N   0  0  0  0  0  2  0  0  0  0  0  0
    0.0915    1.2738    1.3870 N   0  0  0  0  0  2  0  0  0  0  0  0
    0.1040   -2.5981    1.2196 N   0  0  0  0  0  0  0  0  0  0  0  0
    0.1043    2.5982    1.2198 N   0  0  0  0  0  0  0  0  0  0  0  0
    0.0278   -4.2736   -0.3481 N   0  0  0  0  0  0  0  0  0  0  0  0
    0.0964   -4.9501    0.4139 H   0  0  0  0  0  0  0  0  0  0  0  0
   -0.0361   -4.6003   -1.3110 H   0  0  0  0  0  0  0  0  0  0  0  0
    0.0283    4.2737   -0.3480 N   0  0  0  0  0  0  0  0  0  0  0  0
    0.0971    4.9502    0.4141 H   0  0  0  0  0  0  0  0  0  0  0  0
   -0.0354    4.6004   -1.3108 H   0  0  0  0  0  0  0  0  0  0  0  0
    0.0197   -2.9568   -0.0666 C   0  0  0  0  0  0  0  0  0  0  0  0
    0.1349   -0.7150    2.5929 C   0  0  0  0  0  0  0  0  0  0  0  0
    0.1816   -1.3378    3.4996 H   0  0  0  0  0  0  0  0  0  0  0  0
    0.1350    0.7150    2.5929 C   0  0  0  0  0  0  0  0  0  0  0  0
    0.1817    1.3377    3.4997 H   0  0  0  0  0  0  0  0  0  0  0  0
    0.0200    2.9569   -0.0664 C   0  0  0  0  0  0  0  0  0  0  0  0
  1 13  1  0  0  0  0
  2 18  1  0  0  0  0
  3 14  1  0  0  0  0
  4 16  1  0  0  0  0
  5  3  1  0  0  0  0
  6  4  1  0  0  0  0
  7 13  1  0  0  0  0
  7  8  1  0  0  0  0
  9  7  1  0  0  0  0
 10 18  1  0  0  0  0
 10 11  1  0  0  0  0
 12 10  1  0  0  0  0
 13  5  2  0  0  0  0
 14 16  2  0  0  0  0
 14 15  1  0  0  0  0
 16 17  1  0  0  0  0
 18  6  2  0  0  0  0
M  END
