1,2,3,4
q = 0.0, confidence = 0.596

 50 53  0  0  1  0  0  0  0  0999 V2000
   -1.5073   -2.8531    0.4733 S   0  0  0  0  0  1  0  0  0  0  0  0
    1.5072   -2.8532   -0.4732 S   0  0  0  0  0  1  0  0  0  0  0  0
   -1.2190   -0.0621    0.3018 N   0  0  0  0  0  2  0  0  0  0  0  0
    1.2190   -0.0621   -0.3018 N   0  0  0  0  0  2  0  0  0  0  0  0
   -2.7953   -1.7407    0.8285 C   0  0  0  0  0  0  0  0  0  0  0  0
   -2.4994   -0.3387    0.6560 C   0  0  0  0  0  0  0  0  0  0  0  0
   -3.5395    0.6181    0.8579 C   0  0  0  0  0  0  0  0  0  0  0  0
   -3.3451    1.6860    0.6896 H   0  0  0  0  0  0  0  0  0  0  0  0
   -4.7993    0.1879    1.2565 C   0  0  0  0  0  0  0  0  0  0  0  0
   -5.5980    0.9281    1.4149 H   0  0  0  0  0  0  0  0  0  0  0  0
   -5.0753   -1.1911    1.4560 C   0  0  0  0  0  0  0  0  0  0  0  0
   -6.0810   -1.5062    1.7714 H   0  0  0  0  0  0  0  0  0  0  0  0
   -4.0846   -2.1474    1.2403 C   0  0  0  0  0  0  0  0  0  0  0  0
   -4.2916   -3.2196    1.3752 H   0  0  0  0  0  0  0  0  0  0  0  0
   -0.7767    1.2782   -0.0661 C   0  0  2  0  0  0  0  0  0  0  0  0
   -1.1825    2.0263    0.6491 H   0  0  0  0  0  0  0  0  0  0  0  0
   -1.2235    1.6749   -1.4694 C   0  0  0  0  0  0  0  0  0  0  0  0
   -1.1168    0.7734   -2.5463 C   0  0  0  0  0  0  0  0  0  0  0  0
   -0.7503   -0.2476   -2.3590 H   0  0  0  0  0  0  0  0  0  0  0  0
   -1.4841    1.1705   -3.8396 C   0  0  0  0  0  0  0  0  0  0  0  0
   -1.3982    0.4563   -4.6726 H   0  0  0  0  0  0  0  0  0  0  0  0
   -1.9648    2.4695   -4.0730 C   0  0  0  0  0  0  0  0  0  0  0  0
   -2.2573    2.7769   -5.0885 H   0  0  0  0  0  0  0  0  0  0  0  0
   -2.0782    3.3711   -3.0037 C   0  0  0  0  0  0  0  0  0  0  0  0
   -2.4603    4.3889   -3.1761 H   0  0  0  0  0  0  0  0  0  0  0  0
   -1.7095    2.9734   -1.7091 C   0  0  0  0  0  0  0  0  0  0  0  0
   -1.8008    3.6818   -0.8693 H   0  0  0  0  0  0  0  0  0  0  0  0
    2.7953   -1.7408   -0.8283 C   0  0  0  0  0  0  0  0  0  0  0  0
    2.4994   -0.3388   -0.6559 C   0  0  0  0  0  0  0  0  0  0  0  0
    3.5396    0.6180   -0.8577 C   0  0  0  0  0  0  0  0  0  0  0  0
    3.3451    1.6859   -0.6896 H   0  0  0  0  0  0  0  0  0  0  0  0
    4.7993    0.1877   -1.2563 C   0  0  0  0  0  0  0  0  0  0  0  0
    5.5981    0.9279   -1.4147 H   0  0  0  0  0  0  0  0  0  0  0  0
    5.0754   -1.1913   -1.4556 C   0  0  0  0  0  0  0  0  0  0  0  0
    6.0811   -1.5064   -1.7710 H   0  0  0  0  0  0  0  0  0  0  0  0
    4.0847   -2.1475   -1.2400 C   0  0  0  0  0  0  0  0  0  0  0  0
    4.2916   -3.2197   -1.3748 H   0  0  0  0  0  0  0  0  0  0  0  0
    0.7767    1.2782    0.0660 C   0  0  1  0  0  0  0  0  0  0  0  0
    1.1825    2.0262   -0.6494 H   0  0  0  0  0  0  0  0  0  0  0  0
    1.2235    1.6750    1.4692 C   0  0  0  0  0  0  0  0  0  0  0  0
    1.1167    0.7737    2.5462 C   0  0  0  0  0  0  0  0  0  0  0  0
    0.7502   -0.2474    2.3590 H   0  0  0  0  0  0  0  0  0  0  0  0
    1.4840    1.1709    3.8394 C   0  0  0  0  0  0  0  0  0  0  0  0
    1.3981    0.4568    4.6725 H   0  0  0  0  0  0  0  0  0  0  0  0
    1.9648    2.4699    4.0727 C   0  0  0  0  0  0  0  0  0  0  0  0
    2.2573    2.7774    5.0882 H   0  0  0  0  0  0  0  0  0  0  0  0
    2.0783    3.3714    3.0033 C   0  0  0  0  0  0  0  0  0  0  0  0
    2.4604    4.3892    3.1756 H   0  0  0  0  0  0  0  0  0  0  0  0
    1.7096    2.9736    1.7088 C   0  0  0  0  0  0  0  0  0  0  0  0
    1.8009    3.6818    0.8689 H   0  0  0  0  0  0  0  0  0  0  0  0
  1  5  1  0  0  0  0
  3  6  1  0  0  0  0
  4 38  1  0  0  0  0
  5 13  1  0  0  0  0
  6  5  2  0  0  0  0
  6  7  1  0  0  0  0
  7  9  2  0  0  0  0
  8  7  1  0  0  0  0
  9 10  1  0  0  0  0
  9 11  1  0  0  0  0
 11 12  1  0  0  0  0
 13 14  1  0  0  0  0
 13 11  2  0  0  0  0
 15 38  1  0  0  0  0
 15  3  1  0  0  0  0
 15 16  1  1  0  0  0
 17 15  1  0  0  0  0
 18 19  1  0  0  0  0
 18 17  2  0  0  0  0
 20 18  1  0  0  0  0
 21 20  1  0  0  0  0
 22 20  2  0  0  0  0
 22 24  1  0  0  0  0
 23 22  1  0  0  0  0
 24 26  2  0  0  0  0
 25 24  1  0  0  0  0
 26 17  1  0  0  0  0
 26 27  1  0  0  0  0
 28 29  1  0  0  0  0
 28  2  1  0  0  0  0
 29  4  1  0  0  0  0
 30 31  1  0  0  0  0
 30 29  2  0  0  0  0
 32 30  1  0  0  0  0
 33 32  1  0  0  0  0
 34 32  2  0  0  0  0
 34 36  1  0  0  0  0
 35 34  1  0  0  0  0
 36 28  2  0  0  0  0
 37 36  1  0  0  0  0
 38 39  1  6  0  0  0
 38 40  1  0  0  0  0
 40 49  2  0  0  0  0
 40 41  1  0  0  0  0
 41 43  2  0  0  0  0
 42 41  1  0  0  0  0
 43 45  1  0  0  0  0
 43 44  1  0  0  0  0
 45 46  1  0  0  0  0
 47 48  1  0  0  0  0
 47 45  2  0  0  0  0
 49 47  1  0  0  0  0
 50 49  1  0  0  0  0
M  END
