1,2,3,4
q = -2.0, confidence = 0.904

 44 45  0  0  0  0  0  0  0  0999 V2000
   -1.5971   -0.2474    1.8318 S   0  0  0  0  0  1  0  0  0  0  0  0
    1.5964   -0.2489   -1.8314 S   0  0  0  0  0  1  0  0  0  0  0  0
   -1.1932    1.3860   -0.9373 N   0  0  0  0  0  0  0  0  0  0  0  0
    1.1936    1.3862    0.9367 N   0  0  0  0  0  0  0  0  0  0  0  0
   -3.1079   -0.4140    0.9000 C   0  0  0  0  0  0  0  0  0  0  0  0
   -3.9789   -1.4873    1.1639 C   0  0  0  0  0  0  0  0  0  0  0  0
   -5.1587   -1.6321    0.4201 C   0  0  0  0  0  0  0  0  0  0  0  0
   -5.4751   -0.7141   -0.5940 C   0  0  0  0  0  0  0  0  0  0  0  0
   -4.6094    0.3589   -0.8524 C   0  0  0  0  0  0  0  0  0  0  0  0
   -3.4278    0.5256   -0.1093 C   0  0  0  0  0  0  0  0  0  0  0  0
   -2.5159    1.6992   -0.3115 C   0  0  0  0  0  0  0  0  0  0  0  0
   -1.4002    1.1506   -2.3802 C   0  0  0  0  0  0  0  0  0  0  0  0
   -0.2848    2.5314   -0.7087 C   0  0  0  0  0  0  0  0  0  0  0  0
    0.2849    2.5314    0.7082 C   0  0  0  0  0  0  0  0  0  0  0  0
    1.4014    1.1516    2.3795 C   0  0  0  0  0  0  0  0  0  0  0  0
    2.5160    1.6992    0.3101 C   0  0  0  0  0  0  0  0  0  0  0  0
    3.4278    0.5256    0.1084 C   0  0  0  0  0  0  0  0  0  0  0  0
    4.6098    0.3595    0.8511 C   0  0  0  0  0  0  0  0  0  0  0  0
    5.4755   -0.7137    0.5931 C   0  0  0  0  0  0  0  0  0  0  0  0
    5.1587   -1.6323   -0.4203 C   0  0  0  0  0  0  0  0  0  0  0  0
    3.9787   -1.4882   -1.1636 C   0  0  0  0  0  0  0  0  0  0  0  0
    3.1076   -0.4148   -0.9001 C   0  0  0  0  0  0  0  0  0  0  0  0
   -3.7128   -2.2123    1.9467 H   0  0  0  0  0  0  0  0  0  0  0  0
   -5.8321   -2.4770    0.6300 H   0  0  0  0  0  0  0  0  0  0  0  0
   -6.3961   -0.8338   -1.1836 H   0  0  0  0  0  0  0  0  0  0  0  0
   -4.8552    1.0901   -1.6393 H   0  0  0  0  0  0  0  0  0  0  0  0
   -3.0169    2.4789   -0.9309 H   0  0  0  0  0  0  0  0  0  0  0  0
   -2.3101    2.1371    0.6849 H   0  0  0  0  0  0  0  0  0  0  0  0
   -0.4340    0.9210   -2.8669 H   0  0  0  0  0  0  0  0  0  0  0  0
   -2.0774    0.2864   -2.5100 H   0  0  0  0  0  0  0  0  0  0  0  0
   -1.8472    2.0472   -2.8694 H   0  0  0  0  0  0  0  0  0  0  0  0
   -0.8177    3.4929   -0.8980 H   0  0  0  0  0  0  0  0  0  0  0  0
    0.5335    2.4607   -1.4511 H   0  0  0  0  0  0  0  0  0  0  0  0
    0.8175    3.4930    0.8976 H   0  0  0  0  0  0  0  0  0  0  0  0
   -0.5334    2.4603    1.4506 H   0  0  0  0  0  0  0  0  0  0  0  0
    0.4356    0.9219    2.8670 H   0  0  0  0  0  0  0  0  0  0  0  0
    2.0791    0.2877    2.5094 H   0  0  0  0  0  0  0  0  0  0  0  0
    1.8484    2.0487    2.8680 H   0  0  0  0  0  0  0  0  0  0  0  0
    3.0171    2.4793    0.9288 H   0  0  0  0  0  0  0  0  0  0  0  0
    2.3096    2.1364   -0.6865 H   0  0  0  0  0  0  0  0  0  0  0  0
    4.8558    1.0912    1.6374 H   0  0  0  0  0  0  0  0  0  0  0  0
    6.3968   -0.8329    1.1824 H   0  0  0  0  0  0  0  0  0  0  0  0
    5.8322   -2.4773   -0.6299 H   0  0  0  0  0  0  0  0  0  0  0  0
    3.7124   -2.2138   -1.9459 H   0  0  0  0  0  0  0  0  0  0  0  0
  2 22  1  0  0  0  0
  3 13  1  0  0  0  0
  3 11  1  0  0  0  0
  4 15  1  0  0  0  0
  5  6  1  0  0  0  0
  5  1  1  0  0  0  0
  6 23  1  0  0  0  0
  7 24  1  0  0  0  0
  7  6  2  0  0  0  0
  8  7  1  0  0  0  0
  9  8  2  0  0  0  0
  9 10  1  0  0  0  0
 10  5  2  0  0  0  0
 11 10  1  0  0  0  0
 11 28  1  0  0  0  0
 12  3  1  0  0  0  0
 13 14  1  0  0  0  0
 14 34  1  0  0  0  0
 14  4  1  0  0  0  0
 14 35  1  0  0  0  0
 15 37  1  0  0  0  0
 15 36  1  0  0  0  0
 15 38  1  0  0  0  0
 16 39  1  0  0  0  0
 16  4  1  0  0  0  0
 17 16  1  0  0  0  0
 17 18  1  0  0  0  0
 18 41  1  0  0  0  0
 19 18  2  0  0  0  0
 19 42  1  0  0  0  0
 20 19  1  0  0  0  0
 21 22  1  0  0  0  0
 21 20  2  0  0  0  0
 22 17  2  0  0  0  0
 25  8  1  0  0  0  0
 26  9  1  0  0  0  0
 27 11  1  0  0  0  0
 29 12  1  0  0  0  0
 30 12  1  0  0  0  0
 31 12  1  0  0  0  0
 32 13  1  0  0  0  0
 33 13  1  0  0  0  0
 40 16  1  0  0  0  0
 43 20  1  0  0  0  0
 44 21  1  0  0  0  0
M  END
