1,2,3,4
q = 0.0, confidence = 0.766

 32 32  0  0  1  0  0  0  0  0999 V2000
    1.0446    0.7461    1.3231 S   0  0  0  0  0  0  0  0  0  0  0  0
   -1.0450    0.7436   -1.3246 S   0  0  0  0  0  0  0  0  0  0  0  0
    1.0235   -1.9442    0.7283 N   0  0  0  0  0  2  0  0  0  0  0  0
   -1.0213   -1.9460   -0.7267 N   0  0  0  0  0  2  0  0  0  0  0  0
    2.1907   -1.6811    1.3012 C   0  0  0  0  0  3  0  0  0  0  0  0
    2.5462   -0.2984    1.4588 C   0  0  1  0  0  3  0  0  0  0  0  0
    3.7678    0.2481    1.6477 C   0  0  0  0  0  0  0  0  0  0  0  0
    4.9053    0.8698    1.5860 C   0  0  0  0  0  3  0  0  0  0  0  0
   -2.1889   -1.6846   -1.2996 C   0  0  0  0  0  3  0  0  0  0  0  0
   -2.5456   -0.3024   -1.4591 C   0  0  1  0  0  3  0  0  0  0  0  0
   -4.9055    0.8639   -1.5857 C   0  0  0  0  0  3  0  0  0  0  0  0
   -3.7677    0.2428   -1.6487 C   0  0  0  0  0  0  0  0  0  0  0  0
    0.4812   -3.3035    0.5996 C   0  0  0  0  0  0  0  0  0  0  0  0
   -0.4779   -3.3046   -0.5963 C   0  0  0  0  0  0  0  0  0  0  0  0
    1.6250    2.3090    0.5455 C   0  0  0  0  0  0  0  0  0  0  0  0
    0.5264    3.3797    0.5583 C   0  0  0  0  0  0  0  0  0  0  0  0
   -0.5287    3.3785   -0.5633 C   0  0  0  0  0  0  0  0  0  0  0  0
   -1.6265    2.3069   -0.5489 C   0  0  0  0  0  0  0  0  0  0  0  0
    2.8793   -2.4800    1.6282 H   0  0  0  0  0  0  0  0  0  0  0  0
   -2.8770   -2.4844   -1.6251 H   0  0  0  0  0  0  0  0  0  0  0  0
    1.2845   -4.0619    0.4974 H   0  0  0  0  0  0  0  0  0  0  0  0
   -0.0714   -3.5220    1.5393 H   0  0  0  0  0  0  0  0  0  0  0  0
   -1.2805   -4.0636   -0.4932 H   0  0  0  0  0  0  0  0  0  0  0  0
    0.0749   -3.5238   -1.5357 H   0  0  0  0  0  0  0  0  0  0  0  0
    1.9915    2.0572   -0.4690 H   0  0  0  0  0  0  0  0  0  0  0  0
    2.4931    2.6095    1.1684 H   0  0  0  0  0  0  0  0  0  0  0  0
    1.0646    4.3480    0.4866 H   0  0  0  0  0  0  0  0  0  0  0  0
    0.0301    3.3990    1.5527 H   0  0  0  0  0  0  0  0  0  0  0  0
   -1.0677    4.3464   -0.4929 H   0  0  0  0  0  0  0  0  0  0  0  0
   -0.0324    3.3967   -1.5577 H   0  0  0  0  0  0  0  0  0  0  0  0
   -1.9926    2.0562    0.4660 H   0  0  0  0  0  0  0  0  0  0  0  0
   -2.4950    2.6060   -1.1719 H   0  0  0  0  0  0  0  0  0  0  0  0
  1  6  1  0  0  0  0
  2 18  1  0  0  0  0
  3  5  1  0  0  0  0
  4 14  1  0  0  0  0
  5  6  1  0  0  0  0
  5 19  1  0  0  0  0
  6  7  1  6  0  0  0
  8  7  3  0  0  0  0
  9  4  1  0  0  0  0
 10 12  1  1  0  0  0
 10  2  1  0  0  0  0
 10  9  1  0  0  0  0
 12 11  3  0  0  0  0
 13  3  1  0  0  0  0
 13 22  1  0  0  0  0
 14 23  1  0  0  0  0
 14 13  1  0  0  0  0
 15 16  1  0  0  0  0
 15 26  1  0  0  0  0
 15  1  1  0  0  0  0
 16 28  1  0  0  0  0
 17 18  1  0  0  0  0
 17 29  1  0  0  0  0
 17 16  1  0  0  0  0
 18 31  1  0  0  0  0
 20  9  1  0  0  0  0
 21 13  1  0  0  0  0
 24 14  1  0  0  0  0
 25 15  1  0  0  0  0
 27 16  1  0  0  0  0
 30 17  1  0  0  0  0
 32 18  1  0  0  0  0
M  END
