1,2,24,25
q = -2.0, confidence = 0.88

 46 46  0  0  1  0  0  0  0  0999 V2000
   -1.7996    1.7813   -1.2426 S   0  0  0  0  0  1  0  0  0  0  0  0
   -1.1210   -0.4401    0.9183 N   0  0  0  0  0  0  0  0  0  0  0  0
   -2.9677    0.9994   -0.0139 C   0  0  0  0  0  0  0  0  0  0  0  0
   -2.4740   -0.4223    0.3284 C   0  0  0  0  0  0  0  0  0  0  0  0
   -0.3041   -1.6606    0.7130 C   0  0  1  0  0  0  0  0  0  0  0  0
   -1.0599   -2.9646    1.0243 C   0  0  0  0  0  0  0  0  0  0  0  0
   -0.2298   -4.2171    0.7304 C   0  0  0  0  0  0  0  0  0  0  0  0
   -4.3422    0.8813   -0.6847 C   0  0  0  0  0  0  0  0  0  0  0  0
   -3.0690    1.8616    1.2537 C   0  0  0  0  0  0  0  0  0  0  0  0
   -1.1700   -0.2412    1.9246 H   0  0  0  0  0  0  0  0  0  0  0  0
    0.5429   -1.5639    1.4279 H   0  0  0  0  0  0  0  0  0  0  0  0
   -2.4508   -1.0014   -0.6157 H   0  0  0  0  0  0  0  0  0  0  0  0
   -3.2100   -0.9183    1.0047 H   0  0  0  0  0  0  0  0  0  0  0  0
   -1.9835   -3.0026    0.4078 H   0  0  0  0  0  0  0  0  0  0  0  0
   -1.3915   -2.9436    2.0842 H   0  0  0  0  0  0  0  0  0  0  0  0
    0.6608   -4.2455    1.3975 H   0  0  0  0  0  0  0  0  0  0  0  0
   -0.8220   -5.1268    0.9594 H   0  0  0  0  0  0  0  0  0  0  0  0
   -5.0826    0.4120   -0.0002 H   0  0  0  0  0  0  0  0  0  0  0  0
   -4.7187    1.8842   -0.9657 H   0  0  0  0  0  0  0  0  0  0  0  0
   -4.2788    0.2731   -1.6092 H   0  0  0  0  0  0  0  0  0  0  0  0
   -3.4114    2.8816    0.9941 H   0  0  0  0  0  0  0  0  0  0  0  0
   -3.7860    1.4237    1.9844 H   0  0  0  0  0  0  0  0  0  0  0  0
   -2.0832    1.9750    1.7511 H   0  0  0  0  0  0  0  0  0  0  0  0
    1.7997    1.7814    1.2426 S   0  0  0  0  0  1  0  0  0  0  0  0
    1.1210   -0.4401   -0.9184 N   0  0  0  0  0  0  0  0  0  0  0  0
    0.3041   -1.6607   -0.7130 C   0  0  1  0  0  0  0  0  0  0  0  0
    0.2298   -4.2171   -0.7303 C   0  0  0  0  0  0  0  0  0  0  0  0
    2.9677    0.9994    0.0139 C   0  0  0  0  0  0  0  0  0  0  0  0
    2.4740   -0.4223   -0.3284 C   0  0  0  0  0  0  0  0  0  0  0  0
    1.1702   -0.2414   -1.9248 H   0  0  0  0  0  0  0  0  0  0  0  0
    1.0600   -2.9646   -1.0242 C   0  0  0  0  0  0  0  0  0  0  0  0
   -0.5429   -1.5640   -1.4280 H   0  0  0  0  0  0  0  0  0  0  0  0
   -0.6607   -4.2456   -1.3973 H   0  0  0  0  0  0  0  0  0  0  0  0
    0.8221   -5.1268   -0.9592 H   0  0  0  0  0  0  0  0  0  0  0  0
    4.3422    0.8813    0.6847 C   0  0  0  0  0  0  0  0  0  0  0  0
    3.0689    1.8616   -1.2538 C   0  0  0  0  0  0  0  0  0  0  0  0
    2.4506   -1.0013    0.6158 H   0  0  0  0  0  0  0  0  0  0  0  0
    3.2100   -0.9184   -1.0045 H   0  0  0  0  0  0  0  0  0  0  0  0
    1.9835   -3.0026   -0.4077 H   0  0  0  0  0  0  0  0  0  0  0  0
    1.3915   -2.9437   -2.0841 H   0  0  0  0  0  0  0  0  0  0  0  0
    5.0826    0.4120    0.0001 H   0  0  0  0  0  0  0  0  0  0  0  0
    4.7187    1.8842    0.9655 H   0  0  0  0  0  0  0  0  0  0  0  0
    4.2788    0.2732    1.6091 H   0  0  0  0  0  0  0  0  0  0  0  0
    3.4114    2.8816   -0.9942 H   0  0  0  0  0  0  0  0  0  0  0  0
    3.7860    1.4237   -1.9845 H   0  0  0  0  0  0  0  0  0  0  0  0
    2.0831    1.9750   -1.7511 H   0  0  0  0  0  0  0  0  0  0  0  0
  1  3  1  0  0  0  0
  2 10  1  0  0  0  0
  3  4  1  0  0  0  0
  3  9  1  0  0  0  0
  4  2  1  0  0  0  0
  4 13  1  0  0  0  0
  5  2  1  0  0  0  0
  5  6  1  0  0  0  0
  5 11  1  1  0  0  0
  6 15  1  0  0  0  0
  7 17  1  0  0  0  0
  7  6  1  0  0  0  0
  7 16  1  0  0  0  0
  8  3  1  0  0  0  0
  8 18  1  0  0  0  0
  9 23  1  0  0  0  0
  9 22  1  0  0  0  0
 12  4  1  0  0  0  0
 14  6  1  0  0  0  0
 19  8  1  0  0  0  0
 20  8  1  0  0  0  0
 21  9  1  0  0  0  0
 25 26  1  0  0  0  0
 25 29  1  0  0  0  0
 26 32  1  6  0  0  0
 26  5  1  0  0  0  0
 27  7  1  0  0  0  0
 28 35  1  0  0  0  0
 28 24  1  0  0  0  0
 29 28  1  0  0  0  0
 29 37  1  0  0  0  0
 30 25  1  0  0  0  0
 31 27  1  0  0  0  0
 31 26  1  0  0  0  0
 31 39  1  0  0  0  0
 33 27  1  0  0  0  0
 34 27  1  0  0  0  0
 35 42  1  0  0  0  0
 35 43  1  0  0  0  0
 36 44  1  0  0  0  0
 36 28  1  0  0  0  0
 38 29  1  0  0  0  0
 40 31  1  0  0  0  0
 41 35  1  0  0  0  0
 45 36  1  0  0  0  0
 46 36  1  0  0  0  0
M  END
