1,3,24,27
q = -2.0, confidence = 0.854

 46 46  0  0  1  0  0  0  0  0999 V2000
   -2.0917   -1.5998   -0.6938 S   0  0  0  0  0  1  0  0  0  0  0  0
   -3.2517   -0.3950    0.1462 C   0  0  0  0  0  0  0  0  0  0  0  0
   -1.2070    0.8994    0.5901 N   0  0  0  0  0  0  0  0  0  0  0  0
   -1.3045    0.7685    1.6107 H   0  0  0  0  0  0  0  0  0  0  0  0
   -0.3052    2.0584    0.3753 C   0  0  2  0  0  0  0  0  0  0  0  0
   -0.7154    2.9369    0.9291 H   0  0  0  0  0  0  0  0  0  0  0  0
   -2.5806    0.9781    0.0364 C   0  0  0  0  0  0  0  0  0  0  0  0
   -2.5065    1.2371   -1.0356 H   0  0  0  0  0  0  0  0  0  0  0  0
   -3.1637    1.7760    0.5589 H   0  0  0  0  0  0  0  0  0  0  0  0
   -0.1300    2.4675   -1.0878 C   0  0  0  0  0  0  0  0  0  0  0  0
   -1.1083    2.5725   -1.5935 H   0  0  0  0  0  0  0  0  0  0  0  0
    0.3938    1.6407   -1.6130 H   0  0  0  0  0  0  0  0  0  0  0  0
   -3.4765   -0.8004    1.6109 C   0  0  0  0  0  0  0  0  0  0  0  0
   -4.1348   -0.0770    2.1442 H   0  0  0  0  0  0  0  0  0  0  0  0
   -2.5142   -0.8910    2.1563 H   0  0  0  0  0  0  0  0  0  0  0  0
   -3.9481   -1.8010    1.6559 H   0  0  0  0  0  0  0  0  0  0  0  0
    0.6543    3.7992   -1.1665 C   0  0  0  0  0  0  0  0  0  0  0  0
    1.2360    3.8180   -2.1109 H   0  0  0  0  0  0  0  0  0  0  0  0
   -0.0504    4.6545   -1.2229 H   0  0  0  0  0  0  0  0  0  0  0  0
   -4.5806   -0.3908   -0.6159 C   0  0  0  0  0  0  0  0  0  0  0  0
   -5.3130    0.3044   -0.1501 H   0  0  0  0  0  0  0  0  0  0  0  0
   -5.0239   -1.4065   -0.6102 H   0  0  0  0  0  0  0  0  0  0  0  0
   -4.4291   -0.0963   -1.6733 H   0  0  0  0  0  0  0  0  0  0  0  0
    0.9902   -2.3329   -0.7134 S   0  0  0  0  0  1  0  0  0  0  0  0
    2.6173   -1.7372   -0.0141 C   0  0  0  0  0  0  0  0  0  0  0  0
    2.5621   -0.2044    0.0173 C   0  0  0  0  0  0  0  0  0  0  0  0
    1.3557    0.2273    0.7683 N   0  0  0  0  0  0  0  0  0  0  0  0
    1.4373   -0.2132    1.6957 H   0  0  0  0  0  0  0  0  0  0  0  0
    1.0775    1.6973    0.9948 C   0  0  1  0  0  0  0  0  0  0  0  0
    1.6037    3.9927    0.0351 C   0  0  0  0  0  0  0  0  0  0  0  0
    2.1817    2.6450    0.4772 C   0  0  0  0  0  0  0  0  0  0  0  0
    0.9866    1.8272    2.0954 H   0  0  0  0  0  0  0  0  0  0  0  0
    2.9702    2.7696    1.2459 H   0  0  0  0  0  0  0  0  0  0  0  0
    2.6768    2.1891   -0.4024 H   0  0  0  0  0  0  0  0  0  0  0  0
    2.4241    4.6896   -0.2294 H   0  0  0  0  0  0  0  0  0  0  0  0
    1.0664    4.4670    0.8844 H   0  0  0  0  0  0  0  0  0  0  0  0
    2.4851    0.1635   -1.0238 H   0  0  0  0  0  0  0  0  0  0  0  0
    3.4901    0.2108    0.4779 H   0  0  0  0  0  0  0  0  0  0  0  0
    2.8376   -2.3218    1.3910 C   0  0  0  0  0  0  0  0  0  0  0  0
    3.7869   -1.9601    1.8478 H   0  0  0  0  0  0  0  0  0  0  0  0
    1.9933   -2.0871    2.0729 H   0  0  0  0  0  0  0  0  0  0  0  0
    2.8772   -3.4266    1.3329 H   0  0  0  0  0  0  0  0  0  0  0  0
    3.7419   -2.1862   -0.9542 C   0  0  0  0  0  0  0  0  0  0  0  0
    4.7392   -1.8715   -0.5751 H   0  0  0  0  0  0  0  0  0  0  0  0
    3.7435   -3.2908   -1.0426 H   0  0  0  0  0  0  0  0  0  0  0  0
    3.5946   -1.7692   -1.9699 H   0  0  0  0  0  0  0  0  0  0  0  0
  1  2  1  0  0  0  0
  2 13  1  0  0  0  0
  3  4  1  0  0  0  0
  5  3  1  0  0  0  0
  5  6  1  1  0  0  0
  5 29  1  0  0  0  0
  7  2  1  0  0  0  0
  7  9  1  0  0  0  0
  7  3  1  0  0  0  0
  8  7  1  0  0  0  0
 10  5  1  0  0  0  0
 11 10  1  0  0  0  0
 12 10  1  0  0  0  0
 13 16  1  0  0  0  0
 13 14  1  0  0  0  0
 13 15  1  0  0  0  0
 17 10  1  0  0  0  0
 17 30  1  0  0  0  0
 18 17  1  0  0  0  0
 19 17  1  0  0  0  0
 20 22  1  0  0  0  0
 20 21  1  0  0  0  0
 20  2  1  0  0  0  0
 23 20  1  0  0  0  0
 24 25  1  0  0  0  0
 25 26  1  0  0  0  0
 25 39  1  0  0  0  0
 26 38  1  0  0  0  0
 26 27  1  0  0  0  0
 27 29  1  0  0  0  0
 27 28  1  0  0  0  0
 29 32  1  1  0  0  0
 30 31  1  0  0  0  0
 30 36  1  0  0  0  0
 31 29  1  0  0  0  0
 31 33  1  0  0  0  0
 34 31  1  0  0  0  0
 35 30  1  0  0  0  0
 37 26  1  0  0  0  0
 39 40  1  0  0  0  0
 39 41  1  0  0  0  0
 42 39  1  0  0  0  0
 43 44  1  0  0  0  0
 43 25  1  0  0  0  0
 45 43  1  0  0  0  0
 46 43  1  0  0  0  0
M  END
