1,2,7,8
q = 0.0, confidence = 0.996

 36 36  0  0  1  0  0  0  0  0999 V2000
    1.9166   -2.1008   -0.6968 S   0  0  0  0  0  1  0  0  0  0  0  0
   -2.0426   -2.1662   -0.1563 S   0  0  0  0  0  1  0  0  0  0  0  0
    4.2975   -0.9596   -0.3355 N   0  0  0  0  0  0  0  0  0  0  0  0
    4.8950   -0.1284   -0.3308 H   0  0  0  0  0  0  0  0  0  0  0  0
    2.5323    0.5284   -0.3920 N   0  0  0  0  0  0  0  0  0  0  0  0
    3.1594    1.2421    0.0050 H   0  0  0  0  0  0  0  0  0  0  0  0
    1.2273    0.7684   -0.4932 N   0  0  0  0  0  2  0  0  0  0  0  0
   -1.3168    0.7275   -0.2915 N   0  0  0  0  0  2  0  0  0  0  0  0
   -2.6281    0.4814   -0.3322 N   0  0  0  0  0  0  0  0  0  0  0  0
   -3.2989    1.2585   -0.4007 H   0  0  0  0  0  0  0  0  0  0  0  0
   -4.4180   -0.9819   -0.3072 N   0  0  0  0  0  0  0  0  0  0  0  0
   -5.0081   -0.1523   -0.4085 H   0  0  0  0  0  0  0  0  0  0  0  0
    4.9552   -2.2580   -0.3204 C   0  0  0  0  0  0  0  0  0  0  0  0
    6.0009   -2.1209    0.0083 H   0  0  0  0  0  0  0  0  0  0  0  0
    4.9452   -2.7278   -1.3260 H   0  0  0  0  0  0  0  0  0  0  0  0
    4.4316   -2.9359    0.3818 H   0  0  0  0  0  0  0  0  0  0  0  0
    2.9691   -0.7944   -0.4550 C   0  0  1  0  0  3  0  0  0  0  0  0
    0.6850    1.9436   -0.3421 C   0  0  2  0  0  3  0  0  0  0  0  0
    1.4329    3.2129   -0.0423 C   0  0  0  0  0  0  0  0  0  0  0  0
    2.3985    3.2258   -0.5926 H   0  0  0  0  0  0  0  0  0  0  0  0
    1.6847    3.1844    1.0452 H   0  0  0  0  0  0  0  0  0  0  0  0
    0.6201    4.4781   -0.3533 C   0  0  0  0  0  0  0  0  0  0  0  0
    1.1504    5.3639    0.0473 H   0  0  0  0  0  0  0  0  0  0  0  0
    0.5579    4.6192   -1.4540 H   0  0  0  0  0  0  0  0  0  0  0  0
   -0.7886    4.3847    0.2359 C   0  0  0  0  0  0  0  0  0  0  0  0
   -1.3467    5.3260    0.0659 H   0  0  0  0  0  0  0  0  0  0  0  0
   -0.7273    4.2450    1.3366 H   0  0  0  0  0  0  0  0  0  0  0  0
   -1.5703    3.2132   -0.3829 C   0  0  0  0  0  0  0  0  0  0  0  0
   -2.5452    3.0921    0.1380 H   0  0  0  0  0  0  0  0  0  0  0  0
   -1.8084    3.4477   -1.4466 H   0  0  0  0  0  0  0  0  0  0  0  0
   -0.7947    1.9237   -0.3427 C   0  0  2  0  0  3  0  0  0  0  0  0
   -3.0822   -0.8282   -0.2628 C   0  0  1  0  0  3  0  0  0  0  0  0
   -5.0827   -2.2763   -0.2447 C   0  0  0  0  0  0  0  0  0  0  0  0
   -6.1740   -2.1103   -0.2128 H   0  0  0  0  0  0  0  0  0  0  0  0
   -4.7675   -2.8292    0.6630 H   0  0  0  0  0  0  0  0  0  0  0  0
   -4.8318   -2.8958   -1.1303 H   0  0  0  0  0  0  0  0  0  0  0  0
  3  4  1  0  0  0  0
  3 13  1  0  0  0  0
  5  6  1  0  0  0  0
  7  5  1  0  0  0  0
  9  8  1  0  0  0  0
  9 32  1  0  0  0  0
 10  9  1  0  0  0  0
 11 32  1  0  0  0  0
 11 33  1  0  0  0  0
 12 11  1  0  0  0  0
 13 14  1  0  0  0  0
 13 16  1  0  0  0  0
 15 13  1  0  0  0  0
 17  1  1  6  0  0  0
 17  5  1  0  0  0  0
 17  3  1  0  0  0  0
 18  7  1  1  0  0  0
 18 19  1  0  0  0  0
 19 21  1  0  0  0  0
 20 19  1  0  0  0  0
 22 19  1  0  0  0  0
 22 23  1  0  0  0  0
 22 25  1  0  0  0  0
 24 22  1  0  0  0  0
 25 27  1  0  0  0  0
 26 25  1  0  0  0  0
 28 31  1  0  0  0  0
 28 29  1  0  0  0  0
 28 25  1  0  0  0  0
 30 28  1  0  0  0  0
 31 18  1  0  0  0  0
 31  8  1  1  0  0  0
 32  2  1  6  0  0  0
 33 34  1  0  0  0  0
 33 35  1  0  0  0  0
 36 33  1  0  0  0  0
M  END
