1,2,5,6
q = 0.0, confidence = 0.988

 60 61  0  0  0  0  0  0  0  0999 V2000
    2.2611   -0.7188   -0.1843 S   0  0  2  0  0  3  0  0  0  0  0  0
   -2.2611   -0.7187    0.1843 S   0  0  2  0  0  3  0  0  0  0  0  0
   -3.0821   -1.7930   -0.5363 O   0  0  0  0  0  1  0  0  0  0  0  0
    3.0821   -1.7930    0.5363 O   0  0  0  0  0  1  0  0  0  0  0  0
    0.1209   -2.2851   -1.4851 N   0  0  0  0  0  0  0  0  0  0  0  0
   -0.1210   -2.2852    1.4851 N   0  0  0  0  0  0  0  0  0  0  0  0
    2.3361   -1.1885   -1.9635 C   0  0  0  0  0  0  0  0  0  0  0  0
    1.8739   -0.3524   -2.5277 H   0  0  0  0  0  0  0  0  0  0  0  0
    3.3972   -1.3487   -2.2373 H   0  0  0  0  0  0  0  0  0  0  0  0
    1.5270   -2.4735   -1.9974 C   0  0  0  0  0  0  0  0  0  0  0  0
    1.4839   -2.8876   -3.0270 H   0  0  0  0  0  0  0  0  0  0  0  0
    2.0434   -3.2186   -1.3609 H   0  0  0  0  0  0  0  0  0  0  0  0
   -0.3056   -3.4822   -0.6988 C   0  0  0  0  0  0  0  0  0  0  0  0
   -0.0262   -4.4205   -1.2320 H   0  0  0  0  0  0  0  0  0  0  0  0
   -1.4120   -3.4414   -0.6489 H   0  0  0  0  0  0  0  0  0  0  0  0
    0.3054   -3.4822    0.6987 C   0  0  0  0  0  0  0  0  0  0  0  0
    0.0260   -4.4206    1.2319 H   0  0  0  0  0  0  0  0  0  0  0  0
    1.4119   -3.4415    0.6488 H   0  0  0  0  0  0  0  0  0  0  0  0
   -1.5271   -2.4735    1.9974 C   0  0  0  0  0  0  0  0  0  0  0  0
   -2.0435   -3.2186    1.3608 H   0  0  0  0  0  0  0  0  0  0  0  0
   -1.4840   -2.8876    3.0270 H   0  0  0  0  0  0  0  0  0  0  0  0
   -2.3361   -1.1885    1.9634 C   0  0  0  0  0  0  0  0  0  0  0  0
   -1.8738   -0.3525    2.5277 H   0  0  0  0  0  0  0  0  0  0  0  0
   -3.3972   -1.3487    2.2373 H   0  0  0  0  0  0  0  0  0  0  0  0
   -3.2539    0.7946    0.0878 C   0  0  0  0  0  0  0  0  0  0  0  0
   -2.7060    2.0591    0.3482 C   0  0  0  0  0  0  0  0  0  0  0  0
   -1.6488    2.1507    0.6419 H   0  0  0  0  0  0  0  0  0  0  0  0
   -3.5425    3.1763    0.2386 C   0  0  0  0  0  0  0  0  0  0  0  0
   -3.1251    4.1753    0.4419 H   0  0  0  0  0  0  0  0  0  0  0  0
   -4.8980    3.0549   -0.1376 C   0  0  0  0  0  0  0  0  0  0  0  0
   -5.4053    1.7671   -0.4047 C   0  0  0  0  0  0  0  0  0  0  0  0
   -6.4580    1.6513   -0.7078 H   0  0  0  0  0  0  0  0  0  0  0  0
   -4.5901    0.6317   -0.3011 C   0  0  0  0  0  0  0  0  0  0  0  0
   -4.9630   -0.3770   -0.5316 H   0  0  0  0  0  0  0  0  0  0  0  0
   -5.7666    4.2794   -0.2718 C   0  0  0  0  0  0  0  0  0  0  0  0
   -6.8302    4.0142   -0.4263 H   0  0  0  0  0  0  0  0  0  0  0  0
   -5.4455    4.9007   -1.1348 H   0  0  0  0  0  0  0  0  0  0  0  0
   -5.6981    4.9239    0.6284 H   0  0  0  0  0  0  0  0  0  0  0  0
    0.7851   -2.0798    2.6439 C   0  0  0  0  0  0  0  0  0  0  0  0
    0.7359   -2.9569    3.3282 H   0  0  0  0  0  0  0  0  0  0  0  0
    0.4814   -1.1570    3.1702 H   0  0  0  0  0  0  0  0  0  0  0  0
    1.8170   -1.9498    2.2697 H   0  0  0  0  0  0  0  0  0  0  0  0
   -0.7852   -2.0796   -2.6439 C   0  0  0  0  0  0  0  0  0  0  0  0
   -0.7360   -2.9567   -3.3282 H   0  0  0  0  0  0  0  0  0  0  0  0
   -0.4814   -1.1568   -3.1701 H   0  0  0  0  0  0  0  0  0  0  0  0
   -1.8171   -1.9496   -2.2697 H   0  0  0  0  0  0  0  0  0  0  0  0
    3.2539    0.7946   -0.0878 C   0  0  0  0  0  0  0  0  0  0  0  0
    4.5901    0.6317    0.3011 C   0  0  0  0  0  0  0  0  0  0  0  0
    4.9630   -0.3771    0.5316 H   0  0  0  0  0  0  0  0  0  0  0  0
    5.4053    1.7670    0.4047 C   0  0  0  0  0  0  0  0  0  0  0  0
    6.4580    1.6512    0.7078 H   0  0  0  0  0  0  0  0  0  0  0  0
    4.8980    3.0549    0.1376 C   0  0  0  0  0  0  0  0  0  0  0  0
    5.7667    4.2794    0.2718 C   0  0  0  0  0  0  0  0  0  0  0  0
    5.6987    4.9235   -0.6287 H   0  0  0  0  0  0  0  0  0  0  0  0
    6.8302    4.0141    0.4269 H   0  0  0  0  0  0  0  0  0  0  0  0
    5.4452    4.9010    1.1343 H   0  0  0  0  0  0  0  0  0  0  0  0
    3.5425    3.1763   -0.2386 C   0  0  0  0  0  0  0  0  0  0  0  0
    3.1251    4.1753   -0.4419 H   0  0  0  0  0  0  0  0  0  0  0  0
    2.7060    2.0591   -0.3481 C   0  0  0  0  0  0  0  0  0  0  0  0
    1.6489    2.1507   -0.6419 H   0  0  0  0  0  0  0  0  0  0  0  0
  1 47  1  0  0  0  0
  1  4  1  1  0  0  0
  2  3  1  6  0  0  0
  2 22  1  0  0  0  0
  5 13  1  0  0  0  0
  6 19  1  0  0  0  0
  6 39  1  0  0  0  0
  7  1  1  0  0  0  0
  8  7  1  0  0  0  0
  9  7  1  0  0  0  0
 10  7  1  0  0  0  0
 10  5  1  0  0  0  0
 10 12  1  0  0  0  0
 11 10  1  0  0  0  0
 13 15  1  0  0  0  0
 13 16  1  0  0  0  0
 14 13  1  0  0  0  0
 16 17  1  0  0  0  0
 16  6  1  0  0  0  0
 18 16  1  0  0  0  0
 19 21  1  0  0  0  0
 20 19  1  0  0  0  0
 22 19  1  0  0  0  0
 22 24  1  0  0  0  0
 22 23  1  0  0  0  0
 25  2  1  0  0  0  0
 25 26  1  0  0  0  0
 26 27  1  0  0  0  0
 28 26  2  0  0  0  0
 28 29  1  0  0  0  0
 30 28  1  0  0  0  0
 31 33  1  0  0  0  0
 31 30  2  0  0  0  0
 32 31  1  0  0  0  0
 33 25  2  0  0  0  0
 34 33  1  0  0  0  0
 35 30  1  0  0  0  0
 35 38  1  0  0  0  0
 36 35  1  0  0  0  0
 37 35  1  0  0  0  0
 39 41  1  0  0  0  0
 39 40  1  0  0  0  0
 42 39  1  0  0  0  0
 43 46  1  0  0  0  0
 43  5  1  0  0  0  0
 44 43  1  0  0  0  0
 45 43  1  0  0  0  0
 47 48  1  0  0  0  0
 48 50  2  0  0  0  0
 48 49  1  0  0  0  0
 50 51  1  0  0  0  0
 52 53  1  0  0  0  0
 52 50  1  0  0  0  0
 53 55  1  0  0  0  0
 53 56  1  0  0  0  0
 54 53  1  0  0  0  0
 57 52  2  0  0  0  0
 58 57  1  0  0  0  0
 59 57  1  0  0  0  0
 59 47  2  0  0  0  0
 60 59  1  0  0  0  0
M  END
