33,34,36,37
q = 0.0, confidence = 1.0

 37 37  0  0  0  0  0  0  0  0999 V2000
   -2.8278    1.9078    0.4247 C   0  0  0  0  0  0  0  0  0  0  0  0
   -1.7280    2.9317    0.1519 C   0  0  0  0  0  0  0  0  0  0  0  0
    0.6823    3.3430    0.1289 C   0  0  0  0  0  0  0  0  0  0  0  0
    2.0164    2.8679    0.6824 C   0  0  0  0  0  0  0  0  0  0  0  0
    3.1844    0.7894    0.8488 C   0  0  0  0  0  0  0  0  0  0  0  0
    2.3949    0.0301    1.9176 C   0  0  0  0  0  0  0  0  0  0  0  0
    0.6891   -1.6821    2.2673 C   0  0  0  0  0  0  0  0  0  0  0  0
   -0.0448   -2.8357    1.5823 C   0  0  0  0  0  0  0  0  0  0  0  0
   -2.5300   -1.5217    1.1821 C   0  0  0  0  0  0  0  0  0  0  0  0
   -3.4765   -0.8345    0.1985 C   0  0  0  0  0  0  0  0  0  0  0  0
   -3.8216    2.3953    0.3550 H   0  0  0  0  0  0  0  0  0  0  0  0
   -2.7217    1.4954    1.4510 H   0  0  0  0  0  0  0  0  0  0  0  0
   -1.7430    3.2200   -0.9217 H   0  0  0  0  0  0  0  0  0  0  0  0
   -1.9666    3.8648    0.7239 H   0  0  0  0  0  0  0  0  0  0  0  0
   -0.3540    2.1998    1.4709 H   0  0  0  0  0  0  0  0  0  0  0  0
    0.7493    3.4177   -0.9771 H   0  0  0  0  0  0  0  0  0  0  0  0
    0.4914    4.3749    0.5196 H   0  0  0  0  0  0  0  0  0  0  0  0
    2.7892    3.6566    0.5073 H   0  0  0  0  0  0  0  0  0  0  0  0
    1.9254    2.7547    1.7921 H   0  0  0  0  0  0  0  0  0  0  0  0
    3.6210    0.0600    0.1360 H   0  0  0  0  0  0  0  0  0  0  0  0
    4.0243    1.3463    1.3281 H   0  0  0  0  0  0  0  0  0  0  0  0
    3.1332   -0.5113    2.5662 H   0  0  0  0  0  0  0  0  0  0  0  0
    1.8711    0.7432    2.5965 H   0  0  0  0  0  0  0  0  0  0  0  0
    1.9205   -1.5018    0.6492 H   0  0  0  0  0  0  0  0  0  0  0  0
    1.3648   -2.1482    3.0327 H   0  0  0  0  0  0  0  0  0  0  0  0
   -0.0189   -1.0430    2.8454 H   0  0  0  0  0  0  0  0  0  0  0  0
    0.6925   -3.4705    1.0469 H   0  0  0  0  0  0  0  0  0  0  0  0
   -0.5632   -3.4668    2.3332 H   0  0  0  0  0  0  0  0  0  0  0  0
   -3.1055   -2.2548    1.7884 H   0  0  0  0  0  0  0  0  0  0  0  0
   -2.0807   -0.7817    1.8783 H   0  0  0  0  0  0  0  0  0  0  0  0
   -3.8403   -1.5603   -0.5580 H   0  0  0  0  0  0  0  0  0  0  0  0
   -4.3713   -0.4403    0.7230 H   0  0  0  0  0  0  0  0  0  0  0  0
   -0.4007    2.4167    0.4653 N   0  0  0  0  0  0  0  0  0  0  0  0
    1.4232   -0.8671    1.3156 N   0  0  0  0  0  0  0  0  0  0  0  0
    2.3792    1.6570    0.0650 O   0  0  0  0  0  0  0  0  0  0  0  0
   -2.7446    0.5296   -0.7837 S   0  0  0  0  0  0  0  0  0  0  0  0
   -1.2117   -2.3849    0.2519 S   0  0  0  0  0  0  0  0  0  0  0  0
  1 12  1  0  0  0  0
  2  1  1  0  0  0  0
  2 33  1  0  0  0  0
  2 14  1  0  0  0  0
  3 33  1  0  0  0  0
  3 17  1  0  0  0  0
  3  4  1  0  0  0  0
  4 19  1  0  0  0  0
  5 21  1  0  0  0  0
  5  6  1  0  0  0  0
  6 22  1  0  0  0  0
  6 23  1  0  0  0  0
  7 26  1  0  0  0  0
  7 25  1  0  0  0  0
  8  7  1  0  0  0  0
  8 28  1  0  0  0  0
  9 29  1  0  0  0  0
  9 30  1  0  0  0  0
 10 32  1  0  0  0  0
 10  9  1  0  0  0  0
 11  1  1  0  0  0  0
 13  2  1  0  0  0  0
 16  3  1  0  0  0  0
 18  4  1  0  0  0  0
 20  5  1  0  0  0  0
 24 34  1  0  0  0  0
 27  8  1  0  0  0  0
 31 10  1  0  0  0  0
 33 15  1  0  0  0  0
 34  6  1  0  0  0  0
 34  7  1  0  0  0  0
 35  4  1  0  0  0  0
 35  5  1  0  0  0  0
 36 10  1  0  0  0  0
 36  1  1  0  0  0  0
 37  9  1  0  0  0  0
 37  8  1  0  0  0  0
M  END
