1,2,3,4
q = -1.0, confidence = 0.012

 76 81  0  0  0  0  0  0  0  0999 V2000
   -1.2898    1.0759    0.4251 S   0  0  0  0  0  1  0  0  0  0  0  0
    1.4880    1.1875   -0.0176 S   0  0  0  0  0  0  0  0  0  0  0  0
   -1.3869   -1.4948   -1.1954 N   0  0  0  0  0  2  0  0  0  0  0  0
    1.1616   -1.7732   -1.0989 N   0  0  0  0  0  2  0  0  0  0  0  0
   -2.6720   -1.1899   -1.5024 C   0  0  0  0  0  0  0  0  0  0  0  0
   -3.6087   -2.2128   -1.7325 C   0  0  0  0  0  0  0  0  0  0  0  0
   -4.6452   -1.9368   -1.9683 H   0  0  0  0  0  0  0  0  0  0  0  0
   -3.2247   -3.5535   -1.6254 C   0  0  0  0  0  0  0  0  0  0  0  0
   -3.9584   -4.3589   -1.7731 H   0  0  0  0  0  0  0  0  0  0  0  0
   -1.8868   -3.8549   -1.3484 C   0  0  0  0  0  0  0  0  0  0  0  0
   -1.5438   -4.8966   -1.2997 H   0  0  0  0  0  0  0  0  0  0  0  0
   -0.9795   -2.8025   -1.1646 C   0  0  0  0  0  0  0  0  0  0  0  0
    0.4722   -2.9604   -1.0294 C   0  0  0  0  0  0  0  0  0  0  0  0
    1.1309   -4.1919   -0.9114 C   0  0  0  0  0  0  0  0  0  0  0  0
    0.5520   -5.1209   -0.8266 H   0  0  0  0  0  0  0  0  0  0  0  0
    2.5293   -4.2166   -0.9016 C   0  0  0  0  0  0  0  0  0  0  0  0
    3.0719   -5.1669   -0.7973 H   0  0  0  0  0  0  0  0  0  0  0  0
    3.2228   -3.0102   -1.0523 C   0  0  0  0  0  0  0  0  0  0  0  0
    4.3207   -2.9909   -1.0890 H   0  0  0  0  0  0  0  0  0  0  0  0
    2.5194   -1.7988   -1.1563 C   0  0  0  0  0  0  0  0  0  0  0  0
   -3.0706    0.8480   -0.0969 C   0  0  0  0  0  0  0  0  0  0  0  0
   -3.0730    0.2539   -1.5259 C   0  0  0  0  0  0  0  0  0  0  0  0
   -4.0917    0.3353   -1.9536 H   0  0  0  0  0  0  0  0  0  0  0  0
   -2.3793    0.8304   -2.1713 H   0  0  0  0  0  0  0  0  0  0  0  0
   -3.8560   -0.1015    0.8213 C   0  0  0  0  0  0  0  0  0  0  0  0
   -5.2618   -0.1353    0.6936 C   0  0  0  0  0  0  0  0  0  0  0  0
   -5.7649    0.5821    0.0264 H   0  0  0  0  0  0  0  0  0  0  0  0
   -6.0245   -1.0608    1.4191 C   0  0  0  0  0  0  0  0  0  0  0  0
   -7.1198   -1.0677    1.3123 H   0  0  0  0  0  0  0  0  0  0  0  0
   -5.3950   -1.9674    2.2883 C   0  0  0  0  0  0  0  0  0  0  0  0
   -5.9938   -2.6896    2.8632 H   0  0  0  0  0  0  0  0  0  0  0  0
   -4.0004   -1.9327    2.4293 C   0  0  0  0  0  0  0  0  0  0  0  0
   -3.4985   -2.6275    3.1199 H   0  0  0  0  0  0  0  0  0  0  0  0
   -3.2367   -1.0057    1.7011 C   0  0  0  0  0  0  0  0  0  0  0  0
   -2.1434   -0.9665    1.8175 H   0  0  0  0  0  0  0  0  0  0  0  0
   -3.6212    2.2722   -0.0422 C   0  0  0  0  0  0  0  0  0  0  0  0
   -3.8961    2.8351    1.2242 C   0  0  0  0  0  0  0  0  0  0  0  0
   -3.7380    2.2285    2.1286 H   0  0  0  0  0  0  0  0  0  0  0  0
   -4.3695    4.1480    1.3359 C   0  0  0  0  0  0  0  0  0  0  0  0
   -4.5789    4.5688    2.3308 H   0  0  0  0  0  0  0  0  0  0  0  0
   -4.5825    4.9221    0.1836 C   0  0  0  0  0  0  0  0  0  0  0  0
   -4.9609    5.9516    0.2694 H   0  0  0  0  0  0  0  0  0  0  0  0
   -4.3135    4.3723   -1.0786 C   0  0  0  0  0  0  0  0  0  0  0  0
   -4.4824    4.9688   -1.9877 H   0  0  0  0  0  0  0  0  0  0  0  0
   -3.8322    3.0585   -1.1916 C   0  0  0  0  0  0  0  0  0  0  0  0
   -3.6253    2.6567   -2.1936 H   0  0  0  0  0  0  0  0  0  0  0  0
    3.2176    0.4359   -0.1319 C   0  0  0  0  0  0  0  0  0  0  0  0
    3.2588   -0.5056   -1.3565 C   0  0  0  0  0  0  0  0  0  0  0  0
    2.8665    0.0112   -2.2577 H   0  0  0  0  0  0  0  0  0  0  0  0
    4.3197   -0.7469   -1.5616 H   0  0  0  0  0  0  0  0  0  0  0  0
    3.4608   -0.3791    1.1431 C   0  0  0  0  0  0  0  0  0  0  0  0
    2.4203   -0.8686    1.9552 C   0  0  0  0  0  0  0  0  0  0  0  0
    1.3720   -0.6081    1.7395 H   0  0  0  0  0  0  0  0  0  0  0  0
    2.7017   -1.6955    3.0543 C   0  0  0  0  0  0  0  0  0  0  0  0
    1.8756   -2.0572    3.6846 H   0  0  0  0  0  0  0  0  0  0  0  0
    4.0247   -2.0530    3.3494 C   0  0  0  0  0  0  0  0  0  0  0  0
    4.2447   -2.6994    4.2119 H   0  0  0  0  0  0  0  0  0  0  0  0
    5.0688   -1.5707    2.5434 C   0  0  0  0  0  0  0  0  0  0  0  0
    6.1118   -1.8357    2.7729 H   0  0  0  0  0  0  0  0  0  0  0  0
    4.7900   -0.7371    1.4519 C   0  0  0  0  0  0  0  0  0  0  0  0
    5.6155   -0.3470    0.8369 H   0  0  0  0  0  0  0  0  0  0  0  0
    4.1614    1.6283   -0.2397 C   0  0  0  0  0  0  0  0  0  0  0  0
    4.8678    1.9389   -1.4178 C   0  0  0  0  0  0  0  0  0  0  0  0
    4.7844    1.3037   -2.3108 H   0  0  0  0  0  0  0  0  0  0  0  0
    5.6972    3.0715   -1.4730 C   0  0  0  0  0  0  0  0  0  0  0  0
    6.2483    3.2958   -2.3983 H   0  0  0  0  0  0  0  0  0  0  0  0
    5.8228    3.9109   -0.3573 C   0  0  0  0  0  0  0  0  0  0  0  0
    6.4720    4.7978   -0.4032 H   0  0  0  0  0  0  0  0  0  0  0  0
    5.1170    3.6115    0.8207 C   0  0  0  0  0  0  0  0  0  0  0  0
    5.2110    4.2633    1.7020 H   0  0  0  0  0  0  0  0  0  0  0  0
    4.2960    2.4796    0.8800 C   0  0  0  0  0  0  0  0  0  0  0  0
    3.7489    2.2451    1.8058 H   0  0  0  0  0  0  0  0  0  0  0  0
    1.4629    2.3298   -1.4320 C   0  0  0  0  0  0  0  0  0  0  0  0
    2.2010    3.1342   -1.2571 H   0  0  0  0  0  0  0  0  0  0  0  0
    0.4344    2.7364   -1.4289 H   0  0  0  0  0  0  0  0  0  0  0  0
    1.6662    1.8130   -2.3892 H   0  0  0  0  0  0  0  0  0  0  0  0
  3 12  1  0  0  0  0
  4 13  1  0  0  0  0
  5  3  1  0  0  0  0
  6  8  1  0  0  0  0
  6  5  2  0  0  0  0
  7  6  1  0  0  0  0
  8 10  2  0  0  0  0
  9  8  1  0  0  0  0
 10 11  1  0  0  0  0
 10 12  1  0  0  0  0
 12 13  2  0  0  0  0
 13 14  1  0  0  0  0
 14 16  2  0  0  0  0
 14 15  1  0  0  0  0
 16 17  1  0  0  0  0
 18 16  1  0  0  0  0
 19 18  1  0  0  0  0
 20  4  1  0  0  0  0
 20 18  2  0  0  0  0
 21 36  1  0  0  0  0
 21  1  1  0  0  0  0
 21 25  1  0  0  0  0
 22  5  1  0  0  0  0
 22 21  1  0  0  0  0
 23 22  1  0  0  0  0
 24 22  1  0  0  0  0
 25 34  1  0  0  0  0
 26 25  2  0  0  0  0
 26 28  1  0  0  0  0
 27 26  1  0  0  0  0
 28 30  2  0  0  0  0
 29 28  1  0  0  0  0
 30 32  1  0  0  0  0
 30 31  1  0  0  0  0
 32 33  1  0  0  0  0
 34 35  1  0  0  0  0
 34 32  2  0  0  0  0
 36 37  1  0  0  0  0
 37 39  2  0  0  0  0
 37 38  1  0  0  0  0
 39 40  1  0  0  0  0
 41 42  1  0  0  0  0
 41 39  1  0  0  0  0
 43 41  2  0  0  0  0
 44 43  1  0  0  0  0
 45 43  1  0  0  0  0
 45 36  2  0  0  0  0
 46 45  1  0  0  0  0
 47  2  1  0  0  0  0
 47 51  1  0  0  0  0
 48 20  1  0  0  0  0
 48 47  1  0  0  0  0
 49 48  1  0  0  0  0
 50 48  1  0  0  0  0
 51 60  2  0  0  0  0
 51 52  1  0  0  0  0
 52 54  2  0  0  0  0
 53 52  1  0  0  0  0
 54 56  1  0  0  0  0
 54 55  1  0  0  0  0
 56 57  1  0  0  0  0
 58 59  1  0  0  0  0
 58 56  2  0  0  0  0
 60 58  1  0  0  0  0
 61 60  1  0  0  0  0
 62 47  1  0  0  0  0
 62 71  1  0  0  0  0
 63 62  2  0  0  0  0
 64 63  1  0  0  0  0
 65 63  1  0  0  0  0
 65 67  2  0  0  0  0
 66 65  1  0  0  0  0
 67 69  1  0  0  0  0
 68 67  1  0  0  0  0
 69 71  2  0  0  0  0
 69 70  1  0  0  0  0
 71 72  1  0  0  0  0
 73 75  1  0  0  0  0
 73 74  1  0  0  0  0
 73  2  1  0  0  0  0
 76 73  1  0  0  0  0
M  END
