1,2,3,4
q = -2.0, confidence = 0.588

 42 44  0  0  0  0  0  0  0  0999 V2000
    1.6333   -2.0819    0.4547 S   0  0  0  0  0  0  0  0  0  0  0  0
   -1.6180   -2.1267    0.3999 S   0  0  0  0  0  0  0  0  0  0  0  0
    1.2512    0.6921    0.0174 N   0  0  0  0  0  2  0  0  0  0  0  0
   -1.2856    0.6863    0.0630 N   0  0  0  0  0  2  0  0  0  0  0  0
    0.7001    1.9734    0.1340 C   0  0  0  0  0  0  0  0  0  0  0  0
   -0.7342    1.9702    0.1664 C   0  0  0  0  0  0  0  0  0  0  0  0
    1.3970    3.1833    0.3268 C   0  0  0  0  0  0  0  0  0  0  0  0
    2.4925    3.1870    0.3763 H   0  0  0  0  0  0  0  0  0  0  0  0
    0.6948    4.3847    0.5259 C   0  0  0  0  0  0  0  0  0  0  0  0
    1.2553    5.3193    0.6782 H   0  0  0  0  0  0  0  0  0  0  0  0
   -2.5945    0.3484   -0.1816 C   0  0  0  0  0  0  0  0  0  0  0  0
    2.5315    0.3552   -0.3478 C   0  0  0  0  0  0  0  0  0  0  0  0
    2.9227   -1.0076   -0.1643 C   0  0  0  0  0  0  0  0  0  0  0  0
    3.5161    1.2051   -0.9346 C   0  0  0  0  0  0  0  0  0  0  0  0
    3.2618    2.2431   -1.1777 H   0  0  0  0  0  0  0  0  0  0  0  0
   -0.7051    4.3824    0.5643 C   0  0  0  0  0  0  0  0  0  0  0  0
   -1.2585    5.3153    0.7495 H   0  0  0  0  0  0  0  0  0  0  0  0
   -2.9679   -1.0188    0.0088 C   0  0  0  0  0  0  0  0  0  0  0  0
   -1.4178    3.1817    0.3994 C   0  0  0  0  0  0  0  0  0  0  0  0
   -2.5081    3.1906    0.5092 H   0  0  0  0  0  0  0  0  0  0  0  0
   -3.6393    1.2095   -0.6359 C   0  0  0  0  0  0  0  0  0  0  0  0
   -3.4090    2.2470   -0.9023 H   0  0  0  0  0  0  0  0  0  0  0  0
   -4.2803   -1.4856   -0.1175 C   0  0  0  0  0  0  0  0  0  0  0  0
   -4.5015   -2.5465    0.0788 H   0  0  0  0  0  0  0  0  0  0  0  0
   -4.9451    0.7354   -0.7924 C   0  0  0  0  0  0  0  0  0  0  0  0
   -5.7180    1.4341   -1.1489 H   0  0  0  0  0  0  0  0  0  0  0  0
    4.1920   -1.4978   -0.4850 C   0  0  0  0  0  0  0  0  0  0  0  0
    4.4187   -2.5637   -0.3271 H   0  0  0  0  0  0  0  0  0  0  0  0
    1.9339   -2.0275    2.2677 C   0  0  0  0  0  0  0  0  0  0  0  0
    1.9887   -0.9730    2.5933 H   0  0  0  0  0  0  0  0  0  0  0  0
    2.8760   -2.5635    2.4907 H   0  0  0  0  0  0  0  0  0  0  0  0
    1.0804   -2.5375    2.7532 H   0  0  0  0  0  0  0  0  0  0  0  0
    4.7860    0.7137   -1.2544 C   0  0  0  0  0  0  0  0  0  0  0  0
    5.5121    1.3998   -1.7180 H   0  0  0  0  0  0  0  0  0  0  0  0
    5.1516   -0.6262   -1.0220 C   0  0  0  0  0  0  0  0  0  0  0  0
    6.1549   -0.9917   -1.2822 H   0  0  0  0  0  0  0  0  0  0  0  0
   -5.2928   -0.6010   -0.5159 C   0  0  0  0  0  0  0  0  0  0  0  0
   -6.3286   -0.9511   -0.6275 H   0  0  0  0  0  0  0  0  0  0  0  0
   -1.4044   -3.0051   -1.2011 C   0  0  0  0  0  0  0  0  0  0  0  0
   -1.3299   -2.2700   -2.0231 H   0  0  0  0  0  0  0  0  0  0  0  0
   -2.2680   -3.6791   -1.3568 H   0  0  0  0  0  0  0  0  0  0  0  0
   -0.4718   -3.5958   -1.1226 H   0  0  0  0  0  0  0  0  0  0  0  0
  1 29  1  0  0  0  0
  3  5  1  0  0  0  0
  4  6  1  0  0  0  0
  5  6  2  0  0  0  0
  5  7  1  0  0  0  0
  6 19  1  0  0  0  0
  7  8  1  0  0  0  0
  7  9  2  0  0  0  0
  9 16  1  0  0  0  0
  9 10  1  0  0  0  0
 11 18  1  0  0  0  0
 11  4  1  0  0  0  0
 12 13  1  0  0  0  0
 12  3  1  0  0  0  0
 13  1  1  0  0  0  0
 14 12  2  0  0  0  0
 15 14  1  0  0  0  0
 16 17  1  0  0  0  0
 18  2  1  0  0  0  0
 19 20  1  0  0  0  0
 19 16  2  0  0  0  0
 21 11  2  0  0  0  0
 22 21  1  0  0  0  0
 23 18  2  0  0  0  0
 23 24  1  0  0  0  0
 25 21  1  0  0  0  0
 25 37  2  0  0  0  0
 26 25  1  0  0  0  0
 27 28  1  0  0  0  0
 27 13  2  0  0  0  0
 29 31  1  0  0  0  0
 29 30  1  0  0  0  0
 29 32  1  0  0  0  0
 33 35  2  0  0  0  0
 33 14  1  0  0  0  0
 34 33  1  0  0  0  0
 35 27  1  0  0  0  0
 36 35  1  0  0  0  0
 37 23  1  0  0  0  0
 38 37  1  0  0  0  0
 39 42  1  0  0  0  0
 39  2  1  0  0  0  0
 40 39  1  0  0  0  0
 41 39  1  0  0  0  0
M  END
