1,2,3,4
q = -2.0, confidence = 0.83

 38 39  0  0  0  0  0  0  0  0999 V2000
    1.3922   -1.5320    0.4373 S   0  0  0  0  0  1  0  0  0  0  0  0
   -1.3923   -1.5319   -0.4385 S   0  0  0  0  0  1  0  0  0  0  0  0
    1.3561    1.5472    0.1484 N   0  0  0  0  0  0  0  0  0  0  0  0
   -1.3562    1.5474   -0.1487 N   0  0  0  0  0  0  0  0  0  0  0  0
    0.6270    2.8014    0.4269 C   0  0  0  0  0  0  0  0  0  0  0  0
   -0.6269    2.8014   -0.4276 C   0  0  0  0  0  0  0  0  0  0  0  0
    2.5051    1.3083    1.0687 C   0  0  0  0  0  0  0  0  0  0  0  0
    3.4761    0.3507    0.4473 C   0  0  0  0  0  0  0  0  0  0  0  0
    3.0299   -0.9588    0.1113 C   0  0  0  0  0  0  0  0  0  0  0  0
    3.9702   -1.8634   -0.4411 C   0  0  0  0  0  0  0  0  0  0  0  0
    5.2993   -1.4830   -0.6563 C   0  0  0  0  0  0  0  0  0  0  0  0
    5.7283   -0.1806   -0.3436 C   0  0  0  0  0  0  0  0  0  0  0  0
    4.8095    0.7267    0.2022 C   0  0  0  0  0  0  0  0  0  0  0  0
   -2.5057    1.3085   -1.0684 C   0  0  0  0  0  0  0  0  0  0  0  0
   -3.4763    0.3508   -0.4466 C   0  0  0  0  0  0  0  0  0  0  0  0
   -3.0298   -0.9588   -0.1113 C   0  0  0  0  0  0  0  0  0  0  0  0
   -3.9698   -1.8636    0.4414 C   0  0  0  0  0  0  0  0  0  0  0  0
   -5.2987   -1.4832    0.6575 C   0  0  0  0  0  0  0  0  0  0  0  0
   -5.7279   -0.1807    0.3455 C   0  0  0  0  0  0  0  0  0  0  0  0
   -4.8095    0.7267   -0.2005 C   0  0  0  0  0  0  0  0  0  0  0  0
    1.7544    1.6073   -0.8047 H   0  0  0  0  0  0  0  0  0  0  0  0
    0.3602    2.8060    1.5049 H   0  0  0  0  0  0  0  0  0  0  0  0
    1.2554    3.7016    0.2398 H   0  0  0  0  0  0  0  0  0  0  0  0
   -1.7540    1.6076    0.8046 H   0  0  0  0  0  0  0  0  0  0  0  0
   -1.2551    3.7017   -0.2408 H   0  0  0  0  0  0  0  0  0  0  0  0
   -0.3602    2.8055   -1.5057 H   0  0  0  0  0  0  0  0  0  0  0  0
    2.0817    0.8903    2.0082 H   0  0  0  0  0  0  0  0  0  0  0  0
    3.0114    2.2726    1.2958 H   0  0  0  0  0  0  0  0  0  0  0  0
    3.6275   -2.8759   -0.7029 H   0  0  0  0  0  0  0  0  0  0  0  0
    6.0080   -2.2080   -1.0859 H   0  0  0  0  0  0  0  0  0  0  0  0
    6.7695    0.1248   -0.5239 H   0  0  0  0  0  0  0  0  0  0  0  0
    5.1334    1.7483    0.4618 H   0  0  0  0  0  0  0  0  0  0  0  0
   -2.0827    0.8907   -2.0082 H   0  0  0  0  0  0  0  0  0  0  0  0
   -3.0122    2.2729   -1.2950 H   0  0  0  0  0  0  0  0  0  0  0  0
   -3.6269   -2.8762    0.7026 H   0  0  0  0  0  0  0  0  0  0  0  0
   -6.0072   -2.2084    1.0874 H   0  0  0  0  0  0  0  0  0  0  0  0
   -6.7691    0.1246    0.5266 H   0  0  0  0  0  0  0  0  0  0  0  0
   -5.1336    1.7484   -0.4597 H   0  0  0  0  0  0  0  0  0  0  0  0
  2 16  1  0  0  0  0
  3  5  1  0  0  0  0
  3  7  1  0  0  0  0
  4 24  1  0  0  0  0
  5 22  1  0  0  0  0
  6 25  1  0  0  0  0
  6  4  1  0  0  0  0
  6  5  1  0  0  0  0
  7 28  1  0  0  0  0
  7 27  1  0  0  0  0
  8  7  1  0  0  0  0
  9  1  1  0  0  0  0
  9  8  2  0  0  0  0
 10  9  1  0  0  0  0
 11 10  2  0  0  0  0
 11 12  1  0  0  0  0
 12 13  2  0  0  0  0
 13  8  1  0  0  0  0
 13 32  1  0  0  0  0
 14 15  1  0  0  0  0
 14  4  1  0  0  0  0
 15 20  2  0  0  0  0
 15 16  1  0  0  0  0
 16 17  2  0  0  0  0
 17 18  1  0  0  0  0
 17 35  1  0  0  0  0
 18 36  1  0  0  0  0
 19 37  1  0  0  0  0
 19 18  2  0  0  0  0
 20 19  1  0  0  0  0
 21  3  1  0  0  0  0
 23  5  1  0  0  0  0
 26  6  1  0  0  0  0
 29 10  1  0  0  0  0
 30 11  1  0  0  0  0
 31 12  1  0  0  0  0
 33 14  1  0  0  0  0
 34 14  1  0  0  0  0
 38 20  1  0  0  0  0
M  END
