1,2,3,4
q = -2.0, confidence = 0.912

 50 51  0  0  1  0  0  0  0  0999 V2000
   -1.3944    1.6742    0.4504 S   0  0  0  0  0  1  0  0  0  0  0  0
    1.3947    1.6738   -0.4515 S   0  0  0  0  0  1  0  0  0  0  0  0
   -1.2583   -1.2353   -0.6597 N   0  0  0  0  0  2  0  0  0  0  0  0
    1.2580   -1.2355    0.6594 N   0  0  0  0  0  2  0  0  0  0  0  0
    4.3289    2.2144   -0.7666 S   0  0  0  0  0  0  0  0  0  0  0  0
   -4.3285    2.2147    0.7672 S   0  0  0  0  0  0  0  0  0  0  0  0
   -3.4679    3.7289    1.2733 C   0  0  0  0  0  0  0  0  0  0  0  0
   -3.0127    1.1110    0.3160 C   0  0  1  0  0  3  0  0  0  0  0  0
   -3.4259   -0.1386   -0.1494 C   0  0  0  0  0  0  0  0  0  0  0  0
   -2.5848   -1.1730   -0.6723 C   0  0  0  0  0  0  0  0  0  0  0  0
   -3.4857   -2.2069   -1.3504 C   0  0  0  0  0  0  0  0  0  0  0  0
   -4.8529   -2.0006   -0.6845 C   0  0  0  0  0  0  0  0  0  0  0  0
   -4.8882   -0.5019   -0.3425 C   0  0  0  0  0  0  0  0  0  0  0  0
   -0.6362   -2.3689   -1.3680 C   0  0  0  0  0  0  0  0  0  0  0  0
   -0.5551   -3.6539   -0.5268 C   0  0  0  0  0  0  0  0  0  0  0  0
    0.5550   -3.6540    0.5253 C   0  0  0  0  0  0  0  0  0  0  0  0
    0.6357   -2.3694    1.3672 C   0  0  0  0  0  0  0  0  0  0  0  0
    2.5845   -1.1731    0.6726 C   0  0  0  0  0  0  0  0  0  0  0  0
    3.4851   -2.2072    1.3510 C   0  0  0  0  0  0  0  0  0  0  0  0
    4.8527   -2.0007    0.6859 C   0  0  0  0  0  0  0  0  0  0  0  0
    4.8881   -0.5020    0.3442 C   0  0  0  0  0  0  0  0  0  0  0  0
    3.4258   -0.1387    0.1502 C   0  0  0  0  0  0  0  0  0  0  0  0
    3.0129    1.1107   -0.3158 C   0  0  1  0  0  3  0  0  0  0  0  0
    3.4686    3.7283   -1.2737 C   0  0  0  0  0  0  0  0  0  0  0  0
   -4.2699    4.4375    1.5566 H   0  0  0  0  0  0  0  0  0  0  0  0
   -2.8708    4.1451    0.4395 H   0  0  0  0  0  0  0  0  0  0  0  0
   -2.8056    3.5415    2.1403 H   0  0  0  0  0  0  0  0  0  0  0  0
   -3.1215   -3.2480   -1.2713 H   0  0  0  0  0  0  0  0  0  0  0  0
   -3.5304   -1.9669   -2.4386 H   0  0  0  0  0  0  0  0  0  0  0  0
   -5.6992   -2.3266   -1.3202 H   0  0  0  0  0  0  0  0  0  0  0  0
   -4.8921   -2.5958    0.2519 H   0  0  0  0  0  0  0  0  0  0  0  0
   -5.5067   -0.2833    0.5541 H   0  0  0  0  0  0  0  0  0  0  0  0
   -5.3305    0.0947   -1.1746 H   0  0  0  0  0  0  0  0  0  0  0  0
   -1.1964   -2.5693   -2.3055 H   0  0  0  0  0  0  0  0  0  0  0  0
    0.3824   -2.0624   -1.6784 H   0  0  0  0  0  0  0  0  0  0  0  0
   -0.4113   -4.5194   -1.2086 H   0  0  0  0  0  0  0  0  0  0  0  0
   -1.5354   -3.8130   -0.0291 H   0  0  0  0  0  0  0  0  0  0  0  0
    0.4114   -4.5198    1.2068 H   0  0  0  0  0  0  0  0  0  0  0  0
    1.5353   -3.8127    0.0276 H   0  0  0  0  0  0  0  0  0  0  0  0
    1.1957   -2.5701    2.3047 H   0  0  0  0  0  0  0  0  0  0  0  0
   -0.3830   -2.0631    1.6773 H   0  0  0  0  0  0  0  0  0  0  0  0
    3.5291   -1.9675    2.4392 H   0  0  0  0  0  0  0  0  0  0  0  0
    3.1209   -3.2483    1.2713 H   0  0  0  0  0  0  0  0  0  0  0  0
    5.6986   -2.3268    1.3221 H   0  0  0  0  0  0  0  0  0  0  0  0
    4.8925   -2.5957   -0.2505 H   0  0  0  0  0  0  0  0  0  0  0  0
    5.5071   -0.2831   -0.5519 H   0  0  0  0  0  0  0  0  0  0  0  0
    5.3298    0.0945    1.1767 H   0  0  0  0  0  0  0  0  0  0  0  0
    4.2706    4.4371   -1.5563 H   0  0  0  0  0  0  0  0  0  0  0  0
    2.8704    4.1444   -0.4407 H   0  0  0  0  0  0  0  0  0  0  0  0
    2.8072    3.5406   -2.1415 H   0  0  0  0  0  0  0  0  0  0  0  0
  4 18  1  0  0  0  0
  4 17  1  0  0  0  0
  5 23  1  0  0  0  0
  6  7  1  0  0  0  0
  7 25  1  0  0  0  0
  7 27  1  0  0  0  0
  8  1  1  6  0  0  0
  8  6  1  0  0  0  0
  9  8  1  0  0  0  0
 10  3  1  0  0  0  0
 10  9  2  0  0  0  0
 11 28  1  0  0  0  0
 11 12  1  0  0  0  0
 11 10  1  0  0  0  0
 12 13  1  0  0  0  0
 12 31  1  0  0  0  0
 13  9  1  0  0  0  0
 13 32  1  0  0  0  0
 14  3  1  0  0  0  0
 14 15  1  0  0  0  0
 15 37  1  0  0  0  0
 15 16  1  0  0  0  0
 16 38  1  0  0  0  0
 16 17  1  0  0  0  0
 17 41  1  0  0  0  0
 17 40  1  0  0  0  0
 18 19  1  0  0  0  0
 19 42  1  0  0  0  0
 20 44  1  0  0  0  0
 20 19  1  0  0  0  0
 21 20  1  0  0  0  0
 21 47  1  0  0  0  0
 22 21  1  0  0  0  0
 22 18  2  0  0  0  0
 23  2  1  1  0  0  0
 23 22  1  0  0  0  0
 24  5  1  0  0  0  0
 24 49  1  0  0  0  0
 26  7  1  0  0  0  0
 29 11  1  0  0  0  0
 30 12  1  0  0  0  0
 33 13  1  0  0  0  0
 34 14  1  0  0  0  0
 35 14  1  0  0  0  0
 36 15  1  0  0  0  0
 39 16  1  0  0  0  0
 43 19  1  0  0  0  0
 45 20  1  0  0  0  0
 46 21  1  0  0  0  0
 48 24  1  0  0  0  0
 50 24  1  0  0  0  0
M  END
