1,2,23,27
q = 0.0, confidence = 0.526

 44 46  0  0  1  0  0  0  0  0999 V2000
   -1.3582    2.4245    0.4521 S   0  0  0  0  0  1  0  0  0  0  0  0
   -1.3036   -0.5911   -0.0030 N   0  0  0  0  0  2  0  0  0  0  0  0
   -0.7065   -1.8764    0.0301 C   0  0  0  0  0  0  0  0  0  0  0  0
   -1.3880   -3.1070    0.1183 C   0  0  0  0  0  0  0  0  0  0  0  0
   -0.7086   -4.3325    0.0711 C   0  0  0  0  0  0  0  0  0  0  0  0
   -1.4672   -5.6302    0.1620 C   0  0  0  0  0  0  0  0  0  0  0  0
   -2.6145   -0.5079   -0.1648 C   0  0  0  0  0  0  0  0  0  0  0  0
   -3.4600    0.6397   -0.1112 C   0  0  0  0  0  0  0  0  0  0  0  0
   -4.8560    0.4184   -0.3294 C   0  0  0  0  0  3  0  0  0  0  0  0
   -5.7819    1.4462   -0.2414 C   0  0  0  0  0  0  0  0  0  0  0  0
   -5.3308    2.7509    0.0793 C   0  0  0  0  0  0  0  0  0  0  0  0
   -3.9795    3.0021    0.2895 C   0  0  0  0  0  0  0  0  0  0  0  0
   -3.0046    1.9685    0.1869 C   0  0  0  0  0  0  0  0  0  0  0  0
   -2.4801   -3.1279    0.2383 H   0  0  0  0  0  0  0  0  0  0  0  0
   -1.1266   -6.2430    1.0234 H   0  0  0  0  0  0  0  0  0  0  0  0
   -2.5545   -5.4594    0.2767 H   0  0  0  0  0  0  0  0  0  0  0  0
   -1.3158   -6.2561   -0.7431 H   0  0  0  0  0  0  0  0  0  0  0  0
   -3.1542   -1.4520   -0.3583 H   0  0  0  0  0  0  0  0  0  0  0  0
   -5.1885   -0.6057   -0.5638 H   0  0  0  0  0  0  0  0  0  0  0  0
   -6.8504    1.2522   -0.4135 H   0  0  0  0  0  0  0  0  0  0  0  0
   -6.0531    3.5783    0.1562 H   0  0  0  0  0  0  0  0  0  0  0  0
   -3.6324    4.0191    0.5263 H   0  0  0  0  0  0  0  0  0  0  0  0
    1.3582    2.4244   -0.4528 S   0  0  0  0  0  1  0  0  0  0  0  0
    3.0046    1.9685   -0.1871 C   0  0  1  0  0  3  0  0  0  0  0  0
    3.4600    0.6398    0.1116 C   0  0  0  0  0  0  0  0  0  0  0  0
    2.6145   -0.5078    0.1653 C   0  0  0  0  0  0  0  0  0  0  0  0
    1.3036   -0.5911    0.0031 N   0  0  0  0  0  2  0  0  0  0  0  0
    0.7065   -1.8763   -0.0301 C   0  0  0  0  0  0  0  0  0  0  0  0
    0.7087   -4.3325   -0.0712 C   0  0  0  0  0  0  0  0  0  0  0  0
    1.3881   -3.1069   -0.1183 C   0  0  0  0  0  0  0  0  0  0  0  0
    2.4802   -3.1277   -0.2384 H   0  0  0  0  0  0  0  0  0  0  0  0
    1.4675   -5.6301   -0.1623 C   0  0  0  0  0  0  0  0  0  0  0  0
    1.1268   -6.2429   -1.0238 H   0  0  0  0  0  0  0  0  0  0  0  0
    2.5547   -5.4592   -0.2770 H   0  0  0  0  0  0  0  0  0  0  0  0
    1.3161   -6.2561    0.7428 H   0  0  0  0  0  0  0  0  0  0  0  0
    3.1541   -1.4519    0.3591 H   0  0  0  0  0  0  0  0  0  0  0  0
    4.8559    0.4186    0.3303 C   0  0  0  0  0  0  0  0  0  0  0  0
    5.7817    1.4464    0.2422 C   0  0  0  0  0  0  0  0  0  0  0  0
    5.3307    2.7510   -0.0791 C   0  0  0  0  0  0  0  0  0  0  0  0
    3.9795    3.0021   -0.2897 C   0  0  0  0  0  0  0  0  0  0  0  0
    3.6324    4.0190   -0.5269 H   0  0  0  0  0  0  0  0  0  0  0  0
    6.0530    3.5784   -0.1560 H   0  0  0  0  0  0  0  0  0  0  0  0
    6.8502    1.2525    0.4147 H   0  0  0  0  0  0  0  0  0  0  0  0
    5.1884   -0.6054    0.5651 H   0  0  0  0  0  0  0  0  0  0  0  0
  2  3  1  0  0  0  0
  3  4  1  0  0  0  0
  4 14  1  0  0  0  0
  5  4  2  0  0  0  0
  5  6  1  0  0  0  0
  6 16  1  0  0  0  0
  6 15  1  0  0  0  0
  7  8  2  0  0  0  0
  7  2  1  0  0  0  0
  8 13  1  0  0  0  0
  9 10  1  0  0  0  0
  9  8  1  0  0  0  0
 10 11  2  0  0  0  0
 11 21  1  0  0  0  0
 11 12  1  0  0  0  0
 12 22  1  0  0  0  0
 13 12  2  0  0  0  0
 13  1  1  0  0  0  0
 17  6  1  0  0  0  0
 18  7  1  0  0  0  0
 19  9  1  0  0  0  0
 20 10  1  0  0  0  0
 24 23  1  6  0  0  0
 24 25  1  0  0  0  0
 25 26  2  0  0  0  0
 25 37  1  0  0  0  0
 26 36  1  0  0  0  0
 27 26  1  0  0  0  0
 28 27  1  0  0  0  0
 28  3  2  0  0  0  0
 29  5  1  0  0  0  0
 30 29  2  0  0  0  0
 30 28  1  0  0  0  0
 31 30  1  0  0  0  0
 32 29  1  0  0  0  0
 32 35  1  0  0  0  0
 33 32  1  0  0  0  0
 34 32  1  0  0  0  0
 37 44  1  0  0  0  0
 38 37  2  0  0  0  0
 38 43  1  0  0  0  0
 39 38  1  0  0  0  0
 40 24  1  0  0  0  0
 40 39  2  0  0  0  0
 41 40  1  0  0  0  0
 42 39  1  0  0  0  0
M  END
