1,2,3,4
q = -2.0, confidence = 0.542

 72 77  0  0  1  0  0  0  0  0999 V2000
   -1.7909    0.2200   -2.8615 S   0  0  0  0  0  1  0  0  0  0  0  0
   -0.1705    2.8407   -2.1309 S   0  0  0  0  0  1  0  0  0  0  0  0
   -0.6377   -0.7550   -0.4907 N   0  0  0  0  0  2  0  0  0  0  0  0
    0.7901    1.2610   -0.0149 N   0  0  0  0  0  2  0  0  0  0  0  0
   -2.0478   -1.3967   -2.2727 C   0  0  0  0  0  0  0  0  0  0  0  0
   -2.8607   -2.3439   -2.9345 C   0  0  0  0  0  0  0  0  0  0  0  0
   -3.0563   -3.6037   -2.3708 C   0  0  0  0  0  0  0  0  0  0  0  0
   -2.4452   -3.9386   -1.1337 C   0  0  0  0  0  0  0  0  0  0  0  0
   -1.6390   -3.0278   -0.4611 C   0  0  0  0  0  0  0  0  0  0  0  0
   -1.4085   -1.7359   -1.0243 C   0  0  0  0  0  0  0  0  0  0  0  0
   -0.0895   -0.8106    0.8647 C   0  0  2  0  0  0  0  0  0  0  0  0
   -1.7650    0.9588    1.8512 C   0  0  1  0  0  0  0  0  0  0  0  0
   -1.1675   -0.4338    1.8630 C   0  0  0  0  0  0  0  0  0  0  0  0
   -1.7132   -1.3267    2.7213 C   0  0  0  0  0  0  0  0  0  0  0  0
   -2.9093   -0.9192    3.5510 C   0  0  0  0  0  0  0  0  0  0  0  0
   -3.2775    0.5522    3.2843 C   0  0  2  0  0  0  0  0  0  0  0  0
   -3.3399    0.8561    1.7384 C   0  0  0  0  0  0  0  0  0  0  0  0
   -1.9744    1.3951    3.3300 C   0  0  0  0  0  0  0  0  0  0  0  0
   -3.9462   -0.1806    0.7967 C   0  0  0  0  0  0  0  0  0  0  0  0
   -3.9623    2.2226    1.4254 C   0  0  0  0  0  0  0  0  0  0  0  0
    0.9916    3.4111   -0.9691 C   0  0  0  0  0  0  0  0  0  0  0  0
    1.5393    4.7138   -0.9871 C   0  0  0  0  0  0  0  0  0  0  0  0
    2.4955    5.0759   -0.0396 C   0  0  0  0  0  0  0  0  0  0  0  0
    2.9289    4.1414    0.9389 C   0  0  0  0  0  0  0  0  0  0  0  0
    2.4063    2.8547    0.9837 C   0  0  0  0  0  0  0  0  0  0  0  0
    1.4090    2.4666    0.0387 C   0  0  0  0  0  0  0  0  0  0  0  0
    1.1342    0.1555    0.8644 C   0  0  1  0  0  0  0  0  0  0  0  0
    2.9781   -1.6177    1.3627 C   0  0  1  0  0  0  0  0  0  0  0  0
    2.3875   -0.5761    0.4297 C   0  0  0  0  0  0  0  0  0  0  0  0
    2.9977   -0.3962   -0.7631 C   0  0  0  0  0  0  0  0  0  0  0  0
    4.1882   -1.2545   -1.1150 C   0  0  0  0  0  0  0  0  0  0  0  0
    4.5366   -2.2018    0.0463 C   0  0  2  0  0  0  0  0  0  0  0  0
    3.2541   -2.9570    0.5638 C   0  0  0  0  0  0  0  0  0  0  0  0
    4.5195   -1.3973    1.3755 C   0  0  0  0  0  0  0  0  0  0  0  0
    3.6075   -4.1222    1.4963 C   0  0  0  0  0  0  0  0  0  0  0  0
    2.2281   -3.4403   -0.4592 C   0  0  0  0  0  0  0  0  0  0  0  0
    2.7628    2.1335    1.7318 H   0  0  0  0  0  0  0  0  0  0  0  0
   -3.3368   -2.0686   -3.8875 H   0  0  0  0  0  0  0  0  0  0  0  0
   -1.1797   -3.2985    0.4981 H   0  0  0  0  0  0  0  0  0  0  0  0
    3.6962    4.4395    1.6693 H   0  0  0  0  0  0  0  0  0  0  0  0
    2.9256    6.0883   -0.0552 H   0  0  0  0  0  0  0  0  0  0  0  0
    0.2575   -1.8383    1.1022 H   0  0  0  0  0  0  0  0  0  0  0  0
    1.2818    0.5228    1.9077 H   0  0  0  0  0  0  0  0  0  0  0  0
   -5.0658    2.1829    1.5372 H   0  0  0  0  0  0  0  0  0  0  0  0
   -3.7383    2.5060    0.3758 H   0  0  0  0  0  0  0  0  0  0  0  0
   -1.2542    1.6462    1.1516 H   0  0  0  0  0  0  0  0  0  0  0  0
   -1.3357   -2.3610    2.7927 H   0  0  0  0  0  0  0  0  0  0  0  0
   -3.7682   -1.5886    3.3148 H   0  0  0  0  0  0  0  0  0  0  0  0
   -2.7061   -1.0706    4.6356 H   0  0  0  0  0  0  0  0  0  0  0  0
   -4.1431    0.8733    3.9015 H   0  0  0  0  0  0  0  0  0  0  0  0
   -2.1631    2.4786    3.4349 H   0  0  0  0  0  0  0  0  0  0  0  0
   -1.1939    1.0870    4.0548 H   0  0  0  0  0  0  0  0  0  0  0  0
    2.6804   -4.2075   -1.1220 H   0  0  0  0  0  0  0  0  0  0  0  0
    1.8325   -2.6266   -1.0951 H   0  0  0  0  0  0  0  0  0  0  0  0
    3.9742   -1.8326   -2.0429 H   0  0  0  0  0  0  0  0  0  0  0  0
    5.0657   -0.6154   -1.3637 H   0  0  0  0  0  0  0  0  0  0  0  0
    2.6251    0.3443   -1.4878 H   0  0  0  0  0  0  0  0  0  0  0  0
    2.7021   -4.4802    2.0297 H   0  0  0  0  0  0  0  0  0  0  0  0
    5.4274   -2.8229   -0.1846 H   0  0  0  0  0  0  0  0  0  0  0  0
    5.0282   -1.9238    2.2034 H   0  0  0  0  0  0  0  0  0  0  0  0
    4.8671   -0.3453    1.3396 H   0  0  0  0  0  0  0  0  0  0  0  0
    2.4370   -1.6913    2.3292 H   0  0  0  0  0  0  0  0  0  0  0  0
   -3.6912   -4.3412   -2.8839 H   0  0  0  0  0  0  0  0  0  0  0  0
   -2.6134   -4.9354   -0.6988 H   0  0  0  0  0  0  0  0  0  0  0  0
   -3.5290   -1.1948    0.9353 H   0  0  0  0  0  0  0  0  0  0  0  0
   -5.0453   -0.2375    0.9430 H   0  0  0  0  0  0  0  0  0  0  0  0
   -3.7623    0.1087   -0.2586 H   0  0  0  0  0  0  0  0  0  0  0  0
   -3.5882    3.0351    2.0773 H   0  0  0  0  0  0  0  0  0  0  0  0
    1.2067    5.4249   -1.7580 H   0  0  0  0  0  0  0  0  0  0  0  0
    4.3636   -3.8590    2.2604 H   0  0  0  0  0  0  0  0  0  0  0  0
    1.3634   -3.9200    0.0455 H   0  0  0  0  0  0  0  0  0  0  0  0
    4.0078   -4.9760    0.9107 H   0  0  0  0  0  0  0  0  0  0  0  0
  1  5  1  0  0  0  0
  2 21  1  0  0  0  0
  3 11  1  0  0  0  0
  4 26  1  0  0  0  0
  4 27  1  0  0  0  0
  5 10  1  0  0  0  0
  6  7  1  0  0  0  0
  6  5  2  0  0  0  0
  7  8  2  0  0  0  0
  8 64  1  0  0  0  0
  8  9  1  0  0  0  0
  9 39  1  0  0  0  0
 10  3  1  0  0  0  0
 10  9  2  0  0  0  0
 11 42  1  1  0  0  0
 11 13  1  0  0  0  0
 12 46  1  6  0  0  0
 12 13  1  0  0  0  0
 12 18  1  0  0  0  0
 13 14  2  0  0  0  0
 14 47  1  0  0  0  0
 14 15  1  0  0  0  0
 15 49  1  0  0  0  0
 16 18  1  0  0  0  0
 16 15  1  0  0  0  0
 16 50  1  1  0  0  0
 17 12  1  0  0  0  0
 17 16  1  0  0  0  0
 18 51  1  0  0  0  0
 18 52  1  0  0  0  0
 19 65  1  0  0  0  0
 19 66  1  0  0  0  0
 19 17  1  0  0  0  0
 20 44  1  0  0  0  0
 20 17  1  0  0  0  0
 20 68  1  0  0  0  0
 21 26  1  0  0  0  0
 22 21  2  0  0  0  0
 22 23  1  0  0  0  0
 23 24  2  0  0  0  0
 24 25  1  0  0  0  0
 24 40  1  0  0  0  0
 25 37  1  0  0  0  0
 26 25  2  0  0  0  0
 27 11  1  0  0  0  0
 27 43  1  1  0  0  0
 28 34  1  0  0  0  0
 28 62  1  1  0  0  0
 29 27  1  0  0  0  0
 29 28  1  0  0  0  0
 30 29  2  0  0  0  0
 31 30  1  0  0  0  0
 31 32  1  0  0  0  0
 32 59  1  6  0  0  0
 32 33  1  0  0  0  0
 32 34  1  0  0  0  0
 33 28  1  0  0  0  0
 33 35  1  0  0  0  0
 34 60  1  0  0  0  0
 35 58  1  0  0  0  0
 35 70  1  0  0  0  0
 36 71  1  0  0  0  0
 36 33  1  0  0  0  0
 38  6  1  0  0  0  0
 41 23  1  0  0  0  0
 45 20  1  0  0  0  0
 48 15  1  0  0  0  0
 53 36  1  0  0  0  0
 54 36  1  0  0  0  0
 55 31  1  0  0  0  0
 56 31  1  0  0  0  0
 57 30  1  0  0  0  0
 61 34  1  0  0  0  0
 63  7  1  0  0  0  0
 67 19  1  0  0  0  0
 69 22  1  0  0  0  0
 72 35  1  0  0  0  0
M  END
