1,2,4,5
q = -1.0, confidence = 0.33

 29 29  0  0  1  0  0  0  0  0999 V2000
    2.0292   -1.0150    1.7660 S   0  0  0  0  0  1  0  0  0  0  0  0
   -1.0006   -1.4271    0.0477 S   0  0  0  0  0  1  0  0  0  0  0  0
    3.4867    2.6089    1.1000 O   0  0  0  0  0  0  0  0  0  0  0  0
    2.1456    1.1492   -0.0872 N   0  0  0  0  0  2  0  0  0  0  0  0
   -0.1258    0.6692   -1.0940 N   0  0  0  0  0  2  0  0  0  0  0  0
   -2.4281    0.8777   -0.5943 N   0  0  0  0  0  0  0  0  0  0  0  0
    3.2961    0.3278    1.8995 C   0  0  0  0  0  0  0  0  0  0  0  0
    3.0066    1.4890    0.9569 C   0  0  0  0  0  0  0  0  0  0  0  0
    1.7288    2.1984   -1.0270 C   0  0  0  0  0  0  0  0  0  0  0  0
    0.2029    2.0943   -1.2037 C   0  0  0  0  0  0  0  0  0  0  0  0
   -1.2838    0.1577   -0.6407 C   0  0  2  0  0  3  0  0  0  0  0  0
   -3.7088    0.5151   -0.1102 C   0  0  0  0  0  0  0  0  0  0  0  0
   -4.5492    1.5466    0.3555 C   0  0  0  0  0  0  0  0  0  0  0  0
   -5.8322    1.2461    0.8281 C   0  0  0  0  0  0  0  0  0  0  0  0
   -6.2840   -0.0831    0.8492 C   0  0  0  0  0  0  0  0  0  0  0  0
   -5.4463   -1.1057    0.3785 C   0  0  0  0  0  0  0  0  0  0  0  0
   -4.1647   -0.8175   -0.1112 C   0  0  0  0  0  0  0  0  0  0  0  0
   -2.3367    1.8534   -0.8937 H   0  0  0  0  0  0  0  0  0  0  0  0
    3.3413    0.7137    2.9365 H   0  0  0  0  0  0  0  0  0  0  0  0
    4.2947   -0.0904    1.6536 H   0  0  0  0  0  0  0  0  0  0  0  0
    2.0366    3.1881   -0.6346 H   0  0  0  0  0  0  0  0  0  0  0  0
    2.2345    2.0475   -2.0053 H   0  0  0  0  0  0  0  0  0  0  0  0
   -0.1121    2.5158   -2.1832 H   0  0  0  0  0  0  0  0  0  0  0  0
   -0.3178    2.6634   -0.3967 H   0  0  0  0  0  0  0  0  0  0  0  0
   -4.1878    2.5872    0.3565 H   0  0  0  0  0  0  0  0  0  0  0  0
   -6.4796    2.0584    1.1904 H   0  0  0  0  0  0  0  0  0  0  0  0
   -7.2893   -0.3202    1.2270 H   0  0  0  0  0  0  0  0  0  0  0  0
   -5.7954   -2.1491    0.3783 H   0  0  0  0  0  0  0  0  0  0  0  0
   -3.5279   -1.6212   -0.5041 H   0  0  0  0  0  0  0  0  0  0  0  0
  1  7  1  0  0  0  0
  4  8  1  0  0  0  0
  5 11  1  0  0  0  0
  6 12  1  0  0  0  0
  7 19  1  0  0  0  0
  8  3  2  0  0  0  0
  8  7  1  0  0  0  0
  9 21  1  0  0  0  0
  9  4  1  0  0  0  0
 10  5  1  0  0  0  0
 10  9  1  0  0  0  0
 10 24  1  0  0  0  0
 11  6  1  0  0  0  0
 11  2  1  1  0  0  0
 12 13  1  0  0  0  0
 13 25  1  0  0  0  0
 13 14  2  0  0  0  0
 14 15  1  0  0  0  0
 14 26  1  0  0  0  0
 15 27  1  0  0  0  0
 16 15  2  0  0  0  0
 17 12  2  0  0  0  0
 17 16  1  0  0  0  0
 18  6  1  0  0  0  0
 20  7  1  0  0  0  0
 22  9  1  0  0  0  0
 23 10  1  0  0  0  0
 28 16  1  0  0  0  0
 29 17  1  0  0  0  0
M  END
