1,2,3,4
q = 0.0, confidence = 0.998

 65 67  0  0  0  0  0  0  0  0999 V2000
   -1.5715    0.1346   -1.1438 S   0  0  0  0  0  0  0  0  0  0  0  0
    1.4553   -0.8413    0.9382 S   0  0  0  0  0  0  0  0  0  0  0  0
    0.5027    2.7160   -0.6367 N   0  0  0  0  0  0  0  0  0  0  0  0
    2.1331    0.7529   -2.0094 N   0  0  0  0  0  0  0  0  0  0  0  0
   -4.1206   -1.7852   -1.6416 C   0  0  0  0  0  0  0  0  0  0  0  0
   -5.4276   -2.2880   -1.7031 C   0  0  0  0  0  0  0  0  0  0  0  0
   -5.9519   -3.0282   -0.6311 C   0  0  0  0  0  0  0  0  0  0  0  0
   -5.1625   -3.2619    0.5051 C   0  0  0  0  0  0  0  0  0  0  0  0
   -3.8554   -2.7556    0.5687 C   0  0  0  0  0  0  0  0  0  0  0  0
   -3.3211   -2.0155   -0.5055 C   0  0  0  0  0  0  0  0  0  0  0  0
   -1.8949   -1.5262   -0.4250 C   0  0  0  0  0  0  0  0  0  0  0  0
   -2.2593    1.2865    0.0509 C   0  0  0  0  0  0  0  0  0  0  0  0
   -3.1505    0.8869    1.0618 C   0  0  0  0  0  0  0  0  0  0  0  0
   -3.6615    1.8372    1.9596 C   0  0  0  0  0  0  0  0  0  0  0  0
   -3.3023    3.1869    1.8486 C   0  0  0  0  0  0  0  0  0  0  0  0
   -2.4187    3.5812    0.8329 C   0  0  0  0  0  0  0  0  0  0  0  0
   -1.8837    2.6511   -0.0760 C   0  0  0  0  0  0  0  0  0  0  0  0
   -0.8606    3.0998   -1.0911 C   0  0  0  0  0  0  0  0  0  0  0  0
    1.6012    3.1356   -1.5319 C   0  0  0  0  0  0  0  0  0  0  0  0
    1.9059    2.0829   -2.6049 C   0  0  0  0  0  0  0  0  0  0  0  0
    3.4187    0.6240   -1.2883 C   0  0  0  0  0  0  0  0  0  0  0  0
    3.7093   -0.7851   -0.8152 C   0  0  0  0  0  0  0  0  0  0  0  0
    4.8142   -1.4519   -1.3829 C   0  0  0  0  0  0  0  0  0  0  0  0
    5.1869   -2.7450   -0.9890 C   0  0  0  0  0  0  0  0  0  0  0  0
    4.4413   -3.4139   -0.0098 C   0  0  0  0  0  0  0  0  0  0  0  0
    3.3276   -2.7819    0.5599 C   0  0  0  0  0  0  0  0  0  0  0  0
    2.9603   -1.4753    0.1789 C   0  0  0  0  0  0  0  0  0  0  0  0
    1.9820    0.0112    2.5568 C   0  0  0  0  0  0  0  0  0  0  0  0
    2.6016   -1.0366    3.4801 C   0  0  0  0  0  0  0  0  0  0  0  0
    0.6459    0.5327    3.0983 C   0  0  0  0  0  0  0  0  0  0  0  0
    2.9539    1.1515    2.2671 C   0  0  0  0  0  0  0  0  0  0  0  0
   -3.7172   -1.1952   -2.4793 H   0  0  0  0  0  0  0  0  0  0  0  0
   -6.0431   -2.0988   -2.5953 H   0  0  0  0  0  0  0  0  0  0  0  0
   -6.9787   -3.4200   -0.6803 H   0  0  0  0  0  0  0  0  0  0  0  0
   -5.5666   -3.8388    1.3503 H   0  0  0  0  0  0  0  0  0  0  0  0
   -3.2394   -2.9401    1.4636 H   0  0  0  0  0  0  0  0  0  0  0  0
   -1.5030   -1.5299    0.6116 H   0  0  0  0  0  0  0  0  0  0  0  0
   -1.2120   -2.1645   -1.0258 H   0  0  0  0  0  0  0  0  0  0  0  0
   -3.4725   -0.1591    1.1423 H   0  0  0  0  0  0  0  0  0  0  0  0
   -4.3604    1.5113    2.7443 H   0  0  0  0  0  0  0  0  0  0  0  0
   -3.7118    3.9327    2.5449 H   0  0  0  0  0  0  0  0  0  0  0  0
   -2.1336    4.6410    0.7346 H   0  0  0  0  0  0  0  0  0  0  0  0
   -1.0391    2.6278   -2.0805 H   0  0  0  0  0  0  0  0  0  0  0  0
   -0.9344    4.2007   -1.2404 H   0  0  0  0  0  0  0  0  0  0  0  0
    1.3812    4.1070   -2.0297 H   0  0  0  0  0  0  0  0  0  0  0  0
    2.5002    3.3011   -0.9043 H   0  0  0  0  0  0  0  0  0  0  0  0
    1.0485    1.9906   -3.3023 H   0  0  0  0  0  0  0  0  0  0  0  0
    2.7795    2.4329   -3.2044 H   0  0  0  0  0  0  0  0  0  0  0  0
    4.2657    0.9602   -1.9300 H   0  0  0  0  0  0  0  0  0  0  0  0
    3.3856    1.3099   -0.4191 H   0  0  0  0  0  0  0  0  0  0  0  0
    5.4047   -0.9308   -2.1529 H   0  0  0  0  0  0  0  0  0  0  0  0
    6.0580   -3.2294   -1.4540 H   0  0  0  0  0  0  0  0  0  0  0  0
    4.7153   -4.4316    0.3051 H   0  0  0  0  0  0  0  0  0  0  0  0
    2.7150   -3.3060    1.3079 H   0  0  0  0  0  0  0  0  0  0  0  0
    0.6429    3.1388    0.2893 H   0  0  0  0  0  0  0  0  0  0  0  0
    2.0930    0.0374   -2.7465 H   0  0  0  0  0  0  0  0  0  0  0  0
    1.9034   -1.8756    3.6682 H   0  0  0  0  0  0  0  0  0  0  0  0
    3.5430   -1.4450    3.0622 H   0  0  0  0  0  0  0  0  0  0  0  0
    2.8457   -0.5686    4.4565 H   0  0  0  0  0  0  0  0  0  0  0  0
    0.1614    1.2290    2.3826 H   0  0  0  0  0  0  0  0  0  0  0  0
   -0.0614   -0.2953    3.3045 H   0  0  0  0  0  0  0  0  0  0  0  0
    0.8200    1.0761    4.0494 H   0  0  0  0  0  0  0  0  0  0  0  0
    3.8936    0.7806    1.8114 H   0  0  0  0  0  0  0  0  0  0  0  0
    2.4951    1.9000    1.5903 H   0  0  0  0  0  0  0  0  0  0  0  0
    3.2217    1.6645    3.2141 H   0  0  0  0  0  0  0  0  0  0  0  0
  1 11  1  0  0  0  0
  1 12  1  0  0  0  0
  2 28  1  0  0  0  0
  3 55  1  0  0  0  0
  4 21  1  0  0  0  0
  5 10  1  0  0  0  0
  6  5  2  0  0  0  0
  6  7  1  0  0  0  0
  7  8  2  0  0  0  0
  8  9  1  0  0  0  0
  8 35  1  0  0  0  0
  9 36  1  0  0  0  0
 10 11  1  0  0  0  0
 10  9  2  0  0  0  0
 11 37  1  0  0  0  0
 12 13  1  0  0  0  0
 13 39  1  0  0  0  0
 13 14  2  0  0  0  0
 14 40  1  0  0  0  0
 15 14  1  0  0  0  0
 15 41  1  0  0  0  0
 16 15  2  0  0  0  0
 17 12  2  0  0  0  0
 17 16  1  0  0  0  0
 18  3  1  0  0  0  0
 18 17  1  0  0  0  0
 19 46  1  0  0  0  0
 19  3  1  0  0  0  0
 20  4  1  0  0  0  0
 20 19  1  0  0  0  0
 21 22  1  0  0  0  0
 21 50  1  0  0  0  0
 22 27  1  0  0  0  0
 23 24  1  0  0  0  0
 23 22  2  0  0  0  0
 24 25  2  0  0  0  0
 25 53  1  0  0  0  0
 25 26  1  0  0  0  0
 26 54  1  0  0  0  0
 27 26  2  0  0  0  0
 27  2  1  0  0  0  0
 28 30  1  0  0  0  0
 28 29  1  0  0  0  0
 29 57  1  0  0  0  0
 29 59  1  0  0  0  0
 30 61  1  0  0  0  0
 30 62  1  0  0  0  0
 31 28  1  0  0  0  0
 31 65  1  0  0  0  0
 32  5  1  0  0  0  0
 33  6  1  0  0  0  0
 34  7  1  0  0  0  0
 38 11  1  0  0  0  0
 42 16  1  0  0  0  0
 43 18  1  0  0  0  0
 44 18  1  0  0  0  0
 45 19  1  0  0  0  0
 47 20  1  0  0  0  0
 48 20  1  0  0  0  0
 49 21  1  0  0  0  0
 51 23  1  0  0  0  0
 52 24  1  0  0  0  0
 56  4  1  0  0  0  0
 58 29  1  0  0  0  0
 60 30  1  0  0  0  0
 63 31  1  0  0  0  0
 64 31  1  0  0  0  0
M  END
