1,2,3,4
 OpenBabel05122313063D

 54 56  0  0  1  0  0  0  0  0999 V2000
    1.7363   -1.4709    0.9214 S   0  0  1  0  0  3  0  0  0  0  0  0
   -1.6735   -1.5209    0.9901 S   0  0  2  0  0  3  0  0  0  0  0  0
   -1.4049    1.2778   -0.1535 N   0  0  0  0  0  2  0  0  0  0  0  0
    1.2519    1.3443   -0.3156 N   0  0  0  0  0  2  0  0  0  0  0  0
    1.5875   -2.9567    1.0992 O   0  0  0  0  0  1  0  0  0  0  0  0
   -1.5043   -2.9852    1.2853 O   0  0  0  0  0  1  0  0  0  0  0  0
    0.5674    2.6435   -0.5309 C   0  0  1  0  0  0  0  0  0  0  0  0
    0.4405    2.7534   -1.6338 H   0  0  0  0  0  0  0  0  0  0  0  0
   -0.8392    2.6050    0.0930 C   0  0  1  0  0  0  0  0  0  0  0  0
   -0.6960    2.6227    1.2014 H   0  0  0  0  0  0  0  0  0  0  0  0
   -1.6362    3.8420   -0.3183 C   0  0  0  0  0  0  0  0  0  0  0  0
   -1.7556    3.8795   -1.4245 H   0  0  0  0  0  0  0  0  0  0  0  0
   -2.6551    3.8035    0.1199 H   0  0  0  0  0  0  0  0  0  0  0  0
   -0.9021    5.0990    0.1773 C   0  0  0  0  0  0  0  0  0  0  0  0
   -0.9111    5.0998    1.2890 H   0  0  0  0  0  0  0  0  0  0  0  0
   -1.4490    6.0096   -0.1421 H   0  0  0  0  0  0  0  0  0  0  0  0
    0.5502    5.1498   -0.3154 C   0  0  0  0  0  0  0  0  0  0  0  0
    0.5570    5.2981   -1.4184 H   0  0  0  0  0  0  0  0  0  0  0  0
    1.0725    6.0262    0.1202 H   0  0  0  0  0  0  0  0  0  0  0  0
    1.3204    3.8636    0.0164 C   0  0  0  0  0  0  0  0  0  0  0  0
    1.4288    3.7350    1.1150 H   0  0  0  0  0  0  0  0  0  0  0  0
    2.3440    3.9131   -0.4071 H   0  0  0  0  0  0  0  0  0  0  0  0
    2.6987   -0.8897    2.3632 C   0  0  0  0  0  0  0  0  0  0  0  0
    3.5797   -1.5537    2.4333 H   0  0  0  0  0  0  0  0  0  0  0  0
    2.0252   -0.9866    3.2329 H   0  0  0  0  0  0  0  0  0  0  0  0
    2.9709    0.1720    2.2203 H   0  0  0  0  0  0  0  0  0  0  0  0
    3.0370   -1.2111   -0.3367 C   0  0  0  0  0  0  0  0  0  0  0  0
    3.8380   -2.3253   -0.5891 C   0  0  0  0  0  0  0  0  0  0  0  0
    3.5798   -3.2678   -0.0805 H   0  0  0  0  0  0  0  0  0  0  0  0
    4.9166   -2.2257   -1.4823 C   0  0  0  0  0  0  0  0  0  0  0  0
    5.5418   -3.1071   -1.6897 H   0  0  0  0  0  0  0  0  0  0  0  0
    5.1886   -0.9976   -2.1067 C   0  0  0  0  0  0  0  0  0  0  0  0
    6.0355   -0.9048   -2.8028 H   0  0  0  0  0  0  0  0  0  0  0  0
    4.3717    0.1094   -1.8567 C   0  0  0  0  0  0  0  0  0  0  0  0
    4.5738    1.0649   -2.3661 H   0  0  0  0  0  0  0  0  0  0  0  0
    3.2562    0.0303   -0.9827 C   0  0  0  0  0  0  0  0  0  0  0  0
    2.4244    1.2194   -0.8781 C   0  0  0  0  0  3  0  0  0  0  0  0
    2.8334    2.1000   -1.4106 H   0  0  0  0  0  0  0  0  0  0  0  0
   -2.6860   -0.8422    2.3521 C   0  0  0  0  0  0  0  0  0  0  0  0
   -3.5504   -1.5218    2.4631 H   0  0  0  0  0  0  0  0  0  0  0  0
   -2.9833    0.1942    2.1092 H   0  0  0  0  0  0  0  0  0  0  0  0
   -2.0276   -0.8394    3.2392 H   0  0  0  0  0  0  0  0  0  0  0  0
   -2.9248   -1.3767   -0.3382 C   0  0  0  0  0  0  0  0  0  0  0  0
   -3.5824   -2.5623   -0.6621 C   0  0  0  0  0  0  0  0  0  0  0  0
   -3.2647   -3.4832   -0.1482 H   0  0  0  0  0  0  0  0  0  0  0  0
   -4.6054   -2.5508   -1.6248 C   0  0  0  0  0  0  0  0  0  0  0  0
   -5.1196   -3.4868   -1.8900 H   0  0  0  0  0  0  0  0  0  0  0  0
   -4.9707   -1.3420   -2.2383 C   0  0  0  0  0  0  0  0  0  0  0  0
   -5.7778   -1.3220   -2.9857 H   0  0  0  0  0  0  0  0  0  0  0  0
   -4.3023   -0.1580   -1.9065 C   0  0  0  0  0  0  0  0  0  0  0  0
   -4.5812    0.7871   -2.3989 H   0  0  0  0  0  0  0  0  0  0  0  0
   -3.2403   -0.1478   -0.9694 C   0  0  0  0  0  0  0  0  0  0  0  0
   -2.5650    1.1216   -0.7261 C   0  0  0  0  0  3  0  0  0  0  0  0
   -3.0990    2.0174   -1.0923 H   0  0  0  0  0  0  0  0  0  0  0  0
  1  5  1  1  0  0  0
  1 23  1  0  0  0  0
  2  6  1  1  0  0  0
  2 39  1  0  0  0  0
  3  9  1  0  0  0  0
  7  8  1  6  0  0  0
  7  4  1  0  0  0  0
  7 20  1  0  0  0  0
  7  9  1  0  0  0  0
  9 10  1  1  0  0  0
 11  9  1  0  0  0  0
 11 13  1  0  0  0  0
 11 14  1  0  0  0  0
 12 11  1  0  0  0  0
 14 15  1  0  0  0  0
 16 14  1  0  0  0  0
 17 20  1  0  0  0  0
 17 19  1  0  0  0  0
 17 14  1  0  0  0  0
 18 17  1  0  0  0  0
 20 21  1  0  0  0  0
 22 20  1  0  0  0  0
 23 24  1  0  0  0  0
 23 25  1  0  0  0  0
 26 23  1  0  0  0  0
 27  1  1  0  0  0  0
 28 27  1  0  0  0  0
 28 29  1  0  0  0  0
 30 28  2  0  0  0  0
 31 30  1  0  0  0  0
 32 34  2  0  0  0  0
 32 30  1  0  0  0  0
 33 32  1  0  0  0  0
 34 36  1  0  0  0  0
 35 34  1  0  0  0  0
 36 37  1  0  0  0  0
 36 27  2  0  0  0  0
 37  4  1  0  0  0  0
 38 37  1  0  0  0  0
 39 40  1  0  0  0  0
 39 42  1  0  0  0  0
 41 39  1  0  0  0  0
 43  2  1  0  0  0  0
 44 43  1  0  0  0  0
 44 45  1  0  0  0  0
 46 44  2  0  0  0  0
 47 46  1  0  0  0  0
 48 50  2  0  0  0  0
 48 46  1  0  0  0  0
 49 48  1  0  0  0  0
 50 52  1  0  0  0  0
 51 50  1  0  0  0  0
 52 53  1  0  0  0  0
 52 43  2  0  0  0  0
 53  3  1  0  0  0  0
 54 53  1  0  0  0  0
M  END
