1,4,5,6
 OpenBabel05122313063D

 44 43  0  0  0  0  0  0  0  0999 V2000
    1.5865   -1.6334   -0.5802 S   0  0  0  0  0  1  0  0  0  0  0  0
   -1.7922   -2.4705   -0.7032 O   0  0  0  0  0  0  0  0  0  0  0  0
    2.9559   -0.6716    0.2591 C   0  0  0  0  0  0  0  0  0  0  0  0
    1.5752    1.2807   -0.6098 N   0  0  0  0  0  0  0  0  0  0  0  0
   -1.5737   -1.3009    0.2051 S   0  0  0  0  0  5  0  0  0  0  0  0
   -0.9719    1.4417    0.7178 N   0  0  0  0  0  0  0  0  0  0  0  0
   -1.9630   -1.4544    1.6596 O   0  0  0  0  0  0  0  0  0  0  0  0
    2.9509    0.7820   -0.2767 C   0  0  0  0  0  0  0  0  0  0  0  0
    3.4067    1.4670    0.4705 H   0  0  0  0  0  0  0  0  0  0  0  0
    3.5768    0.8451   -1.1897 H   0  0  0  0  0  0  0  0  0  0  0  0
    1.1682    2.5286    0.0771 C   0  0  0  0  0  0  0  0  0  0  0  0
    1.6061    3.4310   -0.4115 H   0  0  0  0  0  0  0  0  0  0  0  0
    1.5700    2.4956    1.1085 H   0  0  0  0  0  0  0  0  0  0  0  0
   -0.3579    2.6492    0.1091 C   0  0  0  0  0  0  0  0  0  0  0  0
   -0.7562    2.7476   -0.9197 H   0  0  0  0  0  0  0  0  0  0  0  0
   -0.6519    3.5723    0.6627 H   0  0  0  0  0  0  0  0  0  0  0  0
   -2.4427    1.2894    0.4249 C   0  0  0  0  0  0  0  0  0  0  0  0
   -2.8140    2.2173   -0.0624 H   0  0  0  0  0  0  0  0  0  0  0  0
   -2.9734    1.1918    1.3907 H   0  0  0  0  0  0  0  0  0  0  0  0
   -2.7662    0.0667   -0.4442 C   0  0  0  0  0  0  0  0  0  0  0  0
    4.2929   -1.3445   -0.0707 C   0  0  0  0  0  0  0  0  0  0  0  0
    5.1408   -0.7985    0.3976 H   0  0  0  0  0  0  0  0  0  0  0  0
    4.4594   -1.3834   -1.1659 H   0  0  0  0  0  0  0  0  0  0  0  0
    4.3025   -2.3834    0.3135 H   0  0  0  0  0  0  0  0  0  0  0  0
    2.7220   -0.6784    1.7778 C   0  0  0  0  0  0  0  0  0  0  0  0
    3.5508   -0.1652    2.3162 H   0  0  0  0  0  0  0  0  0  0  0  0
    2.6395   -1.7175    2.1496 H   0  0  0  0  0  0  0  0  0  0  0  0
    1.7656   -0.1752    2.0284 H   0  0  0  0  0  0  0  0  0  0  0  0
    1.4322    1.3978   -2.0775 C   0  0  0  0  0  0  0  0  0  0  0  0
    2.1391    2.1600   -2.4813 H   0  0  0  0  0  0  0  0  0  0  0  0
    0.4003    1.6890   -2.3500 H   0  0  0  0  0  0  0  0  0  0  0  0
    1.6362    0.4049   -2.5200 H   0  0  0  0  0  0  0  0  0  0  0  0
   -0.7515    1.3977    2.1849 C   0  0  0  0  0  0  0  0  0  0  0  0
   -1.2806    2.2395    2.6878 H   0  0  0  0  0  0  0  0  0  0  0  0
    0.3271    1.4694    2.4165 H   0  0  0  0  0  0  0  0  0  0  0  0
   -1.1297    0.4245    2.5532 H   0  0  0  0  0  0  0  0  0  0  0  0
   -2.4483    0.2680   -1.9213 C   0  0  0  0  0  0  0  0  0  0  0  0
   -3.1050    1.0453   -2.3678 H   0  0  0  0  0  0  0  0  0  0  0  0
   -2.5868   -0.6832   -2.4701 H   0  0  0  0  0  0  0  0  0  0  0  0
   -1.3882    0.5689   -2.0597 H   0  0  0  0  0  0  0  0  0  0  0  0
   -4.1833   -0.4408   -0.2127 C   0  0  0  0  0  0  0  0  0  0  0  0
   -4.9376    0.3151   -0.5187 H   0  0  0  0  0  0  0  0  0  0  0  0
   -4.3313   -0.6919    0.8566 H   0  0  0  0  0  0  0  0  0  0  0  0
   -4.3495   -1.3607   -0.8067 H   0  0  0  0  0  0  0  0  0  0  0  0
  1  3  1  0  0  0  0
  2  5  2  0  0  0  0
  3 25  1  0  0  0  0
  4  8  1  0  0  0  0
  4 11  1  0  0  0  0
  5  7  2  0  0  0  0
  6 33  1  0  0  0  0
  8  3  1  0  0  0  0
  8  9  1  0  0  0  0
 10  8  1  0  0  0  0
 11 14  1  0  0  0  0
 11 13  1  0  0  0  0
 12 11  1  0  0  0  0
 14 16  1  0  0  0  0
 14  6  1  0  0  0  0
 15 14  1  0  0  0  0
 17  6  1  0  0  0  0
 17 19  1  0  0  0  0
 18 17  1  0  0  0  0
 20 41  1  0  0  0  0
 20  5  1  0  0  0  0
 20 17  1  0  0  0  0
 21  3  1  0  0  0  0
 21 24  1  0  0  0  0
 21 22  1  0  0  0  0
 23 21  1  0  0  0  0
 25 28  1  0  0  0  0
 25 27  1  0  0  0  0
 25 26  1  0  0  0  0
 29  4  1  0  0  0  0
 30 29  1  0  0  0  0
 31 29  1  0  0  0  0
 32 29  1  0  0  0  0
 33 35  1  0  0  0  0
 33 36  1  0  0  0  0
 33 34  1  0  0  0  0
 37 20  1  0  0  0  0
 38 37  1  0  0  0  0
 39 37  1  0  0  0  0
 40 37  1  0  0  0  0
 41 43  1  0  0  0  0
 42 41  1  0  0  0  0
 44 41  1  0  0  0  0
M  END
