1,2,4,5
 OpenBabel05122313063D

 42 41  0  0  0  0  0  0  0  0999 V2000
    1.5511   -1.6603   -0.4483 S   0  0  0  0  0  1  0  0  0  0  0  0
    1.2434    1.1842   -0.6613 N   0  0  0  0  0  0  0  0  0  0  0  0
    2.8632   -0.5373    0.2629 C   0  0  0  0  0  0  0  0  0  0  0  0
   -1.5509   -1.6607    0.4477 S   0  0  0  0  0  1  0  0  0  0  0  0
   -1.2437    1.1839    0.6618 N   0  0  0  0  0  0  0  0  0  0  0  0
    2.6844    0.8597   -0.3712 C   0  0  0  0  0  0  0  0  0  0  0  0
    3.0978    1.6477    0.2948 H   0  0  0  0  0  0  0  0  0  0  0  0
    3.2528    0.9145   -1.3213 H   0  0  0  0  0  0  0  0  0  0  0  0
    0.7626    2.4362   -0.0290 C   0  0  0  0  0  0  0  0  0  0  0  0
    1.1269    3.3407   -0.5717 H   0  0  0  0  0  0  0  0  0  0  0  0
    1.1846    2.4810    0.9938 H   0  0  0  0  0  0  0  0  0  0  0  0
   -0.7640    2.4356    0.0278 C   0  0  0  0  0  0  0  0  0  0  0  0
   -1.1291    3.3404    0.5693 H   0  0  0  0  0  0  0  0  0  0  0  0
   -1.1861    2.4785   -0.9951 H   0  0  0  0  0  0  0  0  0  0  0  0
   -2.6848    0.8586    0.3732 C   0  0  0  0  0  0  0  0  0  0  0  0
   -3.1001    1.6476   -0.2906 H   0  0  0  0  0  0  0  0  0  0  0  0
   -3.2517    0.9109    1.3244 H   0  0  0  0  0  0  0  0  0  0  0  0
   -2.8632   -0.5374   -0.2628 C   0  0  0  0  0  0  0  0  0  0  0  0
    4.2437   -1.1020   -0.0901 C   0  0  0  0  0  0  0  0  0  0  0  0
    5.0573   -0.4527    0.3014 H   0  0  0  0  0  0  0  0  0  0  0  0
    4.3643   -1.1978   -1.1880 H   0  0  0  0  0  0  0  0  0  0  0  0
    4.3677   -2.1089    0.3552 H   0  0  0  0  0  0  0  0  0  0  0  0
    2.7001   -0.4578    1.7881 C   0  0  0  0  0  0  0  0  0  0  0  0
    3.4897    0.1793    2.2481 H   0  0  0  0  0  0  0  0  0  0  0  0
    2.7516   -1.4703    2.2326 H   0  0  0  0  0  0  0  0  0  0  0  0
    1.7038   -0.0448    2.0460 H   0  0  0  0  0  0  0  0  0  0  0  0
    1.0327    1.2042   -2.1278 C   0  0  0  0  0  0  0  0  0  0  0  0
    1.6392    2.0128   -2.6011 H   0  0  0  0  0  0  0  0  0  0  0  0
   -0.0341    1.3673   -2.3692 H   0  0  0  0  0  0  0  0  0  0  0  0
    1.3279    0.2148   -2.5236 H   0  0  0  0  0  0  0  0  0  0  0  0
   -1.0316    1.2051    2.1280 C   0  0  0  0  0  0  0  0  0  0  0  0
   -1.6380    2.0137    2.6013 H   0  0  0  0  0  0  0  0  0  0  0  0
    0.0353    1.3689    2.3682 H   0  0  0  0  0  0  0  0  0  0  0  0
   -1.3260    0.2159    2.5248 H   0  0  0  0  0  0  0  0  0  0  0  0
   -2.6998   -0.4561   -1.7879 C   0  0  0  0  0  0  0  0  0  0  0  0
   -3.4893    0.1814   -2.2473 H   0  0  0  0  0  0  0  0  0  0  0  0
   -2.7510   -1.4681   -2.2337 H   0  0  0  0  0  0  0  0  0  0  0  0
   -1.7034   -0.0426   -2.0451 H   0  0  0  0  0  0  0  0  0  0  0  0
   -4.2437   -1.1029    0.0892 C   0  0  0  0  0  0  0  0  0  0  0  0
   -5.0573   -0.4533   -0.3018 H   0  0  0  0  0  0  0  0  0  0  0  0
   -4.3645   -1.2000    1.1869 H   0  0  0  0  0  0  0  0  0  0  0  0
   -4.3672   -2.1093   -0.3574 H   0  0  0  0  0  0  0  0  0  0  0  0
  1  3  1  0  0  0  0
  2  6  1  0  0  0  0
  2  9  1  0  0  0  0
  3 23  1  0  0  0  0
  5 31  1  0  0  0  0
  6  3  1  0  0  0  0
  6  7  1  0  0  0  0
  8  6  1  0  0  0  0
  9 12  1  0  0  0  0
  9 11  1  0  0  0  0
 10  9  1  0  0  0  0
 12 13  1  0  0  0  0
 12  5  1  0  0  0  0
 14 12  1  0  0  0  0
 15  5  1  0  0  0  0
 15 17  1  0  0  0  0
 16 15  1  0  0  0  0
 18 39  1  0  0  0  0
 18 15  1  0  0  0  0
 18  4  1  0  0  0  0
 19  3  1  0  0  0  0
 19 20  1  0  0  0  0
 19 22  1  0  0  0  0
 21 19  1  0  0  0  0
 23 26  1  0  0  0  0
 23 25  1  0  0  0  0
 23 24  1  0  0  0  0
 27  2  1  0  0  0  0
 28 27  1  0  0  0  0
 29 27  1  0  0  0  0
 30 27  1  0  0  0  0
 31 33  1  0  0  0  0
 31 34  1  0  0  0  0
 31 32  1  0  0  0  0
 35 18  1  0  0  0  0
 36 35  1  0  0  0  0
 37 35  1  0  0  0  0
 38 35  1  0  0  0  0
 39 41  1  0  0  0  0
 40 39  1  0  0  0  0
 42 39  1  0  0  0  0
M  END
