1,2,13,14
 OpenBabel05122313063D

 31 30  0  0  1  0  0  0  0  0999 V2000
    1.6446    2.7474    0.0346 S   0  0  0  0  0  1  0  0  0  0  0  0
    3.2854   -1.0219   -0.2212 S   0  0  0  0  0  1  0  0  0  0  0  0
   -0.0836    3.0755    0.0026 C   0  0  0  0  0  0  0  0  0  0  0  0
   -1.5306   -0.0602   -0.4040 C   0  0  0  0  0  0  0  0  0  0  0  0
   -0.9416   -1.3924   -0.5031 C   0  0  0  0  0  0  0  0  0  0  0  0
    2.3466   -2.5020   -0.3709 C   0  0  0  0  0  0  0  0  0  0  0  0
   -3.0265    0.1464   -0.5674 C   0  0  1  0  0  0  0  0  0  0  0  0
   -3.3766    0.5183   -2.0073 C   0  0  0  0  0  0  0  0  0  0  0  0
   -3.8243   -1.2524    1.1812 C   0  0  0  0  0  0  0  0  0  0  0  0
   -4.5946   -2.5370    1.4229 C   0  0  0  0  0  0  0  0  0  0  0  0
   -0.4535    4.3762    0.1262 N   0  0  0  0  0  0  0  0  0  0  0  0
   -1.0897    2.2029   -0.1475 N   0  0  0  0  0  0  0  0  0  0  0  0
   -0.6866    0.9303   -0.2168 N   0  0  0  0  0  2  0  0  0  0  0  0
    0.3587   -1.4838   -0.3813 N   0  0  0  0  0  2  0  0  0  0  0  0
    1.0145   -2.6388   -0.4659 N   0  0  0  0  0  0  0  0  0  0  0  0
    3.0495   -3.6615   -0.4163 N   0  0  0  0  0  0  0  0  0  0  0  0
   -3.7557   -1.0205   -0.2188 O   0  0  0  0  0  0  0  0  0  0  0  0
    0.2567    5.1041    0.1375 H   0  0  0  0  0  0  0  0  0  0  0  0
   -1.4424    4.6099    0.0284 H   0  0  0  0  0  0  0  0  0  0  0  0
    2.5381   -4.5309   -0.5748 H   0  0  0  0  0  0  0  0  0  0  0  0
    4.0661   -3.6386   -0.4396 H   0  0  0  0  0  0  0  0  0  0  0  0
   -1.5818   -2.2735   -0.6821 H   0  0  0  0  0  0  0  0  0  0  0  0
   -3.3063    0.9987    0.0987 H   0  0  0  0  0  0  0  0  0  0  0  0
   -3.0853   -0.2960   -2.6999 H   0  0  0  0  0  0  0  0  0  0  0  0
   -2.8403    1.4435   -2.2930 H   0  0  0  0  0  0  0  0  0  0  0  0
   -4.4679    0.6851   -2.0983 H   0  0  0  0  0  0  0  0  0  0  0  0
   -4.3249   -0.3875    1.6838 H   0  0  0  0  0  0  0  0  0  0  0  0
   -2.7984   -1.3226    1.6208 H   0  0  0  0  0  0  0  0  0  0  0  0
   -4.6950   -2.7329    2.5087 H   0  0  0  0  0  0  0  0  0  0  0  0
   -5.6091   -2.4709    0.9818 H   0  0  0  0  0  0  0  0  0  0  0  0
   -4.0753   -3.3997    0.9596 H   0  0  0  0  0  0  0  0  0  0  0  0
  3  1  1  0  0  0  0
  3 11  1  0  0  0  0
  4 13  1  0  0  0  0
  5  4  2  0  0  0  0
  5 14  1  0  0  0  0
  6  2  1  0  0  0  0
  7  4  1  0  0  0  0
  7 17  1  0  0  0  0
  7 23  1  1  0  0  0
  8  7  1  0  0  0  0
  9 10  1  0  0  0  0
  9 28  1  0  0  0  0
  9 27  1  0  0  0  0
 10 29  1  0  0  0  0
 11 18  1  0  0  0  0
 12  3  2  0  0  0  0
 13 12  1  0  0  0  0
 15 14  1  0  0  0  0
 15  6  2  0  0  0  0
 16  6  1  0  0  0  0
 17  9  1  0  0  0  0
 19 11  1  0  0  0  0
 20 16  1  0  0  0  0
 21 16  1  0  0  0  0
 22  5  1  0  0  0  0
 24  8  1  0  0  0  0
 25  8  1  0  0  0  0
 26  8  1  0  0  0  0
 30 10  1  0  0  0  0
 31 10  1  0  0  0  0
M  END
