1,2,7,8
 OpenBabel05122313063D

 49 48  0  0  0  0  0  0  0  0999 V2000
   -1.9564   -0.6503    0.4049 S   0  0  0  0  0  0  0  0  0  0  0  0
   -0.4046    2.2366   -0.2943 S   0  0  0  0  0  0  0  0  0  0  0  0
   -4.7761   -0.5784   -0.7010 Cl  0  0  0  0  0  0  0  0  0  0  0  0
   -2.7620    2.6748    1.4101 Cl  0  0  0  0  0  0  0  0  0  0  0  0
    1.9419   -3.6204    0.1852 O   0  0  0  0  0  0  0  0  0  0  0  0
    4.2046    0.5386   -0.3634 O   0  0  0  0  0  0  0  0  0  0  0  0
    0.6521   -1.8146   -0.3392 N   0  0  0  0  0  2  0  0  0  0  0  0
    1.9445    0.5497   -0.6664 N   0  0  0  0  0  2  0  0  0  0  0  0
   -1.6169   -2.5159    0.3385 C   0  0  0  0  0  0  0  0  0  0  0  0
   -0.4578   -2.6872   -0.6510 C   0  0  0  0  0  0  0  0  0  0  0  0
   -2.8554   -3.2998   -0.0852 C   0  0  0  0  0  0  0  0  0  0  0  0
   -1.1943   -2.8617    1.7703 C   0  0  0  0  0  0  0  0  0  0  0  0
    2.0322    1.8569   -1.2786 C   0  0  0  0  0  0  0  0  0  0  0  0
    1.3540    2.9427   -0.4242 C   0  0  0  0  0  0  0  0  0  0  0  0
    2.0257    3.0743    0.9409 C   0  0  0  0  0  0  0  0  0  0  0  0
    1.2649    4.2768   -1.1638 C   0  0  0  0  0  0  0  0  0  0  0  0
    1.8272   -2.3854    0.0189 C   0  0  0  0  0  0  0  0  0  0  0  0
    3.0994   -1.5195    0.1857 C   0  0  0  0  0  0  0  0  0  0  0  0
    3.1013   -0.0483   -0.2921 C   0  0  0  0  0  0  0  0  0  0  0  0
    3.5254   -1.5544    1.6722 C   0  0  0  0  0  0  0  0  0  0  0  0
    4.1936   -2.2271   -0.6548 C   0  0  0  0  0  0  0  0  0  0  0  0
   -3.0203   -0.3112   -1.0312 C   0  0  0  0  0  0  0  0  0  0  0  0
   -0.9766    2.8497    1.3345 C   0  0  0  0  0  0  0  0  0  0  0  0
   -0.0987   -3.7383   -0.6069 H   0  0  0  0  0  0  0  0  0  0  0  0
   -0.8251   -2.4746   -1.6813 H   0  0  0  0  0  0  0  0  0  0  0  0
   -2.6160   -4.3823   -0.0235 H   0  0  0  0  0  0  0  0  0  0  0  0
   -3.7216   -3.0947    0.5730 H   0  0  0  0  0  0  0  0  0  0  0  0
   -3.1554   -3.0824   -1.1290 H   0  0  0  0  0  0  0  0  0  0  0  0
   -0.8335   -3.9100    1.7881 H   0  0  0  0  0  0  0  0  0  0  0  0
   -2.0415   -2.7531    2.4767 H   0  0  0  0  0  0  0  0  0  0  0  0
   -0.3627   -2.2175    2.1140 H   0  0  0  0  0  0  0  0  0  0  0  0
    3.1061    2.1188   -1.3958 H   0  0  0  0  0  0  0  0  0  0  0  0
    1.5482    1.8357   -2.2828 H   0  0  0  0  0  0  0  0  0  0  0  0
    3.1007    3.2915    0.7746 H   0  0  0  0  0  0  0  0  0  0  0  0
    1.5950    3.9009    1.5416 H   0  0  0  0  0  0  0  0  0  0  0  0
    1.9619    2.1345    1.5201 H   0  0  0  0  0  0  0  0  0  0  0  0
    2.2878    4.6846   -1.3080 H   0  0  0  0  0  0  0  0  0  0  0  0
    0.6820    5.0267   -0.5901 H   0  0  0  0  0  0  0  0  0  0  0  0
    0.7942    4.1549   -2.1594 H   0  0  0  0  0  0  0  0  0  0  0  0
    4.4975   -1.0340    1.7831 H   0  0  0  0  0  0  0  0  0  0  0  0
    3.6298   -2.6096    1.9940 H   0  0  0  0  0  0  0  0  0  0  0  0
    2.7790   -1.0551    2.3190 H   0  0  0  0  0  0  0  0  0  0  0  0
    5.1506   -1.6865   -0.5337 H   0  0  0  0  0  0  0  0  0  0  0  0
    4.2808   -3.2784   -0.3237 H   0  0  0  0  0  0  0  0  0  0  0  0
    3.9244   -2.2224   -1.7314 H   0  0  0  0  0  0  0  0  0  0  0  0
   -2.8767    0.7619   -1.2514 H   0  0  0  0  0  0  0  0  0  0  0  0
   -2.7124   -0.8977   -1.9153 H   0  0  0  0  0  0  0  0  0  0  0  0
   -0.7317    3.9246    1.4229 H   0  0  0  0  0  0  0  0  0  0  0  0
   -0.5274    2.2459    2.1482 H   0  0  0  0  0  0  0  0  0  0  0  0
  2 23  1  0  0  0  0
  6 19  2  0  0  0  0
  7 17  1  0  0  0  0
  8 19  1  0  0  0  0
  9  1  1  0  0  0  0
  9 12  1  0  0  0  0
 10 24  1  0  0  0  0
 10  7  1  0  0  0  0
 10  9  1  0  0  0  0
 11 26  1  0  0  0  0
 11  9  1  0  0  0  0
 11 27  1  0  0  0  0
 12 29  1  0  0  0  0
 12 31  1  0  0  0  0
 12 30  1  0  0  0  0
 13  8  1  0  0  0  0
 13 14  1  0  0  0  0
 14  2  1  0  0  0  0
 14 15  1  0  0  0  0
 15 36  1  0  0  0  0
 15 35  1  0  0  0  0
 16 38  1  0  0  0  0
 16 14  1  0  0  0  0
 17  5  2  0  0  0  0
 17 18  1  0  0  0  0
 18 20  1  0  0  0  0
 19 18  1  0  0  0  0
 20 40  1  0  0  0  0
 20 41  1  0  0  0  0
 20 42  1  0  0  0  0
 21 43  1  0  0  0  0
 21 44  1  0  0  0  0
 21 18  1  0  0  0  0
 22  3  1  0  0  0  0
 22  1  1  0  0  0  0
 23  4  1  0  0  0  0
 23 48  1  0  0  0  0
 23 49  1  0  0  0  0
 25 10  1  0  0  0  0
 28 11  1  0  0  0  0
 32 13  1  0  0  0  0
 33 13  1  0  0  0  0
 34 15  1  0  0  0  0
 37 16  1  0  0  0  0
 39 16  1  0  0  0  0
 45 21  1  0  0  0  0
 46 22  1  0  0  0  0
 47 22  1  0  0  0  0
M  END
