1,2,6,7
 OpenBabel05122313063D

 40 40  0  0  1  0  0  0  0  0999 V2000
    0.2132   -0.3993   -2.4518 S   0  0  0  0  0  1  0  0  0  0  0  0
    4.2137   -0.8054   -1.6381 S   0  0  0  0  0  1  0  0  0  0  0  0
   -2.1349    0.7568   -2.0572 N   0  0  0  0  0  0  0  0  0  0  0  0
   -2.3723   -0.0810   -2.5919 H   0  0  0  0  0  0  0  0  0  0  0  0
   -0.4552    1.7122   -0.7733 N   0  0  0  0  0  2  0  0  0  0  0  0
    0.8354    1.6472   -0.4140 N   0  0  0  0  0  2  0  0  0  0  0  0
    3.3457    1.3064    0.2091 N   0  0  0  0  0  2  0  0  0  0  0  0
    4.6435    1.0608    0.3671 N   0  0  0  0  0  2  0  0  0  0  0  0
    6.4546   -0.2222   -0.2462 N   0  0  0  0  0  0  0  0  0  0  0  0
   -3.2102    1.5906   -1.7222 C   0  0  0  0  0  0  0  0  0  0  0  0
   -3.0586    2.9395   -1.3262 C   0  0  0  0  0  0  0  0  0  0  0  0
   -2.0488    3.3530   -1.2290 H   0  0  0  0  0  0  0  0  0  0  0  0
   -4.1930    3.7121   -1.0444 C   0  0  0  0  0  0  0  0  0  0  0  0
   -4.0595    4.7626   -0.7423 H   0  0  0  0  0  0  0  0  0  0  0  0
   -5.4857    3.1695   -1.1365 C   0  0  0  0  0  0  0  0  0  0  0  0
   -6.3679    3.7847   -0.9060 H   0  0  0  0  0  0  0  0  0  0  0  0
   -5.6354    1.8287   -1.5294 C   0  0  0  0  0  0  0  0  0  0  0  0
   -6.6385    1.3819   -1.6051 H   0  0  0  0  0  0  0  0  0  0  0  0
   -4.5130    1.0455   -1.8215 C   0  0  0  0  0  0  0  0  0  0  0  0
   -4.6331   -0.0105   -2.1110 H   0  0  0  0  0  0  0  0  0  0  0  0
   -0.8092    0.7977   -1.6791 C   0  0  1  0  0  3  0  0  0  0  0  0
    1.3190    2.4804    0.4852 C   0  0  0  0  0  0  0  0  0  0  0  0
    2.7468    2.3194    0.8051 C   0  0  0  0  0  0  0  0  0  0  0  0
    0.4591    3.5330    1.1185 C   0  0  0  0  0  0  0  0  0  0  0  0
   -0.5237    3.0942    1.3854 H   0  0  0  0  0  0  0  0  0  0  0  0
    0.2473    4.3514    0.3969 H   0  0  0  0  0  0  0  0  0  0  0  0
    0.9253    3.9756    2.0167 H   0  0  0  0  0  0  0  0  0  0  0  0
    3.4643    3.2670    1.7215 C   0  0  0  0  0  0  0  0  0  0  0  0
    4.5511    3.0776    1.6567 H   0  0  0  0  0  0  0  0  0  0  0  0
    3.1503    3.1270    2.7784 H   0  0  0  0  0  0  0  0  0  0  0  0
    3.2612    4.3250    1.4590 H   0  0  0  0  0  0  0  0  0  0  0  0
    5.1247    0.0787   -0.4171 C   0  0  2  0  0  3  0  0  0  0  0  0
    7.2665    0.4657    0.7432 C   0  0  0  0  0  0  0  0  0  0  0  0
    8.0914    1.0262    0.2496 H   0  0  0  0  0  0  0  0  0  0  0  0
    7.7241   -0.2687    1.4421 H   0  0  0  0  0  0  0  0  0  0  0  0
    6.6290    1.1682    1.3053 H   0  0  0  0  0  0  0  0  0  0  0  0
    7.1600   -1.2053   -1.0400 C   0  0  0  0  0  0  0  0  0  0  0  0
    6.4693   -1.6608   -1.7717 H   0  0  0  0  0  0  0  0  0  0  0  0
    7.5792   -2.0051   -0.3892 H   0  0  0  0  0  0  0  0  0  0  0  0
    8.0080   -0.7313   -1.5833 H   0  0  0  0  0  0  0  0  0  0  0  0
  3 10  1  0  0  0  0
  3 21  1  0  0  0  0
  4  3  1  0  0  0  0
  5  6  1  0  0  0  0
  6 22  1  0  0  0  0
  7  8  1  0  0  0  0
  7 23  1  0  0  0  0
  9 33  1  0  0  0  0
 10 11  1  0  0  0  0
 11 12  1  0  0  0  0
 11 13  2  0  0  0  0
 13 14  1  0  0  0  0
 15 13  1  0  0  0  0
 15 16  1  0  0  0  0
 17 15  2  0  0  0  0
 18 17  1  0  0  0  0
 19 10  2  0  0  0  0
 19 17  1  0  0  0  0
 20 19  1  0  0  0  0
 21  1  1  1  0  0  0
 21  5  1  0  0  0  0
 22 23  2  0  0  0  0
 22 24  1  0  0  0  0
 23 28  1  0  0  0  0
 24 25  1  0  0  0  0
 24 27  1  0  0  0  0
 26 24  1  0  0  0  0
 28 30  1  0  0  0  0
 29 28  1  0  0  0  0
 31 28  1  0  0  0  0
 32  2  1  6  0  0  0
 32  9  1  0  0  0  0
 32  8  1  0  0  0  0
 33 36  1  0  0  0  0
 33 35  1  0  0  0  0
 34 33  1  0  0  0  0
 37 39  1  0  0  0  0
 37  9  1  0  0  0  0
 38 37  1  0  0  0  0
 40 37  1  0  0  0  0
M  END
