2,3,5,10
 OpenBabel05122313063D

 37 36  0  0  1  0  0  0  0  0999 V2000
    0.0003    3.3678   -0.0000 S   0  0  0  0  0  0  0  0  0  0  0  0
   -1.5080   -1.8708    1.3812 S   0  0  0  0  0  1  0  0  0  0  0  0
    1.5078   -1.8701   -1.3818 S   0  0  0  0  0  1  0  0  0  0  0  0
    2.8576   -0.1886    0.3783 N   0  0  0  0  0  0  0  0  0  0  0  0
   -1.6382    0.3426   -0.6354 N   0  0  0  0  0  2  0  0  0  0  0  0
    0.2732    2.1677    1.3876 C   0  0  0  0  0  0  0  0  0  0  0  0
    4.0817   -1.7639   -0.7336 N   0  0  0  0  0  0  0  0  0  0  0  0
    1.6059    1.5145    1.2276 C   0  0  1  0  0  3  0  0  0  0  0  0
   -4.0819   -1.7636    0.7338 N   0  0  0  0  0  0  0  0  0  0  0  0
    1.6382    0.3424    0.6357 N   0  0  0  0  0  2  0  0  0  0  0  0
   -5.3074   -1.3098    0.1136 C   0  0  0  0  0  0  0  0  0  0  0  0
   -2.8576   -0.1882   -0.3779 N   0  0  0  0  0  0  0  0  0  0  0  0
    5.3073   -1.3103   -0.1135 C   0  0  0  0  0  0  0  0  0  0  0  0
   -2.8659    2.2409   -1.5834 C   0  0  0  0  0  0  0  0  0  0  0  0
   -1.6058    1.5147   -1.2274 C   0  0  1  0  0  3  0  0  0  0  0  0
    2.8661    2.2406    1.5836 C   0  0  0  0  0  0  0  0  0  0  0  0
   -0.2730    2.1676   -1.3876 C   0  0  0  0  0  0  0  0  0  0  0  0
   -2.8669   -1.2038    0.4844 C   0  0  0  0  0  0  0  0  0  0  0  0
    2.8668   -1.2038   -0.4844 C   0  0  0  0  0  0  0  0  0  0  0  0
   -0.5544    1.4275    1.4110 H   0  0  0  0  0  0  0  0  0  0  0  0
    0.2162    2.7894    2.3027 H   0  0  0  0  0  0  0  0  0  0  0  0
   -5.4995   -0.2387    0.3377 H   0  0  0  0  0  0  0  0  0  0  0  0
   -6.1500   -1.9159    0.4956 H   0  0  0  0  0  0  0  0  0  0  0  0
   -5.2648   -1.4058   -0.9922 H   0  0  0  0  0  0  0  0  0  0  0  0
    6.1498   -1.9161   -0.4959 H   0  0  0  0  0  0  0  0  0  0  0  0
    5.2649   -1.4068    0.9922 H   0  0  0  0  0  0  0  0  0  0  0  0
    5.4991   -0.2391   -0.3372 H   0  0  0  0  0  0  0  0  0  0  0  0
   -2.6542    3.2358   -2.0166 H   0  0  0  0  0  0  0  0  0  0  0  0
   -3.4618    1.6367   -2.2991 H   0  0  0  0  0  0  0  0  0  0  0  0
   -3.5094    2.3571   -0.6869 H   0  0  0  0  0  0  0  0  0  0  0  0
    3.5086    2.3586    0.6865 H   0  0  0  0  0  0  0  0  0  0  0  0
    3.4631    1.6354    2.2975 H   0  0  0  0  0  0  0  0  0  0  0  0
    2.6546    3.2347    2.0185 H   0  0  0  0  0  0  0  0  0  0  0  0
   -0.2160    2.7893   -2.3027 H   0  0  0  0  0  0  0  0  0  0  0  0
    0.5545    1.4273   -1.4110 H   0  0  0  0  0  0  0  0  0  0  0  0
   -4.0937   -2.5416    1.3910 H   0  0  0  0  0  0  0  0  0  0  0  0
    4.0934   -2.5414   -1.3914 H   0  0  0  0  0  0  0  0  0  0  0  0
  1  6  1  0  0  0  0
  3 19  1  0  0  0  0
  4 10  1  0  0  0  0
  5 12  1  0  0  0  0
  6 20  1  0  0  0  0
  6 21  1  0  0  0  0
  7 19  1  0  0  0  0
  7 13  1  0  0  0  0
  8 10  1  6  0  0  0
  8  6  1  0  0  0  0
  8 16  1  0  0  0  0
  9 36  1  0  0  0  0
 11 22  1  0  0  0  0
 11 23  1  0  0  0  0
 11  9  1  0  0  0  0
 12 18  2  0  0  0  0
 13 26  1  0  0  0  0
 14 15  1  0  0  0  0
 14 30  1  0  0  0  0
 15  5  1  1  0  0  0
 16 33  1  0  0  0  0
 16 32  1  0  0  0  0
 17 15  1  0  0  0  0
 17  1  1  0  0  0  0
 18  9  1  0  0  0  0
 18  2  1  0  0  0  0
 19  4  2  0  0  0  0
 24 11  1  0  0  0  0
 25 13  1  0  0  0  0
 27 13  1  0  0  0  0
 28 14  1  0  0  0  0
 29 14  1  0  0  0  0
 31 16  1  0  0  0  0
 34 17  1  0  0  0  0
 35 17  1  0  0  0  0
 37  7  1  0  0  0  0
M  END
