1,2,7,8
 OpenBabel05122313063D

 38 37  0  0  0  0  0  0  0  0999 V2000
    1.5675   -1.6311   -0.5750 S   0  0  0  0  0  0  0  0  0  0  0  0
    1.4955    1.3287    0.7433 N   0  0  0  0  0  0  0  0  0  0  0  0
    1.9041    0.8006    1.5319 H   0  0  0  0  0  0  0  0  0  0  0  0
    2.9245   -0.6594   -1.3365 C   0  0  0  0  0  0  0  0  0  0  0  0
    3.7091   -1.4005   -1.5914 H   0  0  0  0  0  0  0  0  0  0  0  0
    2.4671   -0.2958   -2.2781 H   0  0  0  0  0  0  0  0  0  0  0  0
   -1.6248   -1.5468   -0.6791 S   0  0  0  0  0  0  0  0  0  0  0  0
   -1.3384    1.5467    0.5955 N   0  0  0  0  0  0  0  0  0  0  0  0
   -1.5589    1.2820    1.5740 H   0  0  0  0  0  0  0  0  0  0  0  0
    3.4994    0.4896   -0.5111 C   0  0  0  0  0  0  0  0  0  0  0  0
    3.9368    0.1114    0.4396 H   0  0  0  0  0  0  0  0  0  0  0  0
    4.3632    0.8897   -1.0828 H   0  0  0  0  0  0  0  0  0  0  0  0
    2.5718    1.6690   -0.2211 C   0  0  0  0  0  0  0  0  0  0  0  0
    3.1755    2.4962    0.2116 H   0  0  0  0  0  0  0  0  0  0  0  0
    2.0937    2.0374   -1.1509 H   0  0  0  0  0  0  0  0  0  0  0  0
    0.7895    2.5026    1.3389 C   0  0  0  0  0  0  0  0  0  0  0  0
    1.4448    3.3974    1.3266 H   0  0  0  0  0  0  0  0  0  0  0  0
    0.5742    2.2498    2.3966 H   0  0  0  0  0  0  0  0  0  0  0  0
   -0.5045    2.7774    0.5977 C   0  0  0  0  0  0  0  0  0  0  0  0
   -1.0538    3.6210    1.0693 H   0  0  0  0  0  0  0  0  0  0  0  0
   -0.3107    3.0388   -0.4621 H   0  0  0  0  0  0  0  0  0  0  0  0
   -2.5967    1.7510   -0.1604 C   0  0  0  0  0  0  0  0  0  0  0  0
   -2.3104    2.0468   -1.1896 H   0  0  0  0  0  0  0  0  0  0  0  0
   -3.1334    2.6088    0.3012 H   0  0  0  0  0  0  0  0  0  0  0  0
   -3.5169    0.5346   -0.1950 C   0  0  0  0  0  0  0  0  0  0  0  0
   -4.5146    0.8910   -0.5268 H   0  0  0  0  0  0  0  0  0  0  0  0
   -3.6769    0.1322    0.8291 H   0  0  0  0  0  0  0  0  0  0  0  0
   -3.0908   -0.5662   -1.1619 C   0  0  0  0  0  0  0  0  0  0  0  0
   -2.8132   -0.1517   -2.1515 H   0  0  0  0  0  0  0  0  0  0  0  0
   -3.8986   -1.3100   -1.3160 H   0  0  0  0  0  0  0  0  0  0  0  0
    2.3857   -2.3311    0.8911 C   0  0  0  0  0  0  0  0  0  0  0  0
    3.1750   -3.0234    0.5406 H   0  0  0  0  0  0  0  0  0  0  0  0
    1.6109   -2.8852    1.4504 H   0  0  0  0  0  0  0  0  0  0  0  0
    2.8069   -1.5530    1.5534 H   0  0  0  0  0  0  0  0  0  0  0  0
   -2.2841   -2.4713    0.7419 C   0  0  0  0  0  0  0  0  0  0  0  0
   -2.6397   -1.8008    1.5449 H   0  0  0  0  0  0  0  0  0  0  0  0
   -1.4538   -3.0839    1.1362 H   0  0  0  0  0  0  0  0  0  0  0  0
   -3.0927   -3.1282    0.3677 H   0  0  0  0  0  0  0  0  0  0  0  0
  1 31  1  0  0  0  0
  2 16  1  0  0  0  0
  2  3  1  0  0  0  0
  4  1  1  0  0  0  0
  4 10  1  0  0  0  0
  5  4  1  0  0  0  0
  6  4  1  0  0  0  0
  7 35  1  0  0  0  0
  8 19  1  0  0  0  0
  8  9  1  0  0  0  0
 10 13  1  0  0  0  0
 10 11  1  0  0  0  0
 12 10  1  0  0  0  0
 13 14  1  0  0  0  0
 13  2  1  0  0  0  0
 15 13  1  0  0  0  0
 16 18  1  0  0  0  0
 17 16  1  0  0  0  0
 19 20  1  0  0  0  0
 19 16  1  0  0  0  0
 21 19  1  0  0  0  0
 22 24  1  0  0  0  0
 22  8  1  0  0  0  0
 23 22  1  0  0  0  0
 25 22  1  0  0  0  0
 25 27  1  0  0  0  0
 26 25  1  0  0  0  0
 28  7  1  0  0  0  0
 28 25  1  0  0  0  0
 29 28  1  0  0  0  0
 30 28  1  0  0  0  0
 31 33  1  0  0  0  0
 31 34  1  0  0  0  0
 32 31  1  0  0  0  0
 35 37  1  0  0  0  0
 35 36  1  0  0  0  0
 38 35  1  0  0  0  0
M  END
