1,2,5,6
 OpenBabel05122313063D

 35 34  0  0  0  0  0  0  0  0999 V2000
   -2.0019   -0.8218   -0.2509 S   0  0  0  0  0  5  0  0  0  0  0  0
    0.4398   -2.3512    0.4475 S   0  0  0  0  0  1  0  0  0  0  0  0
   -2.1596   -0.6732   -1.7453 O   0  0  0  0  0  0  0  0  0  0  0  0
   -2.6370   -1.9817    0.4402 O   0  0  0  0  0  0  0  0  0  0  0  0
   -0.6106    1.7100    0.2294 N   0  0  0  0  0  0  0  0  0  0  0  0
    2.0221    0.0958   -0.1076 N   0  0  0  0  0  0  0  0  0  0  0  0
   -2.0588    1.8457   -0.1375 C   0  0  0  0  0  0  0  0  0  0  0  0
    2.5168   -1.1137   -0.8388 C   0  0  0  0  0  0  0  0  0  0  0  0
    2.2012   -2.3918   -0.0890 C   0  0  0  0  0  0  0  0  0  0  0  0
    2.3318    1.2851   -0.9326 C   0  0  0  0  0  0  0  0  0  0  0  0
    2.6708    0.1763    1.2165 C   0  0  0  0  0  0  0  0  0  0  0  0
    1.6764    2.5834   -0.4761 C   0  0  0  0  0  0  0  0  0  0  0  0
    0.1615    2.6306   -0.6406 C   0  0  0  0  0  0  0  0  0  0  0  0
   -0.4391    2.0536    1.6571 C   0  0  0  0  0  0  0  0  0  0  0  0
   -2.8658    0.6901    0.3985 C   0  0  0  0  0  0  0  0  0  0  0  0
    2.4104    1.1274    1.7142 H   0  0  0  0  0  0  0  0  0  0  0  0
   -2.1187    1.8110   -1.2427 H   0  0  0  0  0  0  0  0  0  0  0  0
    3.6154   -0.9975   -1.0211 H   0  0  0  0  0  0  0  0  0  0  0  0
    1.9997   -1.1245   -1.8191 H   0  0  0  0  0  0  0  0  0  0  0  0
    2.3028   -0.6527    1.8484 H   0  0  0  0  0  0  0  0  0  0  0  0
    3.7810    0.1287    1.1211 H   0  0  0  0  0  0  0  0  0  0  0  0
    1.9764    2.8443    0.5601 H   0  0  0  0  0  0  0  0  0  0  0  0
   -0.7307    3.1136    1.8505 H   0  0  0  0  0  0  0  0  0  0  0  0
   -0.1007    2.3673   -1.6856 H   0  0  0  0  0  0  0  0  0  0  0  0
   -1.0642    1.3880    2.2773 H   0  0  0  0  0  0  0  0  0  0  0  0
    2.0926    3.3975   -1.1048 H   0  0  0  0  0  0  0  0  0  0  0  0
   -2.4313    2.8367    0.2117 H   0  0  0  0  0  0  0  0  0  0  0  0
   -0.1946    3.6745   -0.4640 H   0  0  0  0  0  0  0  0  0  0  0  0
    0.6085    1.9108    1.9707 H   0  0  0  0  0  0  0  0  0  0  0  0
    2.3654   -3.2553   -0.7651 H   0  0  0  0  0  0  0  0  0  0  0  0
    1.9952    1.0558   -1.9644 H   0  0  0  0  0  0  0  0  0  0  0  0
    3.4401    1.4186   -0.9764 H   0  0  0  0  0  0  0  0  0  0  0  0
   -3.8925    0.6598   -0.0146 H   0  0  0  0  0  0  0  0  0  0  0  0
    2.8798   -2.5288    0.7806 H   0  0  0  0  0  0  0  0  0  0  0  0
   -2.9074    0.6130    1.5023 H   0  0  0  0  0  0  0  0  0  0  0  0
  1 15  1  0  0  0  0
  1  4  2  0  0  0  0
  3  1  2  0  0  0  0
  5 14  1  0  0  0  0
  6 11  1  0  0  0  0
  7 27  1  0  0  0  0
  7  5  1  0  0  0  0
  7 15  1  0  0  0  0
  8  6  1  0  0  0  0
  8  9  1  0  0  0  0
  9  2  1  0  0  0  0
  9 34  1  0  0  0  0
 10 12  1  0  0  0  0
 10  6  1  0  0  0  0
 11 16  1  0  0  0  0
 11 20  1  0  0  0  0
 12 22  1  0  0  0  0
 13 12  1  0  0  0  0
 13 28  1  0  0  0  0
 13  5  1  0  0  0  0
 14 23  1  0  0  0  0
 14 29  1  0  0  0  0
 14 25  1  0  0  0  0
 15 35  1  0  0  0  0
 17  7  1  0  0  0  0
 18  8  1  0  0  0  0
 19  8  1  0  0  0  0
 21 11  1  0  0  0  0
 24 13  1  0  0  0  0
 26 12  1  0  0  0  0
 30  9  1  0  0  0  0
 31 10  1  0  0  0  0
 32 10  1  0  0  0  0
 33 15  1  0  0  0  0
M  END
