2,4,36,54
 OpenBabel05122313063D

 70 73  0  0  0  0  0  0  0  0999 V2000
   -4.4433    2.3603    0.8070 S   0  0  0  0  0  0  0  0  0  0  0  0
   -1.5562    2.4761    1.2630 S   0  0  0  0  0  1  0  0  0  0  0  0
   -0.9323   -3.7516   -1.0020 O   0  0  0  0  0  0  0  0  0  0  0  0
   -1.5902    0.1244   -0.6160 N   0  0  0  0  0  2  0  0  0  0  0  0
   -2.8259    0.6260   -0.3690 N   0  0  0  0  0  0  0  0  0  0  0  0
   -5.5772    1.2632   -0.1537 C   0  0  0  0  0  0  0  0  0  0  0  0
   -5.3074    0.2181    0.0944 H   0  0  0  0  0  0  0  0  0  0  0  0
   -5.3792    1.4246   -1.2312 H   0  0  0  0  0  0  0  0  0  0  0  0
   -6.9978    1.5962    0.2134 C   0  0  0  0  0  0  0  0  0  0  0  0
   -7.7516    2.4972   -0.5650 C   0  0  0  0  0  0  0  0  0  0  0  0
   -7.2959    2.9478   -1.4609 H   0  0  0  0  0  0  0  0  0  0  0  0
   -9.0698    2.8199   -0.2099 C   0  0  0  0  0  0  0  0  0  0  0  0
   -9.6473    3.5219   -0.8306 H   0  0  0  0  0  0  0  0  0  0  0  0
   -9.6501    2.2501    0.9341 C   0  0  0  0  0  0  0  0  0  0  0  0
  -10.6843    2.5024    1.2133 H   0  0  0  0  0  0  0  0  0  0  0  0
   -8.9049    1.3569    1.7214 C   0  0  0  0  0  0  0  0  0  0  0  0
   -9.3539    0.9075    2.6203 H   0  0  0  0  0  0  0  0  0  0  0  0
   -7.5880    1.0353    1.3649 C   0  0  0  0  0  0  0  0  0  0  0  0
   -7.0015    0.3400    1.9859 H   0  0  0  0  0  0  0  0  0  0  0  0
   -2.8651    1.6727    0.4447 C   0  0  0  0  0  0  0  0  0  0  0  0
   -1.4709   -1.0849   -1.1186 C   0  0  0  0  0  3  0  0  0  0  0  0
   -0.4299   -1.4251   -1.2346 H   0  0  0  0  0  0  0  0  0  0  0  0
   -2.5224   -2.0420   -1.4490 C   0  0  0  0  0  0  0  0  0  0  0  0
   -2.2109   -3.4341   -1.3583 C   0  0  0  0  0  0  0  0  0  0  0  0
   -3.1978   -4.4042   -1.6039 C   0  0  0  0  0  0  0  0  0  0  0  0
   -2.9574   -5.4723   -1.5132 H   0  0  0  0  0  0  0  0  0  0  0  0
   -4.4911   -4.0095   -1.9784 C   0  0  0  0  0  0  0  0  0  0  0  0
   -5.2543   -4.7781   -2.1739 H   0  0  0  0  0  0  0  0  0  0  0  0
   -4.8089   -2.6483   -2.1020 C   0  0  0  0  0  0  0  0  0  0  0  0
   -5.8214   -2.3392   -2.4003 H   0  0  0  0  0  0  0  0  0  0  0  0
   -3.8376   -1.6787   -1.8286 C   0  0  0  0  0  0  0  0  0  0  0  0
   -4.0753   -0.6113   -1.8950 H   0  0  0  0  0  0  0  0  0  0  0  0
   -0.7159   -4.9345   -0.2470 C   0  0  0  0  0  0  0  0  0  0  0  0
   -0.8698   -5.8552   -0.8561 H   0  0  0  0  0  0  0  0  0  0  0  0
   -1.4257   -4.9662    0.6103 H   0  0  0  0  0  0  0  0  0  0  0  0
    1.5563    2.4760   -1.2631 S   0  0  0  0  0  1  0  0  0  0  0  0
    2.8652    1.6726   -0.4448 C   0  0  0  0  0  0  0  0  0  0  0  0
    4.4434    2.3600   -0.8072 S   0  0  0  0  0  0  0  0  0  0  0  0
    5.5773    1.2627    0.1534 C   0  0  0  0  0  0  0  0  0  0  0  0
    5.3077    0.2177   -0.0951 H   0  0  0  0  0  0  0  0  0  0  0  0
    5.3792    1.4237    1.2309 H   0  0  0  0  0  0  0  0  0  0  0  0
    6.9979    1.5960   -0.2134 C   0  0  0  0  0  0  0  0  0  0  0  0
    7.7516    2.4968    0.5653 C   0  0  0  0  0  0  0  0  0  0  0  0
    7.2957    2.9470    1.4613 H   0  0  0  0  0  0  0  0  0  0  0  0
    9.0698    2.8198    0.2106 C   0  0  0  0  0  0  0  0  0  0  0  0
    9.6471    3.5216    0.8316 H   0  0  0  0  0  0  0  0  0  0  0  0
    9.6502    2.2504   -0.9335 C   0  0  0  0  0  0  0  0  0  0  0  0
   10.6845    2.5029   -1.2126 H   0  0  0  0  0  0  0  0  0  0  0  0
    8.9053    1.3574   -1.7212 C   0  0  0  0  0  0  0  0  0  0  0  0
    9.3544    0.9083   -2.6202 H   0  0  0  0  0  0  0  0  0  0  0  0
    7.5884    1.0356   -1.3651 C   0  0  0  0  0  0  0  0  0  0  0  0
    7.0019    0.3404   -1.9863 H   0  0  0  0  0  0  0  0  0  0  0  0
    2.8259    0.6259    0.3690 N   0  0  0  0  0  0  0  0  0  0  0  0
    1.5902    0.1243    0.6160 N   0  0  0  0  0  2  0  0  0  0  0  0
    1.4709   -1.0850    1.1186 C   0  0  0  0  0  3  0  0  0  0  0  0
    0.4298   -1.4251    1.2345 H   0  0  0  0  0  0  0  0  0  0  0  0
    2.5223   -2.0422    1.4489 C   0  0  0  0  0  0  0  0  0  0  0  0
    2.2107   -3.4342    1.3582 C   0  0  0  0  0  0  0  0  0  0  0  0
    0.9320   -3.7517    1.0020 O   0  0  0  0  0  0  0  0  0  0  0  0
    0.7156   -4.9345    0.2470 C   0  0  0  0  0  0  0  0  0  0  0  0
    0.8694   -5.8553    0.8560 H   0  0  0  0  0  0  0  0  0  0  0  0
    1.4255   -4.9662   -0.6104 H   0  0  0  0  0  0  0  0  0  0  0  0
    3.1976   -4.4044    1.6038 C   0  0  0  0  0  0  0  0  0  0  0  0
    2.9571   -5.4725    1.5132 H   0  0  0  0  0  0  0  0  0  0  0  0
    4.4909   -4.0098    1.9784 C   0  0  0  0  0  0  0  0  0  0  0  0
    5.2540   -4.7784    2.1739 H   0  0  0  0  0  0  0  0  0  0  0  0
    4.8087   -2.6485    2.1020 C   0  0  0  0  0  0  0  0  0  0  0  0
    5.8212   -2.3396    2.4003 H   0  0  0  0  0  0  0  0  0  0  0  0
    3.8375   -1.6789    1.8286 C   0  0  0  0  0  0  0  0  0  0  0  0
    4.0752   -0.6115    1.8950 H   0  0  0  0  0  0  0  0  0  0  0  0
  3 33  1  0  0  0  0
  4  5  1  0  0  0  0
  5 20  2  0  0  0  0
  6  7  1  0  0  0  0
  6  9  1  0  0  0  0
  6  1  1  0  0  0  0
  8  6  1  0  0  0  0
  9 18  1  0  0  0  0
 10 12  1  0  0  0  0
 10  9  2  0  0  0  0
 11 10  1  0  0  0  0
 12 14  2  0  0  0  0
 13 12  1  0  0  0  0
 14 15  1  0  0  0  0
 14 16  1  0  0  0  0
 16 17  1  0  0  0  0
 18 16  2  0  0  0  0
 18 19  1  0  0  0  0
 20  1  1  0  0  0  0
 20  2  1  0  0  0  0
 21  4  1  0  0  0  0
 22 21  1  0  0  0  0
 23 24  1  0  0  0  0
 23 21  1  0  0  0  0
 24  3  1  0  0  0  0
 25 26  1  0  0  0  0
 25 24  2  0  0  0  0
 27 25  1  0  0  0  0
 28 27  1  0  0  0  0
 29 27  2  0  0  0  0
 29 31  1  0  0  0  0
 30 29  1  0  0  0  0
 31 23  2  0  0  0  0
 32 31  1  0  0  0  0
 33 60  1  0  0  0  0
 33 35  1  0  0  0  0
 34 33  1  0  0  0  0
 36 37  1  0  0  0  0
 37 53  2  0  0  0  0
 38 37  1  0  0  0  0
 38 39  1  0  0  0  0
 39 41  1  0  0  0  0
 40 39  1  0  0  0  0
 42 39  1  0  0  0  0
 42 43  1  0  0  0  0
 43 44  1  0  0  0  0
 45 43  2  0  0  0  0
 45 46  1  0  0  0  0
 47 45  1  0  0  0  0
 48 47  1  0  0  0  0
 49 51  1  0  0  0  0
 49 47  2  0  0  0  0
 50 49  1  0  0  0  0
 51 42  2  0  0  0  0
 52 51  1  0  0  0  0
 53 54  1  0  0  0  0
 54 55  1  0  0  0  0
 55 56  1  0  0  0  0
 55 57  1  0  0  0  0
 57 69  1  0  0  0  0
 58 57  2  0  0  0  0
 58 63  1  0  0  0  0
 59 58  1  0  0  0  0
 60 61  1  0  0  0  0
 60 59  1  0  0  0  0
 62 60  1  0  0  0  0
 63 65  2  0  0  0  0
 64 63  1  0  0  0  0
 65 67  1  0  0  0  0
 65 66  1  0  0  0  0
 67 68  1  0  0  0  0
 69 70  1  0  0  0  0
 69 67  2  0  0  0  0
M  END
