2,3,8,9
 OpenBabel05122313063D

 70 73  0  0  1  0  0  0  0  0999 V2000
   -4.0623   -2.0927   -2.1902 S   0  0  0  0  0  0  0  0  0  0  0  0
   -1.3801   -3.0639   -1.3721 S   0  0  0  0  0  1  0  0  0  0  0  0
    1.3419   -3.5421    0.0758 S   0  0  0  0  0  1  0  0  0  0  0  0
    3.9862   -3.3081    1.4849 S   0  0  0  0  0  0  0  0  0  0  0  0
    0.2633    3.3532    0.3792 O   0  0  0  0  0  0  0  0  0  0  0  0
    2.0219    2.8321   -1.7477 O   0  0  0  0  0  0  0  0  0  0  0  0
   -2.1626   -0.4827   -1.1989 N   0  0  0  0  0  0  0  0  0  0  0  0
   -0.8725   -0.3487   -0.7607 N   0  0  0  0  0  2  0  0  0  0  0  0
    2.0001   -0.9480   -0.8447 N   0  0  0  0  0  2  0  0  0  0  0  0
    3.0722   -1.4872   -0.2032 N   0  0  0  0  0  2  0  0  0  0  0  0
   -2.4699   -1.7127   -1.5294 C   0  0  0  0  0  0  0  0  0  0  0  0
   -0.5723    0.7170   -0.0370 C   0  0  0  0  0  3  0  0  0  0  0  0
    0.4957    0.8568    0.1795 H   0  0  0  0  0  0  0  0  0  0  0  0
   -1.4924    1.7018    0.5232 C   0  0  0  0  0  0  0  0  0  0  0  0
   -2.8160    1.3939    0.9282 C   0  0  0  0  0  0  0  0  0  0  0  0
   -3.1979    0.3800    0.7662 H   0  0  0  0  0  0  0  0  0  0  0  0
   -3.6289    2.3505    1.5436 C   0  0  0  0  0  0  0  0  0  0  0  0
   -4.6485    2.0707    1.8466 H   0  0  0  0  0  0  0  0  0  0  0  0
   -3.1418    3.6491    1.7703 C   0  0  0  0  0  0  0  0  0  0  0  0
   -3.7776    4.4048    2.2561 H   0  0  0  0  0  0  0  0  0  0  0  0
   -1.8360    3.9828    1.3813 C   0  0  0  0  0  0  0  0  0  0  0  0
   -1.4319    4.9911    1.5559 H   0  0  0  0  0  0  0  0  0  0  0  0
   -1.0187    3.0239    0.7649 C   0  0  0  0  0  0  0  0  0  0  0  0
    0.3518    4.1904   -0.7727 C   0  0  0  0  0  0  0  0  0  0  0  0
    0.0754    5.2438   -0.5321 H   0  0  0  0  0  0  0  0  0  0  0  0
   -0.3410    3.8262   -1.5645 H   0  0  0  0  0  0  0  0  0  0  0  0
    1.7754    4.1517   -1.2844 C   0  0  0  0  0  0  0  0  0  0  0  0
    1.8998    4.8997   -2.1011 H   0  0  0  0  0  0  0  0  0  0  0  0
    2.4808    4.4106   -0.4633 H   0  0  0  0  0  0  0  0  0  0  0  0
    3.2929    2.3488   -1.7793 C   0  0  0  0  0  0  0  0  0  0  0  0
    4.4318    3.1664   -1.8747 C   0  0  0  0  0  0  0  0  0  0  0  0
    4.3258    4.2574   -1.9510 H   0  0  0  0  0  0  0  0  0  0  0  0
    5.7085    2.5824   -1.8805 C   0  0  0  0  0  0  0  0  0  0  0  0
    6.5961    3.2282   -1.9597 H   0  0  0  0  0  0  0  0  0  0  0  0
    5.8536    1.1886   -1.7919 C   0  0  0  0  0  0  0  0  0  0  0  0
    6.8552    0.7347   -1.8053 H   0  0  0  0  0  0  0  0  0  0  0  0
    4.7210    0.3728   -1.6839 C   0  0  0  0  0  0  0  0  0  0  0  0
    4.8218   -0.7153   -1.5941 H   0  0  0  0  0  0  0  0  0  0  0  0
    3.4195    0.9284   -1.6729 C   0  0  0  0  0  0  0  0  0  0  0  0
    2.1851    0.1706   -1.5230 C   0  0  0  0  0  3  0  0  0  0  0  0
    1.2713    0.6015   -1.9518 H   0  0  0  0  0  0  0  0  0  0  0  0
    2.8194   -2.6578    0.3315 C   0  0  2  0  0  3  0  0  0  0  0  0
   -4.9446   -0.5122   -1.9432 C   0  0  0  0  0  0  0  0  0  0  0  0
   -4.1922    0.2875   -2.1073 H   0  0  0  0  0  0  0  0  0  0  0  0
   -5.6824   -0.4632   -2.7698 H   0  0  0  0  0  0  0  0  0  0  0  0
   -5.6269   -0.3212   -0.6030 C   0  0  0  0  0  0  0  0  0  0  0  0
   -6.5380    0.7465   -0.4611 C   0  0  0  0  0  0  0  0  0  0  0  0
   -6.7559    1.3917   -1.3274 H   0  0  0  0  0  0  0  0  0  0  0  0
   -7.1657    0.9969    0.7671 C   0  0  0  0  0  0  0  0  0  0  0  0
   -7.8771    1.8322    0.8564 H   0  0  0  0  0  0  0  0  0  0  0  0
   -6.8883    0.1845    1.8794 C   0  0  0  0  0  0  0  0  0  0  0  0
   -7.3800    0.3788    2.8447 H   0  0  0  0  0  0  0  0  0  0  0  0
   -5.9850   -0.8811    1.7470 C   0  0  0  0  0  0  0  0  0  0  0  0
   -5.7627   -1.5272    2.6098 H   0  0  0  0  0  0  0  0  0  0  0  0
   -5.3630   -1.1347    0.5138 C   0  0  0  0  0  0  0  0  0  0  0  0
   -4.6664   -1.9804    0.4075 H   0  0  0  0  0  0  0  0  0  0  0  0
    4.6228   -1.7105    2.1896 C   0  0  0  0  0  0  0  0  0  0  0  0
    5.1971   -2.0534    3.0758 H   0  0  0  0  0  0  0  0  0  0  0  0
    5.3269   -1.2562    1.4674 H   0  0  0  0  0  0  0  0  0  0  0  0
    3.5235   -0.7430    2.5567 C   0  0  0  0  0  0  0  0  0  0  0  0
    2.4709   -1.1259    3.4118 C   0  0  0  0  0  0  0  0  0  0  0  0
    2.4676   -2.1390    3.8432 H   0  0  0  0  0  0  0  0  0  0  0  0
    1.4068   -0.2498    3.6698 C   0  0  0  0  0  0  0  0  0  0  0  0
    0.5850   -0.5691    4.3287 H   0  0  0  0  0  0  0  0  0  0  0  0
    1.3777    1.0229    3.0755 C   0  0  0  0  0  0  0  0  0  0  0  0
    0.5312    1.7024    3.2586 H   0  0  0  0  0  0  0  0  0  0  0  0
    2.4286    1.4189    2.2326 C   0  0  0  0  0  0  0  0  0  0  0  0
    2.3953    2.4052    1.7469 H   0  0  0  0  0  0  0  0  0  0  0  0
    3.4919    0.5407    1.9752 C   0  0  0  0  0  0  0  0  0  0  0  0
    4.2934    0.8373    1.2819 H   0  0  0  0  0  0  0  0  0  0  0  0
  1 43  1  0  0  0  0
  1 11  1  0  0  0  0
  4 57  1  0  0  0  0
  5 23  1  0  0  0  0
  6 27  1  0  0  0  0
  7  8  1  0  0  0  0
  8 12  1  0  0  0  0
  9 10  1  0  0  0  0
 10 42  1  0  0  0  0
 11  2  1  0  0  0  0
 11  7  2  0  0  0  0
 12 13  1  0  0  0  0
 12 14  1  0  0  0  0
 14 23  2  0  0  0  0
 14 15  1  0  0  0  0
 15 17  2  0  0  0  0
 16 15  1  0  0  0  0
 17 19  1  0  0  0  0
 17 18  1  0  0  0  0
 19 20  1  0  0  0  0
 21 22  1  0  0  0  0
 21 19  2  0  0  0  0
 23 21  1  0  0  0  0
 24 25  1  0  0  0  0
 24  5  1  0  0  0  0
 26 24  1  0  0  0  0
 27 24  1  0  0  0  0
 27 29  1  0  0  0  0
 28 27  1  0  0  0  0
 30  6  1  0  0  0  0
 30 39  1  0  0  0  0
 31 30  2  0  0  0  0
 32 31  1  0  0  0  0
 33 31  1  0  0  0  0
 33 35  2  0  0  0  0
 34 33  1  0  0  0  0
 35 37  1  0  0  0  0
 36 35  1  0  0  0  0
 37 39  2  0  0  0  0
 37 38  1  0  0  0  0
 39 40  1  0  0  0  0
 40  9  1  0  0  0  0
 41 40  1  0  0  0  0
 42  3  1  1  0  0  0
 42  4  1  0  0  0  0
 43 46  1  0  0  0  0
 44 43  1  0  0  0  0
 45 43  1  0  0  0  0
 46 47  2  0  0  0  0
 46 55  1  0  0  0  0
 47 49  1  0  0  0  0
 48 47  1  0  0  0  0
 49 50  1  0  0  0  0
 49 51  2  0  0  0  0
 51 52  1  0  0  0  0
 53 51  1  0  0  0  0
 53 54  1  0  0  0  0
 55 53  2  0  0  0  0
 56 55  1  0  0  0  0
 57 60  1  0  0  0  0
 57 58  1  0  0  0  0
 59 57  1  0  0  0  0
 60 61  1  0  0  0  0
 61 63  2  0  0  0  0
 61 62  1  0  0  0  0
 63 64  1  0  0  0  0
 65 66  1  0  0  0  0
 65 63  1  0  0  0  0
 67 65  2  0  0  0  0
 68 67  1  0  0  0  0
 69 67  1  0  0  0  0
 69 60  2  0  0  0  0
 70 69  1  0  0  0  0
M  END
