1,4,12,15
 OpenBabel05122313063D

 40 42  0  0  0  0  0  0  0  0999 V2000
    1.9913    0.9323   -1.3842 S   0  0  0  0  0  0  0  0  0  0  0  0
    1.5396    2.5266   -0.5419 C   0  0  0  0  0  0  0  0  0  0  0  0
    0.5907    2.3632    0.6465 C   0  0  0  0  0  0  0  0  0  0  0  0
   -0.5555    1.5352    0.2975 N   0  0  0  0  0  2  0  0  0  0  0  0
   -1.7228    1.7600    0.8017 C   0  0  0  0  0  3  0  0  0  0  0  0
   -2.9439    0.9618    0.6127 C   0  0  0  0  0  0  0  0  0  0  0  0
   -4.0449    1.4247    1.3827 C   0  0  0  0  0  0  0  0  0  0  0  0
   -5.2957    0.8041    1.3629 C   0  0  0  0  0  0  0  0  0  0  0  0
   -5.4949   -0.3104    0.5368 C   0  0  0  0  0  0  0  0  0  0  0  0
   -4.4376   -0.7784   -0.2558 C   0  0  0  0  0  0  0  0  0  0  0  0
   -3.1624   -0.1837   -0.2179 C   0  0  0  0  0  0  0  0  0  0  0  0
   -1.9913   -0.9322   -1.3843 S   0  0  0  0  0  0  0  0  0  0  0  0
   -1.5395   -2.5266   -0.5421 C   0  0  0  0  0  0  0  0  0  0  0  0
   -0.5907   -2.3633    0.6464 C   0  0  0  0  0  0  0  0  0  0  0  0
    0.5554   -1.5350    0.2978 N   0  0  0  0  0  2  0  0  0  0  0  0
    1.7227   -1.7601    0.8016 C   0  0  0  0  0  3  0  0  0  0  0  0
    2.9439   -0.9618    0.6127 C   0  0  0  0  0  0  0  0  0  0  0  0
    4.0448   -1.4247    1.3828 C   0  0  0  0  0  0  0  0  0  0  0  0
    5.2956   -0.8041    1.3630 C   0  0  0  0  0  0  0  0  0  0  0  0
    5.4950    0.3102    0.5368 C   0  0  0  0  0  0  0  0  0  0  0  0
    4.4376    0.7783   -0.2559 C   0  0  0  0  0  0  0  0  0  0  0  0
    3.1624    0.1836   -0.2180 C   0  0  0  0  0  0  0  0  0  0  0  0
    1.0650    3.1080   -1.3589 H   0  0  0  0  0  0  0  0  0  0  0  0
    2.4719    3.0450   -0.2437 H   0  0  0  0  0  0  0  0  0  0  0  0
    0.2868    3.3700    1.0144 H   0  0  0  0  0  0  0  0  0  0  0  0
    1.1334    1.8603    1.4788 H   0  0  0  0  0  0  0  0  0  0  0  0
   -1.8630    2.6366    1.4723 H   0  0  0  0  0  0  0  0  0  0  0  0
   -3.8931    2.3087    2.0216 H   0  0  0  0  0  0  0  0  0  0  0  0
   -6.1152    1.1968    1.9819 H   0  0  0  0  0  0  0  0  0  0  0  0
   -6.4746   -0.8084    0.4913 H   0  0  0  0  0  0  0  0  0  0  0  0
   -4.6015   -1.6282   -0.9362 H   0  0  0  0  0  0  0  0  0  0  0  0
   -1.0647   -3.1079   -1.3591 H   0  0  0  0  0  0  0  0  0  0  0  0
   -2.4717   -3.0451   -0.2441 H   0  0  0  0  0  0  0  0  0  0  0  0
   -0.2867   -3.3700    1.0142 H   0  0  0  0  0  0  0  0  0  0  0  0
   -1.1336   -1.8606    1.4788 H   0  0  0  0  0  0  0  0  0  0  0  0
    1.8631   -2.6371    1.4716 H   0  0  0  0  0  0  0  0  0  0  0  0
    3.8929   -2.3087    2.0217 H   0  0  0  0  0  0  0  0  0  0  0  0
    6.1151   -1.1968    1.9821 H   0  0  0  0  0  0  0  0  0  0  0  0
    6.4747    0.8082    0.4912 H   0  0  0  0  0  0  0  0  0  0  0  0
    4.6017    1.6280   -0.9364 H   0  0  0  0  0  0  0  0  0  0  0  0
  1  2  1  0  0  0  0
  1 22  1  0  0  0  0
  2 24  1  0  0  0  0
  2  3  1  0  0  0  0
  3 25  1  0  0  0  0
  3 26  1  0  0  0  0
  4  3  1  0  0  0  0
  4  5  1  0  0  0  0
  5 27  1  0  0  0  0
  6  5  1  0  0  0  0
  6  7  1  0  0  0  0
  7 28  1  0  0  0  0
  8  7  2  0  0  0  0
  8 29  1  0  0  0  0
  9  8  1  0  0  0  0
 10 11  1  0  0  0  0
 10  9  2  0  0  0  0
 11  6  2  0  0  0  0
 12 13  1  0  0  0  0
 12 11  1  0  0  0  0
 13 33  1  0  0  0  0
 13 14  1  0  0  0  0
 14 34  1  0  0  0  0
 14 35  1  0  0  0  0
 15 14  1  0  0  0  0
 15 16  1  0  0  0  0
 16 36  1  0  0  0  0
 17 16  1  0  0  0  0
 17 18  1  0  0  0  0
 18 37  1  0  0  0  0
 19 18  2  0  0  0  0
 19 38  1  0  0  0  0
 20 19  1  0  0  0  0
 21 22  1  0  0  0  0
 21 20  2  0  0  0  0
 22 17  2  0  0  0  0
 23  2  1  0  0  0  0
 30  9  1  0  0  0  0
 31 10  1  0  0  0  0
 32 13  1  0  0  0  0
 39 20  1  0  0  0  0
 40 21  1  0  0  0  0
M  END
