1,3,17,19
q = -2.0, confidence = 0.644

 32 31  0  0  0  0  0  0  0  0999 V2000
   -1.6552    1.7245    0.1265 S   0  0  0  0  0  1  0  0  0  0  0  0
   -3.4504   -1.8183    0.3857 O   0  0  0  0  0  0  0  0  0  0  0  0
   -1.2871   -1.1229    0.0650 N   0  0  0  0  0  2  0  0  0  0  0  0
   -3.0676    0.5395   -0.0998 C   0  0  0  0  0  0  0  0  0  0  0  0
   -2.6179   -0.9201    0.1676 C   0  0  0  0  0  0  0  0  0  0  0  0
   -0.6954   -2.4321    0.3184 C   0  0  0  0  0  0  0  0  0  0  0  0
   -1.3454   -3.2391   -0.0843 H   0  0  0  0  0  0  0  0  0  0  0  0
   -0.6077   -2.6098    1.4176 H   0  0  0  0  0  0  0  0  0  0  0  0
   -4.1858    0.9002    0.8836 C   0  0  0  0  0  0  0  0  0  0  0  0
   -4.6139    1.8973    0.6521 H   0  0  0  0  0  0  0  0  0  0  0  0
   -3.7998    0.9186    1.9215 H   0  0  0  0  0  0  0  0  0  0  0  0
   -4.9821    0.1285    0.8179 H   0  0  0  0  0  0  0  0  0  0  0  0
   -3.5765    0.6031   -1.5511 C   0  0  0  0  0  0  0  0  0  0  0  0
   -4.4054   -0.1236   -1.6963 H   0  0  0  0  0  0  0  0  0  0  0  0
   -2.7558    0.3527   -2.2515 H   0  0  0  0  0  0  0  0  0  0  0  0
   -3.9404    1.6227   -1.7934 H   0  0  0  0  0  0  0  0  0  0  0  0
    1.6552    1.7245   -0.1265 S   0  0  0  0  0  1  0  0  0  0  0  0
    3.4504   -1.8183   -0.3857 O   0  0  0  0  0  0  0  0  0  0  0  0
    1.2872   -1.1229   -0.0649 N   0  0  0  0  0  2  0  0  0  0  0  0
    3.0676    0.5395    0.0998 C   0  0  0  0  0  0  0  0  0  0  0  0
    2.6179   -0.9201   -0.1677 C   0  0  0  0  0  0  0  0  0  0  0  0
    0.6954   -2.4321   -0.3184 C   0  0  0  0  0  0  0  0  0  0  0  0
    1.3454   -3.2391    0.0843 H   0  0  0  0  0  0  0  0  0  0  0  0
    0.6077   -2.6098   -1.4176 H   0  0  0  0  0  0  0  0  0  0  0  0
    4.1858    0.9002   -0.8835 C   0  0  0  0  0  0  0  0  0  0  0  0
    4.6139    1.8973   -0.6520 H   0  0  0  0  0  0  0  0  0  0  0  0
    3.7998    0.9187   -1.9215 H   0  0  0  0  0  0  0  0  0  0  0  0
    4.9821    0.1285   -0.8179 H   0  0  0  0  0  0  0  0  0  0  0  0
    3.5765    0.6031    1.5511 C   0  0  0  0  0  0  0  0  0  0  0  0
    4.4054   -0.1237    1.6963 H   0  0  0  0  0  0  0  0  0  0  0  0
    2.7557    0.3527    2.2515 H   0  0  0  0  0  0  0  0  0  0  0  0
    3.9404    1.6227    1.7935 H   0  0  0  0  0  0  0  0  0  0  0  0
  3  5  1  0  0  0  0
  3  6  1  0  0  0  0
  4  1  1  0  0  0  0
  4  5  1  0  0  0  0
  4  9  1  0  0  0  0
  5  2  2  0  0  0  0
  6  8  1  0  0  0  0
  7  6  1  0  0  0  0
  9 11  1  0  0  0  0
 10  9  1  0  0  0  0
 12  9  1  0  0  0  0
 13  4  1  0  0  0  0
 14 13  1  0  0  0  0
 15 13  1  0  0  0  0
 16 13  1  0  0  0  0
 17 20  1  0  0  0  0
 18 21  2  0  0  0  0
 20 29  1  0  0  0  0
 21 19  1  0  0  0  0
 21 20  1  0  0  0  0
 22 19  1  0  0  0  0
 22 23  1  0  0  0  0
 22  6  1  0  0  0  0
 24 22  1  0  0  0  0
 25 28  1  0  0  0  0
 25 26  1  0  0  0  0
 25 20  1  0  0  0  0
 27 25  1  0  0  0  0
 29 30  1  0  0  0  0
 29 32  1  0  0  0  0
 29 31  1  0  0  0  0
M  END
