1,2,21,26
 OpenBabel05122313063D

 37 38  0  0  0  0  0  0  0  0999 V2000
   -1.9190   -1.3123    1.0004 S   0  0  0  0  0  0  0  0  0  0  0  0
   -1.7259    0.8088   -0.6692 N   0  0  0  0  0  0  0  0  0  0  0  0
   -0.0000    2.6322   -1.1466 C   0  0  0  0  0  0  0  0  0  0  0  0
   -0.0000    3.6157   -1.6596 H   0  0  0  0  0  0  0  0  0  0  0  0
   -0.0000    2.8566   -0.0594 H   0  0  0  0  0  0  0  0  0  0  0  0
   -2.8369    0.2077    1.4946 C   0  0  0  0  0  0  0  0  0  0  0  0
   -3.9056   -0.0808    1.5267 H   0  0  0  0  0  0  0  0  0  0  0  0
   -2.4957    0.4727    2.5100 H   0  0  0  0  0  0  0  0  0  0  0  0
   -2.5331    1.3294    0.4819 C   0  0  0  0  0  0  0  0  0  0  0  0
   -3.4700    1.7668    0.0738 H   0  0  0  0  0  0  0  0  0  0  0  0
   -1.9493    2.1226    0.9799 H   0  0  0  0  0  0  0  0  0  0  0  0
   -1.2907    1.9184   -1.5651 C   0  0  0  0  0  0  0  0  0  0  0  0
   -2.1234    2.6518   -1.6335 H   0  0  0  0  0  0  0  0  0  0  0  0
   -1.1595    1.4859   -2.5766 H   0  0  0  0  0  0  0  0  0  0  0  0
   -2.5889   -0.1660   -1.4172 C   0  0  0  0  0  0  0  0  0  0  0  0
   -2.0525   -0.4450   -2.3402 H   0  0  0  0  0  0  0  0  0  0  0  0
   -3.5382    0.3460   -1.6855 H   0  0  0  0  0  0  0  0  0  0  0  0
   -2.8479   -1.4359   -0.5826 C   0  0  0  0  0  0  0  0  0  0  0  0
   -2.4737   -2.3378   -1.0980 H   0  0  0  0  0  0  0  0  0  0  0  0
   -3.9108   -1.5800   -0.3082 H   0  0  0  0  0  0  0  0  0  0  0  0
    1.9190   -1.3122    1.0006 S   0  0  0  0  0  0  0  0  0  0  0  0
    2.8370    0.2078    1.4946 C   0  0  0  0  0  0  0  0  0  0  0  0
    3.9056   -0.0807    1.5267 H   0  0  0  0  0  0  0  0  0  0  0  0
    2.4958    0.4728    2.5100 H   0  0  0  0  0  0  0  0  0  0  0  0
    2.5331    1.3295    0.4819 C   0  0  0  0  0  0  0  0  0  0  0  0
    1.7259    0.8088   -0.6692 N   0  0  0  0  0  0  0  0  0  0  0  0
    1.2906    1.9184   -1.5651 C   0  0  0  0  0  0  0  0  0  0  0  0
    2.1234    2.6519   -1.6335 H   0  0  0  0  0  0  0  0  0  0  0  0
    1.1595    1.4859   -2.5766 H   0  0  0  0  0  0  0  0  0  0  0  0
    2.5888   -0.1660   -1.4172 C   0  0  0  0  0  0  0  0  0  0  0  0
    2.0523   -0.4450   -2.3401 H   0  0  0  0  0  0  0  0  0  0  0  0
    3.5381    0.3459   -1.6855 H   0  0  0  0  0  0  0  0  0  0  0  0
    2.8478   -1.4359   -0.5825 C   0  0  0  0  0  0  0  0  0  0  0  0
    2.4735   -2.3377   -1.0979 H   0  0  0  0  0  0  0  0  0  0  0  0
    3.9107   -1.5800   -0.3082 H   0  0  0  0  0  0  0  0  0  0  0  0
    3.4700    1.7668    0.0737 H   0  0  0  0  0  0  0  0  0  0  0  0
    1.9493    2.1227    0.9799 H   0  0  0  0  0  0  0  0  0  0  0  0
  1  6  1  0  0  0  0
  2  9  1  0  0  0  0
  3  5  1  0  0  0  0
  4  3  1  0  0  0  0
  6  7  1  0  0  0  0
  6  8  1  0  0  0  0
  9 11  1  0  0  0  0
  9  6  1  0  0  0  0
 10  9  1  0  0  0  0
 12  3  1  0  0  0  0
 12  2  1  0  0  0  0
 13 12  1  0  0  0  0
 14 12  1  0  0  0  0
 15  2  1  0  0  0  0
 15 18  1  0  0  0  0
 16 15  1  0  0  0  0
 17 15  1  0  0  0  0
 18 20  1  0  0  0  0
 18  1  1  0  0  0  0
 19 18  1  0  0  0  0
 21 22  1  0  0  0  0
 22 23  1  0  0  0  0
 22 24  1  0  0  0  0
 25 37  1  0  0  0  0
 25 22  1  0  0  0  0
 26 25  1  0  0  0  0
 27  3  1  0  0  0  0
 27 26  1  0  0  0  0
 28 27  1  0  0  0  0
 29 27  1  0  0  0  0
 30 26  1  0  0  0  0
 30 33  1  0  0  0  0
 31 30  1  0  0  0  0
 32 30  1  0  0  0  0
 33 35  1  0  0  0  0
 33 21  1  0  0  0  0
 34 33  1  0  0  0  0
 36 25  1  0  0  0  0
M  END
