1,2,3,4
 OpenBabel05122313063D

 26 25  0  0  0  0  0  0  0  0999 V2000
   -1.1982   -1.2296   -1.0829 S   0  0  0  0  0  0  0  0  0  0  0  0
   -1.1985    1.2292    1.0830 S   0  0  0  0  0  0  0  0  0  0  0  0
    0.4589   -1.4228    1.3662 N   0  0  0  0  0  0  0  0  0  0  0  0
    0.4583    1.4229   -1.3662 N   0  0  0  0  0  0  0  0  0  0  0  0
   -0.7143   -2.3104    1.4450 C   0  0  0  0  0  0  0  0  0  0  0  0
   -1.1415   -2.6949    0.0357 C   0  0  0  0  0  0  0  0  0  0  0  0
   -2.7813   -0.3909   -0.6539 C   0  0  0  0  0  0  0  0  0  0  0  0
   -2.7814    0.3900    0.6543 C   0  0  0  0  0  0  0  0  0  0  0  0
   -1.1425    2.6945   -0.0357 C   0  0  0  0  0  0  0  0  0  0  0  0
   -0.7152    2.3101   -1.4450 C   0  0  0  0  0  0  0  0  0  0  0  0
    0.7230   -0.9857    2.2660 H   0  0  0  0  0  0  0  0  0  0  0  0
    1.3044   -1.9417    1.0278 H   0  0  0  0  0  0  0  0  0  0  0  0
   -1.5289   -1.7908    1.9863 H   0  0  0  0  0  0  0  0  0  0  0  0
   -0.4806   -3.2286    2.0270 H   0  0  0  0  0  0  0  0  0  0  0  0
   -2.1156   -3.2208   -0.0035 H   0  0  0  0  0  0  0  0  0  0  0  0
   -0.3863   -3.3479   -0.4491 H   0  0  0  0  0  0  0  0  0  0  0  0
   -3.5778   -1.1633   -0.6632 H   0  0  0  0  0  0  0  0  0  0  0  0
   -2.9700    0.2659   -1.5256 H   0  0  0  0  0  0  0  0  0  0  0  0
   -2.9696   -0.2669    1.5261 H   0  0  0  0  0  0  0  0  0  0  0  0
   -3.5781    1.1621    0.6638 H   0  0  0  0  0  0  0  0  0  0  0  0
   -0.3874    3.3478    0.4490 H   0  0  0  0  0  0  0  0  0  0  0  0
   -2.1167    3.2200    0.0037 H   0  0  0  0  0  0  0  0  0  0  0  0
   -0.4820    3.2282   -2.0271 H   0  0  0  0  0  0  0  0  0  0  0  0
   -1.5297    1.7900   -1.9861 H   0  0  0  0  0  0  0  0  0  0  0  0
    1.3035    1.9423   -1.0278 H   0  0  0  0  0  0  0  0  0  0  0  0
    0.7226    0.9858   -2.2659 H   0  0  0  0  0  0  0  0  0  0  0  0
  1  7  1  0  0  0  0
  1  6  1  0  0  0  0
  3  5  1  0  0  0  0
  3 11  1  0  0  0  0
  4 25  1  0  0  0  0
  5 13  1  0  0  0  0
  5 14  1  0  0  0  0
  6  5  1  0  0  0  0
  7  8  1  0  0  0  0
  8 20  1  0  0  0  0
  8  2  1  0  0  0  0
  8 19  1  0  0  0  0
  9 22  1  0  0  0  0
  9 21  1  0  0  0  0
  9  2  1  0  0  0  0
 10  4  1  0  0  0  0
 10  9  1  0  0  0  0
 12  3  1  0  0  0  0
 15  6  1  0  0  0  0
 16  6  1  0  0  0  0
 17  7  1  0  0  0  0
 18  7  1  0  0  0  0
 23 10  1  0  0  0  0
 24 10  1  0  0  0  0
 26  4  1  0  0  0  0
M  END
