1,2,3,4
 OpenBabel05122313063D

 47 46  0  0  0  0  0  0  0  0999 V2000
   -1.5528   -1.4414   -0.0469 S   0  0  0  0  0  1  0  0  0  0  0  0
    1.6803   -1.4430   -0.3263 S   0  0  0  0  0  1  0  0  0  0  0  0
   -1.4745    1.5409    0.2728 N   0  0  0  0  0  0  0  0  0  0  0  0
    1.0726    1.0548    0.8706 N   0  0  0  0  0  2  0  0  0  0  0  0
   -3.0504   -0.3702    0.3908 C   0  0  0  0  0  0  0  0  0  0  0  0
   -3.7844   -0.0042   -0.9179 C   0  0  0  0  0  0  0  0  0  0  0  0
   -5.0360    0.8644   -0.7605 C   0  0  0  0  0  0  0  0  0  0  0  0
   -3.9266   -1.1675    1.3796 C   0  0  0  0  0  0  0  0  0  0  0  0
   -4.5732   -2.4299    0.8098 C   0  0  0  0  0  0  0  0  0  0  0  0
   -2.4914    0.8615    1.1104 C   0  0  0  0  0  0  0  0  0  0  0  0
   -0.7414    2.6674    0.9097 C   0  0  0  0  0  0  0  0  0  0  0  0
    3.0492   -0.3735    0.4282 C   0  0  0  0  0  0  0  0  0  0  0  0
    3.6976    0.4453   -0.7092 C   0  0  0  0  0  0  0  0  0  0  0  0
    4.8945    1.3088   -0.3009 C   0  0  0  0  0  0  0  0  0  0  0  0
    4.0358   -1.3024    1.1594 C   0  0  0  0  0  0  0  0  0  0  0  0
    4.8225   -2.2553    0.2595 C   0  0  0  0  0  0  0  0  0  0  0  0
    2.3147    0.5234    1.4346 C   0  0  0  0  0  0  0  0  0  0  0  0
    0.4695    2.1216    1.6580 C   0  0  0  0  0  0  0  0  0  0  0  0
   -3.0611    0.4810   -1.6107 H   0  0  0  0  0  0  0  0  0  0  0  0
   -4.0456   -0.9516   -1.4316 H   0  0  0  0  0  0  0  0  0  0  0  0
   -5.4941    1.0721   -1.7481 H   0  0  0  0  0  0  0  0  0  0  0  0
   -5.8081    0.3697   -0.1368 H   0  0  0  0  0  0  0  0  0  0  0  0
   -4.8162    1.8473   -0.2923 H   0  0  0  0  0  0  0  0  0  0  0  0
   -3.2859   -1.4394    2.2458 H   0  0  0  0  0  0  0  0  0  0  0  0
   -4.7151   -0.4909    1.7811 H   0  0  0  0  0  0  0  0  0  0  0  0
   -5.3221   -2.1991    0.0255 H   0  0  0  0  0  0  0  0  0  0  0  0
   -3.8091   -3.0973    0.3628 H   0  0  0  0  0  0  0  0  0  0  0  0
   -5.0943   -2.9954    1.6074 H   0  0  0  0  0  0  0  0  0  0  0  0
   -2.0020    0.5448    2.0531 H   0  0  0  0  0  0  0  0  0  0  0  0
   -3.3011    1.5818    1.3694 H   0  0  0  0  0  0  0  0  0  0  0  0
   -0.4003    3.3242    0.0856 H   0  0  0  0  0  0  0  0  0  0  0  0
   -1.4106    3.2557    1.5747 H   0  0  0  0  0  0  0  0  0  0  0  0
    4.0008   -0.2569   -1.5133 H   0  0  0  0  0  0  0  0  0  0  0  0
    2.9082    1.0830   -1.1601 H   0  0  0  0  0  0  0  0  0  0  0  0
    4.6336    2.0385    0.4937 H   0  0  0  0  0  0  0  0  0  0  0  0
    5.7428    0.7003    0.0744 H   0  0  0  0  0  0  0  0  0  0  0  0
    5.2669    1.8919   -1.1673 H   0  0  0  0  0  0  0  0  0  0  0  0
    4.7407   -0.6737    1.7498 H   0  0  0  0  0  0  0  0  0  0  0  0
    3.4556   -1.8890    1.9038 H   0  0  0  0  0  0  0  0  0  0  0  0
    5.5065   -1.7150   -0.4258 H   0  0  0  0  0  0  0  0  0  0  0  0
    5.4396   -2.9497    0.8641 H   0  0  0  0  0  0  0  0  0  0  0  0
    4.1371   -2.8653   -0.3637 H   0  0  0  0  0  0  0  0  0  0  0  0
    2.9739    1.3714    1.7405 H   0  0  0  0  0  0  0  0  0  0  0  0
    2.1029   -0.0626    2.3627 H   0  0  0  0  0  0  0  0  0  0  0  0
    0.1797    1.7488    2.6738 H   0  0  0  0  0  0  0  0  0  0  0  0
    1.1891    2.9554    1.8370 H   0  0  0  0  0  0  0  0  0  0  0  0
   -1.9444    1.8880   -0.5757 H   0  0  0  0  0  0  0  0  0  0  0  0
  1  5  1  0  0  0  0
  2 12  1  0  0  0  0
  3 11  1  0  0  0  0
  3 10  1  0  0  0  0
  4 17  1  0  0  0  0
  4 18  1  0  0  0  0
  5 10  1  0  0  0  0
  5  8  1  0  0  0  0
  6  7  1  0  0  0  0
  6  5  1  0  0  0  0
  7 23  1  0  0  0  0
  7 22  1  0  0  0  0
  8 25  1  0  0  0  0
  8 24  1  0  0  0  0
  9  8  1  0  0  0  0
  9 28  1  0  0  0  0
 10 30  1  0  0  0  0
 10 29  1  0  0  0  0
 11 32  1  0  0  0  0
 11 18  1  0  0  0  0
 12 15  1  0  0  0  0
 12 17  1  0  0  0  0
 13 14  1  0  0  0  0
 13 12  1  0  0  0  0
 14 36  1  0  0  0  0
 14 35  1  0  0  0  0
 15 38  1  0  0  0  0
 15 39  1  0  0  0  0
 16 41  1  0  0  0  0
 16 15  1  0  0  0  0
 17 43  1  0  0  0  0
 17 44  1  0  0  0  0
 18 46  1  0  0  0  0
 18 45  1  0  0  0  0
 19  6  1  0  0  0  0
 20  6  1  0  0  0  0
 21  7  1  0  0  0  0
 26  9  1  0  0  0  0
 27  9  1  0  0  0  0
 31 11  1  0  0  0  0
 33 13  1  0  0  0  0
 34 13  1  0  0  0  0
 37 14  1  0  0  0  0
 40 16  1  0  0  0  0
 42 16  1  0  0  0  0
 47  3  1  0  0  0  0
M  END
