1,2,5,6
 OpenBabel05122313063D

 48 49  0  0  1  0  0  0  0  0999 V2000
   -2.1843   -2.6006   -0.8464 S   0  0  0  0  0  1  0  0  0  0  0  0
    1.7974   -3.1023   -0.8455 S   0  0  0  0  0  1  0  0  0  0  0  0
   -4.3320   -1.0036   -1.2314 N   0  0  0  0  0  0  0  0  0  0  0  0
   -2.3817    0.1565   -0.8635 N   0  0  0  0  0  0  0  0  0  0  0  0
   -1.0506    0.1178   -0.7401 N   0  0  0  0  0  2  0  0  0  0  0  0
    1.5165   -0.2256   -0.2785 N   0  0  0  0  0  2  0  0  0  0  0  0
    2.7891   -0.5797   -0.2664 N   0  0  0  0  0  2  0  0  0  0  0  0
    4.3284   -2.2706   -0.4039 N   0  0  0  0  0  0  0  0  0  0  0  0
   -0.7270    2.9927    1.1255 N   0  0  0  0  0  0  0  0  0  0  0  0
    1.5005    3.3051   -0.9484 N   0  0  0  0  0  0  0  0  0  0  0  0
   -2.9776   -1.0406   -0.9924 C   0  0  0  0  0  0  0  0  0  0  0  0
   -0.3596    1.1976   -0.4225 C   0  0  2  0  0  3  0  0  0  0  0  0
    1.1027    1.0314   -0.2922 C   0  0  2  0  0  3  0  0  0  0  0  0
    3.0088   -1.9021   -0.4646 C   0  0  2  0  0  3  0  0  0  0  0  0
   -5.1229   -2.1936   -1.4614 C   0  0  0  0  0  0  0  0  0  0  0  0
   -5.3508   -2.3299   -2.5438 H   0  0  0  0  0  0  0  0  0  0  0  0
   -6.0881   -2.1153   -0.9166 H   0  0  0  0  0  0  0  0  0  0  0  0
   -4.5692   -3.0827   -1.1088 H   0  0  0  0  0  0  0  0  0  0  0  0
   -5.0096    0.2606   -1.4683 C   0  0  0  0  0  0  0  0  0  0  0  0
   -6.0004    0.2495   -0.9676 H   0  0  0  0  0  0  0  0  0  0  0  0
   -5.1766    0.4335   -2.5564 H   0  0  0  0  0  0  0  0  0  0  0  0
   -4.3920    1.0846   -1.0705 H   0  0  0  0  0  0  0  0  0  0  0  0
   -1.0135    2.4944   -0.0956 C   0  0  0  0  0  0  0  0  0  0  0  0
   -1.9182    3.1197   -0.9791 C   0  0  0  0  0  0  0  0  0  0  0  0
   -2.1353    2.6572   -1.9509 H   0  0  0  0  0  0  0  0  0  0  0  0
   -2.4991    4.3310   -0.5938 C   0  0  0  0  0  0  0  0  0  0  0  0
   -3.1951    4.8548   -1.2672 H   0  0  0  0  0  0  0  0  0  0  0  0
   -2.1765    4.8716    0.6624 C   0  0  0  0  0  0  0  0  0  0  0  0
   -2.6060    5.8255    1.0032 H   0  0  0  0  0  0  0  0  0  0  0  0
   -1.2943    4.1546    1.4842 C   0  0  0  0  0  0  0  0  0  0  0  0
   -1.0341    4.5351    2.4884 H   0  0  0  0  0  0  0  0  0  0  0  0
    1.9796    2.2225   -0.2933 C   0  0  0  0  0  0  0  0  0  0  0  0
    2.2419    4.4164   -0.9842 C   0  0  0  0  0  0  0  0  0  0  0  0
    1.8096    5.2742   -1.5314 H   0  0  0  0  0  0  0  0  0  0  0  0
    3.5033    4.5280   -0.3750 C   0  0  0  0  0  0  0  0  0  0  0  0
    4.0721    5.4681   -0.4329 H   0  0  0  0  0  0  0  0  0  0  0  0
    4.0051    3.4072    0.3041 C   0  0  0  0  0  0  0  0  0  0  0  0
    4.9862    3.4469    0.8024 H   0  0  0  0  0  0  0  0  0  0  0  0
    3.2436    2.2341    0.3445 C   0  0  0  0  0  0  0  0  0  0  0  0
    3.5987    1.3292    0.8522 H   0  0  0  0  0  0  0  0  0  0  0  0
    5.3627   -1.2865   -0.1249 C   0  0  0  0  0  0  0  0  0  0  0  0
    6.2999   -1.5962   -0.6298 H   0  0  0  0  0  0  0  0  0  0  0  0
    5.5666   -1.2008    0.9668 H   0  0  0  0  0  0  0  0  0  0  0  0
    5.0433   -0.2958   -0.4943 H   0  0  0  0  0  0  0  0  0  0  0  0
    4.7711   -3.6462   -0.4963 C   0  0  0  0  0  0  0  0  0  0  0  0
    3.8996   -4.3026   -0.6700 H   0  0  0  0  0  0  0  0  0  0  0  0
    5.2752   -3.9591    0.4454 H   0  0  0  0  0  0  0  0  0  0  0  0
    5.4955   -3.7697   -1.3312 H   0  0  0  0  0  0  0  0  0  0  0  0
  3 11  1  0  0  0  0
  4  5  1  0  0  0  0
  6  7  1  0  0  0  0
  8 41  1  0  0  0  0
  9 30  1  0  0  0  0
 10 32  1  0  0  0  0
 11  4  2  0  0  0  0
 11  1  1  0  0  0  0
 12  5  1  1  0  0  0
 12 13  1  0  0  0  0
 12 23  1  0  0  0  0
 13  6  1  6  0  0  0
 14  2  1  6  0  0  0
 14  8  1  0  0  0  0
 14  7  1  0  0  0  0
 15  3  1  0  0  0  0
 15 18  1  0  0  0  0
 15 17  1  0  0  0  0
 16 15  1  0  0  0  0
 19  3  1  0  0  0  0
 19 22  1  0  0  0  0
 19 20  1  0  0  0  0
 21 19  1  0  0  0  0
 23  9  2  0  0  0  0
 24 26  2  0  0  0  0
 24 23  1  0  0  0  0
 25 24  1  0  0  0  0
 26 28  1  0  0  0  0
 27 26  1  0  0  0  0
 28 29  1  0  0  0  0
 28 30  2  0  0  0  0
 30 31  1  0  0  0  0
 32 13  1  0  0  0  0
 32 39  2  0  0  0  0
 33 10  2  0  0  0  0
 33 35  1  0  0  0  0
 34 33  1  0  0  0  0
 35 37  2  0  0  0  0
 36 35  1  0  0  0  0
 37 39  1  0  0  0  0
 37 38  1  0  0  0  0
 39 40  1  0  0  0  0
 41 43  1  0  0  0  0
 42 41  1  0  0  0  0
 44 41  1  0  0  0  0
 45  8  1  0  0  0  0
 45 47  1  0  0  0  0
 46 45  1  0  0  0  0
 48 45  1  0  0  0  0
M  END
