1,2,4,5
 OpenBabel05122313063D

 47 50  0  0  1  0  0  0  0  0999 V2000
    1.4802   -1.0593   -1.5697 S   0  0  0  0  0  0  0  0  0  0  0  0
   -1.6529    0.7808   -1.0272 N   0  0  0  0  0  2  0  0  0  0  0  0
   -2.8249    0.6555   -0.3158 C   0  0  1  0  0  3  0  0  0  0  0  0
   -1.2152   -0.1181    1.8336 S   0  0  0  0  0  0  0  0  0  0  0  0
    1.7204    1.1822    0.4356 N   0  0  0  0  0  2  0  0  0  0  0  0
   -0.6625   -2.6199   -0.0050 O   0  0  0  0  0  0  0  0  0  0  0  0
   -2.7953    0.2206    1.0494 C   0  0  0  0  0  0  0  0  0  0  0  0
   -3.9796    0.1101    1.7733 C   0  0  0  0  0  0  0  0  0  0  0  0
   -3.9426   -0.1941    2.8303 H   0  0  0  0  0  0  0  0  0  0  0  0
   -5.2307    0.3929    1.1703 C   0  0  0  0  0  0  0  0  0  0  0  0
   -6.1512    0.2900    1.7631 H   0  0  0  0  0  0  0  0  0  0  0  0
   -5.2901    0.8131   -0.1496 C   0  0  0  0  0  0  0  0  0  0  0  0
   -6.2559    1.0471   -0.6221 H   0  0  0  0  0  0  0  0  0  0  0  0
   -4.0987    0.9586   -0.9159 C   0  0  0  0  0  0  0  0  0  0  0  0
   -4.1100    1.3956   -2.2712 C   0  0  0  0  0  0  0  0  0  0  0  0
   -5.0708    1.6347   -2.7519 H   0  0  0  0  0  0  0  0  0  0  0  0
   -2.9145    1.5125   -2.9615 C   0  0  0  0  0  0  0  0  0  0  0  0
   -2.8851    1.8465   -4.0081 H   0  0  0  0  0  0  0  0  0  0  0  0
   -1.7077    1.1906   -2.2988 C   0  0  0  0  0  0  0  0  0  0  0  0
   -0.7445    1.2654   -2.8282 H   0  0  0  0  0  0  0  0  0  0  0  0
    2.9406    0.6817    0.0459 C   0  0  2  0  0  3  0  0  0  0  0  0
    3.0033   -0.4190   -0.8697 C   0  0  0  0  0  0  0  0  0  0  0  0
    4.2388   -0.9199   -1.2731 C   0  0  0  0  0  0  0  0  0  0  0  0
    4.2778   -1.7387   -2.0075 H   0  0  0  0  0  0  0  0  0  0  0  0
    5.4454   -0.3809   -0.7611 C   0  0  0  0  0  0  0  0  0  0  0  0
    6.4064   -0.8030   -1.0892 H   0  0  0  0  0  0  0  0  0  0  0  0
    5.4147    0.6851    0.1254 C   0  0  0  0  0  0  0  0  0  0  0  0
    6.3477    1.1214    0.5127 H   0  0  0  0  0  0  0  0  0  0  0  0
    4.1719    1.2418    0.5410 C   0  0  0  0  0  0  0  0  0  0  0  0
    4.0871    2.3435    1.4394 C   0  0  0  0  0  0  0  0  0  0  0  0
    5.0131    2.7929    1.8294 H   0  0  0  0  0  0  0  0  0  0  0  0
    2.8437    2.8322    1.8071 C   0  0  0  0  0  0  0  0  0  0  0  0
    2.7410    3.6822    2.4961 H   0  0  0  0  0  0  0  0  0  0  0  0
    1.6843    2.2147    1.2829 C   0  0  0  0  0  0  0  0  0  0  0  0
    0.6832    2.5735    1.5715 H   0  0  0  0  0  0  0  0  0  0  0  0
   -1.3923   -1.9013    2.2518 C   0  0  0  0  0  0  0  0  0  0  0  0
   -0.4589   -2.1302    2.8055 H   0  0  0  0  0  0  0  0  0  0  0  0
   -2.2302   -2.0262    2.9672 H   0  0  0  0  0  0  0  0  0  0  0  0
   -1.5961   -2.8066    1.0363 C   0  0  0  0  0  0  0  0  0  0  0  0
   -1.5968   -3.8666    1.3907 H   0  0  0  0  0  0  0  0  0  0  0  0
   -2.5892   -2.6058    0.5858 H   0  0  0  0  0  0  0  0  0  0  0  0
    0.6709   -2.9943    0.2872 C   0  0  0  0  0  0  0  0  0  0  0  0
    0.7236   -4.0632    0.6104 H   0  0  0  0  0  0  0  0  0  0  0  0
    1.1084   -2.3692    1.1030 H   0  0  0  0  0  0  0  0  0  0  0  0
    1.4779   -2.8136   -0.9840 C   0  0  0  0  0  0  0  0  0  0  0  0
    1.0229   -3.3911   -1.8127 H   0  0  0  0  0  0  0  0  0  0  0  0
    2.5272   -3.1404   -0.8553 H   0  0  0  0  0  0  0  0  0  0  0  0
  1 45  1  0  0  0  0
  1 22  1  0  0  0  0
  3  2  1  1  0  0  0
  3  7  1  0  0  0  0
  4 36  1  0  0  0  0
  5 34  1  0  0  0  0
  6 42  1  0  0  0  0
  6 39  1  0  0  0  0
  7  8  2  0  0  0  0
  7  4  1  0  0  0  0
  8  9  1  0  0  0  0
 10 11  1  0  0  0  0
 10  8  1  0  0  0  0
 12 10  2  0  0  0  0
 13 12  1  0  0  0  0
 14  3  1  0  0  0  0
 14 12  1  0  0  0  0
 15 14  2  0  0  0  0
 16 15  1  0  0  0  0
 17 19  2  0  0  0  0
 17 15  1  0  0  0  0
 18 17  1  0  0  0  0
 19  2  1  0  0  0  0
 20 19  1  0  0  0  0
 21 22  1  1  0  0  0
 21  5  1  0  0  0  0
 21 29  1  0  0  0  0
 23 22  2  0  0  0  0
 23 25  1  0  0  0  0
 24 23  1  0  0  0  0
 25 27  2  0  0  0  0
 26 25  1  0  0  0  0
 27 28  1  0  0  0  0
 27 29  1  0  0  0  0
 29 30  2  0  0  0  0
 30 32  1  0  0  0  0
 30 31  1  0  0  0  0
 32 33  1  0  0  0  0
 34 35  1  0  0  0  0
 34 32  2  0  0  0  0
 36 37  1  0  0  0  0
 36 38  1  0  0  0  0
 39 40  1  0  0  0  0
 39 36  1  0  0  0  0
 41 39  1  0  0  0  0
 42 43  1  0  0  0  0
 42 44  1  0  0  0  0
 45 47  1  0  0  0  0
 45 42  1  0  0  0  0
 46 45  1  0  0  0  0
M  END
