1,2,12,16
 OpenBabel05122313063D

 28 28  0  0  0  0  0  0  0  0999 V2000
    0.0568    1.1157    2.1140 S   0  0  0  0  0  1  0  0  0  0  0  0
    1.2098   -0.3144   -2.1477 S   0  0  0  0  0  1  0  0  0  0  0  0
   -2.2773    1.2830   -0.4823 C   0  0  0  0  0  3  0  0  0  0  0  0
   -1.8894    2.3109   -0.5017 H   0  0  0  0  0  0  0  0  0  0  0  0
   -1.7891   -0.9858   -0.2902 C   0  0  0  0  0  0  0  0  0  0  0  0
   -3.6479    1.0262   -0.5675 C   0  0  0  0  0  0  0  0  0  0  0  0
   -4.3501    1.8646   -0.6768 H   0  0  0  0  0  0  0  0  0  0  0  0
   -3.1504   -1.3208   -0.3462 C   0  0  0  0  0  0  0  0  0  0  0  0
   -3.4537   -2.3750   -0.2680 H   0  0  0  0  0  0  0  0  0  0  0  0
   -4.0973   -0.3011   -0.4968 C   0  0  0  0  0  0  0  0  0  0  0  0
   -5.1705   -0.5367   -0.5490 H   0  0  0  0  0  0  0  0  0  0  0  0
   -1.3606    0.2971   -0.3670 N   0  0  0  0  0  2  0  0  0  0  0  0
   -0.6919   -2.0030   -0.2197 C   0  0  0  0  0  0  0  0  0  0  0  0
   -0.4102   -2.2200   -1.2707 H   0  0  0  0  0  0  0  0  0  0  0  0
   -1.0297   -2.9453    0.2649 H   0  0  0  0  0  0  0  0  0  0  0  0
    0.5211   -1.4618    0.4505 N   0  0  0  0  0  0  0  0  0  0  0  0
   -0.4994   -0.5730    2.5470 C   0  0  0  0  0  0  0  0  0  0  0  0
   -0.4877   -0.6797    3.6519 H   0  0  0  0  0  0  0  0  0  0  0  0
   -1.5478   -0.7538    2.2210 H   0  0  0  0  0  0  0  0  0  0  0  0
    0.4412   -1.5987    1.9347 C   0  0  0  0  0  0  0  0  0  0  0  0
    1.4619   -1.4236    2.3293 H   0  0  0  0  0  0  0  0  0  0  0  0
    0.1450   -2.6444    2.1888 H   0  0  0  0  0  0  0  0  0  0  0  0
    1.9318   -1.9218   -1.5787 C   0  0  0  0  0  0  0  0  0  0  0  0
    1.4633   -2.7374   -2.1713 H   0  0  0  0  0  0  0  0  0  0  0  0
    3.0184   -1.9604   -1.7996 H   0  0  0  0  0  0  0  0  0  0  0  0
    1.7339   -2.1546   -0.0778 C   0  0  0  0  0  0  0  0  0  0  0  0
    1.6671   -3.2437    0.1565 H   0  0  0  0  0  0  0  0  0  0  0  0
    2.5927   -1.7524    0.4909 H   0  0  0  0  0  0  0  0  0  0  0  0
  1 17  1  0  0  0  0
  2 23  1  0  0  0  0
  3 12  1  0  0  0  0
  4  3  1  0  0  0  0
  5 13  1  0  0  0  0
  6 10  2  0  0  0  0
  6  3  1  0  0  0  0
  7  6  1  0  0  0  0
  8  5  2  0  0  0  0
  8  9  1  0  0  0  0
 10  8  1  0  0  0  0
 11 10  1  0  0  0  0
 12  5  1  0  0  0  0
 13 15  1  0  0  0  0
 13 16  1  0  0  0  0
 14 13  1  0  0  0  0
 16 20  1  0  0  0  0
 17 18  1  0  0  0  0
 19 17  1  0  0  0  0
 20 22  1  0  0  0  0
 20 21  1  0  0  0  0
 20 17  1  0  0  0  0
 23 26  1  0  0  0  0
 24 23  1  0  0  0  0
 25 23  1  0  0  0  0
 26 27  1  0  0  0  0
 26 16  1  0  0  0  0
 26 28  1  0  0  0  0
M  END
