1,2,4,5
 OpenBabel05122313063D

 38 40  0  0  0  0  0  0  0  0999 V2000
   -1.7843   -1.4980    1.5147 S   0  0  0  0  0  1  0  0  0  0  0  0
    1.3690   -2.2195   -0.1002 S   0  0  0  0  0  1  0  0  0  0  0  0
    2.9997   -1.6167   -0.2245 C   0  0  0  0  0  0  0  0  0  0  0  0
   -1.2791    1.1067   -0.2072 N   0  0  0  0  0  2  0  0  0  0  0  0
    1.3625    1.0700    0.1754 N   0  0  0  0  0  2  0  0  0  0  0  0
    1.4204    3.5561    0.3953 C   0  0  0  0  0  0  0  0  0  0  0  0
    2.4881    3.5490    0.6575 H   0  0  0  0  0  0  0  0  0  0  0  0
   -5.2955   -2.2245   -0.2800 C   0  0  0  0  0  0  0  0  0  0  0  0
   -6.0538   -3.0150   -0.1685 H   0  0  0  0  0  0  0  0  0  0  0  0
    2.6434    0.9422   -0.0804 C   0  0  0  0  0  3  0  0  0  0  0  0
    3.2122    1.8730   -0.2854 H   0  0  0  0  0  0  0  0  0  0  0  0
   -3.1229   -1.2772    0.4169 C   0  0  0  0  0  0  0  0  0  0  0  0
   -0.6562    2.3518   -0.1095 C   0  0  0  0  0  0  0  0  0  0  0  0
    3.4509   -0.2452   -0.1868 C   0  0  0  0  0  0  0  0  0  0  0  0
   -1.3343    3.5907   -0.1564 C   0  0  0  0  0  0  0  0  0  0  0  0
   -2.4225    3.6074   -0.3120 H   0  0  0  0  0  0  0  0  0  0  0  0
   -4.5168   -0.2047   -1.3340 C   0  0  0  0  0  0  0  0  0  0  0  0
   -4.6520    0.6230   -2.0490 H   0  0  0  0  0  0  0  0  0  0  0  0
   -5.4834   -1.1920   -1.2295 C   0  0  0  0  0  0  0  0  0  0  0  0
   -6.3824   -1.1666   -1.8620 H   0  0  0  0  0  0  0  0  0  0  0  0
   -2.4865    0.9453   -0.6968 C   0  0  0  0  0  3  0  0  0  0  0  0
   -2.9410    1.7812   -1.2720 H   0  0  0  0  0  0  0  0  0  0  0  0
    4.8494    0.0219   -0.3374 C   0  0  0  0  0  0  0  0  0  0  0  0
    5.1736    1.0751   -0.3217 H   0  0  0  0  0  0  0  0  0  0  0  0
    5.7918   -0.9831   -0.4907 C   0  0  0  0  0  0  0  0  0  0  0  0
    6.8592   -0.7400   -0.5918 H   0  0  0  0  0  0  0  0  0  0  0  0
    0.7508    2.3383    0.1584 C   0  0  0  0  0  0  0  0  0  0  0  0
    3.9943   -2.6222   -0.4073 C   0  0  0  0  0  0  0  0  0  0  0  0
    3.6521   -3.6673   -0.4444 H   0  0  0  0  0  0  0  0  0  0  0  0
    5.3474   -2.3247   -0.5260 C   0  0  0  0  0  0  0  0  0  0  0  0
    6.0721   -3.1437   -0.6538 H   0  0  0  0  0  0  0  0  0  0  0  0
    0.7337    4.7739    0.3264 C   0  0  0  0  0  0  0  0  0  0  0  0
    1.2707    5.7144    0.5189 H   0  0  0  0  0  0  0  0  0  0  0  0
   -4.1575   -2.2542    0.5185 C   0  0  0  0  0  0  0  0  0  0  0  0
   -4.0155   -3.0624    1.2512 H   0  0  0  0  0  0  0  0  0  0  0  0
   -3.3281   -0.2075   -0.5380 C   0  0  0  0  0  0  0  0  0  0  0  0
   -0.6437    4.7905    0.0428 C   0  0  0  0  0  0  0  0  0  0  0  0
   -1.1896    5.7451    0.0110 H   0  0  0  0  0  0  0  0  0  0  0  0
  3 14  1  0  0  0  0
  3  2  1  0  0  0  0
  4 13  1  0  0  0  0
  6  7  1  0  0  0  0
  8  9  1  0  0  0  0
  8 34  1  0  0  0  0
 10  5  1  0  0  0  0
 11 10  1  0  0  0  0
 12 34  2  0  0  0  0
 12  1  1  0  0  0  0
 13 27  1  0  0  0  0
 14 10  1  0  0  0  0
 15 13  2  0  0  0  0
 15 37  1  0  0  0  0
 16 15  1  0  0  0  0
 17 19  1  0  0  0  0
 17 36  2  0  0  0  0
 18 17  1  0  0  0  0
 19  8  2  0  0  0  0
 20 19  1  0  0  0  0
 21 36  1  0  0  0  0
 21  4  1  0  0  0  0
 22 21  1  0  0  0  0
 23 24  1  0  0  0  0
 23 14  2  0  0  0  0
 25 23  1  0  0  0  0
 26 25  1  0  0  0  0
 27  5  1  0  0  0  0
 27  6  2  0  0  0  0
 28  3  2  0  0  0  0
 29 28  1  0  0  0  0
 30 25  2  0  0  0  0
 30 28  1  0  0  0  0
 31 30  1  0  0  0  0
 32  6  1  0  0  0  0
 32 33  1  0  0  0  0
 34 35  1  0  0  0  0
 36 12  1  0  0  0  0
 37 32  2  0  0  0  0
 38 37  1  0  0  0  0
M  END
