38,39,42,43
 OpenBabel05122313063D

 43 42  0  0  1  0  0  0  0  0999 V2000
    3.2013    0.2220   -0.2072 C   0  0  1  0  0  3  0  0  0  0  0  0
    0.4358    2.4770    0.1321 C   0  0  0  0  0  0  0  0  0  0  0  0
   -1.0190    2.2966    0.0165 C   0  0  0  0  0  0  0  0  0  0  0  0
   -2.8347   -0.5807   -0.7723 C   0  0  1  0  0  3  0  0  0  0  0  0
    1.0504    3.8109    0.4423 C   0  0  0  0  0  0  0  0  0  0  0  0
    1.6839    3.7540    1.3542 H   0  0  0  0  0  0  0  0  0  0  0  0
    0.2881    4.5878    0.6200 H   0  0  0  0  0  0  0  0  0  0  0  0
    1.6919    4.1616   -0.3956 H   0  0  0  0  0  0  0  0  0  0  0  0
   -1.9832    3.4401    0.1056 C   0  0  0  0  0  0  0  0  0  0  0  0
   -1.7573    4.2328   -0.6371 H   0  0  0  0  0  0  0  0  0  0  0  0
   -1.9704    3.9132    1.1101 H   0  0  0  0  0  0  0  0  0  0  0  0
   -3.0030    3.0603   -0.0854 H   0  0  0  0  0  0  0  0  0  0  0  0
    5.4954   -0.7859   -0.3816 C   0  0  0  0  0  0  0  0  0  0  0  0
    4.9819   -1.6981   -0.0125 H   0  0  0  0  0  0  0  0  0  0  0  0
    5.7893   -0.9534   -1.8754 C   0  0  0  0  0  0  0  0  0  0  0  0
    4.8574   -1.1422   -2.4429 H   0  0  0  0  0  0  0  0  0  0  0  0
    6.4661   -1.8159   -2.0330 H   0  0  0  0  0  0  0  0  0  0  0  0
    6.2850   -0.0512   -2.2893 H   0  0  0  0  0  0  0  0  0  0  0  0
    6.7481   -0.5309    0.4552 C   0  0  0  0  0  0  0  0  0  0  0  0
    7.2725    0.3917    0.1262 H   0  0  0  0  0  0  0  0  0  0  0  0
    7.4592   -1.3699    0.3331 H   0  0  0  0  0  0  0  0  0  0  0  0
    6.5085   -0.4385    1.5327 H   0  0  0  0  0  0  0  0  0  0  0  0
   -5.3069   -0.1451   -0.7157 C   0  0  0  0  0  0  0  0  0  0  0  0
   -5.0284    0.8856   -1.0151 H   0  0  0  0  0  0  0  0  0  0  0  0
   -5.6775   -0.1349    0.7723 C   0  0  0  0  0  0  0  0  0  0  0  0
   -5.9283   -1.1554    1.1280 H   0  0  0  0  0  0  0  0  0  0  0  0
   -6.5592    0.5138    0.9443 H   0  0  0  0  0  0  0  0  0  0  0  0
   -4.8375    0.2572    1.3784 H   0  0  0  0  0  0  0  0  0  0  0  0
   -6.4387   -0.6534   -1.6079 C   0  0  0  0  0  0  0  0  0  0  0  0
   -6.1545   -0.6269   -2.6782 H   0  0  0  0  0  0  0  0  0  0  0  0
   -7.3400   -0.0246   -1.4762 H   0  0  0  0  0  0  0  0  0  0  0  0
   -6.7211   -1.6947   -1.3437 H   0  0  0  0  0  0  0  0  0  0  0  0
    4.9589    1.2514   -0.0648 H   0  0  0  0  0  0  0  0  0  0  0  0
    3.0149    2.2671    0.1889 H   0  0  0  0  0  0  0  0  0  0  0  0
   -4.2481   -1.9472   -1.2242 H   0  0  0  0  0  0  0  0  0  0  0  0
    4.5418    0.3187   -0.1551 N   0  0  0  0  0  0  0  0  0  0  0  0
    2.5060    1.3957   -0.0063 N   0  0  0  0  0  0  0  0  0  0  0  0
    1.1632    1.4023   -0.0757 N   0  0  0  0  0  2  0  0  0  0  0  0
   -1.3938    1.0479   -0.2086 N   0  0  0  0  0  2  0  0  0  0  0  0
   -2.6554    0.7136   -0.4003 N   0  0  0  0  0  2  0  0  0  0  0  0
   -4.1116   -0.9699   -0.9524 N   0  0  0  0  0  0  0  0  0  0  0  0
    2.4113   -1.2657   -0.5089 S   0  0  0  0  0  1  0  0  0  0  0  0
   -1.5933   -1.7824   -1.0930 S   0  0  0  0  0  1  0  0  0  0  0  0
  1 42  1  6  0  0  0
  1 36  1  0  0  0  0
  1 37  1  0  0  0  0
  2  5  1  0  0  0  0
  3  9  1  0  0  0  0
  3  2  2  0  0  0  0
  4 43  1  6  0  0  0
  4 40  1  0  0  0  0
  5  7  1  0  0  0  0
  5  6  1  0  0  0  0
  8  5  1  0  0  0  0
  9 11  1  0  0  0  0
 10  9  1  0  0  0  0
 12  9  1  0  0  0  0
 13 36  1  0  0  0  0
 13 14  1  0  0  0  0
 13 19  1  0  0  0  0
 15 13  1  0  0  0  0
 16 15  1  0  0  0  0
 17 15  1  0  0  0  0
 18 15  1  0  0  0  0
 19 22  1  0  0  0  0
 20 19  1  0  0  0  0
 21 19  1  0  0  0  0
 23 25  1  0  0  0  0
 24 23  1  0  0  0  0
 25 27  1  0  0  0  0
 25 26  1  0  0  0  0
 25 28  1  0  0  0  0
 29 31  1  0  0  0  0
 29 32  1  0  0  0  0
 29 23  1  0  0  0  0
 30 29  1  0  0  0  0
 35 41  1  0  0  0  0
 36 33  1  0  0  0  0
 37 34  1  0  0  0  0
 38 37  1  0  0  0  0
 38  2  1  0  0  0  0
 39  3  1  0  0  0  0
 40 39  1  0  0  0  0
 41  4  1  0  0  0  0
 41 23  1  0  0  0  0
M  END
