1,2,3,4
 OpenBabel05122313063D

 43 44  0  0  0  0  0  0  0  0999 V2000
   -1.4309   -1.9228   -0.3362 S   0  0  0  0  0  1  0  0  0  0  0  0
    1.4302   -1.9239    0.3323 S   0  0  0  0  0  1  0  0  0  0  0  0
   -1.2489    0.9854    0.5891 N   0  0  0  0  0  2  0  0  0  0  0  0
    1.2496    0.9852   -0.5894 N   0  0  0  0  0  2  0  0  0  0  0  0
   -3.0658   -1.3662   -0.1622 C   0  0  0  0  0  0  0  0  0  0  0  0
   -3.4715   -0.0689    0.2963 C   0  0  0  0  0  0  0  0  0  0  0  0
   -4.8614    0.2278    0.4066 C   0  0  0  0  0  0  0  0  0  0  0  0
   -5.1517    1.2260    0.7726 H   0  0  0  0  0  0  0  0  0  0  0  0
   -5.8384   -0.6967    0.0606 C   0  0  0  0  0  0  0  0  0  0  0  0
   -6.9047   -0.4432    0.1483 H   0  0  0  0  0  0  0  0  0  0  0  0
   -5.4372   -1.9735   -0.3974 C   0  0  0  0  0  0  0  0  0  0  0  0
   -6.1956   -2.7237   -0.6702 H   0  0  0  0  0  0  0  0  0  0  0  0
   -4.0880   -2.2998   -0.4976 C   0  0  0  0  0  0  0  0  0  0  0  0
   -3.7831   -3.2992   -0.8429 H   0  0  0  0  0  0  0  0  0  0  0  0
   -2.5559    0.9616    0.6995 C   0  0  0  0  0  3  0  0  0  0  0  0
   -3.0289    1.8427    1.1804 H   0  0  0  0  0  0  0  0  0  0  0  0
   -0.5669    2.1683    1.1194 C   0  0  0  0  0  0  0  0  0  0  0  0
    0.2664    1.8210    1.7627 H   0  0  0  0  0  0  0  0  0  0  0  0
   -1.2552    2.7631    1.7597 H   0  0  0  0  0  0  0  0  0  0  0  0
    0.0003    3.0741   -0.0006 C   0  0  0  0  0  0  0  0  0  0  0  0
   -1.1086    3.9489   -0.6040 C   0  0  0  0  0  0  0  0  0  0  0  0
   -1.9615    3.3327   -0.9553 H   0  0  0  0  0  0  0  0  0  0  0  0
   -0.7300    4.5248   -1.4736 H   0  0  0  0  0  0  0  0  0  0  0  0
   -1.4901    4.6764    0.1410 H   0  0  0  0  0  0  0  0  0  0  0  0
    1.1087    3.9495    0.6025 C   0  0  0  0  0  0  0  0  0  0  0  0
    1.9618    3.3338    0.9542 H   0  0  0  0  0  0  0  0  0  0  0  0
    0.7299    4.5256    1.4719 H   0  0  0  0  0  0  0  0  0  0  0  0
    1.4900    4.6769   -0.1427 H   0  0  0  0  0  0  0  0  0  0  0  0
    0.5678    2.1680   -1.1202 C   0  0  0  0  0  0  0  0  0  0  0  0
   -0.2652    1.8206   -1.7638 H   0  0  0  0  0  0  0  0  0  0  0  0
    1.2564    2.7627   -1.7603 H   0  0  0  0  0  0  0  0  0  0  0  0
    3.0654   -1.3669    0.1619 C   0  0  0  0  0  0  0  0  0  0  0  0
    3.4718   -0.0690   -0.2945 C   0  0  0  0  0  0  0  0  0  0  0  0
    4.8618    0.2280   -0.4021 C   0  0  0  0  0  0  0  0  0  0  0  0
    5.1527    1.2266   -0.7666 H   0  0  0  0  0  0  0  0  0  0  0  0
    5.8384   -0.6969   -0.0555 C   0  0  0  0  0  0  0  0  0  0  0  0
    6.9048   -0.4432   -0.1411 H   0  0  0  0  0  0  0  0  0  0  0  0
    5.4365   -1.9743    0.4004 C   0  0  0  0  0  0  0  0  0  0  0  0
    6.1944   -2.7247    0.6735 H   0  0  0  0  0  0  0  0  0  0  0  0
    4.0870   -2.3008    0.4979 C   0  0  0  0  0  0  0  0  0  0  0  0
    3.7816   -3.3006    0.8415 H   0  0  0  0  0  0  0  0  0  0  0  0
    2.5566    0.9617   -0.6984 C   0  0  0  0  0  3  0  0  0  0  0  0
    3.0301    1.8430   -1.1785 H   0  0  0  0  0  0  0  0  0  0  0  0
  1  5  1  0  0  0  0
  3 15  1  0  0  0  0
  3 17  1  0  0  0  0
  5  6  1  0  0  0  0
  6  7  2  0  0  0  0
  6 15  1  0  0  0  0
  7  8  1  0  0  0  0
  9 10  1  0  0  0  0
  9  7  1  0  0  0  0
 11  9  2  0  0  0  0
 12 11  1  0  0  0  0
 13 11  1  0  0  0  0
 13  5  2  0  0  0  0
 14 13  1  0  0  0  0
 15 16  1  0  0  0  0
 17 19  1  0  0  0  0
 17 18  1  0  0  0  0
 20 25  1  0  0  0  0
 20 17  1  0  0  0  0
 21 20  1  0  0  0  0
 21 24  1  0  0  0  0
 22 21  1  0  0  0  0
 23 21  1  0  0  0  0
 25 26  1  0  0  0  0
 25 27  1  0  0  0  0
 28 25  1  0  0  0  0
 29  4  1  0  0  0  0
 29 20  1  0  0  0  0
 30 29  1  0  0  0  0
 31 29  1  0  0  0  0
 32  2  1  0  0  0  0
 32 40  1  0  0  0  0
 33 32  2  0  0  0  0
 34 33  1  0  0  0  0
 34 36  2  0  0  0  0
 35 34  1  0  0  0  0
 36 38  1  0  0  0  0
 37 36  1  0  0  0  0
 38 40  2  0  0  0  0
 38 39  1  0  0  0  0
 40 41  1  0  0  0  0
 42  4  1  0  0  0  0
 42 33  1  0  0  0  0
 43 42  1  0  0  0  0
M  END
