1,2,3,6
 OpenBabel05122313063D

 52 53  0  0  0  0  0  0  0  0999 V2000
   -1.3723    0.9148    0.4523 S   0  0  0  0  0  1  0  0  0  0  0  0
    1.3723    0.9149   -0.4522 S   0  0  0  0  0  1  0  0  0  0  0  0
   -1.2923   -2.1740    0.1714 N   0  0  0  0  0  2  0  0  0  0  0  0
   -4.0684    1.1063   -0.0203 N   0  0  0  0  0  0  0  0  0  0  0  0
   -5.2124    0.3787   -0.1928 N   0  0  0  0  0  0  0  0  0  0  0  0
    1.2923   -2.1740   -0.1715 N   0  0  0  0  0  2  0  0  0  0  0  0
    4.0684    1.1063    0.0205 N   0  0  0  0  0  0  0  0  0  0  0  0
    5.2124    0.3787    0.1930 N   0  0  0  0  0  0  0  0  0  0  0  0
   -2.9540    0.3265    0.1050 C   0  0  0  0  0  0  0  0  0  0  0  0
   -3.4173   -1.0134   -0.0132 C   0  0  0  0  0  0  0  0  0  0  0  0
   -2.6087   -2.1672    0.0992 C   0  0  0  0  0  3  0  0  0  0  0  0
   -0.6373   -3.4602    0.4117 C   0  0  0  0  0  0  0  0  0  0  0  0
   -4.8414   -0.8987   -0.1966 C   0  0  0  0  0  0  0  0  0  0  0  0
   -5.8390   -1.9962   -0.3860 C   0  0  0  0  0  0  0  0  0  0  0  0
   -4.1393    2.5658    0.0965 C   0  0  0  0  0  0  0  0  0  0  0  0
   -4.7158    2.9579    1.4606 C   0  0  0  0  0  0  0  0  0  0  0  0
   -4.9212    3.1543   -1.0785 C   0  0  0  0  0  0  0  0  0  0  0  0
    2.9540    0.3266   -0.1048 C   0  0  0  0  0  0  0  0  0  0  0  0
    3.4173   -1.0134    0.0133 C   0  0  0  0  0  0  0  0  0  0  0  0
    2.6087   -2.1672   -0.0992 C   0  0  0  0  0  3  0  0  0  0  0  0
    0.6374   -3.4602   -0.4119 C   0  0  0  0  0  0  0  0  0  0  0  0
    4.8414   -0.8987    0.1967 C   0  0  0  0  0  0  0  0  0  0  0  0
    5.8391   -1.9961    0.3859 C   0  0  0  0  0  0  0  0  0  0  0  0
    4.1393    2.5658   -0.0964 C   0  0  0  0  0  0  0  0  0  0  0  0
    4.9218    3.1543    1.0782 C   0  0  0  0  0  0  0  0  0  0  0  0
    4.7149    2.9579   -1.4609 C   0  0  0  0  0  0  0  0  0  0  0  0
   -3.1264   -3.1468    0.1444 H   0  0  0  0  0  0  0  0  0  0  0  0
   -0.3791   -3.5451    1.4911 H   0  0  0  0  0  0  0  0  0  0  0  0
   -1.3012   -4.3126    0.1493 H   0  0  0  0  0  0  0  0  0  0  0  0
   -5.6414   -2.5745   -1.3129 H   0  0  0  0  0  0  0  0  0  0  0  0
   -5.8221   -2.7154    0.4597 H   0  0  0  0  0  0  0  0  0  0  0  0
   -6.8549   -1.5647   -0.4558 H   0  0  0  0  0  0  0  0  0  0  0  0
   -3.0797    2.8954    0.0395 H   0  0  0  0  0  0  0  0  0  0  0  0
   -5.7480    2.5676    1.5645 H   0  0  0  0  0  0  0  0  0  0  0  0
   -4.0984    2.5425    2.2814 H   0  0  0  0  0  0  0  0  0  0  0  0
   -4.7419    4.0604    1.5685 H   0  0  0  0  0  0  0  0  0  0  0  0
   -4.4532    2.8771   -2.0435 H   0  0  0  0  0  0  0  0  0  0  0  0
   -5.9617    2.7756   -1.0769 H   0  0  0  0  0  0  0  0  0  0  0  0
   -4.9427    4.2594   -1.0046 H   0  0  0  0  0  0  0  0  0  0  0  0
    3.1264   -3.1468   -0.1444 H   0  0  0  0  0  0  0  0  0  0  0  0
    1.3012   -4.3125   -0.1496 H   0  0  0  0  0  0  0  0  0  0  0  0
    0.3791   -3.5450   -1.4913 H   0  0  0  0  0  0  0  0  0  0  0  0
    5.6404   -2.5758    1.3116 H   0  0  0  0  0  0  0  0  0  0  0  0
    5.8234   -2.7142   -0.4609 H   0  0  0  0  0  0  0  0  0  0  0  0
    6.8548   -1.5645    0.4575 H   0  0  0  0  0  0  0  0  0  0  0  0
    3.0797    2.8955   -0.0388 H   0  0  0  0  0  0  0  0  0  0  0  0
    4.4544    2.8771    2.0435 H   0  0  0  0  0  0  0  0  0  0  0  0
    5.9623    2.7757    1.0759 H   0  0  0  0  0  0  0  0  0  0  0  0
    4.9432    4.2595    1.0043 H   0  0  0  0  0  0  0  0  0  0  0  0
    5.7471    2.5676   -1.5653 H   0  0  0  0  0  0  0  0  0  0  0  0
    4.0971    2.5424   -2.2812 H   0  0  0  0  0  0  0  0  0  0  0  0
    4.7410    4.0604   -1.5688 H   0  0  0  0  0  0  0  0  0  0  0  0
  2 18  1  0  0  0  0
  3 12  1  0  0  0  0
  4 15  1  0  0  0  0
  4  9  1  0  0  0  0
  5  4  1  0  0  0  0
  6 20  1  0  0  0  0
  7  8  1  0  0  0  0
  8 22  2  0  0  0  0
  9  1  1  0  0  0  0
 10 11  1  0  0  0  0
 10  9  2  0  0  0  0
 11 27  1  0  0  0  0
 11  3  1  0  0  0  0
 12 28  1  0  0  0  0
 13  5  2  0  0  0  0
 13 10  1  0  0  0  0
 14 13  1  0  0  0  0
 14 31  1  0  0  0  0
 15 16  1  0  0  0  0
 16 34  1  0  0  0  0
 16 36  1  0  0  0  0
 16 35  1  0  0  0  0
 17 38  1  0  0  0  0
 17 39  1  0  0  0  0
 17 15  1  0  0  0  0
 18 19  2  0  0  0  0
 18  7  1  0  0  0  0
 19 22  1  0  0  0  0
 20 19  1  0  0  0  0
 21  6  1  0  0  0  0
 21 41  1  0  0  0  0
 21 12  1  0  0  0  0
 22 23  1  0  0  0  0
 23 45  1  0  0  0  0
 23 43  1  0  0  0  0
 24 46  1  0  0  0  0
 24  7  1  0  0  0  0
 24 25  1  0  0  0  0
 25 47  1  0  0  0  0
 26 24  1  0  0  0  0
 29 12  1  0  0  0  0
 30 14  1  0  0  0  0
 32 14  1  0  0  0  0
 33 15  1  0  0  0  0
 37 17  1  0  0  0  0
 40 20  1  0  0  0  0
 42 21  1  0  0  0  0
 44 23  1  0  0  0  0
 48 25  1  0  0  0  0
 49 25  1  0  0  0  0
 50 26  1  0  0  0  0
 51 26  1  0  0  0  0
 52 26  1  0  0  0  0
M  END
