1,2,3,4
 OpenBabel05122313063D

 48 47  0  0  0  0  0  0  0  0999 V2000
   -1.5243   -1.3837   -0.0318 S   0  0  0  0  0  1  0  0  0  0  0  0
    1.5917   -1.4197    0.0455 S   0  0  0  0  0  1  0  0  0  0  0  0
   -1.4372    1.5682   -0.1988 N   0  0  0  0  0  0  0  0  0  0  0  0
    1.3105    1.4299   -0.6093 N   0  0  0  0  0  0  0  0  0  0  0  0
   -3.0536   -0.3094   -0.3009 C   0  0  0  0  0  0  0  0  0  0  0  0
   -2.5291    0.9442   -1.0014 C   0  0  0  0  0  0  0  0  0  0  0  0
   -0.7528    2.7242   -0.8429 C   0  0  0  0  0  0  0  0  0  0  0  0
    0.4881    2.2247   -1.5650 C   0  0  0  0  0  0  0  0  0  0  0  0
    2.4973    0.7702   -1.2401 C   0  0  0  0  0  0  0  0  0  0  0  0
    3.0728   -0.3112   -0.3246 C   0  0  0  0  0  0  0  0  0  0  0  0
   -3.6918   -0.0072    1.0727 C   0  0  0  0  0  0  0  0  0  0  0  0
   -3.9867   -1.0798   -1.2601 C   0  0  0  0  0  0  0  0  0  0  0  0
   -4.9593    0.8500    1.0313 C   0  0  0  0  0  0  0  0  0  0  0  0
   -4.5871   -2.3675   -0.6965 C   0  0  0  0  0  0  0  0  0  0  0  0
    4.7410   -2.2960   -0.3269 C   0  0  0  0  0  0  0  0  0  0  0  0
    4.8443    1.1701    0.8637 C   0  0  0  0  0  0  0  0  0  0  0  0
    4.0984   -1.1534   -1.1127 C   0  0  0  0  0  0  0  0  0  0  0  0
    3.6257    0.2542    1.0013 C   0  0  0  0  0  0  0  0  0  0  0  0
   -1.8620    1.8845    0.6879 H   0  0  0  0  0  0  0  0  0  0  0  0
    1.6627    2.0683    0.1258 H   0  0  0  0  0  0  0  0  0  0  0  0
   -2.1180    0.6752   -1.9951 H   0  0  0  0  0  0  0  0  0  0  0  0
   -3.3390    1.6910   -1.1540 H   0  0  0  0  0  0  0  0  0  0  0  0
   -0.4727    3.4455   -0.0476 H   0  0  0  0  0  0  0  0  0  0  0  0
   -1.4336    3.2521   -1.5424 H   0  0  0  0  0  0  0  0  0  0  0  0
    0.2144    1.5491   -2.4012 H   0  0  0  0  0  0  0  0  0  0  0  0
    1.0741    3.0642   -1.9949 H   0  0  0  0  0  0  0  0  0  0  0  0
    2.1545    0.3090   -2.1872 H   0  0  0  0  0  0  0  0  0  0  0  0
    3.2533    1.5469   -1.4880 H   0  0  0  0  0  0  0  0  0  0  0  0
   -2.9317    0.4593    1.7399 H   0  0  0  0  0  0  0  0  0  0  0  0
   -3.9093   -0.9779    1.5624 H   0  0  0  0  0  0  0  0  0  0  0  0
   -3.4134   -1.3058   -2.1849 H   0  0  0  0  0  0  0  0  0  0  0  0
   -4.8019   -0.3893   -1.5702 H   0  0  0  0  0  0  0  0  0  0  0  0
   -5.3431    1.0171    2.0565 H   0  0  0  0  0  0  0  0  0  0  0  0
   -5.7700    0.3636    0.4535 H   0  0  0  0  0  0  0  0  0  0  0  0
   -4.7875    1.8514    0.5832 H   0  0  0  0  0  0  0  0  0  0  0  0
   -3.8002   -3.0619   -0.3383 H   0  0  0  0  0  0  0  0  0  0  0  0
   -5.2785   -2.1739    0.1473 H   0  0  0  0  0  0  0  0  0  0  0  0
   -5.1648   -2.8948   -1.4797 H   0  0  0  0  0  0  0  0  0  0  0  0
    3.9754   -2.9745    0.1017 H   0  0  0  0  0  0  0  0  0  0  0  0
    5.3736   -1.9297    0.5057 H   0  0  0  0  0  0  0  0  0  0  0  0
    5.3886   -2.9010   -0.9901 H   0  0  0  0  0  0  0  0  0  0  0  0
    5.1624    1.5387    1.8584 H   0  0  0  0  0  0  0  0  0  0  0  0
    4.6428    2.0639    0.2359 H   0  0  0  0  0  0  0  0  0  0  0  0
    5.7108    0.6429    0.4178 H   0  0  0  0  0  0  0  0  0  0  0  0
    3.5872   -1.5579   -2.0126 H   0  0  0  0  0  0  0  0  0  0  0  0
    4.8870   -0.4677   -1.4939 H   0  0  0  0  0  0  0  0  0  0  0  0
    2.8097    0.7801    1.5471 H   0  0  0  0  0  0  0  0  0  0  0  0
    3.8712   -0.6046    1.6582 H   0  0  0  0  0  0  0  0  0  0  0  0
  3 19  1  0  0  0  0
  4 20  1  0  0  0  0
  5  1  1  0  0  0  0
  5 11  1  0  0  0  0
  6  5  1  0  0  0  0
  6  3  1  0  0  0  0
  7  3  1  0  0  0  0
  7 23  1  0  0  0  0
  8  7  1  0  0  0  0
  8  4  1  0  0  0  0
  9  4  1  0  0  0  0
  9 10  1  0  0  0  0
 10  2  1  0  0  0  0
 10 18  1  0  0  0  0
 11 30  1  0  0  0  0
 11 29  1  0  0  0  0
 12 14  1  0  0  0  0
 12  5  1  0  0  0  0
 13 11  1  0  0  0  0
 13 33  1  0  0  0  0
 14 36  1  0  0  0  0
 14 37  1  0  0  0  0
 15 39  1  0  0  0  0
 15 40  1  0  0  0  0
 16 18  1  0  0  0  0
 16 42  1  0  0  0  0
 17 15  1  0  0  0  0
 17 10  1  0  0  0  0
 18 47  1  0  0  0  0
 18 48  1  0  0  0  0
 21  6  1  0  0  0  0
 22  6  1  0  0  0  0
 24  7  1  0  0  0  0
 25  8  1  0  0  0  0
 26  8  1  0  0  0  0
 27  9  1  0  0  0  0
 28  9  1  0  0  0  0
 31 12  1  0  0  0  0
 32 12  1  0  0  0  0
 34 13  1  0  0  0  0
 35 13  1  0  0  0  0
 38 14  1  0  0  0  0
 41 15  1  0  0  0  0
 43 16  1  0  0  0  0
 44 16  1  0  0  0  0
 45 17  1  0  0  0  0
 46 17  1  0  0  0  0
M  END
