2,3,6,7
 OpenBabel05122313063D

 22 21  0  0  1  0  0  0  0  0999 V2000
   -4.7827   -0.7198   -0.5489 S   0  0  0  0  0  0  0  0  0  0  0  0
   -2.0983   -0.5446   -1.7097 S   0  0  0  0  0  1  0  0  0  0  0  0
    2.0420   -0.5144   -1.7519 S   0  0  0  0  0  1  0  0  0  0  0  0
    4.7530   -0.7312   -0.6662 S   0  0  0  0  0  0  0  0  0  0  0  0
   -2.6392   -1.0452    0.9728 N   0  0  0  0  0  2  0  0  0  0  0  0
   -1.3087   -1.0461    1.0859 N   0  0  0  0  0  2  0  0  0  0  0  0
    1.3190   -1.0399    1.0571 N   0  0  0  0  0  2  0  0  0  0  0  0
    2.6456   -1.0375    0.9104 N   0  0  0  0  0  2  0  0  0  0  0  0
   -5.4553   -1.0566    1.1101 C   0  0  0  0  0  0  0  0  0  0  0  0
   -3.0511   -0.7962   -0.2746 C   0  0  2  0  0  3  0  0  0  0  0  0
   -0.7063   -1.3870    2.1996 C   0  0  0  0  0  0  0  0  0  0  0  0
    0.7424   -1.3853    2.1839 C   0  0  0  0  0  0  0  0  0  0  0  0
    3.0259   -0.7862   -0.3529 C   0  0  2  0  0  3  0  0  0  0  0  0
    5.4622   -1.1018    0.9705 C   0  0  0  0  0  0  0  0  0  0  0  0
   -5.1204   -2.0468    1.4699 H   0  0  0  0  0  0  0  0  0  0  0  0
   -6.5559   -1.0404    0.9943 H   0  0  0  0  0  0  0  0  0  0  0  0
   -5.1327   -0.2813    1.8292 H   0  0  0  0  0  0  0  0  0  0  0  0
   -1.2767   -1.6939    3.0955 H   0  0  0  0  0  0  0  0  0  0  0  0
    1.3332   -1.6953    3.0654 H   0  0  0  0  0  0  0  0  0  0  0  0
    5.1123   -2.0867    1.3305 H   0  0  0  0  0  0  0  0  0  0  0  0
    5.1825   -0.3265    1.7073 H   0  0  0  0  0  0  0  0  0  0  0  0
    6.5591   -1.1128    0.8229 H   0  0  0  0  0  0  0  0  0  0  0  0
  1 10  1  0  0  0  0
  1  9  1  0  0  0  0
  4 13  1  0  0  0  0
  4 14  1  0  0  0  0
  5  6  1  0  0  0  0
  6 11  1  0  0  0  0
  7 12  1  0  0  0  0
  8  7  1  0  0  0  0
  9 15  1  0  0  0  0
  9 17  1  0  0  0  0
 10  2  1  6  0  0  0
 10  5  1  0  0  0  0
 11 18  1  0  0  0  0
 12 11  2  0  0  0  0
 12 19  1  0  0  0  0
 13  3  1  6  0  0  0
 13  8  1  0  0  0  0
 14 20  1  0  0  0  0
 14 21  1  0  0  0  0
 16  9  1  0  0  0  0
 22 14  1  0  0  0  0
M  END
