2,10,15,18
 OpenBabel05122313063D

 40 41  0  0  0  0  0  0  0  0999 V2000
   -2.9043   -0.2372    0.0003 C   0  0  0  0  0  0  0  0  0  0  0  0
   -1.7039   -1.5229   -0.0015 S   0  0  0  0  0  1  0  0  0  0  0  0
   -4.3393   -0.5836    0.0006 C   0  0  0  0  0  0  0  0  0  0  0  0
   -5.3169    0.4414   -0.0104 C   0  0  0  0  0  0  0  0  0  0  0  0
   -6.6786    0.1229   -0.0104 C   0  0  0  0  0  0  0  0  0  0  0  0
   -7.0909   -1.2211    0.0009 C   0  0  0  0  0  0  0  0  0  0  0  0
   -6.1302   -2.2459    0.0120 C   0  0  0  0  0  0  0  0  0  0  0  0
   -4.7664   -1.9318    0.0118 C   0  0  0  0  0  0  0  0  0  0  0  0
   -2.5822    1.0489    0.0004 N   0  0  0  0  0  0  0  0  0  0  0  0
   -1.2452    1.2405    0.0006 N   0  0  0  0  0  2  0  0  0  0  0  0
   -0.7305    2.4680    0.0007 C   0  0  0  0  0  0  0  0  0  0  0  0
   -1.5511    3.7139   -0.0019 C   0  0  0  0  0  0  0  0  0  0  0  0
    0.7305    2.4680   -0.0007 C   0  0  0  0  0  0  0  0  0  0  0  0
    1.5510    3.7139    0.0016 C   0  0  0  0  0  0  0  0  0  0  0  0
    1.2452    1.2405   -0.0004 N   0  0  0  0  0  2  0  0  0  0  0  0
    2.5822    1.0489   -0.0002 N   0  0  0  0  0  0  0  0  0  0  0  0
    2.9043   -0.2372   -0.0003 C   0  0  0  0  0  0  0  0  0  0  0  0
    1.7039   -1.5229    0.0013 S   0  0  0  0  0  1  0  0  0  0  0  0
    4.3393   -0.5836   -0.0006 C   0  0  0  0  0  0  0  0  0  0  0  0
    5.3169    0.4414    0.0106 C   0  0  0  0  0  0  0  0  0  0  0  0
    6.6786    0.1229    0.0106 C   0  0  0  0  0  0  0  0  0  0  0  0
    7.0909   -1.2211   -0.0008 C   0  0  0  0  0  0  0  0  0  0  0  0
    6.1302   -2.2459   -0.0121 C   0  0  0  0  0  0  0  0  0  0  0  0
    4.7664   -1.9318   -0.0119 C   0  0  0  0  0  0  0  0  0  0  0  0
   -4.9788    1.4864   -0.0196 H   0  0  0  0  0  0  0  0  0  0  0  0
   -7.4281    0.9289   -0.0193 H   0  0  0  0  0  0  0  0  0  0  0  0
   -8.1632   -1.4697    0.0009 H   0  0  0  0  0  0  0  0  0  0  0  0
   -6.4469   -3.2997    0.0210 H   0  0  0  0  0  0  0  0  0  0  0  0
   -4.0100   -2.7307    0.0209 H   0  0  0  0  0  0  0  0  0  0  0  0
   -1.2828    4.3686    0.8533 H   0  0  0  0  0  0  0  0  0  0  0  0
   -1.3737    4.3037   -0.9264 H   0  0  0  0  0  0  0  0  0  0  0  0
   -2.6221    3.4531    0.0571 H   0  0  0  0  0  0  0  0  0  0  0  0
    4.9788    1.4864    0.0199 H   0  0  0  0  0  0  0  0  0  0  0  0
    7.4281    0.9289    0.0196 H   0  0  0  0  0  0  0  0  0  0  0  0
    8.1632   -1.4697   -0.0008 H   0  0  0  0  0  0  0  0  0  0  0  0
    6.4469   -3.2997   -0.0212 H   0  0  0  0  0  0  0  0  0  0  0  0
    4.0100   -2.7307   -0.0211 H   0  0  0  0  0  0  0  0  0  0  0  0
    2.6222    3.4530   -0.0550 H   0  0  0  0  0  0  0  0  0  0  0  0
    1.3718    4.3053    0.9247 H   0  0  0  0  0  0  0  0  0  0  0  0
    1.2845    4.3672   -0.8552 H   0  0  0  0  0  0  0  0  0  0  0  0
  1  9  2  0  0  0  0
  1  3  1  0  0  0  0
  2  1  1  0  0  0  0
  3  8  1  0  0  0  0
  4  5  1  0  0  0  0
  4  3  2  0  0  0  0
  5  6  2  0  0  0  0
  6 27  1  0  0  0  0
  6  7  1  0  0  0  0
  7 28  1  0  0  0  0
  8  7  2  0  0  0  0
  8 29  1  0  0  0  0
  9 10  1  0  0  0  0
 10 11  1  0  0  0  0
 12 11  1  0  0  0  0
 12 32  1  0  0  0  0
 12 30  1  0  0  0  0
 13 15  1  0  0  0  0
 13 11  2  0  0  0  0
 13 14  1  0  0  0  0
 14 39  1  0  0  0  0
 15 16  1  0  0  0  0
 17 16  2  0  0  0  0
 17 18  1  0  0  0  0
 19 17  1  0  0  0  0
 19 20  1  0  0  0  0
 20 33  1  0  0  0  0
 21 20  2  0  0  0  0
 21 34  1  0  0  0  0
 22 21  1  0  0  0  0
 23 24  1  0  0  0  0
 23 22  2  0  0  0  0
 24 19  2  0  0  0  0
 25  4  1  0  0  0  0
 26  5  1  0  0  0  0
 31 12  1  0  0  0  0
 35 22  1  0  0  0  0
 36 23  1  0  0  0  0
 37 24  1  0  0  0  0
 38 14  1  0  0  0  0
 40 14  1  0  0  0  0
M  END
