1,8,11,13
 OpenBabel05122313063D

 30 29  0  0  0  0  0  0  0  0999 V2000
    1.9210   -1.8875   -0.0036 S   0  0  0  0  0  1  0  0  0  0  0  0
    4.3300   -0.7493    0.0118 N   0  0  0  0  0  0  0  0  0  0  0  0
    4.5882   -1.7385   -0.0118 H   0  0  0  0  0  0  0  0  0  0  0  0
    5.3842    0.2546   -0.0024 C   0  0  0  0  0  0  0  0  0  0  0  0
    5.4390    0.7623   -0.9877 H   0  0  0  0  0  0  0  0  0  0  0  0
    6.3497   -0.2397    0.2043 H   0  0  0  0  0  0  0  0  0  0  0  0
    5.1906    1.0208    0.7729 H   0  0  0  0  0  0  0  0  0  0  0  0
   -1.9193   -1.8900    0.0014 S   0  0  0  0  0  1  0  0  0  0  0  0
    2.6469    0.8193    0.0017 N   0  0  0  0  0  0  0  0  0  0  0  0
    3.0196   -0.4627    0.0021 C   0  0  0  0  0  0  0  0  0  0  0  0
    1.3375    1.0138   -0.0000 N   0  0  0  0  0  2  0  0  0  0  0  0
    0.7313    2.2037   -0.0040 C   0  0  0  0  0  0  0  0  0  0  0  0
   -1.3389    1.0123   -0.0001 N   0  0  0  0  0  2  0  0  0  0  0  0
   -0.7341    2.2029    0.0032 C   0  0  0  0  0  0  0  0  0  0  0  0
   -2.6483    0.8163   -0.0018 N   0  0  0  0  0  0  0  0  0  0  0  0
   -3.0191   -0.4662    0.0008 C   0  0  0  0  0  0  0  0  0  0  0  0
   -4.3296   -0.7521    0.0005 N   0  0  0  0  0  0  0  0  0  0  0  0
   -4.5899   -1.7408    0.0056 H   0  0  0  0  0  0  0  0  0  0  0  0
   -5.3799    0.2564    0.0017 C   0  0  0  0  0  0  0  0  0  0  0  0
   -5.3240    0.8802    0.9166 H   0  0  0  0  0  0  0  0  0  0  0  0
   -6.3597   -0.2509   -0.0334 H   0  0  0  0  0  0  0  0  0  0  0  0
   -5.2806    0.9226   -0.8784 H   0  0  0  0  0  0  0  0  0  0  0  0
    1.5211    3.4711   -0.0015 C   0  0  0  0  0  0  0  0  0  0  0  0
    2.5839    3.2582   -0.2095 H   0  0  0  0  0  0  0  0  0  0  0  0
    1.4532    3.9712    0.9885 H   0  0  0  0  0  0  0  0  0  0  0  0
    1.1315    4.1825   -0.7560 H   0  0  0  0  0  0  0  0  0  0  0  0
   -1.5251    3.4694    0.0011 C   0  0  0  0  0  0  0  0  0  0  0  0
   -2.5893    3.2545    0.1997 H   0  0  0  0  0  0  0  0  0  0  0  0
   -1.4498    3.9749   -0.9855 H   0  0  0  0  0  0  0  0  0  0  0  0
   -1.1421    4.1773    0.7624 H   0  0  0  0  0  0  0  0  0  0  0  0
  1 10  1  0  0  0  0
  3  2  1  0  0  0  0
  4  2  1  0  0  0  0
  4  6  1  0  0  0  0
  4  7  1  0  0  0  0
  5  4  1  0  0  0  0
  9 10  2  0  0  0  0
 10  2  1  0  0  0  0
 11  9  1  0  0  0  0
 12 23  1  0  0  0  0
 12 11  1  0  0  0  0
 12 14  2  0  0  0  0
 13 14  1  0  0  0  0
 15 13  1  0  0  0  0
 15 16  2  0  0  0  0
 16  8  1  0  0  0  0
 17 16  1  0  0  0  0
 17 19  1  0  0  0  0
 17 18  1  0  0  0  0
 19 20  1  0  0  0  0
 21 19  1  0  0  0  0
 22 19  1  0  0  0  0
 23 25  1  0  0  0  0
 24 23  1  0  0  0  0
 26 23  1  0  0  0  0
 27 14  1  0  0  0  0
 27 28  1  0  0  0  0
 27 30  1  0  0  0  0
 29 27  1  0  0  0  0
M  END
