1,2,3,4
 OpenBabel05122313063D

 42 44  0  0  0  0  0  0  0  0999 V2000
    1.3712   -1.7669    0.6227 S   0  0  0  0  0  1  0  0  0  0  0  0
   -1.3712   -1.7669   -0.6228 S   0  0  0  0  0  1  0  0  0  0  0  0
    1.0603    1.3525    0.6089 N   0  0  0  0  0  0  0  0  0  0  0  0
   -1.0603    1.3525   -0.6089 N   0  0  0  0  0  0  0  0  0  0  0  0
    2.9386   -1.0539    0.2128 C   0  0  0  0  0  0  0  0  0  0  0  0
    3.2976    0.2772    0.5721 C   0  0  0  0  0  0  0  0  0  0  0  0
    3.9045   -1.8489   -0.4508 C   0  0  0  0  0  0  0  0  0  0  0  0
    3.6310   -2.8786   -0.7263 H   0  0  0  0  0  0  0  0  0  0  0  0
    4.5663    0.7819    0.2340 C   0  0  0  0  0  0  0  0  0  0  0  0
    4.8212    1.8174    0.5148 H   0  0  0  0  0  0  0  0  0  0  0  0
    5.1708   -1.3401   -0.7619 C   0  0  0  0  0  0  0  0  0  0  0  0
    5.9003   -1.9811   -1.2811 H   0  0  0  0  0  0  0  0  0  0  0  0
    5.5085   -0.0158   -0.4309 C   0  0  0  0  0  0  0  0  0  0  0  0
    6.4979    0.3908   -0.6873 H   0  0  0  0  0  0  0  0  0  0  0  0
    2.3186    1.0971    1.3562 C   0  0  0  0  0  0  0  0  0  0  0  0
    2.0119    0.5344    2.2646 H   0  0  0  0  0  0  0  0  0  0  0  0
    2.7689    2.0691    1.6625 H   0  0  0  0  0  0  0  0  0  0  0  0
    0.0525    2.0444    1.4446 C   0  0  0  0  0  0  0  0  0  0  0  0
    0.4187    3.0622    1.7206 H   0  0  0  0  0  0  0  0  0  0  0  0
   -0.0685    1.4591    2.3757 H   0  0  0  0  0  0  0  0  0  0  0  0
    1.2675    2.1065   -0.6463 C   0  0  0  0  0  0  0  0  0  0  0  0
    2.0988    1.6246   -1.1947 H   0  0  0  0  0  0  0  0  0  0  0  0
    1.5712    3.1565   -0.4189 H   0  0  0  0  0  0  0  0  0  0  0  0
   -0.0525    2.0444   -1.4446 C   0  0  0  0  0  0  0  0  0  0  0  0
   -0.4187    3.0622   -1.7206 H   0  0  0  0  0  0  0  0  0  0  0  0
    0.0685    1.4591   -2.3757 H   0  0  0  0  0  0  0  0  0  0  0  0
   -1.2675    2.1065    0.6463 C   0  0  0  0  0  0  0  0  0  0  0  0
   -2.0988    1.6246    1.1947 H   0  0  0  0  0  0  0  0  0  0  0  0
   -1.5712    3.1565    0.4189 H   0  0  0  0  0  0  0  0  0  0  0  0
   -2.3186    1.0971   -1.3562 C   0  0  0  0  0  0  0  0  0  0  0  0
   -2.0119    0.5344   -2.2646 H   0  0  0  0  0  0  0  0  0  0  0  0
   -2.7689    2.0691   -1.6625 H   0  0  0  0  0  0  0  0  0  0  0  0
   -2.9386   -1.0539   -0.2128 C   0  0  0  0  0  0  0  0  0  0  0  0
   -3.2976    0.2772   -0.5721 C   0  0  0  0  0  0  0  0  0  0  0  0
   -3.9045   -1.8489    0.4508 C   0  0  0  0  0  0  0  0  0  0  0  0
   -3.6310   -2.8786    0.7263 H   0  0  0  0  0  0  0  0  0  0  0  0
   -4.5663    0.7819   -0.2340 C   0  0  0  0  0  0  0  0  0  0  0  0
   -4.8212    1.8174   -0.5148 H   0  0  0  0  0  0  0  0  0  0  0  0
   -5.1708   -1.3401    0.7619 C   0  0  0  0  0  0  0  0  0  0  0  0
   -5.9003   -1.9811    1.2811 H   0  0  0  0  0  0  0  0  0  0  0  0
   -5.5085   -0.0158    0.4309 C   0  0  0  0  0  0  0  0  0  0  0  0
   -6.4979    0.3908    0.6873 H   0  0  0  0  0  0  0  0  0  0  0  0
  2 33  1  0  0  0  0
  3 15  1  0  0  0  0
  3 18  1  0  0  0  0
  4 27  1  0  0  0  0
  5  6  1  0  0  0  0
  5  1  1  0  0  0  0
  6 15  1  0  0  0  0
  7  5  2  0  0  0  0
  8  7  1  0  0  0  0
  9 10  1  0  0  0  0
  9  6  2  0  0  0  0
 11  7  1  0  0  0  0
 11 13  2  0  0  0  0
 12 11  1  0  0  0  0
 13  9  1  0  0  0  0
 14 13  1  0  0  0  0
 15 17  1  0  0  0  0
 15 16  1  0  0  0  0
 18 19  1  0  0  0  0
 18 20  1  0  0  0  0
 21 23  1  0  0  0  0
 21  3  1  0  0  0  0
 22 21  1  0  0  0  0
 24 21  1  0  0  0  0
 24  4  1  0  0  0  0
 25 24  1  0  0  0  0
 26 24  1  0  0  0  0
 27 28  1  0  0  0  0
 27 18  1  0  0  0  0
 29 27  1  0  0  0  0
 30  4  1  0  0  0  0
 30 34  1  0  0  0  0
 31 30  1  0  0  0  0
 32 30  1  0  0  0  0
 33 35  1  0  0  0  0
 34 37  1  0  0  0  0
 34 33  2  0  0  0  0
 35 36  1  0  0  0  0
 35 39  2  0  0  0  0
 37 41  2  0  0  0  0
 38 37  1  0  0  0  0
 39 40  1  0  0  0  0
 41 42  1  0  0  0  0
 41 39  1  0  0  0  0
M  END
