5,10,15,20
 OpenBabel05122313063D

 62 65  0  0  0  0  0  0  0  0999 V2000
   -0.5957   -3.6189   -2.1458 C   0  0  0  0  0  0  0  0  0  0  0  0
   -0.0930   -2.7952   -2.6867 H   0  0  0  0  0  0  0  0  0  0  0  0
   -1.6896   -3.5534   -2.3003 H   0  0  0  0  0  0  0  0  0  0  0  0
   -0.2245   -4.6034   -2.4869 H   0  0  0  0  0  0  0  0  0  0  0  0
   -0.3308   -3.4652   -0.3381 S   0  0  0  0  0  0  0  0  0  0  0  0
    1.4632   -3.5543   -0.2432 C   0  0  0  0  0  0  0  0  0  0  0  0
    2.3596   -2.5446   -0.7081 C   0  0  0  0  0  0  0  0  0  0  0  0
    2.0260   -1.2051   -1.1801 C   0  0  0  0  0  3  0  0  0  0  0  0
    2.8746   -0.5974   -1.5505 H   0  0  0  0  0  0  0  0  0  0  0  0
    0.8506   -0.6438   -1.1385 N   0  0  0  0  0  2  0  0  0  0  0  0
    0.6886    0.6302   -1.5747 N   0  0  0  0  0  0  0  0  0  0  0  0
    0.7509    1.6022   -0.7019 C   0  0  0  0  0  0  0  0  0  0  0  0
    1.1310    1.3225    0.7322 C   0  0  0  0  0  0  0  0  0  0  0  0
    0.3256    0.7239    1.5674 N   0  0  0  0  0  0  0  0  0  0  0  0
   -0.8813    0.2720    1.1358 N   0  0  0  0  0  2  0  0  0  0  0  0
   -1.9455    0.7474    1.7260 C   0  0  0  0  0  3  0  0  0  0  0  0
   -1.7927    1.5260    2.4979 H   0  0  0  0  0  0  0  0  0  0  0  0
   -3.3231    0.3016    1.5272 C   0  0  0  0  0  0  0  0  0  0  0  0
   -3.8536   -0.4205    0.4164 C   0  0  0  0  0  0  0  0  0  0  0  0
   -2.9247   -0.8158   -1.0772 S   0  0  0  0  0  0  0  0  0  0  0  0
   -2.7418    0.8489   -1.8207 C   0  0  0  0  0  0  0  0  0  0  0  0
   -3.7369    1.2223   -2.1258 H   0  0  0  0  0  0  0  0  0  0  0  0
   -2.0880    0.7226   -2.7038 H   0  0  0  0  0  0  0  0  0  0  0  0
   -2.2575    1.5449   -1.1111 H   0  0  0  0  0  0  0  0  0  0  0  0
    0.4403    2.9780   -1.1230 C   0  0  0  0  0  0  0  0  0  0  0  0
    0.2130    3.2784   -2.4880 C   0  0  0  0  0  0  0  0  0  0  0  0
    0.3022    2.4723   -3.2306 H   0  0  0  0  0  0  0  0  0  0  0  0
   -0.1096    4.5809   -2.8778 C   0  0  0  0  0  0  0  0  0  0  0  0
   -0.2799    4.8070   -3.9410 H   0  0  0  0  0  0  0  0  0  0  0  0
   -0.2100    5.6041   -1.9166 C   0  0  0  0  0  0  0  0  0  0  0  0
   -0.4608    6.6292   -2.2279 H   0  0  0  0  0  0  0  0  0  0  0  0
    0.0142    5.3164   -0.5612 C   0  0  0  0  0  0  0  0  0  0  0  0
   -0.0619    6.1138    0.1926 H   0  0  0  0  0  0  0  0  0  0  0  0
    0.3385    4.0126   -0.1640 C   0  0  0  0  0  0  0  0  0  0  0  0
    0.5143    3.7937    0.9001 H   0  0  0  0  0  0  0  0  0  0  0  0
    2.4754    1.7114    1.1964 C   0  0  0  0  0  0  0  0  0  0  0  0
    3.4229    2.2469    0.2920 C   0  0  0  0  0  0  0  0  0  0  0  0
    3.1513    2.4016   -0.7630 H   0  0  0  0  0  0  0  0  0  0  0  0
    4.7090    2.5853    0.7320 C   0  0  0  0  0  0  0  0  0  0  0  0
    5.4370    3.0028    0.0208 H   0  0  0  0  0  0  0  0  0  0  0  0
    5.0653    2.3965    2.0766 C   0  0  0  0  0  0  0  0  0  0  0  0
    6.0742    2.6671    2.4223 H   0  0  0  0  0  0  0  0  0  0  0  0
    4.1287    1.8664    2.9834 C   0  0  0  0  0  0  0  0  0  0  0  0
    4.4059    1.7213    4.0382 H   0  0  0  0  0  0  0  0  0  0  0  0
    2.8437    1.5287    2.5513 C   0  0  0  0  0  0  0  0  0  0  0  0
    2.1012    1.1176    3.2500 H   0  0  0  0  0  0  0  0  0  0  0  0
    1.9667   -4.7429    0.3112 C   0  0  0  0  0  0  0  0  0  0  0  0
    1.2543   -5.5036    0.6636 H   0  0  0  0  0  0  0  0  0  0  0  0
    3.3483   -4.9728    0.3988 C   0  0  0  0  0  0  0  0  0  0  0  0
    3.7194   -5.9117    0.8353 H   0  0  0  0  0  0  0  0  0  0  0  0
    4.2428   -4.0105   -0.0912 C   0  0  0  0  0  0  0  0  0  0  0  0
    5.3278   -4.1840   -0.0465 H   0  0  0  0  0  0  0  0  0  0  0  0
    3.7495   -2.8209   -0.6345 C   0  0  0  0  0  0  0  0  0  0  0  0
    4.4535   -2.0569   -0.9994 H   0  0  0  0  0  0  0  0  0  0  0  0
   -4.2179    0.6350    2.5757 C   0  0  0  0  0  0  0  0  0  0  0  0
   -3.8314    1.2124    3.4297 H   0  0  0  0  0  0  0  0  0  0  0  0
   -5.5566    0.2287    2.5670 C   0  0  0  0  0  0  0  0  0  0  0  0
   -6.2143    0.4928    3.4078 H   0  0  0  0  0  0  0  0  0  0  0  0
   -6.0501   -0.5110    1.4840 C   0  0  0  0  0  0  0  0  0  0  0  0
   -7.1001   -0.8376    1.4608 H   0  0  0  0  0  0  0  0  0  0  0  0
   -5.2001   -0.8163    0.4085 C   0  0  0  0  0  0  0  0  0  0  0  0
   -5.5852   -1.3640   -0.4644 H   0  0  0  0  0  0  0  0  0  0  0  0
  1  5  1  0  0  0  0
  2  1  1  0  0  0  0
  3  1  1  0  0  0  0
  4  1  1  0  0  0  0
  5  6  1  0  0  0  0
  6 47  1  0  0  0  0
  7 53  1  0  0  0  0
  7  6  2  0  0  0  0
  8 10  1  0  0  0  0
  8  7  1  0  0  0  0
  9  8  1  0  0  0  0
 11 10  1  0  0  0  0
 11 12  2  0  0  0  0
 12 13  1  0  0  0  0
 13 36  1  0  0  0  0
 13 14  2  0  0  0  0
 15 14  1  0  0  0  0
 15 16  1  0  0  0  0
 16 17  1  0  0  0  0
 18 16  1  0  0  0  0
 18 55  1  0  0  0  0
 19 18  2  0  0  0  0
 20 19  1  0  0  0  0
 21 24  1  0  0  0  0
 21 20  1  0  0  0  0
 22 21  1  0  0  0  0
 23 21  1  0  0  0  0
 25 12  1  0  0  0  0
 25 34  1  0  0  0  0
 26 25  2  0  0  0  0
 27 26  1  0  0  0  0
 28 26  1  0  0  0  0
 28 30  2  0  0  0  0
 29 28  1  0  0  0  0
 30 32  1  0  0  0  0
 31 30  1  0  0  0  0
 32 34  2  0  0  0  0
 32 33  1  0  0  0  0
 34 35  1  0  0  0  0
 36 45  1  0  0  0  0
 37 39  1  0  0  0  0
 37 36  2  0  0  0  0
 38 37  1  0  0  0  0
 39 41  2  0  0  0  0
 40 39  1  0  0  0  0
 41 42  1  0  0  0  0
 41 43  1  0  0  0  0
 43 44  1  0  0  0  0
 45 43  2  0  0  0  0
 45 46  1  0  0  0  0
 47 49  2  0  0  0  0
 47 48  1  0  0  0  0
 49 50  1  0  0  0  0
 51 52  1  0  0  0  0
 51 49  1  0  0  0  0
 53 51  2  0  0  0  0
 54 53  1  0  0  0  0
 55 56  1  0  0  0  0
 57 55  2  0  0  0  0
 57 58  1  0  0  0  0
 59 57  1  0  0  0  0
 60 59  1  0  0  0  0
 61 19  1  0  0  0  0
 61 59  2  0  0  0  0
 62 61  1  0  0  0  0
M  END
