11,14,23,36
 OpenBabel05122313063D

 36 37  0  0  1  0  0  0  0  0999 V2000
   -3.2412   -0.0532    0.6356 C   0  0  0  0  0  0  0  0  0  0  0  0
   -2.8282   -1.1966   -0.1243 C   0  0  2  0  0  3  0  0  0  0  0  0
   -3.7889   -2.2206   -0.3585 C   0  0  0  0  0  0  0  0  0  0  0  0
   -3.4774   -3.1005   -0.9415 H   0  0  0  0  0  0  0  0  0  0  0  0
   -5.0870   -2.1270    0.1338 C   0  0  0  0  0  0  0  0  0  0  0  0
   -5.8017   -2.9396   -0.0686 H   0  0  0  0  0  0  0  0  0  0  0  0
   -5.4929   -1.0019    0.8913 C   0  0  0  0  0  0  0  0  0  0  0  0
   -6.5187   -0.9323    1.2811 H   0  0  0  0  0  0  0  0  0  0  0  0
   -4.5767    0.0116    1.1347 C   0  0  0  0  0  0  0  0  0  0  0  0
   -4.8721    0.8965    1.7208 H   0  0  0  0  0  0  0  0  0  0  0  0
   -1.2277   -1.4829   -0.7419 S   0  0  0  0  0  1  0  0  0  0  0  0
   -2.3847    1.0531    0.9309 C   0  0  0  0  0  0  0  0  0  0  0  0
   -2.7925    1.8541    1.5727 H   0  0  0  0  0  0  0  0  0  0  0  0
   -1.1470    1.2404    0.5189 N   0  0  0  0  0  2  0  0  0  0  0  0
   -0.6433    2.4593    1.0798 O   0  0  0  0  0  0  0  0  0  0  0  0
   -0.6881    3.5099    0.1200 C   0  0  0  0  0  0  0  0  0  0  0  0
   -0.2400    4.3740    0.6503 H   0  0  0  0  0  0  0  0  0  0  0  0
   -1.7406    3.7661   -0.1557 H   0  0  0  0  0  0  0  0  0  0  0  0
    0.1092    3.1824   -1.1343 C   0  0  0  0  0  0  0  0  0  0  0  0
   -0.3731    2.3650   -1.7166 H   0  0  0  0  0  0  0  0  0  0  0  0
    0.1967    4.0769   -1.7826 H   0  0  0  0  0  0  0  0  0  0  0  0
    1.4433    2.8170   -0.8146 O   0  0  0  0  0  0  0  0  0  0  0  0
    1.5368    1.5046   -0.3387 N   0  0  0  0  0  2  0  0  0  0  0  0
    2.7044    1.2902    0.2079 C   0  0  0  0  0  3  0  0  0  0  0  0
    3.3443    2.1753    0.3727 H   0  0  0  0  0  0  0  0  0  0  0  0
    3.2252   -0.0254    0.4943 C   0  0  0  0  0  0  0  0  0  0  0  0
    2.7894   -1.1721   -0.2511 C   0  0  0  0  0  0  0  0  0  0  0  0
    3.4625   -2.4001   -0.0341 C   0  0  0  0  0  0  0  0  0  0  0  0
    3.1360   -3.2799   -0.6080 H   0  0  0  0  0  0  0  0  0  0  0  0
    4.4996   -2.5060    0.8958 C   0  0  0  0  0  0  0  0  0  0  0  0
    4.9909   -3.4792    1.0492 H   0  0  0  0  0  0  0  0  0  0  0  0
    4.9122   -1.3828    1.6417 C   0  0  0  0  0  0  0  0  0  0  0  0
    5.7236   -1.4695    2.3789 H   0  0  0  0  0  0  0  0  0  0  0  0
    4.2845   -0.1562    1.4273 C   0  0  0  0  0  0  0  0  0  0  0  0
    4.6083    0.7359    1.9862 H   0  0  0  0  0  0  0  0  0  0  0  0
    1.5548   -1.1041   -1.4933 S   0  0  0  0  0  1  0  0  0  0  0  0
  1 12  2  0  0  0  0
  1  9  1  0  0  0  0
  2 11  1  1  0  0  0
  2  1  1  0  0  0  0
  3  2  1  0  0  0  0
  3  5  2  0  0  0  0
  4  3  1  0  0  0  0
  5  7  1  0  0  0  0
  6  5  1  0  0  0  0
  7  9  2  0  0  0  0
  7  8  1  0  0  0  0
  9 10  1  0  0  0  0
 12 13  1  0  0  0  0
 14 12  1  0  0  0  0
 14 15  1  0  0  0  0
 16 17  1  0  0  0  0
 16 15  1  0  0  0  0
 18 16  1  0  0  0  0
 19 22  1  0  0  0  0
 19 16  1  0  0  0  0
 20 19  1  0  0  0  0
 21 19  1  0  0  0  0
 22 23  1  0  0  0  0
 23 24  1  0  0  0  0
 24 25  1  0  0  0  0
 24 26  1  0  0  0  0
 26 34  1  0  0  0  0
 27 28  1  0  0  0  0
 27 26  2  0  0  0  0
 28 30  2  0  0  0  0
 29 28  1  0  0  0  0
 30 31  1  0  0  0  0
 30 32  1  0  0  0  0
 32 33  1  0  0  0  0
 34 32  2  0  0  0  0
 34 35  1  0  0  0  0
 36 27  1  0  0  0  0
M  END
