1,2,3,6
 OpenBabel05122313063D

 66 71  0  0  0  0  0  0  0  0999 V2000
   -2.9927    1.9908    0.3392 S   0  0  0  0  0  0  0  0  0  0  0  0
   -2.1436   -1.7704    1.7564 S   0  0  0  0  0  0  0  0  0  0  0  0
    0.2118    1.7751    0.5850 N   0  0  0  0  0  2  0  0  0  0  0  0
    1.4055    1.4678    1.1346 N   0  0  0  0  0  0  0  0  0  0  0  0
    1.0090   -1.5927   -1.3228 N   0  0  0  0  0  0  0  0  0  0  0  0
   -0.3034   -1.6078   -0.9905 N   0  0  0  0  0  2  0  0  0  0  0  0
    3.8259   -0.4220   -0.0435 C   0  0  0  0  0  0  0  0  0  0  0  0
    3.1851   -0.2659    1.2464 C   0  0  0  0  0  0  0  0  0  0  0  0
    3.9408   -0.3683    2.4166 C   0  0  0  0  0  0  0  0  0  0  0  0
    3.4258   -0.2492    3.3830 H   0  0  0  0  0  0  0  0  0  0  0  0
    5.3336   -0.6050    2.4119 C   0  0  0  0  0  0  0  0  0  0  0  0
    5.8847   -0.6830    3.3599 H   0  0  0  0  0  0  0  0  0  0  0  0
    5.9830   -0.7158    1.1984 C   0  0  0  0  0  0  0  0  0  0  0  0
    7.0706   -0.8780    1.1562 H   0  0  0  0  0  0  0  0  0  0  0  0
    5.2662   -0.6259   -0.0309 C   0  0  0  0  0  0  0  0  0  0  0  0
    6.0004   -0.7408   -1.2474 C   0  0  0  0  0  0  0  0  0  0  0  0
    7.0894   -0.8869   -1.1870 H   0  0  0  0  0  0  0  0  0  0  0  0
    5.3653   -0.6677   -2.4713 C   0  0  0  0  0  0  0  0  0  0  0  0
    5.9317   -0.7457   -3.4103 H   0  0  0  0  0  0  0  0  0  0  0  0
    3.9620   -0.5077   -2.4998 C   0  0  0  0  0  0  0  0  0  0  0  0
    3.4510   -0.4786   -3.4749 H   0  0  0  0  0  0  0  0  0  0  0  0
    3.1861   -0.3952   -1.3431 C   0  0  0  0  0  0  0  0  0  0  0  0
    1.7264    0.0737    1.4613 C   0  0  0  0  0  0  0  0  0  0  0  0
    1.0293   -0.5506    0.8735 H   0  0  0  0  0  0  0  0  0  0  0  0
    1.4736   -0.1022    2.5274 H   0  0  0  0  0  0  0  0  0  0  0  0
    2.1642    2.5795    1.3474 C   0  0  0  0  0  3  0  0  0  0  0  0
    3.1629    2.5100    1.7910 H   0  0  0  0  0  0  0  0  0  0  0  0
    1.4211    3.6659    0.9012 C   0  0  0  0  0  0  0  0  0  0  0  0
    1.7231    4.7168    0.9305 H   0  0  0  0  0  0  0  0  0  0  0  0
    0.1977    3.1184    0.4133 C   0  0  0  0  0  0  0  0  0  0  0  0
   -0.8814    3.8503   -0.2835 C   0  0  0  0  0  0  0  0  0  0  0  0
   -0.5112    5.0598   -0.9221 C   0  0  0  0  0  0  0  0  0  0  0  0
    0.5369    5.3852   -0.8651 H   0  0  0  0  0  0  0  0  0  0  0  0
   -1.4184    5.8286   -1.6581 C   0  0  0  0  0  0  0  0  0  0  0  0
   -1.0788    6.7554   -2.1431 H   0  0  0  0  0  0  0  0  0  0  0  0
   -2.7490    5.4069   -1.7828 C   0  0  0  0  0  0  0  0  0  0  0  0
   -3.4752    5.9963   -2.3613 H   0  0  0  0  0  0  0  0  0  0  0  0
   -3.1536    4.2269   -1.1471 C   0  0  0  0  0  0  0  0  0  0  0  0
   -4.2002    3.8940   -1.2098 H   0  0  0  0  0  0  0  0  0  0  0  0
   -2.2448    3.4515   -0.4002 C   0  0  0  0  0  0  0  0  0  0  0  0
   -2.7247    2.2685    2.1254 C   0  0  0  0  0  0  0  0  0  0  0  0
   -1.6464    2.3188    2.3650 H   0  0  0  0  0  0  0  0  0  0  0  0
   -3.1817    1.4014    2.6396 H   0  0  0  0  0  0  0  0  0  0  0  0
   -3.2413    3.1986    2.4266 H   0  0  0  0  0  0  0  0  0  0  0  0
    1.6945   -0.3198   -1.5903 C   0  0  0  0  0  0  0  0  0  0  0  0
    1.1715    0.4534   -1.0010 H   0  0  0  0  0  0  0  0  0  0  0  0
    1.5226   -0.0594   -2.6546 H   0  0  0  0  0  0  0  0  0  0  0  0
    1.4906   -2.8536   -1.5063 C   0  0  0  0  0  3  0  0  0  0  0  0
    2.5363   -3.0221   -1.7841 H   0  0  0  0  0  0  0  0  0  0  0  0
    0.4372   -3.7329   -1.2685 C   0  0  0  0  0  0  0  0  0  0  0  0
    0.4642   -4.8264   -1.3010 H   0  0  0  0  0  0  0  0  0  0  0  0
   -0.6718   -2.9101   -0.9385 C   0  0  0  0  0  0  0  0  0  0  0  0
   -2.0500   -3.3412   -0.6195 C   0  0  0  0  0  0  0  0  0  0  0  0
   -2.6624   -4.2682   -1.4911 C   0  0  0  0  0  0  0  0  0  0  0  0
   -2.0964   -4.6171   -2.3678 H   0  0  0  0  0  0  0  0  0  0  0  0
   -3.9737   -4.7156   -1.2824 C   0  0  0  0  0  0  0  0  0  0  0  0
   -4.4269   -5.4274   -1.9877 H   0  0  0  0  0  0  0  0  0  0  0  0
   -4.7026   -4.2484   -0.1802 C   0  0  0  0  0  0  0  0  0  0  0  0
   -5.7334   -4.5906   -0.0063 H   0  0  0  0  0  0  0  0  0  0  0  0
   -4.1045   -3.3547    0.7198 C   0  0  0  0  0  0  0  0  0  0  0  0
   -4.6518   -3.0101    1.6095 H   0  0  0  0  0  0  0  0  0  0  0  0
   -2.7890   -2.9011    0.5132 C   0  0  0  0  0  0  0  0  0  0  0  0
   -0.6871   -2.6834    2.3719 C   0  0  0  0  0  0  0  0  0  0  0  0
   -1.0089   -3.6624    2.7741 H   0  0  0  0  0  0  0  0  0  0  0  0
   -0.2632   -2.0729    3.1920 H   0  0  0  0  0  0  0  0  0  0  0  0
    0.0726   -2.8285    1.5801 H   0  0  0  0  0  0  0  0  0  0  0  0
  1 41  1  0  0  0  0
  2 63  1  0  0  0  0
  3  4  1  0  0  0  0
  4 26  1  0  0  0  0
  4 23  1  0  0  0  0
  5  6  1  0  0  0  0
  6 52  1  0  0  0  0
  7 15  1  0  0  0  0
  7  8  2  0  0  0  0
  8 23  1  0  0  0  0
  8  9  1  0  0  0  0
  9 10  1  0  0  0  0
 11  9  2  0  0  0  0
 11 12  1  0  0  0  0
 13 11  1  0  0  0  0
 14 13  1  0  0  0  0
 15 13  2  0  0  0  0
 16 17  1  0  0  0  0
 16 15  1  0  0  0  0
 18 16  2  0  0  0  0
 19 18  1  0  0  0  0
 20 18  1  0  0  0  0
 20 22  2  0  0  0  0
 21 20  1  0  0  0  0
 22  7  1  0  0  0  0
 23 25  1  0  0  0  0
 24 23  1  0  0  0  0
 26 27  1  0  0  0  0
 28 29  1  0  0  0  0
 28 26  1  0  0  0  0
 30  3  1  0  0  0  0
 30 28  2  0  0  0  0
 31 30  1  0  0  0  0
 32 33  1  0  0  0  0
 32 31  2  0  0  0  0
 34 32  1  0  0  0  0
 35 34  1  0  0  0  0
 36 34  2  0  0  0  0
 36 38  1  0  0  0  0
 37 36  1  0  0  0  0
 38 40  2  0  0  0  0
 39 38  1  0  0  0  0
 40 31  1  0  0  0  0
 40  1  1  0  0  0  0
 41 42  1  0  0  0  0
 41 44  1  0  0  0  0
 41 43  1  0  0  0  0
 45 22  1  0  0  0  0
 45  5  1  0  0  0  0
 45 46  1  0  0  0  0
 47 45  1  0  0  0  0
 48  5  1  0  0  0  0
 48 50  1  0  0  0  0
 49 48  1  0  0  0  0
 50 52  2  0  0  0  0
 51 50  1  0  0  0  0
 52 53  1  0  0  0  0
 53 62  1  0  0  0  0
 54 56  1  0  0  0  0
 54 53  2  0  0  0  0
 55 54  1  0  0  0  0
 56 58  2  0  0  0  0
 57 56  1  0  0  0  0
 58 59  1  0  0  0  0
 58 60  1  0  0  0  0
 60 61  1  0  0  0  0
 62 60  2  0  0  0  0
 62  2  1  0  0  0  0
 63 64  1  0  0  0  0
 63 65  1  0  0  0  0
 66 63  1  0  0  0  0
M  END
