1,4,7,10
 OpenBabel05122313063D

 44 44  0  0  0  0  0  0  0  0999 V2000
    0.5669   -0.7475   -0.2429 S   0  0  0  0  0  1  0  0  0  0  0  0
    0.8691    0.9591   -0.0821 C   0  0  0  0  0  0  0  0  0  0  0  0
   -0.0033    1.9735   -0.0249 N   0  0  0  0  0  0  0  0  0  0  0  0
   -1.2795    1.5856   -0.0427 N   0  0  0  0  0  2  0  0  0  0  0  0
   -2.2798    2.4431   -0.0537 C   0  0  0  0  0  0  0  0  0  0  0  0
   -3.6301    1.8506   -0.0831 C   0  0  0  0  0  0  0  0  0  0  0  0
   -3.6766    0.5347   -0.0949 N   0  0  0  0  0  2  0  0  0  0  0  0
   -4.8296   -0.1376   -0.1353 N   0  0  0  0  0  0  0  0  0  0  0  0
   -4.6799   -1.4669   -0.2066 C   0  0  0  0  0  0  0  0  0  0  0  0
   -3.1816   -2.3931   -0.3146 S   0  0  0  0  0  1  0  0  0  0  0  0
    2.1759    1.4006   -0.0294 N   0  0  0  0  0  0  0  0  0  0  0  0
    3.2318    0.5822   -0.0624 N   0  0  0  0  0  0  0  0  0  0  0  0
    4.4561    1.0656   -0.0069 C   0  0  0  0  0  0  0  0  0  0  0  0
    5.5525    0.0931   -0.0423 C   0  0  0  0  0  0  0  0  0  0  0  0
    6.9123    0.4987   -0.0031 C   0  0  0  0  0  0  0  0  0  0  0  0
    7.9654   -0.4157   -0.0310 C   0  0  0  0  0  0  0  0  0  0  0  0
    7.6813   -1.7940   -0.0999 C   0  0  0  0  0  0  0  0  0  0  0  0
    6.3598   -2.2362   -0.1411 C   0  0  0  0  0  0  0  0  0  0  0  0
    5.2793   -1.3228   -0.1154 C   0  0  0  0  0  0  0  0  0  0  0  0
    4.0452   -1.8273   -0.1594 O   0  0  0  0  0  0  0  0  0  0  0  0
    4.6840    2.5534    0.0910 C   0  0  0  0  0  0  0  0  0  0  0  0
   -2.0841    3.9289   -0.0526 C   0  0  0  0  0  0  0  0  0  0  0  0
   -4.8562    2.7128   -0.1121 C   0  0  0  0  0  0  0  0  0  0  0  0
   -5.8275   -2.1940   -0.2242 N   0  0  0  0  0  0  0  0  0  0  0  0
   -7.1514   -1.6081   -0.1858 C   0  0  0  0  0  0  0  0  0  0  0  0
    2.2796    2.4224    0.0426 H   0  0  0  0  0  0  0  0  0  0  0  0
    3.3987   -1.0457   -0.1416 H   0  0  0  0  0  0  0  0  0  0  0  0
   -5.7153   -3.2025   -0.3208 H   0  0  0  0  0  0  0  0  0  0  0  0
    7.1527    1.5699    0.0497 H   0  0  0  0  0  0  0  0  0  0  0  0
    9.0051   -0.0592    0.0003 H   0  0  0  0  0  0  0  0  0  0  0  0
    8.5018   -2.5276   -0.1225 H   0  0  0  0  0  0  0  0  0  0  0  0
    6.1094   -3.3055   -0.1965 H   0  0  0  0  0  0  0  0  0  0  0  0
    5.7503    2.8244    0.1415 H   0  0  0  0  0  0  0  0  0  0  0  0
    4.1951    2.9678    0.9997 H   0  0  0  0  0  0  0  0  0  0  0  0
    4.2495    3.0778   -0.7880 H   0  0  0  0  0  0  0  0  0  0  0  0
   -1.0038    4.1554   -0.0074 H   0  0  0  0  0  0  0  0  0  0  0  0
   -2.5932    4.4015    0.8129 H   0  0  0  0  0  0  0  0  0  0  0  0
   -2.5120    4.3924   -0.9663 H   0  0  0  0  0  0  0  0  0  0  0  0
   -5.7514    2.0671   -0.1588 H   0  0  0  0  0  0  0  0  0  0  0  0
   -4.9195    3.3544    0.7917 H   0  0  0  0  0  0  0  0  0  0  0  0
   -4.8522    3.3938   -0.9885 H   0  0  0  0  0  0  0  0  0  0  0  0
   -7.3338   -0.9532   -1.0643 H   0  0  0  0  0  0  0  0  0  0  0  0
   -7.2861   -0.9827    0.7208 H   0  0  0  0  0  0  0  0  0  0  0  0
   -7.9018   -2.4203   -0.1792 H   0  0  0  0  0  0  0  0  0  0  0  0
  1  2  1  0  0  0  0
  2 11  1  0  0  0  0
  2  3  2  0  0  0  0
  4  3  1  0  0  0  0
  5 22  1  0  0  0  0
  5  4  1  0  0  0  0
  6  5  2  0  0  0  0
  7  6  1  0  0  0  0
  8  7  1  0  0  0  0
  9  8  2  0  0  0  0
 10  9  1  0  0  0  0
 11 26  1  0  0  0  0
 12 11  1  0  0  0  0
 12 13  2  0  0  0  0
 13 21  1  0  0  0  0
 14 13  1  0  0  0  0
 14 15  1  0  0  0  0
 15 29  1  0  0  0  0
 16 15  2  0  0  0  0
 16 30  1  0  0  0  0
 17 16  1  0  0  0  0
 18 19  1  0  0  0  0
 18 17  2  0  0  0  0
 19 14  2  0  0  0  0
 20 27  1  0  0  0  0
 20 19  1  0  0  0  0
 21 33  1  0  0  0  0
 21 34  1  0  0  0  0
 22 36  1  0  0  0  0
 22 37  1  0  0  0  0
 23  6  1  0  0  0  0
 23 40  1  0  0  0  0
 24  9  1  0  0  0  0
 24 25  1  0  0  0  0
 25 44  1  0  0  0  0
 25 43  1  0  0  0  0
 28 24  1  0  0  0  0
 31 17  1  0  0  0  0
 32 18  1  0  0  0  0
 35 21  1  0  0  0  0
 38 22  1  0  0  0  0
 39 23  1  0  0  0  0
 41 23  1  0  0  0  0
 42 25  1  0  0  0  0
M  END
