4,15,36,47
 OpenBabel05122313063D

 64 67  0  0  0  0  0  0  0  0999 V2000
   -4.5306    0.0920    0.7542 C   0  0  0  0  0  0  0  0  0  0  0  0
   -4.5518   -0.8855    1.2794 H   0  0  0  0  0  0  0  0  0  0  0  0
   -5.4339    0.6558    1.0655 H   0  0  0  0  0  0  0  0  0  0  0  0
   -3.0413    0.9146    1.4642 S   0  0  0  0  0  0  0  0  0  0  0  0
   -3.0106    2.4917    0.6092 C   0  0  0  0  0  0  0  0  0  0  0  0
   -4.0598    3.4109    0.7796 C   0  0  0  0  0  0  0  0  0  0  0  0
   -4.9154    3.1424    1.4174 H   0  0  0  0  0  0  0  0  0  0  0  0
   -4.0110    4.6658    0.1591 C   0  0  0  0  0  0  0  0  0  0  0  0
   -4.8406    5.3756    0.2896 H   0  0  0  0  0  0  0  0  0  0  0  0
   -2.8936    5.0118   -0.6207 C   0  0  0  0  0  0  0  0  0  0  0  0
   -2.8512    5.9917   -1.1188 H   0  0  0  0  0  0  0  0  0  0  0  0
   -1.8368    4.1112   -0.7830 C   0  0  0  0  0  0  0  0  0  0  0  0
   -0.9916    4.3774   -1.4340 H   0  0  0  0  0  0  0  0  0  0  0  0
   -1.8672    2.8351   -0.1699 C   0  0  0  0  0  0  0  0  0  0  0  0
   -0.8553    1.8767   -0.3700 N   0  0  0  0  0  2  0  0  0  0  0  0
    0.3853    2.2342   -0.6332 C   0  0  0  0  0  0  0  0  0  0  0  0
    0.6899    3.2963   -0.5311 H   0  0  0  0  0  0  0  0  0  0  0  0
    1.3683    1.2813   -1.0421 C   0  0  0  0  0  0  0  0  0  0  0  0
    0.9920    0.2655   -1.2514 H   0  0  0  0  0  0  0  0  0  0  0  0
    2.7035    1.5782   -1.1552 C   0  0  0  0  0  3  0  0  0  0  0  0
    3.0245    2.6039   -0.9008 H   0  0  0  0  0  0  0  0  0  0  0  0
    3.7654    0.6673   -1.5421 C   0  0  0  0  0  0  0  0  0  0  0  0
    3.5164   -0.6626   -1.9732 C   0  0  0  0  0  0  0  0  0  0  0  0
    2.4823   -1.0267   -2.0571 H   0  0  0  0  0  0  0  0  0  0  0  0
    4.5744   -1.5117   -2.3045 C   0  0  0  0  0  0  0  0  0  0  0  0
    4.3674   -2.5369   -2.6464 H   0  0  0  0  0  0  0  0  0  0  0  0
    5.9038   -1.0574   -2.2126 C   0  0  0  0  0  0  0  0  0  0  0  0
    6.7340   -1.7292   -2.4775 H   0  0  0  0  0  0  0  0  0  0  0  0
    6.1680    0.2565   -1.7931 C   0  0  0  0  0  0  0  0  0  0  0  0
    7.2052    0.6156   -1.7229 H   0  0  0  0  0  0  0  0  0  0  0  0
    5.1102    1.1105   -1.4647 C   0  0  0  0  0  0  0  0  0  0  0  0
    5.3163    2.1378   -1.1272 H   0  0  0  0  0  0  0  0  0  0  0  0
   -4.5303   -0.0913   -0.7555 C   0  0  0  0  0  0  0  0  0  0  0  0
   -4.5508    0.8861   -1.2807 H   0  0  0  0  0  0  0  0  0  0  0  0
   -5.4338   -0.6547   -1.0672 H   0  0  0  0  0  0  0  0  0  0  0  0
   -3.0412   -0.9148   -1.4649 S   0  0  0  0  0  0  0  0  0  0  0  0
   -3.0112   -2.4915   -0.6091 C   0  0  0  0  0  0  0  0  0  0  0  0
   -4.0607   -3.4105   -0.7793 C   0  0  0  0  0  0  0  0  0  0  0  0
   -4.9161   -3.1421   -1.4174 H   0  0  0  0  0  0  0  0  0  0  0  0
   -4.0123   -4.6650   -0.1581 C   0  0  0  0  0  0  0  0  0  0  0  0
   -4.8421   -5.3747   -0.2883 H   0  0  0  0  0  0  0  0  0  0  0  0
   -2.8951   -5.0110    0.6221 C   0  0  0  0  0  0  0  0  0  0  0  0
   -2.8531   -5.9906    1.1206 H   0  0  0  0  0  0  0  0  0  0  0  0
   -1.8381   -4.1106    0.7842 C   0  0  0  0  0  0  0  0  0  0  0  0
   -0.9931   -4.3767    1.4354 H   0  0  0  0  0  0  0  0  0  0  0  0
   -1.8680   -2.8348    0.1704 C   0  0  0  0  0  0  0  0  0  0  0  0
   -0.8560   -1.8766    0.3703 N   0  0  0  0  0  2  0  0  0  0  0  0
    0.3846   -2.2343    0.6335 C   0  0  0  0  0  0  0  0  0  0  0  0
    0.6889   -3.2964    0.5316 H   0  0  0  0  0  0  0  0  0  0  0  0
    1.3677   -1.2814    1.0422 C   0  0  0  0  0  0  0  0  0  0  0  0
    0.9915   -0.2655    1.2515 H   0  0  0  0  0  0  0  0  0  0  0  0
    2.7029   -1.5785    1.1553 C   0  0  0  0  0  3  0  0  0  0  0  0
    3.0237   -2.6042    0.9009 H   0  0  0  0  0  0  0  0  0  0  0  0
    3.7649   -0.6678    1.5423 C   0  0  0  0  0  0  0  0  0  0  0  0
    3.5160    0.6622    1.9735 C   0  0  0  0  0  0  0  0  0  0  0  0
    2.4820    1.0263    2.0576 H   0  0  0  0  0  0  0  0  0  0  0  0
    4.5742    1.5111    2.3049 C   0  0  0  0  0  0  0  0  0  0  0  0
    4.3673    2.5363    2.6470 H   0  0  0  0  0  0  0  0  0  0  0  0
    5.9035    1.0567    2.2128 C   0  0  0  0  0  0  0  0  0  0  0  0
    6.7338    1.7284    2.4777 H   0  0  0  0  0  0  0  0  0  0  0  0
    6.1675   -0.2572    1.7931 C   0  0  0  0  0  0  0  0  0  0  0  0
    7.2047   -0.6164    1.7227 H   0  0  0  0  0  0  0  0  0  0  0  0
    5.1097   -1.1111    1.4647 C   0  0  0  0  0  0  0  0  0  0  0  0
    5.3156   -2.1384    1.1271 H   0  0  0  0  0  0  0  0  0  0  0  0
  1  3  1  0  0  0  0
  1  2  1  0  0  0  0
  1  4  1  0  0  0  0
  5  6  1  0  0  0  0
  5  4  1  0  0  0  0
  6  7  1  0  0  0  0
  8  9  1  0  0  0  0
  8  6  2  0  0  0  0
 10  8  1  0  0  0  0
 11 10  1  0  0  0  0
 12 10  2  0  0  0  0
 12 14  1  0  0  0  0
 13 12  1  0  0  0  0
 14  5  2  0  0  0  0
 15 14  1  0  0  0  0
 16 17  1  0  0  0  0
 16 15  1  0  0  0  0
 18 16  2  0  0  0  0
 19 18  1  0  0  0  0
 20 18  1  0  0  0  0
 20 21  1  0  0  0  0
 22 31  1  0  0  0  0
 22 20  1  0  0  0  0
 23 22  2  0  0  0  0
 24 23  1  0  0  0  0
 25 27  2  0  0  0  0
 25 23  1  0  0  0  0
 26 25  1  0  0  0  0
 27 29  1  0  0  0  0
 28 27  1  0  0  0  0
 29 30  1  0  0  0  0
 29 31  2  0  0  0  0
 31 32  1  0  0  0  0
 33  1  1  0  0  0  0
 34 33  1  0  0  0  0
 35 33  1  0  0  0  0
 36 33  1  0  0  0  0
 36 37  1  0  0  0  0
 37 46  1  0  0  0  0
 38 37  2  0  0  0  0
 38 40  1  0  0  0  0
 39 38  1  0  0  0  0
 40 42  2  0  0  0  0
 41 40  1  0  0  0  0
 42 44  1  0  0  0  0
 42 43  1  0  0  0  0
 44 45  1  0  0  0  0
 46 47  1  0  0  0  0
 46 44  2  0  0  0  0
 47 48  1  0  0  0  0
 48 50  2  0  0  0  0
 49 48  1  0  0  0  0
 50 52  1  0  0  0  0
 50 51  1  0  0  0  0
 52 54  1  0  0  0  0
 53 52  1  0  0  0  0
 54 55  1  0  0  0  0
 55 56  1  0  0  0  0
 55 57  2  0  0  0  0
 57 58  1  0  0  0  0
 59 57  1  0  0  0  0
 59 60  1  0  0  0  0
 61 59  2  0  0  0  0
 62 61  1  0  0  0  0
 63 54  2  0  0  0  0
 63 61  1  0  0  0  0
 64 63  1  0  0  0  0
M  END
