1,2,5,6
 OpenBabel05122313063D

 70 72  0  0  1  0  0  0  0  0999 V2000
   -0.5322    1.4982    1.0868 S   0  0  1  0  0  3  0  0  0  0  0  0
   -0.7789   -1.1824   -1.1520 S   0  0  1  0  0  3  0  0  0  0  0  0
   -1.0261    1.3699    2.5180 O   0  0  0  0  0  1  0  0  0  0  0  0
   -1.3944   -0.5872   -2.4000 O   0  0  0  0  0  1  0  0  0  0  0  0
    2.3392    0.8793    1.1925 N   0  0  0  0  0  0  0  0  0  0  0  0
    2.2511   -1.4506   -0.5773 N   0  0  0  0  0  0  0  0  0  0  0  0
   -1.9119    2.3066    0.2095 C   0  0  0  0  0  0  0  0  0  0  0  0
   -2.8632    2.9423    1.0200 C   0  0  0  0  0  0  0  0  0  0  0  0
   -2.7329    2.9226    2.1120 H   0  0  0  0  0  0  0  0  0  0  0  0
   -3.9671    3.5571    0.4144 C   0  0  0  0  0  0  0  0  0  0  0  0
   -4.7195    4.0596    1.0430 H   0  0  0  0  0  0  0  0  0  0  0  0
   -4.1380    3.5318   -0.9852 C   0  0  0  0  0  0  0  0  0  0  0  0
   -3.1670    2.8684   -1.7651 C   0  0  0  0  0  0  0  0  0  0  0  0
   -3.2897    2.8191   -2.8587 H   0  0  0  0  0  0  0  0  0  0  0  0
   -2.0513    2.2511   -1.1846 C   0  0  0  0  0  0  0  0  0  0  0  0
   -1.3141    1.7207   -1.8041 H   0  0  0  0  0  0  0  0  0  0  0  0
   -5.3376    4.1707   -1.6374 C   0  0  0  0  0  0  0  0  0  0  0  0
   -5.9403    4.7500   -0.9115 H   0  0  0  0  0  0  0  0  0  0  0  0
   -6.0002    3.4026   -2.0897 H   0  0  0  0  0  0  0  0  0  0  0  0
   -5.0353    4.8536   -2.4577 H   0  0  0  0  0  0  0  0  0  0  0  0
   -2.1362   -2.0875   -0.3585 C   0  0  0  0  0  0  0  0  0  0  0  0
   -2.6837   -1.5969    0.8358 C   0  0  0  0  0  0  0  0  0  0  0  0
   -2.2102   -0.7603    1.3692 H   0  0  0  0  0  0  0  0  0  0  0  0
   -3.8363   -2.2053    1.3500 C   0  0  0  0  0  0  0  0  0  0  0  0
   -4.2666   -1.8220    2.2885 H   0  0  0  0  0  0  0  0  0  0  0  0
   -4.4487   -3.2954    0.6983 C   0  0  0  0  0  0  0  0  0  0  0  0
   -3.8851   -3.7522   -0.5121 C   0  0  0  0  0  0  0  0  0  0  0  0
   -4.3590   -4.5891   -1.0491 H   0  0  0  0  0  0  0  0  0  0  0  0
   -2.7440   -3.1452   -1.0517 C   0  0  0  0  0  0  0  0  0  0  0  0
   -2.3431   -3.4867   -2.0177 H   0  0  0  0  0  0  0  0  0  0  0  0
   -5.6616   -3.9661    1.2906 C   0  0  0  0  0  0  0  0  0  0  0  0
   -6.3249   -3.2356    1.7950 H   0  0  0  0  0  0  0  0  0  0  0  0
   -5.3644   -4.7152    2.0561 H   0  0  0  0  0  0  0  0  0  0  0  0
   -6.2530   -4.4997    0.5209 H   0  0  0  0  0  0  0  0  0  0  0  0
    0.7591    2.8679    1.1388 C   0  0  0  0  0  0  0  0  0  0  0  0
    0.4848    3.6032    0.3598 H   0  0  0  0  0  0  0  0  0  0  0  0
    0.5987    3.3078    2.1423 H   0  0  0  0  0  0  0  0  0  0  0  0
    2.1785    2.3397    0.8892 C   0  0  0  0  0  0  0  0  0  0  0  0
    2.4133    2.4761   -0.1794 H   0  0  0  0  0  0  0  0  0  0  0  0
    2.8915    2.9300    1.5051 H   0  0  0  0  0  0  0  0  0  0  0  0
    2.3211    0.7034    2.6682 C   0  0  0  0  0  0  0  0  0  0  0  0
    3.2010    1.2069    3.1269 H   0  0  0  0  0  0  0  0  0  0  0  0
    2.3053   -0.3737    2.9091 H   0  0  0  0  0  0  0  0  0  0  0  0
    1.3865    1.1289    3.0786 H   0  0  0  0  0  0  0  0  0  0  0  0
    3.6200    0.2614    0.6410 C   0  0  2  0  0  0  0  0  0  0  0  0
    3.9063   -0.4885    1.4075 H   0  0  0  0  0  0  0  0  0  0  0  0
    4.7893    1.2541    0.5270 C   0  0  0  0  0  0  0  0  0  0  0  0
    4.5327    2.0415   -0.2114 H   0  0  0  0  0  0  0  0  0  0  0  0
    4.9416    1.7623    1.5012 H   0  0  0  0  0  0  0  0  0  0  0  0
    6.0822    0.5661    0.0766 C   0  0  0  0  0  0  0  0  0  0  0  0
    6.4063   -0.1662    0.8494 H   0  0  0  0  0  0  0  0  0  0  0  0
    6.8956    1.3159   -0.0064 H   0  0  0  0  0  0  0  0  0  0  0  0
    5.8706   -0.1594   -1.2542 C   0  0  0  0  0  0  0  0  0  0  0  0
    6.8017   -0.6688   -1.5774 H   0  0  0  0  0  0  0  0  0  0  0  0
    5.6237    0.5825   -2.0451 H   0  0  0  0  0  0  0  0  0  0  0  0
    4.7323   -1.1768   -1.1292 C   0  0  0  0  0  0  0  0  0  0  0  0
    5.0329   -1.9512   -0.3912 H   0  0  0  0  0  0  0  0  0  0  0  0
    4.5724   -1.6998   -2.0946 H   0  0  0  0  0  0  0  0  0  0  0  0
    3.4205   -0.5033   -0.6899 C   0  0  1  0  0  0  0  0  0  0  0  0
    3.1154    0.2344   -1.4604 H   0  0  0  0  0  0  0  0  0  0  0  0
    2.5789   -2.6253    0.2646 C   0  0  0  0  0  0  0  0  0  0  0  0
    3.2768   -3.3030   -0.2719 H   0  0  0  0  0  0  0  0  0  0  0  0
    1.6560   -3.1590    0.5426 H   0  0  0  0  0  0  0  0  0  0  0  0
    3.0301   -2.3022    1.2173 H   0  0  0  0  0  0  0  0  0  0  0  0
    1.7438   -1.9284   -1.8986 C   0  0  0  0  0  0  0  0  0  0  0  0
    2.4382   -2.6832   -2.3337 H   0  0  0  0  0  0  0  0  0  0  0  0
    1.6954   -1.0517   -2.5764 H   0  0  0  0  0  0  0  0  0  0  0  0
    0.3536   -2.5415   -1.7543 C   0  0  0  0  0  0  0  0  0  0  0  0
    0.3114   -3.3779   -1.0306 H   0  0  0  0  0  0  0  0  0  0  0  0
   -0.0505   -2.8629   -2.7337 H   0  0  0  0  0  0  0  0  0  0  0  0
  1 35  1  0  0  0  0
  1  3  1  1  0  0  0
  2  4  1  6  0  0  0
  2 21  1  0  0  0  0
  5 41  1  0  0  0  0
  6 61  1  0  0  0  0
  7  8  1  0  0  0  0
  7  1  1  0  0  0  0
  8  9  1  0  0  0  0
 10  8  2  0  0  0  0
 10 11  1  0  0  0  0
 12 10  1  0  0  0  0
 13 15  1  0  0  0  0
 13 12  2  0  0  0  0
 14 13  1  0  0  0  0
 15  7  2  0  0  0  0
 16 15  1  0  0  0  0
 17 12  1  0  0  0  0
 17 18  1  0  0  0  0
 19 17  1  0  0  0  0
 20 17  1  0  0  0  0
 21 22  1  0  0  0  0
 22 24  2  0  0  0  0
 22 23  1  0  0  0  0
 24 25  1  0  0  0  0
 26 31  1  0  0  0  0
 26 24  1  0  0  0  0
 27 26  2  0  0  0  0
 28 27  1  0  0  0  0
 29 27  1  0  0  0  0
 29 21  2  0  0  0  0
 30 29  1  0  0  0  0
 31 32  1  0  0  0  0
 31 33  1  0  0  0  0
 34 31  1  0  0  0  0
 35 37  1  0  0  0  0
 36 35  1  0  0  0  0
 38 35  1  0  0  0  0
 38  5  1  0  0  0  0
 38 40  1  0  0  0  0
 39 38  1  0  0  0  0
 41 43  1  0  0  0  0
 41 44  1  0  0  0  0
 41 42  1  0  0  0  0
 45  5  1  0  0  0  0
 45 46  1  1  0  0  0
 47 45  1  0  0  0  0
 47 49  1  0  0  0  0
 48 47  1  0  0  0  0
 50 47  1  0  0  0  0
 50 51  1  0  0  0  0
 52 50  1  0  0  0  0
 53 56  1  0  0  0  0
 53 50  1  0  0  0  0
 54 53  1  0  0  0  0
 55 53  1  0  0  0  0
 56 59  1  0  0  0  0
 56 57  1  0  0  0  0
 58 56  1  0  0  0  0
 59 60  1  6  0  0  0
 59  6  1  0  0  0  0
 59 45  1  0  0  0  0
 61 63  1  0  0  0  0
 61 64  1  0  0  0  0
 62 61  1  0  0  0  0
 65 68  1  0  0  0  0
 65  6  1  0  0  0  0
 66 65  1  0  0  0  0
 67 65  1  0  0  0  0
 68  2  1  0  0  0  0
 68 69  1  0  0  0  0
 70 68  1  0  0  0  0
M  END
