1,2,4,6
 OpenBabel05122313063D

 52 52  0  0  1  0  0  0  0  0999 V2000
   -0.3099   -3.1026   -0.2165 S   0  0  0  0  0  1  0  0  0  0  0  0
    2.7577   -1.4808   -0.1095 S   0  0  0  0  0  1  0  0  0  0  0  0
   -1.9312    0.3455   -0.0320 N   0  0  0  0  0  2  0  0  0  0  0  0
   -1.1844   -0.7539   -0.0319 N   0  0  0  0  0  2  0  0  0  0  0  0
   -2.9565   -2.4241    0.0302 N   0  0  0  0  0  0  0  0  0  0  0  0
    1.0644    0.7655    0.0178 N   0  0  0  0  0  2  0  0  0  0  0  0
    2.3409    1.1922    0.0929 N   0  0  0  0  0  0  0  0  0  0  0  0
    4.5572    0.5413    0.0870 N   0  0  0  0  0  0  0  0  0  0  0  0
   -2.1754    2.7160   -0.0358 C   0  0  0  0  0  0  0  0  0  0  0  0
   -3.5149    2.6224    0.4111 C   0  0  0  0  0  0  0  0  0  0  0  0
   -3.8761    1.6550    0.7863 H   0  0  0  0  0  0  0  0  0  0  0  0
   -4.3633    3.7346    0.3886 C   0  0  0  0  0  0  0  0  0  0  0  0
   -5.3989    3.6365    0.7494 H   0  0  0  0  0  0  0  0  0  0  0  0
   -3.8975    4.9742   -0.0823 C   0  0  0  0  0  0  0  0  0  0  0  0
   -4.5638    5.8498   -0.0980 H   0  0  0  0  0  0  0  0  0  0  0  0
   -2.5736    5.0824   -0.5337 C   0  0  0  0  0  0  0  0  0  0  0  0
   -2.1978    6.0436   -0.9165 H   0  0  0  0  0  0  0  0  0  0  0  0
   -1.7228    3.9681   -0.5121 C   0  0  0  0  0  0  0  0  0  0  0  0
   -0.6991    4.0720   -0.9001 H   0  0  0  0  0  0  0  0  0  0  0  0
   -1.2982    1.5146   -0.0143 C   0  0  0  0  0  0  0  0  0  0  0  0
   -1.6755   -2.0180   -0.0613 C   0  0  2  0  0  3  0  0  0  0  0  0
   -4.0947   -1.5313    0.3043 C   0  0  0  0  0  0  0  0  0  0  0  0
   -4.8239   -2.1257    0.8932 H   0  0  0  0  0  0  0  0  0  0  0  0
   -3.7391   -0.7037    0.9435 H   0  0  0  0  0  0  0  0  0  0  0  0
   -4.7393   -0.9732   -0.9614 C   0  0  0  0  0  0  0  0  0  0  0  0
   -4.0233   -0.3124   -1.4870 H   0  0  0  0  0  0  0  0  0  0  0  0
   -5.6328   -0.3718   -0.6993 H   0  0  0  0  0  0  0  0  0  0  0  0
   -5.0607   -1.7815   -1.6492 H   0  0  0  0  0  0  0  0  0  0  0  0
   -3.2598   -3.8565   -0.0961 C   0  0  0  0  0  0  0  0  0  0  0  0
   -4.2495   -3.9365   -0.5921 H   0  0  0  0  0  0  0  0  0  0  0  0
   -2.5135   -4.3021   -0.7843 H   0  0  0  0  0  0  0  0  0  0  0  0
   -3.2507   -4.5873    1.2455 C   0  0  0  0  0  0  0  0  0  0  0  0
   -2.2430   -4.5299    1.7018 H   0  0  0  0  0  0  0  0  0  0  0  0
   -3.5071   -5.6558    1.1015 H   0  0  0  0  0  0  0  0  0  0  0  0
   -3.9856   -4.1531    1.9535 H   0  0  0  0  0  0  0  0  0  0  0  0
    0.1295    1.7109    0.0348 C   0  0  0  0  0  0  0  0  0  0  0  0
    0.5140    2.7392    0.1128 H   0  0  0  0  0  0  0  0  0  0  0  0
    3.2370    0.2020    0.0368 C   0  0  0  0  0  0  0  0  0  0  0  0
    4.9526    1.9495    0.1632 C   0  0  0  0  0  0  0  0  0  0  0  0
    5.9515    2.0384   -0.3131 H   0  0  0  0  0  0  0  0  0  0  0  0
    4.2377    2.5380   -0.4433 H   0  0  0  0  0  0  0  0  0  0  0  0
    4.9820    2.4832    1.5956 C   0  0  0  0  0  0  0  0  0  0  0  0
    5.3164    3.5404    1.6108 H   0  0  0  0  0  0  0  0  0  0  0  0
    5.6731    1.8967    2.2350 H   0  0  0  0  0  0  0  0  0  0  0  0
    3.9671    2.4326    2.0359 H   0  0  0  0  0  0  0  0  0  0  0  0
    5.6061   -0.4733    0.0804 C   0  0  0  0  0  0  0  0  0  0  0  0
    6.4504   -0.0847    0.6884 H   0  0  0  0  0  0  0  0  0  0  0  0
    5.2183   -1.3717    0.6038 H   0  0  0  0  0  0  0  0  0  0  0  0
    6.0759   -0.8464   -1.3269 C   0  0  0  0  0  0  0  0  0  0  0  0
    5.2334   -1.2711   -1.9076 H   0  0  0  0  0  0  0  0  0  0  0  0
    6.8827   -1.6054   -1.2793 H   0  0  0  0  0  0  0  0  0  0  0  0
    6.4680    0.0372   -1.8709 H   0  0  0  0  0  0  0  0  0  0  0  0
  2 38  1  0  0  0  0
  3  4  1  0  0  0  0
  3 20  1  0  0  0  0
  5 22  1  0  0  0  0
  6 36  1  0  0  0  0
  6  7  1  0  0  0  0
  8 39  1  0  0  0  0
  9 20  1  0  0  0  0
  9 10  1  0  0  0  0
 10 11  1  0  0  0  0
 12 10  2  0  0  0  0
 12 13  1  0  0  0  0
 14 12  1  0  0  0  0
 15 14  1  0  0  0  0
 16 18  1  0  0  0  0
 16 14  2  0  0  0  0
 17 16  1  0  0  0  0
 18  9  2  0  0  0  0
 19 18  1  0  0  0  0
 20 36  2  0  0  0  0
 21  1  1  1  0  0  0
 21  4  1  0  0  0  0
 21  5  1  0  0  0  0
 22 23  1  0  0  0  0
 22 24  1  0  0  0  0
 25 27  1  0  0  0  0
 25 22  1  0  0  0  0
 26 25  1  0  0  0  0
 28 25  1  0  0  0  0
 29  5  1  0  0  0  0
 29 32  1  0  0  0  0
 30 29  1  0  0  0  0
 31 29  1  0  0  0  0
 32 33  1  0  0  0  0
 32 35  1  0  0  0  0
 34 32  1  0  0  0  0
 36 37  1  0  0  0  0
 38  8  1  0  0  0  0
 38  7  2  0  0  0  0
 39 42  1  0  0  0  0
 40 39  1  0  0  0  0
 41 39  1  0  0  0  0
 42 43  1  0  0  0  0
 42 45  1  0  0  0  0
 42 44  1  0  0  0  0
 46  8  1  0  0  0  0
 46 48  1  0  0  0  0
 46 47  1  0  0  0  0
 49 51  1  0  0  0  0
 49 46  1  0  0  0  0
 50 49  1  0  0  0  0
 52 49  1  0  0  0  0
M  END
