1,2,3,4
 OpenBabel05122313063D

 46 48  0  0  0  0  0  0  0  0999 V2000
   -1.4464   -1.3078   -0.9449 S   0  0  0  0  0  0  0  0  0  0  0  0
    1.7373    1.2853   -0.8998 S   0  0  0  0  0  0  0  0  0  0  0  0
   -1.1719    1.5581    0.7195 N   0  0  0  0  0  2  0  0  0  0  0  0
    1.0590   -1.1095    1.2088 N   0  0  0  0  0  2  0  0  0  0  0  0
   -3.0754   -0.5543   -0.7555 C   0  0  0  0  0  0  0  0  0  0  0  0
   -4.1146   -1.2856   -1.3602 C   0  0  0  0  0  0  0  0  0  0  0  0
   -3.8638   -2.2245   -1.8771 H   0  0  0  0  0  0  0  0  0  0  0  0
   -5.4436   -0.8411   -1.3255 C   0  0  0  0  0  0  0  0  0  0  0  0
   -6.2336   -1.4386   -1.8039 H   0  0  0  0  0  0  0  0  0  0  0  0
   -5.7479    0.3724   -0.6929 C   0  0  0  0  0  0  0  0  0  0  0  0
   -6.7825    0.7433   -0.6610 H   0  0  0  0  0  0  0  0  0  0  0  0
   -4.7208    1.1167   -0.1091 C   0  0  0  0  0  0  0  0  0  0  0  0
   -4.9605    2.0743    0.3788 H   0  0  0  0  0  0  0  0  0  0  0  0
   -3.3643    0.6908   -0.1163 C   0  0  0  0  0  0  0  0  0  0  0  0
   -2.4553    1.6304    0.5502 C   0  0  0  0  0  3  0  0  0  0  0  0
   -2.9782    2.5206    0.9647 H   0  0  0  0  0  0  0  0  0  0  0  0
   -0.5234    2.6398    1.4632 C   0  0  0  0  0  0  0  0  0  0  0  0
   -0.1540    2.2092    2.4205 H   0  0  0  0  0  0  0  0  0  0  0  0
   -1.2667    3.4277    1.7244 H   0  0  0  0  0  0  0  0  0  0  0  0
    0.6558    3.2928    0.7260 C   0  0  0  0  0  0  0  0  0  0  0  0
    0.3132    3.6950   -0.2520 H   0  0  0  0  0  0  0  0  0  0  0  0
    0.9501    4.1785    1.3272 H   0  0  0  0  0  0  0  0  0  0  0  0
    1.9159    2.4437    0.5385 C   0  0  0  0  0  0  0  0  0  0  0  0
    2.1436    1.8410    1.4415 H   0  0  0  0  0  0  0  0  0  0  0  0
    2.7908    3.0860    0.3156 H   0  0  0  0  0  0  0  0  0  0  0  0
    3.1991    0.2591   -0.7144 C   0  0  0  0  0  0  0  0  0  0  0  0
    4.2740    0.6138   -1.5481 C   0  0  0  0  0  0  0  0  0  0  0  0
    4.1457    1.4628   -2.2361 H   0  0  0  0  0  0  0  0  0  0  0  0
    5.4905   -0.0842   -1.5069 C   0  0  0  0  0  0  0  0  0  0  0  0
    6.3173    0.2173   -2.1667 H   0  0  0  0  0  0  0  0  0  0  0  0
    5.6409   -1.1570   -0.6171 C   0  0  0  0  0  0  0  0  0  0  0  0
    6.5894   -1.7108   -0.5648 H   0  0  0  0  0  0  0  0  0  0  0  0
    4.5703   -1.5282    0.2007 C   0  0  0  0  0  0  0  0  0  0  0  0
    4.6856   -2.3830    0.8855 H   0  0  0  0  0  0  0  0  0  0  0  0
    3.3215   -0.8516    0.1766 C   0  0  0  0  0  0  0  0  0  0  0  0
    2.3047   -1.4427    1.0492 C   0  0  0  0  0  3  0  0  0  0  0  0
    2.6827   -2.3174    1.6237 H   0  0  0  0  0  0  0  0  0  0  0  0
    0.2772   -1.9060    2.1627 C   0  0  0  0  0  0  0  0  0  0  0  0
    0.3386   -1.4009    3.1521 H   0  0  0  0  0  0  0  0  0  0  0  0
    0.7390   -2.9126    2.2897 H   0  0  0  0  0  0  0  0  0  0  0  0
   -1.2063   -2.0507    1.7996 C   0  0  0  0  0  0  0  0  0  0  0  0
   -1.7365   -1.0843    1.9365 H   0  0  0  0  0  0  0  0  0  0  0  0
   -1.6499   -2.7460    2.5436 H   0  0  0  0  0  0  0  0  0  0  0  0
   -1.4911   -2.5919    0.3981 C   0  0  0  0  0  0  0  0  0  0  0  0
   -2.4889   -3.0676    0.3323 H   0  0  0  0  0  0  0  0  0  0  0  0
   -0.7415   -3.3448    0.0764 H   0  0  0  0  0  0  0  0  0  0  0  0
  1  5  1  0  0  0  0
  1 44  1  0  0  0  0
  2 26  1  0  0  0  0
  2 23  1  0  0  0  0
  3 17  1  0  0  0  0
  4 38  1  0  0  0  0
  5 14  1  0  0  0  0
  6  8  1  0  0  0  0
  6  5  2  0  0  0  0
  7  6  1  0  0  0  0
  8 10  2  0  0  0  0
  9  8  1  0  0  0  0
 10 11  1  0  0  0  0
 10 12  1  0  0  0  0
 12 13  1  0  0  0  0
 14 12  2  0  0  0  0
 14 15  1  0  0  0  0
 15  3  1  0  0  0  0
 15 16  1  0  0  0  0
 17 19  1  0  0  0  0
 17 18  1  0  0  0  0
 20 22  1  0  0  0  0
 20 17  1  0  0  0  0
 21 20  1  0  0  0  0
 23 20  1  0  0  0  0
 23 24  1  0  0  0  0
 25 23  1  0  0  0  0
 26 35  1  0  0  0  0
 27 29  1  0  0  0  0
 27 26  2  0  0  0  0
 28 27  1  0  0  0  0
 29 31  2  0  0  0  0
 30 29  1  0  0  0  0
 31 32  1  0  0  0  0
 31 33  1  0  0  0  0
 33 34  1  0  0  0  0
 35 33  2  0  0  0  0
 35 36  1  0  0  0  0
 36  4  1  0  0  0  0
 36 37  1  0  0  0  0
 38 40  1  0  0  0  0
 38 39  1  0  0  0  0
 41 42  1  0  0  0  0
 41 38  1  0  0  0  0
 41 43  1  0  0  0  0
 44 41  1  0  0  0  0
 45 44  1  0  0  0  0
 46 44  1  0  0  0  0
M  END
