1,2,3,4
 OpenBabel05122313063D

 68 70  0  0  0  0  0  0  0  0999 V2000
   -1.8868   -0.8835   -0.8479 S   0  0  0  0  0  0  0  0  0  0  0  0
    1.8568   -0.1492   -1.5338 S   0  0  0  0  0  0  0  0  0  0  0  0
   -0.3683    2.5147   -0.4056 N   0  0  0  0  0  2  0  0  0  0  0  0
    0.3297    0.5270    1.4382 N   0  0  0  0  0  0  0  0  0  0  0  0
   -0.9610    3.3971   -1.2392 C   0  0  0  0  0  3  0  0  0  0  0  0
   -1.3125    4.6930   -0.8458 C   0  0  0  0  0  0  0  0  0  0  0  0
   -1.0472    5.0887    0.4729 C   0  0  0  0  0  0  0  0  0  0  0  0
   -0.4199    4.1796    1.3370 C   0  0  0  0  0  0  0  0  0  0  0  0
   -0.0791    2.9045    0.8634 C   0  0  0  0  0  0  0  0  0  0  0  0
    0.7136    1.9209    1.6980 C   0  0  0  0  0  0  0  0  0  0  0  0
    3.0576   -0.0232   -0.1981 C   0  0  0  0  0  0  0  0  0  0  0  0
    4.3741    0.2705   -0.6107 C   0  0  0  0  0  0  0  0  0  0  0  0
    5.4107    0.4215    0.3196 C   0  0  0  0  0  0  0  0  0  0  0  0
    5.1299    0.2974    1.6863 C   0  0  0  0  0  0  0  0  0  0  0  0
    3.8183    0.0310    2.1018 C   0  0  0  0  0  0  0  0  0  0  0  0
    2.7558   -0.1382    1.1880 C   0  0  0  0  0  0  0  0  0  0  0  0
    1.3909   -0.4495    1.7687 C   0  0  0  0  0  0  0  0  0  0  0  0
    1.8939   -1.9814   -2.0549 C   0  0  0  0  0  0  0  0  0  0  0  0
    3.3058   -2.3198   -2.5315 C   0  0  0  0  0  0  0  0  0  0  0  0
    1.4629   -2.8753   -0.8950 C   0  0  0  0  0  0  0  0  0  0  0  0
    0.8859   -2.0238   -3.2082 C   0  0  0  0  0  0  0  0  0  0  0  0
   -0.9447    0.2120    2.1259 C   0  0  0  0  0  0  0  0  0  0  0  0
   -1.4441   -1.2073    1.9495 C   0  0  0  0  0  0  0  0  0  0  0  0
   -1.9071   -1.7577    0.7235 C   0  0  0  0  0  0  0  0  0  0  0  0
   -2.3445   -3.0973    0.6673 C   0  0  0  0  0  0  0  0  0  0  0  0
   -2.3580   -3.9001    1.8153 C   0  0  0  0  0  0  0  0  0  0  0  0
   -1.9166   -3.3663    3.0335 C   0  0  0  0  0  0  0  0  0  0  0  0
   -1.4642   -2.0408    3.0872 C   0  0  0  0  0  0  0  0  0  0  0  0
   -3.5984   -0.0598   -0.9961 C   0  0  0  0  0  0  0  0  0  0  0  0
   -3.8086    0.9617    0.1179 C   0  0  0  0  0  0  0  0  0  0  0  0
   -3.5180    0.6106   -2.3716 C   0  0  0  0  0  0  0  0  0  0  0  0
   -4.6620   -1.1561   -0.9657 C   0  0  0  0  0  0  0  0  0  0  0  0
   -1.1552    3.0448   -2.2642 H   0  0  0  0  0  0  0  0  0  0  0  0
   -1.7895    5.3743   -1.5644 H   0  0  0  0  0  0  0  0  0  0  0  0
   -1.3219    6.0941    0.8247 H   0  0  0  0  0  0  0  0  0  0  0  0
   -0.1863    4.4558    2.3758 H   0  0  0  0  0  0  0  0  0  0  0  0
    0.6403    2.1844    2.7799 H   0  0  0  0  0  0  0  0  0  0  0  0
    1.7826    2.0315    1.4148 H   0  0  0  0  0  0  0  0  0  0  0  0
    4.5732    0.3871   -1.6858 H   0  0  0  0  0  0  0  0  0  0  0  0
    6.4306    0.6449   -0.0262 H   0  0  0  0  0  0  0  0  0  0  0  0
    5.9278    0.4179    2.4337 H   0  0  0  0  0  0  0  0  0  0  0  0
    3.6003   -0.0528    3.1782 H   0  0  0  0  0  0  0  0  0  0  0  0
    1.5049   -0.5331    2.8760 H   0  0  0  0  0  0  0  0  0  0  0  0
    1.0335   -1.4368    1.4166 H   0  0  0  0  0  0  0  0  0  0  0  0
    4.0463   -2.2523   -1.7105 H   0  0  0  0  0  0  0  0  0  0  0  0
    3.6276   -1.6559   -3.3576 H   0  0  0  0  0  0  0  0  0  0  0  0
    3.3197   -3.3642   -2.9070 H   0  0  0  0  0  0  0  0  0  0  0  0
    0.4505   -2.6089   -0.5345 H   0  0  0  0  0  0  0  0  0  0  0  0
    2.1781   -2.8174   -0.0505 H   0  0  0  0  0  0  0  0  0  0  0  0
    1.4361   -3.9320   -1.2341 H   0  0  0  0  0  0  0  0  0  0  0  0
   -0.1285   -1.7370   -2.8674 H   0  0  0  0  0  0  0  0  0  0  0  0
    1.1893   -1.3549   -4.0380 H   0  0  0  0  0  0  0  0  0  0  0  0
    0.8343   -3.0580   -3.6060 H   0  0  0  0  0  0  0  0  0  0  0  0
   -1.6951    0.9387    1.7569 H   0  0  0  0  0  0  0  0  0  0  0  0
   -0.8301    0.3966    3.2215 H   0  0  0  0  0  0  0  0  0  0  0  0
   -2.6704   -3.5056   -0.3004 H   0  0  0  0  0  0  0  0  0  0  0  0
   -2.7075   -4.9412    1.7533 H   0  0  0  0  0  0  0  0  0  0  0  0
   -1.9165   -3.9826    3.9445 H   0  0  0  0  0  0  0  0  0  0  0  0
   -1.1122   -1.6284    4.0458 H   0  0  0  0  0  0  0  0  0  0  0  0
   -3.8237    0.4771    1.1143 H   0  0  0  0  0  0  0  0  0  0  0  0
   -4.7904    1.4609   -0.0207 H   0  0  0  0  0  0  0  0  0  0  0  0
   -3.0237    1.7426    0.1016 H   0  0  0  0  0  0  0  0  0  0  0  0
   -2.6892    1.3450   -2.4089 H   0  0  0  0  0  0  0  0  0  0  0  0
   -4.4654    1.1500   -2.5749 H   0  0  0  0  0  0  0  0  0  0  0  0
   -3.3655   -0.1321   -3.1795 H   0  0  0  0  0  0  0  0  0  0  0  0
   -5.6599   -0.6995   -1.1324 H   0  0  0  0  0  0  0  0  0  0  0  0
   -4.4940   -1.9090   -1.7606 H   0  0  0  0  0  0  0  0  0  0  0  0
   -4.6919   -1.6732    0.0135 H   0  0  0  0  0  0  0  0  0  0  0  0
  1 24  1  0  0  0  0
  2 11  1  0  0  0  0
  3  9  1  0  0  0  0
  4 10  1  0  0  0  0
  4 17  1  0  0  0  0
  4 22  1  0  0  0  0
  5  6  1  0  0  0  0
  5  3  1  0  0  0  0
  6  7  2  0  0  0  0
  7 35  1  0  0  0  0
  7  8  1  0  0  0  0
  8 36  1  0  0  0  0
  9  8  2  0  0  0  0
  9 10  1  0  0  0  0
 10 37  1  0  0  0  0
 11 16  1  0  0  0  0
 12 11  2  0  0  0  0
 12 13  1  0  0  0  0
 13 14  2  0  0  0  0
 14 15  1  0  0  0  0
 14 41  1  0  0  0  0
 15 42  1  0  0  0  0
 16 17  1  0  0  0  0
 16 15  2  0  0  0  0
 17 43  1  0  0  0  0
 18  2  1  0  0  0  0
 18 20  1  0  0  0  0
 19 18  1  0  0  0  0
 19 45  1  0  0  0  0
 20 48  1  0  0  0  0
 20 49  1  0  0  0  0
 21 51  1  0  0  0  0
 21 18  1  0  0  0  0
 22 55  1  0  0  0  0
 23 22  1  0  0  0  0
 23 28  1  0  0  0  0
 24 23  2  0  0  0  0
 25 24  1  0  0  0  0
 25 26  2  0  0  0  0
 26 27  1  0  0  0  0
 27 28  2  0  0  0  0
 27 58  1  0  0  0  0
 28 59  1  0  0  0  0
 29 32  1  0  0  0  0
 29  1  1  0  0  0  0
 29 30  1  0  0  0  0
 30 60  1  0  0  0  0
 31 29  1  0  0  0  0
 32 68  1  0  0  0  0
 33  5  1  0  0  0  0
 34  6  1  0  0  0  0
 38 10  1  0  0  0  0
 39 12  1  0  0  0  0
 40 13  1  0  0  0  0
 44 17  1  0  0  0  0
 46 19  1  0  0  0  0
 47 19  1  0  0  0  0
 50 20  1  0  0  0  0
 52 21  1  0  0  0  0
 53 21  1  0  0  0  0
 54 22  1  0  0  0  0
 56 25  1  0  0  0  0
 57 26  1  0  0  0  0
 61 30  1  0  0  0  0
 62 30  1  0  0  0  0
 63 31  1  0  0  0  0
 64 31  1  0  0  0  0
 65 31  1  0  0  0  0
 66 32  1  0  0  0  0
 67 32  1  0  0  0  0
M  END
