1,2,61,62
 OpenBabel05122313063D

 62 66  0  0  0  0  0  0  0  0999 V2000
   -0.4568   -1.6821    1.5844 S   0  0  0  0  0  0  0  0  0  0  0  0
    0.3280   -1.4056   -2.1440 S   0  0  0  0  0  0  0  0  0  0  0  0
   -2.6536    1.3039    0.0124 C   0  0  0  0  0  0  0  0  0  0  0  0
   -3.3767    2.5298   -0.0043 C   0  0  0  0  0  0  0  0  0  0  0  0
   -4.4722    2.5048    0.0792 H   0  0  0  0  0  0  0  0  0  0  0  0
   -2.6983    3.7382   -0.1049 C   0  0  0  0  0  0  0  0  0  0  0  0
   -3.2487    4.6913   -0.1112 H   0  0  0  0  0  0  0  0  0  0  0  0
   -1.2804    3.7434   -0.1908 C   0  0  0  0  0  0  0  0  0  0  0  0
   -0.4828    4.9358   -0.2955 C   0  0  0  0  0  0  0  0  0  0  0  0
   -0.9948    5.9096   -0.3134 H   0  0  0  0  0  0  0  0  0  0  0  0
    0.8907    4.8714   -0.3700 C   0  0  0  0  0  0  0  0  0  0  0  0
    1.4878    5.7925   -0.4459 H   0  0  0  0  0  0  0  0  0  0  0  0
    1.5748    3.6069   -0.3435 C   0  0  0  0  0  0  0  0  0  0  0  0
    2.9873    3.4600   -0.3852 C   0  0  0  0  0  0  0  0  0  0  0  0
    3.6251    4.3541   -0.4581 H   0  0  0  0  0  0  0  0  0  0  0  0
    3.5537    2.1901   -0.3279 C   0  0  0  0  0  0  0  0  0  0  0  0
    4.6442    2.0553   -0.3532 H   0  0  0  0  0  0  0  0  0  0  0  0
    2.7152    1.0466   -0.2453 C   0  0  0  0  0  0  0  0  0  0  0  0
    0.8078    2.4085   -0.2558 C   0  0  0  0  0  0  0  0  0  0  0  0
   -0.6332    2.4740   -0.1704 C   0  0  0  0  0  0  0  0  0  0  0  0
   -3.3627   -0.0026    0.0804 C   0  0  0  0  0  0  0  0  0  0  0  0
   -4.3920   -0.2424   -0.8571 C   0  0  0  0  0  0  0  0  0  0  0  0
   -4.6290    0.5354   -1.5987 H   0  0  0  0  0  0  0  0  0  0  0  0
   -5.0839   -1.4591   -0.8815 C   0  0  0  0  0  0  0  0  0  0  0  0
   -5.8700   -1.6282   -1.6319 H   0  0  0  0  0  0  0  0  0  0  0  0
   -4.7685   -2.4554    0.0546 C   0  0  0  0  0  0  0  0  0  0  0  0
   -5.3091   -3.4133    0.0508 H   0  0  0  0  0  0  0  0  0  0  0  0
   -3.7686   -2.2200    1.0066 C   0  0  0  0  0  0  0  0  0  0  0  0
   -3.5337   -2.9936    1.7543 H   0  0  0  0  0  0  0  0  0  0  0  0
   -3.0557   -1.0046    1.0439 C   0  0  0  0  0  0  0  0  0  0  0  0
   -2.0123   -0.8241    2.1167 C   0  0  0  0  0  0  0  0  0  0  0  0
   -2.3410   -1.2930    3.0661 H   0  0  0  0  0  0  0  0  0  0  0  0
   -1.7802    0.2414    2.2989 H   0  0  0  0  0  0  0  0  0  0  0  0
    3.2545   -0.3332   -0.0952 C   0  0  0  0  0  0  0  0  0  0  0  0
    4.0691   -0.6028    1.0244 C   0  0  0  0  0  0  0  0  0  0  0  0
    4.3094    0.2174    1.7183 H   0  0  0  0  0  0  0  0  0  0  0  0
    4.5468   -1.8962    1.2771 C   0  0  0  0  0  0  0  0  0  0  0  0
    5.1712   -2.0889    2.1621 H   0  0  0  0  0  0  0  0  0  0  0  0
    4.2334   -2.9348    0.3883 C   0  0  0  0  0  0  0  0  0  0  0  0
    4.6135   -3.9516    0.5662 H   0  0  0  0  0  0  0  0  0  0  0  0
    3.4556   -2.6683   -0.7474 C   0  0  0  0  0  0  0  0  0  0  0  0
    3.2571   -3.4759   -1.4688 H   0  0  0  0  0  0  0  0  0  0  0  0
    2.9474   -1.3796   -1.0104 C   0  0  0  0  0  0  0  0  0  0  0  0
    2.1609   -1.1495   -2.2734 C   0  0  0  0  0  0  0  0  0  0  0  0
    2.5166   -1.8119   -3.0877 H   0  0  0  0  0  0  0  0  0  0  0  0
    2.2416   -0.1048   -2.6314 H   0  0  0  0  0  0  0  0  0  0  0  0
    0.7048   -1.2950    2.9607 C   0  0  0  0  0  0  0  0  0  0  0  0
    0.3326   -1.8323    3.8574 H   0  0  0  0  0  0  0  0  0  0  0  0
    1.6381   -1.7991    2.6338 H   0  0  0  0  0  0  0  0  0  0  0  0
    0.9372    0.1839    3.2236 C   0  0  0  0  0  0  0  0  0  0  0  0
    0.0301    0.6875    3.6124 H   0  0  0  0  0  0  0  0  0  0  0  0
    1.2516    0.7013    2.2965 H   0  0  0  0  0  0  0  0  0  0  0  0
    1.7333    0.3115    3.9849 H   0  0  0  0  0  0  0  0  0  0  0  0
    0.1984   -3.1864   -1.7165 C   0  0  0  0  0  0  0  0  0  0  0  0
    0.6971   -3.7603   -2.5252 H   0  0  0  0  0  0  0  0  0  0  0  0
    0.7470   -3.3546   -0.7673 H   0  0  0  0  0  0  0  0  0  0  0  0
   -1.2728   -3.5582   -1.5856 C   0  0  0  0  0  0  0  0  0  0  0  0
   -1.8215   -3.3987   -2.5348 H   0  0  0  0  0  0  0  0  0  0  0  0
   -1.7668   -2.9581   -0.7957 H   0  0  0  0  0  0  0  0  0  0  0  0
   -1.3670   -4.6271   -1.3094 H   0  0  0  0  0  0  0  0  0  0  0  0
   -1.3110    1.2941   -0.0795 N   0  0  0  0  0  2  0  0  0  0  0  0
    1.3767    1.1722   -0.2174 N   0  0  0  0  0  2  0  0  0  0  0  0
  1 31  1  0  0  0  0
  1 47  1  0  0  0  0
  2 54  1  0  0  0  0
  3 21  1  0  0  0  0
  4  3  2  0  0  0  0
  4  5  1  0  0  0  0
  6  4  1  0  0  0  0
  7  6  1  0  0  0  0
  8 20  1  0  0  0  0
  8  6  2  0  0  0  0
  9  8  1  0  0  0  0
 10  9  1  0  0  0  0
 11 13  1  0  0  0  0
 11  9  2  0  0  0  0
 12 11  1  0  0  0  0
 13 19  1  0  0  0  0
 14 13  2  0  0  0  0
 14 16  1  0  0  0  0
 15 14  1  0  0  0  0
 16 18  2  0  0  0  0
 17 16  1  0  0  0  0
 18 62  1  0  0  0  0
 18 34  1  0  0  0  0
 19 62  1  0  0  0  0
 19 20  2  0  0  0  0
 20 61  1  0  0  0  0
 21 30  1  0  0  0  0
 22 21  2  0  0  0  0
 23 22  1  0  0  0  0
 24 22  1  0  0  0  0
 24 26  2  0  0  0  0
 25 24  1  0  0  0  0
 26 28  1  0  0  0  0
 27 26  1  0  0  0  0
 28 30  2  0  0  0  0
 28 29  1  0  0  0  0
 30 31  1  0  0  0  0
 31 33  1  0  0  0  0
 31 32  1  0  0  0  0
 34 35  1  0  0  0  0
 35 37  2  0  0  0  0
 35 36  1  0  0  0  0
 37 38  1  0  0  0  0
 39 40  1  0  0  0  0
 39 37  1  0  0  0  0
 41 39  2  0  0  0  0
 42 41  1  0  0  0  0
 43 41  1  0  0  0  0
 43 34  2  0  0  0  0
 44  2  1  0  0  0  0
 44 43  1  0  0  0  0
 45 44  1  0  0  0  0
 46 44  1  0  0  0  0
 47 50  1  0  0  0  0
 47 48  1  0  0  0  0
 49 47  1  0  0  0  0
 50 51  1  0  0  0  0
 50 53  1  0  0  0  0
 52 50  1  0  0  0  0
 54 57  1  0  0  0  0
 54 56  1  0  0  0  0
 55 54  1  0  0  0  0
 57 60  1  0  0  0  0
 57 59  1  0  0  0  0
 58 57  1  0  0  0  0
 61  3  1  0  0  0  0
M  END
