1,2,4,5
 OpenBabel05122313063D

 42 43  0  0  1  0  0  0  0  0999 V2000
    0.1919    0.1102    2.3896 S   0  0  0  0  0  0  0  0  0  0  0  0
   -0.2935   -2.2931   -1.9915 S   0  0  0  0  0  0  0  0  0  0  0  0
   -2.2348   -1.1416    0.5002 N   0  0  0  0  0  0  0  0  0  0  0  0
    2.0710   -1.4673    0.1669 N   0  0  0  0  0  0  0  0  0  0  0  0
   -1.5827    1.5160   -0.5111 N   0  0  0  0  0  2  0  0  0  0  0  0
   -2.8579    1.1706   -0.2339 C   0  0  2  0  0  3  0  0  0  0  0  0
    0.9325   -3.3270   -1.0866 C   0  0  0  0  0  0  0  0  0  0  0  0
    0.4694   -3.6934   -0.1478 H   0  0  0  0  0  0  0  0  0  0  0  0
    1.1576   -4.2057   -1.7218 H   0  0  0  0  0  0  0  0  0  0  0  0
   -1.2179    2.8088   -0.6099 C   0  0  0  0  0  0  0  0  0  0  0  0
   -0.1544    2.9945   -0.8253 H   0  0  0  0  0  0  0  0  0  0  0  0
    2.1024   -1.8708    1.5739 C   0  0  0  0  0  0  0  0  0  0  0  0
    1.3828   -2.7028    1.7337 H   0  0  0  0  0  0  0  0  0  0  0  0
    3.1063   -2.2775    1.8399 H   0  0  0  0  0  0  0  0  0  0  0  0
   -3.4757    3.5096   -0.1440 C   0  0  0  0  0  0  0  0  0  0  0  0
   -4.2296    4.2964    0.0080 H   0  0  0  0  0  0  0  0  0  0  0  0
   -2.2602   -2.5566    0.1206 C   0  0  0  0  0  0  0  0  0  0  0  0
   -3.2687   -3.0044    0.3079 H   0  0  0  0  0  0  0  0  0  0  0  0
   -1.5619   -3.0936    0.7945 H   0  0  0  0  0  0  0  0  0  0  0  0
   -3.2071   -0.3105   -0.2184 C   0  0  0  0  0  0  0  0  0  0  0  0
   -4.2395   -0.4374    0.1839 H   0  0  0  0  0  0  0  0  0  0  0  0
   -3.2405   -0.6487   -1.2748 H   0  0  0  0  0  0  0  0  0  0  0  0
   -3.8359    2.1570   -0.0369 C   0  0  0  0  0  0  0  0  0  0  0  0
   -4.8706    1.8636    0.1947 H   0  0  0  0  0  0  0  0  0  0  0  0
   -2.1470    3.8429   -0.4384 C   0  0  0  0  0  0  0  0  0  0  0  0
   -1.8216    4.8889   -0.5279 H   0  0  0  0  0  0  0  0  0  0  0  0
   -2.3216   -0.9563    1.9601 C   0  0  0  0  0  0  0  0  0  0  0  0
   -3.1279   -1.6009    2.3855 H   0  0  0  0  0  0  0  0  0  0  0  0
   -2.6327    0.0920    2.1503 H   0  0  0  0  0  0  0  0  0  0  0  0
   -1.0219   -1.2270    2.7288 C   0  0  0  0  0  0  0  0  0  0  0  0
   -0.5858   -2.2126    2.4685 H   0  0  0  0  0  0  0  0  0  0  0  0
   -1.2426   -1.2388    3.8147 H   0  0  0  0  0  0  0  0  0  0  0  0
    1.8199   -0.7166    2.5377 C   0  0  0  0  0  0  0  0  0  0  0  0
    2.5220    0.1238    2.3569 H   0  0  0  0  0  0  0  0  0  0  0  0
    1.9498   -1.0543    3.5844 H   0  0  0  0  0  0  0  0  0  0  0  0
   -1.9010   -2.8801   -1.3335 C   0  0  0  0  0  0  0  0  0  0  0  0
   -2.6356   -2.4577   -2.0485 H   0  0  0  0  0  0  0  0  0  0  0  0
   -1.9395   -3.9788   -1.4750 H   0  0  0  0  0  0  0  0  0  0  0  0
    2.2250   -2.5467   -0.8079 C   0  0  0  0  0  0  0  0  0  0  0  0
    2.9930   -3.2809   -0.4718 H   0  0  0  0  0  0  0  0  0  0  0  0
    2.6056   -2.1027   -1.7505 H   0  0  0  0  0  0  0  0  0  0  0  0
    2.7773   -0.7123    0.0038 H   0  0  0  0  0  0  0  0  0  0  0  0
  1 33  1  0  0  0  0
  1 30  1  0  0  0  0
  2 36  1  0  0  0  0
  2  7  1  0  0  0  0
  3 27  1  0  0  0  0
  4 12  1  0  0  0  0
  5  6  1  0  0  0  0
  6 20  1  6  0  0  0
  6 23  1  0  0  0  0
  7 39  1  0  0  0  0
  7  8  1  0  0  0  0
  9  7  1  0  0  0  0
 10  5  1  0  0  0  0
 10 25  2  0  0  0  0
 11 10  1  0  0  0  0
 12 13  1  0  0  0  0
 12 14  1  0  0  0  0
 12 33  1  0  0  0  0
 15 23  2  0  0  0  0
 15 16  1  0  0  0  0
 17 18  1  0  0  0  0
 17  3  1  0  0  0  0
 17 19  1  0  0  0  0
 20 21  1  0  0  0  0
 20  3  1  0  0  0  0
 22 20  1  0  0  0  0
 23 24  1  0  0  0  0
 25 15  1  0  0  0  0
 26 25  1  0  0  0  0
 27 29  1  0  0  0  0
 27 28  1  0  0  0  0
 27 30  1  0  0  0  0
 30 32  1  0  0  0  0
 31 30  1  0  0  0  0
 33 35  1  0  0  0  0
 34 33  1  0  0  0  0
 36 17  1  0  0  0  0
 37 36  1  0  0  0  0
 38 36  1  0  0  0  0
 39 40  1  0  0  0  0
 39  4  1  0  0  0  0
 41 39  1  0  0  0  0
 42  4  1  0  0  0  0
M  END
