1,2,5,6
 OpenBabel05122313063D

 35 34  0  0  0  0  0  0  0  0999 V2000
    1.0917   -1.7363    0.0653 S   0  0  0  0  0  1  0  0  0  0  0  0
   -1.8067   -1.1642   -1.2922 S   0  0  0  0  0  1  0  0  0  0  0  0
    3.7569    1.2056    0.0368 O   0  0  0  0  0  0  0  0  0  0  0  0
   -3.1903    1.4010    1.3402 O   0  0  0  0  0  0  0  0  0  0  0  0
    1.5164    0.9769   -0.5201 N   0  0  0  0  0  2  0  0  0  0  0  0
   -1.1247    0.9624    0.3920 N   0  0  0  0  0  2  0  0  0  0  0  0
    1.4326    2.4151   -0.7434 C   0  0  0  0  0  0  0  0  0  0  0  0
    0.0449    2.9719   -0.3841 C   0  0  0  0  0  0  0  0  0  0  0  0
   -0.5873    2.2496    0.8132 C   0  0  0  0  0  0  0  0  0  0  0  0
    2.7141    0.5268   -0.0699 C   0  0  0  0  0  0  0  0  0  0  0  0
    2.7355   -0.9485    0.3862 C   0  0  0  0  0  0  0  0  0  0  0  0
    3.8173   -1.7013   -0.3973 C   0  0  0  0  0  0  0  0  0  0  0  0
    3.0299   -0.9710    1.8932 C   0  0  0  0  0  0  0  0  0  0  0  0
   -2.4318    0.6779    0.6702 C   0  0  0  0  0  0  0  0  0  0  0  0
   -2.9173   -0.6728    0.1092 C   0  0  0  0  0  0  0  0  0  0  0  0
   -4.3646   -0.5469   -0.3727 C   0  0  0  0  0  0  0  0  0  0  0  0
   -2.7951   -1.7175    1.2336 C   0  0  0  0  0  0  0  0  0  0  0  0
    2.2167    2.9015   -0.1205 H   0  0  0  0  0  0  0  0  0  0  0  0
    1.6850    2.6776   -1.7989 H   0  0  0  0  0  0  0  0  0  0  0  0
    0.1404    4.0601   -0.1745 H   0  0  0  0  0  0  0  0  0  0  0  0
   -0.6607    2.8714   -1.2374 H   0  0  0  0  0  0  0  0  0  0  0  0
   -1.4261    2.8384    1.2373 H   0  0  0  0  0  0  0  0  0  0  0  0
    0.1731    2.1120    1.6171 H   0  0  0  0  0  0  0  0  0  0  0  0
    3.5701   -1.7285   -1.4773 H   0  0  0  0  0  0  0  0  0  0  0  0
    4.7799   -1.1617   -0.2700 H   0  0  0  0  0  0  0  0  0  0  0  0
    3.9279   -2.7448   -0.0357 H   0  0  0  0  0  0  0  0  0  0  0  0
    3.9727   -0.4162    2.0852 H   0  0  0  0  0  0  0  0  0  0  0  0
    2.2097   -0.4764    2.4512 H   0  0  0  0  0  0  0  0  0  0  0  0
    3.1274   -2.0115    2.2663 H   0  0  0  0  0  0  0  0  0  0  0  0
   -4.7523   -1.5310   -0.7070 H   0  0  0  0  0  0  0  0  0  0  0  0
   -4.9948   -0.1585    0.4539 H   0  0  0  0  0  0  0  0  0  0  0  0
   -4.4347    0.1623   -1.2213 H   0  0  0  0  0  0  0  0  0  0  0  0
   -3.1546   -2.7082    0.8878 H   0  0  0  0  0  0  0  0  0  0  0  0
   -1.7361   -1.8190    1.5432 H   0  0  0  0  0  0  0  0  0  0  0  0
   -3.3998   -1.3962    2.1100 H   0  0  0  0  0  0  0  0  0  0  0  0
  1 11  1  0  0  0  0
  2 15  1  0  0  0  0
  5 10  1  0  0  0  0
  6 14  1  0  0  0  0
  6  9  1  0  0  0  0
  7  5  1  0  0  0  0
  7  8  1  0  0  0  0
  7 18  1  0  0  0  0
  8 20  1  0  0  0  0
  8  9  1  0  0  0  0
  9 22  1  0  0  0  0
  9 23  1  0  0  0  0
 10  3  2  0  0  0  0
 10 11  1  0  0  0  0
 11 13  1  0  0  0  0
 12 25  1  0  0  0  0
 12 26  1  0  0  0  0
 12 11  1  0  0  0  0
 13 27  1  0  0  0  0
 13 29  1  0  0  0  0
 13 28  1  0  0  0  0
 14  4  2  0  0  0  0
 15 14  1  0  0  0  0
 15 17  1  0  0  0  0
 16 15  1  0  0  0  0
 16 31  1  0  0  0  0
 17 34  1  0  0  0  0
 17 35  1  0  0  0  0
 19  7  1  0  0  0  0
 21  8  1  0  0  0  0
 24 12  1  0  0  0  0
 30 16  1  0  0  0  0
 32 16  1  0  0  0  0
 33 17  1  0  0  0  0
M  END
