1,2,3,6
 OpenBabel05122313063D

 54 56  0  0  0  0  0  0  0  0999 V2000
    1.2307   -2.3031   -0.3210 S   0  0  0  0  0  1  0  0  0  0  0  0
   -2.5120   -1.6538    0.2285 S   0  0  0  0  0  1  0  0  0  0  0  0
    1.1398    0.6113   -0.1465 N   0  0  0  0  0  2  0  0  0  0  0  0
    2.4028    0.2137   -0.3188 N   0  0  0  0  0  0  0  0  0  0  0  0
    3.8276   -1.5756   -0.5692 N   0  0  0  0  0  0  0  0  0  0  0  0
   -1.4249    1.0348    0.2489 N   0  0  0  0  0  2  0  0  0  0  0  0
   -2.7495    1.1083    0.4153 N   0  0  0  0  0  0  0  0  0  0  0  0
   -4.6992   -0.1029    0.6136 N   0  0  0  0  0  0  0  0  0  0  0  0
    1.4325    4.2005    0.7214 C   0  0  0  0  0  0  0  0  0  0  0  0
    0.5553    4.2118    1.3852 H   0  0  0  0  0  0  0  0  0  0  0  0
    2.2801    5.3146    0.6841 C   0  0  0  0  0  0  0  0  0  0  0  0
    2.0502    6.1935    1.3054 H   0  0  0  0  0  0  0  0  0  0  0  0
    1.7086    3.0473   -0.0548 C   0  0  0  0  0  0  0  0  0  0  0  0
    3.4199    5.3083   -0.1352 C   0  0  0  0  0  0  0  0  0  0  0  0
    4.0862    6.1838   -0.1656 H   0  0  0  0  0  0  0  0  0  0  0  0
    3.7015    4.1753   -0.9164 C   0  0  0  0  0  0  0  0  0  0  0  0
    4.5873    4.1645   -1.5699 H   0  0  0  0  0  0  0  0  0  0  0  0
    2.8622    3.0554   -0.8775 C   0  0  0  0  0  0  0  0  0  0  0  0
    3.0844    2.1739   -1.4910 H   0  0  0  0  0  0  0  0  0  0  0  0
    0.7801    1.9034   -0.0089 C   0  0  0  0  0  0  0  0  0  0  0  0
    2.5565   -1.1150   -0.4069 C   0  0  0  0  0  0  0  0  0  0  0  0
    4.9897   -0.6862   -0.4872 C   0  0  0  0  0  0  0  0  0  0  0  0
    4.6254    0.3551   -0.4697 H   0  0  0  0  0  0  0  0  0  0  0  0
    5.6006   -0.8341   -1.4071 H   0  0  0  0  0  0  0  0  0  0  0  0
    5.8242   -1.0178    0.7575 C   0  0  0  0  0  0  0  0  0  0  0  0
    5.2260   -0.7590    1.6579 H   0  0  0  0  0  0  0  0  0  0  0  0
    6.7274   -0.3730    0.7736 H   0  0  0  0  0  0  0  0  0  0  0  0
    6.2083   -2.5028    0.7920 C   0  0  0  0  0  0  0  0  0  0  0  0
    6.7465   -2.7447    1.7317 H   0  0  0  0  0  0  0  0  0  0  0  0
    6.9178   -2.7161   -0.0396 H   0  0  0  0  0  0  0  0  0  0  0  0
    4.9688   -3.3933    0.6352 C   0  0  0  0  0  0  0  0  0  0  0  0
    5.2532   -4.4635    0.5622 H   0  0  0  0  0  0  0  0  0  0  0  0
    4.3073   -3.2917    1.5226 H   0  0  0  0  0  0  0  0  0  0  0  0
    4.1646   -2.9956   -0.6093 C   0  0  0  0  0  0  0  0  0  0  0  0
    4.7698   -3.1769   -1.5273 H   0  0  0  0  0  0  0  0  0  0  0  0
    3.2311   -3.5812   -0.7003 H   0  0  0  0  0  0  0  0  0  0  0  0
   -0.6450    2.1070    0.2019 C   0  0  0  0  0  0  0  0  0  0  0  0
   -1.0991    3.1048    0.2861 H   0  0  0  0  0  0  0  0  0  0  0  0
   -3.3511   -0.0899    0.4313 C   0  0  0  0  0  0  0  0  0  0  0  0
   -5.5056   -1.3183    0.5501 C   0  0  0  0  0  0  0  0  0  0  0  0
   -4.8319   -2.1952    0.5610 H   0  0  0  0  0  0  0  0  0  0  0  0
   -6.1329   -1.3606    1.4699 H   0  0  0  0  0  0  0  0  0  0  0  0
   -6.4010   -1.3015   -0.6959 C   0  0  0  0  0  0  0  0  0  0  0  0
   -7.0396   -2.2091   -0.7022 H   0  0  0  0  0  0  0  0  0  0  0  0
   -5.7473   -1.3570   -1.5931 H   0  0  0  0  0  0  0  0  0  0  0  0
   -7.2550   -0.0271   -0.7394 C   0  0  0  0  0  0  0  0  0  0  0  0
   -7.8435    0.0159   -1.6791 H   0  0  0  0  0  0  0  0  0  0  0  0
   -7.9949   -0.0560    0.0926 H   0  0  0  0  0  0  0  0  0  0  0  0
   -6.3818    1.2264   -0.5918 C   0  0  0  0  0  0  0  0  0  0  0  0
   -5.7316    1.3441   -1.4856 H   0  0  0  0  0  0  0  0  0  0  0  0
   -7.0079    2.1404   -0.5243 H   0  0  0  0  0  0  0  0  0  0  0  0
   -5.4844    1.1338    0.6496 C   0  0  0  0  0  0  0  0  0  0  0  0
   -6.1095    1.1146    1.5714 H   0  0  0  0  0  0  0  0  0  0  0  0
   -4.7816    1.9816    0.7187 H   0  0  0  0  0  0  0  0  0  0  0  0
  2 39  1  0  0  0  0
  3 20  1  0  0  0  0
  4  3  1  0  0  0  0
  5 22  1  0  0  0  0
  5 21  1  0  0  0  0
  6  7  1  0  0  0  0
  7 39  2  0  0  0  0
  8 52  1  0  0  0  0
  9 10  1  0  0  0  0
 11  9  1  0  0  0  0
 11 12  1  0  0  0  0
 13 20  1  0  0  0  0
 13  9  2  0  0  0  0
 14 11  2  0  0  0  0
 15 14  1  0  0  0  0
 16 18  2  0  0  0  0
 16 14  1  0  0  0  0
 17 16  1  0  0  0  0
 18 13  1  0  0  0  0
 19 18  1  0  0  0  0
 20 37  2  0  0  0  0
 21  1  1  0  0  0  0
 21  4  2  0  0  0  0
 22 23  1  0  0  0  0
 22 25  1  0  0  0  0
 24 22  1  0  0  0  0
 25 27  1  0  0  0  0
 25 28  1  0  0  0  0
 25 26  1  0  0  0  0
 28 29  1  0  0  0  0
 30 28  1  0  0  0  0
 31 28  1  0  0  0  0
 31 33  1  0  0  0  0
 32 31  1  0  0  0  0
 34  5  1  0  0  0  0
 34 31  1  0  0  0  0
 35 34  1  0  0  0  0
 36 34  1  0  0  0  0
 37  6  1  0  0  0  0
 37 38  1  0  0  0  0
 39  8  1  0  0  0  0
 40 41  1  0  0  0  0
 40  8  1  0  0  0  0
 40 42  1  0  0  0  0
 43 40  1  0  0  0  0
 44 43  1  0  0  0  0
 45 43  1  0  0  0  0
 46 43  1  0  0  0  0
 46 49  1  0  0  0  0
 46 48  1  0  0  0  0
 47 46  1  0  0  0  0
 49 51  1  0  0  0  0
 49 52  1  0  0  0  0
 50 49  1  0  0  0  0
 52 54  1  0  0  0  0
 52 53  1  0  0  0  0
M  END
