1,2,6,7
 OpenBabel05122313063D

 24 23  0  0  1  0  0  0  0  0999 V2000
    1.2572    1.3564    0.0748 N   0  0  0  0  0  2  0  0  0  0  0  0
   -1.1762    0.5891   -0.0346 N   0  0  0  0  0  2  0  0  0  0  0  0
    3.0134    2.7963   -0.3610 O   0  0  0  0  0  0  0  0  0  0  0  0
   -4.1270    0.3365    1.0009 O   0  0  0  0  0  0  0  0  0  0  0  0
   -4.1569    1.6440   -0.8358 O   0  0  0  0  0  0  0  0  0  0  0  0
    2.4293   -1.1341   -0.7460 S   0  0  0  0  0  1  0  0  0  0  0  0
   -0.7009   -2.1368   -0.8232 S   0  0  0  0  0  1  0  0  0  0  0  0
    3.4131    0.4157   -0.5400 C   0  0  0  0  0  0  0  0  0  0  0  0
    2.5527    1.6500   -0.2754 C   0  0  0  0  0  0  0  0  0  0  0  0
    0.3288    2.4563    0.3131 C   0  0  0  0  0  0  0  0  0  0  0  0
   -1.0140    2.0243   -0.2640 C   0  0  0  0  0  0  0  0  0  0  0  0
   -2.3682    0.0389   -0.6932 C   0  0  2  0  0  0  0  0  0  0  0  0
   -3.6252    0.6451   -0.0656 C   0  0  0  0  0  0  0  0  0  0  0  0
   -2.4045   -1.4782   -0.5423 C   0  0  0  0  0  0  0  0  0  0  0  0
   -4.9149    1.9751   -0.3049 H   0  0  0  0  0  0  0  0  0  0  0  0
    4.0316    0.6121   -1.4397 H   0  0  0  0  0  0  0  0  0  0  0  0
    4.1131    0.2995    0.3156 H   0  0  0  0  0  0  0  0  0  0  0  0
    0.7136    3.3894   -0.1484 H   0  0  0  0  0  0  0  0  0  0  0  0
    0.2338    2.6360    1.4094 H   0  0  0  0  0  0  0  0  0  0  0  0
   -1.8395    2.6209    0.1931 H   0  0  0  0  0  0  0  0  0  0  0  0
   -1.0489    2.2435   -1.3645 H   0  0  0  0  0  0  0  0  0  0  0  0
   -2.3707    0.3165   -1.7792 H   0  0  0  0  0  0  0  0  0  0  0  0
   -2.7383   -1.7315    0.4845 H   0  0  0  0  0  0  0  0  0  0  0  0
   -3.1107   -1.9311   -1.2694 H   0  0  0  0  0  0  0  0  0  0  0  0
  1 10  1  0  0  0  0
  3  9  2  0  0  0  0
  5 15  1  0  0  0  0
  5 13  1  0  0  0  0
  6  8  1  0  0  0  0
  7 14  1  0  0  0  0
  8  9  1  0  0  0  0
  8 17  1  0  0  0  0
  9  1  1  0  0  0  0
 10 19  1  0  0  0  0
 11  2  1  0  0  0  0
 11 20  1  0  0  0  0
 11 10  1  0  0  0  0
 12 22  1  6  0  0  0
 12 14  1  0  0  0  0
 12 13  1  0  0  0  0
 12  2  1  0  0  0  0
 13  4  2  0  0  0  0
 14 23  1  0  0  0  0
 16  8  1  0  0  0  0
 18 10  1  0  0  0  0
 21 11  1  0  0  0  0
 24 14  1  0  0  0  0
M  END
