1,2,3,4
 OpenBabel05122313063D

 38 40  0  0  1  0  0  0  0  0999 V2000
   -1.4446   -1.8568   -0.7923 S   0  0  0  0  0  1  0  0  0  0  0  0
    1.3494   -2.0258   -0.1644 S   0  0  0  0  0  1  0  0  0  0  0  0
   -1.2889    1.0356    0.0574 N   0  0  0  0  0  2  0  0  0  0  0  0
    1.3062    1.0346    0.0089 N   0  0  0  0  0  2  0  0  0  0  0  0
   -3.0193   -1.4695   -0.1945 C   0  0  0  0  0  0  0  0  0  0  0  0
   -4.0116   -2.4862   -0.2998 C   0  0  0  0  0  0  0  0  0  0  0  0
   -5.3044   -2.2915    0.1737 C   0  0  0  0  0  0  0  0  0  0  0  0
   -5.6808   -1.0606    0.7671 C   0  0  0  0  0  0  0  0  0  0  0  0
   -4.7441   -0.0424    0.8522 C   0  0  0  0  0  0  0  0  0  0  0  0
   -3.4078   -0.2075    0.3722 C   0  0  0  0  0  0  0  0  0  0  0  0
   -2.5596    0.9381    0.4116 C   0  0  0  0  0  3  0  0  0  0  0  0
   -0.7045    2.3199   -0.0384 C   0  0  0  0  0  0  0  0  0  0  0  0
   -1.4117    3.5340   -0.1501 C   0  0  0  0  0  0  0  0  0  0  0  0
   -0.7178    4.7448   -0.2561 C   0  0  0  0  0  0  0  0  0  0  0  0
    0.6876    4.7498   -0.2747 C   0  0  0  0  0  0  0  0  0  0  0  0
    1.3995    3.5474   -0.1885 C   0  0  0  0  0  0  0  0  0  0  0  0
    0.7136    2.3216   -0.0630 C   0  0  0  0  0  0  0  0  0  0  0  0
    2.6101    0.9533    0.2233 C   0  0  0  0  0  0  0  0  0  0  0  0
    3.4508   -0.1968    0.2489 C   0  0  0  0  0  0  0  0  0  0  0  0
    4.8450    0.0349    0.4743 C   0  0  0  0  0  0  0  0  0  0  0  0
    5.7659   -0.9998    0.4851 C   0  0  0  0  0  0  0  0  0  0  0  0
    5.3132   -2.3254    0.2644 C   0  0  0  0  0  0  0  0  0  0  0  0
    3.9661   -2.5870    0.0462 C   0  0  0  0  0  0  0  0  0  0  0  0
    2.9948   -1.5435    0.0410 C   0  0  1  0  0  3  0  0  0  0  0  0
   -3.7220   -3.4486   -0.7479 H   0  0  0  0  0  0  0  0  0  0  0  0
   -6.0380   -3.1083    0.0918 H   0  0  0  0  0  0  0  0  0  0  0  0
   -6.7025   -0.9136    1.1456 H   0  0  0  0  0  0  0  0  0  0  0  0
   -5.0223    0.9301    1.2894 H   0  0  0  0  0  0  0  0  0  0  0  0
   -3.0515    1.8646    0.7610 H   0  0  0  0  0  0  0  0  0  0  0  0
   -2.5095    3.5336   -0.1933 H   0  0  0  0  0  0  0  0  0  0  0  0
   -1.2771    5.6866   -0.3565 H   0  0  0  0  0  0  0  0  0  0  0  0
    1.2359    5.6967   -0.3883 H   0  0  0  0  0  0  0  0  0  0  0  0
    2.4954    3.5724   -0.2550 H   0  0  0  0  0  0  0  0  0  0  0  0
    3.1463    1.9024    0.4021 H   0  0  0  0  0  0  0  0  0  0  0  0
    5.1783    1.0726    0.6366 H   0  0  0  0  0  0  0  0  0  0  0  0
    6.8327   -0.7967    0.6569 H   0  0  0  0  0  0  0  0  0  0  0  0
    6.0329   -3.1585    0.2639 H   0  0  0  0  0  0  0  0  0  0  0  0
    3.6188   -3.6176   -0.1214 H   0  0  0  0  0  0  0  0  0  0  0  0
  1  5  1  0  0  0  0
  3 11  1  0  0  0  0
  4 18  1  0  0  0  0
  5 10  1  0  0  0  0
  6  5  2  0  0  0  0
  6  7  1  0  0  0  0
  7  8  2  0  0  0  0
  8  9  1  0  0  0  0
  8 27  1  0  0  0  0
  9 28  1  0  0  0  0
 10 11  1  0  0  0  0
 10  9  2  0  0  0  0
 11 29  1  0  0  0  0
 12  3  1  0  0  0  0
 13 12  2  0  0  0  0
 14 13  1  0  0  0  0
 15 14  2  0  0  0  0
 15 16  1  0  0  0  0
 16 17  2  0  0  0  0
 17 12  1  0  0  0  0
 17  4  1  0  0  0  0
 18 19  2  0  0  0  0
 18 34  1  0  0  0  0
 19 20  1  0  0  0  0
 20 21  2  0  0  0  0
 20 35  1  0  0  0  0
 21 36  1  0  0  0  0
 22 21  1  0  0  0  0
 23 22  2  0  0  0  0
 24  2  1  1  0  0  0
 24 23  1  0  0  0  0
 24 19  1  0  0  0  0
 25  6  1  0  0  0  0
 26  7  1  0  0  0  0
 30 13  1  0  0  0  0
 31 14  1  0  0  0  0
 32 15  1  0  0  0  0
 33 16  1  0  0  0  0
 37 22  1  0  0  0  0
 38 23  1  0  0  0  0
M  END
