1,2,6,7
 OpenBabel05122313063D

 38 38  0  0  1  0  0  0  0  0999 V2000
   -0.6331    0.0907    2.1479 S   0  0  0  0  0  0  0  0  0  0  0  0
   -0.7676    2.1145   -1.6907 S   0  0  0  0  0  0  0  0  0  0  0  0
    0.3120   -2.8852   -0.9853 N   0  0  0  0  0  0  0  0  0  0  0  0
   -0.5481   -2.3132   -1.0787 H   0  0  0  0  0  0  0  0  0  0  0  0
    0.2660   -3.8882   -1.1545 H   0  0  0  0  0  0  0  0  0  0  0  0
    1.5463   -0.9330   -0.6497 N   0  0  0  0  0  2  0  0  0  0  0  0
    1.5575    1.6789    0.4000 N   0  0  0  0  0  0  0  0  0  0  0  0
    1.5089   -2.2896   -0.8346 C   0  0  1  0  0  3  0  0  0  0  0  0
    2.7275   -3.0368   -0.8499 C   0  0  0  0  0  0  0  0  0  0  0  0
    2.6859   -4.1255   -0.9957 H   0  0  0  0  0  0  0  0  0  0  0  0
    3.9341   -2.3805   -0.6848 C   0  0  0  0  0  0  0  0  0  0  0  0
    4.8744   -2.9514   -0.6918 H   0  0  0  0  0  0  0  0  0  0  0  0
    3.9573   -0.9755   -0.5132 C   0  0  0  0  0  0  0  0  0  0  0  0
    4.9024   -0.4290   -0.3938 H   0  0  0  0  0  0  0  0  0  0  0  0
    2.7457   -0.2966   -0.5145 C   0  0  0  0  0  0  0  0  0  0  0  0
    2.6797    1.2141   -0.4389 C   0  0  0  0  0  0  0  0  0  0  0  0
    3.6526    1.6256   -0.0891 H   0  0  0  0  0  0  0  0  0  0  0  0
    2.5236    1.5981   -1.4686 H   0  0  0  0  0  0  0  0  0  0  0  0
    1.8336    1.4421    1.8325 C   0  0  0  0  0  0  0  0  0  0  0  0
    2.5048    2.2349    2.2382 H   0  0  0  0  0  0  0  0  0  0  0  0
    2.3969    0.4898    1.9080 H   0  0  0  0  0  0  0  0  0  0  0  0
    0.5747    1.3594    2.6919 C   0  0  0  0  0  0  0  0  0  0  0  0
    0.0024    2.3093    2.6974 H   0  0  0  0  0  0  0  0  0  0  0  0
    0.8447    1.1509    3.7465 H   0  0  0  0  0  0  0  0  0  0  0  0
    0.2484   -1.4470    2.5777 C   0  0  0  0  0  0  0  0  0  0  0  0
    1.2699   -1.4716    2.1541 H   0  0  0  0  0  0  0  0  0  0  0  0
   -0.3617   -2.2565    2.1374 H   0  0  0  0  0  0  0  0  0  0  0  0
    0.2745   -1.5495    3.6788 H   0  0  0  0  0  0  0  0  0  0  0  0
    1.1699    3.0764    0.1288 C   0  0  0  0  0  0  0  0  0  0  0  0
    2.0428    3.7603    0.2524 H   0  0  0  0  0  0  0  0  0  0  0  0
    0.4281    3.3727    0.8967 H   0  0  0  0  0  0  0  0  0  0  0  0
    0.5684    3.2915   -1.2611 C   0  0  0  0  0  0  0  0  0  0  0  0
    1.3192    3.1748   -2.0680 H   0  0  0  0  0  0  0  0  0  0  0  0
    0.1719    4.3223   -1.3507 H   0  0  0  0  0  0  0  0  0  0  0  0
   -2.1908    2.7854   -0.7697 C   0  0  0  0  0  0  0  0  0  0  0  0
   -1.9235    3.0282    0.2760 H   0  0  0  0  0  0  0  0  0  0  0  0
   -2.9528    1.9825   -0.7586 H   0  0  0  0  0  0  0  0  0  0  0  0
   -2.5719    3.6801   -1.2964 H   0  0  0  0  0  0  0  0  0  0  0  0
  1 25  1  0  0  0  0
  1 22  1  0  0  0  0
  2 32  1  0  0  0  0
  2 35  1  0  0  0  0
  4  3  1  0  0  0  0
  5  3  1  0  0  0  0
  6 15  1  0  0  0  0
  7 19  1  0  0  0  0
  8  3  1  1  0  0  0
  8  6  1  0  0  0  0
  9  8  1  0  0  0  0
  9 11  2  0  0  0  0
 10  9  1  0  0  0  0
 11 13  1  0  0  0  0
 12 11  1  0  0  0  0
 13 14  1  0  0  0  0
 15 13  2  0  0  0  0
 15 16  1  0  0  0  0
 16 17  1  0  0  0  0
 16  7  1  0  0  0  0
 18 16  1  0  0  0  0
 19 21  1  0  0  0  0
 19 20  1  0  0  0  0
 19 22  1  0  0  0  0
 22 23  1  0  0  0  0
 22 24  1  0  0  0  0
 25 28  1  0  0  0  0
 26 25  1  0  0  0  0
 27 25  1  0  0  0  0
 29 30  1  0  0  0  0
 29  7  1  0  0  0  0
 29 31  1  0  0  0  0
 32 29  1  0  0  0  0
 33 32  1  0  0  0  0
 34 32  1  0  0  0  0
 35 37  1  0  0  0  0
 35 36  1  0  0  0  0
 38 35  1  0  0  0  0
M  END
