1,2,3,5
 OpenBabel05122313063D

 43 45  0  0  1  0  0  0  0  0999 V2000
   -0.6148    0.2951    2.5249 S   0  0  0  0  0  0  0  0  0  0  0  0
    1.0053   -1.9577   -1.7837 S   0  0  0  0  0  0  0  0  0  0  0  0
   -1.7238    0.9058   -0.3761 N   0  0  0  0  0  2  0  0  0  0  0  0
   -1.2084   -2.0615    0.4065 N   0  0  0  0  0  0  0  0  0  0  0  0
    2.6303   -0.5381    0.4343 N   0  0  0  0  0  2  0  0  0  0  0  0
   -2.2380    0.8765   -1.6191 C   0  0  0  0  0  3  0  0  0  0  0  0
   -1.5944    0.4467   -2.4033 H   0  0  0  0  0  0  0  0  0  0  0  0
   -3.5099    1.3773   -1.9145 C   0  0  0  0  0  0  0  0  0  0  0  0
   -3.8942    1.3382   -2.9432 H   0  0  0  0  0  0  0  0  0  0  0  0
   -4.2637    1.9305   -0.8697 C   0  0  0  0  0  0  0  0  0  0  0  0
   -5.2693    2.3355   -1.0574 H   0  0  0  0  0  0  0  0  0  0  0  0
   -3.7152    1.9727    0.4187 C   0  0  0  0  0  0  0  0  0  0  0  0
   -4.2730    2.4197    1.2546 H   0  0  0  0  0  0  0  0  0  0  0  0
   -2.4245    1.4585    0.6342 C   0  0  0  0  0  0  0  0  0  0  0  0
   -1.7667    1.6086    1.9891 C   0  0  0  0  0  0  0  0  0  0  0  0
   -2.5231    1.7682    2.7816 H   0  0  0  0  0  0  0  0  0  0  0  0
   -1.1006    2.4997    1.9567 H   0  0  0  0  0  0  0  0  0  0  0  0
   -1.6938   -1.1800    2.6417 C   0  0  0  0  0  0  0  0  0  0  0  0
   -1.0635   -1.9125    3.1889 H   0  0  0  0  0  0  0  0  0  0  0  0
   -2.5561   -0.9394    3.2932 H   0  0  0  0  0  0  0  0  0  0  0  0
   -2.1512   -1.7837    1.3323 C   0  0  0  0  0  0  0  0  0  0  0  0
   -3.5088   -2.0711    1.1151 C   0  0  0  0  0  0  0  0  0  0  0  0
   -4.2566   -1.8244    1.8826 H   0  0  0  0  0  0  0  0  0  0  0  0
   -3.8875   -2.6730   -0.0933 C   0  0  0  0  0  0  0  0  0  0  0  0
   -4.9451   -2.8960   -0.2983 H   0  0  0  0  0  0  0  0  0  0  0  0
   -2.9011   -2.9828   -1.0355 C   0  0  0  0  0  0  0  0  0  0  0  0
   -3.1619   -3.4608   -1.9912 H   0  0  0  0  0  0  0  0  0  0  0  0
   -1.5613   -2.6583   -0.7450 C   0  0  0  0  0  0  0  0  0  0  0  0
   -0.4784   -3.0198   -1.7450 C   0  0  0  0  0  0  0  0  0  0  0  0
   -0.8836   -2.9947   -2.7756 H   0  0  0  0  0  0  0  0  0  0  0  0
   -0.1371   -4.0639   -1.5766 H   0  0  0  0  0  0  0  0  0  0  0  0
    2.0277   -2.7328   -0.4475 C   0  0  0  0  0  0  0  0  0  0  0  0
    1.3362   -3.0068    0.3766 H   0  0  0  0  0  0  0  0  0  0  0  0
    2.5020   -3.6482   -0.8487 H   0  0  0  0  0  0  0  0  0  0  0  0
    3.0701   -1.7546    0.0367 C   0  0  2  0  0  3  0  0  0  0  0  0
    4.4334   -2.0820    0.0827 C   0  0  0  0  0  0  0  0  0  0  0  0
    4.7724   -3.0725   -0.2534 H   0  0  0  0  0  0  0  0  0  0  0  0
    5.3468   -1.1284    0.5584 C   0  0  0  0  0  0  0  0  0  0  0  0
    6.4205   -1.3647    0.6011 H   0  0  0  0  0  0  0  0  0  0  0  0
    4.8759    0.1282    0.9593 C   0  0  0  0  0  0  0  0  0  0  0  0
    5.5591    0.9100    1.3196 H   0  0  0  0  0  0  0  0  0  0  0  0
    3.5017    0.3893    0.8768 C   0  0  0  0  0  0  0  0  0  0  0  0
    3.0695    1.3684    1.1400 H   0  0  0  0  0  0  0  0  0  0  0  0
  1 18  1  0  0  0  0
  2 29  1  0  0  0  0
  2 32  1  0  0  0  0
  3 14  1  0  0  0  0
  4 21  1  0  0  0  0
  5 42  1  0  0  0  0
  6  3  1  0  0  0  0
  7  6  1  0  0  0  0
  8  6  1  0  0  0  0
  8 10  2  0  0  0  0
  9  8  1  0  0  0  0
 10 12  1  0  0  0  0
 11 10  1  0  0  0  0
 12 14  2  0  0  0  0
 12 13  1  0  0  0  0
 14 15  1  0  0  0  0
 15  1  1  0  0  0  0
 15 16  1  0  0  0  0
 17 15  1  0  0  0  0
 18 19  1  0  0  0  0
 18 20  1  0  0  0  0
 21 18  1  0  0  0  0
 22 21  2  0  0  0  0
 22 23  1  0  0  0  0
 24 22  1  0  0  0  0
 25 24  1  0  0  0  0
 26 28  1  0  0  0  0
 26 24  2  0  0  0  0
 27 26  1  0  0  0  0
 28  4  2  0  0  0  0
 29 31  1  0  0  0  0
 29 28  1  0  0  0  0
 30 29  1  0  0  0  0
 32 33  1  0  0  0  0
 34 32  1  0  0  0  0
 35 32  1  1  0  0  0
 35 36  1  0  0  0  0
 35  5  1  0  0  0  0
 36 38  2  0  0  0  0
 37 36  1  0  0  0  0
 38 39  1  0  0  0  0
 38 40  1  0  0  0  0
 40 41  1  0  0  0  0
 42 40  2  0  0  0  0
 42 43  1  0  0  0  0
M  END
