1,2,3,4
 OpenBabel05122313063D

 47 48  0  0  1  0  0  0  0  0999 V2000
   -1.4396    1.6007   -0.2505 S   0  0  0  0  0  1  0  0  0  0  0  0
    1.4394    1.6009    0.2495 S   0  0  0  0  0  1  0  0  0  0  0  0
   -1.2596   -1.3618    0.5697 N   0  0  0  0  0  2  0  0  0  0  0  0
    1.2598   -1.3616   -0.5702 N   0  0  0  0  0  2  0  0  0  0  0  0
    4.3816    2.1471    0.4442 S   0  0  0  0  0  0  0  0  0  0  0  0
   -4.3818    2.1469   -0.4435 S   0  0  0  0  0  0  0  0  0  0  0  0
   -3.5446    3.7175   -0.7909 C   0  0  0  0  0  0  0  0  0  0  0  0
   -3.0496    1.0070   -0.1680 C   0  0  2  0  0  3  0  0  0  0  0  0
   -3.4455   -0.3018    0.1146 C   0  0  0  0  0  0  0  0  0  0  0  0
   -2.5832   -1.3713    0.5084 C   0  0  0  0  0  0  0  0  0  0  0  0
   -3.4521   -2.5560    0.9300 C   0  0  0  0  0  0  0  0  0  0  0  0
   -4.8075   -2.2746    0.2630 C   0  0  0  0  0  0  0  0  0  0  0  0
   -4.8964   -0.7398    0.2039 C   0  0  0  0  0  0  0  0  0  0  0  0
   -0.5706   -2.5349    1.1166 C   0  0  0  0  0  0  0  0  0  0  0  0
    0.0001   -3.4185   -0.0007 C   0  0  0  0  0  0  0  0  0  0  0  0
    0.5710   -2.5345   -1.1176 C   0  0  0  0  0  0  0  0  0  0  0  0
    2.5835   -1.3712   -0.5083 C   0  0  0  0  0  0  0  0  0  0  0  0
    3.4525   -2.5558   -0.9296 C   0  0  0  0  0  0  0  0  0  0  0  0
    4.8076   -2.2745   -0.2618 C   0  0  0  0  0  0  0  0  0  0  0  0
    4.8965   -0.7397   -0.2024 C   0  0  0  0  0  0  0  0  0  0  0  0
    3.4456   -0.3017   -0.1140 C   0  0  0  0  0  0  0  0  0  0  0  0
    3.0495    1.0072    0.1682 C   0  0  2  0  0  3  0  0  0  0  0  0
    3.5441    3.7178    0.7910 C   0  0  0  0  0  0  0  0  0  0  0  0
   -4.3579    4.4450   -0.9775 H   0  0  0  0  0  0  0  0  0  0  0  0
   -2.8974    3.6350   -1.6854 H   0  0  0  0  0  0  0  0  0  0  0  0
   -2.9349    4.0434    0.0732 H   0  0  0  0  0  0  0  0  0  0  0  0
   -3.0250   -3.5364    0.6406 H   0  0  0  0  0  0  0  0  0  0  0  0
   -3.5452   -2.5602    2.0406 H   0  0  0  0  0  0  0  0  0  0  0  0
   -4.7954   -2.6827   -0.7692 H   0  0  0  0  0  0  0  0  0  0  0  0
   -5.6577   -2.7443    0.7951 H   0  0  0  0  0  0  0  0  0  0  0  0
   -5.5069   -0.3798   -0.6514 H   0  0  0  0  0  0  0  0  0  0  0  0
   -5.3758   -0.3254    1.1219 H   0  0  0  0  0  0  0  0  0  0  0  0
    0.2647   -2.1670    1.7458 H   0  0  0  0  0  0  0  0  0  0  0  0
   -1.2316   -3.1234    1.7836 H   0  0  0  0  0  0  0  0  0  0  0  0
    0.7857   -4.0777    0.4265 H   0  0  0  0  0  0  0  0  0  0  0  0
   -0.7856   -4.0774   -0.4281 H   0  0  0  0  0  0  0  0  0  0  0  0
   -0.2642   -2.1665   -1.7468 H   0  0  0  0  0  0  0  0  0  0  0  0
    1.2322   -3.1228   -1.7846 H   0  0  0  0  0  0  0  0  0  0  0  0
    3.5462   -2.5598   -2.0402 H   0  0  0  0  0  0  0  0  0  0  0  0
    3.0252   -3.5362   -0.6406 H   0  0  0  0  0  0  0  0  0  0  0  0
    4.7948   -2.6827    0.7703 H   0  0  0  0  0  0  0  0  0  0  0  0
    5.6581   -2.7442   -0.7935 H   0  0  0  0  0  0  0  0  0  0  0  0
    5.5064   -0.3798    0.6533 H   0  0  0  0  0  0  0  0  0  0  0  0
    5.3764   -0.3252   -1.1201 H   0  0  0  0  0  0  0  0  0  0  0  0
    4.3574    4.4453    0.9779 H   0  0  0  0  0  0  0  0  0  0  0  0
    2.8965    3.6353    1.6851 H   0  0  0  0  0  0  0  0  0  0  0  0
    2.9349    4.0435   -0.0735 H   0  0  0  0  0  0  0  0  0  0  0  0
  3 14  1  0  0  0  0
  4 17  1  0  0  0  0
  5 23  1  0  0  0  0
  6  8  1  0  0  0  0
  7  6  1  0  0  0  0
  7 26  1  0  0  0  0
  8  1  1  1  0  0  0
  8  9  1  0  0  0  0
  9 13  1  0  0  0  0
  9 10  2  0  0  0  0
 10  3  1  0  0  0  0
 10 11  1  0  0  0  0
 11 28  1  0  0  0  0
 12 30  1  0  0  0  0
 12 11  1  0  0  0  0
 13 12  1  0  0  0  0
 13 32  1  0  0  0  0
 14 33  1  0  0  0  0
 14 34  1  0  0  0  0
 15 35  1  0  0  0  0
 15 14  1  0  0  0  0
 16  4  1  0  0  0  0
 16 15  1  0  0  0  0
 17 21  2  0  0  0  0
 18 40  1  0  0  0  0
 18 17  1  0  0  0  0
 18 19  1  0  0  0  0
 19 20  1  0  0  0  0
 19 41  1  0  0  0  0
 20 21  1  0  0  0  0
 20 43  1  0  0  0  0
 21 22  1  0  0  0  0
 22  2  1  6  0  0  0
 22  5  1  0  0  0  0
 23 45  1  0  0  0  0
 23 46  1  0  0  0  0
 24  7  1  0  0  0  0
 25  7  1  0  0  0  0
 27 11  1  0  0  0  0
 29 12  1  0  0  0  0
 31 13  1  0  0  0  0
 36 15  1  0  0  0  0
 37 16  1  0  0  0  0
 38 16  1  0  0  0  0
 39 18  1  0  0  0  0
 42 19  1  0  0  0  0
 44 20  1  0  0  0  0
 47 23  1  0  0  0  0
M  END
