1,2,3,4
 OpenBabel05122313063D

 44 45  0  0  1  0  0  0  0  0999 V2000
    1.4247    1.4120   -0.4442 S   0  0  0  0  0  1  0  0  0  0  0  0
   -1.3585    1.4490    0.2960 S   0  0  0  0  0  1  0  0  0  0  0  0
    1.2773   -1.6023    0.0338 N   0  0  0  0  0  2  0  0  0  0  0  0
   -1.3197   -1.5541   -0.3249 N   0  0  0  0  0  2  0  0  0  0  0  0
   -4.2678    2.1606    0.4443 S   0  0  0  0  0  0  0  0  0  0  0  0
    4.3552    2.0550   -0.3772 S   0  0  0  0  0  0  0  0  0  0  0  0
    3.4973    3.6246   -0.6792 C   0  0  0  0  0  0  0  0  0  0  0  0
    3.0386    0.8860   -0.1698 C   0  0  2  0  0  3  0  0  0  0  0  0
    3.4377   -0.4054    0.1736 C   0  0  0  0  0  0  0  0  0  0  0  0
    2.5846   -1.5479    0.2457 C   0  0  0  0  0  0  0  0  0  0  0  0
    3.4354   -2.7721    0.5699 C   0  0  0  0  0  0  0  0  0  0  0  0
    4.7426   -2.1812    1.1234 C   0  0  0  0  0  0  0  0  0  0  0  0
    4.8769   -0.8177    0.4223 C   0  0  0  0  0  0  0  0  0  0  0  0
    0.6212   -2.9110    0.0810 C   0  0  0  0  0  0  0  0  0  0  0  0
   -0.6614   -2.8004   -0.7159 C   0  0  0  0  0  0  0  0  0  0  0  0
   -2.6441   -1.4958   -0.2954 C   0  0  2  0  0  3  0  0  0  0  0  0
   -3.5594   -2.6784   -0.6034 C   0  0  0  0  0  0  0  0  0  0  0  0
   -4.9277   -2.2533   -0.0479 C   0  0  0  0  0  0  0  0  0  0  0  0
   -4.9283   -0.7177   -0.1416 C   0  0  0  0  0  0  0  0  0  0  0  0
   -3.4588   -0.3508   -0.0381 C   0  0  0  0  0  0  0  0  0  0  0  0
   -2.9990    0.9444    0.2011 C   0  0  0  0  0  0  0  0  0  0  0  0
   -3.3476    3.7002    0.7126 C   0  0  0  0  0  0  0  0  0  0  0  0
    4.2983    4.3858   -0.7463 H   0  0  0  0  0  0  0  0  0  0  0  0
    2.8098    3.8666    0.1539 H   0  0  0  0  0  0  0  0  0  0  0  0
    2.9273    3.5932   -1.6274 H   0  0  0  0  0  0  0  0  0  0  0  0
    2.9379   -3.4656    1.2772 H   0  0  0  0  0  0  0  0  0  0  0  0
    3.6174   -3.3494   -0.3664 H   0  0  0  0  0  0  0  0  0  0  0  0
    5.6166   -2.8440    0.9696 H   0  0  0  0  0  0  0  0  0  0  0  0
    4.6336   -2.0225    2.2163 H   0  0  0  0  0  0  0  0  0  0  0  0
    5.4322   -0.9123   -0.5406 H   0  0  0  0  0  0  0  0  0  0  0  0
    5.4353   -0.0743    1.0295 H   0  0  0  0  0  0  0  0  0  0  0  0
    0.3843   -3.1809    1.1370 H   0  0  0  0  0  0  0  0  0  0  0  0
    1.2609   -3.7171   -0.3359 H   0  0  0  0  0  0  0  0  0  0  0  0
   -0.4216   -2.7651   -1.8039 H   0  0  0  0  0  0  0  0  0  0  0  0
   -1.2971   -3.6931   -0.5475 H   0  0  0  0  0  0  0  0  0  0  0  0
   -3.2033   -3.6339   -0.1696 H   0  0  0  0  0  0  0  0  0  0  0  0
   -3.5923   -2.8282   -1.7073 H   0  0  0  0  0  0  0  0  0  0  0  0
   -4.9948   -2.5562    1.0177 H   0  0  0  0  0  0  0  0  0  0  0  0
   -5.7760   -2.7267   -0.5799 H   0  0  0  0  0  0  0  0  0  0  0  0
   -5.5457   -0.2453    0.6516 H   0  0  0  0  0  0  0  0  0  0  0  0
   -5.3509   -0.3675   -1.1124 H   0  0  0  0  0  0  0  0  0  0  0  0
   -4.1209    4.4839    0.8282 H   0  0  0  0  0  0  0  0  0  0  0  0
   -2.6991    3.9302   -0.1545 H   0  0  0  0  0  0  0  0  0  0  0  0
   -2.7281    3.6430    1.6282 H   0  0  0  0  0  0  0  0  0  0  0  0
  3 14  1  0  0  0  0
  3 10  1  0  0  0  0
  5 22  1  0  0  0  0
  6  8  1  0  0  0  0
  7  6  1  0  0  0  0
  7 24  1  0  0  0  0
  8  1  1  6  0  0  0
  8  9  1  0  0  0  0
  9 10  2  0  0  0  0
  9 13  1  0  0  0  0
 10 11  1  0  0  0  0
 11 12  1  0  0  0  0
 11 26  1  0  0  0  0
 12 29  1  0  0  0  0
 13 31  1  0  0  0  0
 13 12  1  0  0  0  0
 14 32  1  0  0  0  0
 15 35  1  0  0  0  0
 15  4  1  0  0  0  0
 15 14  1  0  0  0  0
 16  4  1  6  0  0  0
 16 20  1  0  0  0  0
 17 16  1  0  0  0  0
 17 36  1  0  0  0  0
 17 18  1  0  0  0  0
 18 38  1  0  0  0  0
 19 18  1  0  0  0  0
 19 20  1  0  0  0  0
 19 40  1  0  0  0  0
 20 21  2  0  0  0  0
 21  2  1  0  0  0  0
 21  5  1  0  0  0  0
 22 42  1  0  0  0  0
 22 44  1  0  0  0  0
 23  7  1  0  0  0  0
 25  7  1  0  0  0  0
 27 11  1  0  0  0  0
 28 12  1  0  0  0  0
 30 13  1  0  0  0  0
 33 14  1  0  0  0  0
 34 15  1  0  0  0  0
 37 17  1  0  0  0  0
 39 18  1  0  0  0  0
 41 19  1  0  0  0  0
 43 22  1  0  0  0  0
M  END
