1,5,19,23
 OpenBabel05122313063D

 73 77  0  0  1  0  0  0  0  0999 V2000
    0.6592   -2.2816   -2.2296 S   0  0  0  0  0  1  0  0  0  0  0  0
    2.2133   -2.3235   -1.3706 C   0  0  2  0  0  3  0  0  0  0  0  0
    3.0068   -1.2637   -1.2632 N   0  0  0  0  0  0  0  0  0  0  0  0
    2.7195   -0.0078   -0.9830 C   0  0  0  0  0  0  0  0  0  0  0  0
    1.4953    0.3826   -0.5021 N   0  0  0  0  0  2  0  0  0  0  0  0
    1.3322    1.2613    0.5839 C   0  0  0  0  0  0  0  0  0  0  0  0
    2.3228    1.5886    1.5198 C   0  0  0  0  0  0  0  0  0  0  0  0
    3.3417    1.1960    1.4147 H   0  0  0  0  0  0  0  0  0  0  0  0
    2.0074    2.4217    2.6118 C   0  0  0  0  0  0  0  0  0  0  0  0
    0.6874    2.8893    2.7863 C   0  0  0  0  0  0  0  0  0  0  0  0
    0.4667    3.5121    3.6646 H   0  0  0  0  0  0  0  0  0  0  0  0
   -0.3142    2.5337    1.8808 C   0  0  0  0  0  0  0  0  0  0  0  0
   -1.3519    2.8554    2.0413 H   0  0  0  0  0  0  0  0  0  0  0  0
    0.0028    1.7368    0.7628 C   0  0  0  0  0  0  0  0  0  0  0  0
    3.0266    2.8062    3.6224 C   0  0  0  0  0  0  0  0  0  0  0  0
    4.2526    2.2651    3.3720 O   0  0  0  0  0  0  0  0  0  0  0  0
    4.8224    2.5915    4.1004 H   0  0  0  0  0  0  0  0  0  0  0  0
    2.8231    3.5296    4.5849 O   0  0  0  0  0  0  0  0  0  0  0  0
   -2.3992   -1.1732   -1.7780 S   0  0  0  0  0  1  0  0  0  0  0  0
   -3.4100   -0.2060   -0.6858 C   0  0  1  0  0  3  0  0  0  0  0  0
   -3.2558    1.1055   -0.5321 N   0  0  0  0  0  0  0  0  0  0  0  0
   -2.1614    1.8133   -0.3729 C   0  0  0  0  0  0  0  0  0  0  0  0
   -0.9224    1.2510   -0.1704 N   0  0  0  0  0  2  0  0  0  0  0  0
    2.6454   -3.5062   -0.8749 N   0  0  0  0  0  0  0  0  0  0  0  0
   -5.1714   -0.1125    1.0012 C   0  0  0  0  0  0  0  0  0  0  0  0
   -4.6639   -0.3657    1.9580 H   0  0  0  0  0  0  0  0  0  0  0  0
   -5.0729    0.9771    0.8403 H   0  0  0  0  0  0  0  0  0  0  0  0
   -6.6390   -0.5357    1.0173 C   0  0  0  0  0  0  0  0  0  0  0  0
   -7.1490   -0.1374    0.1042 H   0  0  0  0  0  0  0  0  0  0  0  0
   -7.1411   -0.1092    1.9083 H   0  0  0  0  0  0  0  0  0  0  0  0
   -6.7866   -1.9427    1.0885 O   0  0  0  0  0  0  0  0  0  0  0  0
   -6.1641   -2.5598   -0.0239 C   0  0  0  0  0  0  0  0  0  0  0  0
   -6.3144   -3.6524    0.0817 H   0  0  0  0  0  0  0  0  0  0  0  0
   -6.6484   -2.2290   -0.9770 H   0  0  0  0  0  0  0  0  0  0  0  0
   -4.6693   -2.2501   -0.0834 C   0  0  0  0  0  0  0  0  0  0  0  0
   -4.2110   -2.6862   -0.9893 H   0  0  0  0  0  0  0  0  0  0  0  0
   -4.1514   -2.6759    0.8060 H   0  0  0  0  0  0  0  0  0  0  0  0
   -4.4596   -0.8025   -0.0785 N   0  0  0  0  0  0  0  0  0  0  0  0
    3.8141   -3.5856    0.0063 C   0  0  0  0  0  0  0  0  0  0  0  0
    4.2957   -2.5920    0.0503 H   0  0  0  0  0  0  0  0  0  0  0  0
    4.5297   -4.3199   -0.4238 H   0  0  0  0  0  0  0  0  0  0  0  0
    3.3626   -4.0589    1.3940 C   0  0  0  0  0  0  0  0  0  0  0  0
    4.2449   -4.2122    2.0472 H   0  0  0  0  0  0  0  0  0  0  0  0
    2.7092   -3.2799    1.8545 H   0  0  0  0  0  0  0  0  0  0  0  0
    2.6862   -5.3015    1.3087 O   0  0  0  0  0  0  0  0  0  0  0  0
    1.5301   -5.1941    0.4920 C   0  0  0  0  0  0  0  0  0  0  0  0
    0.8084   -4.4619    0.9222 H   0  0  0  0  0  0  0  0  0  0  0  0
    1.0538   -6.1944    0.4712 H   0  0  0  0  0  0  0  0  0  0  0  0
    1.8900   -4.7568   -0.9334 C   0  0  0  0  0  0  0  0  0  0  0  0
    2.5266   -5.5267   -1.4213 H   0  0  0  0  0  0  0  0  0  0  0  0
    0.9792   -4.6045   -1.5409 H   0  0  0  0  0  0  0  0  0  0  0  0
    3.7785    1.0061   -1.2271 C   0  0  0  0  0  0  0  0  0  0  0  0
    5.1368    0.6243   -1.2629 C   0  0  0  0  0  0  0  0  0  0  0  0
    5.3943   -0.4285   -1.0794 H   0  0  0  0  0  0  0  0  0  0  0  0
    6.1320    1.5740   -1.5231 C   0  0  0  0  0  0  0  0  0  0  0  0
    7.1891    1.2686   -1.5388 H   0  0  0  0  0  0  0  0  0  0  0  0
    5.7822    2.9131   -1.7636 C   0  0  0  0  0  0  0  0  0  0  0  0
    6.5649    3.6594   -1.9680 H   0  0  0  0  0  0  0  0  0  0  0  0
    4.4307    3.2970   -1.7498 C   0  0  0  0  0  0  0  0  0  0  0  0
    4.1516    4.3413   -1.9550 H   0  0  0  0  0  0  0  0  0  0  0  0
    3.4339    2.3523   -1.4818 C   0  0  0  0  0  0  0  0  0  0  0  0
    2.3746    2.6457   -1.4878 H   0  0  0  0  0  0  0  0  0  0  0  0
   -2.2836    3.2930   -0.4715 C   0  0  0  0  0  0  0  0  0  0  0  0
   -3.5126    3.9247   -0.1856 C   0  0  0  0  0  0  0  0  0  0  0  0
   -4.3606    3.3063    0.1409 H   0  0  0  0  0  0  0  0  0  0  0  0
   -3.6406    5.3135   -0.3089 C   0  0  0  0  0  0  0  0  0  0  0  0
   -4.6000    5.7978   -0.0723 H   0  0  0  0  0  0  0  0  0  0  0  0
   -2.5469    6.0867   -0.7327 C   0  0  0  0  0  0  0  0  0  0  0  0
   -2.6478    7.1783   -0.8298 H   0  0  0  0  0  0  0  0  0  0  0  0
   -1.3257    5.4630   -1.0381 C   0  0  0  0  0  0  0  0  0  0  0  0
   -0.4718    6.0629   -1.3867 H   0  0  0  0  0  0  0  0  0  0  0  0
   -1.1915    4.0761   -0.9063 C   0  0  0  0  0  0  0  0  0  0  0  0
   -0.2419    3.5851   -1.1622 H   0  0  0  0  0  0  0  0  0  0  0  0
  2  1  1  6  0  0  0
  2  3  1  0  0  0  0
  2 24  1  0  0  0  0
  3  4  2  0  0  0  0
  4  5  1  0  0  0  0
  5  6  1  0  0  0  0
  6 14  2  0  0  0  0
  6  7  1  0  0  0  0
  7  9  2  0  0  0  0
  8  7  1  0  0  0  0
  9 10  1  0  0  0  0
  9 15  1  0  0  0  0
 10 11  1  0  0  0  0
 12 13  1  0  0  0  0
 12 10  2  0  0  0  0
 14 12  1  0  0  0  0
 15 18  2  0  0  0  0
 16 15  1  0  0  0  0
 16 17  1  0  0  0  0
 20 19  1  6  0  0  0
 20 21  1  0  0  0  0
 20 38  1  0  0  0  0
 21 22  2  0  0  0  0
 22 23  1  0  0  0  0
 23 14  1  0  0  0  0
 24 39  1  0  0  0  0
 25 28  1  0  0  0  0
 25 26  1  0  0  0  0
 27 25  1  0  0  0  0
 28 31  1  0  0  0  0
 28 30  1  0  0  0  0
 29 28  1  0  0  0  0
 32 33  1  0  0  0  0
 32 31  1  0  0  0  0
 34 32  1  0  0  0  0
 35 38  1  0  0  0  0
 35 32  1  0  0  0  0
 35 37  1  0  0  0  0
 36 35  1  0  0  0  0
 38 25  1  0  0  0  0
 39 40  1  0  0  0  0
 39 42  1  0  0  0  0
 41 39  1  0  0  0  0
 42 44  1  0  0  0  0
 42 43  1  0  0  0  0
 45 42  1  0  0  0  0
 46 47  1  0  0  0  0
 46 45  1  0  0  0  0
 48 46  1  0  0  0  0
 49 24  1  0  0  0  0
 49 46  1  0  0  0  0
 50 49  1  0  0  0  0
 51 49  1  0  0  0  0
 52  4  1  0  0  0  0
 53 52  1  0  0  0  0
 53 54  1  0  0  0  0
 55 53  2  0  0  0  0
 56 55  1  0  0  0  0
 57 59  2  0  0  0  0
 57 55  1  0  0  0  0
 58 57  1  0  0  0  0
 59 61  1  0  0  0  0
 60 59  1  0  0  0  0
 61 52  2  0  0  0  0
 62 61  1  0  0  0  0
 63 22  1  0  0  0  0
 63 64  1  0  0  0  0
 64 65  1  0  0  0  0
 66 64  2  0  0  0  0
 66 67  1  0  0  0  0
 68 66  1  0  0  0  0
 69 68  1  0  0  0  0
 70 72  1  0  0  0  0
 70 68  2  0  0  0  0
 71 70  1  0  0  0  0
 72 63  2  0  0  0  0
 73 72  1  0  0  0  0
M  END
