1,2,3,4
 OpenBabel05122313063D

 40 41  0  0  1  0  0  0  0  0999 V2000
   -1.8911   -0.1274   -1.4201 S   0  0  0  0  0  1  0  0  0  0  0  0
    1.7477    0.1129   -1.3381 S   0  0  0  0  0  1  0  0  0  0  0  0
   -1.4142   -1.0387    0.9001 N   0  0  0  0  0  2  0  0  0  0  0  0
    1.3724   -0.9159    0.9210 N   0  0  0  0  0  2  0  0  0  0  0  0
   -3.3432    0.3316    0.9218 N   0  0  0  0  0  0  0  0  0  0  0  0
    3.3321    0.4046    1.0489 N   0  0  0  0  0  0  0  0  0  0  0  0
   -2.3356   -0.2941    0.2687 C   0  0  1  0  0  3  0  0  0  0  0  0
   -1.3051   -1.1863    2.3468 C   0  0  0  0  0  0  0  0  0  0  0  0
   -0.0032   -1.9015    2.7261 C   0  0  0  0  0  0  0  0  0  0  0  0
    1.2731   -1.1411    2.3559 C   0  0  0  0  0  0  0  0  0  0  0  0
    2.3681   -0.1088    0.3851 C   0  0  0  0  0  0  0  0  0  0  0  0
   -4.3807    1.1487    0.4106 C   0  0  0  0  0  0  0  0  0  0  0  0
   -4.8781    1.0036   -0.8992 C   0  0  0  0  0  0  0  0  0  0  0  0
   -5.9112    1.8426   -1.3391 C   0  0  0  0  0  0  0  0  0  0  0  0
   -6.4674    2.8083   -0.4862 C   0  0  0  0  0  0  0  0  0  0  0  0
   -5.9822    2.9344    0.8252 C   0  0  0  0  0  0  0  0  0  0  0  0
   -4.9406    2.1133    1.2730 C   0  0  0  0  0  0  0  0  0  0  0  0
    4.3464    1.1859    0.4928 C   0  0  0  0  0  0  0  0  0  0  0  0
    4.9369    0.9068   -0.7648 C   0  0  0  0  0  0  0  0  0  0  0  0
    5.9730    1.7131   -1.2540 C   0  0  0  0  0  0  0  0  0  0  0  0
    6.4415    2.8074   -0.5086 C   0  0  0  0  0  0  0  0  0  0  0  0
    5.8692    3.0831    0.7450 C   0  0  0  0  0  0  0  0  0  0  0  0
    4.8409    2.2767    1.2466 C   0  0  0  0  0  0  0  0  0  0  0  0
   -3.3071    0.2655    1.9435 H   0  0  0  0  0  0  0  0  0  0  0  0
   -2.1746   -1.7672    2.7330 H   0  0  0  0  0  0  0  0  0  0  0  0
   -1.3309   -0.1818    2.8388 H   0  0  0  0  0  0  0  0  0  0  0  0
    0.0049   -2.9022    2.2429 H   0  0  0  0  0  0  0  0  0  0  0  0
   -0.0075   -2.0747    3.8214 H   0  0  0  0  0  0  0  0  0  0  0  0
    1.3193   -0.1608    2.8855 H   0  0  0  0  0  0  0  0  0  0  0  0
    2.1614   -1.7138    2.7026 H   0  0  0  0  0  0  0  0  0  0  0  0
   -4.4673    0.2329   -1.5650 H   0  0  0  0  0  0  0  0  0  0  0  0
   -6.2926    1.7267   -2.3646 H   0  0  0  0  0  0  0  0  0  0  0  0
   -7.2809    3.4581   -0.8405 H   0  0  0  0  0  0  0  0  0  0  0  0
   -6.4109    3.6847    1.5061 H   0  0  0  0  0  0  0  0  0  0  0  0
   -4.5474    2.2253    2.2959 H   0  0  0  0  0  0  0  0  0  0  0  0
    4.5847    0.0414   -1.3451 H   0  0  0  0  0  0  0  0  0  0  0  0
    6.4232    1.4794   -2.2314 H   0  0  0  0  0  0  0  0  0  0  0  0
    7.2557    3.4368   -0.8983 H   0  0  0  0  0  0  0  0  0  0  0  0
    6.2337    3.9334    1.3420 H   0  0  0  0  0  0  0  0  0  0  0  0
    4.3891    2.4736    2.2300 H   0  0  0  0  0  0  0  0  0  0  0  0
  2 11  1  0  0  0  0
  3  8  1  0  0  0  0
  4 10  1  0  0  0  0
  5 24  1  0  0  0  0
  7  1  1  1  0  0  0
  7  3  1  0  0  0  0
  7  5  1  0  0  0  0
  8  9  1  0  0  0  0
  8 25  1  0  0  0  0
  8 26  1  0  0  0  0
  9 28  1  0  0  0  0
 10 30  1  0  0  0  0
 10  9  1  0  0  0  0
 10 29  1  0  0  0  0
 11  4  1  0  0  0  0
 11  6  2  0  0  0  0
 12  5  1  0  0  0  0
 12 17  1  0  0  0  0
 13 12  2  0  0  0  0
 14 13  1  0  0  0  0
 14 15  2  0  0  0  0
 15 16  1  0  0  0  0
 16 17  2  0  0  0  0
 16 34  1  0  0  0  0
 17 35  1  0  0  0  0
 18  6  1  0  0  0  0
 18 23  1  0  0  0  0
 19 18  2  0  0  0  0
 20 19  1  0  0  0  0
 20 21  2  0  0  0  0
 21 22  1  0  0  0  0
 22 23  2  0  0  0  0
 22 39  1  0  0  0  0
 23 40  1  0  0  0  0
 27  9  1  0  0  0  0
 31 13  1  0  0  0  0
 32 14  1  0  0  0  0
 33 15  1  0  0  0  0
 36 19  1  0  0  0  0
 37 20  1  0  0  0  0
 38 21  1  0  0  0  0
M  END
