1,2,3,5
 OpenBabel05122313063D

 63 65  0  0  0  0  0  0  0  0999 V2000
   -1.7064    1.5099    0.8748 S   0  0  0  0  0  0  0  0  0  0  0  0
    0.9095   -0.3429   -1.2512 S   0  0  0  0  0  0  0  0  0  0  0  0
   -2.2062   -1.7659    0.9827 N   0  0  0  0  0  0  0  0  0  0  0  0
    2.4872   -0.4746   -0.3836 C   0  0  0  0  0  0  0  0  0  0  0  0
    0.4441   -1.3302    1.8324 N   0  0  0  0  0  2  0  0  0  0  0  0
    1.7122   -1.5639    1.8549 C   0  0  0  0  0  3  0  0  0  0  0  0
    2.7085   -1.0163    0.9223 C   0  0  0  0  0  0  0  0  0  0  0  0
   -3.3348   -0.9627    1.5228 C   0  0  0  0  0  0  0  0  0  0  0  0
    1.4900    3.1404   -0.9588 C   0  0  0  0  0  0  0  0  0  0  0  0
   -5.1382   -0.3802   -0.1478 C   0  0  0  0  0  0  0  0  0  0  0  0
    1.1314    2.5141    1.3574 C   0  0  0  0  0  0  0  0  0  0  0  0
   -3.2418    1.1236    0.0402 C   0  0  0  0  0  0  0  0  0  0  0  0
   -5.0133    1.5819   -1.5615 C   0  0  0  0  0  0  0  0  0  0  0  0
   -1.5790   -2.6748    1.9725 C   0  0  0  0  0  0  0  0  0  0  0  0
   -3.9168   -0.0527    0.4667 C   0  0  0  0  0  0  0  0  0  0  0  0
   -0.8782    2.7314   -0.2177 C   0  0  0  0  0  0  0  0  0  0  0  0
   -3.7955    1.9390   -0.9616 C   0  0  0  0  0  0  0  0  0  0  0  0
    2.5115    2.6063    1.5951 C   0  0  0  0  0  0  0  0  0  0  0  0
    3.3817    2.9818    0.5619 C   0  0  0  0  0  0  0  0  0  0  0  0
    3.5842    0.0058   -1.1220 C   0  0  0  0  0  0  0  0  0  0  0  0
    5.1239   -0.5906    0.6507 C   0  0  0  0  0  0  0  0  0  0  0  0
    4.8926   -0.0466   -0.6189 C   0  0  0  0  0  0  0  0  0  0  0  0
    0.8883   -3.1568   -1.3341 C   0  0  0  0  0  0  0  0  0  0  0  0
    4.0433   -1.0726    1.3958 C   0  0  0  0  0  0  0  0  0  0  0  0
    0.6049    2.7797    0.0775 C   0  0  0  0  0  0  0  0  0  0  0  0
    0.8200   -1.9538   -2.2709 C   0  0  0  0  0  0  0  0  0  0  0  0
   -5.6891    0.4229   -1.1578 C   0  0  0  0  0  0  0  0  0  0  0  0
   -0.4606   -1.9778    2.7675 C   0  0  0  0  0  0  0  0  0  0  0  0
    1.9506   -1.9683   -3.2978 C   0  0  0  0  0  0  0  0  0  0  0  0
   -0.5515   -1.8390   -2.9453 C   0  0  0  0  0  0  0  0  0  0  0  0
    2.8661    3.2516   -0.7157 C   0  0  0  0  0  0  0  0  0  0  0  0
    1.0940    3.3415   -1.9663 H   0  0  0  0  0  0  0  0  0  0  0  0
    3.5410    3.5462   -1.5334 H   0  0  0  0  0  0  0  0  0  0  0  0
    4.4625    3.0607    0.7506 H   0  0  0  0  0  0  0  0  0  0  0  0
    2.9062    2.3930    2.5996 H   0  0  0  0  0  0  0  0  0  0  0  0
    0.4598    2.2386    2.1855 H   0  0  0  0  0  0  0  0  0  0  0  0
   -1.3562    3.7204   -0.0534 H   0  0  0  0  0  0  0  0  0  0  0  0
   -1.0547    2.4216   -1.2668 H   0  0  0  0  0  0  0  0  0  0  0  0
   -3.2935    2.8643   -1.2746 H   0  0  0  0  0  0  0  0  0  0  0  0
   -5.4381    2.2279   -2.3441 H   0  0  0  0  0  0  0  0  0  0  0  0
   -6.6471    0.1469   -1.6213 H   0  0  0  0  0  0  0  0  0  0  0  0
   -5.6704   -1.2866    0.1824 H   0  0  0  0  0  0  0  0  0  0  0  0
   -2.9492   -0.3726    2.3815 H   0  0  0  0  0  0  0  0  0  0  0  0
   -4.1340   -1.6254    1.9249 H   0  0  0  0  0  0  0  0  0  0  0  0
   -2.3312   -3.0987    2.6757 H   0  0  0  0  0  0  0  0  0  0  0  0
   -1.1354   -3.5221    1.4115 H   0  0  0  0  0  0  0  0  0  0  0  0
   -0.8928   -1.1944    3.4285 H   0  0  0  0  0  0  0  0  0  0  0  0
    0.0476   -2.7219    3.4230 H   0  0  0  0  0  0  0  0  0  0  0  0
    2.1341   -2.2218    2.6487 H   0  0  0  0  0  0  0  0  0  0  0  0
    4.2237   -1.5051    2.3925 H   0  0  0  0  0  0  0  0  0  0  0  0
    6.1427   -0.6429    1.0613 H   0  0  0  0  0  0  0  0  0  0  0  0
    5.7260    0.3427   -1.2223 H   0  0  0  0  0  0  0  0  0  0  0  0
    3.3938    0.4445   -2.1115 H   0  0  0  0  0  0  0  0  0  0  0  0
   -2.5720   -2.3264    0.2026 H   0  0  0  0  0  0  0  0  0  0  0  0
    1.8590   -3.2070   -0.8021 H   0  0  0  0  0  0  0  0  0  0  0  0
    0.0784   -3.1121   -0.5796 H   0  0  0  0  0  0  0  0  0  0  0  0
    0.7755   -4.0937   -1.9184 H   0  0  0  0  0  0  0  0  0  0  0  0
    1.9191   -1.0748   -3.9517 H   0  0  0  0  0  0  0  0  0  0  0  0
    2.9455   -2.0221   -2.8142 H   0  0  0  0  0  0  0  0  0  0  0  0
    1.8471   -2.8667   -3.9414 H   0  0  0  0  0  0  0  0  0  0  0  0
   -1.3632   -1.7671   -2.1920 H   0  0  0  0  0  0  0  0  0  0  0  0
   -0.6103   -0.9492   -3.6034 H   0  0  0  0  0  0  0  0  0  0  0  0
   -0.7328   -2.7378   -3.5691 H   0  0  0  0  0  0  0  0  0  0  0  0
  2  4  1  0  0  0  0
  3  8  1  0  0  0  0
  3 14  1  0  0  0  0
  4  7  1  0  0  0  0
  5  6  1  0  0  0  0
  5 28  1  0  0  0  0
  6 49  1  0  0  0  0
  7 24  2  0  0  0  0
  7  6  1  0  0  0  0
  8 44  1  0  0  0  0
  8 43  1  0  0  0  0
  9 31  2  0  0  0  0
  9 25  1  0  0  0  0
 10 42  1  0  0  0  0
 10 15  1  0  0  0  0
 11 18  1  0  0  0  0
 11 36  1  0  0  0  0
 12 15  2  0  0  0  0
 12  1  1  0  0  0  0
 13 27  1  0  0  0  0
 13 17  2  0  0  0  0
 14 45  1  0  0  0  0
 14 28  1  0  0  0  0
 15  8  1  0  0  0  0
 16 37  1  0  0  0  0
 16 25  1  0  0  0  0
 16  1  1  0  0  0  0
 17 12  1  0  0  0  0
 18 35  1  0  0  0  0
 19 34  1  0  0  0  0
 19 18  2  0  0  0  0
 20 22  1  0  0  0  0
 20  4  2  0  0  0  0
 21 51  1  0  0  0  0
 21 24  1  0  0  0  0
 22 21  2  0  0  0  0
 23 55  1  0  0  0  0
 23 56  1  0  0  0  0
 24 50  1  0  0  0  0
 25 11  2  0  0  0  0
 26 23  1  0  0  0  0
 26  2  1  0  0  0  0
 27 10  2  0  0  0  0
 28 48  1  0  0  0  0
 28 47  1  0  0  0  0
 29 59  1  0  0  0  0
 29 26  1  0  0  0  0
 30 26  1  0  0  0  0
 30 61  1  0  0  0  0
 31 19  1  0  0  0  0
 32  9  1  0  0  0  0
 33 31  1  0  0  0  0
 38 16  1  0  0  0  0
 39 17  1  0  0  0  0
 40 13  1  0  0  0  0
 41 27  1  0  0  0  0
 46 14  1  0  0  0  0
 52 22  1  0  0  0  0
 53 20  1  0  0  0  0
 54  3  1  0  0  0  0
 57 23  1  0  0  0  0
 58 29  1  0  0  0  0
 60 29  1  0  0  0  0
 62 30  1  0  0  0  0
 63 30  1  0  0  0  0
M  END
