3,4,5,6
 OpenBabel05122313063D

 48 52  0  0  0  0  0  0  0  0999 V2000
    5.0651    0.5871   -2.1178 Cl  0  0  0  0  0  0  0  0  0  0  0  0
   -5.0651    0.5876    2.1176 Cl  0  0  0  0  0  0  0  0  0  0  0  0
   -1.4906   -0.8427   -1.9146 S   0  0  0  0  0  0  0  0  0  0  0  0
    1.4906   -0.8422    1.9148 S   0  0  0  0  0  0  0  0  0  0  0  0
    0.9859    0.3799   -0.8774 N   0  0  0  0  0  2  0  0  0  0  0  0
   -0.9859    0.3800    0.8773 N   0  0  0  0  0  2  0  0  0  0  0  0
   -1.1068    0.9019   -2.0076 C   0  0  0  0  0  0  0  0  0  0  0  0
    0.1766    1.3084   -1.5576 C   0  0  0  0  0  0  0  0  0  0  0  0
    0.5465    2.6665   -1.7191 C   0  0  0  0  0  0  0  0  0  0  0  0
   -0.3401    3.5765   -2.3035 C   0  0  0  0  0  0  0  0  0  0  0  0
   -1.6147    3.1631   -2.7325 C   0  0  0  0  0  0  0  0  0  0  0  0
   -1.9930    1.8211   -2.5864 C   0  0  0  0  0  0  0  0  0  0  0  0
    2.2972    0.5017   -0.9245 C   0  0  0  0  0  3  0  0  0  0  0  0
    3.2926   -0.1885   -0.1400 C   0  0  0  0  0  0  0  0  0  0  0  0
    4.6369   -0.2321   -0.6313 C   0  0  0  0  0  0  0  0  0  0  0  0
    5.6479   -0.9504    0.0109 C   0  0  0  0  0  0  0  0  0  0  0  0
    5.3597   -1.6532    1.1926 C   0  0  0  0  0  0  0  0  0  0  0  0
    4.0760   -1.5929    1.7445 C   0  0  0  0  0  0  0  0  0  0  0  0
    3.0662   -0.8483    1.1142 C   0  0  0  0  0  0  0  0  0  0  0  0
    1.1068    0.9024    2.0074 C   0  0  0  0  0  0  0  0  0  0  0  0
   -0.1767    1.3088    1.5573 C   0  0  0  0  0  0  0  0  0  0  0  0
   -0.5466    2.6668    1.7186 C   0  0  0  0  0  0  0  0  0  0  0  0
    0.3400    3.5770    2.3028 C   0  0  0  0  0  0  0  0  0  0  0  0
    1.6147    3.1637    2.7319 C   0  0  0  0  0  0  0  0  0  0  0  0
    1.9930    1.8217    2.5861 C   0  0  0  0  0  0  0  0  0  0  0  0
   -2.2972    0.5019    0.9243 C   0  0  0  0  0  3  0  0  0  0  0  0
   -3.2925   -0.1885    0.1400 C   0  0  0  0  0  0  0  0  0  0  0  0
   -4.6369   -0.2319    0.6313 C   0  0  0  0  0  0  0  0  0  0  0  0
   -5.6479   -0.9504   -0.0107 C   0  0  0  0  0  0  0  0  0  0  0  0
   -5.3597   -1.6535   -1.1923 C   0  0  0  0  0  0  0  0  0  0  0  0
   -4.0761   -1.5933   -1.7441 C   0  0  0  0  0  0  0  0  0  0  0  0
   -3.0662   -0.8486   -1.1141 C   0  0  0  0  0  0  0  0  0  0  0  0
    1.5140    3.0119   -1.3286 H   0  0  0  0  0  0  0  0  0  0  0  0
   -0.0407    4.6306   -2.4043 H   0  0  0  0  0  0  0  0  0  0  0  0
   -2.3130    3.8850   -3.1807 H   0  0  0  0  0  0  0  0  0  0  0  0
   -2.9788    1.4712   -2.9275 H   0  0  0  0  0  0  0  0  0  0  0  0
    2.7065    1.1912   -1.6848 H   0  0  0  0  0  0  0  0  0  0  0  0
    6.6551   -0.9634   -0.4270 H   0  0  0  0  0  0  0  0  0  0  0  0
    6.1517   -2.2271    1.6953 H   0  0  0  0  0  0  0  0  0  0  0  0
    3.8458   -2.1019    2.6917 H   0  0  0  0  0  0  0  0  0  0  0  0
   -1.5141    3.0121    1.3280 H   0  0  0  0  0  0  0  0  0  0  0  0
    0.0406    4.6311    2.4034 H   0  0  0  0  0  0  0  0  0  0  0  0
    2.3129    3.8857    3.1799 H   0  0  0  0  0  0  0  0  0  0  0  0
    2.9788    1.4719    2.9272 H   0  0  0  0  0  0  0  0  0  0  0  0
   -2.7065    1.1915    1.6845 H   0  0  0  0  0  0  0  0  0  0  0  0
   -6.6551   -0.9633    0.4272 H   0  0  0  0  0  0  0  0  0  0  0  0
   -6.1517   -2.2275   -1.6948 H   0  0  0  0  0  0  0  0  0  0  0  0
   -3.8458   -2.1025   -2.6913 H   0  0  0  0  0  0  0  0  0  0  0  0
  1 15  1  0  0  0  0
  3 32  1  0  0  0  0
  4 20  1  0  0  0  0
  6 26  1  0  0  0  0
  6 21  1  0  0  0  0
  7  3  1  0  0  0  0
  7  8  1  0  0  0  0
  8  5  1  0  0  0  0
  9  8  2  0  0  0  0
  9 33  1  0  0  0  0
 10  9  1  0  0  0  0
 11 12  1  0  0  0  0
 11 10  2  0  0  0  0
 12  7  2  0  0  0  0
 13  5  1  0  0  0  0
 13 14  1  0  0  0  0
 14 19  1  0  0  0  0
 15 14  2  0  0  0  0
 15 16  1  0  0  0  0
 16 17  2  0  0  0  0
 17 39  1  0  0  0  0
 17 18  1  0  0  0  0
 18 40  1  0  0  0  0
 19 18  2  0  0  0  0
 19  4  1  0  0  0  0
 20 25  1  0  0  0  0
 21 22  1  0  0  0  0
 21 20  2  0  0  0  0
 22 23  2  0  0  0  0
 23 42  1  0  0  0  0
 23 24  1  0  0  0  0
 24 43  1  0  0  0  0
 25 24  2  0  0  0  0
 25 44  1  0  0  0  0
 26 45  1  0  0  0  0
 27 28  1  0  0  0  0
 27 26  1  0  0  0  0
 28  2  1  0  0  0  0
 29 46  1  0  0  0  0
 29 28  2  0  0  0  0
 30 29  1  0  0  0  0
 31 30  2  0  0  0  0
 31 32  1  0  0  0  0
 32 27  2  0  0  0  0
 34 10  1  0  0  0  0
 35 11  1  0  0  0  0
 36 12  1  0  0  0  0
 37 13  1  0  0  0  0
 38 16  1  0  0  0  0
 41 22  1  0  0  0  0
 47 30  1  0  0  0  0
 48 31  1  0  0  0  0
M  END
