9,10,13,14
 OpenBabel05122313063D

 74 81  0  0  1  0  0  0  0  0999 V2000
    0.0701   -0.2307    5.3083 Cl  0  0  0  0  0  0  0  0  0  0  0  0
    1.6985    4.7444    3.8684 Cl  0  0  0  0  0  0  0  0  0  0  0  0
   11.7478   -3.3208   -0.5027 Cl  0  0  0  0  0  0  0  0  0  0  0  0
   11.8297    2.0835   -0.0128 Cl  0  0  0  0  0  0  0  0  0  0  0  0
   -0.0662   -0.2458   -5.3063 Cl  0  0  0  0  0  0  0  0  0  0  0  0
   -1.7034    4.7310   -3.8823 Cl  0  0  0  0  0  0  0  0  0  0  0  0
  -11.7476   -3.3197    0.5113 Cl  0  0  0  0  0  0  0  0  0  0  0  0
  -11.8297    2.0830    0.0045 Cl  0  0  0  0  0  0  0  0  0  0  0  0
    1.5759   -3.0669   -0.0902 S   0  0  0  0  0  1  0  0  0  0  0  0
   -1.5757   -3.0667    0.1005 S   0  0  0  0  0  1  0  0  0  0  0  0
    6.4111    0.9248    0.0254 S   0  0  0  0  0  0  0  0  0  0  0  0
   -6.4110    0.9245   -0.0284 S   0  0  0  0  0  0  0  0  0  0  0  0
    1.2593   -0.2765    0.0035 N   0  0  0  0  0  2  0  0  0  0  0  0
   -1.2592   -0.2766   -0.0017 N   0  0  0  0  0  2  0  0  0  0  0  0
    6.6230   -1.6882   -0.2158 N   0  0  0  0  0  0  0  0  0  0  0  0
   -6.6228   -1.6878    0.2206 N   0  0  0  0  0  0  0  0  0  0  0  0
    2.9187   -1.9573   -0.1174 C   0  0  0  0  0  0  0  0  0  0  0  0
    2.5875   -0.5454   -0.0195 C   0  0  0  0  0  0  0  0  0  0  0  0
    3.6264    0.4278    0.0518 C   0  0  0  0  0  0  0  0  0  0  0  0
    3.3922    1.4932    0.1714 H   0  0  0  0  0  0  0  0  0  0  0  0
    4.9397   -0.0181   -0.0240 C   0  0  0  0  0  0  0  0  0  0  0  0
    5.2779   -1.4215   -0.1571 C   0  0  0  0  0  0  0  0  0  0  0  0
    4.2545   -2.3808   -0.1980 C   0  0  0  0  0  0  0  0  0  0  0  0
    4.5088   -3.4468   -0.2774 H   0  0  0  0  0  0  0  0  0  0  0  0
    0.7366    1.0600    0.2537 C   0  0  2  0  0  0  0  0  0  0  0  0
    1.3031    1.8155   -0.3328 H   0  0  0  0  0  0  0  0  0  0  0  0
    0.8166    1.4478    1.7273 C   0  0  0  0  0  0  0  0  0  0  0  0
    0.4690    0.5205    2.7257 C   0  0  0  0  0  0  0  0  0  0  0  0
    0.1846   -0.5065    2.4568 H   0  0  0  0  0  0  0  0  0  0  0  0
    0.5005    0.9164    4.0704 C   0  0  0  0  0  0  0  0  0  0  0  0
    0.8751    2.2173    4.4460 C   0  0  0  0  0  0  0  0  0  0  0  0
    0.9023    2.5129    5.5025 H   0  0  0  0  0  0  0  0  0  0  0  0
    1.2213    3.1251    3.4343 C   0  0  0  0  0  0  0  0  0  0  0  0
    1.1963    2.7540    2.0800 C   0  0  0  0  0  0  0  0  0  0  0  0
    1.4749    3.4888    1.3106 H   0  0  0  0  0  0  0  0  0  0  0  0
    7.3451   -0.6008   -0.1367 C   0  0  0  0  0  0  0  0  0  0  0  0
    8.8096   -0.5809   -0.1742 C   0  0  0  0  0  0  0  0  0  0  0  0
    9.4967   -1.8093   -0.3045 C   0  0  0  0  0  0  0  0  0  0  0  0
    8.9206   -2.7410   -0.3738 H   0  0  0  0  0  0  0  0  0  0  0  0
   10.8948   -1.8102   -0.3423 C   0  0  0  0  0  0  0  0  0  0  0  0
   11.6350   -0.6176   -0.2536 C   0  0  0  0  0  0  0  0  0  0  0  0
   12.7319   -0.6323   -0.2845 H   0  0  0  0  0  0  0  0  0  0  0  0
   10.9351    0.5927   -0.1245 C   0  0  0  0  0  0  0  0  0  0  0  0
    9.5351    0.6265   -0.0837 C   0  0  0  0  0  0  0  0  0  0  0  0
    9.0224    1.5934    0.0184 H   0  0  0  0  0  0  0  0  0  0  0  0
   -2.9185   -1.9571    0.1239 C   0  0  0  0  0  0  0  0  0  0  0  0
   -2.5873   -0.5454    0.0217 C   0  0  0  0  0  0  0  0  0  0  0  0
   -3.6263    0.4275   -0.0527 C   0  0  0  0  0  0  0  0  0  0  0  0
   -3.3921    1.4925   -0.1755 H   0  0  0  0  0  0  0  0  0  0  0  0
   -4.9396   -0.0183    0.0241 C   0  0  0  0  0  0  0  0  0  0  0  0
   -5.2778   -1.4212    0.1614 C   0  0  0  0  0  0  0  0  0  0  0  0
   -4.2543   -2.3804    0.2055 C   0  0  0  0  0  0  0  0  0  0  0  0
   -4.5086   -3.4461    0.2880 H   0  0  0  0  0  0  0  0  0  0  0  0
   -0.7365    1.0592   -0.2560 C   0  0  1  0  0  0  0  0  0  0  0  0
   -1.3030    1.8165    0.3283 H   0  0  0  0  0  0  0  0  0  0  0  0
   -0.8165    1.4424   -1.7308 C   0  0  0  0  0  0  0  0  0  0  0  0
   -0.4671    0.5127   -2.7262 C   0  0  0  0  0  0  0  0  0  0  0  0
   -0.1811   -0.5131   -2.4540 H   0  0  0  0  0  0  0  0  0  0  0  0
   -0.4989    0.9044   -4.0722 C   0  0  0  0  0  0  0  0  0  0  0  0
   -0.8756    2.2034   -4.4519 C   0  0  0  0  0  0  0  0  0  0  0  0
   -0.9030    2.4957   -5.5093 H   0  0  0  0  0  0  0  0  0  0  0  0
   -1.2235    3.1138   -3.4431 C   0  0  0  0  0  0  0  0  0  0  0  0
   -1.1983    2.7469   -2.0877 C   0  0  0  0  0  0  0  0  0  0  0  0
   -1.4783    3.4837   -1.3205 H   0  0  0  0  0  0  0  0  0  0  0  0
   -7.3450   -0.6007    0.1380 C   0  0  0  0  0  0  0  0  0  0  0  0
   -8.8095   -0.5808    0.1750 C   0  0  0  0  0  0  0  0  0  0  0  0
   -9.4965   -1.8088    0.3090 C   0  0  0  0  0  0  0  0  0  0  0  0
   -8.9205   -2.7402    0.3813 H   0  0  0  0  0  0  0  0  0  0  0  0
  -10.8947   -1.8096    0.3464 C   0  0  0  0  0  0  0  0  0  0  0  0
  -11.6349   -0.6173    0.2538 C   0  0  0  0  0  0  0  0  0  0  0  0
  -12.7318   -0.6319    0.2844 H   0  0  0  0  0  0  0  0  0  0  0  0
  -10.9350    0.5926    0.1211 C   0  0  0  0  0  0  0  0  0  0  0  0
   -9.5351    0.6263    0.0806 C   0  0  0  0  0  0  0  0  0  0  0  0
   -9.0223    1.5930   -0.0244 H   0  0  0  0  0  0  0  0  0  0  0  0
  3 40  1  0  0  0  0
  5 59  1  0  0  0  0
  6 62  1  0  0  0  0
  8 72  1  0  0  0  0
 10 46  1  0  0  0  0
 12 50  1  0  0  0  0
 12 65  1  0  0  0  0
 13 25  1  0  0  0  0
 14 47  1  0  0  0  0
 15 22  1  0  0  0  0
 15 36  2  0  0  0  0
 17  9  1  0  0  0  0
 17 18  1  0  0  0  0
 18 13  1  0  0  0  0
 18 19  2  0  0  0  0
 19 20  1  0  0  0  0
 21 11  1  0  0  0  0
 21 19  1  0  0  0  0
 22 21  2  0  0  0  0
 23 22  1  0  0  0  0
 23 17  2  0  0  0  0
 24 23  1  0  0  0  0
 25 26  1  6  0  0  0
 25 27  1  0  0  0  0
 27 34  2  0  0  0  0
 27 28  1  0  0  0  0
 28 30  2  0  0  0  0
 29 28  1  0  0  0  0
 30 31  1  0  0  0  0
 30  1  1  0  0  0  0
 31 32  1  0  0  0  0
 33  2  1  0  0  0  0
 33 31  2  0  0  0  0
 34 33  1  0  0  0  0
 35 34  1  0  0  0  0
 36 11  1  0  0  0  0
 37 36  1  0  0  0  0
 37 44  1  0  0  0  0
 38 37  2  0  0  0  0
 39 38  1  0  0  0  0
 40 38  1  0  0  0  0
 40 41  2  0  0  0  0
 41 43  1  0  0  0  0
 42 41  1  0  0  0  0
 43 44  2  0  0  0  0
 43  4  1  0  0  0  0
 44 45  1  0  0  0  0
 46 52  1  0  0  0  0
 47 46  2  0  0  0  0
 48 47  1  0  0  0  0
 48 50  2  0  0  0  0
 49 48  1  0  0  0  0
 50 51  1  0  0  0  0
 51 52  2  0  0  0  0
 51 16  1  0  0  0  0
 52 53  1  0  0  0  0
 54 14  1  0  0  0  0
 54 25  1  0  0  0  0
 54 55  1  1  0  0  0
 56 54  1  0  0  0  0
 57 58  1  0  0  0  0
 57 56  2  0  0  0  0
 59 57  1  0  0  0  0
 60 59  2  0  0  0  0
 60 62  1  0  0  0  0
 61 60  1  0  0  0  0
 62 63  2  0  0  0  0
 63 56  1  0  0  0  0
 63 64  1  0  0  0  0
 65 66  1  0  0  0  0
 65 16  2  0  0  0  0
 66 67  1  0  0  0  0
 67 69  2  0  0  0  0
 67 68  1  0  0  0  0
 69  7  1  0  0  0  0
 70 71  1  0  0  0  0
 70 69  1  0  0  0  0
 72 70  2  0  0  0  0
 73 72  1  0  0  0  0
 73 66  2  0  0  0  0
 74 73  1  0  0  0  0
M  END
