1,2,4,5
 OpenBabel05122313063D

 68 74  0  0  1  0  0  0  0  0999 V2000
    0.1864   -3.0974   -0.9269 S   0  0  0  0  0  1  0  0  0  0  0  0
   -2.9427   -3.4835   -0.7079 S   0  0  0  0  0  1  0  0  0  0  0  0
    4.6192    1.1503    0.3582 S   0  0  0  0  0  0  0  0  0  0  0  0
   -0.3888   -0.5302    0.0699 N   0  0  0  0  0  2  0  0  0  0  0  0
   -2.8849   -0.7971    0.1132 N   0  0  0  0  0  2  0  0  0  0  0  0
    5.0667   -1.2159   -0.7067 N   0  0  0  0  0  0  0  0  0  0  0  0
    1.4140   -1.8998   -0.6212 C   0  0  0  0  0  0  0  0  0  0  0  0
    0.9545   -0.6364   -0.0686 C   0  0  0  0  0  0  0  0  0  0  0  0
    1.9000    0.3712    0.2857 C   0  0  0  0  0  0  0  0  0  0  0  0
    3.2435    0.1170    0.0434 C   0  0  0  0  0  0  0  0  0  0  0  0
    3.7073   -1.1277   -0.5367 C   0  0  0  0  0  0  0  0  0  0  0  0
    2.7784   -2.1289   -0.8595 C   0  0  0  0  0  0  0  0  0  0  0  0
   -1.0146    0.6088    0.7327 C   0  0  2  0  0  0  0  0  0  0  0  0
   -0.8576    0.5625    2.2482 C   0  0  0  0  0  0  0  0  0  0  0  0
   -1.0996   -0.6266    2.9632 C   0  0  0  0  0  0  0  0  0  0  0  0
   -1.0003   -0.6428    4.3612 C   0  0  0  0  0  0  0  0  0  0  0  0
   -0.6553    0.5253    5.0616 C   0  0  0  0  0  0  0  0  0  0  0  0
   -0.4068    1.7117    4.3551 C   0  0  0  0  0  0  0  0  0  0  0  0
   -0.5072    1.7282    2.9548 C   0  0  0  0  0  0  0  0  0  0  0  0
    5.6877   -0.1377   -0.3020 C   0  0  0  0  0  0  0  0  0  0  0  0
    7.1372    0.0550   -0.3609 C   0  0  0  0  0  0  0  0  0  0  0  0
    7.9455   -0.9812   -0.8877 C   0  0  0  0  0  0  0  0  0  0  0  0
    9.3331   -0.8260   -0.9565 C   0  0  0  0  0  0  0  0  0  0  0  0
    9.9383    0.3598   -0.5034 C   0  0  0  0  0  0  0  0  0  0  0  0
    9.1439    1.3930    0.0208 C   0  0  0  0  0  0  0  0  0  0  0  0
    7.7539    1.2434    0.0923 C   0  0  0  0  0  0  0  0  0  0  0  0
   -4.3723   -2.5890   -0.2822 C   0  0  0  0  0  0  0  0  0  0  0  0
   -4.1789   -1.2070    0.0834 C   0  0  0  0  0  0  0  0  0  0  0  0
   -5.3204   -0.3966    0.3617 C   0  0  0  0  0  0  0  0  0  0  0  0
   -6.5885   -0.9637    0.3228 C   0  0  0  0  0  0  0  0  0  0  0  0
   -6.7703   -2.3343   -0.0034 C   0  0  0  0  0  0  0  0  0  0  0  0
   -5.6738   -3.1391   -0.3079 C   0  0  0  0  0  0  0  0  0  0  0  0
   -2.5167    0.5972    0.3039 C   0  0  1  0  0  0  0  0  0  0  0  0
   -2.7401    1.4482   -0.9429 C   0  0  0  0  0  0  0  0  0  0  0  0
   -2.8492    2.8768   -0.8216 C   0  0  0  0  0  0  0  0  0  0  0  0
   -2.8041    3.5613    0.4317 C   0  0  0  0  0  0  0  0  0  0  0  0
   -2.9062    4.9441    0.5016 C   0  0  0  0  0  0  0  0  0  0  0  0
   -3.0595    5.7153   -0.6796 C   0  0  0  0  0  0  0  0  0  0  0  0
   -3.1098    5.0846   -1.9132 C   0  0  0  0  0  0  0  0  0  0  0  0
   -3.0059    3.6667   -2.0224 C   0  0  0  0  0  0  0  0  0  0  0  0
   -3.0479    3.0143   -3.2893 C   0  0  0  0  0  0  0  0  0  0  0  0
   -2.9396    1.6367   -3.3751 C   0  0  0  0  0  0  0  0  0  0  0  0
   -2.7849    0.8568   -2.2004 C   0  0  0  0  0  0  0  0  0  0  0  0
    1.5710    1.3119    0.7443 H   0  0  0  0  0  0  0  0  0  0  0  0
    3.1281   -3.0812   -1.2817 H   0  0  0  0  0  0  0  0  0  0  0  0
   -0.5598    1.5553    0.3679 H   0  0  0  0  0  0  0  0  0  0  0  0
   -1.3569   -1.5432    2.4105 H   0  0  0  0  0  0  0  0  0  0  0  0
   -1.1893   -1.5784    4.9092 H   0  0  0  0  0  0  0  0  0  0  0  0
   -0.5733    0.5081    6.1589 H   0  0  0  0  0  0  0  0  0  0  0  0
   -0.1273    2.6293    4.8949 H   0  0  0  0  0  0  0  0  0  0  0  0
   -0.3084    2.6597    2.3995 H   0  0  0  0  0  0  0  0  0  0  0  0
    7.4500   -1.8987   -1.2355 H   0  0  0  0  0  0  0  0  0  0  0  0
    9.9524   -1.6375   -1.3678 H   0  0  0  0  0  0  0  0  0  0  0  0
   11.0310    0.4788   -0.5590 H   0  0  0  0  0  0  0  0  0  0  0  0
    9.6116    2.3231    0.3769 H   0  0  0  0  0  0  0  0  0  0  0  0
    7.1381    2.0582    0.5047 H   0  0  0  0  0  0  0  0  0  0  0  0
   -5.1956    0.6695    0.5966 H   0  0  0  0  0  0  0  0  0  0  0  0
   -7.4670   -0.3384    0.5425 H   0  0  0  0  0  0  0  0  0  0  0  0
   -7.7847   -2.7593   -0.0273 H   0  0  0  0  0  0  0  0  0  0  0  0
   -5.8042   -4.1973   -0.5797 H   0  0  0  0  0  0  0  0  0  0  0  0
   -3.1160    1.0205    1.1381 H   0  0  0  0  0  0  0  0  0  0  0  0
   -2.6858    2.9916    1.3647 H   0  0  0  0  0  0  0  0  0  0  0  0
   -2.8709    5.4448    1.4812 H   0  0  0  0  0  0  0  0  0  0  0  0
   -3.1398    6.8108   -0.6133 H   0  0  0  0  0  0  0  0  0  0  0  0
   -3.2298    5.6733   -2.8362 H   0  0  0  0  0  0  0  0  0  0  0  0
   -3.1670    3.6273   -4.1961 H   0  0  0  0  0  0  0  0  0  0  0  0
   -2.9726    1.1359   -4.3542 H   0  0  0  0  0  0  0  0  0  0  0  0
   -2.7019   -0.2375   -2.2771 H   0  0  0  0  0  0  0  0  0  0  0  0
  1  7  1  0  0  0  0
  2 27  1  0  0  0  0
  4 13  1  0  0  0  0
  5 33  1  0  0  0  0
  6 11  1  0  0  0  0
  6 20  2  0  0  0  0
  7  8  1  0  0  0  0
  8  4  1  0  0  0  0
  8  9  2  0  0  0  0
  9 44  1  0  0  0  0
 10  9  1  0  0  0  0
 10  3  1  0  0  0  0
 11 10  2  0  0  0  0
 12  7  2  0  0  0  0
 12 11  1  0  0  0  0
 13 46  1  6  0  0  0
 13 14  1  0  0  0  0
 14 19  2  0  0  0  0
 14 15  1  0  0  0  0
 15 16  2  0  0  0  0
 16 48  1  0  0  0  0
 16 17  1  0  0  0  0
 17 49  1  0  0  0  0
 18 50  1  0  0  0  0
 18 17  2  0  0  0  0
 19 18  1  0  0  0  0
 20  3  1  0  0  0  0
 21 20  1  0  0  0  0
 21 26  1  0  0  0  0
 22 21  2  0  0  0  0
 23 22  1  0  0  0  0
 23 24  2  0  0  0  0
 24 25  1  0  0  0  0
 25 26  2  0  0  0  0
 25 55  1  0  0  0  0
 26 56  1  0  0  0  0
 27 28  1  0  0  0  0
 28  5  1  0  0  0  0
 28 29  2  0  0  0  0
 29 57  1  0  0  0  0
 30 29  1  0  0  0  0
 30 58  1  0  0  0  0
 31 30  2  0  0  0  0
 32 27  2  0  0  0  0
 32 31  1  0  0  0  0
 33 13  1  0  0  0  0
 33 61  1  1  0  0  0
 34 35  1  0  0  0  0
 34 33  1  0  0  0  0
 35 36  1  0  0  0  0
 36 37  2  0  0  0  0
 36 62  1  0  0  0  0
 37 63  1  0  0  0  0
 38 64  1  0  0  0  0
 38 37  1  0  0  0  0
 39 38  2  0  0  0  0
 40 39  1  0  0  0  0
 40 35  2  0  0  0  0
 41 40  1  0  0  0  0
 42 41  2  0  0  0  0
 42 43  1  0  0  0  0
 43 34  2  0  0  0  0
 45 12  1  0  0  0  0
 47 15  1  0  0  0  0
 51 19  1  0  0  0  0
 52 22  1  0  0  0  0
 53 23  1  0  0  0  0
 54 24  1  0  0  0  0
 59 31  1  0  0  0  0
 60 32  1  0  0  0  0
 65 39  1  0  0  0  0
 66 41  1  0  0  0  0
 67 42  1  0  0  0  0
 68 43  1  0  0  0  0
M  END
