1,3,19,21
 OpenBabel05122313063D

 36 36  0  0  0  0  0  0  0  0999 V2000
    1.5826   -2.2769   -0.2552 S   0  0  0  0  0  1  0  0  0  0  0  0
    3.5417    1.1906   -0.1730 O   0  0  0  0  0  0  0  0  0  0  0  0
    1.3019    0.6097   -0.0371 N   0  0  0  0  0  2  0  0  0  0  0  0
    3.0202   -1.1528    0.0630 C   0  0  0  0  0  0  0  0  0  0  0  0
    2.6391    0.3425   -0.0903 C   0  0  0  0  0  0  0  0  0  0  0  0
    0.7158    1.8910   -0.0390 C   0  0  0  0  0  0  0  0  0  0  0  0
    1.4104    3.1199   -0.0905 C   0  0  0  0  0  0  0  0  0  0  0  0
    2.5035    3.0906   -0.1573 H   0  0  0  0  0  0  0  0  0  0  0  0
    0.6999    4.3306   -0.0460 C   0  0  0  0  0  0  0  0  0  0  0  0
    1.2550    5.2821   -0.0811 H   0  0  0  0  0  0  0  0  0  0  0  0
    4.1336   -1.4856   -0.9366 C   0  0  0  0  0  0  0  0  0  0  0  0
    3.7602   -1.4087   -1.9764 H   0  0  0  0  0  0  0  0  0  0  0  0
    4.5161   -2.5144   -0.7760 H   0  0  0  0  0  0  0  0  0  0  0  0
    4.9614   -0.7573   -0.8032 H   0  0  0  0  0  0  0  0  0  0  0  0
    3.5152   -1.3388    1.5100 C   0  0  0  0  0  0  0  0  0  0  0  0
    4.3680   -0.6552    1.7109 H   0  0  0  0  0  0  0  0  0  0  0  0
    3.8387   -2.3865    1.6764 H   0  0  0  0  0  0  0  0  0  0  0  0
    2.6998   -1.1119    2.2247 H   0  0  0  0  0  0  0  0  0  0  0  0
   -1.5826   -2.2769    0.2552 S   0  0  0  0  0  1  0  0  0  0  0  0
   -3.5417    1.1905    0.1729 O   0  0  0  0  0  0  0  0  0  0  0  0
   -1.3019    0.6097    0.0371 N   0  0  0  0  0  2  0  0  0  0  0  0
   -3.0201   -1.1528   -0.0630 C   0  0  0  0  0  0  0  0  0  0  0  0
   -2.6391    0.3425    0.0905 C   0  0  0  0  0  0  0  0  0  0  0  0
   -0.7158    1.8910    0.0391 C   0  0  0  0  0  0  0  0  0  0  0  0
   -1.4104    3.1199    0.0906 C   0  0  0  0  0  0  0  0  0  0  0  0
   -2.5036    3.0905    0.1574 H   0  0  0  0  0  0  0  0  0  0  0  0
   -0.6999    4.3306    0.0460 C   0  0  0  0  0  0  0  0  0  0  0  0
   -1.2551    5.2820    0.0811 H   0  0  0  0  0  0  0  0  0  0  0  0
   -4.1336   -1.4857    0.9365 C   0  0  0  0  0  0  0  0  0  0  0  0
   -3.7602   -1.4088    1.9764 H   0  0  0  0  0  0  0  0  0  0  0  0
   -4.5161   -2.5145    0.7759 H   0  0  0  0  0  0  0  0  0  0  0  0
   -4.9614   -0.7574    0.8031 H   0  0  0  0  0  0  0  0  0  0  0  0
   -3.5152   -1.3388   -1.5100 C   0  0  0  0  0  0  0  0  0  0  0  0
   -4.3679   -0.6552   -1.7109 H   0  0  0  0  0  0  0  0  0  0  0  0
   -3.8386   -2.3865   -1.6765 H   0  0  0  0  0  0  0  0  0  0  0  0
   -2.6997   -1.1118   -2.2247 H   0  0  0  0  0  0  0  0  0  0  0  0
  1  4  1  0  0  0  0
  2  5  2  0  0  0  0
  4 15  1  0  0  0  0
  5  3  1  0  0  0  0
  5  4  1  0  0  0  0
  6  3  1  0  0  0  0
  6 24  1  0  0  0  0
  7  9  1  0  0  0  0
  7  6  2  0  0  0  0
  8  7  1  0  0  0  0
  9 27  2  0  0  0  0
 10  9  1  0  0  0  0
 11 14  1  0  0  0  0
 11 13  1  0  0  0  0
 11  4  1  0  0  0  0
 12 11  1  0  0  0  0
 15 17  1  0  0  0  0
 15 16  1  0  0  0  0
 15 18  1  0  0  0  0
 21 24  1  0  0  0  0
 21 23  1  0  0  0  0
 22 23  1  0  0  0  0
 22 19  1  0  0  0  0
 22 29  1  0  0  0  0
 23 20  2  0  0  0  0
 24 25  2  0  0  0  0
 25 26  1  0  0  0  0
 27 28  1  0  0  0  0
 27 25  1  0  0  0  0
 29 30  1  0  0  0  0
 31 29  1  0  0  0  0
 32 29  1  0  0  0  0
 33 22  1  0  0  0  0
 34 33  1  0  0  0  0
 35 33  1  0  0  0  0
 36 33  1  0  0  0  0
M  END
