1,2,5,6
 OpenBabel05122313063D

 28 27  0  0  0  0  0  0  0  0999 V2000
    1.6886   -1.5531   -0.5513 S   0  0  0  0  0  0  0  0  0  0  0  0
   -1.6644   -1.6460   -0.3638 S   0  0  0  0  0  0  0  0  0  0  0  0
    3.3934    1.9436    0.0611 O   0  0  0  0  0  0  0  0  0  0  0  0
   -3.4388    1.8962   -0.2097 O   0  0  0  0  0  0  0  0  0  0  0  0
    1.2302    1.1201    0.1767 N   0  0  0  0  0  2  0  0  0  0  0  0
   -1.2841    1.1149    0.0863 N   0  0  0  0  0  2  0  0  0  0  0  0
    2.2110   -2.0025    1.1443 C   0  0  0  0  0  0  0  0  0  0  0  0
    2.9195   -0.2303   -0.8818 C   0  0  0  0  0  0  0  0  0  0  0  0
    2.5453    1.0712   -0.1485 C   0  0  0  0  0  0  0  0  0  0  0  0
    0.6656    2.2875    0.8526 C   0  0  0  0  0  0  0  0  0  0  0  0
   -0.7476    2.4628    0.3083 C   0  0  0  0  0  0  0  0  0  0  0  0
   -2.5997    0.9904   -0.2209 C   0  0  0  0  0  0  0  0  0  0  0  0
   -3.0015   -0.4265   -0.6641 C   0  0  0  0  0  0  0  0  0  0  0  0
   -1.9641   -1.9587    1.4154 C   0  0  0  0  0  0  0  0  0  0  0  0
    3.1901   -2.5185    1.1045 H   0  0  0  0  0  0  0  0  0  0  0  0
    2.2669   -1.0904    1.7680 H   0  0  0  0  0  0  0  0  0  0  0  0
    1.4484   -2.6915    1.5523 H   0  0  0  0  0  0  0  0  0  0  0  0
    3.9311   -0.5742   -0.5904 H   0  0  0  0  0  0  0  0  0  0  0  0
    2.9106   -0.0728   -1.9795 H   0  0  0  0  0  0  0  0  0  0  0  0
    0.6319    2.1046    1.9519 H   0  0  0  0  0  0  0  0  0  0  0  0
    1.3087    3.1761    0.6847 H   0  0  0  0  0  0  0  0  0  0  0  0
   -1.4032    3.0387    0.9947 H   0  0  0  0  0  0  0  0  0  0  0  0
   -0.7290    3.0179   -0.6577 H   0  0  0  0  0  0  0  0  0  0  0  0
   -3.9358   -0.7572   -0.1686 H   0  0  0  0  0  0  0  0  0  0  0  0
   -3.1809   -0.4298   -1.7585 H   0  0  0  0  0  0  0  0  0  0  0  0
   -1.1113   -2.5498    1.7974 H   0  0  0  0  0  0  0  0  0  0  0  0
   -2.0194   -0.9923    1.9509 H   0  0  0  0  0  0  0  0  0  0  0  0
   -2.8999   -2.5389    1.5353 H   0  0  0  0  0  0  0  0  0  0  0  0
  1  7  1  0  0  0  0
  2 14  1  0  0  0  0
  5 10  1  0  0  0  0
  6 11  1  0  0  0  0
  7 17  1  0  0  0  0
  7 16  1  0  0  0  0
  8 18  1  0  0  0  0
  8  1  1  0  0  0  0
  8  9  1  0  0  0  0
  9  3  2  0  0  0  0
  9  5  1  0  0  0  0
 10 20  1  0  0  0  0
 11 10  1  0  0  0  0
 11 22  1  0  0  0  0
 12  4  2  0  0  0  0
 12  6  1  0  0  0  0
 13  2  1  0  0  0  0
 13 12  1  0  0  0  0
 13 24  1  0  0  0  0
 14 28  1  0  0  0  0
 14 26  1  0  0  0  0
 14 27  1  0  0  0  0
 15  7  1  0  0  0  0
 19  8  1  0  0  0  0
 21 10  1  0  0  0  0
 23 11  1  0  0  0  0
 25 13  1  0  0  0  0
M  END
