1,2,3,4
 OpenBabel05122313063D

 63 64  0  0  1  0  0  0  0  0999 V2000
   -3.8872    0.6117   -1.4371 S   0  0  0  0  0  1  0  0  0  0  0  0
   -1.6062    2.5392   -0.3231 S   0  0  0  0  0  1  0  0  0  0  0  0
   -2.8655   -0.8409    0.7617 N   0  0  0  0  0  2  0  0  0  0  0  0
   -0.5180    0.2614    1.2300 N   0  0  0  0  0  0  0  0  0  0  0  0
    1.2215   -1.7099    0.9263 N   0  0  0  0  0  0  0  0  0  0  0  0
   -6.2625   -0.7397   -0.9291 C   0  0  0  0  0  0  0  0  0  0  0  0
   -4.2877   -2.1440   -1.6597 C   0  0  0  0  0  0  0  0  0  0  0  0
   -4.7505   -0.9453   -0.8242 C   0  0  0  0  0  0  0  0  0  0  0  0
   -4.3000   -1.0742    0.6357 C   0  0  0  0  0  0  0  0  0  0  0  0
   -2.3358   -1.1303    2.0861 C   0  0  0  0  0  0  0  0  0  0  0  0
   -0.8247   -0.9260    2.0648 C   0  0  1  0  0  0  0  0  0  0  0  0
   -0.3843    1.5586    1.9161 C   0  0  0  0  0  0  0  0  0  0  0  0
   -0.1689    2.6734    0.8886 C   0  0  0  0  0  0  0  0  0  0  0  0
   -0.2490    4.0453    1.5628 C   0  0  0  0  0  0  0  0  0  0  0  0
    1.1578    2.5040    0.1359 C   0  0  0  0  0  0  0  0  0  0  0  0
   -0.0899   -2.1214    1.4003 C   0  0  0  0  0  0  0  0  0  0  0  0
    2.2650   -1.6794    1.9489 C   0  0  0  0  0  0  0  0  0  0  0  0
    3.4740   -0.8808    1.4612 C   0  0  0  0  0  0  0  0  0  0  0  0
    4.0138   -1.4271    0.1233 C   0  0  1  0  0  0  0  0  0  0  0  0
    2.8611   -1.5518   -0.8931 C   0  0  0  0  0  0  0  0  0  0  0  0
    1.6775   -2.3290   -0.3203 C   0  0  0  0  0  0  0  0  0  0  0  0
    5.1733   -0.6015   -0.4015 C   0  0  0  0  0  0  0  0  0  0  0  0
    6.4647   -1.1539   -0.5046 C   0  0  0  0  0  0  0  0  0  0  0  0
    7.5432   -0.3922   -0.9812 C   0  0  0  0  0  0  0  0  0  0  0  0
    7.3461    0.9429   -1.3644 C   0  0  0  0  0  0  0  0  0  0  0  0
    6.0640    1.5078   -1.2674 C   0  0  0  0  0  0  0  0  0  0  0  0
    4.9900    0.7427   -0.7909 C   0  0  0  0  0  0  0  0  0  0  0  0
    0.4066   -0.0152    0.8002 H   0  0  0  0  0  0  0  0  0  0  0  0
   -6.5868    0.1518   -0.3562 H   0  0  0  0  0  0  0  0  0  0  0  0
   -6.8065   -1.6259   -0.5372 H   0  0  0  0  0  0  0  0  0  0  0  0
   -6.5660   -0.5980   -1.9857 H   0  0  0  0  0  0  0  0  0  0  0  0
   -3.1910   -2.2797   -1.5815 H   0  0  0  0  0  0  0  0  0  0  0  0
   -4.5374   -1.9972   -2.7290 H   0  0  0  0  0  0  0  0  0  0  0  0
   -4.7858   -3.0750   -1.3110 H   0  0  0  0  0  0  0  0  0  0  0  0
   -4.5496   -2.0955    1.0178 H   0  0  0  0  0  0  0  0  0  0  0  0
   -4.8730   -0.3490    1.2663 H   0  0  0  0  0  0  0  0  0  0  0  0
   -2.8127   -0.4766    2.8600 H   0  0  0  0  0  0  0  0  0  0  0  0
   -2.5647   -2.1799    2.3946 H   0  0  0  0  0  0  0  0  0  0  0  0
   -0.4386   -0.7652    3.0962 H   0  0  0  0  0  0  0  0  0  0  0  0
   -1.3126    1.7568    2.4899 H   0  0  0  0  0  0  0  0  0  0  0  0
    0.4669    1.5158    2.6369 H   0  0  0  0  0  0  0  0  0  0  0  0
   -0.1671    4.8522    0.8080 H   0  0  0  0  0  0  0  0  0  0  0  0
    0.5781    4.1765    2.2933 H   0  0  0  0  0  0  0  0  0  0  0  0
   -1.2131    4.1740    2.0939 H   0  0  0  0  0  0  0  0  0  0  0  0
    1.1954    1.5464   -0.4227 H   0  0  0  0  0  0  0  0  0  0  0  0
    2.0217    2.5429    0.8362 H   0  0  0  0  0  0  0  0  0  0  0  0
    1.2818    3.3141   -0.6087 H   0  0  0  0  0  0  0  0  0  0  0  0
   -0.6883   -2.4429    0.5249 H   0  0  0  0  0  0  0  0  0  0  0  0
   -0.0543   -2.9749    2.1191 H   0  0  0  0  0  0  0  0  0  0  0  0
    1.8535   -1.2195    2.8717 H   0  0  0  0  0  0  0  0  0  0  0  0
    2.5790   -2.7213    2.2243 H   0  0  0  0  0  0  0  0  0  0  0  0
    3.1735    0.1811    1.3290 H   0  0  0  0  0  0  0  0  0  0  0  0
    4.2749   -0.8958    2.2287 H   0  0  0  0  0  0  0  0  0  0  0  0
    4.3949   -2.4550    0.3195 H   0  0  0  0  0  0  0  0  0  0  0  0
    3.2236   -2.0440   -1.8184 H   0  0  0  0  0  0  0  0  0  0  0  0
    2.5050   -0.5416   -1.1873 H   0  0  0  0  0  0  0  0  0  0  0  0
    1.9698   -3.3987   -0.1498 H   0  0  0  0  0  0  0  0  0  0  0  0
    0.8335   -2.3108   -1.0369 H   0  0  0  0  0  0  0  0  0  0  0  0
    6.6244   -2.2027   -0.2060 H   0  0  0  0  0  0  0  0  0  0  0  0
    8.5435   -0.8461   -1.0546 H   0  0  0  0  0  0  0  0  0  0  0  0
    8.1891    1.5426   -1.7398 H   0  0  0  0  0  0  0  0  0  0  0  0
    5.8979    2.5536   -1.5681 H   0  0  0  0  0  0  0  0  0  0  0  0
    3.9903    1.2007   -0.7250 H   0  0  0  0  0  0  0  0  0  0  0  0
  1  8  1  0  0  0  0
  2 13  1  0  0  0  0
  3 10  1  0  0  0  0
  4 12  1  0  0  0  0
  4 11  1  0  0  0  0
  5 16  1  0  0  0  0
  5 17  1  0  0  0  0
  6  8  1  0  0  0  0
  6 30  1  0  0  0  0
  6 29  1  0  0  0  0
  7 32  1  0  0  0  0
  7 34  1  0  0  0  0
  7  8  1  0  0  0  0
  8  9  1  0  0  0  0
  9  3  1  0  0  0  0
  9 35  1  0  0  0  0
  9 36  1  0  0  0  0
 10 38  1  0  0  0  0
 10 37  1  0  0  0  0
 11 10  1  0  0  0  0
 11 39  1  1  0  0  0
 12 40  1  0  0  0  0
 12 41  1  0  0  0  0
 13 14  1  0  0  0  0
 13 12  1  0  0  0  0
 14 44  1  0  0  0  0
 14 43  1  0  0  0  0
 15 46  1  0  0  0  0
 15 13  1  0  0  0  0
 16 11  1  0  0  0  0
 16 49  1  0  0  0  0
 17 51  1  0  0  0  0
 17 50  1  0  0  0  0
 18 17  1  0  0  0  0
 18 53  1  0  0  0  0
 19 54  1  1  0  0  0
 19 18  1  0  0  0  0
 20 21  1  0  0  0  0
 20 19  1  0  0  0  0
 21 57  1  0  0  0  0
 21  5  1  0  0  0  0
 22 19  1  0  0  0  0
 23 22  1  0  0  0  0
 23 59  1  0  0  0  0
 24 23  2  0  0  0  0
 25 26  2  0  0  0  0
 25 24  1  0  0  0  0
 26 27  1  0  0  0  0
 27 63  1  0  0  0  0
 27 22  2  0  0  0  0
 28  4  1  0  0  0  0
 31  6  1  0  0  0  0
 33  7  1  0  0  0  0
 42 14  1  0  0  0  0
 45 15  1  0  0  0  0
 47 15  1  0  0  0  0
 48 16  1  0  0  0  0
 52 18  1  0  0  0  0
 55 20  1  0  0  0  0
 56 20  1  0  0  0  0
 58 21  1  0  0  0  0
 60 24  1  0  0  0  0
 61 25  1  0  0  0  0
 62 26  1  0  0  0  0
M  END
