10,18,27,39
 OpenBabel05122313063D

 44 45  0  0  1  0  0  0  0  0999 V2000
    3.1975   -0.6370    0.7599 C   0  0  0  0  0  0  0  0  0  0  0  0
    2.8037    0.5913    0.1446 C   0  0  2  0  0  3  0  0  0  0  0  0
    3.7896    1.6366    0.0586 C   0  0  0  0  0  0  0  0  0  0  0  0
    5.0813    1.4524    0.5616 C   0  0  0  0  0  0  0  0  0  0  0  0
    5.8222    2.2595    0.4867 H   0  0  0  0  0  0  0  0  0  0  0  0
    5.4474    0.2299    1.1736 C   0  0  0  0  0  0  0  0  0  0  0  0
    6.4669    0.1039    1.5663 H   0  0  0  0  0  0  0  0  0  0  0  0
    4.5224   -0.7951    1.2737 C   0  0  0  0  0  0  0  0  0  0  0  0
    4.7940   -1.7515    1.7458 H   0  0  0  0  0  0  0  0  0  0  0  0
    1.2209    0.9789   -0.4629 S   0  0  0  0  0  1  0  0  0  0  0  0
    3.3601    2.7807   -0.5337 O   0  0  0  0  0  0  0  0  0  0  0  0
    4.2569    3.8652   -0.6516 C   0  0  0  0  0  0  0  0  0  0  0  0
    4.6059    4.2256    0.3427 H   0  0  0  0  0  0  0  0  0  0  0  0
    3.6989    4.6770   -1.1537 H   0  0  0  0  0  0  0  0  0  0  0  0
    5.1474    3.6032   -1.2671 H   0  0  0  0  0  0  0  0  0  0  0  0
    2.3232   -1.7601    0.8980 C   0  0  0  0  0  0  0  0  0  0  0  0
    2.7137   -2.6399    1.4391 H   0  0  0  0  0  0  0  0  0  0  0  0
    1.0907   -1.8818    0.4480 N   0  0  0  0  0  2  0  0  0  0  0  0
    0.5691   -3.1584    0.8425 O   0  0  0  0  0  0  0  0  0  0  0  0
    0.6205   -4.0783   -0.2422 C   0  0  0  0  0  0  0  0  0  0  0  0
    0.1570   -4.9985    0.1667 H   0  0  0  0  0  0  0  0  0  0  0  0
    1.6752   -4.3082   -0.5332 H   0  0  0  0  0  0  0  0  0  0  0  0
   -0.1542   -3.5864   -1.4567 C   0  0  0  0  0  0  0  0  0  0  0  0
    0.3452   -2.7072   -1.9232 H   0  0  0  0  0  0  0  0  0  0  0  0
   -0.2384   -4.3912   -2.2141 H   0  0  0  0  0  0  0  0  0  0  0  0
   -1.4896   -3.2494   -1.1139 O   0  0  0  0  0  0  0  0  0  0  0  0
   -1.5776   -2.0020   -0.4821 N   0  0  0  0  0  2  0  0  0  0  0  0
   -2.7498   -1.8446    0.0739 C   0  0  0  0  0  3  0  0  0  0  0  0
   -3.3971   -2.7379    0.1259 H   0  0  0  0  0  0  0  0  0  0  0  0
   -3.2702   -0.5709    0.5101 C   0  0  0  0  0  0  0  0  0  0  0  0
   -2.8192    0.6433   -0.0961 C   0  0  0  0  0  0  0  0  0  0  0  0
   -3.5130    1.8518    0.2378 C   0  0  0  0  0  0  0  0  0  0  0  0
   -4.5512    1.8441    1.1822 C   0  0  0  0  0  0  0  0  0  0  0  0
   -5.0542    2.7810    1.4563 H   0  0  0  0  0  0  0  0  0  0  0  0
   -4.9596    0.6376    1.7881 C   0  0  0  0  0  0  0  0  0  0  0  0
   -5.7769    0.6501    2.5239 H   0  0  0  0  0  0  0  0  0  0  0  0
   -4.3386   -0.5585    1.4460 C   0  0  0  0  0  0  0  0  0  0  0  0
   -4.6647   -1.5082    1.8960 H   0  0  0  0  0  0  0  0  0  0  0  0
   -1.5495    0.7291   -1.2970 S   0  0  0  0  0  1  0  0  0  0  0  0
   -3.0865    2.9652   -0.4111 O   0  0  0  0  0  0  0  0  0  0  0  0
   -3.7024    4.2015   -0.1170 C   0  0  0  0  0  0  0  0  0  0  0  0
   -4.7887    4.1952   -0.3625 H   0  0  0  0  0  0  0  0  0  0  0  0
   -3.1957    4.9577   -0.7446 H   0  0  0  0  0  0  0  0  0  0  0  0
   -3.5818    4.4818    0.9541 H   0  0  0  0  0  0  0  0  0  0  0  0
  1 16  2  0  0  0  0
  1  8  1  0  0  0  0
  2 10  1  1  0  0  0
  2  1  1  0  0  0  0
  3  2  1  0  0  0  0
  3  4  2  0  0  0  0
  4  6  1  0  0  0  0
  5  4  1  0  0  0  0
  6  8  2  0  0  0  0
  6  7  1  0  0  0  0
  8  9  1  0  0  0  0
 11  3  1  0  0  0  0
 12 11  1  0  0  0  0
 12 13  1  0  0  0  0
 14 12  1  0  0  0  0
 15 12  1  0  0  0  0
 16 17  1  0  0  0  0
 18 19  1  0  0  0  0
 18 16  1  0  0  0  0
 20 21  1  0  0  0  0
 20 19  1  0  0  0  0
 22 20  1  0  0  0  0
 23 26  1  0  0  0  0
 23 20  1  0  0  0  0
 24 23  1  0  0  0  0
 25 23  1  0  0  0  0
 26 27  1  0  0  0  0
 27 28  1  0  0  0  0
 28 29  1  0  0  0  0
 28 30  1  0  0  0  0
 30 37  1  0  0  0  0
 31 32  1  0  0  0  0
 31 30  2  0  0  0  0
 32 33  2  0  0  0  0
 33 34  1  0  0  0  0
 33 35  1  0  0  0  0
 35 36  1  0  0  0  0
 37 35  2  0  0  0  0
 37 38  1  0  0  0  0
 39 31  1  0  0  0  0
 40 41  1  0  0  0  0
 40 32  1  0  0  0  0
 41 44  1  0  0  0  0
 42 41  1  0  0  0  0
 43 41  1  0  0  0  0
M  END
