1,2,3,4
 OpenBabel05122313063D

 72 73  0  0  0  0  0  0  0  0999 V2000
    1.8597    0.1529    1.4906 S   0  0  0  0  0  0  0  0  0  0  0  0
   -1.2629    0.3406    0.0363 S   0  0  0  0  0  0  0  0  0  0  0  0
    2.2928   -0.7342   -1.6986 N   0  0  0  0  0  2  0  0  0  0  0  0
   -0.3913   -0.7414   -2.5837 N   0  0  0  0  0  2  0  0  0  0  0  0
    2.1129    1.9234    1.9827 C   0  0  0  0  0  0  0  0  0  0  0  0
    0.7500    2.5664    2.2306 C   0  0  0  0  0  0  0  0  0  0  0  0
   -0.0464    1.9687    3.3980 C   0  0  0  0  0  0  0  0  0  0  0  0
   -1.5298    2.3581    3.4047 C   0  0  0  0  0  0  0  0  0  0  0  0
   -1.8161    3.8628    3.4471 C   0  0  0  0  0  0  0  0  0  0  0  0
   -3.3110    4.1852    3.4695 C   0  0  0  0  0  0  0  0  0  0  0  0
   -2.3102   -1.1677   -0.0147 C   0  0  0  0  0  0  0  0  0  0  0  0
   -3.7484   -0.9051    0.4144 C   0  0  0  0  0  0  0  0  0  0  0  0
   -4.6031   -2.1818    0.3798 C   0  0  0  0  0  0  0  0  0  0  0  0
   -4.1465   -3.2883    1.3363 C   0  0  0  0  0  0  0  0  0  0  0  0
   -5.0695   -4.5106    1.3419 C   0  0  0  0  0  0  0  0  0  0  0  0
   -4.6079   -5.6166    2.2913 C   0  0  0  0  0  0  0  0  0  0  0  0
    3.5525   -0.3564    1.2583 C   0  0  0  0  0  0  0  0  0  0  0  0
    4.3696   -0.3101    2.4080 C   0  0  0  0  0  0  0  0  0  0  0  0
    5.7122   -0.7006    2.3849 C   0  0  0  0  0  0  0  0  0  0  0  0
    6.2746   -1.1761    1.1894 C   0  0  0  0  0  0  0  0  0  0  0  0
    5.4801   -1.2366    0.0460 C   0  0  0  0  0  0  0  0  0  0  0  0
    4.1150   -0.8322    0.0312 C   0  0  0  0  0  0  0  0  0  0  0  0
    3.5038   -0.9420   -1.2917 C   0  0  0  0  0  3  0  0  0  0  0  0
    1.9817   -0.8737   -3.1259 C   0  0  0  0  0  0  0  0  0  0  0  0
    0.5988   -1.5091   -3.3212 C   0  0  0  0  0  0  0  0  0  0  0  0
   -1.0941    0.1425   -3.2376 C   0  0  0  0  0  3  0  0  0  0  0  0
   -1.9913    1.0982   -2.6134 C   0  0  0  0  0  0  0  0  0  0  0  0
   -2.7447    1.9513   -3.4618 C   0  0  0  0  0  0  0  0  0  0  0  0
   -3.5334    2.9887   -2.9631 C   0  0  0  0  0  0  0  0  0  0  0  0
   -3.5756    3.2319   -1.5776 C   0  0  0  0  0  0  0  0  0  0  0  0
   -2.8437    2.4089   -0.7115 C   0  0  0  0  0  0  0  0  0  0  0  0
   -2.0767    1.3391   -1.2059 C   0  0  0  0  0  0  0  0  0  0  0  0
    2.7580    1.9568    2.8852 H   0  0  0  0  0  0  0  0  0  0  0  0
    2.6263    2.4155    1.1336 H   0  0  0  0  0  0  0  0  0  0  0  0
    0.1644    2.5012    1.2883 H   0  0  0  0  0  0  0  0  0  0  0  0
    0.9257    3.6514    2.3947 H   0  0  0  0  0  0  0  0  0  0  0  0
    0.4309    2.2606    4.3612 H   0  0  0  0  0  0  0  0  0  0  0  0
    0.0232    0.8600    3.3522 H   0  0  0  0  0  0  0  0  0  0  0  0
   -2.0056    1.9223    2.4971 H   0  0  0  0  0  0  0  0  0  0  0  0
   -2.0299    1.8692    4.2700 H   0  0  0  0  0  0  0  0  0  0  0  0
   -1.3494    4.3558    2.5667 H   0  0  0  0  0  0  0  0  0  0  0  0
   -1.3211    4.3078    4.3396 H   0  0  0  0  0  0  0  0  0  0  0  0
   -3.4995    5.2775    3.4973 H   0  0  0  0  0  0  0  0  0  0  0  0
   -3.8092    3.7357    4.3540 H   0  0  0  0  0  0  0  0  0  0  0  0
   -3.8219    3.7820    2.5690 H   0  0  0  0  0  0  0  0  0  0  0  0
   -2.2218   -1.5811   -1.0397 H   0  0  0  0  0  0  0  0  0  0  0  0
   -1.7727   -1.8615    0.6600 H   0  0  0  0  0  0  0  0  0  0  0  0
   -4.2048   -0.1406   -0.2491 H   0  0  0  0  0  0  0  0  0  0  0  0
   -3.7562   -0.4758    1.4408 H   0  0  0  0  0  0  0  0  0  0  0  0
   -5.6543   -1.9066    0.6169 H   0  0  0  0  0  0  0  0  0  0  0  0
   -4.6230   -2.5793   -0.6601 H   0  0  0  0  0  0  0  0  0  0  0  0
   -3.1163   -3.6167    1.0747 H   0  0  0  0  0  0  0  0  0  0  0  0
   -4.0756   -2.8744    2.3684 H   0  0  0  0  0  0  0  0  0  0  0  0
   -6.1006   -4.1891    1.6118 H   0  0  0  0  0  0  0  0  0  0  0  0
   -5.1446   -4.9127    0.3068 H   0  0  0  0  0  0  0  0  0  0  0  0
   -5.2928   -6.4883    2.2729 H   0  0  0  0  0  0  0  0  0  0  0  0
   -4.5574   -5.2528    3.3391 H   0  0  0  0  0  0  0  0  0  0  0  0
   -3.5944   -5.9805    2.0220 H   0  0  0  0  0  0  0  0  0  0  0  0
    3.9169    0.0224    3.3538 H   0  0  0  0  0  0  0  0  0  0  0  0
    6.3114   -0.6530    3.3066 H   0  0  0  0  0  0  0  0  0  0  0  0
    7.3243   -1.5019    1.1514 H   0  0  0  0  0  0  0  0  0  0  0  0
    5.9181   -1.6070   -0.8941 H   0  0  0  0  0  0  0  0  0  0  0  0
    4.2225   -1.2670   -2.0724 H   0  0  0  0  0  0  0  0  0  0  0  0
    2.7700   -1.4677   -3.6385 H   0  0  0  0  0  0  0  0  0  0  0  0
    1.9711    0.1554   -3.5484 H   0  0  0  0  0  0  0  0  0  0  0  0
    0.3830   -1.5483   -4.4141 H   0  0  0  0  0  0  0  0  0  0  0  0
    0.6157   -2.5422   -2.9123 H   0  0  0  0  0  0  0  0  0  0  0  0
   -0.9765    0.2601   -4.3402 H   0  0  0  0  0  0  0  0  0  0  0  0
   -2.6807    1.7856   -4.5492 H   0  0  0  0  0  0  0  0  0  0  0  0
   -4.1067    3.6234   -3.6552 H   0  0  0  0  0  0  0  0  0  0  0  0
   -4.1757    4.0592   -1.1708 H   0  0  0  0  0  0  0  0  0  0  0  0
   -2.8662    2.5867    0.3742 H   0  0  0  0  0  0  0  0  0  0  0  0
  1  5  1  0  0  0  0
  3 23  1  0  0  0  0
  5  6  1  0  0  0  0
  5 33  1  0  0  0  0
  6 36  1  0  0  0  0
  6  7  1  0  0  0  0
  7  8  1  0  0  0  0
  7 37  1  0  0  0  0
  8  9  1  0  0  0  0
  8 40  1  0  0  0  0
  9 10  1  0  0  0  0
  9 42  1  0  0  0  0
 10 43  1  0  0  0  0
 10 44  1  0  0  0  0
 11  2  1  0  0  0  0
 11 12  1  0  0  0  0
 11 47  1  0  0  0  0
 12 49  1  0  0  0  0
 13 12  1  0  0  0  0
 13 50  1  0  0  0  0
 13 14  1  0  0  0  0
 14 15  1  0  0  0  0
 14 53  1  0  0  0  0
 15 54  1  0  0  0  0
 15 16  1  0  0  0  0
 16 57  1  0  0  0  0
 17  1  1  0  0  0  0
 17 18  1  0  0  0  0
 18 59  1  0  0  0  0
 19 18  2  0  0  0  0
 19 60  1  0  0  0  0
 20 19  1  0  0  0  0
 21 20  2  0  0  0  0
 22 21  1  0  0  0  0
 22 17  2  0  0  0  0
 23 22  1  0  0  0  0
 24  3  1  0  0  0  0
 25 24  1  0  0  0  0
 25 67  1  0  0  0  0
 25  4  1  0  0  0  0
 26 27  1  0  0  0  0
 26  4  1  0  0  0  0
 27 32  1  0  0  0  0
 28 29  1  0  0  0  0
 28 27  2  0  0  0  0
 29 30  2  0  0  0  0
 30 71  1  0  0  0  0
 30 31  1  0  0  0  0
 31 72  1  0  0  0  0
 32 31  2  0  0  0  0
 32  2  1  0  0  0  0
 34  5  1  0  0  0  0
 35  6  1  0  0  0  0
 38  7  1  0  0  0  0
 39  8  1  0  0  0  0
 41  9  1  0  0  0  0
 45 10  1  0  0  0  0
 46 11  1  0  0  0  0
 48 12  1  0  0  0  0
 51 13  1  0  0  0  0
 52 14  1  0  0  0  0
 55 15  1  0  0  0  0
 56 16  1  0  0  0  0
 58 16  1  0  0  0  0
 61 20  1  0  0  0  0
 62 21  1  0  0  0  0
 63 23  1  0  0  0  0
 64 24  1  0  0  0  0
 65 24  1  0  0  0  0
 66 25  1  0  0  0  0
 68 26  1  0  0  0  0
 69 28  1  0  0  0  0
 70 29  1  0  0  0  0
M  END
