1,2,3,4
 OpenBabel05122313063D

 53 53  0  0  1  0  0  0  0  0999 V2000
   -0.7395   -2.3177   -1.3275 S   0  0  0  0  0  0  0  0  0  0  0  0
    0.6788   -1.2372    2.4265 S   0  0  0  0  0  0  0  0  0  0  0  0
    2.1837   -2.5079   -0.0464 N   0  0  0  0  0  0  0  0  0  0  0  0
    2.3735    0.2038   -0.7225 N   0  0  0  0  0  2  0  0  0  0  0  0
    1.4941    2.3473   -0.3946 N   0  0  0  0  0  0  0  0  0  0  0  0
    0.5880    1.8676   -0.1839 H   0  0  0  0  0  0  0  0  0  0  0  0
   -1.8571   -2.9545   -0.0343 C   0  0  0  0  0  0  0  0  0  0  0  0
   -2.3273   -3.8877   -0.3978 H   0  0  0  0  0  0  0  0  0  0  0  0
   -2.6329   -2.1788    0.1089 H   0  0  0  0  0  0  0  0  0  0  0  0
   -1.3331   -3.1214    0.9251 H   0  0  0  0  0  0  0  0  0  0  0  0
    0.4791   -3.6836   -1.4719 C   0  0  0  0  0  0  0  0  0  0  0  0
   -0.0819   -4.6351   -1.5624 H   0  0  0  0  0  0  0  0  0  0  0  0
    0.9685   -3.5160   -2.4522 H   0  0  0  0  0  0  0  0  0  0  0  0
    1.4877   -3.7762   -0.3265 C   0  0  0  0  0  0  0  0  0  0  0  0
    0.9595   -4.0841    0.5971 H   0  0  0  0  0  0  0  0  0  0  0  0
    2.2179   -4.5882   -0.5570 H   0  0  0  0  0  0  0  0  0  0  0  0
    1.6100    0.2781    2.8329 C   0  0  0  0  0  0  0  0  0  0  0  0
    1.8258    0.3074    3.9172 H   0  0  0  0  0  0  0  0  0  0  0  0
    0.9435    1.1149    2.5508 H   0  0  0  0  0  0  0  0  0  0  0  0
    2.5442    0.3504    2.2440 H   0  0  0  0  0  0  0  0  0  0  0  0
    1.9771   -2.5262    2.4708 C   0  0  0  0  0  0  0  0  0  0  0  0
    2.5753   -2.4089    3.3963 H   0  0  0  0  0  0  0  0  0  0  0  0
    1.4235   -3.4808    2.5779 H   0  0  0  0  0  0  0  0  0  0  0  0
    2.8961   -2.5180    1.2482 C   0  0  0  0  0  0  0  0  0  0  0  0
    3.5377   -1.6135    1.2715 H   0  0  0  0  0  0  0  0  0  0  0  0
    3.5859   -3.3928    1.3084 H   0  0  0  0  0  0  0  0  0  0  0  0
    3.0893   -2.0887   -1.1331 C   0  0  0  0  0  0  0  0  0  0  0  0
    2.5834   -2.2871   -2.1009 H   0  0  0  0  0  0  0  0  0  0  0  0
    4.0292   -2.6849   -1.1374 H   0  0  0  0  0  0  0  0  0  0  0  0
    3.4092   -0.6094   -1.0674 C   0  0  1  0  0  3  0  0  0  0  0  0
    4.6690   -0.1279   -1.4021 C   0  0  0  0  0  0  0  0  0  0  0  0
    5.4803   -0.8205   -1.6634 H   0  0  0  0  0  0  0  0  0  0  0  0
    4.8607    1.2736   -1.4084 C   0  0  0  0  0  0  0  0  0  0  0  0
    5.8420    1.6941   -1.6745 H   0  0  0  0  0  0  0  0  0  0  0  0
    3.8159    2.1207   -1.0825 C   0  0  0  0  0  0  0  0  0  0  0  0
    3.9533    3.2085   -1.0930 H   0  0  0  0  0  0  0  0  0  0  0  0
    2.5396    1.5721   -0.7290 C   0  0  0  0  0  0  0  0  0  0  0  0
    1.5508    3.8015   -0.3277 C   0  0  0  0  0  0  0  0  0  0  0  0
    1.8172    4.2160   -1.3271 H   0  0  0  0  0  0  0  0  0  0  0  0
    2.3610    4.1093    0.3725 H   0  0  0  0  0  0  0  0  0  0  0  0
    0.2222    4.4383    0.1377 C   0  0  0  0  0  0  0  0  0  0  0  0
    0.4524    5.9591    0.1993 C   0  0  0  0  0  0  0  0  0  0  0  0
   -0.4738    6.4777    0.5166 H   0  0  0  0  0  0  0  0  0  0  0  0
    0.7421    6.3663   -0.7912 H   0  0  0  0  0  0  0  0  0  0  0  0
    1.2500    6.2207    0.9248 H   0  0  0  0  0  0  0  0  0  0  0  0
   -0.9012    4.1297   -0.8704 C   0  0  0  0  0  0  0  0  0  0  0  0
   -1.1094    3.0441   -0.9483 H   0  0  0  0  0  0  0  0  0  0  0  0
   -0.6459    4.5059   -1.8822 H   0  0  0  0  0  0  0  0  0  0  0  0
   -1.8452    4.6187   -0.5576 H   0  0  0  0  0  0  0  0  0  0  0  0
   -0.1619    3.9174    1.5365 C   0  0  0  0  0  0  0  0  0  0  0  0
   -1.0700    4.4361    1.9033 H   0  0  0  0  0  0  0  0  0  0  0  0
    0.6498    4.1029    2.2707 H   0  0  0  0  0  0  0  0  0  0  0  0
   -0.3874    2.8318    1.5206 H   0  0  0  0  0  0  0  0  0  0  0  0
  1  7  1  0  0  0  0
  2 21  1  0  0  0  0
  2 17  1  0  0  0  0
  3 24  1  0  0  0  0
  5 38  1  0  0  0  0
  5  6  1  0  0  0  0
  7  9  1  0  0  0  0
  7 10  1  0  0  0  0
  8  7  1  0  0  0  0
 11  1  1  0  0  0  0
 11 14  1  0  0  0  0
 12 11  1  0  0  0  0
 13 11  1  0  0  0  0
 14  3  1  0  0  0  0
 14 15  1  0  0  0  0
 16 14  1  0  0  0  0
 17 18  1  0  0  0  0
 19 17  1  0  0  0  0
 20 17  1  0  0  0  0
 21 23  1  0  0  0  0
 21 22  1  0  0  0  0
 24 25  1  0  0  0  0
 24 26  1  0  0  0  0
 24 21  1  0  0  0  0
 27  3  1  0  0  0  0
 28 27  1  0  0  0  0
 29 27  1  0  0  0  0
 30 27  1  6  0  0  0
 30  4  1  0  0  0  0
 31 30  1  0  0  0  0
 32 31  1  0  0  0  0
 33 31  2  0  0  0  0
 33 35  1  0  0  0  0
 34 33  1  0  0  0  0
 35 37  2  0  0  0  0
 36 35  1  0  0  0  0
 37  4  1  0  0  0  0
 37  5  1  0  0  0  0
 38 41  1  0  0  0  0
 38 40  1  0  0  0  0
 39 38  1  0  0  0  0
 41 42  1  0  0  0  0
 41 50  1  0  0  0  0
 42 43  1  0  0  0  0
 42 45  1  0  0  0  0
 44 42  1  0  0  0  0
 46 49  1  0  0  0  0
 46 41  1  0  0  0  0
 47 46  1  0  0  0  0
 48 46  1  0  0  0  0
 50 51  1  0  0  0  0
 50 52  1  0  0  0  0
 53 50  1  0  0  0  0
M  END
