1,3,34,36
 OpenBabel05122313063D

 65 66  0  0  0  0  0  0  0  0999 V2000
   -1.4745   -1.3546    0.4882 S   0  0  0  0  0  1  0  0  0  0  0  0
   -4.7181   -3.9917   -0.4750 O   0  0  0  0  0  0  0  0  0  0  0  0
   -1.3348    1.7880    0.6025 N   0  0  0  0  0  2  0  0  0  0  0  0
   -3.0934   -0.7568    0.2261 C   0  0  0  0  0  0  0  0  0  0  0  0
   -4.1331   -1.7099   -0.0460 C   0  0  0  0  0  0  0  0  0  0  0  0
   -5.4751   -1.3160   -0.1363 C   0  0  0  0  0  0  0  0  0  0  0  0
   -6.1897   -2.1279   -0.3491 H   0  0  0  0  0  0  0  0  0  0  0  0
   -5.8978    0.0183    0.0238 C   0  0  0  0  0  0  0  0  0  0  0  0
   -4.8872    0.9514    0.2761 C   0  0  0  0  0  0  0  0  0  0  0  0
   -5.1482    2.0105    0.4178 H   0  0  0  0  0  0  0  0  0  0  0  0
   -3.5086    0.6132    0.3631 C   0  0  0  0  0  0  0  0  0  0  0  0
   -2.6328    1.7166    0.6867 C   0  0  0  0  0  3  0  0  0  0  0  0
   -3.1527    2.6211    1.0681 H   0  0  0  0  0  0  0  0  0  0  0  0
   -0.6707    2.9908    1.1064 C   0  0  0  0  0  0  0  0  0  0  0  0
    0.0962    2.6564    1.8349 H   0  0  0  0  0  0  0  0  0  0  0  0
   -1.3928    3.6273    1.6632 H   0  0  0  0  0  0  0  0  0  0  0  0
    0.0000    3.8197   -0.0000 C   0  0  0  0  0  0  0  0  0  0  0  0
    0.7479    4.4813    0.4842 H   0  0  0  0  0  0  0  0  0  0  0  0
   -3.8472   -3.1524   -0.2931 C   0  0  0  0  0  0  0  0  0  0  0  0
   -2.7555   -3.4238   -0.3222 H   0  0  0  0  0  0  0  0  0  0  0  0
   -7.3869    0.3810   -0.0793 C   0  0  0  0  0  0  0  0  0  0  0  0
   -8.1723   -0.4063    0.9941 C   0  0  0  0  0  0  0  0  0  0  0  0
   -7.8235   -0.1442    2.0135 H   0  0  0  0  0  0  0  0  0  0  0  0
   -8.0542   -1.5006    0.8677 H   0  0  0  0  0  0  0  0  0  0  0  0
   -9.2553   -0.1743    0.9289 H   0  0  0  0  0  0  0  0  0  0  0  0
   -7.9027   -0.0069   -1.4838 C   0  0  0  0  0  0  0  0  0  0  0  0
   -8.9828    0.2287   -1.5783 H   0  0  0  0  0  0  0  0  0  0  0  0
   -7.7756   -1.0896   -1.6817 H   0  0  0  0  0  0  0  0  0  0  0  0
   -7.3576    0.5477   -2.2742 H   0  0  0  0  0  0  0  0  0  0  0  0
   -7.6315    1.8839    0.1365 C   0  0  0  0  0  0  0  0  0  0  0  0
   -7.2997    2.2165    1.1412 H   0  0  0  0  0  0  0  0  0  0  0  0
   -8.7149    2.1036    0.0559 H   0  0  0  0  0  0  0  0  0  0  0  0
   -7.1108    2.5009   -0.6240 H   0  0  0  0  0  0  0  0  0  0  0  0
    1.4745   -1.3546   -0.4883 S   0  0  0  0  0  1  0  0  0  0  0  0
    4.7181   -3.9917    0.4750 O   0  0  0  0  0  0  0  0  0  0  0  0
    1.3348    1.7880   -0.6026 N   0  0  0  0  0  2  0  0  0  0  0  0
    3.0934   -0.7568   -0.2261 C   0  0  0  0  0  0  0  0  0  0  0  0
    4.1331   -1.7099    0.0460 C   0  0  0  0  0  0  0  0  0  0  0  0
    5.4751   -1.3160    0.1364 C   0  0  0  0  0  0  0  0  0  0  0  0
    6.1897   -2.1279    0.3491 H   0  0  0  0  0  0  0  0  0  0  0  0
    5.8978    0.0183   -0.0237 C   0  0  0  0  0  0  0  0  0  0  0  0
    4.8872    0.9514   -0.2760 C   0  0  0  0  0  0  0  0  0  0  0  0
    5.1482    2.0105   -0.4177 H   0  0  0  0  0  0  0  0  0  0  0  0
    3.5086    0.6132   -0.3631 C   0  0  0  0  0  0  0  0  0  0  0  0
    2.6328    1.7166   -0.6867 C   0  0  0  0  0  3  0  0  0  0  0  0
    3.1527    2.6211   -1.0681 H   0  0  0  0  0  0  0  0  0  0  0  0
    0.6707    2.9908   -1.1065 C   0  0  0  0  0  0  0  0  0  0  0  0
   -0.0962    2.6564   -1.8349 H   0  0  0  0  0  0  0  0  0  0  0  0
    1.3929    3.6274   -1.6632 H   0  0  0  0  0  0  0  0  0  0  0  0
   -0.7479    4.4813   -0.4842 H   0  0  0  0  0  0  0  0  0  0  0  0
    3.8472   -3.1524    0.2931 C   0  0  0  0  0  0  0  0  0  0  0  0
    2.7555   -3.4238    0.3222 H   0  0  0  0  0  0  0  0  0  0  0  0
    7.3869    0.3810    0.0794 C   0  0  0  0  0  0  0  0  0  0  0  0
    8.1723   -0.4063   -0.9940 C   0  0  0  0  0  0  0  0  0  0  0  0
    7.8235   -0.1442   -2.0134 H   0  0  0  0  0  0  0  0  0  0  0  0
    8.0542   -1.5006   -0.8676 H   0  0  0  0  0  0  0  0  0  0  0  0
    9.2554   -0.1743   -0.9287 H   0  0  0  0  0  0  0  0  0  0  0  0
    7.9026   -0.0069    1.4839 C   0  0  0  0  0  0  0  0  0  0  0  0
    8.9827    0.2287    1.5785 H   0  0  0  0  0  0  0  0  0  0  0  0
    7.7756   -1.0896    1.6818 H   0  0  0  0  0  0  0  0  0  0  0  0
    7.3575    0.5477    2.2743 H   0  0  0  0  0  0  0  0  0  0  0  0
    7.6315    1.8839   -0.1364 C   0  0  0  0  0  0  0  0  0  0  0  0
    7.2997    2.2165   -1.1411 H   0  0  0  0  0  0  0  0  0  0  0  0
    8.7149    2.1036   -0.0558 H   0  0  0  0  0  0  0  0  0  0  0  0
    7.1107    2.5009    0.6241 H   0  0  0  0  0  0  0  0  0  0  0  0
  2 19  2  0  0  0  0
  3 12  1  0  0  0  0
  3 14  1  0  0  0  0
  4 11  1  0  0  0  0
  4  1  1  0  0  0  0
  5  4  2  0  0  0  0
  6  5  1  0  0  0  0
  6  8  2  0  0  0  0
  7  6  1  0  0  0  0
  8  9  1  0  0  0  0
  9 11  2  0  0  0  0
  9 10  1  0  0  0  0
 11 12  1  0  0  0  0
 12 13  1  0  0  0  0
 14 16  1  0  0  0  0
 14 15  1  0  0  0  0
 17 18  1  0  0  0  0
 17 14  1  0  0  0  0
 19  5  1  0  0  0  0
 20 19  1  0  0  0  0
 21  8  1  0  0  0  0
 21 30  1  0  0  0  0
 21 22  1  0  0  0  0
 22 23  1  0  0  0  0
 24 22  1  0  0  0  0
 25 22  1  0  0  0  0
 26 21  1  0  0  0  0
 27 26  1  0  0  0  0
 28 26  1  0  0  0  0
 29 26  1  0  0  0  0
 30 31  1  0  0  0  0
 32 30  1  0  0  0  0
 33 30  1  0  0  0  0
 34 37  1  0  0  0  0
 37 38  1  0  0  0  0
 38 39  2  0  0  0  0
 38 51  1  0  0  0  0
 39 40  1  0  0  0  0
 41 53  1  0  0  0  0
 41 39  1  0  0  0  0
 42 41  2  0  0  0  0
 43 42  1  0  0  0  0
 44 42  1  0  0  0  0
 44 37  2  0  0  0  0
 45 36  1  0  0  0  0
 45 44  1  0  0  0  0
 46 45  1  0  0  0  0
 47 36  1  0  0  0  0
 47 17  1  0  0  0  0
 48 47  1  0  0  0  0
 49 47  1  0  0  0  0
 50 17  1  0  0  0  0
 51 52  1  0  0  0  0
 51 35  2  0  0  0  0
 53 58  1  0  0  0  0
 54 57  1  0  0  0  0
 54 56  1  0  0  0  0
 54 53  1  0  0  0  0
 55 54  1  0  0  0  0
 58 59  1  0  0  0  0
 58 60  1  0  0  0  0
 58 61  1  0  0  0  0
 62 64  1  0  0  0  0
 62 53  1  0  0  0  0
 62 65  1  0  0  0  0
 63 62  1  0  0  0  0
M  END
