1,2,3,4
 OpenBabel05122313063D

 48 48  0  0  0  0  0  0  0  0999 V2000
   -1.0490    1.8825    0.3099 S   0  0  0  0  0  1  0  0  0  0  0  0
   -1.9431   -1.3015   -0.3326 S   0  0  0  0  0  0  0  0  0  0  0  0
    0.9184   -1.4189   -0.1507 N   0  0  0  0  0  2  0  0  0  0  0  0
    1.5832    0.9996   -0.3119 N   0  0  0  0  0  2  0  0  0  0  0  0
   -3.2606   -0.5743    0.7244 C   0  0  0  0  0  0  0  0  0  0  0  0
   -4.1894    0.2751   -0.1414 C   0  0  0  0  0  0  0  0  0  0  0  0
   -5.2255    1.0165    0.7049 C   0  0  0  0  0  0  0  0  0  0  0  0
    0.4797    2.8561    0.8653 C   0  0  0  0  0  0  0  0  0  0  0  0
    1.6125    2.4419   -0.0869 C   0  0  0  0  0  0  0  0  0  0  0  0
    0.7927    2.4325    2.3040 C   0  0  0  0  0  0  0  0  0  0  0  0
    0.1692    4.3489    0.7652 C   0  0  0  0  0  0  0  0  0  0  0  0
    2.2876   -1.2147    0.0730 C   0  0  0  0  0  0  0  0  0  0  0  0
    2.6603    0.1652   -0.0041 C   0  0  0  0  0  0  0  0  0  0  0  0
    3.9931    0.5409    0.2357 C   0  0  0  0  0  0  0  0  0  0  0  0
    4.9533   -0.4418    0.5418 C   0  0  0  0  0  0  0  0  0  0  0  0
    4.5908   -1.7945    0.6028 C   0  0  0  0  0  0  0  0  0  0  0  0
    3.2592   -2.1864    0.3632 C   0  0  0  0  0  0  0  0  0  0  0  0
   -1.0628   -2.5419    0.8038 C   0  0  0  0  0  0  0  0  0  0  0  0
    0.3017   -2.7109    0.1061 C   0  0  0  0  0  0  0  0  0  0  0  0
   -1.8591   -3.8456    0.8122 C   0  0  0  0  0  0  0  0  0  0  0  0
   -0.8907   -1.9535    2.2046 C   0  0  0  0  0  0  0  0  0  0  0  0
   -2.7652    0.0463    1.4979 H   0  0  0  0  0  0  0  0  0  0  0  0
   -3.7991   -1.4176    1.2046 H   0  0  0  0  0  0  0  0  0  0  0  0
   -4.6865   -0.3694   -0.8973 H   0  0  0  0  0  0  0  0  0  0  0  0
   -3.5751    1.0095   -0.7056 H   0  0  0  0  0  0  0  0  0  0  0  0
   -5.8993    1.6206    0.0658 H   0  0  0  0  0  0  0  0  0  0  0  0
   -5.8565    0.3155    1.2902 H   0  0  0  0  0  0  0  0  0  0  0  0
   -4.7317    1.7071    1.4188 H   0  0  0  0  0  0  0  0  0  0  0  0
    1.5009    2.9763   -1.0560 H   0  0  0  0  0  0  0  0  0  0  0  0
    2.5850    2.7477    0.3536 H   0  0  0  0  0  0  0  0  0  0  0  0
   -0.0826    2.5917    2.9647 H   0  0  0  0  0  0  0  0  0  0  0  0
    1.0661    1.3589    2.3434 H   0  0  0  0  0  0  0  0  0  0  0  0
    1.6443    3.0225    2.7066 H   0  0  0  0  0  0  0  0  0  0  0  0
   -0.6847    4.6191    1.4185 H   0  0  0  0  0  0  0  0  0  0  0  0
    1.0453    4.9515    1.0879 H   0  0  0  0  0  0  0  0  0  0  0  0
   -0.0887    4.6353   -0.2737 H   0  0  0  0  0  0  0  0  0  0  0  0
    4.2918    1.5966    0.1668 H   0  0  0  0  0  0  0  0  0  0  0  0
    5.9964   -0.1409    0.7202 H   0  0  0  0  0  0  0  0  0  0  0  0
    5.3477   -2.5603    0.8290 H   0  0  0  0  0  0  0  0  0  0  0  0
    2.9901   -3.2520    0.3957 H   0  0  0  0  0  0  0  0  0  0  0  0
    0.9384   -3.3211    0.7830 H   0  0  0  0  0  0  0  0  0  0  0  0
    0.1734   -3.2966   -0.8341 H   0  0  0  0  0  0  0  0  0  0  0  0
   -2.8665   -3.7024    1.2516 H   0  0  0  0  0  0  0  0  0  0  0  0
   -1.9787   -4.2543   -0.2102 H   0  0  0  0  0  0  0  0  0  0  0  0
   -1.3338   -4.6024    1.4317 H   0  0  0  0  0  0  0  0  0  0  0  0
   -1.8603   -1.8107    2.7182 H   0  0  0  0  0  0  0  0  0  0  0  0
   -0.2890   -2.6557    2.8178 H   0  0  0  0  0  0  0  0  0  0  0  0
   -0.3591   -0.9820    2.1697 H   0  0  0  0  0  0  0  0  0  0  0  0
  1  8  1  0  0  0  0
  2  5  1  0  0  0  0
  2 18  1  0  0  0  0
  3 12  1  0  0  0  0
  3 19  1  0  0  0  0
  4  9  1  0  0  0  0
  4 13  1  0  0  0  0
  5 23  1  0  0  0  0
  5 22  1  0  0  0  0
  6  7  1  0  0  0  0
  6  5  1  0  0  0  0
  7 27  1  0  0  0  0
  7 28  1  0  0  0  0
  8 10  1  0  0  0  0
  9 30  1  0  0  0  0
  9  8  1  0  0  0  0
 10 32  1  0  0  0  0
 10 33  1  0  0  0  0
 10 31  1  0  0  0  0
 11  8  1  0  0  0  0
 11 35  1  0  0  0  0
 11 34  1  0  0  0  0
 12 17  1  0  0  0  0
 13 12  2  0  0  0  0
 13 14  1  0  0  0  0
 14 15  2  0  0  0  0
 15 16  1  0  0  0  0
 15 38  1  0  0  0  0
 16 39  1  0  0  0  0
 17 40  1  0  0  0  0
 17 16  2  0  0  0  0
 18 20  1  0  0  0  0
 18 21  1  0  0  0  0
 19 41  1  0  0  0  0
 19 18  1  0  0  0  0
 20 43  1  0  0  0  0
 20 45  1  0  0  0  0
 21 46  1  0  0  0  0
 21 47  1  0  0  0  0
 24  6  1  0  0  0  0
 25  6  1  0  0  0  0
 26  7  1  0  0  0  0
 29  9  1  0  0  0  0
 36 11  1  0  0  0  0
 37 14  1  0  0  0  0
 42 19  1  0  0  0  0
 44 20  1  0  0  0  0
 48 21  1  0  0  0  0
M  END
