1,2,3,4
 OpenBabel05122313063D

 54 57  0  0  0  0  0  0  0  0999 V2000
    1.4573   -2.6800    0.2356 S   0  0  0  0  0  1  0  0  0  0  0  0
   -1.4576   -2.6799   -0.2357 S   0  0  0  0  0  1  0  0  0  0  0  0
    1.1920    0.1761   -0.7746 N   0  0  0  0  0  2  0  0  0  0  0  0
   -1.1920    0.1762    0.7745 N   0  0  0  0  0  2  0  0  0  0  0  0
    3.0750   -2.0848    0.0296 C   0  0  0  0  0  0  0  0  0  0  0  0
    4.1246   -2.9738    0.3991 C   0  0  0  0  0  0  0  0  0  0  0  0
    5.4635   -2.6171    0.2674 C   0  0  0  0  0  0  0  0  0  0  0  0
    5.8266   -1.3556   -0.2599 C   0  0  0  0  0  0  0  0  0  0  0  0
    4.8225   -0.4763   -0.6439 C   0  0  0  0  0  0  0  0  0  0  0  0
    3.4425   -0.8034   -0.5016 C   0  0  0  0  0  0  0  0  0  0  0  0
    2.4928    0.1694   -0.9603 C   0  0  0  0  0  3  0  0  0  0  0  0
    0.4568    1.1895   -1.4695 C   0  0  0  0  0  0  0  0  0  0  0  0
    0.3053    1.1073   -2.8630 C   0  0  0  0  0  0  0  0  0  0  0  0
   -0.4408    2.0879   -3.5319 C   0  0  0  0  0  0  0  0  0  0  0  0
   -1.0330    3.1314   -2.8117 C   0  0  0  0  0  0  0  0  0  0  0  0
   -0.8825    3.2352   -1.4115 C   0  0  0  0  0  0  0  0  0  0  0  0
   -1.5480    4.3674   -0.6699 C   0  0  0  0  0  0  0  0  0  0  0  0
   -0.1083    2.2620   -0.7361 C   0  0  0  0  0  0  0  0  0  0  0  0
    0.1086    2.2619    0.7360 C   0  0  0  0  0  0  0  0  0  0  0  0
    0.8830    3.2350    1.4114 C   0  0  0  0  0  0  0  0  0  0  0  0
    1.5486    4.3671    0.6698 C   0  0  0  0  0  0  0  0  0  0  0  0
    1.0334    3.1312    2.8116 C   0  0  0  0  0  0  0  0  0  0  0  0
    0.4410    2.0879    3.5318 C   0  0  0  0  0  0  0  0  0  0  0  0
   -0.3052    1.1073    2.8630 C   0  0  0  0  0  0  0  0  0  0  0  0
   -0.4567    1.1895    1.4694 C   0  0  0  0  0  0  0  0  0  0  0  0
   -2.4928    0.1694    0.9606 C   0  0  0  0  0  3  0  0  0  0  0  0
   -3.4426   -0.8033    0.5019 C   0  0  0  0  0  0  0  0  0  0  0  0
   -4.8225   -0.4761    0.6444 C   0  0  0  0  0  0  0  0  0  0  0  0
   -5.8267   -1.3551    0.2602 C   0  0  0  0  0  0  0  0  0  0  0  0
   -5.4639   -2.6165   -0.2676 C   0  0  0  0  0  0  0  0  0  0  0  0
   -4.1250   -2.9733   -0.3995 C   0  0  0  0  0  0  0  0  0  0  0  0
   -3.0753   -2.0846   -0.0297 C   0  0  0  0  0  0  0  0  0  0  0  0
    3.8508   -3.9616    0.7995 H   0  0  0  0  0  0  0  0  0  0  0  0
    6.2442   -3.3319    0.5705 H   0  0  0  0  0  0  0  0  0  0  0  0
    6.8850   -1.0796   -0.3716 H   0  0  0  0  0  0  0  0  0  0  0  0
    5.0813    0.5081   -1.0659 H   0  0  0  0  0  0  0  0  0  0  0  0
    2.9120    1.0133   -1.5437 H   0  0  0  0  0  0  0  0  0  0  0  0
    0.7540    0.2603   -3.4020 H   0  0  0  0  0  0  0  0  0  0  0  0
   -0.5732    2.0249   -4.6224 H   0  0  0  0  0  0  0  0  0  0  0  0
   -1.6377    3.8855   -3.3391 H   0  0  0  0  0  0  0  0  0  0  0  0
   -1.6984    4.1274    0.4000 H   0  0  0  0  0  0  0  0  0  0  0  0
   -2.5319    4.6076   -1.1189 H   0  0  0  0  0  0  0  0  0  0  0  0
   -0.9383    5.2949   -0.7166 H   0  0  0  0  0  0  0  0  0  0  0  0
    1.6994    4.1269   -0.4000 H   0  0  0  0  0  0  0  0  0  0  0  0
    2.5324    4.6074    1.1190 H   0  0  0  0  0  0  0  0  0  0  0  0
    0.9390    5.2946    0.7162 H   0  0  0  0  0  0  0  0  0  0  0  0
    1.6382    3.8853    3.3391 H   0  0  0  0  0  0  0  0  0  0  0  0
    0.5734    2.0248    4.6223 H   0  0  0  0  0  0  0  0  0  0  0  0
   -0.7540    0.2604    3.4019 H   0  0  0  0  0  0  0  0  0  0  0  0
   -2.9119    1.0132    1.5443 H   0  0  0  0  0  0  0  0  0  0  0  0
   -5.0812    0.5082    1.0667 H   0  0  0  0  0  0  0  0  0  0  0  0
   -6.8851   -1.0791    0.3720 H   0  0  0  0  0  0  0  0  0  0  0  0
   -6.2446   -3.3311   -0.5709 H   0  0  0  0  0  0  0  0  0  0  0  0
   -3.8513   -3.9610   -0.8002 H   0  0  0  0  0  0  0  0  0  0  0  0
  2 32  1  0  0  0  0
  4 26  1  0  0  0  0
  4 25  1  0  0  0  0
  5  1  1  0  0  0  0
  5  6  1  0  0  0  0
  6 33  1  0  0  0  0
  7  6  2  0  0  0  0
  7 34  1  0  0  0  0
  8  7  1  0  0  0  0
  9 10  1  0  0  0  0
  9  8  2  0  0  0  0
 10  5  2  0  0  0  0
 11  3  1  0  0  0  0
 11 10  1  0  0  0  0
 12  3  1  0  0  0  0
 12 18  1  0  0  0  0
 13 12  2  0  0  0  0
 14 13  1  0  0  0  0
 14 15  2  0  0  0  0
 15 16  1  0  0  0  0
 16 18  2  0  0  0  0
 16 17  1  0  0  0  0
 17 41  1  0  0  0  0
 18 19  1  0  0  0  0
 19 20  2  0  0  0  0
 19 25  1  0  0  0  0
 20 22  1  0  0  0  0
 21 46  1  0  0  0  0
 21 45  1  0  0  0  0
 21 20  1  0  0  0  0
 22 47  1  0  0  0  0
 22 23  2  0  0  0  0
 23 48  1  0  0  0  0
 24 49  1  0  0  0  0
 24 23  1  0  0  0  0
 25 24  2  0  0  0  0
 26 50  1  0  0  0  0
 27 28  1  0  0  0  0
 27 26  1  0  0  0  0
 28 51  1  0  0  0  0
 29 52  1  0  0  0  0
 29 28  2  0  0  0  0
 30 29  1  0  0  0  0
 31 30  2  0  0  0  0
 31 32  1  0  0  0  0
 32 27  2  0  0  0  0
 35  8  1  0  0  0  0
 36  9  1  0  0  0  0
 37 11  1  0  0  0  0
 38 13  1  0  0  0  0
 39 14  1  0  0  0  0
 40 15  1  0  0  0  0
 42 17  1  0  0  0  0
 43 17  1  0  0  0  0
 44 21  1  0  0  0  0
 53 30  1  0  0  0  0
 54 31  1  0  0  0  0
M  END
