1,2,35,36
 OpenBabel05122313063D

 68 73  0  0  0  0  0  0  0  0999 V2000
   -1.4567   -1.3126    0.1641 S   0  0  0  0  0  1  0  0  0  0  0  0
   -1.0734    1.6184   -0.9242 N   0  0  0  0  0  2  0  0  0  0  0  0
   -5.2318   -0.5898   -0.7665 N   0  0  0  0  0  0  0  0  0  0  0  0
   -4.1970   -1.3644   -0.2896 N   0  0  0  0  0  0  0  0  0  0  0  0
   -0.3100    2.6723   -1.5179 C   0  0  0  0  0  0  0  0  0  0  0  0
    0.1393    3.7590   -0.7272 C   0  0  0  0  0  0  0  0  0  0  0  0
    0.8245    4.8156   -1.3538 C   0  0  0  0  0  0  0  0  0  0  0  0
    1.0749    4.7988   -2.7351 C   0  0  0  0  0  0  0  0  0  0  0  0
    0.6357    3.7145   -3.5084 C   0  0  0  0  0  0  0  0  0  0  0  0
   -0.0587    2.6568   -2.9022 C   0  0  0  0  0  0  0  0  0  0  0  0
   -2.3492    1.5726   -1.2724 C   0  0  0  0  0  3  0  0  0  0  0  0
   -3.2699    0.5524   -0.9473 C   0  0  0  0  0  0  0  0  0  0  0  0
   -4.6928    0.5471   -1.1754 C   0  0  0  0  0  0  0  0  0  0  0  0
   -2.9807   -0.7136   -0.3643 C   0  0  0  0  0  0  0  0  0  0  0  0
   -5.5302    1.6309   -1.7736 C   0  0  0  0  0  0  0  0  0  0  0  0
   -4.5141   -2.6467    0.2354 C   0  0  0  0  0  0  0  0  0  0  0  0
   -5.8141   -2.8633    0.7374 C   0  0  0  0  0  0  0  0  0  0  0  0
   -6.1571   -4.1165    1.2573 C   0  0  0  0  0  0  0  0  0  0  0  0
   -5.2173   -5.1605    1.2847 C   0  0  0  0  0  0  0  0  0  0  0  0
   -3.9302   -4.9414    0.7720 C   0  0  0  0  0  0  0  0  0  0  0  0
   -3.5727   -3.6940    0.2402 C   0  0  0  0  0  0  0  0  0  0  0  0
    1.1700    5.6593   -0.7368 H   0  0  0  0  0  0  0  0  0  0  0  0
    1.6185    5.6319   -3.2049 H   0  0  0  0  0  0  0  0  0  0  0  0
    0.8333    3.6870   -4.5905 H   0  0  0  0  0  0  0  0  0  0  0  0
   -0.4103    1.7983   -3.4934 H   0  0  0  0  0  0  0  0  0  0  0  0
   -2.7298    2.4141   -1.8838 H   0  0  0  0  0  0  0  0  0  0  0  0
   -5.2000    1.8771   -2.8044 H   0  0  0  0  0  0  0  0  0  0  0  0
   -5.4720    2.5652   -1.1776 H   0  0  0  0  0  0  0  0  0  0  0  0
   -6.5859    1.3047   -1.8139 H   0  0  0  0  0  0  0  0  0  0  0  0
   -6.5360   -2.0376    0.6995 H   0  0  0  0  0  0  0  0  0  0  0  0
   -7.1725   -4.2768    1.6506 H   0  0  0  0  0  0  0  0  0  0  0  0
   -5.4899   -6.1423    1.6998 H   0  0  0  0  0  0  0  0  0  0  0  0
   -3.1883   -5.7543    0.7730 H   0  0  0  0  0  0  0  0  0  0  0  0
   -2.5695   -3.5361   -0.1769 H   0  0  0  0  0  0  0  0  0  0  0  0
    1.4567   -1.3126   -0.1641 S   0  0  0  0  0  1  0  0  0  0  0  0
    1.0734    1.6184    0.9242 N   0  0  0  0  0  2  0  0  0  0  0  0
    5.2318   -0.5898    0.7665 N   0  0  0  0  0  0  0  0  0  0  0  0
    4.1970   -1.3644    0.2896 N   0  0  0  0  0  0  0  0  0  0  0  0
    0.3100    2.6723    1.5179 C   0  0  0  0  0  0  0  0  0  0  0  0
   -0.1393    3.7590    0.7272 C   0  0  0  0  0  0  0  0  0  0  0  0
   -0.8245    4.8156    1.3538 C   0  0  0  0  0  0  0  0  0  0  0  0
   -1.0749    4.7988    2.7351 C   0  0  0  0  0  0  0  0  0  0  0  0
   -0.6357    3.7145    3.5084 C   0  0  0  0  0  0  0  0  0  0  0  0
    0.0587    2.6568    2.9022 C   0  0  0  0  0  0  0  0  0  0  0  0
    2.3492    1.5726    1.2724 C   0  0  0  0  0  3  0  0  0  0  0  0
    3.2699    0.5524    0.9473 C   0  0  0  0  0  0  0  0  0  0  0  0
    4.6928    0.5471    1.1754 C   0  0  0  0  0  0  0  0  0  0  0  0
    2.9807   -0.7136    0.3643 C   0  0  0  0  0  0  0  0  0  0  0  0
    5.5302    1.6309    1.7735 C   0  0  0  0  0  0  0  0  0  0  0  0
    4.5141   -2.6467   -0.2354 C   0  0  0  0  0  0  0  0  0  0  0  0
    5.8141   -2.8633   -0.7374 C   0  0  0  0  0  0  0  0  0  0  0  0
    6.1571   -4.1165   -1.2574 C   0  0  0  0  0  0  0  0  0  0  0  0
    5.2173   -5.1605   -1.2847 C   0  0  0  0  0  0  0  0  0  0  0  0
    3.9302   -4.9414   -0.7720 C   0  0  0  0  0  0  0  0  0  0  0  0
    3.5727   -3.6940   -0.2402 C   0  0  0  0  0  0  0  0  0  0  0  0
   -1.1700    5.6593    0.7368 H   0  0  0  0  0  0  0  0  0  0  0  0
   -1.6185    5.6319    3.2049 H   0  0  0  0  0  0  0  0  0  0  0  0
   -0.8333    3.6869    4.5905 H   0  0  0  0  0  0  0  0  0  0  0  0
    0.4103    1.7983    3.4934 H   0  0  0  0  0  0  0  0  0  0  0  0
    2.7298    2.4141    1.8838 H   0  0  0  0  0  0  0  0  0  0  0  0
    5.2000    1.8771    2.8043 H   0  0  0  0  0  0  0  0  0  0  0  0
    5.4720    2.5652    1.1776 H   0  0  0  0  0  0  0  0  0  0  0  0
    6.5859    1.3047    1.8139 H   0  0  0  0  0  0  0  0  0  0  0  0
    6.5360   -2.0376   -0.6995 H   0  0  0  0  0  0  0  0  0  0  0  0
    7.1725   -4.2767   -1.6506 H   0  0  0  0  0  0  0  0  0  0  0  0
    5.4899   -6.1423   -1.6998 H   0  0  0  0  0  0  0  0  0  0  0  0
    3.1884   -5.7543   -0.7730 H   0  0  0  0  0  0  0  0  0  0  0  0
    2.5696   -3.5361    0.1769 H   0  0  0  0  0  0  0  0  0  0  0  0
  3  4  1  0  0  0  0
  4 16  1  0  0  0  0
  5  2  1  0  0  0  0
  5  6  1  0  0  0  0
  6 40  1  0  0  0  0
  7 22  1  0  0  0  0
  7  6  2  0  0  0  0
  8  7  1  0  0  0  0
  9 10  1  0  0  0  0
  9  8  2  0  0  0  0
 10  5  2  0  0  0  0
 11 12  1  0  0  0  0
 11  2  1  0  0  0  0
 12 14  2  0  0  0  0
 13 12  1  0  0  0  0
 13  3  2  0  0  0  0
 14  4  1  0  0  0  0
 14  1  1  0  0  0  0
 15 28  1  0  0  0  0
 15 13  1  0  0  0  0
 16 21  2  0  0  0  0
 16 17  1  0  0  0  0
 17 18  2  0  0  0  0
 18 19  1  0  0  0  0
 18 31  1  0  0  0  0
 19 32  1  0  0  0  0
 20 33  1  0  0  0  0
 20 19  2  0  0  0  0
 21 20  1  0  0  0  0
 23  8  1  0  0  0  0
 24  9  1  0  0  0  0
 25 10  1  0  0  0  0
 26 11  1  0  0  0  0
 27 15  1  0  0  0  0
 29 15  1  0  0  0  0
 30 17  1  0  0  0  0
 34 21  1  0  0  0  0
 35 48  1  0  0  0  0
 36 45  1  0  0  0  0
 36 39  1  0  0  0  0
 37 47  2  0  0  0  0
 38 48  1  0  0  0  0
 38 37  1  0  0  0  0
 39 44  1  0  0  0  0
 40 41  1  0  0  0  0
 40 39  2  0  0  0  0
 41 42  2  0  0  0  0
 42 57  1  0  0  0  0
 42 43  1  0  0  0  0
 43 58  1  0  0  0  0
 44 59  1  0  0  0  0
 44 43  2  0  0  0  0
 45 60  1  0  0  0  0
 46 47  1  0  0  0  0
 46 45  1  0  0  0  0
 47 49  1  0  0  0  0
 48 46  2  0  0  0  0
 49 63  1  0  0  0  0
 49 61  1  0  0  0  0
 50 38  1  0  0  0  0
 51 64  1  0  0  0  0
 51 50  2  0  0  0  0
 52 51  1  0  0  0  0
 53 52  2  0  0  0  0
 53 54  1  0  0  0  0
 54 55  2  0  0  0  0
 55 50  1  0  0  0  0
 55 68  1  0  0  0  0
 56 41  1  0  0  0  0
 62 49  1  0  0  0  0
 65 52  1  0  0  0  0
 66 53  1  0  0  0  0
 67 54  1  0  0  0  0
M  END
