1,2,5,6
 OpenBabel05122313063D

 30 30  0  0  1  0  0  0  0  0999 V2000
   -2.0605   -2.1700   -0.7589 S   0  0  0  0  0  1  0  0  0  0  0  0
    1.8902   -2.5025   -0.2241 S   0  0  0  0  0  1  0  0  0  0  0  0
   -4.3591   -0.8861   -0.4055 N   0  0  0  0  0  0  0  0  0  0  0  0
   -2.5016    0.4854   -0.4173 N   0  0  0  0  0  0  0  0  0  0  0  0
   -1.1817    0.6414   -0.5086 N   0  0  0  0  0  2  0  0  0  0  0  0
    1.3505    0.4311   -0.3065 N   0  0  0  0  0  2  0  0  0  0  0  0
    2.6455    0.1015   -0.3420 N   0  0  0  0  0  0  0  0  0  0  0  0
    4.3326   -1.4764   -0.3453 N   0  0  0  0  0  0  0  0  0  0  0  0
   -3.0213   -0.7988   -0.5069 C   0  0  2  0  0  3  0  0  0  0  0  0
   -0.5666    1.7769   -0.3396 C   0  0  0  0  0  0  0  0  0  0  0  0
   -1.2301    3.0878   -0.0216 C   0  0  0  0  0  0  0  0  0  0  0  0
   -0.3336    4.3021   -0.3043 C   0  0  0  0  0  0  0  0  0  0  0  0
    1.0615    4.1043    0.2910 C   0  0  0  0  0  0  0  0  0  0  0  0
    1.7682    2.8963   -0.3474 C   0  0  0  0  0  0  0  0  0  0  0  0
    0.9104    1.6597   -0.3361 C   0  0  0  0  0  0  0  0  0  0  0  0
    3.0099   -1.2314   -0.2994 C   0  0  2  0  0  3  0  0  0  0  0  0
   -4.7874   -1.8129   -0.4141 H   0  0  0  0  0  0  0  0  0  0  0  0
   -4.9730   -0.0692   -0.3875 H   0  0  0  0  0  0  0  0  0  0  0  0
    5.0383   -0.7420   -0.4256 H   0  0  0  0  0  0  0  0  0  0  0  0
    4.6500   -2.4457   -0.2996 H   0  0  0  0  0  0  0  0  0  0  0  0
   -3.0905    1.2433   -0.0448 H   0  0  0  0  0  0  0  0  0  0  0  0
    3.3658    0.8350   -0.3862 H   0  0  0  0  0  0  0  0  0  0  0  0
   -2.1899    3.1756   -0.5753 H   0  0  0  0  0  0  0  0  0  0  0  0
   -1.4889    3.0549    1.0641 H   0  0  0  0  0  0  0  0  0  0  0  0
   -0.8073    5.2128    0.1109 H   0  0  0  0  0  0  0  0  0  0  0  0
   -0.2552    4.4601   -1.4016 H   0  0  0  0  0  0  0  0  0  0  0  0
    1.6819    5.0095    0.1423 H   0  0  0  0  0  0  0  0  0  0  0  0
    0.9842    3.9477    1.3883 H   0  0  0  0  0  0  0  0  0  0  0  0
    2.7311    2.7019    0.1736 H   0  0  0  0  0  0  0  0  0  0  0  0
    2.0251    3.1345   -1.4059 H   0  0  0  0  0  0  0  0  0  0  0  0
  3 18  1  0  0  0  0
  4 21  1  0  0  0  0
  5  4  1  0  0  0  0
  5 10  1  0  0  0  0
  7  6  1  0  0  0  0
  7 16  1  0  0  0  0
  8 20  1  0  0  0  0
  8 16  1  0  0  0  0
  9  1  1  6  0  0  0
  9  4  1  0  0  0  0
  9  3  1  0  0  0  0
 10 15  2  0  0  0  0
 10 11  1  0  0  0  0
 11 24  1  0  0  0  0
 12 11  1  0  0  0  0
 12 25  1  0  0  0  0
 12 13  1  0  0  0  0
 13 28  1  0  0  0  0
 14 15  1  0  0  0  0
 14 29  1  0  0  0  0
 14 13  1  0  0  0  0
 15  6  1  0  0  0  0
 16  2  1  6  0  0  0
 17  3  1  0  0  0  0
 19  8  1  0  0  0  0
 22  7  1  0  0  0  0
 23 11  1  0  0  0  0
 26 12  1  0  0  0  0
 27 13  1  0  0  0  0
 30 14  1  0  0  0  0
M  END
