1,17,33,47
 OpenBabel05122313063D

 66 70  0  0  1  0  0  0  0  0999 V2000
   -2.0233    0.7753    0.3098 N   0  0  0  0  0  2  0  0  0  0  0  0
   -2.2572    1.9098   -0.4239 C   0  0  0  0  0  0  0  0  0  0  0  0
   -1.2325    2.4245   -1.2683 C   0  0  0  0  0  0  0  0  0  0  0  0
   -0.2760    1.8816   -1.3155 H   0  0  0  0  0  0  0  0  0  0  0  0
   -1.4493    3.5777   -2.0075 C   0  0  0  0  0  0  0  0  0  0  0  0
   -0.6505    3.9683   -2.6555 H   0  0  0  0  0  0  0  0  0  0  0  0
   -2.6930    4.2633   -1.9390 C   0  0  0  0  0  0  0  0  0  0  0  0
   -2.8444    5.1769   -2.5327 H   0  0  0  0  0  0  0  0  0  0  0  0
   -3.7125    3.7816   -1.1325 C   0  0  0  0  0  3  0  0  0  0  0  0
   -4.6810    4.3017   -1.0783 H   0  0  0  0  0  0  0  0  0  0  0  0
   -3.5225    2.5991   -0.3607 C   0  0  0  0  0  0  0  0  0  0  0  0
   -4.5295    2.0445    0.4748 C   0  0  0  0  0  0  0  0  0  0  0  0
   -5.5109    2.5389    0.5426 H   0  0  0  0  0  0  0  0  0  0  0  0
   -4.2698    0.8826    1.1827 C   0  0  0  0  0  0  0  0  0  0  0  0
   -5.0371    0.4258    1.8246 H   0  0  0  0  0  0  0  0  0  0  0  0
   -2.9884    0.2721    1.0780 C   0  0  0  0  0  0  0  0  0  0  0  0
    2.0239    0.7738   -0.3098 N   0  0  0  0  0  2  0  0  0  0  0  0
    2.2588    1.9080    0.4239 C   0  0  2  0  0  3  0  0  0  0  0  0
    1.2345    2.4236    1.2684 C   0  0  0  0  0  0  0  0  0  0  0  0
    0.2776    1.8815    1.3156 H   0  0  0  0  0  0  0  0  0  0  0  0
    1.4523    3.5766    2.0076 C   0  0  0  0  0  0  0  0  0  0  0  0
    0.6539    3.9678    2.6557 H   0  0  0  0  0  0  0  0  0  0  0  0
    2.6966    4.2612    1.9390 C   0  0  0  0  0  0  0  0  0  0  0  0
    2.8487    5.1746    2.5327 H   0  0  0  0  0  0  0  0  0  0  0  0
    3.7156    3.7786    1.1324 C   0  0  0  0  0  0  0  0  0  0  0  0
    4.6845    4.2980    1.0782 H   0  0  0  0  0  0  0  0  0  0  0  0
    3.5246    2.5964    0.3607 C   0  0  0  0  0  0  0  0  0  0  0  0
    4.5310    2.0409   -0.4750 C   0  0  0  0  0  0  0  0  0  0  0  0
    5.5129    2.5345   -0.5428 H   0  0  0  0  0  0  0  0  0  0  0  0
    4.2704    0.8793   -1.1828 C   0  0  0  0  0  0  0  0  0  0  0  0
    5.0373    0.4218   -1.8249 H   0  0  0  0  0  0  0  0  0  0  0  0
    2.9886    0.2698   -1.0781 C   0  0  0  0  0  0  0  0  0  0  0  0
   -1.1657   -1.7273   -2.0710 S   0  0  0  0  0  0  0  0  0  0  0  0
    0.2295   -2.5885   -2.8781 C   0  0  0  0  0  0  0  0  0  0  0  0
   -0.1611   -3.4644   -3.4348 H   0  0  0  0  0  0  0  0  0  0  0  0
    0.5736   -1.8670   -3.6465 H   0  0  0  0  0  0  0  0  0  0  0  0
    1.3770   -3.0421   -1.9686 C   0  0  0  0  0  0  0  0  0  0  0  0
    1.0028   -3.8422   -1.2976 H   0  0  0  0  0  0  0  0  0  0  0  0
    2.1448   -3.5335   -2.6228 H   0  0  0  0  0  0  0  0  0  0  0  0
    1.9714   -2.0059   -1.1318 N   0  0  0  0  0  0  0  0  0  0  0  0
    2.7758   -2.5593   -0.0400 C   0  0  0  0  0  0  0  0  0  0  0  0
    3.4496   -1.7607    0.3338 H   0  0  0  0  0  0  0  0  0  0  0  0
    3.4456   -3.3794   -0.4025 H   0  0  0  0  0  0  0  0  0  0  0  0
    1.9548   -3.0968    1.1353 C   0  0  0  0  0  0  0  0  0  0  0  0
    2.6204   -3.6559    1.8234 H   0  0  0  0  0  0  0  0  0  0  0  0
    1.1684   -3.7963    0.7861 H   0  0  0  0  0  0  0  0  0  0  0  0
    1.1643   -1.7281    2.0710 S   0  0  0  0  0  0  0  0  0  0  0  0
   -0.2316   -2.5881    2.8781 C   0  0  0  0  0  0  0  0  0  0  0  0
    0.1584   -3.4643    3.4349 H   0  0  0  0  0  0  0  0  0  0  0  0
   -0.5751   -1.8664    3.6465 H   0  0  0  0  0  0  0  0  0  0  0  0
   -1.3793   -3.0410    1.9686 C   0  0  0  0  0  0  0  0  0  0  0  0
   -1.0057   -3.8413    1.2977 H   0  0  0  0  0  0  0  0  0  0  0  0
   -2.1475   -3.5318    2.6229 H   0  0  0  0  0  0  0  0  0  0  0  0
   -1.9730   -2.0044    1.1318 N   0  0  0  0  0  0  0  0  0  0  0  0
   -2.7778   -2.5573    0.0401 C   0  0  0  0  0  0  0  0  0  0  0  0
   -3.4511   -1.7582   -0.3338 H   0  0  0  0  0  0  0  0  0  0  0  0
   -3.4482   -3.3769    0.4026 H   0  0  0  0  0  0  0  0  0  0  0  0
   -1.9572   -3.0954   -1.1353 C   0  0  0  0  0  0  0  0  0  0  0  0
   -2.6232   -3.6540   -1.8233 H   0  0  0  0  0  0  0  0  0  0  0  0
   -1.1714   -3.7955   -0.7861 H   0  0  0  0  0  0  0  0  0  0  0  0
   -2.6787   -0.9762    1.8894 C   0  0  0  0  0  0  0  0  0  0  0  0
   -2.0328   -0.6659    2.7381 H   0  0  0  0  0  0  0  0  0  0  0  0
   -3.6273   -1.3595    2.3426 H   0  0  0  0  0  0  0  0  0  0  0  0
    2.6778   -0.9783   -1.8895 C   0  0  0  0  0  0  0  0  0  0  0  0
    2.0320   -0.6675   -2.7381 H   0  0  0  0  0  0  0  0  0  0  0  0
    3.6261   -1.3623   -2.3428 H   0  0  0  0  0  0  0  0  0  0  0  0
  1 16  1  0  0  0  0
  2 11  1  0  0  0  0
  2  1  1  0  0  0  0
  3  2  2  0  0  0  0
  4  3  1  0  0  0  0
  5  7  2  0  0  0  0
  5  3  1  0  0  0  0
  6  5  1  0  0  0  0
  7  9  1  0  0  0  0
  8  7  1  0  0  0  0
  9 10  1  0  0  0  0
  9 11  1  0  0  0  0
 11 12  2  0  0  0  0
 12 13  1  0  0  0  0
 12 14  1  0  0  0  0
 14 15  1  0  0  0  0
 16 14  2  0  0  0  0
 16 61  1  0  0  0  0
 18 17  1  6  0  0  0
 18 19  1  0  0  0  0
 19 20  1  0  0  0  0
 19 21  2  0  0  0  0
 21 22  1  0  0  0  0
 23 21  1  0  0  0  0
 23 24  1  0  0  0  0
 25 23  2  0  0  0  0
 26 25  1  0  0  0  0
 27 18  1  0  0  0  0
 27 25  1  0  0  0  0
 28 27  2  0  0  0  0
 29 28  1  0  0  0  0
 30 32  2  0  0  0  0
 30 28  1  0  0  0  0
 31 30  1  0  0  0  0
 32 17  1  0  0  0  0
 33 58  1  0  0  0  0
 34 33  1  0  0  0  0
 34 37  1  0  0  0  0
 35 34  1  0  0  0  0
 36 34  1  0  0  0  0
 37 38  1  0  0  0  0
 37 40  1  0  0  0  0
 39 37  1  0  0  0  0
 40 41  1  0  0  0  0
 41 42  1  0  0  0  0
 41 44  1  0  0  0  0
 43 41  1  0  0  0  0
 44 45  1  0  0  0  0
 44 47  1  0  0  0  0
 46 44  1  0  0  0  0
 47 48  1  0  0  0  0
 48 49  1  0  0  0  0
 48 50  1  0  0  0  0
 51 53  1  0  0  0  0
 51 48  1  0  0  0  0
 52 51  1  0  0  0  0
 54 61  1  0  0  0  0
 54 51  1  0  0  0  0
 55 57  1  0  0  0  0
 55 54  1  0  0  0  0
 56 55  1  0  0  0  0
 58 60  1  0  0  0  0
 58 55  1  0  0  0  0
 59 58  1  0  0  0  0
 61 63  1  0  0  0  0
 61 62  1  0  0  0  0
 64 40  1  0  0  0  0
 64 32  1  0  0  0  0
 65 64  1  0  0  0  0
 66 64  1  0  0  0  0
M  END
