1,2,5,6
q = -2.0, confidence = 0.856

 29 29  0  0  0  0  0  0  0  0999 V2000
    1.6861   -1.2554   -0.7608 S   0  0  0  0  0  0  0  0  0  0  0  0
   -1.5132   -1.5198   -0.6018 S   0  0  0  0  0  0  0  0  0  0  0  0
    3.2605    2.0893    0.6497 O   0  0  0  0  0  0  0  0  0  0  0  0
   -3.5925    1.7227    0.4025 O   0  0  0  0  0  0  0  0  0  0  0  0
    1.1434    1.4275   -0.0028 N   0  0  0  0  0  2  0  0  0  0  0  0
   -1.3737    1.2624   -0.0752 N   0  0  0  0  0  2  0  0  0  0  0  0
    3.0228   -0.0343   -0.4626 C   0  0  0  0  0  0  0  0  0  0  0  0
    3.7916   -0.4784    0.1994 H   0  0  0  0  0  0  0  0  0  0  0  0
    3.4926    0.1503   -1.4500 H   0  0  0  0  0  0  0  0  0  0  0  0
    2.4836    1.2789    0.1340 C   0  0  0  0  0  0  0  0  0  0  0  0
    0.4998    2.5953    0.6085 C   0  0  0  0  0  0  0  0  0  0  0  0
    1.0763    3.5191    0.3923 H   0  0  0  0  0  0  0  0  0  0  0  0
    0.4873    2.4782    1.7174 H   0  0  0  0  0  0  0  0  0  0  0  0
   -0.9231    2.6483    0.0627 C   0  0  0  0  0  0  0  0  0  0  0  0
   -1.6167    3.2158    0.7168 H   0  0  0  0  0  0  0  0  0  0  0  0
   -0.9325    3.1415   -0.9364 H   0  0  0  0  0  0  0  0  0  0  0  0
   -2.6798    0.9491    0.0953 C   0  0  0  0  0  0  0  0  0  0  0  0
   -3.0006   -0.5368   -0.1558 C   0  0  0  0  0  0  0  0  0  0  0  0
   -3.7073   -0.6243   -1.0049 H   0  0  0  0  0  0  0  0  0  0  0  0
   -3.4879   -0.9916    0.7297 H   0  0  0  0  0  0  0  0  0  0  0  0
   -1.0543   -2.2523    1.0389 C   0  0  0  0  0  0  0  0  0  0  0  0
   -1.0763   -1.4337    1.7867 H   0  0  0  0  0  0  0  0  0  0  0  0
   -1.8463   -2.9882    1.2888 H   0  0  0  0  0  0  0  0  0  0  0  0
    0.3094   -2.9492    1.0008 C   0  0  0  0  0  0  0  0  0  0  0  0
    0.4021   -3.5285    1.9445 H   0  0  0  0  0  0  0  0  0  0  0  0
    0.3220   -3.7028    0.1830 H   0  0  0  0  0  0  0  0  0  0  0  0
    1.5518   -2.0582    0.9016 C   0  0  0  0  0  0  0  0  0  0  0  0
    2.4678   -2.6687    1.0403 H   0  0  0  0  0  0  0  0  0  0  0  0
    1.5399   -1.2512    1.6622 H   0  0  0  0  0  0  0  0  0  0  0  0
  1  7  1  0  0  0  0
  1 27  1  0  0  0  0
  2 18  1  0  0  0  0
  2 21  1  0  0  0  0
  5 10  1  0  0  0  0
  5 11  1  0  0  0  0
  6 14  1  0  0  0  0
  6 17  1  0  0  0  0
  7 10  1  0  0  0  0
  7  8  1  0  0  0  0
  9  7  1  0  0  0  0
 10  3  2  0  0  0  0
 11 13  1  0  0  0  0
 12 11  1  0  0  0  0
 14 11  1  0  0  0  0
 14 15  1  0  0  0  0
 16 14  1  0  0  0  0
 17  4  2  0  0  0  0
 18 17  1  0  0  0  0
 18 20  1  0  0  0  0
 19 18  1  0  0  0  0
 21 23  1  0  0  0  0
 21 22  1  0  0  0  0
 24 21  1  0  0  0  0
 24 25  1  0  0  0  0
 26 24  1  0  0  0  0
 27 24  1  0  0  0  0
 27 28  1  0  0  0  0
 27 29  1  0  0  0  0
M  END
