1,2,5,6
q = -2.0, confidence = 0.66

 41 40  0  0  0  0  0  0  0  0999 V2000
    1.4346   -1.9701    0.9171 S   0  0  0  0  0  1  0  0  0  0  0  0
   -1.5886   -2.0012   -0.1686 S   0  0  0  0  0  1  0  0  0  0  0  0
    2.3237    2.2751   -1.1275 O   0  0  0  0  0  0  0  0  0  0  0  0
   -1.8428    2.9866   -0.6082 O   0  0  0  0  0  0  0  0  0  0  0  0
    1.1637    0.3535   -0.6411 N   0  0  0  0  0  2  0  0  0  0  0  0
   -1.4205    0.8090    0.0105 N   0  0  0  0  0  2  0  0  0  0  0  0
    2.8306   -1.3740   -0.1912 C   0  0  0  0  0  0  0  0  0  0  0  0
    2.1507   -0.5048   -1.2660 C   0  0  0  0  0  0  0  0  0  0  0  0
    3.5430   -2.5760   -0.8127 C   0  0  0  0  0  0  0  0  0  0  0  0
    3.7886   -0.5394    0.6663 C   0  0  0  0  0  0  0  0  0  0  0  0
   -3.1357   -0.9362   -0.1485 C   0  0  0  0  0  0  0  0  0  0  0  0
   -2.6720    0.4336   -0.6330 C   0  0  0  0  0  0  0  0  0  0  0  0
   -4.1845   -1.5510   -1.0770 C   0  0  0  0  0  0  0  0  0  0  0  0
   -3.6448   -0.8645    1.2959 C   0  0  0  0  0  0  0  0  0  0  0  0
    1.3645    1.6991   -0.5812 C   0  0  0  0  0  0  0  0  0  0  0  0
    0.3562    2.4779    0.3116 C   0  0  0  0  0  0  0  0  0  0  0  0
   -1.0843    2.1184   -0.1310 C   0  0  0  0  0  0  0  0  0  0  0  0
    0.5906    3.9795    0.1490 C   0  0  0  0  0  0  0  0  0  0  0  0
    0.5781    2.0614    1.7818 C   0  0  0  0  0  0  0  0  0  0  0  0
    2.8935    0.1171   -1.8130 H   0  0  0  0  0  0  0  0  0  0  0  0
    1.6427   -1.1760   -1.9951 H   0  0  0  0  0  0  0  0  0  0  0  0
    4.3620   -2.2417   -1.4891 H   0  0  0  0  0  0  0  0  0  0  0  0
    3.9886   -3.2235   -0.0297 H   0  0  0  0  0  0  0  0  0  0  0  0
    2.8326   -3.1928   -1.3993 H   0  0  0  0  0  0  0  0  0  0  0  0
    4.6437   -0.1717    0.0564 H   0  0  0  0  0  0  0  0  0  0  0  0
    4.1854   -1.1383    1.5114 H   0  0  0  0  0  0  0  0  0  0  0  0
    3.2632    0.3410    1.0838 H   0  0  0  0  0  0  0  0  0  0  0  0
   -3.4479    1.2099   -0.4410 H   0  0  0  0  0  0  0  0  0  0  0  0
   -2.5376    0.4059   -1.7435 H   0  0  0  0  0  0  0  0  0  0  0  0
   -5.1065   -0.9287   -1.0931 H   0  0  0  0  0  0  0  0  0  0  0  0
   -4.4675   -2.5695   -0.7389 H   0  0  0  0  0  0  0  0  0  0  0  0
   -3.7988   -1.6281   -2.1134 H   0  0  0  0  0  0  0  0  0  0  0  0
   -4.5913   -0.2804    1.3418 H   0  0  0  0  0  0  0  0  0  0  0  0
   -3.8354   -1.8760    1.7093 H   0  0  0  0  0  0  0  0  0  0  0  0
   -2.8899   -0.3613    1.9313 H   0  0  0  0  0  0  0  0  0  0  0  0
   -0.1087    4.5474    0.7937 H   0  0  0  0  0  0  0  0  0  0  0  0
    1.6370    4.2312    0.4084 H   0  0  0  0  0  0  0  0  0  0  0  0
    0.4087    4.2888   -0.8966 H   0  0  0  0  0  0  0  0  0  0  0  0
   -0.1131    2.6159    2.4504 H   0  0  0  0  0  0  0  0  0  0  0  0
    1.6220    2.2715    2.0978 H   0  0  0  0  0  0  0  0  0  0  0  0
    0.3947    0.9735    1.9302 H   0  0  0  0  0  0  0  0  0  0  0  0
  2 11  1  0  0  0  0
  3 15  2  0  0  0  0
  4 17  2  0  0  0  0
  5 15  1  0  0  0  0
  7 10  1  0  0  0  0
  7  1  1  0  0  0  0
  8  5  1  0  0  0  0
  8  7  1  0  0  0  0
  9  7  1  0  0  0  0
  9 23  1  0  0  0  0
 10 27  1  0  0  0  0
 10 26  1  0  0  0  0
 11 14  1  0  0  0  0
 12 28  1  0  0  0  0
 12 11  1  0  0  0  0
 12  6  1  0  0  0  0
 13 31  1  0  0  0  0
 13 11  1  0  0  0  0
 14 33  1  0  0  0  0
 14 34  1  0  0  0  0
 14 35  1  0  0  0  0
 15 16  1  0  0  0  0
 16 19  1  0  0  0  0
 17  6  1  0  0  0  0
 17 16  1  0  0  0  0
 18 16  1  0  0  0  0
 18 37  1  0  0  0  0
 18 36  1  0  0  0  0
 19 41  1  0  0  0  0
 19 40  1  0  0  0  0
 19 39  1  0  0  0  0
 20  8  1  0  0  0  0
 21  8  1  0  0  0  0
 22  9  1  0  0  0  0
 24  9  1  0  0  0  0
 25 10  1  0  0  0  0
 29 12  1  0  0  0  0
 30 13  1  0  0  0  0
 32 13  1  0  0  0  0
 38 18  1  0  0  0  0
M  END
