36,37,38,39
q = -2.0, confidence = 0.778

 39 38  0  0  1  0  0  0  0  0999 V2000
   -3.9250   -1.7416   -0.7761 C   0  0  0  0  0  0  0  0  0  0  0  0
   -4.8851   -1.2116   -0.9650 H   0  0  0  0  0  0  0  0  0  0  0  0
   -4.1616   -2.7260   -0.3275 H   0  0  0  0  0  0  0  0  0  0  0  0
   -3.4208   -1.9299   -1.7459 H   0  0  0  0  0  0  0  0  0  0  0  0
   -3.0112   -0.9403    0.1494 C   0  0  2  0  0  0  0  0  0  0  0  0
   -3.5331   -0.7956    1.1219 H   0  0  0  0  0  0  0  0  0  0  0  0
   -2.6760    0.4178   -0.4497 C   0  0  0  0  0  0  0  0  0  0  0  0
   -2.3912    0.2804   -1.5131 H   0  0  0  0  0  0  0  0  0  0  0  0
   -3.5594    1.1059   -0.4142 H   0  0  0  0  0  0  0  0  0  0  0  0
   -1.8247    1.3387    1.6409 C   0  0  0  0  0  0  0  0  0  0  0  0
   -0.9843    1.8686    2.1235 H   0  0  0  0  0  0  0  0  0  0  0  0
   -1.9524    0.3686    2.1552 H   0  0  0  0  0  0  0  0  0  0  0  0
   -2.7459    1.9599    1.7443 H   0  0  0  0  0  0  0  0  0  0  0  0
   -1.2036    2.3205   -0.5162 C   0  0  0  0  0  0  0  0  0  0  0  0
   -2.0977    2.9908   -0.5260 H   0  0  0  0  0  0  0  0  0  0  0  0
   -1.0356    2.0120   -1.5671 H   0  0  0  0  0  0  0  0  0  0  0  0
   -0.0000    3.1189   -0.0000 C   0  0  0  0  0  0  0  0  0  0  0  0
    0.3105    3.7936   -0.8243 H   0  0  0  0  0  0  0  0  0  0  0  0
   -0.3105    3.7937    0.8243 H   0  0  0  0  0  0  0  0  0  0  0  0
    1.2036    2.3204    0.5162 C   0  0  0  0  0  0  0  0  0  0  0  0
    2.0976    2.9908    0.5260 H   0  0  0  0  0  0  0  0  0  0  0  0
    1.0355    2.0120    1.5671 H   0  0  0  0  0  0  0  0  0  0  0  0
    1.8246    1.3387   -1.6409 C   0  0  0  0  0  0  0  0  0  0  0  0
    0.9843    1.8686   -2.1235 H   0  0  0  0  0  0  0  0  0  0  0  0
    1.9524    0.3686   -2.1552 H   0  0  0  0  0  0  0  0  0  0  0  0
    2.7458    1.9600   -1.7443 H   0  0  0  0  0  0  0  0  0  0  0  0
    2.6760    0.4178    0.4496 C   0  0  0  0  0  0  0  0  0  0  0  0
    2.3912    0.2805    1.5131 H   0  0  0  0  0  0  0  0  0  0  0  0
    3.5594    1.1059    0.4142 H   0  0  0  0  0  0  0  0  0  0  0  0
    3.0112   -0.9403   -0.1494 C   0  0  1  0  0  0  0  0  0  0  0  0
    3.5331   -0.7956   -1.1219 H   0  0  0  0  0  0  0  0  0  0  0  0
    3.9250   -1.7415    0.7761 C   0  0  0  0  0  0  0  0  0  0  0  0
    4.8852   -1.2116    0.9650 H   0  0  0  0  0  0  0  0  0  0  0  0
    4.1616   -2.7260    0.3275 H   0  0  0  0  0  0  0  0  0  0  0  0
    3.4209   -1.9299    1.7459 H   0  0  0  0  0  0  0  0  0  0  0  0
   -1.5181    1.0800    0.2208 N   0  0  0  0  0  0  0  0  0  0  0  0
    1.5181    1.0800   -0.2208 N   0  0  0  0  0  0  0  0  0  0  0  0
   -1.4191   -1.8354    0.4745 S   0  0  0  0  0  1  0  0  0  0  0  0
    1.4192   -1.8354   -0.4745 S   0  0  0  0  0  1  0  0  0  0  0  0
  1  3  1  0  0  0  0
  1  5  1  0  0  0  0
  2  1  1  0  0  0  0
  4  1  1  0  0  0  0
  5 38  1  0  0  0  0
  5  6  1  1  0  0  0
  7  9  1  0  0  0  0
  7  5  1  0  0  0  0
  7 36  1  0  0  0  0
  8  7  1  0  0  0  0
 10 13  1  0  0  0  0
 10 11  1  0  0  0  0
 10 12  1  0  0  0  0
 14 17  1  0  0  0  0
 14 36  1  0  0  0  0
 15 14  1  0  0  0  0
 16 14  1  0  0  0  0
 17 20  1  0  0  0  0
 17 19  1  0  0  0  0
 18 17  1  0  0  0  0
 20 21  1  0  0  0  0
 20 22  1  0  0  0  0
 23 37  1  0  0  0  0
 24 23  1  0  0  0  0
 25 23  1  0  0  0  0
 26 23  1  0  0  0  0
 27 28  1  0  0  0  0
 29 27  1  0  0  0  0
 30 31  1  6  0  0  0
 30 27  1  0  0  0  0
 30 32  1  0  0  0  0
 32 33  1  0  0  0  0
 32 35  1  0  0  0  0
 34 32  1  0  0  0  0
 36 10  1  0  0  0  0
 37 27  1  0  0  0  0
 37 20  1  0  0  0  0
 39 30  1  0  0  0  0
M  END
