1,2,4,5
q = -1.0, confidence = 0.306

 35 35  0  0  0  0  0  0  0  0999 V2000
   -0.9178   -2.3662   -0.7355 S   0  0  0  0  0  1  0  0  0  0  0  0
   -2.8710    0.2724   -1.4088 S   0  0  0  0  0  1  0  0  0  0  0  0
    0.6723    3.1619    0.9057 O   0  0  0  0  0  0  0  0  0  0  0  0
    0.7647   -0.3447    0.5434 N   0  0  0  0  0  0  0  0  0  0  0  0
   -0.8986    1.6231    0.1491 N   0  0  0  0  0  2  0  0  0  0  0  0
    0.6557   -2.8012    0.1800 C   0  0  0  0  0  0  0  0  0  0  0  0
    1.0793   -1.6830    1.1301 C   0  0  0  0  0  0  0  0  0  0  0  0
   -2.9720    2.1005   -1.0442 C   0  0  0  0  0  0  0  0  0  0  0  0
   -1.5890    2.6205   -0.6854 C   0  0  0  0  0  0  0  0  0  0  0  0
    0.2324    2.0176    0.8305 C   0  0  0  0  0  0  0  0  0  0  0  0
    0.9416    0.8049    1.4705 C   0  0  0  0  0  0  0  0  0  0  0  0
    1.5142   -0.0981   -0.7567 C   0  0  0  0  0  0  0  0  0  0  0  0
    3.0069    0.0585   -0.5960 C   0  0  0  0  0  0  0  0  0  0  0  0
    3.5691    1.3291   -0.3436 C   0  0  0  0  0  0  0  0  0  0  0  0
    4.9545    1.4749   -0.1803 C   0  0  0  0  0  0  0  0  0  0  0  0
    5.7978    0.3561   -0.2721 C   0  0  0  0  0  0  0  0  0  0  0  0
    5.2514   -0.9097   -0.5356 C   0  0  0  0  0  0  0  0  0  0  0  0
    3.8658   -1.0554   -0.6987 C   0  0  0  0  0  0  0  0  0  0  0  0
    0.4778   -3.7301    0.7563 H   0  0  0  0  0  0  0  0  0  0  0  0
    1.4402   -3.0278   -0.5711 H   0  0  0  0  0  0  0  0  0  0  0  0
    0.5123   -1.7445    2.0805 H   0  0  0  0  0  0  0  0  0  0  0  0
    2.1634   -1.7408    1.3731 H   0  0  0  0  0  0  0  0  0  0  0  0
   -3.3836    2.6084   -1.9387 H   0  0  0  0  0  0  0  0  0  0  0  0
   -3.6848    2.2312   -0.2047 H   0  0  0  0  0  0  0  0  0  0  0  0
   -0.9918    2.8042   -1.6082 H   0  0  0  0  0  0  0  0  0  0  0  0
   -1.6343    3.5845   -0.1365 H   0  0  0  0  0  0  0  0  0  0  0  0
    0.4661    0.5474    2.4392 H   0  0  0  0  0  0  0  0  0  0  0  0
    2.0084    1.0426    1.6529 H   0  0  0  0  0  0  0  0  0  0  0  0
    1.2529   -0.9340   -1.4309 H   0  0  0  0  0  0  0  0  0  0  0  0
    1.0741    0.8160   -1.1971 H   0  0  0  0  0  0  0  0  0  0  0  0
    2.9128    2.2115   -0.2700 H   0  0  0  0  0  0  0  0  0  0  0  0
    5.3777    2.4716    0.0154 H   0  0  0  0  0  0  0  0  0  0  0  0
    6.8850    0.4723   -0.1468 H   0  0  0  0  0  0  0  0  0  0  0  0
    5.9085   -1.7881   -0.6235 H   0  0  0  0  0  0  0  0  0  0  0  0
    3.4452   -2.0473   -0.9278 H   0  0  0  0  0  0  0  0  0  0  0  0
  1  6  1  0  0  0  0
  2  8  1  0  0  0  0
  4  7  1  0  0  0  0
  4 11  1  0  0  0  0
  5 10  1  0  0  0  0
  6 19  1  0  0  0  0
  6  7  1  0  0  0  0
  7 22  1  0  0  0  0
  7 21  1  0  0  0  0
  8  9  1  0  0  0  0
  8 24  1  0  0  0  0
  9 26  1  0  0  0  0
  9  5  1  0  0  0  0
 10  3  2  0  0  0  0
 10 11  1  0  0  0  0
 11 28  1  0  0  0  0
 11 27  1  0  0  0  0
 12 13  1  0  0  0  0
 12  4  1  0  0  0  0
 13 14  1  0  0  0  0
 14 31  1  0  0  0  0
 14 15  2  0  0  0  0
 15 32  1  0  0  0  0
 16 15  1  0  0  0  0
 16 33  1  0  0  0  0
 17 16  2  0  0  0  0
 18 13  2  0  0  0  0
 18 17  1  0  0  0  0
 20  6  1  0  0  0  0
 23  8  1  0  0  0  0
 25  9  1  0  0  0  0
 29 12  1  0  0  0  0
 30 12  1  0  0  0  0
 34 17  1  0  0  0  0
 35 18  1  0  0  0  0
M  END
