1,2,4,8
q = -2.0, confidence = 0.946

 68 71  0  0  0  0  0  0  0  0999 V2000
   -1.7508   -2.4411    0.3470 S   0  0  0  0  0  1  0  0  0  0  0  0
    1.4681   -2.6786   -0.4562 S   0  0  0  0  0  1  0  0  0  0  0  0
   -0.8593    3.6538   -0.8969 N   0  0  0  0  0  0  0  0  0  0  0  0
   -1.1521    0.3073    0.2518 N   0  0  0  0  0  2  0  0  0  0  0  0
   -2.4649    0.1945    0.5038 N   0  0  0  0  0  0  0  0  0  0  0  0
   -4.1866   -1.3234    0.7851 N   0  0  0  0  0  0  0  0  0  0  0  0
    1.5035    3.4436    0.8430 N   0  0  0  0  0  0  0  0  0  0  0  0
    1.2700    0.1323   -0.3751 N   0  0  0  0  0  2  0  0  0  0  0  0
    2.5556   -0.1707   -0.6175 N   0  0  0  0  0  0  0  0  0  0  0  0
    4.0305   -1.9102   -0.9235 N   0  0  0  0  0  0  0  0  0  0  0  0
   -0.5671    1.4985    0.0834 C   0  0  0  0  0  0  0  0  0  0  0  0
   -1.2917    2.7856    0.0447 C   0  0  0  0  0  0  0  0  0  0  0  0
   -2.3672    3.0845    0.9121 C   0  0  0  0  0  0  0  0  0  0  0  0
   -2.6923    2.3439    1.6529 H   0  0  0  0  0  0  0  0  0  0  0  0
   -2.9889    4.3329    0.7993 C   0  0  0  0  0  0  0  0  0  0  0  0
   -3.8197    4.6004    1.4705 H   0  0  0  0  0  0  0  0  0  0  0  0
   -2.5372    5.2362   -0.1747 C   0  0  0  0  0  0  0  0  0  0  0  0
   -2.9991    6.2273   -0.2972 H   0  0  0  0  0  0  0  0  0  0  0  0
   -1.4690    4.8390   -0.9974 C   0  0  0  0  0  0  0  0  0  0  0  0
   -1.0876    5.5191   -1.7807 H   0  0  0  0  0  0  0  0  0  0  0  0
   -2.8670   -1.0775    0.5591 C   0  0  0  0  0  0  0  0  0  0  0  0
   -5.1330   -0.2072    0.8911 C   0  0  0  0  0  0  0  0  0  0  0  0
   -4.6367    0.6623    0.4204 H   0  0  0  0  0  0  0  0  0  0  0  0
   -5.2821    0.0559    1.9641 H   0  0  0  0  0  0  0  0  0  0  0  0
   -6.4877   -0.4751    0.2241 C   0  0  0  0  0  0  0  0  0  0  0  0
   -6.9962    0.5093    0.1545 H   0  0  0  0  0  0  0  0  0  0  0  0
   -7.1365   -1.0928    0.8828 H   0  0  0  0  0  0  0  0  0  0  0  0
   -6.4135   -1.1335   -1.1652 C   0  0  0  0  0  0  0  0  0  0  0  0
   -7.3143   -0.8440   -1.7453 H   0  0  0  0  0  0  0  0  0  0  0  0
   -5.5435   -0.7277   -1.7279 H   0  0  0  0  0  0  0  0  0  0  0  0
   -6.3486   -2.6689   -1.1179 C   0  0  0  0  0  0  0  0  0  0  0  0
   -6.4701   -3.0725   -2.1455 H   0  0  0  0  0  0  0  0  0  0  0  0
   -7.2325   -3.0324   -0.5454 H   0  0  0  0  0  0  0  0  0  0  0  0
   -5.0762   -3.2652   -0.5066 C   0  0  0  0  0  0  0  0  0  0  0  0
   -4.2051   -3.1131   -1.1790 H   0  0  0  0  0  0  0  0  0  0  0  0
   -5.1968   -4.3649   -0.4054 H   0  0  0  0  0  0  0  0  0  0  0  0
   -4.6874   -2.6947    0.8659 C   0  0  0  0  0  0  0  0  0  0  0  0
   -5.5497   -2.7050    1.5652 H   0  0  0  0  0  0  0  0  0  0  0  0
   -3.8908   -3.3168    1.3207 H   0  0  0  0  0  0  0  0  0  0  0  0
    0.8648    1.3937   -0.1983 C   0  0  0  0  0  0  0  0  0  0  0  0
    1.7777    2.5556   -0.1377 C   0  0  0  0  0  0  0  0  0  0  0  0
    2.8714    2.7136   -1.0182 C   0  0  0  0  0  0  0  0  0  0  0  0
    3.0608    1.9614   -1.7937 H   0  0  0  0  0  0  0  0  0  0  0  0
    3.6875    3.8407   -0.8741 C   0  0  0  0  0  0  0  0  0  0  0  0
    4.5399    3.9983   -1.5529 H   0  0  0  0  0  0  0  0  0  0  0  0
    3.4016    4.7653    0.1420 C   0  0  0  0  0  0  0  0  0  0  0  0
    4.0185    5.6642    0.2903 H   0  0  0  0  0  0  0  0  0  0  0  0
    2.2962    4.5125    0.9722 C   0  0  0  0  0  0  0  0  0  0  0  0
    2.0404    5.2142    1.7869 H   0  0  0  0  0  0  0  0  0  0  0  0
    2.7613   -1.4876   -0.6815 C   0  0  0  0  0  0  0  0  0  0  0  0
    5.1266   -0.9394   -0.9639 C   0  0  0  0  0  0  0  0  0  0  0  0
    4.8257   -0.0951   -1.6134 H   0  0  0  0  0  0  0  0  0  0  0  0
    5.9732   -1.4582   -1.4562 H   0  0  0  0  0  0  0  0  0  0  0  0
    5.5508   -0.4134    0.4210 C   0  0  0  0  0  0  0  0  0  0  0  0
    6.6032   -0.0658    0.3355 H   0  0  0  0  0  0  0  0  0  0  0  0
    4.9391    0.4770    0.6691 H   0  0  0  0  0  0  0  0  0  0  0  0
    5.4205   -1.4344    1.5648 C   0  0  0  0  0  0  0  0  0  0  0  0
    5.9894   -1.0428    2.4336 H   0  0  0  0  0  0  0  0  0  0  0  0
    4.3603   -1.4699    1.8987 H   0  0  0  0  0  0  0  0  0  0  0  0
    5.8768   -2.8758    1.2595 C   0  0  0  0  0  0  0  0  0  0  0  0
    6.1557   -3.3681    2.2145 H   0  0  0  0  0  0  0  0  0  0  0  0
    6.8088   -2.8652    0.6488 H   0  0  0  0  0  0  0  0  0  0  0  0
    4.8044   -3.7474    0.5856 C   0  0  0  0  0  0  0  0  0  0  0  0
    5.1463   -4.8037    0.5368 H   0  0  0  0  0  0  0  0  0  0  0  0
    3.8864   -3.7418    1.2124 H   0  0  0  0  0  0  0  0  0  0  0  0
    4.4052   -3.3198   -0.8323 C   0  0  0  0  0  0  0  0  0  0  0  0
    5.2487   -3.4772   -1.5379 H   0  0  0  0  0  0  0  0  0  0  0  0
    3.5519   -3.9298   -1.1903 H   0  0  0  0  0  0  0  0  0  0  0  0
  1 21  1  0  0  0  0
  3 12  1  0  0  0  0
  4  5  1  0  0  0  0
  5 21  2  0  0  0  0
  6 37  1  0  0  0  0
  6 22  1  0  0  0  0
  7 48  1  0  0  0  0
  8 40  1  0  0  0  0
  9  8  1  0  0  0  0
 10 66  1  0  0  0  0
 10 50  1  0  0  0  0
 11  4  1  0  0  0  0
 12 11  1  0  0  0  0
 12 13  2  0  0  0  0
 13 14  1  0  0  0  0
 15 13  1  0  0  0  0
 15 16  1  0  0  0  0
 17 15  2  0  0  0  0
 18 17  1  0  0  0  0
 19  3  2  0  0  0  0
 19 17  1  0  0  0  0
 20 19  1  0  0  0  0
 21  6  1  0  0  0  0
 22 24  1  0  0  0  0
 23 22  1  0  0  0  0
 25 27  1  0  0  0  0
 25 22  1  0  0  0  0
 26 25  1  0  0  0  0
 28 31  1  0  0  0  0
 28 25  1  0  0  0  0
 29 28  1  0  0  0  0
 30 28  1  0  0  0  0
 31 33  1  0  0  0  0
 31 34  1  0  0  0  0
 32 31  1  0  0  0  0
 34 36  1  0  0  0  0
 34 37  1  0  0  0  0
 35 34  1  0  0  0  0
 37 39  1  0  0  0  0
 37 38  1  0  0  0  0
 40 41  1  0  0  0  0
 40 11  2  0  0  0  0
 41  7  2  0  0  0  0
 42 44  2  0  0  0  0
 42 41  1  0  0  0  0
 43 42  1  0  0  0  0
 44 46  1  0  0  0  0
 45 44  1  0  0  0  0
 46 47  1  0  0  0  0
 46 48  2  0  0  0  0
 48 49  1  0  0  0  0
 50  9  2  0  0  0  0
 50  2  1  0  0  0  0
 51 10  1  0  0  0  0
 51 54  1  0  0  0  0
 52 51  1  0  0  0  0
 53 51  1  0  0  0  0
 54 56  1  0  0  0  0
 54 57  1  0  0  0  0
 55 54  1  0  0  0  0
 57 59  1  0  0  0  0
 57 58  1  0  0  0  0
 60 57  1  0  0  0  0
 60 61  1  0  0  0  0
 62 60  1  0  0  0  0
 63 65  1  0  0  0  0
 63 60  1  0  0  0  0
 64 63  1  0  0  0  0
 66 63  1  0  0  0  0
 67 66  1  0  0  0  0
 68 66  1  0  0  0  0
M  END
