1,2,4,8
q = -2.0, confidence = 0.898

 62 65  0  0  0  0  0  0  0  0999 V2000
   -1.6338   -2.6592   -0.3234 S   0  0  0  0  0  1  0  0  0  0  0  0
    1.6334   -2.6595    0.3234 S   0  0  0  0  0  1  0  0  0  0  0  0
   -1.1619    3.4726    0.9082 N   0  0  0  0  0  0  0  0  0  0  0  0
   -1.2312    0.1243   -0.2383 N   0  0  0  0  0  2  0  0  0  0  0  0
   -2.5467   -0.0828   -0.4039 N   0  0  0  0  0  0  0  0  0  0  0  0
   -4.1636   -1.7170   -0.6148 N   0  0  0  0  0  0  0  0  0  0  0  0
    1.1624    3.4724   -0.9081 N   0  0  0  0  0  0  0  0  0  0  0  0
    1.2313    0.1241    0.2385 N   0  0  0  0  0  2  0  0  0  0  0  0
    2.5468   -0.0832    0.4042 N   0  0  0  0  0  0  0  0  0  0  0  0
    4.1634   -1.7176    0.6153 N   0  0  0  0  0  0  0  0  0  0  0  0
   -0.7232    1.3541   -0.1041 C   0  0  0  0  0  0  0  0  0  0  0  0
    0.7235    1.3540    0.1041 C   0  0  0  0  0  0  0  0  0  0  0  0
   -2.8548   -1.3800   -0.4555 C   0  0  0  0  0  0  0  0  0  0  0  0
   -1.5390    2.5855   -0.0384 C   0  0  0  0  0  0  0  0  0  0  0  0
   -2.6412    2.8123   -0.8933 C   0  0  0  0  0  0  0  0  0  0  0  0
   -3.3541    4.0086   -0.7610 C   0  0  0  0  0  0  0  0  0  0  0  0
   -2.9611    4.9325    0.2194 C   0  0  0  0  0  0  0  0  0  0  0  0
   -1.8576    4.6084    1.0270 C   0  0  0  0  0  0  0  0  0  0  0  0
   -5.2263   -0.7097   -0.5651 C   0  0  0  0  0  0  0  0  0  0  0  0
   -6.0880   -0.9089    0.6892 C   0  0  0  0  0  0  0  0  0  0  0  0
   -6.6202   -2.3457    0.7768 C   0  0  0  0  0  0  0  0  0  0  0  0
    2.8547   -1.3805    0.4558 C   0  0  0  0  0  0  0  0  0  0  0  0
    1.5395    2.5852    0.0384 C   0  0  0  0  0  0  0  0  0  0  0  0
    2.6418    2.8119    0.8931 C   0  0  0  0  0  0  0  0  0  0  0  0
    3.3550    4.0080    0.7607 C   0  0  0  0  0  0  0  0  0  0  0  0
    2.9620    4.9320   -0.2196 C   0  0  0  0  0  0  0  0  0  0  0  0
    1.8582    4.6081   -1.0270 C   0  0  0  0  0  0  0  0  0  0  0  0
    5.2262   -0.7106    0.5658 C   0  0  0  0  0  0  0  0  0  0  0  0
    6.0874   -0.9092   -0.6890 C   0  0  0  0  0  0  0  0  0  0  0  0
    6.6194   -2.3460   -0.7776 C   0  0  0  0  0  0  0  0  0  0  0  0
   -5.4778   -3.3634    0.6562 C   0  0  0  0  0  0  0  0  0  0  0  0
   -4.6391   -3.0962   -0.6002 C   0  0  0  0  0  0  0  0  0  0  0  0
    5.4769   -3.3636   -0.6569 C   0  0  0  0  0  0  0  0  0  0  0  0
    4.6387   -3.0970    0.5999 C   0  0  0  0  0  0  0  0  0  0  0  0
   -2.9141    2.0598   -1.6435 H   0  0  0  0  0  0  0  0  0  0  0  0
   -4.2088    4.2208   -1.4218 H   0  0  0  0  0  0  0  0  0  0  0  0
   -3.4945    5.8849    0.3573 H   0  0  0  0  0  0  0  0  0  0  0  0
   -1.5195    5.3077    1.8134 H   0  0  0  0  0  0  0  0  0  0  0  0
   -5.8517   -0.8230   -1.4802 H   0  0  0  0  0  0  0  0  0  0  0  0
   -4.7528    0.2872   -0.5836 H   0  0  0  0  0  0  0  0  0  0  0  0
   -6.9220   -0.1765    0.6813 H   0  0  0  0  0  0  0  0  0  0  0  0
   -5.4649   -0.6800    1.5806 H   0  0  0  0  0  0  0  0  0  0  0  0
   -7.1794   -2.4973    1.7232 H   0  0  0  0  0  0  0  0  0  0  0  0
   -7.3487   -2.5164   -0.0482 H   0  0  0  0  0  0  0  0  0  0  0  0
   -4.8082   -3.2953    1.5407 H   0  0  0  0  0  0  0  0  0  0  0  0
   -5.8703   -4.4009    0.6239 H   0  0  0  0  0  0  0  0  0  0  0  0
   -3.7663   -3.7729   -0.6623 H   0  0  0  0  0  0  0  0  0  0  0  0
   -5.2589   -3.2566   -1.5125 H   0  0  0  0  0  0  0  0  0  0  0  0
    2.9148    2.0593    1.6433 H   0  0  0  0  0  0  0  0  0  0  0  0
    4.2097    4.2201    1.4215 H   0  0  0  0  0  0  0  0  0  0  0  0
    3.4955    5.8843   -0.3576 H   0  0  0  0  0  0  0  0  0  0  0  0
    1.5201    5.3075   -1.8133 H   0  0  0  0  0  0  0  0  0  0  0  0
    4.7529    0.2864    0.5850 H   0  0  0  0  0  0  0  0  0  0  0  0
    5.8520   -0.8245    1.4805 H   0  0  0  0  0  0  0  0  0  0  0  0
    6.9215   -0.1769   -0.6810 H   0  0  0  0  0  0  0  0  0  0  0  0
    5.4639   -0.6797   -1.5801 H   0  0  0  0  0  0  0  0  0  0  0  0
    7.3482   -2.5172    0.0471 H   0  0  0  0  0  0  0  0  0  0  0  0
    7.1781   -2.4972   -1.7243 H   0  0  0  0  0  0  0  0  0  0  0  0
    5.8694   -4.4012   -0.6254 H   0  0  0  0  0  0  0  0  0  0  0  0
    4.8069   -3.2951   -1.5412 H   0  0  0  0  0  0  0  0  0  0  0  0
    5.2589   -3.2578    1.5118 H   0  0  0  0  0  0  0  0  0  0  0  0
    3.7659   -3.7736    0.6620 H   0  0  0  0  0  0  0  0  0  0  0  0
  2 22  1  0  0  0  0
  3 18  1  0  0  0  0
  4 11  1  0  0  0  0
  5  4  1  0  0  0  0
  6 32  1  0  0  0  0
  6 19  1  0  0  0  0
  6 13  1  0  0  0  0
  7 23  1  0  0  0  0
  8  9  1  0  0  0  0
  9 22  2  0  0  0  0
 11 14  1  0  0  0  0
 11 12  2  0  0  0  0
 12  8  1  0  0  0  0
 13  5  2  0  0  0  0
 13  1  1  0  0  0  0
 14  3  2  0  0  0  0
 15 16  2  0  0  0  0
 15 14  1  0  0  0  0
 16 17  1  0  0  0  0
 17 37  1  0  0  0  0
 17 18  2  0  0  0  0
 18 38  1  0  0  0  0
 19 20  1  0  0  0  0
 20 21  1  0  0  0  0
 20 42  1  0  0  0  0
 21 43  1  0  0  0  0
 22 10  1  0  0  0  0
 23 12  1  0  0  0  0
 23 24  2  0  0  0  0
 24 49  1  0  0  0  0
 25 24  1  0  0  0  0
 25 50  1  0  0  0  0
 26 25  2  0  0  0  0
 27  7  2  0  0  0  0
 27 26  1  0  0  0  0
 28 53  1  0  0  0  0
 28 10  1  0  0  0  0
 28 54  1  0  0  0  0
 29 55  1  0  0  0  0
 29 28  1  0  0  0  0
 30 29  1  0  0  0  0
 30 33  1  0  0  0  0
 30 57  1  0  0  0  0
 31 21  1  0  0  0  0
 31 45  1  0  0  0  0
 32 31  1  0  0  0  0
 33 59  1  0  0  0  0
 33 34  1  0  0  0  0
 34 10  1  0  0  0  0
 34 62  1  0  0  0  0
 34 61  1  0  0  0  0
 35 15  1  0  0  0  0
 36 16  1  0  0  0  0
 39 19  1  0  0  0  0
 40 19  1  0  0  0  0
 41 20  1  0  0  0  0
 44 21  1  0  0  0  0
 46 31  1  0  0  0  0
 47 32  1  0  0  0  0
 48 32  1  0  0  0  0
 51 26  1  0  0  0  0
 52 27  1  0  0  0  0
 56 29  1  0  0  0  0
 58 30  1  0  0  0  0
 60 33  1  0  0  0  0
M  END
