1,2,3,4
q = -2.0, confidence = 0.802

 45 44  0  0  0  0  0  0  0  0999 V2000
    1.2502   -2.2009    0.2980 S   0  0  0  0  0  1  0  0  0  0  0  0
   -1.5964   -1.8905   -0.4602 S   0  0  0  0  0  1  0  0  0  0  0  0
    1.4640    0.7231    0.6470 N   0  0  0  0  0  0  0  0  0  0  0  0
   -1.3836    1.0158    0.0348 N   0  0  0  0  0  0  0  0  0  0  0  0
    2.8028   -1.2667   -0.1198 C   0  0  0  0  0  0  0  0  0  0  0  0
   -3.0516   -0.8276    0.0098 C   0  0  0  0  0  0  0  0  0  0  0  0
    1.5764    1.9599   -0.1507 C   0  0  0  0  0  0  0  0  0  0  0  0
    1.7664    1.6748   -1.2044 H   0  0  0  0  0  0  0  0  0  0  0  0
    2.4640    2.5461    0.1881 H   0  0  0  0  0  0  0  0  0  0  0  0
   -2.6957    0.5638   -0.5049 C   0  0  0  0  0  0  0  0  0  0  0  0
   -2.5987    0.5161   -1.6078 H   0  0  0  0  0  0  0  0  0  0  0  0
   -3.4793    1.3217   -0.2544 H   0  0  0  0  0  0  0  0  0  0  0  0
    0.3410    2.8774   -0.0775 C   0  0  0  0  0  0  0  0  0  0  0  0
   -0.9024    2.2061   -0.6888 C   0  0  0  0  0  0  0  0  0  0  0  0
   -1.7191    2.9658   -0.7480 H   0  0  0  0  0  0  0  0  0  0  0  0
   -0.6789    1.8894   -1.7286 H   0  0  0  0  0  0  0  0  0  0  0  0
    2.8312   -0.9216   -1.6150 C   0  0  0  0  0  0  0  0  0  0  0  0
    1.9111   -0.3753   -1.9051 H   0  0  0  0  0  0  0  0  0  0  0  0
    2.8458   -1.8519   -2.2153 H   0  0  0  0  0  0  0  0  0  0  0  0
    3.7246   -0.3117   -1.8811 H   0  0  0  0  0  0  0  0  0  0  0  0
   -4.2973   -1.3525   -0.7110 C   0  0  0  0  0  0  0  0  0  0  0  0
   -5.1929   -0.7391   -0.4699 H   0  0  0  0  0  0  0  0  0  0  0  0
   -4.5047   -2.3957   -0.3997 H   0  0  0  0  0  0  0  0  0  0  0  0
   -4.1496   -1.3513   -1.8094 H   0  0  0  0  0  0  0  0  0  0  0  0
   -3.2640   -0.8328    1.5304 C   0  0  0  0  0  0  0  0  0  0  0  0
   -2.3395   -0.5242    2.0610 H   0  0  0  0  0  0  0  0  0  0  0  0
   -3.4907   -1.8594    1.8772 H   0  0  0  0  0  0  0  0  0  0  0  0
   -4.1031   -0.1649    1.8320 H   0  0  0  0  0  0  0  0  0  0  0  0
    0.0673    3.3155    1.3747 C   0  0  0  0  0  0  0  0  0  0  0  0
   -0.7953    4.0112    1.4194 H   0  0  0  0  0  0  0  0  0  0  0  0
    0.9460    3.8422    1.7994 H   0  0  0  0  0  0  0  0  0  0  0  0
   -0.1643    2.4668    2.0537 H   0  0  0  0  0  0  0  0  0  0  0  0
    4.0141   -2.1275    0.2549 C   0  0  0  0  0  0  0  0  0  0  0  0
    4.9678   -1.5989    0.0367 H   0  0  0  0  0  0  0  0  0  0  0  0
    4.0044   -3.0692   -0.3289 H   0  0  0  0  0  0  0  0  0  0  0  0
    3.9953   -2.3962    1.3303 H   0  0  0  0  0  0  0  0  0  0  0  0
    0.6498    4.1248   -0.9260 C   0  0  0  0  0  0  0  0  0  0  0  0
    0.8485    3.8515   -1.9823 H   0  0  0  0  0  0  0  0  0  0  0  0
    1.5418    4.6572   -0.5389 H   0  0  0  0  0  0  0  0  0  0  0  0
   -0.2014    4.8348   -0.9123 H   0  0  0  0  0  0  0  0  0  0  0  0
    2.7608   -0.0212    0.7663 C   0  0  0  0  0  0  0  0  0  0  0  0
    2.8568   -0.3529    1.8186 H   0  0  0  0  0  0  0  0  0  0  0  0
    3.6029    0.6764    0.5448 H   0  0  0  0  0  0  0  0  0  0  0  0
   -1.5449    1.2824    1.0184 H   0  0  0  0  0  0  0  0  0  0  0  0
    1.2099    1.0043    1.6039 H   0  0  0  0  0  0  0  0  0  0  0  0
  2  6  1  0  0  0  0
  3 41  1  0  0  0  0
  3 45  1  0  0  0  0
  4 44  1  0  0  0  0
  5 33  1  0  0  0  0
  5  1  1  0  0  0  0
  5 41  1  0  0  0  0
  6 25  1  0  0  0  0
  7 13  1  0  0  0  0
  7  9  1  0  0  0  0
  7  3  1  0  0  0  0
  8  7  1  0  0  0  0
 10 12  1  0  0  0  0
 10  6  1  0  0  0  0
 10  4  1  0  0  0  0
 11 10  1  0  0  0  0
 13 29  1  0  0  0  0
 14 13  1  0  0  0  0
 14  4  1  0  0  0  0
 15 14  1  0  0  0  0
 16 14  1  0  0  0  0
 17  5  1  0  0  0  0
 18 17  1  0  0  0  0
 19 17  1  0  0  0  0
 20 17  1  0  0  0  0
 21 22  1  0  0  0  0
 21 23  1  0  0  0  0
 21  6  1  0  0  0  0
 24 21  1  0  0  0  0
 25 28  1  0  0  0  0
 25 27  1  0  0  0  0
 25 26  1  0  0  0  0
 29 30  1  0  0  0  0
 29 31  1  0  0  0  0
 29 32  1  0  0  0  0
 33 36  1  0  0  0  0
 34 33  1  0  0  0  0
 35 33  1  0  0  0  0
 37 40  1  0  0  0  0
 37 39  1  0  0  0  0
 37 13  1  0  0  0  0
 38 37  1  0  0  0  0
 41 42  1  0  0  0  0
 43 41  1  0  0  0  0
M  END
