1,2,5,6
q = -2.0, confidence = 0.948

 28 28  0  0  0  0  0  0  0  0999 V2000
    2.0102   -2.3197   -0.4133 S   0  0  0  0  0  1  0  0  0  0  0  0
   -2.1035   -2.2557   -0.3558 S   0  0  0  0  0  1  0  0  0  0  0  0
    4.3685   -1.1130   -0.1916 N   0  0  0  0  0  0  0  0  0  0  0  0
    2.6482    0.3824   -0.0955 N   0  0  0  0  0  0  0  0  0  0  0  0
    1.3225    0.5438   -0.0509 N   0  0  0  0  0  2  0  0  0  0  0  0
   -1.2971    0.5904   -0.0882 N   0  0  0  0  0  2  0  0  0  0  0  0
   -2.6287    0.4771   -0.0867 N   0  0  0  0  0  0  0  0  0  0  0  0
   -4.4085   -0.9452   -0.1802 N   0  0  0  0  0  0  0  0  0  0  0  0
    3.0271   -0.8971   -0.2113 C   0  0  0  0  0  0  0  0  0  0  0  0
    0.7698    1.7359   -0.0183 C   0  0  0  0  0  0  0  0  0  0  0  0
    1.5692    3.0106   -0.0278 C   0  0  0  0  0  0  0  0  0  0  0  0
    0.7545    4.2320    0.4146 C   0  0  0  0  0  0  0  0  0  0  0  0
   -0.5992    4.2767   -0.3026 C   0  0  0  0  0  0  0  0  0  0  0  0
   -1.4563    3.0601    0.0670 C   0  0  0  0  0  0  0  0  0  0  0  0
   -0.7022    1.7612   -0.0205 C   0  0  0  0  0  0  0  0  0  0  0  0
   -3.0595   -0.7870   -0.1916 C   0  0  0  0  0  0  0  0  0  0  0  0
    4.9866   -0.3008   -0.1692 H   0  0  0  0  0  0  0  0  0  0  0  0
    4.7327   -2.0391   -0.4020 H   0  0  0  0  0  0  0  0  0  0  0  0
    1.9525    3.1647   -1.0636 H   0  0  0  0  0  0  0  0  0  0  0  0
    2.4784    2.8553    0.5891 H   0  0  0  0  0  0  0  0  0  0  0  0
    1.3338    5.1582    0.2230 H   0  0  0  0  0  0  0  0  0  0  0  0
    0.5842    4.1896    1.5134 H   0  0  0  0  0  0  0  0  0  0  0  0
   -0.4294    4.2942   -1.4021 H   0  0  0  0  0  0  0  0  0  0  0  0
   -1.1463    5.2093   -0.0554 H   0  0  0  0  0  0  0  0  0  0  0  0
   -2.3702    2.9740   -0.5561 H   0  0  0  0  0  0  0  0  0  0  0  0
   -1.8329    3.1653    1.1113 H   0  0  0  0  0  0  0  0  0  0  0  0
   -4.9937   -0.1088   -0.1710 H   0  0  0  0  0  0  0  0  0  0  0  0
   -4.8108   -1.8645   -0.3457 H   0  0  0  0  0  0  0  0  0  0  0  0
  1  9  1  0  0  0  0
  2 16  1  0  0  0  0
  3 17  1  0  0  0  0
  4  5  1  0  0  0  0
  5 10  1  0  0  0  0
  6  7  1  0  0  0  0
  6 15  1  0  0  0  0
  8 27  1  0  0  0  0
  9  3  1  0  0  0  0
  9  4  2  0  0  0  0
 11 10  1  0  0  0  0
 11 12  1  0  0  0  0
 11 20  1  0  0  0  0
 12 22  1  0  0  0  0
 13 24  1  0  0  0  0
 13 14  1  0  0  0  0
 13 12  1  0  0  0  0
 14 26  1  0  0  0  0
 15 10  2  0  0  0  0
 15 14  1  0  0  0  0
 16  8  1  0  0  0  0
 16  7  2  0  0  0  0
 18  3  1  0  0  0  0
 19 11  1  0  0  0  0
 21 12  1  0  0  0  0
 23 13  1  0  0  0  0
 25 14  1  0  0  0  0
 28  8  1  0  0  0  0
M  END
