1,2,4,5
q = 0.0, confidence = 1.0

 49 53  0  0  1  0  0  0  0  0999 V2000
   -2.1650    1.0793   -1.6136 S   0  0  0  0  0  0  0  0  0  0  0  0
    0.8351   -1.3938    1.8158 S   0  0  0  0  0  0  0  0  0  0  0  0
   -1.7638   -1.8222   -0.6704 N   0  0  0  0  0  0  0  0  0  0  0  0
   -0.8484    1.2552    1.2833 N   0  0  0  0  0  2  0  0  0  0  0  0
    2.1926   -0.8028   -0.9952 N   0  0  0  0  0  2  0  0  0  0  0  0
   -3.0637   -1.4021   -0.6621 C   0  0  0  0  0  0  0  0  0  0  0  0
   -1.4671   -3.0879   -0.3947 C   0  0  0  0  0  0  0  0  0  0  0  0
   -0.3968   -3.3552   -0.3994 H   0  0  0  0  0  0  0  0  0  0  0  0
   -2.4471   -4.0625   -0.0880 C   0  0  0  0  0  0  0  0  0  0  0  0
   -2.1446   -5.0995    0.1138 H   0  0  0  0  0  0  0  0  0  0  0  0
   -3.7732   -3.6663   -0.0293 C   0  0  0  0  0  0  0  0  0  0  0  0
   -4.5672   -4.3831    0.2312 H   0  0  0  0  0  0  0  0  0  0  0  0
   -4.1256   -2.3154   -0.3079 C   0  0  0  0  0  0  0  0  0  0  0  0
   -5.4710   -1.8546   -0.2529 C   0  0  0  0  0  0  0  0  0  0  0  0
   -6.2654   -2.5654    0.0199 H   0  0  0  0  0  0  0  0  0  0  0  0
   -5.7717   -0.5357   -0.5543 C   0  0  0  0  0  0  0  0  0  0  0  0
   -6.8115   -0.1796   -0.5198 H   0  0  0  0  0  0  0  0  0  0  0  0
   -4.7444    0.3571   -0.9482 C   0  0  0  0  0  0  0  0  0  0  0  0
   -5.0074    1.3852   -1.2395 H   0  0  0  0  0  0  0  0  0  0  0  0
   -3.4126   -0.0483   -1.0007 C   0  0  0  0  0  0  0  0  0  0  0  0
   -2.1985    2.4388   -0.3817 C   0  0  0  0  0  0  0  0  0  0  0  0
   -1.3831    3.1080   -0.7409 H   0  0  0  0  0  0  0  0  0  0  0  0
   -3.1626    2.9745   -0.4608 H   0  0  0  0  0  0  0  0  0  0  0  0
   -1.8896    2.0697    1.0494 C   0  0  2  0  0  3  0  0  0  0  0  0
   -2.5990    2.6497    2.1160 C   0  0  0  0  0  0  0  0  0  0  0  0
   -3.4568    3.3074    1.9156 H   0  0  0  0  0  0  0  0  0  0  0  0
   -2.1799    2.3872    3.4268 C   0  0  0  0  0  0  0  0  0  0  0  0
   -2.7206    2.8237    4.2797 H   0  0  0  0  0  0  0  0  0  0  0  0
   -1.0576    1.5759    3.6428 C   0  0  0  0  0  0  0  0  0  0  0  0
   -0.6870    1.3767    4.6584 H   0  0  0  0  0  0  0  0  0  0  0  0
   -0.3979    1.0259    2.5299 C   0  0  0  0  0  0  0  0  0  0  0  0
    0.8925    0.2566    2.6719 C   0  0  0  0  0  0  0  0  0  0  0  0
    1.1431    0.0906    3.7354 H   0  0  0  0  0  0  0  0  0  0  0  0
    1.6900    0.8439    2.1659 H   0  0  0  0  0  0  0  0  0  0  0  0
    2.5398   -1.6043    1.3077 C   0  0  0  0  0  0  0  0  0  0  0  0
    3.4220   -2.1238    2.2548 C   0  0  0  0  0  0  0  0  0  0  0  0
    3.0352   -2.3787    3.2526 H   0  0  0  0  0  0  0  0  0  0  0  0
    4.7934   -2.3228    1.9643 C   0  0  0  0  0  0  0  0  0  0  0  0
    5.4590   -2.7287    2.7394 H   0  0  0  0  0  0  0  0  0  0  0  0
    5.2837   -1.9996    0.7108 C   0  0  0  0  0  0  0  0  0  0  0  0
    6.3482   -2.1371    0.4685 H   0  0  0  0  0  0  0  0  0  0  0  0
    4.4180   -1.4797   -0.2926 C   0  0  0  0  0  0  0  0  0  0  0  0
    4.9049   -1.1218   -1.5808 C   0  0  0  0  0  0  0  0  0  0  0  0
    5.9751   -1.2545   -1.8018 H   0  0  0  0  0  0  0  0  0  0  0  0
    4.0409   -0.6018   -2.5282 C   0  0  0  0  0  0  0  0  0  0  0  0
    4.3870   -0.2967   -3.5251 H   0  0  0  0  0  0  0  0  0  0  0  0
    2.6781   -0.4552   -2.1875 C   0  0  0  0  0  0  0  0  0  0  0  0
    1.9676   -0.0085   -2.8988 H   0  0  0  0  0  0  0  0  0  0  0  0
    3.0135   -1.2868   -0.0145 C   0  0  2  0  0  3  0  0  0  0  0  0
  1 20  1  0  0  0  0
  1 21  1  0  0  0  0
  2 32  1  0  0  0  0
  3  6  2  0  0  0  0
  3  7  1  0  0  0  0
  4 31  1  0  0  0  0
  6 13  1  0  0  0  0
  7  9  2  0  0  0  0
  8  7  1  0  0  0  0
  9 11  1  0  0  0  0
  9 10  1  0  0  0  0
 11 12  1  0  0  0  0
 13 14  1  0  0  0  0
 13 11  2  0  0  0  0
 14 15  1  0  0  0  0
 16 17  1  0  0  0  0
 16 14  2  0  0  0  0
 18 16  1  0  0  0  0
 19 18  1  0  0  0  0
 20 18  2  0  0  0  0
 20  6  1  0  0  0  0
 22 21  1  0  0  0  0
 23 21  1  0  0  0  0
 24 21  1  6  0  0  0
 24  4  1  0  0  0  0
 24 25  1  0  0  0  0
 25 27  2  0  0  0  0
 26 25  1  0  0  0  0
 27 29  1  0  0  0  0
 27 28  1  0  0  0  0
 29 30  1  0  0  0  0
 31 32  1  0  0  0  0
 31 29  2  0  0  0  0
 32 33  1  0  0  0  0
 34 32  1  0  0  0  0
 35  2  1  0  0  0  0
 35 36  2  0  0  0  0
 36 37  1  0  0  0  0
 38 36  1  0  0  0  0
 38 39  1  0  0  0  0
 40 38  2  0  0  0  0
 41 40  1  0  0  0  0
 42 49  1  0  0  0  0
 42 40  1  0  0  0  0
 43 42  2  0  0  0  0
 44 43  1  0  0  0  0
 45 47  2  0  0  0  0
 45 43  1  0  0  0  0
 46 45  1  0  0  0  0
 47  5  1  0  0  0  0
 48 47  1  0  0  0  0
 49  5  1  1  0  0  0
 49 35  1  0  0  0  0
M  END
