1,4,8
 OpenBabel05122313063D

  8  7  0  0  0  0  0  0  0  0999 V2000
   -0.9864   -0.8631   -1.6499 N   0  0  0  0  0  0  0  0  0  0  0  0
   -2.3499   -1.4443   -2.1377 S   0  0  0  0  0  0  0  0  0  0  0  0
   -3.5221   -1.6286   -1.0451 N   0  0  0  0  0  0  0  0  0  0  0  0
   -3.1556   -1.1871    0.5828 S   0  0  0  0  0  0  0  0  0  0  0  0
   -4.2721   -0.0066    0.9808 N   0  0  0  0  0  0  0  0  0  0  0  0
   -4.3636    1.4669    0.2825 S   0  0  0  0  0  0  0  0  0  0  0  0
   -3.0556    2.1627   -0.3216 N   0  0  0  0  0  0  0  0  0  0  0  0
   -1.4821    1.7953   -0.5069 S   0  0  0  0  0  0  0  0  0  0  0  0
  2  1  1  0  0  0  0
  2  3  1  0  0  0  0
  3  4  1  0  0  0  0
  4  5  1  0  0  0  0
  6  5  1  0  0  0  0
  7  6  1  0  0  0  0
  8  7  1  0  0  0  0
M  END
