1,2,3,4
q = 0.0, confidence = 0.992

 46 48  0  0  1  0  0  0  0  0999 V2000
    2.3111   -1.6338   -0.0279 N   0  0  0  0  0  0  0  0  0  0  0  0
    2.2134    1.1049   -0.8254 N   0  0  0  0  0  0  0  0  0  0  0  0
   -0.2876   -1.2679    0.8660 N   0  0  0  0  0  2  0  0  0  0  0  0
    0.3681    1.5706    0.9431 N   0  0  0  0  0  2  0  0  0  0  0  0
    2.8422   -1.8452   -1.3997 C   0  0  0  0  0  0  0  0  0  0  0  0
    1.9677   -2.0750   -2.0433 H   0  0  0  0  0  0  0  0  0  0  0  0
    3.5125   -2.7378   -1.4058 H   0  0  0  0  0  0  0  0  0  0  0  0
    3.5995   -0.6562   -1.9790 C   0  0  0  0  0  0  0  0  0  0  0  0
    4.5366   -0.4735   -1.4131 H   0  0  0  0  0  0  0  0  0  0  0  0
    3.9330   -0.9424   -2.9969 H   0  0  0  0  0  0  0  0  0  0  0  0
    2.7865    0.6261   -2.1119 C   0  0  0  0  0  0  0  0  0  0  0  0
    3.4295    1.4331   -2.5313 H   0  0  0  0  0  0  0  0  0  0  0  0
    1.9295    0.4786   -2.8019 H   0  0  0  0  0  0  0  0  0  0  0  0
    3.2899    1.2850    0.2222 C   0  0  0  0  0  0  0  0  0  0  0  0
    3.1303    2.2719    0.6984 H   0  0  0  0  0  0  0  0  0  0  0  0
    4.2702    1.3441   -0.2934 H   0  0  0  0  0  0  0  0  0  0  0  0
    3.3122    0.2340    1.3395 C   0  0  0  0  0  0  0  0  0  0  0  0
    2.4184    0.3832    1.9768 H   0  0  0  0  0  0  0  0  0  0  0  0
    4.1938    0.4569    1.9783 H   0  0  0  0  0  0  0  0  0  0  0  0
    3.3703   -1.2456    0.9436 C   0  0  0  0  0  0  0  0  0  0  0  0
    4.3693   -1.5165    0.5366 H   0  0  0  0  0  0  0  0  0  0  0  0
    3.2423   -1.8465    1.8661 H   0  0  0  0  0  0  0  0  0  0  0  0
    1.5237   -2.8153    0.3761 C   0  0  0  0  0  0  0  0  0  0  0  0
    2.1404   -3.5790    0.8998 H   0  0  0  0  0  0  0  0  0  0  0  0
    1.1518   -3.2912   -0.5570 H   0  0  0  0  0  0  0  0  0  0  0  0
    0.2869   -2.4704    1.1620 C   0  0  2  0  0  3  0  0  0  0  0  0
   -0.3490   -3.3843    2.0084 C   0  0  0  0  0  0  0  0  0  0  0  0
    0.1478   -4.3372    2.2417 H   0  0  0  0  0  0  0  0  0  0  0  0
   -1.6220   -3.0872    2.5216 C   0  0  0  0  0  0  0  0  0  0  0  0
   -2.1341   -3.7959    3.1885 H   0  0  0  0  0  0  0  0  0  0  0  0
   -2.2334   -1.8857    2.1430 C   0  0  0  0  0  0  0  0  0  0  0  0
   -3.2462   -1.6226    2.4779 H   0  0  0  0  0  0  0  0  0  0  0  0
   -1.5372   -0.9996    1.3147 C   0  0  0  0  0  0  0  0  0  0  0  0
   -1.9836   -0.0537    0.9756 H   0  0  0  0  0  0  0  0  0  0  0  0
    1.4477    2.3576   -1.0480 C   0  0  0  0  0  0  0  0  0  0  0  0
    0.7297    2.1336   -1.8698 H   0  0  0  0  0  0  0  0  0  0  0  0
    2.1089    3.1936   -1.3679 H   0  0  0  0  0  0  0  0  0  0  0  0
    0.6982    2.6796    0.2126 C   0  0  1  0  0  3  0  0  0  0  0  0
    0.3426    3.9700    0.6136 C   0  0  0  0  0  0  0  0  0  0  0  0
    0.6326    4.8303   -0.0072 H   0  0  0  0  0  0  0  0  0  0  0  0
   -0.3801    4.1454    1.8049 C   0  0  0  0  0  0  0  0  0  0  0  0
   -0.6785    5.1499    2.1372 H   0  0  0  0  0  0  0  0  0  0  0  0
   -0.6924    3.0096    2.5685 C   0  0  0  0  0  0  0  0  0  0  0  0
   -1.2299    3.0941    3.5238 H   0  0  0  0  0  0  0  0  0  0  0  0
   -0.2969    1.7504    2.1119 C   0  0  0  0  0  0  0  0  0  0  0  0
   -0.5073    0.8441    2.6993 H   0  0  0  0  0  0  0  0  0  0  0  0
  1 23  1  0  0  0  0
  1 20  1  0  0  0  0
  2 14  1  0  0  0  0
  3 26  1  0  0  0  0
  3 33  1  0  0  0  0
  4 45  1  0  0  0  0
  5  1  1  0  0  0  0
  6  5  1  0  0  0  0
  7  5  1  0  0  0  0
  8  9  1  0  0  0  0
  8  5  1  0  0  0  0
 10  8  1  0  0  0  0
 11  8  1  0  0  0  0
 11  2  1  0  0  0  0
 12 11  1  0  0  0  0
 13 11  1  0  0  0  0
 14 15  1  0  0  0  0
 14 17  1  0  0  0  0
 16 14  1  0  0  0  0
 17 18  1  0  0  0  0
 17 19  1  0  0  0  0
 20 17  1  0  0  0  0
 20 22  1  0  0  0  0
 21 20  1  0  0  0  0
 23 24  1  0  0  0  0
 25 23  1  0  0  0  0
 26 23  1  6  0  0  0
 26 27  1  0  0  0  0
 27 28  1  0  0  0  0
 27 29  2  0  0  0  0
 29 30  1  0  0  0  0
 31 32  1  0  0  0  0
 31 29  1  0  0  0  0
 33 31  2  0  0  0  0
 34 33  1  0  0  0  0
 35  2  1  0  0  0  0
 36 35  1  0  0  0  0
 37 35  1  0  0  0  0
 38 35  1  6  0  0  0
 38 39  1  0  0  0  0
 38  4  1  0  0  0  0
 39 41  2  0  0  0  0
 40 39  1  0  0  0  0
 41 42  1  0  0  0  0
 41 43  1  0  0  0  0
 43 44  1  0  0  0  0
 45 43  2  0  0  0  0
 45 46  1  0  0  0  0
M  END
