1,12,17,32
q = 0.0, confidence = 0.962

 58 61  0  0  1  0  0  0  0  0999 V2000
    2.7490    1.7755   -0.0910 N   0  0  0  0  0  2  0  0  0  0  0  0
    3.9705    2.0949    0.3777 C   0  0  0  0  0  3  0  0  0  0  0  0
    4.5055    1.2998    0.9212 H   0  0  0  0  0  0  0  0  0  0  0  0
    4.5373    3.3636    0.2111 C   0  0  0  0  0  0  0  0  0  0  0  0
    5.5314    3.5808    0.6261 H   0  0  0  0  0  0  0  0  0  0  0  0
    3.8010    4.3386   -0.4800 C   0  0  0  0  0  0  0  0  0  0  0  0
    4.2107    5.3480   -0.6312 H   0  0  0  0  0  0  0  0  0  0  0  0
    2.5346    4.0114   -0.9776 C   0  0  0  0  0  0  0  0  0  0  0  0
    1.9447    4.7584   -1.5250 H   0  0  0  0  0  0  0  0  0  0  0  0
    2.0220    2.7143   -0.7756 C   0  0  0  0  0  0  0  0  0  0  0  0
    0.6975    2.2822   -1.2525 C   0  0  1  0  0  3  0  0  0  0  0  0
    0.4365    1.0070   -1.0530 N   0  0  0  0  0  2  0  0  0  0  0  0
   -0.6577    0.4226   -1.5181 N   0  0  0  0  0  0  0  0  0  0  0  0
   -1.5800   -0.0944   -0.7440 C   0  0  0  0  0  0  0  0  0  0  0  0
   -1.5800    0.0941    0.7441 C   0  0  0  0  0  0  0  0  0  0  0  0
   -0.6576   -0.4227    1.5181 N   0  0  0  0  0  0  0  0  0  0  0  0
    0.4366   -1.0070    1.0530 N   0  0  0  0  0  2  0  0  0  0  0  0
    0.6978   -2.2822    1.2526 C   0  0  0  0  0  0  0  0  0  0  0  0
   -0.2964   -3.1967    1.8951 C   0  0  0  0  0  0  0  0  0  0  0  0
   -0.9013   -2.6241    2.6263 H   0  0  0  0  0  0  0  0  0  0  0  0
    0.1820   -4.0487    2.4107 H   0  0  0  0  0  0  0  0  0  0  0  0
   -1.0010   -3.6089    1.1409 H   0  0  0  0  0  0  0  0  0  0  0  0
    2.0223   -2.7142    0.7755 C   0  0  0  0  0  0  0  0  0  0  0  0
    2.5350   -4.0112    0.9775 C   0  0  0  0  0  0  0  0  0  0  0  0
    1.9452   -4.7583    1.5249 H   0  0  0  0  0  0  0  0  0  0  0  0
    3.8014   -4.3384    0.4798 C   0  0  0  0  0  0  0  0  0  0  0  0
    4.2112   -5.3478    0.6310 H   0  0  0  0  0  0  0  0  0  0  0  0
    4.5376   -3.3633   -0.2113 C   0  0  0  0  0  0  0  0  0  0  0  0
    5.5317   -3.5803   -0.6264 H   0  0  0  0  0  0  0  0  0  0  0  0
    3.9707   -2.0946   -0.3778 C   0  0  0  0  0  0  0  0  0  0  0  0
    4.5056   -1.2995   -0.9214 H   0  0  0  0  0  0  0  0  0  0  0  0
    2.7492   -1.7753    0.0910 N   0  0  0  0  0  2  0  0  0  0  0  0
   -0.2969    3.1965   -1.8949 C   0  0  0  0  0  0  0  0  0  0  0  0
   -0.9007    2.6240   -2.6272 H   0  0  0  0  0  0  0  0  0  0  0  0
    0.1810    4.0494   -2.4092 H   0  0  0  0  0  0  0  0  0  0  0  0
   -1.0026    3.6071   -1.1409 H   0  0  0  0  0  0  0  0  0  0  0  0
   -2.6665   -0.8737   -1.3687 C   0  0  0  0  0  0  0  0  0  0  0  0
   -3.5480   -1.6429   -0.5727 C   0  0  0  0  0  0  0  0  0  0  0  0
   -3.4421   -1.6419    0.5223 H   0  0  0  0  0  0  0  0  0  0  0  0
   -4.5575   -2.4087   -1.1698 C   0  0  0  0  0  0  0  0  0  0  0  0
   -5.2370   -3.0016   -0.5398 H   0  0  0  0  0  0  0  0  0  0  0  0
   -4.7025   -2.4183   -2.5660 C   0  0  0  0  0  0  0  0  0  0  0  0
   -5.4990   -3.0163   -3.0336 H   0  0  0  0  0  0  0  0  0  0  0  0
   -3.8283   -1.6601   -3.3659 C   0  0  0  0  0  0  0  0  0  0  0  0
   -3.9406   -1.6649   -4.4604 H   0  0  0  0  0  0  0  0  0  0  0  0
   -2.8193   -0.8940   -2.7756 C   0  0  0  0  0  0  0  0  0  0  0  0
   -2.1325   -0.2971   -3.3929 H   0  0  0  0  0  0  0  0  0  0  0  0
   -2.6664    0.8735    1.3688 C   0  0  0  0  0  0  0  0  0  0  0  0
   -2.8191    0.8939    2.7757 C   0  0  0  0  0  0  0  0  0  0  0  0
   -2.1323    0.2972    3.3930 H   0  0  0  0  0  0  0  0  0  0  0  0
   -3.8281    1.6601    3.3660 C   0  0  0  0  0  0  0  0  0  0  0  0
   -3.9403    1.6650    4.4605 H   0  0  0  0  0  0  0  0  0  0  0  0
   -4.7024    2.4183    2.5660 C   0  0  0  0  0  0  0  0  0  0  0  0
   -5.4988    3.0163    3.0336 H   0  0  0  0  0  0  0  0  0  0  0  0
   -4.5575    2.4085    1.1699 C   0  0  0  0  0  0  0  0  0  0  0  0
   -5.2370    3.0013    0.5399 H   0  0  0  0  0  0  0  0  0  0  0  0
   -3.5480    1.6426    0.5728 C   0  0  0  0  0  0  0  0  0  0  0  0
   -3.4422    1.6415   -0.5222 H   0  0  0  0  0  0  0  0  0  0  0  0
  1  2  1  0  0  0  0
  2  3  1  0  0  0  0
  4  2  1  0  0  0  0
  4  5  1  0  0  0  0
  6  4  2  0  0  0  0
  7  6  1  0  0  0  0
  8 10  2  0  0  0  0
  8  6  1  0  0  0  0
  9  8  1  0  0  0  0
 10  1  1  0  0  0  0
 11 12  1  1  0  0  0
 11 10  1  0  0  0  0
 13 12  1  0  0  0  0
 13 14  2  0  0  0  0
 14 15  1  0  0  0  0
 15 48  1  0  0  0  0
 15 16  2  0  0  0  0
 17 18  1  0  0  0  0
 17 16  1  0  0  0  0
 18 19  1  0  0  0  0
 19 21  1  0  0  0  0
 19 20  1  0  0  0  0
 22 19  1  0  0  0  0
 23 24  1  0  0  0  0
 23 18  2  0  0  0  0
 24 25  1  0  0  0  0
 26 27  1  0  0  0  0
 26 24  2  0  0  0  0
 28 26  1  0  0  0  0
 29 28  1  0  0  0  0
 30 28  2  0  0  0  0
 30 32  1  0  0  0  0
 31 30  1  0  0  0  0
 32 23  1  0  0  0  0
 33 11  1  0  0  0  0
 33 36  1  0  0  0  0
 34 33  1  0  0  0  0
 35 33  1  0  0  0  0
 37 14  1  0  0  0  0
 37 38  1  0  0  0  0
 38 39  1  0  0  0  0
 40 38  2  0  0  0  0
 40 41  1  0  0  0  0
 42 40  1  0  0  0  0
 43 42  1  0  0  0  0
 44 46  1  0  0  0  0
 44 42  2  0  0  0  0
 45 44  1  0  0  0  0
 46 37  2  0  0  0  0
 47 46  1  0  0  0  0
 48 49  1  0  0  0  0
 49 51  2  0  0  0  0
 49 50  1  0  0  0  0
 51 52  1  0  0  0  0
 53 54  1  0  0  0  0
 53 51  1  0  0  0  0
 55 53  2  0  0  0  0
 56 55  1  0  0  0  0
 57 55  1  0  0  0  0
 57 48  2  0  0  0  0
 58 57  1  0  0  0  0
M  END
