1,2,3,4
q = 0.0, confidence = 0.534

 76 84  0  0  0  0  0  0  0  0999 V2000
    1.3605    1.6932    0.0291 N   0  0  0  0  0  0  0  0  0  0  0  0
   -1.6592    1.3378   -0.0144 N   0  0  0  0  0  2  0  0  0  0  0  0
   -1.3049   -1.6853   -0.0115 N   0  0  0  0  0  0  0  0  0  0  0  0
    1.7155   -1.3314    0.0317 N   0  0  0  0  0  0  0  0  0  0  0  0
    2.7291    1.6170   -0.0283 C   0  0  0  0  0  0  0  0  0  0  0  0
    3.2519    2.9766   -0.1159 C   0  0  0  0  0  0  0  0  0  0  0  0
    4.3108    3.2513   -0.1651 H   0  0  0  0  0  0  0  0  0  0  0  0
    2.1699    3.8287   -0.1413 C   0  0  0  0  0  0  0  0  0  0  0  0
    2.1890    4.9201   -0.2315 H   0  0  0  0  0  0  0  0  0  0  0  0
    0.9688    3.0056   -0.0455 C   0  0  0  0  0  0  0  0  0  0  0  0
   -0.3809    3.4811   -0.0812 C   0  0  0  0  0  0  0  0  0  0  0  0
   -1.5854    2.7071   -0.0861 C   0  0  0  0  0  0  0  0  0  0  0  0
   -2.9452    3.2274   -0.1746 C   0  0  0  0  0  0  0  0  0  0  0  0
   -3.2215    4.2854   -0.2352 H   0  0  0  0  0  0  0  0  0  0  0  0
   -3.7980    2.1445   -0.1804 C   0  0  0  0  0  0  0  0  0  0  0  0
   -4.8900    2.1628   -0.2640 H   0  0  0  0  0  0  0  0  0  0  0  0
   -2.9744    0.9452   -0.0755 C   0  0  0  0  0  0  0  0  0  0  0  0
   -3.4491   -0.4064   -0.0883 C   0  0  0  0  0  0  0  0  0  0  0  0
   -2.6752   -1.6117   -0.0827 C   0  0  0  0  0  0  0  0  0  0  0  0
   -3.1954   -2.9721   -0.1669 C   0  0  0  0  0  0  0  0  0  0  0  0
   -4.2532   -3.2493   -0.2264 H   0  0  0  0  0  0  0  0  0  0  0  0
   -2.1113   -3.8235   -0.1770 C   0  0  0  0  0  0  0  0  0  0  0  0
   -2.1289   -4.9156   -0.2596 H   0  0  0  0  0  0  0  0  0  0  0  0
   -0.9126   -2.9997   -0.0716 C   0  0  0  0  0  0  0  0  0  0  0  0
    0.4384   -3.4734   -0.0765 C   0  0  0  0  0  0  0  0  0  0  0  0
    1.6413   -2.6988   -0.0510 C   0  0  0  0  0  0  0  0  0  0  0  0
    3.0025   -3.2192   -0.1280 C   0  0  0  0  0  0  0  0  0  0  0  0
    3.2786   -4.2769   -0.1928 H   0  0  0  0  0  0  0  0  0  0  0  0
    3.8540   -2.1364   -0.1209 C   0  0  0  0  0  0  0  0  0  0  0  0
    4.9466   -2.1527   -0.1940 H   0  0  0  0  0  0  0  0  0  0  0  0
    3.0283   -0.9378   -0.0167 C   0  0  0  0  0  3  0  0  0  0  0  0
    3.5028    0.4128   -0.0260 C   0  0  0  0  0  0  0  0  0  0  0  0
    4.9891    0.5799   -0.0747 C   0  0  0  0  0  0  0  0  0  0  0  0
    5.7922    0.1718    1.0124 C   0  0  0  0  0  0  0  0  0  0  0  0
    5.3078   -0.2597    1.9014 H   0  0  0  0  0  0  0  0  0  0  0  0
    7.1862    0.3217    0.9695 C   0  0  0  0  0  0  0  0  0  0  0  0
    7.7956    0.0034    1.8292 H   0  0  0  0  0  0  0  0  0  0  0  0
    7.8019    0.8801   -0.1619 C   0  0  0  0  0  0  0  0  0  0  0  0
    8.8957    0.9972   -0.1958 H   0  0  0  0  0  0  0  0  0  0  0  0
    7.0142    1.2868   -1.2506 C   0  0  0  0  0  0  0  0  0  0  0  0
    7.4893    1.7182   -2.1451 H   0  0  0  0  0  0  0  0  0  0  0  0
    5.6201    1.1381   -1.2078 C   0  0  0  0  0  0  0  0  0  0  0  0
    5.0032    1.4450   -2.0658 H   0  0  0  0  0  0  0  0  0  0  0  0
   -0.5484    4.9663   -0.1530 C   0  0  0  0  0  0  0  0  0  0  0  0
   -0.1418    5.7879    0.9210 C   0  0  0  0  0  0  0  0  0  0  0  0
    0.2909    5.3190    1.8177 H   0  0  0  0  0  0  0  0  0  0  0  0
   -0.2939    7.1807    0.8557 C   0  0  0  0  0  0  0  0  0  0  0  0
    0.0236    7.8044    1.7054 H   0  0  0  0  0  0  0  0  0  0  0  0
   -0.8533    7.7773   -0.2854 C   0  0  0  0  0  0  0  0  0  0  0  0
   -0.9719    8.8702   -0.3370 H   0  0  0  0  0  0  0  0  0  0  0  0
   -1.2586    6.9714   -1.3613 C   0  0  0  0  0  0  0  0  0  0  0  0
   -1.6903    7.4313   -2.2634 H   0  0  0  0  0  0  0  0  0  0  0  0
   -1.1076    5.5785   -1.2960 C   0  0  0  0  0  0  0  0  0  0  0  0
   -1.4131    4.9475   -2.1442 H   0  0  0  0  0  0  0  0  0  0  0  0
   -4.9352   -0.5741   -0.1440 C   0  0  0  0  0  0  0  0  0  0  0  0
   -5.7470   -0.1617    0.9351 C   0  0  0  0  0  0  0  0  0  0  0  0
   -5.2710    0.2775    1.8251 H   0  0  0  0  0  0  0  0  0  0  0  0
   -7.1405   -0.3134    0.8849 C   0  0  0  0  0  0  0  0  0  0  0  0
   -7.7558    0.0092    1.7387 H   0  0  0  0  0  0  0  0  0  0  0  0
   -7.7480   -0.8793   -0.2472 C   0  0  0  0  0  0  0  0  0  0  0  0
   -8.8414   -0.9982   -0.2875 H   0  0  0  0  0  0  0  0  0  0  0  0
   -6.9524   -1.2904   -1.3285 C   0  0  0  0  0  0  0  0  0  0  0  0
   -7.4210   -1.7272   -2.2237 H   0  0  0  0  0  0  0  0  0  0  0  0
   -5.5590   -1.1390   -1.2778 C   0  0  0  0  0  0  0  0  0  0  0  0
   -4.9362   -1.4493   -2.1303 H   0  0  0  0  0  0  0  0  0  0  0  0
    0.6083   -4.9586   -0.1511 C   0  0  0  0  0  0  0  0  0  0  0  0
    0.2005   -5.7837    0.9195 C   0  0  0  0  0  0  0  0  0  0  0  0
   -0.2333   -5.3180    1.8173 H   0  0  0  0  0  0  0  0  0  0  0  0
    0.3540   -7.1762    0.8505 C   0  0  0  0  0  0  0  0  0  0  0  0
    0.0359   -7.8028    1.6978 H   0  0  0  0  0  0  0  0  0  0  0  0
    0.9165   -7.7686   -0.2912 C   0  0  0  0  0  0  0  0  0  0  0  0
    1.0367   -8.8613   -0.3457 H   0  0  0  0  0  0  0  0  0  0  0  0
    1.3237   -6.9590   -1.3636 C   0  0  0  0  0  0  0  0  0  0  0  0
    1.7591   -7.4157   -2.2656 H   0  0  0  0  0  0  0  0  0  0  0  0
    1.1710   -5.5665   -1.2944 C   0  0  0  0  0  0  0  0  0  0  0  0
    1.4794   -4.9322   -2.1391 H   0  0  0  0  0  0  0  0  0  0  0  0
  5 32  2  0  0  0  0
  5  1  1  0  0  0  0
  6  5  1  0  0  0  0
  7  6  1  0  0  0  0
  8  6  2  0  0  0  0
  8 10  1  0  0  0  0
  9  8  1  0  0  0  0
 10  1  2  0  0  0  0
 11 10  1  0  0  0  0
 12 11  2  0  0  0  0
 12  2  1  0  0  0  0
 13 12  1  0  0  0  0
 14 13  1  0  0  0  0
 15 13  2  0  0  0  0
 15 17  1  0  0  0  0
 16 15  1  0  0  0  0
 17  2  1  0  0  0  0
 18 19  1  0  0  0  0
 18 17  2  0  0  0  0
 19  3  2  0  0  0  0
 20 19  1  0  0  0  0
 21 20  1  0  0  0  0
 22 20  2  0  0  0  0
 22 24  1  0  0  0  0
 23 22  1  0  0  0  0
 24  3  1  0  0  0  0
 25 24  2  0  0  0  0
 25 26  1  0  0  0  0
 26  4  2  0  0  0  0
 27 29  2  0  0  0  0
 27 26  1  0  0  0  0
 28 27  1  0  0  0  0
 29 31  1  0  0  0  0
 30 29  1  0  0  0  0
 31  4  1  0  0  0  0
 32 31  1  0  0  0  0
 33 32  1  0  0  0  0
 33 34  1  0  0  0  0
 34 35  1  0  0  0  0
 36 34  2  0  0  0  0
 36 37  1  0  0  0  0
 38 36  1  0  0  0  0
 39 38  1  0  0  0  0
 40 42  1  0  0  0  0
 40 38  2  0  0  0  0
 41 40  1  0  0  0  0
 42 33  2  0  0  0  0
 43 42  1  0  0  0  0
 44 11  1  0  0  0  0
 44 45  1  0  0  0  0
 45 46  1  0  0  0  0
 47 45  2  0  0  0  0
 47 48  1  0  0  0  0
 49 47  1  0  0  0  0
 50 49  1  0  0  0  0
 51 53  1  0  0  0  0
 51 49  2  0  0  0  0
 52 51  1  0  0  0  0
 53 44  2  0  0  0  0
 54 53  1  0  0  0  0
 55 18  1  0  0  0  0
 55 56  1  0  0  0  0
 56 57  1  0  0  0  0
 58 56  2  0  0  0  0
 58 59  1  0  0  0  0
 60 58  1  0  0  0  0
 61 60  1  0  0  0  0
 62 64  1  0  0  0  0
 62 60  2  0  0  0  0
 63 62  1  0  0  0  0
 64 55  2  0  0  0  0
 65 64  1  0  0  0  0
 66 25  1  0  0  0  0
 66 67  1  0  0  0  0
 67 68  1  0  0  0  0
 69 67  2  0  0  0  0
 69 70  1  0  0  0  0
 71 69  1  0  0  0  0
 72 71  1  0  0  0  0
 73 75  1  0  0  0  0
 73 71  2  0  0  0  0
 74 73  1  0  0  0  0
 75 66  2  0  0  0  0
 76 75  1  0  0  0  0
M  END
