2,3,4,5
q = 0.0, confidence = 0.97

 40 42  0  0  1  0  0  0  0  0999 V2000
   -2.7979    1.6991   -0.7140 Br  0  0  0  0  0  0  0  0  0  0  0  0
    2.1679   -0.3107   -0.6950 N   0  0  0  0  0  2  0  0  0  0  0  0
    0.6604   -1.4859    1.1823 N   0  0  0  0  0  0  0  0  0  0  0  0
    0.4807    1.1353    0.6725 N   0  0  0  0  0  2  0  0  0  0  0  0
   -1.6368   -0.7319    0.1456 N   0  0  0  0  0  2  0  0  0  0  0  0
    0.7972    0.8531    1.9711 C   0  0  2  0  0  3  0  0  0  0  0  0
    2.0135   -2.0474    0.9483 C   0  0  0  0  0  0  0  0  0  0  0  0
    2.8648   -1.0563    0.2099 C   0  0  1  0  0  3  0  0  0  0  0  0
    0.5866    2.4190    0.2400 C   0  0  0  0  0  0  0  0  0  0  0  0
   -1.7113   -1.8921    0.8812 C   0  0  2  0  0  3  0  0  0  0  0  0
   -0.3924   -2.5299    1.2087 C   0  0  0  0  0  0  0  0  0  0  0  0
   -2.9190   -2.4568    1.2947 C   0  0  0  0  0  0  0  0  0  0  0  0
    0.5720   -0.5823    2.3628 C   0  0  0  0  0  0  0  0  0  0  0  0
    4.2547   -0.9647    0.3307 C   0  0  0  0  0  0  0  0  0  0  0  0
    1.2271    1.8407    2.8626 C   0  0  0  0  0  0  0  0  0  0  0  0
    0.9940    3.4528    1.0857 C   0  0  0  0  0  0  0  0  0  0  0  0
   -4.1236   -1.8245    0.9532 C   0  0  0  0  0  0  0  0  0  0  0  0
   -2.8000   -0.0703   -0.0547 C   0  0  0  0  0  0  0  0  0  0  0  0
    1.3252    3.1700    2.4213 C   0  0  0  0  0  0  0  0  0  0  0  0
    4.9599   -0.1026   -0.5241 C   0  0  0  0  0  0  0  0  0  0  0  0
   -4.0584   -0.5991    0.2876 C   0  0  0  0  0  0  0  0  0  0  0  0
    2.8441    0.5152   -1.5258 C   0  0  0  0  0  0  0  0  0  0  0  0
    4.2371    0.6355   -1.4726 C   0  0  0  0  0  0  0  0  0  0  0  0
   -4.9605   -0.0219    0.0467 H   0  0  0  0  0  0  0  0  0  0  0  0
   -5.0944   -2.2581    1.2340 H   0  0  0  0  0  0  0  0  0  0  0  0
   -2.9056   -3.3892    1.8770 H   0  0  0  0  0  0  0  0  0  0  0  0
   -0.4326   -3.0741    2.1802 H   0  0  0  0  0  0  0  0  0  0  0  0
   -0.1521   -3.2281    0.3756 H   0  0  0  0  0  0  0  0  0  0  0  0
    1.2634   -0.9021    3.1724 H   0  0  0  0  0  0  0  0  0  0  0  0
   -0.4585   -0.6723    2.7671 H   0  0  0  0  0  0  0  0  0  0  0  0
    1.4838    1.5641    3.8962 H   0  0  0  0  0  0  0  0  0  0  0  0
    1.6624    3.9639    3.1035 H   0  0  0  0  0  0  0  0  0  0  0  0
    1.0586    4.4759    0.6875 H   0  0  0  0  0  0  0  0  0  0  0  0
    0.3296    2.5530   -0.8258 H   0  0  0  0  0  0  0  0  0  0  0  0
    1.8598   -2.8955    0.2450 H   0  0  0  0  0  0  0  0  0  0  0  0
    2.4909   -2.4115    1.8846 H   0  0  0  0  0  0  0  0  0  0  0  0
    4.7755   -1.5745    1.0836 H   0  0  0  0  0  0  0  0  0  0  0  0
    6.0538   -0.0130   -0.4502 H   0  0  0  0  0  0  0  0  0  0  0  0
    4.7438    1.3155   -2.1726 H   0  0  0  0  0  0  0  0  0  0  0  0
    2.2009    1.0562   -2.2415 H   0  0  0  0  0  0  0  0  0  0  0  0
  1 18  1  0  0  0  0
  2  8  1  0  0  0  0
  3 11  1  0  0  0  0
  3 13  1  0  0  0  0
  4  6  1  0  0  0  0
  5 10  1  0  0  0  0
  6 13  1  1  0  0  0
  6 15  1  0  0  0  0
  7  3  1  0  0  0  0
  7 36  1  0  0  0  0
  8 14  1  0  0  0  0
  8  7  1  6  0  0  0
  9  4  1  0  0  0  0
  9 16  2  0  0  0  0
 10 11  1  6  0  0  0
 10 12  1  0  0  0  0
 11 27  1  0  0  0  0
 12 26  1  0  0  0  0
 13 30  1  0  0  0  0
 13 29  1  0  0  0  0
 14 37  1  0  0  0  0
 15 31  1  0  0  0  0
 16 19  1  0  0  0  0
 17 25  1  0  0  0  0
 17 12  2  0  0  0  0
 18  5  1  0  0  0  0
 18 21  2  0  0  0  0
 19 15  2  0  0  0  0
 19 32  1  0  0  0  0
 20 38  1  0  0  0  0
 20 14  2  0  0  0  0
 21 17  1  0  0  0  0
 22 23  2  0  0  0  0
 22  2  1  0  0  0  0
 23 20  1  0  0  0  0
 24 21  1  0  0  0  0
 28 11  1  0  0  0  0
 33 16  1  0  0  0  0
 34  9  1  0  0  0  0
 35  7  1  0  0  0  0
 39 23  1  0  0  0  0
 40 22  1  0  0  0  0
M  END
