3,4,5,8
q = 0.0, confidence = 0.976

 70 74  0  0  1  0  0  0  0  0999 V2000
   -1.0712   -2.4312    0.0685 N   0  0  1  0  0  0  0  0  0  0  0  0
   -2.9105   -0.7962    0.3460 C   0  0  1  0  0  3  0  0  0  0  0  0
    2.5452   -0.1810    0.0261 N   0  0  0  0  0  2  0  0  0  0  0  0
   -2.1112    0.2025   -0.0676 N   0  0  0  0  0  2  0  0  0  0  0  0
    1.0710   -1.3389   -1.9842 N   0  0  0  0  0  2  0  0  0  0  0  0
    3.2412    0.4090    1.0143 C   0  0  0  0  0  0  0  0  0  0  0  0
   -0.5351    2.5827   -0.0801 N   0  0  1  0  0  0  0  0  0  0  0  0
    1.1772    1.0923    2.0410 N   0  0  0  0  0  2  0  0  0  0  0  0
   -1.5810   -2.8556   -1.2449 C   0  0  0  0  0  0  0  0  0  0  0  0
   -2.2353   -2.0475   -1.6329 H   0  0  0  0  0  0  0  0  0  0  0  0
   -2.2398   -3.7538   -1.1181 H   0  0  0  0  0  0  0  0  0  0  0  0
   -2.1875   -1.9931    0.9535 C   0  0  2  0  0  0  0  0  0  0  0  0
   -2.9178   -2.8345    1.0734 H   0  0  0  0  0  0  0  0  0  0  0  0
    2.3441   -1.4904   -1.9881 C   0  0  0  0  0  3  0  0  0  0  0  0
    2.8720   -2.1066   -2.7530 H   0  0  0  0  0  0  0  0  0  0  0  0
   -1.7552   -1.5937    2.2758 N   0  0  0  0  0  0  0  0  0  0  0  0
    3.1852   -0.8557   -0.9456 C   0  0  0  0  0  0  0  0  0  0  0  0
   -2.6300    1.3457   -0.5480 C   0  0  0  0  0  0  0  0  0  0  0  0
   -1.6120    2.3499   -1.0767 C   0  0  2  0  0  0  0  0  0  0  0  0
   -2.1407    3.3147   -1.2930 H   0  0  0  0  0  0  0  0  0  0  0  0
   -4.8644    0.5055   -0.2016 C   0  0  0  0  0  0  0  0  0  0  0  0
   -5.9567    0.6263   -0.2542 H   0  0  0  0  0  0  0  0  0  0  0  0
    0.2419   -2.0279   -2.9470 C   0  0  0  0  0  0  0  0  0  0  0  0
    0.8401   -2.4239   -3.8022 H   0  0  0  0  0  0  0  0  0  0  0  0
   -0.4872   -1.2943   -3.3569 H   0  0  0  0  0  0  0  0  0  0  0  0
   -1.1264    1.8251   -2.3371 N   0  0  0  0  0  0  0  0  0  0  0  0
    2.4593    1.1433    2.0358 C   0  0  0  0  0  0  0  0  0  0  0  0
    3.0385    1.7416    2.7770 H   0  0  0  0  0  0  0  0  0  0  0  0
   -0.5407   -3.1969   -2.3162 C   0  0  0  0  0  0  0  0  0  0  0  0
    0.1794   -3.9560   -1.9462 H   0  0  0  0  0  0  0  0  0  0  0  0
   -1.0869   -3.6914   -3.1459 H   0  0  0  0  0  0  0  0  0  0  0  0
   -4.0168    1.5364   -0.6334 C   0  0  0  0  0  0  0  0  0  0  0  0
   -4.4190    2.4767   -1.0376 H   0  0  0  0  0  0  0  0  0  0  0  0
    0.4183    1.8995    2.9739 C   0  0  0  0  0  0  0  0  0  0  0  0
    1.0205    2.1543    3.8776 H   0  0  0  0  0  0  0  0  0  0  0  0
   -0.4597    1.3062    3.3102 H   0  0  0  0  0  0  0  0  0  0  0  0
   -0.2678   -3.4814    0.7140 C   0  0  0  0  0  0  0  0  0  0  0  0
    0.5954   -3.7147    0.0606 H   0  0  0  0  0  0  0  0  0  0  0  0
   -0.8687   -4.4250    0.8043 H   0  0  0  0  0  0  0  0  0  0  0  0
    5.3296   -0.3519    0.0570 C   0  0  0  0  0  0  0  0  0  0  0  0
    6.4274   -0.4191    0.0689 H   0  0  0  0  0  0  0  0  0  0  0  0
    0.5260    3.4328   -0.6354 C   0  0  0  0  0  0  0  0  0  0  0  0
    1.3456    3.5044    0.1064 H   0  0  0  0  0  0  0  0  0  0  0  0
    0.1446    4.4773   -0.7927 H   0  0  0  0  0  0  0  0  0  0  0  0
    0.2289   -3.0616    2.0961 C   0  0  0  0  0  0  0  0  0  0  0  0
    0.7722   -3.9078    2.5654 H   0  0  0  0  0  0  0  0  0  0  0  0
    0.9514   -2.2220    1.9856 H   0  0  0  0  0  0  0  0  0  0  0  0
   -1.0704    3.1098    1.1803 C   0  0  0  0  0  0  0  0  0  0  0  0
   -1.9143    2.4593    1.4911 H   0  0  0  0  0  0  0  0  0  0  0  0
   -1.5095    4.1292    1.0165 H   0  0  0  0  0  0  0  0  0  0  0  0
    4.5913   -0.9658   -0.9648 C   0  0  0  0  0  0  0  0  0  0  0  0
    5.0906   -1.5214   -1.7729 H   0  0  0  0  0  0  0  0  0  0  0  0
   -0.0755    2.6482   -2.9353 C   0  0  0  0  0  0  0  0  0  0  0  0
   -0.5269    3.6194   -3.2374 H   0  0  0  0  0  0  0  0  0  0  0  0
    0.2739    2.1593   -3.8672 H   0  0  0  0  0  0  0  0  0  0  0  0
   -4.3070   -0.6813    0.2973 C   0  0  0  0  0  0  0  0  0  0  0  0
   -4.9406   -1.5077    0.6502 H   0  0  0  0  0  0  0  0  0  0  0  0
   -0.9532   -2.6100    2.9566 C   0  0  0  0  0  0  0  0  0  0  0  0
   -1.6127   -3.4779    3.1799 H   0  0  0  0  0  0  0  0  0  0  0  0
   -0.6215   -2.2062    3.9343 H   0  0  0  0  0  0  0  0  0  0  0  0
    4.6500    0.3486    1.0631 C   0  0  0  0  0  0  0  0  0  0  0  0
    5.1959    0.8424    1.8811 H   0  0  0  0  0  0  0  0  0  0  0  0
   -0.0837    3.2164    2.3465 C   0  0  0  0  0  0  0  0  0  0  0  0
    0.7927    3.8392    2.0701 H   0  0  0  0  0  0  0  0  0  0  0  0
   -0.5978    3.7757    3.1554 H   0  0  0  0  0  0  0  0  0  0  0  0
    1.0738    2.8881   -1.9540 C   0  0  0  0  0  0  0  0  0  0  0  0
    1.6018    1.9286   -1.7599 H   0  0  0  0  0  0  0  0  0  0  0  0
    1.8176    3.6007   -2.3668 H   0  0  0  0  0  0  0  0  0  0  0  0
   -0.7590    0.8766   -2.1577 H   0  0  0  0  0  0  0  0  0  0  0  0
   -1.2062   -0.7249    2.1788 H   0  0  0  0  0  0  0  0  0  0  0  0
  1  9  1  6  0  0  0
  1 37  1  0  0  0  0
  1 12  1  0  0  0  0
  2  4  1  1  0  0  0
  2 12  1  0  0  0  0
  3  6  1  0  0  0  0
  6 61  1  0  0  0  0
  6 27  2  0  0  0  0
  7 42  1  6  0  0  0
  7 48  1  0  0  0  0
  8 34  1  0  0  0  0
  9 11  1  0  0  0  0
 10  9  1  0  0  0  0
 12 13  1  1  0  0  0
 12 16  1  0  0  0  0
 14  5  1  0  0  0  0
 14 17  1  0  0  0  0
 15 14  1  0  0  0  0
 16 58  1  0  0  0  0
 17  3  1  0  0  0  0
 18  4  1  0  0  0  0
 19 20  1  6  0  0  0
 19 18  1  0  0  0  0
 19  7  1  0  0  0  0
 21 56  2  0  0  0  0
 22 21  1  0  0  0  0
 23 29  1  0  0  0  0
 23  5  1  0  0  0  0
 24 23  1  0  0  0  0
 25 23  1  0  0  0  0
 26 69  1  0  0  0  0
 26 19  1  0  0  0  0
 27  8  1  0  0  0  0
 27 28  1  0  0  0  0
 29 30  1  0  0  0  0
 29  9  1  0  0  0  0
 31 29  1  0  0  0  0
 32 18  2  0  0  0  0
 32 21  1  0  0  0  0
 33 32  1  0  0  0  0
 34 36  1  0  0  0  0
 34 35  1  0  0  0  0
 37 39  1  0  0  0  0
 37 45  1  0  0  0  0
 38 37  1  0  0  0  0
 40 41  1  0  0  0  0
 40 61  2  0  0  0  0
 42 43  1  0  0  0  0
 44 42  1  0  0  0  0
 45 46  1  0  0  0  0
 45 58  1  0  0  0  0
 47 45  1  0  0  0  0
 48 49  1  0  0  0  0
 48 63  1  0  0  0  0
 50 48  1  0  0  0  0
 51 17  2  0  0  0  0
 51 40  1  0  0  0  0
 52 51  1  0  0  0  0
 53 26  1  0  0  0  0
 53 66  1  0  0  0  0
 54 53  1  0  0  0  0
 55 53  1  0  0  0  0
 56  2  1  0  0  0  0
 56 57  1  0  0  0  0
 58 59  1  0  0  0  0
 58 60  1  0  0  0  0
 61 62  1  0  0  0  0
 63 34  1  0  0  0  0
 63 65  1  0  0  0  0
 64 63  1  0  0  0  0
 66 67  1  0  0  0  0
 66 42  1  0  0  0  0
 68 66  1  0  0  0  0
 70 16  1  0  0  0  0
M  END
