3,6,9,10
q = -2.0, confidence = 0.898

 46 46  0  0  1  0  0  0  0  0999 V2000
    3.0683    1.6218    0.7938 O   0  0  0  0  0  0  0  0  0  0  0  0
   -3.8059    0.5996   -0.5944 O   0  0  0  0  0  0  0  0  0  0  0  0
    1.6707   -1.5238   -0.3186 N   0  0  0  0  0  0  0  0  0  0  0  0
    1.6579   -2.5120   -0.0251 H   0  0  0  0  0  0  0  0  0  0  0  0
    2.0240   -1.5276   -1.2902 H   0  0  0  0  0  0  0  0  0  0  0  0
   -1.2540   -1.9490   -0.9815 N   0  0  0  0  0  0  0  0  0  0  0  0
   -1.1498   -2.0024   -2.0057 H   0  0  0  0  0  0  0  0  0  0  0  0
   -1.0983   -2.9106   -0.6387 H   0  0  0  0  0  0  0  0  0  0  0  0
    0.9461    0.9038    0.1331 N   0  0  0  0  0  2  0  0  0  0  0  0
   -1.4745    0.5529   -0.4162 N   0  0  0  0  0  2  0  0  0  0  0  0
    2.6387   -0.7511    0.5208 C   0  0  2  0  0  0  0  0  0  0  0  0
    2.4696   -1.0829    1.5686 H   0  0  0  0  0  0  0  0  0  0  0  0
    2.2511    0.7474    0.4810 C   0  0  0  0  0  0  0  0  0  0  0  0
    0.2129    2.1063    0.1276 C   0  0  0  0  0  0  0  0  0  0  0  0
    0.6982    3.3988    0.4013 C   0  0  0  0  0  0  0  0  0  0  0  0
    1.7610    3.5273    0.6391 H   0  0  0  0  0  0  0  0  0  0  0  0
   -0.1970    4.4813    0.3650 C   0  0  0  0  0  0  0  0  0  0  0  0
    0.1770    5.4951    0.5753 H   0  0  0  0  0  0  0  0  0  0  0  0
   -1.5558    4.2829    0.0664 C   0  0  0  0  0  0  0  0  0  0  0  0
   -2.2445    5.1415    0.0445 H   0  0  0  0  0  0  0  0  0  0  0  0
   -2.0531    2.9972   -0.2056 C   0  0  0  0  0  0  0  0  0  0  0  0
   -3.1109    2.8153   -0.4310 H   0  0  0  0  0  0  0  0  0  0  0  0
   -1.1650    1.9057   -0.1787 C   0  0  0  0  0  0  0  0  0  0  0  0
   -2.7164    0.0174   -0.5789 C   0  0  0  0  0  0  0  0  0  0  0  0
   -2.6557   -1.5220   -0.6628 C   0  0  2  0  0  0  0  0  0  0  0  0
   -3.3415   -1.8414   -1.4769 H   0  0  0  0  0  0  0  0  0  0  0  0
    4.1148   -0.9843    0.1614 C   0  0  0  0  0  0  0  0  0  0  0  0
    4.6554   -0.2788    0.8281 H   0  0  0  0  0  0  0  0  0  0  0  0
    4.4288   -0.5713   -1.2819 C   0  0  0  0  0  0  0  0  0  0  0  0
    3.9055   -1.2092   -2.0300 H   0  0  0  0  0  0  0  0  0  0  0  0
    5.5117   -0.6759   -1.4923 H   0  0  0  0  0  0  0  0  0  0  0  0
    4.1477    0.4847   -1.4614 H   0  0  0  0  0  0  0  0  0  0  0  0
    4.5643   -2.4169    0.4663 C   0  0  0  0  0  0  0  0  0  0  0  0
    4.3654   -2.6932    1.5224 H   0  0  0  0  0  0  0  0  0  0  0  0
    5.6506   -2.5420    0.2851 H   0  0  0  0  0  0  0  0  0  0  0  0
    4.0469   -3.1595   -0.1809 H   0  0  0  0  0  0  0  0  0  0  0  0
   -3.1616   -2.1570    0.6517 C   0  0  0  0  0  0  0  0  0  0  0  0
   -4.1584   -1.6869    0.7955 H   0  0  0  0  0  0  0  0  0  0  0  0
   -2.2872   -1.8043    1.8612 C   0  0  0  0  0  0  0  0  0  0  0  0
   -1.2634   -2.2266    1.7670 H   0  0  0  0  0  0  0  0  0  0  0  0
   -2.7284   -2.2164    2.7909 H   0  0  0  0  0  0  0  0  0  0  0  0
   -2.1782   -0.7098    1.9844 H   0  0  0  0  0  0  0  0  0  0  0  0
   -3.3592   -3.6717    0.5139 C   0  0  0  0  0  0  0  0  0  0  0  0
   -2.3947   -4.2106    0.3731 H   0  0  0  0  0  0  0  0  0  0  0  0
   -4.0159   -3.9253   -0.3431 H   0  0  0  0  0  0  0  0  0  0  0  0
   -3.8169   -4.0952    1.4301 H   0  0  0  0  0  0  0  0  0  0  0  0
  2 24  2  0  0  0  0
  3  4  1  0  0  0  0
  3 11  1  0  0  0  0
  5  3  1  0  0  0  0
  6 25  1  0  0  0  0
  6  8  1  0  0  0  0
  7  6  1  0  0  0  0
  9 13  1  0  0  0  0
 10 23  1  0  0  0  0
 11 12  1  1  0  0  0
 13 11  1  0  0  0  0
 13  1  2  0  0  0  0
 14  9  1  0  0  0  0
 14 15  1  0  0  0  0
 15 16  1  0  0  0  0
 17 15  2  0  0  0  0
 17 18  1  0  0  0  0
 19 17  1  0  0  0  0
 20 19  1  0  0  0  0
 21 23  1  0  0  0  0
 21 19  2  0  0  0  0
 22 21  1  0  0  0  0
 23 14  2  0  0  0  0
 24 10  1  0  0  0  0
 25 26  1  6  0  0  0
 25 24  1  0  0  0  0
 25 37  1  0  0  0  0
 27 33  1  0  0  0  0
 27 11  1  0  0  0  0
 27 28  1  0  0  0  0
 29 27  1  0  0  0  0
 30 29  1  0  0  0  0
 31 29  1  0  0  0  0
 32 29  1  0  0  0  0
 33 34  1  0  0  0  0
 35 33  1  0  0  0  0
 36 33  1  0  0  0  0
 37 38  1  0  0  0  0
 37 39  1  0  0  0  0
 39 42  1  0  0  0  0
 39 41  1  0  0  0  0
 40 39  1  0  0  0  0
 43 37  1  0  0  0  0
 43 46  1  0  0  0  0
 44 43  1  0  0  0  0
 45 43  1  0  0  0  0
M  END
