6,7,8,9
q = -2.0, confidence = 0.874

 52 53  0  0  0  0  0  0  0  0999 V2000
   -0.7088    1.4674    1.2061 O   0  0  0  0  0  0  0  0  0  0  0  0
   -1.2166   -3.6219    1.5881 O   0  0  0  0  0  0  0  0  0  0  0  0
   -0.9643   -3.8360    0.5299 H   0  0  0  0  0  0  0  0  0  0  0  0
   -0.3072    1.2134   -1.2849 O   0  0  0  0  0  0  0  0  0  0  0  0
   -0.7009   -3.8531   -0.8115 O   0  0  0  0  0  1  0  0  0  0  0  0
   -0.7423    0.1544    1.4616 N   0  0  0  0  0  2  0  0  0  0  0  0
   -1.0942   -2.3008    1.6634 N   0  0  0  0  0  2  0  0  0  0  0  0
   -0.2177   -0.1246   -1.2824 N   0  0  0  0  0  2  0  0  0  0  0  0
   -0.5083   -2.5987   -1.1079 N   0  0  0  0  0  2  0  0  0  0  0  0
   -1.0951   -0.2209    2.6795 C   0  0  0  0  0  0  0  0  0  0  0  0
   -1.2694   -1.6652    2.8078 C   0  0  0  0  0  0  0  0  0  0  0  0
   -1.3286    0.7759    3.7679 C   0  0  0  0  0  0  0  0  0  0  0  0
   -1.5223    0.2872    4.7390 H   0  0  0  0  0  0  0  0  0  0  0  0
   -2.1891    1.4311    3.5163 H   0  0  0  0  0  0  0  0  0  0  0  0
   -0.4543    1.4514    3.8662 H   0  0  0  0  0  0  0  0  0  0  0  0
   -1.6065   -2.3651    4.0857 C   0  0  0  0  0  0  0  0  0  0  0  0
   -1.6224   -3.4562    3.9163 H   0  0  0  0  0  0  0  0  0  0  0  0
   -2.5999   -2.0520    4.4694 H   0  0  0  0  0  0  0  0  0  0  0  0
   -0.8613   -2.1366    4.8751 H   0  0  0  0  0  0  0  0  0  0  0  0
   -0.1005   -0.7422   -2.4441 C   0  0  0  0  0  0  0  0  0  0  0  0
   -0.2402   -2.1884   -2.3447 C   0  0  0  0  0  0  0  0  0  0  0  0
    0.1094    0.0142   -3.7154 C   0  0  0  0  0  0  0  0  0  0  0  0
   -0.8170    0.5499   -4.0140 H   0  0  0  0  0  0  0  0  0  0  0  0
    0.4099   -0.6538   -4.5422 H   0  0  0  0  0  0  0  0  0  0  0  0
    0.8839    0.7928   -3.5678 H   0  0  0  0  0  0  0  0  0  0  0  0
   -0.0942   -3.1423   -3.4866 C   0  0  0  0  0  0  0  0  0  0  0  0
   -0.7826   -2.8945   -4.3206 H   0  0  0  0  0  0  0  0  0  0  0  0
   -0.3177   -4.1635   -3.1286 H   0  0  0  0  0  0  0  0  0  0  0  0
    0.9383   -3.1310   -3.8960 H   0  0  0  0  0  0  0  0  0  0  0  0
    1.6629    1.9434    0.2329 C   0  0  0  0  0  0  0  0  0  0  0  0
    2.5448    2.2526   -0.8291 C   0  0  0  0  0  0  0  0  0  0  0  0
    2.1222    2.5036   -1.8162 H   0  0  0  0  0  0  0  0  0  0  0  0
    3.9373    2.2537   -0.6570 C   0  0  0  0  0  0  0  0  0  0  0  0
    4.5985    2.5012   -1.5029 H   0  0  0  0  0  0  0  0  0  0  0  0
    4.4908    1.9457    0.5988 C   0  0  0  0  0  0  0  0  0  0  0  0
    5.5827    1.9375    0.7395 H   0  0  0  0  0  0  0  0  0  0  0  0
    3.6364    1.6540    1.6734 C   0  0  0  0  0  0  0  0  0  0  0  0
    4.0597    1.4211    2.6633 H   0  0  0  0  0  0  0  0  0  0  0  0
    2.2428    1.6613    1.4876 C   0  0  0  0  0  0  0  0  0  0  0  0
    1.5873    1.4366    2.3443 H   0  0  0  0  0  0  0  0  0  0  0  0
   -0.5226    3.4773   -0.2378 C   0  0  0  0  0  0  0  0  0  0  0  0
   -1.5236    3.7624   -1.1925 C   0  0  0  0  0  0  0  0  0  0  0  0
   -1.8751    2.9550   -1.8552 H   0  0  0  0  0  0  0  0  0  0  0  0
   -2.0672    5.0511   -1.3253 C   0  0  0  0  0  0  0  0  0  0  0  0
   -2.8415    5.2481   -2.0842 H   0  0  0  0  0  0  0  0  0  0  0  0
   -1.6208    6.0903   -0.4938 C   0  0  0  0  0  0  0  0  0  0  0  0
   -2.0432    7.1024   -0.5945 H   0  0  0  0  0  0  0  0  0  0  0  0
   -0.6247    5.8308    0.4620 C   0  0  0  0  0  0  0  0  0  0  0  0
   -0.2631    6.6422    1.1135 H   0  0  0  0  0  0  0  0  0  0  0  0
   -0.0828    4.5416    0.5795 C   0  0  0  0  0  0  0  0  0  0  0  0
    0.7110    4.3535    1.3209 H   0  0  0  0  0  0  0  0  0  0  0  0
    0.0700    1.9889   -0.0231 B   0  0  0  0  0  0  0  0  0  0  0  0
  1  6  1  0  0  0  0
  2  7  1  0  0  0  0
  3  2  1  0  0  0  0
  4  8  1  0  0  0  0
  4 52  1  0  0  0  0
  6 10  1  0  0  0  0
  7 11  1  0  0  0  0
  9  5  1  0  0  0  0
 10 11  2  0  0  0  0
 10 12  1  0  0  0  0
 11 16  1  0  0  0  0
 12 15  1  0  0  0  0
 12 13  1  0  0  0  0
 14 12  1  0  0  0  0
 16 18  1  0  0  0  0
 16 19  1  0  0  0  0
 17 16  1  0  0  0  0
 20 21  2  0  0  0  0
 20  8  1  0  0  0  0
 21  9  1  0  0  0  0
 22 25  1  0  0  0  0
 22 20  1  0  0  0  0
 23 22  1  0  0  0  0
 24 22  1  0  0  0  0
 26 28  1  0  0  0  0
 26 21  1  0  0  0  0
 27 26  1  0  0  0  0
 29 26  1  0  0  0  0
 30 39  1  0  0  0  0
 31 33  1  0  0  0  0
 31 30  2  0  0  0  0
 32 31  1  0  0  0  0
 33 35  2  0  0  0  0
 34 33  1  0  0  0  0
 35 36  1  0  0  0  0
 35 37  1  0  0  0  0
 37 38  1  0  0  0  0
 39 37  2  0  0  0  0
 39 40  1  0  0  0  0
 41 52  1  0  0  0  0
 41 50  1  0  0  0  0
 42 41  2  0  0  0  0
 43 42  1  0  0  0  0
 44 42  1  0  0  0  0
 44 46  2  0  0  0  0
 45 44  1  0  0  0  0
 46 48  1  0  0  0  0
 47 46  1  0  0  0  0
 48 50  2  0  0  0  0
 48 49  1  0  0  0  0
 50 51  1  0  0  0  0
 52 30  1  0  0  0  0
 52  1  1  0  0  0  0
M  END
