2,3,21,22
q = -2.0, confidence = 0.914

 54 58  0  0  1  0  0  0  0  0999 V2000
    2.0320   -3.5056   -0.8173 O   0  0  0  0  0  0  0  0  0  0  0  0
    1.5859   -1.2983   -0.1777 N   0  0  0  0  0  2  0  0  0  0  0  0
   -0.9941   -1.7869    0.0510 N   0  0  0  0  0  2  0  0  0  0  0  0
    1.2667   -2.5811   -0.5081 C   0  0  0  0  0  0  0  0  0  0  0  0
   -0.2228   -2.8131   -0.3613 C   0  0  0  0  0  0  0  0  0  0  0  0
   -0.7400   -4.1167   -0.5576 C   0  0  0  0  0  0  0  0  0  0  0  0
   -0.0337   -4.8775   -0.9202 H   0  0  0  0  0  0  0  0  0  0  0  0
   -2.0710   -4.3664   -0.2786 C   0  0  0  0  0  0  0  0  0  0  0  0
   -2.5115   -5.3617   -0.4459 H   0  0  0  0  0  0  0  0  0  0  0  0
   -2.8756   -3.3346    0.2841 C   0  0  0  0  0  0  0  0  0  0  0  0
   -4.2211   -3.5414    0.7024 C   0  0  0  0  0  0  0  0  0  0  0  0
   -4.6744   -4.5321    0.5447 H   0  0  0  0  0  0  0  0  0  0  0  0
   -4.9356   -2.5246    1.3189 C   0  0  0  0  0  0  0  0  0  0  0  0
   -5.9714   -2.6978    1.6465 H   0  0  0  0  0  0  0  0  0  0  0  0
   -4.3226   -1.2649    1.5540 C   0  0  0  0  0  0  0  0  0  0  0  0
   -4.8819   -0.4744    2.0762 H   0  0  0  0  0  0  0  0  0  0  0  0
   -3.0228   -1.0204    1.1364 C   0  0  0  0  0  0  0  0  0  0  0  0
   -2.5292   -0.0591    1.3317 H   0  0  0  0  0  0  0  0  0  0  0  0
   -2.2800   -2.0340    0.4711 C   0  0  1  0  0  3  0  0  0  0  0  0
    2.0320    3.5057    0.8172 O   0  0  0  0  0  0  0  0  0  0  0  0
    1.5859    1.2983    0.1777 N   0  0  0  0  0  2  0  0  0  0  0  0
   -0.9941    1.7869   -0.0511 N   0  0  0  0  0  2  0  0  0  0  0  0
    1.2667    2.5811    0.5081 C   0  0  0  0  0  0  0  0  0  0  0  0
   -0.2228    2.8131    0.3613 C   0  0  0  0  0  0  0  0  0  0  0  0
   -0.7400    4.1167    0.5576 C   0  0  0  0  0  0  0  0  0  0  0  0
   -0.0337    4.8774    0.9202 H   0  0  0  0  0  0  0  0  0  0  0  0
   -2.0710    4.3663    0.2787 C   0  0  0  0  0  0  0  0  0  0  0  0
   -2.5116    5.3616    0.4461 H   0  0  0  0  0  0  0  0  0  0  0  0
   -2.8756    3.3345   -0.2841 C   0  0  0  0  0  0  0  0  0  0  0  0
   -4.2212    3.5413   -0.7023 C   0  0  0  0  0  3  0  0  0  0  0  0
   -4.6744    4.5321   -0.5446 H   0  0  0  0  0  0  0  0  0  0  0  0
   -4.9356    2.5246   -1.3189 C   0  0  0  0  0  0  0  0  0  0  0  0
   -5.9714    2.6977   -1.6465 H   0  0  0  0  0  0  0  0  0  0  0  0
   -4.3226    1.2649   -1.5541 C   0  0  0  0  0  0  0  0  0  0  0  0
   -4.8819    0.4744   -2.0763 H   0  0  0  0  0  0  0  0  0  0  0  0
   -3.0228    1.0204   -1.1365 C   0  0  0  0  0  0  0  0  0  0  0  0
   -2.5291    0.0591   -1.3318 H   0  0  0  0  0  0  0  0  0  0  0  0
   -2.2800    2.0340   -0.4711 C   0  0  0  0  0  0  0  0  0  0  0  0
    2.8594   -0.7060   -0.1094 C   0  0  0  0  0  0  0  0  0  0  0  0
    4.0837   -1.3908   -0.2239 C   0  0  0  0  0  0  0  0  0  0  0  0
    4.0596   -2.4730   -0.4048 H   0  0  0  0  0  0  0  0  0  0  0  0
    5.3056   -0.7018   -0.1154 C   0  0  0  0  0  0  0  0  0  0  0  0
    5.3056    0.7018    0.1154 C   0  0  0  0  0  0  0  0  0  0  0  0
    4.0837    1.3908    0.2239 C   0  0  0  0  0  0  0  0  0  0  0  0
    4.0596    2.4730    0.4048 H   0  0  0  0  0  0  0  0  0  0  0  0
    2.8594    0.7061    0.1094 C   0  0  0  0  0  0  0  0  0  0  0  0
    6.6052   -1.4545   -0.2431 C   0  0  0  0  0  0  0  0  0  0  0  0
    7.2249   -1.0660   -1.0799 H   0  0  0  0  0  0  0  0  0  0  0  0
    6.4307   -2.5324   -0.4225 H   0  0  0  0  0  0  0  0  0  0  0  0
    7.2278   -1.3579    0.6724 H   0  0  0  0  0  0  0  0  0  0  0  0
    6.6052    1.4545    0.2431 C   0  0  0  0  0  0  0  0  0  0  0  0
    7.2248    1.0661    1.0799 H   0  0  0  0  0  0  0  0  0  0  0  0
    6.4307    2.5324    0.4225 H   0  0  0  0  0  0  0  0  0  0  0  0
    7.2279    1.3579   -0.6724 H   0  0  0  0  0  0  0  0  0  0  0  0
  1  4  2  0  0  0  0
  2 39  1  0  0  0  0
  4  5  1  0  0  0  0
  4  2  1  0  0  0  0
  5  3  1  0  0  0  0
  6  5  2  0  0  0  0
  6  8  1  0  0  0  0
  7  6  1  0  0  0  0
  8 10  2  0  0  0  0
  9  8  1  0  0  0  0
 10 19  1  0  0  0  0
 10 11  1  0  0  0  0
 11 13  2  0  0  0  0
 12 11  1  0  0  0  0
 13 15  1  0  0  0  0
 13 14  1  0  0  0  0
 15 16  1  0  0  0  0
 17 18  1  0  0  0  0
 17 15  2  0  0  0  0
 19  3  1  1  0  0  0
 19 17  1  0  0  0  0
 21 23  1  0  0  0  0
 22 24  1  0  0  0  0
 23 20  2  0  0  0  0
 24 23  1  0  0  0  0
 24 25  2  0  0  0  0
 25 26  1  0  0  0  0
 27 28  1  0  0  0  0
 27 25  1  0  0  0  0
 29 27  2  0  0  0  0
 30 31  1  0  0  0  0
 30 29  1  0  0  0  0
 32 30  1  0  0  0  0
 33 32  1  0  0  0  0
 34 32  2  0  0  0  0
 34 36  1  0  0  0  0
 35 34  1  0  0  0  0
 36 38  2  0  0  0  0
 37 36  1  0  0  0  0
 38 29  1  0  0  0  0
 38 22  1  0  0  0  0
 39 46  1  0  0  0  0
 40 42  1  0  0  0  0
 40 39  2  0  0  0  0
 41 40  1  0  0  0  0
 42 43  2  0  0  0  0
 43 44  1  0  0  0  0
 43 51  1  0  0  0  0
 44 45  1  0  0  0  0
 46 21  1  0  0  0  0
 46 44  2  0  0  0  0
 47 42  1  0  0  0  0
 47 50  1  0  0  0  0
 48 47  1  0  0  0  0
 49 47  1  0  0  0  0
 51 53  1  0  0  0  0
 51 52  1  0  0  0  0
 54 51  1  0  0  0  0
M  END
