1,2,23,24
q = 0.0, confidence = 0.996

 44 44  0  0  1  0  0  0  0  0999 V2000
   -0.6388    1.6084    0.9796 N   0  0  0  0  0  0  0  0  0  0  0  0
    1.7505    0.9869   -0.2213 N   0  0  0  0  0  0  0  0  0  0  0  0
    0.3100    2.7057    0.7065 C   0  0  0  0  0  0  0  0  0  0  0  0
    1.7118    2.1320    0.7181 C   0  0  0  0  0  0  0  0  0  0  0  0
    3.0660    0.2757   -0.2537 C   0  0  1  0  0  0  0  0  0  0  0  0
    3.0107   -0.8981   -1.2368 C   0  0  0  0  0  0  0  0  0  0  0  0
   -2.0517    2.0196    0.8699 C   0  0  0  0  0  0  0  0  0  0  0  0
    4.2145    1.2239   -0.6193 C   0  0  0  0  0  0  0  0  0  0  0  0
   -0.4646    1.2442    1.9357 H   0  0  0  0  0  0  0  0  0  0  0  0
    0.0670    3.1250   -0.2916 H   0  0  0  0  0  0  0  0  0  0  0  0
    0.2044    3.5250    1.4499 H   0  0  0  0  0  0  0  0  0  0  0  0
    2.4477    2.9141    0.4428 H   0  0  0  0  0  0  0  0  0  0  0  0
    1.9835    1.7574    1.7270 H   0  0  0  0  0  0  0  0  0  0  0  0
    1.5478    1.3421   -1.1762 H   0  0  0  0  0  0  0  0  0  0  0  0
    3.2387   -0.1213    0.7684 H   0  0  0  0  0  0  0  0  0  0  0  0
    2.7893   -0.5205   -2.2612 H   0  0  0  0  0  0  0  0  0  0  0  0
    4.0276   -1.3341   -1.2932 H   0  0  0  0  0  0  0  0  0  0  0  0
   -2.2388    2.3762   -0.1628 H   0  0  0  0  0  0  0  0  0  0  0  0
   -2.2200    2.8884    1.5442 H   0  0  0  0  0  0  0  0  0  0  0  0
    5.1610    0.6532   -0.6788 H   0  0  0  0  0  0  0  0  0  0  0  0
    4.3682    2.0205    0.1323 H   0  0  0  0  0  0  0  0  0  0  0  0
    4.0455    1.6979   -1.6090 H   0  0  0  0  0  0  0  0  0  0  0  0
    0.6386   -1.6094   -0.9791 N   0  0  0  0  0  0  0  0  0  0  0  0
   -1.7507   -0.9876    0.2215 N   0  0  0  0  0  0  0  0  0  0  0  0
    2.0517   -2.0201   -0.8694 C   0  0  0  0  0  0  0  0  0  0  0  0
   -3.0113    0.8976    1.2361 C   0  0  0  0  0  0  0  0  0  0  0  0
   -0.3099   -2.7067   -0.7051 C   0  0  0  0  0  0  0  0  0  0  0  0
    0.4640   -1.2456   -1.9352 H   0  0  0  0  0  0  0  0  0  0  0  0
   -1.7118   -2.1333   -0.7173 C   0  0  0  0  0  0  0  0  0  0  0  0
   -3.0660   -0.2758    0.2524 C   0  0  2  0  0  0  0  0  0  0  0  0
   -1.5489   -1.3423    1.1767 H   0  0  0  0  0  0  0  0  0  0  0  0
    2.2392   -2.3757    0.1635 H   0  0  0  0  0  0  0  0  0  0  0  0
    2.2200   -2.8894   -1.5431 H   0  0  0  0  0  0  0  0  0  0  0  0
   -2.7908    0.5196    2.2604 H   0  0  0  0  0  0  0  0  0  0  0  0
   -4.0281    1.3339    1.2918 H   0  0  0  0  0  0  0  0  0  0  0  0
   -0.0668   -3.1251    0.2933 H   0  0  0  0  0  0  0  0  0  0  0  0
   -0.2041   -3.5265   -1.4479 H   0  0  0  0  0  0  0  0  0  0  0  0
   -2.4476   -2.9153   -0.4415 H   0  0  0  0  0  0  0  0  0  0  0  0
   -1.9834   -1.7593   -1.7264 H   0  0  0  0  0  0  0  0  0  0  0  0
   -4.2155   -1.2235    0.6164 C   0  0  0  0  0  0  0  0  0  0  0  0
   -3.2373    0.1217   -0.7697 H   0  0  0  0  0  0  0  0  0  0  0  0
   -5.1617   -0.6523    0.6750 H   0  0  0  0  0  0  0  0  0  0  0  0
   -4.3687   -2.0197   -0.1358 H   0  0  0  0  0  0  0  0  0  0  0  0
   -4.0478   -1.6980    1.6061 H   0  0  0  0  0  0  0  0  0  0  0  0
  1  9  1  0  0  0  0
  2  4  1  0  0  0  0
  3  4  1  0  0  0  0
  3  1  1  0  0  0  0
  3 11  1  0  0  0  0
  4 13  1  0  0  0  0
  5  2  1  0  0  0  0
  5 15  1  1  0  0  0
  6 25  1  0  0  0  0
  6  5  1  0  0  0  0
  7  1  1  0  0  0  0
  7 26  1  0  0  0  0
  7 19  1  0  0  0  0
  8  5  1  0  0  0  0
  8 21  1  0  0  0  0
 10  3  1  0  0  0  0
 12  4  1  0  0  0  0
 14  2  1  0  0  0  0
 16  6  1  0  0  0  0
 17  6  1  0  0  0  0
 18  7  1  0  0  0  0
 20  8  1  0  0  0  0
 22  8  1  0  0  0  0
 23 25  1  0  0  0  0
 23 27  1  0  0  0  0
 24 30  1  0  0  0  0
 24 31  1  0  0  0  0
 25 32  1  0  0  0  0
 26 35  1  0  0  0  0
 26 34  1  0  0  0  0
 27 36  1  0  0  0  0
 28 23  1  0  0  0  0
 29 27  1  0  0  0  0
 29 38  1  0  0  0  0
 29 24  1  0  0  0  0
 30 41  1  6  0  0  0
 30 40  1  0  0  0  0
 30 26  1  0  0  0  0
 33 25  1  0  0  0  0
 37 27  1  0  0  0  0
 39 29  1  0  0  0  0
 40 42  1  0  0  0  0
 40 44  1  0  0  0  0
 43 40  1  0  0  0  0
M  END
