1,14,21,29
q = -1.0, confidence = 0.002

 41 43  0  0  0  0  0  0  0  0999 V2000
   -1.0979    0.3271   -0.2891 N   0  0  0  0  0  2  0  0  0  0  0  0
   -2.3685   -0.1004   -0.0034 C   0  0  0  0  0  0  0  0  0  0  0  0
   -3.5289    0.6505   -0.3777 C   0  0  0  0  0  0  0  0  0  0  0  0
   -3.3924    1.5769   -0.9504 H   0  0  0  0  0  0  0  0  0  0  0  0
   -4.8181    0.2393   -0.0627 C   0  0  0  0  0  0  0  0  0  0  0  0
   -5.6694    0.8620   -0.3785 H   0  0  0  0  0  0  0  0  0  0  0  0
   -5.0505   -0.9684    0.6349 C   0  0  0  0  0  0  0  0  0  0  0  0
   -6.0705   -1.2838    0.8938 H   0  0  0  0  0  0  0  0  0  0  0  0
   -3.9601   -1.7686    0.9355 C   0  0  0  0  0  0  0  0  0  0  0  0
   -4.1182   -2.7458    1.4191 H   0  0  0  0  0  0  0  0  0  0  0  0
   -2.6173   -1.3957    0.6177 C   0  0  0  0  0  0  0  0  0  0  0  0
   -1.6485   -2.4350    0.8494 C   0  0  0  0  0  3  0  0  0  0  0  0
   -2.0785   -3.3884    1.2273 H   0  0  0  0  0  0  0  0  0  0  0  0
   -0.3610   -2.4041    0.6193 N   0  0  0  0  0  2  0  0  0  0  0  0
    0.4630   -3.5950    0.7418 C   0  0  0  0  0  0  0  0  0  0  0  0
   -0.1428   -4.5273    0.7539 H   0  0  0  0  0  0  0  0  0  0  0  0
    1.0304   -3.5628    1.7018 H   0  0  0  0  0  0  0  0  0  0  0  0
    1.4580   -3.6243   -0.4279 C   0  0  0  0  0  0  0  0  0  0  0  0
    2.0955   -4.5358   -0.3771 H   0  0  0  0  0  0  0  0  0  0  0  0
    0.8881   -3.6755   -1.3788 H   0  0  0  0  0  0  0  0  0  0  0  0
    2.2485   -2.3809   -0.4317 N   0  0  0  0  0  0  0  0  0  0  0  0
    2.9349   -2.4144    0.3316 H   0  0  0  0  0  0  0  0  0  0  0  0
    2.9235   -2.0205   -1.6909 C   0  0  0  0  0  0  0  0  0  0  0  0
    3.3824   -2.8994   -2.1982 H   0  0  0  0  0  0  0  0  0  0  0  0
    3.7517   -1.3290   -1.4326 H   0  0  0  0  0  0  0  0  0  0  0  0
    1.9680   -1.3045   -2.6664 C   0  0  0  0  0  0  0  0  0  0  0  0
    2.5485   -0.8740   -3.5128 H   0  0  0  0  0  0  0  0  0  0  0  0
    1.2619   -2.0432   -3.1093 H   0  0  0  0  0  0  0  0  0  0  0  0
    1.1950   -0.3103   -1.9520 N   0  0  0  0  0  2  0  0  0  0  0  0
    0.9413    0.8741   -2.4246 C   0  0  0  0  0  3  0  0  0  0  0  0
    1.3798    1.1722   -3.4035 H   0  0  0  0  0  0  0  0  0  0  0  0
    0.1571    1.8872   -1.7409 C   0  0  0  0  0  0  0  0  0  0  0  0
    0.3877    3.2281   -2.1558 C   0  0  0  0  0  0  0  0  0  0  0  0
    1.0977    3.4026   -2.9798 H   0  0  0  0  0  0  0  0  0  0  0  0
   -0.2294    4.3101   -1.5364 C   0  0  0  0  0  0  0  0  0  0  0  0
   -0.0207    5.3375   -1.8663 H   0  0  0  0  0  0  0  0  0  0  0  0
   -1.1157    4.0621   -0.4681 C   0  0  0  0  0  0  0  0  0  0  0  0
   -1.5891    4.9037    0.0604 H   0  0  0  0  0  0  0  0  0  0  0  0
   -1.4050    2.7568   -0.0708 C   0  0  0  0  0  0  0  0  0  0  0  0
   -2.1013    2.5842    0.7622 H   0  0  0  0  0  0  0  0  0  0  0  0
   -0.8121    1.6248   -0.6962 C   0  0  0  0  0  0  0  0  0  0  0  0
  1  2  1  0  0  0  0
  2 11  1  0  0  0  0
  3  5  1  0  0  0  0
  3  2  2  0  0  0  0
  4  3  1  0  0  0  0
  5  7  2  0  0  0  0
  6  5  1  0  0  0  0
  7  8  1  0  0  0  0
  7  9  1  0  0  0  0
  9 10  1  0  0  0  0
 11 12  1  0  0  0  0
 11  9  2  0  0  0  0
 12 13  1  0  0  0  0
 14 15  1  0  0  0  0
 14 12  1  0  0  0  0
 15 16  1  0  0  0  0
 15 17  1  0  0  0  0
 18 19  1  0  0  0  0
 18 15  1  0  0  0  0
 20 18  1  0  0  0  0
 21 18  1  0  0  0  0
 21 22  1  0  0  0  0
 23 25  1  0  0  0  0
 23 21  1  0  0  0  0
 24 23  1  0  0  0  0
 26 29  1  0  0  0  0
 26 23  1  0  0  0  0
 27 26  1  0  0  0  0
 28 26  1  0  0  0  0
 30 29  1  0  0  0  0
 30 32  1  0  0  0  0
 31 30  1  0  0  0  0
 32 41  1  0  0  0  0
 33 32  2  0  0  0  0
 33 35  1  0  0  0  0
 34 33  1  0  0  0  0
 35 37  2  0  0  0  0
 36 35  1  0  0  0  0
 37 39  1  0  0  0  0
 37 38  1  0  0  0  0
 39 40  1  0  0  0  0
 41  1  1  0  0  0  0
 41 39  2  0  0  0  0
M  END
