17,30,38,51
q = -2.0, confidence = 0.844

 58 60  0  0  1  0  0  0  0  0999 V2000
    0.7485    2.8965    0.1878 C   0  0  2  0  0  0  0  0  0  0  0  0
    0.7996    2.8849    1.3019 H   0  0  0  0  0  0  0  0  0  0  0  0
   -0.7485    2.8965   -0.1880 C   0  0  2  0  0  0  0  0  0  0  0  0
   -0.7996    2.8850   -1.3021 H   0  0  0  0  0  0  0  0  0  0  0  0
   -1.4580    4.1488    0.3256 C   0  0  0  0  0  0  0  0  0  0  0  0
   -1.4584    4.1398    1.4381 H   0  0  0  0  0  0  0  0  0  0  0  0
   -2.5181    4.1539   -0.0013 H   0  0  0  0  0  0  0  0  0  0  0  0
   -0.7435    5.4086   -0.1862 C   0  0  0  0  0  0  0  0  0  0  0  0
   -1.2434    6.3129    0.2163 H   0  0  0  0  0  0  0  0  0  0  0  0
   -0.8463    5.4612   -1.2925 H   0  0  0  0  0  0  0  0  0  0  0  0
    0.7435    5.4086    0.1860 C   0  0  0  0  0  0  0  0  0  0  0  0
    1.2434    6.3129   -0.2165 H   0  0  0  0  0  0  0  0  0  0  0  0
    0.8463    5.4612    1.2923 H   0  0  0  0  0  0  0  0  0  0  0  0
    1.4580    4.1488   -0.3258 C   0  0  0  0  0  0  0  0  0  0  0  0
    1.4584    4.1398   -1.4383 H   0  0  0  0  0  0  0  0  0  0  0  0
    2.5181    4.1539    0.0012 H   0  0  0  0  0  0  0  0  0  0  0  0
    1.2599    1.5943   -0.2517 N   0  0  0  0  0  2  0  0  0  0  0  0
    2.4056    1.4469   -0.8615 C   0  0  0  0  0  0  0  0  0  0  0  0
    3.0029    2.3479   -1.0939 H   0  0  0  0  0  0  0  0  0  0  0  0
    2.9638    0.1835   -1.2755 C   0  0  0  0  0  0  0  0  0  0  0  0
    2.4545   -1.0613   -0.7813 C   0  0  0  0  0  0  0  0  0  0  0  0
    3.0718   -2.2595   -1.2067 C   0  0  0  0  0  0  0  0  0  0  0  0
    2.6688   -3.2101   -0.8396 H   0  0  0  0  0  0  0  0  0  0  0  0
    4.1621   -2.2267   -2.0787 C   0  0  0  0  0  0  0  0  0  0  0  0
    4.6166   -3.1753   -2.4031 H   0  0  0  0  0  0  0  0  0  0  0  0
    4.6729   -1.0039   -2.5611 C   0  0  0  0  0  0  0  0  0  0  0  0
    5.5268   -0.9909   -3.2537 H   0  0  0  0  0  0  0  0  0  0  0  0
    4.0757    0.1873   -2.1557 C   0  0  0  0  0  3  0  0  0  0  0  0
    4.4577    1.1538   -2.5214 H   0  0  0  0  0  0  0  0  0  0  0  0
    1.3637   -1.0615    0.0864 N   0  0  0  0  0  2  0  0  0  0  0  0
    1.4816   -1.7984    1.5640 S   0  0  0  0  0  0  0  0  0  0  0  0
    2.4746   -2.8899    1.5690 O   0  0  0  0  0  0  0  0  0  0  0  0
    0.1496   -1.9555    2.1702 O   0  0  0  0  0  0  0  0  0  0  0  0
    2.2955   -0.4319    2.6087 C   0  0  0  0  0  0  0  0  0  0  0  0
    1.4404    0.6018    2.7786 F   0  0  0  0  0  0  0  0  0  0  0  0
    2.6350   -0.9062    3.8108 F   0  0  0  0  0  0  0  0  0  0  0  0
    3.3978    0.0324    1.9911 F   0  0  0  0  0  0  0  0  0  0  0  0
   -1.2599    1.5943    0.2515 N   0  0  0  0  0  2  0  0  0  0  0  0
   -2.4055    1.4469    0.8614 C   0  0  0  0  0  0  0  0  0  0  0  0
   -3.0028    2.3480    1.0938 H   0  0  0  0  0  0  0  0  0  0  0  0
   -2.9638    0.1836    1.2754 C   0  0  0  0  0  0  0  0  0  0  0  0
   -2.4545   -1.0613    0.7813 C   0  0  2  0  0  3  0  0  0  0  0  0
   -3.0719   -2.2594    1.2068 C   0  0  0  0  0  0  0  0  0  0  0  0
   -2.6689   -3.2101    0.8398 H   0  0  0  0  0  0  0  0  0  0  0  0
   -4.1624   -2.2265    2.0786 C   0  0  0  0  0  0  0  0  0  0  0  0
   -4.6169   -3.1751    2.4029 H   0  0  0  0  0  0  0  0  0  0  0  0
   -4.6731   -1.0037    2.5609 C   0  0  0  0  0  0  0  0  0  0  0  0
   -5.5272   -0.9907    3.2534 H   0  0  0  0  0  0  0  0  0  0  0  0
   -4.0758    0.1875    2.1554 C   0  0  0  0  0  0  0  0  0  0  0  0
   -4.4578    1.1540    2.5211 H   0  0  0  0  0  0  0  0  0  0  0  0
   -1.3635   -1.0616   -0.0861 N   0  0  0  0  0  2  0  0  0  0  0  0
   -1.4814   -1.7985   -1.5639 S   0  0  0  0  0  0  0  0  0  0  0  0
   -0.1494   -1.9553   -2.1701 O   0  0  0  0  0  0  0  0  0  0  0  0
   -2.4743   -2.8901   -1.5688 O   0  0  0  0  0  0  0  0  0  0  0  0
   -2.2955   -0.4321   -2.6085 C   0  0  0  0  0  0  0  0  0  0  0  0
   -3.3980    0.0321   -1.9910 F   0  0  0  0  0  0  0  0  0  0  0  0
   -2.6350   -0.9065   -3.8106 F   0  0  0  0  0  0  0  0  0  0  0  0
   -1.4406    0.6017   -2.7785 F   0  0  0  0  0  0  0  0  0  0  0  0
  1  2  1  1  0  0  0
  3  4  1  6  0  0  0
  3  1  1  0  0  0  0
  3 38  1  0  0  0  0
  3  5  1  0  0  0  0
  5  6  1  0  0  0  0
  7  5  1  0  0  0  0
  8 11  1  0  0  0  0
  8  9  1  0  0  0  0
  8  5  1  0  0  0  0
 10  8  1  0  0  0  0
 11 13  1  0  0  0  0
 12 11  1  0  0  0  0
 14 16  1  0  0  0  0
 14 11  1  0  0  0  0
 14  1  1  0  0  0  0
 15 14  1  0  0  0  0
 17  1  1  0  0  0  0
 18 17  1  0  0  0  0
 19 18  1  0  0  0  0
 20 18  2  0  0  0  0
 20 21  1  0  0  0  0
 21 30  1  0  0  0  0
 22 23  1  0  0  0  0
 22 21  2  0  0  0  0
 24 22  1  0  0  0  0
 25 24  1  0  0  0  0
 26 28  1  0  0  0  0
 26 24  2  0  0  0  0
 27 26  1  0  0  0  0
 28 20  1  0  0  0  0
 29 28  1  0  0  0  0
 30 31  1  0  0  0  0
 31 32  2  0  0  0  0
 31 33  2  0  0  0  0
 31 34  1  0  0  0  0
 34 35  1  0  0  0  0
 34 36  1  0  0  0  0
 37 34  1  0  0  0  0
 38 39  1  0  0  0  0
 39 40  1  0  0  0  0
 39 41  2  0  0  0  0
 41 49  1  0  0  0  0
 42 51  1  1  0  0  0
 42 43  1  0  0  0  0
 42 41  1  0  0  0  0
 43 45  2  0  0  0  0
 44 43  1  0  0  0  0
 45 46  1  0  0  0  0
 45 47  1  0  0  0  0
 47 48  1  0  0  0  0
 49 50  1  0  0  0  0
 49 47  2  0  0  0  0
 52 51  1  0  0  0  0
 53 52  2  0  0  0  0
 54 52  2  0  0  0  0
 55 56  1  0  0  0  0
 55 52  1  0  0  0  0
 57 55  1  0  0  0  0
 58 55  1  0  0  0  0
M  END
