1,2,10,11
q = -2.0, confidence = 0.926

 68 73  0  0  0  0  0  0  0  0999 V2000
   -1.4098   -1.7679   -1.1342 N   0  0  0  0  0  2  0  0  0  0  0  0
    1.6088   -0.9194    1.5491 N   0  0  0  0  0  2  0  0  0  0  0  0
   -2.0221    3.0964   -0.0138 O   0  0  0  0  0  0  0  0  0  0  0  0
    2.9750   -0.7619    1.2183 C   0  0  0  0  0  0  0  0  0  0  0  0
    3.3855    0.4062    0.4868 C   0  0  0  0  0  0  0  0  0  0  0  0
    2.1249    3.6296   -0.8684 O   0  0  0  0  0  0  0  0  0  0  0  0
   -2.4349    0.8445   -0.5003 C   0  0  0  0  0  0  0  0  0  0  0  0
   -1.3473    0.7100   -0.5861 H   0  0  0  0  0  0  0  0  0  0  0  0
   -2.9421    2.1103   -0.2177 C   0  0  0  0  0  0  0  0  0  0  0  0
   -0.9828   -1.1653    1.9232 N   0  0  0  0  0  0  0  0  0  0  0  0
    1.2157   -1.8542   -1.4199 N   0  0  0  0  0  0  0  0  0  0  0  0
   -2.7960   -1.5884   -0.9395 C   0  0  0  0  0  0  0  0  0  0  0  0
   -0.9559   -2.2007   -2.3055 C   0  0  0  0  0  3  0  0  0  0  0  0
   -1.6715   -2.4421   -3.1118 H   0  0  0  0  0  0  0  0  0  0  0  0
    0.4361   -2.2805   -2.4951 C   0  0  0  0  0  0  0  0  0  0  0  0
   -5.5908   -1.2077   -0.6391 C   0  0  0  0  0  0  0  0  0  0  0  0
   -6.6751   -1.0547   -0.5257 H   0  0  0  0  0  0  0  0  0  0  0  0
    2.4698    1.4447    0.1585 C   0  0  0  0  0  0  0  0  0  0  0  0
    1.4241    1.3295    0.4690 H   0  0  0  0  0  0  0  0  0  0  0  0
    2.5943   -2.5037   -3.1043 C   0  0  0  0  0  0  0  0  0  0  0  0
    3.5240   -2.7053   -3.6492 H   0  0  0  0  0  0  0  0  0  0  0  0
   -3.2960   -0.2696   -0.6423 C   0  0  0  0  0  0  0  0  0  0  0  0
   -5.0794   -2.4689   -0.9062 C   0  0  0  0  0  0  0  0  0  0  0  0
   -5.7539   -3.3331   -0.9995 H   0  0  0  0  0  0  0  0  0  0  0  0
   -2.3269   -1.1228    3.7527 C   0  0  0  0  0  0  0  0  0  0  0  0
   -3.2395   -1.1765    4.3578 H   0  0  0  0  0  0  0  0  0  0  0  0
    1.1817   -0.7595    2.7944 C   0  0  0  0  0  3  0  0  0  0  0  0
    1.9050   -0.5096    3.5909 H   0  0  0  0  0  0  0  0  0  0  0  0
   -1.1236    5.3074    0.0275 C   0  0  0  0  0  0  0  0  0  0  0  0
   -0.8906    5.2448    1.1131 H   0  0  0  0  0  0  0  0  0  0  0  0
   -1.4030    6.3640   -0.1680 H   0  0  0  0  0  0  0  0  0  0  0  0
    4.7680    0.5126    0.0947 C   0  0  0  0  0  0  0  0  0  0  0  0
   -3.6815   -2.6590   -1.0578 C   0  0  0  0  0  0  0  0  0  0  0  0
   -3.2751   -3.6615   -1.2575 H   0  0  0  0  0  0  0  0  0  0  0  0
    5.2616   -1.6220    1.1797 C   0  0  0  0  0  0  0  0  0  0  0  0
    5.9748   -2.4136    1.4531 H   0  0  0  0  0  0  0  0  0  0  0  0
    5.1705    1.6698   -0.6403 C   0  0  0  0  0  0  0  0  0  0  0  0
    6.2229    1.7582   -0.9518 H   0  0  0  0  0  0  0  0  0  0  0  0
   -0.1989   -0.8948    3.0439 C   0  0  0  0  0  3  0  0  0  0  0  0
   -4.7206   -0.0865   -0.5049 C   0  0  0  0  0  0  0  0  0  0  0  0
    2.5082   -1.9916   -1.7800 C   0  0  0  0  0  3  0  0  0  0  0  0
    3.3276   -1.7242   -1.1046 H   0  0  0  0  0  0  0  0  0  0  0  0
    0.7720    3.6229   -0.4078 C   0  0  0  0  0  0  0  0  0  0  0  0
    0.7554    3.4857    0.6981 H   0  0  0  0  0  0  0  0  0  0  0  0
    0.2250    2.7633   -0.8461 H   0  0  0  0  0  0  0  0  0  0  0  0
    2.9070    2.5700   -0.5414 C   0  0  0  0  0  0  0  0  0  0  0  0
    1.2817   -2.6856   -3.5628 C   0  0  0  0  0  0  0  0  0  0  0  0
    0.9567   -3.0664   -4.5382 H   0  0  0  0  0  0  0  0  0  0  0  0
    0.1331    4.9581   -0.7835 C   0  0  0  0  0  0  0  0  0  0  0  0
   -0.0865    4.9814   -1.8726 H   0  0  0  0  0  0  0  0  0  0  0  0
    0.8977    5.7427   -0.6037 H   0  0  0  0  0  0  0  0  0  0  0  0
   -1.0236   -0.8553    4.1995 C   0  0  0  0  0  0  0  0  0  0  0  0
   -0.6918   -0.6638    5.2267 H   0  0  0  0  0  0  0  0  0  0  0  0
   -2.2559   -1.3112    2.3455 C   0  0  0  0  0  0  0  0  0  0  0  0
   -3.0712   -1.5368    1.6487 H   0  0  0  0  0  0  0  0  0  0  0  0
    3.9022   -1.7455    1.5601 C   0  0  0  0  0  0  0  0  0  0  0  0
    3.5509   -2.6347    2.1039 H   0  0  0  0  0  0  0  0  0  0  0  0
   -2.3589    4.4601   -0.2502 C   0  0  0  0  0  0  0  0  0  0  0  0
   -3.1907    4.7887    0.4139 H   0  0  0  0  0  0  0  0  0  0  0  0
   -2.7017    4.5805   -1.3053 H   0  0  0  0  0  0  0  0  0  0  0  0
   -4.3492    2.3108   -0.1169 C   0  0  0  0  0  0  0  0  0  0  0  0
   -4.7577    3.3102    0.0866 H   0  0  0  0  0  0  0  0  0  0  0  0
   -5.2068    1.2286   -0.2516 C   0  0  0  0  0  0  0  0  0  0  0  0
   -6.2936    1.3797   -0.1597 H   0  0  0  0  0  0  0  0  0  0  0  0
    4.2721    2.6703   -0.9522 C   0  0  0  0  0  0  0  0  0  0  0  0
    4.5767    3.5677   -1.5099 H   0  0  0  0  0  0  0  0  0  0  0  0
    5.6834   -0.5178    0.4507 C   0  0  0  0  0  0  0  0  0  0  0  0
    6.7352   -0.4217    0.1396 H   0  0  0  0  0  0  0  0  0  0  0  0
  1 12  1  0  0  0  0
  2 27  1  0  0  0  0
  4  2  1  0  0  0  0
  4 56  1  0  0  0  0
  5  4  2  0  0  0  0
  6 46  1  0  0  0  0
  6 43  1  0  0  0  0
  7  9  1  0  0  0  0
  8  7  1  0  0  0  0
  9 61  2  0  0  0  0
  9  3  1  0  0  0  0
 10 54  2  0  0  0  0
 10 39  1  0  0  0  0
 12 22  1  0  0  0  0
 13  1  1  0  0  0  0
 14 13  1  0  0  0  0
 15 13  1  0  0  0  0
 15 11  2  0  0  0  0
 16 17  1  0  0  0  0
 16 40  1  0  0  0  0
 18 19  1  0  0  0  0
 18  5  1  0  0  0  0
 20 41  1  0  0  0  0
 21 20  1  0  0  0  0
 22 40  1  0  0  0  0
 22  7  2  0  0  0  0
 23 16  2  0  0  0  0
 24 23  1  0  0  0  0
 25 52  2  0  0  0  0
 25 26  1  0  0  0  0
 27 39  1  0  0  0  0
 27 28  1  0  0  0  0
 29 30  1  0  0  0  0
 31 29  1  0  0  0  0
 32 67  2  0  0  0  0
 32  5  1  0  0  0  0
 33 12  2  0  0  0  0
 33 23  1  0  0  0  0
 34 33  1  0  0  0  0
 35 36  1  0  0  0  0
 35 56  2  0  0  0  0
 37 32  1  0  0  0  0
 38 37  1  0  0  0  0
 39 52  1  0  0  0  0
 40 63  2  0  0  0  0
 41 11  1  0  0  0  0
 41 42  1  0  0  0  0
 43 44  1  0  0  0  0
 45 43  1  0  0  0  0
 46 18  2  0  0  0  0
 47 20  2  0  0  0  0
 47 15  1  0  0  0  0
 48 47  1  0  0  0  0
 49 51  1  0  0  0  0
 49 43  1  0  0  0  0
 49 29  1  0  0  0  0
 50 49  1  0  0  0  0
 52 53  1  0  0  0  0
 54 25  1  0  0  0  0
 55 54  1  0  0  0  0
 56 57  1  0  0  0  0
 58  3  1  0  0  0  0
 58 29  1  0  0  0  0
 58 59  1  0  0  0  0
 60 58  1  0  0  0  0
 61 62  1  0  0  0  0
 63 64  1  0  0  0  0
 63 61  1  0  0  0  0
 65 37  2  0  0  0  0
 65 46  1  0  0  0  0
 66 65  1  0  0  0  0
 67 35  1  0  0  0  0
 68 67  1  0  0  0  0
M  END
