1,11,16,26
q = 0.0, confidence = 0.998

 36 37  0  0  1  0  0  0  0  0999 V2000
    1.7204    0.8946    0.1117 N   0  0  0  0  0  2  0  0  0  0  0  0
    1.9963    2.0948   -0.4586 C   0  0  0  0  0  3  0  0  0  0  0  0
    1.1383    2.6003   -0.9245 H   0  0  0  0  0  0  0  0  0  0  0  0
    3.2869    2.6286   -0.4869 C   0  0  0  0  0  0  0  0  0  0  0  0
    3.4535    3.6011   -0.9717 H   0  0  0  0  0  0  0  0  0  0  0  0
    4.3440    1.9109    0.0938 C   0  0  0  0  0  0  0  0  0  0  0  0
    5.3706    2.3050    0.0825 H   0  0  0  0  0  0  0  0  0  0  0  0
    4.0596    0.6724    0.6877 C   0  0  0  0  0  0  0  0  0  0  0  0
    4.8524    0.0683    1.1532 H   0  0  0  0  0  0  0  0  0  0  0  0
    2.7480    0.1879    0.6740 C   0  0  0  0  0  0  0  0  0  0  0  0
    0.9026   -1.0517    1.5879 N   0  0  0  0  0  0  0  0  0  0  0  0
    0.4999   -1.9965    1.6538 H   0  0  0  0  0  0  0  0  0  0  0  0
    2.3431   -1.1445    1.2467 C   0  0  0  0  0  0  0  0  0  0  0  0
    2.4834   -1.9433    0.4865 H   0  0  0  0  0  0  0  0  0  0  0  0
    2.9631   -1.4076    2.1326 H   0  0  0  0  0  0  0  0  0  0  0  0
   -1.7199   -0.8941    0.1127 N   0  0  0  0  0  2  0  0  0  0  0  0
   -2.7473   -0.1872    0.6750 C   0  0  2  0  0  3  0  0  0  0  0  0
   -4.0589   -0.6716    0.6893 C   0  0  0  0  0  0  0  0  0  0  0  0
   -4.8515   -0.0673    1.1547 H   0  0  0  0  0  0  0  0  0  0  0  0
   -4.3435   -1.9104    0.0961 C   0  0  0  0  0  0  0  0  0  0  0  0
   -5.3701   -2.3044    0.0853 H   0  0  0  0  0  0  0  0  0  0  0  0
   -3.2865   -2.6284   -0.4844 C   0  0  0  0  0  0  0  0  0  0  0  0
   -3.4533   -3.6012   -0.9687 H   0  0  0  0  0  0  0  0  0  0  0  0
   -1.9959   -2.0946   -0.4568 C   0  0  0  0  0  0  0  0  0  0  0  0
   -1.1381   -2.6004   -0.9226 H   0  0  0  0  0  0  0  0  0  0  0  0
   -0.9016    1.0530    1.5877 N   0  0  0  0  0  0  0  0  0  0  0  0
   -0.4989    1.9978    1.6529 H   0  0  0  0  0  0  0  0  0  0  0  0
    0.6955   -0.3012    2.8499 C   0  0  0  0  0  0  0  0  0  0  0  0
    1.4576    0.5053    2.8798 H   0  0  0  0  0  0  0  0  0  0  0  0
    0.8618   -0.9364    3.7479 H   0  0  0  0  0  0  0  0  0  0  0  0
   -2.3422    1.1456    1.2468 C   0  0  0  0  0  0  0  0  0  0  0  0
   -2.4828    1.9439    0.4863 H   0  0  0  0  0  0  0  0  0  0  0  0
   -2.9619    1.4091    2.1329 H   0  0  0  0  0  0  0  0  0  0  0  0
   -0.6940    0.3031    2.8500 C   0  0  0  0  0  0  0  0  0  0  0  0
   -1.4562   -0.5034    2.8806 H   0  0  0  0  0  0  0  0  0  0  0  0
   -0.8600    0.9389    3.7476 H   0  0  0  0  0  0  0  0  0  0  0  0
  1 10  1  0  0  0  0
  2  1  1  0  0  0  0
  3  2  1  0  0  0  0
  4  2  1  0  0  0  0
  4  6  2  0  0  0  0
  5  4  1  0  0  0  0
  6  8  1  0  0  0  0
  7  6  1  0  0  0  0
  8  9  1  0  0  0  0
 10  8  2  0  0  0  0
 10 13  1  0  0  0  0
 11 12  1  0  0  0  0
 11 28  1  0  0  0  0
 13 11  1  0  0  0  0
 13 15  1  0  0  0  0
 14 13  1  0  0  0  0
 16 17  1  0  0  0  0
 17 18  1  0  0  0  0
 17 31  1  6  0  0  0
 18 19  1  0  0  0  0
 20 18  2  0  0  0  0
 21 20  1  0  0  0  0
 22 24  2  0  0  0  0
 22 20  1  0  0  0  0
 23 22  1  0  0  0  0
 24 16  1  0  0  0  0
 25 24  1  0  0  0  0
 26 27  1  0  0  0  0
 26 34  1  0  0  0  0
 28 34  1  0  0  0  0
 28 29  1  0  0  0  0
 28 30  1  0  0  0  0
 31 26  1  0  0  0  0
 31 33  1  0  0  0  0
 32 31  1  0  0  0  0
 34 35  1  0  0  0  0
 34 36  1  0  0  0  0
M  END
