4,5,6,7
q = -1.0, confidence = 0.124

 64 71  0  0  0  0  0  0  0  0999 V2000
    9.0171   -1.5482   -0.0004 F   0  0  0  0  0  0  0  0  0  0  0  0
   -9.0172   -1.5482    0.0000 F   0  0  0  0  0  0  0  0  0  0  0  0
    0.0000    8.2114   -0.0000 F   0  0  0  0  0  0  0  0  0  0  0  0
    1.4760    0.5549    0.1013 N   0  0  0  0  0  2  0  0  0  0  0  0
   -1.4760    0.5549   -0.1012 N   0  0  0  0  0  0  0  0  0  0  0  0
   -1.2650   -2.2735    0.1184 N   0  0  0  0  0  2  0  0  0  0  0  0
    1.2649   -2.2735   -0.1182 N   0  0  0  0  0  2  0  0  0  0  0  0
    0.7194   -3.5339    0.0014 C   0  0  0  0  0  0  0  0  0  0  0  0
    1.8226   -4.4363    0.1350 C   0  0  0  0  0  3  0  0  0  0  0  0
    1.7532   -5.5256    0.2344 H   0  0  0  0  0  0  0  0  0  0  0  0
    2.9956   -3.6710    0.1348 C   0  0  0  0  0  0  0  0  0  0  0  0
    4.0185   -4.0431    0.2609 H   0  0  0  0  0  0  0  0  0  0  0  0
    2.6298   -2.2805   -0.0113 C   0  0  0  0  0  0  0  0  0  0  0  0
    3.3943   -1.0744   -0.0266 C   0  0  0  0  0  0  0  0  0  0  0  0
    2.8177    0.2346   -0.0619 C   0  0  0  0  0  0  0  0  0  0  0  0
    3.5019    1.4851   -0.3072 C   0  0  0  0  0  0  0  0  0  0  0  0
    4.5766    1.5806   -0.4958 H   0  0  0  0  0  0  0  0  0  0  0  0
    2.5638    2.5031   -0.3031 C   0  0  0  0  0  0  0  0  0  0  0  0
    2.7415    3.5671   -0.4920 H   0  0  0  0  0  0  0  0  0  0  0  0
    1.2680    1.9118   -0.0558 C   0  0  0  0  0  0  0  0  0  0  0  0
    0.0000    2.5651    0.0000 C   0  0  0  0  0  0  0  0  0  0  0  0
   -1.2680    1.9118    0.0558 C   0  0  0  0  0  0  0  0  0  0  0  0
   -2.5638    2.5031    0.3031 C   0  0  0  0  0  0  0  0  0  0  0  0
   -2.7415    3.5671    0.4920 H   0  0  0  0  0  0  0  0  0  0  0  0
   -3.5019    1.4851    0.3072 C   0  0  0  0  0  0  0  0  0  0  0  0
   -4.5767    1.5806    0.4957 H   0  0  0  0  0  0  0  0  0  0  0  0
   -2.8177    0.2346    0.0619 C   0  0  0  0  0  3  0  0  0  0  0  0
   -3.3944   -1.0744    0.0267 C   0  0  0  0  0  0  0  0  0  0  0  0
   -2.6298   -2.2805    0.0114 C   0  0  0  0  0  0  0  0  0  0  0  0
   -2.9956   -3.6710   -0.1349 C   0  0  0  0  0  0  0  0  0  0  0  0
   -4.0185   -4.0430   -0.2610 H   0  0  0  0  0  0  0  0  0  0  0  0
   -1.8226   -4.4363   -0.1350 C   0  0  0  0  0  0  0  0  0  0  0  0
   -1.7532   -5.5255   -0.2345 H   0  0  0  0  0  0  0  0  0  0  0  0
   -0.7194   -3.5339   -0.0013 C   0  0  0  0  0  0  0  0  0  0  0  0
    4.8746   -1.1913   -0.0243 C   0  0  0  0  0  0  0  0  0  0  0  0
    5.6604   -0.4817    0.9144 C   0  0  0  0  0  0  0  0  0  0  0  0
    5.1603    0.1549    1.6589 H   0  0  0  0  0  0  0  0  0  0  0  0
    7.0558   -0.5966    0.9281 C   0  0  0  0  0  0  0  0  0  0  0  0
    7.6717   -0.0569    1.6616 H   0  0  0  0  0  0  0  0  0  0  0  0
    7.6769   -1.4331   -0.0079 C   0  0  0  0  0  0  0  0  0  0  0  0
    6.9325   -2.1520   -0.9515 C   0  0  0  0  0  0  0  0  0  0  0  0
    7.4554   -2.7898   -1.6784 H   0  0  0  0  0  0  0  0  0  0  0  0
    5.5378   -2.0273   -0.9534 C   0  0  0  0  0  0  0  0  0  0  0  0
    4.9448   -2.5701   -1.7039 H   0  0  0  0  0  0  0  0  0  0  0  0
    0.0000    4.0537    0.0000 C   0  0  0  0  0  0  0  0  0  0  0  0
    0.7500    4.7804    0.9536 C   0  0  0  0  0  0  0  0  0  0  0  0
    1.3255    4.2313    1.7134 H   0  0  0  0  0  0  0  0  0  0  0  0
    0.7551    6.1809    0.9600 C   0  0  0  0  0  0  0  0  0  0  0  0
    1.3273    6.7525    1.7047 H   0  0  0  0  0  0  0  0  0  0  0  0
    0.0000    6.8660   -0.0000 C   0  0  0  0  0  0  0  0  0  0  0  0
   -0.7551    6.1809   -0.9600 C   0  0  0  0  0  0  0  0  0  0  0  0
   -1.3273    6.7524   -1.7047 H   0  0  0  0  0  0  0  0  0  0  0  0
   -0.7500    4.7804   -0.9536 C   0  0  0  0  0  0  0  0  0  0  0  0
   -1.3255    4.2312   -1.7134 H   0  0  0  0  0  0  0  0  0  0  0  0
   -4.8746   -1.1913    0.0242 C   0  0  0  0  0  0  0  0  0  0  0  0
   -5.6604   -0.4817   -0.9145 C   0  0  0  0  0  0  0  0  0  0  0  0
   -5.1602    0.1550   -1.6589 H   0  0  0  0  0  0  0  0  0  0  0  0
   -7.0557   -0.5966   -0.9283 C   0  0  0  0  0  0  0  0  0  0  0  0
   -7.6716   -0.0568   -1.6618 H   0  0  0  0  0  0  0  0  0  0  0  0
   -7.6769   -1.4331    0.0077 C   0  0  0  0  0  0  0  0  0  0  0  0
   -6.9326   -2.1520    0.9513 C   0  0  0  0  0  0  0  0  0  0  0  0
   -7.4556   -2.7898    1.6782 H   0  0  0  0  0  0  0  0  0  0  0  0
   -5.5379   -2.0273    0.9533 C   0  0  0  0  0  0  0  0  0  0  0  0
   -4.9449   -2.5701    1.7038 H   0  0  0  0  0  0  0  0  0  0  0  0
  2 60  1  0  0  0  0
  3 50  1  0  0  0  0
  5 22  2  0  0  0  0
  5 27  1  0  0  0  0
  7 13  1  0  0  0  0
  7  8  1  0  0  0  0
  8  9  1  0  0  0  0
  9 10  1  0  0  0  0
 11  9  1  0  0  0  0
 11 12  1  0  0  0  0
 13 11  2  0  0  0  0
 14 35  1  0  0  0  0
 14 13  1  0  0  0  0
 15 14  2  0  0  0  0
 15  4  1  0  0  0  0
 16 18  2  0  0  0  0
 16 15  1  0  0  0  0
 17 16  1  0  0  0  0
 18 20  1  0  0  0  0
 19 18  1  0  0  0  0
 20 21  2  0  0  0  0
 20  4  1  0  0  0  0
 21 22  1  0  0  0  0
 22 23  1  0  0  0  0
 23 25  2  0  0  0  0
 23 24  1  0  0  0  0
 25 26  1  0  0  0  0
 27 25  1  0  0  0  0
 28 27  1  0  0  0  0
 29 28  2  0  0  0  0
 29  6  1  0  0  0  0
 30 29  1  0  0  0  0
 31 30  1  0  0  0  0
 32 30  2  0  0  0  0
 32 34  1  0  0  0  0
 33 32  1  0  0  0  0
 34  8  2  0  0  0  0
 34  6  1  0  0  0  0
 35 36  1  0  0  0  0
 36 38  2  0  0  0  0
 36 37  1  0  0  0  0
 38 39  1  0  0  0  0
 40  1  1  0  0  0  0
 40 38  1  0  0  0  0
 41 40  2  0  0  0  0
 42 41  1  0  0  0  0
 43 41  1  0  0  0  0
 43 35  2  0  0  0  0
 44 43  1  0  0  0  0
 45 21  1  0  0  0  0
 45 46  1  0  0  0  0
 46 48  2  0  0  0  0
 46 47  1  0  0  0  0
 48 49  1  0  0  0  0
 50 48  1  0  0  0  0
 51 53  1  0  0  0  0
 51 50  2  0  0  0  0
 52 51  1  0  0  0  0
 53 45  2  0  0  0  0
 54 53  1  0  0  0  0
 55 28  1  0  0  0  0
 55 63  1  0  0  0  0
 56 55  2  0  0  0  0
 57 56  1  0  0  0  0
 58 56  1  0  0  0  0
 58 60  2  0  0  0  0
 59 58  1  0  0  0  0
 60 61  1  0  0  0  0
 61 63  2  0  0  0  0
 61 62  1  0  0  0  0
 63 64  1  0  0  0  0
M  END
