1,2,3,4
q = -2.0, confidence = 0.53

 48 52  0  0  0  0  0  0  0  0999 V2000
   -1.4457    1.2737   -0.0001 N   0  0  0  0  0  2  0  0  0  0  0  0
    1.2737    1.4457    0.0001 N   0  0  0  0  0  0  0  0  0  0  0  0
    1.4457   -1.2737   -0.0000 N   0  0  0  0  0  0  0  0  0  0  0  0
   -1.2737   -1.4457    0.0000 N   0  0  0  0  0  0  0  0  0  0  0  0
   -2.7552    1.0452   -0.3906 C   0  0  0  0  0  0  0  0  0  0  0  0
   -3.5246    2.2625   -0.2669 C   0  0  0  0  0  0  0  0  0  0  0  0
   -2.6886    3.2114    0.2665 C   0  0  0  0  0  0  0  0  0  0  0  0
   -1.3841    2.6017    0.3900 C   0  0  0  0  0  0  0  0  0  0  0  0
   -0.2095    3.3116    0.6900 C   0  0  0  0  0  0  0  0  0  0  0  0
    1.0452    2.7553    0.3904 C   0  0  0  0  0  0  0  0  0  0  0  0
    2.2625    3.5246    0.2669 C   0  0  0  0  0  0  0  0  0  0  0  0
    3.2115    2.6885   -0.2664 C   0  0  0  0  0  0  0  0  0  0  0  0
    2.6016    1.3840   -0.3901 C   0  0  0  0  0  0  0  0  0  0  0  0
    3.3115    0.2095   -0.6902 C   0  0  0  0  0  0  0  0  0  0  0  0
    2.7552   -1.0452   -0.3905 C   0  0  0  0  0  0  0  0  0  0  0  0
    3.5246   -2.2625   -0.2669 C   0  0  0  0  0  0  0  0  0  0  0  0
    2.6886   -3.2114    0.2665 C   0  0  0  0  0  0  0  0  0  0  0  0
    1.3841   -2.6017    0.3900 C   0  0  0  0  0  3  0  0  0  0  0  0
    0.2095   -3.3116    0.6900 C   0  0  0  0  0  0  0  0  0  0  0  0
   -1.0452   -2.7553    0.3904 C   0  0  0  0  0  0  0  0  0  0  0  0
   -2.2625   -3.5246    0.2669 C   0  0  0  0  0  0  0  0  0  0  0  0
   -3.2115   -2.6885   -0.2664 C   0  0  0  0  0  0  0  0  0  0  0  0
   -2.6016   -1.3840   -0.3901 C   0  0  0  0  0  0  0  0  0  0  0  0
   -3.3115   -0.2095   -0.6902 C   0  0  0  0  0  0  0  0  0  0  0  0
   -0.3006    4.7418    1.1660 C   0  0  0  0  0  0  0  0  0  0  0  0
    4.7417    0.3006   -1.1660 C   0  0  0  0  0  0  0  0  0  0  0  0
    0.3006   -4.7418    1.1660 C   0  0  0  0  0  0  0  0  0  0  0  0
   -4.7418   -0.3006   -1.1660 C   0  0  0  0  0  0  0  0  0  0  0  0
   -4.5865    2.3704   -0.5111 H   0  0  0  0  0  0  0  0  0  0  0  0
   -2.9295    4.2512    0.5110 H   0  0  0  0  0  0  0  0  0  0  0  0
    2.3705    4.5865    0.5112 H   0  0  0  0  0  0  0  0  0  0  0  0
    4.2513    2.9293   -0.5108 H   0  0  0  0  0  0  0  0  0  0  0  0
    4.5865   -2.3704   -0.5112 H   0  0  0  0  0  0  0  0  0  0  0  0
    2.9295   -4.2512    0.5110 H   0  0  0  0  0  0  0  0  0  0  0  0
   -2.3705   -4.5865    0.5112 H   0  0  0  0  0  0  0  0  0  0  0  0
   -4.2513   -2.9293   -0.5108 H   0  0  0  0  0  0  0  0  0  0  0  0
   -0.3469    5.4594    0.3187 H   0  0  0  0  0  0  0  0  0  0  0  0
   -1.2024    4.9025    1.7854 H   0  0  0  0  0  0  0  0  0  0  0  0
    0.5739    5.0161    1.7846 H   0  0  0  0  0  0  0  0  0  0  0  0
    5.4593    0.3473   -0.3186 H   0  0  0  0  0  0  0  0  0  0  0  0
    5.0163   -0.5741   -1.7843 H   0  0  0  0  0  0  0  0  0  0  0  0
    4.9024    1.2022   -1.7857 H   0  0  0  0  0  0  0  0  0  0  0  0
   -0.5739   -5.0162    1.7846 H   0  0  0  0  0  0  0  0  0  0  0  0
    0.3471   -5.4594    0.3186 H   0  0  0  0  0  0  0  0  0  0  0  0
    1.2024   -4.9024    1.7855 H   0  0  0  0  0  0  0  0  0  0  0  0
   -5.0164    0.5740   -1.7842 H   0  0  0  0  0  0  0  0  0  0  0  0
   -4.9024   -1.2023   -1.7857 H   0  0  0  0  0  0  0  0  0  0  0  0
   -5.4592   -0.3475   -0.3185 H   0  0  0  0  0  0  0  0  0  0  0  0
  1  8  1  0  0  0  0
  2 10  2  0  0  0  0
  3 18  1  0  0  0  0
  4 20  1  0  0  0  0
  5  6  1  0  0  0  0
  5  1  1  0  0  0  0
  6  7  2  0  0  0  0
  7  8  1  0  0  0  0
  7 30  1  0  0  0  0
  8  9  2  0  0  0  0
  9 25  1  0  0  0  0
 10  9  1  0  0  0  0
 11 10  1  0  0  0  0
 11 31  1  0  0  0  0
 12 11  2  0  0  0  0
 13 12  1  0  0  0  0
 13  2  1  0  0  0  0
 14 15  1  0  0  0  0
 14 13  2  0  0  0  0
 15 16  1  0  0  0  0
 15  3  2  0  0  0  0
 16 17  2  0  0  0  0
 17 18  1  0  0  0  0
 17 34  1  0  0  0  0
 18 19  1  0  0  0  0
 19 27  1  0  0  0  0
 20 19  2  0  0  0  0
 21 20  1  0  0  0  0
 21 35  1  0  0  0  0
 22 21  2  0  0  0  0
 23 22  1  0  0  0  0
 23  4  2  0  0  0  0
 24  5  2  0  0  0  0
 24 23  1  0  0  0  0
 25 39  1  0  0  0  0
 25 38  1  0  0  0  0
 26 14  1  0  0  0  0
 26 40  1  0  0  0  0
 27 43  1  0  0  0  0
 27 45  1  0  0  0  0
 28 24  1  0  0  0  0
 28 48  1  0  0  0  0
 29  6  1  0  0  0  0
 32 12  1  0  0  0  0
 33 16  1  0  0  0  0
 36 22  1  0  0  0  0
 37 25  1  0  0  0  0
 41 26  1  0  0  0  0
 42 26  1  0  0  0  0
 44 27  1  0  0  0  0
 46 28  1  0  0  0  0
 47 28  1  0  0  0  0
M  END
