1,2,3,6
q = -1.0, confidence = 0.006

 40 40  0  0  1  0  0  0  0  0999 V2000
    0.6422    1.2224   -0.0833 N   0  0  0  0  0  2  0  0  0  0  0  0
    2.3696   -0.5095    0.2596 N   0  0  0  0  0  2  0  0  0  0  0  0
    0.4583   -2.5110   -0.5112 N   0  0  0  0  0  0  0  0  0  0  0  0
   -0.1383   -2.8873    0.2433 H   0  0  0  0  0  0  0  0  0  0  0  0
   -0.0755   -2.6563   -1.3820 H   0  0  0  0  0  0  0  0  0  0  0  0
   -1.3040   -0.2402   -0.6091 N   0  0  0  0  0  2  0  0  0  0  0  0
   -5.4035   -0.6009    1.5143 N   0  3  0  0  0  0  0  0  0  0  0  0
   -6.0486    0.1829    1.7237 H   0  0  0  0  0  0  0  0  0  0  0  0
   -4.9823   -0.9050    2.4120 H   0  0  0  0  0  0  0  0  0  0  0  0
   -5.9767   -1.3936    1.1683 H   0  0  0  0  0  0  0  0  0  0  0  0
    4.0578    1.0283    0.7333 O   0  0  0  0  0  0  0  0  0  0  0  0
   -2.7806    1.5446   -0.8699 O   0  0  0  0  0  0  0  0  0  0  0  0
   -0.4607    1.9503   -0.3412 C   0  0  2  0  0  3  0  0  0  0  0  0
   -0.4113    3.3488   -0.2918 C   0  0  0  0  0  0  0  0  0  0  0  0
   -1.3245    3.9204   -0.5091 H   0  0  0  0  0  0  0  0  0  0  0  0
    0.8142    3.9616    0.0295 C   0  0  0  0  0  0  0  0  0  0  0  0
    0.8846    5.0587    0.0710 H   0  0  0  0  0  0  0  0  0  0  0  0
    1.9501    3.1741    0.2932 C   0  0  0  0  0  0  0  0  0  0  0  0
    2.9319    3.6003    0.5447 H   0  0  0  0  0  0  0  0  0  0  0  0
    1.8244    1.7818    0.2251 C   0  0  0  0  0  0  0  0  0  0  0  0
    2.8928    0.7484    0.4405 C   0  0  0  0  0  0  0  0  0  0  0  0
    3.3176   -1.6003    0.4116 C   0  0  0  0  0  0  0  0  0  0  0  0
    3.9810   -1.3865    1.2773 H   0  0  0  0  0  0  0  0  0  0  0  0
    3.9986   -1.6484   -0.4723 H   0  0  0  0  0  0  0  0  0  0  0  0
    2.6396   -2.9539    0.5913 C   0  0  0  0  0  0  0  0  0  0  0  0
    3.4202   -3.7372    0.6718 H   0  0  0  0  0  0  0  0  0  0  0  0
    2.0702   -2.9821    1.5477 H   0  0  0  0  0  0  0  0  0  0  0  0
    1.7141   -3.3080   -0.5647 C   0  0  0  0  0  0  0  0  0  0  0  0
    2.2087   -3.0862   -1.5322 H   0  0  0  0  0  0  0  0  0  0  0  0
    1.4610   -4.3899   -0.5601 H   0  0  0  0  0  0  0  0  0  0  0  0
   -1.6416    1.0867   -0.6452 C   0  0  0  0  0  0  0  0  0  0  0  0
   -2.3967   -1.1350   -0.9265 C   0  0  0  0  0  0  0  0  0  0  0  0
   -1.9991   -2.1321   -1.2054 H   0  0  0  0  0  0  0  0  0  0  0  0
   -2.9608   -0.7609   -1.8110 H   0  0  0  0  0  0  0  0  0  0  0  0
   -3.4093   -1.3773    0.2224 C   0  0  0  0  0  0  0  0  0  0  0  0
   -4.0325   -2.2592   -0.0543 H   0  0  0  0  0  0  0  0  0  0  0  0
   -2.8435   -1.6442    1.1428 H   0  0  0  0  0  0  0  0  0  0  0  0
   -4.3276   -0.1943    0.5028 C   0  0  0  0  0  0  0  0  0  0  0  0
   -3.8090    0.6821    0.9277 H   0  0  0  0  0  0  0  0  0  0  0  0
   -4.8594    0.1535   -0.4018 H   0  0  0  0  0  0  0  0  0  0  0  0
  1 20  1  0  0  0  0
  2 22  1  0  0  0  0
  2 21  1  0  0  0  0
  3  4  1  0  0  0  0
  5  3  1  0  0  0  0
  7  8  1  0  0  0  0
  7  9  1  0  0  0  0
 10  7  1  0  0  0  0
 12 31  2  0  0  0  0
 13 31  1  1  0  0  0
 13 14  1  0  0  0  0
 13  1  1  0  0  0  0
 14 16  2  0  0  0  0
 15 14  1  0  0  0  0
 16 17  1  0  0  0  0
 16 18  1  0  0  0  0
 18 19  1  0  0  0  0
 20 18  2  0  0  0  0
 20 21  1  0  0  0  0
 21 11  2  0  0  0  0
 22 25  1  0  0  0  0
 22 23  1  0  0  0  0
 24 22  1  0  0  0  0
 25 26  1  0  0  0  0
 25 27  1  0  0  0  0
 28 30  1  0  0  0  0
 28  3  1  0  0  0  0
 28 25  1  0  0  0  0
 29 28  1  0  0  0  0
 31  6  1  0  0  0  0
 32  6  1  0  0  0  0
 32 35  1  0  0  0  0
 33 32  1  0  0  0  0
 34 32  1  0  0  0  0
 35 38  1  0  0  0  0
 35 37  1  0  0  0  0
 36 35  1  0  0  0  0
 38 39  1  0  0  0  0
 38  7  1  0  0  0  0
 40 38  1  0  0  0  0
M  CHG  1   7   1
M  END
