1,8,18,25
q = 0.0, confidence = 1.0

 48 49  0  0  1  0  0  0  0  0999 V2000
   -0.4549    1.7964   -0.2616 N   0  0  2  0  0  0  0  0  0  0  0  0
    0.7217    2.4627   -0.8976 C   0  0  0  0  0  0  0  0  0  0  0  0
    0.5907    2.3808   -1.9941 H   0  0  0  0  0  0  0  0  0  0  0  0
    0.7319    3.5482   -0.6487 H   0  0  0  0  0  0  0  0  0  0  0  0
    2.0202    1.8110   -0.4810 C   0  0  0  0  0  0  0  0  0  0  0  0
    2.8784    2.2901   -1.0000 H   0  0  0  0  0  0  0  0  0  0  0  0
    2.1867    1.9493    0.5999 H   0  0  0  0  0  0  0  0  0  0  0  0
    1.9976    0.3464   -0.7773 N   0  0  0  0  0  0  0  0  0  0  0  0
    2.9255   -0.3996    0.1425 C   0  0  0  0  0  0  0  0  0  0  0  0
    3.9584   -0.0712   -0.1153 H   0  0  0  0  0  0  0  0  0  0  0  0
    2.8260   -1.4653   -0.1399 H   0  0  0  0  0  0  0  0  0  0  0  0
    2.7395   -0.2323    1.6548 C   0  0  0  0  0  0  0  0  0  0  0  0
    3.5852   -0.7947    2.1034 H   0  0  0  0  0  0  0  0  0  0  0  0
    2.9341    0.8146    1.9728 H   0  0  0  0  0  0  0  0  0  0  0  0
    1.4740   -0.7829    2.3255 C   0  0  0  0  0  0  0  0  0  0  0  0
    1.3615   -1.8442    2.0237 H   0  0  0  0  0  0  0  0  0  0  0  0
    1.6443   -0.7785    3.4315 H   0  0  0  0  0  0  0  0  0  0  0  0
    0.2120   -0.1163    1.9744 N   0  0  1  0  0  0  0  0  0  0  0  0
   -0.9704   -0.9103    2.2968 C   0  0  0  0  0  0  0  0  0  0  0  0
   -1.2950   -0.7714    3.3601 H   0  0  0  0  0  0  0  0  0  0  0  0
   -0.6917   -1.9777    2.1926 H   0  0  0  0  0  0  0  0  0  0  0  0
   -2.1929   -0.6236    1.4212 C   0  0  0  0  0  0  0  0  0  0  0  0
   -3.0402   -1.2483    1.7787 H   0  0  0  0  0  0  0  0  0  0  0  0
   -2.5131    0.4218    1.5559 H   0  0  0  0  0  0  0  0  0  0  0  0
   -1.9994   -0.8787   -0.0472 N   0  0  0  0  0  0  0  0  0  0  0  0
   -2.9636   -0.0834   -0.8712 C   0  0  0  0  0  0  0  0  0  0  0  0
   -3.9900   -0.4513   -0.6429 H   0  0  0  0  0  0  0  0  0  0  0  0
   -2.7554   -0.3462   -1.9275 H   0  0  0  0  0  0  0  0  0  0  0  0
   -2.9547    1.4320   -0.6894 C   0  0  0  0  0  0  0  0  0  0  0  0
   -3.3121    1.7162    0.3219 H   0  0  0  0  0  0  0  0  0  0  0  0
   -3.7381    1.8280   -1.3682 H   0  0  0  0  0  0  0  0  0  0  0  0
   -1.6700    2.1688   -1.0499 C   0  0  0  0  0  0  0  0  0  0  0  0
   -1.4251    1.9699   -2.1117 H   0  0  0  0  0  0  0  0  0  0  0  0
   -1.8380    3.2665   -0.9516 H   0  0  0  0  0  0  0  0  0  0  0  0
   -0.6143    2.1676    1.1804 C   0  0  0  0  0  0  0  0  0  0  0  0
   -1.6954    2.1431    1.3957 H   0  0  0  0  0  0  0  0  0  0  0  0
   -0.3104    3.2296    1.3140 H   0  0  0  0  0  0  0  0  0  0  0  0
    0.1332    1.3085    2.2428 C   0  0  0  0  0  0  0  0  0  0  0  0
    1.1644    1.6901    2.3536 H   0  0  0  0  0  0  0  0  0  0  0  0
   -0.3660    1.5298    3.2201 H   0  0  0  0  0  0  0  0  0  0  0  0
    2.4196    0.0989   -2.1829 C   0  0  0  0  0  0  0  0  0  0  0  0
    3.4715    0.4306   -2.3256 H   0  0  0  0  0  0  0  0  0  0  0  0
    1.7608    0.6529   -2.8759 H   0  0  0  0  0  0  0  0  0  0  0  0
    2.3239   -0.9808   -2.3940 H   0  0  0  0  0  0  0  0  0  0  0  0
   -2.2768   -2.3168   -0.3202 C   0  0  0  0  0  0  0  0  0  0  0  0
   -3.3381   -2.5332   -0.0704 H   0  0  0  0  0  0  0  0  0  0  0  0
   -1.6068   -2.9530    0.2805 H   0  0  0  0  0  0  0  0  0  0  0  0
   -2.0827   -2.5397   -1.3829 H   0  0  0  0  0  0  0  0  0  0  0  0
  1 32  1  6  0  0  0
  1 35  1  0  0  0  0
  2  4  1  0  0  0  0
  2  5  1  0  0  0  0
  2  1  1  0  0  0  0
  3  2  1  0  0  0  0
  5  7  1  0  0  0  0
  6  5  1  0  0  0  0
  8  5  1  0  0  0  0
  8  9  1  0  0  0  0
  9 12  1  0  0  0  0
 10  9  1  0  0  0  0
 11  9  1  0  0  0  0
 12 14  1  0  0  0  0
 12 13  1  0  0  0  0
 12 15  1  0  0  0  0
 15 17  1  0  0  0  0
 16 15  1  0  0  0  0
 18 38  1  1  0  0  0
 18 19  1  0  0  0  0
 18 15  1  0  0  0  0
 19 20  1  0  0  0  0
 21 19  1  0  0  0  0
 22 24  1  0  0  0  0
 22 23  1  0  0  0  0
 22 19  1  0  0  0  0
 25 22  1  0  0  0  0
 26 29  1  0  0  0  0
 26 27  1  0  0  0  0
 26 25  1  0  0  0  0
 28 26  1  0  0  0  0
 29 30  1  0  0  0  0
 31 29  1  0  0  0  0
 32 34  1  0  0  0  0
 32 29  1  0  0  0  0
 33 32  1  0  0  0  0
 35 37  1  0  0  0  0
 35 36  1  0  0  0  0
 35 38  1  0  0  0  0
 38 39  1  0  0  0  0
 38 40  1  0  0  0  0
 41  8  1  0  0  0  0
 42 41  1  0  0  0  0
 43 41  1  0  0  0  0
 44 41  1  0  0  0  0
 45 46  1  0  0  0  0
 45 25  1  0  0  0  0
 45 47  1  0  0  0  0
 48 45  1  0  0  0  0
M  END
