2,3,4,5
q = -2.0, confidence = 0.882

 47 46  0  0  0  0  0  0  0  0999 V2000
    0.0000    2.3975   -0.0000 Si  0  0  0  0  0  0  0  0  0  0  0  0
   -0.8552    1.1730   -0.9231 N   0  0  0  0  0  2  0  0  0  0  0  0
    0.8552    1.1729    0.9230 N   0  0  0  0  0  2  0  0  0  0  0  0
    2.3368   -0.9185   -0.6495 N   0  0  0  0  0  0  0  0  0  0  0  0
   -2.3368   -0.9184    0.6495 N   0  0  0  0  0  0  0  0  0  0  0  0
   -2.0780    1.3337   -1.6771 C   0  0  0  0  0  0  0  0  0  0  0  0
   -2.2049    2.3784   -2.0481 H   0  0  0  0  0  0  0  0  0  0  0  0
   -2.0467    0.6821   -2.5815 H   0  0  0  0  0  0  0  0  0  0  0  0
   -3.3157    0.9556   -0.8510 C   0  0  0  0  0  0  0  0  0  0  0  0
   -3.4211    1.6510    0.0092 H   0  0  0  0  0  0  0  0  0  0  0  0
   -4.2276    1.0972   -1.4711 H   0  0  0  0  0  0  0  0  0  0  0  0
   -3.3360   -0.4986   -0.3846 C   0  0  0  0  0  0  0  0  0  0  0  0
   -3.1699   -1.1608   -1.2584 H   0  0  0  0  0  0  0  0  0  0  0  0
   -4.3464   -0.7364    0.0267 H   0  0  0  0  0  0  0  0  0  0  0  0
   -2.5481   -0.1906    1.9193 C   0  0  0  0  0  0  0  0  0  0  0  0
   -3.5887   -0.3382    2.2922 H   0  0  0  0  0  0  0  0  0  0  0  0
   -2.3700    0.8899    1.7744 H   0  0  0  0  0  0  0  0  0  0  0  0
   -1.8311   -0.5673    2.6728 H   0  0  0  0  0  0  0  0  0  0  0  0
   -2.5481   -2.3683    0.8810 C   0  0  0  0  0  0  0  0  0  0  0  0
   -2.3399   -2.9176   -0.0563 H   0  0  0  0  0  0  0  0  0  0  0  0
   -3.6006   -2.5575    1.1948 H   0  0  0  0  0  0  0  0  0  0  0  0
   -1.8545   -2.7240    1.6631 H   0  0  0  0  0  0  0  0  0  0  0  0
    2.0780    1.3337    1.6770 C   0  0  0  0  0  0  0  0  0  0  0  0
    2.0467    0.6821    2.5816 H   0  0  0  0  0  0  0  0  0  0  0  0
    2.2049    2.3783    2.0480 H   0  0  0  0  0  0  0  0  0  0  0  0
    3.3157    0.9555    0.8510 C   0  0  0  0  0  0  0  0  0  0  0  0
    4.2276    1.0970    1.4711 H   0  0  0  0  0  0  0  0  0  0  0  0
    3.4212    1.6508   -0.0092 H   0  0  0  0  0  0  0  0  0  0  0  0
    3.3359   -0.4988    0.3846 C   0  0  0  0  0  0  0  0  0  0  0  0
    3.1698   -1.1609    1.2585 H   0  0  0  0  0  0  0  0  0  0  0  0
    4.3464   -0.7367   -0.0266 H   0  0  0  0  0  0  0  0  0  0  0  0
    2.5481   -0.1908   -1.9193 C   0  0  0  0  0  0  0  0  0  0  0  0
    2.3700    0.8897   -1.7744 H   0  0  0  0  0  0  0  0  0  0  0  0
    1.8311   -0.5674   -2.6728 H   0  0  0  0  0  0  0  0  0  0  0  0
    3.5887   -0.3384   -2.2922 H   0  0  0  0  0  0  0  0  0  0  0  0
    2.5479   -2.3684   -0.8810 C   0  0  0  0  0  0  0  0  0  0  0  0
    2.3397   -2.9177    0.0564 H   0  0  0  0  0  0  0  0  0  0  0  0
    3.6004   -2.5577   -1.1947 H   0  0  0  0  0  0  0  0  0  0  0  0
    1.8543   -2.7240   -1.6631 H   0  0  0  0  0  0  0  0  0  0  0  0
    1.1059    3.5272   -1.0448 C   0  0  0  0  0  0  0  0  0  0  0  0
    1.7875    4.1230   -0.4017 H   0  0  0  0  0  0  0  0  0  0  0  0
    0.4931    4.2446   -1.6298 H   0  0  0  0  0  0  0  0  0  0  0  0
    1.7223    2.9490   -1.7615 H   0  0  0  0  0  0  0  0  0  0  0  0
   -1.1056    3.5274    1.0448 C   0  0  0  0  0  0  0  0  0  0  0  0
   -0.4926    4.2443    1.6301 H   0  0  0  0  0  0  0  0  0  0  0  0
   -1.7224    2.9493    1.7612 H   0  0  0  0  0  0  0  0  0  0  0  0
   -1.7868    4.1237    0.4017 H   0  0  0  0  0  0  0  0  0  0  0  0
  1  3  1  0  0  0  0
  1 44  1  0  0  0  0
  2  1  1  0  0  0  0
  3 23  1  0  0  0  0
  4 29  1  0  0  0  0
  5 19  1  0  0  0  0
  5 15  1  0  0  0  0
  6  2  1  0  0  0  0
  6  9  1  0  0  0  0
  7  6  1  0  0  0  0
  8  6  1  0  0  0  0
  9 12  1  0  0  0  0
  9 10  1  0  0  0  0
 11  9  1  0  0  0  0
 12 14  1  0  0  0  0
 12  5  1  0  0  0  0
 13 12  1  0  0  0  0
 15 16  1  0  0  0  0
 15 18  1  0  0  0  0
 17 15  1  0  0  0  0
 19 21  1  0  0  0  0
 19 22  1  0  0  0  0
 20 19  1  0  0  0  0
 23 25  1  0  0  0  0
 23 24  1  0  0  0  0
 26 27  1  0  0  0  0
 26 23  1  0  0  0  0
 28 26  1  0  0  0  0
 29 26  1  0  0  0  0
 29 30  1  0  0  0  0
 31 29  1  0  0  0  0
 32 33  1  0  0  0  0
 32  4  1  0  0  0  0
 34 32  1  0  0  0  0
 35 32  1  0  0  0  0
 36  4  1  0  0  0  0
 36 37  1  0  0  0  0
 38 36  1  0  0  0  0
 39 36  1  0  0  0  0
 40 41  1  0  0  0  0
 40  1  1  0  0  0  0
 42 40  1  0  0  0  0
 43 40  1  0  0  0  0
 44 45  1  0  0  0  0
 44 46  1  0  0  0  0
 47 44  1  0  0  0  0
M  END
