4,5,6,7
q = -1.0, confidence = 0.086

 57 59  0  0  1  0  0  0  0  0999 V2000
   -1.5925   -1.0401   -0.1988 S   0  0  0  0  0  0  0  0  0  0  0  0
   -1.4678   -2.1065    0.8600 O   0  0  0  0  0  0  0  0  0  0  0  0
   -1.2212   -1.3911   -1.5940 O   0  0  0  0  0  0  0  0  0  0  0  0
    2.1742   -1.4353   -0.8103 N   0  0  0  0  0  2  0  0  0  0  0  0
    1.4425    0.1060    1.9773 N   0  0  0  0  0  0  0  0  0  0  0  0
    1.6566    2.0096   -0.6074 N   0  0  0  0  0  2  0  0  0  0  0  0
   -0.8229    0.3576    0.1621 N   0  0  0  0  0  2  0  0  0  0  0  0
    2.7066   -1.5128   -2.0549 C   0  0  0  0  0  3  0  0  0  0  0  0
    2.4581   -0.6820   -2.7334 H   0  0  0  0  0  0  0  0  0  0  0  0
    3.5117   -2.5722   -2.4744 C   0  0  0  0  0  0  0  0  0  0  0  0
    3.9052   -2.5871   -3.5009 H   0  0  0  0  0  0  0  0  0  0  0  0
    3.7945   -3.6027   -1.5634 C   0  0  0  0  0  0  0  0  0  0  0  0
    4.4236   -4.4573   -1.8538 H   0  0  0  0  0  0  0  0  0  0  0  0
    3.2491   -3.5228   -0.2759 C   0  0  0  0  0  0  0  0  0  0  0  0
    3.4384   -4.3139    0.4647 H   0  0  0  0  0  0  0  0  0  0  0  0
    2.4311   -2.4361    0.0820 C   0  0  0  0  0  0  0  0  0  0  0  0
    1.7881   -2.3421    1.4386 C   0  0  0  0  0  0  0  0  0  0  0  0
    2.0429   -3.2558    2.0108 H   0  0  0  0  0  0  0  0  0  0  0  0
    0.6804   -2.3472    1.2977 H   0  0  0  0  0  0  0  0  0  0  0  0
    2.2033   -1.1137    2.2785 C   0  0  0  0  0  0  0  0  0  0  0  0
    2.1094   -1.3676    3.3640 H   0  0  0  0  0  0  0  0  0  0  0  0
    3.2797   -0.9014    2.1049 H   0  0  0  0  0  0  0  0  0  0  0  0
    2.1642    1.3224    2.3619 C   0  0  0  0  0  0  0  0  0  0  0  0
    2.6996    1.1728    3.3322 H   0  0  0  0  0  0  0  0  0  0  0  0
    1.4216    2.1257    2.5407 H   0  0  0  0  0  0  0  0  0  0  0  0
    3.1753    1.8163    1.2947 C   0  0  0  0  0  0  0  0  0  0  0  0
    3.9637    2.4144    1.7933 H   0  0  0  0  0  0  0  0  0  0  0  0
    3.6686    0.9337    0.8326 H   0  0  0  0  0  0  0  0  0  0  0  0
    2.5287    2.6482    0.2181 C   0  0  2  0  0  3  0  0  0  0  0  0
    2.7510    4.0322    0.1052 C   0  0  0  0  0  0  0  0  0  0  0  0
    3.4614    4.5232    0.7872 H   0  0  0  0  0  0  0  0  0  0  0  0
    2.0680    4.7695   -0.8719 C   0  0  0  0  0  0  0  0  0  0  0  0
    2.2402    5.8511   -0.9781 H   0  0  0  0  0  0  0  0  0  0  0  0
    1.1533    4.1013   -1.7019 C   0  0  0  0  0  0  0  0  0  0  0  0
    0.5818    4.6369   -2.4737 H   0  0  0  0  0  0  0  0  0  0  0  0
    0.9741    2.7265   -1.5303 C   0  0  0  0  0  0  0  0  0  0  0  0
    0.2487    2.1542   -2.1306 H   0  0  0  0  0  0  0  0  0  0  0  0
    0.0553    0.0636    2.4852 C   0  0  0  0  0  0  0  0  0  0  0  0
    0.0017    0.4608    3.5287 H   0  0  0  0  0  0  0  0  0  0  0  0
   -0.2723   -0.9923    2.5113 H   0  0  0  0  0  0  0  0  0  0  0  0
   -0.9178    0.8060    1.5488 C   0  0  0  0  0  0  0  0  0  0  0  0
   -1.9477    0.7070    1.9686 H   0  0  0  0  0  0  0  0  0  0  0  0
   -0.6926    1.8973    1.5542 H   0  0  0  0  0  0  0  0  0  0  0  0
   -3.3441   -0.6026   -0.2102 C   0  0  0  0  0  0  0  0  0  0  0  0
   -4.1957   -1.0468    0.8090 C   0  0  0  0  0  0  0  0  0  0  0  0
   -3.7893   -1.7106    1.5858 H   0  0  0  0  0  0  0  0  0  0  0  0
   -5.5434   -0.6513    0.8018 C   0  0  0  0  0  0  0  0  0  0  0  0
   -6.2157   -1.0011    1.6017 H   0  0  0  0  0  0  0  0  0  0  0  0
   -6.0549    0.1794   -0.2131 C   0  0  0  0  0  0  0  0  0  0  0  0
   -5.1735    0.6075   -1.2334 C   0  0  0  0  0  0  0  0  0  0  0  0
   -5.5573    1.2518   -2.0412 H   0  0  0  0  0  0  0  0  0  0  0  0
   -3.8294    0.2250   -1.2379 C   0  0  0  0  0  0  0  0  0  0  0  0
   -3.1431    0.5507   -2.0330 H   0  0  0  0  0  0  0  0  0  0  0  0
   -7.5032    0.5999   -0.2288 C   0  0  0  0  0  0  0  0  0  0  0  0
   -7.6038    1.7055   -0.2353 H   0  0  0  0  0  0  0  0  0  0  0  0
   -8.0506    0.2142    0.6530 H   0  0  0  0  0  0  0  0  0  0  0  0
   -8.0212    0.2274   -1.1378 H   0  0  0  0  0  0  0  0  0  0  0  0
  1  7  1  0  0  0  0
  1  2  2  0  0  0  0
  3  1  2  0  0  0  0
  4 16  1  0  0  0  0
  5 20  1  0  0  0  0
  5 23  1  0  0  0  0
  5 38  1  0  0  0  0
  6 29  1  0  0  0  0
  7 41  1  0  0  0  0
  8  4  1  0  0  0  0
  9  8  1  0  0  0  0
 10  8  1  0  0  0  0
 10 12  2  0  0  0  0
 11 10  1  0  0  0  0
 12 14  1  0  0  0  0
 13 12  1  0  0  0  0
 14 16  2  0  0  0  0
 14 15  1  0  0  0  0
 16 17  1  0  0  0  0
 17 18  1  0  0  0  0
 17 20  1  0  0  0  0
 19 17  1  0  0  0  0
 20 21  1  0  0  0  0
 22 20  1  0  0  0  0
 23 25  1  0  0  0  0
 23 24  1  0  0  0  0
 26 27  1  0  0  0  0
 26 23  1  0  0  0  0
 28 26  1  0  0  0  0
 29 26  1  1  0  0  0
 30 29  1  0  0  0  0
 30 31  1  0  0  0  0
 32 30  2  0  0  0  0
 33 32  1  0  0  0  0
 34 36  2  0  0  0  0
 34 32  1  0  0  0  0
 35 34  1  0  0  0  0
 36  6  1  0  0  0  0
 37 36  1  0  0  0  0
 38 40  1  0  0  0  0
 38 39  1  0  0  0  0
 41 43  1  0  0  0  0
 41 42  1  0  0  0  0
 41 38  1  0  0  0  0
 44  1  1  0  0  0  0
 44 45  1  0  0  0  0
 45 46  1  0  0  0  0
 47 45  2  0  0  0  0
 47 48  1  0  0  0  0
 49 47  1  0  0  0  0
 50 49  2  0  0  0  0
 51 50  1  0  0  0  0
 52 50  1  0  0  0  0
 52 44  2  0  0  0  0
 53 52  1  0  0  0  0
 54 49  1  0  0  0  0
 54 56  1  0  0  0  0
 55 54  1  0  0  0  0
 57 54  1  0  0  0  0
M  END
