5,6,7,8
q = -2.0, confidence = 0.986

 41 42  0  0  0  0  0  0  0  0999 V2000
    5.2841    0.4639   -1.5977 Cl  0  0  0  0  0  0  0  0  0  0  0  0
    5.2844    0.4834    1.5912 Cl  0  0  0  0  0  0  0  0  0  0  0  0
    0.4774    0.6094   -3.5625 O   0  0  0  0  0  0  0  0  0  0  0  0
    0.4778    0.6524    3.5549 O   0  0  0  0  0  0  0  0  0  0  0  0
    0.0744    0.3784   -1.2806 N   0  0  0  0  0  2  0  0  0  0  0  0
    0.0746    0.3932    1.2761 N   0  0  0  0  0  2  0  0  0  0  0  0
   -2.5760    0.3170    1.6002 N   0  0  0  0  0  0  0  0  0  0  0  0
   -2.5762    0.2980   -1.6039 N   0  0  0  0  0  0  0  0  0  0  0  0
    1.3544    0.4128   -0.7199 C   0  0  0  0  0  0  0  0  0  0  0  0
    2.5733    0.4328   -1.4220 C   0  0  0  0  0  0  0  0  0  0  0  0
    2.5593    0.4347   -2.5183 H   0  0  0  0  0  0  0  0  0  0  0  0
    3.7843    0.4557   -0.7094 C   0  0  0  0  0  0  0  0  0  0  0  0
    3.7844    0.4643    0.7034 C   0  0  0  0  0  0  0  0  0  0  0  0
    2.5735    0.4501    1.4164 C   0  0  0  0  0  0  0  0  0  0  0  0
    2.5597    0.4654    2.5126 H   0  0  0  0  0  0  0  0  0  0  0  0
    1.3545    0.4215    0.7147 C   0  0  0  0  0  0  0  0  0  0  0  0
   -0.2717    0.6206    2.5753 C   0  0  0  0  0  0  0  0  0  0  0  0
   -1.7695    0.9619    2.6805 C   0  0  0  0  0  0  0  0  0  0  0  0
   -2.1565    0.7017    3.6884 H   0  0  0  0  0  0  0  0  0  0  0  0
   -1.8362    2.0595    2.5422 H   0  0  0  0  0  0  0  0  0  0  0  0
   -2.9322   -1.0451    2.0449 C   0  0  0  0  0  0  0  0  0  0  0  0
   -3.4270   -1.6080    1.2345 H   0  0  0  0  0  0  0  0  0  0  0  0
   -3.6137   -0.9901    2.9230 H   0  0  0  0  0  0  0  0  0  0  0  0
   -2.0173   -1.5909    2.3322 H   0  0  0  0  0  0  0  0  0  0  0  0
   -3.8064    1.0949    1.2905 C   0  0  0  0  0  0  0  0  0  0  0  0
   -3.4959    2.1536    1.2035 H   0  0  0  0  0  0  0  0  0  0  0  0
   -4.5110    1.0053    2.1498 H   0  0  0  0  0  0  0  0  0  0  0  0
   -4.5133    0.6789   -0.0039 C   0  0  0  0  0  0  0  0  0  0  0  0
   -4.7606   -0.4042    0.0024 H   0  0  0  0  0  0  0  0  0  0  0  0
   -5.4966    1.1937   -0.0070 H   0  0  0  0  0  0  0  0  0  0  0  0
   -3.8060    1.0799   -1.3028 C   0  0  0  0  0  0  0  0  0  0  0  0
   -4.5105    0.9816   -2.1612 H   0  0  0  0  0  0  0  0  0  0  0  0
   -3.4942    2.1391   -1.2272 H   0  0  0  0  0  0  0  0  0  0  0  0
   -2.9329   -1.0691   -2.0327 C   0  0  0  0  0  0  0  0  0  0  0  0
   -3.4290   -1.6222   -1.2163 H   0  0  0  0  0  0  0  0  0  0  0  0
   -2.0182   -1.6189   -2.3127 H   0  0  0  0  0  0  0  0  0  0  0  0
   -3.6137   -1.0241   -2.9119 H   0  0  0  0  0  0  0  0  0  0  0  0
   -1.7697    0.9299   -2.6918 C   0  0  0  0  0  0  0  0  0  0  0  0
   -1.8369    2.0290   -2.5669 H   0  0  0  0  0  0  0  0  0  0  0  0
   -2.1567    0.6573   -3.6965 H   0  0  0  0  0  0  0  0  0  0  0  0
   -0.2718    0.5902   -2.5824 C   0  0  0  0  0  0  0  0  0  0  0  0
  1 12  1  0  0  0  0
  3 41  2  0  0  0  0
  5  9  1  0  0  0  0
  6 17  1  0  0  0  0
  7 21  1  0  0  0  0
  7 18  1  0  0  0  0
  8 31  1  0  0  0  0
  9 16  1  0  0  0  0
 10  9  2  0  0  0  0
 10 12  1  0  0  0  0
 11 10  1  0  0  0  0
 12 13  2  0  0  0  0
 13 14  1  0  0  0  0
 13  2  1  0  0  0  0
 14 15  1  0  0  0  0
 16  6  1  0  0  0  0
 16 14  2  0  0  0  0
 17 18  1  0  0  0  0
 17  4  2  0  0  0  0
 18 19  1  0  0  0  0
 20 18  1  0  0  0  0
 21 24  1  0  0  0  0
 21 23  1  0  0  0  0
 22 21  1  0  0  0  0
 25  7  1  0  0  0  0
 25 27  1  0  0  0  0
 26 25  1  0  0  0  0
 28 29  1  0  0  0  0
 28 25  1  0  0  0  0
 30 28  1  0  0  0  0
 31 33  1  0  0  0  0
 31 28  1  0  0  0  0
 32 31  1  0  0  0  0
 34  8  1  0  0  0  0
 34 35  1  0  0  0  0
 36 34  1  0  0  0  0
 37 34  1  0  0  0  0
 38 41  1  0  0  0  0
 38 39  1  0  0  0  0
 38  8  1  0  0  0  0
 40 38  1  0  0  0  0
 41  5  1  0  0  0  0
M  END
