1,2,3,4
q = -2.0, confidence = 0.938

 62 64  0  0  1  0  0  0  0  0999 V2000
   -2.0147   -1.5478   -0.2670 N   0  0  0  0  0  2  0  0  0  0  0  0
    1.7110   -1.0583    1.1399 N   0  0  0  0  0  2  0  0  0  0  0  0
   -0.0703    0.9742    0.4318 N   0  0  0  0  0  2  0  0  0  0  0  0
   -0.8672   -1.1428    2.0501 N   0  0  0  0  0  0  0  0  0  0  0  0
    3.3071   -1.1792    0.6740 S   0  0  0  0  0  0  0  0  0  0  0  0
   -3.0516   -1.0823   -1.4856 S   0  0  0  0  0  0  0  0  0  0  0  0
    3.4026   -2.1507   -0.4388 O   0  0  0  0  0  0  0  0  0  0  0  0
    4.1592   -1.3431    1.8823 O   0  0  0  0  0  0  0  0  0  0  0  0
   -2.2873   -0.9141   -2.7403 O   0  0  0  0  0  0  0  0  0  0  0  0
   -4.2673   -1.9353   -1.4556 O   0  0  0  0  0  0  0  0  0  0  0  0
   -2.7540   -2.1420    0.8559 C   0  0  0  0  0  0  0  0  0  0  0  0
   -1.8310   -2.2580    2.0687 C   0  0  0  0  0  0  0  0  0  0  0  0
    1.4978   -0.6252    2.5171 C   0  0  0  0  0  0  0  0  0  0  0  0
    0.2333   -1.3073    3.0219 C   0  0  0  0  0  0  0  0  0  0  0  0
   -1.5523    0.1540    2.1691 C   0  0  0  0  0  0  0  0  0  0  0  0
   -0.7744    1.2788    1.5445 C   0  0  2  0  0  3  0  0  0  0  0  0
   -0.8142    2.5799    2.0751 C   0  0  0  0  0  0  0  0  0  0  0  0
   -0.0902    3.5968    1.4447 C   0  0  0  0  0  0  0  0  0  0  0  0
    0.6842    3.2675    0.3237 C   0  0  0  0  0  0  0  0  0  0  0  0
    0.6714    1.9462   -0.1371 C   0  0  0  0  0  0  0  0  0  0  0  0
   -3.5685    0.5621   -0.9341 C   0  0  0  0  0  0  0  0  0  0  0  0
   -2.8048    1.6875   -1.2854 C   0  0  0  0  0  0  0  0  0  0  0  0
   -3.0976    2.9285   -0.7131 C   0  0  0  0  0  0  0  0  0  0  0  0
   -4.1501    3.0744    0.2188 C   0  0  0  0  0  0  0  0  0  0  0  0
   -4.9325    1.9419    0.5194 C   0  0  0  0  0  0  0  0  0  0  0  0
   -4.6585    0.6908   -0.0579 C   0  0  0  0  0  0  0  0  0  0  0  0
   -4.4208    4.4119    0.8587 C   0  0  0  0  0  0  0  0  0  0  0  0
    3.7079    0.4369   -0.0180 C   0  0  0  0  0  0  0  0  0  0  0  0
    3.9748    1.5158    0.8388 C   0  0  0  0  0  0  0  0  0  0  0  0
    4.2023    2.7852    0.2899 C   0  0  0  0  0  0  0  0  0  0  0  0
    4.1776    2.9953   -1.1054 C   0  0  0  0  0  0  0  0  0  0  0  0
    3.9304    1.8849   -1.9425 C   0  0  0  0  0  0  0  0  0  0  0  0
    3.7014    0.6097   -1.4094 C   0  0  0  0  0  0  0  0  0  0  0  0
    4.4482    4.3580   -1.6914 C   0  0  0  0  0  0  0  0  0  0  0  0
   -3.1613   -3.1433    0.5990 H   0  0  0  0  0  0  0  0  0  0  0  0
   -3.6461   -1.5269    1.1226 H   0  0  0  0  0  0  0  0  0  0  0  0
   -1.2402   -3.1903    2.0194 H   0  0  0  0  0  0  0  0  0  0  0  0
   -2.4259   -2.2738    3.0138 H   0  0  0  0  0  0  0  0  0  0  0  0
    2.3547   -0.9160    3.1599 H   0  0  0  0  0  0  0  0  0  0  0  0
    1.4019    0.4866    2.5961 H   0  0  0  0  0  0  0  0  0  0  0  0
    0.4295   -2.3935    3.1101 H   0  0  0  0  0  0  0  0  0  0  0  0
   -0.0613   -0.9308    4.0303 H   0  0  0  0  0  0  0  0  0  0  0  0
   -2.5194    0.0927    1.6304 H   0  0  0  0  0  0  0  0  0  0  0  0
   -1.7870    0.3891    3.2331 H   0  0  0  0  0  0  0  0  0  0  0  0
   -1.4082    2.7781    2.9792 H   0  0  0  0  0  0  0  0  0  0  0  0
   -0.1090    4.6247    1.8375 H   0  0  0  0  0  0  0  0  0  0  0  0
    1.3095    4.0114   -0.1887 H   0  0  0  0  0  0  0  0  0  0  0  0
    1.2928    1.6509   -0.9919 H   0  0  0  0  0  0  0  0  0  0  0  0
   -1.9939    1.5737   -2.0175 H   0  0  0  0  0  0  0  0  0  0  0  0
   -2.4929    3.8070   -0.9892 H   0  0  0  0  0  0  0  0  0  0  0  0
   -5.7828    2.0430    1.2126 H   0  0  0  0  0  0  0  0  0  0  0  0
   -5.2933   -0.1845    0.1423 H   0  0  0  0  0  0  0  0  0  0  0  0
   -5.3039    4.3783    1.5254 H   0  0  0  0  0  0  0  0  0  0  0  0
   -3.5507    4.7469    1.4630 H   0  0  0  0  0  0  0  0  0  0  0  0
   -4.5991    5.1977    0.0956 H   0  0  0  0  0  0  0  0  0  0  0  0
    4.0149    1.3511    1.9253 H   0  0  0  0  0  0  0  0  0  0  0  0
    4.4081    3.6354    0.9597 H   0  0  0  0  0  0  0  0  0  0  0  0
    3.9214    2.0231   -3.0357 H   0  0  0  0  0  0  0  0  0  0  0  0
    3.5161   -0.2617   -2.0525 H   0  0  0  0  0  0  0  0  0  0  0  0
    3.8459    4.5378   -2.6043 H   0  0  0  0  0  0  0  0  0  0  0  0
    5.5153    4.4585   -1.9851 H   0  0  0  0  0  0  0  0  0  0  0  0
    4.2332    5.1675   -0.9662 H   0  0  0  0  0  0  0  0  0  0  0  0
  1 11  1  0  0  0  0
  2 13  1  0  0  0  0
  3 16  1  0  0  0  0
  4 12  1  0  0  0  0
  4 15  1  0  0  0  0
  4 14  1  0  0  0  0
  5  2  1  0  0  0  0
  5  8  2  0  0  0  0
  6 10  2  0  0  0  0
  6 21  1  0  0  0  0
  6  1  1  0  0  0  0
  7  5  2  0  0  0  0
  9  6  2  0  0  0  0
 11 36  1  0  0  0  0
 11 12  1  0  0  0  0
 12 38  1  0  0  0  0
 13 40  1  0  0  0  0
 13 14  1  0  0  0  0
 13 39  1  0  0  0  0
 14 41  1  0  0  0  0
 14 42  1  0  0  0  0
 15 44  1  0  0  0  0
 16 17  1  0  0  0  0
 16 15  1  6  0  0  0
 17 45  1  0  0  0  0
 18 46  1  0  0  0  0
 18 17  2  0  0  0  0
 19 18  1  0  0  0  0
 20 19  2  0  0  0  0
 20  3  1  0  0  0  0
 21 26  1  0  0  0  0
 22 21  2  0  0  0  0
 22 23  1  0  0  0  0
 23 24  2  0  0  0  0
 24 25  1  0  0  0  0
 24 27  1  0  0  0  0
 25 51  1  0  0  0  0
 26 52  1  0  0  0  0
 26 25  2  0  0  0  0
 27 54  1  0  0  0  0
 27 53  1  0  0  0  0
 28  5  1  0  0  0  0
 28 29  1  0  0  0  0
 29 56  1  0  0  0  0
 30 29  2  0  0  0  0
 30 57  1  0  0  0  0
 31 30  1  0  0  0  0
 32 33  1  0  0  0  0
 32 31  2  0  0  0  0
 33 28  2  0  0  0  0
 34 31  1  0  0  0  0
 34 62  1  0  0  0  0
 35 11  1  0  0  0  0
 37 12  1  0  0  0  0
 43 15  1  0  0  0  0
 47 19  1  0  0  0  0
 48 20  1  0  0  0  0
 49 22  1  0  0  0  0
 50 23  1  0  0  0  0
 55 27  1  0  0  0  0
 58 32  1  0  0  0  0
 59 33  1  0  0  0  0
 60 34  1  0  0  0  0
 61 34  1  0  0  0  0
M  END
