1,2,32,33
q = -2.0, confidence = 0.922

 58 60  0  0  1  0  0  0  0  0999 V2000
    1.4276    1.1151   -0.5846 N   0  0  0  0  0  2  0  0  0  0  0  0
   -1.4276   -1.1151   -0.5847 N   0  0  0  0  0  2  0  0  0  0  0  0
    2.6617    0.5958   -0.4338 C   0  0  0  0  0  0  0  0  0  0  0  0
    3.8096    1.0841   -1.1342 C   0  0  0  0  0  0  0  0  0  0  0  0
    3.5971    1.7980   -1.9405 H   0  0  0  0  0  0  0  0  0  0  0  0
    5.1683    0.8069   -0.9554 C   0  0  0  0  0  0  0  0  0  0  0  0
    5.8378    1.3387   -1.6530 H   0  0  0  0  0  0  0  0  0  0  0  0
    5.8068    0.0002   -0.0002 C   0  0  0  0  0  0  0  0  0  0  0  0
   -2.6617   -0.5958   -0.4338 C   0  0  0  0  0  0  0  0  0  0  0  0
   -3.8096   -1.0841   -1.1342 C   0  0  0  0  0  0  0  0  0  0  0  0
   -3.5971   -1.7980   -1.9405 H   0  0  0  0  0  0  0  0  0  0  0  0
   -5.1683   -0.8069   -0.9555 C   0  0  0  0  0  0  0  0  0  0  0  0
   -5.8377   -1.3386   -1.6531 H   0  0  0  0  0  0  0  0  0  0  0  0
   -5.8067   -0.0002   -0.0002 C   0  0  0  0  0  0  0  0  0  0  0  0
    1.2543    2.2485   -1.4895 C   0  0  0  0  0  0  0  0  0  0  0  0
   -0.0101    3.0786   -1.2928 C   0  0  0  0  0  0  0  0  0  0  0  0
   -1.2543   -2.2484   -1.4895 C   0  0  0  0  0  0  0  0  0  0  0  0
    0.0100   -3.0787   -1.2928 C   0  0  0  0  0  0  0  0  0  0  0  0
   -0.0008    3.9023   -0.0003 C   0  0  0  0  0  0  0  0  0  0  0  0
    2.1241    2.9372   -1.3790 H   0  0  0  0  0  0  0  0  0  0  0  0
    1.2895    1.8741   -2.5405 H   0  0  0  0  0  0  0  0  0  0  0  0
   -1.2895   -1.8740   -2.5406 H   0  0  0  0  0  0  0  0  0  0  0  0
   -2.1242   -2.9371   -1.3791 H   0  0  0  0  0  0  0  0  0  0  0  0
    0.0802   -3.7701   -2.1592 H   0  0  0  0  0  0  0  0  0  0  0  0
    0.9041   -2.4250   -1.3377 H   0  0  0  0  0  0  0  0  0  0  0  0
   -6.9076   -0.0001   -0.0005 H   0  0  0  0  0  0  0  0  0  0  0  0
    6.9076    0.0000   -0.0005 H   0  0  0  0  0  0  0  0  0  0  0  0
   -0.9041    2.4248   -1.3377 H   0  0  0  0  0  0  0  0  0  0  0  0
   -0.0803    3.7700   -2.1592 H   0  0  0  0  0  0  0  0  0  0  0  0
   -0.8889    4.5727    0.0089 H   0  0  0  0  0  0  0  0  0  0  0  0
    0.8870    4.5731   -0.0098 H   0  0  0  0  0  0  0  0  0  0  0  0
    1.4279   -1.1147    0.5851 N   0  0  0  0  0  2  0  0  0  0  0  0
   -1.4278    1.1147    0.5851 N   0  0  0  0  0  2  0  0  0  0  0  0
    2.6619   -0.5952    0.4341 C   0  0  2  0  0  3  0  0  0  0  0  0
    5.1685   -0.8063    0.9553 C   0  0  0  0  0  0  0  0  0  0  0  0
   -2.6618    0.5952    0.4341 C   0  0  2  0  0  3  0  0  0  0  0  0
   -5.1685    0.8063    0.9553 C   0  0  0  0  0  0  0  0  0  0  0  0
    0.0006   -3.9023   -0.0003 C   0  0  0  0  0  0  0  0  0  0  0  0
    0.0090    3.0790    1.2924 C   0  0  0  0  0  0  0  0  0  0  0  0
    1.2550   -2.2485    1.4894 C   0  0  0  0  0  0  0  0  0  0  0  0
   -1.2550    2.2484    1.4895 C   0  0  0  0  0  0  0  0  0  0  0  0
    3.8099   -1.0833    1.1345 C   0  0  0  0  0  0  0  0  0  0  0  0
    5.8381   -1.3381    1.6528 H   0  0  0  0  0  0  0  0  0  0  0  0
   -3.8098    1.0832    1.1345 C   0  0  0  0  0  0  0  0  0  0  0  0
   -5.8381    1.3380    1.6528 H   0  0  0  0  0  0  0  0  0  0  0  0
   -0.0091   -3.0790    1.2924 C   0  0  0  0  0  0  0  0  0  0  0  0
   -0.8872   -4.5730   -0.0097 H   0  0  0  0  0  0  0  0  0  0  0  0
    0.8886   -4.5728    0.0090 H   0  0  0  0  0  0  0  0  0  0  0  0
    0.0790    3.7708    2.1586 H   0  0  0  0  0  0  0  0  0  0  0  0
    0.9033    2.4257    1.3375 H   0  0  0  0  0  0  0  0  0  0  0  0
    2.1251   -2.9368    1.3787 H   0  0  0  0  0  0  0  0  0  0  0  0
    1.2900   -1.8745    2.5406 H   0  0  0  0  0  0  0  0  0  0  0  0
   -1.2899    1.8744    2.5407 H   0  0  0  0  0  0  0  0  0  0  0  0
   -2.1252    2.9367    1.3788 H   0  0  0  0  0  0  0  0  0  0  0  0
    3.5974   -1.7969    1.9411 H   0  0  0  0  0  0  0  0  0  0  0  0
   -3.5974    1.7968    1.9411 H   0  0  0  0  0  0  0  0  0  0  0  0
   -0.9033   -2.4255    1.3375 H   0  0  0  0  0  0  0  0  0  0  0  0
   -0.0791   -3.7707    2.1586 H   0  0  0  0  0  0  0  0  0  0  0  0
  1  3  1  0  0  0  0
  2  9  1  0  0  0  0
  4  6  1  0  0  0  0
  4  3  2  0  0  0  0
  5  4  1  0  0  0  0
  6  8  2  0  0  0  0
  7  6  1  0  0  0  0
  8 35  1  0  0  0  0
 10 12  1  0  0  0  0
 10  9  2  0  0  0  0
 11 10  1  0  0  0  0
 12 14  2  0  0  0  0
 13 12  1  0  0  0  0
 14 37  1  0  0  0  0
 15 20  1  0  0  0  0
 15 16  1  0  0  0  0
 15  1  1  0  0  0  0
 16 19  1  0  0  0  0
 17 23  1  0  0  0  0
 17 18  1  0  0  0  0
 17  2  1  0  0  0  0
 18 38  1  0  0  0  0
 19 30  1  0  0  0  0
 19 39  1  0  0  0  0
 21 15  1  0  0  0  0
 22 17  1  0  0  0  0
 24 18  1  0  0  0  0
 25 18  1  0  0  0  0
 26 14  1  0  0  0  0
 27  8  1  0  0  0  0
 28 16  1  0  0  0  0
 29 16  1  0  0  0  0
 31 19  1  0  0  0  0
 32 40  1  0  0  0  0
 33 41  1  0  0  0  0
 34  3  1  1  0  0  0
 34 32  1  0  0  0  0
 34 42  1  0  0  0  0
 35 42  2  0  0  0  0
 35 43  1  0  0  0  0
 36  9  1  1  0  0  0
 36 33  1  0  0  0  0
 36 44  1  0  0  0  0
 37 44  2  0  0  0  0
 37 45  1  0  0  0  0
 38 48  1  0  0  0  0
 38 46  1  0  0  0  0
 39 50  1  0  0  0  0
 39 41  1  0  0  0  0
 39 49  1  0  0  0  0
 40 52  1  0  0  0  0
 41 53  1  0  0  0  0
 42 55  1  0  0  0  0
 44 56  1  0  0  0  0
 46 57  1  0  0  0  0
 46 40  1  0  0  0  0
 46 58  1  0  0  0  0
 47 38  1  0  0  0  0
 51 40  1  0  0  0  0
 54 41  1  0  0  0  0
M  END
