1,2,3,4
q = 0.0, confidence = 0.992

 46 49  0  0  0  0  0  0  0  0999 V2000
    2.3463    0.4559    0.0757 N   0  0  0  0  0  2  0  0  0  0  0  0
   -0.1581    1.0080    1.3434 N   0  0  0  0  0  2  0  0  0  0  0  0
   -1.3857   -0.8548   -0.1339 N   0  0  0  0  0  2  0  0  0  0  0  0
    0.9294   -1.4535    1.1542 N   0  0  0  0  0  0  0  0  0  0  0  0
    2.9457    1.6334   -0.2156 C   0  0  0  0  0  3  0  0  0  0  0  0
    2.3037    2.4235   -0.6300 H   0  0  0  0  0  0  0  0  0  0  0  0
    4.3188    1.8334   -0.0352 C   0  0  0  0  0  0  0  0  0  0  0  0
    4.7544    2.8066   -0.3023 H   0  0  0  0  0  0  0  0  0  0  0  0
    5.1062    0.7923    0.4729 C   0  0  0  0  0  0  0  0  0  0  0  0
    6.1884    0.9206    0.6218 H   0  0  0  0  0  0  0  0  0  0  0  0
    4.4796   -0.4206    0.7964 C   0  0  0  0  0  0  0  0  0  0  0  0
    5.0501   -1.2649    1.2105 H   0  0  0  0  0  0  0  0  0  0  0  0
    3.1045   -0.5597    0.5837 C   0  0  0  0  0  0  0  0  0  0  0  0
    2.3457   -1.8227    0.8893 C   0  0  0  0  0  0  0  0  0  0  0  0
    2.3781   -2.5087    0.0160 H   0  0  0  0  0  0  0  0  0  0  0  0
    2.7927   -2.3653    1.7524 H   0  0  0  0  0  0  0  0  0  0  0  0
   -0.8257    2.1897    1.2980 C   0  0  0  0  0  3  0  0  0  0  0  0
   -0.8318    2.6959    0.3232 H   0  0  0  0  0  0  0  0  0  0  0  0
   -1.4640    2.7272    2.4188 C   0  0  0  0  0  0  0  0  0  0  0  0
   -1.9896    3.6879    2.3237 H   0  0  0  0  0  0  0  0  0  0  0  0
   -1.4357    2.0268    3.6344 C   0  0  0  0  0  0  0  0  0  0  0  0
   -1.9472    2.4169    4.5262 H   0  0  0  0  0  0  0  0  0  0  0  0
   -0.7345    0.8118    3.6847 C   0  0  0  0  0  0  0  0  0  0  0  0
   -0.6719    0.2291    4.6158 H   0  0  0  0  0  0  0  0  0  0  0  0
   -0.0978    0.3413    2.5325 C   0  0  0  0  0  0  0  0  0  0  0  0
    0.7925   -0.8701    2.5200 C   0  0  0  0  0  0  0  0  0  0  0  0
    1.8032   -0.5435    2.8445 H   0  0  0  0  0  0  0  0  0  0  0  0
    0.4565   -1.6374    3.2499 H   0  0  0  0  0  0  0  0  0  0  0  0
   -2.6100   -0.3564   -0.5500 C   0  0  0  0  0  0  0  0  0  0  0  0
   -2.6776    0.8255   -1.3343 C   0  0  0  0  0  0  0  0  0  0  0  0
   -1.7306    1.3009   -1.6185 H   0  0  0  0  0  0  0  0  0  0  0  0
   -3.9029    1.3334   -1.7437 C   0  0  0  0  0  0  0  0  0  0  0  0
   -3.9239    2.2468   -2.3571 H   0  0  0  0  0  0  0  0  0  0  0  0
   -5.1169    0.6890   -1.3925 C   0  0  0  0  0  0  0  0  0  0  0  0
   -6.0791    1.1078   -1.7235 H   0  0  0  0  0  0  0  0  0  0  0  0
   -5.0837   -0.4774   -0.6446 C   0  0  0  0  0  3  0  0  0  0  0  0
   -6.0129   -1.0030   -0.3755 H   0  0  0  0  0  0  0  0  0  0  0  0
   -3.8437   -1.0320   -0.2156 C   0  0  0  0  0  0  0  0  0  0  0  0
   -3.7773   -2.2405    0.5258 C   0  0  0  0  0  0  0  0  0  0  0  0
   -4.7056   -2.7696    0.7898 H   0  0  0  0  0  0  0  0  0  0  0  0
   -2.5401   -2.7316    0.9000 C   0  0  0  0  0  0  0  0  0  0  0  0
   -2.4427   -3.6685    1.4669 H   0  0  0  0  0  0  0  0  0  0  0  0
   -1.3701   -2.0139    0.5531 C   0  0  0  0  0  0  0  0  0  0  0  0
   -0.0161   -2.5627    0.9055 C   0  0  0  0  0  0  0  0  0  0  0  0
   -0.0771   -3.2516    1.7775 H   0  0  0  0  0  0  0  0  0  0  0  0
    0.3656   -3.1525    0.0425 H   0  0  0  0  0  0  0  0  0  0  0  0
  1 13  1  0  0  0  0
  2 25  1  0  0  0  0
  3 43  1  0  0  0  0
  4 26  1  0  0  0  0
  5  7  1  0  0  0  0
  5  1  1  0  0  0  0
  6  5  1  0  0  0  0
  7  9  2  0  0  0  0
  8  7  1  0  0  0  0
  9 10  1  0  0  0  0
  9 11  1  0  0  0  0
 11 12  1  0  0  0  0
 13 11  2  0  0  0  0
 13 14  1  0  0  0  0
 14  4  1  0  0  0  0
 14 16  1  0  0  0  0
 15 14  1  0  0  0  0
 17  2  1  0  0  0  0
 17 19  1  0  0  0  0
 18 17  1  0  0  0  0
 19 21  2  0  0  0  0
 20 19  1  0  0  0  0
 21 23  1  0  0  0  0
 21 22  1  0  0  0  0
 23 24  1  0  0  0  0
 25 23  2  0  0  0  0
 26 25  1  0  0  0  0
 26 27  1  0  0  0  0
 26 28  1  0  0  0  0
 29 38  1  0  0  0  0
 29  3  1  0  0  0  0
 30 29  2  0  0  0  0
 31 30  1  0  0  0  0
 32 34  2  0  0  0  0
 32 30  1  0  0  0  0
 33 32  1  0  0  0  0
 34 36  1  0  0  0  0
 35 34  1  0  0  0  0
 36 37  1  0  0  0  0
 36 38  1  0  0  0  0
 38 39  2  0  0  0  0
 39 40  1  0  0  0  0
 39 41  1  0  0  0  0
 41 42  1  0  0  0  0
 43 41  2  0  0  0  0
 43 44  1  0  0  0  0
 44  4  1  0  0  0  0
 44 45  1  0  0  0  0
 46 44  1  0  0  0  0
M  END
