4,12,23,31
q = 0.0, confidence = 0.992

 38 42  0  0  1  0  0  0  0  0999 V2000
   -1.5803    3.5523   -1.0088 N   0  0  0  0  0  0  0  0  0  0  0  0
   -2.7570    3.0530   -0.5359 N   0  0  0  0  0  0  0  0  0  0  0  0
   -3.6070    3.6111   -0.6040 H   0  0  0  0  0  0  0  0  0  0  0  0
   -1.2902    1.5109   -0.0041 N   0  0  0  0  0  2  0  0  0  0  0  0
   -3.5754    1.2166    0.7855 N   0  0  0  0  0  0  0  0  0  0  0  0
   -4.5341    1.4543    0.5298 H   0  0  0  0  0  0  0  0  0  0  0  0
   -3.5712   -1.2303    0.7780 N   0  0  0  0  0  0  0  0  0  0  0  0
   -4.5287   -1.4697    0.5197 H   0  0  0  0  0  0  0  0  0  0  0  0
   -2.7435   -3.0626   -0.5435 N   0  0  0  0  0  0  0  0  0  0  0  0
   -3.5914   -3.6233   -0.6148 H   0  0  0  0  0  0  0  0  0  0  0  0
   -1.5638   -3.5573   -1.0141 N   0  0  0  0  0  0  0  0  0  0  0  0
   -1.2833   -1.5165   -0.0055 N   0  0  0  0  0  2  0  0  0  0  0  0
   -0.7273    2.6029   -0.6575 C   0  0  0  0  0  0  0  0  0  0  0  0
   -2.5798    1.8503    0.0943 C   0  0  1  0  0  3  0  0  0  0  0  0
   -3.3577   -0.0087    1.5250 C   0  0  0  0  0  0  0  0  0  0  0  0
   -4.0542   -0.0123    2.3877 H   0  0  0  0  0  0  0  0  0  0  0  0
   -2.3135   -0.0081    1.9233 H   0  0  0  0  0  0  0  0  0  0  0  0
   -2.5720   -1.8601    0.0886 C   0  0  2  0  0  3  0  0  0  0  0  0
   -0.7150   -2.6056   -0.6591 C   0  0  0  0  0  0  0  0  0  0  0  0
    1.5803   -3.5523   -1.0088 N   0  0  0  0  0  0  0  0  0  0  0  0
    2.7570   -3.0530   -0.5359 N   0  0  0  0  0  0  0  0  0  0  0  0
    3.6070   -3.6111   -0.6040 H   0  0  0  0  0  0  0  0  0  0  0  0
    1.2902   -1.5109   -0.0041 N   0  0  0  0  0  2  0  0  0  0  0  0
    3.5754   -1.2166    0.7855 N   0  0  0  0  0  0  0  0  0  0  0  0
    4.5341   -1.4543    0.5298 H   0  0  0  0  0  0  0  0  0  0  0  0
    3.5712    1.2303    0.7780 N   0  0  0  0  0  0  0  0  0  0  0  0
    4.5287    1.4697    0.5197 H   0  0  0  0  0  0  0  0  0  0  0  0
    2.7435    3.0625   -0.5435 N   0  0  0  0  0  0  0  0  0  0  0  0
    3.5914    3.6233   -0.6148 H   0  0  0  0  0  0  0  0  0  0  0  0
    1.5638    3.5573   -1.0141 N   0  0  0  0  0  0  0  0  0  0  0  0
    1.2833    1.5165   -0.0055 N   0  0  0  0  0  2  0  0  0  0  0  0
    0.7273   -2.6029   -0.6575 C   0  0  0  0  0  0  0  0  0  0  0  0
    2.5798   -1.8503    0.0943 C   0  0  1  0  0  3  0  0  0  0  0  0
    3.3577    0.0087    1.5250 C   0  0  0  0  0  0  0  0  0  0  0  0
    4.0542    0.0123    2.3877 H   0  0  0  0  0  0  0  0  0  0  0  0
    2.3135    0.0081    1.9233 H   0  0  0  0  0  0  0  0  0  0  0  0
    2.5720    1.8601    0.0887 C   0  0  2  0  0  3  0  0  0  0  0  0
    0.7150    2.6056   -0.6591 C   0  0  0  0  0  0  0  0  0  0  0  0
  1 13  2  0  0  0  0
  1  2  1  0  0  0  0
  2 14  1  0  0  0  0
  3  2  1  0  0  0  0
  5 15  1  0  0  0  0
  6  5  1  0  0  0  0
  7 15  1  0  0  0  0
  8  7  1  0  0  0  0
  9 18  1  0  0  0  0
 10  9  1  0  0  0  0
 11 19  2  0  0  0  0
 11  9  1  0  0  0  0
 13  4  1  0  0  0  0
 14  4  1  1  0  0  0
 14  5  1  0  0  0  0
 15 17  1  0  0  0  0
 15 16  1  0  0  0  0
 18 12  1  1  0  0  0
 18  7  1  0  0  0  0
 19 32  1  0  0  0  0
 19 12  1  0  0  0  0
 20 32  2  0  0  0  0
 20 21  1  0  0  0  0
 21 33  1  0  0  0  0
 22 21  1  0  0  0  0
 24 34  1  0  0  0  0
 25 24  1  0  0  0  0
 26 34  1  0  0  0  0
 27 26  1  0  0  0  0
 28 37  1  0  0  0  0
 29 28  1  0  0  0  0
 30 38  2  0  0  0  0
 30 28  1  0  0  0  0
 32 23  1  0  0  0  0
 33 23  1  1  0  0  0
 33 24  1  0  0  0  0
 34 36  1  0  0  0  0
 34 35  1  0  0  0  0
 37 31  1  1  0  0  0
 37 26  1  0  0  0  0
 38 13  1  0  0  0  0
 38 31  1  0  0  0  0
M  END
