1,2,3,4
q = -1.0, confidence = 0.022

 55 55  0  0  1  0  0  0  0  0999 V2000
    1.1377    1.6740    0.6557 N   0  0  0  0  0  0  0  0  0  0  0  0
    1.3736   -0.6269   -1.4146 N   0  0  0  0  0  0  0  0  0  0  0  0
   -1.1542   -1.5329   -0.5449 N   0  0  0  0  0  0  0  0  0  0  0  0
   -1.3961    1.5510   -0.6717 N   0  0  0  0  0  0  0  0  0  0  0  0
    0.6738    2.8119   -0.1566 C   0  0  0  0  0  0  0  0  0  0  0  0
    2.6051    1.4304    0.7339 C   0  0  2  0  0  0  0  0  0  0  0  0
    3.3863    2.6772    1.1677 C   0  0  0  0  0  0  0  0  0  0  0  0
    3.1744    0.8443   -0.5682 C   0  0  0  0  0  0  0  0  0  0  0  0
    2.8157   -0.6093   -0.9680 C   0  0  0  0  0  0  0  0  0  0  0  0
    3.7287   -1.0170   -2.1397 C   0  0  0  0  0  0  0  0  0  0  0  0
    2.9975   -1.5753    0.2112 C   0  0  0  0  0  0  0  0  0  0  0  0
    0.8416   -1.9240   -1.8876 C   0  0  0  0  0  0  0  0  0  0  0  0
   -0.6817   -1.8899   -1.9095 C   0  0  0  0  0  0  0  0  0  0  0  0
   -2.6104   -1.3090   -0.2534 C   0  0  2  0  0  0  0  0  0  0  0  0
   -3.1419   -2.6345   -0.6055 C   0  0  0  0  0  3  0  0  0  0  0  0
   -3.2107   -0.0973   -0.9643 C   0  0  0  0  0  0  0  0  0  0  0  0
   -2.8595    1.3002   -0.3969 C   0  0  0  0  0  0  0  0  0  0  0  0
   -3.1183    1.3535    1.1178 C   0  0  0  0  0  0  0  0  0  0  0  0
   -3.7275    2.3454   -1.1213 C   0  0  0  0  0  0  0  0  0  0  0  0
   -0.8521    2.8340   -0.1755 C   0  0  0  0  0  0  0  0  0  0  0  0
    0.7831    1.7743    1.6199 H   0  0  0  0  0  0  0  0  0  0  0  0
    1.2982    0.0475   -2.1916 H   0  0  0  0  0  0  0  0  0  0  0  0
   -0.7478   -2.1591    0.2138 H   0  0  0  0  0  0  0  0  0  0  0  0
   -1.2882    1.5406   -1.6974 H   0  0  0  0  0  0  0  0  0  0  0  0
    1.0740    2.6981   -1.1868 H   0  0  0  0  0  0  0  0  0  0  0  0
    1.0480    3.7886    0.2217 H   0  0  0  0  0  0  0  0  0  0  0  0
    2.7091    0.6670    1.5318 H   0  0  0  0  0  0  0  0  0  0  0  0
    3.4236    3.4461    0.3695 H   0  0  0  0  0  0  0  0  0  0  0  0
    2.9391    3.1352    2.0729 H   0  0  0  0  0  0  0  0  0  0  0  0
    4.4311    2.4071    1.4157 H   0  0  0  0  0  0  0  0  0  0  0  0
    4.2780    0.8760   -0.4715 H   0  0  0  0  0  0  0  0  0  0  0  0
    2.9498    1.5232   -1.4220 H   0  0  0  0  0  0  0  0  0  0  0  0
    3.5117   -2.0437   -2.4929 H   0  0  0  0  0  0  0  0  0  0  0  0
    4.7897   -0.9998   -1.8237 H   0  0  0  0  0  0  0  0  0  0  0  0
    3.6243   -0.3205   -2.9979 H   0  0  0  0  0  0  0  0  0  0  0  0
    2.1774   -1.4785    0.9491 H   0  0  0  0  0  0  0  0  0  0  0  0
    3.9603   -1.3768    0.7201 H   0  0  0  0  0  0  0  0  0  0  0  0
    3.0224   -2.6317   -0.1185 H   0  0  0  0  0  0  0  0  0  0  0  0
    1.2255   -2.2043   -2.8917 H   0  0  0  0  0  0  0  0  0  0  0  0
    1.1713   -2.7081   -1.1786 H   0  0  0  0  0  0  0  0  0  0  0  0
   -1.0523   -1.1275   -2.6283 H   0  0  0  0  0  0  0  0  0  0  0  0
   -1.0488   -2.8737   -2.2549 H   0  0  0  0  0  0  0  0  0  0  0  0
   -2.6427   -1.1496    0.8422 H   0  0  0  0  0  0  0  0  0  0  0  0
   -3.4432   -2.8663   -1.6391 H   0  0  0  0  0  0  0  0  0  0  0  0
   -3.0368   -3.4679    0.1050 H   0  0  0  0  0  0  0  0  0  0  0  0
   -2.9793   -0.1292   -2.0526 H   0  0  0  0  0  0  0  0  0  0  0  0
   -4.3119   -0.2087   -0.9013 H   0  0  0  0  0  0  0  0  0  0  0  0
   -4.1113    0.9181    1.3434 H   0  0  0  0  0  0  0  0  0  0  0  0
   -2.3507    0.7937    1.6896 H   0  0  0  0  0  0  0  0  0  0  0  0
   -3.1402    2.3943    1.4946 H   0  0  0  0  0  0  0  0  0  0  0  0
   -3.5731    2.3091   -2.2202 H   0  0  0  0  0  0  0  0  0  0  0  0
   -3.5089    3.3734   -0.7719 H   0  0  0  0  0  0  0  0  0  0  0  0
   -4.8022    2.1588   -0.9295 H   0  0  0  0  0  0  0  0  0  0  0  0
   -1.2025    3.7094   -0.7642 H   0  0  0  0  0  0  0  0  0  0  0  0
   -1.2177    2.9798    0.8600 H   0  0  0  0  0  0  0  0  0  0  0  0
  1  6  1  0  0  0  0
  1 21  1  0  0  0  0
  2  9  1  0  0  0  0
  3 14  1  0  0  0  0
  3 23  1  0  0  0  0
  4 17  1  0  0  0  0
  4 20  1  0  0  0  0
  5 26  1  0  0  0  0
  5  1  1  0  0  0  0
  6  7  1  0  0  0  0
  6 27  1  1  0  0  0
  7 30  1  0  0  0  0
  7 29  1  0  0  0  0
  8 31  1  0  0  0  0
  8  6  1  0  0  0  0
  9  8  1  0  0  0  0
  9 11  1  0  0  0  0
 10 34  1  0  0  0  0
 10  9  1  0  0  0  0
 11 37  1  0  0  0  0
 11 36  1  0  0  0  0
 12  2  1  0  0  0  0
 12 40  1  0  0  0  0
 13 12  1  0  0  0  0
 13  3  1  0  0  0  0
 14 43  1  1  0  0  0
 15 14  1  0  0  0  0
 15 45  1  0  0  0  0
 16 47  1  0  0  0  0
 16 17  1  0  0  0  0
 16 14  1  0  0  0  0
 17 18  1  0  0  0  0
 18 48  1  0  0  0  0
 18 50  1  0  0  0  0
 18 49  1  0  0  0  0
 19 53  1  0  0  0  0
 19 52  1  0  0  0  0
 19 17  1  0  0  0  0
 20  5  1  0  0  0  0
 20 55  1  0  0  0  0
 22  2  1  0  0  0  0
 24  4  1  0  0  0  0
 25  5  1  0  0  0  0
 28  7  1  0  0  0  0
 32  8  1  0  0  0  0
 33 10  1  0  0  0  0
 35 10  1  0  0  0  0
 38 11  1  0  0  0  0
 39 12  1  0  0  0  0
 41 13  1  0  0  0  0
 42 13  1  0  0  0  0
 44 15  1  0  0  0  0
 46 16  1  0  0  0  0
 51 19  1  0  0  0  0
 54 20  1  0  0  0  0
M  END
