3,4,5,6
q = -2.0, confidence = 0.846

 74 77  0  0  1  0  0  0  0  0999 V2000
   -5.2364    2.3006    0.5994 O   0  0  0  0  0  0  0  0  0  0  0  0
    3.9546   -2.8046   -1.7416 O   0  0  0  0  0  0  0  0  0  0  0  0
    1.4687    0.8671   -0.2617 N   0  0  0  0  0  2  0  0  0  0  0  0
   -1.0187    1.7440    0.1663 N   0  0  0  0  0  2  0  0  0  0  0  0
   -1.7608   -0.8604    1.2627 N   0  0  0  0  0  2  0  0  0  0  0  0
    0.6972   -1.7859    0.7664 N   0  0  0  0  0  2  0  0  0  0  0  0
    1.2909    2.2608   -0.3104 C   0  0  0  0  0  0  0  0  0  0  0  0
    2.3349    3.2099   -0.4092 C   0  0  0  0  0  0  0  0  0  0  0  0
    2.0757    4.5839   -0.3358 C   0  0  0  0  0  0  0  0  0  0  0  0
    0.7666    5.0414   -0.1216 C   0  0  0  0  0  0  0  0  0  0  0  0
   -0.2805    4.1228    0.0205 C   0  0  0  0  0  0  0  0  0  0  0  0
   -0.0523    2.7324   -0.0866 C   0  0  0  0  0  0  0  0  0  0  0  0
   -2.3548    1.8534    0.0111 C   0  0  1  0  0  3  0  0  0  0  0  0
   -2.9079    2.9786   -0.8442 C   0  0  0  0  0  0  0  0  0  0  0  0
   -3.2768    0.9020    0.5497 C   0  0  0  0  0  0  0  0  0  0  0  0
   -4.7396    1.1967    0.3590 C   0  0  0  0  0  0  0  0  0  0  0  0
   -5.6101    0.1036   -0.2044 C   0  0  0  0  0  0  0  0  0  0  0  0
   -7.0116    0.2333   -0.0951 C   0  0  0  0  0  0  0  0  0  0  0  0
   -7.8601   -0.7364   -0.6318 C   0  0  0  0  0  0  0  0  0  0  0  0
   -8.2691   -2.8957   -1.8994 C   0  0  0  0  0  0  0  0  0  0  0  0
   -7.3422   -1.8607   -1.3161 C   0  0  0  0  0  0  0  0  0  0  0  0
   -5.9432   -1.9720   -1.4437 C   0  0  0  0  0  0  0  0  0  0  0  0
   -5.0860   -1.0075   -0.8956 C   0  0  0  0  0  0  0  0  0  0  0  0
   -2.9581   -0.2922    1.2969 C   0  0  0  0  0  0  0  0  0  0  0  0
   -4.0071   -0.9098    2.2048 C   0  0  0  0  0  0  0  0  0  0  0  0
   -1.3822   -2.0244    2.0585 C   0  0  0  0  0  0  0  0  0  0  0  0
   -0.2237   -2.7531    1.3676 C   0  0  0  0  0  0  0  0  0  0  0  0
    1.9137   -2.1133    0.3407 C   0  0  1  0  0  3  0  0  0  0  0  0
    2.4112   -3.5095    0.6608 C   0  0  0  0  0  0  0  0  0  0  0  0
    2.2180   -3.7538    1.7243 H   0  0  0  0  0  0  0  0  0  0  0  0
    3.4873   -3.6376    0.4686 H   0  0  0  0  0  0  0  0  0  0  0  0
    1.8780   -4.2640    0.0459 H   0  0  0  0  0  0  0  0  0  0  0  0
    2.7510   -1.2116   -0.4096 C   0  0  0  0  0  0  0  0  0  0  0  0
    4.0027   -1.8272   -0.9909 C   0  0  0  0  0  0  0  0  0  0  0  0
    5.3346   -1.2622   -0.5835 C   0  0  0  0  0  0  0  0  0  0  0  0
    5.4884   -0.4015    0.5221 C   0  0  0  0  0  0  0  0  0  0  0  0
    6.7583    0.0655    0.8873 C   0  0  0  0  0  0  0  0  0  0  0  0
    9.2754    0.1960    0.5441 C   0  0  0  0  0  0  0  0  0  0  0  0
    7.9079   -0.3082    0.1622 C   0  0  0  0  0  0  0  0  0  0  0  0
    7.7459   -1.1808   -0.9392 C   0  0  0  0  0  0  0  0  0  0  0  0
    6.4845   -1.6561   -1.3013 C   0  0  0  0  0  0  0  0  0  0  0  0
    2.5129    0.1583   -0.7384 C   0  0  0  0  0  0  0  0  0  0  0  0
    3.4178    0.7950   -1.7842 C   0  0  0  0  0  0  0  0  0  0  0  0
    3.3736    2.8709   -0.4832 H   0  0  0  0  0  0  0  0  0  0  0  0
    2.9111    5.2965   -0.4043 H   0  0  0  0  0  0  0  0  0  0  0  0
    0.5612    6.1174   -0.0192 H   0  0  0  0  0  0  0  0  0  0  0  0
   -1.2807    4.4884    0.2792 H   0  0  0  0  0  0  0  0  0  0  0  0
   -2.1259    3.3813   -1.5120 H   0  0  0  0  0  0  0  0  0  0  0  0
   -3.3277    3.7997   -0.2324 H   0  0  0  0  0  0  0  0  0  0  0  0
   -3.7444    2.6053   -1.4630 H   0  0  0  0  0  0  0  0  0  0  0  0
   -7.4056    1.1213    0.4218 H   0  0  0  0  0  0  0  0  0  0  0  0
   -8.9516   -0.6261   -0.5270 H   0  0  0  0  0  0  0  0  0  0  0  0
   -8.9332   -3.3254   -1.1206 H   0  0  0  0  0  0  0  0  0  0  0  0
   -7.7121   -3.7278   -2.3711 H   0  0  0  0  0  0  0  0  0  0  0  0
   -8.9319   -2.4498   -2.6706 H   0  0  0  0  0  0  0  0  0  0  0  0
   -5.5192   -2.8295   -1.9901 H   0  0  0  0  0  0  0  0  0  0  0  0
   -3.9966   -1.1054   -1.0192 H   0  0  0  0  0  0  0  0  0  0  0  0
   -4.9267   -0.3050    2.2566 H   0  0  0  0  0  0  0  0  0  0  0  0
   -4.2933   -1.9299    1.8760 H   0  0  0  0  0  0  0  0  0  0  0  0
   -3.6014   -0.9916    3.2346 H   0  0  0  0  0  0  0  0  0  0  0  0
   -2.2272   -2.7308    2.1984 H   0  0  0  0  0  0  0  0  0  0  0  0
   -1.0614   -1.6914    3.0731 H   0  0  0  0  0  0  0  0  0  0  0  0
   -0.6248   -3.4147    0.5650 H   0  0  0  0  0  0  0  0  0  0  0  0
    0.2775   -3.4159    2.1044 H   0  0  0  0  0  0  0  0  0  0  0  0
    4.6009   -0.1055    1.1022 H   0  0  0  0  0  0  0  0  0  0  0  0
    6.8638    0.7335    1.7569 H   0  0  0  0  0  0  0  0  0  0  0  0
    9.9594   -0.6444    0.7859 H   0  0  0  0  0  0  0  0  0  0  0  0
    9.2358    0.8670    1.4234 H   0  0  0  0  0  0  0  0  0  0  0  0
    9.7441    0.7557   -0.2923 H   0  0  0  0  0  0  0  0  0  0  0  0
    8.6327   -1.4889   -1.5165 H   0  0  0  0  0  0  0  0  0  0  0  0
    6.3491   -2.3459   -2.1479 H   0  0  0  0  0  0  0  0  0  0  0  0
    2.8699    1.5860   -2.3295 H   0  0  0  0  0  0  0  0  0  0  0  0
    3.7436    0.0333   -2.5161 H   0  0  0  0  0  0  0  0  0  0  0  0
    4.3373    1.2445   -1.3612 H   0  0  0  0  0  0  0  0  0  0  0  0
  2 34  2  0  0  0  0
  5 24  1  0  0  0  0
  5 26  1  0  0  0  0
  6 27  1  0  0  0  0
  7  3  1  0  0  0  0
  7 12  1  0  0  0  0
  8  9  1  0  0  0  0
  8  7  2  0  0  0  0
  9 10  2  0  0  0  0
 10 46  1  0  0  0  0
 10 11  1  0  0  0  0
 11 47  1  0  0  0  0
 12 11  2  0  0  0  0
 12  4  1  0  0  0  0
 13 14  1  6  0  0  0
 13  4  1  0  0  0  0
 13 15  1  0  0  0  0
 14 49  1  0  0  0  0
 15 24  2  0  0  0  0
 16 15  1  0  0  0  0
 16  1  2  0  0  0  0
 17 18  1  0  0  0  0
 17 16  1  0  0  0  0
 18 51  1  0  0  0  0
 19 52  1  0  0  0  0
 19 18  2  0  0  0  0
 20 21  1  0  0  0  0
 20 53  1  0  0  0  0
 21 19  1  0  0  0  0
 22 21  2  0  0  0  0
 22 23  1  0  0  0  0
 23 17  2  0  0  0  0
 24 25  1  0  0  0  0
 25 58  1  0  0  0  0
 25 60  1  0  0  0  0
 26 61  1  0  0  0  0
 26 62  1  0  0  0  0
 27 26  1  0  0  0  0
 27 64  1  0  0  0  0
 28 29  1  6  0  0  0
 28  6  1  0  0  0  0
 29 30  1  0  0  0  0
 31 29  1  0  0  0  0
 32 29  1  0  0  0  0
 33 28  1  0  0  0  0
 34 35  1  0  0  0  0
 34 33  1  0  0  0  0
 35 36  1  0  0  0  0
 36 37  2  0  0  0  0
 36 65  1  0  0  0  0
 37 66  1  0  0  0  0
 38 67  1  0  0  0  0
 38 68  1  0  0  0  0
 39 38  1  0  0  0  0
 39 37  1  0  0  0  0
 40 39  2  0  0  0  0
 41 40  1  0  0  0  0
 41 35  2  0  0  0  0
 42 33  2  0  0  0  0
 42  3  1  0  0  0  0
 43 74  1  0  0  0  0
 43 42  1  0  0  0  0
 44  8  1  0  0  0  0
 45  9  1  0  0  0  0
 48 14  1  0  0  0  0
 50 14  1  0  0  0  0
 54 20  1  0  0  0  0
 55 20  1  0  0  0  0
 56 22  1  0  0  0  0
 57 23  1  0  0  0  0
 59 25  1  0  0  0  0
 63 27  1  0  0  0  0
 69 38  1  0  0  0  0
 70 40  1  0  0  0  0
 71 41  1  0  0  0  0
 72 43  1  0  0  0  0
 73 43  1  0  0  0  0
M  END
