31,32,33,34
q = 0.0, confidence = 0.998

 34 33  0  0  1  0  0  0  0  0999 V2000
    1.6310   -1.9559    1.2398 C   0  0  0  0  0  0  0  0  0  0  0  0
    2.2754   -1.5315   -0.0865 C   0  0  2  0  0  0  0  0  0  0  0  0
    0.3117   -1.8088   -1.6330 C   0  0  0  0  0  0  0  0  0  0  0  0
   -1.1044   -1.2527   -1.6828 C   0  0  0  0  0  0  0  0  0  0  0  0
   -2.7030   -0.0683   -0.1085 C   0  0  2  0  0  0  0  0  0  0  0  0
   -2.5628    0.5796    1.2710 C   0  0  0  0  0  0  0  0  0  0  0  0
    3.4874   -0.6158    0.0670 C   0  0  0  0  0  0  0  0  0  0  0  0
   -3.9956   -0.8564   -0.2848 C   0  0  0  0  0  0  0  0  0  0  0  0
    1.5394   -0.1002    2.1782 H   0  0  0  0  0  0  0  0  0  0  0  0
    0.7102   -2.0004   -2.6502 H   0  0  0  0  0  0  0  0  0  0  0  0
    0.3189   -2.7811   -1.0978 H   0  0  0  0  0  0  0  0  0  0  0  0
   -1.1309   -0.3176   -2.2757 H   0  0  0  0  0  0  0  0  0  0  0  0
   -1.8063   -1.9859   -2.1342 H   0  0  0  0  0  0  0  0  0  0  0  0
   -2.6312    0.7340   -0.8737 H   0  0  0  0  0  0  0  0  0  0  0  0
   -2.5766   -0.2010    2.0619 H   0  0  0  0  0  0  0  0  0  0  0  0
   -3.4095    1.2674    1.4761 H   0  0  0  0  0  0  0  0  0  0  0  0
    3.2145    0.3566    0.5212 H   0  0  0  0  0  0  0  0  0  0  0  0
    4.2623   -1.1149    0.6800 H   0  0  0  0  0  0  0  0  0  0  0  0
    3.9381   -0.4037   -0.9233 H   0  0  0  0  0  0  0  0  0  0  0  0
    0.3141   -1.1173    2.6111 H   0  0  0  0  0  0  0  0  0  0  0  0
   -4.0616   -1.3040   -1.2953 H   0  0  0  0  0  0  0  0  0  0  0  0
   -4.0822   -1.6699    0.4661 H   0  0  0  0  0  0  0  0  0  0  0  0
   -4.8745   -0.1936   -0.1647 H   0  0  0  0  0  0  0  0  0  0  0  0
    1.6128   -0.1923   -1.5455 H   0  0  0  0  0  0  0  0  0  0  0  0
   -1.5805   -1.7613    0.2625 H   0  0  0  0  0  0  0  0  0  0  0  0
   -1.3028    2.1482    0.7575 H   0  0  0  0  0  0  0  0  0  0  0  0
   -0.9932    1.5581    2.2731 H   0  0  0  0  0  0  0  0  0  0  0  0
    2.4005   -2.3454    1.9388 H   0  0  0  0  0  0  0  0  0  0  0  0
    0.9046   -2.7772    1.0715 H   0  0  0  0  0  0  0  0  0  0  0  0
    2.5906   -2.4542   -0.6235 H   0  0  0  0  0  0  0  0  0  0  0  0
    0.8803   -0.8057    1.8085 N   0  0  0  0  0  0  0  0  0  0  0  0
    1.1916   -0.8606   -0.8811 N   0  0  0  0  0  0  0  0  0  0  0  0
   -1.4682   -0.8942   -0.2894 N   0  0  0  0  0  0  0  0  0  0  0  0
   -1.2564    1.2786    1.3170 N   0  0  0  0  0  0  0  0  0  0  0  0
  1 31  1  0  0  0  0
  1 28  1  0  0  0  0
  2 30  1  6  0  0  0
  2  7  1  0  0  0  0
  2  1  1  0  0  0  0
  3 11  1  0  0  0  0
  3 32  1  0  0  0  0
  4  3  1  0  0  0  0
  4 33  1  0  0  0  0
  5 14  1  6  0  0  0
  5  6  1  0  0  0  0
  6 34  1  0  0  0  0
  6 16  1  0  0  0  0
  6 15  1  0  0  0  0
  7 17  1  0  0  0  0
  7 18  1  0  0  0  0
  8 23  1  0  0  0  0
  8  5  1  0  0  0  0
  8 22  1  0  0  0  0
 10  3  1  0  0  0  0
 12  4  1  0  0  0  0
 13  4  1  0  0  0  0
 19  7  1  0  0  0  0
 21  8  1  0  0  0  0
 24 32  1  0  0  0  0
 26 34  1  0  0  0  0
 29  1  1  0  0  0  0
 31  9  1  0  0  0  0
 31 20  1  0  0  0  0
 32  2  1  0  0  0  0
 33  5  1  0  0  0  0
 33 25  1  0  0  0  0
 34 27  1  0  0  0  0
M  END
