1,2,4,6
q = 0.0, confidence = 0.998

 46 48  0  0  1  0  0  0  0  0999 V2000
   -1.9081   -0.8016   -0.2644 N   0  0  0  0  0  2  0  0  0  0  0  0
   -0.4521    0.6317    1.2993 N   0  0  0  0  0  0  0  0  0  0  0  0
    0.2612    0.6783    2.0420 H   0  0  0  0  0  0  0  0  0  0  0  0
    0.4521    0.6317   -1.2993 N   0  0  0  0  0  0  0  0  0  0  0  0
   -0.2612    0.6782   -2.0420 H   0  0  0  0  0  0  0  0  0  0  0  0
    1.9081   -0.8016    0.2644 N   0  0  0  0  0  2  0  0  0  0  0  0
   -2.5938   -1.2950   -1.3298 C   0  0  0  0  0  3  0  0  0  0  0  0
   -1.9583   -1.7877   -2.0852 H   0  0  0  0  0  0  0  0  0  0  0  0
   -3.9861   -1.2219   -1.4199 C   0  0  0  0  0  0  0  0  0  0  0  0
   -4.4871   -1.6477   -2.3016 H   0  0  0  0  0  0  0  0  0  0  0  0
   -4.7203   -0.6131   -0.3893 C   0  0  0  0  0  0  0  0  0  0  0  0
   -5.8167   -0.5411   -0.4370 H   0  0  0  0  0  0  0  0  0  0  0  0
   -4.0135   -0.0976    0.7095 C   0  0  0  0  0  0  0  0  0  0  0  0
   -4.5366    0.3894    1.5462 H   0  0  0  0  0  0  0  0  0  0  0  0
   -2.6220   -0.2152    0.7492 C   0  0  0  0  0  0  0  0  0  0  0  0
   -1.7609    0.2538    1.8862 C   0  0  0  0  0  0  0  0  0  0  0  0
   -2.2391    1.0784    2.4594 H   0  0  0  0  0  0  0  0  0  0  0  0
   -1.5517   -0.6162    2.5483 H   0  0  0  0  0  0  0  0  0  0  0  0
   -0.5259    1.9141    0.5537 C   0  0  1  0  0  0  0  0  0  0  0  0
   -1.5272    1.9210    0.0664 H   0  0  0  0  0  0  0  0  0  0  0  0
   -0.4027    3.1690    1.4256 C   0  0  0  0  0  0  0  0  0  0  0  0
   -1.1805    3.1626    2.2171 H   0  0  0  0  0  0  0  0  0  0  0  0
    0.5833    3.1480    1.9436 H   0  0  0  0  0  0  0  0  0  0  0  0
   -0.5114    4.4404    0.5718 C   0  0  0  0  0  0  0  0  0  0  0  0
   -1.5376    4.5035    0.1465 H   0  0  0  0  0  0  0  0  0  0  0  0
   -0.3820    5.3402    1.2075 H   0  0  0  0  0  0  0  0  0  0  0  0
    0.5114    4.4404   -0.5718 C   0  0  0  0  0  0  0  0  0  0  0  0
    0.3820    5.3402   -1.2075 H   0  0  0  0  0  0  0  0  0  0  0  0
    1.5376    4.5035   -0.1465 H   0  0  0  0  0  0  0  0  0  0  0  0
    0.4027    3.1690   -1.4256 C   0  0  0  0  0  0  0  0  0  0  0  0
   -0.5833    3.1480   -1.9436 H   0  0  0  0  0  0  0  0  0  0  0  0
    1.1805    3.1626   -2.2171 H   0  0  0  0  0  0  0  0  0  0  0  0
    0.5259    1.9141   -0.5537 C   0  0  2  0  0  0  0  0  0  0  0  0
    1.5272    1.9210   -0.0664 H   0  0  0  0  0  0  0  0  0  0  0  0
    1.7609    0.2538   -1.8862 C   0  0  0  0  0  0  0  0  0  0  0  0
    2.2391    1.0784   -2.4594 H   0  0  0  0  0  0  0  0  0  0  0  0
    1.5517   -0.6162   -2.5483 H   0  0  0  0  0  0  0  0  0  0  0  0
    2.6220   -0.2152   -0.7492 C   0  0  2  0  0  3  0  0  0  0  0  0
    4.0135   -0.0976   -0.7096 C   0  0  0  0  0  0  0  0  0  0  0  0
    4.5366    0.3894   -1.5462 H   0  0  0  0  0  0  0  0  0  0  0  0
    4.7203   -0.6131    0.3893 C   0  0  0  0  0  0  0  0  0  0  0  0
    5.8167   -0.5410    0.4369 H   0  0  0  0  0  0  0  0  0  0  0  0
    3.9861   -1.2218    1.4199 C   0  0  0  0  0  0  0  0  0  0  0  0
    4.4871   -1.6477    2.3016 H   0  0  0  0  0  0  0  0  0  0  0  0
    2.5938   -1.2950    1.3298 C   0  0  0  0  0  0  0  0  0  0  0  0
    1.9583   -1.7877    2.0852 H   0  0  0  0  0  0  0  0  0  0  0  0
  1 15  1  0  0  0  0
  2 16  1  0  0  0  0
  2  3  1  0  0  0  0
  4 33  1  0  0  0  0
  5  4  1  0  0  0  0
  6 45  1  0  0  0  0
  7  1  1  0  0  0  0
  8  7  1  0  0  0  0
  9  7  1  0  0  0  0
  9 11  2  0  0  0  0
 10  9  1  0  0  0  0
 11 13  1  0  0  0  0
 12 11  1  0  0  0  0
 13 15  2  0  0  0  0
 13 14  1  0  0  0  0
 15 16  1  0  0  0  0
 16 17  1  0  0  0  0
 16 18  1  0  0  0  0
 19 20  1  6  0  0  0
 19  2  1  0  0  0  0
 19 21  1  0  0  0  0
 21 23  1  0  0  0  0
 21 22  1  0  0  0  0
 24 26  1  0  0  0  0
 24 21  1  0  0  0  0
 25 24  1  0  0  0  0
 27 29  1  0  0  0  0
 27 24  1  0  0  0  0
 28 27  1  0  0  0  0
 30 27  1  0  0  0  0
 30 33  1  0  0  0  0
 31 30  1  0  0  0  0
 32 30  1  0  0  0  0
 33 34  1  1  0  0  0
 33 19  1  0  0  0  0
 35  4  1  0  0  0  0
 36 35  1  0  0  0  0
 37 35  1  0  0  0  0
 38 35  1  6  0  0  0
 38 39  1  0  0  0  0
 38  6  1  0  0  0  0
 39 41  2  0  0  0  0
 40 39  1  0  0  0  0
 41 42  1  0  0  0  0
 41 43  1  0  0  0  0
 43 44  1  0  0  0  0
 45 43  2  0  0  0  0
 45 46  1  0  0  0  0
M  END
