1,2,3,4
q = 0.0, confidence = 0.998

 64 63  0  0  0  0  0  0  0  0999 V2000
   -0.0002    0.0005    2.1132 N   0  0  0  0  0  0  0  0  0  0  0  0
   -0.0981    2.1642    0.0635 N   0  0  0  0  0  0  0  0  0  0  0  0
   -1.8253   -1.1668    0.0639 N   0  0  0  0  0  0  0  0  0  0  0  0
    1.9239   -0.9974    0.0646 N   0  0  0  0  0  0  0  0  0  0  0  0
   -0.3024    1.3943    2.4591 C   0  0  0  0  0  0  0  0  0  0  0  0
    0.0433    1.6566    3.4882 H   0  0  0  0  0  0  0  0  0  0  0  0
   -1.4037    1.5145    2.4746 H   0  0  0  0  0  0  0  0  0  0  0  0
    0.3098    2.3935    1.4701 C   0  0  0  0  0  0  0  0  0  0  0  0
    0.0501    3.4239    1.8092 H   0  0  0  0  0  0  0  0  0  0  0  0
    1.4163    2.3248    1.5107 H   0  0  0  0  0  0  0  0  0  0  0  0
   -1.4826    2.6255   -0.1443 C   0  0  0  0  0  0  0  0  0  0  0  0
   -1.7948    2.4419   -1.1885 H   0  0  0  0  0  0  0  0  0  0  0  0
   -1.6080    3.7088    0.0796 H   0  0  0  0  0  0  0  0  0  0  0  0
   -2.1697    2.0664    0.5164 H   0  0  0  0  0  0  0  0  0  0  0  0
    0.8635    2.8177   -0.8958 C   0  0  0  0  0  0  0  0  0  0  0  0
    1.8630    2.5185   -0.5193 H   0  0  0  0  0  0  0  0  0  0  0  0
    0.7085    2.2279   -2.2951 C   0  0  0  0  0  0  0  0  0  0  0  0
   -0.2539    2.5096   -2.7681 H   0  0  0  0  0  0  0  0  0  0  0  0
    0.7611    1.1198   -2.2456 H   0  0  0  0  0  0  0  0  0  0  0  0
    1.5170    2.5907   -2.9593 H   0  0  0  0  0  0  0  0  0  0  0  0
   -1.0562   -0.9579    2.4593 C   0  0  0  0  0  0  0  0  0  0  0  0
   -1.4562   -0.7893    3.4884 H   0  0  0  0  0  0  0  0  0  0  0  0
   -0.6099   -1.9718    2.4749 H   0  0  0  0  0  0  0  0  0  0  0  0
   -2.2276   -0.9269    1.4703 C   0  0  0  0  0  0  0  0  0  0  0  0
   -2.9910   -1.6660    1.8098 H   0  0  0  0  0  0  0  0  0  0  0  0
   -2.7201    0.0663    1.5100 H   0  0  0  0  0  0  0  0  0  0  0  0
   -2.8719   -0.6613   -0.8960 C   0  0  0  0  0  0  0  0  0  0  0  0
   -3.1109    0.3550   -0.5215 H   0  0  0  0  0  0  0  0  0  0  0  0
   -2.2838   -0.5049   -2.2959 C   0  0  0  0  0  0  0  0  0  0  0  0
   -3.0017    0.0135   -2.9611 H   0  0  0  0  0  0  0  0  0  0  0  0
   -2.0485   -1.4807   -2.7667 H   0  0  0  0  0  0  0  0  0  0  0  0
   -1.3495    0.0931   -2.2484 H   0  0  0  0  0  0  0  0  0  0  0  0
   -4.1741   -1.4717   -0.9067 C   0  0  0  0  0  0  0  0  0  0  0  0
   -4.5953   -1.6111    0.1087 H   0  0  0  0  0  0  0  0  0  0  0  0
   -4.0428   -2.4698   -1.3698 H   0  0  0  0  0  0  0  0  0  0  0  0
   -4.9362   -0.9351   -1.5046 H   0  0  0  0  0  0  0  0  0  0  0  0
   -1.5330   -2.5968   -0.1425 C   0  0  0  0  0  0  0  0  0  0  0  0
   -2.4086   -3.2466    0.0823 H   0  0  0  0  0  0  0  0  0  0  0  0
   -0.7050   -2.9116    0.5180 H   0  0  0  0  0  0  0  0  0  0  0  0
   -1.2186   -2.7764   -1.1868 H   0  0  0  0  0  0  0  0  0  0  0  0
    1.3578   -0.4348    2.4596 C   0  0  0  0  0  0  0  0  0  0  0  0
    1.4117   -0.8651    3.4888 H   0  0  0  0  0  0  0  0  0  0  0  0
    2.0128    0.4587    2.4750 H   0  0  0  0  0  0  0  0  0  0  0  0
    1.9168   -1.4654    1.4712 C   0  0  0  0  0  0  0  0  0  0  0  0
    2.9384   -1.7567    1.8112 H   0  0  0  0  0  0  0  0  0  0  0  0
    1.3031   -2.3886    1.5112 H   0  0  0  0  0  0  0  0  0  0  0  0
    1.5760   -1.7267   -2.2943 C   0  0  0  0  0  0  0  0  0  0  0  0
    0.5900   -1.2183   -2.2450 H   0  0  0  0  0  0  0  0  0  0  0  0
    1.4863   -2.6080   -2.9590 H   0  0  0  0  0  0  0  0  0  0  0  0
    2.3013   -1.0339   -2.7668 H   0  0  0  0  0  0  0  0  0  0  0  0
    3.3627   -2.8777   -0.9084 C   0  0  0  0  0  0  0  0  0  0  0  0
    3.2788   -3.8061   -1.5061 H   0  0  0  0  0  0  0  0  0  0  0  0
    3.6964   -3.1724    0.1064 H   0  0  0  0  0  0  0  0  0  0  0  0
    4.1598   -2.2641   -1.3730 H   0  0  0  0  0  0  0  0  0  0  0  0
    2.0089   -2.1566   -0.8950 C   0  0  0  0  0  0  0  0  0  0  0  0
    1.2498   -2.8725   -0.5189 H   0  0  0  0  0  0  0  0  0  0  0  0
    3.0162   -0.0294   -0.1418 C   0  0  0  0  0  0  0  0  0  0  0  0
    3.0155    0.3321   -1.1863 H   0  0  0  0  0  0  0  0  0  0  0  0
    4.0166   -0.4625    0.0841 H   0  0  0  0  0  0  0  0  0  0  0  0
    2.8743    0.8456    0.5180 H   0  0  0  0  0  0  0  0  0  0  0  0
    0.8109    4.3506   -0.9089 C   0  0  0  0  0  0  0  0  0  0  0  0
   -0.1190    4.7343   -1.3737 H   0  0  0  0  0  0  0  0  0  0  0  0
    1.6570    4.7424   -1.5062 H   0  0  0  0  0  0  0  0  0  0  0  0
    0.8989    4.7867    0.1060 H   0  0  0  0  0  0  0  0  0  0  0  0
  1  5  1  0  0  0  0
  1 21  1  0  0  0  0
  1 41  1  0  0  0  0
  2  8  1  0  0  0  0
  3 24  1  0  0  0  0
  4 44  1  0  0  0  0
  5  7  1  0  0  0  0
  5  6  1  0  0  0  0
  8 10  1  0  0  0  0
  8  9  1  0  0  0  0
  8  5  1  0  0  0  0
 11  2  1  0  0  0  0
 11 13  1  0  0  0  0
 11 14  1  0  0  0  0
 12 11  1  0  0  0  0
 15 16  1  0  0  0  0
 15  2  1  0  0  0  0
 17 19  1  0  0  0  0
 17 15  1  0  0  0  0
 18 17  1  0  0  0  0
 20 17  1  0  0  0  0
 21 23  1  0  0  0  0
 21 22  1  0  0  0  0
 24 26  1  0  0  0  0
 24 25  1  0  0  0  0
 24 21  1  0  0  0  0
 27 28  1  0  0  0  0
 27  3  1  0  0  0  0
 29 32  1  0  0  0  0
 29 27  1  0  0  0  0
 30 29  1  0  0  0  0
 31 29  1  0  0  0  0
 33 27  1  0  0  0  0
 33 34  1  0  0  0  0
 35 33  1  0  0  0  0
 36 33  1  0  0  0  0
 37  3  1  0  0  0  0
 37 38  1  0  0  0  0
 37 39  1  0  0  0  0
 40 37  1  0  0  0  0
 41 43  1  0  0  0  0
 41 42  1  0  0  0  0
 44 46  1  0  0  0  0
 44 45  1  0  0  0  0
 44 41  1  0  0  0  0
 47 48  1  0  0  0  0
 47 55  1  0  0  0  0
 49 47  1  0  0  0  0
 50 47  1  0  0  0  0
 51 55  1  0  0  0  0
 51 53  1  0  0  0  0
 52 51  1  0  0  0  0
 54 51  1  0  0  0  0
 55 56  1  0  0  0  0
 55  4  1  0  0  0  0
 57  4  1  0  0  0  0
 57 59  1  0  0  0  0
 57 60  1  0  0  0  0
 58 57  1  0  0  0  0
 61 15  1  0  0  0  0
 61 64  1  0  0  0  0
 62 61  1  0  0  0  0
 63 61  1  0  0  0  0
M  END
