51,53,55,57
q = 0.0, confidence = 0.97

 60 64  0  0  1  0  0  0  0  0999 V2000
    3.1704    0.8609    0.4593 C   0  0  2  0  0  0  0  0  0  0  0  0
    4.2726    0.9250    0.5273 H   0  0  0  0  0  0  0  0  0  0  0  0
   -3.3829   -0.2943   -0.2829 C   0  0  2  0  0  0  0  0  0  0  0  0
   -4.4475   -0.5931   -0.2675 H   0  0  0  0  0  0  0  0  0  0  0  0
    3.3698    3.3663    0.7335 C   0  0  0  0  0  3  0  0  0  0  0  0
    4.4583    3.3753    0.6075 H   0  0  0  0  0  0  0  0  0  0  0  0
    2.4577    4.3879    0.9726 C   0  0  0  0  0  0  0  0  0  0  0  0
    2.6734    5.4550    1.0851 H   0  0  0  0  0  0  0  0  0  0  0  0
    1.2024    3.7378    1.0471 C   0  0  0  0  0  0  0  0  0  0  0  0
    0.2089    4.1685    1.2220 H   0  0  0  0  0  0  0  0  0  0  0  0
    3.7898   -0.0017   -1.8374 C   0  0  0  0  0  3  0  0  0  0  0  0
    4.8673    0.0868   -1.6606 H   0  0  0  0  0  0  0  0  0  0  0  0
    3.0653   -0.4694   -2.9291 C   0  0  0  0  0  0  0  0  0  0  0  0
    3.4632   -0.8503   -3.8746 H   0  0  0  0  0  0  0  0  0  0  0  0
    1.7115   -0.3429   -2.5416 C   0  0  0  0  0  0  0  0  0  0  0  0
    0.8025   -0.5983   -3.0981 H   0  0  0  0  0  0  0  0  0  0  0  0
   -4.3727    1.7793   -1.3482 C   0  0  0  0  0  3  0  0  0  0  0  0
   -5.4101    1.4552   -1.2082 H   0  0  0  0  0  0  0  0  0  0  0  0
   -3.8306    2.9198   -1.9302 C   0  0  0  0  0  0  0  0  0  0  0  0
   -4.3746    3.7553   -2.3817 H   0  0  0  0  0  0  0  0  0  0  0  0
   -2.4303    2.7523   -1.8125 C   0  0  0  0  0  0  0  0  0  0  0  0
   -1.6225    3.4184   -2.1392 H   0  0  0  0  0  0  0  0  0  0  0  0
   -3.7370   -0.4375    2.2221 C   0  0  0  0  0  3  0  0  0  0  0  0
   -4.8052   -0.6663    2.1377 H   0  0  0  0  0  0  0  0  0  0  0  0
   -2.9005   -0.3158    3.3271 C   0  0  0  0  0  0  0  0  0  0  0  0
   -3.1750   -0.4250    4.3810 H   0  0  0  0  0  0  0  0  0  0  0  0
   -1.6288   -0.0169    2.7830 C   0  0  0  0  0  0  0  0  0  0  0  0
   -0.6794    0.1725    3.2983 H   0  0  0  0  0  0  0  0  0  0  0  0
    2.6969   -0.1345    1.5267 C   0  0  0  0  0  0  0  0  0  0  0  0
    2.8245    0.3338    2.5318 H   0  0  0  0  0  0  0  0  0  0  0  0
    1.6110   -0.3352    1.3740 H   0  0  0  0  0  0  0  0  0  0  0  0
    2.8260   -2.5107    1.7196 C   0  0  0  0  0  0  0  0  0  0  0  0
    2.3758   -2.4396    2.7364 H   0  0  0  0  0  0  0  0  0  0  0  0
    3.6375   -3.2636    1.7636 H   0  0  0  0  0  0  0  0  0  0  0  0
    1.7821   -2.9128    0.7006 C   0  0  0  0  0  0  0  0  0  0  0  0
    0.4086   -2.8599    1.0001 C   0  0  0  0  0  0  0  0  0  0  0  0
    0.0848   -2.5508    2.0080 H   0  0  0  0  0  0  0  0  0  0  0  0
   -0.5636   -3.2078    0.0436 C   0  0  0  0  0  0  0  0  0  0  0  0
   -0.1437   -3.5970   -1.2427 C   0  0  0  0  0  0  0  0  0  0  0  0
   -0.8986   -3.8734   -1.9950 H   0  0  0  0  0  0  0  0  0  0  0  0
    1.2224   -3.6327   -1.5602 C   0  0  0  0  0  0  0  0  0  0  0  0
    1.5430   -3.9403   -2.5670 H   0  0  0  0  0  0  0  0  0  0  0  0
    2.1809   -3.2933   -0.5959 C   0  0  0  0  0  0  0  0  0  0  0  0
    3.2520   -3.3208   -0.8486 H   0  0  0  0  0  0  0  0  0  0  0  0
   -2.0342   -3.1878    0.4027 C   0  0  0  0  0  0  0  0  0  0  0  0
   -2.4049   -4.2241    0.5452 H   0  0  0  0  0  0  0  0  0  0  0  0
   -2.1773   -2.6585    1.3712 H   0  0  0  0  0  0  0  0  0  0  0  0
   -2.6025   -1.3631   -1.0805 C   0  0  0  0  0  0  0  0  0  0  0  0
   -2.9435   -1.2907   -2.1341 H   0  0  0  0  0  0  0  0  0  0  0  0
   -1.5139   -1.1248   -1.0578 H   0  0  0  0  0  0  0  0  0  0  0  0
    1.3307    2.4125    0.8728 N   0  0  0  0  0  2  0  0  0  0  0  0
    2.6549    2.2002    0.6814 N   0  0  0  0  0  0  0  0  0  0  0  0
    1.6132    0.1610   -1.3008 N   0  0  0  0  0  2  0  0  0  0  0  0
    2.8833    0.3746   -0.8880 N   0  0  0  0  0  0  0  0  0  0  0  0
   -2.1313    1.5912   -1.2081 N   0  0  0  0  0  2  0  0  0  0  0  0
   -3.3220    1.0098   -0.9272 N   0  0  0  0  0  0  0  0  0  0  0  0
   -1.6783    0.0304    1.4415 N   0  0  0  0  0  2  0  0  0  0  0  0
   -2.9655   -0.2219    1.1137 N   0  0  0  0  0  0  0  0  0  0  0  0
    3.4852   -1.2856    1.3732 O   0  0  0  0  0  0  0  0  0  0  0  0
   -2.8825   -2.6600   -0.6249 O   0  0  0  0  0  0  0  0  0  0  0  0
  1  2  1  1  0  0  0
  1 52  1  0  0  0  0
  1 29  1  0  0  0  0
  3  4  1  6  0  0  0
  3 58  1  0  0  0  0
  5  7  1  0  0  0  0
  6  5  1  0  0  0  0
  7  9  2  0  0  0  0
  7  8  1  0  0  0  0
  9 10  1  0  0  0  0
 11 12  1  0  0  0  0
 11 54  1  0  0  0  0
 13 15  2  0  0  0  0
 13 11  1  0  0  0  0
 14 13  1  0  0  0  0
 15 53  1  0  0  0  0
 16 15  1  0  0  0  0
 17 18  1  0  0  0  0
 17 56  1  0  0  0  0
 19 21  2  0  0  0  0
 19 17  1  0  0  0  0
 20 19  1  0  0  0  0
 21 55  1  0  0  0  0
 22 21  1  0  0  0  0
 23 25  1  0  0  0  0
 24 23  1  0  0  0  0
 25 26  1  0  0  0  0
 27 28  1  0  0  0  0
 27 25  2  0  0  0  0
 29 30  1  0  0  0  0
 31 29  1  0  0  0  0
 32 34  1  0  0  0  0
 32 33  1  0  0  0  0
 35 36  1  0  0  0  0
 35 32  1  0  0  0  0
 36 37  1  0  0  0  0
 38 45  1  0  0  0  0
 38 36  2  0  0  0  0
 39 38  1  0  0  0  0
 40 39  1  0  0  0  0
 41 39  2  0  0  0  0
 41 43  1  0  0  0  0
 42 41  1  0  0  0  0
 43 35  2  0  0  0  0
 44 43  1  0  0  0  0
 45 46  1  0  0  0  0
 45 47  1  0  0  0  0
 48 50  1  0  0  0  0
 48 60  1  0  0  0  0
 48  3  1  0  0  0  0
 49 48  1  0  0  0  0
 51  9  1  0  0  0  0
 52  5  1  0  0  0  0
 52 51  1  0  0  0  0
 53 54  1  0  0  0  0
 54  1  1  0  0  0  0
 55 56  1  0  0  0  0
 56  3  1  0  0  0  0
 57 27  1  0  0  0  0
 58 57  1  0  0  0  0
 58 23  1  0  0  0  0
 59 29  1  0  0  0  0
 59 32  1  0  0  0  0
 60 45  1  0  0  0  0
M  END
