1,2,3,4
q = -2.0, confidence = 0.918

 84 88  0  0  1  0  0  0  0  0999 V2000
    1.2661    1.2006   -0.0362 N   0  0  0  0  0  0  0  0  0  0  0  0
   -1.3086    1.1943   -0.2005 N   0  0  0  0  0  2  0  0  0  0  0  0
   -1.6003   -1.2927   -0.4000 N   0  0  0  0  0  2  0  0  0  0  0  0
    1.5873   -1.3008   -0.0810 N   0  0  0  0  0  0  0  0  0  0  0  0
    2.5706    0.8371    0.1646 C   0  0  0  0  0  3  0  0  0  0  0  0
    3.4061    2.0269    0.1979 C   0  0  0  0  0  0  0  0  0  0  0  0
    2.5347    3.1086    0.0410 C   0  0  0  0  0  0  0  0  0  0  0  0
    1.1976    2.5705   -0.0927 C   0  0  0  0  0  0  0  0  0  0  0  0
   -0.0162    3.2560   -0.2034 C   0  0  0  0  0  0  0  0  0  0  0  0
   -0.0177    4.3542   -0.2300 H   0  0  0  0  0  0  0  0  0  0  0  0
   -1.2311    2.5648   -0.2367 C   0  0  0  0  0  0  0  0  0  0  0  0
   -2.5722    3.1032   -0.2895 C   0  0  0  0  0  0  0  0  0  0  0  0
   -3.4585    2.0228   -0.2745 C   0  0  0  0  0  0  0  0  0  0  0  0
   -2.6294    0.8275   -0.2010 C   0  0  0  0  0  0  0  0  0  0  0  0
   -2.7861   -0.5899   -0.2264 C   0  0  0  0  0  0  0  0  0  0  0  0
   -3.9235   -1.4802   -0.2367 C   0  0  0  0  0  0  0  0  0  0  0  0
   -3.4122   -2.7358   -0.5413 C   0  0  0  0  0  0  0  0  0  0  0  0
   -1.9616   -2.6032   -0.6457 C   0  0  1  0  0  3  0  0  0  0  0  0
   -1.2257   -3.7447   -1.0184 C   0  0  0  0  0  0  0  0  0  0  0  0
   -1.9147   -4.5278   -1.3722 H   0  0  0  0  0  0  0  0  0  0  0  0
    0.0862   -4.2247   -0.9941 C   0  0  0  0  0  0  0  0  0  0  0  0
    0.1342   -5.2652   -1.3590 H   0  0  0  0  0  0  0  0  0  0  0  0
    1.3319   -3.8022   -0.5152 C   0  0  0  0  0  3  0  0  0  0  0  0
    2.0439   -4.6417   -0.5061 H   0  0  0  0  0  0  0  0  0  0  0  0
    1.9666   -2.6318   -0.0658 C   0  0  0  0  0  0  0  0  0  0  0  0
    3.3561   -2.7362    0.3779 C   0  0  0  0  0  0  0  0  0  0  0  0
    3.8294   -1.4456    0.5668 C   0  0  0  0  0  0  0  0  0  0  0  0
    2.7234   -0.5756    0.2441 C   0  0  0  0  0  3  0  0  0  0  0  0
    4.9037    2.1358    0.2205 C   0  0  0  0  0  0  0  0  0  0  0  0
    5.1753    3.1874    0.4471 H   0  0  0  0  0  0  0  0  0  0  0  0
    5.3331    1.5396    1.0488 H   0  0  0  0  0  0  0  0  0  0  0  0
    5.5544    1.7283   -1.1124 C   0  0  0  0  0  0  0  0  0  0  0  0
    6.6602    1.8001   -1.0606 H   0  0  0  0  0  0  0  0  0  0  0  0
    5.2050    2.3812   -1.9374 H   0  0  0  0  0  0  0  0  0  0  0  0
    5.2897    0.6876   -1.3894 H   0  0  0  0  0  0  0  0  0  0  0  0
    2.8757    4.5664   -0.0610 C   0  0  0  0  0  0  0  0  0  0  0  0
    2.0851    5.1654    0.4397 H   0  0  0  0  0  0  0  0  0  0  0  0
    3.8087    4.7705    0.5050 H   0  0  0  0  0  0  0  0  0  0  0  0
    3.0404    5.0537   -1.5111 C   0  0  0  0  0  0  0  0  0  0  0  0
    3.2762    6.1369   -1.5480 H   0  0  0  0  0  0  0  0  0  0  0  0
    2.1137    4.8823   -2.0952 H   0  0  0  0  0  0  0  0  0  0  0  0
    3.8577    4.5071   -2.0232 H   0  0  0  0  0  0  0  0  0  0  0  0
   -2.8956    4.5683   -0.3143 C   0  0  0  0  0  0  0  0  0  0  0  0
   -2.1802    5.0931   -0.9835 H   0  0  0  0  0  0  0  0  0  0  0  0
   -3.8979    4.7188   -0.7674 H   0  0  0  0  0  0  0  0  0  0  0  0
   -2.8629    5.2271    1.0764 C   0  0  0  0  0  0  0  0  0  0  0  0
   -3.0986    6.3090    1.0136 H   0  0  0  0  0  0  0  0  0  0  0  0
   -1.8643    5.1190    1.5457 H   0  0  0  0  0  0  0  0  0  0  0  0
   -3.5979    4.7544    1.7583 H   0  0  0  0  0  0  0  0  0  0  0  0
   -4.9515    2.1673   -0.3691 C   0  0  0  0  0  0  0  0  0  0  0  0
   -5.1687    3.0855   -0.9546 H   0  0  0  0  0  0  0  0  0  0  0  0
   -5.3745    1.3403   -0.9733 H   0  0  0  0  0  0  0  0  0  0  0  0
   -5.6739    2.2708    0.9836 C   0  0  0  0  0  0  0  0  0  0  0  0
   -6.7707    2.3661    0.8474 H   0  0  0  0  0  0  0  0  0  0  0  0
   -5.3223    3.1575    1.5480 H   0  0  0  0  0  0  0  0  0  0  0  0
   -5.4849    1.3841    1.6187 H   0  0  0  0  0  0  0  0  0  0  0  0
   -5.3422   -1.2116    0.1775 C   0  0  0  0  0  0  0  0  0  0  0  0
   -5.6630   -0.2017   -0.1272 H   0  0  0  0  0  0  0  0  0  0  0  0
   -6.0158   -1.9138   -0.3567 H   0  0  0  0  0  0  0  0  0  0  0  0
   -5.5468   -1.3724    1.6941 C   0  0  0  0  0  0  0  0  0  0  0  0
   -6.5906   -1.1383    1.9867 H   0  0  0  0  0  0  0  0  0  0  0  0
   -4.8708   -0.6996    2.2597 H   0  0  0  0  0  0  0  0  0  0  0  0
   -5.3221   -2.4077    2.0194 H   0  0  0  0  0  0  0  0  0  0  0  0
   -4.1899   -4.0175   -0.6430 C   0  0  0  0  0  0  0  0  0  0  0  0
   -5.2591   -3.7733   -0.8115 H   0  0  0  0  0  0  0  0  0  0  0  0
   -3.8739   -4.5808   -1.5487 H   0  0  0  0  0  0  0  0  0  0  0  0
   -4.0668   -4.9334    0.5870 C   0  0  0  0  0  0  0  0  0  0  0  0
   -4.6695   -5.8560    0.4617 H   0  0  0  0  0  0  0  0  0  0  0  0
   -4.4169   -4.4181    1.5038 H   0  0  0  0  0  0  0  0  0  0  0  0
   -3.0131   -5.2306    0.7598 H   0  0  0  0  0  0  0  0  0  0  0  0
    4.1498   -4.0018    0.5489 C   0  0  0  0  0  0  0  0  0  0  0  0
    4.8642   -3.8653    1.3880 H   0  0  0  0  0  0  0  0  0  0  0  0
    3.4862   -4.8318    0.8676 H   0  0  0  0  0  0  0  0  0  0  0  0
    4.9270   -4.4113   -0.7141 C   0  0  0  0  0  0  0  0  0  0  0  0
    5.5068   -5.3422   -0.5483 H   0  0  0  0  0  0  0  0  0  0  0  0
    5.6349   -3.6139   -1.0184 H   0  0  0  0  0  0  0  0  0  0  0  0
    4.2405   -4.5808   -1.5682 H   0  0  0  0  0  0  0  0  0  0  0  0
    5.1699   -1.0863    1.1411 C   0  0  0  0  0  0  0  0  0  0  0  0
    5.8244   -1.9805    1.1029 H   0  0  0  0  0  0  0  0  0  0  0  0
    5.6778   -0.3308    0.5115 H   0  0  0  0  0  0  0  0  0  0  0  0
    5.0794   -0.5880    2.5928 C   0  0  0  0  0  0  0  0  0  0  0  0
    6.0783   -0.3096    2.9867 H   0  0  0  0  0  0  0  0  0  0  0  0
    4.6551   -1.3722    3.2515 H   0  0  0  0  0  0  0  0  0  0  0  0
    4.4179    0.2982    2.6741 H   0  0  0  0  0  0  0  0  0  0  0  0
  1  5  1  0  0  0  0
  3 15  1  0  0  0  0
  4 25  2  0  0  0  0
  4 28  1  0  0  0  0
  5  6  1  0  0  0  0
  5 28  1  0  0  0  0
  6 29  1  0  0  0  0
  7  6  2  0  0  0  0
  8  1  2  0  0  0  0
  8  7  1  0  0  0  0
  9  8  1  0  0  0  0
 10  9  1  0  0  0  0
 11  9  2  0  0  0  0
 11  2  1  0  0  0  0
 12 13  2  0  0  0  0
 12 11  1  0  0  0  0
 13 14  1  0  0  0  0
 14  2  1  0  0  0  0
 15 14  2  0  0  0  0
 16 15  1  0  0  0  0
 16 57  1  0  0  0  0
 17 16  2  0  0  0  0
 18 19  1  6  0  0  0
 18 17  1  0  0  0  0
 18  3  1  0  0  0  0
 19 21  2  0  0  0  0
 20 19  1  0  0  0  0
 21 23  1  0  0  0  0
 22 21  1  0  0  0  0
 23 24  1  0  0  0  0
 23 25  1  0  0  0  0
 25 26  1  0  0  0  0
 26 71  1  0  0  0  0
 26 27  2  0  0  0  0
 27 78  1  0  0  0  0
 28 27  1  0  0  0  0
 29 30  1  0  0  0  0
 29 31  1  0  0  0  0
 32 33  1  0  0  0  0
 32 29  1  0  0  0  0
 34 32  1  0  0  0  0
 35 32  1  0  0  0  0
 36  7  1  0  0  0  0
 36 37  1  0  0  0  0
 36 38  1  0  0  0  0
 39 36  1  0  0  0  0
 40 39  1  0  0  0  0
 41 39  1  0  0  0  0
 42 39  1  0  0  0  0
 43 12  1  0  0  0  0
 43 46  1  0  0  0  0
 44 43  1  0  0  0  0
 45 43  1  0  0  0  0
 46 48  1  0  0  0  0
 46 49  1  0  0  0  0
 47 46  1  0  0  0  0
 50 13  1  0  0  0  0
 50 53  1  0  0  0  0
 51 50  1  0  0  0  0
 52 50  1  0  0  0  0
 53 55  1  0  0  0  0
 53 56  1  0  0  0  0
 54 53  1  0  0  0  0
 57 60  1  0  0  0  0
 58 57  1  0  0  0  0
 59 57  1  0  0  0  0
 60 61  1  0  0  0  0
 60 63  1  0  0  0  0
 60 62  1  0  0  0  0
 64 17  1  0  0  0  0
 64 67  1  0  0  0  0
 65 64  1  0  0  0  0
 66 64  1  0  0  0  0
 67 70  1  0  0  0  0
 67 69  1  0  0  0  0
 68 67  1  0  0  0  0
 71 73  1  0  0  0  0
 71 72  1  0  0  0  0
 74 75  1  0  0  0  0
 74 71  1  0  0  0  0
 76 74  1  0  0  0  0
 77 74  1  0  0  0  0
 78 81  1  0  0  0  0
 79 78  1  0  0  0  0
 80 78  1  0  0  0  0
 81 84  1  0  0  0  0
 81 82  1  0  0  0  0
 81 83  1  0  0  0  0
M  END
