1,5,9,16
q = -2.0, confidence = 0.814

 32 32  0  0  1  0  0  0  0  0999 V2000
    1.9549   -2.0646    0.3581 N   0  0  0  0  0  0  0  0  0  0  0  0
    3.3278   -1.5376    0.0768 C   0  0  0  0  0  0  0  0  0  0  0  0
    3.4061    0.0053    0.0802 C   0  0  0  0  0  0  0  0  0  0  0  0
    4.4673    0.6069    0.0906 O   0  0  0  0  0  0  0  0  0  0  0  0
    2.1836    0.6191    0.0343 N   0  0  0  0  0  2  0  0  0  0  0  0
    2.0029    2.0570   -0.0291 C   0  0  0  0  0  0  0  0  0  0  0  0
    0.5242    2.3913   -0.2052 C   0  0  0  0  0  0  0  0  0  0  0  0
    0.0847    3.5457   -0.1902 O   0  0  0  0  0  0  0  0  0  0  0  0
   -0.3094    1.3134   -0.4061 N   0  0  0  0  0  2  0  0  0  0  0  0
   -1.7288    1.5200   -0.7069 C   0  0  2  0  0  0  0  0  0  0  0  0
   -2.5387    1.8604    0.5755 C   0  0  0  0  0  0  0  0  0  0  0  0
   -2.1882    3.0042    1.1637 O   0  0  0  0  0  0  0  0  0  0  0  0
   -3.4097    1.1304    1.0053 O   0  0  0  0  0  0  0  0  0  0  0  0
   -2.3346    0.3352   -1.4753 C   0  0  0  0  0  0  0  0  0  0  0  0
   -2.4011   -0.9377   -0.6949 C   0  0  0  0  0  0  0  0  0  0  0  0
   -1.2873   -1.4871   -0.0726 N   0  0  0  0  0  2  0  0  0  0  0  0
   -1.6700   -2.5965    0.5807 C   0  0  0  0  0  3  0  0  0  0  0  0
   -2.9923   -2.7805    0.3757 N   0  0  0  0  0  0  0  0  0  0  0  0
   -3.4757   -1.7607   -0.4155 C   0  0  0  0  0  0  0  0  0  0  0  0
    1.7572   -2.9085   -0.1983 H   0  0  0  0  0  0  0  0  0  0  0  0
    1.8736   -2.3364    1.3495 H   0  0  0  0  0  0  0  0  0  0  0  0
    3.6431   -1.8841   -0.9271 H   0  0  0  0  0  0  0  0  0  0  0  0
    4.0565   -1.9293    0.8116 H   0  0  0  0  0  0  0  0  0  0  0  0
    2.3683    2.5593    0.8922 H   0  0  0  0  0  0  0  0  0  0  0  0
    2.5660    2.5023   -0.8786 H   0  0  0  0  0  0  0  0  0  0  0  0
   -1.7684    2.4075   -1.3773 H   0  0  0  0  0  0  0  0  0  0  0  0
   -1.4388    3.4371    0.6595 H   0  0  0  0  0  0  0  0  0  0  0  0
   -3.3606    0.6086   -1.7822 H   0  0  0  0  0  0  0  0  0  0  0  0
   -1.7457    0.1834   -2.4055 H   0  0  0  0  0  0  0  0  0  0  0  0
   -1.0421   -3.2506    1.1937 H   0  0  0  0  0  0  0  0  0  0  0  0
   -3.5476   -3.5455    0.7672 H   0  0  0  0  0  0  0  0  0  0  0  0
   -4.5315   -1.6728   -0.6864 H   0  0  0  0  0  0  0  0  0  0  0  0
  1 21  1  0  0  0  0
  2  3  1  0  0  0  0
  2  1  1  0  0  0  0
  2 23  1  0  0  0  0
  3  4  2  0  0  0  0
  5  3  1  0  0  0  0
  6  5  1  0  0  0  0
  6 24  1  0  0  0  0
  7  8  2  0  0  0  0
  7  6  1  0  0  0  0
  9  7  1  0  0  0  0
 10 26  1  6  0  0  0
 10  9  1  0  0  0  0
 10 11  1  0  0  0  0
 11 13  2  0  0  0  0
 11 12  1  0  0  0  0
 14 10  1  0  0  0  0
 14 15  1  0  0  0  0
 15 19  2  0  0  0  0
 15 16  1  0  0  0  0
 16 17  1  0  0  0  0
 17 30  1  0  0  0  0
 18 17  1  0  0  0  0
 18 31  1  0  0  0  0
 19 18  1  0  0  0  0
 20  1  1  0  0  0  0
 22  2  1  0  0  0  0
 25  6  1  0  0  0  0
 27 12  1  0  0  0  0
 28 14  1  0  0  0  0
 29 14  1  0  0  0  0
 32 19  1  0  0  0  0
M  END
