1,2,3,4
q = -2.0, confidence = 0.922

 55 57  0  0  1  0  0  0  0  0999 V2000
    1.5409    1.1762    0.3802 N   0  0  0  0  0  2  0  0  0  0  0  0
    1.4723   -1.3320    0.4521 N   0  0  0  0  0  2  0  0  0  0  0  0
   -1.4871    0.9906    0.6425 N   0  0  0  0  0  2  0  0  0  0  0  0
   -1.2012   -1.1978   -0.4571 N   0  0  0  0  0  2  0  0  0  0  0  0
    2.6949    0.6027   -0.0315 C   0  0  0  0  0  0  0  0  0  0  0  0
    3.7888    1.3561   -0.5599 C   0  0  0  0  0  0  0  0  0  0  0  0
    5.0897    0.9819   -0.9085 C   0  0  0  0  0  0  0  0  0  0  0  0
    5.7435   -0.2523   -0.7689 C   0  0  0  0  0  0  0  0  0  0  0  0
    5.1738   -1.4265   -0.2577 C   0  0  0  0  0  0  0  0  0  0  0  0
    3.8589   -1.6870    0.1441 C   0  0  0  0  0  0  0  0  0  0  0  0
    2.6932   -0.8635    0.1424 C   0  0  1  0  0  3  0  0  0  0  0  0
   -2.6628    0.4878    0.2117 C   0  0  0  0  0  0  0  0  0  0  0  0
   -3.9041    1.1766    0.3505 C   0  0  0  0  0  3  0  0  0  0  0  0
   -5.2115    0.8086    0.0165 C   0  0  0  0  0  0  0  0  0  0  0  0
   -5.6991   -0.3635   -0.5803 C   0  0  0  0  0  0  0  0  0  0  0  0
   -4.9272   -1.4645   -0.9813 C   0  0  0  0  0  0  0  0  0  0  0  0
   -3.5475   -1.6718   -0.8977 C   0  0  0  0  0  0  0  0  0  0  0  0
   -2.4971   -0.8434   -0.4036 C   0  0  0  0  0  0  0  0  0  0  0  0
    1.3660   -2.7017    0.9570 C   0  0  0  0  0  0  0  0  0  0  0  0
   -0.0501   -3.1817    1.2651 C   0  0  0  0  0  0  0  0  0  0  0  0
   -0.8255   -3.5869    0.0086 C   0  0  0  0  0  0  0  0  0  0  0  0
   -0.7974   -2.4664   -1.0390 C   0  0  0  0  0  0  0  0  0  0  0  0
    1.5619    2.6142    0.6101 C   0  0  0  0  0  0  0  0  0  0  0  0
    1.0283    3.5002   -0.5254 C   0  0  0  0  0  0  0  0  0  0  0  0
   -0.4404    3.2854   -0.8991 C   0  0  0  0  0  0  0  0  0  0  0  0
   -1.4326    3.4620    0.2580 C   0  0  0  0  0  0  0  0  0  0  0  0
   -1.4631    2.2970    1.2727 C   0  0  0  0  0  0  0  0  0  0  0  0
    3.5654    2.4129   -0.7577 H   0  0  0  0  0  0  0  0  0  0  0  0
    5.6975    1.7964   -1.3380 H   0  0  0  0  0  0  0  0  0  0  0  0
    6.7999   -0.2979   -1.0752 H   0  0  0  0  0  0  0  0  0  0  0  0
    5.8551   -2.2903   -0.1746 H   0  0  0  0  0  0  0  0  0  0  0  0
    3.6971   -2.7142    0.4946 H   0  0  0  0  0  0  0  0  0  0  0  0
   -3.8296    2.1780    0.7938 H   0  0  0  0  0  0  0  0  0  0  0  0
   -5.9727    1.5696    0.2589 H   0  0  0  0  0  0  0  0  0  0  0  0
   -6.7854   -0.4255   -0.7476 H   0  0  0  0  0  0  0  0  0  0  0  0
   -5.4888   -2.3043   -1.4244 H   0  0  0  0  0  0  0  0  0  0  0  0
   -3.2211   -2.6506   -1.2740 H   0  0  0  0  0  0  0  0  0  0  0  0
    1.8260   -3.4173    0.2337 H   0  0  0  0  0  0  0  0  0  0  0  0
    1.9833   -2.7728    1.8826 H   0  0  0  0  0  0  0  0  0  0  0  0
    0.0202   -4.0491    1.9533 H   0  0  0  0  0  0  0  0  0  0  0  0
   -0.5962   -2.3853    1.8127 H   0  0  0  0  0  0  0  0  0  0  0  0
   -0.3829   -4.5056   -0.4349 H   0  0  0  0  0  0  0  0  0  0  0  0
   -1.8748   -3.8328    0.2765 H   0  0  0  0  0  0  0  0  0  0  0  0
   -1.4308   -2.7226   -1.9145 H   0  0  0  0  0  0  0  0  0  0  0  0
    0.2311   -2.3440   -1.4309 H   0  0  0  0  0  0  0  0  0  0  0  0
    0.9972    2.8272    1.5375 H   0  0  0  0  0  0  0  0  0  0  0  0
    2.6021    2.9243    0.8475 H   0  0  0  0  0  0  0  0  0  0  0  0
    1.1754    4.5577   -0.2104 H   0  0  0  0  0  0  0  0  0  0  0  0
    1.6587    3.3538   -1.4290 H   0  0  0  0  0  0  0  0  0  0  0  0
   -0.7034    3.9994   -1.7074 H   0  0  0  0  0  0  0  0  0  0  0  0
   -0.5713    2.2703   -1.3307 H   0  0  0  0  0  0  0  0  0  0  0  0
   -1.2237    4.4071    0.8073 H   0  0  0  0  0  0  0  0  0  0  0  0
   -2.4500    3.5745   -0.1715 H   0  0  0  0  0  0  0  0  0  0  0  0
   -2.3400    2.4172    1.9456 H   0  0  0  0  0  0  0  0  0  0  0  0
   -0.5892    2.3251    1.9467 H   0  0  0  0  0  0  0  0  0  0  0  0
  1 23  1  0  0  0  0
  2 19  1  0  0  0  0
  3 27  1  0  0  0  0
  4 18  1  0  0  0  0
  5  1  1  0  0  0  0
  6  5  2  0  0  0  0
  7  8  2  0  0  0  0
  7  6  1  0  0  0  0
  8  9  1  0  0  0  0
  9 31  1  0  0  0  0
  9 10  2  0  0  0  0
 10 32  1  0  0  0  0
 11  5  1  1  0  0  0
 11 10  1  0  0  0  0
 11  2  1  0  0  0  0
 12 13  1  0  0  0  0
 12  3  1  0  0  0  0
 13 33  1  0  0  0  0
 14 34  1  0  0  0  0
 14 13  1  0  0  0  0
 15 14  2  0  0  0  0
 16 17  2  0  0  0  0
 16 15  1  0  0  0  0
 17 18  1  0  0  0  0
 18 12  2  0  0  0  0
 19 20  1  0  0  0  0
 19 39  1  0  0  0  0
 20 41  1  0  0  0  0
 20 40  1  0  0  0  0
 21 43  1  0  0  0  0
 21 20  1  0  0  0  0
 22  4  1  0  0  0  0
 22 21  1  0  0  0  0
 23 47  1  0  0  0  0
 23 46  1  0  0  0  0
 24 48  1  0  0  0  0
 24 23  1  0  0  0  0
 25 24  1  0  0  0  0
 25 26  1  0  0  0  0
 26 52  1  0  0  0  0
 26 27  1  0  0  0  0
 27 54  1  0  0  0  0
 27 55  1  0  0  0  0
 28  6  1  0  0  0  0
 29  7  1  0  0  0  0
 30  8  1  0  0  0  0
 35 15  1  0  0  0  0
 36 16  1  0  0  0  0
 37 17  1  0  0  0  0
 38 19  1  0  0  0  0
 42 21  1  0  0  0  0
 44 22  1  0  0  0  0
 45 22  1  0  0  0  0
 49 24  1  0  0  0  0
 50 25  1  0  0  0  0
 51 25  1  0  0  0  0
 53 26  1  0  0  0  0
M  END
