1,12,21,32
q = 0.0, confidence = 0.994

 47 51  0  0  1  0  0  0  0  0999 V2000
   -2.3579   -0.7988    0.3323 N   0  0  0  0  0  2  0  0  0  0  0  0
   -2.7273   -1.8210    1.1251 C   0  0  0  0  0  3  0  0  0  0  0  0
   -1.9084   -2.4128    1.5608 H   0  0  0  0  0  0  0  0  0  0  0  0
   -4.0718   -2.0897    1.4124 C   0  0  0  0  0  0  0  0  0  0  0  0
   -4.3341   -2.9302    2.0698 H   0  0  0  0  0  0  0  0  0  0  0  0
   -5.0549   -1.2569    0.8599 C   0  0  0  0  0  0  0  0  0  0  0  0
   -6.1207   -1.4363    1.0645 H   0  0  0  0  0  0  0  0  0  0  0  0
   -4.6656   -0.1791    0.0547 C   0  0  0  0  0  0  0  0  0  0  0  0
   -5.4149    0.4981   -0.3771 H   0  0  0  0  0  0  0  0  0  0  0  0
   -3.2957    0.0314   -0.1863 C   0  0  0  0  0  0  0  0  0  0  0  0
   -1.3354    2.4728   -1.8834 N   0  0  0  0  0  0  0  0  0  0  0  0
   -1.4793    1.3143   -1.2141 N   0  0  0  0  0  2  0  0  0  0  0  0
   -2.8040    1.1764   -0.9690 C   0  0  2  0  0  3  0  0  0  0  0  0
   -3.5143    2.2762   -1.5130 C   0  0  0  0  0  0  0  0  0  0  0  0
   -4.5901    2.4711   -1.4830 H   0  0  0  0  0  0  0  0  0  0  0  0
   -2.5371    3.0837   -2.0853 C   0  0  0  0  0  0  0  0  0  0  0  0
   -2.6076    4.0398   -2.6153 H   0  0  0  0  0  0  0  0  0  0  0  0
   -0.0149    2.9457   -2.3184 C   0  0  0  0  0  0  0  0  0  0  0  0
   -0.1783    3.8516   -2.9285 H   0  0  0  0  0  0  0  0  0  0  0  0
    0.4169    2.1664   -2.9833 H   0  0  0  0  0  0  0  0  0  0  0  0
    0.5960   -2.1369   -1.2292 N   0  0  0  0  0  2  0  0  0  0  0  0
   -0.2328   -2.9879   -1.8590 C   0  0  0  0  0  3  0  0  0  0  0  0
   -1.2967   -2.7007   -1.8882 H   0  0  0  0  0  0  0  0  0  0  0  0
    0.2130   -4.1783   -2.4458 C   0  0  0  0  0  0  0  0  0  0  0  0
   -0.4986   -4.8451   -2.9523 H   0  0  0  0  0  0  0  0  0  0  0  0
    1.5791   -4.4886   -2.3633 C   0  0  0  0  0  0  0  0  0  0  0  0
    1.9699   -5.4156   -2.8085 H   0  0  0  0  0  0  0  0  0  0  0  0
    2.4427   -3.6076   -1.7027 C   0  0  0  0  0  0  0  0  0  0  0  0
    3.5150   -3.8298   -1.6166 H   0  0  0  0  0  0  0  0  0  0  0  0
    1.9206   -2.4283   -1.1378 C   0  0  0  0  0  0  0  0  0  0  0  0
    3.1363    0.3429    0.7140 N   0  0  0  0  0  0  0  0  0  0  0  0
    2.1739   -0.3774    0.1270 N   0  0  0  0  0  2  0  0  0  0  0  0
    2.7622   -1.4582   -0.4220 C   0  0  1  0  0  3  0  0  0  0  0  0
    4.1581   -1.4210   -0.1690 C   0  0  0  0  0  0  0  0  0  0  0  0
    4.9250   -2.1418   -0.4671 H   0  0  0  0  0  0  0  0  0  0  0  0
    4.3557   -0.2495    0.5596 C   0  0  0  0  0  0  0  0  0  0  0  0
    5.2632    0.1972    0.9798 H   0  0  0  0  0  0  0  0  0  0  0  0
    2.7951    1.5961    1.3955 C   0  0  0  0  0  0  0  0  0  0  0  0
    3.7093    1.9783    1.8829 H   0  0  0  0  0  0  0  0  0  0  0  0
    2.0594    1.3493    2.1920 H   0  0  0  0  0  0  0  0  0  0  0  0
    0.9241    3.2606   -1.2060 C   0  0  0  0  0  0  0  0  0  0  0  0
    1.5947    4.3876   -0.7897 C   0  0  0  0  0  0  0  0  0  0  0  0
    1.4953    5.3968   -1.2043 H   0  0  0  0  0  0  0  0  0  0  0  0
    2.4694    3.9721    0.2723 C   0  0  0  0  0  0  0  0  0  0  0  0
    3.1639    4.6020    0.8385 H   0  0  0  0  0  0  0  0  0  0  0  0
    2.2652    2.6223    0.4447 C   0  0  0  0  0  0  0  0  0  0  0  0
    1.3242    2.1870   -0.4528 O   0  0  0  0  0  0  0  0  0  0  0  0
  1  2  1  0  0  0  0
  2  4  1  0  0  0  0
  2  3  1  0  0  0  0
  4  5  1  0  0  0  0
  6  7  1  0  0  0  0
  6  4  2  0  0  0  0
  8  6  1  0  0  0  0
  9  8  1  0  0  0  0
 10  8  2  0  0  0  0
 10  1  1  0  0  0  0
 11 12  1  0  0  0  0
 12 13  1  0  0  0  0
 13 10  1  1  0  0  0
 14 15  1  0  0  0  0
 14 13  1  0  0  0  0
 16 11  1  0  0  0  0
 16 14  2  0  0  0  0
 17 16  1  0  0  0  0
 18 11  1  0  0  0  0
 18 41  1  0  0  0  0
 19 18  1  0  0  0  0
 20 18  1  0  0  0  0
 21 30  1  0  0  0  0
 22 21  1  0  0  0  0
 23 22  1  0  0  0  0
 24 26  2  0  0  0  0
 24 22  1  0  0  0  0
 25 24  1  0  0  0  0
 26 28  1  0  0  0  0
 27 26  1  0  0  0  0
 28 29  1  0  0  0  0
 28 30  2  0  0  0  0
 31 38  1  0  0  0  0
 32 31  1  0  0  0  0
 33 30  1  1  0  0  0
 33 34  1  0  0  0  0
 33 32  1  0  0  0  0
 34 36  2  0  0  0  0
 35 34  1  0  0  0  0
 36 31  1  0  0  0  0
 36 37  1  0  0  0  0
 38 39  1  0  0  0  0
 38 40  1  0  0  0  0
 41 42  2  0  0  0  0
 41 47  1  0  0  0  0
 42 44  1  0  0  0  0
 43 42  1  0  0  0  0
 44 46  2  0  0  0  0
 44 45  1  0  0  0  0
 46 38  1  0  0  0  0
 47 46  1  0  0  0  0
M  END
