1,3,4,6
q = -2.0, confidence = 0.872

 55 58  0  0  0  0  0  0  0  0999 V2000
   -2.3208    1.2420    0.2051 N   0  0  0  0  0  0  0  0  0  0  0  0
   -0.5199    2.6995    0.3646 N   0  0  0  0  0  2  0  0  0  0  0  0
    0.1001    1.5907    0.0533 N   0  0  0  0  0  2  0  0  0  0  0  0
    0.1001   -1.5907   -0.0535 N   0  0  0  0  0  2  0  0  0  0  0  0
   -0.5199   -2.6994   -0.3649 N   0  0  0  0  0  2  0  0  0  0  0  0
   -2.3208   -1.2420   -0.2051 N   0  0  0  0  0  0  0  0  0  0  0  0
    5.9664    1.7454   -0.9404 Cl  0  0  0  0  0  0  0  0  0  0  0  0
    5.9664   -1.7454    0.9405 Cl  0  0  0  0  0  0  0  0  0  0  0  0
    2.0438    0.9113   -1.2270 C   0  0  0  0  0  0  0  0  0  0  0  0
    1.3833    0.2649   -1.8215 H   0  0  0  0  0  0  0  0  0  0  0  0
    3.4189    0.9355   -1.4715 C   0  0  0  0  0  0  0  0  0  0  0  0
    3.8621    0.3068   -2.2555 H   0  0  0  0  0  0  0  0  0  0  0  0
    4.2429    1.7576   -0.6842 C   0  0  0  0  0  0  0  0  0  0  0  0
    3.6929    2.5833    0.3132 C   0  0  0  0  0  0  0  0  0  0  0  0
    4.3540    3.2273    0.9100 H   0  0  0  0  0  0  0  0  0  0  0  0
    2.3141    2.5621    0.5458 C   0  0  0  0  0  0  0  0  0  0  0  0
    1.8604    3.1908    1.3245 H   0  0  0  0  0  0  0  0  0  0  0  0
    1.4837    1.7055   -0.2060 C   0  0  0  0  0  0  0  0  0  0  0  0
   -1.8458    2.5168    0.4806 C   0  0  0  0  0  3  0  0  0  0  0  0
   -2.9598    3.3638    0.7534 C   0  0  0  0  0  0  0  0  0  0  0  0
   -2.9157    4.4299    1.0004 H   0  0  0  0  0  0  0  0  0  0  0  0
   -4.0982    2.5528    0.6373 C   0  0  0  0  0  0  0  0  0  0  0  0
   -5.1402    2.8674    0.7684 H   0  0  0  0  0  0  0  0  0  0  0  0
   -3.6639    1.2276    0.2894 C   0  0  0  0  0  0  0  0  0  0  0  0
   -4.5036   -0.0001    0.0002 C   0  0  0  0  0  0  0  0  0  0  0  0
   -5.4140    0.2955   -1.2362 C   0  0  0  0  0  0  0  0  0  0  0  0
   -6.0759   -0.5837   -1.3867 H   0  0  0  0  0  0  0  0  0  0  0  0
   -6.0810    1.1426   -0.9696 H   0  0  0  0  0  0  0  0  0  0  0  0
   -4.6473    0.6078   -2.5186 C   0  0  0  0  0  0  0  0  0  0  0  0
   -3.9929   -0.2380   -2.8123 H   0  0  0  0  0  0  0  0  0  0  0  0
   -4.0051    1.5034   -2.3970 H   0  0  0  0  0  0  0  0  0  0  0  0
   -5.3441    0.8031   -3.3577 H   0  0  0  0  0  0  0  0  0  0  0  0
   -5.4131   -0.2958    1.2371 C   0  0  0  0  0  0  0  0  0  0  0  0
   -6.0752    0.5833    1.3881 H   0  0  0  0  0  0  0  0  0  0  0  0
   -6.0802   -1.1431    0.9710 H   0  0  0  0  0  0  0  0  0  0  0  0
   -4.6456   -0.6078    2.5191 C   0  0  0  0  0  0  0  0  0  0  0  0
   -3.9912    0.2381    2.8123 H   0  0  0  0  0  0  0  0  0  0  0  0
   -4.0033   -1.5033    2.3971 H   0  0  0  0  0  0  0  0  0  0  0  0
   -5.3419   -0.8033    3.3586 H   0  0  0  0  0  0  0  0  0  0  0  0
   -3.6639   -1.2276   -0.2894 C   0  0  0  0  0  3  0  0  0  0  0  0
   -4.0982   -2.5527   -0.6376 C   0  0  0  0  0  0  0  0  0  0  0  0
   -5.1402   -2.8674   -0.7687 H   0  0  0  0  0  0  0  0  0  0  0  0
   -2.9598   -3.3637   -0.7538 C   0  0  0  0  0  0  0  0  0  0  0  0
   -2.9156   -4.4297   -1.0010 H   0  0  0  0  0  0  0  0  0  0  0  0
   -1.8458   -2.5168   -0.4809 C   0  0  0  0  0  0  0  0  0  0  0  0
    1.4837   -1.7055    0.2059 C   0  0  0  0  0  0  0  0  0  0  0  0
    2.3141   -2.5620   -0.5459 C   0  0  0  0  0  0  0  0  0  0  0  0
    1.8605   -3.1907   -1.3246 H   0  0  0  0  0  0  0  0  0  0  0  0
    3.6929   -2.5833   -0.3133 C   0  0  0  0  0  0  0  0  0  0  0  0
    4.3541   -3.2273   -0.9100 H   0  0  0  0  0  0  0  0  0  0  0  0
    4.2429   -1.7576    0.6842 C   0  0  0  0  0  0  0  0  0  0  0  0
    3.4189   -0.9355    1.4714 C   0  0  0  0  0  0  0  0  0  0  0  0
    3.8620   -0.3068    2.2555 H   0  0  0  0  0  0  0  0  0  0  0  0
    2.0438   -0.9113    1.2269 C   0  0  0  0  0  0  0  0  0  0  0  0
    1.3833   -0.2649    1.8214 H   0  0  0  0  0  0  0  0  0  0  0  0
  1 24  2  0  0  0  0
  1 19  1  0  0  0  0
  2 19  1  0  0  0  0
  3  2  1  0  0  0  0
  4 46  1  0  0  0  0
  5  4  1  0  0  0  0
  7 13  1  0  0  0  0
  9 18  1  0  0  0  0
 10  9  1  0  0  0  0
 11  9  2  0  0  0  0
 11 13  1  0  0  0  0
 12 11  1  0  0  0  0
 13 14  2  0  0  0  0
 14 16  1  0  0  0  0
 14 15  1  0  0  0  0
 16 17  1  0  0  0  0
 18  3  1  0  0  0  0
 18 16  2  0  0  0  0
 19 20  1  0  0  0  0
 20 21  1  0  0  0  0
 22 20  2  0  0  0  0
 22 23  1  0  0  0  0
 24 22  1  0  0  0  0
 25 24  1  0  0  0  0
 25 33  1  0  0  0  0
 26 28  1  0  0  0  0
 26 25  1  0  0  0  0
 27 26  1  0  0  0  0
 29 31  1  0  0  0  0
 29 26  1  0  0  0  0
 30 29  1  0  0  0  0
 32 29  1  0  0  0  0
 33 34  1  0  0  0  0
 33 36  1  0  0  0  0
 35 33  1  0  0  0  0
 36 37  1  0  0  0  0
 36 39  1  0  0  0  0
 38 36  1  0  0  0  0
 40  6  1  0  0  0  0
 40 25  1  0  0  0  0
 41 40  1  0  0  0  0
 42 41  1  0  0  0  0
 43 41  2  0  0  0  0
 43 45  1  0  0  0  0
 44 43  1  0  0  0  0
 45  5  1  0  0  0  0
 45  6  2  0  0  0  0
 46 54  1  0  0  0  0
 47 49  1  0  0  0  0
 47 46  2  0  0  0  0
 48 47  1  0  0  0  0
 49 51  2  0  0  0  0
 50 49  1  0  0  0  0
 51  8  1  0  0  0  0
 51 52  1  0  0  0  0
 52 53  1  0  0  0  0
 54 52  2  0  0  0  0
 54 55  1  0  0  0  0
M  END
