3,4,5,6
q = -2.0, confidence = 0.952

 68 73  0  0  1  0  0  0  0  0999 V2000
    1.6130    4.3411    0.9888 O   0  0  0  0  0  0  0  0  0  0  0  0
   -1.1081    4.2683    1.5756 O   0  0  0  0  0  0  0  0  0  0  0  0
    1.3538    2.2164    0.0348 N   0  0  0  0  0  2  0  0  0  0  0  0
   -1.1992    2.2408    0.3866 N   0  0  0  0  0  2  0  0  0  0  0  0
   -1.2320   -0.5009    0.0649 N   0  0  0  0  0  2  0  0  0  0  0  0
    1.3364   -0.4585    0.0958 N   0  0  0  0  0  2  0  0  0  0  0  0
    0.9359    3.3660    0.6850 C   0  0  0  0  0  0  0  0  0  0  0  0
   -0.5799    3.3441    0.9687 C   0  0  0  0  0  0  0  0  0  0  0  0
   -2.5456    2.1825    0.1059 C   0  0  0  0  0  0  0  0  0  0  0  0
   -3.3832    3.3364    0.2085 C   0  0  0  0  0  0  0  0  0  0  0  0
   -2.9543    4.2376    0.6583 H   0  0  0  0  0  0  0  0  0  0  0  0
   -4.6915    3.3320   -0.2628 C   0  0  0  0  0  0  0  0  0  0  0  0
   -5.2863    4.2559   -0.1900 H   0  0  0  0  0  0  0  0  0  0  0  0
   -5.2478    2.1748   -0.8443 C   0  0  0  0  0  0  0  0  0  0  0  0
   -6.2703    2.1789   -1.2488 H   0  0  0  0  0  0  0  0  0  0  0  0
   -4.4824    1.0165   -0.8851 C   0  0  0  0  0  3  0  0  0  0  0  0
   -4.9164    0.1089   -1.3229 H   0  0  0  0  0  0  0  0  0  0  0  0
   -3.1488    0.9618   -0.3799 C   0  0  0  0  0  0  0  0  0  0  0  0
   -2.4888   -0.3371   -0.3147 C   0  0  0  0  0  0  0  0  0  0  0  0
   -3.3070   -1.5290   -0.7175 C   0  0  0  0  0  0  0  0  0  0  0  0
   -4.4086   -1.9580    0.0533 C   0  0  0  0  0  0  0  0  0  0  0  0
   -4.6727   -1.4047    0.9670 H   0  0  0  0  0  0  0  0  0  0  0  0
   -5.1462   -3.0852   -0.3325 C   0  0  0  0  0  0  0  0  0  0  0  0
   -5.9967   -3.4177    0.2816 H   0  0  0  0  0  0  0  0  0  0  0  0
   -4.8027   -3.7874   -1.5002 C   0  0  0  0  0  0  0  0  0  0  0  0
   -5.3835   -4.6715   -1.8034 H   0  0  0  0  0  0  0  0  0  0  0  0
   -3.7244   -3.3506   -2.2853 C   0  0  0  0  0  0  0  0  0  0  0  0
   -3.4634   -3.8852   -3.2112 H   0  0  0  0  0  0  0  0  0  0  0  0
   -2.9800   -2.2261   -1.8970 C   0  0  0  0  0  0  0  0  0  0  0  0
   -2.1429   -1.8746   -2.5192 H   0  0  0  0  0  0  0  0  0  0  0  0
   -0.6152   -1.8479    0.2439 C   0  0  2  0  0  0  0  0  0  0  0  0
   -0.4725   -2.2872   -0.7678 H   0  0  0  0  0  0  0  0  0  0  0  0
   -1.3478   -2.8781    1.1256 C   0  0  0  0  0  0  0  0  0  0  0  0
   -2.3401   -3.1265    0.7156 H   0  0  0  0  0  0  0  0  0  0  0  0
   -0.7509   -3.8145    1.0553 H   0  0  0  0  0  0  0  0  0  0  0  0
   -1.4356   -2.4562    2.5937 C   0  0  0  0  0  0  0  0  0  0  0  0
   -1.9901   -3.2228    3.1727 H   0  0  0  0  0  0  0  0  0  0  0  0
   -2.0189   -1.5127    2.6778 H   0  0  0  0  0  0  0  0  0  0  0  0
   -0.0312   -2.2503    3.1701 C   0  0  0  0  0  0  0  0  0  0  0  0
    0.5085   -3.2238    3.1741 H   0  0  0  0  0  0  0  0  0  0  0  0
   -0.0776   -1.9122    4.2257 H   0  0  0  0  0  0  0  0  0  0  0  0
    0.7437   -1.2291    2.3365 C   0  0  0  0  0  0  0  0  0  0  0  0
    0.2667   -0.2293    2.4354 H   0  0  0  0  0  0  0  0  0  0  0  0
    1.7886   -1.1163    2.6926 H   0  0  0  0  0  0  0  0  0  0  0  0
    0.7802   -1.5891    0.8347 C   0  0  2  0  0  0  0  0  0  0  0  0
    1.3930   -2.5035    0.7008 H   0  0  0  0  0  0  0  0  0  0  0  0
    2.5887   -0.4095   -0.3019 C   0  0  0  0  0  0  0  0  0  0  0  0
    3.4476   -1.6329   -0.1947 C   0  0  0  0  0  0  0  0  0  0  0  0
    3.2432   -2.7282   -1.0594 C   0  0  0  0  0  0  0  0  0  0  0  0
    2.4568   -2.6691   -1.8277 H   0  0  0  0  0  0  0  0  0  0  0  0
    4.0422   -3.8757   -0.9490 C   0  0  0  0  0  0  0  0  0  0  0  0
    3.8808   -4.7222   -1.6335 H   0  0  0  0  0  0  0  0  0  0  0  0
    5.0467   -3.9427    0.0298 C   0  0  0  0  0  0  0  0  0  0  0  0
    5.6717   -4.8441    0.1174 H   0  0  0  0  0  0  0  0  0  0  0  0
    5.2565   -2.8543    0.8918 C   0  0  0  0  0  0  0  0  0  0  0  0
    6.0454   -2.9008    1.6576 H   0  0  0  0  0  0  0  0  0  0  0  0
    4.4666   -1.7010    0.7767 C   0  0  0  0  0  0  0  0  0  0  0  0
    4.6359   -0.8396    1.4402 H   0  0  0  0  0  0  0  0  0  0  0  0
    3.1854    0.8125   -0.8144 C   0  0  0  0  0  0  0  0  0  0  0  0
    4.4299    0.7318   -1.4987 C   0  0  0  0  0  3  0  0  0  0  0  0
    4.8617   -0.2619   -1.6841 H   0  0  0  0  0  0  0  0  0  0  0  0
    5.0971    1.8690   -1.9392 C   0  0  0  0  0  0  0  0  0  0  0  0
    6.0521    1.7815   -2.4771 H   0  0  0  0  0  0  0  0  0  0  0  0
    4.5287    3.1329   -1.6762 C   0  0  0  0  0  0  0  0  0  0  0  0
    5.0445    4.0477   -2.0072 H   0  0  0  0  0  0  0  0  0  0  0  0
    3.3153    3.2514   -1.0038 C   0  0  0  0  0  0  0  0  0  0  0  0
    2.8984    4.2399   -0.7843 H   0  0  0  0  0  0  0  0  0  0  0  0
    2.5879    2.1019   -0.5748 C   0  0  0  0  0  0  0  0  0  0  0  0
  3  7  1  0  0  0  0
  4  8  1  0  0  0  0
  5 31  1  0  0  0  0
  6 45  1  0  0  0  0
  7  8  1  0  0  0  0
  7  1  2  0  0  0  0
  8  2  2  0  0  0  0
  9 10  2  0  0  0  0
  9  4  1  0  0  0  0
 10 11  1  0  0  0  0
 12 13  1  0  0  0  0
 12 10  1  0  0  0  0
 14 12  2  0  0  0  0
 15 14  1  0  0  0  0
 16 14  1  0  0  0  0
 16 18  1  0  0  0  0
 17 16  1  0  0  0  0
 18 19  2  0  0  0  0
 18  9  1  0  0  0  0
 19  5  1  0  0  0  0
 20 19  1  0  0  0  0
 20 21  1  0  0  0  0
 21 22  1  0  0  0  0
 23 21  2  0  0  0  0
 23 24  1  0  0  0  0
 25 23  1  0  0  0  0
 26 25  1  0  0  0  0
 27 29  1  0  0  0  0
 27 25  2  0  0  0  0
 28 27  1  0  0  0  0
 29 20  2  0  0  0  0
 30 29  1  0  0  0  0
 31 32  1  6  0  0  0
 31 45  1  0  0  0  0
 31 33  1  0  0  0  0
 33 36  1  0  0  0  0
 34 33  1  0  0  0  0
 35 33  1  0  0  0  0
 36 38  1  0  0  0  0
 36 39  1  0  0  0  0
 36 37  1  0  0  0  0
 39 40  1  0  0  0  0
 39 41  1  0  0  0  0
 42 43  1  0  0  0  0
 42 44  1  0  0  0  0
 42 39  1  0  0  0  0
 45 46  1  6  0  0  0
 45 42  1  0  0  0  0
 47 48  1  0  0  0  0
 47  6  1  0  0  0  0
 48 57  1  0  0  0  0
 49 51  1  0  0  0  0
 49 48  2  0  0  0  0
 50 49  1  0  0  0  0
 51 53  2  0  0  0  0
 52 51  1  0  0  0  0
 53 54  1  0  0  0  0
 53 55  1  0  0  0  0
 55 56  1  0  0  0  0
 57 55  2  0  0  0  0
 57 58  1  0  0  0  0
 59 68  1  0  0  0  0
 59 47  2  0  0  0  0
 60 59  1  0  0  0  0
 61 60  1  0  0  0  0
 62 64  2  0  0  0  0
 62 60  1  0  0  0  0
 63 62  1  0  0  0  0
 64 66  1  0  0  0  0
 65 64  1  0  0  0  0
 66 67  1  0  0  0  0
 66 68  2  0  0  0  0
 68  3  1  0  0  0  0
M  END
