4,5,6,7
q = -1.0, confidence = 0.114

 64 71  0  0  1  0  0  0  0  0999 V2000
   -9.4118   -1.7294    0.0447 Cl  0  0  0  0  0  0  0  0  0  0  0  0
    0.0001    8.4047   -0.0002 Cl  0  0  0  0  0  0  0  0  0  0  0  0
    9.4118   -1.7294   -0.0429 Cl  0  0  0  0  0  0  0  0  0  0  0  0
   -1.2363   -2.3809   -0.2153 N   0  0  0  0  0  2  0  0  0  0  0  0
   -1.4409    0.3283    0.1315 N   0  0  0  0  0  0  0  0  0  0  0  0
    1.4409    0.3282   -0.1316 N   0  0  0  0  0  2  0  0  0  0  0  0
    1.2362   -2.3810    0.2140 N   0  0  0  0  0  0  0  0  0  0  0  0
    0.7153   -3.6330    0.0203 C   0  0  0  0  0  0  0  0  0  0  0  0
   -2.7812    0.0456   -0.0873 C   0  0  0  0  0  0  0  0  0  0  0  0
   -3.4629    1.2788   -0.3981 C   0  0  0  0  0  0  0  0  0  0  0  0
   -4.5273    1.3622   -0.6426 H   0  0  0  0  0  0  0  0  0  0  0  0
   -2.9720   -3.8138    0.1160 C   0  0  0  0  0  0  0  0  0  0  0  0
   -3.9910   -4.1803    0.2842 H   0  0  0  0  0  0  0  0  0  0  0  0
   -0.7154   -3.6330   -0.0221 C   0  0  1  0  0  3  0  0  0  0  0  0
    0.0001    2.3544   -0.0001 C   0  0  0  0  0  0  0  0  0  0  0  0
    0.7956    4.5663   -0.9158 C   0  0  0  0  0  0  0  0  0  0  0  0
    1.4077    4.0184   -1.6471 H   0  0  0  0  0  0  0  0  0  0  0  0
    1.7947   -4.5593   -0.1490 C   0  0  0  0  0  0  0  0  0  0  0  0
    1.6990   -5.6405   -0.3016 H   0  0  0  0  0  0  0  0  0  0  0  0
    5.6351   -0.6120   -0.8740 C   0  0  0  0  0  0  0  0  0  0  0  0
    5.1262    0.0512   -1.5889 H   0  0  0  0  0  0  0  0  0  0  0  0
    4.8610   -1.3597    0.0448 C   0  0  0  0  0  0  0  0  0  0  0  0
   -1.2524    1.6880   -0.0653 C   0  0  0  0  0  3  0  0  0  0  0  0
    3.4629    1.2787    0.3983 C   0  0  0  0  0  0  0  0  0  0  0  0
    4.5273    1.3620    0.6430 H   0  0  0  0  0  0  0  0  0  0  0  0
    5.5385   -2.2247    0.9365 C   0  0  0  0  0  0  0  0  0  0  0  0
    4.9574   -2.7951    1.6756 H   0  0  0  0  0  0  0  0  0  0  0  0
    1.2524    1.6880    0.0652 C   0  0  0  0  0  0  0  0  0  0  0  0
    6.9331   -2.3412    0.9166 C   0  0  0  0  0  0  0  0  0  0  0  0
    7.4539   -3.0041    1.6216 H   0  0  0  0  0  0  0  0  0  0  0  0
   -5.5388   -2.2244   -0.9360 C   0  0  0  0  0  0  0  0  0  0  0  0
   -4.9579   -2.7948   -1.6753 H   0  0  0  0  0  0  0  0  0  0  0  0
    0.0001    3.8392   -0.0001 C   0  0  0  0  0  0  0  0  0  0  0  0
   -4.8610   -1.3596   -0.0445 C   0  0  0  0  0  0  0  0  0  0  0  0
   -6.9334   -2.3410   -0.9157 C   0  0  0  0  0  0  0  0  0  0  0  0
   -7.4544   -3.0037   -1.6207 H   0  0  0  0  0  0  0  0  0  0  0  0
    7.0293   -0.7226   -0.9086 C   0  0  0  0  0  0  0  0  0  0  0  0
    7.6232   -0.1489   -1.6338 H   0  0  0  0  0  0  0  0  0  0  0  0
   -2.6061   -2.4297   -0.0818 C   0  0  0  0  0  0  0  0  0  0  0  0
   -7.0291   -0.7227    0.9098 C   0  0  0  0  0  0  0  0  0  0  0  0
   -7.6228   -0.1491    1.6352 H   0  0  0  0  0  0  0  0  0  0  0  0
   -0.7954    4.5663    0.9155 C   0  0  0  0  0  0  0  0  0  0  0  0
   -1.4077    4.0185    1.6469 H   0  0  0  0  0  0  0  0  0  0  0  0
    2.9719   -3.8139   -0.1170 C   0  0  0  0  0  0  0  0  0  0  0  0
    3.9909   -4.1804   -0.2850 H   0  0  0  0  0  0  0  0  0  0  0  0
   -2.5231    2.2907   -0.3842 C   0  0  0  0  0  0  0  0  0  0  0  0
   -2.6768    3.3477   -0.6259 H   0  0  0  0  0  0  0  0  0  0  0  0
    2.7812    0.0455    0.0874 C   0  0  0  0  0  0  0  0  0  0  0  0
   -5.6348   -0.6120    0.8747 C   0  0  0  0  0  0  0  0  0  0  0  0
   -5.1258    0.0510    1.5896 H   0  0  0  0  0  0  0  0  0  0  0  0
    2.5232    2.2906    0.3842 C   0  0  0  0  0  0  0  0  0  0  0  0
    2.6769    3.3476    0.6260 H   0  0  0  0  0  0  0  0  0  0  0  0
    0.0001    6.6614   -0.0002 C   0  0  0  0  0  0  0  0  0  0  0  0
   -1.7948   -4.5593    0.1473 C   0  0  0  0  0  0  0  0  0  0  0  0
   -1.6991   -5.6406    0.2995 H   0  0  0  0  0  0  0  0  0  0  0  0
   -0.7976    5.9659    0.9240 C   0  0  0  0  0  0  0  0  0  0  0  0
   -1.4073    6.5252    1.6473 H   0  0  0  0  0  0  0  0  0  0  0  0
    3.3847   -1.2510    0.0643 C   0  0  0  0  0  0  0  0  0  0  0  0
    0.7977    5.9659   -0.9243 C   0  0  0  0  0  0  0  0  0  0  0  0
    1.4074    6.5251   -1.6477 H   0  0  0  0  0  0  0  0  0  0  0  0
    7.6745   -1.5889   -0.0097 C   0  0  0  0  0  0  0  0  0  0  0  0
   -7.6745   -1.5888    0.0109 C   0  0  0  0  0  0  0  0  0  0  0  0
   -3.3848   -1.2509   -0.0644 C   0  0  0  0  0  0  0  0  0  0  0  0
    2.6060   -2.4298    0.0811 C   0  0  0  0  0  3  0  0  0  0  0  0
  2 53  1  0  0  0  0
  3 61  1  0  0  0  0
  4 39  1  0  0  0  0
  6 28  1  0  0  0  0
  6 48  1  0  0  0  0
  8  7  2  0  0  0  0
  9 63  1  0  0  0  0
  9  5  2  0  0  0  0
 10 46  2  0  0  0  0
 10  9  1  0  0  0  0
 11 10  1  0  0  0  0
 12 54  2  0  0  0  0
 12 13  1  0  0  0  0
 14  4  1  1  0  0  0
 14  8  1  0  0  0  0
 14 54  1  0  0  0  0
 15 28  2  0  0  0  0
 16 33  1  0  0  0  0
 17 16  1  0  0  0  0
 18 44  2  0  0  0  0
 18  8  1  0  0  0  0
 19 18  1  0  0  0  0
 20 22  1  0  0  0  0
 21 20  1  0  0  0  0
 22 58  1  0  0  0  0
 22 26  2  0  0  0  0
 23 15  1  0  0  0  0
 23  5  1  0  0  0  0
 24 25  1  0  0  0  0
 26 27  1  0  0  0  0
 28 51  1  0  0  0  0
 29 26  1  0  0  0  0
 29 30  1  0  0  0  0
 31 35  2  0  0  0  0
 31 34  1  0  0  0  0
 32 31  1  0  0  0  0
 33 15  1  0  0  0  0
 33 42  2  0  0  0  0
 34 49  2  0  0  0  0
 35 62  1  0  0  0  0
 36 35  1  0  0  0  0
 37 20  2  0  0  0  0
 37 61  1  0  0  0  0
 38 37  1  0  0  0  0
 39 63  2  0  0  0  0
 39 12  1  0  0  0  0
 40 41  1  0  0  0  0
 42 56  1  0  0  0  0
 42 43  1  0  0  0  0
 44 64  1  0  0  0  0
 45 44  1  0  0  0  0
 46 23  1  0  0  0  0
 47 46  1  0  0  0  0
 48 24  1  0  0  0  0
 49 40  1  0  0  0  0
 49 50  1  0  0  0  0
 51 24  2  0  0  0  0
 51 52  1  0  0  0  0
 53 56  2  0  0  0  0
 54 55  1  0  0  0  0
 56 57  1  0  0  0  0
 58 64  1  0  0  0  0
 58 48  2  0  0  0  0
 59 16  2  0  0  0  0
 59 53  1  0  0  0  0
 60 59  1  0  0  0  0
 61 29  2  0  0  0  0
 62  1  1  0  0  0  0
 62 40  2  0  0  0  0
 63 34  1  0  0  0  0
 64  7  1  0  0  0  0
M  END
