3,4,5,6
q = -2.0, confidence = 0.944

 41 40  0  0  1  0  0  0  0  0999 V2000
    1.1953   -2.7022   -0.0011 O   0  0  0  0  0  1  0  0  0  0  0  0
   -1.1956   -2.7024    0.0015 O   0  0  0  0  0  0  0  0  0  0  0  0
   -1.3905    1.1027   -0.0003 N   0  0  0  0  0  2  0  0  0  0  0  0
    1.3905    1.1026    0.0006 N   0  0  0  0  0  2  0  0  0  0  0  0
    1.3859   -1.3991    0.0000 N   0  0  0  0  0  2  0  0  0  0  0  0
   -1.3859   -1.3990    0.0004 N   0  0  0  0  0  2  0  0  0  0  0  0
   -2.6194   -0.9547   -0.0006 C   0  0  1  0  0  3  0  0  0  0  0  0
    2.6194   -0.9548    0.0009 C   0  0  1  0  0  3  0  0  0  0  0  0
    3.7621   -1.9158    0.0001 C   0  0  0  0  0  0  0  0  0  0  0  0
   -3.7622   -1.9156   -0.0001 C   0  0  0  0  0  0  0  0  0  0  0  0
   -2.7677    0.5492   -0.0005 C   0  0  0  0  0  0  0  0  0  0  0  0
    2.7678    0.5491    0.0001 C   0  0  0  0  0  0  0  0  0  0  0  0
   -3.5235    0.9898    1.2731 C   0  0  0  0  0  0  0  0  0  0  0  0
   -3.5232    0.9907   -1.2737 C   0  0  0  0  0  0  0  0  0  0  0  0
    3.5243    0.9913    1.2726 C   0  0  0  0  0  0  0  0  0  0  0  0
    3.5225    0.9891   -1.2742 C   0  0  0  0  0  0  0  0  0  0  0  0
   -1.2330    2.4231    0.0001 C   0  0  0  0  0  3  0  0  0  0  0  0
    0.0001    3.0928    0.0004 C   0  0  0  0  0  0  0  0  0  0  0  0
    1.2331    2.4230    0.0005 C   0  0  0  0  0  0  0  0  0  0  0  0
   -0.0005   -2.8153    0.0002 H   0  0  0  0  0  0  0  0  0  0  0  0
    3.7072   -2.5785   -0.8895 H   0  0  0  0  0  0  0  0  0  0  0  0
    3.6960   -2.5919    0.8787 H   0  0  0  0  0  0  0  0  0  0  0  0
    4.7410   -1.4026    0.0097 H   0  0  0  0  0  0  0  0  0  0  0  0
   -4.7410   -1.4024   -0.0078 H   0  0  0  0  0  0  0  0  0  0  0  0
   -3.7062   -2.5798    0.8884 H   0  0  0  0  0  0  0  0  0  0  0  0
   -3.6971   -2.5903   -0.8799 H   0  0  0  0  0  0  0  0  0  0  0  0
   -4.5236    0.5163    1.3267 H   0  0  0  0  0  0  0  0  0  0  0  0
   -3.6713    2.0881    1.2868 H   0  0  0  0  0  0  0  0  0  0  0  0
   -2.9458    0.7016    2.1729 H   0  0  0  0  0  0  0  0  0  0  0  0
   -2.9457    0.7028   -2.1737 H   0  0  0  0  0  0  0  0  0  0  0  0
   -4.5236    0.5178   -1.3276 H   0  0  0  0  0  0  0  0  0  0  0  0
   -3.6707    2.0890   -1.2869 H   0  0  0  0  0  0  0  0  0  0  0  0
    4.5247    0.5183    1.3259 H   0  0  0  0  0  0  0  0  0  0  0  0
    3.6718    2.0896    1.2851 H   0  0  0  0  0  0  0  0  0  0  0  0
    2.9475    0.7038    2.1732 H   0  0  0  0  0  0  0  0  0  0  0  0
    4.5226    0.5156   -1.3284 H   0  0  0  0  0  0  0  0  0  0  0  0
    2.9440    0.7005   -2.1734 H   0  0  0  0  0  0  0  0  0  0  0  0
    3.6702    2.0874   -1.2886 H   0  0  0  0  0  0  0  0  0  0  0  0
   -2.1453    3.0495    0.0002 H   0  0  0  0  0  0  0  0  0  0  0  0
    0.0001    4.1900    0.0006 H   0  0  0  0  0  0  0  0  0  0  0  0
    2.1454    3.0493    0.0004 H   0  0  0  0  0  0  0  0  0  0  0  0
  1  5  1  0  0  0  0
  3 17  1  0  0  0  0
  6  2  1  0  0  0  0
  7 11  1  0  0  0  0
  7 10  1  0  0  0  0
  7  6  1  1  0  0  0
  8  5  1  6  0  0  0
  9  8  1  0  0  0  0
  9 23  1  0  0  0  0
  9 22  1  0  0  0  0
 10 25  1  0  0  0  0
 11  3  1  0  0  0  0
 11 13  1  0  0  0  0
 12  4  1  0  0  0  0
 12  8  1  0  0  0  0
 12 15  1  0  0  0  0
 13 28  1  0  0  0  0
 13 27  1  0  0  0  0
 13 29  1  0  0  0  0
 14 11  1  0  0  0  0
 15 34  1  0  0  0  0
 15 33  1  0  0  0  0
 15 35  1  0  0  0  0
 16 12  1  0  0  0  0
 17 39  1  0  0  0  0
 17 18  1  0  0  0  0
 18 19  2  0  0  0  0
 18 40  1  0  0  0  0
 19  4  1  0  0  0  0
 20  2  1  0  0  0  0
 21  9  1  0  0  0  0
 24 10  1  0  0  0  0
 26 10  1  0  0  0  0
 30 14  1  0  0  0  0
 31 14  1  0  0  0  0
 32 14  1  0  0  0  0
 36 16  1  0  0  0  0
 37 16  1  0  0  0  0
 38 16  1  0  0  0  0
 41 19  1  0  0  0  0
M  END
