1,2,3,4
q = -2.0, confidence = 0.684

 66 73  0  0  0  0  0  0  0  0999 V2000
   -1.3669   -2.1377   -0.5611 N   0  0  0  0  0  2  0  0  0  0  0  0
    1.4056   -2.1276   -0.5463 N   0  0  0  0  0  0  0  0  0  0  0  0
    1.3778    0.5686   -0.0775 N   0  0  0  0  0  0  0  0  0  0  0  0
   -1.3648    0.5455   -0.0649 N   0  0  0  0  0  0  0  0  0  0  0  0
   -2.7075   -2.0625   -0.2157 C   0  0  0  0  0  0  0  0  0  0  0  0
   -3.3758   -3.3133   -0.5075 C   0  0  0  0  0  0  0  0  0  0  0  0
   -4.4292   -3.5221   -0.2960 H   0  0  0  0  0  0  0  0  0  0  0  0
   -2.4452   -4.1288   -1.0980 C   0  0  0  0  0  0  0  0  0  0  0  0
   -2.5670   -5.1546   -1.4654 H   0  0  0  0  0  0  0  0  0  0  0  0
   -1.1962   -3.4053   -1.0891 C   0  0  0  0  0  0  0  0  0  0  0  0
    0.0298   -3.9860   -1.3959 C   0  0  0  0  0  0  0  0  0  0  0  0
    0.0358   -5.0088   -1.7965 H   0  0  0  0  0  0  0  0  0  0  0  0
    1.2460   -3.4060   -1.0510 C   0  0  0  0  0  0  0  0  0  0  0  0
    2.4937   -4.1307   -1.0144 C   0  0  0  0  0  0  0  0  0  0  0  0
    2.6219   -5.1653   -1.3537 H   0  0  0  0  0  0  0  0  0  0  0  0
    3.4134   -3.3007   -0.4273 C   0  0  0  0  0  0  0  0  0  0  0  0
    4.4623   -3.5048   -0.1907 H   0  0  0  0  0  0  0  0  0  0  0  0
    2.7419   -2.0404   -0.1862 C   0  0  0  0  0  0  0  0  0  0  0  0
    3.3872   -0.8653    0.2232 C   0  0  0  0  0  0  0  0  0  0  0  0
    4.8283   -0.8877    0.6049 C   0  0  0  0  0  0  0  0  0  0  0  0
    5.8324   -1.2373   -0.3243 C   0  0  0  0  0  0  0  0  0  0  0  0
    5.5431   -1.4940   -1.3544 H   0  0  0  0  0  0  0  0  0  0  0  0
    7.1842   -1.2353    0.0496 C   0  0  0  0  0  0  0  0  0  0  0  0
    7.9546   -1.5039   -0.6893 H   0  0  0  0  0  0  0  0  0  0  0  0
    7.5554   -0.8816    1.3567 C   0  0  0  0  0  0  0  0  0  0  0  0
    8.6164   -0.8803    1.6491 H   0  0  0  0  0  0  0  0  0  0  0  0
    6.5664   -0.5241    2.2867 C   0  0  0  0  0  0  0  0  0  0  0  0
    6.8489   -0.2448    3.3132 H   0  0  0  0  0  0  0  0  0  0  0  0
    5.2145   -0.5247    1.9135 C   0  0  0  0  0  0  0  0  0  0  0  0
    4.4370   -0.2474    2.6412 H   0  0  0  0  0  0  0  0  0  0  0  0
    2.7264    0.3735    0.1703 C   0  0  0  0  0  3  0  0  0  0  0  0
    3.4253    1.6389    0.1888 C   0  0  0  0  0  0  0  0  0  0  0  0
    4.5027    1.7512    0.3471 H   0  0  0  0  0  0  0  0  0  0  0  0
    2.4984    2.6078   -0.0956 C   0  0  0  0  0  0  0  0  0  0  0  0
    2.6541    3.6853   -0.2064 H   0  0  0  0  0  0  0  0  0  0  0  0
    1.2210    1.9415   -0.2104 C   0  0  0  0  0  0  0  0  0  0  0  0
   -0.0080    2.6096   -0.3092 C   0  0  0  0  0  0  0  0  0  0  0  0
   -0.0465    4.0922   -0.4667 C   0  0  0  0  0  0  0  0  0  0  0  0
    0.4408    4.9522    0.5413 C   0  0  0  0  0  0  0  0  0  0  0  0
    0.8548    4.5165    1.4629 H   0  0  0  0  0  0  0  0  0  0  0  0
    0.3808    6.3446    0.3831 C   0  0  0  0  0  0  0  0  0  0  0  0
    0.7596    7.0009    1.1814 H   0  0  0  0  0  0  0  0  0  0  0  0
   -0.1690    6.9000   -0.7833 C   0  0  0  0  0  0  0  0  0  0  0  0
   -0.2156    7.9927   -0.9067 H   0  0  0  0  0  0  0  0  0  0  0  0
   -0.6632    6.0544   -1.7891 C   0  0  0  0  0  0  0  0  0  0  0  0
   -1.0959    6.4819   -2.7065 H   0  0  0  0  0  0  0  0  0  0  0  0
   -0.6047    4.6620   -1.6314 C   0  0  0  0  0  0  0  0  0  0  0  0
   -0.9892    3.9968   -2.4192 H   0  0  0  0  0  0  0  0  0  0  0  0
   -1.2207    1.9207   -0.1521 C   0  0  0  0  0  0  0  0  0  0  0  0
   -2.4822    2.5788    0.1026 C   0  0  0  0  0  0  0  0  0  0  0  0
   -2.6303    3.6635    0.0945 H   0  0  0  0  0  0  0  0  0  0  0  0
   -3.3925    1.5935    0.3843 C   0  0  0  0  0  0  0  0  0  0  0  0
   -4.4547    1.6951    0.6290 H   0  0  0  0  0  0  0  0  0  0  0  0
   -2.6986    0.3326    0.2477 C   0  0  0  0  0  0  0  0  0  0  0  0
   -3.3531   -0.9096    0.2529 C   0  0  0  0  0  0  0  0  0  0  0  0
   -4.7882   -0.9611    0.6552 C   0  0  0  0  0  0  0  0  0  0  0  0
   -5.1543   -0.7023    1.9937 C   0  0  0  0  0  0  0  0  0  0  0  0
   -4.3661   -0.4813    2.7292 H   0  0  0  0  0  0  0  0  0  0  0  0
   -6.5006   -0.7328    2.3858 C   0  0  0  0  0  0  0  0  0  0  0  0
   -6.7679   -0.5343    3.4350 H   0  0  0  0  0  0  0  0  0  0  0  0
   -7.5032   -1.0187    1.4457 C   0  0  0  0  0  0  0  0  0  0  0  0
   -8.5597   -1.0421    1.7532 H   0  0  0  0  0  0  0  0  0  0  0  0
   -7.1515   -1.2700    0.1099 C   0  0  0  0  0  0  0  0  0  0  0  0
   -7.9326   -1.4834   -0.6357 H   0  0  0  0  0  0  0  0  0  0  0  0
   -5.8053   -1.2401   -0.2832 C   0  0  0  0  0  0  0  0  0  0  0  0
   -5.5307   -1.4180   -1.3337 H   0  0  0  0  0  0  0  0  0  0  0  0
  1  5  1  0  0  0  0
  2 18  1  0  0  0  0
  3 31  1  0  0  0  0
  4 54  2  0  0  0  0
  5 55  2  0  0  0  0
  6  7  1  0  0  0  0
  6  5  1  0  0  0  0
  8 10  1  0  0  0  0
  8  6  2  0  0  0  0
  9  8  1  0  0  0  0
 10  1  1  0  0  0  0
 11 10  2  0  0  0  0
 11 13  1  0  0  0  0
 12 11  1  0  0  0  0
 13 14  1  0  0  0  0
 13  2  2  0  0  0  0
 14 16  2  0  0  0  0
 15 14  1  0  0  0  0
 16 17  1  0  0  0  0
 16 18  1  0  0  0  0
 18 19  2  0  0  0  0
 19 20  1  0  0  0  0
 20 29  1  0  0  0  0
 21 23  1  0  0  0  0
 21 20  2  0  0  0  0
 22 21  1  0  0  0  0
 23 25  2  0  0  0  0
 24 23  1  0  0  0  0
 25 26  1  0  0  0  0
 25 27  1  0  0  0  0
 27 28  1  0  0  0  0
 29 27  2  0  0  0  0
 29 30  1  0  0  0  0
 31 32  1  0  0  0  0
 31 19  1  0  0  0  0
 32 33  1  0  0  0  0
 34 32  2  0  0  0  0
 35 34  1  0  0  0  0
 36 34  1  0  0  0  0
 36  3  2  0  0  0  0
 37 36  1  0  0  0  0
 37 49  2  0  0  0  0
 38 37  1  0  0  0  0
 38 39  1  0  0  0  0
 39 40  1  0  0  0  0
 41 39  2  0  0  0  0
 41 42  1  0  0  0  0
 43 41  1  0  0  0  0
 44 43  1  0  0  0  0
 45 47  1  0  0  0  0
 45 43  2  0  0  0  0
 46 45  1  0  0  0  0
 47 38  2  0  0  0  0
 48 47  1  0  0  0  0
 49  4  1  0  0  0  0
 49 50  1  0  0  0  0
 50 52  2  0  0  0  0
 51 50  1  0  0  0  0
 52 53  1  0  0  0  0
 54 55  1  0  0  0  0
 54 52  1  0  0  0  0
 55 56  1  0  0  0  0
 56 57  1  0  0  0  0
 57 59  2  0  0  0  0
 57 58  1  0  0  0  0
 59 60  1  0  0  0  0
 61 62  1  0  0  0  0
 61 59  1  0  0  0  0
 63 61  2  0  0  0  0
 64 63  1  0  0  0  0
 65 63  1  0  0  0  0
 65 56  2  0  0  0  0
 66 65  1  0  0  0  0
M  END
