1,6,9,12
q = 0.0, confidence = 0.998

 64 69  0  0  1  0  0  0  0  0999 V2000
   -1.9238    0.7273   -0.2507 N   0  0  0  0  0  2  0  0  0  0  0  0
   -2.8788    0.1013   -1.0491 C   0  0  0  0  0  0  0  0  0  0  0  0
   -3.9118    0.9110    0.7876 N   0  0  0  0  0  0  0  0  0  0  0  0
   -2.7616   -0.5687   -2.2777 C   0  0  0  0  0  0  0  0  0  0  0  0
   -1.7813   -0.6715   -2.7564 H   0  0  0  0  0  0  0  0  0  0  0  0
   -0.4524    2.1950    1.3200 N   0  0  0  0  0  0  0  0  0  0  0  0
   -3.9235   -1.1300   -2.8179 C   0  0  0  0  0  0  0  0  0  0  0  0
   -3.8601   -1.6767   -3.7705 H   0  0  0  0  0  0  0  0  0  0  0  0
    0.4524    2.1950   -1.3200 N   0  0  0  0  0  0  0  0  0  0  0  0
   -5.1712   -1.0362   -2.1559 C   0  0  0  0  0  0  0  0  0  0  0  0
   -6.0585   -1.5035   -2.6087 H   0  0  0  0  0  0  0  0  0  0  0  0
    1.9238    0.7272    0.2507 N   0  0  0  0  0  2  0  0  0  0  0  0
   -5.3015   -0.3746   -0.9277 C   0  0  0  0  0  0  0  0  0  0  0  0
   -6.2700   -0.3196   -0.4103 H   0  0  0  0  0  0  0  0  0  0  0  0
    3.9119    0.9110   -0.7876 N   0  0  0  0  0  0  0  0  0  0  0  0
   -4.1384    0.1961   -0.3901 C   0  0  0  0  0  0  0  0  0  0  0  0
   -4.7965    0.9637    1.9365 C   0  0  0  0  0  0  0  0  0  0  0  0
   -4.5831    0.1047    2.6070 H   0  0  0  0  0  0  0  0  0  0  0  0
   -5.8479    0.9328    1.5970 H   0  0  0  0  0  0  0  0  0  0  0  0
   -4.6409    1.9071    2.4943 H   0  0  0  0  0  0  0  0  0  0  0  0
   -2.5729    1.1991    0.8172 C   0  0  1  0  0  3  0  0  0  0  0  0
   -1.7898    1.8531    1.9010 C   0  0  0  0  0  0  0  0  0  0  0  0
   -2.3113    2.7408    2.3249 H   0  0  0  0  0  0  0  0  0  0  0  0
   -1.6335    1.1127    2.7144 H   0  0  0  0  0  0  0  0  0  0  0  0
    0.5242    2.4809    2.4061 C   0  0  0  0  0  0  0  0  0  0  0  0
    1.5377    2.4295    1.9664 H   0  0  0  0  0  0  0  0  0  0  0  0
    0.4606    1.6908    3.1758 H   0  0  0  0  0  0  0  0  0  0  0  0
    0.1909    3.9020    2.8805 C   0  0  0  0  0  0  0  0  0  0  0  0
   -0.6036    3.8828    3.6534 H   0  0  0  0  0  0  0  0  0  0  0  0
    1.0676    4.4004    3.3368 H   0  0  0  0  0  0  0  0  0  0  0  0
   -0.3062    4.6196    1.5965 C   0  0  0  0  0  0  0  0  0  0  0  0
    0.4409    5.3466    1.2201 H   0  0  0  0  0  0  0  0  0  0  0  0
   -1.2348    5.1926    1.7813 H   0  0  0  0  0  0  0  0  0  0  0  0
   -0.5290    3.4859    0.5551 C   0  0  1  0  0  0  0  0  0  0  0  0
   -1.5331    3.5371    0.0876 H   0  0  0  0  0  0  0  0  0  0  0  0
    0.5290    3.4860   -0.5550 C   0  0  2  0  0  0  0  0  0  0  0  0
    1.5331    3.5371   -0.0874 H   0  0  0  0  0  0  0  0  0  0  0  0
    0.3063    4.6196   -1.5964 C   0  0  0  0  0  0  0  0  0  0  0  0
    1.2348    5.1927   -1.7811 H   0  0  0  0  0  0  0  0  0  0  0  0
   -0.4408    5.3466   -1.2200 H   0  0  0  0  0  0  0  0  0  0  0  0
   -0.1909    3.9021   -2.8803 C   0  0  0  0  0  0  0  0  0  0  0  0
   -1.0676    4.4005   -3.3367 H   0  0  0  0  0  0  0  0  0  0  0  0
    0.6036    3.8829   -3.6533 H   0  0  0  0  0  0  0  0  0  0  0  0
   -0.5242    2.4810   -2.4060 C   0  0  0  0  0  0  0  0  0  0  0  0
   -1.5377    2.4296   -1.9663 H   0  0  0  0  0  0  0  0  0  0  0  0
   -0.4605    1.6909   -3.1757 H   0  0  0  0  0  0  0  0  0  0  0  0
    1.7898    1.8531   -1.9009 C   0  0  0  0  0  0  0  0  0  0  0  0
    2.3113    2.7409   -2.3248 H   0  0  0  0  0  0  0  0  0  0  0  0
    1.6335    1.1128   -2.7144 H   0  0  0  0  0  0  0  0  0  0  0  0
    2.5729    1.1992   -0.8172 C   0  0  1  0  0  3  0  0  0  0  0  0
    2.8788    0.1012    1.0491 C   0  0  0  0  0  0  0  0  0  0  0  0
    2.7616   -0.5688    2.2777 C   0  0  0  0  0  0  0  0  0  0  0  0
    1.7813   -0.6715    2.7564 H   0  0  0  0  0  0  0  0  0  0  0  0
    3.9235   -1.1301    2.8179 C   0  0  0  0  0  0  0  0  0  0  0  0
    3.8601   -1.6768    3.7704 H   0  0  0  0  0  0  0  0  0  0  0  0
    5.1712   -1.0363    2.1559 C   0  0  0  0  0  0  0  0  0  0  0  0
    6.0585   -1.5036    2.6086 H   0  0  0  0  0  0  0  0  0  0  0  0
    5.3015   -0.3747    0.9277 C   0  0  0  0  0  0  0  0  0  0  0  0
    6.2700   -0.3196    0.4103 H   0  0  0  0  0  0  0  0  0  0  0  0
    4.1384    0.1961    0.3900 C   0  0  0  0  0  0  0  0  0  0  0  0
    4.7965    0.9638   -1.9365 C   0  0  0  0  0  0  0  0  0  0  0  0
    4.5831    0.1047   -2.6070 H   0  0  0  0  0  0  0  0  0  0  0  0
    5.8479    0.9328   -1.5970 H   0  0  0  0  0  0  0  0  0  0  0  0
    4.6409    1.9071   -2.4943 H   0  0  0  0  0  0  0  0  0  0  0  0
  1 21  1  0  0  0  0
  2 16  1  0  0  0  0
  2  1  1  0  0  0  0
  3 21  1  0  0  0  0
  3 17  1  0  0  0  0
  4  2  2  0  0  0  0
  5  4  1  0  0  0  0
  6 22  1  0  0  0  0
  6 25  1  0  0  0  0
  7  4  1  0  0  0  0
  7 10  2  0  0  0  0
  8  7  1  0  0  0  0
  9 36  1  0  0  0  0
 10 13  1  0  0  0  0
 11 10  1  0  0  0  0
 12 51  1  0  0  0  0
 13 14  1  0  0  0  0
 13 16  2  0  0  0  0
 15 60  1  0  0  0  0
 16  3  1  0  0  0  0
 17 20  1  0  0  0  0
 17 18  1  0  0  0  0
 19 17  1  0  0  0  0
 21 22  1  1  0  0  0
 22 23  1  0  0  0  0
 22 24  1  0  0  0  0
 25 28  1  0  0  0  0
 25 27  1  0  0  0  0
 26 25  1  0  0  0  0
 28 30  1  0  0  0  0
 28 29  1  0  0  0  0
 31 33  1  0  0  0  0
 31 28  1  0  0  0  0
 32 31  1  0  0  0  0
 34 35  1  6  0  0  0
 34  6  1  0  0  0  0
 34 31  1  0  0  0  0
 36 37  1  1  0  0  0
 36 34  1  0  0  0  0
 38 40  1  0  0  0  0
 38 36  1  0  0  0  0
 39 38  1  0  0  0  0
 41 44  1  0  0  0  0
 41 38  1  0  0  0  0
 42 41  1  0  0  0  0
 43 41  1  0  0  0  0
 44 45  1  0  0  0  0
 44  9  1  0  0  0  0
 46 44  1  0  0  0  0
 47  9  1  0  0  0  0
 48 47  1  0  0  0  0
 49 47  1  0  0  0  0
 50 47  1  6  0  0  0
 50 15  1  0  0  0  0
 50 12  1  0  0  0  0
 51 52  1  0  0  0  0
 52 53  1  0  0  0  0
 52 54  2  0  0  0  0
 54 55  1  0  0  0  0
 56 57  1  0  0  0  0
 56 54  1  0  0  0  0
 58 56  2  0  0  0  0
 59 58  1  0  0  0  0
 60 58  1  0  0  0  0
 60 51  2  0  0  0  0
 61 63  1  0  0  0  0
 61 15  1  0  0  0  0
 62 61  1  0  0  0  0
 64 61  1  0  0  0  0
M  END
