1,3,4,5
q = -2.0, confidence = 0.61

 46 49  0  0  0  0  0  0  0  0999 V2000
   -0.3239   -1.8956    0.0745 N   0  0  0  0  0  2  0  0  0  0  0  0
   -1.2705   -2.2427   -0.1264 H   0  0  0  0  0  0  0  0  0  0  0  0
    1.8317   -0.6276    0.0825 N   0  0  0  0  0  2  0  0  0  0  0  0
    0.6160    1.5978    0.0481 N   0  0  0  0  0  2  0  0  0  0  0  0
   -1.6951    0.5500    0.1922 N   0  0  0  0  0  2  0  0  0  0  0  0
    0.7481   -2.6491   -0.3901 C   0  0  0  0  0  0  0  0  0  0  0  0
    0.6754   -3.9716   -0.8575 C   0  0  0  0  0  0  0  0  0  0  0  0
   -0.2871   -4.5049   -0.8298 H   0  0  0  0  0  0  0  0  0  0  0  0
    1.8295   -4.5856   -1.3667 C   0  0  0  0  0  0  0  0  0  0  0  0
    1.7790   -5.6213   -1.7340 H   0  0  0  0  0  0  0  0  0  0  0  0
    3.0406   -3.8761   -1.4210 C   0  0  0  0  0  0  0  0  0  0  0  0
    3.9396   -4.3542   -1.8370 H   0  0  0  0  0  0  0  0  0  0  0  0
    3.1245   -2.5527   -0.9559 C   0  0  0  0  0  0  0  0  0  0  0  0
    4.0743   -2.0137   -1.0366 H   0  0  0  0  0  0  0  0  0  0  0  0
    1.9835   -1.9332   -0.4125 C   0  0  0  0  0  0  0  0  0  0  0  0
    2.6999    0.4722   -0.0597 C   0  0  0  0  0  0  0  0  0  0  0  0
    4.1046    0.4436   -0.0998 C   0  0  0  0  0  0  0  0  0  0  0  0
    4.6417   -0.5078   -0.0160 H   0  0  0  0  0  0  0  0  0  0  0  0
    4.8272    1.6453   -0.1816 C   0  0  0  0  0  0  0  0  0  0  0  0
    5.9263    1.6123   -0.2091 H   0  0  0  0  0  0  0  0  0  0  0  0
    4.1575    2.8760   -0.1907 C   0  0  0  0  0  0  0  0  0  0  0  0
    4.7272    3.8163   -0.2246 H   0  0  0  0  0  0  0  0  0  0  0  0
    2.7552    2.9248   -0.1223 C   0  0  0  0  0  0  0  0  0  0  0  0
    2.2507    3.8950   -0.0566 H   0  0  0  0  0  0  0  0  0  0  0  0
    2.0139    1.7310   -0.0765 C   0  0  0  0  0  0  0  0  0  0  0  0
   -0.3995    2.4628   -0.3888 C   0  0  0  0  0  0  0  0  0  0  0  0
   -0.2752    3.7518   -0.9410 C   0  0  0  0  0  0  0  0  0  0  0  0
    0.7115    4.1946   -1.1117 H   0  0  0  0  0  0  0  0  0  0  0  0
   -1.4265    4.4724   -1.2990 C   0  0  0  0  0  0  0  0  0  0  0  0
   -1.3163    5.4808   -1.7243 H   0  0  0  0  0  0  0  0  0  0  0  0
   -2.7036    3.9201   -1.1160 C   0  0  0  0  0  0  0  0  0  0  0  0
   -3.6009    4.4990   -1.3797 H   0  0  0  0  0  0  0  0  0  0  0  0
   -2.8431    2.6199   -0.6073 C   0  0  0  0  0  0  0  0  0  0  0  0
   -3.8377    2.1714   -0.4769 H   0  0  0  0  0  0  0  0  0  0  0  0
   -1.6968    1.8791   -0.2697 C   0  0  0  0  0  0  0  0  0  0  0  0
   -2.8165   -0.2928   -0.0232 C   0  0  0  0  0  0  0  0  0  0  0  0
   -3.4013   -0.4292   -1.3027 C   0  0  0  0  0  0  0  0  0  0  0  0
   -2.9999    0.1574   -2.1418 H   0  0  0  0  0  0  0  0  0  0  0  0
   -4.4704   -1.3135   -1.4935 C   0  0  0  0  0  0  0  0  0  0  0  0
   -4.9163   -1.4175   -2.4944 H   0  0  0  0  0  0  0  0  0  0  0  0
   -4.9635   -2.0769   -0.4205 C   0  0  0  0  0  0  0  0  0  0  0  0
   -5.8010   -2.7729   -0.5771 H   0  0  0  0  0  0  0  0  0  0  0  0
   -4.3791   -1.9499    0.8495 C   0  0  0  0  0  0  0  0  0  0  0  0
   -4.7594   -2.5427    1.6950 H   0  0  0  0  0  0  0  0  0  0  0  0
   -3.3132   -1.0604    1.0520 C   0  0  0  0  0  0  0  0  0  0  0  0
   -2.8485   -0.9445    2.0427 H   0  0  0  0  0  0  0  0  0  0  0  0
  2  1  1  0  0  0  0
  6  1  1  0  0  0  0
  7  8  1  0  0  0  0
  7  6  2  0  0  0  0
  9  7  1  0  0  0  0
 10  9  1  0  0  0  0
 11  9  2  0  0  0  0
 11 13  1  0  0  0  0
 12 11  1  0  0  0  0
 13 15  2  0  0  0  0
 14 13  1  0  0  0  0
 15  6  1  0  0  0  0
 15  3  1  0  0  0  0
 16  3  1  0  0  0  0
 17 16  2  0  0  0  0
 17 18  1  0  0  0  0
 19 17  1  0  0  0  0
 20 19  1  0  0  0  0
 21 19  2  0  0  0  0
 21 23  1  0  0  0  0
 22 21  1  0  0  0  0
 23 25  2  0  0  0  0
 23 24  1  0  0  0  0
 25 16  1  0  0  0  0
 25  4  1  0  0  0  0
 26 35  1  0  0  0  0
 26  4  1  0  0  0  0
 27 26  2  0  0  0  0
 28 27  1  0  0  0  0
 29 31  2  0  0  0  0
 29 27  1  0  0  0  0
 30 29  1  0  0  0  0
 31 33  1  0  0  0  0
 32 31  1  0  0  0  0
 33 34  1  0  0  0  0
 33 35  2  0  0  0  0
 35  5  1  0  0  0  0
 36  5  1  0  0  0  0
 36 45  1  0  0  0  0
 37 36  2  0  0  0  0
 38 37  1  0  0  0  0
 39 37  1  0  0  0  0
 39 41  2  0  0  0  0
 40 39  1  0  0  0  0
 41 43  1  0  0  0  0
 42 41  1  0  0  0  0
 43 45  2  0  0  0  0
 43 44  1  0  0  0  0
 45 46  1  0  0  0  0
M  END
