3,4,5,7
q = -2.0, confidence = 0.968

 43 43  0  0  0  0  0  0  0  0999 V2000
   -1.6787   -3.1592   -0.7558 O   0  0  0  0  0  0  0  0  0  0  0  0
   -0.0183    3.8423   -0.2350 O   0  0  0  0  0  0  0  0  0  0  0  0
   -0.0264    1.5385   -0.5845 N   0  0  0  0  0  2  0  0  0  0  0  0
    1.6043   -1.9663    0.0355 N   0  0  0  0  0  0  0  0  0  0  0  0
   -0.8461   -1.0201   -0.2915 N   0  0  0  0  0  2  0  0  0  0  0  0
   -2.0994   -0.4379    0.0148 C   0  0  0  0  0  0  0  0  0  0  0  0
    2.3665    1.1909    0.3745 N   0  0  0  0  0  0  0  0  0  0  0  0
    0.4495    2.7093   -0.0840 C   0  0  0  0  0  0  0  0  0  0  0  0
   -2.3680    0.8762   -0.4437 C   0  0  0  0  0  0  0  0  0  0  0  0
   -1.3116    1.5563   -1.2751 C   0  0  0  0  0  0  0  0  0  0  0  0
   -1.2073    1.0315   -2.2515 H   0  0  0  0  0  0  0  0  0  0  0  0
   -1.5879    2.6120   -1.4678 H   0  0  0  0  0  0  0  0  0  0  0  0
    1.4713   -2.4158    1.4379 C   0  0  0  0  0  0  0  0  0  0  0  0
    0.4199   -2.3018    1.7591 H   0  0  0  0  0  0  0  0  0  0  0  0
    2.1124   -1.7982    2.0932 H   0  0  0  0  0  0  0  0  0  0  0  0
    1.7716   -3.4841    1.5425 H   0  0  0  0  0  0  0  0  0  0  0  0
   -0.7612   -2.3494   -0.6136 C   0  0  0  0  0  0  0  0  0  0  0  0
    2.9836   -2.1634   -0.4405 C   0  0  0  0  0  0  0  0  0  0  0  0
    3.0842   -1.7656   -1.4679 H   0  0  0  0  0  0  0  0  0  0  0  0
    3.2413   -3.2469   -0.4550 H   0  0  0  0  0  0  0  0  0  0  0  0
    3.7074   -1.6536    0.2193 H   0  0  0  0  0  0  0  0  0  0  0  0
   -4.2905   -0.4849    1.0892 C   0  0  0  0  0  0  0  0  0  0  0  0
   -5.0416   -1.0270    1.6845 H   0  0  0  0  0  0  0  0  0  0  0  0
   -4.5490    0.8239    0.6518 C   0  0  0  0  0  0  0  0  0  0  0  0
   -5.4986    1.3194    0.9040 H   0  0  0  0  0  0  0  0  0  0  0  0
   -3.0774   -1.1135    0.7793 C   0  0  0  0  0  0  0  0  0  0  0  0
   -2.8861   -2.1429    1.1074 H   0  0  0  0  0  0  0  0  0  0  0  0
    0.6947   -2.7595   -0.8320 C   0  0  0  0  0  0  0  0  0  0  0  0
    0.8058   -3.8492   -0.6380 H   0  0  0  0  0  0  0  0  0  0  0  0
    0.9687   -2.5688   -1.8899 H   0  0  0  0  0  0  0  0  0  0  0  0
   -3.5813    1.4967   -0.1097 C   0  0  0  0  0  0  0  0  0  0  0  0
   -3.7646    2.5252   -0.4587 H   0  0  0  0  0  0  0  0  0  0  0  0
    3.1464    1.4159   -0.8612 C   0  0  0  0  0  0  0  0  0  0  0  0
    2.4651    1.7754   -1.6535 H   0  0  0  0  0  0  0  0  0  0  0  0
    3.6148    0.4712   -1.1921 H   0  0  0  0  0  0  0  0  0  0  0  0
    3.9460    2.1735   -0.6916 H   0  0  0  0  0  0  0  0  0  0  0  0
    1.6919    2.4596    0.7686 C   0  0  0  0  0  0  0  0  0  0  0  0
    2.3911    3.3220    0.6962 H   0  0  0  0  0  0  0  0  0  0  0  0
    1.3708    2.3702    1.8265 H   0  0  0  0  0  0  0  0  0  0  0  0
    3.2473    0.7709    1.4774 C   0  0  0  0  0  0  0  0  0  0  0  0
    2.6392    0.5387    2.3719 H   0  0  0  0  0  0  0  0  0  0  0  0
    3.9644    1.5826    1.7374 H   0  0  0  0  0  0  0  0  0  0  0  0
    3.8351   -0.1208    1.1968 H   0  0  0  0  0  0  0  0  0  0  0  0
  1 17  2  0  0  0  0
  2  8  2  0  0  0  0
  3  8  1  0  0  0  0
  4 13  1  0  0  0  0
  5  6  1  0  0  0  0
  6 26  1  0  0  0  0
  7 37  1  0  0  0  0
  7 40  1  0  0  0  0
  8 37  1  0  0  0  0
  9 31  1  0  0  0  0
  9  6  2  0  0  0  0
 10  3  1  0  0  0  0
 10  9  1  0  0  0  0
 11 10  1  0  0  0  0
 12 10  1  0  0  0  0
 13 16  1  0  0  0  0
 13 14  1  0  0  0  0
 13 15  1  0  0  0  0
 17  5  1  0  0  0  0
 18  4  1  0  0  0  0
 18 21  1  0  0  0  0
 19 18  1  0  0  0  0
 20 18  1  0  0  0  0
 22 23  1  0  0  0  0
 24 25  1  0  0  0  0
 24 22  1  0  0  0  0
 26 22  2  0  0  0  0
 26 27  1  0  0  0  0
 28 29  1  0  0  0  0
 28 17  1  0  0  0  0
 28  4  1  0  0  0  0
 30 28  1  0  0  0  0
 31 24  2  0  0  0  0
 32 31  1  0  0  0  0
 33 36  1  0  0  0  0
 33  7  1  0  0  0  0
 34 33  1  0  0  0  0
 35 33  1  0  0  0  0
 37 39  1  0  0  0  0
 38 37  1  0  0  0  0
 40 42  1  0  0  0  0
 40 41  1  0  0  0  0
 43 40  1  0  0  0  0
M  END
