1,2,3,4
q = -2.0, confidence = 0.794

 27 26  0  0  0  0  0  0  0  0999 V2000
   -1.7121   -1.8820    0.3321 N   0  0  0  0  0  0  0  0  0  0  0  0
   -1.4280    0.7504    0.0125 N   0  0  0  0  0  2  0  0  0  0  0  0
    1.4250    0.7571    0.0124 N   0  0  0  0  0  2  0  0  0  0  0  0
    1.7248   -1.8770    0.3220 N   0  0  0  0  0  0  0  0  0  0  0  0
   -2.1880    2.9057    0.2649 O   0  0  0  0  0  0  0  0  0  0  0  0
    2.1731    2.9160    0.2704 O   0  0  0  0  0  0  0  0  0  0  0  0
   -2.9748   -1.1219    0.0567 C   0  0  0  0  0  0  0  0  0  0  0  0
   -2.7544    0.3098    0.5007 C   0  0  0  0  0  0  0  0  0  0  0  0
   -1.2974    2.1543   -0.0952 C   0  0  0  0  0  0  0  0  0  0  0  0
   -0.0056    2.6451   -0.7302 C   0  0  0  0  0  0  0  0  0  0  0  0
    1.2874    2.1602   -0.0927 C   0  0  0  0  0  0  0  0  0  0  0  0
    2.7499    0.3222    0.5077 C   0  0  0  0  0  0  0  0  0  0  0  0
    2.9828   -1.1052    0.0562 C   0  0  0  0  0  0  0  0  0  0  0  0
   -1.6529   -2.1379    1.3309 H   0  0  0  0  0  0  0  0  0  0  0  0
   -1.7053   -2.7776   -0.1792 H   0  0  0  0  0  0  0  0  0  0  0  0
    1.7216   -2.7631   -0.2059 H   0  0  0  0  0  0  0  0  0  0  0  0
    1.6719   -2.1548    1.3151 H   0  0  0  0  0  0  0  0  0  0  0  0
   -3.8459   -1.5884    0.5594 H   0  0  0  0  0  0  0  0  0  0  0  0
   -3.1398   -1.1588   -1.0379 H   0  0  0  0  0  0  0  0  0  0  0  0
   -3.5385    0.9870    0.1076 H   0  0  0  0  0  0  0  0  0  0  0  0
   -2.8262    0.4086    1.6121 H   0  0  0  0  0  0  0  0  0  0  0  0
   -0.0082    3.7477   -0.7018 H   0  0  0  0  0  0  0  0  0  0  0  0
   -0.0038    2.3164   -1.7928 H   0  0  0  0  0  0  0  0  0  0  0  0
    2.8120    0.4145    1.6204 H   0  0  0  0  0  0  0  0  0  0  0  0
    3.5327    1.0070    0.1255 H   0  0  0  0  0  0  0  0  0  0  0  0
    3.1519   -1.1336   -1.0379 H   0  0  0  0  0  0  0  0  0  0  0  0
    3.8557   -1.5684    0.5588 H   0  0  0  0  0  0  0  0  0  0  0  0
  1 14  1  0  0  0  0
  2  8  1  0  0  0  0
  3 12  1  0  0  0  0
  4 17  1  0  0  0  0
  7  1  1  0  0  0  0
  7  8  1  0  0  0  0
  7 18  1  0  0  0  0
  8 21  1  0  0  0  0
  9  2  1  0  0  0  0
  9  5  2  0  0  0  0
 10 22  1  0  0  0  0
 10  9  1  0  0  0  0
 10 11  1  0  0  0  0
 11  3  1  0  0  0  0
 11  6  2  0  0  0  0
 12 24  1  0  0  0  0
 13  4  1  0  0  0  0
 13 12  1  0  0  0  0
 13 27  1  0  0  0  0
 15  1  1  0  0  0  0
 16  4  1  0  0  0  0
 19  7  1  0  0  0  0
 20  8  1  0  0  0  0
 23 10  1  0  0  0  0
 25 12  1  0  0  0  0
 26 13  1  0  0  0  0
M  END
