1,2,3,4
q = -1.0, confidence = 0.02

 56 55  0  0  1  0  0  0  0  0999 V2000
   -2.1088    0.7837   -0.5194 N   0  0  0  0  0  2  0  0  0  0  0  0
    0.4656    2.1293   -0.4423 N   0  0  0  0  0  2  0  0  0  0  0  0
    2.5486    0.0288    0.2510 N   0  0  0  0  0  0  0  0  0  0  0  0
   -1.5306   -1.9354   -0.0020 N   0  0  0  0  0  0  0  0  0  0  0  0
   -2.5430    2.0251   -0.2458 C   0  0  1  0  0  3  0  0  0  0  0  0
   -1.6912    3.1280   -0.0199 C   0  0  0  0  0  0  0  0  0  0  0  0
   -2.1935    4.0737    0.2204 H   0  0  0  0  0  0  0  0  0  0  0  0
   -0.2888    3.2020   -0.1924 C   0  0  0  0  0  0  0  0  0  0  0  0
   -4.0312    2.3005   -0.1962 C   0  0  0  0  0  0  0  0  0  0  0  0
   -4.5346    1.6492    0.5490 H   0  0  0  0  0  0  0  0  0  0  0  0
   -4.5128    2.0922   -1.1744 H   0  0  0  0  0  0  0  0  0  0  0  0
   -4.2351    3.3527    0.0695 H   0  0  0  0  0  0  0  0  0  0  0  0
    0.3273    4.5858   -0.1046 C   0  0  0  0  0  0  0  0  0  0  0  0
    1.1420    4.6217    0.6478 H   0  0  0  0  0  0  0  0  0  0  0  0
   -0.4341    5.3331    0.1808 H   0  0  0  0  0  0  0  0  0  0  0  0
    0.7620    4.9013   -1.0759 H   0  0  0  0  0  0  0  0  0  0  0  0
    1.8903    2.2546   -0.7188 C   0  0  0  0  0  0  0  0  0  0  0  0
    2.2331    3.3087   -0.7298 H   0  0  0  0  0  0  0  0  0  0  0  0
    2.0918    1.8485   -1.7353 H   0  0  0  0  0  0  0  0  0  0  0  0
    2.7242    1.4993    0.3216 C   0  0  0  0  0  0  0  0  0  0  0  0
    3.7990    1.7740    0.1962 H   0  0  0  0  0  0  0  0  0  0  0  0
    2.4015    1.8286    1.3301 H   0  0  0  0  0  0  0  0  0  0  0  0
    2.9381   -0.6080    1.5401 C   0  0  0  0  0  0  0  0  0  0  0  0
    2.6601   -1.6795    1.4799 H   0  0  0  0  0  0  0  0  0  0  0  0
    2.2799   -0.1733    2.3166 H   0  0  0  0  0  0  0  0  0  0  0  0
    4.4069   -0.4830    1.9525 C   0  0  0  0  0  0  0  0  0  0  0  0
    4.5446   -0.9564    2.9452 H   0  0  0  0  0  0  0  0  0  0  0  0
    4.7266    0.5741    2.0500 H   0  0  0  0  0  0  0  0  0  0  0  0
    5.1016   -0.9852    1.2492 H   0  0  0  0  0  0  0  0  0  0  0  0
    3.3561   -0.5054   -0.8786 C   0  0  0  0  0  0  0  0  0  0  0  0
    4.4147   -0.1681   -0.7633 H   0  0  0  0  0  0  0  0  0  0  0  0
    2.9683   -0.0437   -1.8063 H   0  0  0  0  0  0  0  0  0  0  0  0
    3.3118   -2.0183   -1.0406 C   0  0  0  0  0  0  0  0  0  0  0  0
    3.8466   -2.2983   -1.9694 H   0  0  0  0  0  0  0  0  0  0  0  0
    2.2684   -2.3716   -1.1493 H   0  0  0  0  0  0  0  0  0  0  0  0
    3.7935   -2.5597   -0.2022 H   0  0  0  0  0  0  0  0  0  0  0  0
   -3.1050   -0.2224   -0.8811 C   0  0  0  0  0  0  0  0  0  0  0  0
   -3.6359    0.0511   -1.8221 H   0  0  0  0  0  0  0  0  0  0  0  0
   -3.8976   -0.2940   -0.1008 H   0  0  0  0  0  0  0  0  0  0  0  0
   -2.4696   -1.5918   -1.0948 C   0  0  0  0  0  0  0  0  0  0  0  0
   -3.2684   -2.3616   -1.2058 H   0  0  0  0  0  0  0  0  0  0  0  0
   -1.8803   -1.5842   -2.0322 H   0  0  0  0  0  0  0  0  0  0  0  0
   -0.7694   -3.1587   -0.3613 C   0  0  0  0  0  0  0  0  0  0  0  0
   -0.2534   -2.9292   -1.3165 H   0  0  0  0  0  0  0  0  0  0  0  0
   -1.4707   -4.0010   -0.5727 H   0  0  0  0  0  0  0  0  0  0  0  0
    0.2456   -3.5760    0.6965 C   0  0  0  0  0  0  0  0  0  0  0  0
    0.9310   -4.3393    0.2793 H   0  0  0  0  0  0  0  0  0  0  0  0
   -0.2287   -4.0082    1.5993 H   0  0  0  0  0  0  0  0  0  0  0  0
    0.8611   -2.7147    1.0291 H   0  0  0  0  0  0  0  0  0  0  0  0
   -2.2269   -2.0614    1.3094 C   0  0  0  0  0  0  0  0  0  0  0  0
   -2.6788   -1.0776    1.5371 H   0  0  0  0  0  0  0  0  0  0  0  0
   -1.4486   -2.1834    2.0850 H   0  0  0  0  0  0  0  0  0  0  0  0
   -3.2718   -3.1728    1.4146 C   0  0  0  0  0  0  0  0  0  0  0  0
   -3.7090   -3.1609    2.4327 H   0  0  0  0  0  0  0  0  0  0  0  0
   -2.8395   -4.1816    1.2558 H   0  0  0  0  0  0  0  0  0  0  0  0
   -4.1092   -3.0473    0.6987 H   0  0  0  0  0  0  0  0  0  0  0  0
  2  8  1  0  0  0  0
  3 20  1  0  0  0  0
  3 23  1  0  0  0  0
  4 50  1  0  0  0  0
  5  1  1  6  0  0  0
  5  9  1  0  0  0  0
  5  6  1  0  0  0  0
  6  7  1  0  0  0  0
  8 13  1  0  0  0  0
  8  6  2  0  0  0  0
  9 12  1  0  0  0  0
  9 10  1  0  0  0  0
 11  9  1  0  0  0  0
 13 15  1  0  0  0  0
 13 14  1  0  0  0  0
 16 13  1  0  0  0  0
 17  2  1  0  0  0  0
 17 20  1  0  0  0  0
 18 17  1  0  0  0  0
 19 17  1  0  0  0  0
 20 22  1  0  0  0  0
 21 20  1  0  0  0  0
 23 26  1  0  0  0  0
 23 25  1  0  0  0  0
 24 23  1  0  0  0  0
 26 28  1  0  0  0  0
 26 27  1  0  0  0  0
 29 26  1  0  0  0  0
 30 31  1  0  0  0  0
 30  3  1  0  0  0  0
 32 30  1  0  0  0  0
 33 30  1  0  0  0  0
 33 36  1  0  0  0  0
 34 33  1  0  0  0  0
 35 33  1  0  0  0  0
 37  1  1  0  0  0  0
 37 39  1  0  0  0  0
 38 37  1  0  0  0  0
 40 37  1  0  0  0  0
 40  4  1  0  0  0  0
 41 40  1  0  0  0  0
 42 40  1  0  0  0  0
 43  4  1  0  0  0  0
 43 46  1  0  0  0  0
 44 43  1  0  0  0  0
 45 43  1  0  0  0  0
 46 49  1  0  0  0  0
 46 48  1  0  0  0  0
 47 46  1  0  0  0  0
 50 53  1  0  0  0  0
 50 51  1  0  0  0  0
 50 52  1  0  0  0  0
 53 54  1  0  0  0  0
 55 53  1  0  0  0  0
 56 53  1  0  0  0  0
M  END
