45,46,47,48
q = -2.0, confidence = 0.932

 76 85  0  0  0  0  0  0  0  0999 V2000
   -2.6023   -1.0292   -0.2897 C   0  0  0  0  0  0  0  0  0  0  0  0
   -3.9941   -0.6522   -0.1637 C   0  0  0  0  0  0  0  0  0  0  0  0
   -4.0303    0.6350    0.3445 C   0  0  0  0  0  0  0  0  0  0  0  0
   -2.6551    1.0443    0.4485 C   0  0  0  0  0  0  0  0  0  0  0  0
   -2.2366    2.3653    0.6916 C   0  0  0  0  0  0  0  0  0  0  0  0
   -0.9246    2.7731    0.4010 C   0  0  0  0  0  0  0  0  0  0  0  0
   -0.5141    4.1581    0.3025 C   0  0  0  0  0  0  0  0  0  0  0  0
    0.7546    4.1621   -0.2159 C   0  0  0  0  0  0  0  0  0  0  0  0
    1.1634    2.7793   -0.3376 C   0  0  0  0  0  0  0  0  0  0  0  0
    2.4663    2.3638   -0.6471 C   0  0  0  0  0  0  0  0  0  0  0  0
    2.8767    1.0349   -0.4236 C   0  0  0  0  0  0  0  0  0  0  0  0
    4.2632    0.6402   -0.3135 C   0  0  0  0  0  0  0  0  0  0  0  0
    4.2737   -0.6407    0.1796 C   0  0  0  0  0  0  0  0  0  0  0  0
    2.8949   -1.0552    0.2969 C   0  0  0  0  0  0  0  0  0  0  0  0
    2.4749   -2.3478    0.6433 C   0  0  0  0  0  0  0  0  0  0  0  0
    1.1407   -2.7574    0.4686 C   0  0  0  0  0  0  0  0  0  0  0  0
    0.7122   -4.1318    0.5068 C   0  0  0  0  0  3  0  0  0  0  0  0
   -0.5786   -4.1594    0.0313 C   0  0  0  0  0  0  0  0  0  0  0  0
   -0.9484   -2.7968   -0.2583 C   0  0  0  0  0  0  0  0  0  0  0  0
   -2.2502   -2.3496   -0.6071 C   0  0  0  0  0  0  0  0  0  0  0  0
   -3.3089   -3.2013   -1.1543 C   0  0  0  0  0  0  0  0  0  0  0  0
   -3.0563   -4.4190   -1.8372 C   0  0  0  0  0  0  0  0  0  0  0  0
   -4.0888   -5.2220   -2.3239 C   0  0  0  0  0  0  0  0  0  0  0  0
   -5.4299   -4.8237   -2.1521 C   0  0  0  0  0  0  0  0  0  0  0  0
   -5.7196   -3.6068   -1.5367 C   0  0  0  0  0  0  0  0  0  0  0  0
   -4.6776   -2.7804   -1.0584 C   0  0  0  0  0  0  0  0  0  0  0  0
   -3.2660    3.3592    1.1119 C   0  0  0  0  0  0  0  0  0  0  0  0
   -3.8567    3.2617    2.3905 C   0  0  0  0  0  0  0  0  0  0  0  0
   -4.8434    4.1727    2.7954 C   0  0  0  0  0  0  0  0  0  0  0  0
   -5.2601    5.1942    1.9270 C   0  0  0  0  0  0  0  0  0  0  0  0
   -4.6874    5.2953    0.6491 C   0  0  0  0  0  0  0  0  0  0  0  0
   -3.7010    4.3840    0.2434 C   0  0  0  0  0  0  0  0  0  0  0  0
    3.4914    3.3543   -1.0857 C   0  0  0  0  0  0  0  0  0  0  0  0
    3.9363    4.3864   -0.2312 C   0  0  0  0  0  0  0  0  0  0  0  0
    4.9156    5.2960   -0.6572 C   0  0  0  0  0  0  0  0  0  0  0  0
    5.4706    5.1865   -1.9422 C   0  0  0  0  0  0  0  0  0  0  0  0
    5.0439    4.1578   -2.7969 C   0  0  0  0  0  0  0  0  0  0  0  0
    4.0645    3.2483   -2.3717 C   0  0  0  0  0  0  0  0  0  0  0  0
    3.4727   -3.3571    1.1023 C   0  0  0  0  0  0  0  0  0  0  0  0
    4.4789   -3.8407    0.2386 C   0  0  0  0  0  0  0  0  0  0  0  0
    5.4013   -4.7997    0.6824 C   0  0  0  0  0  0  0  0  0  0  0  0
    5.3312   -5.2932    1.9949 C   0  0  0  0  0  0  0  0  0  0  0  0
    4.3299   -4.8246    2.8602 C   0  0  0  0  0  0  0  0  0  0  0  0
    3.4070   -3.8657    2.4174 C   0  0  0  0  0  0  0  0  0  0  0  0
   -1.7955    0.0090    0.0870 N   0  0  0  0  0  0  0  0  0  0  0  0
    0.1202    1.9410    0.0269 N   0  0  0  0  0  2  0  0  0  0  0  0
    2.0509   -0.0127   -0.0648 N   0  0  0  0  0  0  0  0  0  0  0  0
    0.1014   -1.9445    0.0375 N   0  0  0  0  0  0  0  0  0  0  0  0
   -4.9729   -1.5511   -0.4978 N   0  0  0  0  0  0  0  0  0  0  0  0
   -5.9525   -1.2878   -0.3874 H   0  0  0  0  0  0  0  0  0  0  0  0
   -4.8969    1.2652    0.5645 H   0  0  0  0  0  0  0  0  0  0  0  0
   -1.1399    5.0164    0.5660 H   0  0  0  0  0  0  0  0  0  0  0  0
    1.3803    5.0244   -0.4663 H   0  0  0  0  0  0  0  0  0  0  0  0
    5.1150    1.2926   -0.5317 H   0  0  0  0  0  0  0  0  0  0  0  0
    5.1381   -1.2610    0.4361 H   0  0  0  0  0  0  0  0  0  0  0  0
    1.3332   -4.9728    0.8315 H   0  0  0  0  0  0  0  0  0  0  0  0
   -1.2385   -5.0276   -0.0514 H   0  0  0  0  0  0  0  0  0  0  0  0
   -2.0136   -4.7137   -2.0129 H   0  0  0  0  0  0  0  0  0  0  0  0
   -3.8521   -6.1556   -2.8546 H   0  0  0  0  0  0  0  0  0  0  0  0
   -6.2502   -5.4546   -2.5255 H   0  0  0  0  0  0  0  0  0  0  0  0
   -6.7623   -3.2675   -1.4308 H   0  0  0  0  0  0  0  0  0  0  0  0
   -3.5260    2.4620    3.0703 H   0  0  0  0  0  0  0  0  0  0  0  0
   -5.2869    4.0866    3.7993 H   0  0  0  0  0  0  0  0  0  0  0  0
   -6.0336    5.9098    2.2449 H   0  0  0  0  0  0  0  0  0  0  0  0
   -5.0163    6.0866   -0.0420 H   0  0  0  0  0  0  0  0  0  0  0  0
   -3.2655    4.4514   -0.7648 H   0  0  0  0  0  0  0  0  0  0  0  0
    3.5179    4.4586    0.7839 H   0  0  0  0  0  0  0  0  0  0  0  0
    5.2544    6.0913    0.0243 H   0  0  0  0  0  0  0  0  0  0  0  0
    6.2394    5.9000   -2.2755 H   0  0  0  0  0  0  0  0  0  0  0  0
    5.4750    4.0635   -3.8054 H   0  0  0  0  0  0  0  0  0  0  0  0
    3.7267    2.4424   -3.0407 H   0  0  0  0  0  0  0  0  0  0  0  0
    4.5223   -3.4664   -0.7952 H   0  0  0  0  0  0  0  0  0  0  0  0
    6.1768   -5.1699   -0.0056 H   0  0  0  0  0  0  0  0  0  0  0  0
    6.0552   -6.0458    2.3425 H   0  0  0  0  0  0  0  0  0  0  0  0
    4.2681   -5.2059    3.8910 H   0  0  0  0  0  0  0  0  0  0  0  0
    2.6233   -3.4940    3.0946 H   0  0  0  0  0  0  0  0  0  0  0  0
  1  2  1  0  0  0  0
  1 45  1  0  0  0  0
  2  3  2  0  0  0  0
  3  4  1  0  0  0  0
  3 51  1  0  0  0  0
  4  5  1  0  0  0  0
  5 27  1  0  0  0  0
  6  5  2  0  0  0  0
  7  6  1  0  0  0  0
  7 52  1  0  0  0  0
  8  7  2  0  0  0  0
  9  8  1  0  0  0  0
  9 46  1  0  0  0  0
 10 11  1  0  0  0  0
 10  9  2  0  0  0  0
 11 12  1  0  0  0  0
 11 47  2  0  0  0  0
 12 13  2  0  0  0  0
 13 14  1  0  0  0  0
 13 55  1  0  0  0  0
 14 15  2  0  0  0  0
 15 39  1  0  0  0  0
 16 17  1  0  0  0  0
 16 15  1  0  0  0  0
 17 56  1  0  0  0  0
 18 17  1  0  0  0  0
 19 18  2  0  0  0  0
 19 48  1  0  0  0  0
 20  1  2  0  0  0  0
 20 19  1  0  0  0  0
 21 26  1  0  0  0  0
 21 20  1  0  0  0  0
 22 21  2  0  0  0  0
 23 24  2  0  0  0  0
 23 22  1  0  0  0  0
 24 25  1  0  0  0  0
 25 61  1  0  0  0  0
 25 26  2  0  0  0  0
 26 49  1  0  0  0  0
 27 28  1  0  0  0  0
 28 29  2  0  0  0  0
 28 62  1  0  0  0  0
 29 63  1  0  0  0  0
 30 64  1  0  0  0  0
 30 29  1  0  0  0  0
 31 30  2  0  0  0  0
 32 31  1  0  0  0  0
 32 27  2  0  0  0  0
 33 10  1  0  0  0  0
 33 34  1  0  0  0  0
 34 67  1  0  0  0  0
 35 34  2  0  0  0  0
 35 68  1  0  0  0  0
 36 35  1  0  0  0  0
 37 38  1  0  0  0  0
 37 36  2  0  0  0  0
 38 33  2  0  0  0  0
 39 44  1  0  0  0  0
 40 41  1  0  0  0  0
 40 39  2  0  0  0  0
 41 42  2  0  0  0  0
 42 74  1  0  0  0  0
 42 43  1  0  0  0  0
 43 75  1  0  0  0  0
 44 43  2  0  0  0  0
 44 76  1  0  0  0  0
 45  4  2  0  0  0  0
 46  6  1  0  0  0  0
 47 14  1  0  0  0  0
 48 16  2  0  0  0  0
 49 50  1  0  0  0  0
 49  2  1  0  0  0  0
 53  8  1  0  0  0  0
 54 12  1  0  0  0  0
 57 18  1  0  0  0  0
 58 22  1  0  0  0  0
 59 23  1  0  0  0  0
 60 24  1  0  0  0  0
 65 31  1  0  0  0  0
 66 32  1  0  0  0  0
 69 36  1  0  0  0  0
 70 37  1  0  0  0  0
 71 38  1  0  0  0  0
 72 40  1  0  0  0  0
 73 41  1  0  0  0  0
M  END
