11,12,13,14
q = -2.0, confidence = 0.648

 54 59  0  0  0  0  0  0  0  0999 V2000
   -4.8607    1.3272   -1.9149 F   0  0  0  0  0  0  0  0  0  0  0  0
   -7.5656    1.1932   -2.0824 F   0  0  0  0  0  0  0  0  0  0  0  0
   -8.9827   -0.2649   -0.2502 F   0  0  0  0  0  0  0  0  0  0  0  0
   -7.6780   -1.5841    1.7618 F   0  0  0  0  0  0  0  0  0  0  0  0
   -4.9777   -1.4484    1.9514 F   0  0  0  0  0  0  0  0  0  0  0  0
    4.8595    1.3284    1.9142 F   0  0  0  0  0  0  0  0  0  0  0  0
    7.5643    1.1945    2.0835 F   0  0  0  0  0  0  0  0  0  0  0  0
    8.9825   -0.2649    0.2531 F   0  0  0  0  0  0  0  0  0  0  0  0
    7.6791   -1.5853   -1.7588 F   0  0  0  0  0  0  0  0  0  0  0  0
    4.9788   -1.4496   -1.9503 F   0  0  0  0  0  0  0  0  0  0  0  0
   -1.3695    1.4982    0.4219 N   0  0  0  0  0  0  0  0  0  0  0  0
   -1.2125   -1.1263    0.0789 N   0  0  0  0  0  2  0  0  0  0  0  0
    1.2126   -1.1263   -0.0820 N   0  0  0  0  0  2  0  0  0  0  0  0
    1.3697    1.4984   -0.4227 N   0  0  0  0  0  0  0  0  0  0  0  0
   -1.1996    2.7371    0.9407 C   0  0  0  0  0  3  0  0  0  0  0  0
   -0.1968    3.1188    1.1658 H   0  0  0  0  0  0  0  0  0  0  0  0
   -2.4513    3.3788    1.1622 C   0  0  0  0  0  0  0  0  0  0  0  0
   -2.5962    4.3820    1.5787 H   0  0  0  0  0  0  0  0  0  0  0  0
   -3.4281    2.4650    0.7785 C   0  0  0  0  0  0  0  0  0  0  0  0
   -4.5159    2.5833    0.8397 H   0  0  0  0  0  0  0  0  0  0  0  0
   -2.7471    1.2750    0.3429 C   0  0  0  0  0  0  0  0  0  0  0  0
   -3.3447    0.0133    0.0996 C   0  0  0  0  0  0  0  0  0  0  0  0
   -2.5847   -1.1710   -0.0025 C   0  0  0  0  0  0  0  0  0  0  0  0
   -2.9753   -2.5534   -0.1419 C   0  0  0  0  0  0  0  0  0  0  0  0
   -4.0037   -2.9198   -0.2324 H   0  0  0  0  0  0  0  0  0  0  0  0
   -1.8098   -3.3173   -0.1253 C   0  0  0  0  0  0  0  0  0  0  0  0
   -1.7291   -4.4070   -0.2048 H   0  0  0  0  0  0  0  0  0  0  0  0
   -0.7200   -2.3945   -0.0018 C   0  0  0  0  0  0  0  0  0  0  0  0
    0.7200   -2.3945   -0.0004 C   0  0  0  0  0  0  0  0  0  0  0  0
    1.8097   -3.3171    0.1250 C   0  0  0  0  0  0  0  0  0  0  0  0
    1.7290   -4.4068    0.2053 H   0  0  0  0  0  0  0  0  0  0  0  0
    2.9752   -2.5532    0.1420 C   0  0  0  0  0  0  0  0  0  0  0  0
    4.0036   -2.9195    0.2337 H   0  0  0  0  0  0  0  0  0  0  0  0
    2.5846   -1.1709    0.0011 C   0  0  0  0  0  0  0  0  0  0  0  0
    3.3448    0.0134   -0.1004 C   0  0  0  0  0  0  0  0  0  0  0  0
    2.7473    1.2751   -0.3439 C   0  0  0  0  0  3  0  0  0  0  0  0
    3.4284    2.4650   -0.7796 C   0  0  0  0  0  0  0  0  0  0  0  0
    4.5162    2.5831   -0.8410 H   0  0  0  0  0  0  0  0  0  0  0  0
    2.4516    3.3789   -1.1633 C   0  0  0  0  0  0  0  0  0  0  0  0
    2.5965    4.3821   -1.5797 H   0  0  0  0  0  0  0  0  0  0  0  0
    1.1998    2.7374   -0.9415 C   0  0  0  0  0  0  0  0  0  0  0  0
    0.1970    3.1192   -1.1664 H   0  0  0  0  0  0  0  0  0  0  0  0
   -4.8262   -0.0655    0.0163 C   0  0  0  0  0  0  0  0  0  0  0  0
   -5.5267    0.6148   -1.0014 C   0  0  0  0  0  0  0  0  0  0  0  0
   -6.9259    0.5516   -1.1023 C   0  0  0  0  0  0  0  0  0  0  0  0
   -7.6546   -0.1999   -0.1644 C   0  0  0  0  0  0  0  0  0  0  0  0
   -6.9827   -0.8820    0.8644 C   0  0  0  0  0  0  0  0  0  0  0  0
   -5.5824   -0.8092    0.9449 C   0  0  0  0  0  0  0  0  0  0  0  0
    4.8262   -0.0654   -0.0161 C   0  0  0  0  0  0  0  0  0  0  0  0
    5.5261    0.6155    1.0016 C   0  0  0  0  0  0  0  0  0  0  0  0
    6.9252    0.5523    1.1034 C   0  0  0  0  0  0  0  0  0  0  0  0
    7.6545   -0.1999    0.1665 C   0  0  0  0  0  0  0  0  0  0  0  0
    6.9832   -0.8825   -0.8623 C   0  0  0  0  0  0  0  0  0  0  0  0
    5.5829   -0.8097   -0.9438 C   0  0  0  0  0  0  0  0  0  0  0  0
  1 44  1  0  0  0  0
  2 45  1  0  0  0  0
  3 46  1  0  0  0  0
  9 53  1  0  0  0  0
 10 54  1  0  0  0  0
 11 15  1  0  0  0  0
 13 29  1  0  0  0  0
 13 34  1  0  0  0  0
 14 36  1  0  0  0  0
 15 17  1  0  0  0  0
 15 16  1  0  0  0  0
 17 18  1  0  0  0  0
 19 20  1  0  0  0  0
 19 17  2  0  0  0  0
 21 11  2  0  0  0  0
 21 19  1  0  0  0  0
 22 21  1  0  0  0  0
 23 12  1  0  0  0  0
 23 22  2  0  0  0  0
 24 26  2  0  0  0  0
 24 23  1  0  0  0  0
 25 24  1  0  0  0  0
 26 28  1  0  0  0  0
 27 26  1  0  0  0  0
 28 29  2  0  0  0  0
 28 12  1  0  0  0  0
 29 30  1  0  0  0  0
 30 32  2  0  0  0  0
 30 31  1  0  0  0  0
 32 33  1  0  0  0  0
 34 32  1  0  0  0  0
 35 49  1  0  0  0  0
 35 34  2  0  0  0  0
 36 35  1  0  0  0  0
 37 36  1  0  0  0  0
 38 37  1  0  0  0  0
 39 41  1  0  0  0  0
 39 37  2  0  0  0  0
 40 39  1  0  0  0  0
 41 14  2  0  0  0  0
 42 41  1  0  0  0  0
 43 22  1  0  0  0  0
 43 48  1  0  0  0  0
 44 43  2  0  0  0  0
 45 44  1  0  0  0  0
 45 46  2  0  0  0  0
 46 47  1  0  0  0  0
 47 48  2  0  0  0  0
 47  4  1  0  0  0  0
 48  5  1  0  0  0  0
 49 50  1  0  0  0  0
 50 51  2  0  0  0  0
 50  6  1  0  0  0  0
 51  7  1  0  0  0  0
 52  8  1  0  0  0  0
 52 51  1  0  0  0  0
 53 52  2  0  0  0  0
 54 53  1  0  0  0  0
 54 49  2  0  0  0  0
M  END
