27,29,35,36
q = 0.0, confidence = 0.994

 62 64  0  0  0  0  0  0  0  0999 V2000
    1.7453    1.2167    2.0627 C   0  0  0  0  0  0  0  0  0  0  0  0
    1.1926    2.1724    1.9617 H   0  0  0  0  0  0  0  0  0  0  0  0
    2.1037    1.1097    3.1109 H   0  0  0  0  0  0  0  0  0  0  0  0
   -0.3860    0.1863    2.7430 C   0  0  0  0  0  0  0  0  0  0  0  0
   -0.8063    1.2137    2.7137 H   0  0  0  0  0  0  0  0  0  0  0  0
   -0.0588   -0.0307    3.7835 H   0  0  0  0  0  0  0  0  0  0  0  0
   -1.4124   -0.8099    2.2507 C   0  0  0  0  0  0  0  0  0  0  0  0
   -0.9936   -1.8380    2.2773 H   0  0  0  0  0  0  0  0  0  0  0  0
   -2.3400   -0.7925    2.8635 H   0  0  0  0  0  0  0  0  0  0  0  0
   -2.5340   -1.5099    0.1764 C   0  0  0  0  0  0  0  0  0  0  0  0
   -1.9507   -2.4511    0.2145 H   0  0  0  0  0  0  0  0  0  0  0  0
   -3.4689   -1.6320    0.7639 H   0  0  0  0  0  0  0  0  0  0  0  0
    3.8723    0.1523    1.4195 C   0  0  0  0  0  0  0  0  0  0  0  0
    4.1229    0.2044    2.5016 H   0  0  0  0  0  0  0  0  0  0  0  0
    3.4823   -0.8722    1.2338 H   0  0  0  0  0  0  0  0  0  0  0  0
    5.1220    0.3642    0.5960 C   0  0  0  0  0  0  0  0  0  0  0  0
    5.5305   -0.6078   -0.3375 C   0  0  0  0  0  0  0  0  0  0  0  0
    4.9241   -1.5193   -0.4606 H   0  0  0  0  0  0  0  0  0  0  0  0
    6.6867   -0.4071   -1.1101 C   0  0  0  0  0  0  0  0  0  0  0  0
    6.9983   -1.1745   -1.8352 H   0  0  0  0  0  0  0  0  0  0  0  0
    7.4396    0.7672   -0.9610 C   0  0  0  0  0  0  0  0  0  0  0  0
    8.3454    0.9243   -1.5665 H   0  0  0  0  0  0  0  0  0  0  0  0
    7.0335    1.7445   -0.0355 C   0  0  0  0  0  0  0  0  0  0  0  0
    7.6221    2.6669    0.0855 H   0  0  0  0  0  0  0  0  0  0  0  0
    5.8820    1.5436    0.7376 C   0  0  0  0  0  0  0  0  0  0  0  0
    5.5545    2.3103    1.4574 H   0  0  0  0  0  0  0  0  0  0  0  0
    0.7472    0.1294    1.7965 N   0  0  0  0  0  0  0  0  0  0  0  0
    1.2124   -0.8082    1.8775 H   0  0  0  0  0  0  0  0  0  0  0  0
   -1.6925   -0.4652    0.8417 N   0  0  0  0  0  0  0  0  0  0  0  0
   -2.1906    0.4588    0.8174 H   0  0  0  0  0  0  0  0  0  0  0  0
    2.8641    1.2037    1.1787 N   0  0  0  0  0  0  0  0  0  0  0  0
    2.5341    1.5100   -0.1765 C   0  0  0  0  0  0  0  0  0  0  0  0
    1.9507    2.4512   -0.2145 H   0  0  0  0  0  0  0  0  0  0  0  0
    3.4688    1.6322   -0.7641 H   0  0  0  0  0  0  0  0  0  0  0  0
    1.6924    0.4653   -0.8419 N   0  0  0  0  0  0  0  0  0  0  0  0
   -0.7472   -0.1292   -1.7968 N   0  0  0  0  0  0  0  0  0  0  0  0
   -1.7450   -1.2169   -2.0628 C   0  0  0  0  0  0  0  0  0  0  0  0
   -1.1921   -2.1723   -1.9614 H   0  0  0  0  0  0  0  0  0  0  0  0
   -2.1034   -1.1103   -3.1111 H   0  0  0  0  0  0  0  0  0  0  0  0
   -2.8639   -1.2038   -1.1789 N   0  0  0  0  0  0  0  0  0  0  0  0
   -3.8721   -0.1524   -1.4198 C   0  0  0  0  0  0  0  0  0  0  0  0
   -4.1224   -0.2043   -2.5020 H   0  0  0  0  0  0  0  0  0  0  0  0
   -3.4821    0.8722   -1.2339 H   0  0  0  0  0  0  0  0  0  0  0  0
   -5.1219   -0.3642   -0.5966 C   0  0  0  0  0  0  0  0  0  0  0  0
   -5.5304    0.6076    0.3371 C   0  0  0  0  0  0  0  0  0  0  0  0
   -4.9239    1.5190    0.4605 H   0  0  0  0  0  0  0  0  0  0  0  0
   -6.6868    0.4069    1.1094 C   0  0  0  0  0  0  0  0  0  0  0  0
   -6.9984    1.1743    1.8345 H   0  0  0  0  0  0  0  0  0  0  0  0
   -7.4398   -0.7672    0.9599 C   0  0  0  0  0  0  0  0  0  0  0  0
   -8.3458   -0.9243    1.5652 H   0  0  0  0  0  0  0  0  0  0  0  0
   -7.0337   -1.7444    0.0343 C   0  0  0  0  0  0  0  0  0  0  0  0
   -7.6224   -2.6667   -0.0869 H   0  0  0  0  0  0  0  0  0  0  0  0
   -5.8820   -1.5436   -0.7385 C   0  0  0  0  0  0  0  0  0  0  0  0
   -5.5544   -2.3101   -1.4584 H   0  0  0  0  0  0  0  0  0  0  0  0
    0.3861   -0.1862   -2.7432 C   0  0  0  0  0  0  0  0  0  0  0  0
    0.8063   -1.2136   -2.7139 H   0  0  0  0  0  0  0  0  0  0  0  0
    0.0591    0.0308   -3.7838 H   0  0  0  0  0  0  0  0  0  0  0  0
    1.4126    0.8100   -2.2509 C   0  0  0  0  0  0  0  0  0  0  0  0
    0.9938    1.8381   -2.2776 H   0  0  0  0  0  0  0  0  0  0  0  0
    2.3402    0.7926   -2.8636 H   0  0  0  0  0  0  0  0  0  0  0  0
    2.1903   -0.4588   -0.8174 H   0  0  0  0  0  0  0  0  0  0  0  0
   -1.2127    0.8080   -1.8785 H   0  0  0  0  0  0  0  0  0  0  0  0
  1  3  1  0  0  0  0
  2  1  1  0  0  0  0
  4  6  1  0  0  0  0
  5  4  1  0  0  0  0
  7  8  1  0  0  0  0
  7  4  1  0  0  0  0
  7  9  1  0  0  0  0
 10 11  1  0  0  0  0
 10 12  1  0  0  0  0
 10 29  1  0  0  0  0
 13 14  1  0  0  0  0
 15 13  1  0  0  0  0
 16 25  1  0  0  0  0
 16 13  1  0  0  0  0
 17 16  2  0  0  0  0
 18 17  1  0  0  0  0
 19 21  2  0  0  0  0
 19 17  1  0  0  0  0
 20 19  1  0  0  0  0
 21 23  1  0  0  0  0
 22 21  1  0  0  0  0
 23 24  1  0  0  0  0
 23 25  2  0  0  0  0
 25 26  1  0  0  0  0
 27 28  1  0  0  0  0
 27  1  1  0  0  0  0
 27  4  1  0  0  0  0
 29  7  1  0  0  0  0
 30 29  1  0  0  0  0
 31 13  1  0  0  0  0
 31  1  1  0  0  0  0
 32 31  1  0  0  0  0
 33 32  1  0  0  0  0
 34 32  1  0  0  0  0
 35 61  1  0  0  0  0
 35 32  1  0  0  0  0
 37 38  1  0  0  0  0
 37 36  1  0  0  0  0
 37 40  1  0  0  0  0
 39 37  1  0  0  0  0
 40 10  1  0  0  0  0
 41 43  1  0  0  0  0
 41 40  1  0  0  0  0
 41 44  1  0  0  0  0
 42 41  1  0  0  0  0
 44 45  1  0  0  0  0
 45 46  1  0  0  0  0
 45 47  2  0  0  0  0
 47 48  1  0  0  0  0
 49 47  1  0  0  0  0
 49 50  1  0  0  0  0
 51 49  2  0  0  0  0
 52 51  1  0  0  0  0
 53 44  2  0  0  0  0
 53 51  1  0  0  0  0
 54 53  1  0  0  0  0
 55 56  1  0  0  0  0
 55 58  1  0  0  0  0
 55 36  1  0  0  0  0
 57 55  1  0  0  0  0
 58 35  1  0  0  0  0
 59 58  1  0  0  0  0
 60 58  1  0  0  0  0
 62 36  1  0  0  0  0
M  END
