1,2,3,4
q = 0.0, confidence = 0.976

 46 46  0  0  1  0  0  0  0  0999 V2000
   -0.4680    1.3768    1.4873 N   0  0  0  0  0  0  0  0  0  0  0  0
    1.2929    1.3499   -0.4511 N   0  0  0  0  0  2  0  0  0  0  0  0
    1.1401   -0.7796    1.3948 N   0  0  0  0  0  2  0  0  0  0  0  0
   -1.6759   -0.9698    0.6444 N   0  0  0  0  0  2  0  0  0  0  0  0
   -0.2551    2.6864    0.8278 C   0  0  0  0  0  0  0  0  0  0  0  0
   -0.2181    3.5237    1.5611 H   0  0  0  0  0  0  0  0  0  0  0  0
   -1.1106    2.8533    0.1438 H   0  0  0  0  0  0  0  0  0  0  0  0
    1.0103    2.6034    0.0168 C   0  0  2  0  0  3  0  0  0  0  0  0
    1.8318    3.7006   -0.2570 C   0  0  0  0  0  0  0  0  0  0  0  0
    1.5668    4.6883    0.1483 H   0  0  0  0  0  0  0  0  0  0  0  0
    2.9779    3.5221   -1.0476 C   0  0  0  0  0  0  0  0  0  0  0  0
    3.6348    4.3719   -1.2839 H   0  0  0  0  0  0  0  0  0  0  0  0
    3.2650    2.2327   -1.5189 C   0  0  0  0  0  0  0  0  0  0  0  0
    4.1513    2.0333   -2.1379 H   0  0  0  0  0  0  0  0  0  0  0  0
    2.4103    1.1732   -1.1985 C   0  0  0  0  0  0  0  0  0  0  0  0
    2.6035    0.1499   -1.5502 H   0  0  0  0  0  0  0  0  0  0  0  0
    0.4726    1.1738    2.6320 C   0  0  0  0  0  0  0  0  0  0  0  0
   -0.0808    0.6619    3.4433 H   0  0  0  0  0  0  0  0  0  0  0  0
    0.8071    2.1533    3.0349 H   0  0  0  0  0  0  0  0  0  0  0  0
    1.6631    0.3044    2.2306 C   0  0  0  0  0  0  0  0  0  0  0  0
    2.4114    0.8876    1.6570 H   0  0  0  0  0  0  0  0  0  0  0  0
    2.1647   -0.0528    3.1525 H   0  0  0  0  0  0  0  0  0  0  0  0
    1.5059   -2.0150    1.6304 C   0  0  0  0  0  3  0  0  0  0  0  0
    0.8904   -3.1728    0.9120 C   0  0  0  0  0  0  0  0  0  0  0  0
   -0.0410   -2.8863    0.4007 H   0  0  0  0  0  0  0  0  0  0  0  0
    0.7054   -3.9957    1.6347 H   0  0  0  0  0  0  0  0  0  0  0  0
    1.5945   -3.5659    0.1420 H   0  0  0  0  0  0  0  0  0  0  0  0
    2.5684   -2.3715    2.6480 C   0  0  0  0  0  0  0  0  0  0  0  0
    3.4403   -1.6898    2.6137 H   0  0  0  0  0  0  0  0  0  0  0  0
    2.9331   -3.3987    2.4613 H   0  0  0  0  0  0  0  0  0  0  0  0
    2.1666   -2.3538    3.6853 H   0  0  0  0  0  0  0  0  0  0  0  0
   -1.8696    1.1046    1.8822 C   0  0  0  0  0  0  0  0  0  0  0  0
   -2.5404    1.5183    1.1035 H   0  0  0  0  0  0  0  0  0  0  0  0
   -2.1224    1.5865    2.8547 H   0  0  0  0  0  0  0  0  0  0  0  0
   -2.0498   -0.4102    1.9477 C   0  0  0  0  0  0  0  0  0  0  0  0
   -1.3821   -0.8485    2.7220 H   0  0  0  0  0  0  0  0  0  0  0  0
   -3.0904   -0.6379    2.2481 H   0  0  0  0  0  0  0  0  0  0  0  0
   -2.5573   -1.6547   -0.0350 C   0  0  0  0  0  3  0  0  0  0  0  0
   -2.2724   -2.1421   -1.4181 C   0  0  0  0  0  0  0  0  0  0  0  0
   -1.2685   -1.8477   -1.7656 H   0  0  0  0  0  0  0  0  0  0  0  0
   -3.0424   -1.7122   -2.0953 H   0  0  0  0  0  0  0  0  0  0  0  0
   -2.3881   -3.2465   -1.4611 H   0  0  0  0  0  0  0  0  0  0  0  0
   -3.9582   -1.9394    0.4607 C   0  0  0  0  0  0  0  0  0  0  0  0
   -4.0115   -2.2333    1.5265 H   0  0  0  0  0  0  0  0  0  0  0  0
   -4.4151   -2.7457   -0.1417 H   0  0  0  0  0  0  0  0  0  0  0  0
   -4.5782   -1.0280    0.3104 H   0  0  0  0  0  0  0  0  0  0  0  0
  1 32  1  0  0  0  0
  1 17  1  0  0  0  0
  2  8  1  0  0  0  0
  3 23  1  0  0  0  0
  3 20  1  0  0  0  0
  4 35  1  0  0  0  0
  5  1  1  0  0  0  0
  5  6  1  0  0  0  0
  7  5  1  0  0  0  0
  8  5  1  6  0  0  0
  9  8  1  0  0  0  0
  9 10  1  0  0  0  0
 11  9  2  0  0  0  0
 12 11  1  0  0  0  0
 13 15  2  0  0  0  0
 13 11  1  0  0  0  0
 14 13  1  0  0  0  0
 15  2  1  0  0  0  0
 16 15  1  0  0  0  0
 17 19  1  0  0  0  0
 17 18  1  0  0  0  0
 20 17  1  0  0  0  0
 20 22  1  0  0  0  0
 21 20  1  0  0  0  0
 23 28  1  0  0  0  0
 24 23  1  0  0  0  0
 24 26  1  0  0  0  0
 25 24  1  0  0  0  0
 27 24  1  0  0  0  0
 28 31  1  0  0  0  0
 29 28  1  0  0  0  0
 30 28  1  0  0  0  0
 32 35  1  0  0  0  0
 32 34  1  0  0  0  0
 33 32  1  0  0  0  0
 35 37  1  0  0  0  0
 35 36  1  0  0  0  0
 38 43  1  0  0  0  0
 38  4  1  0  0  0  0
 39 38  1  0  0  0  0
 40 39  1  0  0  0  0
 41 39  1  0  0  0  0
 42 39  1  0  0  0  0
 43 44  1  0  0  0  0
 45 43  1  0  0  0  0
 46 43  1  0  0  0  0
M  END
