1,11,24,32
q = 0.0, confidence = 0.996

 49 51  0  0  0  0  0  0  0  0999 V2000
    1.1532    2.0354    0.0325 N   0  0  0  0  0  2  0  0  0  0  0  0
    2.2372    2.8147    0.2968 C   0  0  0  0  0  3  0  0  0  0  0  0
    3.1912    2.2623    0.3365 H   0  0  0  0  0  0  0  0  0  0  0  0
    2.1425    4.1996    0.4531 C   0  0  0  0  0  0  0  0  0  0  0  0
    3.0568    4.7765    0.6551 H   0  0  0  0  0  0  0  0  0  0  0  0
    0.8922    4.8299    0.3489 C   0  0  0  0  0  0  0  0  0  0  0  0
    0.7903    5.9182    0.4704 H   0  0  0  0  0  0  0  0  0  0  0  0
   -0.2295    4.0272    0.0865 C   0  0  0  0  0  0  0  0  0  0  0  0
   -1.2358    4.4629   -0.0018 H   0  0  0  0  0  0  0  0  0  0  0  0
   -0.0675    2.6484   -0.0750 C   0  0  0  0  0  0  0  0  0  0  0  0
    1.2124   -1.8141   -0.2956 N   0  0  0  0  0  2  0  0  0  0  0  0
    0.8960   -2.5797   -1.3729 C   0  0  0  0  0  3  0  0  0  0  0  0
    0.5727   -2.0063   -2.2574 H   0  0  0  0  0  0  0  0  0  0  0  0
    1.0100   -3.9718   -1.3628 C   0  0  0  0  0  0  0  0  0  0  0  0
    0.7412   -4.5356   -2.2679 H   0  0  0  0  0  0  0  0  0  0  0  0
    1.4643   -4.6248   -0.2060 C   0  0  0  0  0  0  0  0  0  0  0  0
    1.5523   -5.7204   -0.1672 H   0  0  0  0  0  0  0  0  0  0  0  0
    1.8205   -3.8355    0.8989 C   0  0  0  0  0  0  0  0  0  0  0  0
    2.2068   -4.2899    1.8236 H   0  0  0  0  0  0  0  0  0  0  0  0
    1.7062   -2.4452    0.8170 C   0  0  0  0  0  0  0  0  0  0  0  0
    2.1741   -1.4987    1.8848 C   0  0  0  0  0  0  0  0  0  0  0  0
    2.1494   -1.9572    2.8983 H   0  0  0  0  0  0  0  0  0  0  0  0
    3.2079   -1.1820    1.6219 H   0  0  0  0  0  0  0  0  0  0  0  0
    1.3422   -0.2801    1.7825 N   0  0  0  0  0  0  0  0  0  0  0  0
    1.8221    0.5073    2.2417 H   0  0  0  0  0  0  0  0  0  0  0  0
   -0.0120   -0.4800    2.3473 C   0  0  0  0  0  0  0  0  0  0  0  0
   -0.0223   -0.3810    3.4558 H   0  0  0  0  0  0  0  0  0  0  0  0
   -0.3102   -1.5239    2.1162 H   0  0  0  0  0  0  0  0  0  0  0  0
   -0.9711    0.4980    1.7011 C   0  0  0  0  0  0  0  0  0  0  0  0
   -2.0147    0.3398    2.0503 H   0  0  0  0  0  0  0  0  0  0  0  0
   -0.6932    1.5344    1.9818 H   0  0  0  0  0  0  0  0  0  0  0  0
   -0.8699    0.3927    0.2218 N   0  0  0  0  0  0  0  0  0  0  0  0
   -1.1826    1.7047   -0.4031 C   0  0  0  0  0  0  0  0  0  0  0  0
   -2.1725    2.0990   -0.0858 H   0  0  0  0  0  0  0  0  0  0  0  0
   -1.1722    1.5293   -1.5017 H   0  0  0  0  0  0  0  0  0  0  0  0
   -1.7001   -0.7070   -0.3607 C   0  0  0  0  0  0  0  0  0  0  0  0
   -1.3599   -1.6530    0.1012 H   0  0  0  0  0  0  0  0  0  0  0  0
   -1.4105   -0.7343   -1.4313 H   0  0  0  0  0  0  0  0  0  0  0  0
   -3.1939   -0.5544   -0.1906 C   0  0  0  0  0  0  0  0  0  0  0  0
   -3.8618   -1.1407    0.9055 C   0  0  0  0  0  0  0  0  0  0  0  0
   -3.2898   -1.7554    1.6198 H   0  0  0  0  0  0  0  0  0  0  0  0
   -5.2436   -0.9744    1.0843 C   0  0  0  0  0  0  0  0  0  0  0  0
   -5.7465   -1.4444    1.9433 H   0  0  0  0  0  0  0  0  0  0  0  0
   -5.9839   -0.2186    0.1619 C   0  0  0  0  0  0  0  0  0  0  0  0
   -7.0682   -0.0881    0.2977 H   0  0  0  0  0  0  0  0  0  0  0  0
   -5.3367    0.3566   -0.9438 C   0  0  0  0  0  0  0  0  0  0  0  0
   -5.9145    0.9344   -1.6812 H   0  0  0  0  0  0  0  0  0  0  0  0
   -3.9556    0.1873   -1.1188 C   0  0  0  0  0  0  0  0  0  0  0  0
   -3.4561    0.6237   -1.9976 H   0  0  0  0  0  0  0  0  0  0  0  0
  1  2  1  0  0  0  0
  2  3  1  0  0  0  0
  2  4  1  0  0  0  0
  4  5  1  0  0  0  0
  6  4  2  0  0  0  0
  6  7  1  0  0  0  0
  8  6  1  0  0  0  0
  9  8  1  0  0  0  0
 10  1  1  0  0  0  0
 10  8  2  0  0  0  0
 11 20  1  0  0  0  0
 12 14  1  0  0  0  0
 12 11  1  0  0  0  0
 13 12  1  0  0  0  0
 14 16  2  0  0  0  0
 15 14  1  0  0  0  0
 16 17  1  0  0  0  0
 16 18  1  0  0  0  0
 18 19  1  0  0  0  0
 20 18  2  0  0  0  0
 20 21  1  0  0  0  0
 21 22  1  0  0  0  0
 23 21  1  0  0  0  0
 24 21  1  0  0  0  0
 24 25  1  0  0  0  0
 24 26  1  0  0  0  0
 26 27  1  0  0  0  0
 28 26  1  0  0  0  0
 29 31  1  0  0  0  0
 29 30  1  0  0  0  0
 29 26  1  0  0  0  0
 32 29  1  0  0  0  0
 33 34  1  0  0  0  0
 33 10  1  0  0  0  0
 33 32  1  0  0  0  0
 35 33  1  0  0  0  0
 36 39  1  0  0  0  0
 36 37  1  0  0  0  0
 36 32  1  0  0  0  0
 38 36  1  0  0  0  0
 39 40  1  0  0  0  0
 40 42  2  0  0  0  0
 40 41  1  0  0  0  0
 42 43  1  0  0  0  0
 44 45  1  0  0  0  0
 44 42  1  0  0  0  0
 46 44  2  0  0  0  0
 47 46  1  0  0  0  0
 48 46  1  0  0  0  0
 48 39  2  0  0  0  0
 49 48  1  0  0  0  0
M  END
