1,11,24,31
q = 0.0, confidence = 0.968

 49 51  0  0  0  0  0  0  0  0999 V2000
   -1.7086   -1.8129   -0.2818 N   0  0  0  0  0  2  0  0  0  0  0  0
   -1.4136   -2.5809   -1.3635 C   0  0  0  0  0  3  0  0  0  0  0  0
   -1.1038   -2.0098   -2.2544 H   0  0  0  0  0  0  0  0  0  0  0  0
   -1.5323   -3.9726   -1.3499 C   0  0  0  0  0  0  0  0  0  0  0  0
   -1.2813   -4.5384   -2.2588 H   0  0  0  0  0  0  0  0  0  0  0  0
   -1.9691   -4.6225   -0.1847 C   0  0  0  0  0  0  0  0  0  0  0  0
   -2.0604   -5.7177   -0.1432 H   0  0  0  0  0  0  0  0  0  0  0  0
   -2.3036   -3.8308    0.9252 C   0  0  0  0  0  0  0  0  0  0  0  0
   -2.6759   -4.2828    1.8567 H   0  0  0  0  0  0  0  0  0  0  0  0
   -2.1858   -2.4409    0.8397 C   0  0  0  0  0  0  0  0  0  0  0  0
   -1.6356    2.0375    0.0417 N   0  0  0  0  0  2  0  0  0  0  0  0
   -2.7137    2.8186    0.3241 C   0  0  0  0  0  3  0  0  0  0  0  0
   -3.6679    2.2681    0.3794 H   0  0  0  0  0  0  0  0  0  0  0  0
   -2.6137    4.2033    0.4793 C   0  0  0  0  0  0  0  0  0  0  0  0
   -3.5235    4.7819    0.6965 H   0  0  0  0  0  0  0  0  0  0  0  0
   -1.3641    4.8313    0.3549 C   0  0  0  0  0  0  0  0  0  0  0  0
   -1.2582    5.9193    0.4752 H   0  0  0  0  0  0  0  0  0  0  0  0
   -0.2484    4.0267    0.0738 C   0  0  0  0  0  0  0  0  0  0  0  0
    0.7571    4.4609   -0.0309 H   0  0  0  0  0  0  0  0  0  0  0  0
   -0.4159    2.6483   -0.0856 C   0  0  0  0  0  0  0  0  0  0  0  0
    0.6918    1.7027   -0.4329 C   0  0  0  0  0  0  0  0  0  0  0  0
    0.6615    1.5274   -1.5312 H   0  0  0  0  0  0  0  0  0  0  0  0
    1.6874    2.0957   -0.1322 H   0  0  0  0  0  0  0  0  0  0  0  0
    0.3875    0.3911    0.1971 N   0  0  0  0  0  0  0  0  0  0  0  0
    0.5152    0.4949    1.6743 C   0  0  0  0  0  0  0  0  0  0  0  0
    0.2462    1.5323    1.9602 H   0  0  0  0  0  0  0  0  0  0  0  0
    1.5643    0.3338    2.0058 H   0  0  0  0  0  0  0  0  0  0  0  0
   -0.4358   -0.4797    2.3377 C   0  0  0  0  0  0  0  0  0  0  0  0
   -0.1453   -1.5249    2.1027 H   0  0  0  0  0  0  0  0  0  0  0  0
   -0.4059   -0.3796    3.4458 H   0  0  0  0  0  0  0  0  0  0  0  0
   -1.7989   -0.2758    1.7962 N   0  0  0  0  0  0  0  0  0  0  0  0
   -2.2681    0.5134    2.2634 H   0  0  0  0  0  0  0  0  0  0  0  0
   -2.6327   -1.4917    1.9141 C   0  0  0  0  0  0  0  0  0  0  0  0
   -3.6699   -1.1723    1.6684 H   0  0  0  0  0  0  0  0  0  0  0  0
   -2.5921   -1.9490    2.9277 H   0  0  0  0  0  0  0  0  0  0  0  0
    1.2027   -0.7106   -0.4020 C   0  0  0  0  0  0  0  0  0  0  0  0
    0.8885   -0.7390   -1.4658 H   0  0  0  0  0  0  0  0  0  0  0  0
    0.8722   -1.6556    0.0687 H   0  0  0  0  0  0  0  0  0  0  0  0
    2.6994   -0.5595   -0.2681 C   0  0  0  0  0  0  0  0  0  0  0  0
    3.3969   -1.1420    0.8110 C   0  0  0  0  0  0  0  0  0  0  0  0
    2.8480   -1.7557    1.5435 H   0  0  0  0  0  0  0  0  0  0  0  0
    4.7809   -0.9804    0.9627 C   0  0  0  0  0  0  0  0  0  0  0  0
    5.3180   -1.4418    1.8033 H   0  0  0  0  0  0  0  0  0  0  0  0
    5.4883   -0.2233    0.0152 C   0  0  0  0  0  0  0  0  0  0  0  0
    7.2103   -0.0100    0.1925 Cl  0  0  0  0  0  0  0  0  0  0  0  0
    4.8250    0.3535   -1.0809 C   0  0  0  0  0  0  0  0  0  0  0  0
    5.3976    0.9259   -1.8240 H   0  0  0  0  0  0  0  0  0  0  0  0
    3.4416    0.1791   -1.2143 C   0  0  0  0  0  0  0  0  0  0  0  0
    2.9261    0.6159   -2.0834 H   0  0  0  0  0  0  0  0  0  0  0  0
  1 10  1  0  0  0  0
  2  4  1  0  0  0  0
  2  1  1  0  0  0  0
  3  2  1  0  0  0  0
  4  6  2  0  0  0  0
  5  4  1  0  0  0  0
  6  7  1  0  0  0  0
  6  8  1  0  0  0  0
  8  9  1  0  0  0  0
 10  8  2  0  0  0  0
 10 33  1  0  0  0  0
 11 12  1  0  0  0  0
 12 13  1  0  0  0  0
 12 14  1  0  0  0  0
 14 15  1  0  0  0  0
 16 17  1  0  0  0  0
 16 14  2  0  0  0  0
 18 16  1  0  0  0  0
 19 18  1  0  0  0  0
 20 11  1  0  0  0  0
 20 18  2  0  0  0  0
 21 23  1  0  0  0  0
 21 20  1  0  0  0  0
 21 24  1  0  0  0  0
 22 21  1  0  0  0  0
 24 25  1  0  0  0  0
 25 26  1  0  0  0  0
 25 27  1  0  0  0  0
 25 28  1  0  0  0  0
 28 30  1  0  0  0  0
 29 28  1  0  0  0  0
 31 33  1  0  0  0  0
 31 32  1  0  0  0  0
 31 28  1  0  0  0  0
 33 35  1  0  0  0  0
 34 33  1  0  0  0  0
 36 39  1  0  0  0  0
 36 38  1  0  0  0  0
 36 24  1  0  0  0  0
 37 36  1  0  0  0  0
 39 40  1  0  0  0  0
 40 42  2  0  0  0  0
 40 41  1  0  0  0  0
 42 43  1  0  0  0  0
 44 45  1  0  0  0  0
 44 42  1  0  0  0  0
 46 44  2  0  0  0  0
 47 46  1  0  0  0  0
 48 46  1  0  0  0  0
 48 39  2  0  0  0  0
 49 48  1  0  0  0  0
M  END
