5,6,17,18
q = -2.0, confidence = 0.518

 32 32  0  0  0  0  0  0  0  0999 V2000
    4.3600    0.8538    0.3124 F   0  0  0  0  0  0  0  0  0  0  0  0
    2.6176    0.4333    1.8008 F   0  0  0  0  0  0  0  0  0  0  0  0
    2.2424    1.6721   -0.1901 O   0  0  0  0  0  0  0  0  0  0  0  0
    2.7639   -0.7302   -0.2626 O   0  0  0  0  0  0  0  0  0  0  0  0
    0.9362    1.5464   -0.1001 N   0  0  0  0  0  2  0  0  0  0  0  0
    1.5049   -1.1395   -0.2036 N   0  0  0  0  0  2  0  0  0  0  0  0
    0.1970    2.7004   -0.3919 C   0  0  0  0  0  0  0  0  0  0  0  0
    1.2435   -2.4141   -0.3869 C   0  0  0  0  0  0  0  0  0  0  0  0
    0.7693    3.9166   -0.6299 C   0  0  0  0  0  3  0  0  0  0  0  0
    2.3216   -3.4221   -0.5883 C   0  0  0  0  0  0  0  0  0  0  0  0
    3.0504    0.5572    0.5045 B   0  0  0  0  0  0  0  0  0  0  0  0
    1.8621    4.0181   -0.6101 H   0  0  0  0  0  0  0  0  0  0  0  0
    0.1500    4.7967   -0.8426 H   0  0  0  0  0  0  0  0  0  0  0  0
    1.9894   -4.4349   -0.2981 H   0  0  0  0  0  0  0  0  0  0  0  0
    2.6387   -3.4487   -1.6528 H   0  0  0  0  0  0  0  0  0  0  0  0
    3.2109   -3.1332    0.0035 H   0  0  0  0  0  0  0  0  0  0  0  0
   -0.9362   -1.5464   -0.1001 N   0  0  0  0  0  2  0  0  0  0  0  0
   -1.5049    1.1395   -0.2036 N   0  0  0  0  0  2  0  0  0  0  0  0
   -1.2435    2.4141   -0.3869 C   0  0  0  0  0  0  0  0  0  0  0  0
   -0.1970   -2.7004   -0.3919 C   0  0  0  0  0  0  0  0  0  0  0  0
   -2.2424   -1.6721   -0.1901 O   0  0  0  0  0  0  0  0  0  0  0  0
   -2.7639    0.7302   -0.2626 O   0  0  0  0  0  0  0  0  0  0  0  0
   -2.3216    3.4221   -0.5883 C   0  0  0  0  0  0  0  0  0  0  0  0
   -0.7693   -3.9166   -0.6299 C   0  0  0  0  0  3  0  0  0  0  0  0
   -3.0504   -0.5572    0.5045 B   0  0  0  0  0  0  0  0  0  0  0  0
   -1.9894    4.4349   -0.2981 H   0  0  0  0  0  0  0  0  0  0  0  0
   -2.6387    3.4487   -1.6528 H   0  0  0  0  0  0  0  0  0  0  0  0
   -3.2109    3.1332    0.0035 H   0  0  0  0  0  0  0  0  0  0  0  0
   -1.8621   -4.0181   -0.6101 H   0  0  0  0  0  0  0  0  0  0  0  0
   -0.1500   -4.7967   -0.8426 H   0  0  0  0  0  0  0  0  0  0  0  0
   -4.3600   -0.8538    0.3124 F   0  0  0  0  0  0  0  0  0  0  0  0
   -2.6176   -0.4333    1.8008 F   0  0  0  0  0  0  0  0  0  0  0  0
  1 11  1  0  0  0  0
  3  5  1  0  0  0  0
  3 11  1  0  0  0  0
  4  6  1  0  0  0  0
  4 11  1  0  0  0  0
  7 19  2  0  0  0  0
  7  5  1  0  0  0  0
  8  6  1  0  0  0  0
  9 12  1  0  0  0  0
  9  7  1  0  0  0  0
 10  8  1  0  0  0  0
 10 14  1  0  0  0  0
 10 16  1  0  0  0  0
 11  2  1  0  0  0  0
 13  9  1  0  0  0  0
 15 10  1  0  0  0  0
 19 18  1  0  0  0  0
 20  8  2  0  0  0  0
 20 17  1  0  0  0  0
 21 17  1  0  0  0  0
 21 25  1  0  0  0  0
 22 18  1  0  0  0  0
 22 25  1  0  0  0  0
 23 19  1  0  0  0  0
 23 26  1  0  0  0  0
 23 28  1  0  0  0  0
 24 29  1  0  0  0  0
 24 20  1  0  0  0  0
 25 32  1  0  0  0  0
 27 23  1  0  0  0  0
 30 24  1  0  0  0  0
 31 25  1  0  0  0  0
M  END
