4,5,6,7
q = -2.0, confidence = 0.908

 74 78  0  0  1  0  0  0  0  0999 V2000
    2.5913    0.6396   -1.1218 O   0  0  0  0  0  0  0  0  0  0  0  0
    2.5522   -2.9704    0.2941 O   0  0  0  0  0  0  0  0  0  0  0  0
   -3.7985   -1.5186   -2.5837 O   0  0  0  0  0  0  0  0  0  0  0  0
    0.9173   -1.3231    0.5507 N   0  0  0  0  0  2  0  0  0  0  0  0
   -0.9132   -2.6254   -0.7226 N   0  0  0  0  0  0  0  0  0  0  0  0
   -2.2787   -0.3732   -1.1941 N   0  0  0  0  0  2  0  0  0  0  0  0
   -0.1926    1.0012   -0.2198 N   0  0  0  0  0  2  0  0  0  0  0  0
    0.8324    1.1599   -0.2874 H   0  0  0  0  0  0  0  0  0  0  0  0
    5.2534   -0.0109   -1.8796 C   0  0  0  0  0  0  0  0  0  0  0  0
    4.6957    0.7007   -2.5067 H   0  0  0  0  0  0  0  0  0  0  0  0
    6.5088   -0.4971   -2.2582 C   0  0  0  0  0  0  0  0  0  0  0  0
    6.9692   -0.1630   -3.2004 H   0  0  0  0  0  0  0  0  0  0  0  0
    7.1818   -1.4168   -1.4329 C   0  0  0  0  0  0  0  0  0  0  0  0
    8.1683   -1.8026   -1.7331 H   0  0  0  0  0  0  0  0  0  0  0  0
    6.5959   -1.8520   -0.2325 C   0  0  0  0  0  0  0  0  0  0  0  0
    7.1151   -2.5890    0.3985 H   0  0  0  0  0  0  0  0  0  0  0  0
    5.3442   -1.3582    0.1574 C   0  0  0  0  0  0  0  0  0  0  0  0
    4.8504   -1.7233    1.0689 H   0  0  0  0  0  0  0  0  0  0  0  0
    4.6706   -0.4282   -0.6632 C   0  0  0  0  0  0  0  0  0  0  0  0
    3.3309    0.0984   -0.2911 C   0  0  0  0  0  0  0  0  0  0  0  0
    2.8880    0.0441    1.1442 C   0  0  0  0  0  0  0  0  0  0  0  0
    3.6165    0.7575    2.1159 C   0  0  0  0  0  0  0  0  0  0  0  0
    4.5815    1.2087    1.8369 H   0  0  0  0  0  0  0  0  0  0  0  0
    3.1064    0.9243    3.4114 C   0  0  0  0  0  0  0  0  0  0  0  0
    3.6740    1.5000    4.1577 H   0  0  0  0  0  0  0  0  0  0  0  0
    1.8682    0.3521    3.7461 C   0  0  0  0  0  0  0  0  0  0  0  0
    1.4593    0.4735    4.7606 H   0  0  0  0  0  0  0  0  0  0  0  0
    1.1598   -0.3964    2.7962 C   0  0  0  0  0  0  0  0  0  0  0  0
    0.2092   -0.8816    3.0626 H   0  0  0  0  0  0  0  0  0  0  0  0
    1.6516   -0.5641    1.4859 C   0  0  0  0  0  0  0  0  0  0  0  0
    1.4487   -2.4771    0.0483 C   0  0  0  0  0  0  0  0  0  0  0  0
    0.4664   -3.1397   -0.9360 C   0  0  0  0  0  0  0  0  0  0  0  0
    0.7842   -2.8789   -1.9653 H   0  0  0  0  0  0  0  0  0  0  0  0
    0.5206   -4.2450   -0.8344 H   0  0  0  0  0  0  0  0  0  0  0  0
   -1.5458   -3.3259    0.4429 C   0  0  0  0  0  0  0  0  0  0  0  0
   -1.7381   -4.3815    0.1454 H   0  0  0  0  0  0  0  0  0  0  0  0
   -0.7849   -3.3284    1.2472 H   0  0  0  0  0  0  0  0  0  0  0  0
   -2.8147   -2.6694    0.9297 C   0  0  0  0  0  0  0  0  0  0  0  0
   -4.0780   -3.1298    0.5207 C   0  0  0  0  0  0  0  0  0  0  0  0
   -4.1510   -4.0145   -0.1311 H   0  0  0  0  0  0  0  0  0  0  0  0
   -5.2471   -2.4614    0.9217 C   0  0  0  0  0  0  0  0  0  0  0  0
   -6.2281   -2.8279    0.5846 H   0  0  0  0  0  0  0  0  0  0  0  0
   -5.1602   -1.3232    1.7343 C   0  0  0  0  0  0  0  0  0  0  0  0
   -6.0733   -0.7875    2.0345 H   0  0  0  0  0  0  0  0  0  0  0  0
   -3.9025   -0.8599    2.1574 C   0  0  0  0  0  0  0  0  0  0  0  0
   -3.8279    0.0372    2.7899 H   0  0  0  0  0  0  0  0  0  0  0  0
   -2.7407   -1.5325    1.7622 C   0  0  0  0  0  0  0  0  0  0  0  0
   -1.7542   -1.1607    2.0789 H   0  0  0  0  0  0  0  0  0  0  0  0
   -1.7767   -2.6263   -1.9244 C   0  0  0  0  0  0  0  0  0  0  0  0
   -2.3491   -3.5715   -2.0332 H   0  0  0  0  0  0  0  0  0  0  0  0
   -1.1285   -2.5259   -2.8180 H   0  0  0  0  0  0  0  0  0  0  0  0
   -2.7604   -1.4434   -1.9289 C   0  0  0  0  0  0  0  0  0  0  0  0
   -3.0278    0.7698   -0.9326 C   0  0  1  0  0  3  0  0  0  0  0  0
   -4.4390    0.8074   -1.1221 C   0  0  0  0  0  0  0  0  0  0  0  0
   -4.9202   -0.0735   -1.5586 H   0  0  0  0  0  0  0  0  0  0  0  0
   -5.1957    1.9192   -0.7564 C   0  0  0  0  0  0  0  0  0  0  0  0
   -6.2874    1.8891   -0.8987 H   0  0  0  0  0  0  0  0  0  0  0  0
   -4.5882    3.0605   -0.1990 C   0  0  0  0  0  0  0  0  0  0  0  0
   -5.1895    3.9282    0.1093 H   0  0  0  0  0  0  0  0  0  0  0  0
   -3.2043    3.0720   -0.0474 C   0  0  0  0  0  0  0  0  0  0  0  0
   -2.7108    3.9533    0.3860 H   0  0  0  0  0  0  0  0  0  0  0  0
   -2.3979    1.9634   -0.4173 C   0  0  0  0  0  0  0  0  0  0  0  0
   -0.9463    2.0699   -0.2842 C   0  0  0  0  0  0  0  0  0  0  0  0
   -0.2556    3.3882   -0.2203 C   0  0  0  0  0  0  0  0  0  0  0  0
   -0.5918    4.4487   -1.0907 C   0  0  0  0  0  0  0  0  0  0  0  0
   -1.4084    4.3147   -1.8152 H   0  0  0  0  0  0  0  0  0  0  0  0
    0.1263    5.6514   -1.0510 C   0  0  0  0  0  0  0  0  0  0  0  0
   -0.1370    6.4656   -1.7431 H   0  0  0  0  0  0  0  0  0  0  0  0
    1.1822    5.8162   -0.1396 C   0  0  0  0  0  0  0  0  0  0  0  0
    1.7407    6.7640   -0.1080 H   0  0  0  0  0  0  0  0  0  0  0  0
    1.5229    4.7678    0.7301 C   0  0  0  0  0  0  0  0  0  0  0  0
    2.3459    4.8903    1.4504 H   0  0  0  0  0  0  0  0  0  0  0  0
    0.8136    3.5607    0.6892 C   0  0  0  0  0  0  0  0  0  0  0  0
    1.0761    2.7441    1.3797 H   0  0  0  0  0  0  0  0  0  0  0  0
  1 20  2  0  0  0  0
  3 52  2  0  0  0  0
  4 30  1  0  0  0  0
  5 35  1  0  0  0  0
  8  7  1  0  0  0  0
  9 19  1  0  0  0  0
 10  9  1  0  0  0  0
 11  9  2  0  0  0  0
 11 13  1  0  0  0  0
 12 11  1  0  0  0  0
 13 15  2  0  0  0  0
 14 13  1  0  0  0  0
 15 17  1  0  0  0  0
 15 16  1  0  0  0  0
 17 18  1  0  0  0  0
 19 20  1  0  0  0  0
 19 17  2  0  0  0  0
 20 21  1  0  0  0  0
 21 30  2  0  0  0  0
 21 22  1  0  0  0  0
 22 24  2  0  0  0  0
 23 22  1  0  0  0  0
 24 26  1  0  0  0  0
 24 25  1  0  0  0  0
 26 27  1  0  0  0  0
 28 29  1  0  0  0  0
 28 26  2  0  0  0  0
 30 28  1  0  0  0  0
 31  2  2  0  0  0  0
 31  4  1  0  0  0  0
 32 34  1  0  0  0  0
 32  5  1  0  0  0  0
 32 31  1  0  0  0  0
 33 32  1  0  0  0  0
 35 38  1  0  0  0  0
 35 37  1  0  0  0  0
 36 35  1  0  0  0  0
 38 47  1  0  0  0  0
 39 41  1  0  0  0  0
 39 38  2  0  0  0  0
 40 39  1  0  0  0  0
 41 43  2  0  0  0  0
 42 41  1  0  0  0  0
 43 44  1  0  0  0  0
 43 45  1  0  0  0  0
 45 46  1  0  0  0  0
 47 48  1  0  0  0  0
 47 45  2  0  0  0  0
 49  5  1  0  0  0  0
 50 49  1  0  0  0  0
 51 49  1  0  0  0  0
 52 49  1  0  0  0  0
 52  6  1  0  0  0  0
 53  6  1  1  0  0  0
 53 62  1  0  0  0  0
 54 53  1  0  0  0  0
 54 56  2  0  0  0  0
 55 54  1  0  0  0  0
 56 58  1  0  0  0  0
 57 56  1  0  0  0  0
 58 60  2  0  0  0  0
 58 59  1  0  0  0  0
 60 61  1  0  0  0  0
 62 63  2  0  0  0  0
 62 60  1  0  0  0  0
 63 64  1  0  0  0  0
 63  7  1  0  0  0  0
 64 73  1  0  0  0  0
 65 67  1  0  0  0  0
 65 64  2  0  0  0  0
 66 65  1  0  0  0  0
 67 69  2  0  0  0  0
 68 67  1  0  0  0  0
 69 70  1  0  0  0  0
 69 71  1  0  0  0  0
 71 72  1  0  0  0  0
 73 71  2  0  0  0  0
 73 74  1  0  0  0  0
M  END
