3,9,10,26
q = -2.0, confidence = 0.952

 59 60  0  0  0  0  0  0  0  0999 V2000
   -3.0460    1.2071    1.2097 Si  0  0  0  0  0  0  0  0  0  0  0  0
   -3.2436   -1.0693   -1.1167 Si  0  0  0  0  0  0  0  0  0  0  0  0
    1.5190   -1.2314   -1.4649 N   0  0  0  0  0  2  0  0  0  0  0  0
    2.8424   -3.4543    2.1696 C   0  0  0  0  0  0  0  0  0  0  0  0
    3.2325   -4.0414    3.0095 H   0  0  0  0  0  0  0  0  0  0  0  0
    2.4389   -3.9342    0.9091 C   0  0  0  0  0  0  0  0  0  0  0  0
    2.4619   -4.9694    0.5486 H   0  0  0  0  0  0  0  0  0  0  0  0
   -3.0231   -0.2042    0.3034 O   0  0  0  0  0  0  0  0  0  0  0  0
    1.7260    1.1600    1.4536 N   0  0  0  0  0  2  0  0  0  0  0  0
    2.1324   -1.6572    0.9699 N   0  0  0  0  0  0  0  0  0  0  0  0
   -0.4803    0.5032    2.3545 C   0  0  0  0  0  0  0  0  0  0  0  0
   -0.4877   -0.4111    1.7233 H   0  0  0  0  0  0  0  0  0  0  0  0
   -0.9710    0.2228    3.3120 H   0  0  0  0  0  0  0  0  0  0  0  0
    2.0171   -2.7975    0.1777 C   0  0  0  0  0  0  0  0  0  0  0  0
    0.9855    0.8589    2.6664 C   0  0  0  0  0  0  0  0  0  0  0  0
    1.0213    1.7415    3.3458 H   0  0  0  0  0  0  0  0  0  0  0  0
    1.4576    0.0102    3.1975 H   0  0  0  0  0  0  0  0  0  0  0  0
   -1.2553    1.6258    1.6569 C   0  0  0  0  0  0  0  0  0  0  0  0
   -0.7442    1.9042    0.7083 H   0  0  0  0  0  0  0  0  0  0  0  0
   -1.2567    2.5489    2.2811 H   0  0  0  0  0  0  0  0  0  0  0  0
    0.7743   -0.8283   -2.6449 C   0  0  0  0  0  0  0  0  0  0  0  0
    0.7499   -1.6707   -3.3740 H   0  0  0  0  0  0  0  0  0  0  0  0
    1.2817    0.0243   -3.1336 H   0  0  0  0  0  0  0  0  0  0  0  0
    1.9467    2.4197    1.1170 C   0  0  0  0  0  3  0  0  0  0  0  0
    1.7883    3.2338    1.8484 H   0  0  0  0  0  0  0  0  0  0  0  0
    2.3039    1.4958   -1.0031 N   0  0  0  0  0  0  0  0  0  0  0  0
    2.6467   -2.0506    2.1611 C   0  0  0  0  0  3  0  0  0  0  0  0
    2.8660   -1.3340    2.9618 H   0  0  0  0  0  0  0  0  0  0  0  0
   -0.6660   -0.4149   -2.2836 C   0  0  0  0  0  0  0  0  0  0  0  0
   -1.1295    0.0327   -3.1894 H   0  0  0  0  0  0  0  0  0  0  0  0
   -0.5997    0.4025   -1.5320 H   0  0  0  0  0  0  0  0  0  0  0  0
    3.1963    3.1833   -2.2392 C   0  0  0  0  0  0  0  0  0  0  0  0
    3.6340    3.7121   -3.0943 H   0  0  0  0  0  0  0  0  0  0  0  0
    2.8322    1.8139   -2.2110 C   0  0  0  0  0  0  0  0  0  0  0  0
    2.9446    1.0689   -3.0080 H   0  0  0  0  0  0  0  0  0  0  0  0
   -4.1573   -0.0117   -2.3869 C   0  0  0  0  0  0  0  0  0  0  0  0
   -5.1638    0.2751   -2.0193 H   0  0  0  0  0  0  0  0  0  0  0  0
   -4.2906   -0.5684   -3.3379 H   0  0  0  0  0  0  0  0  0  0  0  0
   -3.6018    0.9206   -2.6145 H   0  0  0  0  0  0  0  0  0  0  0  0
   -1.5294   -1.5629   -1.7519 C   0  0  0  0  0  0  0  0  0  0  0  0
   -1.0232   -2.0594   -0.8938 H   0  0  0  0  0  0  0  0  0  0  0  0
   -1.6506   -2.3486   -2.5319 H   0  0  0  0  0  0  0  0  0  0  0  0
    2.8862    3.7185   -0.9744 C   0  0  0  0  0  0  0  0  0  0  0  0
    3.0449    4.7456   -0.6252 H   0  0  0  0  0  0  0  0  0  0  0  0
    1.6025   -2.5121   -1.1448 C   0  0  0  0  0  3  0  0  0  0  0  0
    1.3300   -3.2949   -1.8768 H   0  0  0  0  0  0  0  0  0  0  0  0
   -4.2349   -2.6151   -0.6997 C   0  0  0  0  0  0  0  0  0  0  0  0
   -3.7016   -3.2310    0.0527 H   0  0  0  0  0  0  0  0  0  0  0  0
   -4.4041   -3.2420   -1.5994 H   0  0  0  0  0  0  0  0  0  0  0  0
   -5.2252   -2.3471   -0.2781 H   0  0  0  0  0  0  0  0  0  0  0  0
    2.3494    2.6467   -0.2206 C   0  0  0  0  0  3  0  0  0  0  0  0
   -3.7919    2.6208    0.2064 C   0  0  0  0  0  0  0  0  0  0  0  0
   -3.1891    2.8267   -0.7018 H   0  0  0  0  0  0  0  0  0  0  0  0
   -3.8294    3.5539    0.8060 H   0  0  0  0  0  0  0  0  0  0  0  0
   -4.8260    2.3834   -0.1168 H   0  0  0  0  0  0  0  0  0  0  0  0
   -4.0687    0.8720    2.7569 C   0  0  0  0  0  0  0  0  0  0  0  0
   -5.1181    0.6292    2.4920 H   0  0  0  0  0  0  0  0  0  0  0  0
   -4.0812    1.7535    3.4307 H   0  0  0  0  0  0  0  0  0  0  0  0
   -3.6573    0.0120    3.3235 H   0  0  0  0  0  0  0  0  0  0  0  0
  1 18  1  0  0  0  0
  1 56  1  0  0  0  0
  2 47  1  0  0  0  0
  2  8  1  0  0  0  0
  3 45  1  0  0  0  0
  4  5  1  0  0  0  0
  6  4  2  0  0  0  0
  7  6  1  0  0  0  0
  8  1  1  0  0  0  0
  9 15  1  0  0  0  0
 10 27  1  0  0  0  0
 11 15  1  0  0  0  0
 11 13  1  0  0  0  0
 12 11  1  0  0  0  0
 14  6  1  0  0  0  0
 14 10  2  0  0  0  0
 15 17  1  0  0  0  0
 15 16  1  0  0  0  0
 18 20  1  0  0  0  0
 18 11  1  0  0  0  0
 19 18  1  0  0  0  0
 21 29  1  0  0  0  0
 21  3  1  0  0  0  0
 22 21  1  0  0  0  0
 23 21  1  0  0  0  0
 24  9  1  0  0  0  0
 24 25  1  0  0  0  0
 26 51  1  0  0  0  0
 27  4  1  0  0  0  0
 27 28  1  0  0  0  0
 29 40  1  0  0  0  0
 29 31  1  0  0  0  0
 30 29  1  0  0  0  0
 32 34  1  0  0  0  0
 32 43  2  0  0  0  0
 33 32  1  0  0  0  0
 34 26  2  0  0  0  0
 35 34  1  0  0  0  0
 36 37  1  0  0  0  0
 36  2  1  0  0  0  0
 38 36  1  0  0  0  0
 39 36  1  0  0  0  0
 40  2  1  0  0  0  0
 40 41  1  0  0  0  0
 42 40  1  0  0  0  0
 43 44  1  0  0  0  0
 43 51  1  0  0  0  0
 45 14  1  0  0  0  0
 46 45  1  0  0  0  0
 47 50  1  0  0  0  0
 47 48  1  0  0  0  0
 49 47  1  0  0  0  0
 51 24  1  0  0  0  0
 52 54  1  0  0  0  0
 52  1  1  0  0  0  0
 53 52  1  0  0  0  0
 55 52  1  0  0  0  0
 56 59  1  0  0  0  0
 56 58  1  0  0  0  0
 57 56  1  0  0  0  0
M  END
