1,2,3,4
q = -1.0, confidence = 0.112

 75 84  0  0  1  0  0  0  0  0999 V2000
    0.3637    2.0012   -0.3693 N   0  0  0  0  0  2  0  0  0  0  0  0
   -2.0074    0.5001   -0.4189 N   0  0  0  0  0  0  0  0  0  0  0  0
    1.8092   -0.2936   -0.4704 N   0  0  0  0  0  0  0  0  0  0  0  0
   -0.5314   -1.8839   -0.6914 N   0  0  0  0  0  0  0  0  0  0  0  0
    0.2318    4.3143   -0.6254 C   0  0  0  0  0  0  0  0  0  0  0  0
    1.5529    4.0068   -0.4188 C   0  0  0  0  0  0  0  0  0  0  0  0
   -4.0162    1.6692   -0.1880 C   0  0  0  0  0  0  0  0  0  0  0  0
   -4.3075    0.3371   -0.0609 C   0  0  0  0  0  0  0  0  0  0  0  0
    3.7085   -1.6207   -0.3191 C   0  0  0  0  0  0  0  0  0  0  0  0
    4.1118   -0.3339   -0.0234 C   0  0  0  0  0  0  0  0  0  0  0  0
   -0.4073   -4.1720   -1.1185 C   0  0  0  0  0  0  0  0  0  0  0  0
   -1.7335   -3.8668   -0.9134 C   0  0  0  0  0  0  0  0  0  0  0  0
   -0.4999    3.0712   -0.5435 C   0  0  0  0  0  0  0  0  0  0  0  0
    1.6279    2.5741   -0.2489 C   0  0  0  0  0  0  0  0  0  0  0  0
   -2.5893    1.7662   -0.4056 C   0  0  0  0  0  0  0  0  0  0  0  0
   -3.0660   -0.3816   -0.2418 C   0  0  0  0  0  0  0  0  0  0  0  0
    2.3056   -1.5429   -0.5614 C   0  0  0  0  0  0  0  0  0  0  0  0
    2.9166    0.4895   -0.1578 C   0  0  0  0  0  0  0  0  0  0  0  0
    0.3229   -2.9514   -0.9405 C   0  0  0  0  0  0  0  0  0  0  0  0
   -1.7932   -2.4547   -0.6349 C   0  0  0  0  0  3  0  0  0  0  0  0
   -1.9050    2.9823   -0.5401 C   0  0  0  0  0  0  0  0  0  0  0  0
    2.8450    1.8848   -0.0573 C   0  0  0  0  0  0  0  0  0  0  0  0
   -2.9808   -1.7782   -0.3244 C   0  0  0  0  0  0  0  0  0  0  0  0
    1.7284   -2.8055   -0.8474 C   0  0  0  0  0  0  0  0  0  0  0  0
   -2.7050    4.2378   -0.6283 C   0  0  0  0  0  0  0  0  0  0  0  0
   -2.6236    5.2232    0.3797 C   0  0  0  0  0  0  0  0  0  0  0  0
   -3.3869    6.3965    0.2947 C   0  0  0  0  0  0  0  0  0  0  0  0
   -4.2401    6.6065   -0.8005 C   0  0  0  0  0  0  0  0  0  0  0  0
   -4.3291    5.6334   -1.8086 C   0  0  0  0  0  0  0  0  0  0  0  0
   -3.5706    4.4571   -1.7219 C   0  0  0  0  0  0  0  0  0  0  0  0
    4.0826    2.6663    0.2098 C   0  0  0  0  0  0  0  0  0  0  0  0
    4.1645    3.5053    1.3436 C   0  0  0  0  0  0  0  0  0  0  0  0
    5.3299    4.2383    1.6071 C   0  0  0  0  0  0  0  0  0  0  0  0
    6.4306    4.1518    0.7393 C   0  0  0  0  0  0  0  0  0  0  0  0
    6.3585    3.3267   -0.3943 C   0  0  0  0  0  0  0  0  0  0  0  0
    5.1955    2.5882   -0.6567 C   0  0  0  0  0  0  0  0  0  0  0  0
   -4.1916   -2.5995   -0.0383 C   0  0  0  0  0  0  0  0  0  0  0  0
   -4.2167   -3.3675    1.1468 C   0  0  0  0  0  0  0  0  0  0  0  0
   -5.3382   -4.1530    1.4503 C   0  0  0  0  0  0  0  0  0  0  0  0
   -6.4385   -4.1859    0.5779 C   0  0  0  0  0  0  0  0  0  0  0  0
   -6.4167   -3.4254   -0.6024 C   0  0  0  0  0  0  0  0  0  0  0  0
   -5.3001   -2.6326   -0.9086 C   0  0  0  0  0  0  0  0  0  0  0  0
    2.8045   -3.7393   -0.8745 C   0  0  2  0  0  3  0  0  0  0  0  0
    4.0788   -3.0745   -0.3461 C   0  0  1  0  0  0  0  0  0  0  0  0
    5.3581   -3.6450   -0.8609 C   0  0  0  0  0  0  0  0  0  0  0  0
    5.3655   -4.9130   -1.3733 C   0  0  0  0  0  0  0  0  0  0  0  0
    4.1391   -5.6490   -1.5531 C   0  0  0  0  0  0  0  0  0  0  0  0
    2.8911   -5.0731   -1.3359 C   0  0  0  0  0  0  0  0  0  0  0  0
   -0.2140    5.2947   -0.8195 H   0  0  0  0  0  0  0  0  0  0  0  0
    2.4138    4.6828   -0.4183 H   0  0  0  0  0  0  0  0  0  0  0  0
   -4.6975    2.5230   -0.1193 H   0  0  0  0  0  0  0  0  0  0  0  0
   -5.2778   -0.1319    0.1293 H   0  0  0  0  0  0  0  0  0  0  0  0
    5.0976    0.0455    0.2663 H   0  0  0  0  0  0  0  0  0  0  0  0
    0.0223   -5.1525   -1.3433 H   0  0  0  0  0  0  0  0  0  0  0  0
   -2.5997   -4.5351   -0.9486 H   0  0  0  0  0  0  0  0  0  0  0  0
   -1.9623    5.0519    1.2422 H   0  0  0  0  0  0  0  0  0  0  0  0
   -3.3186    7.1506    1.0937 H   0  0  0  0  0  0  0  0  0  0  0  0
   -4.8375    7.5285   -0.8674 H   0  0  0  0  0  0  0  0  0  0  0  0
   -4.9931    5.7920   -2.6720 H   0  0  0  0  0  0  0  0  0  0  0  0
   -3.6369    3.6937   -2.5116 H   0  0  0  0  0  0  0  0  0  0  0  0
    3.3025    3.5664    2.0246 H   0  0  0  0  0  0  0  0  0  0  0  0
    5.3802    4.8803    2.4998 H   0  0  0  0  0  0  0  0  0  0  0  0
    7.3440    4.7302    0.9451 H   0  0  0  0  0  0  0  0  0  0  0  0
    7.2126    3.2630   -1.0857 H   0  0  0  0  0  0  0  0  0  0  0  0
    5.1310    1.9554   -1.5543 H   0  0  0  0  0  0  0  0  0  0  0  0
   -3.3482   -3.3127    1.8216 H   0  0  0  0  0  0  0  0  0  0  0  0
   -5.3537   -4.7431    2.3796 H   0  0  0  0  0  0  0  0  0  0  0  0
   -7.3160   -4.8059    0.8178 H   0  0  0  0  0  0  0  0  0  0  0  0
   -7.2740   -3.4520   -1.2924 H   0  0  0  0  0  0  0  0  0  0  0  0
   -5.2754   -2.0402   -1.8358 H   0  0  0  0  0  0  0  0  0  0  0  0
    4.0809   -3.3710    0.7444 H   0  0  0  0  0  0  0  0  0  0  0  0
    6.2897   -3.0740   -0.7264 H   0  0  0  0  0  0  0  0  0  0  0  0
    6.3141   -5.3824   -1.6750 H   0  0  0  0  0  0  0  0  0  0  0  0
    4.1934   -6.6744   -1.9495 H   0  0  0  0  0  0  0  0  0  0  0  0
    1.9861   -5.6243   -1.6243 H   0  0  0  0  0  0  0  0  0  0  0  0
  1 14  1  0  0  0  0
  2 15  2  0  0  0  0
  2 16  1  0  0  0  0
  3 18  2  0  0  0  0
  4 20  1  0  0  0  0
  5 13  1  0  0  0  0
  5  6  2  0  0  0  0
  6 50  1  0  0  0  0
  6 14  1  0  0  0  0
  7 51  1  0  0  0  0
  7  8  2  0  0  0  0
  8 52  1  0  0  0  0
  9 10  2  0  0  0  0
 10 53  1  0  0  0  0
 11 19  1  0  0  0  0
 11 12  2  0  0  0  0
 12 20  1  0  0  0  0
 13 21  2  0  0  0  0
 13  1  1  0  0  0  0
 14 22  2  0  0  0  0
 15  7  1  0  0  0  0
 16  8  1  0  0  0  0
 17  3  1  0  0  0  0
 17  9  1  0  0  0  0
 18 22  1  0  0  0  0
 18 10  1  0  0  0  0
 19 24  1  0  0  0  0
 19  4  2  0  0  0  0
 20 23  1  0  0  0  0
 21 15  1  0  0  0  0
 22 31  1  0  0  0  0
 23 16  2  0  0  0  0
 23 37  1  0  0  0  0
 24 17  2  0  0  0  0
 25 21  1  0  0  0  0
 25 26  1  0  0  0  0
 26 56  1  0  0  0  0
 27 26  2  0  0  0  0
 27 57  1  0  0  0  0
 28 27  1  0  0  0  0
 29 30  1  0  0  0  0
 29 28  2  0  0  0  0
 30 25  2  0  0  0  0
 31 32  1  0  0  0  0
 32 33  2  0  0  0  0
 32 61  1  0  0  0  0
 33 62  1  0  0  0  0
 34 63  1  0  0  0  0
 34 33  1  0  0  0  0
 35 34  2  0  0  0  0
 36 35  1  0  0  0  0
 36 31  2  0  0  0  0
 37 38  1  0  0  0  0
 38 39  2  0  0  0  0
 38 66  1  0  0  0  0
 39 67  1  0  0  0  0
 40 68  1  0  0  0  0
 40 39  1  0  0  0  0
 41 40  2  0  0  0  0
 42 41  1  0  0  0  0
 42 37  2  0  0  0  0
 43 48  1  6  0  0  0
 43 24  1  0  0  0  0
 43 44  1  0  0  0  0
 44  9  1  0  0  0  0
 44 71  1  1  0  0  0
 45 72  1  0  0  0  0
 45 44  1  0  0  0  0
 46 45  2  0  0  0  0
 47 46  1  0  0  0  0
 47 48  2  0  0  0  0
 49  5  1  0  0  0  0
 54 11  1  0  0  0  0
 55 12  1  0  0  0  0
 58 28  1  0  0  0  0
 59 29  1  0  0  0  0
 60 30  1  0  0  0  0
 64 35  1  0  0  0  0
 65 36  1  0  0  0  0
 69 41  1  0  0  0  0
 70 42  1  0  0  0  0
 73 46  1  0  0  0  0
 74 47  1  0  0  0  0
 75 48  1  0  0  0  0
M  END
