3,5,6,8
q = -2.0, confidence = 0.912

 65 68  0  0  0  0  0  0  0  0999 V2000
   -3.0055   -4.6371   -0.7735 O   0  0  0  0  0  0  0  0  0  0  0  0
   -1.4568    2.9255    1.8039 O   0  0  0  0  0  0  0  0  0  0  0  0
    1.8986   -1.2225    0.3602 N   0  0  0  0  0  0  0  0  0  0  0  0
    0.0929   -2.5814    0.8879 N   0  0  0  0  0  2  0  0  0  0  0  0
   -0.5276   -1.4765    0.5648 N   0  0  0  0  0  2  0  0  0  0  0  0
    1.9030    1.1800   -0.3959 N   0  0  0  0  0  0  0  0  0  0  0  0
    0.0980    2.5695   -0.8328 N   0  0  0  0  0  2  0  0  0  0  0  0
   -0.5234    1.4368   -0.6248 N   0  0  0  0  0  2  0  0  0  0  0  0
    4.0830   -0.0242   -0.0206 C   0  0  0  0  0  0  0  0  0  0  0  0
    4.9405   -0.3621   -1.2861 C   0  0  0  0  0  0  0  0  0  0  0  0
    5.6074    0.5043   -1.4817 H   0  0  0  0  0  0  0  0  0  0  0  0
    5.6042   -1.2138   -1.0252 H   0  0  0  0  0  0  0  0  0  0  0  0
    4.1199   -0.6917   -2.5303 C   0  0  0  0  0  0  0  0  0  0  0  0
    3.4651   -1.5703   -2.3603 H   0  0  0  0  0  0  0  0  0  0  0  0
    4.7812   -0.9243   -3.3884 H   0  0  0  0  0  0  0  0  0  0  0  0
    3.4713    0.1583   -2.8237 H   0  0  0  0  0  0  0  0  0  0  0  0
    5.0425    0.2920    1.1705 C   0  0  0  0  0  0  0  0  0  0  0  0
    5.7076   -0.5859    1.3127 H   0  0  0  0  0  0  0  0  0  0  0  0
    5.7030    1.1297    0.8611 H   0  0  0  0  0  0  0  0  0  0  0  0
    4.3272    0.6332    2.4753 C   0  0  0  0  0  0  0  0  0  0  0  0
    3.6753    1.5224    2.3571 H   0  0  0  0  0  0  0  0  0  0  0  0
    5.0565    0.8532    3.2801 H   0  0  0  0  0  0  0  0  0  0  0  0
    3.6902   -0.2074    2.8172 H   0  0  0  0  0  0  0  0  0  0  0  0
    3.2439   -1.2346    0.3348 C   0  0  0  0  0  0  0  0  0  0  0  0
    3.6805   -2.5497    0.7182 C   0  0  0  0  0  0  0  0  0  0  0  0
    4.7239   -2.8766    0.7968 H   0  0  0  0  0  0  0  0  0  0  0  0
    2.5411   -3.3210    0.9893 C   0  0  0  0  0  0  0  0  0  0  0  0
    2.4971   -4.3651    1.3173 H   0  0  0  0  0  0  0  0  0  0  0  0
    1.4249   -2.4648    0.7560 C   0  0  0  0  0  3  0  0  0  0  0  0
   -1.9310   -1.4806    0.7478 C   0  0  0  0  0  0  0  0  0  0  0  0
   -2.7654   -2.5085    0.2361 C   0  0  0  0  0  0  0  0  0  0  0  0
   -4.1390   -2.4714    0.5620 C   0  0  0  0  0  0  0  0  0  0  0  0
   -4.7637   -3.2917    0.1778 H   0  0  0  0  0  0  0  0  0  0  0  0
   -4.6835   -1.4256    1.3124 C   0  0  0  0  0  0  0  0  0  0  0  0
   -5.7609   -1.4104    1.5355 H   0  0  0  0  0  0  0  0  0  0  0  0
   -3.8503   -0.3880    1.7679 C   0  0  0  0  0  0  0  0  0  0  0  0
   -4.2658    0.4498    2.3476 H   0  0  0  0  0  0  0  0  0  0  0  0
   -2.4806   -0.4166    1.4919 C   0  0  0  0  0  0  0  0  0  0  0  0
   -1.8214    0.3895    1.8489 H   0  0  0  0  0  0  0  0  0  0  0  0
   -2.3390   -3.6098   -0.7034 C   0  0  0  0  0  0  0  0  0  0  0  0
   -1.1682   -3.4048   -1.6536 C   0  0  0  0  0  0  0  0  0  0  0  0
   -0.2827   -3.9493   -1.2685 H   0  0  0  0  0  0  0  0  0  0  0  0
   -0.8724   -2.3464   -1.7833 H   0  0  0  0  0  0  0  0  0  0  0  0
   -1.4426   -3.8583   -2.6251 H   0  0  0  0  0  0  0  0  0  0  0  0
    3.2457    1.2026   -0.3183 C   0  0  0  0  0  3  0  0  0  0  0  0
    3.6815    2.5440   -0.5991 C   0  0  0  0  0  0  0  0  0  0  0  0
    4.7236    2.8834   -0.6234 H   0  0  0  0  0  0  0  0  0  0  0  0
    2.5430    3.3253   -0.8418 C   0  0  0  0  0  0  0  0  0  0  0  0
    2.4992    4.3927   -1.0832 H   0  0  0  0  0  0  0  0  0  0  0  0
    1.4287    2.4466   -0.7016 C   0  0  0  0  0  0  0  0  0  0  0  0
   -1.9274    1.4863   -0.7894 C   0  0  0  0  0  0  0  0  0  0  0  0
   -2.6976    2.5044   -0.1746 C   0  0  0  0  0  0  0  0  0  0  0  0
   -4.0838    2.5409   -0.4115 C   0  0  0  0  0  0  0  0  0  0  0  0
   -4.6935    3.3233    0.0667 H   0  0  0  0  0  0  0  0  0  0  0  0
   -4.7062    1.5596   -1.1980 C   0  0  0  0  0  0  0  0  0  0  0  0
   -5.7957    1.5855   -1.3476 H   0  0  0  0  0  0  0  0  0  0  0  0
   -3.9368    0.5410   -1.7823 C   0  0  0  0  0  0  0  0  0  0  0  0
   -4.4169   -0.2334   -2.3984 H   0  0  0  0  0  0  0  0  0  0  0  0
   -2.5512    0.5110   -1.5864 C   0  0  0  0  0  0  0  0  0  0  0  0
   -1.9291   -0.2649   -2.0544 H   0  0  0  0  0  0  0  0  0  0  0  0
   -2.0708    3.4092    0.8605 C   0  0  0  0  0  0  0  0  0  0  0  0
   -2.2386    4.8985    0.6759 C   0  0  0  0  0  0  0  0  0  0  0  0
   -1.9003    5.4362    1.5803 H   0  0  0  0  0  0  0  0  0  0  0  0
   -3.2811    5.1753    0.4212 H   0  0  0  0  0  0  0  0  0  0  0  0
   -1.6094    5.1930   -0.1909 H   0  0  0  0  0  0  0  0  0  0  0  0
  1 40  2  0  0  0  0
  3 29  1  0  0  0  0
  5 30  1  0  0  0  0
  5  4  1  0  0  0  0
  6 45  1  0  0  0  0
  7 50  1  0  0  0  0
  7  8  1  0  0  0  0
  9 24  1  0  0  0  0
  9 17  1  0  0  0  0
 10 12  1  0  0  0  0
 10  9  1  0  0  0  0
 11 10  1  0  0  0  0
 13 14  1  0  0  0  0
 13 10  1  0  0  0  0
 15 13  1  0  0  0  0
 16 13  1  0  0  0  0
 17 18  1  0  0  0  0
 17 20  1  0  0  0  0
 19 17  1  0  0  0  0
 20 23  1  0  0  0  0
 20 22  1  0  0  0  0
 21 20  1  0  0  0  0
 24  3  2  0  0  0  0
 24 25  1  0  0  0  0
 25 26  1  0  0  0  0
 25 27  2  0  0  0  0
 27 28  1  0  0  0  0
 29  4  1  0  0  0  0
 29 27  1  0  0  0  0
 30 38  1  0  0  0  0
 31 32  1  0  0  0  0
 31 30  2  0  0  0  0
 32 34  2  0  0  0  0
 33 32  1  0  0  0  0
 34 35  1  0  0  0  0
 34 36  1  0  0  0  0
 36 37  1  0  0  0  0
 38 36  2  0  0  0  0
 38 39  1  0  0  0  0
 40 31  1  0  0  0  0
 41 42  1  0  0  0  0
 41 40  1  0  0  0  0
 43 41  1  0  0  0  0
 44 41  1  0  0  0  0
 45  9  1  0  0  0  0
 46 45  1  0  0  0  0
 47 46  1  0  0  0  0
 48 50  1  0  0  0  0
 48 46  2  0  0  0  0
 49 48  1  0  0  0  0
 50  6  2  0  0  0  0
 51  8  1  0  0  0  0
 51 52  1  0  0  0  0
 52 61  1  0  0  0  0
 53 52  2  0  0  0  0
 53 54  1  0  0  0  0
 55 53  1  0  0  0  0
 56 55  1  0  0  0  0
 57 59  1  0  0  0  0
 57 55  2  0  0  0  0
 58 57  1  0  0  0  0
 59 51  2  0  0  0  0
 60 59  1  0  0  0  0
 61  2  2  0  0  0  0
 62 61  1  0  0  0  0
 62 63  1  0  0  0  0
 64 62  1  0  0  0  0
 65 62  1  0  0  0  0
M  END
