1,2,4,5
q = 0.0, confidence = 1.0

 42 43  0  0  1  0  0  0  0  0999 V2000
    1.0575    1.0415   -1.2450 N   0  0  2  0  0  0  0  0  0  0  0  0
    1.4961   -1.7444    0.2082 N   0  0  0  0  0  0  0  0  0  0  0  0
    1.3300   -2.2935    1.0626 H   0  0  0  0  0  0  0  0  0  0  0  0
   -1.0574   -1.0429   -1.2438 N   0  0  1  0  0  0  0  0  0  0  0  0
   -1.4961    1.7446    0.2062 N   0  0  0  0  0  0  0  0  0  0  0  0
   -1.3301    2.2947    1.0599 H   0  0  0  0  0  0  0  0  0  0  0  0
    2.5195    1.0518   -1.0094 C   0  0  0  0  0  0  0  0  0  0  0  0
    2.6621    1.5511   -0.0278 H   0  0  0  0  0  0  0  0  0  0  0  0
    3.0272    1.6782   -1.7877 H   0  0  0  0  0  0  0  0  0  0  0  0
    3.2276   -0.3094   -0.9665 C   0  0  0  0  0  0  0  0  0  0  0  0
    4.3097   -0.0815   -0.8675 H   0  0  0  0  0  0  0  0  0  0  0  0
    3.1559   -0.8320   -1.9456 H   0  0  0  0  0  0  0  0  0  0  0  0
    2.8916   -1.2752    0.1786 C   0  0  0  0  0  0  0  0  0  0  0  0
    3.6068   -2.1323    0.1230 H   0  0  0  0  0  0  0  0  0  0  0  0
    3.0648   -0.7560    1.1443 H   0  0  0  0  0  0  0  0  0  0  0  0
    1.0013   -2.4908   -0.9533 C   0  0  0  0  0  0  0  0  0  0  0  0
    1.2788   -3.5700   -0.9052 H   0  0  0  0  0  0  0  0  0  0  0  0
    1.4951   -2.1002   -1.8622 H   0  0  0  0  0  0  0  0  0  0  0  0
   -0.5242   -2.4049   -1.0962 C   0  0  0  0  0  0  0  0  0  0  0  0
   -0.8321   -3.0498   -1.9593 H   0  0  0  0  0  0  0  0  0  0  0  0
   -0.9827   -2.8235   -0.1757 H   0  0  0  0  0  0  0  0  0  0  0  0
   -0.6771   -0.3806   -2.4917 C   0  0  0  0  0  0  0  0  0  0  0  0
   -1.4797    0.3324   -2.7477 H   0  0  0  0  0  0  0  0  0  0  0  0
   -0.6529   -1.1087   -3.3419 H   0  0  0  0  0  0  0  0  0  0  0  0
    0.6774    0.3777   -2.4920 C   0  0  0  0  0  0  0  0  0  0  0  0
    1.4800   -0.3356   -2.7471 H   0  0  0  0  0  0  0  0  0  0  0  0
    0.6533    1.1048   -3.3431 H   0  0  0  0  0  0  0  0  0  0  0  0
   -2.8916    1.2755    0.1770 C   0  0  0  0  0  0  0  0  0  0  0  0
   -3.6068    2.1324    0.1205 H   0  0  0  0  0  0  0  0  0  0  0  0
   -3.0648    0.7573    1.1433 H   0  0  0  0  0  0  0  0  0  0  0  0
   -3.2276    0.3083   -0.9670 C   0  0  0  0  0  0  0  0  0  0  0  0
   -3.1560    0.8298   -1.9466 H   0  0  0  0  0  0  0  0  0  0  0  0
   -4.3097    0.0805   -0.8676 H   0  0  0  0  0  0  0  0  0  0  0  0
   -2.5195   -1.0529   -1.0083 C   0  0  0  0  0  0  0  0  0  0  0  0
   -2.6621   -1.5511   -0.0262 H   0  0  0  0  0  0  0  0  0  0  0  0
   -3.0271   -1.6802   -1.7860 H   0  0  0  0  0  0  0  0  0  0  0  0
    0.5243    2.4037   -1.0989 C   0  0  0  0  0  0  0  0  0  0  0  0
    0.8322    3.0476   -1.9628 H   0  0  0  0  0  0  0  0  0  0  0  0
    0.9827    2.8233   -0.1789 H   0  0  0  0  0  0  0  0  0  0  0  0
   -1.0013    2.4898   -0.9562 C   0  0  0  0  0  0  0  0  0  0  0  0
   -1.2787    3.5690   -0.9093 H   0  0  0  0  0  0  0  0  0  0  0  0
   -1.4950    2.0982   -1.8647 H   0  0  0  0  0  0  0  0  0  0  0  0
  1 25  1  6  0  0  0
  1 37  1  0  0  0  0
  1  7  1  0  0  0  0
  2  3  1  0  0  0  0
  4 22  1  6  0  0  0
  4 19  1  0  0  0  0
  4 34  1  0  0  0  0
  5  6  1  0  0  0  0
  7 10  1  0  0  0  0
  7  8  1  0  0  0  0
  9  7  1  0  0  0  0
 10 11  1  0  0  0  0
 10 13  1  0  0  0  0
 12 10  1  0  0  0  0
 13  2  1  0  0  0  0
 13 15  1  0  0  0  0
 14 13  1  0  0  0  0
 16 17  1  0  0  0  0
 16  2  1  0  0  0  0
 18 16  1  0  0  0  0
 19 16  1  0  0  0  0
 19 21  1  0  0  0  0
 20 19  1  0  0  0  0
 23 22  1  0  0  0  0
 24 22  1  0  0  0  0
 25 22  1  0  0  0  0
 26 25  1  0  0  0  0
 27 25  1  0  0  0  0
 28  5  1  0  0  0  0
 28 30  1  0  0  0  0
 29 28  1  0  0  0  0
 31 33  1  0  0  0  0
 31 28  1  0  0  0  0
 32 31  1  0  0  0  0
 34 31  1  0  0  0  0
 34 35  1  0  0  0  0
 36 34  1  0  0  0  0
 37 40  1  0  0  0  0
 37 39  1  0  0  0  0
 38 37  1  0  0  0  0
 40 41  1  0  0  0  0
 40  5  1  0  0  0  0
 42 40  1  0  0  0  0
M  END
