1,4,8,11
q = -1.0, confidence = 0.022

 45 46  0  0  1  0  0  0  0  0999 V2000
   -1.8838    0.2684    1.4776 N   0  0  0  0  0  0  0  0  0  0  0  0
   -1.9835    1.7170    1.8056 C   0  0  0  0  0  0  0  0  0  0  0  0
   -0.5833    2.2765    1.7285 C   0  0  0  0  0  0  0  0  0  0  0  0
    0.0016    1.7913    0.4718 N   0  0  0  0  0  2  0  0  0  0  0  0
    1.3100    2.2040    0.3084 C   0  0  0  0  0  0  0  0  0  0  0  0
    2.0380    1.7456   -0.9544 C   0  0  0  0  0  0  0  0  0  0  0  0
    1.7805    0.2949   -1.3788 C   0  0  2  0  0  0  0  0  0  0  0  0
    0.3503    0.1349   -1.7126 N   0  0  0  0  0  0  0  0  0  0  0  0
    0.0686   -1.0504   -2.5560 C   0  0  0  0  0  0  0  0  0  0  0  0
   -1.3664   -1.4616   -2.3023 C   0  0  0  0  0  0  0  0  0  0  0  0
   -1.5417   -1.5171   -0.8302 N   0  0  0  0  0  0  0  0  0  0  0  0
   -2.8828   -1.9892   -0.4382 C   0  0  0  0  0  0  0  0  0  0  0  0
   -3.1300   -1.8610    1.0587 C   0  0  0  0  0  0  0  0  0  0  0  0
   -3.1957   -0.4132    1.5253 C   0  0  0  0  0  0  0  0  0  0  0  0
    1.8608    2.9785    1.0932 O   0  0  0  0  0  0  0  0  0  0  0  0
    2.2272   -0.7017   -0.3084 C   0  0  0  0  0  0  0  0  0  0  0  0
    1.2853   -1.4463    0.3071 N   0  0  0  0  0  0  0  0  0  0  0  0
    1.6673   -2.2698    1.3035 C   0  0  0  0  0  0  0  0  0  0  0  0
    2.9928   -2.3957    1.7346 C   0  0  0  0  0  0  0  0  0  0  0  0
    3.9757   -1.6408    1.0765 C   0  0  0  0  0  0  0  0  0  0  0  0
    3.5882   -0.7872    0.0364 C   0  0  0  0  0  0  0  0  0  0  0  0
   -1.2782   -0.1665    2.1963 H   0  0  0  0  0  0  0  0  0  0  0  0
   -2.4486    1.8653    2.8045 H   0  0  0  0  0  0  0  0  0  0  0  0
   -2.6441    2.1796    1.0442 H   0  0  0  0  0  0  0  0  0  0  0  0
   -0.5832    3.3853    1.7750 H   0  0  0  0  0  0  0  0  0  0  0  0
    0.0282    1.9478    2.6017 H   0  0  0  0  0  0  0  0  0  0  0  0
    3.1156    1.9145   -0.7776 H   0  0  0  0  0  0  0  0  0  0  0  0
    1.7397    2.4164   -1.7889 H   0  0  0  0  0  0  0  0  0  0  0  0
    2.3834    0.0961   -2.2963 H   0  0  0  0  0  0  0  0  0  0  0  0
    0.0033    1.0072   -2.1867 H   0  0  0  0  0  0  0  0  0  0  0  0
    0.7557   -1.8668   -2.2566 H   0  0  0  0  0  0  0  0  0  0  0  0
    0.2521   -0.8321   -3.6286 H   0  0  0  0  0  0  0  0  0  0  0  0
   -2.0745   -0.7065   -2.7018 H   0  0  0  0  0  0  0  0  0  0  0  0
   -1.6051   -2.4382   -2.7787 H   0  0  0  0  0  0  0  0  0  0  0  0
   -0.8186   -2.1531   -0.4465 H   0  0  0  0  0  0  0  0  0  0  0  0
   -3.0163   -3.0433   -0.7681 H   0  0  0  0  0  0  0  0  0  0  0  0
   -3.6266   -1.3811   -0.9942 H   0  0  0  0  0  0  0  0  0  0  0  0
   -4.0954   -2.3508    1.2970 H   0  0  0  0  0  0  0  0  0  0  0  0
   -2.3592   -2.4227    1.6335 H   0  0  0  0  0  0  0  0  0  0  0  0
   -3.8914    0.1625    0.8807 H   0  0  0  0  0  0  0  0  0  0  0  0
   -3.5943   -0.3559    2.5620 H   0  0  0  0  0  0  0  0  0  0  0  0
    0.8685   -2.8662    1.7796 H   0  0  0  0  0  0  0  0  0  0  0  0
    3.2491   -3.0774    2.5582 H   0  0  0  0  0  0  0  0  0  0  0  0
    5.0329   -1.7147    1.3715 H   0  0  0  0  0  0  0  0  0  0  0  0
    4.3357   -0.1826   -0.4984 H   0  0  0  0  0  0  0  0  0  0  0  0
  1 14  1  0  0  0  0
  1  2  1  0  0  0  0
  1 22  1  0  0  0  0
  2 23  1  0  0  0  0
  3 25  1  0  0  0  0
  3  2  1  0  0  0  0
  3 26  1  0  0  0  0
  4  3  1  0  0  0  0
  5  4  1  0  0  0  0
  5 15  2  0  0  0  0
  6 27  1  0  0  0  0
  6  5  1  0  0  0  0
  7 29  1  6  0  0  0
  7  6  1  0  0  0  0
  7 16  1  0  0  0  0
  8  7  1  0  0  0  0
  9 10  1  0  0  0  0
  9 31  1  0  0  0  0
  9  8  1  0  0  0  0
 10 11  1  0  0  0  0
 11 35  1  0  0  0  0
 11 12  1  0  0  0  0
 12 13  1  0  0  0  0
 13 38  1  0  0  0  0
 13 14  1  0  0  0  0
 13 39  1  0  0  0  0
 14 41  1  0  0  0  0
 16 21  2  0  0  0  0
 16 17  1  0  0  0  0
 17 18  2  0  0  0  0
 18 19  1  0  0  0  0
 18 42  1  0  0  0  0
 19 43  1  0  0  0  0
 20 44  1  0  0  0  0
 20 19  2  0  0  0  0
 21 20  1  0  0  0  0
 24  2  1  0  0  0  0
 28  6  1  0  0  0  0
 30  8  1  0  0  0  0
 32  9  1  0  0  0  0
 33 10  1  0  0  0  0
 34 10  1  0  0  0  0
 36 12  1  0  0  0  0
 37 12  1  0  0  0  0
 40 14  1  0  0  0  0
 45 21  1  0  0  0  0
M  END
