1,5,9,13
q = -2.0, confidence = 0.964

 78 85  0  0  0  0  0  0  0  0999 V2000
    0.4005    1.4018    0.1403 N   0  0  0  0  0  0  0  0  0  0  0  0
    0.6136    2.7419    0.4130 C   0  0  0  0  0  0  0  0  0  0  0  0
    1.8675    3.3845    0.4188 C   0  0  0  0  0  0  0  0  0  0  0  0
    3.0080    2.7470   -0.0835 C   0  0  0  0  0  0  0  0  0  0  0  0
    3.0544    1.4309   -0.5341 N   0  0  0  0  0  2  0  0  0  0  0  0
    4.2610    1.2915   -1.1828 C   0  0  0  0  0  0  0  0  0  0  0  0
    4.7777    0.0770   -1.6939 C   0  0  0  0  0  0  0  0  0  0  0  0
    4.2404   -1.1579   -1.2709 C   0  0  0  0  0  0  0  0  0  0  0  0
    3.0811   -1.2984   -0.5315 N   0  0  0  0  0  0  0  0  0  0  0  0
    3.0389   -2.6307   -0.1462 C   0  0  0  0  0  0  0  0  0  0  0  0
    1.9573   -3.2700    0.4736 C   0  0  0  0  0  0  0  0  0  0  0  0
    0.7005   -2.6434    0.5717 C   0  0  0  0  0  0  0  0  0  0  0  0
    0.4402   -1.3333    0.1973 N   0  0  0  0  0  0  0  0  0  0  0  0
   -0.9326   -1.2048    0.2321 C   0  0  0  0  0  0  0  0  0  0  0  0
   -1.6451    0.0048    0.0417 C   0  0  0  0  0  0  0  0  0  0  0  0
   -0.9708    1.2482    0.0879 C   0  0  0  0  0  0  0  0  0  0  0  0
   -1.6330    2.5103    0.2902 C   0  0  0  0  0  0  0  0  0  0  0  0
   -0.6472    3.4364    0.5326 C   0  0  0  0  0  0  0  0  0  0  0  0
    4.2514    3.4156   -0.3906 C   0  0  0  0  0  0  0  0  0  0  0  0
    5.0046    2.5350   -1.1233 C   0  0  0  0  0  0  0  0  0  0  0  0
    4.9211   -2.4308   -1.3906 C   0  0  0  0  0  0  0  0  0  0  0  0
    4.2016   -3.3305   -0.6488 C   0  0  0  0  0  0  0  0  0  0  0  0
   -0.5306   -3.3211    0.9041 C   0  0  0  0  0  3  0  0  0  0  0  0
   -1.5506   -2.4385    0.6401 C   0  0  0  0  0  0  0  0  0  0  0  0
    1.9276    4.8088    0.8545 C   0  0  0  0  0  0  0  0  0  0  0  0
    2.2491    5.8451   -0.0489 C   0  0  0  0  0  0  0  0  0  0  0  0
    2.2833    7.1803    0.3792 C   0  0  0  0  0  0  0  0  0  0  0  0
    1.9949    7.5017    1.7151 C   0  0  0  0  0  0  0  0  0  0  0  0
    1.6651    6.4801    2.6199 C   0  0  0  0  0  0  0  0  0  0  0  0
    1.6279    5.1450    2.1928 C   0  0  0  0  0  0  0  0  0  0  0  0
    5.9527    0.1464   -2.5921 C   0  0  0  0  0  0  0  0  0  0  0  0
    6.5871   -0.7934   -3.0577 O   0  0  0  0  0  0  0  0  0  0  0  0
    2.1252   -4.6856    0.9107 C   0  0  0  0  0  0  0  0  0  0  0  0
    1.4290   -5.7404    0.2814 C   0  0  0  0  0  0  0  0  0  0  0  0
    1.6177   -7.0669    0.6959 C   0  0  0  0  0  0  0  0  0  0  0  0
    2.5043   -7.3605    1.7443 C   0  0  0  0  0  0  0  0  0  0  0  0
    3.2073   -6.3201    2.3718 C   0  0  0  0  0  0  0  0  0  0  0  0
    3.0220   -4.9934    1.9565 C   0  0  0  0  0  0  0  0  0  0  0  0
   -3.0544   -0.0247   -0.0532 C   0  0  0  0  0  0  0  0  0  0  0  0
   -4.2859   -0.0536   -0.1576 C   0  0  0  0  0  0  0  0  0  0  0  0
   -5.6958   -0.0861   -0.2769 C   0  0  0  0  0  0  0  0  0  0  0  0
   -6.4092   -1.3153   -0.2896 C   0  0  0  0  0  0  0  0  0  0  0  0
   -7.7953   -1.3522   -0.4057 C   0  0  0  0  0  0  0  0  0  0  0  0
   -8.5582   -0.1519   -0.5178 C   0  0  0  0  0  0  0  0  0  0  0  0
   -7.8428    1.0824   -0.5063 C   0  0  0  0  0  0  0  0  0  0  0  0
   -6.4566    1.1092   -0.3893 C   0  0  0  0  0  0  0  0  0  0  0  0
   -9.9319   -0.1834   -0.6330 N   0  0  0  0  0  0  0  0  0  0  0  0
  -10.6310   -1.4534   -0.6453 C   0  0  0  0  0  0  0  0  0  0  0  0
  -10.6799    1.0532   -0.7468 C   0  0  0  0  0  0  0  0  0  0  0  0
   -2.7198    2.6446    0.2869 H   0  0  0  0  0  0  0  0  0  0  0  0
   -0.7519    4.5060    0.7415 H   0  0  0  0  0  0  0  0  0  0  0  0
    4.5032    4.4401   -0.0995 H   0  0  0  0  0  0  0  0  0  0  0  0
    6.0077    2.7012   -1.5278 H   0  0  0  0  0  0  0  0  0  0  0  0
    5.8463   -2.5652   -1.9568 H   0  0  0  0  0  0  0  0  0  0  0  0
    4.4056   -4.3938   -0.4852 H   0  0  0  0  0  0  0  0  0  0  0  0
   -0.6012   -4.3492    1.2723 H   0  0  0  0  0  0  0  0  0  0  0  0
   -2.6305   -2.5787    0.7560 H   0  0  0  0  0  0  0  0  0  0  0  0
    2.4541    5.5951   -1.1005 H   0  0  0  0  0  0  0  0  0  0  0  0
    2.5295    7.9769   -0.3394 H   0  0  0  0  0  0  0  0  0  0  0  0
    2.0228    8.5497    2.0501 H   0  0  0  0  0  0  0  0  0  0  0  0
    1.4370    6.7237    3.6688 H   0  0  0  0  0  0  0  0  0  0  0  0
    1.3716    4.3421    2.9004 H   0  0  0  0  0  0  0  0  0  0  0  0
    6.2325    1.1987   -2.8823 H   0  0  0  0  0  0  0  0  0  0  0  0
    0.7507   -5.5124   -0.5542 H   0  0  0  0  0  0  0  0  0  0  0  0
    1.0740   -7.8788    0.1892 H   0  0  0  0  0  0  0  0  0  0  0  0
    2.6515   -8.4019    2.0686 H   0  0  0  0  0  0  0  0  0  0  0  0
    3.9060   -6.5420    3.1928 H   0  0  0  0  0  0  0  0  0  0  0  0
    3.5713   -4.1755    2.4465 H   0  0  0  0  0  0  0  0  0  0  0  0
   -5.8477   -2.2574   -0.2070 H   0  0  0  0  0  0  0  0  0  0  0  0
   -8.2954   -2.3288   -0.4103 H   0  0  0  0  0  0  0  0  0  0  0  0
   -8.3805    2.0351   -0.5908 H   0  0  0  0  0  0  0  0  0  0  0  0
   -5.9326    2.0762   -0.3845 H   0  0  0  0  0  0  0  0  0  0  0  0
  -10.3139   -2.0977   -1.4961 H   0  0  0  0  0  0  0  0  0  0  0  0
  -11.7162   -1.2728   -0.7445 H   0  0  0  0  0  0  0  0  0  0  0  0
  -10.4664   -2.0309    0.2921 H   0  0  0  0  0  0  0  0  0  0  0  0
  -11.7574    0.8232   -0.8264 H   0  0  0  0  0  0  0  0  0  0  0  0
  -10.3888    1.6373   -1.6489 H   0  0  0  0  0  0  0  0  0  0  0  0
  -10.5370    1.7116    0.1395 H   0  0  0  0  0  0  0  0  0  0  0  0
  1  2  2  0  0  0  0
  2  3  1  0  0  0  0
  2 18  1  0  0  0  0
  3 25  1  0  0  0  0
  4  3  2  0  0  0  0
  5  4  1  0  0  0  0
  6 20  1  0  0  0  0
  6  5  1  0  0  0  0
  7  8  1  0  0  0  0
  7  6  2  0  0  0  0
  8  9  2  0  0  0  0
  9 10  1  0  0  0  0
 10 11  2  0  0  0  0
 11 12  1  0  0  0  0
 11 33  1  0  0  0  0
 12 23  1  0  0  0  0
 13 14  1  0  0  0  0
 13 12  2  0  0  0  0
 14 24  2  0  0  0  0
 15 16  2  0  0  0  0
 15 14  1  0  0  0  0
 16  1  1  0  0  0  0
 16 17  1  0  0  0  0
 17 18  2  0  0  0  0
 18 51  1  0  0  0  0
 19 52  1  0  0  0  0
 19  4  1  0  0  0  0
 20 19  2  0  0  0  0
 21  8  1  0  0  0  0
 21 22  2  0  0  0  0
 22 55  1  0  0  0  0
 22 10  1  0  0  0  0
 23 56  1  0  0  0  0
 24 57  1  0  0  0  0
 24 23  1  0  0  0  0
 25 30  1  0  0  0  0
 26 27  1  0  0  0  0
 26 25  2  0  0  0  0
 27 28  2  0  0  0  0
 28 60  1  0  0  0  0
 28 29  1  0  0  0  0
 29 61  1  0  0  0  0
 30 29  2  0  0  0  0
 30 62  1  0  0  0  0
 31  7  1  0  0  0  0
 32 31  2  0  0  0  0
 33 38  1  0  0  0  0
 34 35  1  0  0  0  0
 34 33  2  0  0  0  0
 35 36  2  0  0  0  0
 36 66  1  0  0  0  0
 36 37  1  0  0  0  0
 37 67  1  0  0  0  0
 38 37  2  0  0  0  0
 38 68  1  0  0  0  0
 39 15  1  0  0  0  0
 40 39  3  0  0  0  0
 41 40  1  0  0  0  0
 42 41  1  0  0  0  0
 42 69  1  0  0  0  0
 43 42  2  0  0  0  0
 44 45  2  0  0  0  0
 44 43  1  0  0  0  0
 45 46  1  0  0  0  0
 46 72  1  0  0  0  0
 46 41  2  0  0  0  0
 47 44  1  0  0  0  0
 48 47  1  0  0  0  0
 48 75  1  0  0  0  0
 49 47  1  0  0  0  0
 49 78  1  0  0  0  0
 50 17  1  0  0  0  0
 53 20  1  0  0  0  0
 54 21  1  0  0  0  0
 58 26  1  0  0  0  0
 59 27  1  0  0  0  0
 63 31  1  0  0  0  0
 64 34  1  0  0  0  0
 65 35  1  0  0  0  0
 70 43  1  0  0  0  0
 71 45  1  0  0  0  0
 73 48  1  0  0  0  0
 74 48  1  0  0  0  0
 76 49  1  0  0  0  0
 77 49  1  0  0  0  0
M  END
