1,2,4,5
q = 0.0, confidence = 0.998

 64 66  0  0  0  0  0  0  0  0999 V2000
   -2.3540   -0.4925    0.1889 N   0  0  0  0  0  0  0  0  0  0  0  0
    0.1062   -1.1742   -2.0874 N   0  0  0  0  0  0  0  0  0  0  0  0
   -0.0099   -0.3569   -2.7062 H   0  0  0  0  0  0  0  0  0  0  0  0
    2.3535   -0.4896   -0.1937 N   0  0  0  0  0  0  0  0  0  0  0  0
   -0.1067   -1.1968    2.0753 N   0  0  0  0  0  0  0  0  0  0  0  0
    0.0085   -0.3863    2.7032 H   0  0  0  0  0  0  0  0  0  0  0  0
   -2.8109   -1.6481   -0.6244 C   0  0  0  0  0  0  0  0  0  0  0  0
   -3.9220   -1.7031   -0.5758 H   0  0  0  0  0  0  0  0  0  0  0  0
   -2.4347   -2.5721   -0.1397 H   0  0  0  0  0  0  0  0  0  0  0  0
   -2.3698   -1.6589   -2.0953 C   0  0  0  0  0  0  0  0  0  0  0  0
   -3.0653   -2.3396   -2.6276 H   0  0  0  0  0  0  0  0  0  0  0  0
   -2.5310   -0.6663   -2.5680 H   0  0  0  0  0  0  0  0  0  0  0  0
   -0.9522   -2.1582   -2.3933 C   0  0  0  0  0  0  0  0  0  0  0  0
   -0.7424   -3.0676   -1.7896 H   0  0  0  0  0  0  0  0  0  0  0  0
   -0.8866   -2.4731   -3.4602 H   0  0  0  0  0  0  0  0  0  0  0  0
    1.4795   -1.6932   -2.2341 C   0  0  0  0  0  0  0  0  0  0  0  0
    1.7355   -1.8841   -3.3006 H   0  0  0  0  0  0  0  0  0  0  0  0
    1.5171   -2.6810   -1.7293 H   0  0  0  0  0  0  0  0  0  0  0  0
    2.5233   -0.7397   -1.6458 C   0  0  0  0  0  0  0  0  0  0  0  0
    3.5403   -1.1332   -1.8696 H   0  0  0  0  0  0  0  0  0  0  0  0
    2.4429    0.2403   -2.1592 H   0  0  0  0  0  0  0  0  0  0  0  0
    2.8097   -1.6543    0.6067 C   0  0  0  0  0  0  0  0  0  0  0  0
    3.9208   -1.7099    0.5569 H   0  0  0  0  0  0  0  0  0  0  0  0
    2.4323   -2.5726    0.1123 H   0  0  0  0  0  0  0  0  0  0  0  0
    2.3696   -1.6806    2.0777 C   0  0  0  0  0  0  0  0  0  0  0  0
    3.0655   -2.3667    2.6025 H   0  0  0  0  0  0  0  0  0  0  0  0
    2.5308   -0.6930    2.5607 H   0  0  0  0  0  0  0  0  0  0  0  0
    0.9522   -2.1833    2.3713 C   0  0  0  0  0  0  0  0  0  0  0  0
    0.7426   -3.0870    1.7591 H   0  0  0  0  0  0  0  0  0  0  0  0
    0.8871   -2.5085    3.4351 H   0  0  0  0  0  0  0  0  0  0  0  0
   -1.4797   -1.7183    2.2157 C   0  0  0  0  0  0  0  0  0  0  0  0
   -1.7358   -1.9217    3.2799 H   0  0  0  0  0  0  0  0  0  0  0  0
   -1.5167   -2.7002    1.6994 H   0  0  0  0  0  0  0  0  0  0  0  0
   -2.5239   -0.7587    1.6381 C   0  0  0  0  0  0  0  0  0  0  0  0
   -3.5408   -1.1549    1.8576 H   0  0  0  0  0  0  0  0  0  0  0  0
   -2.4439    0.2155    2.1623 H   0  0  0  0  0  0  0  0  0  0  0  0
   -3.0229    0.7969   -0.2079 C   0  0  0  0  0  0  0  0  0  0  0  0
   -2.7196    1.0207   -1.2495 H   0  0  0  0  0  0  0  0  0  0  0  0
   -2.5727    1.5813    0.4316 H   0  0  0  0  0  0  0  0  0  0  0  0
   -4.5302    0.8079   -0.0843 C   0  0  0  0  0  0  0  0  0  0  0  0
   -5.1503    1.1780    1.1276 C   0  0  0  0  0  0  0  0  0  0  0  0
   -4.5333    1.5121    1.9766 H   0  0  0  0  0  0  0  0  0  0  0  0
   -6.5468    1.1563    1.2553 C   0  0  0  0  0  0  0  0  0  0  0  0
   -7.0146    1.4573    2.2046 H   0  0  0  0  0  0  0  0  0  0  0  0
   -7.3466    0.7686    0.1686 C   0  0  0  0  0  0  0  0  0  0  0  0
   -8.4424    0.7570    0.2664 H   0  0  0  0  0  0  0  0  0  0  0  0
   -6.7448    0.4155   -1.0492 C   0  0  0  0  0  0  0  0  0  0  0  0
   -7.3676    0.1319   -1.9107 H   0  0  0  0  0  0  0  0  0  0  0  0
   -5.3477    0.4380   -1.1732 C   0  0  0  0  0  0  0  0  0  0  0  0
   -4.8857    0.1844   -2.1410 H   0  0  0  0  0  0  0  0  0  0  0  0
    3.0229    0.7950    0.2172 C   0  0  0  0  0  0  0  0  0  0  0  0
    2.7192    1.0080    1.2610 H   0  0  0  0  0  0  0  0  0  0  0  0
    2.5736    1.5864   -0.4142 H   0  0  0  0  0  0  0  0  0  0  0  0
    4.5303    0.8066    0.0945 C   0  0  0  0  0  0  0  0  0  0  0  0
    5.1512    1.1899   -1.1129 C   0  0  0  0  0  0  0  0  0  0  0  0
    4.5346    1.5338   -1.9584 H   0  0  0  0  0  0  0  0  0  0  0  0
    6.5477    1.1692   -1.2402 C   0  0  0  0  0  0  0  0  0  0  0  0
    7.0161    1.4806   -2.1857 H   0  0  0  0  0  0  0  0  0  0  0  0
    7.3468    0.7691   -0.1575 C   0  0  0  0  0  0  0  0  0  0  0  0
    8.4426    0.7581   -0.2549 H   0  0  0  0  0  0  0  0  0  0  0  0
    6.7443    0.4025    1.0560 C   0  0  0  0  0  0  0  0  0  0  0  0
    7.3665    0.1090    1.9146 H   0  0  0  0  0  0  0  0  0  0  0  0
    5.3471    0.4242    1.1796 C   0  0  0  0  0  0  0  0  0  0  0  0
    4.8845    0.1600    2.1443 H   0  0  0  0  0  0  0  0  0  0  0  0
  1 34  1  0  0  0  0
  3  2  1  0  0  0  0
  4 51  1  0  0  0  0
  4 22  1  0  0  0  0
  5 31  1  0  0  0  0
  5 28  1  0  0  0  0
  5  6  1  0  0  0  0
  7  8  1  0  0  0  0
  7  9  1  0  0  0  0
  7  1  1  0  0  0  0
 10  7  1  0  0  0  0
 11 10  1  0  0  0  0
 12 10  1  0  0  0  0
 13 10  1  0  0  0  0
 13  2  1  0  0  0  0
 13 14  1  0  0  0  0
 15 13  1  0  0  0  0
 16  2  1  0  0  0  0
 16 18  1  0  0  0  0
 16 19  1  0  0  0  0
 17 16  1  0  0  0  0
 19  4  1  0  0  0  0
 20 19  1  0  0  0  0
 21 19  1  0  0  0  0
 22 25  1  0  0  0  0
 23 22  1  0  0  0  0
 24 22  1  0  0  0  0
 25 28  1  0  0  0  0
 25 27  1  0  0  0  0
 25 26  1  0  0  0  0
 28 30  1  0  0  0  0
 29 28  1  0  0  0  0
 31 32  1  0  0  0  0
 33 31  1  0  0  0  0
 34 35  1  0  0  0  0
 34 36  1  0  0  0  0
 34 31  1  0  0  0  0
 37 40  1  0  0  0  0
 37  1  1  0  0  0  0
 37 39  1  0  0  0  0
 38 37  1  0  0  0  0
 40 41  1  0  0  0  0
 41 43  2  0  0  0  0
 41 42  1  0  0  0  0
 43 44  1  0  0  0  0
 45 46  1  0  0  0  0
 45 43  1  0  0  0  0
 47 45  2  0  0  0  0
 48 47  1  0  0  0  0
 49 47  1  0  0  0  0
 49 40  2  0  0  0  0
 50 49  1  0  0  0  0
 51 52  1  0  0  0  0
 53 51  1  0  0  0  0
 54 51  1  0  0  0  0
 54 63  1  0  0  0  0
 55 54  2  0  0  0  0
 56 55  1  0  0  0  0
 57 55  1  0  0  0  0
 57 59  2  0  0  0  0
 58 57  1  0  0  0  0
 59 61  1  0  0  0  0
 60 59  1  0  0  0  0
 61 63  2  0  0  0  0
 61 62  1  0  0  0  0
 63 64  1  0  0  0  0
M  END
