3,4,5,6
q = 0.0, confidence = 0.96

 78 87  0  0  0  0  0  0  0  0999 V2000
    2.1759    3.3754    0.2314 O   0  0  0  0  0  0  0  0  0  0  0  0
   -2.1755    3.3759   -0.2316 O   0  0  0  0  0  0  0  0  0  0  0  0
   -1.2430   -1.3866    1.5234 N   0  0  0  0  0  2  0  0  0  0  0  0
   -1.4189   -0.0513   -0.6441 N   0  0  0  0  0  2  0  0  0  0  0  0
    1.2430   -1.3865   -1.5234 N   0  0  0  0  0  2  0  0  0  0  0  0
    1.4188   -0.0515    0.6443 N   0  0  0  0  0  2  0  0  0  0  0  0
   -1.0735   -1.9739    2.7167 C   0  0  0  0  0  0  0  0  0  0  0  0
   -0.0381   -2.2336    2.9813 H   0  0  0  0  0  0  0  0  0  0  0  0
   -2.1701   -2.2958    3.5468 C   0  0  0  0  0  0  0  0  0  0  0  0
   -1.9746   -2.7773    4.5155 H   0  0  0  0  0  0  0  0  0  0  0  0
   -3.4781   -2.0451    3.1260 C   0  0  0  0  0  0  0  0  0  0  0  0
   -4.3373   -2.3281    3.7528 H   0  0  0  0  0  0  0  0  0  0  0  0
   -3.6879   -1.4322    1.8646 C   0  0  0  0  0  0  0  0  0  0  0  0
   -2.5227   -1.0995    1.1280 C   0  0  0  0  0  0  0  0  0  0  0  0
   -4.9606   -1.1270    1.2601 C   0  0  0  0  0  0  0  0  0  0  0  0
   -5.8765   -1.4091    1.8010 H   0  0  0  0  0  0  0  0  0  0  0  0
   -5.0495   -0.5136    0.0261 C   0  0  0  0  0  0  0  0  0  0  0  0
   -6.0370   -0.3155   -0.4179 H   0  0  0  0  0  0  0  0  0  0  0  0
   -3.8748   -0.1089   -0.7022 C   0  0  0  0  0  0  0  0  0  0  0  0
   -2.6214   -0.4162   -0.1120 C   0  0  0  0  0  0  0  0  0  0  0  0
   -3.8428    0.5524   -1.9644 C   0  0  0  0  0  0  0  0  0  0  0  0
   -4.7755    0.7077   -2.5291 H   0  0  0  0  0  0  0  0  0  0  0  0
   -2.6251    1.0450   -2.4412 C   0  0  0  0  0  0  0  0  0  0  0  0
   -1.4596    0.8374   -1.6521 C   0  0  0  0  0  0  0  0  0  0  0  0
   -2.4033    1.8388   -3.7125 C   0  0  0  0  0  0  0  0  0  0  0  0
   -2.5973    2.9170   -3.5104 H   0  0  0  0  0  0  0  0  0  0  0  0
   -3.1305    1.5200   -4.4866 H   0  0  0  0  0  0  0  0  0  0  0  0
   -0.9494    1.6850   -4.2274 C   0  0  0  0  0  0  0  0  0  0  0  0
   -0.7869    0.6231   -4.5214 H   0  0  0  0  0  0  0  0  0  0  0  0
   -0.7963    2.2979   -5.1377 H   0  0  0  0  0  0  0  0  0  0  0  0
    0.0338    2.0892   -3.1481 C   0  0  0  0  0  0  0  0  0  0  0  0
   -0.3073    1.7026   -1.8332 C   0  0  0  0  0  0  0  0  0  0  0  0
    1.1931    2.8527   -3.3167 C   0  0  0  0  0  0  0  0  0  0  0  0
    1.5129    3.1637   -4.3236 H   0  0  0  0  0  0  0  0  0  0  0  0
    1.9634    3.2312   -2.2004 C   0  0  0  0  0  0  0  0  0  0  0  0
    2.8837    3.8084   -2.3591 H   0  0  0  0  0  0  0  0  0  0  0  0
    1.5257    2.9504   -0.8880 C   0  0  0  0  0  0  0  0  0  0  0  0
    0.3256    2.2160   -0.6779 C   0  0  0  0  0  0  0  0  0  0  0  0
    3.4473    3.9782    0.0950 C   0  0  0  0  0  0  0  0  0  0  0  0
    3.8133    4.1646    1.1219 H   0  0  0  0  0  0  0  0  0  0  0  0
    4.1649    3.3066   -0.4269 H   0  0  0  0  0  0  0  0  0  0  0  0
    3.3951    4.9470   -0.4507 H   0  0  0  0  0  0  0  0  0  0  0  0
    1.0735   -1.9735   -2.7168 C   0  0  0  0  0  0  0  0  0  0  0  0
    0.0381   -2.2332   -2.9814 H   0  0  0  0  0  0  0  0  0  0  0  0
    2.1701   -2.2953   -3.5469 C   0  0  0  0  0  0  0  0  0  0  0  0
    1.9746   -2.7767   -4.5156 H   0  0  0  0  0  0  0  0  0  0  0  0
    3.4781   -2.0447   -3.1260 C   0  0  0  0  0  0  0  0  0  0  0  0
    4.3373   -2.3277   -3.7528 H   0  0  0  0  0  0  0  0  0  0  0  0
    3.6879   -1.4320   -1.8645 C   0  0  0  0  0  0  0  0  0  0  0  0
    2.5227   -1.0994   -1.1278 C   0  0  0  0  0  0  0  0  0  0  0  0
    4.9606   -1.1269   -1.2599 C   0  0  0  0  0  0  0  0  0  0  0  0
    5.8765   -1.4089   -1.8009 H   0  0  0  0  0  0  0  0  0  0  0  0
    5.0494   -0.5136   -0.0258 C   0  0  0  0  0  0  0  0  0  0  0  0
    6.0368   -0.3155    0.4182 H   0  0  0  0  0  0  0  0  0  0  0  0
    3.8747   -0.1090    0.7025 C   0  0  0  0  0  0  0  0  0  0  0  0
    2.6213   -0.4163    0.1122 C   0  0  0  0  0  0  0  0  0  0  0  0
    3.8427    0.5523    1.9647 C   0  0  0  0  0  0  0  0  0  0  0  0
    4.7754    0.7075    2.5294 H   0  0  0  0  0  0  0  0  0  0  0  0
    2.6249    1.0449    2.4414 C   0  0  0  0  0  0  0  0  0  0  0  0
    1.4594    0.8373    1.6523 C   0  0  0  0  0  0  0  0  0  0  0  0
    2.4032    1.8388    3.7127 C   0  0  0  0  0  0  0  0  0  0  0  0
    2.5974    2.9170    3.5106 H   0  0  0  0  0  0  0  0  0  0  0  0
    3.1303    1.5198    4.4868 H   0  0  0  0  0  0  0  0  0  0  0  0
    0.9492    1.6852    4.2275 C   0  0  0  0  0  0  0  0  0  0  0  0
    0.7865    0.6233    4.5215 H   0  0  0  0  0  0  0  0  0  0  0  0
    0.7961    2.2981    5.1378 H   0  0  0  0  0  0  0  0  0  0  0  0
   -0.0338    2.0895    3.1481 C   0  0  0  0  0  0  0  0  0  0  0  0
    0.3073    1.7027    1.8333 C   0  0  0  0  0  0  0  0  0  0  0  0
   -1.1930    2.8533    3.3166 C   0  0  0  0  0  0  0  0  0  0  0  0
   -1.5127    3.1645    4.3234 H   0  0  0  0  0  0  0  0  0  0  0  0
   -1.9631    3.2319    2.2002 C   0  0  0  0  0  0  0  0  0  0  0  0
   -2.8833    3.8094    2.3588 H   0  0  0  0  0  0  0  0  0  0  0  0
   -1.5253    2.9509    0.8879 C   0  0  0  0  0  0  0  0  0  0  0  0
   -0.3255    2.2161    0.6779 C   0  0  0  0  0  0  0  0  0  0  0  0
   -3.4464    3.9796   -0.0953 C   0  0  0  0  0  0  0  0  0  0  0  0
   -3.8122    4.1663   -1.1222 H   0  0  0  0  0  0  0  0  0  0  0  0
   -4.1645    3.3085    0.4266 H   0  0  0  0  0  0  0  0  0  0  0  0
   -3.3936    4.9483    0.4505 H   0  0  0  0  0  0  0  0  0  0  0  0
  2 75  1  0  0  0  0
  2 73  1  0  0  0  0
  3  7  1  0  0  0  0
  4 20  1  0  0  0  0
  5 50  1  0  0  0  0
  6 60  1  0  0  0  0
  7  8  1  0  0  0  0
  7  9  2  0  0  0  0
  9 10  1  0  0  0  0
 11  9  1  0  0  0  0
 11 12  1  0  0  0  0
 13 11  2  0  0  0  0
 14  3  1  0  0  0  0
 14 13  1  0  0  0  0
 15 16  1  0  0  0  0
 15 13  1  0  0  0  0
 17 15  2  0  0  0  0
 18 17  1  0  0  0  0
 19 20  1  0  0  0  0
 19 17  1  0  0  0  0
 20 14  2  0  0  0  0
 21 19  2  0  0  0  0
 22 21  1  0  0  0  0
 23 21  1  0  0  0  0
 23 24  2  0  0  0  0
 24  4  1  0  0  0  0
 25 26  1  0  0  0  0
 25 23  1  0  0  0  0
 27 25  1  0  0  0  0
 28 25  1  0  0  0  0
 28 31  1  0  0  0  0
 29 28  1  0  0  0  0
 30 28  1  0  0  0  0
 31 32  1  0  0  0  0
 32 24  1  0  0  0  0
 32 38  2  0  0  0  0
 33 31  2  0  0  0  0
 33 35  1  0  0  0  0
 34 33  1  0  0  0  0
 35 37  2  0  0  0  0
 36 35  1  0  0  0  0
 37 38  1  0  0  0  0
 37  1  1  0  0  0  0
 38 74  1  0  0  0  0
 39  1  1  0  0  0  0
 39 40  1  0  0  0  0
 41 39  1  0  0  0  0
 42 39  1  0  0  0  0
 43  5  1  0  0  0  0
 44 43  1  0  0  0  0
 45 47  1  0  0  0  0
 45 43  2  0  0  0  0
 46 45  1  0  0  0  0
 47 49  2  0  0  0  0
 48 47  1  0  0  0  0
 49 51  1  0  0  0  0
 49 50  1  0  0  0  0
 50 56  2  0  0  0  0
 51 53  2  0  0  0  0
 52 51  1  0  0  0  0
 53 54  1  0  0  0  0
 53 55  1  0  0  0  0
 55 57  2  0  0  0  0
 56  6  1  0  0  0  0
 56 55  1  0  0  0  0
 57 59  1  0  0  0  0
 57 58  1  0  0  0  0
 59 61  1  0  0  0  0
 60 68  1  0  0  0  0
 60 59  2  0  0  0  0
 61 64  1  0  0  0  0
 61 63  1  0  0  0  0
 62 61  1  0  0  0  0
 64 65  1  0  0  0  0
 64 66  1  0  0  0  0
 67 69  1  0  0  0  0
 67 64  1  0  0  0  0
 68 67  2  0  0  0  0
 69 70  1  0  0  0  0
 71 72  1  0  0  0  0
 71 69  2  0  0  0  0
 73 71  1  0  0  0  0
 74 73  2  0  0  0  0
 74 68  1  0  0  0  0
 75 77  1  0  0  0  0
 75 78  1  0  0  0  0
 76 75  1  0  0  0  0
M  END
