1,2,13,23
q = 0.0, confidence = 0.588

 62 64  0  0  0  0  0  0  0  0999 V2000
    2.2458   -0.7321   -0.3148 N   0  0  0  0  0  0  0  0  0  0  0  0
   -2.2459   -0.7320    0.3151 N   0  0  0  0  0  0  0  0  0  0  0  0
    4.6537   -0.3936    0.4731 C   0  0  0  0  0  0  0  0  0  0  0  0
   -5.5875    0.0338    0.4944 C   0  0  0  0  0  0  0  0  0  0  0  0
   -5.2729    0.7639    1.2570 H   0  0  0  0  0  0  0  0  0  0  0  0
    5.0876   -1.3048    1.4586 C   0  0  0  0  0  0  0  0  0  0  0  0
    4.3824   -1.6267    2.2411 H   0  0  0  0  0  0  0  0  0  0  0  0
   -2.6787   -0.8634    1.7300 C   0  0  0  0  0  0  0  0  0  0  0  0
   -3.6397   -1.4273    1.7659 H   0  0  0  0  0  0  0  0  0  0  0  0
   -2.8910    0.1691    2.0760 H   0  0  0  0  0  0  0  0  0  0  0  0
    5.5874    0.0336   -0.4947 C   0  0  0  0  0  0  0  0  0  0  0  0
    5.2727    0.7634   -1.2575 H   0  0  0  0  0  0  0  0  0  0  0  0
    0.4786   -0.7575    1.7203 N   0  0  0  0  0  2  0  0  0  0  0  0
   -3.2263    0.1127   -0.4401 C   0  0  0  0  0  0  0  0  0  0  0  0
   -2.8267    0.2248   -1.4670 H   0  0  0  0  0  0  0  0  0  0  0  0
   -3.1773    1.1102    0.0372 H   0  0  0  0  0  0  0  0  0  0  0  0
    1.6910   -1.5068   -2.7081 C   0  0  0  0  0  0  0  0  0  0  0  0
    2.2239   -1.5738   -3.6822 H   0  0  0  0  0  0  0  0  0  0  0  0
    1.4665   -2.5576   -2.4222 H   0  0  0  0  0  0  0  0  0  0  0  0
    2.6786   -0.8640   -1.7297 C   0  0  0  0  0  0  0  0  0  0  0  0
    3.6396   -1.4279   -1.7655 H   0  0  0  0  0  0  0  0  0  0  0  0
    2.8909    0.1685   -2.0760 H   0  0  0  0  0  0  0  0  0  0  0  0
   -0.4787   -0.7579   -1.7200 N   0  0  0  0  0  2  0  0  0  0  0  0
    3.2263    0.1127    0.4401 C   0  0  0  0  0  0  0  0  0  0  0  0
    3.1773    1.1101   -0.0374 H   0  0  0  0  0  0  0  0  0  0  0  0
    2.8268    0.2251    1.4670 H   0  0  0  0  0  0  0  0  0  0  0  0
   -4.6537   -0.3937   -0.4731 C   0  0  0  0  0  0  0  0  0  0  0  0
   -5.0874   -1.3052   -1.4584 C   0  0  0  0  0  0  0  0  0  0  0  0
   -4.3821   -1.6273   -2.2406 H   0  0  0  0  0  0  0  0  0  0  0  0
    1.4128   -1.8579    1.7202 C   0  0  0  0  0  0  0  0  0  0  0  0
    0.9379   -2.8317    2.0070 H   0  0  0  0  0  0  0  0  0  0  0  0
    2.2269   -1.7092    2.4814 H   0  0  0  0  0  0  0  0  0  0  0  0
    6.9052   -0.4464   -0.4913 C   0  0  0  0  0  0  0  0  0  0  0  0
    7.6178   -0.0972   -1.2543 H   0  0  0  0  0  0  0  0  0  0  0  0
    7.3167   -1.3648    0.4877 C   0  0  0  0  0  0  0  0  0  0  0  0
    8.3508   -1.7417    0.4937 H   0  0  0  0  0  0  0  0  0  0  0  0
   -1.6910   -1.5061    2.7086 C   0  0  0  0  0  0  0  0  0  0  0  0
   -1.4667   -2.5569    2.4230 H   0  0  0  0  0  0  0  0  0  0  0  0
   -2.2240   -1.5728    3.6827 H   0  0  0  0  0  0  0  0  0  0  0  0
   -1.4129   -1.8583   -1.7197 C   0  0  0  0  0  0  0  0  0  0  0  0
   -0.9380   -2.8322   -2.0062 H   0  0  0  0  0  0  0  0  0  0  0  0
   -2.2270   -1.7098   -2.4808 H   0  0  0  0  0  0  0  0  0  0  0  0
   -0.3794   -0.7251    2.8942 C   0  0  0  0  0  0  0  0  0  0  0  0
   -0.6368    0.3275    3.1438 H   0  0  0  0  0  0  0  0  0  0  0  0
    0.1612   -1.1287    3.7851 H   0  0  0  0  0  0  0  0  0  0  0  0
   -6.9054   -0.4463    0.4910 C   0  0  0  0  0  0  0  0  0  0  0  0
   -7.6180   -0.0968    1.2538 H   0  0  0  0  0  0  0  0  0  0  0  0
   -2.0110   -2.0408   -0.3244 C   0  0  0  0  0  0  0  0  0  0  0  0
   -2.9415   -2.6560   -0.3593 H   0  0  0  0  0  0  0  0  0  0  0  0
   -1.2819   -2.5781    0.3131 H   0  0  0  0  0  0  0  0  0  0  0  0
    0.3794   -0.7259   -2.8939 C   0  0  0  0  0  0  0  0  0  0  0  0
    0.6368    0.3267   -3.1438 H   0  0  0  0  0  0  0  0  0  0  0  0
   -0.1612   -1.1296   -3.7847 H   0  0  0  0  0  0  0  0  0  0  0  0
    2.0109   -2.0408    0.3250 C   0  0  0  0  0  0  0  0  0  0  0  0
    2.9414   -2.6560    0.3601 H   0  0  0  0  0  0  0  0  0  0  0  0
    1.2818   -2.5783   -0.3123 H   0  0  0  0  0  0  0  0  0  0  0  0
   -7.3166   -1.3649   -0.4878 C   0  0  0  0  0  0  0  0  0  0  0  0
   -8.3507   -1.7419   -0.4937 H   0  0  0  0  0  0  0  0  0  0  0  0
    6.4045   -1.7892    1.4664 C   0  0  0  0  0  0  0  0  0  0  0  0
    6.7226   -2.4973    2.2470 H   0  0  0  0  0  0  0  0  0  0  0  0
   -6.4044   -1.7896   -1.4662 C   0  0  0  0  0  0  0  0  0  0  0  0
   -6.7223   -2.4980   -2.2466 H   0  0  0  0  0  0  0  0  0  0  0  0
  1 54  1  0  0  0  0
  1 24  1  0  0  0  0
  2  8  1  0  0  0  0
  3  6  1  0  0  0  0
  4  5  1  0  0  0  0
  6 59  2  0  0  0  0
  6  7  1  0  0  0  0
  8  9  1  0  0  0  0
  8 10  1  0  0  0  0
  8 37  1  0  0  0  0
 11 33  1  0  0  0  0
 11  3  2  0  0  0  0
 12 11  1  0  0  0  0
 13 43  1  0  0  0  0
 14 16  1  0  0  0  0
 14  2  1  0  0  0  0
 15 14  1  0  0  0  0
 17 19  1  0  0  0  0
 17 20  1  0  0  0  0
 18 17  1  0  0  0  0
 20  1  1  0  0  0  0
 21 20  1  0  0  0  0
 22 20  1  0  0  0  0
 23 40  1  0  0  0  0
 24  3  1  0  0  0  0
 24 26  1  0  0  0  0
 25 24  1  0  0  0  0
 27 14  1  0  0  0  0
 27  4  2  0  0  0  0
 28 27  1  0  0  0  0
 29 28  1  0  0  0  0
 30 13  1  0  0  0  0
 30 31  1  0  0  0  0
 30 32  1  0  0  0  0
 33 35  2  0  0  0  0
 34 33  1  0  0  0  0
 35 36  1  0  0  0  0
 35 59  1  0  0  0  0
 37 43  1  0  0  0  0
 37 39  1  0  0  0  0
 38 37  1  0  0  0  0
 40 48  1  0  0  0  0
 41 40  1  0  0  0  0
 42 40  1  0  0  0  0
 43 44  1  0  0  0  0
 43 45  1  0  0  0  0
 46  4  1  0  0  0  0
 46 47  1  0  0  0  0
 48 50  1  0  0  0  0
 48  2  1  0  0  0  0
 49 48  1  0  0  0  0
 51 17  1  0  0  0  0
 51 23  1  0  0  0  0
 52 51  1  0  0  0  0
 53 51  1  0  0  0  0
 54 55  1  0  0  0  0
 54 30  1  0  0  0  0
 56 54  1  0  0  0  0
 57 46  2  0  0  0  0
 58 57  1  0  0  0  0
 59 60  1  0  0  0  0
 61 28  2  0  0  0  0
 61 57  1  0  0  0  0
 62 61  1  0  0  0  0
M  END
