1,2,3,4
q = -2.0, confidence = 0.946

 74 79  0  0  0  0  0  0  0  0999 V2000
   -3.9774    0.1685    0.1706 N   0  0  0  0  0  0  0  0  0  0  0  0
   -2.3781   -1.1118   -1.4212 N   0  0  0  0  0  0  0  0  0  0  0  0
   -1.9851   -0.9277    1.4917 N   0  0  0  0  0  0  0  0  0  0  0  0
   -2.1310    2.1526    0.2779 N   0  0  0  0  0  0  0  0  0  0  0  0
    0.4814   -2.1210   -1.3992 N   0  0  0  0  0  4  0  0  0  0  0  0
    1.0529   -0.4044    1.8390 N   0  0  0  0  0  0  0  0  0  0  0  0
    0.7247    2.6329   -0.7643 N   0  0  0  0  0  0  0  0  0  0  0  0
   -4.4597    0.1271   -1.2348 C   0  0  0  0  0  0  0  0  0  0  0  0
   -4.2806    1.1389   -1.6653 H   0  0  0  0  0  0  0  0  0  0  0  0
   -5.5542   -0.0754   -1.3002 H   0  0  0  0  0  0  0  0  0  0  0  0
   -3.6460   -0.9351   -1.9063 C   0  0  0  0  0  3  0  0  0  0  0  0
   -3.9582   -1.8861   -2.9120 C   0  0  0  0  0  0  0  0  0  0  0  0
   -4.9027   -1.9581   -3.4640 H   0  0  0  0  0  0  0  0  0  0  0  0
   -2.8279   -2.6940   -3.0500 C   0  0  0  0  0  0  0  0  0  0  0  0
   -2.6753   -3.5176   -3.7582 H   0  0  0  0  0  0  0  0  0  0  0  0
   -1.8423   -2.2004   -2.1289 C   0  0  0  0  0  0  0  0  0  0  0  0
   -0.5367   -2.7029   -2.0339 C   0  0  0  0  0  0  0  0  0  0  0  0
   -0.3218   -3.6346   -2.5831 H   0  0  0  0  0  0  0  0  0  0  0  0
    1.7784   -2.6369   -1.2557 C   0  0  0  0  0  0  0  0  0  0  0  0
    2.0723   -4.0133   -1.3761 C   0  0  0  0  0  0  0  0  0  0  0  0
    1.2662   -4.7402   -1.5528 H   0  0  0  0  0  0  0  0  0  0  0  0
    3.3926   -4.4585   -1.2283 C   0  0  0  0  0  0  0  0  0  0  0  0
    3.6108   -5.5335   -1.3190 H   0  0  0  0  0  0  0  0  0  0  0  0
    4.4283   -3.5527   -0.9432 C   0  0  0  0  0  0  0  0  0  0  0  0
    5.4594   -3.9136   -0.8149 H   0  0  0  0  0  0  0  0  0  0  0  0
    4.1326   -2.1862   -0.8071 C   0  0  0  0  0  0  0  0  0  0  0  0
    4.9235   -1.4618   -0.5624 H   0  0  0  0  0  0  0  0  0  0  0  0
    2.8211   -1.7277   -0.9661 C   0  0  0  0  0  0  0  0  0  0  0  0
    2.5954   -0.6582   -0.8613 H   0  0  0  0  0  0  0  0  0  0  0  0
   -4.3415   -1.0750    0.9138 C   0  0  0  0  0  0  0  0  0  0  0  0
   -4.4636   -1.8878    0.1683 H   0  0  0  0  0  0  0  0  0  0  0  0
   -5.3170   -0.9563    1.4353 H   0  0  0  0  0  0  0  0  0  0  0  0
   -3.2223   -1.3798    1.8500 C   0  0  0  0  0  0  0  0  0  0  0  0
   -3.1880   -2.0880    3.0730 C   0  0  0  0  0  0  0  0  0  0  0  0
   -4.0433   -2.5505    3.5793 H   0  0  0  0  0  0  0  0  0  0  0  0
   -1.8514   -2.0699    3.4853 C   0  0  0  0  0  0  0  0  0  0  0  0
   -1.4217   -2.5099    4.3936 H   0  0  0  0  0  0  0  0  0  0  0  0
   -1.1095   -1.3428    2.5033 C   0  0  0  0  0  3  0  0  0  0  0  0
    0.2821   -1.0987    2.6423 C   0  0  0  0  0  0  0  0  0  0  0  0
    0.7227   -1.5420    3.5604 H   0  0  0  0  0  0  0  0  0  0  0  0
    2.4376   -0.3125    2.0260 C   0  0  0  0  0  0  0  0  0  0  0  0
    3.2193   -1.3509    2.5884 C   0  0  0  0  0  0  0  0  0  0  0  0
    2.7361   -2.2871    2.9047 H   0  0  0  0  0  0  0  0  0  0  0  0
    4.6100   -1.2157    2.6852 C   0  0  0  0  0  0  0  0  0  0  0  0
    5.2037   -2.0383    3.1132 H   0  0  0  0  0  0  0  0  0  0  0  0
    5.2527   -0.0578    2.2140 C   0  0  0  0  0  0  0  0  0  0  0  0
    6.3470    0.0355    2.2820 H   0  0  0  0  0  0  0  0  0  0  0  0
    4.4848    0.9731    1.6449 C   0  0  0  0  0  0  0  0  0  0  0  0
    4.9674    1.8848    1.2603 H   0  0  0  0  0  0  0  0  0  0  0  0
    3.0937    0.8492    1.5549 C   0  0  0  0  0  0  0  0  0  0  0  0
    2.4893    1.6552    1.1182 H   0  0  0  0  0  0  0  0  0  0  0  0
   -4.3613    1.3876    0.9247 C   0  0  0  0  0  0  0  0  0  0  0  0
   -4.2524    1.1336    2.0015 H   0  0  0  0  0  0  0  0  0  0  0  0
   -5.4278    1.6571    0.7530 H   0  0  0  0  0  0  0  0  0  0  0  0
   -3.4297    2.4963    0.5664 C   0  0  0  0  0  3  0  0  0  0  0  0
   -3.6249    3.8921    0.5426 C   0  0  0  0  0  0  0  0  0  0  0  0
   -4.5642    4.4234    0.7360 H   0  0  0  0  0  0  0  0  0  0  0  0
   -2.3752    4.4449    0.2205 C   0  0  0  0  0  0  0  0  0  0  0  0
   -2.1320    5.5056    0.0792 H   0  0  0  0  0  0  0  0  0  0  0  0
   -1.4641    3.3645    0.0455 C   0  0  0  0  0  0  0  0  0  0  0  0
   -0.1267    3.5625   -0.4017 C   0  0  0  0  0  0  0  0  0  0  0  0
    0.1697    4.6309   -0.4800 H   0  0  0  0  0  0  0  0  0  0  0  0
    2.0501    2.9086   -1.1141 C   0  0  0  0  0  0  0  0  0  0  0  0
    2.8017    3.9738   -0.5591 C   0  0  0  0  0  0  0  0  0  0  0  0
    2.3336    4.6453    0.1762 H   0  0  0  0  0  0  0  0  0  0  0  0
    4.1504    4.1418   -0.9006 C   0  0  0  0  0  0  0  0  0  0  0  0
    4.7224    4.9684   -0.4514 H   0  0  0  0  0  0  0  0  0  0  0  0
    4.7803    3.2551   -1.7904 C   0  0  0  0  0  0  0  0  0  0  0  0
    5.8423    3.3865   -2.0457 H   0  0  0  0  0  0  0  0  0  0  0  0
    4.0432    2.1923   -2.3408 C   0  0  0  0  0  0  0  0  0  0  0  0
    4.5251    1.4867   -3.0349 H   0  0  0  0  0  0  0  0  0  0  0  0
    2.6958    2.0180   -2.0072 C   0  0  0  0  0  0  0  0  0  0  0  0
    2.1115    1.1902   -2.4355 H   0  0  0  0  0  0  0  0  0  0  0  0
    0.3130   -1.1285   -1.0144 H   0  0  0  0  0  0  0  0  0  0  0  0
  1 30  1  0  0  0  0
  1 52  1  0  0  0  0
  3 33  2  0  0  0  0
  3 38  1  0  0  0  0
  4 55  1  0  0  0  0
  5 19  1  0  0  0  0
  5 74  1  0  0  0  0
  6 41  1  0  0  0  0
  6 39  2  0  0  0  0
  7 61  2  0  0  0  0
  8  1  1  0  0  0  0
  9  8  1  0  0  0  0
 10  8  1  0  0  0  0
 11  2  1  0  0  0  0
 11  8  1  0  0  0  0
 12 11  1  0  0  0  0
 13 12  1  0  0  0  0
 14 12  2  0  0  0  0
 14 16  1  0  0  0  0
 15 14  1  0  0  0  0
 16 17  1  0  0  0  0
 16  2  2  0  0  0  0
 17  5  2  0  0  0  0
 18 17  1  0  0  0  0
 19 28  1  0  0  0  0
 20 19  2  0  0  0  0
 20 22  1  0  0  0  0
 21 20  1  0  0  0  0
 22 24  2  0  0  0  0
 23 22  1  0  0  0  0
 24 25  1  0  0  0  0
 24 26  1  0  0  0  0
 26 27  1  0  0  0  0
 28 29  1  0  0  0  0
 28 26  2  0  0  0  0
 30 32  1  0  0  0  0
 30 33  1  0  0  0  0
 31 30  1  0  0  0  0
 33 34  1  0  0  0  0
 34 36  2  0  0  0  0
 34 35  1  0  0  0  0
 36 37  1  0  0  0  0
 38 39  1  0  0  0  0
 38 36  1  0  0  0  0
 39 40  1  0  0  0  0
 41 42  1  0  0  0  0
 42 44  2  0  0  0  0
 42 43  1  0  0  0  0
 44 45  1  0  0  0  0
 46 47  1  0  0  0  0
 46 44  1  0  0  0  0
 48 46  2  0  0  0  0
 49 48  1  0  0  0  0
 50 48  1  0  0  0  0
 50 41  2  0  0  0  0
 51 50  1  0  0  0  0
 52 53  1  0  0  0  0
 54 52  1  0  0  0  0
 55 52  1  0  0  0  0
 56 55  1  0  0  0  0
 56 57  1  0  0  0  0
 58 56  2  0  0  0  0
 59 58  1  0  0  0  0
 60 58  1  0  0  0  0
 60  4  2  0  0  0  0
 61 60  1  0  0  0  0
 62 61  1  0  0  0  0
 63  7  1  0  0  0  0
 63 64  1  0  0  0  0
 64 65  1  0  0  0  0
 66 64  2  0  0  0  0
 66 67  1  0  0  0  0
 68 66  1  0  0  0  0
 69 68  1  0  0  0  0
 70 72  1  0  0  0  0
 70 68  2  0  0  0  0
 71 70  1  0  0  0  0
 72 63  2  0  0  0  0
 73 72  1  0  0  0  0
M  END
