6,9,26,29
q = 0.0, confidence = 0.978

 40 41  0  0  1  0  0  0  0  0999 V2000
   -0.7120    0.2557    2.6754 C   0  0  0  0  0  0  0  0  0  0  0  0
   -1.4210   -0.5967    2.6766 H   0  0  0  0  0  0  0  0  0  0  0  0
   -0.9242    0.8546    3.5896 H   0  0  0  0  0  0  0  0  0  0  0  0
   -3.2254   -2.6832   -0.6625 C   0  0  0  0  0  0  0  0  0  0  0  0
   -3.4174   -3.6417   -1.1741 H   0  0  0  0  0  0  0  0  0  0  0  0
   -0.9604    1.0576    1.4472 N   0  0  0  0  0  0  0  0  0  0  0  0
   -2.7240   -0.3289    0.5332 C   0  0  2  0  0  3  0  0  0  0  0  0
   -4.2596   -2.0997   -0.0320 N   0  0  0  0  0  0  0  0  0  0  0  0
   -1.6730   -0.9542   -0.0777 N   0  0  0  0  0  2  0  0  0  0  0  0
   -3.9916   -0.9253    0.5583 C   0  0  0  0  0  0  0  0  0  0  0  0
   -4.8227   -0.4151    1.0769 H   0  0  0  0  0  0  0  0  0  0  0  0
   -1.9389   -2.1348   -0.6921 C   0  0  0  0  0  0  0  0  0  0  0  0
   -1.1016   -2.6150   -1.2162 H   0  0  0  0  0  0  0  0  0  0  0  0
   -0.5234    2.4567    1.6135 C   0  0  0  0  0  0  0  0  0  0  0  0
    0.5524    2.4935    1.8628 H   0  0  0  0  0  0  0  0  0  0  0  0
   -1.0980    2.9529    2.4273 H   0  0  0  0  0  0  0  0  0  0  0  0
   -0.6939    3.0076    0.6700 H   0  0  0  0  0  0  0  0  0  0  0  0
   -2.4081    1.0163    1.1111 C   0  0  0  0  0  0  0  0  0  0  0  0
   -2.6154    1.8081    0.3581 H   0  0  0  0  0  0  0  0  0  0  0  0
   -3.0338    1.2394    2.0050 H   0  0  0  0  0  0  0  0  0  0  0  0
    0.7121   -0.2558    2.6754 C   0  0  0  0  0  0  0  0  0  0  0  0
    1.4211    0.5966    2.6766 H   0  0  0  0  0  0  0  0  0  0  0  0
    0.9242   -0.8547    3.5896 H   0  0  0  0  0  0  0  0  0  0  0  0
    3.2255    2.6832   -0.6625 C   0  0  0  0  0  0  0  0  0  0  0  0
    3.4174    3.6418   -1.1739 H   0  0  0  0  0  0  0  0  0  0  0  0
    0.9604   -1.0577    1.4471 N   0  0  0  0  0  0  0  0  0  0  0  0
    2.7240    0.3289    0.5332 C   0  0  2  0  0  3  0  0  0  0  0  0
    4.2597    2.0997   -0.0320 N   0  0  0  0  0  0  0  0  0  0  0  0
    1.6730    0.9542   -0.0777 N   0  0  0  0  0  2  0  0  0  0  0  0
    3.9916    0.9252    0.5583 C   0  0  0  0  0  0  0  0  0  0  0  0
    4.8227    0.4150    1.0768 H   0  0  0  0  0  0  0  0  0  0  0  0
    1.9390    2.1349   -0.6921 C   0  0  0  0  0  0  0  0  0  0  0  0
    1.1016    2.6151   -1.2161 H   0  0  0  0  0  0  0  0  0  0  0  0
    0.5233   -2.4567    1.6133 C   0  0  0  0  0  0  0  0  0  0  0  0
   -0.5525   -2.4935    1.8627 H   0  0  0  0  0  0  0  0  0  0  0  0
    1.0979   -2.9530    2.4271 H   0  0  0  0  0  0  0  0  0  0  0  0
    0.6939   -3.0076    0.6698 H   0  0  0  0  0  0  0  0  0  0  0  0
    2.4080   -1.0163    1.1110 C   0  0  0  0  0  0  0  0  0  0  0  0
    2.6153   -1.8082    0.3580 H   0  0  0  0  0  0  0  0  0  0  0  0
    3.0338   -1.2396    2.0049 H   0  0  0  0  0  0  0  0  0  0  0  0
  1  2  1  0  0  0  0
  1  3  1  0  0  0  0
  4  8  1  0  0  0  0
  5  4  1  0  0  0  0
  6 14  1  0  0  0  0
  6  1  1  0  0  0  0
  7 10  1  0  0  0  0
  7 18  1  6  0  0  0
  8 10  2  0  0  0  0
  9  7  1  0  0  0  0
 10 11  1  0  0  0  0
 12  4  2  0  0  0  0
 12  9  1  0  0  0  0
 13 12  1  0  0  0  0
 14 15  1  0  0  0  0
 14 16  1  0  0  0  0
 17 14  1  0  0  0  0
 18  6  1  0  0  0  0
 18 20  1  0  0  0  0
 19 18  1  0  0  0  0
 21  1  1  0  0  0  0
 21 22  1  0  0  0  0
 21 23  1  0  0  0  0
 24 28  1  0  0  0  0
 25 24  1  0  0  0  0
 26 34  1  0  0  0  0
 26 21  1  0  0  0  0
 27 30  1  0  0  0  0
 27 38  1  6  0  0  0
 28 30  2  0  0  0  0
 29 27  1  0  0  0  0
 30 31  1  0  0  0  0
 32 24  2  0  0  0  0
 32 29  1  0  0  0  0
 33 32  1  0  0  0  0
 34 35  1  0  0  0  0
 34 36  1  0  0  0  0
 37 34  1  0  0  0  0
 38 26  1  0  0  0  0
 38 40  1  0  0  0  0
 39 38  1  0  0  0  0
M  END
