4,5,6,7
q = -2.0, confidence = 0.694

 30 30  0  0  1  0  0  0  0  0999 V2000
    1.9613    2.4175   -0.7056 O   0  0  0  0  0  0  0  0  0  0  0  0
   -0.6701    3.3771   -0.5038 O   0  0  0  0  0  0  0  0  0  0  0  0
   -4.3128   -0.4722    0.0493 O   0  0  0  0  0  0  0  0  0  0  0  0
    1.4601   -1.0449    0.0147 N   0  0  0  0  0  2  0  0  0  0  0  0
    0.0596    1.3319    0.2627 N   0  0  0  0  0  2  0  0  0  0  0  0
   -2.0737    0.1186   -0.0869 N   0  0  0  0  0  2  0  0  0  0  0  0
   -1.1643   -2.2535   -0.0918 N   0  0  0  0  0  0  0  0  0  0  0  0
    1.9693   -2.1092   -0.6191 C   0  0  0  0  0  3  0  0  0  0  0  0
    3.3292   -2.0499   -0.6058 N   0  0  0  0  0  0  0  0  0  0  0  0
    3.7055   -0.8969    0.0564 C   0  0  0  0  0  0  0  0  0  0  0  0
    2.5339   -0.2720    0.4436 C   0  0  0  0  0  0  0  0  0  0  0  0
    2.3099    0.9941    1.1950 C   0  0  0  0  0  0  0  0  0  0  0  0
    1.3558    1.9547    0.4820 C   0  0  1  0  0  0  0  0  0  0  0  0
   -0.8970    2.1913   -0.2047 C   0  0  0  0  0  0  0  0  0  0  0  0
   -2.2708    1.5343   -0.2927 C   0  0  0  0  0  0  0  0  0  0  0  0
   -3.1077   -0.7366    0.0781 C   0  0  0  0  0  0  0  0  0  0  0  0
   -2.5780   -2.1566    0.3647 C   0  0  0  0  0  0  0  0  0  0  0  0
    1.2868    3.0597   -1.0320 H   0  0  0  0  0  0  0  0  0  0  0  0
   -1.1541   -2.4919   -1.0953 H   0  0  0  0  0  0  0  0  0  0  0  0
   -0.6621   -3.0091    0.3959 H   0  0  0  0  0  0  0  0  0  0  0  0
    1.4065   -2.9071   -1.1140 H   0  0  0  0  0  0  0  0  0  0  0  0
    3.9573   -2.7290   -1.0348 H   0  0  0  0  0  0  0  0  0  0  0  0
    4.7523   -0.6116    0.1933 H   0  0  0  0  0  0  0  0  0  0  0  0
    3.2766    1.5074    1.3569 H   0  0  0  0  0  0  0  0  0  0  0  0
    1.8732    0.7610    2.1893 H   0  0  0  0  0  0  0  0  0  0  0  0
    1.1758    2.8171    1.1716 H   0  0  0  0  0  0  0  0  0  0  0  0
   -2.9464    1.9835    0.4711 H   0  0  0  0  0  0  0  0  0  0  0  0
   -2.7305    1.7617   -1.2801 H   0  0  0  0  0  0  0  0  0  0  0  0
   -2.6059   -2.3290    1.4594 H   0  0  0  0  0  0  0  0  0  0  0  0
   -3.2340   -2.9116   -0.1153 H   0  0  0  0  0  0  0  0  0  0  0  0
  1 13  1  0  0  0  0
  2 14  2  0  0  0  0
  3 16  2  0  0  0  0
  4 11  1  0  0  0  0
  5 13  1  0  0  0  0
  6 16  1  0  0  0  0
  7 17  1  0  0  0  0
  7 20  1  0  0  0  0
  8  9  1  0  0  0  0
  8  4  1  0  0  0  0
  9 10  1  0  0  0  0
 10 23  1  0  0  0  0
 10 11  2  0  0  0  0
 11 12  1  0  0  0  0
 12 24  1  0  0  0  0
 12 25  1  0  0  0  0
 13 26  1  1  0  0  0
 13 12  1  0  0  0  0
 14  5  1  0  0  0  0
 15 14  1  0  0  0  0
 15  6  1  0  0  0  0
 15 27  1  0  0  0  0
 16 17  1  0  0  0  0
 17 29  1  0  0  0  0
 18  1  1  0  0  0  0
 19  7  1  0  0  0  0
 21  8  1  0  0  0  0
 22  9  1  0  0  0  0
 28 15  1  0  0  0  0
 30 17  1  0  0  0  0
M  END
