1,2,3,6
q = 0.0, confidence = 0.974

 46 48  0  0  1  0  0  0  0  0999 V2000
   -0.1700   -0.8199    1.0489 N   0  0  0  0  0  2  0  0  0  0  0  0
   -2.5640   -0.2201    0.5863 N   0  0  0  0  0  2  0  0  0  0  0  0
   -1.7663    2.0987   -0.9308 N   0  0  0  0  0  2  0  0  0  0  0  0
    2.6139    2.3498   -1.4425 N   0  0  0  0  0  0  0  0  0  0  0  0
    3.6094    2.4549   -1.6381 H   0  0  0  0  0  0  0  0  0  0  0  0
    0.7109    1.3720   -0.9064 N   0  0  0  0  0  2  0  0  0  0  0  0
    1.0655   -0.8839    1.5750 C   0  0  0  0  0  3  0  0  0  0  0  0
    1.6871    0.0169    1.4848 H   0  0  0  0  0  0  0  0  0  0  0  0
    1.5396   -2.0346    2.2156 C   0  0  0  0  0  0  0  0  0  0  0  0
    2.5639   -2.0453    2.6122 H   0  0  0  0  0  0  0  0  0  0  0  0
    0.6996   -3.1574    2.3051 C   0  0  0  0  0  0  0  0  0  0  0  0
    1.0600   -4.0933    2.7573 H   0  0  0  0  0  0  0  0  0  0  0  0
   -0.6166   -3.0589    1.8425 C   0  0  0  0  0  0  0  0  0  0  0  0
   -1.3158   -3.9000    1.9392 H   0  0  0  0  0  0  0  0  0  0  0  0
   -1.0482   -1.8474    1.2676 C   0  0  0  0  0  0  0  0  0  0  0  0
   -2.4252   -1.4810    0.9689 C   0  0  2  0  0  3  0  0  0  0  0  0
   -3.5229   -2.4931    1.0847 C   0  0  0  0  0  0  0  0  0  0  0  0
   -3.4150   -3.2160    0.2445 H   0  0  0  0  0  0  0  0  0  0  0  0
   -4.5315   -2.0503    1.0234 H   0  0  0  0  0  0  0  0  0  0  0  0
   -3.4542   -3.0669    2.0305 H   0  0  0  0  0  0  0  0  0  0  0  0
   -3.8991    0.3297    0.3856 C   0  0  0  0  0  0  0  0  0  0  0  0
   -4.3437   -0.1255   -0.5302 H   0  0  0  0  0  0  0  0  0  0  0  0
   -4.5507    0.0387    1.2374 H   0  0  0  0  0  0  0  0  0  0  0  0
   -3.9027    1.8472    0.2484 C   0  0  0  0  0  0  0  0  0  0  0  0
   -4.9580    2.1877    0.2155 H   0  0  0  0  0  0  0  0  0  0  0  0
   -3.4252    2.3118    1.1357 H   0  0  0  0  0  0  0  0  0  0  0  0
   -3.1961    2.3205   -1.0184 C   0  0  0  0  0  0  0  0  0  0  0  0
   -3.4088    3.3952   -1.2121 H   0  0  0  0  0  0  0  0  0  0  0  0
   -3.5796    1.7436   -1.8913 H   0  0  0  0  0  0  0  0  0  0  0  0
   -0.9444    3.0295   -1.3436 C   0  0  0  0  0  3  0  0  0  0  0  0
   -1.2987    4.0037   -1.7249 H   0  0  0  0  0  0  0  0  0  0  0  0
    0.4478    2.6761   -1.3072 C   0  0  0  0  0  0  0  0  0  0  0  0
    1.6440    3.3063   -1.6301 C   0  0  0  0  0  0  0  0  0  0  0  0
    1.8704    4.3218   -1.9657 H   0  0  0  0  0  0  0  0  0  0  0  0
    2.0269    1.1775   -1.0199 C   0  0  1  0  0  3  0  0  0  0  0  0
    2.7698   -0.0753   -0.8530 C   0  0  0  0  0  0  0  0  0  0  0  0
    4.0413   -0.0944   -0.2379 C   0  0  0  0  0  0  0  0  0  0  0  0
    4.4689    0.8363    0.1674 H   0  0  0  0  0  0  0  0  0  0  0  0
    4.7208   -1.3098   -0.0784 C   0  0  0  0  0  0  0  0  0  0  0  0
    5.7045   -1.3237    0.4149 H   0  0  0  0  0  0  0  0  0  0  0  0
    4.1397   -2.5090   -0.5269 C   0  0  0  0  0  0  0  0  0  0  0  0
    4.6743   -3.4615   -0.3910 H   0  0  0  0  0  0  0  0  0  0  0  0
    2.8781   -2.4903   -1.1445 C   0  0  0  0  0  0  0  0  0  0  0  0
    2.4053   -3.4195   -1.4962 H   0  0  0  0  0  0  0  0  0  0  0  0
    2.1955   -1.2806   -1.3136 C   0  0  0  0  0  0  0  0  0  0  0  0
    1.2030   -1.2576   -1.7830 H   0  0  0  0  0  0  0  0  0  0  0  0
  1 15  1  0  0  0  0
  1  7  1  0  0  0  0
  4 35  1  0  0  0  0
  5  4  1  0  0  0  0
  7  9  1  0  0  0  0
  8  7  1  0  0  0  0
  9 11  2  0  0  0  0
  9 10  1  0  0  0  0
 11 12  1  0  0  0  0
 13 14  1  0  0  0  0
 13 11  1  0  0  0  0
 15 13  2  0  0  0  0
 16  2  1  6  0  0  0
 16 17  1  0  0  0  0
 16 15  1  0  0  0  0
 17 20  1  0  0  0  0
 18 17  1  0  0  0  0
 19 17  1  0  0  0  0
 21  2  1  0  0  0  0
 21 23  1  0  0  0  0
 22 21  1  0  0  0  0
 24 21  1  0  0  0  0
 24 26  1  0  0  0  0
 25 24  1  0  0  0  0
 27  3  1  0  0  0  0
 27 24  1  0  0  0  0
 28 27  1  0  0  0  0
 29 27  1  0  0  0  0
 30 32  1  0  0  0  0
 30  3  1  0  0  0  0
 31 30  1  0  0  0  0
 32  6  1  0  0  0  0
 33  4  1  0  0  0  0
 33 32  2  0  0  0  0
 34 33  1  0  0  0  0
 35  6  1  0  0  0  0
 35 36  1  6  0  0  0
 36 37  1  0  0  0  0
 37 39  2  0  0  0  0
 37 38  1  0  0  0  0
 39 40  1  0  0  0  0
 41 42  1  0  0  0  0
 41 39  1  0  0  0  0
 43 41  2  0  0  0  0
 44 43  1  0  0  0  0
 45 43  1  0  0  0  0
 45 36  2  0  0  0  0
 46 45  1  0  0  0  0
M  END
