1,2,3,4
q = -2.0, confidence = 0.682

 60 62  0  0  1  0  0  0  0  0999 V2000
    1.3845   -1.2700   -0.4574 N   0  0  0  0  0  2  0  0  0  0  0  0
   -1.3844    1.2698   -0.4576 N   0  0  0  0  0  2  0  0  0  0  0  0
   -1.3844   -1.2700   -0.4575 N   0  0  0  0  0  2  0  0  0  0  0  0
    1.3844    1.2698   -0.4576 N   0  0  0  0  0  2  0  0  0  0  0  0
    1.2621   -2.4965   -0.9931 C   0  0  2  0  0  3  0  0  0  0  0  0
   -4.7434    0.7083    1.2094 C   0  0  0  0  0  0  0  0  0  0  0  0
   -1.2620   -2.4965   -0.9933 C   0  0  0  0  0  0  0  0  0  0  0  0
    2.4673   -3.3506   -1.3260 C   0  0  0  0  0  0  0  0  0  0  0  0
   -3.6487    1.3950    0.6469 C   0  0  0  0  0  0  0  0  0  0  0  0
   -2.4674    3.3504   -1.3260 C   0  0  0  0  0  0  0  0  0  0  0  0
    1.2620    2.4963   -0.9935 C   0  0  1  0  0  3  0  0  0  0  0  0
    2.5661   -0.7132    0.0635 C   0  0  0  0  0  0  0  0  0  0  0  0
   -4.7433   -0.7081    1.2097 C   0  0  0  0  0  0  0  0  0  0  0  0
    3.6487   -1.3949    0.6474 C   0  0  0  0  0  0  0  0  0  0  0  0
    2.4673    3.3503   -1.3265 C   0  0  0  0  0  0  0  0  0  0  0  0
    0.0000   -3.0372   -1.3171 C   0  0  0  0  0  0  0  0  0  0  0  0
   -3.6486   -1.3949    0.6474 C   0  0  0  0  0  0  0  0  0  0  0  0
   -1.2621    2.4964   -0.9933 C   0  0  0  0  0  0  0  0  0  0  0  0
   -2.5661    0.7132    0.0633 C   0  0  0  0  0  0  0  0  0  0  0  0
   -0.0000    3.0370   -1.3173 C   0  0  0  0  0  0  0  0  0  0  0  0
   -5.8773    1.4765    1.8385 C   0  0  0  0  0  0  0  0  0  0  0  0
   -2.5661   -0.7133    0.0634 C   0  0  0  0  0  0  0  0  0  0  0  0
   -2.4672   -3.3505   -1.3266 C   0  0  0  0  0  0  0  0  0  0  0  0
    2.5661    0.7132    0.0633 C   0  0  0  0  0  0  0  0  0  0  0  0
    3.6486    1.3950    0.6470 C   0  0  0  0  0  0  0  0  0  0  0  0
    4.7433    0.7084    1.2095 C   0  0  0  0  0  0  0  0  0  0  0  0
    5.8773    1.4766    1.8385 C   0  0  0  0  0  0  0  0  0  0  0  0
    4.7433   -0.7081    1.2097 C   0  0  0  0  0  0  0  0  0  0  0  0
   -5.8772   -1.4762    1.8391 C   0  0  0  0  0  0  0  0  0  0  0  0
    5.8773   -1.4761    1.8389 C   0  0  0  0  0  0  0  0  0  0  0  0
    3.3432   -2.7350   -1.6061 H   0  0  0  0  0  0  0  0  0  0  0  0
    2.2164   -4.0208   -2.1698 H   0  0  0  0  0  0  0  0  0  0  0  0
    2.7707   -3.9985   -0.4773 H   0  0  0  0  0  0  0  0  0  0  0  0
   -3.6319    2.4885    0.7230 H   0  0  0  0  0  0  0  0  0  0  0  0
   -3.3433    2.7348   -1.6059 H   0  0  0  0  0  0  0  0  0  0  0  0
   -2.2166    4.0207   -2.1697 H   0  0  0  0  0  0  0  0  0  0  0  0
   -2.7706    3.9982   -0.4771 H   0  0  0  0  0  0  0  0  0  0  0  0
    3.6318   -2.4884    0.7239 H   0  0  0  0  0  0  0  0  0  0  0  0
    3.3432    2.7346   -1.6064 H   0  0  0  0  0  0  0  0  0  0  0  0
    2.7706    3.9984   -0.4778 H   0  0  0  0  0  0  0  0  0  0  0  0
    2.2164    4.0203   -2.1704 H   0  0  0  0  0  0  0  0  0  0  0  0
    0.0001   -4.0172   -1.8126 H   0  0  0  0  0  0  0  0  0  0  0  0
   -3.6317   -2.4884    0.7239 H   0  0  0  0  0  0  0  0  0  0  0  0
   -0.0000    4.0170   -1.8126 H   0  0  0  0  0  0  0  0  0  0  0  0
   -5.7174    2.5695    1.7654 H   0  0  0  0  0  0  0  0  0  0  0  0
   -6.0012    1.2245    2.9138 H   0  0  0  0  0  0  0  0  0  0  0  0
   -6.8498    1.2448    1.3531 H   0  0  0  0  0  0  0  0  0  0  0  0
   -3.3431   -2.7349   -1.6066 H   0  0  0  0  0  0  0  0  0  0  0  0
   -2.7706   -3.9987   -0.4780 H   0  0  0  0  0  0  0  0  0  0  0  0
   -2.2161   -4.0205   -2.1705 H   0  0  0  0  0  0  0  0  0  0  0  0
    3.6317    2.4886    0.7232 H   0  0  0  0  0  0  0  0  0  0  0  0
    5.7169    2.5696    1.7661 H   0  0  0  0  0  0  0  0  0  0  0  0
    6.8496    1.2456    1.3524 H   0  0  0  0  0  0  0  0  0  0  0  0
    6.0019    1.2240    2.9136 H   0  0  0  0  0  0  0  0  0  0  0  0
   -6.8496   -1.2451    1.3532 H   0  0  0  0  0  0  0  0  0  0  0  0
   -6.0015   -1.2234    2.9141 H   0  0  0  0  0  0  0  0  0  0  0  0
   -5.7169   -2.5692    1.7668 H   0  0  0  0  0  0  0  0  0  0  0  0
    5.7168   -2.5691    1.7671 H   0  0  0  0  0  0  0  0  0  0  0  0
    6.0021   -1.2229    2.9138 H   0  0  0  0  0  0  0  0  0  0  0  0
    6.8496   -1.2454    1.3525 H   0  0  0  0  0  0  0  0  0  0  0  0
  1 12  1  0  0  0  0
  2 19  1  0  0  0  0
  3 22  1  0  0  0  0
  4 24  1  0  0  0  0
  5  8  1  6  0  0  0
  5  1  1  0  0  0  0
  6 13  1  0  0  0  0
  6 21  1  0  0  0  0
  7  3  1  0  0  0  0
  8 33  1  0  0  0  0
  9 34  1  0  0  0  0
  9  6  2  0  0  0  0
 10 18  1  0  0  0  0
 10 37  1  0  0  0  0
 11 15  1  6  0  0  0
 11  4  1  0  0  0  0
 12 14  1  0  0  0  0
 13 29  1  0  0  0  0
 14 38  1  0  0  0  0
 14 28  2  0  0  0  0
 15 40  1  0  0  0  0
 16  7  2  0  0  0  0
 16  5  1  0  0  0  0
 17 43  1  0  0  0  0
 17 13  2  0  0  0  0
 18  2  1  0  0  0  0
 19 22  2  0  0  0  0
 19  9  1  0  0  0  0
 20 11  1  0  0  0  0
 20 18  2  0  0  0  0
 21 46  1  0  0  0  0
 22 17  1  0  0  0  0
 23  7  1  0  0  0  0
 23 49  1  0  0  0  0
 24 12  2  0  0  0  0
 24 25  1  0  0  0  0
 25 51  1  0  0  0  0
 25 26  2  0  0  0  0
 26 28  1  0  0  0  0
 26 27  1  0  0  0  0
 27 54  1  0  0  0  0
 28 30  1  0  0  0  0
 29 56  1  0  0  0  0
 30 59  1  0  0  0  0
 31  8  1  0  0  0  0
 32  8  1  0  0  0  0
 35 10  1  0  0  0  0
 36 10  1  0  0  0  0
 39 15  1  0  0  0  0
 41 15  1  0  0  0  0
 42 16  1  0  0  0  0
 44 20  1  0  0  0  0
 45 21  1  0  0  0  0
 47 21  1  0  0  0  0
 48 23  1  0  0  0  0
 50 23  1  0  0  0  0
 52 27  1  0  0  0  0
 53 27  1  0  0  0  0
 55 29  1  0  0  0  0
 57 29  1  0  0  0  0
 58 30  1  0  0  0  0
 60 30  1  0  0  0  0
M  END
