1,2,3,4
q = -2.0, confidence = 0.662

 80 90  0  0  0  0  0  0  0  0999 V2000
    1.4850   -1.4286   -0.0555 N   0  0  0  0  0  2  0  0  0  0  0  0
   -1.4849   -1.4286    0.0557 N   0  0  0  0  0  0  0  0  0  0  0  0
   -1.4849    1.4285   -0.0555 N   0  0  0  0  0  0  0  0  0  0  0  0
    1.4849    1.4286    0.0557 N   0  0  0  0  0  0  0  0  0  0  0  0
    3.5098    0.0000    0.0001 C   0  0  0  0  0  0  0  0  0  0  0  0
    2.8576   -1.2383   -0.1262 C   0  0  0  0  0  0  0  0  0  0  0  0
    3.5200   -2.5414   -0.2934 C   0  0  0  0  0  0  0  0  0  0  0  0
    4.8543   -2.9746   -0.4738 C   0  0  0  0  0  0  0  0  0  0  0  0
    5.6927   -2.2725   -0.5200 H   0  0  0  0  0  0  0  0  0  0  0  0
    5.1067   -4.3452   -0.6081 C   0  0  0  0  0  0  0  0  0  0  0  0
    6.1439   -4.6841   -0.7516 H   0  0  0  0  0  0  0  0  0  0  0  0
    4.0647   -5.2981   -0.5666 C   0  0  0  0  0  0  0  0  0  0  0  0
    4.2977   -6.3682   -0.6736 H   0  0  0  0  0  0  0  0  0  0  0  0
    2.7402   -4.8848   -0.3993 C   0  0  0  0  0  0  0  0  0  0  0  0
    1.9219   -5.6204   -0.3784 H   0  0  0  0  0  0  0  0  0  0  0  0
    2.4817   -3.5090   -0.2687 C   0  0  0  0  0  0  0  0  0  0  0  0
    1.2370   -2.7815   -0.1106 C   0  0  0  0  0  0  0  0  0  0  0  0
    0.0000   -3.4009    0.0003 C   0  0  0  0  0  0  0  0  0  0  0  0
    0.0001   -4.4988    0.0004 H   0  0  0  0  0  0  0  0  0  0  0  0
   -1.2370   -2.7816    0.1109 C   0  0  0  0  0  0  0  0  0  0  0  0
   -2.4817   -3.5090    0.2690 C   0  0  0  0  0  0  0  0  0  0  0  0
   -2.7401   -4.8848    0.3994 C   0  0  0  0  0  0  0  0  0  0  0  0
   -1.9219   -5.6204    0.3787 H   0  0  0  0  0  0  0  0  0  0  0  0
   -4.0647   -5.2981    0.5665 C   0  0  0  0  0  0  0  0  0  0  0  0
   -4.2977   -6.3683    0.6734 H   0  0  0  0  0  0  0  0  0  0  0  0
   -5.1067   -4.3453    0.6079 C   0  0  0  0  0  0  0  0  0  0  0  0
   -6.1439   -4.6842    0.7512 H   0  0  0  0  0  0  0  0  0  0  0  0
   -4.8543   -2.9746    0.4737 C   0  0  0  0  0  0  0  0  0  0  0  0
   -5.6927   -2.2726    0.5198 H   0  0  0  0  0  0  0  0  0  0  0  0
   -3.5200   -2.5415    0.2935 C   0  0  0  0  0  0  0  0  0  0  0  0
   -2.8576   -1.2383    0.1263 C   0  0  0  0  0  0  0  0  0  0  0  0
   -3.5098   -0.0000   -0.0001 C   0  0  0  0  0  0  0  0  0  0  0  0
   -2.8576    1.2382   -0.1263 C   0  0  0  0  0  0  0  0  0  0  0  0
   -3.5200    2.5414   -0.2933 C   0  0  0  0  0  0  0  0  0  0  0  0
   -4.8543    2.9745   -0.4737 C   0  0  0  0  0  0  0  0  0  0  0  0
   -5.6927    2.2725   -0.5201 H   0  0  0  0  0  0  0  0  0  0  0  0
   -5.1068    4.3452   -0.6077 C   0  0  0  0  0  0  0  0  0  0  0  0
   -6.1439    4.6841   -0.7511 H   0  0  0  0  0  0  0  0  0  0  0  0
   -4.0648    5.2981   -0.5658 C   0  0  0  0  0  0  0  0  0  0  0  0
   -4.2978    6.3682   -0.6726 H   0  0  0  0  0  0  0  0  0  0  0  0
   -2.7402    4.8848   -0.3986 C   0  0  0  0  0  3  0  0  0  0  0  0
   -1.9221    5.6205   -0.3775 H   0  0  0  0  0  0  0  0  0  0  0  0
   -2.4817    3.5090   -0.2684 C   0  0  0  0  0  0  0  0  0  0  0  0
   -1.2370    2.7815   -0.1104 C   0  0  0  0  0  0  0  0  0  0  0  0
   -0.0000    3.4009    0.0002 C   0  0  0  0  0  0  0  0  0  0  0  0
   -0.0001    4.4988    0.0003 H   0  0  0  0  0  0  0  0  0  0  0  0
    1.2370    2.7816    0.1107 C   0  0  0  0  0  0  0  0  0  0  0  0
    2.4817    3.5090    0.2686 C   0  0  0  0  0  0  0  0  0  0  0  0
    2.7402    4.8849    0.3988 C   0  0  0  0  0  0  0  0  0  0  0  0
    1.9220    5.6205    0.3777 H   0  0  0  0  0  0  0  0  0  0  0  0
    4.0648    5.2981    0.5659 C   0  0  0  0  0  0  0  0  0  0  0  0
    4.2978    6.3683    0.6725 H   0  0  0  0  0  0  0  0  0  0  0  0
    5.1068    4.3452    0.6076 C   0  0  0  0  0  0  0  0  0  0  0  0
    6.1439    4.6841    0.7510 H   0  0  0  0  0  0  0  0  0  0  0  0
    4.8543    2.9746    0.4737 C   0  0  0  0  0  0  0  0  0  0  0  0
    5.6927    2.2725    0.5201 H   0  0  0  0  0  0  0  0  0  0  0  0
    3.5200    2.5415    0.2934 C   0  0  0  0  0  0  0  0  0  0  0  0
    2.8576    1.2383    0.1264 C   0  0  0  0  0  0  0  0  0  0  0  0
    5.0042    0.0000    0.0001 C   0  0  0  0  0  0  0  0  0  0  0  0
    5.7165   -0.2512    1.1894 C   0  0  0  0  0  0  0  0  0  0  0  0
    5.1582   -0.4486    2.1166 H   0  0  0  0  0  0  0  0  0  0  0  0
    7.1194   -0.2493    1.1897 C   0  0  0  0  0  0  0  0  0  0  0  0
    7.6670   -0.4450    2.1241 H   0  0  0  0  0  0  0  0  0  0  0  0
    7.8236   -0.0000   -0.0001 C   0  0  0  0  0  0  0  0  0  0  0  0
    8.9242   -0.0001   -0.0001 H   0  0  0  0  0  0  0  0  0  0  0  0
    7.1192    0.2493   -1.1898 C   0  0  0  0  0  0  0  0  0  0  0  0
    7.6668    0.4450   -2.1242 H   0  0  0  0  0  0  0  0  0  0  0  0
    5.7164    0.2513   -1.1894 C   0  0  0  0  0  0  0  0  0  0  0  0
    5.1580    0.4487   -2.1165 H   0  0  0  0  0  0  0  0  0  0  0  0
   -5.0042   -0.0000   -0.0002 C   0  0  0  0  0  0  0  0  0  0  0  0
   -5.7167    0.2510    1.1891 C   0  0  0  0  0  0  0  0  0  0  0  0
   -5.1584    0.4482    2.1164 H   0  0  0  0  0  0  0  0  0  0  0  0
   -7.1195    0.2492    1.1893 C   0  0  0  0  0  0  0  0  0  0  0  0
   -7.6671    0.4447    2.1237 H   0  0  0  0  0  0  0  0  0  0  0  0
   -7.8236    0.0001   -0.0006 C   0  0  0  0  0  0  0  0  0  0  0  0
   -8.9242    0.0001   -0.0008 H   0  0  0  0  0  0  0  0  0  0  0  0
   -7.1192   -0.2491   -1.1903 C   0  0  0  0  0  0  0  0  0  0  0  0
   -7.6666   -0.4446   -2.1248 H   0  0  0  0  0  0  0  0  0  0  0  0
   -5.7163   -0.2510   -1.1898 C   0  0  0  0  0  0  0  0  0  0  0  0
   -5.1578   -0.4483   -2.1169 H   0  0  0  0  0  0  0  0  0  0  0  0
  2 20  2  0  0  0  0
  2 31  1  0  0  0  0
  4 47  1  0  0  0  0
  4 58  2  0  0  0  0
  5 58  1  0  0  0  0
  6  1  1  0  0  0  0
  6  5  2  0  0  0  0
  7 16  1  0  0  0  0
  7  6  1  0  0  0  0
  8  7  2  0  0  0  0
  9  8  1  0  0  0  0
 10 12  2  0  0  0  0
 10  8  1  0  0  0  0
 11 10  1  0  0  0  0
 12 14  1  0  0  0  0
 13 12  1  0  0  0  0
 14 15  1  0  0  0  0
 14 16  2  0  0  0  0
 16 17  1  0  0  0  0
 17  1  1  0  0  0  0
 17 18  2  0  0  0  0
 18 19  1  0  0  0  0
 18 20  1  0  0  0  0
 20 21  1  0  0  0  0
 21 30  2  0  0  0  0
 21 22  1  0  0  0  0
 22 24  2  0  0  0  0
 23 22  1  0  0  0  0
 24 26  1  0  0  0  0
 24 25  1  0  0  0  0
 26 27  1  0  0  0  0
 28 29  1  0  0  0  0
 28 26  2  0  0  0  0
 30 28  1  0  0  0  0
 31 30  1  0  0  0  0
 32 31  2  0  0  0  0
 33  3  2  0  0  0  0
 33 32  1  0  0  0  0
 34 43  1  0  0  0  0
 34 33  1  0  0  0  0
 35 34  2  0  0  0  0
 36 35  1  0  0  0  0
 37 39  2  0  0  0  0
 37 35  1  0  0  0  0
 38 37  1  0  0  0  0
 39 41  1  0  0  0  0
 40 39  1  0  0  0  0
 41 42  1  0  0  0  0
 41 43  1  0  0  0  0
 43 44  2  0  0  0  0
 44  3  1  0  0  0  0
 44 45  1  0  0  0  0
 45 46  1  0  0  0  0
 45 47  2  0  0  0  0
 47 48  1  0  0  0  0
 48 57  2  0  0  0  0
 48 49  1  0  0  0  0
 49 51  2  0  0  0  0
 50 49  1  0  0  0  0
 51 53  1  0  0  0  0
 51 52  1  0  0  0  0
 53 54  1  0  0  0  0
 55 56  1  0  0  0  0
 55 53  2  0  0  0  0
 57 55  1  0  0  0  0
 58 57  1  0  0  0  0
 59  5  1  0  0  0  0
 59 60  1  0  0  0  0
 60 62  2  0  0  0  0
 60 61  1  0  0  0  0
 62 63  1  0  0  0  0
 64 62  1  0  0  0  0
 65 64  1  0  0  0  0
 66 68  1  0  0  0  0
 66 64  2  0  0  0  0
 67 66  1  0  0  0  0
 68 59  2  0  0  0  0
 69 68  1  0  0  0  0
 70 32  1  0  0  0  0
 70 71  1  0  0  0  0
 71 73  2  0  0  0  0
 71 72  1  0  0  0  0
 73 74  1  0  0  0  0
 75 73  1  0  0  0  0
 76 75  1  0  0  0  0
 77 79  1  0  0  0  0
 77 75  2  0  0  0  0
 78 77  1  0  0  0  0
 79 70  2  0  0  0  0
 80 79  1  0  0  0  0
M  END
