1,2,32,53
q = 0.0, confidence = 0.988

 62 65  0  0  0  0  0  0  0  0999 V2000
    0.0850   -0.9445    1.9421 N   0  0  0  0  0  2  0  0  0  0  0  0
    1.4007    0.5877    0.2504 N   0  0  0  0  0  0  0  0  0  0  0  0
    3.4470    2.9913   -1.0205 C   0  0  0  0  0  0  0  0  0  0  0  0
    2.5233    3.4057   -1.4564 H   0  0  0  0  0  0  0  0  0  0  0  0
    3.5216    1.6145   -0.7215 C   0  0  0  0  0  0  0  0  0  0  0  0
    1.3743   -0.2739    3.8765 C   0  0  0  0  0  0  0  0  0  0  0  0
    2.2534    0.2570    4.2701 H   0  0  0  0  0  0  0  0  0  0  0  0
   -0.6120   -1.6036    4.1573 C   0  0  0  0  0  0  0  0  0  0  0  0
   -1.3391   -2.1487    4.7759 H   0  0  0  0  0  0  0  0  0  0  0  0
    0.5961    1.8201    0.4641 C   0  0  0  0  0  0  0  0  0  0  0  0
    1.2174    2.7327    0.3356 H   0  0  0  0  0  0  0  0  0  0  0  0
    0.2549    1.8180    1.5191 H   0  0  0  0  0  0  0  0  0  0  0  0
    4.7365    1.0925   -0.2268 C   0  0  0  0  0  0  0  0  0  0  0  0
    4.8180    0.0090   -0.0298 H   0  0  0  0  0  0  0  0  0  0  0  0
   -0.7739   -1.5916    2.7705 C   0  0  0  0  0  3  0  0  0  0  0  0
   -1.5964   -2.1237    2.2734 H   0  0  0  0  0  0  0  0  0  0  0  0
    1.1648   -0.3156    2.4932 C   0  0  0  0  0  0  0  0  0  0  0  0
    2.1308    0.2615    1.5017 C   0  0  0  0  0  0  0  0  0  0  0  0
    2.6565    1.1519    1.9097 H   0  0  0  0  0  0  0  0  0  0  0  0
    2.9097   -0.4974    1.2742 H   0  0  0  0  0  0  0  0  0  0  0  0
    4.5468    3.8350   -0.8012 C   0  0  0  0  0  0  0  0  0  0  0  0
    4.4740    4.9060   -1.0445 H   0  0  0  0  0  0  0  0  0  0  0  0
    0.4746   -0.9256    4.7313 C   0  0  0  0  0  0  0  0  0  0  0  0
    0.6243   -0.9126    5.8206 H   0  0  0  0  0  0  0  0  0  0  0  0
    5.7417    3.3087   -0.2860 C   0  0  0  0  0  0  0  0  0  0  0  0
    6.6067    3.9679   -0.1166 H   0  0  0  0  0  0  0  0  0  0  0  0
    5.8357    1.9354   -0.0073 C   0  0  0  0  0  0  0  0  0  0  0  0
    6.7773    1.5131    0.3753 H   0  0  0  0  0  0  0  0  0  0  0  0
    2.3363    0.6976   -0.9183 C   0  0  0  0  0  0  0  0  0  0  0  0
    1.7314    1.0210   -1.7864 H   0  0  0  0  0  0  0  0  0  0  0  0
    2.6877   -0.3301   -1.1206 H   0  0  0  0  0  0  0  0  0  0  0  0
   -1.4008    0.5877   -0.2505 N   0  0  0  0  0  0  0  0  0  0  0  0
   -3.4470    2.9916    1.0197 C   0  0  0  0  0  0  0  0  0  0  0  0
   -2.5232    3.4062    1.4554 H   0  0  0  0  0  0  0  0  0  0  0  0
   -3.5216    1.6147    0.7212 C   0  0  0  0  0  0  0  0  0  0  0  0
   -0.5961    1.8200   -0.4645 C   0  0  0  0  0  0  0  0  0  0  0  0
   -1.2174    2.7327   -0.3362 H   0  0  0  0  0  0  0  0  0  0  0  0
   -0.2549    1.8176   -1.5195 H   0  0  0  0  0  0  0  0  0  0  0  0
   -4.7366    1.0926    0.2266 C   0  0  0  0  0  0  0  0  0  0  0  0
   -4.8181    0.0091    0.0300 H   0  0  0  0  0  0  0  0  0  0  0  0
   -2.1308    0.2612   -1.5018 C   0  0  0  0  0  0  0  0  0  0  0  0
   -2.6564    1.1516   -1.9099 H   0  0  0  0  0  0  0  0  0  0  0  0
   -2.9097   -0.4976   -1.2741 H   0  0  0  0  0  0  0  0  0  0  0  0
   -4.5467    3.8354    0.8002 C   0  0  0  0  0  0  0  0  0  0  0  0
   -4.4739    4.9064    1.0431 H   0  0  0  0  0  0  0  0  0  0  0  0
   -5.7417    3.3089    0.2853 C   0  0  0  0  0  0  0  0  0  0  0  0
   -6.6066    3.9681    0.1157 H   0  0  0  0  0  0  0  0  0  0  0  0
   -5.8357    1.9355    0.0069 C   0  0  0  0  0  0  0  0  0  0  0  0
   -6.7774    1.5131   -0.3755 H   0  0  0  0  0  0  0  0  0  0  0  0
   -2.3363    0.6979    0.9182 C   0  0  0  0  0  0  0  0  0  0  0  0
   -1.7314    1.0215    1.7861 H   0  0  0  0  0  0  0  0  0  0  0  0
   -2.6877   -0.3298    1.1207 H   0  0  0  0  0  0  0  0  0  0  0  0
   -0.0851   -0.9450   -1.9418 N   0  0  0  0  0  2  0  0  0  0  0  0
   -1.3743   -0.2748   -3.8764 C   0  0  0  0  0  0  0  0  0  0  0  0
   -2.2534    0.2560   -4.2701 H   0  0  0  0  0  0  0  0  0  0  0  0
    0.6121   -1.6046   -4.1569 C   0  0  0  0  0  0  0  0  0  0  0  0
    1.3391   -2.1498   -4.7753 H   0  0  0  0  0  0  0  0  0  0  0  0
    0.7739   -1.5922   -2.7701 C   0  0  0  0  0  3  0  0  0  0  0  0
    1.5964   -2.1242   -2.2728 H   0  0  0  0  0  0  0  0  0  0  0  0
   -1.1648   -0.3162   -2.4931 C   0  0  0  0  0  0  0  0  0  0  0  0
   -0.4745   -0.9267   -4.7310 C   0  0  0  0  0  0  0  0  0  0  0  0
   -0.6242   -0.9140   -5.8204 H   0  0  0  0  0  0  0  0  0  0  0  0
  1 17  1  0  0  0  0
  1 15  1  0  0  0  0
  2 10  1  0  0  0  0
  2 18  1  0  0  0  0
  3 21  2  0  0  0  0
  3  5  1  0  0  0  0
  4  3  1  0  0  0  0
  5 13  2  0  0  0  0
  6  7  1  0  0  0  0
  6 23  1  0  0  0  0
  8 23  2  0  0  0  0
  8  9  1  0  0  0  0
 10 12  1  0  0  0  0
 11 10  1  0  0  0  0
 13 14  1  0  0  0  0
 13 27  1  0  0  0  0
 15  8  1  0  0  0  0
 16 15  1  0  0  0  0
 17  6  2  0  0  0  0
 18 19  1  0  0  0  0
 18 17  1  0  0  0  0
 20 18  1  0  0  0  0
 21 25  1  0  0  0  0
 22 21  1  0  0  0  0
 23 24  1  0  0  0  0
 25 26  1  0  0  0  0
 25 27  2  0  0  0  0
 27 28  1  0  0  0  0
 29  5  1  0  0  0  0
 29  2  1  0  0  0  0
 30 29  1  0  0  0  0
 31 29  1  0  0  0  0
 32 50  1  0  0  0  0
 33 34  1  0  0  0  0
 35 50  1  0  0  0  0
 35 33  2  0  0  0  0
 36 37  1  0  0  0  0
 36 32  1  0  0  0  0
 36 10  1  0  0  0  0
 38 36  1  0  0  0  0
 39 35  1  0  0  0  0
 40 39  1  0  0  0  0
 41 43  1  0  0  0  0
 41 32  1  0  0  0  0
 42 41  1  0  0  0  0
 44 33  1  0  0  0  0
 44 45  1  0  0  0  0
 46 44  2  0  0  0  0
 47 46  1  0  0  0  0
 48 39  2  0  0  0  0
 48 46  1  0  0  0  0
 49 48  1  0  0  0  0
 50 52  1  0  0  0  0
 50 51  1  0  0  0  0
 54 60  2  0  0  0  0
 55 54  1  0  0  0  0
 56 58  1  0  0  0  0
 57 56  1  0  0  0  0
 58 59  1  0  0  0  0
 58 53  1  0  0  0  0
 60 53  1  0  0  0  0
 60 41  1  0  0  0  0
 61 56  2  0  0  0  0
 61 54  1  0  0  0  0
 62 61  1  0  0  0  0
M  END
