1,2,28,29
q = 0.0, confidence = 0.998

 54 57  0  0  0  0  0  0  0  0999 V2000
    2.0150   -0.3408    0.3073 N   0  0  0  0  0  2  0  0  0  0  0  0
    0.0391   -1.4127    1.7682 N   0  0  0  0  0  0  0  0  0  0  0  0
    2.8573    1.5883   -0.9487 C   0  0  0  0  0  0  0  0  0  0  0  0
    1.8210    1.9178   -1.0830 H   0  0  0  0  0  0  0  0  0  0  0  0
    3.9137    2.3040   -1.4963 C   0  0  0  0  0  0  0  0  0  0  0  0
    3.6984    3.2361   -2.0404 H   0  0  0  0  0  0  0  0  0  0  0  0
    5.2490    1.8454   -1.3762 C   0  0  0  0  0  0  0  0  0  0  0  0
    6.0758    2.4240   -1.8146 H   0  0  0  0  0  0  0  0  0  0  0  0
    5.5002    0.6546   -0.7143 C   0  0  0  0  0  3  0  0  0  0  0  0
    6.5261    0.2666   -0.6186 H   0  0  0  0  0  0  0  0  0  0  0  0
    4.4379   -0.1077   -0.1486 C   0  0  0  0  0  0  0  0  0  0  0  0
    3.0767    0.3713   -0.2506 C   0  0  0  0  0  0  0  0  0  0  0  0
    2.3079   -1.5168    0.9055 C   0  0  0  0  0  0  0  0  0  0  0  0
    3.6157   -2.0411    1.0288 C   0  0  0  0  0  0  0  0  0  0  0  0
    3.7520   -3.0078    1.5342 H   0  0  0  0  0  0  0  0  0  0  0  0
    4.6852   -1.3412    0.5076 C   0  0  0  0  0  0  0  0  0  0  0  0
    5.7144   -1.7229    0.5844 H   0  0  0  0  0  0  0  0  0  0  0  0
    1.1539   -2.3174    1.4300 C   0  0  0  0  0  0  0  0  0  0  0  0
    0.8221   -3.0256    0.6419 H   0  0  0  0  0  0  0  0  0  0  0  0
    1.4587   -2.9249    2.3138 H   0  0  0  0  0  0  0  0  0  0  0  0
    0.3728   -0.6572    3.0043 C   0  0  0  0  0  0  0  0  0  0  0  0
    1.4659   -0.4747    3.0098 H   0  0  0  0  0  0  0  0  0  0  0  0
    0.1379   -1.2569    3.9128 H   0  0  0  0  0  0  0  0  0  0  0  0
   -1.2000   -2.1902    1.9378 C   0  0  0  0  0  0  0  0  0  0  0  0
   -2.0368   -1.5244    2.2140 H   0  0  0  0  0  0  0  0  0  0  0  0
   -1.0744   -2.9637    2.7292 H   0  0  0  0  0  0  0  0  0  0  0  0
   -1.4511   -2.6825    0.9826 H   0  0  0  0  0  0  0  0  0  0  0  0
   -2.0155    0.3406    0.3073 N   0  0  0  0  0  2  0  0  0  0  0  0
   -0.0394    1.4129    1.7678 N   0  0  0  0  0  0  0  0  0  0  0  0
   -2.8579   -1.5888   -0.9482 C   0  0  0  0  0  0  0  0  0  0  0  0
   -1.8215   -1.9183   -1.0824 H   0  0  0  0  0  0  0  0  0  0  0  0
   -3.9143   -2.3047   -1.4955 C   0  0  0  0  0  0  0  0  0  0  0  0
   -3.6991   -3.2368   -2.0393 H   0  0  0  0  0  0  0  0  0  0  0  0
   -5.2496   -1.8460   -1.3753 C   0  0  0  0  0  0  0  0  0  0  0  0
   -6.0764   -2.4248   -1.8134 H   0  0  0  0  0  0  0  0  0  0  0  0
   -5.5008   -0.6551   -0.7137 C   0  0  0  0  0  3  0  0  0  0  0  0
   -6.5266   -0.2671   -0.6179 H   0  0  0  0  0  0  0  0  0  0  0  0
   -4.4384    0.1074   -0.1482 C   0  0  0  0  0  0  0  0  0  0  0  0
   -3.0772   -0.3717   -0.2503 C   0  0  0  0  0  0  0  0  0  0  0  0
   -2.3083    1.5168    0.9053 C   0  0  0  0  0  0  0  0  0  0  0  0
   -3.6160    2.0411    1.0286 C   0  0  0  0  0  0  0  0  0  0  0  0
   -3.7523    3.0078    1.5337 H   0  0  0  0  0  0  0  0  0  0  0  0
   -4.6856    1.3410    0.5077 C   0  0  0  0  0  0  0  0  0  0  0  0
   -5.7149    1.7227    0.5846 H   0  0  0  0  0  0  0  0  0  0  0  0
   -1.1543    2.3175    1.4294 C   0  0  0  0  0  0  0  0  0  0  0  0
   -0.8226    3.0256    0.6412 H   0  0  0  0  0  0  0  0  0  0  0  0
   -1.4590    2.9252    2.3131 H   0  0  0  0  0  0  0  0  0  0  0  0
   -0.3729    0.6578    3.0041 C   0  0  0  0  0  0  0  0  0  0  0  0
   -1.4660    0.4753    3.0098 H   0  0  0  0  0  0  0  0  0  0  0  0
   -0.1379    1.2578    3.9124 H   0  0  0  0  0  0  0  0  0  0  0  0
    1.1997    2.1906    1.9370 C   0  0  0  0  0  0  0  0  0  0  0  0
    2.0366    1.5249    2.2133 H   0  0  0  0  0  0  0  0  0  0  0  0
    1.0742    2.9642    2.7282 H   0  0  0  0  0  0  0  0  0  0  0  0
    1.4507    2.6827    0.9817 H   0  0  0  0  0  0  0  0  0  0  0  0
  1 13  1  0  0  0  0
  2 24  1  0  0  0  0
  2 21  1  0  0  0  0
  3 12  2  0  0  0  0
  4  3  1  0  0  0  0
  5  7  2  0  0  0  0
  5  3  1  0  0  0  0
  6  5  1  0  0  0  0
  7  9  1  0  0  0  0
  8  7  1  0  0  0  0
  9 10  1  0  0  0  0
  9 11  1  0  0  0  0
 11 16  2  0  0  0  0
 12 11  1  0  0  0  0
 12  1  1  0  0  0  0
 13 14  2  0  0  0  0
 13 18  1  0  0  0  0
 14 15  1  0  0  0  0
 16 17  1  0  0  0  0
 16 14  1  0  0  0  0
 18  2  1  0  0  0  0
 18 20  1  0  0  0  0
 19 18  1  0  0  0  0
 21 22  1  0  0  0  0
 21 23  1  0  0  0  0
 24 25  1  0  0  0  0
 24 26  1  0  0  0  0
 27 24  1  0  0  0  0
 28 40  1  0  0  0  0
 29 51  1  0  0  0  0
 29 48  1  0  0  0  0
 30 39  2  0  0  0  0
 31 30  1  0  0  0  0
 32 34  2  0  0  0  0
 32 30  1  0  0  0  0
 33 32  1  0  0  0  0
 34 36  1  0  0  0  0
 35 34  1  0  0  0  0
 36 37  1  0  0  0  0
 36 38  1  0  0  0  0
 38 43  2  0  0  0  0
 39 38  1  0  0  0  0
 39 28  1  0  0  0  0
 40 41  2  0  0  0  0
 40 45  1  0  0  0  0
 41 42  1  0  0  0  0
 43 44  1  0  0  0  0
 43 41  1  0  0  0  0
 45 29  1  0  0  0  0
 45 47  1  0  0  0  0
 46 45  1  0  0  0  0
 48 21  1  0  0  0  0
 48 49  1  0  0  0  0
 48 50  1  0  0  0  0
 51 52  1  0  0  0  0
 51 53  1  0  0  0  0
 54 51  1  0  0  0  0
M  END
