1,8,15,22
q = 0.0, confidence = 0.99

 42 43  0  0  1  0  0  0  0  0999 V2000
    2.0311   -0.2748    0.1345 N   0  0  0  0  0  0  0  0  0  0  0  0
    2.1773   -1.3741   -0.8761 C   0  0  0  0  0  0  0  0  0  0  0  0
    3.0549   -2.0146   -0.6354 H   0  0  0  0  0  0  0  0  0  0  0  0
    2.3905   -0.9291   -1.8673 H   0  0  0  0  0  0  0  0  0  0  0  0
    0.9173   -2.2253   -0.9390 C   0  0  0  0  0  0  0  0  0  0  0  0
    0.9980   -2.9763   -1.7634 H   0  0  0  0  0  0  0  0  0  0  0  0
    0.7694   -2.7492    0.0272 H   0  0  0  0  0  0  0  0  0  0  0  0
   -0.2621   -1.3432   -1.1089 N   0  0  2  0  0  0  0  0  0  0  0  0
   -1.5374   -2.0322   -0.7955 C   0  0  0  0  0  0  0  0  0  0  0  0
   -1.3220   -2.6816    0.0730 H   0  0  0  0  0  0  0  0  0  0  0  0
   -1.8871   -2.6522   -1.6553 H   0  0  0  0  0  0  0  0  0  0  0  0
   -2.6159   -1.0157   -0.3661 C   0  0  0  0  0  0  0  0  0  0  0  0
   -3.3438   -0.8041   -1.1804 H   0  0  0  0  0  0  0  0  0  0  0  0
   -3.1906   -1.4745    0.4597 H   0  0  0  0  0  0  0  0  0  0  0  0
   -2.0311    0.2747    0.1345 N   0  0  0  0  0  0  0  0  0  0  0  0
   -2.1773    1.3742   -0.8759 C   0  0  0  0  0  0  0  0  0  0  0  0
   -3.0549    2.0147   -0.6352 H   0  0  0  0  0  0  0  0  0  0  0  0
   -2.3905    0.9293   -1.8672 H   0  0  0  0  0  0  0  0  0  0  0  0
   -0.9173    2.2254   -0.9388 C   0  0  0  0  0  0  0  0  0  0  0  0
   -0.9980    2.9766   -1.7630 H   0  0  0  0  0  0  0  0  0  0  0  0
   -0.7694    2.7492    0.0276 H   0  0  0  0  0  0  0  0  0  0  0  0
    0.2621    1.3433   -1.1087 N   0  0  2  0  0  0  0  0  0  0  0  0
    1.5374    2.0324   -0.7953 C   0  0  0  0  0  0  0  0  0  0  0  0
    1.3220    2.6816    0.0733 H   0  0  0  0  0  0  0  0  0  0  0  0
    1.8871    2.6524   -1.6549 H   0  0  0  0  0  0  0  0  0  0  0  0
    2.6159    1.0157   -0.3659 C   0  0  0  0  0  0  0  0  0  0  0  0
    3.3439    0.8042   -1.1803 H   0  0  0  0  0  0  0  0  0  0  0  0
    3.1906    1.4744    0.4600 H   0  0  0  0  0  0  0  0  0  0  0  0
   -0.3333   -0.6891   -2.4525 C   0  0  0  0  0  0  0  0  0  0  0  0
   -1.4016   -0.5980   -2.7204 H   0  0  0  0  0  0  0  0  0  0  0  0
    0.1227   -1.3429   -3.2297 H   0  0  0  0  0  0  0  0  0  0  0  0
    0.3333    0.6894   -2.4524 C   0  0  0  0  0  0  0  0  0  0  0  0
    1.4016    0.5984   -2.7203 H   0  0  0  0  0  0  0  0  0  0  0  0
   -0.1227    1.3433   -3.2296 H   0  0  0  0  0  0  0  0  0  0  0  0
    2.6752   -0.6653    1.4108 C   0  0  0  0  0  0  0  0  0  0  0  0
    3.7748   -0.7971    1.2780 H   0  0  0  0  0  0  0  0  0  0  0  0
    2.2075   -1.5970    1.7779 H   0  0  0  0  0  0  0  0  0  0  0  0
    2.4553    0.1230    2.1544 H   0  0  0  0  0  0  0  0  0  0  0  0
   -2.6752    0.6651    1.4109 C   0  0  0  0  0  0  0  0  0  0  0  0
   -3.7748    0.7970    1.2781 H   0  0  0  0  0  0  0  0  0  0  0  0
   -2.2075    1.5967    1.7781 H   0  0  0  0  0  0  0  0  0  0  0  0
   -2.4553   -0.1233    2.1544 H   0  0  0  0  0  0  0  0  0  0  0  0
  1 35  1  0  0  0  0
  2  3  1  0  0  0  0
  2  1  1  0  0  0  0
  4  2  1  0  0  0  0
  5  2  1  0  0  0  0
  5  7  1  0  0  0  0
  6  5  1  0  0  0  0
  8 29  1  6  0  0  0
  8  5  1  0  0  0  0
  8  9  1  0  0  0  0
  9 12  1  0  0  0  0
  9 10  1  0  0  0  0
 11  9  1  0  0  0  0
 12 15  1  0  0  0  0
 12 14  1  0  0  0  0
 13 12  1  0  0  0  0
 15 39  1  0  0  0  0
 16 17  1  0  0  0  0
 16 15  1  0  0  0  0
 18 16  1  0  0  0  0
 19 16  1  0  0  0  0
 19 21  1  0  0  0  0
 20 19  1  0  0  0  0
 22 32  1  6  0  0  0
 22 19  1  0  0  0  0
 22 23  1  0  0  0  0
 23 26  1  0  0  0  0
 23 24  1  0  0  0  0
 25 23  1  0  0  0  0
 26  1  1  0  0  0  0
 26 28  1  0  0  0  0
 27 26  1  0  0  0  0
 29 32  1  0  0  0  0
 30 29  1  0  0  0  0
 31 29  1  0  0  0  0
 33 32  1  0  0  0  0
 34 32  1  0  0  0  0
 35 37  1  0  0  0  0
 35 38  1  0  0  0  0
 36 35  1  0  0  0  0
 39 41  1  0  0  0  0
 39 42  1  0  0  0  0
 40 39  1  0  0  0  0
M  END
