2,3,5,6
q = -2.0, confidence = 0.86

 72 76  0  0  1  0  0  0  0  0999 V2000
   -2.7662    1.8304   -0.4172 S   0  0  0  0  0  0  0  0  0  0  0  0
    1.2810   -0.6801   -1.2974 N   0  0  0  0  0  2  0  0  0  0  0  0
   -1.2348   -0.6979   -1.3235 N   0  0  0  0  0  2  0  0  0  0  0  0
   -2.6773   -0.8047    0.6981 C   0  0  1  0  0  0  0  0  0  0  0  0
   -1.1863    2.1054   -0.8832 N   0  0  0  0  0  2  0  0  0  0  0  0
    1.3141    1.9056   -0.3027 N   0  0  0  0  0  2  0  0  0  0  0  0
   -4.0845   -1.5218    0.8035 C   0  0  0  0  0  0  0  0  0  0  0  0
   -1.8051   -1.7089    1.6406 C   0  0  0  0  0  0  0  0  0  0  0  0
   -0.7315   -1.6026    1.3887 H   0  0  0  0  0  0  0  0  0  0  0  0
   -1.9238   -1.3689    2.6877 H   0  0  0  0  0  0  0  0  0  0  0  0
   -0.7340   -1.1849   -2.6011 C   0  0  0  0  0  0  0  0  0  0  0  0
   -0.8906   -0.3685   -3.3359 H   0  0  0  0  0  0  0  0  0  0  0  0
   -1.2787   -2.0782   -2.9728 H   0  0  0  0  0  0  0  0  0  0  0  0
   -3.4754    1.1126   -1.5104 O   0  0  0  0  0  0  0  0  0  0  0  0
   -2.1880   -1.2638   -0.6697 C   0  0  2  0  0  3  0  0  0  0  0  0
   -3.3499    3.0855    0.1200 O   0  0  0  0  0  0  0  0  0  0  0  0
    2.5096   -0.8785   -0.9280 C   0  0  1  0  0  3  0  0  0  0  0  0
   -2.6225    0.6815    1.0242 C   0  0  0  0  0  0  0  0  0  0  0  0
   -1.6865    0.9891    1.5371 H   0  0  0  0  0  0  0  0  0  0  0  0
   -3.4760    0.9661    1.6715 H   0  0  0  0  0  0  0  0  0  0  0  0
   -0.6171    3.3755   -0.3877 C   0  0  0  0  0  0  0  0  0  0  0  0
   -0.7633    3.5102    0.7069 H   0  0  0  0  0  0  0  0  0  0  0  0
   -1.0944    4.2398   -0.8969 H   0  0  0  0  0  0  0  0  0  0  0  0
   -2.8515   -2.5947   -0.9704 C   0  0  0  0  0  0  0  0  0  0  0  0
   -2.1205   -3.3639   -1.2932 H   0  0  0  0  0  0  0  0  0  0  0  0
   -3.6024   -2.4865   -1.7796 H   0  0  0  0  0  0  0  0  0  0  0  0
   -4.6743   -1.5008    2.2211 C   0  0  0  0  0  0  0  0  0  0  0  0
   -5.6044   -2.1040    2.2456 H   0  0  0  0  0  0  0  0  0  0  0  0
   -4.9520   -0.4669    2.5102 H   0  0  0  0  0  0  0  0  0  0  0  0
   -4.0002   -1.8959    3.0034 H   0  0  0  0  0  0  0  0  0  0  0  0
    0.8678    3.2578   -0.6952 C   0  0  0  0  0  0  0  0  0  0  0  0
    1.0501    3.3495   -1.7868 H   0  0  0  0  0  0  0  0  0  0  0  0
    1.4743    4.0326   -0.1788 H   0  0  0  0  0  0  0  0  0  0  0  0
    0.7617   -1.4895   -2.4172 C   0  0  0  0  0  0  0  0  0  0  0  0
    0.9067   -2.5667   -2.1787 H   0  0  0  0  0  0  0  0  0  0  0  0
    1.3282   -1.2862   -3.3503 H   0  0  0  0  0  0  0  0  0  0  0  0
   -5.1562   -0.9707   -0.1468 C   0  0  0  0  0  0  0  0  0  0  0  0
   -5.4860    0.0330    0.1862 H   0  0  0  0  0  0  0  0  0  0  0  0
   -6.0431   -1.6380   -0.1384 H   0  0  0  0  0  0  0  0  0  0  0  0
   -4.8077   -0.8318   -1.1842 H   0  0  0  0  0  0  0  0  0  0  0  0
    2.6353    2.7259    1.7486 O   0  0  0  0  0  0  0  0  0  0  0  0
   -2.3690   -3.1409    1.4077 C   0  0  0  0  0  0  0  0  0  0  0  0
   -1.6051   -3.8385    1.0084 H   0  0  0  0  0  0  0  0  0  0  0  0
   -2.7494   -3.5885    2.3458 H   0  0  0  0  0  0  0  0  0  0  0  0
    3.2740   -2.8504    1.0504 C   0  0  0  0  0  0  0  0  0  0  0  0
    2.8229   -2.7416    2.0574 H   0  0  0  0  0  0  0  0  0  0  0  0
    3.9280   -3.7459    1.0785 H   0  0  0  0  0  0  0  0  0  0  0  0
    2.4435   -3.0584    0.3473 H   0  0  0  0  0  0  0  0  0  0  0  0
    3.1790   -0.3450    0.3241 C   0  0  2  0  0  0  0  0  0  0  0  0
    2.2451    0.0833    1.4344 C   0  0  0  0  0  0  0  0  0  0  0  0
    2.7670    0.1073    2.4118 H   0  0  0  0  0  0  0  0  0  0  0  0
    1.3715   -0.5904    1.5208 H   0  0  0  0  0  0  0  0  0  0  0  0
    5.0791   -1.3342    1.8296 C   0  0  0  0  0  0  0  0  0  0  0  0
    5.6920   -0.4264    1.6846 H   0  0  0  0  0  0  0  0  0  0  0  0
    5.7700   -2.1961    1.9312 H   0  0  0  0  0  0  0  0  0  0  0  0
    4.5487   -1.2267    2.7974 H   0  0  0  0  0  0  0  0  0  0  0  0
   -3.5121   -2.9099    0.3882 C   0  0  1  0  0  0  0  0  0  0  0  0
   -4.2567   -3.7277    0.3374 H   0  0  0  0  0  0  0  0  0  0  0  0
    4.2455    0.6829   -0.1775 C   0  0  0  0  0  0  0  0  0  0  0  0
    4.6428    1.2499    0.6861 H   0  0  0  0  0  0  0  0  0  0  0  0
    3.7642    1.4257   -0.8375 H   0  0  0  0  0  0  0  0  0  0  0  0
    4.0887   -1.5980    0.6895 C   0  0  0  0  0  0  0  0  0  0  0  0
    4.7496   -1.6371   -0.7214 C   0  0  1  0  0  0  0  0  0  0  0  0
    5.4941   -2.4439   -0.8685 H   0  0  0  0  0  0  0  0  0  0  0  0
    3.5219   -1.7520   -1.6452 C   0  0  0  0  0  0  0  0  0  0  0  0
    3.1554   -2.7968   -1.7434 H   0  0  0  0  0  0  0  0  0  0  0  0
    3.7110   -1.3901   -2.6791 H   0  0  0  0  0  0  0  0  0  0  0  0
    5.3124   -0.2054   -0.8780 C   0  0  0  0  0  0  0  0  0  0  0  0
    5.4491    0.0572   -1.9460 H   0  0  0  0  0  0  0  0  0  0  0  0
    6.3062   -0.1120   -0.3990 H   0  0  0  0  0  0  0  0  0  0  0  0
    1.5673    1.7717    1.3432 S   0  0  0  0  0  0  0  0  0  0  0  0
    0.3379    1.7305    2.2003 O   0  0  0  0  0  0  0  0  0  0  0  0
  1 16  2  0  0  0  0
  1 18  1  0  0  0  0
  4  7  1  1  0  0  0
  4 18  1  0  0  0  0
  4  8  1  0  0  0  0
  5  1  1  0  0  0  0
  5 21  1  0  0  0  0
  6 71  1  0  0  0  0
  7 27  1  0  0  0  0
  8 10  1  0  0  0  0
  9  8  1  0  0  0  0
 11 34  1  0  0  0  0
 11  3  1  0  0  0  0
 12 11  1  0  0  0  0
 13 11  1  0  0  0  0
 14  1  2  0  0  0  0
 15  3  1  1  0  0  0
 15  4  1  0  0  0  0
 17  2  1  1  0  0  0
 17 49  1  0  0  0  0
 18 19  1  0  0  0  0
 18 20  1  0  0  0  0
 21 22  1  0  0  0  0
 23 21  1  0  0  0  0
 24 15  1  0  0  0  0
 24 57  1  0  0  0  0
 25 24  1  0  0  0  0
 26 24  1  0  0  0  0
 27 28  1  0  0  0  0
 27 29  1  0  0  0  0
 27 30  1  0  0  0  0
 31 21  1  0  0  0  0
 31  6  1  0  0  0  0
 31 33  1  0  0  0  0
 32 31  1  0  0  0  0
 34 35  1  0  0  0  0
 34  2  1  0  0  0  0
 36 34  1  0  0  0  0
 37 39  1  0  0  0  0
 37 38  1  0  0  0  0
 37  7  1  0  0  0  0
 40 37  1  0  0  0  0
 42  8  1  0  0  0  0
 42 44  1  0  0  0  0
 43 42  1  0  0  0  0
 45 47  1  0  0  0  0
 45 46  1  0  0  0  0
 48 45  1  0  0  0  0
 49 59  1  6  0  0  0
 49 62  1  0  0  0  0
 49 50  1  0  0  0  0
 50 52  1  0  0  0  0
 50 51  1  0  0  0  0
 53 55  1  0  0  0  0
 53 56  1  0  0  0  0
 54 53  1  0  0  0  0
 57 58  1  6  0  0  0
 57  7  1  0  0  0  0
 57 42  1  0  0  0  0
 59 60  1  0  0  0  0
 61 59  1  0  0  0  0
 62 45  1  0  0  0  0
 62 53  1  0  0  0  0
 63 64  1  6  0  0  0
 63 62  1  0  0  0  0
 65 17  1  0  0  0  0
 65 63  1  0  0  0  0
 66 65  1  0  0  0  0
 67 65  1  0  0  0  0
 68 63  1  0  0  0  0
 68 70  1  0  0  0  0
 68 59  1  0  0  0  0
 69 68  1  0  0  0  0
 71 50  1  0  0  0  0
 71 41  2  0  0  0  0
 71 72  2  0  0  0  0
M  END
