1,2,3,4
q = -2.0, confidence = 0.838

 80 88  0  0  0  0  0  0  0  0999 V2000
    1.5551    1.5395   -0.0923 N   0  0  0  0  0  2  0  0  0  0  0  0
   -1.5375    1.5440   -0.1792 N   0  0  0  0  0  0  0  0  0  0  0  0
   -1.5406   -1.5409    0.1792 N   0  0  0  0  0  0  0  0  0  0  0  0
    1.5520   -1.5427    0.0920 N   0  0  0  0  0  0  0  0  0  0  0  0
   10.4571   -0.0101   -0.0009 N   0  0  0  0  0  0  0  0  0  0  0  0
   -0.0679   10.4385    0.1557 N   0  0  0  0  0  0  0  0  0  0  0  0
  -10.4366    0.0109   -0.0012 N   0  0  0  0  0  0  0  0  0  0  0  0
   -0.0889  -10.4384   -0.1526 N   0  0  0  0  0  0  0  0  0  0  0  0
    3.5205   -0.0036   -0.0002 C   0  0  0  0  0  0  0  0  0  0  0  0
    2.9024    1.2908   -0.0552 C   0  0  0  0  0  0  0  0  0  0  0  0
    3.5791    2.5847   -0.0397 C   0  0  0  0  0  0  0  0  0  0  0  0
    4.6622    2.7415    0.0045 H   0  0  0  0  0  0  0  0  0  0  0  0
    2.6059    3.5614   -0.0673 C   0  0  0  0  0  0  0  0  0  0  0  0
    2.7673    4.6445   -0.0838 H   0  0  0  0  0  0  0  0  0  0  0  0
    1.3102    2.8886   -0.0815 C   0  0  0  0  0  0  0  0  0  0  0  0
    0.0155    3.5067   -0.0746 C   0  0  0  0  0  0  0  0  0  0  0  0
   -1.2802    2.8865   -0.0625 C   0  0  0  0  0  0  0  0  0  0  0  0
   -2.5581    3.5561    0.1580 C   0  0  0  0  0  0  0  0  0  0  0  0
   -2.6994    4.6315    0.3112 H   0  0  0  0  0  0  0  0  0  0  0  0
   -3.5362    2.5841    0.1792 C   0  0  0  0  0  0  0  0  0  0  0  0
   -4.6052    2.7340    0.3656 H   0  0  0  0  0  0  0  0  0  0  0  0
   -2.8779    1.2972   -0.0222 C   0  0  0  0  0  0  0  0  0  0  0  0
   -3.5021    0.0035   -0.0000 C   0  0  0  0  0  0  0  0  0  0  0  0
   -2.8806   -1.2914    0.0222 C   0  0  0  0  0  0  0  0  0  0  0  0
   -3.5415   -2.5770   -0.1787 C   0  0  0  0  0  0  0  0  0  0  0  0
   -4.6107   -2.7248   -0.3650 H   0  0  0  0  0  0  0  0  0  0  0  0
   -2.5653   -3.5510   -0.1576 C   0  0  0  0  0  0  0  0  0  0  0  0
   -2.7087   -4.6261   -0.3105 H   0  0  0  0  0  0  0  0  0  0  0  0
   -1.2860   -2.8839    0.0627 C   0  0  0  0  0  3  0  0  0  0  0  0
    0.0084   -3.5068    0.0750 C   0  0  0  0  0  0  0  0  0  0  0  0
    1.3044   -2.8913    0.0816 C   0  0  0  0  0  0  0  0  0  0  0  0
    2.5987   -3.5668    0.0676 C   0  0  0  0  0  0  0  0  0  0  0  0
    2.7579   -4.6502    0.0844 H   0  0  0  0  0  0  0  0  0  0  0  0
    3.5739   -2.5920    0.0399 C   0  0  0  0  0  0  0  0  0  0  0  0
    4.6567   -2.7511   -0.0043 H   0  0  0  0  0  0  0  0  0  0  0  0
    2.8999   -1.2967    0.0549 C   0  0  0  0  0  0  0  0  0  0  0  0
    5.0151   -0.0050   -0.0003 C   0  0  0  0  0  0  0  0  0  0  0  0
    5.7373   -0.5251    1.0974 C   0  0  0  0  0  0  0  0  0  0  0  0
    5.1858   -0.9196    1.9633 H   0  0  0  0  0  0  0  0  0  0  0  0
    7.1349   -0.5280    1.1041 C   0  0  0  0  0  0  0  0  0  0  0  0
    7.6872   -0.9267    1.9669 H   0  0  0  0  0  0  0  0  0  0  0  0
    7.8489   -0.0077   -0.0006 C   0  0  0  0  0  0  0  0  0  0  0  0
    7.1357    0.5140   -1.1052 C   0  0  0  0  0  0  0  0  0  0  0  0
    7.6884    0.9116   -1.9681 H   0  0  0  0  0  0  0  0  0  0  0  0
    5.7380    0.5136   -1.0981 C   0  0  0  0  0  0  0  0  0  0  0  0
    5.1870    0.9092   -1.9640 H   0  0  0  0  0  0  0  0  0  0  0  0
    0.0057    4.9999   -0.0222 C   0  0  0  0  0  0  0  0  0  0  0  0
    0.5821    5.6952    1.0648 C   0  0  0  0  0  0  0  0  0  0  0  0
    1.0345    5.1234    1.8882 H   0  0  0  0  0  0  0  0  0  0  0  0
    0.5651    7.0917    1.1171 C   0  0  0  0  0  0  0  0  0  0  0  0
    1.0078    7.6226    1.9718 H   0  0  0  0  0  0  0  0  0  0  0  0
   -0.0336    7.8320    0.0709 C   0  0  0  0  0  0  0  0  0  0  0  0
   -0.6155    7.1459   -1.0207 C   0  0  0  0  0  0  0  0  0  0  0  0
   -1.0770    7.7192   -1.8371 H   0  0  0  0  0  0  0  0  0  0  0  0
   -0.5951    5.7490   -1.0591 C   0  0  0  0  0  0  0  0  0  0  0  0
   -1.0409    5.2187   -1.9135 H   0  0  0  0  0  0  0  0  0  0  0  0
   -4.9932    0.0050   -0.0002 C   0  0  0  0  0  0  0  0  0  0  0  0
   -5.7168    0.6721   -1.0159 C   0  0  0  0  0  0  0  0  0  0  0  0
   -5.1654    1.1797   -1.8209 H   0  0  0  0  0  0  0  0  0  0  0  0
   -7.1139    0.6752   -1.0231 C   0  0  0  0  0  0  0  0  0  0  0  0
   -7.6657    1.1875   -1.8240 H   0  0  0  0  0  0  0  0  0  0  0  0
   -7.8286    0.0079   -0.0007 C   0  0  0  0  0  0  0  0  0  0  0  0
   -7.1156   -0.6609    1.0219 C   0  0  0  0  0  0  0  0  0  0  0  0
   -7.6688   -1.1719    1.8226 H   0  0  0  0  0  0  0  0  0  0  0  0
   -5.7185   -0.6606    1.0152 C   0  0  0  0  0  0  0  0  0  0  0  0
   -5.1685   -1.1692    1.8204 H   0  0  0  0  0  0  0  0  0  0  0  0
   -0.0044   -4.9999    0.0230 C   0  0  0  0  0  0  0  0  0  0  0  0
   -0.6068   -5.7474    1.0601 C   0  0  0  0  0  0  0  0  0  0  0  0
   -1.0516   -5.2159    1.9142 H   0  0  0  0  0  0  0  0  0  0  0  0
   -0.6299   -7.1442    1.0223 C   0  0  0  0  0  0  0  0  0  0  0  0
   -1.0926   -7.7163    1.8390 H   0  0  0  0  0  0  0  0  0  0  0  0
   -0.0492   -7.8320   -0.0688 C   0  0  0  0  0  0  0  0  0  0  0  0
    0.5511   -7.0933   -1.1153 C   0  0  0  0  0  0  0  0  0  0  0  0
    0.9928   -7.6254   -1.9697 H   0  0  0  0  0  0  0  0  0  0  0  0
    0.5708   -5.6968   -1.0636 C   0  0  0  0  0  0  0  0  0  0  0  0
    1.0244   -5.1262   -1.8872 H   0  0  0  0  0  0  0  0  0  0  0  0
    9.2828   -0.0091   -0.0008 C   0  0  0  0  0  0  0  0  0  0  0  0
   -0.0525    9.2649    0.1176 C   0  0  0  0  0  0  0  0  0  0  0  0
   -9.2622    0.0094   -0.0010 C   0  0  0  0  0  0  0  0  0  0  0  0
   -0.0709   -9.2649   -0.1150 C   0  0  0  0  0  0  0  0  0  0  0  0
  1 15  1  0  0  0  0
  1 10  1  0  0  0  0
  2 17  2  0  0  0  0
  2 22  1  0  0  0  0
  5 77  3  0  0  0  0
  7 79  3  0  0  0  0
  8 80  3  0  0  0  0
  9 36  1  0  0  0  0
 10 11  1  0  0  0  0
 10  9  2  0  0  0  0
 11 12  1  0  0  0  0
 13 11  2  0  0  0  0
 14 13  1  0  0  0  0
 15 16  2  0  0  0  0
 15 13  1  0  0  0  0
 16 17  1  0  0  0  0
 16 47  1  0  0  0  0
 17 18  1  0  0  0  0
 18 20  2  0  0  0  0
 18 19  1  0  0  0  0
 20 21  1  0  0  0  0
 22 23  2  0  0  0  0
 22 20  1  0  0  0  0
 23 24  1  0  0  0  0
 24  3  2  0  0  0  0
 25 27  2  0  0  0  0
 25 24  1  0  0  0  0
 26 25  1  0  0  0  0
 27 29  1  0  0  0  0
 28 27  1  0  0  0  0
 29 30  1  0  0  0  0
 29  3  1  0  0  0  0
 30 31  2  0  0  0  0
 31  4  1  0  0  0  0
 32 31  1  0  0  0  0
 32 33  1  0  0  0  0
 34 36  1  0  0  0  0
 34 32  2  0  0  0  0
 35 34  1  0  0  0  0
 36  4  2  0  0  0  0
 37  9  1  0  0  0  0
 37 38  1  0  0  0  0
 38 40  2  0  0  0  0
 38 39  1  0  0  0  0
 40 41  1  0  0  0  0
 42 40  1  0  0  0  0
 43 45  1  0  0  0  0
 43 42  2  0  0  0  0
 44 43  1  0  0  0  0
 45 37  2  0  0  0  0
 46 45  1  0  0  0  0
 47 48  1  0  0  0  0
 48 50  2  0  0  0  0
 48 49  1  0  0  0  0
 50 51  1  0  0  0  0
 52 78  1  0  0  0  0
 52 50  1  0  0  0  0
 53 52  2  0  0  0  0
 54 53  1  0  0  0  0
 55 53  1  0  0  0  0
 55 47  2  0  0  0  0
 56 55  1  0  0  0  0
 57 23  1  0  0  0  0
 57 65  1  0  0  0  0
 58 57  2  0  0  0  0
 59 58  1  0  0  0  0
 60 58  1  0  0  0  0
 60 62  2  0  0  0  0
 61 60  1  0  0  0  0
 62 63  1  0  0  0  0
 63 64  1  0  0  0  0
 65 63  2  0  0  0  0
 65 66  1  0  0  0  0
 67 30  1  0  0  0  0
 67 68  1  0  0  0  0
 68 69  1  0  0  0  0
 70 68  2  0  0  0  0
 70 71  1  0  0  0  0
 72 70  1  0  0  0  0
 73 75  1  0  0  0  0
 73 72  2  0  0  0  0
 74 73  1  0  0  0  0
 75 67  2  0  0  0  0
 76 75  1  0  0  0  0
 77 42  1  0  0  0  0
 78  6  3  0  0  0  0
 79 62  1  0  0  0  0
 80 72  1  0  0  0  0
M  END
