5,11,12,16
q = -1.0, confidence = 0.256

 83 91  0  0  0  0  0  0  0  0999 V2000
    5.2136    0.4151   -2.0324 F   0  0  0  0  0  0  0  0  0  0  0  0
   -4.3915   -2.0216   -2.1888 F   0  0  0  0  0  0  0  0  0  0  0  0
   -1.3045    5.9589    2.1194 O   0  0  0  0  0  0  0  0  0  0  0  0
    5.7907   -2.0970    1.9698 F   0  0  0  0  0  0  0  0  0  0  0  0
   -1.1561   -0.7370    0.1359 N   0  0  0  0  0  2  0  0  0  0  0  0
   -6.9502   -2.9043   -2.3706 F   0  0  0  0  0  0  0  0  0  0  0  0
   -7.9507   -4.6150   -0.4821 F   0  0  0  0  0  0  0  0  0  0  0  0
   -3.8246   -4.5318    1.8157 F   0  0  0  0  0  0  0  0  0  0  0  0
   -6.3769   -5.4287    1.6052 F   0  0  0  0  0  0  0  0  0  0  0  0
    7.8882    0.8557   -2.1321 F   0  0  0  0  0  0  0  0  0  0  0  0
    1.6875   -0.0155    0.1843 N   0  0  0  0  0  2  0  0  0  0  0  0
    2.1827   -2.7900    0.0072 N   0  0  0  0  0  0  0  0  0  0  0  0
    3.0747    0.0181    0.1683 C   0  0  0  0  0  0  0  0  0  0  0  0
    9.5259   -0.1906   -0.2038 F   0  0  0  0  0  0  0  0  0  0  0  0
    1.9660   -4.1429   -0.1670 C   0  0  0  0  0  0  0  0  0  0  0  0
   -0.2642   -3.4105   -0.0313 N   0  0  0  0  0  0  0  0  0  0  0  0
    8.4673   -1.6720    1.8409 F   0  0  0  0  0  0  0  0  0  0  0  0
   -1.5832   -3.7436   -0.1442 C   0  0  0  0  0  3  0  0  0  0  0  0
    3.9446   -1.1018    0.0360 C   0  0  0  0  0  0  0  0  0  0  0  0
    3.5040   -2.4539   -0.0614 C   0  0  0  0  0  3  0  0  0  0  0  0
   -2.3908   -1.3677    0.0791 C   0  0  0  0  0  0  0  0  0  0  0  0
   -1.3032    0.6209    0.2906 C   0  0  0  0  0  0  0  0  0  0  0  0
    1.1645    1.2475    0.3276 C   0  0  0  0  0  0  0  0  0  0  0  0
   -2.6174   -2.7652   -0.0709 C   0  0  0  0  0  0  0  0  0  0  0  0
    3.4410    1.4091    0.3177 C   0  0  0  0  0  3  0  0  0  0  0  0
    4.4704    1.7816    0.3574 H   0  0  0  0  0  0  0  0  0  0  0  0
    2.2802    2.1572    0.4121 C   0  0  0  0  0  0  0  0  0  0  0  0
    2.1843    3.2421    0.5311 H   0  0  0  0  0  0  0  0  0  0  0  0
    5.9847   -0.0934   -1.0645 C   0  0  0  0  0  0  0  0  0  0  0  0
    7.3679    0.1393   -1.1323 C   0  0  0  0  0  0  0  0  0  0  0  0
   -3.3796   -0.3198    0.2101 C   0  0  0  0  0  0  0  0  0  0  0  0
   -4.4629   -0.4821    0.2168 H   0  0  0  0  0  0  0  0  0  0  0  0
    0.5761   -4.4953   -0.1897 C   0  0  0  0  0  0  0  0  0  0  0  0
   -0.9836    4.0888    0.6490 C   0  0  0  0  0  0  0  0  0  0  0  0
   -4.0213   -3.2409   -0.1760 C   0  0  0  0  0  0  0  0  0  0  0  0
    7.6662   -1.1662    0.8997 C   0  0  0  0  0  0  0  0  0  0  0  0
   -1.5994   -5.1709   -0.3602 C   0  0  0  0  0  0  0  0  0  0  0  0
   -2.5032   -5.7788   -0.4805 H   0  0  0  0  0  0  0  0  0  0  0  0
   -2.7205    0.8902    0.3367 C   0  0  0  0  0  0  0  0  0  0  0  0
   -3.1596    1.8881    0.4515 H   0  0  0  0  0  0  0  0  0  0  0  0
    5.4081   -0.8508   -0.0236 C   0  0  0  0  0  0  0  0  0  0  0  0
   -3.0835    5.2671    0.6829 C   0  0  0  0  0  0  0  0  0  0  0  0
   -1.4550    7.7687   -0.1580 C   0  0  0  0  0  0  0  0  0  0  0  0
   -2.1251    8.0602    0.6646 H   0  0  0  0  0  0  0  0  0  0  0  0
   -0.5969    2.9281    0.5328 C   0  0  0  0  0  0  0  0  0  0  0  0
   -4.8570   -2.8416   -1.2399 C   0  0  0  0  0  0  0  0  0  0  0  0
   -4.5643   -4.1278    0.7768 C   0  0  0  0  0  0  0  0  0  0  0  0
   -0.1773    6.0458   -1.2974 C   0  0  0  0  0  0  0  0  0  0  0  0
    0.1506    4.9976   -1.3692 H   0  0  0  0  0  0  0  0  0  0  0  0
    0.0636    6.0884    2.4588 C   0  0  0  0  0  0  0  0  0  0  0  0
    0.5901    5.1065    2.4304 H   0  0  0  0  0  0  0  0  0  0  0  0
    0.0952    6.4820    3.4925 H   0  0  0  0  0  0  0  0  0  0  0  0
    0.5977    6.7964    1.7847 H   0  0  0  0  0  0  0  0  0  0  0  0
   -3.6476    4.9596   -0.5698 C   0  0  0  0  0  0  0  0  0  0  0  0
   -2.9979    4.8909   -1.4556 H   0  0  0  0  0  0  0  0  0  0  0  0
    3.2614   -4.7317   -0.3258 C   0  0  0  0  0  0  0  0  0  0  0  0
    3.4668   -5.7975   -0.4762 H   0  0  0  0  0  0  0  0  0  0  0  0
    0.2600    6.9947   -2.2374 C   0  0  0  0  0  0  0  0  0  0  0  0
    0.9338    6.6857   -3.0511 H   0  0  0  0  0  0  0  0  0  0  0  0
   -0.2293    1.5624    0.3810 C   0  0  0  0  0  0  0  0  0  0  0  0
   -1.5555    5.4386    0.8068 C   0  0  0  0  0  0  0  0  0  0  0  0
    6.2793   -1.3811    0.9506 C   0  0  0  0  0  0  0  0  0  0  0  0
    4.2048   -3.6997   -0.2646 C   0  0  0  0  0  0  0  0  0  0  0  0
    5.2923   -3.8031   -0.3515 H   0  0  0  0  0  0  0  0  0  0  0  0
   -6.6952   -4.1769   -0.3848 C   0  0  0  0  0  0  0  0  0  0  0  0
   -5.8554    4.8352    0.4430 C   0  0  0  0  0  0  0  0  0  0  0  0
   -6.9392    4.6677    0.3496 H   0  0  0  0  0  0  0  0  0  0  0  0
   -5.8846   -4.5971    0.6836 C   0  0  0  0  0  0  0  0  0  0  0  0
    8.2108   -0.4023   -0.1467 C   0  0  0  0  0  0  0  0  0  0  0  0
   -6.1819   -3.2937   -1.3500 C   0  0  0  0  0  0  0  0  0  0  0  0
   -1.0386    6.4264   -0.2561 C   0  0  0  0  0  0  0  0  0  0  0  0
   -0.1571    8.3294   -2.1370 C   0  0  0  0  0  0  0  0  0  0  0  0
    0.1859    9.0728   -2.8727 H   0  0  0  0  0  0  0  0  0  0  0  0
   -0.2769   -5.6286   -0.3846 C   0  0  0  0  0  0  0  0  0  0  0  0
    0.0548   -6.6622   -0.5338 H   0  0  0  0  0  0  0  0  0  0  0  0
   -3.9103    5.3558    1.8146 C   0  0  0  0  0  0  0  0  0  0  0  0
   -3.4558    5.5900    2.7861 H   0  0  0  0  0  0  0  0  0  0  0  0
   -1.0148    8.7149   -1.0915 C   0  0  0  0  0  0  0  0  0  0  0  0
   -1.3451    9.7616   -1.0072 H   0  0  0  0  0  0  0  0  0  0  0  0
   -5.0268    4.7423   -0.6884 C   0  0  0  0  0  0  0  0  0  0  0  0
   -5.4588    4.5028   -1.6720 H   0  0  0  0  0  0  0  0  0  0  0  0
   -5.2936    5.1447    1.6906 C   0  0  0  0  0  0  0  0  0  0  0  0
   -5.9363    5.2200    2.5812 H   0  0  0  0  0  0  0  0  0  0  0  0
  1 29  1  0  0  0  0
  2 46  1  0  0  0  0
  3 50  1  0  0  0  0
  5 22  1  0  0  0  0
  6 70  1  0  0  0  0
  7 65  1  0  0  0  0
 10 30  1  0  0  0  0
 11 23  1  0  0  0  0
 13 11  1  0  0  0  0
 13 25  1  0  0  0  0
 14 69  1  0  0  0  0
 15 12  2  0  0  0  0
 18 24  1  0  0  0  0
 18 16  1  0  0  0  0
 19 13  2  0  0  0  0
 20 12  1  0  0  0  0
 20 19  1  0  0  0  0
 21  5  1  0  0  0  0
 21 31  1  0  0  0  0
 22 39  1  0  0  0  0
 22 60  2  0  0  0  0
 23 60  1  0  0  0  0
 23 27  2  0  0  0  0
 24 21  2  0  0  0  0
 25 26  1  0  0  0  0
 25 27  1  0  0  0  0
 27 28  1  0  0  0  0
 29 41  1  0  0  0  0
 30 29  2  0  0  0  0
 30 69  1  0  0  0  0
 31 32  1  0  0  0  0
 31 39  2  0  0  0  0
 33 15  1  0  0  0  0
 33 16  2  0  0  0  0
 34 61  1  0  0  0  0
 35 24  1  0  0  0  0
 35 47  1  0  0  0  0
 36 62  1  0  0  0  0
 36 17  1  0  0  0  0
 37 18  1  0  0  0  0
 38 37  1  0  0  0  0
 39 40  1  0  0  0  0
 41 19  1  0  0  0  0
 41 62  2  0  0  0  0
 42 61  1  0  0  0  0
 42 76  1  0  0  0  0
 43 44  1  0  0  0  0
 45 34  3  0  0  0  0
 46 35  2  0  0  0  0
 47  8  1  0  0  0  0
 48 71  2  0  0  0  0
 49 48  1  0  0  0  0
 50 52  1  0  0  0  0
 51 50  1  0  0  0  0
 53 50  1  0  0  0  0
 54 42  2  0  0  0  0
 55 54  1  0  0  0  0
 56 63  2  0  0  0  0
 56 15  1  0  0  0  0
 57 56  1  0  0  0  0
 58 72  2  0  0  0  0
 58 48  1  0  0  0  0
 59 58  1  0  0  0  0
 60 45  1  0  0  0  0
 61  3  1  0  0  0  0
 62  4  1  0  0  0  0
 63 20  1  0  0  0  0
 64 63  1  0  0  0  0
 65 68  1  0  0  0  0
 66 82  1  0  0  0  0
 67 66  1  0  0  0  0
 68 47  2  0  0  0  0
 68  9  1  0  0  0  0
 69 36  2  0  0  0  0
 70 46  1  0  0  0  0
 70 65  2  0  0  0  0
 71 43  1  0  0  0  0
 71 61  1  0  0  0  0
 72 78  1  0  0  0  0
 73 72  1  0  0  0  0
 74 37  2  0  0  0  0
 74 33  1  0  0  0  0
 75 74  1  0  0  0  0
 76 77  1  0  0  0  0
 78 79  1  0  0  0  0
 78 43  2  0  0  0  0
 80 54  1  0  0  0  0
 80 66  2  0  0  0  0
 81 80  1  0  0  0  0
 82 76  2  0  0  0  0
 82 83  1  0  0  0  0
M  END
