8,9,10,11
q = -1.0, confidence = 0.23

 68 75  0  0  1  0  0  0  0  0999 V2000
    1.1523    6.6840    1.8116 F   0  0  0  0  0  0  0  0  0  0  0  0
    0.0549    8.0368   -0.2863 F   0  0  0  0  0  0  0  0  0  0  0  0
   -1.0135    6.6542   -2.3784 F   0  0  0  0  0  0  0  0  0  0  0  0
   -9.5500   -1.2123   -1.6646 O   0  0  0  0  0  0  0  0  0  0  0  0
   -9.5226   -2.5650    0.0537 O   0  0  0  0  0  0  0  0  0  0  0  0
    9.7422   -2.5318    0.2960 O   0  0  0  0  0  0  0  0  0  0  0  0
    9.7926   -1.2367   -1.4653 O   0  0  0  0  0  0  0  0  0  0  0  0
   -1.2740    0.3075   -0.3070 N   0  0  0  0  0  0  0  0  0  0  0  0
   -1.1052   -2.3748   -0.1909 N   0  0  0  0  0  0  0  0  0  0  0  0
    1.3244   -2.3482   -0.2049 N   0  0  0  0  0  0  0  0  0  0  0  0
    1.5102    0.3408   -0.1837 N   0  0  0  0  0  0  0  0  0  0  0  0
   -8.9733   -1.8317   -0.7698 N   0  0  0  0  0  0  0  0  0  0  0  0
    9.2046   -1.8229   -0.5558 N   0  0  0  0  0  0  0  0  0  0  0  0
   -1.1308    1.6965   -0.3043 C   0  0  0  0  0  3  0  0  0  0  0  0
   -2.4335    2.3044   -0.2814 C   0  0  0  0  0  0  0  0  0  0  0  0
   -2.6296    3.3808   -0.2372 H   0  0  0  0  0  0  0  0  0  0  0  0
   -3.3673    1.2835   -0.3011 C   0  0  0  0  0  0  0  0  0  0  0  0
   -4.4571    1.3891   -0.2777 H   0  0  0  0  0  0  0  0  0  0  0  0
   -2.6541    0.0357   -0.3393 C   0  0  0  0  0  0  0  0  0  0  0  0
   -3.2459   -1.2578   -0.3820 C   0  0  1  0  0  3  0  0  0  0  0  0
   -4.7186   -1.3900   -0.4892 C   0  0  0  0  0  0  0  0  0  0  0  0
   -5.4512   -0.7253   -1.5033 C   0  0  0  0  0  0  0  0  0  0  0  0
   -4.9114   -0.1100   -2.2373 H   0  0  0  0  0  0  0  0  0  0  0  0
   -6.8383   -0.8662   -1.6011 C   0  0  0  0  0  0  0  0  0  0  0  0
   -7.4230   -0.3682   -2.3859 H   0  0  0  0  0  0  0  0  0  0  0  0
   -7.5030   -1.6821   -0.6753 C   0  0  0  0  0  0  0  0  0  0  0  0
   -6.8126   -2.3628    0.3364 C   0  0  0  0  0  0  0  0  0  0  0  0
   -7.3801   -2.9873    1.0390 H   0  0  0  0  0  0  0  0  0  0  0  0
   -5.4255   -2.2141    0.4215 C   0  0  0  0  0  0  0  0  0  0  0  0
   -4.8676   -2.7299    1.2170 H   0  0  0  0  0  0  0  0  0  0  0  0
   -2.4646   -2.4380   -0.3557 C   0  0  0  0  0  3  0  0  0  0  0  0
   -2.8276   -3.8221   -0.6087 C   0  0  0  0  0  0  0  0  0  0  0  0
   -3.8437   -4.1873   -0.7954 H   0  0  0  0  0  0  0  0  0  0  0  0
   -1.6585   -4.5716   -0.6096 C   0  0  0  0  0  0  0  0  0  0  0  0
   -1.5608   -5.6464   -0.8000 H   0  0  0  0  0  0  0  0  0  0  0  0
   -0.5833   -3.6545   -0.3677 C   0  0  0  0  0  0  0  0  0  0  0  0
    0.8226   -3.6441   -0.3610 C   0  0  0  0  0  0  0  0  0  0  0  0
    1.9171   -4.5469   -0.5391 C   0  0  0  0  0  0  0  0  0  0  0  0
    1.8440   -5.6284   -0.6997 H   0  0  0  0  0  0  0  0  0  0  0  0
    3.0770   -3.7785   -0.5066 C   0  0  0  0  0  0  0  0  0  0  0  0
    4.1058   -4.1390   -0.6200 H   0  0  0  0  0  0  0  0  0  0  0  0
    2.6950   -2.3971   -0.2952 C   0  0  0  0  0  3  0  0  0  0  0  0
    3.4740   -1.2175   -0.2530 C   0  0  1  0  0  3  0  0  0  0  0  0
    4.9509   -1.3535   -0.3319 C   0  0  0  0  0  0  0  0  0  0  0  0
    5.6431   -2.1474    0.6144 C   0  0  0  0  0  0  0  0  0  0  0  0
    5.0748   -2.6320    1.4217 H   0  0  0  0  0  0  0  0  0  0  0  0
    7.0308   -2.3042    0.5484 C   0  0  0  0  0  0  0  0  0  0  0  0
    7.5885   -2.9060    1.2782 H   0  0  0  0  0  0  0  0  0  0  0  0
    7.7336   -1.6625   -0.4798 C   0  0  0  0  0  0  0  0  0  0  0  0
    7.0826   -0.8762   -1.4399 C   0  0  0  0  0  0  0  0  0  0  0  0
    7.6772   -0.4074   -2.2351 H   0  0  0  0  0  0  0  0  0  0  0  0
    5.6948   -0.7269   -1.3609 C   0  0  0  0  0  0  0  0  0  0  0  0
    5.1646   -0.1343   -2.1202 H   0  0  0  0  0  0  0  0  0  0  0  0
    2.8858    0.0752   -0.2024 C   0  0  0  0  0  3  0  0  0  0  0  0
    3.5965    1.3296   -0.2266 C   0  0  0  0  0  0  0  0  0  0  0  0
    4.6860    1.4399   -0.2258 H   0  0  0  0  0  0  0  0  0  0  0  0
    2.6602    2.3434   -0.2677 C   0  0  0  0  0  0  0  0  0  0  0  0
    2.8491    3.4202   -0.3279 H   0  0  0  0  0  0  0  0  0  0  0  0
    1.3598    1.7225   -0.2366 C   0  0  0  0  0  0  0  0  0  0  0  0
    0.1090    2.3779   -0.2703 C   0  0  1  0  0  3  0  0  0  0  0  0
    0.0945    3.8685   -0.2772 C   0  0  0  0  0  0  0  0  0  0  0  0
    0.6510    4.5921    0.7993 C   0  0  0  0  0  0  0  0  0  0  0  0
    1.0945    4.0751    1.6611 H   0  0  0  0  0  0  0  0  0  0  0  0
    0.6343    5.9891    0.7883 C   0  0  0  0  0  0  0  0  0  0  0  0
    0.0682    6.7009   -0.2837 C   0  0  0  0  0  0  0  0  0  0  0  0
   -0.4830    5.9733   -1.3533 C   0  0  0  0  0  0  0  0  0  0  0  0
   -0.4733    4.5760   -1.3585 C   0  0  0  0  0  0  0  0  0  0  0  0
   -0.9001    4.0466   -2.2211 H   0  0  0  0  0  0  0  0  0  0  0  0
  2 65  1  0  0  0  0
  3 66  1  0  0  0  0
  4 12  2  0  0  0  0
  7 13  2  0  0  0  0
  8 14  1  0  0  0  0
 12 26  1  0  0  0  0
 12  5  2  0  0  0  0
 13 49  1  0  0  0  0
 13  6  2  0  0  0  0
 14 15  1  0  0  0  0
 14 60  1  0  0  0  0
 15 16  1  0  0  0  0
 17 15  2  0  0  0  0
 17 18  1  0  0  0  0
 19  8  2  0  0  0  0
 19 17  1  0  0  0  0
 20 21  1  6  0  0  0
 20 31  1  0  0  0  0
 20 19  1  0  0  0  0
 21 29  1  0  0  0  0
 22 21  2  0  0  0  0
 23 22  1  0  0  0  0
 24 22  1  0  0  0  0
 24 26  2  0  0  0  0
 25 24  1  0  0  0  0
 26 27  1  0  0  0  0
 27 29  2  0  0  0  0
 27 28  1  0  0  0  0
 29 30  1  0  0  0  0
 31  9  1  0  0  0  0
 32 31  1  0  0  0  0
 33 32  1  0  0  0  0
 34 32  2  0  0  0  0
 34 36  1  0  0  0  0
 35 34  1  0  0  0  0
 36 37  1  0  0  0  0
 36  9  2  0  0  0  0
 37 10  2  0  0  0  0
 38 40  2  0  0  0  0
 38 37  1  0  0  0  0
 39 38  1  0  0  0  0
 40 42  1  0  0  0  0
 41 40  1  0  0  0  0
 42 43  1  0  0  0  0
 42 10  1  0  0  0  0
 43 44  1  6  0  0  0
 43 54  1  0  0  0  0
 44 45  1  0  0  0  0
 45 46  1  0  0  0  0
 47 45  2  0  0  0  0
 47 48  1  0  0  0  0
 49 47  1  0  0  0  0
 50 52  1  0  0  0  0
 50 49  2  0  0  0  0
 51 50  1  0  0  0  0
 52 44  2  0  0  0  0
 53 52  1  0  0  0  0
 54 11  1  0  0  0  0
 55 56  1  0  0  0  0
 55 54  1  0  0  0  0
 57 59  1  0  0  0  0
 57 55  2  0  0  0  0
 58 57  1  0  0  0  0
 59 11  2  0  0  0  0
 60 61  1  6  0  0  0
 60 59  1  0  0  0  0
 61 62  1  0  0  0  0
 62 63  1  0  0  0  0
 64 62  2  0  0  0  0
 64  1  1  0  0  0  0
 65 64  1  0  0  0  0
 66 65  2  0  0  0  0
 67 66  1  0  0  0  0
 67 61  2  0  0  0  0
 68 67  1  0  0  0  0
M  END
