1,2,3,4
q = 0.0, confidence = 1.0

 41 41  0  0  0  0  0  0  0  0999 V2000
    0.8716   -1.5891   -0.1625 N   0  0  0  0  0  0  0  0  0  0  0  0
   -1.8131   -1.3338   -0.0008 N   0  0  0  0  0  0  0  0  0  0  0  0
   -1.8131    1.3338    0.0008 N   0  0  0  0  0  0  0  0  0  0  0  0
    0.8716    1.5891    0.1625 N   0  0  0  0  0  0  0  0  0  0  0  0
    0.0243   -2.8239   -0.2267 C   0  0  0  0  0  0  0  0  0  0  0  0
   -1.3569   -2.5013   -0.7746 C   0  0  0  0  0  0  0  0  0  0  0  0
   -3.0831   -0.6685   -0.3686 C   0  0  0  0  0  0  0  0  0  0  0  0
   -3.0831    0.6684    0.3688 C   0  0  0  0  0  0  0  0  0  0  0  0
   -1.3569    2.5013    0.7745 C   0  0  0  0  0  0  0  0  0  0  0  0
    0.0243    2.8239    0.2266 C   0  0  0  0  0  0  0  0  0  0  0  0
    2.0131    1.8395   -0.7725 C   0  0  0  0  0  0  0  0  0  0  0  0
    2.9170    0.6652   -1.1282 C   0  0  0  0  0  0  0  0  0  0  0  0
    3.7123   -0.0000    0.0000 C   0  0  0  0  0  0  0  0  0  0  0  0
    2.9169   -0.6653    1.1282 C   0  0  0  0  0  0  0  0  0  0  0  0
    2.0130   -1.8396    0.7726 C   0  0  0  0  0  0  0  0  0  0  0  0
    1.2346   -1.4124   -1.1125 H   0  0  0  0  0  0  0  0  0  0  0  0
   -1.8377   -1.5715    1.0090 H   0  0  0  0  0  0  0  0  0  0  0  0
   -1.8379    1.5715   -1.0091 H   0  0  0  0  0  0  0  0  0  0  0  0
    1.2345    1.4125    1.1126 H   0  0  0  0  0  0  0  0  0  0  0  0
    0.5261   -3.6179   -0.8178 H   0  0  0  0  0  0  0  0  0  0  0  0
   -0.0692   -3.2002    0.8127 H   0  0  0  0  0  0  0  0  0  0  0  0
   -1.3190   -2.2099   -1.8422 H   0  0  0  0  0  0  0  0  0  0  0  0
   -2.0423   -3.3685   -0.6597 H   0  0  0  0  0  0  0  0  0  0  0  0
   -3.0790   -0.5137   -1.4667 H   0  0  0  0  0  0  0  0  0  0  0  0
   -3.9637   -1.2911   -0.1042 H   0  0  0  0  0  0  0  0  0  0  0  0
   -3.9638    1.2910    0.1045 H   0  0  0  0  0  0  0  0  0  0  0  0
   -3.0788    0.5137    1.4668 H   0  0  0  0  0  0  0  0  0  0  0  0
   -2.0423    3.3686    0.6595 H   0  0  0  0  0  0  0  0  0  0  0  0
   -1.3191    2.2100    1.8420 H   0  0  0  0  0  0  0  0  0  0  0  0
   -0.0692    3.2001   -0.8128 H   0  0  0  0  0  0  0  0  0  0  0  0
    0.5261    3.6180    0.8176 H   0  0  0  0  0  0  0  0  0  0  0  0
    2.6184    2.6691   -0.3412 H   0  0  0  0  0  0  0  0  0  0  0  0
    1.5589    2.2130   -1.7103 H   0  0  0  0  0  0  0  0  0  0  0  0
    2.3284   -0.0659   -1.7195 H   0  0  0  0  0  0  0  0  0  0  0  0
    3.6432    1.0745   -1.8616 H   0  0  0  0  0  0  0  0  0  0  0  0
    4.3866   -0.7566   -0.4560 H   0  0  0  0  0  0  0  0  0  0  0  0
    4.3866    0.7565    0.4561 H   0  0  0  0  0  0  0  0  0  0  0  0
    2.3283    0.0659    1.7195 H   0  0  0  0  0  0  0  0  0  0  0  0
    3.6431   -1.0746    1.8617 H   0  0  0  0  0  0  0  0  0  0  0  0
    2.6183   -2.6692    0.3414 H   0  0  0  0  0  0  0  0  0  0  0  0
    1.5587   -2.2129    1.7104 H   0  0  0  0  0  0  0  0  0  0  0  0
  1 15  1  0  0  0  0
  2 17  1  0  0  0  0
  3  8  1  0  0  0  0
  3  9  1  0  0  0  0
  4 10  1  0  0  0  0
  4 19  1  0  0  0  0
  5  1  1  0  0  0  0
  5 21  1  0  0  0  0
  6 23  1  0  0  0  0
  6  5  1  0  0  0  0
  6  2  1  0  0  0  0
  7 25  1  0  0  0  0
  7  2  1  0  0  0  0
  7  8  1  0  0  0  0
  8 27  1  0  0  0  0
  9 29  1  0  0  0  0
 10  9  1  0  0  0  0
 10 31  1  0  0  0  0
 11 32  1  0  0  0  0
 11  4  1  0  0  0  0
 12 11  1  0  0  0  0
 12 13  1  0  0  0  0
 13 37  1  0  0  0  0
 13 14  1  0  0  0  0
 14 38  1  0  0  0  0
 14 39  1  0  0  0  0
 15 14  1  0  0  0  0
 15 41  1  0  0  0  0
 16  1  1  0  0  0  0
 18  3  1  0  0  0  0
 20  5  1  0  0  0  0
 22  6  1  0  0  0  0
 24  7  1  0  0  0  0
 26  8  1  0  0  0  0
 28  9  1  0  0  0  0
 30 10  1  0  0  0  0
 33 11  1  0  0  0  0
 34 12  1  0  0  0  0
 35 12  1  0  0  0  0
 36 13  1  0  0  0  0
 40 15  1  0  0  0  0
M  END
