1,2,3,4
q = 0.0, confidence = 1.0

 49 51  0  0  1  0  0  0  0  0999 V2000
   -1.6124    1.5116   -0.7262 N   0  0  0  0  0  2  0  0  0  0  0  0
   -2.4814   -1.0310    0.0861 N   0  0  0  0  0  2  0  0  0  0  0  0
    1.6132    1.5118   -0.7255 N   0  0  0  0  0  2  0  0  0  0  0  0
    2.4812   -1.0315    0.0851 N   0  0  0  0  0  2  0  0  0  0  0  0
   -0.0012    3.9677    2.4358 O   0  0  0  0  0  0  0  0  0  0  0  0
    0.0012    3.2686    3.1148 H   0  0  0  0  0  0  0  0  0  0  0  0
    1.3063    2.9182   -0.9755 C   0  0  2  0  0  0  0  0  0  0  0  0
    2.1334    3.3656   -1.5787 H   0  0  0  0  0  0  0  0  0  0  0  0
    1.2478    3.6574    0.3794 C   0  0  0  0  0  0  0  0  0  0  0  0
    2.1571    3.4276    0.9704 H   0  0  0  0  0  0  0  0  0  0  0  0
    1.2451    4.7536    0.1917 H   0  0  0  0  0  0  0  0  0  0  0  0
   -0.0005    3.2887    1.1852 C   0  0  2  0  0  0  0  0  0  0  0  0
   -0.0007    2.1926    1.3673 H   0  0  0  0  0  0  0  0  0  0  0  0
   -1.2481    3.6575    0.3785 C   0  0  0  0  0  0  0  0  0  0  0  0
   -1.2451    4.7537    0.1905 H   0  0  0  0  0  0  0  0  0  0  0  0
   -2.1578    3.4280    0.9689 H   0  0  0  0  0  0  0  0  0  0  0  0
   -1.3056    2.9181   -0.9762 C   0  0  1  0  0  0  0  0  0  0  0  0
   -2.1324    3.3651   -1.5801 H   0  0  0  0  0  0  0  0  0  0  0  0
    0.0005    3.0947   -1.7718 C   0  0  0  0  0  0  0  0  0  0  0  0
    0.0009    2.4193   -2.6513 H   0  0  0  0  0  0  0  0  0  0  0  0
    0.0006    4.1330   -2.1643 H   0  0  0  0  0  0  0  0  0  0  0  0
   -2.8165    1.1212   -0.9424 C   0  0  0  0  0  0  0  0  0  0  0  0
   -3.5658    1.8163   -1.3893 H   0  0  0  0  0  0  0  0  0  0  0  0
   -3.3129   -0.2204   -0.5935 C   0  0  0  0  0  0  0  0  0  0  0  0
   -4.6253   -0.5963   -0.9376 C   0  0  0  0  0  0  0  0  0  0  0  0
   -5.2749    0.0971   -1.4923 H   0  0  0  0  0  0  0  0  0  0  0  0
   -5.0717   -1.8662   -0.5485 C   0  0  0  0  0  0  0  0  0  0  0  0
   -6.0907   -2.2012   -0.7940 H   0  0  0  0  0  0  0  0  0  0  0  0
   -4.2013   -2.6998    0.1612 C   0  0  0  0  0  0  0  0  0  0  0  0
   -4.5209   -3.7004    0.4876 H   0  0  0  0  0  0  0  0  0  0  0  0
   -2.8924   -2.2532    0.4629 C   0  0  0  0  0  0  0  0  0  0  0  0
   -1.8931   -3.1103    1.1757 C   0  0  0  0  0  0  0  0  0  0  0  0
   -1.1260   -3.4156    0.4315 H   0  0  0  0  0  0  0  0  0  0  0  0
   -2.3532   -4.0116    1.6207 H   0  0  0  0  0  0  0  0  0  0  0  0
   -1.3752   -2.5127    1.9541 H   0  0  0  0  0  0  0  0  0  0  0  0
    2.8171    1.1212   -0.9422 C   0  0  0  0  0  0  0  0  0  0  0  0
    3.5664    1.8161   -1.3894 H   0  0  0  0  0  0  0  0  0  0  0  0
    3.3132   -0.2206   -0.5935 C   0  0  0  0  0  0  0  0  0  0  0  0
    4.6259   -0.5963   -0.9367 C   0  0  0  0  0  0  0  0  0  0  0  0
    5.2759    0.0973   -1.4907 H   0  0  0  0  0  0  0  0  0  0  0  0
    5.0721   -1.8663   -0.5476 C   0  0  0  0  0  0  0  0  0  0  0  0
    6.0913   -2.2011   -0.7925 H   0  0  0  0  0  0  0  0  0  0  0  0
    4.2012   -2.7002    0.1610 C   0  0  0  0  0  0  0  0  0  0  0  0
    4.5206   -3.7009    0.4874 H   0  0  0  0  0  0  0  0  0  0  0  0
    2.8920   -2.2538    0.4617 C   0  0  0  0  0  0  0  0  0  0  0  0
    1.8921   -3.1112    1.1733 C   0  0  0  0  0  0  0  0  0  0  0  0
    1.3742   -2.5143    1.9522 H   0  0  0  0  0  0  0  0  0  0  0  0
    2.3516   -4.0132    1.6175 H   0  0  0  0  0  0  0  0  0  0  0  0
    1.1251   -3.4151    0.4284 H   0  0  0  0  0  0  0  0  0  0  0  0
  2 31  1  0  0  0  0
  4 45  1  0  0  0  0
  5  6  1  0  0  0  0
  7  8  1  6  0  0  0
  7  3  1  0  0  0  0
  7  9  1  0  0  0  0
  9 10  1  0  0  0  0
  9 12  1  0  0  0  0
 11  9  1  0  0  0  0
 12 13  1  1  0  0  0
 12  5  1  0  0  0  0
 14 16  1  0  0  0  0
 14 12  1  0  0  0  0
 15 14  1  0  0  0  0
 17 18  1  6  0  0  0
 17  1  1  0  0  0  0
 17 14  1  0  0  0  0
 19 17  1  0  0  0  0
 19  7  1  0  0  0  0
 20 19  1  0  0  0  0
 21 19  1  0  0  0  0
 22  1  1  0  0  0  0
 22 24  2  0  0  0  0
 23 22  1  0  0  0  0
 24  2  1  0  0  0  0
 25 24  1  0  0  0  0
 25 27  2  0  0  0  0
 26 25  1  0  0  0  0
 27 29  1  0  0  0  0
 28 27  1  0  0  0  0
 29 31  2  0  0  0  0
 29 30  1  0  0  0  0
 31 32  1  0  0  0  0
 32 34  1  0  0  0  0
 32 35  1  0  0  0  0
 33 32  1  0  0  0  0
 36  3  1  0  0  0  0
 36 38  2  0  0  0  0
 37 36  1  0  0  0  0
 38  4  1  0  0  0  0
 39 38  1  0  0  0  0
 39 41  2  0  0  0  0
 40 39  1  0  0  0  0
 41 43  1  0  0  0  0
 42 41  1  0  0  0  0
 43 45  2  0  0  0  0
 43 44  1  0  0  0  0
 45 46  1  0  0  0  0
 46 48  1  0  0  0  0
 46 47  1  0  0  0  0
 49 46  1  0  0  0  0
M  END
