29,30,31,32
q = -2.0, confidence = 0.57

 79 87  0  0  0  0  0  0  0  0999 V2000
   -2.2839    1.2401   -0.1015 C   0  0  0  0  0  0  0  0  0  0  0  0
   -2.9736    2.5067   -0.2844 C   0  0  0  0  0  0  0  0  0  0  0  0
   -4.0536    2.6296   -0.4157 H   0  0  0  0  0  0  0  0  0  0  0  0
   -2.0107    3.4855   -0.2991 C   0  0  0  0  0  0  0  0  0  0  0  0
   -2.1512    4.5617   -0.4424 H   0  0  0  0  0  0  0  0  0  0  0  0
   -0.7308    2.8194   -0.1239 C   0  0  0  0  0  0  0  0  0  0  0  0
    0.5221    3.4816   -0.0856 C   0  0  0  0  0  0  0  0  0  0  0  0
    1.7858    2.8383   -0.0252 C   0  0  0  0  0  0  0  0  0  0  0  0
    3.0566    3.5300    0.1002 C   0  0  0  0  0  0  0  0  0  0  0  0
    3.1830    4.6142    0.1847 H   0  0  0  0  0  0  0  0  0  0  0  0
    4.0360    2.5661    0.1154 C   0  0  0  0  0  0  0  0  0  0  0  0
    5.1165    2.7117    0.2151 H   0  0  0  0  0  0  0  0  0  0  0  0
    3.3664    1.2825   -0.0028 C   0  0  0  0  0  0  0  0  0  0  0  0
    4.0320    0.0298   -0.0527 C   0  0  0  0  0  0  0  0  0  0  0  0
    3.3914   -1.2353   -0.0979 C   0  0  0  0  0  0  0  0  0  0  0  0
    4.0745   -2.4981   -0.3115 C   0  0  0  0  0  0  0  0  0  0  0  0
    5.1512   -2.6173   -0.4707 H   0  0  0  0  0  0  0  0  0  0  0  0
    3.1102   -3.4779   -0.3155 C   0  0  0  0  0  0  0  0  0  0  0  0
    3.2473   -4.5518   -0.4785 H   0  0  0  0  0  0  0  0  0  0  0  0
    1.8358   -2.8166   -0.1027 C   0  0  0  0  0  0  0  0  0  0  0  0
    0.5815   -3.4780   -0.0562 C   0  0  0  0  0  0  0  0  0  0  0  0
   -0.6800   -2.8324    0.0020 C   0  0  0  0  0  0  0  0  0  0  0  0
   -1.9510   -3.5240    0.1362 C   0  0  0  0  0  0  0  0  0  0  0  0
   -2.0766   -4.6067    0.2388 H   0  0  0  0  0  0  0  0  0  0  0  0
   -2.9299   -2.5613    0.1376 C   0  0  0  0  0  0  0  0  0  0  0  0
   -4.0098   -2.7072    0.2421 H   0  0  0  0  0  0  0  0  0  0  0  0
   -2.2592   -1.2787    0.0030 C   0  0  0  0  0  0  0  0  0  0  0  0
   -2.9229   -0.0254   -0.0475 C   0  0  0  0  0  0  0  0  0  0  0  0
   -0.9279    1.4600   -0.0253 N   0  0  0  0  0  2  0  0  0  0  0  0
    2.0013    1.4763   -0.0653 N   0  0  0  0  0  0  0  0  0  0  0  0
    2.0332   -1.4560    0.0153 N   0  0  0  0  0  2  0  0  0  0  0  0
   -0.8974   -1.4730   -0.0579 N   0  0  0  0  0  0  0  0  0  0  0  0
    0.5109    4.9746   -0.1165 C   0  0  0  0  0  0  0  0  0  0  0  0
    1.1125    5.6800   -1.1822 C   0  0  0  0  0  0  0  0  0  0  0  0
    1.5827    5.1129   -1.9995 H   0  0  0  0  0  0  0  0  0  0  0  0
    1.0992    7.0820   -1.2118 C   0  0  0  0  0  0  0  0  0  0  0  0
    1.5662    7.6140   -2.0547 H   0  0  0  0  0  0  0  0  0  0  0  0
    0.4863    7.8047   -0.1758 C   0  0  0  0  0  0  0  0  0  0  0  0
    0.4765    8.9050   -0.1991 H   0  0  0  0  0  0  0  0  0  0  0  0
   -0.1151    7.1156    0.8894 C   0  0  0  0  0  0  0  0  0  0  0  0
   -0.5932    7.6743    1.7085 H   0  0  0  0  0  0  0  0  0  0  0  0
   -0.1041    5.7136    0.9183 C   0  0  0  0  0  0  0  0  0  0  0  0
   -0.5681    5.1732    1.7571 H   0  0  0  0  0  0  0  0  0  0  0  0
    5.5247    0.0410   -0.0759 C   0  0  0  0  0  0  0  0  0  0  0  0
    6.2276    0.6657   -1.1302 C   0  0  0  0  0  0  0  0  0  0  0  0
    5.6582    1.1386   -1.9443 H   0  0  0  0  0  0  0  0  0  0  0  0
    7.6296    0.6714   -1.1533 C   0  0  0  0  0  0  0  0  0  0  0  0
    8.1592    1.1565   -1.9875 H   0  0  0  0  0  0  0  0  0  0  0  0
    8.3560    0.0542   -0.1223 C   0  0  0  0  0  0  0  0  0  0  0  0
    9.4564    0.0595   -0.1404 H   0  0  0  0  0  0  0  0  0  0  0  0
    7.6701   -0.5713    0.9309 C   0  0  0  0  0  0  0  0  0  0  0  0
    8.2313   -1.0537    1.7458 H   0  0  0  0  0  0  0  0  0  0  0  0
    6.2680   -0.5792    0.9528 C   0  0  0  0  0  0  0  0  0  0  0  0
    5.7310   -1.0638    1.7822 H   0  0  0  0  0  0  0  0  0  0  0  0
    0.5937   -4.9705   -0.0881 C   0  0  0  0  0  0  0  0  0  0  0  0
   -0.0242   -5.6767   -1.1440 C   0  0  0  0  0  0  0  0  0  0  0  0
   -0.5094   -5.1101   -1.9529 H   0  0  0  0  0  0  0  0  0  0  0  0
   -0.0083   -7.0786   -1.1749 C   0  0  0  0  0  0  0  0  0  0  0  0
   -0.4887   -7.6110   -2.0100 H   0  0  0  0  0  0  0  0  0  0  0  0
    0.6238   -7.8008   -0.1501 C   0  0  0  0  0  0  0  0  0  0  0  0
    0.6350   -8.9010   -0.1741 H   0  0  0  0  0  0  0  0  0  0  0  0
    1.2418   -7.1111    0.9052 C   0  0  0  0  0  0  0  0  0  0  0  0
    1.7343   -7.6694    1.7160 H   0  0  0  0  0  0  0  0  0  0  0  0
    1.2284   -5.7092    0.9350 C   0  0  0  0  0  0  0  0  0  0  0  0
    1.7044   -5.1688    1.7670 H   0  0  0  0  0  0  0  0  0  0  0  0
   -4.4144   -0.0373   -0.0519 C   0  0  0  0  0  0  0  0  0  0  0  0
   -5.1320   -0.6723   -1.0924 C   0  0  0  0  0  0  0  0  0  0  0  0
   -4.5743   -1.1504   -1.9111 H   0  0  0  0  0  0  0  0  0  0  0  0
   -6.5293   -0.6798   -1.0960 C   0  0  0  0  0  0  0  0  0  0  0  0
   -7.0978   -1.1628   -1.9043 H   0  0  0  0  0  0  0  0  0  0  0  0
   -7.2465   -0.0541   -0.0565 C   0  0  0  0  0  0  0  0  0  0  0  0
   -6.5421    0.5816    0.9863 C   0  0  0  0  0  0  0  0  0  0  0  0
   -7.1014    1.0630    1.8004 H   0  0  0  0  0  0  0  0  0  0  0  0
   -5.1432    0.5896    0.9845 C   0  0  0  0  0  0  0  0  0  0  0  0
   -4.5934    1.0759    1.8039 H   0  0  0  0  0  0  0  0  0  0  0  0
   -8.7353   -0.0940   -0.1087 C   0  0  0  0  0  0  0  0  0  0  0  0
   -9.3180    0.5437    0.9426 O   0  0  0  0  0  0  0  0  0  0  0  0
  -10.2830    0.4468    0.7943 H   0  0  0  0  0  0  0  0  0  0  0  0
   -9.3886   -0.6329   -0.9872 O   0  0  0  0  0  0  0  0  0  0  0  0
  1 28  2  0  0  0  0
  1 29  1  0  0  0  0
  2  1  1  0  0  0  0
  3  2  1  0  0  0  0
  4  2  2  0  0  0  0
  4  6  1  0  0  0  0
  5  4  1  0  0  0  0
  6  7  2  0  0  0  0
  6 29  1  0  0  0  0
  7  8  1  0  0  0  0
  8  9  1  0  0  0  0
  9 11  2  0  0  0  0
  9 10  1  0  0  0  0
 11 12  1  0  0  0  0
 13 11  1  0  0  0  0
 14 13  2  0  0  0  0
 15 14  1  0  0  0  0
 15 31  1  0  0  0  0
 16 15  2  0  0  0  0
 17 16  1  0  0  0  0
 18 16  1  0  0  0  0
 18 20  2  0  0  0  0
 19 18  1  0  0  0  0
 20 21  1  0  0  0  0
 20 31  1  0  0  0  0
 21 22  2  0  0  0  0
 22 23  1  0  0  0  0
 23 25  2  0  0  0  0
 23 24  1  0  0  0  0
 25 26  1  0  0  0  0
 27 25  1  0  0  0  0
 28 27  1  0  0  0  0
 30  8  2  0  0  0  0
 30 13  1  0  0  0  0
 32 22  1  0  0  0  0
 32 27  2  0  0  0  0
 33  7  1  0  0  0  0
 33 42  1  0  0  0  0
 34 33  2  0  0  0  0
 35 34  1  0  0  0  0
 36 34  1  0  0  0  0
 36 38  2  0  0  0  0
 37 36  1  0  0  0  0
 38 40  1  0  0  0  0
 39 38  1  0  0  0  0
 40 42  2  0  0  0  0
 40 41  1  0  0  0  0
 42 43  1  0  0  0  0
 44 14  1  0  0  0  0
 44 53  1  0  0  0  0
 45 44  2  0  0  0  0
 46 45  1  0  0  0  0
 47 45  1  0  0  0  0
 47 49  2  0  0  0  0
 48 47  1  0  0  0  0
 49 51  1  0  0  0  0
 50 49  1  0  0  0  0
 51 53  2  0  0  0  0
 51 52  1  0  0  0  0
 53 54  1  0  0  0  0
 55 21  1  0  0  0  0
 55 64  1  0  0  0  0
 56 55  2  0  0  0  0
 57 56  1  0  0  0  0
 58 56  1  0  0  0  0
 58 60  2  0  0  0  0
 59 58  1  0  0  0  0
 60 62  1  0  0  0  0
 61 60  1  0  0  0  0
 62 64  2  0  0  0  0
 62 63  1  0  0  0  0
 64 65  1  0  0  0  0
 66 28  1  0  0  0  0
 66 74  1  0  0  0  0
 67 66  2  0  0  0  0
 68 67  1  0  0  0  0
 69 67  1  0  0  0  0
 69 71  2  0  0  0  0
 70 69  1  0  0  0  0
 71 72  1  0  0  0  0
 72 73  1  0  0  0  0
 74 72  2  0  0  0  0
 74 75  1  0  0  0  0
 76 71  1  0  0  0  0
 76 77  1  0  0  0  0
 78 77  1  0  0  0  0
 79 76  2  0  0  0  0
M  END
