1,2,3,4
q = 0.0, confidence = 1.0

 47 47  0  0  0  0  0  0  0  0999 V2000
   -0.1099    1.8086    0.3730 N   0  0  0  0  0  0  0  0  0  0  0  0
    2.4226    0.9567   -0.0138 N   0  0  0  0  0  0  0  0  0  0  0  0
    1.8368   -1.6191   -0.2445 N   0  0  0  0  0  0  0  0  0  0  0  0
   -0.8229   -1.3272   -0.0971 N   0  0  0  0  0  0  0  0  0  0  0  0
    1.0139    2.7895    0.5558 C   0  0  0  0  0  0  0  0  0  0  0  0
    2.3162    2.0914    0.9170 C   0  0  0  0  0  0  0  0  0  0  0  0
    3.5497    0.0083    0.1337 C   0  0  0  0  0  0  0  0  0  0  0  0
    3.1828   -1.2131   -0.7055 C   0  0  0  0  0  0  0  0  0  0  0  0
    1.0775   -2.6248   -1.0073 C   0  0  0  0  0  0  0  0  0  0  0  0
   -0.2796   -2.7048   -0.3224 C   0  0  0  0  0  0  0  0  0  0  0  0
   -1.8344   -1.3002    0.9966 C   0  0  0  0  0  0  0  0  0  0  0  0
   -3.2319   -1.8005    0.6191 C   0  0  0  0  0  0  0  0  0  0  0  0
   -4.0130   -0.9585   -0.4012 C   0  0  0  0  0  0  0  0  0  0  0  0
   -4.4833    0.4340    0.0626 C   0  0  0  0  0  0  0  0  0  0  0  0
   -3.4015    1.4900    0.3667 C   0  0  0  0  0  0  0  0  0  0  0  0
   -2.4038    1.6642   -0.7824 C   0  0  0  0  0  0  0  0  0  0  0  0
   -1.1406    2.4607   -0.4962 C   0  0  0  0  0  0  0  0  0  0  0  0
   -0.4854    1.5989    1.3205 H   0  0  0  0  0  0  0  0  0  0  0  0
    2.3815    1.2975   -1.0083 H   0  0  0  0  0  0  0  0  0  0  0  0
    1.8969   -1.9047    0.7674 H   0  0  0  0  0  0  0  0  0  0  0  0
   -1.2297   -1.0094   -0.9996 H   0  0  0  0  0  0  0  0  0  0  0  0
    1.1437    3.3120   -0.4134 H   0  0  0  0  0  0  0  0  0  0  0  0
    0.7411    3.5581    1.3077 H   0  0  0  0  0  0  0  0  0  0  0  0
    2.3160    1.7136    1.9577 H   0  0  0  0  0  0  0  0  0  0  0  0
    3.1740    2.7908    0.8110 H   0  0  0  0  0  0  0  0  0  0  0  0
    4.5092    0.4646   -0.1889 H   0  0  0  0  0  0  0  0  0  0  0  0
    3.6423   -0.2670    1.2043 H   0  0  0  0  0  0  0  0  0  0  0  0
    3.9185   -2.0365   -0.5858 H   0  0  0  0  0  0  0  0  0  0  0  0
    3.1307   -0.9528   -1.7826 H   0  0  0  0  0  0  0  0  0  0  0  0
    0.9881   -2.2950   -2.0605 H   0  0  0  0  0  0  0  0  0  0  0  0
    1.5857   -3.6132   -0.9978 H   0  0  0  0  0  0  0  0  0  0  0  0
   -0.1649   -3.1785    0.6738 H   0  0  0  0  0  0  0  0  0  0  0  0
   -0.9912   -3.3244   -0.9048 H   0  0  0  0  0  0  0  0  0  0  0  0
   -1.4228   -1.9053    1.8282 H   0  0  0  0  0  0  0  0  0  0  0  0
   -1.8865   -0.2681    1.3764 H   0  0  0  0  0  0  0  0  0  0  0  0
   -3.8103   -1.8519    1.5667 H   0  0  0  0  0  0  0  0  0  0  0  0
   -3.1653   -2.8507    0.2610 H   0  0  0  0  0  0  0  0  0  0  0  0
   -3.4394   -0.8767   -1.3526 H   0  0  0  0  0  0  0  0  0  0  0  0
   -4.9174   -1.5360   -0.6822 H   0  0  0  0  0  0  0  0  0  0  0  0
   -5.1291    0.3162    0.9586 H   0  0  0  0  0  0  0  0  0  0  0  0
   -5.1466    0.8406   -0.7307 H   0  0  0  0  0  0  0  0  0  0  0  0
   -2.8787    1.2467    1.3168 H   0  0  0  0  0  0  0  0  0  0  0  0
   -3.9006    2.4615    0.5674 H   0  0  0  0  0  0  0  0  0  0  0  0
   -2.9147    2.1780   -1.6240 H   0  0  0  0  0  0  0  0  0  0  0  0
   -2.1085    0.6893   -1.2115 H   0  0  0  0  0  0  0  0  0  0  0  0
   -1.4011    3.4372   -0.0279 H   0  0  0  0  0  0  0  0  0  0  0  0
   -0.6324    2.6928   -1.4531 H   0  0  0  0  0  0  0  0  0  0  0  0
  1  5  1  0  0  0  0
  1 18  1  0  0  0  0
  2  7  1  0  0  0  0
  2  6  1  0  0  0  0
  3 20  1  0  0  0  0
  4 11  1  0  0  0  0
  5  6  1  0  0  0  0
  5 23  1  0  0  0  0
  6 24  1  0  0  0  0
  7 27  1  0  0  0  0
  8 28  1  0  0  0  0
  8  3  1  0  0  0  0
  8  7  1  0  0  0  0
  9 31  1  0  0  0  0
  9 10  1  0  0  0  0
  9  3  1  0  0  0  0
 10  4  1  0  0  0  0
 10 32  1  0  0  0  0
 11 35  1  0  0  0  0
 11 34  1  0  0  0  0
 12 11  1  0  0  0  0
 12 36  1  0  0  0  0
 13 14  1  0  0  0  0
 13 12  1  0  0  0  0
 14 15  1  0  0  0  0
 14 40  1  0  0  0  0
 15 43  1  0  0  0  0
 15 42  1  0  0  0  0
 16 17  1  0  0  0  0
 16 15  1  0  0  0  0
 17 46  1  0  0  0  0
 17  1  1  0  0  0  0
 19  2  1  0  0  0  0
 21  4  1  0  0  0  0
 22  5  1  0  0  0  0
 25  6  1  0  0  0  0
 26  7  1  0  0  0  0
 29  8  1  0  0  0  0
 30  9  1  0  0  0  0
 33 10  1  0  0  0  0
 37 12  1  0  0  0  0
 38 13  1  0  0  0  0
 39 13  1  0  0  0  0
 41 14  1  0  0  0  0
 44 16  1  0  0  0  0
 45 16  1  0  0  0  0
 47 17  1  0  0  0  0
M  END
