1,3,5,7
q = 0.0, confidence = 0.992

 39 42  0  0  1  0  0  0  0  0999 V2000
   -0.1650   -1.3896    0.8565 N   0  0  0  0  0  2  0  0  0  0  0  0
    0.1986   -2.8656    2.4632 N   0  0  0  0  0  0  0  0  0  0  0  0
   -1.8745    0.2804   -0.3383 N   0  0  0  0  0  2  0  0  0  0  0  0
   -3.8120    1.3151   -0.1638 N   0  0  0  0  0  0  0  0  0  0  0  0
    0.3644    1.6136    0.3805 N   0  0  0  0  0  2  0  0  0  0  0  0
    0.2475    3.8052    0.6793 N   0  0  0  0  0  0  0  0  0  0  0  0
    1.9548   -0.3877   -0.6554 N   0  0  0  0  0  2  0  0  0  0  0  0
    3.9036   -1.1597   -1.3465 N   0  0  0  0  0  0  0  0  0  0  0  0
    0.7073   -1.7986    1.7889 C   0  0  0  0  0  3  0  0  0  0  0  0
   -1.0489   -3.1534    1.9511 C   0  0  0  0  0  0  0  0  0  0  0  0
   -1.2756   -2.2358    0.9420 C   0  0  0  0  0  0  0  0  0  0  0  0
   -2.4507   -2.1089    0.0179 C   0  0  0  0  0  0  0  0  0  0  0  0
   -2.8545   -0.6761   -0.1199 C   0  0  0  0  0  0  0  0  0  0  0  0
   -4.0748   -0.0361   -0.0127 C   0  0  0  0  0  0  0  0  0  0  0  0
   -2.4699    1.4758   -0.3493 C   0  0  1  0  0  3  0  0  0  0  0  0
   -1.7308    2.7634   -0.5003 C   0  0  0  0  0  0  0  0  0  0  0  0
   -0.4120    2.7047    0.2138 C   0  0  1  0  0  3  0  0  0  0  0  0
    1.4836    3.4170    1.1557 C   0  0  0  0  0  0  0  0  0  0  0  0
    1.5501    2.0504    0.9676 C   0  0  0  0  0  0  0  0  0  0  0  0
    2.6570    1.0958    1.2799 C   0  0  0  0  0  0  0  0  0  0  0  0
    2.9574    0.1685    0.1372 C   0  0  0  0  0  0  0  0  0  0  0  0
    4.1828   -0.3086   -0.2962 C   0  0  0  0  0  0  0  0  0  0  0  0
    2.5602   -1.1901   -1.5402 C   0  0  0  0  0  3  0  0  0  0  0  0
    1.6980   -1.3791    1.9760 H   0  0  0  0  0  0  0  0  0  0  0  0
    0.6660   -3.3635    3.2212 H   0  0  0  0  0  0  0  0  0  0  0  0
   -1.6665   -3.9741    2.3270 H   0  0  0  0  0  0  0  0  0  0  0  0
   -4.5070    2.0619   -0.1492 H   0  0  0  0  0  0  0  0  0  0  0  0
   -2.1507   -2.4849   -0.9862 H   0  0  0  0  0  0  0  0  0  0  0  0
   -0.1091    4.7613    0.6579 H   0  0  0  0  0  0  0  0  0  0  0  0
   -3.2929   -2.7231    0.3857 H   0  0  0  0  0  0  0  0  0  0  0  0
    4.5895   -1.6715   -1.9036 H   0  0  0  0  0  0  0  0  0  0  0  0
   -5.0845   -0.4206    0.1574 H   0  0  0  0  0  0  0  0  0  0  0  0
   -1.5615    2.9877   -1.5822 H   0  0  0  0  0  0  0  0  0  0  0  0
   -2.3374    3.6029   -0.1039 H   0  0  0  0  0  0  0  0  0  0  0  0
    2.1973    4.1255    1.5864 H   0  0  0  0  0  0  0  0  0  0  0  0
    3.5694    1.6601    1.5501 H   0  0  0  0  0  0  0  0  0  0  0  0
    2.3850    0.5136    2.1911 H   0  0  0  0  0  0  0  0  0  0  0  0
    2.0259   -1.7599   -2.3107 H   0  0  0  0  0  0  0  0  0  0  0  0
    5.2017   -0.1104    0.0498 H   0  0  0  0  0  0  0  0  0  0  0  0
  1 11  1  0  0  0  0
  1  9  1  0  0  0  0
  2 25  1  0  0  0  0
  3 13  1  0  0  0  0
  4 27  1  0  0  0  0
  4 14  1  0  0  0  0
  5 19  1  0  0  0  0
  6 18  1  0  0  0  0
  7 21  1  0  0  0  0
  8 22  1  0  0  0  0
  9 24  1  0  0  0  0
  9  2  1  0  0  0  0
 10 26  1  0  0  0  0
 10  2  1  0  0  0  0
 11 10  2  0  0  0  0
 12 30  1  0  0  0  0
 12 11  1  0  0  0  0
 13 14  2  0  0  0  0
 13 12  1  0  0  0  0
 14 32  1  0  0  0  0
 15 16  1  1  0  0  0
 15  3  1  0  0  0  0
 15  4  1  0  0  0  0
 16 34  1  0  0  0  0
 17 16  1  6  0  0  0
 17  5  1  0  0  0  0
 17  6  1  0  0  0  0
 18 35  1  0  0  0  0
 19 18  2  0  0  0  0
 19 20  1  0  0  0  0
 20 36  1  0  0  0  0
 20 37  1  0  0  0  0
 21 20  1  0  0  0  0
 22 39  1  0  0  0  0
 22 21  2  0  0  0  0
 23  8  1  0  0  0  0
 23  7  1  0  0  0  0
 28 12  1  0  0  0  0
 29  6  1  0  0  0  0
 31  8  1  0  0  0  0
 33 16  1  0  0  0  0
 38 23  1  0  0  0  0
M  END
