4,7,12,19
q = 0.0, confidence = 0.984

 47 49  0  0  1  0  0  0  0  0999 V2000
    0.0947   -2.3020    0.9446 O   0  0  0  0  0  0  0  0  0  0  0  0
   -0.3754   -3.2366   -0.0454 C   0  0  0  0  0  0  0  0  0  0  0  0
   -1.1822   -2.4467   -1.0573 C   0  0  0  0  0  0  0  0  0  0  0  0
   -0.4556   -1.1947   -1.4327 N   0  0  0  0  0  0  0  0  0  0  0  0
    0.7374   -1.4895   -2.2810 C   0  0  0  0  0  0  0  0  0  0  0  0
    1.9729   -0.7719   -1.7419 C   0  0  0  0  0  0  0  0  0  0  0  0
    2.0104   -0.7852   -0.2473 N   0  0  0  0  0  0  0  0  0  0  0  0
    2.4340   -2.0989    0.3242 C   0  0  0  0  0  0  0  0  0  0  0  0
    1.4468   -2.5411    1.4073 C   0  0  0  0  0  0  0  0  0  0  0  0
   -1.4138   -0.2028   -1.9809 C   0  0  0  0  0  0  0  0  0  0  0  0
   -2.3314    0.2018   -0.8496 C   0  0  2  0  0  3  0  0  0  0  0  0
   -1.7345    0.1546    0.3872 N   0  0  0  0  0  2  0  0  0  0  0  0
   -2.4709    0.4826    1.4798 C   0  0  0  0  0  0  0  0  0  0  0  0
   -3.8058    0.8863    1.3762 C   0  0  0  0  0  0  0  0  0  0  0  0
   -4.4177    0.9480    0.1151 C   0  0  0  0  0  0  0  0  0  0  0  0
   -3.6635    0.5866   -1.0147 C   0  0  0  0  0  0  0  0  0  0  0  0
    2.7976    0.3724    0.2451 C   0  0  0  0  0  0  0  0  0  0  0  0
    2.0297    1.6204   -0.0959 C   0  0  1  0  0  3  0  0  0  0  0  0
    0.6685    1.4443   -0.1778 N   0  0  0  0  0  2  0  0  0  0  0  0
   -0.0977    2.5433   -0.4066 C   0  0  0  0  0  0  0  0  0  0  0  0
    0.4430    3.8188   -0.5838 C   0  0  0  0  0  0  0  0  0  0  0  0
    1.8324    3.9948   -0.5260 C   0  0  0  0  0  0  0  0  0  0  0  0
    2.6305    2.8671   -0.2810 C   0  0  0  0  0  0  0  0  0  0  0  0
   -1.0032   -4.0125    0.4412 H   0  0  0  0  0  0  0  0  0  0  0  0
    0.4839   -3.7540   -0.5227 H   0  0  0  0  0  0  0  0  0  0  0  0
   -2.1512   -2.1514   -0.6134 H   0  0  0  0  0  0  0  0  0  0  0  0
   -1.4038   -3.0621   -1.9576 H   0  0  0  0  0  0  0  0  0  0  0  0
    0.5556   -1.2006   -3.3373 H   0  0  0  0  0  0  0  0  0  0  0  0
    0.8953   -2.5855   -2.2877 H   0  0  0  0  0  0  0  0  0  0  0  0
    1.9543    0.2894   -2.0538 H   0  0  0  0  0  0  0  0  0  0  0  0
    2.9007   -1.2139   -2.1695 H   0  0  0  0  0  0  0  0  0  0  0  0
    3.4602   -2.0380    0.7429 H   0  0  0  0  0  0  0  0  0  0  0  0
    2.4797   -2.8398   -0.4994 H   0  0  0  0  0  0  0  0  0  0  0  0
    1.5757   -3.6116    1.6717 H   0  0  0  0  0  0  0  0  0  0  0  0
    1.5332   -1.9143    2.3149 H   0  0  0  0  0  0  0  0  0  0  0  0
   -1.9896   -0.6041   -2.8460 H   0  0  0  0  0  0  0  0  0  0  0  0
   -0.8273    0.6685   -2.3414 H   0  0  0  0  0  0  0  0  0  0  0  0
   -1.9275    0.4314    2.4361 H   0  0  0  0  0  0  0  0  0  0  0  0
   -4.3575    1.1504    2.2898 H   0  0  0  0  0  0  0  0  0  0  0  0
   -5.4661    1.2618    0.0096 H   0  0  0  0  0  0  0  0  0  0  0  0
   -4.1058    0.6020   -2.0217 H   0  0  0  0  0  0  0  0  0  0  0  0
    3.8283    0.3898   -0.1752 H   0  0  0  0  0  0  0  0  0  0  0  0
    2.8460    0.2893    1.3516 H   0  0  0  0  0  0  0  0  0  0  0  0
   -1.1845    2.3905   -0.4308 H   0  0  0  0  0  0  0  0  0  0  0  0
   -0.2343    4.6662   -0.7609 H   0  0  0  0  0  0  0  0  0  0  0  0
    2.2860    4.9866   -0.6626 H   0  0  0  0  0  0  0  0  0  0  0  0
    3.7253    2.9493   -0.2179 H   0  0  0  0  0  0  0  0  0  0  0  0
  1  9  1  0  0  0  0
  2 24  1  0  0  0  0
  2  1  1  0  0  0  0
  3 26  1  0  0  0  0
  3  2  1  0  0  0  0
  4  3  1  0  0  0  0
  5  6  1  0  0  0  0
  5  4  1  0  0  0  0
  6  7  1  0  0  0  0
  7 17  1  0  0  0  0
  7  8  1  0  0  0  0
  8 32  1  0  0  0  0
  8  9  1  0  0  0  0
  9 34  1  0  0  0  0
  9 35  1  0  0  0  0
 10  4  1  0  0  0  0
 11 10  1  1  0  0  0
 11 12  1  0  0  0  0
 12 13  1  0  0  0  0
 13 38  1  0  0  0  0
 14 13  2  0  0  0  0
 14 39  1  0  0  0  0
 15 14  1  0  0  0  0
 16 11  1  0  0  0  0
 16 15  2  0  0  0  0
 17 43  1  0  0  0  0
 18 17  1  1  0  0  0
 19 18  1  0  0  0  0
 20 19  1  0  0  0  0
 21 22  1  0  0  0  0
 21 20  2  0  0  0  0
 22 23  2  0  0  0  0
 23 47  1  0  0  0  0
 23 18  1  0  0  0  0
 25  2  1  0  0  0  0
 27  3  1  0  0  0  0
 28  5  1  0  0  0  0
 29  5  1  0  0  0  0
 30  6  1  0  0  0  0
 31  6  1  0  0  0  0
 33  8  1  0  0  0  0
 36 10  1  0  0  0  0
 37 10  1  0  0  0  0
 40 15  1  0  0  0  0
 41 16  1  0  0  0  0
 42 17  1  0  0  0  0
 44 20  1  0  0  0  0
 45 21  1  0  0  0  0
 46 22  1  0  0  0  0
M  END
