3,4,6,8
q = 0.0, confidence = 0.504

 84 86  0  0  0  0  0  0  0  0999 V2000
    1.3763    5.5986   -0.5528 F   0  0  0  0  0  0  0  0  0  0  0  0
   -1.3761    5.5986   -0.5527 F   0  0  0  0  0  0  0  0  0  0  0  0
   -1.2649    0.7171   -0.1351 N   0  0  0  0  0  2  0  0  0  0  0  0
   -1.4113   -1.7396   -0.2365 N   0  0  0  0  0  2  0  0  0  0  0  0
   -1.3816   -2.7605   -0.2771 H   0  0  0  0  0  0  0  0  0  0  0  0
    1.4114   -1.7396   -0.2366 N   0  0  0  0  0  2  0  0  0  0  0  0
    1.3817   -2.7605   -0.2771 H   0  0  0  0  0  0  0  0  0  0  0  0
    1.2650    0.7171   -0.1352 N   0  0  0  0  0  2  0  0  0  0  0  0
   -0.6956    4.4440   -0.4394 C   0  0  0  0  0  0  0  0  0  0  0  0
    0.6957    4.4440   -0.4395 C   0  0  0  0  0  0  0  0  0  0  0  0
   -0.7195    2.0176   -0.1984 C   0  0  0  0  0  0  0  0  0  0  0  0
    0.7197    2.0176   -0.1985 C   0  0  0  0  0  0  0  0  0  0  0  0
   -2.6359   -1.1698   -0.1000 C   0  0  0  0  0  0  0  0  0  0  0  0
    2.5546    0.2859   -0.0194 C   0  0  0  0  0  0  0  0  0  0  0  0
   -4.9734    0.4032    0.2773 C   0  0  0  0  0  0  0  0  0  0  0  0
    5.0295   -1.0165    0.1518 C   0  0  0  0  0  0  0  0  0  0  0  0
    6.0158   -1.4923    0.2113 H   0  0  0  0  0  0  0  0  0  0  0  0
   -3.7345    1.0414    0.1924 C   0  0  0  0  0  0  0  0  0  0  0  0
   -3.6743    2.1234    0.3207 H   0  0  0  0  0  0  0  0  0  0  0  0
    4.9735    0.4031    0.2773 C   0  0  0  0  0  0  0  0  0  0  0  0
   -3.9095   -1.8310   -0.0252 C   0  0  0  0  0  0  0  0  0  0  0  0
   -6.2803    1.1800    0.5073 C   0  0  0  0  0  0  0  0  0  0  0  0
    1.4064    3.2307   -0.3287 C   0  0  0  0  0  0  0  0  0  0  0  0
    2.4970    3.2918   -0.3850 H   0  0  0  0  0  0  0  0  0  0  0  0
    3.7347    1.0414    0.1924 C   0  0  0  0  0  0  0  0  0  0  0  0
    3.6745    2.1234    0.3207 H   0  0  0  0  0  0  0  0  0  0  0  0
   -5.0295   -1.0164    0.1518 C   0  0  0  0  0  0  0  0  0  0  0  0
   -6.0157   -1.4922    0.2113 H   0  0  0  0  0  0  0  0  0  0  0  0
    2.6360   -1.1698   -0.1000 C   0  0  0  0  0  0  0  0  0  0  0  0
   -2.5545    0.2860   -0.0194 C   0  0  0  0  0  0  0  0  0  0  0  0
    3.9095   -1.8310   -0.0252 C   0  0  0  0  0  0  0  0  0  0  0  0
   -1.4063    3.2307   -0.3286 C   0  0  0  0  0  0  0  0  0  0  0  0
   -2.4969    3.2919   -0.3848 H   0  0  0  0  0  0  0  0  0  0  0  0
    4.0341   -3.3640   -0.1262 C   0  0  0  0  0  0  0  0  0  0  0  0
    3.2835   -4.0362    1.0508 C   0  0  0  0  0  0  0  0  0  0  0  0
    2.2094   -3.7710    1.0996 H   0  0  0  0  0  0  0  0  0  0  0  0
    3.7316   -3.7293    2.0170 H   0  0  0  0  0  0  0  0  0  0  0  0
    3.3553   -5.1407    0.9736 H   0  0  0  0  0  0  0  0  0  0  0  0
   -3.2837   -4.0363    1.0506 C   0  0  0  0  0  0  0  0  0  0  0  0
   -3.7315   -3.7293    2.0169 H   0  0  0  0  0  0  0  0  0  0  0  0
   -2.2095   -3.7714    1.0993 H   0  0  0  0  0  0  0  0  0  0  0  0
   -3.3558   -5.1408    0.9734 H   0  0  0  0  0  0  0  0  0  0  0  0
    3.4845   -3.8553   -1.4886 C   0  0  0  0  0  0  0  0  0  0  0  0
    4.0750   -3.4205   -2.3198 H   0  0  0  0  0  0  0  0  0  0  0  0
    2.4286   -3.5738   -1.6664 H   0  0  0  0  0  0  0  0  0  0  0  0
    3.5566   -4.9603   -1.5574 H   0  0  0  0  0  0  0  0  0  0  0  0
   -6.0453    2.6961    0.6171 C   0  0  0  0  0  0  0  0  0  0  0  0
   -5.5948    3.1111   -0.3072 H   0  0  0  0  0  0  0  0  0  0  0  0
   -5.3844    2.9511    1.4699 H   0  0  0  0  0  0  0  0  0  0  0  0
   -7.0110    3.2159    0.7783 H   0  0  0  0  0  0  0  0  0  0  0  0
    6.2805    1.1798    0.5073 C   0  0  0  0  0  0  0  0  0  0  0  0
    6.0455    2.6960    0.6171 C   0  0  0  0  0  0  0  0  0  0  0  0
    5.3846    2.9510    1.4699 H   0  0  0  0  0  0  0  0  0  0  0  0
    5.5950    3.1109   -0.3072 H   0  0  0  0  0  0  0  0  0  0  0  0
    7.0112    3.2157    0.7783 H   0  0  0  0  0  0  0  0  0  0  0  0
   -3.4853   -3.8553   -1.4888 C   0  0  0  0  0  0  0  0  0  0  0  0
   -2.4294   -3.5741   -1.6670 H   0  0  0  0  0  0  0  0  0  0  0  0
   -4.0760   -3.4204   -2.3198 H   0  0  0  0  0  0  0  0  0  0  0  0
   -3.5577   -4.9604   -1.5575 H   0  0  0  0  0  0  0  0  0  0  0  0
   -5.5010   -3.8278   -0.0431 C   0  0  0  0  0  0  0  0  0  0  0  0
   -6.1148   -3.4063   -0.8640 H   0  0  0  0  0  0  0  0  0  0  0  0
   -5.9704   -3.5476    0.9209 H   0  0  0  0  0  0  0  0  0  0  0  0
   -5.5445   -4.9323   -0.1264 H   0  0  0  0  0  0  0  0  0  0  0  0
    5.5007   -3.8283   -0.0434 C   0  0  0  0  0  0  0  0  0  0  0  0
    5.9704   -3.5483    0.9205 H   0  0  0  0  0  0  0  0  0  0  0  0
    6.1144   -3.4070   -0.8644 H   0  0  0  0  0  0  0  0  0  0  0  0
    5.5438   -4.9328   -0.1268 H   0  0  0  0  0  0  0  0  0  0  0  0
   -6.9381    0.6929    1.8195 C   0  0  0  0  0  0  0  0  0  0  0  0
   -6.2687    0.8691    2.6855 H   0  0  0  0  0  0  0  0  0  0  0  0
   -7.1709   -0.3899    1.7876 H   0  0  0  0  0  0  0  0  0  0  0  0
   -7.8886    1.2365    2.0005 H   0  0  0  0  0  0  0  0  0  0  0  0
    7.2398    0.9217   -0.6779 C   0  0  0  0  0  0  0  0  0  0  0  0
    6.7904    1.2646   -1.6316 H   0  0  0  0  0  0  0  0  0  0  0  0
    7.4828   -0.1539   -0.7868 H   0  0  0  0  0  0  0  0  0  0  0  0
    8.1940    1.4684   -0.5287 H   0  0  0  0  0  0  0  0  0  0  0  0
   -7.2397    0.9219   -0.6780 C   0  0  0  0  0  0  0  0  0  0  0  0
   -7.4827   -0.1537   -0.7869 H   0  0  0  0  0  0  0  0  0  0  0  0
   -6.7902    1.2648   -1.6316 H   0  0  0  0  0  0  0  0  0  0  0  0
   -8.1938    1.4687   -0.5287 H   0  0  0  0  0  0  0  0  0  0  0  0
    6.9382    0.6928    1.8195 C   0  0  0  0  0  0  0  0  0  0  0  0
    7.1709   -0.3901    1.7877 H   0  0  0  0  0  0  0  0  0  0  0  0
    6.2688    0.8690    2.6855 H   0  0  0  0  0  0  0  0  0  0  0  0
    7.8887    1.2363    2.0005 H   0  0  0  0  0  0  0  0  0  0  0  0
   -4.0343   -3.3639   -0.1262 C   0  0  0  0  0  0  0  0  0  0  0  0
  1 10  1  0  0  0  0
  2  9  1  0  0  0  0
  3 30  1  0  0  0  0
  4 13  1  0  0  0  0
  5  4  1  0  0  0  0
  6 29  1  0  0  0  0
  7  6  1  0  0  0  0
  8 14  1  0  0  0  0
  9 32  1  0  0  0  0
 10  9  2  0  0  0  0
 10 23  1  0  0  0  0
 11  3  1  0  0  0  0
 12 11  1  0  0  0  0
 12  8  1  0  0  0  0
 13 21  2  0  0  0  0
 13 30  1  0  0  0  0
 14 25  1  0  0  0  0
 15 22  1  0  0  0  0
 16 17  1  0  0  0  0
 16 20  1  0  0  0  0
 18 15  1  0  0  0  0
 18 19  1  0  0  0  0
 20 51  1  0  0  0  0
 21 27  1  0  0  0  0
 22 47  1  0  0  0  0
 22 68  1  0  0  0  0
 23 12  2  0  0  0  0
 24 23  1  0  0  0  0
 25 20  2  0  0  0  0
 25 26  1  0  0  0  0
 27 28  1  0  0  0  0
 27 15  2  0  0  0  0
 29 31  1  0  0  0  0
 29 14  2  0  0  0  0
 30 18  2  0  0  0  0
 31 16  2  0  0  0  0
 32 11  2  0  0  0  0
 33 32  1  0  0  0  0
 34 64  1  0  0  0  0
 34 31  1  0  0  0  0
 34 35  1  0  0  0  0
 35 36  1  0  0  0  0
 35 37  1  0  0  0  0
 38 35  1  0  0  0  0
 39 41  1  0  0  0  0
 39 40  1  0  0  0  0
 42 39  1  0  0  0  0
 43 34  1  0  0  0  0
 44 43  1  0  0  0  0
 45 43  1  0  0  0  0
 46 43  1  0  0  0  0
 47 50  1  0  0  0  0
 47 49  1  0  0  0  0
 48 47  1  0  0  0  0
 51 52  1  0  0  0  0
 51 80  1  0  0  0  0
 52 55  1  0  0  0  0
 52 53  1  0  0  0  0
 54 52  1  0  0  0  0
 56 84  1  0  0  0  0
 57 56  1  0  0  0  0
 58 56  1  0  0  0  0
 59 56  1  0  0  0  0
 60 62  1  0  0  0  0
 61 60  1  0  0  0  0
 63 60  1  0  0  0  0
 64 65  1  0  0  0  0
 66 64  1  0  0  0  0
 67 64  1  0  0  0  0
 68 71  1  0  0  0  0
 68 69  1  0  0  0  0
 70 68  1  0  0  0  0
 72 75  1  0  0  0  0
 72 51  1  0  0  0  0
 73 72  1  0  0  0  0
 74 72  1  0  0  0  0
 76 79  1  0  0  0  0
 76 22  1  0  0  0  0
 77 76  1  0  0  0  0
 78 76  1  0  0  0  0
 80 83  1  0  0  0  0
 80 82  1  0  0  0  0
 81 80  1  0  0  0  0
 84 60  1  0  0  0  0
 84 21  1  0  0  0  0
 84 39  1  0  0  0  0
M  END
