1,2,3,4
q = -1.0, confidence = 0.106

 64 71  0  0  1  0  0  0  0  0999 V2000
   -1.4398    0.5914    0.1358 N   0  0  0  0  0  0  0  0  0  0  0  0
    1.4398    0.5915   -0.1358 N   0  0  0  0  0  2  0  0  0  0  0  0
    1.2366   -2.1168    0.2110 N   0  0  0  0  0  0  0  0  0  0  0  0
   -1.2365   -2.1169   -0.2117 N   0  0  0  0  0  0  0  0  0  0  0  0
   -2.7816    0.3092   -0.0753 C   0  0  0  0  0  0  0  0  0  0  0  0
   -3.4655    1.5440   -0.3755 C   0  0  0  0  0  0  0  0  0  0  0  0
   -4.5324    1.6270   -0.6088 H   0  0  0  0  0  0  0  0  0  0  0  0
   -2.5258    2.5559   -0.3638 C   0  0  0  0  0  0  0  0  0  0  0  0
   -2.6800    3.6148   -0.5965 H   0  0  0  0  0  0  0  0  0  0  0  0
   -1.2524    1.9520   -0.0573 C   0  0  0  0  0  3  0  0  0  0  0  0
   -0.0001    2.6183   -0.0001 C   0  0  0  0  0  0  0  0  0  0  0  0
    1.2523    1.9520    0.0572 C   0  0  0  0  0  0  0  0  0  0  0  0
    2.5257    2.5560    0.3640 C   0  0  0  0  0  0  0  0  0  0  0  0
    2.6797    3.6149    0.5968 H   0  0  0  0  0  0  0  0  0  0  0  0
    3.4654    1.5442    0.3758 C   0  0  0  0  0  0  0  0  0  0  0  0
    4.5323    1.6273    0.6094 H   0  0  0  0  0  0  0  0  0  0  0  0
    2.7817    0.3094    0.0755 C   0  0  0  0  0  0  0  0  0  0  0  0
    3.3852   -0.9866    0.0540 C   0  0  0  0  0  0  0  0  0  0  0  0
    2.6065   -2.1651    0.0759 C   0  0  0  0  0  3  0  0  0  0  0  0
    2.9725   -3.5492   -0.1201 C   0  0  0  0  0  0  0  0  0  0  0  0
    3.9923   -3.9142   -0.2864 H   0  0  0  0  0  0  0  0  0  0  0  0
    1.7953   -4.2951   -0.1505 C   0  0  0  0  0  0  0  0  0  0  0  0
    1.6995   -5.3765   -0.3014 H   0  0  0  0  0  0  0  0  0  0  0  0
    0.7156   -3.3691    0.0192 C   0  0  0  0  0  0  0  0  0  0  0  0
   -0.7153   -3.3692   -0.0202 C   0  0  0  0  0  3  0  0  0  0  0  0
   -1.7949   -4.2952    0.1495 C   0  0  0  0  0  0  0  0  0  0  0  0
   -1.6991   -5.3767    0.3001 H   0  0  0  0  0  0  0  0  0  0  0  0
   -2.9722   -3.5494    0.1197 C   0  0  0  0  0  0  0  0  0  0  0  0
   -3.9919   -3.9145    0.2862 H   0  0  0  0  0  0  0  0  0  0  0  0
   -2.6063   -2.1653   -0.0762 C   0  0  0  0  0  0  0  0  0  0  0  0
   -3.3851   -0.9868   -0.0539 C   0  0  2  0  0  3  0  0  0  0  0  0
   -4.8628   -1.0964   -0.0292 C   0  0  0  0  0  0  0  0  0  0  0  0
   -5.6297   -0.3607    0.9052 C   0  0  0  0  0  0  0  0  0  0  0  0
   -5.1123    0.2914    1.6244 H   0  0  0  0  0  0  0  0  0  0  0  0
   -7.0254   -0.4777    0.9372 C   0  0  0  0  0  0  0  0  0  0  0  0
   -7.6033    0.0946    1.6789 H   0  0  0  0  0  0  0  0  0  0  0  0
   -7.6850   -1.3279    0.0345 C   0  0  0  0  0  0  0  0  0  0  0  0
   -8.7816   -1.4173    0.0590 H   0  0  0  0  0  0  0  0  0  0  0  0
   -6.9372   -2.0619   -0.9002 C   0  0  0  0  0  0  0  0  0  0  0  0
   -7.4471   -2.7220   -1.6184 H   0  0  0  0  0  0  0  0  0  0  0  0
   -5.5407   -1.9498   -0.9318 C   0  0  0  0  0  0  0  0  0  0  0  0
   -4.9571   -2.5078   -1.6787 H   0  0  0  0  0  0  0  0  0  0  0  0
   -0.0002    4.1049   -0.0001 C   0  0  0  0  0  0  0  0  0  0  0  0
   -0.7773    4.8284    0.9339 C   0  0  0  0  0  0  0  0  0  0  0  0
   -1.3726    4.2749    1.6751 H   0  0  0  0  0  0  0  0  0  0  0  0
   -0.7742    6.2299    0.9351 C   0  0  0  0  0  0  0  0  0  0  0  0
   -1.3763    6.7757    1.6774 H   0  0  0  0  0  0  0  0  0  0  0  0
   -0.0004    6.9359   -0.0002 C   0  0  0  0  0  0  0  0  0  0  0  0
   -0.0005    8.0365   -0.0003 H   0  0  0  0  0  0  0  0  0  0  0  0
    0.7735    6.2299   -0.9356 C   0  0  0  0  0  0  0  0  0  0  0  0
    1.3755    6.7758   -1.6779 H   0  0  0  0  0  0  0  0  0  0  0  0
    0.7768    4.8285   -0.9342 C   0  0  0  0  0  0  0  0  0  0  0  0
    1.3722    4.2750   -1.6754 H   0  0  0  0  0  0  0  0  0  0  0  0
    4.8630   -1.0961    0.0297 C   0  0  0  0  0  0  0  0  0  0  0  0
    5.6300   -0.3603   -0.9045 C   0  0  0  0  0  0  0  0  0  0  0  0
    5.1127    0.2918   -1.6238 H   0  0  0  0  0  0  0  0  0  0  0  0
    7.0257   -0.4773   -0.9363 C   0  0  0  0  0  0  0  0  0  0  0  0
    7.6038    0.0951   -1.6778 H   0  0  0  0  0  0  0  0  0  0  0  0
    7.6851   -1.3275   -0.0336 C   0  0  0  0  0  0  0  0  0  0  0  0
    8.7818   -1.4169   -0.0578 H   0  0  0  0  0  0  0  0  0  0  0  0
    6.9372   -2.0616    0.9010 C   0  0  0  0  0  0  0  0  0  0  0  0
    7.4469   -2.7217    1.6193 H   0  0  0  0  0  0  0  0  0  0  0  0
    5.5406   -1.9495    0.9323 C   0  0  0  0  0  0  0  0  0  0  0  0
    4.9569   -2.5076    1.6790 H   0  0  0  0  0  0  0  0  0  0  0  0
  2 12  1  0  0  0  0
  2 17  1  0  0  0  0
  4 30  2  0  0  0  0
  4 25  1  0  0  0  0
  5 31  1  0  0  0  0
  5  1  2  0  0  0  0
  6  8  2  0  0  0  0
  6  5  1  0  0  0  0
  7  6  1  0  0  0  0
  8 10  1  0  0  0  0
  9  8  1  0  0  0  0
 10 11  1  0  0  0  0
 10  1  1  0  0  0  0
 11 12  2  0  0  0  0
 12 13  1  0  0  0  0
 13 15  2  0  0  0  0
 13 14  1  0  0  0  0
 15 16  1  0  0  0  0
 17 15  1  0  0  0  0
 18 17  2  0  0  0  0
 18 19  1  0  0  0  0
 19  3  1  0  0  0  0
 20 19  1  0  0  0  0
 21 20  1  0  0  0  0
 22 20  2  0  0  0  0
 22 24  1  0  0  0  0
 23 22  1  0  0  0  0
 24  3  2  0  0  0  0
 25 24  1  0  0  0  0
 25 26  1  0  0  0  0
 26 27  1  0  0  0  0
 28 26  2  0  0  0  0
 28 29  1  0  0  0  0
 30 31  1  0  0  0  0
 30 28  1  0  0  0  0
 31 32  1  6  0  0  0
 32 33  1  0  0  0  0
 33 35  2  0  0  0  0
 33 34  1  0  0  0  0
 35 36  1  0  0  0  0
 37 38  1  0  0  0  0
 37 35  1  0  0  0  0
 39 37  2  0  0  0  0
 40 39  1  0  0  0  0
 41 39  1  0  0  0  0
 41 32  2  0  0  0  0
 42 41  1  0  0  0  0
 43 11  1  0  0  0  0
 43 44  1  0  0  0  0
 44 46  2  0  0  0  0
 44 45  1  0  0  0  0
 46 47  1  0  0  0  0
 48 46  1  0  0  0  0
 49 48  1  0  0  0  0
 50 52  1  0  0  0  0
 50 48  2  0  0  0  0
 51 50  1  0  0  0  0
 52 43  2  0  0  0  0
 53 52  1  0  0  0  0
 54 18  1  0  0  0  0
 54 63  1  0  0  0  0
 55 54  2  0  0  0  0
 56 55  1  0  0  0  0
 57 55  1  0  0  0  0
 57 59  2  0  0  0  0
 58 57  1  0  0  0  0
 59 61  1  0  0  0  0
 60 59  1  0  0  0  0
 61 63  2  0  0  0  0
 61 62  1  0  0  0  0
 63 64  1  0  0  0  0
M  END
