1,3,5,6
q = -1.0, confidence = 0.068

 65 68  0  0  1  0  0  0  0  0999 V2000
    1.3565   -1.1891    0.0651 N   0  0  0  0  0  0  0  0  0  0  0  0
    1.7367   -1.2246   -0.8967 H   0  0  0  0  0  0  0  0  0  0  0  0
   -1.3535   -1.1989   -0.0906 N   0  0  0  0  0  0  0  0  0  0  0  0
   -1.7185   -1.2461    0.8763 H   0  0  0  0  0  0  0  0  0  0  0  0
    1.3620    1.3862    0.2789 N   0  0  0  0  0  2  0  0  0  0  0  0
   -1.3654    1.3703   -0.3137 N   0  0  0  0  0  2  0  0  0  0  0  0
    4.5449   -0.7329   -0.5724 C   0  0  1  0  0  0  0  0  0  0  0  0
    4.3970   -1.2727   -1.5233 H   0  0  0  0  0  0  0  0  0  0  0  0
    3.8374   -1.3182    0.6398 C   0  0  0  0  0  0  0  0  0  0  0  0
    4.4670   -1.2039    1.5439 H   0  0  0  0  0  0  0  0  0  0  0  0
    3.6869   -2.4128    0.5337 H   0  0  0  0  0  0  0  0  0  0  0  0
    2.4704   -0.6456    0.9433 C   0  0  1  0  0  0  0  0  0  0  0  0
    2.5201    0.8376    0.5926 C   0  0  1  0  0  3  0  0  0  0  0  0
    3.8421    1.5288    0.4802 C   0  0  0  0  0  0  0  0  0  0  0  0
    4.4026    1.4877    1.4378 H   0  0  0  0  0  0  0  0  0  0  0  0
    3.6786    2.5945    0.2387 H   0  0  0  0  0  0  0  0  0  0  0  0
    4.5856    0.7969   -0.6428 C   0  0  1  0  0  0  0  0  0  0  0  0
    4.4320    1.2447   -1.6383 H   0  0  0  0  0  0  0  0  0  0  0  0
    5.8722    0.0154   -0.4514 C   0  0  0  0  0  0  0  0  0  0  0  0
    6.6281    0.0609    0.8622 C   0  0  0  0  0  0  0  0  0  0  0  0
    5.9799    0.1569    1.7546 H   0  0  0  0  0  0  0  0  0  0  0  0
    7.3211    0.9267    0.8723 H   0  0  0  0  0  0  0  0  0  0  0  0
    7.2386   -0.8563    0.9926 H   0  0  0  0  0  0  0  0  0  0  0  0
    6.7880   -0.0607   -1.6626 C   0  0  0  0  0  0  0  0  0  0  0  0
    6.2139   -0.0944   -2.6101 H   0  0  0  0  0  0  0  0  0  0  0  0
    7.4254   -0.9679   -1.6189 H   0  0  0  0  0  0  0  0  0  0  0  0
    7.4582    0.8222   -1.7053 H   0  0  0  0  0  0  0  0  0  0  0  0
    2.0975   -0.8218    2.4231 C   0  0  0  0  0  0  0  0  0  0  0  0
    1.0754   -0.4415    2.6238 H   0  0  0  0  0  0  0  0  0  0  0  0
    2.7970   -0.2311    3.0446 H   0  0  0  0  0  0  0  0  0  0  0  0
    2.1746   -1.8784    2.7508 H   0  0  0  0  0  0  0  0  0  0  0  0
    0.6692   -2.4750    0.3632 C   0  0  0  0  0  0  0  0  0  0  0  0
    0.4772   -2.5205    1.4524 H   0  0  0  0  0  0  0  0  0  0  0  0
    1.2853   -3.3606    0.0979 H   0  0  0  0  0  0  0  0  0  0  0  0
   -4.5280   -0.7325    0.5989 C   0  0  1  0  0  0  0  0  0  0  0  0
   -4.3598   -1.2638    1.5511 H   0  0  0  0  0  0  0  0  0  0  0  0
   -3.8427   -1.3256   -0.6227 C   0  0  0  0  0  0  0  0  0  0  0  0
   -4.4876   -1.2149   -1.5164 H   0  0  0  0  0  0  0  0  0  0  0  0
   -3.6912   -2.4195   -0.5132 H   0  0  0  0  0  0  0  0  0  0  0  0
   -2.4797   -0.6566   -0.9491 C   0  0  1  0  0  0  0  0  0  0  0  0
   -2.5260    0.8327   -0.6056 C   0  0  1  0  0  3  0  0  0  0  0  0
   -3.8490    1.5195   -0.4892 C   0  0  0  0  0  0  0  0  0  0  0  0
   -4.4199    1.4481   -1.4385 H   0  0  0  0  0  0  0  0  0  0  0  0
   -3.6983    2.5918   -0.2720 H   0  0  0  0  0  0  0  0  0  0  0  0
   -4.5671    0.7980    0.6574 C   0  0  1  0  0  0  0  0  0  0  0  0
   -4.3927    1.2567    1.6443 H   0  0  0  0  0  0  0  0  0  0  0  0
   -5.8573    0.0142    0.4982 C   0  0  0  0  0  0  0  0  0  0  0  0
   -6.6404    0.0494   -0.7995 C   0  0  0  0  0  0  0  0  0  0  0  0
   -6.0117    0.1352   -1.7069 H   0  0  0  0  0  0  0  0  0  0  0  0
   -7.3323    0.9161   -0.8028 H   0  0  0  0  0  0  0  0  0  0  0  0
   -7.2547   -0.8680   -0.9082 H   0  0  0  0  0  0  0  0  0  0  0  0
   -6.7474   -0.0496    1.7293 C   0  0  0  0  0  0  0  0  0  0  0  0
   -6.1537   -0.0750    2.6648 H   0  0  0  0  0  0  0  0  0  0  0  0
   -7.3856   -0.9569    1.7069 H   0  0  0  0  0  0  0  0  0  0  0  0
   -7.4162    0.8339    1.7774 H   0  0  0  0  0  0  0  0  0  0  0  0
   -2.1321   -0.8261   -2.4358 C   0  0  0  0  0  0  0  0  0  0  0  0
   -2.2127   -1.8827   -2.7618 H   0  0  0  0  0  0  0  0  0  0  0  0
   -1.1143   -0.4443   -2.6527 H   0  0  0  0  0  0  0  0  0  0  0  0
   -2.8438   -0.2373   -3.0453 H   0  0  0  0  0  0  0  0  0  0  0  0
   -0.6591   -2.4753   -0.4077 C   0  0  0  0  0  0  0  0  0  0  0  0
   -0.4662   -2.5042   -1.4972 H   0  0  0  0  0  0  0  0  0  0  0  0
   -1.2674   -3.3702   -0.1547 H   0  0  0  0  0  0  0  0  0  0  0  0
    1.2051    2.6514    0.0524 O   0  0  0  0  0  1  0  0  0  0  0  0
   -1.2338    2.6653   -0.0975 O   0  0  0  0  0  0  0  0  0  0  0  0
   -0.1209    2.7978   -0.0224 H   0  0  0  0  0  0  0  0  0  0  0  0
  1 32  1  0  0  0  0
  2  1  1  0  0  0  0
  3  4  1  0  0  0  0
  6 64  1  0  0  0  0
  7  8  1  6  0  0  0
  7 19  1  0  0  0  0
  7  9  1  0  0  0  0
  9 12  1  0  0  0  0
  9 10  1  0  0  0  0
 11  9  1  0  0  0  0
 12  1  1  6  0  0  0
 12 28  1  0  0  0  0
 13  5  1  6  0  0  0
 13 12  1  0  0  0  0
 14 13  1  0  0  0  0
 14 15  1  0  0  0  0
 16 14  1  0  0  0  0
 17 18  1  6  0  0  0
 17  7  1  0  0  0  0
 17 19  1  0  0  0  0
 17 14  1  0  0  0  0
 19 20  1  0  0  0  0
 20 22  1  0  0  0  0
 20 23  1  0  0  0  0
 20 21  1  0  0  0  0
 24 26  1  0  0  0  0
 24 19  1  0  0  0  0
 25 24  1  0  0  0  0
 27 24  1  0  0  0  0
 28 29  1  0  0  0  0
 28 31  1  0  0  0  0
 28 30  1  0  0  0  0
 32 33  1  0  0  0  0
 34 32  1  0  0  0  0
 35 45  1  0  0  0  0
 35 36  1  1  0  0  0
 37 39  1  0  0  0  0
 37 35  1  0  0  0  0
 38 37  1  0  0  0  0
 40 56  1  6  0  0  0
 40 37  1  0  0  0  0
 40 41  1  0  0  0  0
 40  3  1  0  0  0  0
 41 42  1  0  0  0  0
 41  6  1  1  0  0  0
 42 44  1  0  0  0  0
 42 45  1  0  0  0  0
 43 42  1  0  0  0  0
 45 46  1  1  0  0  0
 47 35  1  0  0  0  0
 47 45  1  0  0  0  0
 47 52  1  0  0  0  0
 48 47  1  0  0  0  0
 49 48  1  0  0  0  0
 50 48  1  0  0  0  0
 51 48  1  0  0  0  0
 52 55  1  0  0  0  0
 52 53  1  0  0  0  0
 54 52  1  0  0  0  0
 57 56  1  0  0  0  0
 58 56  1  0  0  0  0
 59 56  1  0  0  0  0
 60 62  1  0  0  0  0
 60  3  1  0  0  0  0
 60 32  1  0  0  0  0
 61 60  1  0  0  0  0
 63  5  1  0  0  0  0
 64 65  1  0  0  0  0
M  END
