5,6,7,8
q = -2.0, confidence = 0.85

 60 62  0  0  1  0  0  0  0  0999 V2000
    5.1055    1.8203   -1.3187 O   0  0  0  0  0  0  0  0  0  0  0  0
    5.2797   -0.3760   -0.8165 O   0  0  0  0  0  0  0  0  0  0  0  0
   -4.6676   -2.6449   -0.3000 O   0  0  0  0  0  0  0  0  0  0  0  0
   -5.4052   -0.5766   -0.8129 O   0  0  0  0  0  0  0  0  0  0  0  0
    0.9810    1.6426   -0.1746 N   0  0  0  0  0  2  0  0  0  0  0  0
    1.6088   -1.0385    0.4204 N   0  0  0  0  0  2  0  0  0  0  0  0
   -0.8836   -1.6267    0.5270 N   0  0  0  0  0  2  0  0  0  0  0  0
   -1.5709    1.0393   -0.0664 N   0  0  0  0  0  2  0  0  0  0  0  0
    2.2286    1.7332   -0.6578 C   0  0  1  0  0  3  0  0  0  0  0  0
    3.1497    0.6255   -0.5098 C   0  0  0  0  0  0  0  0  0  0  0  0
    2.8208   -0.6303    0.0817 C   0  0  0  0  0  0  0  0  0  0  0  0
    3.6666   -1.3206    0.2307 H   0  0  0  0  0  0  0  0  0  0  0  0
    1.3489   -2.3056    0.9794 C   0  0  0  0  0  0  0  0  0  0  0  0
    2.3022   -3.2282    1.4512 C   0  0  0  0  0  0  0  0  0  0  0  0
    3.3720   -2.9762    1.4276 H   0  0  0  0  0  0  0  0  0  0  0  0
    1.8870   -4.4625    1.9730 C   0  0  0  0  0  0  0  0  0  0  0  0
    2.6375   -5.1717    2.3533 H   0  0  0  0  0  0  0  0  0  0  0  0
    0.5198   -4.7870    2.0261 C   0  0  0  0  0  0  0  0  0  0  0  0
    0.1976   -5.7511    2.4471 H   0  0  0  0  0  0  0  0  0  0  0  0
   -0.4423   -3.8791    1.5592 C   0  0  0  0  0  0  0  0  0  0  0  0
   -1.5101   -4.1336    1.6169 H   0  0  0  0  0  0  0  0  0  0  0  0
   -0.0414   -2.6352    1.0357 C   0  0  0  0  0  0  0  0  0  0  0  0
   -2.1736   -1.8034    0.3011 C   0  0  0  0  0  0  0  0  0  0  0  0
   -2.6273   -2.7924    0.4911 H   0  0  0  0  0  0  0  0  0  0  0  0
   -3.0821   -0.8391   -0.2304 C   0  0  0  0  0  0  0  0  0  0  0  0
   -2.7649    0.5556   -0.4461 C   0  0  2  0  0  3  0  0  0  0  0  0
   -1.2728    2.4007    0.1298 C   0  0  0  0  0  0  0  0  0  0  0  0
   -2.1926    3.3854    0.5493 C   0  0  0  0  0  0  0  0  0  0  0  0
   -3.2496    3.1200    0.6759 H   0  0  0  0  0  0  0  0  0  0  0  0
   -1.7638    4.6820    0.8725 C   0  0  0  0  0  0  0  0  0  0  0  0
   -2.4990    5.4294    1.2064 H   0  0  0  0  0  0  0  0  0  0  0  0
   -0.4004    5.0039    0.8174 C   0  0  0  0  0  0  0  0  0  0  0  0
   -0.0530    6.0069    1.1075 H   0  0  0  0  0  0  0  0  0  0  0  0
    0.5362    4.0299    0.4385 C   0  0  0  0  0  0  0  0  0  0  0  0
    1.6067    4.2671    0.4761 H   0  0  0  0  0  0  0  0  0  0  0  0
    0.1235    2.7313    0.0724 C   0  0  0  0  0  0  0  0  0  0  0  0
    4.5610    0.7936   -0.9242 C   0  0  0  0  0  0  0  0  0  0  0  0
    6.6715   -0.2786   -1.1496 C   0  0  0  0  0  0  0  0  0  0  0  0
    7.1529    0.4895   -0.5060 H   0  0  0  0  0  0  0  0  0  0  0  0
    6.7734    0.0853   -2.1947 H   0  0  0  0  0  0  0  0  0  0  0  0
    7.2909   -1.6495   -0.9616 C   0  0  0  0  0  0  0  0  0  0  0  0
    8.3688   -1.6208   -1.2173 H   0  0  0  0  0  0  0  0  0  0  0  0
    6.8002   -2.3998   -1.6132 H   0  0  0  0  0  0  0  0  0  0  0  0
    7.1946   -1.9905    0.0889 H   0  0  0  0  0  0  0  0  0  0  0  0
    2.6457    2.9581   -1.4397 C   0  0  0  0  0  0  0  0  0  0  0  0
    1.7639    3.5676   -1.7058 H   0  0  0  0  0  0  0  0  0  0  0  0
    3.1705    2.6408   -2.3591 H   0  0  0  0  0  0  0  0  0  0  0  0
    3.3813    3.5858   -0.8998 H   0  0  0  0  0  0  0  0  0  0  0  0
   -3.7207    1.4606   -1.1949 C   0  0  0  0  0  0  0  0  0  0  0  0
   -3.2014    2.3759   -1.5301 H   0  0  0  0  0  0  0  0  0  0  0  0
   -4.6093    1.7464   -0.5995 H   0  0  0  0  0  0  0  0  0  0  0  0
   -4.1142    0.9208   -2.0748 H   0  0  0  0  0  0  0  0  0  0  0  0
   -4.4177   -1.4514   -0.4527 C   0  0  0  0  0  0  0  0  0  0  0  0
   -6.7029   -1.1612   -1.0137 C   0  0  0  0  0  0  0  0  0  0  0  0
   -7.0260   -1.6621   -0.0760 H   0  0  0  0  0  0  0  0  0  0  0  0
   -6.6300   -1.9601   -1.7822 H   0  0  0  0  0  0  0  0  0  0  0  0
   -7.6529   -0.0544   -1.4269 C   0  0  0  0  0  0  0  0  0  0  0  0
   -8.6695   -0.4654   -1.5875 H   0  0  0  0  0  0  0  0  0  0  0  0
   -7.3225    0.4260   -2.3696 H   0  0  0  0  0  0  0  0  0  0  0  0
   -7.7178    0.7292   -0.6454 H   0  0  0  0  0  0  0  0  0  0  0  0
  1 37  2  0  0  0  0
  4 53  1  0  0  0  0
  5 36  1  0  0  0  0
  6 13  1  0  0  0  0
  7 22  1  0  0  0  0
  8 27  1  0  0  0  0
  9 45  1  6  0  0  0
  9 10  1  0  0  0  0
  9  5  1  0  0  0  0
 10 11  2  0  0  0  0
 11 12  1  0  0  0  0
 11  6  1  0  0  0  0
 13 22  2  0  0  0  0
 13 14  1  0  0  0  0
 14 16  2  0  0  0  0
 15 14  1  0  0  0  0
 16 18  1  0  0  0  0
 16 17  1  0  0  0  0
 18 19  1  0  0  0  0
 20 21  1  0  0  0  0
 20 18  2  0  0  0  0
 22 20  1  0  0  0  0
 23 24  1  0  0  0  0
 23  7  1  0  0  0  0
 25 23  2  0  0  0  0
 26 49  1  6  0  0  0
 26 25  1  0  0  0  0
 26  8  1  0  0  0  0
 27 28  1  0  0  0  0
 28 29  1  0  0  0  0
 28 30  2  0  0  0  0
 30 31  1  0  0  0  0
 32 30  1  0  0  0  0
 32 33  1  0  0  0  0
 34 35  1  0  0  0  0
 34 32  2  0  0  0  0
 36 27  2  0  0  0  0
 36 34  1  0  0  0  0
 37  2  1  0  0  0  0
 37 10  1  0  0  0  0
 38 41  1  0  0  0  0
 38  2  1  0  0  0  0
 38 39  1  0  0  0  0
 40 38  1  0  0  0  0
 41 44  1  0  0  0  0
 42 41  1  0  0  0  0
 43 41  1  0  0  0  0
 45 48  1  0  0  0  0
 46 45  1  0  0  0  0
 47 45  1  0  0  0  0
 49 51  1  0  0  0  0
 50 49  1  0  0  0  0
 52 49  1  0  0  0  0
 53  3  2  0  0  0  0
 53 25  1  0  0  0  0
 54  4  1  0  0  0  0
 54 55  1  0  0  0  0
 56 54  1  0  0  0  0
 57 54  1  0  0  0  0
 57 60  1  0  0  0  0
 58 57  1  0  0  0  0
 59 57  1  0  0  0  0
M  END
