1,23,36,47
q = 0.0, confidence = 0.99

 58 61  0  0  1  0  0  0  0  0999 V2000
    1.6002    2.0712    0.0743 N   0  0  0  0  0  2  0  0  0  0  0  0
    1.7045    3.3110   -0.4394 C   0  0  0  0  0  3  0  0  0  0  0  0
    0.7673    3.8903   -0.4861 H   0  0  0  0  0  0  0  0  0  0  0  0
    2.9170    3.8453   -0.8944 C   0  0  0  0  0  0  0  0  0  0  0  0
    2.9473    4.8671   -1.3003 H   0  0  0  0  0  0  0  0  0  0  0  0
    4.0818    3.0622   -0.8080 C   0  0  0  0  0  0  0  0  0  0  0  0
    5.0488    3.4497   -1.1602 H   0  0  0  0  0  0  0  0  0  0  0  0
    3.9824    1.7639   -0.2923 C   0  0  0  0  0  0  0  0  0  0  0  0
    4.8540    1.0967   -0.2442 H   0  0  0  0  0  0  0  0  0  0  0  0
    2.7203    1.2992    0.1223 C   0  0  0  0  0  0  0  0  0  0  0  0
    2.4961   -0.1034    0.5192 C   0  0  2  0  0  3  0  0  0  0  0  0
    3.6478   -0.9062    1.0230 C   0  0  0  0  0  0  0  0  0  0  0  0
    4.1693   -0.6598    2.3100 C   0  0  0  0  0  0  0  0  0  0  0  0
    3.7090    0.1145    2.9426 H   0  0  0  0  0  0  0  0  0  0  0  0
    5.2614   -1.4024    2.7814 C   0  0  0  0  0  0  0  0  0  0  0  0
    5.6572   -1.2119    3.7905 H   0  0  0  0  0  0  0  0  0  0  0  0
    5.8527   -2.3798    1.9645 C   0  0  0  0  0  0  0  0  0  0  0  0
    6.7145   -2.9568    2.3329 H   0  0  0  0  0  0  0  0  0  0  0  0
    5.3496   -2.6126    0.6745 C   0  0  0  0  0  0  0  0  0  0  0  0
    5.8207   -3.3660    0.0253 H   0  0  0  0  0  0  0  0  0  0  0  0
    4.2490   -1.8836    0.2008 C   0  0  0  0  0  0  0  0  0  0  0  0
    3.8681   -2.0330   -0.8228 H   0  0  0  0  0  0  0  0  0  0  0  0
    1.2948   -0.5909    0.3379 N   0  0  0  0  0  2  0  0  0  0  0  0
    0.9759   -1.9788    0.6678 C   0  0  0  0  0  0  0  0  0  0  0  0
    0.0364   -1.9728    1.2548 H   0  0  0  0  0  0  0  0  0  0  0  0
    1.7769   -2.3800    1.3205 H   0  0  0  0  0  0  0  0  0  0  0  0
    0.8194   -2.8904   -0.5813 C   0  0  0  0  0  0  0  0  0  0  0  0
    1.3542   -3.8371   -0.3575 H   0  0  0  0  0  0  0  0  0  0  0  0
    1.3673   -2.4353   -1.4313 H   0  0  0  0  0  0  0  0  0  0  0  0
   -0.6107   -3.2553   -1.0098 C   0  0  0  0  0  0  0  0  0  0  0  0
   -0.5551   -3.9994   -1.8322 H   0  0  0  0  0  0  0  0  0  0  0  0
   -1.1273   -3.7661   -0.1656 H   0  0  0  0  0  0  0  0  0  0  0  0
   -1.4900   -2.0835   -1.4848 C   0  0  0  0  0  0  0  0  0  0  0  0
   -1.0049   -1.6040   -2.3623 H   0  0  0  0  0  0  0  0  0  0  0  0
   -2.4946   -2.4498   -1.7947 H   0  0  0  0  0  0  0  0  0  0  0  0
   -1.5192   -1.0959   -0.4400 N   0  0  0  0  0  2  0  0  0  0  0  0
   -2.5626   -0.7424    0.2482 C   0  0  2  0  0  3  0  0  0  0  0  0
   -2.2535    0.2262    1.3282 C   0  0  1  0  0  3  0  0  0  0  0  0
   -3.0917    0.4570    2.4342 C   0  0  0  0  0  0  0  0  0  0  0  0
   -4.0543   -0.0698    2.4907 H   0  0  0  0  0  0  0  0  0  0  0  0
   -2.6785    1.3385    3.4387 C   0  0  0  0  0  0  0  0  0  0  0  0
   -3.3232    1.5291    4.3095 H   0  0  0  0  0  0  0  0  0  0  0  0
   -1.4342    1.9773    3.3152 C   0  0  0  0  0  0  0  0  0  0  0  0
   -1.0783    2.6944    4.0682 H   0  0  0  0  0  0  0  0  0  0  0  0
   -0.6502    1.7086    2.1864 C   0  0  0  0  0  0  0  0  0  0  0  0
    0.3231    2.1905    1.9995 H   0  0  0  0  0  0  0  0  0  0  0  0
   -1.0535    0.8655    1.2245 N   0  0  0  0  0  2  0  0  0  0  0  0
   -3.9607   -1.2239    0.0651 C   0  0  0  0  0  0  0  0  0  0  0  0
   -4.2761   -2.5944    0.1914 C   0  0  0  0  0  0  0  0  0  0  0  0
   -3.4844   -3.3114    0.4577 H   0  0  0  0  0  0  0  0  0  0  0  0
   -5.5923   -3.0398    0.0019 C   0  0  0  0  0  0  0  0  0  0  0  0
   -5.8285   -4.1094    0.1085 H   0  0  0  0  0  0  0  0  0  0  0  0
   -6.6049   -2.1224   -0.3209 C   0  0  0  0  0  0  0  0  0  0  0  0
   -7.6371   -2.4729   -0.4730 H   0  0  0  0  0  0  0  0  0  0  0  0
   -6.2978   -0.7579   -0.4486 C   0  0  0  0  0  0  0  0  0  0  0  0
   -7.0868   -0.0356   -0.7077 H   0  0  0  0  0  0  0  0  0  0  0  0
   -4.9856   -0.3041   -0.2522 C   0  0  0  0  0  0  0  0  0  0  0  0
   -4.7411    0.7663   -0.3660 H   0  0  0  0  0  0  0  0  0  0  0  0
  1 10  1  0  0  0  0
  2  1  1  0  0  0  0
  3  2  1  0  0  0  0
  4  6  2  0  0  0  0
  4  2  1  0  0  0  0
  5  4  1  0  0  0  0
  6  8  1  0  0  0  0
  7  6  1  0  0  0  0
  8  9  1  0  0  0  0
  8 10  2  0  0  0  0
 10 11  1  0  0  0  0
 11 23  1  6  0  0  0
 11 12  1  0  0  0  0
 12 13  1  0  0  0  0
 13 15  2  0  0  0  0
 13 14  1  0  0  0  0
 15 16  1  0  0  0  0
 17 18  1  0  0  0  0
 17 15  1  0  0  0  0
 19 17  2  0  0  0  0
 20 19  1  0  0  0  0
 21 19  1  0  0  0  0
 21 12  2  0  0  0  0
 22 21  1  0  0  0  0
 23 24  1  0  0  0  0
 24 25  1  0  0  0  0
 24 26  1  0  0  0  0
 27 28  1  0  0  0  0
 27 24  1  0  0  0  0
 29 27  1  0  0  0  0
 30 27  1  0  0  0  0
 30 32  1  0  0  0  0
 31 30  1  0  0  0  0
 33 30  1  0  0  0  0
 33 36  1  0  0  0  0
 34 33  1  0  0  0  0
 35 33  1  0  0  0  0
 37 36  1  1  0  0  0
 38 37  1  1  0  0  0
 38 39  1  0  0  0  0
 39 40  1  0  0  0  0
 39 41  2  0  0  0  0
 41 42  1  0  0  0  0
 43 41  1  0  0  0  0
 43 44  1  0  0  0  0
 45 43  2  0  0  0  0
 46 45  1  0  0  0  0
 47 38  1  0  0  0  0
 47 45  1  0  0  0  0
 48 49  1  0  0  0  0
 48 37  1  0  0  0  0
 49 50  1  0  0  0  0
 51 52  1  0  0  0  0
 51 49  2  0  0  0  0
 53 51  1  0  0  0  0
 54 53  1  0  0  0  0
 55 53  2  0  0  0  0
 55 57  1  0  0  0  0
 56 55  1  0  0  0  0
 57 48  2  0  0  0  0
 58 57  1  0  0  0  0
M  END
