19,20,47,48
q = 0.0, confidence = 0.992

 56 56  0  0  1  0  0  0  0  0999 V2000
   -3.3130   -0.4619    0.0835 C   0  0  0  0  0  0  0  0  0  0  0  0
   -3.2789   -0.7711   -0.9844 H   0  0  0  0  0  0  0  0  0  0  0  0
   -4.3694   -0.5393    0.4088 H   0  0  0  0  0  0  0  0  0  0  0  0
   -2.9220    1.0222    0.1822 C   0  0  0  0  0  0  0  0  0  0  0  0
   -2.4963   -1.4467    0.9131 C   0  0  1  0  0  0  0  0  0  0  0  0
   -2.3381   -1.0461    1.9357 H   0  0  0  0  0  0  0  0  0  0  0  0
   -2.8967    1.5124    1.6364 C   0  0  0  0  0  0  0  0  0  0  0  0
   -2.0121    1.1372    2.1913 H   0  0  0  0  0  0  0  0  0  0  0  0
   -3.8152    1.1719    2.1549 H   0  0  0  0  0  0  0  0  0  0  0  0
   -2.8880    2.6186    1.6911 H   0  0  0  0  0  0  0  0  0  0  0  0
   -3.2420   -2.7869    1.0019 C   0  0  0  0  0  0  0  0  0  0  0  0
   -3.3527   -3.2445   -0.0034 H   0  0  0  0  0  0  0  0  0  0  0  0
   -4.2576   -2.6190    1.4098 H   0  0  0  0  0  0  0  0  0  0  0  0
   -2.7414   -3.5149    1.6676 H   0  0  0  0  0  0  0  0  0  0  0  0
   -3.9622    1.8144   -0.6391 C   0  0  0  0  0  0  0  0  0  0  0  0
   -3.7826    2.9061   -0.6003 H   0  0  0  0  0  0  0  0  0  0  0  0
   -4.9732    1.6374   -0.2230 H   0  0  0  0  0  0  0  0  0  0  0  0
   -3.9655    1.4890   -1.6993 H   0  0  0  0  0  0  0  0  0  0  0  0
   -1.5679    1.1845   -0.4618 N   0  0  0  0  0  0  0  0  0  0  0  0
   -1.1384   -1.6102    0.3255 N   0  0  0  0  0  0  0  0  0  0  0  0
   -1.0635    2.5736   -0.4483 C   0  0  0  0  0  0  0  0  0  0  0  0
   -0.9816    2.9095    0.6042 H   0  0  0  0  0  0  0  0  0  0  0  0
   -1.7444    3.2617   -0.9907 H   0  0  0  0  0  0  0  0  0  0  0  0
   -0.3007   -2.5627    1.0889 C   0  0  0  0  0  0  0  0  0  0  0  0
   -0.7359   -3.5830    1.0840 H   0  0  0  0  0  0  0  0  0  0  0  0
   -0.2454   -2.1971    2.1362 H   0  0  0  0  0  0  0  0  0  0  0  0
   -1.2247   -1.9580   -0.6657 H   0  0  0  0  0  0  0  0  0  0  0  0
   -1.7024    0.8825   -1.4648 H   0  0  0  0  0  0  0  0  0  0  0  0
    3.3134    0.4617   -0.0839 C   0  0  0  0  0  0  0  0  0  0  0  0
    3.2797    0.7710    0.9840 H   0  0  0  0  0  0  0  0  0  0  0  0
    4.3696    0.5390   -0.4096 H   0  0  0  0  0  0  0  0  0  0  0  0
    2.9222   -1.0223   -0.1824 C   0  0  0  0  0  0  0  0  0  0  0  0
    2.4965    1.4466   -0.9132 C   0  0  2  0  0  0  0  0  0  0  0  0
    2.3381    1.0462   -1.9359 H   0  0  0  0  0  0  0  0  0  0  0  0
    2.8966   -1.5126   -1.6366 C   0  0  0  0  0  0  0  0  0  0  0  0
    2.0120   -1.1375   -2.1913 H   0  0  0  0  0  0  0  0  0  0  0  0
    3.8151   -1.1723   -2.1553 H   0  0  0  0  0  0  0  0  0  0  0  0
    2.8879   -2.6189   -1.6911 H   0  0  0  0  0  0  0  0  0  0  0  0
    3.2423    2.7868   -1.0021 C   0  0  0  0  0  0  0  0  0  0  0  0
    3.3531    3.2444    0.0033 H   0  0  0  0  0  0  0  0  0  0  0  0
    4.2578    2.6189   -1.4100 H   0  0  0  0  0  0  0  0  0  0  0  0
    2.7417    3.5149   -1.6676 H   0  0  0  0  0  0  0  0  0  0  0  0
    3.9625   -1.8145    0.6388 C   0  0  0  0  0  0  0  0  0  0  0  0
    3.7828   -2.9063    0.6000 H   0  0  0  0  0  0  0  0  0  0  0  0
    4.9735   -1.6375    0.2226 H   0  0  0  0  0  0  0  0  0  0  0  0
    3.9658   -1.4892    1.6989 H   0  0  0  0  0  0  0  0  0  0  0  0
    1.5683   -1.1844    0.4617 N   0  0  0  0  0  0  0  0  0  0  0  0
    1.1387    1.6101   -0.3254 N   0  0  0  0  0  0  0  0  0  0  0  0
    1.0638   -2.5735    0.4489 C   0  0  0  0  0  0  0  0  0  0  0  0
    0.9820   -2.9099   -0.6034 H   0  0  0  0  0  0  0  0  0  0  0  0
    1.7448   -3.2614    0.9916 H   0  0  0  0  0  0  0  0  0  0  0  0
    0.3010    2.5630   -1.0884 C   0  0  0  0  0  0  0  0  0  0  0  0
    0.7362    3.5833   -1.0831 H   0  0  0  0  0  0  0  0  0  0  0  0
    0.2456    2.1978   -2.1358 H   0  0  0  0  0  0  0  0  0  0  0  0
    1.2251    1.9577    0.6659 H   0  0  0  0  0  0  0  0  0  0  0  0
    1.7027   -0.8820    1.4647 H   0  0  0  0  0  0  0  0  0  0  0  0
  1  4  1  0  0  0  0
  1  3  1  0  0  0  0
  1  5  1  0  0  0  0
  2  1  1  0  0  0  0
  4  7  1  0  0  0  0
  5 11  1  0  0  0  0
  5  6  1  1  0  0  0
  7 10  1  0  0  0  0
  7  9  1  0  0  0  0
  7  8  1  0  0  0  0
 11 13  1  0  0  0  0
 11 14  1  0  0  0  0
 12 11  1  0  0  0  0
 15 16  1  0  0  0  0
 15 17  1  0  0  0  0
 15  4  1  0  0  0  0
 18 15  1  0  0  0  0
 19 21  1  0  0  0  0
 19  4  1  0  0  0  0
 20  5  1  0  0  0  0
 20 24  1  0  0  0  0
 21 22  1  0  0  0  0
 23 21  1  0  0  0  0
 24 26  1  0  0  0  0
 25 24  1  0  0  0  0
 27 20  1  0  0  0  0
 28 19  1  0  0  0  0
 29 30  1  0  0  0  0
 31 29  1  0  0  0  0
 32 29  1  0  0  0  0
 32 47  1  0  0  0  0
 32 43  1  0  0  0  0
 33 34  1  6  0  0  0
 33 48  1  0  0  0  0
 33 29  1  0  0  0  0
 35 32  1  0  0  0  0
 36 35  1  0  0  0  0
 37 35  1  0  0  0  0
 38 35  1  0  0  0  0
 39 33  1  0  0  0  0
 39 40  1  0  0  0  0
 41 39  1  0  0  0  0
 42 39  1  0  0  0  0
 43 46  1  0  0  0  0
 44 43  1  0  0  0  0
 45 43  1  0  0  0  0
 47 56  1  0  0  0  0
 48 55  1  0  0  0  0
 49 47  1  0  0  0  0
 49 51  1  0  0  0  0
 49 24  1  0  0  0  0
 50 49  1  0  0  0  0
 52 53  1  0  0  0  0
 52 21  1  0  0  0  0
 52 48  1  0  0  0  0
 54 52  1  0  0  0  0
M  END
