57,58,59,60
q = -2.0, confidence = 0.94

 60 65  0  0  1  0  0  0  0  0999 V2000
    1.8336    3.4294    0.5421 C   0  0  0  0  0  0  0  0  0  0  0  0
    0.9333    4.0418    0.3863 H   0  0  0  0  0  0  0  0  0  0  0  0
    3.0788    4.0269    0.8403 C   0  0  0  0  0  0  0  0  0  0  0  0
    3.1452    5.1218    0.9127 H   0  0  0  0  0  0  0  0  0  0  0  0
    4.1936    3.2219    1.0327 C   0  0  0  0  0  0  0  0  0  0  0  0
    5.1756    3.6659    1.2588 H   0  0  0  0  0  0  0  0  0  0  0  0
    4.0785    1.8052    0.9355 C   0  0  0  0  0  0  0  0  0  0  0  0
    5.1641    0.8994    1.0847 C   0  0  0  0  0  0  0  0  0  0  0  0
    6.1689    1.2913    1.2975 H   0  0  0  0  0  0  0  0  0  0  0  0
    4.9383   -0.4698    0.9314 C   0  0  0  0  0  0  0  0  0  0  0  0
    5.7859   -1.1668    1.0242 H   0  0  0  0  0  0  0  0  0  0  0  0
    3.6623   -1.0018    0.6550 C   0  0  0  0  0  0  0  0  0  0  0  0
    3.5336   -2.0849    0.5257 H   0  0  0  0  0  0  0  0  0  0  0  0
    2.5436   -0.1451    0.5405 C   0  0  0  0  0  0  0  0  0  0  0  0
    2.7732    1.2811    0.6466 C   0  0  2  0  0  3  0  0  0  0  0  0
    0.7839   -1.8186   -0.0572 C   0  0  2  0  0  0  0  0  0  0  0  0
    1.1652   -2.5834    0.6573 H   0  0  0  0  0  0  0  0  0  0  0  0
    1.2444   -2.2296   -1.4531 C   0  0  0  0  0  0  0  0  0  0  0  0
    1.2373   -1.3186   -2.5272 C   0  0  0  0  0  0  0  0  0  0  0  0
    0.9290   -0.2775   -2.3431 H   0  0  0  0  0  0  0  0  0  0  0  0
    1.6227   -1.7308   -3.8109 C   0  0  0  0  0  0  0  0  0  0  0  0
    1.6114   -1.0079   -4.6413 H   0  0  0  0  0  0  0  0  0  0  0  0
    2.0250   -3.0570   -4.0397 C   0  0  0  0  0  0  0  0  0  0  0  0
    2.3322   -3.3768   -5.0472 H   0  0  0  0  0  0  0  0  0  0  0  0
    2.0409   -3.9702   -2.9741 C   0  0  0  0  0  0  0  0  0  0  0  0
    2.3636   -5.0094   -3.1410 H   0  0  0  0  0  0  0  0  0  0  0  0
    1.6533   -3.5557   -1.6905 C   0  0  0  0  0  0  0  0  0  0  0  0
    1.6704   -4.2725   -0.8528 H   0  0  0  0  0  0  0  0  0  0  0  0
   -0.7838   -1.8186    0.0572 C   0  0  1  0  0  0  0  0  0  0  0  0
   -1.1652   -2.5834   -0.6573 H   0  0  0  0  0  0  0  0  0  0  0  0
   -1.2444   -2.2296    1.4531 C   0  0  0  0  0  0  0  0  0  0  0  0
   -1.6531   -3.5557    1.6906 C   0  0  0  0  0  0  0  0  0  0  0  0
   -1.6702   -4.2726    0.8529 H   0  0  0  0  0  0  0  0  0  0  0  0
   -2.0407   -3.9702    2.9742 C   0  0  0  0  0  0  0  0  0  0  0  0
   -2.3633   -5.0095    3.1411 H   0  0  0  0  0  0  0  0  0  0  0  0
   -2.0250   -3.0570    4.0397 C   0  0  0  0  0  0  0  0  0  0  0  0
   -2.3321   -3.3768    5.0472 H   0  0  0  0  0  0  0  0  0  0  0  0
   -1.6227   -1.7308    3.8109 C   0  0  0  0  0  0  0  0  0  0  0  0
   -1.6116   -1.0079    4.6412 H   0  0  0  0  0  0  0  0  0  0  0  0
   -1.2373   -1.3185    2.5272 C   0  0  0  0  0  0  0  0  0  0  0  0
   -0.9292   -0.2775    2.3430 H   0  0  0  0  0  0  0  0  0  0  0  0
   -2.5435   -0.1452   -0.5406 C   0  0  0  0  0  0  0  0  0  0  0  0
   -3.6623   -1.0019   -0.6550 C   0  0  0  0  0  0  0  0  0  0  0  0
   -3.5335   -2.0849   -0.5258 H   0  0  0  0  0  0  0  0  0  0  0  0
   -4.9383   -0.4699   -0.9315 C   0  0  0  0  0  0  0  0  0  0  0  0
   -5.7859   -1.1669   -1.0243 H   0  0  0  0  0  0  0  0  0  0  0  0
   -5.1641    0.8993   -1.0848 C   0  0  0  0  0  3  0  0  0  0  0  0
   -6.1689    1.2912   -1.2976 H   0  0  0  0  0  0  0  0  0  0  0  0
   -4.0786    1.8051   -0.9355 C   0  0  0  0  0  0  0  0  0  0  0  0
   -4.1937    3.2218   -1.0328 C   0  0  0  0  0  0  0  0  0  0  0  0
   -5.1756    3.6657   -1.2588 H   0  0  0  0  0  0  0  0  0  0  0  0
   -3.0789    4.0269   -0.8404 C   0  0  0  0  0  0  0  0  0  0  0  0
   -3.1453    5.1218   -0.9127 H   0  0  0  0  0  0  0  0  0  0  0  0
   -1.8337    3.4293   -0.5421 C   0  0  0  0  0  0  0  0  0  0  0  0
   -0.9334    4.0418   -0.3863 H   0  0  0  0  0  0  0  0  0  0  0  0
   -2.7732    1.2810   -0.6466 C   0  0  0  0  0  0  0  0  0  0  0  0
    1.6847    2.1034    0.4416 N   0  0  0  0  0  2  0  0  0  0  0  0
    1.2492   -0.4963    0.3477 N   0  0  0  0  0  2  0  0  0  0  0  0
   -1.2492   -0.4964   -0.3477 N   0  0  0  0  0  2  0  0  0  0  0  0
   -1.6847    2.1034   -0.4416 N   0  0  0  0  0  2  0  0  0  0  0  0
  1  3  2  0  0  0  0
  2  1  1  0  0  0  0
  3  4  1  0  0  0  0
  3  5  1  0  0  0  0
  5  6  1  0  0  0  0
  7  5  2  0  0  0  0
  7  8  1  0  0  0  0
  8  9  1  0  0  0  0
 10 11  1  0  0  0  0
 10  8  2  0  0  0  0
 12 10  1  0  0  0  0
 13 12  1  0  0  0  0
 14 15  1  0  0  0  0
 14 12  2  0  0  0  0
 15 57  1  6  0  0  0
 15  7  1  0  0  0  0
 16 29  1  0  0  0  0
 16 58  1  0  0  0  0
 16 17  1  1  0  0  0
 18 16  1  0  0  0  0
 19 20  1  0  0  0  0
 19 18  2  0  0  0  0
 21 19  1  0  0  0  0
 22 21  1  0  0  0  0
 23 21  2  0  0  0  0
 23 25  1  0  0  0  0
 24 23  1  0  0  0  0
 25 27  2  0  0  0  0
 26 25  1  0  0  0  0
 27 18  1  0  0  0  0
 27 28  1  0  0  0  0
 29 30  1  6  0  0  0
 29 31  1  0  0  0  0
 31 32  2  0  0  0  0
 31 40  1  0  0  0  0
 32 34  1  0  0  0  0
 33 32  1  0  0  0  0
 34 35  1  0  0  0  0
 34 36  2  0  0  0  0
 36 37  1  0  0  0  0
 38 36  1  0  0  0  0
 38 39  1  0  0  0  0
 40 38  2  0  0  0  0
 41 40  1  0  0  0  0
 42 59  1  0  0  0  0
 43 42  1  0  0  0  0
 43 44  1  0  0  0  0
 45 43  2  0  0  0  0
 46 45  1  0  0  0  0
 47 49  1  0  0  0  0
 47 45  1  0  0  0  0
 48 47  1  0  0  0  0
 49 56  1  0  0  0  0
 50 49  2  0  0  0  0
 50 52  1  0  0  0  0
 51 50  1  0  0  0  0
 52 54  2  0  0  0  0
 53 52  1  0  0  0  0
 54 60  1  0  0  0  0
 54 55  1  0  0  0  0
 56 42  2  0  0  0  0
 56 60  1  0  0  0  0
 57  1  1  0  0  0  0
 58 14  1  0  0  0  0
 59 29  1  0  0  0  0
M  END
