3,4,5,6
q = -2.0, confidence = 0.862

 77 80  0  0  1  0  0  0  0  0999 V2000
   -0.4092   -4.7777   -1.3008 O   0  0  0  0  0  0  0  0  0  0  0  0
    0.3133    4.3282   -2.0270 O   0  0  0  0  0  0  0  0  0  0  0  0
   -2.3471    1.3694   -0.3056 N   0  0  0  0  0  2  0  0  0  0  0  0
   -2.4883   -1.1421   -0.1401 N   0  0  0  0  0  2  0  0  0  0  0  0
   -0.7595   -1.2194    1.8947 N   0  0  0  0  0  2  0  0  0  0  0  0
   -0.6975    1.5503    1.7668 N   0  0  0  0  0  2  0  0  0  0  0  0
   -3.5982    0.8656   -0.7094 C   0  0  0  0  0  0  0  0  0  0  0  0
   -4.7237    1.6077   -1.1045 C   0  0  0  0  0  0  0  0  0  0  0  0
   -4.6697    2.7037   -1.1485 H   0  0  0  0  0  0  0  0  0  0  0  0
   -5.9293    0.9444   -1.3942 C   0  0  0  0  0  0  0  0  0  0  0  0
   -6.8140    1.5308   -1.6839 H   0  0  0  0  0  0  0  0  0  0  0  0
   -6.0156   -0.4514   -1.2822 C   0  0  0  0  0  0  0  0  0  0  0  0
   -6.9685   -0.9633   -1.4827 H   0  0  0  0  0  0  0  0  0  0  0  0
   -4.8967   -1.2042   -0.8840 C   0  0  0  0  0  0  0  0  0  0  0  0
   -4.9785   -2.2919   -0.7572 H   0  0  0  0  0  0  0  0  0  0  0  0
   -3.6827   -0.5542   -0.6039 C   0  0  0  0  0  0  0  0  0  0  0  0
   -1.9479   -2.2839   -0.5889 C   0  0  1  0  0  3  0  0  0  0  0  0
   -2.5436   -2.9783   -1.7884 C   0  0  0  0  0  0  0  0  0  0  0  0
   -3.1875   -3.8270   -1.4805 H   0  0  0  0  0  0  0  0  0  0  0  0
   -1.7477   -3.4330   -2.4031 H   0  0  0  0  0  0  0  0  0  0  0  0
   -3.1465   -2.2782   -2.3946 H   0  0  0  0  0  0  0  0  0  0  0  0
   -0.7704   -2.8004    0.0366 C   0  0  0  0  0  0  0  0  0  0  0  0
    0.0512   -3.8275   -0.6539 C   0  0  0  0  0  0  0  0  0  0  0  0
    1.5480   -3.6168   -0.6346 C   0  0  0  0  0  0  0  0  0  0  0  0
    2.3921   -4.7171   -0.8956 C   0  0  0  0  0  0  0  0  0  0  0  0
    1.9222   -5.6981   -1.0628 H   0  0  0  0  0  0  0  0  0  0  0  0
    3.7784   -4.5550   -0.9491 C   0  0  0  0  0  0  0  0  0  0  0  0
    4.4231   -5.4284   -1.1395 H   0  0  0  0  0  0  0  0  0  0  0  0
    5.8678   -3.1161   -0.8524 C   0  0  0  0  0  0  0  0  0  0  0  0
    6.1691   -2.0585   -0.7236 H   0  0  0  0  0  0  0  0  0  0  0  0
    6.2631   -3.4663   -1.8288 H   0  0  0  0  0  0  0  0  0  0  0  0
    6.3794   -3.7146   -0.0694 H   0  0  0  0  0  0  0  0  0  0  0  0
    4.3718   -3.2830   -0.7770 C   0  0  0  0  0  0  0  0  0  0  0  0
    3.5223   -2.1828   -0.5485 C   0  0  0  0  0  0  0  0  0  0  0  0
    3.9575   -1.1756   -0.4509 H   0  0  0  0  0  0  0  0  0  0  0  0
    2.1317   -2.3440   -0.4685 C   0  0  0  0  0  0  0  0  0  0  0  0
    1.4879   -1.4655   -0.3087 H   0  0  0  0  0  0  0  0  0  0  0  0
   -0.3729   -2.3723    1.3551 C   0  0  0  0  0  0  0  0  0  0  0  0
    0.4038   -3.3428    2.2206 C   0  0  0  0  0  0  0  0  0  0  0  0
    1.3190   -2.8786    2.6413 H   0  0  0  0  0  0  0  0  0  0  0  0
    0.6961   -4.2505    1.6690 H   0  0  0  0  0  0  0  0  0  0  0  0
   -0.2235   -3.6622    3.0802 H   0  0  0  0  0  0  0  0  0  0  0  0
   -0.5631   -1.0039    3.3263 C   0  0  0  0  0  0  0  0  0  0  0  0
    0.5251   -0.9482    3.5684 H   0  0  0  0  0  0  0  0  0  0  0  0
   -0.9613   -1.8711    3.8987 H   0  0  0  0  0  0  0  0  0  0  0  0
   -1.2459    0.2686    3.8072 C   0  0  0  0  0  0  0  0  0  0  0  0
   -2.3279    0.2323    3.5565 H   0  0  0  0  0  0  0  0  0  0  0  0
   -1.1703    0.3176    4.9133 H   0  0  0  0  0  0  0  0  0  0  0  0
   -0.6106    1.5213    3.2244 C   0  0  0  0  0  0  0  0  0  0  0  0
   -1.1005    2.4246    3.6536 H   0  0  0  0  0  0  0  0  0  0  0  0
    0.4564    1.5656    3.5465 H   0  0  0  0  0  0  0  0  0  0  0  0
   -0.2011    2.5908    1.1105 C   0  0  2  0  0  3  0  0  0  0  0  0
    0.5257    3.6635    1.8943 C   0  0  0  0  0  0  0  0  0  0  0  0
   -0.1765    4.1278    2.6200 H   0  0  0  0  0  0  0  0  0  0  0  0
    0.9087    4.4636    1.2406 H   0  0  0  0  0  0  0  0  0  0  0  0
    1.3730    3.2523    2.4796 H   0  0  0  0  0  0  0  0  0  0  0  0
   -0.4456    2.8208   -0.2973 C   0  0  0  0  0  0  0  0  0  0  0  0
    0.5638    3.5634   -1.0826 C   0  0  0  0  0  0  0  0  0  0  0  0
    2.0175    3.2779   -0.7624 C   0  0  0  0  0  0  0  0  0  0  0  0
    2.9870    4.2186   -1.1704 C   0  0  0  0  0  0  0  0  0  0  0  0
    2.6349    5.1280   -1.6803 H   0  0  0  0  0  0  0  0  0  0  0  0
    4.3466    3.9914   -0.9428 C   0  0  0  0  0  0  0  0  0  0  0  0
    5.0860    4.7441   -1.2611 H   0  0  0  0  0  0  0  0  0  0  0  0
    6.2619    2.5716   -0.0688 C   0  0  0  0  0  0  0  0  0  0  0  0
    6.8560    2.7183   -0.9943 H   0  0  0  0  0  0  0  0  0  0  0  0
    6.4565    1.5476    0.3049 H   0  0  0  0  0  0  0  0  0  0  0  0
    6.6612    3.2860    0.6823 H   0  0  0  0  0  0  0  0  0  0  0  0
    4.7937    2.8060   -0.3163 C   0  0  0  0  0  0  0  0  0  0  0  0
    3.8247    1.8568    0.0640 C   0  0  0  0  0  0  0  0  0  0  0  0
    4.1490    0.9170    0.5397 H   0  0  0  0  0  0  0  0  0  0  0  0
    2.4581    2.0831   -0.1557 C   0  0  0  0  0  0  0  0  0  0  0  0
    1.7280    1.3114    0.1319 H   0  0  0  0  0  0  0  0  0  0  0  0
   -1.6580    2.3528   -0.8999 C   0  0  0  0  0  0  0  0  0  0  0  0
   -2.1341    2.9203   -2.2116 C   0  0  0  0  0  0  0  0  0  0  0  0
   -2.8028    2.2125   -2.7345 H   0  0  0  0  0  0  0  0  0  0  0  0
   -1.2679    3.1918   -2.8405 H   0  0  0  0  0  0  0  0  0  0  0  0
   -2.6802    3.8737   -2.0559 H   0  0  0  0  0  0  0  0  0  0  0  0
  1 23  2  0  0  0  0
  2 58  2  0  0  0  0
  5 43  1  0  0  0  0
  6 49  1  0  0  0  0
  7 16  1  0  0  0  0
  7  3  1  0  0  0  0
  8  7  2  0  0  0  0
  9  8  1  0  0  0  0
 10 12  2  0  0  0  0
 10  8  1  0  0  0  0
 11 10  1  0  0  0  0
 12 14  1  0  0  0  0
 13 12  1  0  0  0  0
 14 15  1  0  0  0  0
 14 16  2  0  0  0  0
 16  4  1  0  0  0  0
 17 18  1  6  0  0  0
 17  4  1  0  0  0  0
 17 22  1  0  0  0  0
 18 19  1  0  0  0  0
 20 18  1  0  0  0  0
 21 18  1  0  0  0  0
 22 38  2  0  0  0  0
 23 24  1  0  0  0  0
 23 22  1  0  0  0  0
 24 36  1  0  0  0  0
 25 24  2  0  0  0  0
 26 25  1  0  0  0  0
 27 25  1  0  0  0  0
 27 33  2  0  0  0  0
 28 27  1  0  0  0  0
 29 33  1  0  0  0  0
 29 30  1  0  0  0  0
 29 32  1  0  0  0  0
 31 29  1  0  0  0  0
 33 34  1  0  0  0  0
 34 36  2  0  0  0  0
 34 35  1  0  0  0  0
 36 37  1  0  0  0  0
 38  5  1  0  0  0  0
 38 39  1  0  0  0  0
 39 40  1  0  0  0  0
 39 42  1  0  0  0  0
 41 39  1  0  0  0  0
 43 44  1  0  0  0  0
 43 46  1  0  0  0  0
 43 45  1  0  0  0  0
 46 48  1  0  0  0  0
 47 46  1  0  0  0  0
 49 51  1  0  0  0  0
 49 50  1  0  0  0  0
 49 46  1  0  0  0  0
 52  6  1  0  0  0  0
 52 53  1  1  0  0  0
 53 56  1  0  0  0  0
 53 54  1  0  0  0  0
 55 53  1  0  0  0  0
 57 52  1  0  0  0  0
 58 59  1  0  0  0  0
 58 57  1  0  0  0  0
 59 71  1  0  0  0  0
 60 62  1  0  0  0  0
 60 59  2  0  0  0  0
 61 60  1  0  0  0  0
 62 68  2  0  0  0  0
 63 62  1  0  0  0  0
 64 66  1  0  0  0  0
 64 67  1  0  0  0  0
 65 64  1  0  0  0  0
 68 64  1  0  0  0  0
 68 69  1  0  0  0  0
 69 70  1  0  0  0  0
 71 69  2  0  0  0  0
 71 72  1  0  0  0  0
 73  3  1  0  0  0  0
 73 57  2  0  0  0  0
 74 77  1  0  0  0  0
 74 73  1  0  0  0  0
 75 74  1  0  0  0  0
 76 74  1  0  0  0  0
M  END
