4,5,6,7
q = -2.0, confidence = 0.916

 77 82  0  0  0  0  0  0  0  0999 V2000
    3.5212    5.1569   -0.7509 O   0  0  0  0  0  0  0  0  0  0  0  0
    5.6129   -0.5312    2.7312 O   0  0  0  0  0  0  0  0  0  0  0  0
    4.0406   -1.9854    3.4757 O   0  0  0  0  0  0  0  0  0  0  0  0
   -1.1385   -1.8707   -0.5227 N   0  0  0  0  0  2  0  0  0  0  0  0
   -2.3736    0.6942    0.0280 N   0  0  0  0  0  0  0  0  0  0  0  0
    0.0847    1.9835   -0.3999 N   0  0  0  0  0  0  0  0  0  0  0  0
    1.4224   -0.5240   -0.9705 N   0  0  0  0  0  0  0  0  0  0  0  0
   -0.3859   -2.9708   -0.8415 C   0  0  0  0  0  0  0  0  0  0  0  0
   -1.1984   -4.1764   -0.7520 C   0  0  0  0  0  0  0  0  0  0  0  0
   -0.6978   -5.5600   -1.0189 C   0  0  0  0  0  0  0  0  0  0  0  0
   -1.5126   -6.3057   -0.9476 H   0  0  0  0  0  0  0  0  0  0  0  0
    0.0896   -5.8587   -0.2944 H   0  0  0  0  0  0  0  0  0  0  0  0
   -0.2511   -5.6483   -2.0318 H   0  0  0  0  0  0  0  0  0  0  0  0
   -2.4674   -3.7724   -0.3782 C   0  0  0  0  0  0  0  0  0  0  0  0
   -3.6706   -4.6223   -0.0941 C   0  0  0  0  0  0  0  0  0  0  0  0
   -4.5811   -4.1281   -0.4964 H   0  0  0  0  0  0  0  0  0  0  0  0
   -3.5812   -5.5788   -0.6503 H   0  0  0  0  0  0  0  0  0  0  0  0
   -3.8668   -4.9181    1.4028 C   0  0  0  0  0  0  0  0  0  0  0  0
   -4.7671   -5.5423    1.5753 H   0  0  0  0  0  0  0  0  0  0  0  0
   -3.9819   -3.9808    1.9839 H   0  0  0  0  0  0  0  0  0  0  0  0
   -2.9904   -5.4557    1.8175 H   0  0  0  0  0  0  0  0  0  0  0  0
   -2.4176   -2.3224   -0.2392 C   0  0  0  0  0  0  0  0  0  0  0  0
   -3.4919   -1.5067    0.0996 C   0  0  0  0  0  0  0  0  0  0  0  0
   -4.4538   -2.0043    0.2849 H   0  0  0  0  0  0  0  0  0  0  0  0
   -3.4773   -0.1109    0.2194 C   0  0  0  0  0  0  0  0  0  0  0  0
   -4.6326    0.6996    0.5632 C   0  0  0  0  0  0  0  0  0  0  0  0
   -5.9961    0.1567    0.8527 C   0  0  0  0  0  0  0  0  0  0  0  0
   -6.7237    0.9702    1.0365 H   0  0  0  0  0  0  0  0  0  0  0  0
   -5.9963   -0.4966    1.7512 H   0  0  0  0  0  0  0  0  0  0  0  0
   -6.3841   -0.4550    0.0111 H   0  0  0  0  0  0  0  0  0  0  0  0
   -4.2095    2.0170    0.5674 C   0  0  0  0  0  0  0  0  0  0  0  0
   -5.0018    3.2438    0.9140 C   0  0  0  0  0  0  0  0  0  0  0  0
   -6.0751    3.0542    0.7031 H   0  0  0  0  0  0  0  0  0  0  0  0
   -4.7118    4.0807    0.2430 H   0  0  0  0  0  0  0  0  0  0  0  0
   -4.8396    3.6801    2.3802 C   0  0  0  0  0  0  0  0  0  0  0  0
   -5.4358    4.5894    2.5982 H   0  0  0  0  0  0  0  0  0  0  0  0
   -3.7790    3.8999    2.6177 H   0  0  0  0  0  0  0  0  0  0  0  0
   -5.1705    2.8778    3.0700 H   0  0  0  0  0  0  0  0  0  0  0  0
   -2.7931    2.0054    0.2374 C   0  0  0  0  0  0  0  0  0  0  0  0
   -1.9925    3.1487    0.1513 C   0  0  0  0  0  0  0  0  0  0  0  0
   -2.4774    4.1169    0.3388 H   0  0  0  0  0  0  0  0  0  0  0  0
   -0.6283    3.1585   -0.1428 C   0  0  0  0  0  3  0  0  0  0  0  0
    0.2636    4.3094   -0.2120 C   0  0  0  0  0  0  0  0  0  0  0  0
   -0.1115    5.7387    0.0053 C   0  0  0  0  0  0  0  0  0  0  0  0
    0.7802    6.3844   -0.0982 H   0  0  0  0  0  0  0  0  0  0  0  0
   -0.5435    5.9011    1.0155 H   0  0  0  0  0  0  0  0  0  0  0  0
   -0.8735    6.0788   -0.7277 H   0  0  0  0  0  0  0  0  0  0  0  0
    1.5206    3.7760   -0.5103 C   0  0  0  0  0  0  0  0  0  0  0  0
    2.9442    4.0796   -0.7421 C   0  0  0  0  0  0  0  0  0  0  0  0
    3.6446    2.6906   -0.9850 C   0  0  0  0  0  0  0  0  0  0  0  0
    4.4416    2.5571   -0.2222 H   0  0  0  0  0  0  0  0  0  0  0  0
    4.1575    2.7083   -1.9707 H   0  0  0  0  0  0  0  0  0  0  0  0
    1.3524    2.3639   -0.6151 C   0  0  0  0  0  0  0  0  0  0  0  0
    2.5324    1.6561   -0.8964 C   0  0  0  0  0  0  0  0  0  0  0  0
    2.5526    0.2848   -1.0498 C   0  0  0  0  0  0  0  0  0  0  0  0
    3.8004   -0.5489   -1.2502 C   0  0  0  0  0  0  0  0  0  0  0  0
    4.4602   -0.0785   -2.0083 H   0  0  0  0  0  0  0  0  0  0  0  0
    4.6097   -0.6828    0.0581 C   0  0  0  0  0  0  0  0  0  0  0  0
    5.4890   -1.3340   -0.1363 H   0  0  0  0  0  0  0  0  0  0  0  0
    5.0263    0.3046    0.3432 H   0  0  0  0  0  0  0  0  0  0  0  0
    3.8158   -1.2283    1.2440 C   0  0  0  0  0  0  0  0  0  0  0  0
    3.4490   -2.2624    1.0822 H   0  0  0  0  0  0  0  0  0  0  0  0
    2.8984   -0.6206    1.4133 H   0  0  0  0  0  0  0  0  0  0  0  0
    4.6096   -1.1914    2.5334 C   0  0  0  0  0  0  0  0  0  0  0  0
    4.6848   -1.9727    4.7548 C   0  0  0  0  0  0  0  0  0  0  0  0
    4.1039   -2.6570    5.3985 H   0  0  0  0  0  0  0  0  0  0  0  0
    4.6916   -0.9506    5.1852 H   0  0  0  0  0  0  0  0  0  0  0  0
    5.7356   -2.3173    4.6729 H   0  0  0  0  0  0  0  0  0  0  0  0
    3.2165   -1.8796   -1.7686 C   0  0  0  0  0  0  0  0  0  0  0  0
    3.7376   -2.7523   -1.3211 H   0  0  0  0  0  0  0  0  0  0  0  0
    3.2677   -1.9980   -3.3000 C   0  0  0  0  0  0  0  0  0  0  0  0
    2.7635   -2.9214   -3.6480 H   0  0  0  0  0  0  0  0  0  0  0  0
    4.3177   -2.0201   -3.6567 H   0  0  0  0  0  0  0  0  0  0  0  0
    2.7583   -1.1351   -3.7755 H   0  0  0  0  0  0  0  0  0  0  0  0
    1.7802   -1.8128   -1.2772 C   0  0  0  0  0  0  0  0  0  0  0  0
    0.9671   -2.9331   -1.2118 C   0  0  0  0  0  0  0  0  0  0  0  0
    1.4344   -3.8917   -1.4793 H   0  0  0  0  0  0  0  0  0  0  0  0
  1 49  2  0  0  0  0
  3 65  1  0  0  0  0
  4 22  1  0  0  0  0
  5 25  2  0  0  0  0
  5 39  1  0  0  0  0
  6 42  1  0  0  0  0
  8  9  1  0  0  0  0
  8  4  1  0  0  0  0
  9 14  2  0  0  0  0
 10 11  1  0  0  0  0
 10  9  1  0  0  0  0
 10 12  1  0  0  0  0
 13 10  1  0  0  0  0
 14 22  1  0  0  0  0
 14 15  1  0  0  0  0
 15 18  1  0  0  0  0
 16 15  1  0  0  0  0
 17 15  1  0  0  0  0
 18 19  1  0  0  0  0
 18 21  1  0  0  0  0
 18 20  1  0  0  0  0
 22 23  2  0  0  0  0
 23 25  1  0  0  0  0
 23 24  1  0  0  0  0
 25 26  1  0  0  0  0
 26 31  2  0  0  0  0
 26 27  1  0  0  0  0
 27 28  1  0  0  0  0
 27 29  1  0  0  0  0
 30 27  1  0  0  0  0
 31 32  1  0  0  0  0
 32 35  1  0  0  0  0
 33 32  1  0  0  0  0
 34 32  1  0  0  0  0
 35 36  1  0  0  0  0
 35 37  1  0  0  0  0
 35 38  1  0  0  0  0
 39 31  1  0  0  0  0
 40 39  2  0  0  0  0
 40 41  1  0  0  0  0
 42 40  1  0  0  0  0
 43 42  1  0  0  0  0
 43 44  1  0  0  0  0
 44 46  1  0  0  0  0
 45 44  1  0  0  0  0
 47 44  1  0  0  0  0
 48 43  2  0  0  0  0
 49 48  1  0  0  0  0
 50 54  1  0  0  0  0
 50 49  1  0  0  0  0
 50 51  1  0  0  0  0
 52 50  1  0  0  0  0
 53 48  1  0  0  0  0
 53  6  2  0  0  0  0
 54 53  1  0  0  0  0
 55  7  1  0  0  0  0
 55 54  2  0  0  0  0
 56 55  1  0  0  0  0
 56 58  1  0  0  0  0
 57 56  1  0  0  0  0
 58 60  1  0  0  0  0
 58 61  1  0  0  0  0
 59 58  1  0  0  0  0
 61 63  1  0  0  0  0
 61 64  1  0  0  0  0
 62 61  1  0  0  0  0
 64  2  2  0  0  0  0
 64  3  1  0  0  0  0
 65 67  1  0  0  0  0
 65 66  1  0  0  0  0
 68 65  1  0  0  0  0
 69 70  1  0  0  0  0
 69 75  1  0  0  0  0
 69 56  2  0  0  0  0
 71 69  1  0  0  0  0
 72 71  1  0  0  0  0
 73 71  1  0  0  0  0
 74 71  1  0  0  0  0
 75 76  1  0  0  0  0
 75  7  2  0  0  0  0
 76  8  2  0  0  0  0
 77 76  1  0  0  0  0
M  END
