21,24,45,48
q = 0.0, confidence = 0.998

 48 51  0  0  1  0  0  0  0  0999 V2000
   -0.3126   -2.3090    1.4173 C   0  0  0  0  0  3  0  0  0  0  0  0
    0.7632   -2.3337    1.2045 H   0  0  0  0  0  0  0  0  0  0  0  0
   -0.9726   -3.3939    1.9841 C   0  0  0  0  0  0  0  0  0  0  0  0
   -0.4125   -4.3068    2.2271 H   0  0  0  0  0  0  0  0  0  0  0  0
   -2.3585   -3.2982    2.1971 C   0  0  0  0  0  0  0  0  0  0  0  0
   -2.9279   -4.1558    2.5872 H   0  0  0  0  0  0  0  0  0  0  0  0
   -3.0243   -2.0962    1.9438 C   0  0  0  0  0  0  0  0  0  0  0  0
   -2.2424   -1.0085    1.4506 C   0  0  0  0  0  0  0  0  0  0  0  0
   -2.3289    1.4934    1.1612 C   0  0  1  0  0  3  0  0  0  0  0  0
   -3.1691    2.6042    1.3939 C   0  0  0  0  0  0  0  0  0  0  0  0
   -4.1792    2.4389    1.7952 H   0  0  0  0  0  0  0  0  0  0  0  0
   -2.7103    3.8887    1.0974 C   0  0  0  0  0  0  0  0  0  0  0  0
   -3.3565    4.7613    1.2684 H   0  0  0  0  0  0  0  0  0  0  0  0
   -1.4327    4.0408    0.5453 C   0  0  0  0  0  0  0  0  0  0  0  0
   -1.0627    5.0269    0.2371 H   0  0  0  0  0  0  0  0  0  0  0  0
   -0.6465    2.8986    0.3364 C   0  0  0  0  0  0  0  0  0  0  0  0
   -4.5000   -1.9223    2.1768 C   0  0  0  0  0  0  0  0  0  0  0  0
   -4.9640   -2.8739    2.4962 H   0  0  0  0  0  0  0  0  0  0  0  0
   -5.0098   -1.5953    1.2427 H   0  0  0  0  0  0  0  0  0  0  0  0
   -4.7134   -1.1693    2.9674 H   0  0  0  0  0  0  0  0  0  0  0  0
   -0.9474   -1.1538    1.0831 N   0  0  0  0  0  2  0  0  0  0  0  0
   -2.8431    0.2329    1.3905 N   0  0  0  0  0  0  0  0  0  0  0  0
   -3.8568    0.2154    1.4981 H   0  0  0  0  0  0  0  0  0  0  0  0
   -1.0649    1.6423    0.6954 N   0  0  0  0  0  2  0  0  0  0  0  0
    0.3111   -2.3103   -1.4153 C   0  0  0  0  0  3  0  0  0  0  0  0
   -0.7648   -2.3343   -1.2024 H   0  0  0  0  0  0  0  0  0  0  0  0
    0.9705   -3.3960   -1.9813 C   0  0  0  0  0  0  0  0  0  0  0  0
    0.4098   -4.3088   -2.2236 H   0  0  0  0  0  0  0  0  0  0  0  0
    2.3564   -3.3012   -2.1944 C   0  0  0  0  0  0  0  0  0  0  0  0
    2.9252   -4.1594   -2.5839 H   0  0  0  0  0  0  0  0  0  0  0  0
    3.0229   -2.0995   -1.9420 C   0  0  0  0  0  0  0  0  0  0  0  0
    2.2417   -1.0109   -1.4496 C   0  0  0  0  0  0  0  0  0  0  0  0
    2.3296    1.4912   -1.1620 C   0  0  1  0  0  3  0  0  0  0  0  0
    3.1705    2.6012   -1.3954 C   0  0  0  0  0  0  0  0  0  0  0  0
    4.1806    2.4350   -1.7964 H   0  0  0  0  0  0  0  0  0  0  0  0
    2.7126    3.8863   -1.0997 C   0  0  0  0  0  0  0  0  0  0  0  0
    3.3593    4.7583   -1.2713 H   0  0  0  0  0  0  0  0  0  0  0  0
    1.4351    4.0395   -0.5479 C   0  0  0  0  0  0  0  0  0  0  0  0
    1.0657    5.0261   -0.2403 H   0  0  0  0  0  0  0  0  0  0  0  0
    0.6481    2.8980   -0.3382 C   0  0  0  0  0  0  0  0  0  0  0  0
    4.4987   -1.9266   -2.1753 C   0  0  0  0  0  0  0  0  0  0  0  0
    4.9621   -2.8786   -2.4940 H   0  0  0  0  0  0  0  0  0  0  0  0
    5.0087   -1.5991   -1.2415 H   0  0  0  0  0  0  0  0  0  0  0  0
    4.7124   -1.1742   -2.9665 H   0  0  0  0  0  0  0  0  0  0  0  0
    0.9465   -1.1552   -1.0819 N   0  0  0  0  0  2  0  0  0  0  0  0
    2.8430    0.2301   -1.3904 N   0  0  0  0  0  0  0  0  0  0  0  0
    3.8568    0.2120   -1.4979 H   0  0  0  0  0  0  0  0  0  0  0  0
    1.0657    1.6412   -0.6963 N   0  0  0  0  0  2  0  0  0  0  0  0
  1  3  1  0  0  0  0
  2  1  1  0  0  0  0
  3  5  2  0  0  0  0
  3  4  1  0  0  0  0
  5  6  1  0  0  0  0
  7 17  1  0  0  0  0
  7  5  1  0  0  0  0
  8  7  2  0  0  0  0
  9 22  1  6  0  0  0
  9 10  1  0  0  0  0
 10 11  1  0  0  0  0
 12 13  1  0  0  0  0
 12 10  2  0  0  0  0
 14 12  1  0  0  0  0
 15 14  1  0  0  0  0
 16 14  2  0  0  0  0
 16 24  1  0  0  0  0
 17 18  1  0  0  0  0
 17 20  1  0  0  0  0
 19 17  1  0  0  0  0
 21  1  1  0  0  0  0
 21  8  1  0  0  0  0
 22  8  1  0  0  0  0
 22 23  1  0  0  0  0
 24  9  1  0  0  0  0
 25 26  1  0  0  0  0
 25 45  1  0  0  0  0
 27 25  1  0  0  0  0
 28 27  1  0  0  0  0
 29 27  2  0  0  0  0
 29 31  1  0  0  0  0
 30 29  1  0  0  0  0
 31 32  2  0  0  0  0
 32 46  1  0  0  0  0
 32 45  1  0  0  0  0
 33 46  1  1  0  0  0
 33 48  1  0  0  0  0
 34 33  1  0  0  0  0
 34 36  2  0  0  0  0
 35 34  1  0  0  0  0
 36 38  1  0  0  0  0
 37 36  1  0  0  0  0
 38 40  2  0  0  0  0
 38 39  1  0  0  0  0
 40 16  1  0  0  0  0
 41 31  1  0  0  0  0
 41 43  1  0  0  0  0
 42 41  1  0  0  0  0
 44 41  1  0  0  0  0
 47 46  1  0  0  0  0
 48 40  1  0  0  0  0
M  END
