1,8,19,29
q = 0.0, confidence = 1.0

 45 46  0  0  1  0  0  0  0  0999 V2000
   -0.4793   -0.5210    1.6477 N   0  0  2  0  0  0  0  0  0  0  0  0
   -1.8658   -1.0634    1.7485 C   0  0  0  0  0  0  0  0  0  0  0  0
   -2.2384   -0.9553    2.7896 H   0  0  0  0  0  0  0  0  0  0  0  0
   -1.8066   -2.1360    1.5011 H   0  0  0  0  0  0  0  0  0  0  0  0
   -2.8004   -0.3833    0.7249 C   0  0  0  0  0  0  0  0  0  0  0  0
   -3.3469   -1.1814    0.1934 H   0  0  0  0  0  0  0  0  0  0  0  0
   -3.5558    0.2719    1.2068 H   0  0  0  0  0  0  0  0  0  0  0  0
   -2.0590    0.4220   -0.3118 N   0  0  0  0  0  0  0  0  0  0  0  0
   -2.7228    0.2527   -1.6361 C   0  0  0  0  0  0  0  0  0  0  0  0
   -3.7923    0.5393   -1.5487 H   0  0  0  0  0  0  0  0  0  0  0  0
   -2.6228   -0.8004   -1.9508 H   0  0  0  0  0  0  0  0  0  0  0  0
   -2.2161    0.8857   -2.3843 H   0  0  0  0  0  0  0  0  0  0  0  0
   -2.0541    1.8828    0.0354 C   0  0  0  0  0  0  0  0  0  0  0  0
   -2.2434    2.0091    1.1161 H   0  0  0  0  0  0  0  0  0  0  0  0
   -2.8881    2.3982   -0.4841 H   0  0  0  0  0  0  0  0  0  0  0  0
   -0.7318    2.4915   -0.3655 C   0  0  0  0  0  0  0  0  0  0  0  0
   -0.6041    2.4389   -1.4644 H   0  0  0  0  0  0  0  0  0  0  0  0
   -0.6675    3.5564   -0.0495 H   0  0  0  0  0  0  0  0  0  0  0  0
    0.3938    1.7088    0.2220 N   0  0  1  0  0  0  0  0  0  0  0  0
    1.6640    2.2329   -0.3689 C   0  0  0  0  0  0  0  0  0  0  0  0
    1.7778    3.2941   -0.0536 H   0  0  0  0  0  0  0  0  0  0  0  0
    1.5221    2.2026   -1.4658 H   0  0  0  0  0  0  0  0  0  0  0  0
    2.9043    1.4353   -0.0005 C   0  0  0  0  0  0  0  0  0  0  0  0
    3.7626    1.9324   -0.4974 H   0  0  0  0  0  0  0  0  0  0  0  0
    3.1439    1.5060    1.0822 H   0  0  0  0  0  0  0  0  0  0  0  0
    2.9059   -0.0052   -0.4867 C   0  0  0  0  0  0  0  0  0  0  0  0
    2.8043   -0.0210   -1.5882 H   0  0  0  0  0  0  0  0  0  0  0  0
    3.8805   -0.4739   -0.2258 H   0  0  0  0  0  0  0  0  0  0  0  0
    1.8254   -0.9112    0.0206 N   0  0  0  0  0  0  0  0  0  0  0  0
    2.0678   -2.2167   -0.6616 C   0  0  0  0  0  0  0  0  0  0  0  0
    3.1323   -2.5007   -0.5202 H   0  0  0  0  0  0  0  0  0  0  0  0
    1.8410   -2.1027   -1.7362 H   0  0  0  0  0  0  0  0  0  0  0  0
    1.4085   -2.9984   -0.2556 H   0  0  0  0  0  0  0  0  0  0  0  0
    1.9067   -1.1009    1.5024 C   0  0  0  0  0  0  0  0  0  0  0  0
    2.6763   -1.8630    1.7513 H   0  0  0  0  0  0  0  0  0  0  0  0
    2.2419   -0.1566    1.9687 H   0  0  0  0  0  0  0  0  0  0  0  0
    0.5524   -1.5217    2.0464 C   0  0  0  0  0  0  0  0  0  0  0  0
    0.2462   -2.4845    1.5950 H   0  0  0  0  0  0  0  0  0  0  0  0
    0.5825   -1.6415    3.1516 H   0  0  0  0  0  0  0  0  0  0  0  0
   -0.3848    0.7597    2.4219 C   0  0  0  0  0  0  0  0  0  0  0  0
    0.0335    0.5551    3.4302 H   0  0  0  0  0  0  0  0  0  0  0  0
   -1.4140    1.1187    2.5924 H   0  0  0  0  0  0  0  0  0  0  0  0
    0.4486    1.8233    1.7116 C   0  0  0  0  0  0  0  0  0  0  0  0
    0.1253    2.8392    2.0266 H   0  0  0  0  0  0  0  0  0  0  0  0
    1.5055    1.7343    2.0109 H   0  0  0  0  0  0  0  0  0  0  0  0
  1  2  1  1  0  0  0
  1 37  1  0  0  0  0
  1 40  1  0  0  0  0
  2  3  1  0  0  0  0
  4  2  1  0  0  0  0
  5  7  1  0  0  0  0
  5  2  1  0  0  0  0
  6  5  1  0  0  0  0
  8 13  1  0  0  0  0
  8  5  1  0  0  0  0
  9 10  1  0  0  0  0
  9  8  1  0  0  0  0
 11  9  1  0  0  0  0
 12  9  1  0  0  0  0
 13 14  1  0  0  0  0
 15 13  1  0  0  0  0
 16 18  1  0  0  0  0
 16 13  1  0  0  0  0
 16 19  1  0  0  0  0
 17 16  1  0  0  0  0
 19 20  1  6  0  0  0
 19 43  1  0  0  0  0
 20 21  1  0  0  0  0
 20 23  1  0  0  0  0
 22 20  1  0  0  0  0
 23 25  1  0  0  0  0
 24 23  1  0  0  0  0
 26 28  1  0  0  0  0
 26 23  1  0  0  0  0
 26 29  1  0  0  0  0
 27 26  1  0  0  0  0
 29 34  1  0  0  0  0
 30 31  1  0  0  0  0
 30 33  1  0  0  0  0
 30 29  1  0  0  0  0
 32 30  1  0  0  0  0
 34 35  1  0  0  0  0
 34 36  1  0  0  0  0
 34 37  1  0  0  0  0
 37 39  1  0  0  0  0
 38 37  1  0  0  0  0
 40 42  1  0  0  0  0
 40 41  1  0  0  0  0
 43 45  1  0  0  0  0
 43 44  1  0  0  0  0
 43 40  1  0  0  0  0
M  END
