1,23,33,55
q = 0.0, confidence = 0.996

 55 58  0  0  0  0  0  0  0  0999 V2000
    1.0949    1.7969   -0.8428 N   0  0  0  0  0  2  0  0  0  0  0  0
    2.2985    1.2010   -1.0636 C   0  0  0  0  0  0  0  0  0  0  0  0
    1.8531    3.7697   -1.9978 C   0  0  0  0  0  0  0  0  0  0  0  0
    1.6291    4.7845   -2.3555 H   0  0  0  0  0  0  0  0  0  0  0  0
    0.8798    3.0403   -1.3003 C   0  0  0  0  0  0  0  0  0  0  0  0
   -0.1134    3.4723   -1.1002 H   0  0  0  0  0  0  0  0  0  0  0  0
    3.3330    1.8787   -1.7333 C   0  0  0  0  0  0  0  0  0  0  0  0
    4.3036    1.3835   -1.8709 H   0  0  0  0  0  0  0  0  0  0  0  0
    3.1056    3.1776   -2.2082 C   0  0  0  0  0  0  0  0  0  0  0  0
    3.9026    3.7225   -2.7355 H   0  0  0  0  0  0  0  0  0  0  0  0
    3.7633   -0.8897   -0.6725 C   0  0  0  0  0  0  0  0  0  0  0  0
    6.2175   -2.2461   -0.8766 C   0  0  0  0  0  0  0  0  0  0  0  0
    7.1787   -2.7756   -0.9561 H   0  0  0  0  0  0  0  0  0  0  0  0
    4.2437   -1.3006   -1.9356 C   0  0  0  0  0  0  0  0  0  0  0  0
    3.6519   -1.0979   -2.8418 H   0  0  0  0  0  0  0  0  0  0  0  0
    5.4649   -1.9832   -2.0326 C   0  0  0  0  0  0  0  0  0  0  0  0
    5.8307   -2.3109   -3.0170 H   0  0  0  0  0  0  0  0  0  0  0  0
    2.4568   -0.1908   -0.5466 C   0  0  0  0  0  0  0  0  0  0  0  0
    5.7452   -1.8324    0.3794 C   0  0  0  0  0  0  0  0  0  0  0  0
    6.3363   -2.0325    1.2854 H   0  0  0  0  0  0  0  0  0  0  0  0
    4.5198   -1.1604    0.4897 C   0  0  0  0  0  0  0  0  0  0  0  0
    4.1496   -0.8295    1.4741 H   0  0  0  0  0  0  0  0  0  0  0  0
    1.4098   -0.7058    0.0169 N   0  0  0  0  0  2  0  0  0  0  0  0
   -1.1133   -2.1818   -0.1597 C   0  0  0  0  0  0  0  0  0  0  0  0
   -0.6870   -2.3617   -1.1726 H   0  0  0  0  0  0  0  0  0  0  0  0
   -1.9838   -2.8625   -0.0558 H   0  0  0  0  0  0  0  0  0  0  0  0
    1.3778   -2.0468    0.5705 C   0  0  0  0  0  0  0  0  0  0  0  0
    1.9914   -2.0693    1.5022 H   0  0  0  0  0  0  0  0  0  0  0  0
    1.8600   -2.7552   -0.1403 H   0  0  0  0  0  0  0  0  0  0  0  0
   -0.0533   -2.4780    0.9156 C   0  0  0  0  0  0  0  0  0  0  0  0
   -0.0444   -3.5693    1.1093 H   0  0  0  0  0  0  0  0  0  0  0  0
   -0.3720   -2.0024    1.8672 H   0  0  0  0  0  0  0  0  0  0  0  0
   -1.5392   -0.7869   -0.0875 N   0  0  0  0  0  2  0  0  0  0  0  0
   -6.0337   -3.0529   -1.1269 C   0  0  0  0  0  0  0  0  0  0  0  0
   -6.8649   -3.7342   -1.3618 H   0  0  0  0  0  0  0  0  0  0  0  0
   -4.9632   -1.4881    0.3961 C   0  0  0  0  0  0  0  0  0  0  0  0
   -4.9464   -0.9567    1.3599 H   0  0  0  0  0  0  0  0  0  0  0  0
   -6.0150   -2.3652    0.0974 C   0  0  0  0  0  0  0  0  0  0  0  0
   -6.8250   -2.5132    0.8267 H   0  0  0  0  0  0  0  0  0  0  0  0
   -3.9080   -1.3088   -0.5266 C   0  0  0  0  0  0  0  0  0  0  0  0
   -2.7733   -0.4042   -0.2036 C   0  0  0  0  0  0  0  0  0  0  0  0
   -3.9268   -2.0127   -1.7507 C   0  0  0  0  0  0  0  0  0  0  0  0
   -3.1118   -1.8694   -2.4761 H   0  0  0  0  0  0  0  0  0  0  0  0
   -4.9915   -2.8731   -2.0506 C   0  0  0  0  0  0  0  0  0  0  0  0
   -5.0068   -3.4083   -3.0115 H   0  0  0  0  0  0  0  0  0  0  0  0
   -3.3765    3.7201    0.6910 C   0  0  0  0  0  0  0  0  0  0  0  0
   -3.4697    4.7760    0.9818 H   0  0  0  0  0  0  0  0  0  0  0  0
   -3.0387    1.0512    0.0402 C   0  0  0  0  0  0  0  0  0  0  0  0
   -4.3123    1.6312   -0.0923 C   0  0  0  0  0  0  0  0  0  0  0  0
   -5.1583    1.0250   -0.4428 H   0  0  0  0  0  0  0  0  0  0  0  0
   -4.4787    2.9861    0.2349 C   0  0  0  0  0  0  0  0  0  0  0  0
   -5.4673    3.4594    0.1419 H   0  0  0  0  0  0  0  0  0  0  0  0
   -2.1311    3.0756    0.7681 C   0  0  0  0  0  0  0  0  0  0  0  0
   -1.2322    3.6028    1.1279 H   0  0  0  0  0  0  0  0  0  0  0  0
   -1.9704    1.7884    0.4307 N   0  0  0  0  0  2  0  0  0  0  0  0
  2  1  1  0  0  0  0
  2 18  2  0  0  0  0
  3  5  2  0  0  0  0
  4  3  1  0  0  0  0
  5  6  1  0  0  0  0
  5  1  1  0  0  0  0
  7  2  1  0  0  0  0
  8  7  1  0  0  0  0
  9  3  1  0  0  0  0
  9  7  2  0  0  0  0
 10  9  1  0  0  0  0
 11 18  1  0  0  0  0
 11 21  1  0  0  0  0
 12 19  1  0  0  0  0
 13 12  1  0  0  0  0
 14 11  2  0  0  0  0
 15 14  1  0  0  0  0
 16 14  1  0  0  0  0
 16 12  2  0  0  0  0
 17 16  1  0  0  0  0
 18 23  1  0  0  0  0
 19 21  2  0  0  0  0
 19 20  1  0  0  0  0
 21 22  1  0  0  0  0
 23 27  1  0  0  0  0
 24 33  1  0  0  0  0
 24 26  1  0  0  0  0
 24 30  1  0  0  0  0
 25 24  1  0  0  0  0
 27 30  1  0  0  0  0
 27 28  1  0  0  0  0
 29 27  1  0  0  0  0
 30 31  1  0  0  0  0
 30 32  1  0  0  0  0
 34 38  1  0  0  0  0
 35 34  1  0  0  0  0
 36 37  1  0  0  0  0
 38 36  2  0  0  0  0
 38 39  1  0  0  0  0
 40 41  1  0  0  0  0
 40 36  1  0  0  0  0
 41 33  1  0  0  0  0
 41 48  2  0  0  0  0
 42 40  2  0  0  0  0
 43 42  1  0  0  0  0
 44 42  1  0  0  0  0
 44 34  2  0  0  0  0
 45 44  1  0  0  0  0
 46 53  2  0  0  0  0
 46 47  1  0  0  0  0
 48 55  1  0  0  0  0
 49 48  1  0  0  0  0
 49 51  2  0  0  0  0
 50 49  1  0  0  0  0
 51 46  1  0  0  0  0
 52 51  1  0  0  0  0
 53 54  1  0  0  0  0
 55 53  1  0  0  0  0
M  END
