2,3,30,31
q = -2.0, confidence = 0.854

 49 50  0  0  0  0  0  0  0  0999 V2000
    0.1697   -3.0564    2.3523 O   0  0  0  0  0  0  0  0  0  0  0  0
    1.0083   -1.1760    1.3392 N   0  0  0  0  0  2  0  0  0  0  0  0
    1.3908    1.4230    1.4476 N   0  0  0  0  0  0  0  0  0  0  0  0
    2.4167    1.5559    1.4727 H   0  0  0  0  0  0  0  0  0  0  0  0
   -2.7680    3.0274    0.0000 N   0  0  0  0  0  0  0  0  0  0  0  0
   -3.2101    3.4079   -0.8407 H   0  0  0  0  0  0  0  0  0  0  0  0
    0.3670   -2.3760    1.3277 C   0  0  0  0  0  0  0  0  0  0  0  0
    1.4691   -0.6825    2.6278 C   0  0  0  0  0  0  0  0  0  0  0  0
    2.5828   -0.7333    2.7125 H   0  0  0  0  0  0  0  0  0  0  0  0
    1.0482   -1.3147    3.4378 H   0  0  0  0  0  0  0  0  0  0  0  0
    1.0058    0.7575    2.7237 C   0  0  0  0  0  0  0  0  0  0  0  0
   -0.0998    0.7924    2.7801 H   0  0  0  0  0  0  0  0  0  0  0  0
    1.4267    1.3072    3.5961 H   0  0  0  0  0  0  0  0  0  0  0  0
    0.7637    2.7487    1.2776 C   0  0  0  0  0  0  0  0  0  0  0  0
    0.9925    3.3877    2.1617 H   0  0  0  0  0  0  0  0  0  0  0  0
   -0.3342    2.5986    1.2497 H   0  0  0  0  0  0  0  0  0  0  0  0
    1.2123    3.4481    0.0000 C   0  0  0  0  0  0  0  0  0  0  0  0
    2.3197    3.5810    0.0000 H   0  0  0  0  0  0  0  0  0  0  0  0
    0.7860    4.4716    0.0000 H   0  0  0  0  0  0  0  0  0  0  0  0
   -0.2077   -2.8634   -0.0000 C   0  0  0  0  0  0  0  0  0  0  0  0
   -0.0622   -3.9619   -0.0000 H   0  0  0  0  0  0  0  0  0  0  0  0
   -1.7532   -2.6431   -0.0000 C   0  0  0  0  0  0  0  0  0  0  0  0
   -2.1549   -3.1511    0.8996 H   0  0  0  0  0  0  0  0  0  0  0  0
   -2.1340   -1.1858    0.0000 C   0  0  0  0  0  0  0  0  0  0  0  0
   -2.2779   -0.4681    1.2042 C   0  0  0  0  0  0  0  0  0  0  0  0
   -2.1774   -1.0080    2.1591 H   0  0  0  0  0  0  0  0  0  0  0  0
   -2.5296    0.9103    1.2116 C   0  0  0  0  0  0  0  0  0  0  0  0
   -2.6447    1.4434    2.1701 H   0  0  0  0  0  0  0  0  0  0  0  0
   -2.6420    1.6282    0.0000 C   0  0  0  0  0  0  0  0  0  0  0  0
    1.0083   -1.1760   -1.3392 N   0  0  0  0  0  2  0  0  0  0  0  0
    1.3908    1.4230   -1.4476 N   0  0  0  0  0  0  0  0  0  0  0  0
    0.7637    2.7487   -1.2776 C   0  0  0  0  0  0  0  0  0  0  0  0
    0.3670   -2.3760   -1.3277 C   0  0  0  0  0  0  0  0  0  0  0  0
   -2.1549   -3.1511   -0.8996 H   0  0  0  0  0  0  0  0  0  0  0  0
   -2.2779   -0.4681   -1.2042 C   0  0  0  0  0  0  0  0  0  0  0  0
   -2.5296    0.9103   -1.2116 C   0  0  0  0  0  0  0  0  0  0  0  0
   -3.2101    3.4079    0.8407 H   0  0  0  0  0  0  0  0  0  0  0  0
    1.4691   -0.6825   -2.6278 C   0  0  0  0  0  0  0  0  0  0  0  0
    2.4167    1.5559   -1.4727 H   0  0  0  0  0  0  0  0  0  0  0  0
    1.0058    0.7575   -2.7237 C   0  0  0  0  0  0  0  0  0  0  0  0
    0.9925    3.3877   -2.1617 H   0  0  0  0  0  0  0  0  0  0  0  0
   -0.3342    2.5986   -1.2497 H   0  0  0  0  0  0  0  0  0  0  0  0
    0.1697   -3.0564   -2.3523 O   0  0  0  0  0  0  0  0  0  0  0  0
   -2.1774   -1.0080   -2.1591 H   0  0  0  0  0  0  0  0  0  0  0  0
   -2.6447    1.4434   -2.1701 H   0  0  0  0  0  0  0  0  0  0  0  0
    2.5828   -0.7333   -2.7125 H   0  0  0  0  0  0  0  0  0  0  0  0
    1.0482   -1.3147   -3.4378 H   0  0  0  0  0  0  0  0  0  0  0  0
   -0.0998    0.7924   -2.7801 H   0  0  0  0  0  0  0  0  0  0  0  0
    1.4267    1.3072   -3.5961 H   0  0  0  0  0  0  0  0  0  0  0  0
  2  8  1  0  0  0  0
  3  4  1  0  0  0  0
  3 11  1  0  0  0  0
  5 29  1  0  0  0  0
  5 37  1  0  0  0  0
  6  5  1  0  0  0  0
  7  2  1  0  0  0  0
  7  1  2  0  0  0  0
  8  9  1  0  0  0  0
  8 11  1  0  0  0  0
  8 10  1  0  0  0  0
 11 12  1  0  0  0  0
 11 13  1  0  0  0  0
 14  3  1  0  0  0  0
 14 15  1  0  0  0  0
 16 14  1  0  0  0  0
 17 14  1  0  0  0  0
 18 17  1  0  0  0  0
 19 17  1  0  0  0  0
 20  7  1  0  0  0  0
 21 20  1  0  0  0  0
 22 20  1  0  0  0  0
 22 23  1  0  0  0  0
 24 22  1  0  0  0  0
 24 25  1  0  0  0  0
 25 27  2  0  0  0  0
 25 26  1  0  0  0  0
 27 28  1  0  0  0  0
 29 27  1  0  0  0  0
 30 33  1  0  0  0  0
 31 32  1  0  0  0  0
 32 42  1  0  0  0  0
 32 17  1  0  0  0  0
 33 20  1  0  0  0  0
 34 22  1  0  0  0  0
 35 24  2  0  0  0  0
 36 35  1  0  0  0  0
 36 29  2  0  0  0  0
 38 30  1  0  0  0  0
 39 31  1  0  0  0  0
 40 38  1  0  0  0  0
 40 31  1  0  0  0  0
 41 32  1  0  0  0  0
 43 33  2  0  0  0  0
 44 35  1  0  0  0  0
 45 36  1  0  0  0  0
 46 38  1  0  0  0  0
 47 38  1  0  0  0  0
 48 40  1  0  0  0  0
 49 40  1  0  0  0  0
M  END
