1,2,3,4
q = 0.0, confidence = 0.99

 52 54  0  0  1  0  0  0  0  0999 V2000
    2.4380   -0.2248   -0.7589 N   0  0  0  0  0  2  0  0  0  0  0  0
    1.6058    0.1181    1.6754 N   0  0  0  0  0  0  0  0  0  0  0  0
    0.2007    1.3582   -0.2285 N   0  0  0  0  0  2  0  0  0  0  0  0
   -0.9960   -0.8077    1.1563 N   0  0  0  0  0  0  0  0  0  0  0  0
   -0.8074   -1.8296    1.1570 H   0  0  0  0  0  0  0  0  0  0  0  0
    2.7353   -0.0301   -2.0685 C   0  0  0  0  0  3  0  0  0  0  0  0
    1.8695   -0.0950   -2.7469 H   0  0  0  0  0  0  0  0  0  0  0  0
    4.0469    0.1822   -2.5028 C   0  0  0  0  0  0  0  0  0  0  0  0
    4.2391    0.3222   -3.5765 H   0  0  0  0  0  0  0  0  0  0  0  0
    5.0931    0.2106   -1.5678 C   0  0  0  0  0  0  0  0  0  0  0  0
    6.1323    0.3810   -1.8847 H   0  0  0  0  0  0  0  0  0  0  0  0
    4.7805    0.0206   -0.2103 C   0  0  0  0  0  0  0  0  0  0  0  0
    5.5625    0.0422    0.5632 H   0  0  0  0  0  0  0  0  0  0  0  0
    3.4530   -0.2019    0.1617 C   0  0  0  0  0  0  0  0  0  0  0  0
    2.9803   -0.4470    1.5676 C   0  0  0  0  0  0  0  0  0  0  0  0
    2.8728   -1.5438    1.7116 H   0  0  0  0  0  0  0  0  0  0  0  0
    3.6753   -0.0275    2.3297 H   0  0  0  0  0  0  0  0  0  0  0  0
    1.6424    1.6078    1.6971 C   0  0  0  0  0  0  0  0  0  0  0  0
    2.6486    1.9225    1.3497 H   0  0  0  0  0  0  0  0  0  0  0  0
    1.5298    1.9975    2.7326 H   0  0  0  0  0  0  0  0  0  0  0  0
    0.6221    2.2029    0.7642 C   0  0  1  0  0  3  0  0  0  0  0  0
    0.1858    3.5272    0.8540 C   0  0  0  0  0  0  0  0  0  0  0  0
    0.5391    4.1574    1.6841 H   0  0  0  0  0  0  0  0  0  0  0  0
   -0.6869    4.0363   -0.1236 C   0  0  0  0  0  0  0  0  0  0  0  0
   -1.0423    5.0757   -0.0730 H   0  0  0  0  0  0  0  0  0  0  0  0
   -1.0875    3.1781   -1.1592 C   0  0  0  0  0  0  0  0  0  0  0  0
   -1.7683    3.5190   -1.9526 H   0  0  0  0  0  0  0  0  0  0  0  0
   -0.6417    1.8547   -1.1772 C   0  0  0  0  0  0  0  0  0  0  0  0
   -0.9457    1.1157   -1.9376 H   0  0  0  0  0  0  0  0  0  0  0  0
    0.8050   -0.4659    2.7763 C   0  0  0  0  0  0  0  0  0  0  0  0
    1.0832   -0.0297    3.7635 H   0  0  0  0  0  0  0  0  0  0  0  0
    1.0240   -1.5528    2.7792 H   0  0  0  0  0  0  0  0  0  0  0  0
   -0.6741   -0.2493    2.4873 C   0  0  0  0  0  0  0  0  0  0  0  0
   -1.2979   -0.7106    3.2852 H   0  0  0  0  0  0  0  0  0  0  0  0
   -0.9100    0.8329    2.4859 H   0  0  0  0  0  0  0  0  0  0  0  0
   -2.3088   -0.5279    0.6446 C   0  0  0  0  0  0  0  0  0  0  0  0
   -3.0463   -1.5649    0.0135 C   0  0  0  0  0  0  0  0  0  0  0  0
   -4.3048   -1.2452   -0.5207 C   0  0  0  0  0  0  0  0  0  0  0  0
   -4.8756   -2.0500   -1.0125 H   0  0  0  0  0  0  0  0  0  0  0  0
   -4.8642    0.0468   -0.4547 C   0  0  0  0  0  0  0  0  0  0  0  0
   -4.1163    1.0468    0.1887 C   0  0  0  0  0  0  0  0  0  0  0  0
   -4.5181    2.0695    0.2646 H   0  0  0  0  0  0  0  0  0  0  0  0
   -2.8556    0.7632    0.7317 C   0  0  0  0  0  0  0  0  0  0  0  0
   -2.2932    1.5743    1.2152 H   0  0  0  0  0  0  0  0  0  0  0  0
   -2.4960   -2.9618   -0.0848 C   0  0  0  0  0  0  0  0  0  0  0  0
   -2.2449   -3.3841    0.9126 H   0  0  0  0  0  0  0  0  0  0  0  0
   -1.5619   -2.9674   -0.6862 H   0  0  0  0  0  0  0  0  0  0  0  0
   -3.2281   -3.6415   -0.5600 H   0  0  0  0  0  0  0  0  0  0  0  0
   -6.2139    0.3335   -1.0636 C   0  0  0  0  0  0  0  0  0  0  0  0
   -6.1879    0.2265   -2.1689 H   0  0  0  0  0  0  0  0  0  0  0  0
   -6.5554    1.3617   -0.8344 H   0  0  0  0  0  0  0  0  0  0  0  0
   -6.9863   -0.3723   -0.6933 H   0  0  0  0  0  0  0  0  0  0  0  0
  1 14  1  0  0  0  0
  2 18  1  0  0  0  0
  2 30  1  0  0  0  0
  3 21  1  0  0  0  0
  4  5  1  0  0  0  0
  4 33  1  0  0  0  0
  6  1  1  0  0  0  0
  7  6  1  0  0  0  0
  8  6  1  0  0  0  0
  8 10  2  0  0  0  0
  9  8  1  0  0  0  0
 10 12  1  0  0  0  0
 11 10  1  0  0  0  0
 12 14  2  0  0  0  0
 12 13  1  0  0  0  0
 14 15  1  0  0  0  0
 15  2  1  0  0  0  0
 15 16  1  0  0  0  0
 15 17  1  0  0  0  0
 18 20  1  0  0  0  0
 19 18  1  0  0  0  0
 21 22  1  0  0  0  0
 21 18  1  6  0  0  0
 22 23  1  0  0  0  0
 24 25  1  0  0  0  0
 24 22  2  0  0  0  0
 26 24  1  0  0  0  0
 27 26  1  0  0  0  0
 28 26  2  0  0  0  0
 28  3  1  0  0  0  0
 29 28  1  0  0  0  0
 30 32  1  0  0  0  0
 30 31  1  0  0  0  0
 33 30  1  0  0  0  0
 33 34  1  0  0  0  0
 35 33  1  0  0  0  0
 36 43  1  0  0  0  0
 36  4  1  0  0  0  0
 37 36  2  0  0  0  0
 38 40  2  0  0  0  0
 38 37  1  0  0  0  0
 39 38  1  0  0  0  0
 40 41  1  0  0  0  0
 41 42  1  0  0  0  0
 41 43  2  0  0  0  0
 43 44  1  0  0  0  0
 45 37  1  0  0  0  0
 45 46  1  0  0  0  0
 47 45  1  0  0  0  0
 48 45  1  0  0  0  0
 49 51  1  0  0  0  0
 49 52  1  0  0  0  0
 49 40  1  0  0  0  0
 50 49  1  0  0  0  0
M  END
