3,4,6,8
q = 0.0, confidence = 0.996

 55 58  0  0  1  0  0  0  0  0999 V2000
   -1.7210    2.8347    0.7113 O   0  0  0  0  0  0  0  0  0  0  0  0
    2.6275    0.0232    1.3188 O   0  0  0  0  0  0  0  0  0  0  0  0
   -1.1401   -1.9605   -0.3102 N   0  0  0  0  0  2  0  0  0  0  0  0
    1.6697   -1.8284   -0.2484 N   0  0  0  0  0  0  0  0  0  0  0  0
    1.6445   -2.1670    0.7249 H   0  0  0  0  0  0  0  0  0  0  0  0
    0.4083    1.6977    2.2233 N   0  0  0  0  0  0  0  0  0  0  0  0
   -0.4017    1.2560    2.7049 H   0  0  0  0  0  0  0  0  0  0  0  0
   -2.4802    0.3437    0.4745 N   0  0  0  0  0  0  0  0  0  0  0  0
   -2.4710    0.8656    1.3578 H   0  0  0  0  0  0  0  0  0  0  0  0
   -0.4385   -2.9699   -0.8572 C   0  0  1  0  0  3  0  0  0  0  0  0
   -1.0541   -4.1875   -1.1877 C   0  0  0  0  0  0  0  0  0  0  0  0
   -0.4580   -5.0061   -1.6167 H   0  0  0  0  0  0  0  0  0  0  0  0
   -2.4314   -4.3285   -0.9697 C   0  0  0  0  0  0  0  0  0  0  0  0
   -2.9416   -5.2692   -1.2256 H   0  0  0  0  0  0  0  0  0  0  0  0
   -3.1485   -3.2591   -0.4244 C   0  0  0  0  0  0  0  0  0  0  0  0
   -4.2314   -3.3296   -0.2439 H   0  0  0  0  0  0  0  0  0  0  0  0
   -2.4571   -2.0815   -0.0893 C   0  0  0  0  0  0  0  0  0  0  0  0
   -3.1793   -0.9215    0.5777 C   0  0  0  0  0  0  0  0  0  0  0  0
   -4.2137   -0.8588    0.1694 H   0  0  0  0  0  0  0  0  0  0  0  0
   -3.2692   -1.1668    1.6573 H   0  0  0  0  0  0  0  0  0  0  0  0
   -2.6608    1.1732   -0.6560 C   0  0  0  0  0  0  0  0  0  0  0  0
   -3.1605    0.7302   -1.8900 C   0  0  0  0  0  0  0  0  0  0  0  0
   -3.4960   -0.3099   -2.0070 H   0  0  0  0  0  0  0  0  0  0  0  0
   -3.1704    1.5982   -2.9953 C   0  0  0  0  0  0  0  0  0  0  0  0
   -3.5447    1.2347   -3.9633 H   0  0  0  0  0  0  0  0  0  0  0  0
   -2.6797    2.9043   -2.8767 C   0  0  0  0  0  0  0  0  0  0  0  0
   -2.6672    3.5741   -3.7487 H   0  0  0  0  0  0  0  0  0  0  0  0
   -2.1871    3.3630   -1.6418 C   0  0  0  0  0  0  0  0  0  0  0  0
   -1.7940    4.3844   -1.5396 H   0  0  0  0  0  0  0  0  0  0  0  0
   -2.1844    2.5053   -0.5371 C   0  0  0  0  0  0  0  0  0  0  0  0
   -0.4938    3.5672    0.8009 C   0  0  0  0  0  0  0  0  0  0  0  0
   -0.6928    4.6628    0.8284 H   0  0  0  0  0  0  0  0  0  0  0  0
    0.1390    3.3227   -0.0784 H   0  0  0  0  0  0  0  0  0  0  0  0
    0.2078    3.1512    2.0860 C   0  0  0  0  0  0  0  0  0  0  0  0
   -0.3503    3.5460    2.9669 H   0  0  0  0  0  0  0  0  0  0  0  0
    1.1956    3.6587    2.0854 H   0  0  0  0  0  0  0  0  0  0  0  0
    1.6114    1.3448    2.9903 C   0  0  0  0  0  0  0  0  0  0  0  0
    1.8295    2.0922    3.7881 H   0  0  0  0  0  0  0  0  0  0  0  0
    1.4239    0.3695    3.4803 H   0  0  0  0  0  0  0  0  0  0  0  0
    2.8398    1.1928    2.1047 C   0  0  0  0  0  0  0  0  0  0  0  0
    2.9758    2.0740    1.4373 H   0  0  0  0  0  0  0  0  0  0  0  0
    3.7562    1.0751    2.7255 H   0  0  0  0  0  0  0  0  0  0  0  0
    3.4284   -0.2439    0.2457 C   0  0  0  0  0  0  0  0  0  0  0  0
    4.6278    0.4120   -0.0540 C   0  0  0  0  0  0  0  0  0  0  0  0
    5.0080    1.2016    0.6081 H   0  0  0  0  0  0  0  0  0  0  0  0
    5.3337    0.0663   -1.2207 C   0  0  0  0  0  0  0  0  0  0  0  0
    6.2734    0.5861   -1.4581 H   0  0  0  0  0  0  0  0  0  0  0  0
    4.8369   -0.9223   -2.0767 C   0  0  0  0  0  0  0  0  0  0  0  0
    5.3816   -1.1863   -2.9947 H   0  0  0  0  0  0  0  0  0  0  0  0
    3.6371   -1.5885   -1.7683 C   0  0  0  0  0  0  0  0  0  0  0  0
    3.2592   -2.3639   -2.4480 H   0  0  0  0  0  0  0  0  0  0  0  0
    2.9221   -1.2644   -0.6056 C   0  0  0  0  0  0  0  0  0  0  0  0
    1.0175   -2.7206   -1.1908 C   0  0  0  0  0  0  0  0  0  0  0  0
    1.5411   -3.6978   -1.3029 H   0  0  0  0  0  0  0  0  0  0  0  0
    1.0359   -2.2114   -2.1795 H   0  0  0  0  0  0  0  0  0  0  0  0
  1 31  1  0  0  0  0
  2 40  1  0  0  0  0
  3 17  1  0  0  0  0
  4  5  1  0  0  0  0
  6  7  1  0  0  0  0
  6 37  1  0  0  0  0
  8 18  1  0  0  0  0
  8  9  1  0  0  0  0
 10 11  1  6  0  0  0
 10  3  1  0  0  0  0
 11 13  2  0  0  0  0
 12 11  1  0  0  0  0
 13 15  1  0  0  0  0
 14 13  1  0  0  0  0
 15 16  1  0  0  0  0
 15 17  2  0  0  0  0
 17 18  1  0  0  0  0
 18 20  1  0  0  0  0
 19 18  1  0  0  0  0
 21 30  1  0  0  0  0
 21  8  1  0  0  0  0
 22 21  2  0  0  0  0
 23 22  1  0  0  0  0
 24 26  2  0  0  0  0
 24 22  1  0  0  0  0
 25 24  1  0  0  0  0
 26 28  1  0  0  0  0
 27 26  1  0  0  0  0
 28 29  1  0  0  0  0
 28 30  2  0  0  0  0
 30  1  1  0  0  0  0
 31 32  1  0  0  0  0
 31 34  1  0  0  0  0
 33 31  1  0  0  0  0
 34  6  1  0  0  0  0
 34 35  1  0  0  0  0
 36 34  1  0  0  0  0
 37 39  1  0  0  0  0
 37 38  1  0  0  0  0
 40 42  1  0  0  0  0
 40 37  1  0  0  0  0
 41 40  1  0  0  0  0
 43  2  1  0  0  0  0
 44 43  1  0  0  0  0
 44 45  1  0  0  0  0
 46 44  2  0  0  0  0
 47 46  1  0  0  0  0
 48 50  2  0  0  0  0
 48 46  1  0  0  0  0
 49 48  1  0  0  0  0
 50 52  1  0  0  0  0
 51 50  1  0  0  0  0
 52  4  1  0  0  0  0
 52 43  2  0  0  0  0
 53 10  1  0  0  0  0
 53  4  1  0  0  0  0
 54 53  1  0  0  0  0
 55 53  1  0  0  0  0
M  END
