1,2,3,5
q = -2.0, confidence = 0.796

 79 82  0  0  1  0  0  0  0  0999 V2000
   -0.9615   -1.8092    1.3991 N   0  0  0  0  0  2  0  0  0  0  0  0
    1.5204   -1.2760    1.4376 N   0  0  0  0  0  2  0  0  0  0  0  0
    1.5913   -1.4157   -1.2625 N   0  0  0  0  0  2  0  0  0  0  0  0
   -5.0249   -0.5041    0.6670 O   0  0  0  0  0  0  0  0  0  0  0  0
   -0.8908   -1.9493   -1.2998 N   0  0  0  0  0  2  0  0  0  0  0  0
   -4.0002    0.5949   -1.0345 O   0  0  0  0  0  0  0  0  0  0  0  0
   -3.7726    3.3944   -0.4423 O   0  0  0  0  0  0  0  0  0  0  0  0
   -1.0528    4.3732    0.1821 O   0  0  0  0  0  0  0  0  0  0  0  0
    2.4575    4.9658   -0.3395 O   0  0  0  0  0  0  0  0  0  0  0  0
    3.5092    2.1677   -0.8664 O   0  0  0  0  0  0  0  0  0  0  0  0
    4.8473    1.4181    0.8072 O   0  0  0  0  0  0  0  0  0  0  0  0
   -0.8848   -2.9992    3.6182 C   0  0  0  0  0  0  0  0  0  0  0  0
   -1.9420   -3.2913    3.5728 H   0  0  0  0  0  0  0  0  0  0  0  0
   -0.0807   -3.4395    4.6845 C   0  0  0  0  0  0  0  0  0  0  0  0
   -0.5284   -4.0487    5.4837 H   0  0  0  0  0  0  0  0  0  0  0  0
    1.8724   -2.4048    3.6621 C   0  0  0  0  0  0  0  0  0  0  0  0
    2.9570   -2.2360    3.6504 H   0  0  0  0  0  0  0  0  0  0  0  0
    1.0766   -1.9366    2.6018 C   0  0  0  0  0  0  0  0  0  0  0  0
    2.5232   -0.3942    1.3428 C   0  0  1  0  0  3  0  0  0  0  0  0
    2.9834    0.0540    0.0568 C   0  0  0  0  0  0  0  0  0  0  0  0
    2.6233   -0.5687   -1.1901 C   0  0  0  0  0  0  0  0  0  0  0  0
    1.2199   -2.2411   -2.3467 C   0  0  0  0  0  0  0  0  0  0  0  0
    2.0718   -2.8489   -3.2860 C   0  0  0  0  0  0  0  0  0  0  0  0
    3.1541   -2.6874   -3.2362 H   0  0  0  0  0  0  0  0  0  0  0  0
    1.5521   -3.7270   -4.2534 C   0  0  0  0  0  0  0  0  0  0  0  0
    2.2354   -4.2081   -4.9687 H   0  0  0  0  0  0  0  0  0  0  0  0
    0.1839   -4.0192   -4.2766 C   0  0  0  0  0  0  0  0  0  0  0  0
   -0.2198   -4.7321   -5.0108 H   0  0  0  0  0  0  0  0  0  0  0  0
   -0.6808   -3.4381   -3.3321 C   0  0  0  0  0  0  0  0  0  0  0  0
   -1.7351   -3.7339   -3.3200 H   0  0  0  0  0  0  0  0  0  0  0  0
   -0.1831   -2.5429   -2.3684 C   0  0  0  0  0  0  0  0  0  0  0  0
   -2.1795   -1.5978   -1.2590 C   0  0  2  0  0  3  0  0  0  0  0  0
   -2.7915   -1.1634   -0.0301 C   0  0  0  0  0  0  0  0  0  0  0  0
   -2.2307   -1.4004    1.2714 C   0  0  0  0  0  0  0  0  0  0  0  0
    3.1054    0.1994    2.6061 C   0  0  0  0  0  0  0  0  0  0  0  0
    2.4528   -0.0032    3.4725 H   0  0  0  0  0  0  0  0  0  0  0  0
    3.2215    1.2927    2.4947 H   0  0  0  0  0  0  0  0  0  0  0  0
    4.1236   -0.1844    2.8126 H   0  0  0  0  0  0  0  0  0  0  0  0
    3.4672   -0.3093   -2.4181 C   0  0  0  0  0  0  0  0  0  0  0  0
    4.3080   -1.0316   -2.4762 H   0  0  0  0  0  0  0  0  0  0  0  0
    3.8977    0.7030   -2.3856 H   0  0  0  0  0  0  0  0  0  0  0  0
    2.8692   -0.4062   -3.3428 H   0  0  0  0  0  0  0  0  0  0  0  0
   -3.0326   -1.7262   -2.5010 C   0  0  0  0  0  0  0  0  0  0  0  0
   -2.4416   -1.5350   -3.4160 H   0  0  0  0  0  0  0  0  0  0  0  0
   -3.8731   -1.0168   -2.4742 H   0  0  0  0  0  0  0  0  0  0  0  0
   -3.4570   -2.7490   -2.5755 H   0  0  0  0  0  0  0  0  0  0  0  0
   -3.0376   -1.1060    2.5155 C   0  0  0  0  0  0  0  0  0  0  0  0
   -3.8244   -1.8672    2.6858 H   0  0  0  0  0  0  0  0  0  0  0  0
   -3.5788   -0.1499    2.4023 H   0  0  0  0  0  0  0  0  0  0  0  0
   -2.3851   -1.0478    3.4033 H   0  0  0  0  0  0  0  0  0  0  0  0
    3.9007    1.2240    0.0574 C   0  0  0  0  0  0  0  0  0  0  0  0
    4.2731    3.3851   -0.9032 C   0  0  0  0  0  0  0  0  0  0  0  0
    4.2094    3.7465   -1.9489 H   0  0  0  0  0  0  0  0  0  0  0  0
    5.3283    3.1729   -0.6327 H   0  0  0  0  0  0  0  0  0  0  0  0
    3.7080    4.4404    0.0433 C   0  0  0  0  0  0  0  0  0  0  0  0
    3.6752    4.0228    1.0790 H   0  0  0  0  0  0  0  0  0  0  0  0
    4.4185    5.2955    0.0522 H   0  0  0  0  0  0  0  0  0  0  0  0
    1.3232    4.1846    0.0011 C   0  0  0  0  0  0  0  0  0  0  0  0
    1.3675    3.8577    1.0694 H   0  0  0  0  0  0  0  0  0  0  0  0
    1.2424    3.2632   -0.6188 H   0  0  0  0  0  0  0  0  0  0  0  0
    0.1055    5.0738   -0.2080 C   0  0  0  0  0  0  0  0  0  0  0  0
    0.2373    6.0111    0.3901 H   0  0  0  0  0  0  0  0  0  0  0  0
    0.0539    5.3854   -1.2813 H   0  0  0  0  0  0  0  0  0  0  0  0
   -2.2190    5.1543    0.0574 C   0  0  0  0  0  0  0  0  0  0  0  0
   -2.3733    5.4823   -1.0012 H   0  0  0  0  0  0  0  0  0  0  0  0
   -2.1414    6.0831    0.6791 H   0  0  0  0  0  0  0  0  0  0  0  0
   -3.4350    4.3742    0.5123 C   0  0  0  0  0  0  0  0  0  0  0  0
   -3.2207    3.9088    1.5070 H   0  0  0  0  0  0  0  0  0  0  0  0
   -4.2799    5.0948    0.6625 H   0  0  0  0  0  0  0  0  0  0  0  0
   -4.9083    2.6442   -0.0821 C   0  0  0  0  0  0  0  0  0  0  0  0
   -5.8336    3.2783   -0.0762 H   0  0  0  0  0  0  0  0  0  0  0  0
   -4.8076    2.2186    0.9463 H   0  0  0  0  0  0  0  0  0  0  0  0
   -5.1029    1.5111   -1.0739 C   0  0  0  0  0  0  0  0  0  0  0  0
   -6.0507    0.9821   -0.8466 H   0  0  0  0  0  0  0  0  0  0  0  0
   -5.1215    1.9098   -2.1071 H   0  0  0  0  0  0  0  0  0  0  0  0
   -4.0593   -0.3887   -0.0768 C   0  0  0  0  0  0  0  0  0  0  0  0
   -0.3209   -2.2380    2.5792 C   0  0  0  0  0  0  0  0  0  0  0  0
    1.2893   -3.1443    4.7064 C   0  0  0  0  0  0  0  0  0  0  0  0
    1.9237   -3.5202    5.5227 H   0  0  0  0  0  0  0  0  0  0  0  0
  1 77  1  0  0  0  0
  2 18  1  0  0  0  0
  3 21  1  0  0  0  0
  5 32  1  0  0  0  0
  6 76  1  0  0  0  0
  7 70  1  0  0  0  0
  7 67  1  0  0  0  0
  9 58  1  0  0  0  0
  9 55  1  0  0  0  0
 10 51  1  0  0  0  0
 12 14  1  0  0  0  0
 13 12  1  0  0  0  0
 14 78  2  0  0  0  0
 14 15  1  0  0  0  0
 16 78  1  0  0  0  0
 17 16  1  0  0  0  0
 18 16  2  0  0  0  0
 19  2  1  0  0  0  0
 19 35  1  1  0  0  0
 20 51  1  0  0  0  0
 20 19  1  0  0  0  0
 21 20  2  0  0  0  0
 22  3  1  0  0  0  0
 23 24  1  0  0  0  0
 23 22  2  0  0  0  0
 25 23  1  0  0  0  0
 26 25  1  0  0  0  0
 27 25  2  0  0  0  0
 27 29  1  0  0  0  0
 28 27  1  0  0  0  0
 29 30  1  0  0  0  0
 29 31  2  0  0  0  0
 31 22  1  0  0  0  0
 31  5  1  0  0  0  0
 32 43  1  1  0  0  0
 32 33  1  0  0  0  0
 33 34  2  0  0  0  0
 34  1  1  0  0  0  0
 34 47  1  0  0  0  0
 35 38  1  0  0  0  0
 35 36  1  0  0  0  0
 37 35  1  0  0  0  0
 39 41  1  0  0  0  0
 39 21  1  0  0  0  0
 40 39  1  0  0  0  0
 42 39  1  0  0  0  0
 43 45  1  0  0  0  0
 44 43  1  0  0  0  0
 46 43  1  0  0  0  0
 47 48  1  0  0  0  0
 47 50  1  0  0  0  0
 49 47  1  0  0  0  0
 51 11  2  0  0  0  0
 52 10  1  0  0  0  0
 52 54  1  0  0  0  0
 52 55  1  0  0  0  0
 53 52  1  0  0  0  0
 55 57  1  0  0  0  0
 55 56  1  0  0  0  0
 58 59  1  0  0  0  0
 60 58  1  0  0  0  0
 61 58  1  0  0  0  0
 61  8  1  0  0  0  0
 61 62  1  0  0  0  0
 63 61  1  0  0  0  0
 64  8  1  0  0  0  0
 64 67  1  0  0  0  0
 64 66  1  0  0  0  0
 65 64  1  0  0  0  0
 67 69  1  0  0  0  0
 67 68  1  0  0  0  0
 70 71  1  0  0  0  0
 70 72  1  0  0  0  0
 73  6  1  0  0  0  0
 73 74  1  0  0  0  0
 73 70  1  0  0  0  0
 75 73  1  0  0  0  0
 76 33  1  0  0  0  0
 76  4  2  0  0  0  0
 77 18  1  0  0  0  0
 77 12  2  0  0  0  0
 78 79  1  0  0  0  0
M  END
