1,2,3,4
q = -2.0, confidence = 0.878

 72 80  0  0  0  0  0  0  0  0999 V2000
   -1.7459   -0.5923   -0.0748 N   0  0  0  0  0  0  0  0  0  0  0  0
    0.5954   -1.7679   -0.4243 N   0  0  0  0  0  2  0  0  0  0  0  0
    1.7459    0.5923   -0.0748 N   0  0  0  0  0  0  0  0  0  0  0  0
   -0.5955    1.7679   -0.4243 N   0  0  0  0  0  0  0  0  0  0  0  0
   -1.5275   -2.8702   -0.8077 N   0  0  0  0  0  0  0  0  0  0  0  0
    3.0053   -1.5058   -0.1932 N   0  0  0  0  0  0  0  0  0  0  0  0
    1.5275    2.8702   -0.8077 N   0  0  0  0  0  0  0  0  0  0  0  0
   -3.0053    1.5058   -0.1931 N   0  0  0  0  0  0  0  0  0  0  0  0
   -2.4423    0.6559    1.8378 O   0  0  0  0  0  0  0  0  0  0  0  0
    2.4423   -0.6559    1.8378 O   0  0  0  0  0  0  0  0  0  0  0  0
   -2.8023    0.2733    0.5184 C   0  0  0  0  0  0  0  0  0  0  0  0
   -4.0369   -0.6239    0.4670 C   0  0  0  0  0  0  0  0  0  0  0  0
   -5.3499   -0.3659    0.8528 C   0  0  0  0  0  0  0  0  0  0  0  0
   -5.6382    0.6220    1.2411 H   0  0  0  0  0  0  0  0  0  0  0  0
   -6.2887   -1.4095    0.7181 C   0  0  0  0  0  0  0  0  0  0  0  0
   -7.3363   -1.2381    1.0095 H   0  0  0  0  0  0  0  0  0  0  0  0
   -5.9107   -2.6690    0.2123 C   0  0  0  0  0  0  0  0  0  0  0  0
   -6.6669   -3.4631    0.1184 H   0  0  0  0  0  0  0  0  0  0  0  0
   -4.5825   -2.9217   -0.1749 C   0  0  0  0  0  0  0  0  0  0  0  0
   -4.2635   -3.8955   -0.5739 H   0  0  0  0  0  0  0  0  0  0  0  0
   -2.2182   -1.8120   -0.3426 C   0  0  0  0  0  0  0  0  0  0  0  0
   -3.6614   -1.8772   -0.0389 C   0  0  0  0  0  0  0  0  0  0  0  0
   -0.2046   -2.8011   -0.8337 C   0  0  0  0  0  0  0  0  0  0  0  0
    0.6411   -3.9173   -1.3030 C   0  0  0  0  0  0  0  0  0  0  0  0
    0.3157   -5.1768   -1.8135 C   0  0  0  0  0  0  0  0  0  0  0  0
   -0.7356   -5.4803   -1.9211 H   0  0  0  0  0  0  0  0  0  0  0  0
    1.3804   -6.0229   -2.1770 C   0  0  0  0  0  0  0  0  0  0  0  0
    1.1657   -7.0210   -2.5881 H   0  0  0  0  0  0  0  0  0  0  0  0
    2.7207   -5.6149   -2.0198 C   0  0  0  0  0  0  0  0  0  0  0  0
    3.5301   -6.3009   -2.3126 H   0  0  0  0  0  0  0  0  0  0  0  0
    3.0400   -4.3479   -1.4942 C   0  0  0  0  0  0  0  0  0  0  0  0
    4.0799   -4.0171   -1.3579 H   0  0  0  0  0  0  0  0  0  0  0  0
    1.9794   -3.5087   -1.1484 C   0  0  0  0  0  0  0  0  0  0  0  0
    1.9472   -2.1520   -0.5537 C   0  0  0  0  0  0  0  0  0  0  0  0
    2.8023   -0.2733    0.5184 C   0  0  0  0  0  0  0  0  0  0  0  0
    4.0368    0.6239    0.4670 C   0  0  0  0  0  0  0  0  0  0  0  0
    5.3499    0.3659    0.8527 C   0  0  0  0  0  0  0  0  0  0  0  0
    5.6382   -0.6220    1.2411 H   0  0  0  0  0  0  0  0  0  0  0  0
    6.2887    1.4095    0.7180 C   0  0  0  0  0  0  0  0  0  0  0  0
    7.3363    1.2381    1.0095 H   0  0  0  0  0  0  0  0  0  0  0  0
    5.9107    2.6690    0.2123 C   0  0  0  0  0  0  0  0  0  0  0  0
    6.6669    3.4631    0.1184 H   0  0  0  0  0  0  0  0  0  0  0  0
    4.5825    2.9217   -0.1750 C   0  0  0  0  0  0  0  0  0  0  0  0
    4.2635    3.8955   -0.5740 H   0  0  0  0  0  0  0  0  0  0  0  0
    3.6613    1.8772   -0.0389 C   0  0  0  0  0  0  0  0  0  0  0  0
    2.2182    1.8120   -0.3426 C   0  0  0  0  0  0  0  0  0  0  0  0
    0.2046    2.8011   -0.8337 C   0  0  0  0  0  0  0  0  0  0  0  0
   -0.6411    3.9173   -1.3030 C   0  0  0  0  0  0  0  0  0  0  0  0
   -0.3158    5.1768   -1.8135 C   0  0  0  0  0  0  0  0  0  0  0  0
    0.7356    5.4803   -1.9211 H   0  0  0  0  0  0  0  0  0  0  0  0
   -1.3804    6.0229   -2.1770 C   0  0  0  0  0  0  0  0  0  0  0  0
   -1.1657    7.0210   -2.5881 H   0  0  0  0  0  0  0  0  0  0  0  0
   -2.7208    5.6149   -2.0198 C   0  0  0  0  0  0  0  0  0  0  0  0
   -3.5302    6.3009   -2.3126 H   0  0  0  0  0  0  0  0  0  0  0  0
   -3.0400    4.3479   -1.4942 C   0  0  0  0  0  3  0  0  0  0  0  0
   -4.0799    4.0171   -1.3578 H   0  0  0  0  0  0  0  0  0  0  0  0
   -1.9794    3.5087   -1.1484 C   0  0  0  0  0  0  0  0  0  0  0  0
   -1.9472    2.1520   -0.5537 C   0  0  0  0  0  0  0  0  0  0  0  0
    2.1650    0.3993    2.7598 C   0  0  0  0  0  0  0  0  0  0  0  0
    1.2771    0.9798    2.4162 H   0  0  0  0  0  0  0  0  0  0  0  0
    3.0253    1.1063    2.8151 H   0  0  0  0  0  0  0  0  0  0  0  0
    1.9006   -0.2369    4.1115 C   0  0  0  0  0  0  0  0  0  0  0  0
    1.6609    0.5403    4.8641 H   0  0  0  0  0  0  0  0  0  0  0  0
    2.7862   -0.8046    4.4595 H   0  0  0  0  0  0  0  0  0  0  0  0
    1.0446   -0.9380    4.0502 H   0  0  0  0  0  0  0  0  0  0  0  0
   -2.1651   -0.3993    2.7598 C   0  0  0  0  0  0  0  0  0  0  0  0
   -1.2773   -0.9800    2.4162 H   0  0  0  0  0  0  0  0  0  0  0  0
   -3.0255   -1.1061    2.8153 H   0  0  0  0  0  0  0  0  0  0  0  0
   -1.9003    0.2369    4.1115 C   0  0  0  0  0  0  0  0  0  0  0  0
   -1.6607   -0.5402    4.8641 H   0  0  0  0  0  0  0  0  0  0  0  0
   -2.7857    0.8049    4.4595 H   0  0  0  0  0  0  0  0  0  0  0  0
   -1.0442    0.9378    4.0500 H   0  0  0  0  0  0  0  0  0  0  0  0
  1 11  1  0  0  0  0
  3 35  2  0  0  0  0
  5 21  1  0  0  0  0
  6 35  1  0  0  0  0
  7 46  2  0  0  0  0
  8 11  2  0  0  0  0
  9 66  1  0  0  0  0
 10 59  1  0  0  0  0
 11  9  1  0  0  0  0
 12 11  1  0  0  0  0
 12 13  1  0  0  0  0
 13 14  1  0  0  0  0
 15 13  2  0  0  0  0
 15 16  1  0  0  0  0
 17 15  1  0  0  0  0
 18 17  1  0  0  0  0
 19 22  1  0  0  0  0
 19 17  2  0  0  0  0
 20 19  1  0  0  0  0
 21  1  2  0  0  0  0
 21 22  1  0  0  0  0
 22 12  2  0  0  0  0
 23  5  2  0  0  0  0
 23  2  1  0  0  0  0
 24 33  1  0  0  0  0
 24 23  1  0  0  0  0
 25 24  2  0  0  0  0
 26 25  1  0  0  0  0
 27 29  2  0  0  0  0
 27 25  1  0  0  0  0
 28 27  1  0  0  0  0
 29 31  1  0  0  0  0
 30 29  1  0  0  0  0
 31 32  1  0  0  0  0
 31 33  2  0  0  0  0
 33 34  1  0  0  0  0
 34  2  1  0  0  0  0
 34  6  2  0  0  0  0
 35 10  1  0  0  0  0
 36 35  1  0  0  0  0
 36 37  1  0  0  0  0
 37 38  1  0  0  0  0
 39 37  2  0  0  0  0
 39 40  1  0  0  0  0
 41 39  1  0  0  0  0
 42 41  1  0  0  0  0
 43 45  1  0  0  0  0
 43 41  2  0  0  0  0
 44 43  1  0  0  0  0
 45 36  2  0  0  0  0
 46  3  1  0  0  0  0
 46 45  1  0  0  0  0
 47  7  1  0  0  0  0
 47  4  2  0  0  0  0
 48 57  1  0  0  0  0
 48 47  1  0  0  0  0
 49 48  2  0  0  0  0
 50 49  1  0  0  0  0
 51 53  2  0  0  0  0
 51 49  1  0  0  0  0
 52 51  1  0  0  0  0
 53 55  1  0  0  0  0
 54 53  1  0  0  0  0
 55 56  1  0  0  0  0
 55 57  1  0  0  0  0
 57 58  2  0  0  0  0
 58  4  1  0  0  0  0
 58  8  1  0  0  0  0
 59 61  1  0  0  0  0
 59 62  1  0  0  0  0
 60 59  1  0  0  0  0
 62 64  1  0  0  0  0
 62 63  1  0  0  0  0
 65 62  1  0  0  0  0
 66 68  1  0  0  0  0
 66 69  1  0  0  0  0
 67 66  1  0  0  0  0
 69 71  1  0  0  0  0
 69 70  1  0  0  0  0
 72 69  1  0  0  0  0
M  END
