2,3,20,21
q = 0.0, confidence = 0.998

 36 37  0  0  0  0  0  0  0  0999 V2000
    6.4343   -0.6706    0.0566 Cl  0  0  0  0  0  0  0  0  0  0  0  0
    1.9065   -0.3505    0.0993 N   0  0  0  0  0  2  0  0  0  0  0  0
    0.5588    1.2692    1.5810 N   0  0  0  0  0  0  0  0  0  0  0  0
   -0.1006    2.0564    1.6472 H   0  0  0  0  0  0  0  0  0  0  0  0
    2.5241   -1.4101   -0.4816 C   0  0  0  0  0  3  0  0  0  0  0  0
    1.8547   -2.1446   -0.9524 H   0  0  0  0  0  0  0  0  0  0  0  0
    3.9118   -1.5473   -0.5195 C   0  0  0  0  0  0  0  0  0  0  0  0
    4.3691   -2.4179   -1.0081 H   0  0  0  0  0  0  0  0  0  0  0  0
    4.7048   -0.5484    0.0701 C   0  0  0  0  0  0  0  0  0  0  0  0
    4.0784    0.5537    0.6744 C   0  0  0  0  0  0  0  0  0  0  0  0
    4.6727    1.3533    1.1375 H   0  0  0  0  0  0  0  0  0  0  0  0
    2.6836    0.6243    0.6618 C   0  0  0  0  0  0  0  0  0  0  0  0
    1.9096    1.7786    1.2416 C   0  0  0  0  0  0  0  0  0  0  0  0
    2.4273    2.2069    2.1284 H   0  0  0  0  0  0  0  0  0  0  0  0
    1.8130    2.5863    0.4835 H   0  0  0  0  0  0  0  0  0  0  0  0
    0.5780    0.4902    2.8429 C   0  0  0  0  0  0  0  0  0  0  0  0
    0.5533    1.1461    3.7409 H   0  0  0  0  0  0  0  0  0  0  0  0
    1.5409   -0.0613    2.8733 H   0  0  0  0  0  0  0  0  0  0  0  0
   -6.4338    0.6702    0.0575 Cl  0  0  0  0  0  0  0  0  0  0  0  0
   -1.9060    0.3503    0.0996 N   0  0  0  0  0  2  0  0  0  0  0  0
   -0.5580   -1.2694    1.5810 N   0  0  0  0  0  0  0  0  0  0  0  0
    0.1014   -2.0566    1.6472 H   0  0  0  0  0  0  0  0  0  0  0  0
   -2.5237    1.4099   -0.4812 C   0  0  0  0  0  3  0  0  0  0  0  0
   -1.8545    2.1445   -0.9520 H   0  0  0  0  0  0  0  0  0  0  0  0
   -3.9114    1.5470   -0.5188 C   0  0  0  0  0  0  0  0  0  0  0  0
   -4.3688    2.4176   -1.0074 H   0  0  0  0  0  0  0  0  0  0  0  0
   -4.7043    0.5481    0.0708 C   0  0  0  0  0  0  0  0  0  0  0  0
   -4.0778   -0.5540    0.6750 C   0  0  0  0  0  0  0  0  0  0  0  0
   -4.6720   -1.3536    1.1381 H   0  0  0  0  0  0  0  0  0  0  0  0
   -2.6830   -0.6246    0.6621 C   0  0  0  0  0  0  0  0  0  0  0  0
   -1.9088   -1.7789    1.2418 C   0  0  0  0  0  0  0  0  0  0  0  0
   -2.4264   -2.2072    2.1287 H   0  0  0  0  0  0  0  0  0  0  0  0
   -1.8123   -2.5864    0.4836 H   0  0  0  0  0  0  0  0  0  0  0  0
   -0.5771   -0.4904    2.8429 C   0  0  0  0  0  0  0  0  0  0  0  0
   -0.5523   -1.1463    3.7410 H   0  0  0  0  0  0  0  0  0  0  0  0
   -1.5400    0.0610    2.8735 H   0  0  0  0  0  0  0  0  0  0  0  0
  1  9  1  0  0  0  0
  2 12  1  0  0  0  0
  3  4  1  0  0  0  0
  3 16  1  0  0  0  0
  5  2  1  0  0  0  0
  6  5  1  0  0  0  0
  7  5  1  0  0  0  0
  7  9  2  0  0  0  0
  8  7  1  0  0  0  0
  9 10  1  0  0  0  0
 10 11  1  0  0  0  0
 12 10  2  0  0  0  0
 12 13  1  0  0  0  0
 13  3  1  0  0  0  0
 13 14  1  0  0  0  0
 15 13  1  0  0  0  0
 16 34  1  0  0  0  0
 16 18  1  0  0  0  0
 16 17  1  0  0  0  0
 19 27  1  0  0  0  0
 20 30  1  0  0  0  0
 21 22  1  0  0  0  0
 21 34  1  0  0  0  0
 23 20  1  0  0  0  0
 24 23  1  0  0  0  0
 25 23  1  0  0  0  0
 25 27  2  0  0  0  0
 26 25  1  0  0  0  0
 27 28  1  0  0  0  0
 28 29  1  0  0  0  0
 30 28  2  0  0  0  0
 30 31  1  0  0  0  0
 31 21  1  0  0  0  0
 31 32  1  0  0  0  0
 33 31  1  0  0  0  0
 34 36  1  0  0  0  0
 34 35  1  0  0  0  0
M  END
