1,2,3,4
q = -2.0, confidence = 0.85

 48 52  0  0  0  0  0  0  0  0999 V2000
   -1.5817   -0.9926   -0.1670 N   0  0  0  0  0  2  0  0  0  0  0  0
   -1.2736    1.5036    0.0095 N   0  0  0  0  0  2  0  0  0  0  0  0
    1.2736    1.5037   -0.0083 N   0  0  0  0  0  2  0  0  0  0  0  0
    1.5819   -0.9924    0.1682 N   0  0  0  0  0  2  0  0  0  0  0  0
   -3.5325    1.9576    0.3732 O   0  0  0  0  0  0  0  0  0  0  0  0
    3.5321    1.9576   -0.3754 O   0  0  0  0  0  0  0  0  0  0  0  0
   -1.5970   -2.2961   -0.5447 C   0  0  0  0  0  3  0  0  0  0  0  0
   -0.6238   -2.7204   -0.8252 H   0  0  0  0  0  0  0  0  0  0  0  0
   -2.7646   -3.0329   -0.6161 C   0  0  0  0  0  0  0  0  0  0  0  0
   -2.7333   -4.0913   -0.9154 H   0  0  0  0  0  0  0  0  0  0  0  0
   -4.0071   -2.4091   -0.3132 C   0  0  0  0  0  0  0  0  0  0  0  0
   -5.2474   -3.1082   -0.3381 C   0  0  0  0  0  0  0  0  0  0  0  0
   -5.2438   -4.1829   -0.5800 H   0  0  0  0  0  0  0  0  0  0  0  0
   -6.4362   -2.4454   -0.0653 C   0  0  0  0  0  0  0  0  0  0  0  0
   -7.3901   -2.9959   -0.0867 H   0  0  0  0  0  0  0  0  0  0  0  0
   -6.4279   -1.0586    0.2380 C   0  0  0  0  0  0  0  0  0  0  0  0
   -7.3771   -0.5427    0.4508 H   0  0  0  0  0  0  0  0  0  0  0  0
   -5.2362   -0.3449    0.2685 C   0  0  0  0  0  0  0  0  0  0  0  0
   -5.1896    0.7310    0.4900 H   0  0  0  0  0  0  0  0  0  0  0  0
   -3.9981   -1.0014    0.0023 C   0  0  0  0  0  0  0  0  0  0  0  0
   -2.7322   -0.3212    0.0397 C   0  0  0  0  0  0  0  0  0  0  0  0
   -2.5796    1.1726    0.1853 C   0  0  0  0  0  0  0  0  0  0  0  0
   -0.7180    2.7748    0.0216 C   0  0  0  0  0  0  0  0  0  0  0  0
   -1.4210    3.9990    0.0561 C   0  0  0  0  0  0  0  0  0  0  0  0
   -2.5158    3.9656    0.1063 H   0  0  0  0  0  0  0  0  0  0  0  0
   -0.7033    5.2045    0.0301 C   0  0  0  0  0  0  0  0  0  0  0  0
   -1.2523    6.1595    0.0557 H   0  0  0  0  0  0  0  0  0  0  0  0
    0.7030    5.2046   -0.0298 C   0  0  0  0  0  0  0  0  0  0  0  0
    1.2521    6.1595   -0.0556 H   0  0  0  0  0  0  0  0  0  0  0  0
    1.4208    3.9991   -0.0555 C   0  0  0  0  0  0  0  0  0  0  0  0
    2.5157    3.9657   -0.1059 H   0  0  0  0  0  0  0  0  0  0  0  0
    0.7179    2.7748   -0.0207 C   0  0  0  0  0  0  0  0  0  0  0  0
    2.5794    1.1726   -0.1860 C   0  0  0  0  0  0  0  0  0  0  0  0
    2.7322   -0.3211   -0.0401 C   0  0  0  0  0  0  0  0  0  0  0  0
    3.9981   -1.0012   -0.0035 C   0  0  0  0  0  0  0  0  0  0  0  0
    5.2359   -0.3450   -0.2716 C   0  0  0  0  0  3  0  0  0  0  0  0
    5.1890    0.7308   -0.4938 H   0  0  0  0  0  0  0  0  0  0  0  0
    6.4276   -1.0586   -0.2418 C   0  0  0  0  0  0  0  0  0  0  0  0
    7.3766   -0.5429   -0.4561 H   0  0  0  0  0  0  0  0  0  0  0  0
    6.4363   -2.4451    0.0627 C   0  0  0  0  0  0  0  0  0  0  0  0
    7.3902   -2.9956    0.0834 H   0  0  0  0  0  0  0  0  0  0  0  0
    5.2478   -3.1078    0.3373 C   0  0  0  0  0  0  0  0  0  0  0  0
    5.2445   -4.1822    0.5802 H   0  0  0  0  0  0  0  0  0  0  0  0
    4.0074   -2.4087    0.3133 C   0  0  0  0  0  0  0  0  0  0  0  0
    2.7653   -3.0322    0.6182 C   0  0  0  0  0  0  0  0  0  0  0  0
    2.7344   -4.0902    0.9186 H   0  0  0  0  0  0  0  0  0  0  0  0
    1.5977   -2.2956    0.5473 C   0  0  0  0  0  0  0  0  0  0  0  0
    0.6247   -2.7194    0.8295 H   0  0  0  0  0  0  0  0  0  0  0  0
  1 21  1  0  0  0  0
  2 23  1  0  0  0  0
  2 22  1  0  0  0  0
  4 47  1  0  0  0  0
  6 33  2  0  0  0  0
  7  1  1  0  0  0  0
  8  7  1  0  0  0  0
  9  7  1  0  0  0  0
  9 11  2  0  0  0  0
 10  9  1  0  0  0  0
 11 20  1  0  0  0  0
 12 11  1  0  0  0  0
 12 14  2  0  0  0  0
 13 12  1  0  0  0  0
 14 16  1  0  0  0  0
 15 14  1  0  0  0  0
 16 18  2  0  0  0  0
 16 17  1  0  0  0  0
 18 19  1  0  0  0  0
 20 21  2  0  0  0  0
 20 18  1  0  0  0  0
 21 22  1  0  0  0  0
 22  5  2  0  0  0  0
 23 24  1  0  0  0  0
 24 25  1  0  0  0  0
 26 27  1  0  0  0  0
 26 24  2  0  0  0  0
 28 26  1  0  0  0  0
 29 28  1  0  0  0  0
 30 28  2  0  0  0  0
 30 32  1  0  0  0  0
 31 30  1  0  0  0  0
 32  3  1  0  0  0  0
 32 23  2  0  0  0  0
 33 34  1  0  0  0  0
 33  3  1  0  0  0  0
 34 35  2  0  0  0  0
 34  4  1  0  0  0  0
 35 44  1  0  0  0  0
 36 38  1  0  0  0  0
 36 35  1  0  0  0  0
 37 36  1  0  0  0  0
 38 40  2  0  0  0  0
 39 38  1  0  0  0  0
 40 41  1  0  0  0  0
 40 42  1  0  0  0  0
 42 43  1  0  0  0  0
 44 42  2  0  0  0  0
 44 45  1  0  0  0  0
 45 46  1  0  0  0  0
 47 45  2  0  0  0  0
 47 48  1  0  0  0  0
M  END
