3,4,5,6
q = 0.0, confidence = 0.996

 46 46  0  0  0  0  0  0  0  0999 V2000
   -2.1527    1.5132   -0.9709 O   0  0  0  0  0  0  0  0  0  0  0  0
    2.1908   -1.3655   -1.1159 O   0  0  0  0  0  0  0  0  0  0  0  0
   -2.4994   -1.2800   -0.3663 N   0  0  0  0  0  0  0  0  0  0  0  0
    0.0003   -2.7897    0.1064 N   0  0  0  0  0  0  0  0  0  0  0  0
    2.5118    1.3180   -0.1336 N   0  0  0  0  0  0  0  0  0  0  0  0
    0.0063    2.7556    0.4860 N   0  0  0  0  0  0  0  0  0  0  0  0
   -1.3414   -3.3764    0.2059 C   0  0  0  0  0  0  0  0  0  0  0  0
   -1.6859   -3.2507    1.2521 H   0  0  0  0  0  0  0  0  0  0  0  0
   -1.3304   -4.4715   -0.0118 H   0  0  0  0  0  0  0  0  0  0  0  0
   -2.3267   -2.6895   -0.7345 C   0  0  0  0  0  0  0  0  0  0  0  0
   -1.9485   -2.7168   -1.7769 H   0  0  0  0  0  0  0  0  0  0  0  0
   -3.2953   -3.2476   -0.7287 H   0  0  0  0  0  0  0  0  0  0  0  0
   -3.3397   -0.5418   -1.3114 C   0  0  0  0  0  0  0  0  0  0  0  0
   -4.3721   -0.9640   -1.3877 H   0  0  0  0  0  0  0  0  0  0  0  0
   -2.8694   -0.6228   -2.3125 H   0  0  0  0  0  0  0  0  0  0  0  0
   -3.4461    0.9178   -0.9227 C   0  0  0  0  0  0  0  0  0  0  0  0
   -4.1330    1.4442   -1.6259 H   0  0  0  0  0  0  0  0  0  0  0  0
   -3.8625    1.0243    0.1079 H   0  0  0  0  0  0  0  0  0  0  0  0
   -2.1924    2.8904   -0.6075 C   0  0  0  0  0  0  0  0  0  0  0  0
   -2.7020    2.9956    0.3800 H   0  0  0  0  0  0  0  0  0  0  0  0
   -2.7829    3.4644   -1.3595 H   0  0  0  0  0  0  0  0  0  0  0  0
   -0.7846    3.4462   -0.5350 C   0  0  0  0  0  0  0  0  0  0  0  0
   -0.2921    3.3158   -1.5204 H   0  0  0  0  0  0  0  0  0  0  0  0
   -0.8586    4.5446   -0.3373 H   0  0  0  0  0  0  0  0  0  0  0  0
    1.3446    3.3213    0.6942 C   0  0  0  0  0  0  0  0  0  0  0  0
    1.6651    3.0562    1.7217 H   0  0  0  0  0  0  0  0  0  0  0  0
    1.3372    4.4357    0.6250 H   0  0  0  0  0  0  0  0  0  0  0  0
    2.3524    2.7652   -0.3067 C   0  0  0  0  0  0  0  0  0  0  0  0
    2.0020    2.9390   -1.3449 H   0  0  0  0  0  0  0  0  0  0  0  0
    3.3216    3.3117   -0.1985 H   0  0  0  0  0  0  0  0  0  0  0  0
    3.3821    0.7141   -1.1434 C   0  0  0  0  0  0  0  0  0  0  0  0
    4.4152    1.1416   -1.1308 H   0  0  0  0  0  0  0  0  0  0  0  0
    2.9420    0.9310   -2.1383 H   0  0  0  0  0  0  0  0  0  0  0  0
    3.4814   -0.7848   -0.9540 C   0  0  0  0  0  0  0  0  0  0  0  0
    4.1873   -1.2119   -1.7042 H   0  0  0  0  0  0  0  0  0  0  0  0
    3.8712   -1.0308    0.0630 H   0  0  0  0  0  0  0  0  0  0  0  0
    2.2234   -2.7797   -0.9437 C   0  0  0  0  0  0  0  0  0  0  0  0
    2.7096   -3.0204    0.0317 H   0  0  0  0  0  0  0  0  0  0  0  0
    2.8321   -3.2465   -1.7533 H   0  0  0  0  0  0  0  0  0  0  0  0
    0.8148   -3.3369   -0.9806 C   0  0  0  0  0  0  0  0  0  0  0  0
    0.3452   -3.0725   -1.9503 H   0  0  0  0  0  0  0  0  0  0  0  0
    0.8852   -4.4521   -0.9327 H   0  0  0  0  0  0  0  0  0  0  0  0
   -2.9233   -1.2383    0.5710 H   0  0  0  0  0  0  0  0  0  0  0  0
    0.4968   -2.8949    1.0031 H   0  0  0  0  0  0  0  0  0  0  0  0
    2.8935    1.1380    0.8054 H   0  0  0  0  0  0  0  0  0  0  0  0
   -0.5096    2.7404    1.3775 H   0  0  0  0  0  0  0  0  0  0  0  0
  1 16  1  0  0  0  0
  1 19  1  0  0  0  0
  2 34  1  0  0  0  0
  2 37  1  0  0  0  0
  3 43  1  0  0  0  0
  4  7  1  0  0  0  0
  4 44  1  0  0  0  0
  5 45  1  0  0  0  0
  6 25  1  0  0  0  0
  6 46  1  0  0  0  0
  7  8  1  0  0  0  0
  9  7  1  0  0  0  0
 10 12  1  0  0  0  0
 10  3  1  0  0  0  0
 10  7  1  0  0  0  0
 11 10  1  0  0  0  0
 13 16  1  0  0  0  0
 13  3  1  0  0  0  0
 14 13  1  0  0  0  0
 15 13  1  0  0  0  0
 16 18  1  0  0  0  0
 17 16  1  0  0  0  0
 19 22  1  0  0  0  0
 19 20  1  0  0  0  0
 21 19  1  0  0  0  0
 22 24  1  0  0  0  0
 22  6  1  0  0  0  0
 23 22  1  0  0  0  0
 25 26  1  0  0  0  0
 27 25  1  0  0  0  0
 28 30  1  0  0  0  0
 28  5  1  0  0  0  0
 28 25  1  0  0  0  0
 29 28  1  0  0  0  0
 31 32  1  0  0  0  0
 31 34  1  0  0  0  0
 31  5  1  0  0  0  0
 33 31  1  0  0  0  0
 34 36  1  0  0  0  0
 35 34  1  0  0  0  0
 37 38  1  0  0  0  0
 39 37  1  0  0  0  0
 40 37  1  0  0  0  0
 40 42  1  0  0  0  0
 40  4  1  0  0  0  0
 41 40  1  0  0  0  0
M  END
