1,4,5
q = 0.0, confidence = 0.988

 50 51  0  0  0  0  0  0  0  0999 V2000
   -1.3574    0.7669   -0.0582 N   0  0  0  0  0  2  0  0  0  0  0  0
   -5.2685    0.9330   -1.6488 N   0  0  0  0  0  0  0  0  0  0  0  0
   -0.7834    0.6151    2.5153 N   0  0  0  0  0  0  0  0  0  0  0  0
    1.9628    0.3106    2.0446 N   0  0  0  0  0  0  0  0  0  0  0  0
    0.5747    2.5968    1.1362 N   0  0  0  0  0  0  0  0  0  0  0  0
   -1.5707    1.0042   -1.3800 C   0  0  0  0  0  3  0  0  0  0  0  0
   -0.6719    1.0889   -2.0090 H   0  0  0  0  0  0  0  0  0  0  0  0
   -2.8403    1.0692   -1.9383 C   0  0  0  0  0  0  0  0  0  0  0  0
   -2.9153    1.2346   -3.0195 H   0  0  0  0  0  0  0  0  0  0  0  0
   -3.9965    0.8766   -1.1295 C   0  0  0  0  0  0  0  0  0  0  0  0
   -3.7569    0.5994    0.2463 C   0  0  0  0  0  0  0  0  0  0  0  0
   -4.5793    0.3851    0.9398 H   0  0  0  0  0  0  0  0  0  0  0  0
   -2.4531    0.5383    0.7283 C   0  0  0  0  0  0  0  0  0  0  0  0
   -6.4052    0.6154   -0.8069 C   0  0  0  0  0  0  0  0  0  0  0  0
   -6.3739   -0.4317   -0.4269 H   0  0  0  0  0  0  0  0  0  0  0  0
   -7.3369    0.7408   -1.3870 H   0  0  0  0  0  0  0  0  0  0  0  0
   -6.4637    1.2923    0.0737 H   0  0  0  0  0  0  0  0  0  0  0  0
   -5.4558    1.1081   -3.0774 C   0  0  0  0  0  0  0  0  0  0  0  0
   -5.0276    0.2667   -3.6683 H   0  0  0  0  0  0  0  0  0  0  0  0
   -4.9842    2.0478   -3.4377 H   0  0  0  0  0  0  0  0  0  0  0  0
   -6.5365    1.1686   -3.2987 H   0  0  0  0  0  0  0  0  0  0  0  0
   -2.1117    0.0737    2.1202 C   0  0  0  0  0  0  0  0  0  0  0  0
   -2.9018    0.3353    2.8589 H   0  0  0  0  0  0  0  0  0  0  0  0
   -2.0337   -1.0351    2.0679 H   0  0  0  0  0  0  0  0  0  0  0  0
   -0.0219   -0.2705    3.4353 C   0  0  0  0  0  0  0  0  0  0  0  0
   -0.1145   -1.2923    3.0222 H   0  0  0  0  0  0  0  0  0  0  0  0
   -0.4388   -0.2567    4.4700 H   0  0  0  0  0  0  0  0  0  0  0  0
    1.4480    0.1535    3.4409 C   0  0  0  0  0  0  0  0  0  0  0  0
    1.5784    1.1096    3.9874 H   0  0  0  0  0  0  0  0  0  0  0  0
    2.0496   -0.5964    3.9969 H   0  0  0  0  0  0  0  0  0  0  0  0
    2.7933   -0.8540    1.6567 C   0  0  0  0  0  0  0  0  0  0  0  0
    3.7349   -0.8703    2.2514 H   0  0  0  0  0  0  0  0  0  0  0  0
    3.0197   -0.8030    0.5772 H   0  0  0  0  0  0  0  0  0  0  0  0
    2.2210   -1.7812    1.8260 H   0  0  0  0  0  0  0  0  0  0  0  0
    2.7308    1.5606    1.8382 C   0  0  0  0  0  0  0  0  0  0  0  0
    3.1554    1.4928    0.8198 H   0  0  0  0  0  0  0  0  0  0  0  0
    3.5777    1.6496    2.5607 H   0  0  0  0  0  0  0  0  0  0  0  0
    1.8241    2.7782    1.9455 C   0  0  0  0  0  0  0  0  0  0  0  0
    1.5423    2.9615    3.0014 H   0  0  0  0  0  0  0  0  0  0  0  0
    2.3707    3.6861    1.6139 H   0  0  0  0  0  0  0  0  0  0  0  0
    0.6565    3.3729   -0.1203 C   0  0  0  0  0  0  0  0  0  0  0  0
    0.7561    4.4605    0.0967 H   0  0  0  0  0  0  0  0  0  0  0  0
   -0.2605    3.2018   -0.7124 H   0  0  0  0  0  0  0  0  0  0  0  0
    1.5100    3.0138   -0.7189 H   0  0  0  0  0  0  0  0  0  0  0  0
   -0.6309    3.0073    1.8990 C   0  0  0  0  0  0  0  0  0  0  0  0
   -1.4786    3.0158    1.1883 H   0  0  0  0  0  0  0  0  0  0  0  0
   -0.5255    4.0409    2.3063 H   0  0  0  0  0  0  0  0  0  0  0  0
   -0.8966    2.0151    3.0224 C   0  0  0  0  0  0  0  0  0  0  0  0
   -0.1683    2.1566    3.8438 H   0  0  0  0  0  0  0  0  0  0  0  0
   -1.9007    2.1928    3.4627 H   0  0  0  0  0  0  0  0  0  0  0  0
  1 13  1  0  0  0  0
  2 10  1  0  0  0  0
  2 14  1  0  0  0  0
  3 48  1  0  0  0  0
  3 25  1  0  0  0  0
  4 28  1  0  0  0  0
  5 45  1  0  0  0  0
  5 38  1  0  0  0  0
  6  1  1  0  0  0  0
  7  6  1  0  0  0  0
  8  6  1  0  0  0  0
  8 10  2  0  0  0  0
  9  8  1  0  0  0  0
 10 11  1  0  0  0  0
 11 13  2  0  0  0  0
 11 12  1  0  0  0  0
 13 22  1  0  0  0  0
 14 15  1  0  0  0  0
 14 17  1  0  0  0  0
 16 14  1  0  0  0  0
 18  2  1  0  0  0  0
 19 18  1  0  0  0  0
 20 18  1  0  0  0  0
 21 18  1  0  0  0  0
 22  3  1  0  0  0  0
 22 23  1  0  0  0  0
 24 22  1  0  0  0  0
 25 28  1  0  0  0  0
 25 27  1  0  0  0  0
 26 25  1  0  0  0  0
 28 29  1  0  0  0  0
 28 30  1  0  0  0  0
 31 34  1  0  0  0  0
 31  4  1  0  0  0  0
 31 32  1  0  0  0  0
 33 31  1  0  0  0  0
 35 38  1  0  0  0  0
 35  4  1  0  0  0  0
 35 37  1  0  0  0  0
 36 35  1  0  0  0  0
 38 39  1  0  0  0  0
 40 38  1  0  0  0  0
 41 42  1  0  0  0  0
 41  5  1  0  0  0  0
 43 41  1  0  0  0  0
 44 41  1  0  0  0  0
 45 47  1  0  0  0  0
 45 48  1  0  0  0  0
 46 45  1  0  0  0  0
 48 50  1  0  0  0  0
 48 49  1  0  0  0  0
M  END
