1,3,4
q = 0.0, confidence = 0.984

 42 43  0  0  0  0  0  0  0  0999 V2000
    1.4632    0.7669   -0.3668 N   0  0  0  0  0  2  0  0  0  0  0  0
    1.2515    0.8001    2.2660 N   0  0  0  0  0  0  0  0  0  0  0  0
   -1.5249    0.4432    2.1899 N   0  0  0  0  0  0  0  0  0  0  0  0
   -0.3093    2.6678    0.9432 N   0  0  0  0  0  0  0  0  0  0  0  0
    1.4754    0.9275   -1.7188 C   0  0  0  0  0  3  0  0  0  0  0  0
    0.4950    0.9409   -2.2188 H   0  0  0  0  0  0  0  0  0  0  0  0
    5.3876    1.0311   -2.6320 Cl  0  0  0  0  0  0  0  0  0  0  0  0
    2.6602    1.0097   -2.4484 C   0  0  0  0  0  0  0  0  0  0  0  0
    2.6246    1.1268   -3.5395 H   0  0  0  0  0  0  0  0  0  0  0  0
    3.8862    0.9150   -1.7688 C   0  0  0  0  0  0  0  0  0  0  0  0
    3.8864    0.7068   -0.3791 C   0  0  0  0  0  0  0  0  0  0  0  0
    4.8292    0.5877    0.1716 H   0  0  0  0  0  0  0  0  0  0  0  0
    2.6623    0.6211    0.2843 C   0  0  0  0  0  0  0  0  0  0  0  0
    2.5234    0.2423    1.7334 C   0  0  0  0  0  0  0  0  0  0  0  0
    2.4568   -0.8689    1.7598 H   0  0  0  0  0  0  0  0  0  0  0  0
    3.4024    0.5566    2.3380 H   0  0  0  0  0  0  0  0  0  0  0  0
    0.6358   -0.0210    3.3426 C   0  0  0  0  0  0  0  0  0  0  0  0
    0.6906   -1.0701    2.9971 H   0  0  0  0  0  0  0  0  0  0  0  0
    1.1877    0.0747    4.3066 H   0  0  0  0  0  0  0  0  0  0  0  0
   -0.8270    0.3923    3.5134 C   0  0  0  0  0  0  0  0  0  0  0  0
   -1.3377   -0.3193    4.1957 H   0  0  0  0  0  0  0  0  0  0  0  0
   -0.9004    1.3847    4.0023 H   0  0  0  0  0  0  0  0  0  0  0  0
   -2.3835   -0.7516    2.0042 C   0  0  0  0  0  0  0  0  0  0  0  0
   -3.2360   -0.7239    2.7196 H   0  0  0  0  0  0  0  0  0  0  0  0
   -1.7819   -1.6614    2.1648 H   0  0  0  0  0  0  0  0  0  0  0  0
   -2.7534   -0.7836    0.9644 H   0  0  0  0  0  0  0  0  0  0  0  0
   -2.3351    1.6693    1.9992 C   0  0  0  0  0  0  0  0  0  0  0  0
   -3.0794    1.8025    2.8203 H   0  0  0  0  0  0  0  0  0  0  0  0
   -2.8900    1.5243    1.0542 H   0  0  0  0  0  0  0  0  0  0  0  0
   -1.4431    2.8972    1.8984 C   0  0  0  0  0  0  0  0  0  0  0  0
   -2.0430    3.7749    1.5790 H   0  0  0  0  0  0  0  0  0  0  0  0
   -1.0259    3.1582    2.8911 H   0  0  0  0  0  0  0  0  0  0  0  0
   -0.5729    3.3536   -0.3413 C   0  0  0  0  0  0  0  0  0  0  0  0
   -0.6658    4.4516   -0.1854 H   0  0  0  0  0  0  0  0  0  0  0  0
   -1.4903    2.9437   -0.7951 H   0  0  0  0  0  0  0  0  0  0  0  0
    0.2617    3.1561   -1.0381 H   0  0  0  0  0  0  0  0  0  0  0  0
    0.9789    3.1426    1.5091 C   0  0  0  0  0  0  0  0  0  0  0  0
    1.7255    3.1129    0.6933 H   0  0  0  0  0  0  0  0  0  0  0  0
    0.9076    4.2007    1.8545 H   0  0  0  0  0  0  0  0  0  0  0  0
    1.4094    2.2349    2.6527 C   0  0  0  0  0  0  0  0  0  0  0  0
    2.4606    2.4493    2.9391 H   0  0  0  0  0  0  0  0  0  0  0  0
    0.7969    2.4299    3.5535 H   0  0  0  0  0  0  0  0  0  0  0  0
  1 13  1  0  0  0  0
  2 40  1  0  0  0  0
  2 17  1  0  0  0  0
  3 20  1  0  0  0  0
  4 37  1  0  0  0  0
  4 30  1  0  0  0  0
  5  1  1  0  0  0  0
  6  5  1  0  0  0  0
  7 10  1  0  0  0  0
  8 10  2  0  0  0  0
  8  5  1  0  0  0  0
  9  8  1  0  0  0  0
 10 11  1  0  0  0  0
 11 12  1  0  0  0  0
 11 13  2  0  0  0  0
 13 14  1  0  0  0  0
 14 15  1  0  0  0  0
 14  2  1  0  0  0  0
 14 16  1  0  0  0  0
 17 20  1  0  0  0  0
 17 19  1  0  0  0  0
 18 17  1  0  0  0  0
 20 22  1  0  0  0  0
 20 21  1  0  0  0  0
 23 25  1  0  0  0  0
 23  3  1  0  0  0  0
 23 24  1  0  0  0  0
 26 23  1  0  0  0  0
 27  3  1  0  0  0  0
 27 28  1  0  0  0  0
 29 27  1  0  0  0  0
 30 27  1  0  0  0  0
 30 32  1  0  0  0  0
 31 30  1  0  0  0  0
 33 34  1  0  0  0  0
 33  4  1  0  0  0  0
 35 33  1  0  0  0  0
 36 33  1  0  0  0  0
 37 39  1  0  0  0  0
 37 40  1  0  0  0  0
 38 37  1  0  0  0  0
 40 41  1  0  0  0  0
 40 42  1  0  0  0  0
M  END
