1,5,9,12
q = -1.0, confidence = 0.254

 45 44  0  0  1  0  0  0  0  0999 V2000
    1.4258   -1.6724   -0.0895 N   0  0  0  0  0  2  0  0  0  0  0  0
    1.2103   -2.9598   -0.3097 O   0  0  0  0  0  0  0  0  0  0  0  0
    2.6316   -1.2592    0.2140 C   0  0  2  0  0  3  0  0  0  0  0  0
    2.7632    0.2231    0.4926 C   0  0  0  0  0  0  0  0  0  0  0  0
    1.4056    0.8154    0.4042 N   0  0  0  0  0  2  0  0  0  0  0  0
    1.2787    2.1412    0.9737 C   0  0  0  0  0  0  0  0  0  0  0  0
   -0.0001    2.8703    0.5274 C   0  0  2  0  0  0  0  0  0  0  0  0
   -1.2802    2.1420    0.9713 C   0  0  0  0  0  0  0  0  0  0  0  0
   -1.4069    0.8159    0.4024 N   0  0  0  0  0  2  0  0  0  0  0  0
   -2.7642    0.2225    0.4932 C   0  0  0  0  0  0  0  0  0  0  0  0
   -2.6312   -1.2596    0.2148 C   0  0  2  0  0  3  0  0  0  0  0  0
   -1.4251   -1.6737   -0.0905 N   0  0  0  0  0  2  0  0  0  0  0  0
   -1.2070   -2.9570   -0.3141 O   0  0  0  0  0  1  0  0  0  0  0  0
    3.7570   -2.2355    0.2600 C   0  0  0  0  0  0  0  0  0  0  0  0
    3.3760    0.4015    1.9020 C   0  0  0  0  0  0  0  0  0  0  0  0
    3.6771    0.8568   -0.5852 C   0  0  0  0  0  0  0  0  0  0  0  0
   -3.6800    0.8554   -0.5835 C   0  0  0  0  0  0  0  0  0  0  0  0
   -3.3749    0.4019    1.9033 C   0  0  0  0  0  0  0  0  0  0  0  0
   -3.7555   -2.2373    0.2593 C   0  0  0  0  0  0  0  0  0  0  0  0
    0.0018    3.1752   -0.9103 C   0  0  0  0  0  0  0  0  0  0  0  0
    0.0038    3.4816   -2.0407 N   0  0  0  0  0  0  0  0  0  0  0  0
    1.2647    2.1232    2.0908 H   0  0  0  0  0  0  0  0  0  0  0  0
    2.1486    2.7745    0.6832 H   0  0  0  0  0  0  0  0  0  0  0  0
   -0.0004    3.8525    1.0499 H   0  0  0  0  0  0  0  0  0  0  0  0
   -1.2684    2.1245    2.0884 H   0  0  0  0  0  0  0  0  0  0  0  0
   -2.1493    2.7754    0.6787 H   0  0  0  0  0  0  0  0  0  0  0  0
    4.7295   -1.7535    0.4646 H   0  0  0  0  0  0  0  0  0  0  0  0
    3.5569   -3.0059    1.0349 H   0  0  0  0  0  0  0  0  0  0  0  0
    3.8104   -2.7900   -0.7002 H   0  0  0  0  0  0  0  0  0  0  0  0
    3.5742    1.4686    2.1202 H   0  0  0  0  0  0  0  0  0  0  0  0
    2.6905    0.0022    2.6757 H   0  0  0  0  0  0  0  0  0  0  0  0
    4.3431   -0.1312    1.9833 H   0  0  0  0  0  0  0  0  0  0  0  0
    3.7926    1.9442   -0.4033 H   0  0  0  0  0  0  0  0  0  0  0  0
    4.6906    0.4084   -0.5773 H   0  0  0  0  0  0  0  0  0  0  0  0
    3.2274    0.7190   -1.5876 H   0  0  0  0  0  0  0  0  0  0  0  0
   -4.6927    0.4052   -0.5742 H   0  0  0  0  0  0  0  0  0  0  0  0
   -3.7973    1.9427   -0.4016 H   0  0  0  0  0  0  0  0  0  0  0  0
   -3.2314    0.7179   -1.5864 H   0  0  0  0  0  0  0  0  0  0  0  0
   -4.3408   -0.1326    1.9866 H   0  0  0  0  0  0  0  0  0  0  0  0
   -2.6876    0.0043    2.6763 H   0  0  0  0  0  0  0  0  0  0  0  0
   -3.5749    1.4688    2.1209 H   0  0  0  0  0  0  0  0  0  0  0  0
   -3.8160   -2.7821   -0.7063 H   0  0  0  0  0  0  0  0  0  0  0  0
   -3.5483   -3.0157    1.0242 H   0  0  0  0  0  0  0  0  0  0  0  0
   -4.7270   -1.7586    0.4759 H   0  0  0  0  0  0  0  0  0  0  0  0
    0.0158   -3.0448   -0.3674 H   0  0  0  0  0  0  0  0  0  0  0  0
  2  1  1  0  0  0  0
  3  1  1  6  0  0  0
  3 14  1  0  0  0  0
  3  4  1  0  0  0  0
  4 15  1  0  0  0  0
  5  4  1  0  0  0  0
  5  6  1  0  0  0  0
  6 22  1  0  0  0  0
  7  8  1  0  0  0  0
  7  6  1  0  0  0  0
  7 24  1  1  0  0  0
  8 25  1  0  0  0  0
  9 10  1  0  0  0  0
  9  8  1  0  0  0  0
 10 18  1  0  0  0  0
 11 12  1  6  0  0  0
 11 19  1  0  0  0  0
 11 10  1  0  0  0  0
 13 12  1  0  0  0  0
 14 27  1  0  0  0  0
 14 28  1  0  0  0  0
 15 32  1  0  0  0  0
 15 30  1  0  0  0  0
 15 31  1  0  0  0  0
 16 34  1  0  0  0  0
 16 33  1  0  0  0  0
 16  4  1  0  0  0  0
 17 36  1  0  0  0  0
 17 37  1  0  0  0  0
 17 10  1  0  0  0  0
 18 39  1  0  0  0  0
 18 41  1  0  0  0  0
 18 40  1  0  0  0  0
 19 44  1  0  0  0  0
 19 43  1  0  0  0  0
 20  7  1  0  0  0  0
 21 20  3  0  0  0  0
 23  6  1  0  0  0  0
 26  8  1  0  0  0  0
 29 14  1  0  0  0  0
 35 16  1  0  0  0  0
 38 17  1  0  0  0  0
 42 19  1  0  0  0  0
 45  2  1  0  0  0  0
M  END
