1,2,3,4
q = -2.0, confidence = 0.96

 84 88  0  0  0  0  0  0  0  0999 V2000
   -1.1821    1.5971   -0.2153 N   0  0  0  0  0  2  0  0  0  0  0  0
    1.4117    1.0414   -0.0933 N   0  0  0  0  0  0  0  0  0  0  0  0
    1.2621   -1.4409   -0.1826 N   0  0  0  0  0  0  0  0  0  0  0  0
   -1.7074   -1.2192   -0.4371 N   0  0  0  0  0  0  0  0  0  0  0  0
   -2.5490    1.6730   -0.0679 C   0  0  0  0  0  0  0  0  0  0  0  0
   -2.9998    3.0516   -0.0219 C   0  0  0  0  0  0  0  0  0  0  0  0
   -1.8646    3.8300   -0.1708 C   0  0  0  0  0  0  0  0  0  0  0  0
   -0.7445    2.9102   -0.2652 C   0  0  0  0  0  0  0  0  0  0  0  0
    0.5940    3.3095   -0.3004 C   0  0  0  0  0  0  0  0  0  0  0  0
    0.8259    4.3814   -0.3513 H   0  0  0  0  0  0  0  0  0  0  0  0
    1.6307    2.3929   -0.1837 C   0  0  0  0  0  0  0  0  0  0  0  0
    3.0491    2.6630   -0.0567 C   0  0  0  0  0  0  0  0  0  0  0  0
    3.6841    1.4379    0.1323 C   0  0  0  0  0  0  0  0  0  0  0  0
    2.6299    0.4353    0.1072 C   0  0  0  0  0  3  0  0  0  0  0  0
    2.5280   -0.9735    0.1404 C   0  0  0  0  0  3  0  0  0  0  0  0
    3.4567   -2.0690    0.3128 C   0  0  0  0  0  0  0  0  0  0  0  0
    2.7432   -3.2175   -0.0102 C   0  0  0  0  0  0  0  0  0  0  0  0
    1.3869   -2.8025   -0.3295 C   0  0  0  0  0  0  0  0  0  0  0  0
    0.4316   -3.7184   -0.7899 C   0  0  0  0  0  0  0  0  0  0  0  0
    0.8354   -4.7242   -0.9805 H   0  0  0  0  0  0  0  0  0  0  0  0
   -0.9282   -3.5855   -1.0106 C   0  0  0  0  0  0  0  0  0  0  0  0
   -1.4085   -4.5089   -1.3657 H   0  0  0  0  0  0  0  0  0  0  0  0
   -1.8621   -2.5599   -0.7712 C   0  0  0  0  0  0  0  0  0  0  0  0
   -3.2801   -2.9271   -0.8003 C   0  0  0  0  0  0  0  0  0  0  0  0
   -3.9873   -1.8043   -0.4340 C   0  0  0  0  0  0  0  0  0  0  0  0
   -3.0042   -0.7513   -0.2528 C   0  0  0  0  0  3  0  0  0  0  0  0
   -3.3917    0.5671   -0.0451 C   0  0  0  0  0  0  0  0  0  0  0  0
   -4.4670    0.7586    0.0652 H   0  0  0  0  0  0  0  0  0  0  0  0
   -4.4167    3.4964    0.1928 C   0  0  0  0  0  0  0  0  0  0  0  0
   -5.1029    2.8816   -0.4292 H   0  0  0  0  0  0  0  0  0  0  0  0
   -4.5292    4.5371   -0.1774 H   0  0  0  0  0  0  0  0  0  0  0  0
   -4.8648    3.4277    1.6630 C   0  0  0  0  0  0  0  0  0  0  0  0
   -5.9146    3.7654    1.7807 H   0  0  0  0  0  0  0  0  0  0  0  0
   -4.2241    4.0673    2.3031 H   0  0  0  0  0  0  0  0  0  0  0  0
   -4.7913    2.3934    2.0562 H   0  0  0  0  0  0  0  0  0  0  0  0
   -1.7567    5.3267   -0.1498 C   0  0  0  0  0  0  0  0  0  0  0  0
   -0.9760    5.6576   -0.8678 H   0  0  0  0  0  0  0  0  0  0  0  0
   -2.7082    5.7629   -0.5211 H   0  0  0  0  0  0  0  0  0  0  0  0
   -1.4464    5.8989    1.2442 C   0  0  0  0  0  0  0  0  0  0  0  0
   -1.3729    7.0053    1.2188 H   0  0  0  0  0  0  0  0  0  0  0  0
   -0.4893    5.4990    1.6360 H   0  0  0  0  0  0  0  0  0  0  0  0
   -2.2379    5.6241    1.9702 H   0  0  0  0  0  0  0  0  0  0  0  0
    3.6659    4.0252   -0.1776 C   0  0  0  0  0  0  0  0  0  0  0  0
    4.6438    4.0367    0.3476 H   0  0  0  0  0  0  0  0  0  0  0  0
    3.0310    4.7661    0.3547 H   0  0  0  0  0  0  0  0  0  0  0  0
    3.8625    4.4802   -1.6342 C   0  0  0  0  0  0  0  0  0  0  0  0
    4.3063    5.4955   -1.6825 H   0  0  0  0  0  0  0  0  0  0  0  0
    2.8970    4.5001   -2.1789 H   0  0  0  0  0  0  0  0  0  0  0  0
    4.5331    3.7863   -2.1798 H   0  0  0  0  0  0  0  0  0  0  0  0
    5.1714    1.2455    0.1971 C   0  0  0  0  0  0  0  0  0  0  0  0
    5.4401    0.5234    0.9918 H   0  0  0  0  0  0  0  0  0  0  0  0
    5.6369    2.2052    0.5035 H   0  0  0  0  0  0  0  0  0  0  0  0
    5.7787    0.8037   -1.1455 C   0  0  0  0  0  0  0  0  0  0  0  0
    6.8730    0.6438   -1.0606 H   0  0  0  0  0  0  0  0  0  0  0  0
    5.6025    1.5691   -1.9278 H   0  0  0  0  0  0  0  0  0  0  0  0
    5.3193   -0.1391   -1.5056 H   0  0  0  0  0  0  0  0  0  0  0  0
    4.8489   -2.0398    0.8737 C   0  0  0  0  0  0  0  0  0  0  0  0
    5.4894   -1.3343    0.3107 H   0  0  0  0  0  0  0  0  0  0  0  0
    5.3103   -3.0371    0.7235 H   0  0  0  0  0  0  0  0  0  0  0  0
    4.8799   -1.6923    2.3713 C   0  0  0  0  0  0  0  0  0  0  0  0
    5.9194   -1.6677    2.7575 H   0  0  0  0  0  0  0  0  0  0  0  0
    4.3105   -2.4386    2.9612 H   0  0  0  0  0  0  0  0  0  0  0  0
    4.4174   -0.7033    2.5653 H   0  0  0  0  0  0  0  0  0  0  0  0
    3.2227   -4.6387    0.0561 C   0  0  0  0  0  0  0  0  0  0  0  0
    4.3257   -4.6574   -0.0667 H   0  0  0  0  0  0  0  0  0  0  0  0
    2.8225   -5.2135   -0.8067 H   0  0  0  0  0  0  0  0  0  0  0  0
    2.8420   -5.3525    1.3642 C   0  0  0  0  0  0  0  0  0  0  0  0
    3.2125   -6.3980    1.3771 H   0  0  0  0  0  0  0  0  0  0  0  0
    1.7416   -5.3746    1.4982 H   0  0  0  0  0  0  0  0  0  0  0  0
    3.2698   -4.8256    2.2411 H   0  0  0  0  0  0  0  0  0  0  0  0
   -3.8433   -4.2931   -1.0714 C   0  0  0  0  0  0  0  0  0  0  0  0
   -3.3000   -4.7748   -1.9124 H   0  0  0  0  0  0  0  0  0  0  0  0
   -4.8892   -4.1792   -1.4263 H   0  0  0  0  0  0  0  0  0  0  0  0
   -3.8250   -5.2227    0.1540 C   0  0  0  0  0  0  0  0  0  0  0  0
   -4.2574   -6.2153   -0.0861 H   0  0  0  0  0  0  0  0  0  0  0  0
   -4.4101   -4.7861    0.9885 H   0  0  0  0  0  0  0  0  0  0  0  0
   -2.7913   -5.3771    0.5235 H   0  0  0  0  0  0  0  0  0  0  0  0
   -5.4658   -1.6632   -0.2190 C   0  0  0  0  0  0  0  0  0  0  0  0
   -5.9882   -2.4879   -0.7469 H   0  0  0  0  0  0  0  0  0  0  0  0
   -5.8311   -0.7271   -0.6942 H   0  0  0  0  0  0  0  0  0  0  0  0
   -5.8712   -1.6725    1.2651 C   0  0  0  0  0  0  0  0  0  0  0  0
   -6.9693   -1.5724    1.3829 H   0  0  0  0  0  0  0  0  0  0  0  0
   -5.3895   -0.8406    1.8179 H   0  0  0  0  0  0  0  0  0  0  0  0
   -5.5575   -2.6161    1.7552 H   0  0  0  0  0  0  0  0  0  0  0  0
  1  5  1  0  0  0  0
  2 14  1  0  0  0  0
  3 15  1  0  0  0  0
  4 26  1  0  0  0  0
  5 27  2  0  0  0  0
  5  6  1  0  0  0  0
  6 29  1  0  0  0  0
  7 36  1  0  0  0  0
  7  6  2  0  0  0  0
  8  1  1  0  0  0  0
  8  7  1  0  0  0  0
  9  8  2  0  0  0  0
  9 11  1  0  0  0  0
 10  9  1  0  0  0  0
 11  2  2  0  0  0  0
 11 12  1  0  0  0  0
 12 13  2  0  0  0  0
 13 50  1  0  0  0  0
 14 13  1  0  0  0  0
 14 15  1  0  0  0  0
 15 16  1  0  0  0  0
 16 57  1  0  0  0  0
 17 64  1  0  0  0  0
 17 16  2  0  0  0  0
 18  3  2  0  0  0  0
 18 17  1  0  0  0  0
 19 18  1  0  0  0  0
 20 19  1  0  0  0  0
 21 19  2  0  0  0  0
 21 23  1  0  0  0  0
 22 21  1  0  0  0  0
 23  4  2  0  0  0  0
 24 23  1  0  0  0  0
 24 25  2  0  0  0  0
 25 26  1  0  0  0  0
 25 78  1  0  0  0  0
 26 27  1  0  0  0  0
 27 28  1  0  0  0  0
 29 32  1  0  0  0  0
 30 29  1  0  0  0  0
 31 29  1  0  0  0  0
 32 33  1  0  0  0  0
 32 35  1  0  0  0  0
 32 34  1  0  0  0  0
 36 39  1  0  0  0  0
 37 36  1  0  0  0  0
 38 36  1  0  0  0  0
 39 41  1  0  0  0  0
 39 42  1  0  0  0  0
 40 39  1  0  0  0  0
 43 12  1  0  0  0  0
 43 44  1  0  0  0  0
 43 45  1  0  0  0  0
 46 43  1  0  0  0  0
 47 46  1  0  0  0  0
 48 46  1  0  0  0  0
 49 46  1  0  0  0  0
 50 52  1  0  0  0  0
 50 51  1  0  0  0  0
 53 54  1  0  0  0  0
 53 50  1  0  0  0  0
 55 53  1  0  0  0  0
 56 53  1  0  0  0  0
 57 60  1  0  0  0  0
 58 57  1  0  0  0  0
 59 57  1  0  0  0  0
 60 63  1  0  0  0  0
 60 61  1  0  0  0  0
 60 62  1  0  0  0  0
 64 67  1  0  0  0  0
 65 64  1  0  0  0  0
 66 64  1  0  0  0  0
 67 68  1  0  0  0  0
 67 69  1  0  0  0  0
 67 70  1  0  0  0  0
 71 24  1  0  0  0  0
 71 74  1  0  0  0  0
 72 71  1  0  0  0  0
 73 71  1  0  0  0  0
 74 77  1  0  0  0  0
 74 76  1  0  0  0  0
 75 74  1  0  0  0  0
 78 81  1  0  0  0  0
 79 78  1  0  0  0  0
 80 78  1  0  0  0  0
 81 82  1  0  0  0  0
 81 84  1  0  0  0  0
 81 83  1  0  0  0  0
M  END
