3,4,5,6
q = -2.0, confidence = 0.906

 78 82  0  0  1  0  0  0  0  0999 V2000
    2.6784   -3.8756    0.3753 O   0  0  0  0  0  0  0  0  0  0  0  0
    3.3951    3.1304   -0.1688 O   0  0  0  0  0  0  0  0  0  0  0  0
   -0.0233   -1.5844    0.1935 N   0  0  0  0  0  2  0  0  0  0  0  0
    2.5025   -1.5628    0.0626 N   0  0  0  0  0  2  0  0  0  0  0  0
    2.7369    0.8947   -0.2510 N   0  0  0  0  0  2  0  0  0  0  0  0
    0.2383    1.4105   -0.3271 N   0  0  0  0  0  2  0  0  0  0  0  0
   -1.1500   -1.5664    0.8730 C   0  0  0  0  0  3  0  0  0  0  0  0
    0.5456   -2.8709   -0.2356 C   0  0  2  0  0  0  0  0  0  0  0  0
    0.0468   -3.7162    0.2790 H   0  0  0  0  0  0  0  0  0  0  0  0
    2.0392   -2.8455    0.1655 C   0  0  0  0  0  0  0  0  0  0  0  0
    2.5328    2.2326   -0.2031 C   0  0  0  0  0  0  0  0  0  0  0  0
    1.0587    2.5787    0.0249 C   0  0  2  0  0  0  0  0  0  0  0  0
    0.7756    3.4529   -0.5975 H   0  0  0  0  0  0  0  0  0  0  0  0
   -0.9524    1.6213   -0.8435 C   0  0  0  0  0  3  0  0  0  0  0  0
   -2.0956   -2.7186    0.8781 C   0  0  0  0  0  0  0  0  0  0  0  0
   -2.4655   -3.3269    2.0987 C   0  0  0  0  0  0  0  0  0  0  0  0
   -2.0308   -2.9567    3.0392 H   0  0  0  0  0  0  0  0  0  0  0  0
   -3.3635   -4.4021    2.1100 C   0  0  0  0  0  0  0  0  0  0  0  0
   -3.6289   -4.8814    3.0643 H   0  0  0  0  0  0  0  0  0  0  0  0
   -3.9264   -4.8643    0.9086 C   0  0  0  0  0  0  0  0  0  0  0  0
   -4.6378   -5.7038    0.9204 H   0  0  0  0  0  0  0  0  0  0  0  0
   -3.5867   -4.2456   -0.3050 C   0  0  0  0  0  0  0  0  0  0  0  0
   -4.0405   -4.5886   -1.2472 H   0  0  0  0  0  0  0  0  0  0  0  0
   -2.6737   -3.1823   -0.3237 C   0  0  0  0  0  0  0  0  0  0  0  0
   -2.4306   -2.6774   -1.2685 H   0  0  0  0  0  0  0  0  0  0  0  0
   -1.4992   -0.4400    1.7648 C   0  0  0  0  0  0  0  0  0  0  0  0
   -2.8489   -0.0527    1.9377 C   0  0  0  0  0  0  0  0  0  0  0  0
   -3.6267   -0.5338    1.3270 H   0  0  0  0  0  0  0  0  0  0  0  0
   -3.1907    0.9333    2.8714 C   0  0  0  0  0  0  0  0  0  0  0  0
   -4.2418    1.2379    2.9855 H   0  0  0  0  0  0  0  0  0  0  0  0
   -2.1943    1.5254    3.6674 C   0  0  0  0  0  0  0  0  0  0  0  0
   -2.4639    2.2869    4.4147 H   0  0  0  0  0  0  0  0  0  0  0  0
   -0.8538    1.1324    3.5165 C   0  0  0  0  0  0  0  0  0  0  0  0
   -0.0738    1.5811    4.1492 H   0  0  0  0  0  0  0  0  0  0  0  0
   -0.5043    0.1658    2.5651 C   0  0  0  0  0  0  0  0  0  0  0  0
    0.5415   -0.1610    2.4558 H   0  0  0  0  0  0  0  0  0  0  0  0
    0.5198   -3.1791   -1.7503 C   0  0  0  0  0  0  0  0  0  0  0  0
    0.9464   -4.2072   -1.8413 H   0  0  0  0  0  0  0  0  0  0  0  0
   -0.5276   -3.2145   -2.1098 H   0  0  0  0  0  0  0  0  0  0  0  0
    1.2080   -2.2504   -2.5557 O   0  0  0  0  0  0  0  0  0  0  0  0
    2.0263   -1.9915   -2.0808 H   0  0  0  0  0  0  0  0  0  0  0  0
    3.8473   -1.1502    0.0843 C   0  0  0  0  0  0  0  0  0  0  0  0
    3.9823    0.2472   -0.1478 C   0  0  0  0  0  0  0  0  0  0  0  0
    5.2603    0.8335   -0.2163 C   0  0  0  0  0  0  0  0  0  0  0  0
    5.3454    1.9130   -0.3870 H   0  0  0  0  0  0  0  0  0  0  0  0
    6.3887    0.0158   -0.0421 C   0  0  0  0  0  0  0  0  0  0  0  0
    7.3910    0.4682   -0.0885 H   0  0  0  0  0  0  0  0  0  0  0  0
    6.2531   -1.3633    0.1953 C   0  0  0  0  0  0  0  0  0  0  0  0
    7.1491   -1.9880    0.3303 H   0  0  0  0  0  0  0  0  0  0  0  0
    4.9840   -1.9605    0.2633 C   0  0  0  0  0  0  0  0  0  0  0  0
    4.8517   -3.0339    0.4455 H   0  0  0  0  0  0  0  0  0  0  0  0
    1.0074    3.0843    1.4998 C   0  0  0  0  0  0  0  0  0  0  0  0
   -0.0453    3.2460    1.8035 H   0  0  0  0  0  0  0  0  0  0  0  0
    1.4259    2.2788    2.1551 H   0  0  0  0  0  0  0  0  0  0  0  0
    1.6909    4.2975    1.6068 O   0  0  0  0  0  0  0  0  0  0  0  0
    2.5315    4.1765    1.0948 H   0  0  0  0  0  0  0  0  0  0  0  0
   -1.6875    0.6000   -1.6191 C   0  0  0  0  0  0  0  0  0  0  0  0
   -0.9972   -0.2291   -2.5275 C   0  0  0  0  0  0  0  0  0  0  0  0
    0.0988   -0.2029   -2.5784 H   0  0  0  0  0  0  0  0  0  0  0  0
   -1.7033   -1.0849   -3.3833 C   0  0  0  0  0  0  0  0  0  0  0  0
   -1.1395   -1.7076   -4.0937 H   0  0  0  0  0  0  0  0  0  0  0  0
   -3.1064   -1.1354   -3.3345 C   0  0  0  0  0  0  0  0  0  0  0  0
   -3.6600   -1.8053   -4.0101 H   0  0  0  0  0  0  0  0  0  0  0  0
   -3.8035   -0.3199   -2.4248 C   0  0  0  0  0  0  0  0  0  0  0  0
   -4.9022   -0.3571   -2.3798 H   0  0  0  0  0  0  0  0  0  0  0  0
   -3.1023    0.5542   -1.5858 C   0  0  0  0  0  0  0  0  0  0  0  0
   -3.6457    1.2146   -0.8943 H   0  0  0  0  0  0  0  0  0  0  0  0
   -1.6026    2.9684   -0.8067 C   0  0  0  0  0  0  0  0  0  0  0  0
   -2.1470    3.4827    0.3882 C   0  0  0  0  0  0  0  0  0  0  0  0
   -2.0965    2.8846    1.3086 H   0  0  0  0  0  0  0  0  0  0  0  0
   -2.7820    4.7336    0.3923 C   0  0  0  0  0  0  0  0  0  0  0  0
   -3.2074    5.1232    1.3294 H   0  0  0  0  0  0  0  0  0  0  0  0
   -2.8739    5.4837   -0.7897 C   0  0  0  0  0  0  0  0  0  0  0  0
   -3.3637    6.4690   -0.7815 H   0  0  0  0  0  0  0  0  0  0  0  0
   -2.3464    4.9701   -1.9861 C   0  0  0  0  0  0  0  0  0  0  0  0
   -2.4211    5.5515   -2.9174 H   0  0  0  0  0  0  0  0  0  0  0  0
   -1.7279    3.7130   -1.9997 C   0  0  0  0  0  0  0  0  0  0  0  0
   -1.3259    3.3011   -2.9378 H   0  0  0  0  0  0  0  0  0  0  0  0
  3  7  1  0  0  0  0
  4 42  1  0  0  0  0
  4 10  1  0  0  0  0
  5 11  1  0  0  0  0
  5 43  1  0  0  0  0
  6 12  1  0  0  0  0
  7 15  1  0  0  0  0
  7 26  1  0  0  0  0
  8 10  1  0  0  0  0
  8  3  1  0  0  0  0
  8  9  1  1  0  0  0
 10  1  2  0  0  0  0
 11  2  2  0  0  0  0
 11 12  1  0  0  0  0
 12 13  1  6  0  0  0
 12 52  1  0  0  0  0
 14 68  1  0  0  0  0
 14  6  1  0  0  0  0
 15 16  1  0  0  0  0
 16 18  2  0  0  0  0
 16 17  1  0  0  0  0
 18 19  1  0  0  0  0
 20 21  1  0  0  0  0
 20 18  1  0  0  0  0
 22 20  2  0  0  0  0
 23 22  1  0  0  0  0
 24 22  1  0  0  0  0
 24 15  2  0  0  0  0
 25 24  1  0  0  0  0
 26 27  2  0  0  0  0
 26 35  1  0  0  0  0
 27 29  1  0  0  0  0
 28 27  1  0  0  0  0
 29 30  1  0  0  0  0
 29 31  2  0  0  0  0
 31 32  1  0  0  0  0
 33 31  1  0  0  0  0
 33 34  1  0  0  0  0
 35 33  2  0  0  0  0
 36 35  1  0  0  0  0
 37  8  1  0  0  0  0
 38 37  1  0  0  0  0
 39 37  1  0  0  0  0
 40 41  1  0  0  0  0
 40 37  1  0  0  0  0
 42 50  1  0  0  0  0
 43 42  2  0  0  0  0
 44 43  1  0  0  0  0
 44 46  2  0  0  0  0
 45 44  1  0  0  0  0
 46 48  1  0  0  0  0
 47 46  1  0  0  0  0
 48 50  2  0  0  0  0
 48 49  1  0  0  0  0
 50 51  1  0  0  0  0
 52 55  1  0  0  0  0
 52 53  1  0  0  0  0
 52 54  1  0  0  0  0
 56 55  1  0  0  0  0
 57 66  1  0  0  0  0
 57 14  1  0  0  0  0
 58 57  2  0  0  0  0
 59 58  1  0  0  0  0
 60 62  2  0  0  0  0
 60 58  1  0  0  0  0
 61 60  1  0  0  0  0
 62 64  1  0  0  0  0
 63 62  1  0  0  0  0
 64 65  1  0  0  0  0
 64 66  2  0  0  0  0
 66 67  1  0  0  0  0
 68 69  1  0  0  0  0
 69 71  2  0  0  0  0
 69 70  1  0  0  0  0
 71 72  1  0  0  0  0
 73 74  1  0  0  0  0
 73 71  1  0  0  0  0
 75 73  2  0  0  0  0
 76 75  1  0  0  0  0
 77 75  1  0  0  0  0
 77 68  2  0  0  0  0
 78 77  1  0  0  0  0
M  END
