1,9,18,26
q = 0.0, confidence = 0.98

 64 64  0  0  1  0  0  0  0  0999 V2000
    1.1038   -1.0067    1.2823 N   0  0  0  0  0  0  0  0  0  0  0  0
    1.8428   -0.2465    1.3856 H   0  0  0  0  0  0  0  0  0  0  0  0
    0.3813   -1.1160    2.5665 C   0  0  0  0  0  0  0  0  0  0  0  0
    1.0921   -1.2205    3.4155 H   0  0  0  0  0  0  0  0  0  0  0  0
   -0.2710   -2.0131    2.5381 H   0  0  0  0  0  0  0  0  0  0  0  0
   -0.4486    0.1388    2.6944 C   0  0  0  0  0  0  0  0  0  0  0  0
   -1.0807    0.1316    3.6089 H   0  0  0  0  0  0  0  0  0  0  0  0
    0.2111    1.0296    2.7343 H   0  0  0  0  0  0  0  0  0  0  0  0
   -1.2775    0.2472    1.4681 N   0  0  0  0  0  0  0  0  0  0  0  0
   -1.9938   -0.5107    1.5220 H   0  0  0  0  0  0  0  0  0  0  0  0
   -1.8927    1.5817    1.3986 C   0  0  0  0  0  0  0  0  0  0  0  0
   -1.0576    2.3072    1.3355 H   0  0  0  0  0  0  0  0  0  0  0  0
   -2.4637    1.7761    2.3352 H   0  0  0  0  0  0  0  0  0  0  0  0
   -2.8203    1.8342    0.1990 C   0  0  2  0  0  0  0  0  0  0  0  0
   -2.0592    1.6821   -1.1253 C   0  0  0  0  0  0  0  0  0  0  0  0
   -2.7557    1.8993   -1.9659 H   0  0  0  0  0  0  0  0  0  0  0  0
   -1.2658    2.4546   -1.1176 H   0  0  0  0  0  0  0  0  0  0  0  0
   -1.3880    0.3962   -1.3684 N   0  0  0  0  0  0  0  0  0  0  0  0
   -2.1443   -0.3292   -1.3636 H   0  0  0  0  0  0  0  0  0  0  0  0
   -0.6926    0.4259   -2.6742 C   0  0  0  0  0  0  0  0  0  0  0  0
   -0.0336    1.3176   -2.6939 H   0  0  0  0  0  0  0  0  0  0  0  0
   -1.4142    0.4974   -3.5166 H   0  0  0  0  0  0  0  0  0  0  0  0
    0.1548   -0.8201   -2.7513 C   0  0  0  0  0  0  0  0  0  0  0  0
   -0.4811   -1.7321   -2.7861 H   0  0  0  0  0  0  0  0  0  0  0  0
    0.7903   -0.8197   -3.6646 H   0  0  0  0  0  0  0  0  0  0  0  0
    0.9837   -0.8480   -1.5293 N   0  0  0  0  0  0  0  0  0  0  0  0
    1.6328    0.0452   -1.5577 H   0  0  0  0  0  0  0  0  0  0  0  0
    1.7503   -2.0926   -1.4665 C   0  0  0  0  0  0  0  0  0  0  0  0
    2.3437   -2.1984   -2.4052 H   0  0  0  0  0  0  0  0  0  0  0  0
    1.0456   -2.9520   -1.4398 H   0  0  0  0  0  0  0  0  0  0  0  0
    2.7151   -2.2111   -0.2732 C   0  0  1  0  0  0  0  0  0  0  0  0
    1.9210   -2.2048    1.0392 C   0  0  0  0  0  0  0  0  0  0  0  0
    1.2552   -3.0912    1.0211 H   0  0  0  0  0  0  0  0  0  0  0  0
    2.6266   -2.3314    1.8893 H   0  0  0  0  0  0  0  0  0  0  0  0
   -3.2798    3.3045    0.2762 C   0  0  0  0  0  0  0  0  0  0  0  0
   -3.8337    3.4970    1.2178 H   0  0  0  0  0  0  0  0  0  0  0  0
   -3.9418    3.5520   -0.5763 H   0  0  0  0  0  0  0  0  0  0  0  0
   -2.4104    3.9875    0.2542 H   0  0  0  0  0  0  0  0  0  0  0  0
   -4.0676    1.0304    0.3037 N   0  0  0  0  0  0  0  0  0  0  0  0
   -4.7999    1.4986    0.8434 H   0  0  0  0  0  0  0  0  0  0  0  0
   -4.3875   -0.2259   -0.0963 C   0  0  0  0  0  0  0  0  0  0  0  0
   -5.7391   -0.7404    0.3770 C   0  0  0  0  0  0  0  0  0  0  0  0
   -5.5037   -1.3830    1.2561 H   0  0  0  0  0  0  0  0  0  0  0  0
   -6.3700    0.0883    0.7602 H   0  0  0  0  0  0  0  0  0  0  0  0
   -6.4703   -1.5557   -0.6890 C   0  0  0  0  0  0  0  0  0  0  0  0
   -7.3841   -2.0180   -0.2700 H   0  0  0  0  0  0  0  0  0  0  0  0
   -5.8162   -2.3590   -1.0788 H   0  0  0  0  0  0  0  0  0  0  0  0
   -6.7701   -0.9193   -1.5449 H   0  0  0  0  0  0  0  0  0  0  0  0
   -3.6388   -0.9674   -0.7706 O   0  0  0  0  0  0  0  0  0  0  0  0
    3.4313   -3.5738   -0.3713 C   0  0  0  0  0  0  0  0  0  0  0  0
    4.1219   -3.7063    0.4836 H   0  0  0  0  0  0  0  0  0  0  0  0
    4.0264   -3.6363   -1.3045 H   0  0  0  0  0  0  0  0  0  0  0  0
    2.7084   -4.4127   -0.3767 H   0  0  0  0  0  0  0  0  0  0  0  0
    3.7535   -1.1675   -0.3669 N   0  0  0  0  0  0  0  0  0  0  0  0
    4.3550   -1.2773   -1.1871 H   0  0  0  0  0  0  0  0  0  0  0  0
    4.0229   -0.0512    0.3792 C   0  0  0  0  0  0  0  0  0  0  0  0
    5.1665    0.7978   -0.1507 C   0  0  0  0  0  0  0  0  0  0  0  0
    5.9827    0.1365   -0.5146 H   0  0  0  0  0  0  0  0  0  0  0  0
    4.7445    1.3130   -1.0427 H   0  0  0  0  0  0  0  0  0  0  0  0
    5.6734    1.8188    0.8604 C   0  0  0  0  0  0  0  0  0  0  0  0
    6.4768    2.4356    0.4144 H   0  0  0  0  0  0  0  0  0  0  0  0
    6.0732    1.3316    1.7714 H   0  0  0  0  0  0  0  0  0  0  0  0
    4.8485    2.4905    1.1615 H   0  0  0  0  0  0  0  0  0  0  0  0
    3.3876    0.2771    1.3966 O   0  0  0  0  0  0  0  0  0  0  0  0
  1  2  1  0  0  0  0
  1  3  1  0  0  0  0
  3  6  1  0  0  0  0
  3  4  1  0  0  0  0
  5  3  1  0  0  0  0
  6  8  1  0  0  0  0
  6  7  1  0  0  0  0
  9 10  1  0  0  0  0
  9  6  1  0  0  0  0
 11  9  1  0  0  0  0
 11 13  1  0  0  0  0
 12 11  1  0  0  0  0
 14 35  1  1  0  0  0
 14 39  1  0  0  0  0
 14 11  1  0  0  0  0
 15 17  1  0  0  0  0
 15 14  1  0  0  0  0
 16 15  1  0  0  0  0
 18 19  1  0  0  0  0
 18 15  1  0  0  0  0
 20 18  1  0  0  0  0
 21 20  1  0  0  0  0
 22 20  1  0  0  0  0
 23 20  1  0  0  0  0
 23 26  1  0  0  0  0
 24 23  1  0  0  0  0
 25 23  1  0  0  0  0
 26 28  1  0  0  0  0
 27 26  1  0  0  0  0
 28 30  1  0  0  0  0
 28 31  1  0  0  0  0
 29 28  1  0  0  0  0
 31 50  1  6  0  0  0
 31 32  1  0  0  0  0
 32  1  1  0  0  0  0
 32 34  1  0  0  0  0
 33 32  1  0  0  0  0
 35 36  1  0  0  0  0
 37 35  1  0  0  0  0
 38 35  1  0  0  0  0
 39 40  1  0  0  0  0
 41 39  1  0  0  0  0
 41 42  1  0  0  0  0
 42 44  1  0  0  0  0
 42 43  1  0  0  0  0
 45 46  1  0  0  0  0
 45 42  1  0  0  0  0
 47 45  1  0  0  0  0
 48 45  1  0  0  0  0
 49 41  2  0  0  0  0
 50 51  1  0  0  0  0
 52 50  1  0  0  0  0
 53 50  1  0  0  0  0
 54 31  1  0  0  0  0
 54 56  1  0  0  0  0
 55 54  1  0  0  0  0
 56 64  2  0  0  0  0
 57 56  1  0  0  0  0
 57 60  1  0  0  0  0
 58 57  1  0  0  0  0
 59 57  1  0  0  0  0
 60 63  1  0  0  0  0
 60 62  1  0  0  0  0
 61 60  1  0  0  0  0
M  END
