1,2,3,4
q = -2.0, confidence = 0.868

 36 36  0  0  0  0  0  0  0  0999 V2000
   -1.3888    1.6026    0.1340 N   0  0  0  0  0  2  0  0  0  0  0  0
    1.1320    1.4689   -0.8328 N   0  0  0  0  0  0  0  0  0  0  0  0
    1.4830   -1.5930   -0.2928 N   0  0  0  0  0  0  0  0  0  0  0  0
   -1.0604   -1.0618   -1.1101 N   0  0  0  0  0  2  0  0  0  0  0  0
   -0.8880    2.7905   -0.5213 C   0  0  0  0  0  0  0  0  0  0  0  0
    0.6340    2.8013   -0.4267 C   0  0  0  0  0  0  0  0  0  0  0  0
    2.6029    1.3781   -0.8520 C   0  0  0  0  0  0  0  0  0  0  0  0
    3.1203    0.0272   -1.3483 C   0  0  0  0  0  0  0  0  0  0  0  0
    2.8991   -1.1715   -0.4204 C   0  0  0  0  0  0  0  0  0  0  0  0
    0.9690   -2.3073   -1.4838 C   0  0  0  0  0  0  0  0  0  0  0  0
   -0.5505   -2.3816   -1.4171 C   0  0  0  0  0  0  0  0  0  0  0  0
   -2.4811   -0.9203   -1.4198 C   0  0  0  0  0  0  0  0  0  0  0  0
   -3.0020    0.5224   -1.4425 C   0  0  0  0  0  0  0  0  0  0  0  0
   -2.7995    1.2998   -0.1279 C   0  0  0  0  0  0  0  0  0  0  0  0
    0.7689    1.2602   -1.7768 H   0  0  0  0  0  0  0  0  0  0  0  0
    1.4327   -2.2363    0.5147 H   0  0  0  0  0  0  0  0  0  0  0  0
   -1.2944    3.7275   -0.0674 H   0  0  0  0  0  0  0  0  0  0  0  0
   -1.1852    2.8250   -1.6034 H   0  0  0  0  0  0  0  0  0  0  0  0
    1.0765    3.6151   -1.0470 H   0  0  0  0  0  0  0  0  0  0  0  0
    0.9544    2.9592    0.6246 H   0  0  0  0  0  0  0  0  0  0  0  0
    2.9499    1.5568    0.1863 H   0  0  0  0  0  0  0  0  0  0  0  0
    3.0233    2.1880   -1.4941 H   0  0  0  0  0  0  0  0  0  0  0  0
    4.2165    0.1260   -1.4898 H   0  0  0  0  0  0  0  0  0  0  0  0
    2.7166   -0.1819   -2.3643 H   0  0  0  0  0  0  0  0  0  0  0  0
    3.5089   -2.0288   -0.7883 H   0  0  0  0  0  0  0  0  0  0  0  0
    3.2465   -0.9124    0.5989 H   0  0  0  0  0  0  0  0  0  0  0  0
    1.4373   -3.3129   -1.5853 H   0  0  0  0  0  0  0  0  0  0  0  0
    1.2545   -1.7134   -2.3750 H   0  0  0  0  0  0  0  0  0  0  0  0
   -0.9313   -2.7593   -2.3978 H   0  0  0  0  0  0  0  0  0  0  0  0
   -0.8668   -3.1459   -0.6558 H   0  0  0  0  0  0  0  0  0  0  0  0
   -3.0951   -1.5121   -0.6905 H   0  0  0  0  0  0  0  0  0  0  0  0
   -2.6858   -1.3710   -2.4222 H   0  0  0  0  0  0  0  0  0  0  0  0
   -2.5141    1.0780   -2.2744 H   0  0  0  0  0  0  0  0  0  0  0  0
   -4.0861    0.4874   -1.6834 H   0  0  0  0  0  0  0  0  0  0  0  0
   -3.3900    2.2456   -0.1498 H   0  0  0  0  0  0  0  0  0  0  0  0
   -3.2076    0.7026    0.7168 H   0  0  0  0  0  0  0  0  0  0  0  0
  2  6  1  0  0  0  0
  3 16  1  0  0  0  0
  5  6  1  0  0  0  0
  5 17  1  0  0  0  0
  5  1  1  0  0  0  0
  6 20  1  0  0  0  0
  7  2  1  0  0  0  0
  7 21  1  0  0  0  0
  8  7  1  0  0  0  0
  8  9  1  0  0  0  0
  9  3  1  0  0  0  0
  9 26  1  0  0  0  0
 10 11  1  0  0  0  0
 10  3  1  0  0  0  0
 11  4  1  0  0  0  0
 11 30  1  0  0  0  0
 12  4  1  0  0  0  0
 12 31  1  0  0  0  0
 13 12  1  0  0  0  0
 13 14  1  0  0  0  0
 14  1  1  0  0  0  0
 14 36  1  0  0  0  0
 15  2  1  0  0  0  0
 18  5  1  0  0  0  0
 19  6  1  0  0  0  0
 22  7  1  0  0  0  0
 23  8  1  0  0  0  0
 24  8  1  0  0  0  0
 25  9  1  0  0  0  0
 27 10  1  0  0  0  0
 28 10  1  0  0  0  0
 29 11  1  0  0  0  0
 32 12  1  0  0  0  0
 33 13  1  0  0  0  0
 34 13  1  0  0  0  0
 35 14  1  0  0  0  0
M  END
