2,3,4,5
q = -1.0, confidence = 0.026

 52 52  0  0  1  0  0  0  0  0999 V2000
    2.3901    1.0070   -0.7534 Si  0  0  0  0  0  0  0  0  0  0  0  0
    2.2264   -0.8001   -0.4279 N   0  0  0  0  0  0  0  0  0  0  0  0
   -0.0227   -2.6854   -0.5075 N   0  0  0  0  0  0  0  0  0  0  0  0
    0.7945   -1.3567    2.0176 N   0  0  0  0  0  0  0  0  0  0  0  0
    0.9152    1.4586    0.0212 N   0  0  0  0  0  2  0  0  0  0  0  0
    2.1245   -1.7937   -1.5029 C   0  0  0  0  0  0  0  0  0  0  0  0
    1.3138   -3.0293   -1.0702 C   0  0  0  0  0  0  0  0  0  0  0  0
   -1.1036   -3.0916   -1.4281 C   0  0  0  0  0  0  0  0  0  0  0  0
   -0.2880   -3.2823    0.8199 C   0  0  0  0  0  0  0  0  0  0  0  0
    0.6768   -2.8312    1.9106 C   0  0  0  0  0  0  0  0  0  0  0  0
    0.1040   -0.8542    3.2163 C   0  0  0  0  0  0  0  0  0  0  0  0
    2.2068   -0.9207    2.0492 C   0  0  0  0  0  0  0  0  0  0  0  0
    2.9516   -1.2649    0.7626 C   0  0  0  0  0  0  0  0  0  0  0  0
    0.2534    2.7585    0.0896 C   0  0  2  0  0  0  0  0  0  0  0  0
    0.2126    3.4814   -1.2638 C   0  0  0  0  0  0  0  0  0  0  0  0
    0.8568    3.6712    1.1796 C   0  0  0  0  0  0  0  0  0  0  0  0
    0.8474    3.0653    2.5798 C   0  0  0  0  0  0  0  0  0  0  0  0
    2.5890    1.2593   -2.6128 C   0  0  0  0  0  0  0  0  0  0  0  0
    3.9679    1.6582    0.0732 C   0  0  0  0  0  0  0  0  0  0  0  0
    3.1216   -2.1428   -1.8693 H   0  0  0  0  0  0  0  0  0  0  0  0
    1.6056   -1.3173   -2.3577 H   0  0  0  0  0  0  0  0  0  0  0  0
    1.1943   -3.7029   -1.9454 H   0  0  0  0  0  0  0  0  0  0  0  0
    1.8830   -3.6175   -0.3217 H   0  0  0  0  0  0  0  0  0  0  0  0
   -1.1490   -4.2023   -1.5239 H   0  0  0  0  0  0  0  0  0  0  0  0
   -0.9435   -2.6248   -2.4155 H   0  0  0  0  0  0  0  0  0  0  0  0
   -2.0751   -2.7223   -1.0478 H   0  0  0  0  0  0  0  0  0  0  0  0
   -0.2748   -4.3996    0.7663 H   0  0  0  0  0  0  0  0  0  0  0  0
   -1.3200   -2.9858    1.0964 H   0  0  0  0  0  0  0  0  0  0  0  0
    0.3402   -3.2672    2.8767 H   0  0  0  0  0  0  0  0  0  0  0  0
    1.6791   -3.2660    1.7282 H   0  0  0  0  0  0  0  0  0  0  0  0
    0.5984   -1.2161    4.1499 H   0  0  0  0  0  0  0  0  0  0  0  0
   -0.9513   -1.1787    3.2134 H   0  0  0  0  0  0  0  0  0  0  0  0
    0.1149    0.2517    3.2113 H   0  0  0  0  0  0  0  0  0  0  0  0
    2.7439   -1.3586    2.9277 H   0  0  0  0  0  0  0  0  0  0  0  0
    2.1942    0.1794    2.1818 H   0  0  0  0  0  0  0  0  0  0  0  0
    3.9771   -0.8370    0.8324 H   0  0  0  0  0  0  0  0  0  0  0  0
    3.1073   -2.3609    0.6961 H   0  0  0  0  0  0  0  0  0  0  0  0
   -0.8083    2.5761    0.3886 H   0  0  0  0  0  0  0  0  0  0  0  0
   -0.4222    4.3900   -1.2160 H   0  0  0  0  0  0  0  0  0  0  0  0
   -0.1908    2.8086   -2.0453 H   0  0  0  0  0  0  0  0  0  0  0  0
    1.2322    3.8001   -1.5710 H   0  0  0  0  0  0  0  0  0  0  0  0
    0.2941    4.6306    1.1816 H   0  0  0  0  0  0  0  0  0  0  0  0
    1.9003    3.9270    0.8859 H   0  0  0  0  0  0  0  0  0  0  0  0
   -0.1852    2.8053    2.8967 H   0  0  0  0  0  0  0  0  0  0  0  0
    1.2676    3.7596    3.3352 H   0  0  0  0  0  0  0  0  0  0  0  0
    1.4461    2.1327    2.6028 H   0  0  0  0  0  0  0  0  0  0  0  0
    1.6594    0.9805   -3.1462 H   0  0  0  0  0  0  0  0  0  0  0  0
    3.4359    0.6600   -3.0082 H   0  0  0  0  0  0  0  0  0  0  0  0
    2.8038    2.3257   -2.8278 H   0  0  0  0  0  0  0  0  0  0  0  0
    4.0438    2.7417   -0.1574 H   0  0  0  0  0  0  0  0  0  0  0  0
    4.8853    1.1741   -0.3232 H   0  0  0  0  0  0  0  0  0  0  0  0
    3.9604    1.5619    1.1769 H   0  0  0  0  0  0  0  0  0  0  0  0
  1  2  1  0  0  0  0
  1  5  1  0  0  0  0
  1 19  1  0  0  0  0
  2 13  1  0  0  0  0
  3  9  1  0  0  0  0
  4 12  1  0  0  0  0
  4 11  1  0  0  0  0
  5 14  1  0  0  0  0
  6  7  1  0  0  0  0
  6  2  1  0  0  0  0
  7  3  1  0  0  0  0
  7 23  1  0  0  0  0
  8 26  1  0  0  0  0
  8  3  1  0  0  0  0
  9 28  1  0  0  0  0
  9 10  1  0  0  0  0
 10  4  1  0  0  0  0
 10 29  1  0  0  0  0
 11 31  1  0  0  0  0
 12 35  1  0  0  0  0
 12 34  1  0  0  0  0
 13 36  1  0  0  0  0
 13 12  1  0  0  0  0
 14 38  1  1  0  0  0
 14 16  1  0  0  0  0
 15 39  1  0  0  0  0
 15 14  1  0  0  0  0
 16 42  1  0  0  0  0
 16 17  1  0  0  0  0
 17 46  1  0  0  0  0
 17 44  1  0  0  0  0
 17 45  1  0  0  0  0
 18  1  1  0  0  0  0
 19 52  1  0  0  0  0
 20  6  1  0  0  0  0
 21  6  1  0  0  0  0
 22  7  1  0  0  0  0
 24  8  1  0  0  0  0
 25  8  1  0  0  0  0
 27  9  1  0  0  0  0
 30 10  1  0  0  0  0
 32 11  1  0  0  0  0
 33 11  1  0  0  0  0
 37 13  1  0  0  0  0
 40 15  1  0  0  0  0
 41 15  1  0  0  0  0
 43 16  1  0  0  0  0
 47 18  1  0  0  0  0
 48 18  1  0  0  0  0
 49 18  1  0  0  0  0
 50 19  1  0  0  0  0
 51 19  1  0  0  0  0
M  END
