2,4,7,9
q = 0.0, confidence = 0.998

 46 47  0  0  1  0  0  0  0  0999 V2000
   -6.0463   -0.5975    0.2045 O   0  0  0  0  0  0  0  0  0  0  0  0
   -1.9045   -0.5676    0.0937 N   0  0  0  0  0  2  0  0  0  0  0  0
   -2.5841   -0.5055    1.2778 C   0  0  2  0  0  3  0  0  0  0  0  0
   -0.3038   -0.8206   -1.9605 N   0  0  0  0  0  0  0  0  0  0  0  0
   -3.9729   -0.5270    1.3155 C   0  0  0  0  0  0  0  0  0  0  0  0
   -4.5205   -0.4768    2.2665 H   0  0  0  0  0  0  0  0  0  0  0  0
   -0.0229   -2.7267    0.1262 N   0  0  0  0  0  0  0  0  0  0  0  0
   -4.6974   -0.5646    0.0991 C   0  0  0  0  0  0  0  0  0  0  0  0
   -0.2805   -0.7332    2.1431 N   0  0  0  0  0  0  0  0  0  0  0  0
   -3.9844   -0.5375   -1.1214 C   0  0  0  0  0  0  0  0  0  0  0  0
   -4.4934   -0.4948   -2.0925 H   0  0  0  0  0  0  0  0  0  0  0  0
   -2.5882   -0.5207   -1.0817 C   0  0  0  0  0  0  0  0  0  0  0  0
   -1.6685   -0.2875   -2.2428 C   0  0  0  0  0  0  0  0  0  0  0  0
   -2.0689   -0.6765   -3.2058 H   0  0  0  0  0  0  0  0  0  0  0  0
   -1.5738    0.8191   -2.3169 H   0  0  0  0  0  0  0  0  0  0  0  0
    0.6979   -0.0649   -2.7445 C   0  0  0  0  0  0  0  0  0  0  0  0
    1.7071   -0.4377   -2.5017 H   0  0  0  0  0  0  0  0  0  0  0  0
    0.6620    0.9939   -2.4351 H   0  0  0  0  0  0  0  0  0  0  0  0
    0.5030   -0.1566   -3.8370 H   0  0  0  0  0  0  0  0  0  0  0  0
   -0.2227   -2.2743   -2.2588 C   0  0  0  0  0  0  0  0  0  0  0  0
    0.8441   -2.5164   -2.4262 H   0  0  0  0  0  0  0  0  0  0  0  0
   -0.7612   -2.5207   -3.2025 H   0  0  0  0  0  0  0  0  0  0  0  0
   -0.7647   -3.1044   -1.1002 C   0  0  0  0  0  0  0  0  0  0  0  0
   -1.8418   -2.9059   -0.9400 H   0  0  0  0  0  0  0  0  0  0  0  0
   -0.6574   -4.1915   -1.3228 H   0  0  0  0  0  0  0  0  0  0  0  0
    1.3137   -3.3742    0.1111 C   0  0  0  0  0  0  0  0  0  0  0  0
    1.9210   -3.0316    0.9631 H   0  0  0  0  0  0  0  0  0  0  0  0
    1.1875   -4.4792    0.1436 H   0  0  0  0  0  0  0  0  0  0  0  0
    1.8765   -3.0818   -0.7890 H   0  0  0  0  0  0  0  0  0  0  0  0
   -0.7126   -3.0570    1.3964 C   0  0  0  0  0  0  0  0  0  0  0  0
   -0.5842   -4.1320    1.6618 H   0  0  0  0  0  0  0  0  0  0  0  0
   -1.7979   -2.8772    1.2701 H   0  0  0  0  0  0  0  0  0  0  0  0
   -0.1375   -2.1689    2.4936 C   0  0  0  0  0  0  0  0  0  0  0  0
   -0.6202   -2.3926    3.4729 H   0  0  0  0  0  0  0  0  0  0  0  0
    0.9439   -2.3719    2.6135 H   0  0  0  0  0  0  0  0  0  0  0  0
    0.7017    0.0901    2.8849 C   0  0  0  0  0  0  0  0  0  0  0  0
    0.5951    1.1393    2.5582 H   0  0  0  0  0  0  0  0  0  0  0  0
    1.7255   -0.2327    2.6285 H   0  0  0  0  0  0  0  0  0  0  0  0
    0.5326    0.0168    3.9830 H   0  0  0  0  0  0  0  0  0  0  0  0
   -1.6615   -0.2426    2.4305 C   0  0  0  0  0  0  0  0  0  0  0  0
   -1.5962    0.8664    2.5013 H   0  0  0  0  0  0  0  0  0  0  0  0
   -2.0441   -0.6389    3.3971 H   0  0  0  0  0  0  0  0  0  0  0  0
   -6.8182   -0.5625   -0.9847 C   0  0  0  0  0  0  0  0  0  0  0  0
   -7.8772   -0.5866   -0.6695 H   0  0  0  0  0  0  0  0  0  0  0  0
   -6.6130   -1.4420   -1.6349 H   0  0  0  0  0  0  0  0  0  0  0  0
   -6.6332    0.3673   -1.5665 H   0  0  0  0  0  0  0  0  0  0  0  0
  3  2  1  6  0  0  0
  3  5  1  0  0  0  0
  3 40  1  0  0  0  0
  5  6  1  0  0  0  0
  7 30  1  0  0  0  0
  8  1  1  0  0  0  0
  8  5  2  0  0  0  0
  9 40  1  0  0  0  0
  9 33  1  0  0  0  0
  9 36  1  0  0  0  0
 10 12  2  0  0  0  0
 10  8  1  0  0  0  0
 11 10  1  0  0  0  0
 12  2  1  0  0  0  0
 13  4  1  0  0  0  0
 13 12  1  0  0  0  0
 14 13  1  0  0  0  0
 15 13  1  0  0  0  0
 16 17  1  0  0  0  0
 16 18  1  0  0  0  0
 16  4  1  0  0  0  0
 19 16  1  0  0  0  0
 20  4  1  0  0  0  0
 20 23  1  0  0  0  0
 21 20  1  0  0  0  0
 22 20  1  0  0  0  0
 23 24  1  0  0  0  0
 23  7  1  0  0  0  0
 25 23  1  0  0  0  0
 26  7  1  0  0  0  0
 26 28  1  0  0  0  0
 26 27  1  0  0  0  0
 29 26  1  0  0  0  0
 30 31  1  0  0  0  0
 30 33  1  0  0  0  0
 32 30  1  0  0  0  0
 33 35  1  0  0  0  0
 33 34  1  0  0  0  0
 36 39  1  0  0  0  0
 37 36  1  0  0  0  0
 38 36  1  0  0  0  0
 40 41  1  0  0  0  0
 40 42  1  0  0  0  0
 43 44  1  0  0  0  0
 43  1  1  0  0  0  0
 45 43  1  0  0  0  0
 46 43  1  0  0  0  0
M  END
