1,7,17,24
q = 0.0, confidence = 0.998

 49 53  0  0  1  0  0  0  0  0999 V2000
   -1.8596    1.8898    0.7633 N   0  0  0  0  0  2  0  0  0  0  0  0
   -1.1660    2.8841    0.2356 C   0  0  1  0  0  3  0  0  0  0  0  0
   -2.0052    4.4099    0.3030 S   0  0  0  0  0  0  0  0  0  0  0  0
   -3.3283    3.6300    1.0963 C   0  0  0  0  0  0  0  0  0  0  0  0
   -3.0836    2.2769    1.2564 C   0  0  0  0  0  0  0  0  0  0  0  0
   -3.9968    1.2710    1.8766 C   0  0  0  0  0  0  0  0  0  0  0  0
    0.6537    1.4639   -0.3617 N   0  0  0  0  0  2  0  0  0  0  0  0
    1.9127    1.1457   -0.7044 C   0  0  0  0  0  0  0  0  0  0  0  0
    2.8518    2.2079   -0.9284 C   0  0  0  0  0  0  0  0  0  0  0  0
    4.1968    2.0310   -1.1537 N   0  0  0  0  0  0  0  0  0  0  0  0
    2.3482    3.5355   -0.9329 C   0  0  0  0  0  0  0  0  0  0  0  0
    1.0255    3.8065   -0.6256 C   0  0  0  0  0  0  0  0  0  0  0  0
    0.1958    2.7180   -0.2805 C   0  0  0  0  0  0  0  0  0  0  0  0
    4.9850    0.9554   -0.5439 C   0  0  0  0  0  0  0  0  0  0  0  0
    6.4581    1.2525   -0.8500 C   0  0  0  0  0  0  0  0  0  0  0  0
    4.7473    0.8601    0.9785 C   0  0  0  0  0  0  0  0  0  0  0  0
    1.0961   -1.1084   -0.7093 N   0  0  0  0  0  2  0  0  0  0  0  0
    2.1801   -0.3241   -0.8451 C   0  0  0  0  0  0  0  0  0  0  0  0
    3.4468   -0.9455   -1.1285 C   0  0  0  0  0  0  0  0  0  0  0  0
    4.6561   -0.3043   -1.2094 N   0  0  0  0  0  0  0  0  0  0  0  0
    3.4480   -2.3479   -1.3611 C   0  0  0  0  0  0  0  0  0  0  0  0
    2.2967   -3.1027   -1.2402 C   0  0  0  0  0  0  0  0  0  0  0  0
    1.1127   -2.4376   -0.8581 C   0  0  0  0  0  0  0  0  0  0  0  0
   -1.1996   -2.5644   -0.0432 N   0  0  0  0  0  2  0  0  0  0  0  0
   -0.1276   -3.1519   -0.5459 C   0  0  2  0  0  3  0  0  0  0  0  0
   -0.3157   -4.8786   -0.7218 S   0  0  0  0  0  0  0  0  0  0  0  0
   -1.9107   -4.7546   -0.0635 C   0  0  0  0  0  0  0  0  0  0  0  0
   -2.2200   -3.4417    0.2494 C   0  0  0  0  0  0  0  0  0  0  0  0
   -3.4939   -2.9532    0.8576 C   0  0  0  0  0  0  0  0  0  0  0  0
    5.4519   -0.9280   -1.3479 H   0  0  0  0  0  0  0  0  0  0  0  0
    3.0453    4.3599   -1.1508 H   0  0  0  0  0  0  0  0  0  0  0  0
    0.6509    4.8400   -0.6009 H   0  0  0  0  0  0  0  0  0  0  0  0
   -3.9947   -2.2501    0.1618 H   0  0  0  0  0  0  0  0  0  0  0  0
   -4.3568    0.5831    1.0845 H   0  0  0  0  0  0  0  0  0  0  0  0
    6.7656    2.2018   -0.3700 H   0  0  0  0  0  0  0  0  0  0  0  0
   -3.4461    0.6685    2.6273 H   0  0  0  0  0  0  0  0  0  0  0  0
   -4.1707   -3.7939    1.0947 H   0  0  0  0  0  0  0  0  0  0  0  0
   -4.8605    1.7574    2.3650 H   0  0  0  0  0  0  0  0  0  0  0  0
    4.4034   -2.8353   -1.6111 H   0  0  0  0  0  0  0  0  0  0  0  0
   -4.2208    4.1946    1.3880 H   0  0  0  0  0  0  0  0  0  0  0  0
    6.6212    1.3275   -1.9434 H   0  0  0  0  0  0  0  0  0  0  0  0
    2.3164   -4.1911   -1.3953 H   0  0  0  0  0  0  0  0  0  0  0  0
   -2.5368   -5.6446    0.0654 H   0  0  0  0  0  0  0  0  0  0  0  0
    3.7004    0.6092    1.2450 H   0  0  0  0  0  0  0  0  0  0  0  0
    5.3995    0.0752    1.4099 H   0  0  0  0  0  0  0  0  0  0  0  0
    4.9948    1.8258    1.4620 H   0  0  0  0  0  0  0  0  0  0  0  0
    7.1053    0.4529   -0.4403 H   0  0  0  0  0  0  0  0  0  0  0  0
    4.7130    2.9051   -1.2621 H   0  0  0  0  0  0  0  0  0  0  0  0
   -3.2755   -2.3952    1.7914 H   0  0  0  0  0  0  0  0  0  0  0  0
  1  5  1  0  0  0  0
  2 13  1  1  0  0  0
  2  3  1  0  0  0  0
  2  1  1  0  0  0  0
  3  4  1  0  0  0  0
  4  5  2  0  0  0  0
  4 40  1  0  0  0  0
  5  6  1  0  0  0  0
  6 38  1  0  0  0  0
  6 36  1  0  0  0  0
  7 13  1  0  0  0  0
  8  7  1  0  0  0  0
  9  8  1  0  0  0  0
 10  9  1  0  0  0  0
 10 14  1  0  0  0  0
 11  9  2  0  0  0  0
 11 12  1  0  0  0  0
 12 32  1  0  0  0  0
 12 13  2  0  0  0  0
 14 16  1  0  0  0  0
 15 14  1  0  0  0  0
 15 47  1  0  0  0  0
 15 35  1  0  0  0  0
 16 44  1  0  0  0  0
 16 45  1  0  0  0  0
 16 46  1  0  0  0  0
 18 17  1  0  0  0  0
 18  8  2  0  0  0  0
 19 18  1  0  0  0  0
 20 19  1  0  0  0  0
 20 14  1  0  0  0  0
 21 22  1  0  0  0  0
 21 19  2  0  0  0  0
 22 23  2  0  0  0  0
 23 17  1  0  0  0  0
 24 28  1  0  0  0  0
 25 23  1  1  0  0  0
 25 24  1  0  0  0  0
 26 25  1  0  0  0  0
 26 27  1  0  0  0  0
 27 43  1  0  0  0  0
 27 28  2  0  0  0  0
 28 29  1  0  0  0  0
 29 37  1  0  0  0  0
 29 49  1  0  0  0  0
 30 20  1  0  0  0  0
 31 11  1  0  0  0  0
 33 29  1  0  0  0  0
 34  6  1  0  0  0  0
 39 21  1  0  0  0  0
 41 15  1  0  0  0  0
 42 22  1  0  0  0  0
 48 10  1  0  0  0  0
M  END
