1,2,28,33
q = 0.0, confidence = 0.966

 79 78  0  0  0  0  0  0  0  0999 V2000
    0.0008   -0.0001    2.6402 N   0  0  0  0  0  0  0  0  0  0  0  0
   -1.0759    1.7251    0.5947 N   0  0  0  0  0  2  0  0  0  0  0  0
   -1.8160    3.8621   -0.1941 N   0  0  0  0  0  0  0  0  0  0  0  0
   -2.2096    1.9143   -1.4426 N   0  0  0  0  0  0  0  0  0  0  0  0
   -0.9785    1.0399    2.9595 C   0  0  0  0  0  0  0  0  0  0  0  0
   -0.9234    2.2066    1.9620 C   0  0  0  0  0  0  0  0  0  0  0  0
   -1.6640    2.4865   -0.3046 C   0  0  0  0  0  3  0  0  0  0  0  0
   -0.7432    4.7106    0.2925 C   0  0  0  0  0  0  0  0  0  0  0  0
   -3.0378    4.5397   -0.5976 C   0  0  0  0  0  0  0  0  0  0  0  0
   -2.4911    0.4943   -1.4534 C   0  0  0  0  0  0  0  0  0  0  0  0
   -2.0208    2.5242   -2.7516 C   0  0  0  0  0  0  0  0  0  0  0  0
   -0.8543    1.4335    3.9984 H   0  0  0  0  0  0  0  0  0  0  0  0
    0.0474    2.7383    2.0940 H   0  0  0  0  0  0  0  0  0  0  0  0
   -1.7133    2.9443    2.2292 H   0  0  0  0  0  0  0  0  0  0  0  0
   -2.8855    5.2055   -1.4775 H   0  0  0  0  0  0  0  0  0  0  0  0
    0.1991    4.1369    0.3483 H   0  0  0  0  0  0  0  0  0  0  0  0
   -1.9880    0.5851    2.9091 H   0  0  0  0  0  0  0  0  0  0  0  0
   -3.4191    5.1686    0.2366 H   0  0  0  0  0  0  0  0  0  0  0  0
   -0.5835    5.5559   -0.4129 H   0  0  0  0  0  0  0  0  0  0  0  0
   -0.9522    5.1445    1.2958 H   0  0  0  0  0  0  0  0  0  0  0  0
   -3.8108    3.7928   -0.8528 H   0  0  0  0  0  0  0  0  0  0  0  0
   -2.8906    0.1834   -0.4710 H   0  0  0  0  0  0  0  0  0  0  0  0
   -1.5726   -0.1173   -1.6332 H   0  0  0  0  0  0  0  0  0  0  0  0
   -1.6257    3.5492   -2.6405 H   0  0  0  0  0  0  0  0  0  0  0  0
   -2.9747    2.5728   -3.3180 H   0  0  0  0  0  0  0  0  0  0  0  0
   -3.2357    0.2745   -2.2452 H   0  0  0  0  0  0  0  0  0  0  0  0
   -1.2904    1.9404   -3.3583 H   0  0  0  0  0  0  0  0  0  0  0  0
   -0.9567   -1.7948    0.5952 N   0  0  0  0  0  2  0  0  0  0  0  0
   -1.4499   -1.9024    1.9627 C   0  0  0  0  0  0  0  0  0  0  0  0
   -0.4105   -1.3680    2.9595 C   0  0  0  0  0  0  0  0  0  0  0  0
    1.3910    0.3284    2.9593 C   0  0  0  0  0  0  0  0  0  0  0  0
    2.3739   -0.3035    1.9624 C   0  0  0  0  0  0  0  0  0  0  0  0
    2.0330    0.0688    0.5950 N   0  0  0  0  0  2  0  0  0  0  0  0
    2.9863    0.1974   -0.3046 C   0  0  0  0  0  3  0  0  0  0  0  0
    4.2531   -0.3600   -0.1951 N   0  0  0  0  0  0  0  0  0  0  0  0
    4.4505   -1.7132    0.2921 C   0  0  0  0  0  0  0  0  0  0  0  0
    3.4821   -2.2414    0.3488 H   0  0  0  0  0  0  0  0  0  0  0  0
    5.1017   -2.2752   -0.4135 H   0  0  0  0  0  0  0  0  0  0  0  0
    4.9316   -1.7491    1.2951 H   0  0  0  0  0  0  0  0  0  0  0  0
    5.4511    0.3578   -0.6004 C   0  0  0  0  0  0  0  0  0  0  0  0
    5.9499   -0.1080   -1.4807 H   0  0  0  0  0  0  0  0  0  0  0  0
    6.1875    0.3731    0.2328 H   0  0  0  0  0  0  0  0  0  0  0  0
    5.1917    1.4008   -0.8559 H   0  0  0  0  0  0  0  0  0  0  0  0
    2.7638    0.9573   -1.4416 N   0  0  0  0  0  0  0  0  0  0  0  0
    1.6763    1.9130   -1.4505 C   0  0  0  0  0  0  0  0  0  0  0  0
    1.6082    2.4135   -0.4675 H   0  0  0  0  0  0  0  0  0  0  0  0
    0.6864    1.4253   -1.6303 H   0  0  0  0  0  0  0  0  0  0  0  0
    1.8589    2.6684   -2.2416 H   0  0  0  0  0  0  0  0  0  0  0  0
    3.1961    0.4900   -2.7514 C   0  0  0  0  0  0  0  0  0  0  0  0
    3.8844   -0.3663   -2.6419 H   0  0  0  0  0  0  0  0  0  0  0  0
    3.7166    1.2914   -3.3170 H   0  0  0  0  0  0  0  0  0  0  0  0
    2.3243    0.1520   -3.3583 H   0  0  0  0  0  0  0  0  0  0  0  0
    2.3490   -1.4101    2.0952 H   0  0  0  0  0  0  0  0  0  0  0  0
    3.4077    0.0118    2.2294 H   0  0  0  0  0  0  0  0  0  0  0  0
    1.6698    0.0256    3.9986 H   0  0  0  0  0  0  0  0  0  0  0  0
    1.5015    1.4300    2.9069 H   0  0  0  0  0  0  0  0  0  0  0  0
   -0.8124   -1.4576    3.9988 H   0  0  0  0  0  0  0  0  0  0  0  0
    0.4875   -2.0154    2.9073 H   0  0  0  0  0  0  0  0  0  0  0  0
   -2.3947   -1.3256    2.0948 H   0  0  0  0  0  0  0  0  0  0  0  0
   -1.6954   -2.9547    2.2304 H   0  0  0  0  0  0  0  0  0  0  0  0
   -1.3228   -2.6846   -0.3040 C   0  0  0  0  0  3  0  0  0  0  0  0
   -2.4400   -3.5016   -0.1947 N   0  0  0  0  0  0  0  0  0  0  0  0
   -3.7103   -2.9939    0.2912 C   0  0  0  0  0  0  0  0  0  0  0  0
   -3.6818   -1.8911    0.3473 H   0  0  0  0  0  0  0  0  0  0  0  0
   -4.5224   -3.2760   -0.4149 H   0  0  0  0  0  0  0  0  0  0  0  0
   -3.9834   -3.3915    1.2942 H   0  0  0  0  0  0  0  0  0  0  0  0
   -2.4189   -4.8984   -0.5987 C   0  0  0  0  0  0  0  0  0  0  0  0
   -3.0717   -5.0974   -1.4791 H   0  0  0  0  0  0  0  0  0  0  0  0
   -2.7748   -5.5427    0.2349 H   0  0  0  0  0  0  0  0  0  0  0  0
   -1.3861   -5.1966   -0.8537 H   0  0  0  0  0  0  0  0  0  0  0  0
   -0.5534   -2.8726   -1.4409 N   0  0  0  0  0  0  0  0  0  0  0  0
    0.8184   -2.4100   -1.4489 C   0  0  0  0  0  0  0  0  0  0  0  0
    1.2852   -2.6029   -0.4659 H   0  0  0  0  0  0  0  0  0  0  0  0
    0.8922   -1.3087   -1.6274 H   0  0  0  0  0  0  0  0  0  0  0  0
    1.3810   -2.9456   -2.2404 H   0  0  0  0  0  0  0  0  0  0  0  0
   -1.1738   -3.0119   -2.7511 C   0  0  0  0  0  0  0  0  0  0  0  0
   -2.2597   -3.1798   -2.6423 H   0  0  0  0  0  0  0  0  0  0  0  0
   -0.7399   -3.8629   -3.3172 H   0  0  0  0  0  0  0  0  0  0  0  0
   -1.0302   -2.0873   -3.3570 H   0  0  0  0  0  0  0  0  0  0  0  0
  1 31  1  0  0  0  0
  1 30  1  0  0  0  0
  1  5  1  0  0  0  0
  2  6  1  0  0  0  0
  3  8  1  0  0  0  0
  4  7  1  0  0  0  0
  5 12  1  0  0  0  0
  6 13  1  0  0  0  0
  6 14  1  0  0  0  0
  6  5  1  0  0  0  0
  7  3  1  0  0  0  0
  7  2  1  0  0  0  0
  8 16  1  0  0  0  0
  8 20  1  0  0  0  0
  9  3  1  0  0  0  0
  9 18  1  0  0  0  0
 10  4  1  0  0  0  0
 10 22  1  0  0  0  0
 11 24  1  0  0  0  0
 11  4  1  0  0  0  0
 15  9  1  0  0  0  0
 17  5  1  0  0  0  0
 19  8  1  0  0  0  0
 21  9  1  0  0  0  0
 23 10  1  0  0  0  0
 25 11  1  0  0  0  0
 26 10  1  0  0  0  0
 27 11  1  0  0  0  0
 28 29  1  0  0  0  0
 29 59  1  0  0  0  0
 29 60  1  0  0  0  0
 29 30  1  0  0  0  0
 30 57  1  0  0  0  0
 31 55  1  0  0  0  0
 32 53  1  0  0  0  0
 32 54  1  0  0  0  0
 32 31  1  0  0  0  0
 33 32  1  0  0  0  0
 34 35  1  0  0  0  0
 34 33  1  0  0  0  0
 35 36  1  0  0  0  0
 36 37  1  0  0  0  0
 36 39  1  0  0  0  0
 38 36  1  0  0  0  0
 40 35  1  0  0  0  0
 40 42  1  0  0  0  0
 41 40  1  0  0  0  0
 43 40  1  0  0  0  0
 44 34  1  0  0  0  0
 45 44  1  0  0  0  0
 45 46  1  0  0  0  0
 47 45  1  0  0  0  0
 48 45  1  0  0  0  0
 49 50  1  0  0  0  0
 49 44  1  0  0  0  0
 51 49  1  0  0  0  0
 52 49  1  0  0  0  0
 56 31  1  0  0  0  0
 58 30  1  0  0  0  0
 61 62  1  0  0  0  0
 61 28  1  0  0  0  0
 62 63  1  0  0  0  0
 63 64  1  0  0  0  0
 63 66  1  0  0  0  0
 65 63  1  0  0  0  0
 67 62  1  0  0  0  0
 67 69  1  0  0  0  0
 68 67  1  0  0  0  0
 70 67  1  0  0  0  0
 71 61  1  0  0  0  0
 72 71  1  0  0  0  0
 72 73  1  0  0  0  0
 74 72  1  0  0  0  0
 75 72  1  0  0  0  0
 76 77  1  0  0  0  0
 76 71  1  0  0  0  0
 78 76  1  0  0  0  0
 79 76  1  0  0  0  0
M  END
