73,74,77,80
q = 0.0, confidence = 0.99

 82 84  0  0  0  0  0  0  0  0999 V2000
    0.1731    1.4158    3.2029 C   0  0  0  0  0  0  0  0  0  0  0  0
    1.2569    1.6457    3.1739 H   0  0  0  0  0  0  0  0  0  0  0  0
   -0.1821    1.6607    4.2339 H   0  0  0  0  0  0  0  0  0  0  0  0
   -0.5395    2.3209    2.1862 C   0  0  0  0  0  0  0  0  0  0  0  0
   -1.6379    2.1459    2.2874 H   0  0  0  0  0  0  0  0  0  0  0  0
   -0.3730    3.3870    2.4639 H   0  0  0  0  0  0  0  0  0  0  0  0
   -0.0376    2.9884   -0.0722 C   0  0  0  0  0  3  0  0  0  0  0  0
    0.5598    3.5089   -2.4568 C   0  0  0  0  0  0  0  0  0  0  0  0
    0.2130    2.7654   -3.2124 H   0  0  0  0  0  0  0  0  0  0  0  0
    1.5447    3.8816   -2.8145 H   0  0  0  0  0  0  0  0  0  0  0  0
   -0.4248    4.6736   -2.3430 C   0  0  0  0  0  0  0  0  0  0  0  0
   -1.4689    4.3335   -2.5088 H   0  0  0  0  0  0  0  0  0  0  0  0
   -0.2083    5.4327   -3.1205 H   0  0  0  0  0  0  0  0  0  0  0  0
   -0.3117    5.2394   -0.9276 C   0  0  0  0  0  0  0  0  0  0  0  0
    0.7326    5.5509   -0.7118 H   0  0  0  0  0  0  0  0  0  0  0  0
   -0.9578    6.1247   -0.7762 H   0  0  0  0  0  0  0  0  0  0  0  0
    1.7845    1.7940   -1.1718 C   0  0  0  0  0  0  0  0  0  0  0  0
    2.2419    1.7029   -0.1699 H   0  0  0  0  0  0  0  0  0  0  0  0
    2.5656    2.0363   -1.9204 H   0  0  0  0  0  0  0  0  0  0  0  0
    1.3441    0.7951   -1.4091 H   0  0  0  0  0  0  0  0  0  0  0  0
   -2.1399    4.2145    0.3532 C   0  0  0  0  0  0  0  0  0  0  0  0
   -2.4148    3.3277    0.9468 H   0  0  0  0  0  0  0  0  0  0  0  0
   -2.7767    4.2141   -0.5627 H   0  0  0  0  0  0  0  0  0  0  0  0
   -2.3890    5.1171    0.9466 H   0  0  0  0  0  0  0  0  0  0  0  0
    1.1423   -0.8617    3.2014 C   0  0  0  0  0  0  0  0  0  0  0  0
    0.7991   -1.9151    3.1711 H   0  0  0  0  0  0  0  0  0  0  0  0
    1.5324   -0.6780    4.2325 H   0  0  0  0  0  0  0  0  0  0  0  0
    2.2823   -0.6963    2.1846 C   0  0  0  0  0  0  0  0  0  0  0  0
    2.6810    0.3419    2.2874 H   0  0  0  0  0  0  0  0  0  0  0  0
    3.1217   -1.3747    2.4610 H   0  0  0  0  0  0  0  0  0  0  0  0
    2.6085   -1.4613   -0.0749 C   0  0  0  0  0  3  0  0  0  0  0  0
    2.7604   -2.2355   -2.4607 C   0  0  0  0  0  0  0  0  0  0  0  0
    2.2906   -1.5621   -3.2156 H   0  0  0  0  0  0  0  0  0  0  0  0
    2.5901   -3.2743   -2.8198 H   0  0  0  0  0  0  0  0  0  0  0  0
    4.2615   -1.9664   -2.3463 C   0  0  0  0  0  0  0  0  0  0  0  0
    4.4899   -0.8921   -2.5103 H   0  0  0  0  0  0  0  0  0  0  0  0
    4.8104   -2.5327   -3.1246 H   0  0  0  0  0  0  0  0  0  0  0  0
    4.6945   -2.3498   -0.9314 C   0  0  0  0  0  0  0  0  0  0  0  0
    4.4413   -3.4101   -0.7173 H   0  0  0  0  0  0  0  0  0  0  0  0
    5.7842   -2.2339   -0.7796 H   0  0  0  0  0  0  0  0  0  0  0  0
    0.6622   -2.4378   -1.1765 C   0  0  0  0  0  0  0  0  0  0  0  0
    0.3546   -2.7943   -0.1767 H   0  0  0  0  0  0  0  0  0  0  0  0
    0.4798   -3.2304   -1.9298 H   0  0  0  0  0  0  0  0  0  0  0  0
    0.0184   -1.5544   -1.4077 H   0  0  0  0  0  0  0  0  0  0  0  0
    4.7227   -0.2563    0.3530 C   0  0  0  0  0  0  0  0  0  0  0  0
    4.0917    0.4259    0.9451 H   0  0  0  0  0  0  0  0  0  0  0  0
    5.0441    0.2951   -0.5617 H   0  0  0  0  0  0  0  0  0  0  0  0
    5.6271   -0.4936    0.9487 H   0  0  0  0  0  0  0  0  0  0  0  0
   -1.3143   -0.5623    3.2018 C   0  0  0  0  0  0  0  0  0  0  0  0
   -2.0552    0.2615    3.1735 H   0  0  0  0  0  0  0  0  0  0  0  0
   -1.3492   -0.9936    4.2323 H   0  0  0  0  0  0  0  0  0  0  0  0
   -1.7412   -1.6308    2.1837 C   0  0  0  0  0  0  0  0  0  0  0  0
   -1.0408   -2.4948    2.2843 H   0  0  0  0  0  0  0  0  0  0  0  0
   -2.7480   -2.0198    2.4603 H   0  0  0  0  0  0  0  0  0  0  0  0
   -2.5701   -1.5266   -0.0742 C   0  0  0  0  0  3  0  0  0  0  0  0
   -3.3223   -1.2671   -2.4578 C   0  0  0  0  0  0  0  0  0  0  0  0
   -2.5059   -1.1961   -3.2144 H   0  0  0  0  0  0  0  0  0  0  0  0
   -4.1372   -0.5992   -2.8139 H   0  0  0  0  0  0  0  0  0  0  0  0
   -3.8405   -2.7016   -2.3445 C   0  0  0  0  0  0  0  0  0  0  0  0
   -3.0252   -3.4368   -2.5123 H   0  0  0  0  0  0  0  0  0  0  0  0
   -4.6077   -2.8918   -3.1210 H   0  0  0  0  0  0  0  0  0  0  0  0
   -4.3850   -2.8872   -0.9284 C   0  0  0  0  0  0  0  0  0  0  0  0
   -5.1758   -2.1381   -0.7106 H   0  0  0  0  0  0  0  0  0  0  0  0
   -4.8292   -3.8891   -0.7771 H   0  0  0  0  0  0  0  0  0  0  0  0
   -2.4466    0.6494   -1.1725 C   0  0  0  0  0  0  0  0  0  0  0  0
   -2.5935    1.0899   -0.1697 H   0  0  0  0  0  0  0  0  0  0  0  0
   -3.0487    1.2058   -1.9188 H   0  0  0  0  0  0  0  0  0  0  0  0
   -1.3620    0.7674   -1.4128 H   0  0  0  0  0  0  0  0  0  0  0  0
   -2.5823   -3.9607    0.3495 C   0  0  0  0  0  0  0  0  0  0  0  0
   -1.6700   -3.7552    0.9324 H   0  0  0  0  0  0  0  0  0  0  0  0
   -2.2747   -4.5167   -0.5672 H   0  0  0  0  0  0  0  0  0  0  0  0
   -3.2351   -4.6234    0.9526 H   0  0  0  0  0  0  0  0  0  0  0  0
    0.0004   -0.0025    2.8814 N   0  0  0  0  0  0  0  0  0  0  0  0
   -0.0752    2.0350    0.8377 N   0  0  0  0  0  2  0  0  0  0  0  0
    0.7924    2.8479   -1.1680 N   0  0  0  0  0  0  0  0  0  0  0  0
   -0.7187    4.2010    0.0223 N   0  0  0  0  0  0  0  0  0  0  0  0
    1.8020   -0.9529    0.8358 N   0  0  0  0  0  2  0  0  0  0  0  0
    2.0714   -2.1075   -1.1719 N   0  0  0  0  0  0  0  0  0  0  0  0
    3.9992   -1.4790    0.0196 N   0  0  0  0  0  0  0  0  0  0  0  0
   -1.7248   -1.0842    0.8357 N   0  0  0  0  0  2  0  0  0  0  0  0
   -2.8638   -0.7366   -1.1693 N   0  0  0  0  0  0  0  0  0  0  0  0
   -3.2803   -2.7224    0.0195 N   0  0  0  0  0  0  0  0  0  0  0  0
  1  3  1  0  0  0  0
  2  1  1  0  0  0  0
  4  5  1  0  0  0  0
  4  6  1  0  0  0  0
  4  1  1  0  0  0  0
  7 76  1  0  0  0  0
  7 74  1  0  0  0  0
  8 11  1  0  0  0  0
  8 75  1  0  0  0  0
  9  8  1  0  0  0  0
 10  8  1  0  0  0  0
 11 14  1  0  0  0  0
 12 11  1  0  0  0  0
 13 11  1  0  0  0  0
 14 16  1  0  0  0  0
 14 15  1  0  0  0  0
 14 76  1  0  0  0  0
 17 75  1  0  0  0  0
 17 18  1  0  0  0  0
 19 17  1  0  0  0  0
 20 17  1  0  0  0  0
 21 24  1  0  0  0  0
 21 22  1  0  0  0  0
 23 21  1  0  0  0  0
 25 27  1  0  0  0  0
 26 25  1  0  0  0  0
 28 29  1  0  0  0  0
 28 30  1  0  0  0  0
 28 25  1  0  0  0  0
 31 79  1  0  0  0  0
 31 77  1  0  0  0  0
 32 35  1  0  0  0  0
 32 78  1  0  0  0  0
 33 32  1  0  0  0  0
 34 32  1  0  0  0  0
 35 38  1  0  0  0  0
 36 35  1  0  0  0  0
 37 35  1  0  0  0  0
 38 40  1  0  0  0  0
 38 39  1  0  0  0  0
 38 79  1  0  0  0  0
 41 78  1  0  0  0  0
 41 42  1  0  0  0  0
 43 41  1  0  0  0  0
 44 41  1  0  0  0  0
 45 46  1  0  0  0  0
 45 48  1  0  0  0  0
 47 45  1  0  0  0  0
 49 51  1  0  0  0  0
 50 49  1  0  0  0  0
 52 53  1  0  0  0  0
 52 54  1  0  0  0  0
 52 49  1  0  0  0  0
 55 82  1  0  0  0  0
 55 80  1  0  0  0  0
 56 59  1  0  0  0  0
 56 81  1  0  0  0  0
 57 56  1  0  0  0  0
 58 56  1  0  0  0  0
 59 62  1  0  0  0  0
 60 59  1  0  0  0  0
 61 59  1  0  0  0  0
 62 64  1  0  0  0  0
 62 63  1  0  0  0  0
 62 82  1  0  0  0  0
 65 81  1  0  0  0  0
 65 66  1  0  0  0  0
 67 65  1  0  0  0  0
 68 65  1  0  0  0  0
 69 70  1  0  0  0  0
 69 72  1  0  0  0  0
 71 69  1  0  0  0  0
 73 25  1  0  0  0  0
 73 49  1  0  0  0  0
 73  1  1  0  0  0  0
 74  4  1  0  0  0  0
 75  7  1  0  0  0  0
 76 21  1  0  0  0  0
 77 28  1  0  0  0  0
 78 31  1  0  0  0  0
 79 45  1  0  0  0  0
 80 52  1  0  0  0  0
 81 55  1  0  0  0  0
 82 69  1  0  0  0  0
M  END
