1,16,17,29
q = 0.0, confidence = 0.954

 50 50  0  0  1  0  0  0  0  0999 V2000
    0.6110    1.2358   -1.4647 N   0  0  0  0  0  0  0  0  0  0  0  0
    0.6110    0.4422   -2.7131 C   0  0  0  0  0  0  0  0  0  0  0  0
    1.8543    2.0428   -1.2926 C   0  0  2  0  0  0  0  0  0  0  0  0
    1.7829    2.8511   -0.0000 C   0  0  0  0  0  0  0  0  0  0  0  0
    2.1095    2.9668   -2.4898 C   0  0  0  0  0  0  0  0  0  0  0  0
   -0.2027    1.8802   -1.4847 H   0  0  0  0  0  0  0  0  0  0  0  0
    1.5397   -0.1647   -2.7207 H   0  0  0  0  0  0  0  0  0  0  0  0
    0.6141    1.0916   -3.6112 H   0  0  0  0  0  0  0  0  0  0  0  0
    2.6768    1.3017   -1.2058 H   0  0  0  0  0  0  0  0  0  0  0  0
    2.6421    3.5496   -0.0000 H   0  0  0  0  0  0  0  0  0  0  0  0
    0.8750    3.4979   -0.0000 H   0  0  0  0  0  0  0  0  0  0  0  0
    3.0139    3.5759   -2.2998 H   0  0  0  0  0  0  0  0  0  0  0  0
    1.2622    3.6671   -2.6465 H   0  0  0  0  0  0  0  0  0  0  0  0
    2.2878    2.4137   -3.4306 H   0  0  0  0  0  0  0  0  0  0  0  0
   -0.6110   -0.4422   -2.7131 C   0  0  0  0  0  0  0  0  0  0  0  0
   -0.6110   -1.2358   -1.4647 N   0  0  0  0  0  0  0  0  0  0  0  0
    0.6110    1.2358    1.4647 N   0  0  0  0  0  0  0  0  0  0  0  0
    0.6110    0.4422    2.7131 C   0  0  0  0  0  0  0  0  0  0  0  0
   -0.6110   -0.4422    2.7131 C   0  0  0  0  0  0  0  0  0  0  0  0
    1.5397   -0.1647    2.7207 H   0  0  0  0  0  0  0  0  0  0  0  0
    0.6141    1.0916    3.6112 H   0  0  0  0  0  0  0  0  0  0  0  0
    1.8543    2.0428    1.2926 C   0  0  2  0  0  0  0  0  0  0  0  0
    2.1095    2.9668    2.4898 C   0  0  0  0  0  0  0  0  0  0  0  0
    3.0139    3.5759    2.2998 H   0  0  0  0  0  0  0  0  0  0  0  0
    1.2622    3.6671    2.6465 H   0  0  0  0  0  0  0  0  0  0  0  0
    2.2878    2.4137    3.4306 H   0  0  0  0  0  0  0  0  0  0  0  0
    2.6768    1.3017    1.2058 H   0  0  0  0  0  0  0  0  0  0  0  0
   -0.2027    1.8802    1.4847 H   0  0  0  0  0  0  0  0  0  0  0  0
   -0.6110   -1.2358    1.4647 N   0  0  0  0  0  0  0  0  0  0  0  0
   -1.5397    0.1647    2.7207 H   0  0  0  0  0  0  0  0  0  0  0  0
   -0.6141   -1.0916    3.6112 H   0  0  0  0  0  0  0  0  0  0  0  0
   -1.8543   -2.0428    1.2926 C   0  0  1  0  0  0  0  0  0  0  0  0
   -1.7829   -2.8511   -0.0000 C   0  0  0  0  0  0  0  0  0  0  0  0
   -1.8543   -2.0428   -1.2926 C   0  0  2  0  0  0  0  0  0  0  0  0
    0.2027   -1.8802   -1.4847 H   0  0  0  0  0  0  0  0  0  0  0  0
   -2.1095   -2.9668   -2.4898 C   0  0  0  0  0  0  0  0  0  0  0  0
   -3.0139   -3.5759   -2.2998 H   0  0  0  0  0  0  0  0  0  0  0  0
   -1.2622   -3.6671   -2.6465 H   0  0  0  0  0  0  0  0  0  0  0  0
   -2.2878   -2.4137   -3.4306 H   0  0  0  0  0  0  0  0  0  0  0  0
   -2.6768   -1.3017   -1.2058 H   0  0  0  0  0  0  0  0  0  0  0  0
   -2.6421   -3.5496   -0.0000 H   0  0  0  0  0  0  0  0  0  0  0  0
   -0.8750   -3.4979   -0.0000 H   0  0  0  0  0  0  0  0  0  0  0  0
   -2.1095   -2.9668    2.4898 C   0  0  0  0  0  0  0  0  0  0  0  0
   -3.0139   -3.5759    2.2998 H   0  0  0  0  0  0  0  0  0  0  0  0
   -1.2622   -3.6671    2.6465 H   0  0  0  0  0  0  0  0  0  0  0  0
   -2.2878   -2.4137    3.4306 H   0  0  0  0  0  0  0  0  0  0  0  0
   -2.6768   -1.3017    1.2058 H   0  0  0  0  0  0  0  0  0  0  0  0
    0.2027   -1.8802    1.4847 H   0  0  0  0  0  0  0  0  0  0  0  0
   -1.5397    0.1647   -2.7207 H   0  0  0  0  0  0  0  0  0  0  0  0
   -0.6141   -1.0916   -3.6112 H   0  0  0  0  0  0  0  0  0  0  0  0
  1  3  1  0  0  0  0
  2 15  1  0  0  0  0
  2  1  1  0  0  0  0
  3  9  1  1  0  0  0
  3  4  1  0  0  0  0
  4 11  1  0  0  0  0
  4 22  1  0  0  0  0
  5 12  1  0  0  0  0
  5  3  1  0  0  0  0
  6  1  1  0  0  0  0
  7  2  1  0  0  0  0
  8  2  1  0  0  0  0
 10  4  1  0  0  0  0
 13  5  1  0  0  0  0
 14  5  1  0  0  0  0
 15 16  1  0  0  0  0
 16 34  1  0  0  0  0
 17 28  1  0  0  0  0
 17 18  1  0  0  0  0
 18 19  1  0  0  0  0
 18 20  1  0  0  0  0
 18 21  1  0  0  0  0
 19 30  1  0  0  0  0
 19 31  1  0  0  0  0
 22 27  1  6  0  0  0
 22 17  1  0  0  0  0
 22 23  1  0  0  0  0
 23 25  1  0  0  0  0
 23 26  1  0  0  0  0
 24 23  1  0  0  0  0
 29 48  1  0  0  0  0
 29 19  1  0  0  0  0
 32 47  1  6  0  0  0
 32 29  1  0  0  0  0
 32 43  1  0  0  0  0
 33 32  1  0  0  0  0
 34 40  1  1  0  0  0
 34 33  1  0  0  0  0
 35 16  1  0  0  0  0
 36 37  1  0  0  0  0
 36 34  1  0  0  0  0
 38 36  1  0  0  0  0
 39 36  1  0  0  0  0
 41 33  1  0  0  0  0
 42 33  1  0  0  0  0
 43 45  1  0  0  0  0
 43 46  1  0  0  0  0
 44 43  1  0  0  0  0
 49 15  1  0  0  0  0
 50 15  1  0  0  0  0
M  END
