2,4,20,35
q = -2.0, confidence = 0.864

 38 39  0  0  1  0  0  0  0  0999 V2000
   -3.3458   -1.7601    1.0386 O   0  0  0  0  0  0  0  0  0  0  0  0
   -1.4972    1.3266    0.2462 N   0  0  0  0  0  0  0  0  0  0  0  0
   -1.2728    2.0573    0.9343 H   0  0  0  0  0  0  0  0  0  0  0  0
   -1.1918   -1.2470    0.3459 N   0  0  0  0  0  2  0  0  0  0  0  0
   -1.8701    1.9818   -1.0558 C   0  0  0  0  0  0  0  0  0  0  0  0
   -2.1422    3.0456   -0.8767 H   0  0  0  0  0  0  0  0  0  0  0  0
   -1.0163    1.9555   -1.7611 H   0  0  0  0  0  0  0  0  0  0  0  0
   -3.0882    1.1983   -1.5438 C   0  0  0  0  0  0  0  0  0  0  0  0
   -2.7592    0.2370   -1.9896 H   0  0  0  0  0  0  0  0  0  0  0  0
   -3.6691    1.7539   -2.3050 H   0  0  0  0  0  0  0  0  0  0  0  0
   -3.8499    0.9398   -0.2383 C   0  0  0  0  0  0  0  0  0  0  0  0
   -4.5865    0.1152   -0.2926 H   0  0  0  0  0  0  0  0  0  0  0  0
   -4.3780    1.8589    0.0932 H   0  0  0  0  0  0  0  0  0  0  0  0
   -2.7201    0.5619    0.7273 C   0  0  1  0  0  0  0  0  0  0  0  0
   -2.9440    0.8469    1.7752 H   0  0  0  0  0  0  0  0  0  0  0  0
   -2.4551   -0.9620    0.7198 C   0  0  0  0  0  0  0  0  0  0  0  0
   -0.6345   -2.5965    0.4288 C   0  0  0  0  0  0  0  0  0  0  0  0
   -1.3771   -3.3539    0.1000 H   0  0  0  0  0  0  0  0  0  0  0  0
   -0.3853   -2.8298    1.4905 H   0  0  0  0  0  0  0  0  0  0  0  0
    1.4973    1.3266   -0.2463 N   0  0  0  0  0  0  0  0  0  0  0  0
    1.2728    2.0572   -0.9345 H   0  0  0  0  0  0  0  0  0  0  0  0
    1.8702    1.9820    1.0556 C   0  0  0  0  0  0  0  0  0  0  0  0
    2.1425    3.0457    0.8763 H   0  0  0  0  0  0  0  0  0  0  0  0
    1.0164    1.9560    1.7609 H   0  0  0  0  0  0  0  0  0  0  0  0
    3.0881    1.1983    1.5438 C   0  0  0  0  0  0  0  0  0  0  0  0
    2.7589    0.2371    1.9897 H   0  0  0  0  0  0  0  0  0  0  0  0
    3.6690    1.7539    2.3050 H   0  0  0  0  0  0  0  0  0  0  0  0
    3.8499    0.9396    0.2383 C   0  0  0  0  0  0  0  0  0  0  0  0
    4.5864    0.1150    0.2927 H   0  0  0  0  0  0  0  0  0  0  0  0
    4.3782    1.8586   -0.0932 H   0  0  0  0  0  0  0  0  0  0  0  0
    2.7201    0.5619   -0.7273 C   0  0  1  0  0  0  0  0  0  0  0  0
    2.9441    0.8469   -1.7752 H   0  0  0  0  0  0  0  0  0  0  0  0
    2.4550   -0.9620   -0.7199 C   0  0  0  0  0  0  0  0  0  0  0  0
    3.3456   -1.7602   -1.0390 O   0  0  0  0  0  0  0  0  0  0  0  0
    1.1919   -1.2471   -0.3456 N   0  0  0  0  0  2  0  0  0  0  0  0
    0.6345   -2.5965   -0.4287 C   0  0  0  0  0  0  0  0  0  0  0  0
    1.3771   -3.3540   -0.0999 H   0  0  0  0  0  0  0  0  0  0  0  0
    0.3852   -2.8298   -1.4903 H   0  0  0  0  0  0  0  0  0  0  0  0
  2 14  1  0  0  0  0
  2  3  1  0  0  0  0
  4 17  1  0  0  0  0
  4 16  1  0  0  0  0
  5  6  1  0  0  0  0
  5  2  1  0  0  0  0
  7  5  1  0  0  0  0
  8  5  1  0  0  0  0
  8 11  1  0  0  0  0
  9  8  1  0  0  0  0
 10  8  1  0  0  0  0
 11 13  1  0  0  0  0
 11 14  1  0  0  0  0
 12 11  1  0  0  0  0
 14 15  1  1  0  0  0
 16 14  1  0  0  0  0
 16  1  2  0  0  0  0
 17 19  1  0  0  0  0
 18 17  1  0  0  0  0
 20 22  1  0  0  0  0
 21 20  1  0  0  0  0
 22 25  1  0  0  0  0
 22 24  1  0  0  0  0
 23 22  1  0  0  0  0
 25 26  1  0  0  0  0
 25 27  1  0  0  0  0
 28 29  1  0  0  0  0
 28 25  1  0  0  0  0
 30 28  1  0  0  0  0
 31 32  1  6  0  0  0
 31 33  1  0  0  0  0
 31 20  1  0  0  0  0
 31 28  1  0  0  0  0
 33 35  1  0  0  0  0
 34 33  2  0  0  0  0
 36 35  1  0  0  0  0
 36 37  1  0  0  0  0
 36 17  1  0  0  0  0
 38 36  1  0  0  0  0
M  END
