3,5,6,7
q = -2.0, confidence = 0.884

 48 50  0  0  1  0  0  0  0  0999 V2000
    3.5500    1.0216    0.2424 O   0  0  0  0  0  0  0  0  0  0  0  0
   -3.5498    1.0223   -0.2416 O   0  0  0  0  0  0  0  0  0  0  0  0
    1.4959   -1.9137    0.1585 N   0  0  0  0  0  0  0  0  0  0  0  0
    1.2995   -2.7525    0.7262 H   0  0  0  0  0  0  0  0  0  0  0  0
    1.2412    0.6562    0.2486 N   0  0  0  0  0  2  0  0  0  0  0  0
   -1.2411    0.6565   -0.2489 N   0  0  0  0  0  2  0  0  0  0  0  0
   -1.4964   -1.9134   -0.1587 N   0  0  0  0  0  0  0  0  0  0  0  0
   -1.3002   -2.7520   -0.7267 H   0  0  0  0  0  0  0  0  0  0  0  0
    2.0201   -2.3681   -1.1625 C   0  0  0  0  0  0  0  0  0  0  0  0
    2.0013   -1.4907   -1.8394 H   0  0  0  0  0  0  0  0  0  0  0  0
    1.3590   -3.1458   -1.5934 H   0  0  0  0  0  0  0  0  0  0  0  0
    3.4592   -2.8195   -0.8812 C   0  0  0  0  0  0  0  0  0  0  0  0
    3.4626   -3.8701   -0.5204 H   0  0  0  0  0  0  0  0  0  0  0  0
    4.0878   -2.7874   -1.7922 H   0  0  0  0  0  0  0  0  0  0  0  0
    3.9419   -1.8500    0.2263 C   0  0  0  0  0  0  0  0  0  0  0  0
    4.5932   -1.0388   -0.1590 H   0  0  0  0  0  0  0  0  0  0  0  0
    4.5072   -2.3823    1.0148 H   0  0  0  0  0  0  0  0  0  0  0  0
    2.6608   -1.1857    0.7693 C   0  0  1  0  0  0  0  0  0  0  0  0
    2.5675   -1.2406    1.8723 H   0  0  0  0  0  0  0  0  0  0  0  0
    2.5411    0.3139    0.3711 C   0  0  0  0  0  0  0  0  0  0  0  0
    0.7539    1.9754   -0.1560 C   0  0  2  0  0  0  0  0  0  0  0  0
    0.8554    2.0596   -1.2676 H   0  0  0  0  0  0  0  0  0  0  0  0
    1.4252    3.2043    0.4666 C   0  0  0  0  0  0  0  0  0  0  0  0
    2.5114    3.1825    0.2595 H   0  0  0  0  0  0  0  0  0  0  0  0
    1.3053    3.1571    1.5720 H   0  0  0  0  0  0  0  0  0  0  0  0
    0.7634    4.4757   -0.0901 C   0  0  0  0  0  0  0  0  0  0  0  0
    1.2073    5.3749    0.3866 H   0  0  0  0  0  0  0  0  0  0  0  0
    0.9999    4.5536   -1.1752 H   0  0  0  0  0  0  0  0  0  0  0  0
   -0.7625    4.4759    0.0901 C   0  0  0  0  0  0  0  0  0  0  0  0
   -1.2062    5.3752   -0.3865 H   0  0  0  0  0  0  0  0  0  0  0  0
   -0.9989    4.5537    1.1752 H   0  0  0  0  0  0  0  0  0  0  0  0
   -1.4246    3.2046   -0.4666 C   0  0  0  0  0  0  0  0  0  0  0  0
   -2.5107    3.1830   -0.2595 H   0  0  0  0  0  0  0  0  0  0  0  0
   -1.3047    3.1575   -1.5720 H   0  0  0  0  0  0  0  0  0  0  0  0
   -0.7535    1.9756    0.1558 C   0  0  1  0  0  0  0  0  0  0  0  0
   -0.8549    2.0596    1.2674 H   0  0  0  0  0  0  0  0  0  0  0  0
   -2.5411    0.3145   -0.3709 C   0  0  0  0  0  0  0  0  0  0  0  0
   -2.6613   -1.1851   -0.7692 C   0  0  2  0  0  0  0  0  0  0  0  0
   -2.5683   -1.2399   -1.8722 H   0  0  0  0  0  0  0  0  0  0  0  0
   -3.9424   -1.8491   -0.2258 C   0  0  0  0  0  0  0  0  0  0  0  0
   -4.5932   -1.0378    0.1600 H   0  0  0  0  0  0  0  0  0  0  0  0
   -4.5082   -2.3810   -1.0142 H   0  0  0  0  0  0  0  0  0  0  0  0
   -3.4596   -2.8192    0.8812 C   0  0  0  0  0  0  0  0  0  0  0  0
   -4.0879   -2.7874    1.7923 H   0  0  0  0  0  0  0  0  0  0  0  0
   -3.4631   -3.8696    0.5200 H   0  0  0  0  0  0  0  0  0  0  0  0
   -2.0203   -2.3680    1.1623 C   0  0  0  0  0  0  0  0  0  0  0  0
   -1.3593   -3.1460    1.5928 H   0  0  0  0  0  0  0  0  0  0  0  0
   -2.0013   -1.4908    1.8393 H   0  0  0  0  0  0  0  0  0  0  0  0
  1 20  2  0  0  0  0
  3  4  1  0  0  0  0
  3 18  1  0  0  0  0
  5 20  1  0  0  0  0
  6 35  1  0  0  0  0
  7 46  1  0  0  0  0
  8  7  1  0  0  0  0
  9 12  1  0  0  0  0
  9  3  1  0  0  0  0
 10  9  1  0  0  0  0
 11  9  1  0  0  0  0
 12 13  1  0  0  0  0
 12 15  1  0  0  0  0
 14 12  1  0  0  0  0
 15 18  1  0  0  0  0
 15 17  1  0  0  0  0
 16 15  1  0  0  0  0
 18 19  1  1  0  0  0
 20 18  1  0  0  0  0
 21 22  1  6  0  0  0
 21 35  1  0  0  0  0
 21  5  1  0  0  0  0
 21 23  1  0  0  0  0
 23 25  1  0  0  0  0
 24 23  1  0  0  0  0
 26 29  1  0  0  0  0
 26 27  1  0  0  0  0
 26 23  1  0  0  0  0
 28 26  1  0  0  0  0
 29 31  1  0  0  0  0
 30 29  1  0  0  0  0
 32 33  1  0  0  0  0
 32 29  1  0  0  0  0
 32 35  1  0  0  0  0
 34 32  1  0  0  0  0
 35 36  1  1  0  0  0
 37  6  1  0  0  0  0
 37  2  2  0  0  0  0
 38 39  1  6  0  0  0
 38 37  1  0  0  0  0
 38 40  1  0  0  0  0
 38  7  1  0  0  0  0
 40 41  1  0  0  0  0
 40 43  1  0  0  0  0
 42 40  1  0  0  0  0
 43 46  1  0  0  0  0
 43 44  1  0  0  0  0
 45 43  1  0  0  0  0
 46 47  1  0  0  0  0
 46 48  1  0  0  0  0
M  END
