3,5,6,7
q = -2.0, confidence = 0.886

 42 44  0  0  1  0  0  0  0  0999 V2000
   -3.5124    1.1571   -0.5656 O   0  0  0  0  0  0  0  0  0  0  0  0
    3.5126    1.1568    0.5653 O   0  0  0  0  0  0  0  0  0  0  0  0
   -1.5068   -1.8148   -0.0870 N   0  0  0  0  0  0  0  0  0  0  0  0
   -1.3313   -2.6915   -0.6018 H   0  0  0  0  0  0  0  0  0  0  0  0
   -1.2381    0.7448   -0.2105 N   0  0  0  0  0  2  0  0  0  0  0  0
    1.2381    0.7447    0.2106 N   0  0  0  0  0  2  0  0  0  0  0  0
    1.5067   -1.8149    0.0871 N   0  0  0  0  0  0  0  0  0  0  0  0
    1.3312   -2.6916    0.6019 H   0  0  0  0  0  0  0  0  0  0  0  0
   -2.0271   -2.1745    1.2659 C   0  0  0  0  0  0  0  0  0  0  0  0
   -1.3751   -2.9340    1.7403 H   0  0  0  0  0  0  0  0  0  0  0  0
   -1.9869   -1.2545    1.8823 H   0  0  0  0  0  0  0  0  0  0  0  0
   -3.4754   -2.6179    1.0238 C   0  0  0  0  0  0  0  0  0  0  0  0
   -4.0958   -2.5163    1.9352 H   0  0  0  0  0  0  0  0  0  0  0  0
   -3.4998   -3.6892    0.7318 H   0  0  0  0  0  0  0  0  0  0  0  0
   -3.9533   -1.7150   -0.1408 C   0  0  0  0  0  0  0  0  0  0  0  0
   -4.5296   -2.2901   -0.8902 H   0  0  0  0  0  0  0  0  0  0  0  0
   -4.5981   -0.8773    0.1929 H   0  0  0  0  0  0  0  0  0  0  0  0
   -2.6637   -1.1085   -0.7362 C   0  0  1  0  0  0  0  0  0  0  0  0
   -2.5857   -1.2475   -1.8337 H   0  0  0  0  0  0  0  0  0  0  0  0
   -2.5300    0.4137   -0.4743 C   0  0  0  0  0  0  0  0  0  0  0  0
   -0.7053    2.0441   -0.1043 C   0  0  0  0  0  0  0  0  0  0  0  0
   -1.4073    3.2596   -0.2064 C   0  0  0  0  0  0  0  0  0  0  0  0
   -2.4923    3.2337   -0.3647 H   0  0  0  0  0  0  0  0  0  0  0  0
   -0.6950    4.4664   -0.1017 C   0  0  0  0  0  0  0  0  0  0  0  0
   -1.2389    5.4203   -0.1810 H   0  0  0  0  0  0  0  0  0  0  0  0
    0.6953    4.4664    0.1017 C   0  0  0  0  0  0  0  0  0  0  0  0
    1.2393    5.4202    0.1810 H   0  0  0  0  0  0  0  0  0  0  0  0
    1.4075    3.2595    0.2065 C   0  0  0  0  0  0  0  0  0  0  0  0
    2.4925    3.2335    0.3647 H   0  0  0  0  0  0  0  0  0  0  0  0
    0.7055    2.0440    0.1044 C   0  0  0  0  0  0  0  0  0  0  0  0
    2.5301    0.4135    0.4742 C   0  0  0  0  0  0  0  0  0  0  0  0
    2.6637   -1.1087    0.7362 C   0  0  2  0  0  0  0  0  0  0  0  0
    2.5858   -1.2476    1.8337 H   0  0  0  0  0  0  0  0  0  0  0  0
    3.9532   -1.7153    0.1407 C   0  0  0  0  0  0  0  0  0  0  0  0
    4.5981   -0.8777   -0.1929 H   0  0  0  0  0  0  0  0  0  0  0  0
    4.5294   -2.2906    0.8901 H   0  0  0  0  0  0  0  0  0  0  0  0
    3.4752   -2.6181   -1.0239 C   0  0  0  0  0  0  0  0  0  0  0  0
    4.0955   -2.5164   -1.9353 H   0  0  0  0  0  0  0  0  0  0  0  0
    3.4996   -3.6894   -0.7320 H   0  0  0  0  0  0  0  0  0  0  0  0
    2.0269   -2.1746   -1.2659 C   0  0  0  0  0  0  0  0  0  0  0  0
    1.9867   -1.2547   -1.8823 H   0  0  0  0  0  0  0  0  0  0  0  0
    1.3748   -2.9341   -1.7402 H   0  0  0  0  0  0  0  0  0  0  0  0
  1 20  2  0  0  0  0
  3  9  1  0  0  0  0
  4  3  1  0  0  0  0
  5 21  1  0  0  0  0
  6 31  1  0  0  0  0
  7  8  1  0  0  0  0
  7 32  1  0  0  0  0
  9 10  1  0  0  0  0
  9 11  1  0  0  0  0
 12  9  1  0  0  0  0
 12 13  1  0  0  0  0
 14 12  1  0  0  0  0
 15 17  1  0  0  0  0
 15 12  1  0  0  0  0
 16 15  1  0  0  0  0
 18 19  1  6  0  0  0
 18 20  1  0  0  0  0
 18 15  1  0  0  0  0
 18  3  1  0  0  0  0
 20  5  1  0  0  0  0
 21 30  1  0  0  0  0
 22 21  2  0  0  0  0
 22 24  1  0  0  0  0
 23 22  1  0  0  0  0
 24 26  2  0  0  0  0
 25 24  1  0  0  0  0
 26 27  1  0  0  0  0
 26 28  1  0  0  0  0
 28 29  1  0  0  0  0
 30 28  2  0  0  0  0
 30  6  1  0  0  0  0
 31  2  2  0  0  0  0
 31 32  1  0  0  0  0
 32 33  1  1  0  0  0
 34 32  1  0  0  0  0
 34 36  1  0  0  0  0
 35 34  1  0  0  0  0
 37 39  1  0  0  0  0
 37 34  1  0  0  0  0
 38 37  1  0  0  0  0
 40 37  1  0  0  0  0
 40  7  1  0  0  0  0
 41 40  1  0  0  0  0
 42 40  1  0  0  0  0
M  END
