1,2,20,21
q = -2.0, confidence = 0.908

 38 39  0  0  0  0  0  0  0  0999 V2000
   -1.1767    0.5859   -1.7733 N   0  0  0  0  0  0  0  0  0  0  0  0
   -1.0057    2.5057    0.1723 N   0  0  0  0  0  0  0  0  0  0  0  0
   -2.0783    0.7194   -3.8621 C   0  0  0  0  0  0  0  0  0  0  0  0
   -2.2807    0.5154   -4.9205 H   0  0  0  0  0  0  0  0  0  0  0  0
   -2.6961    1.7203   -3.0462 C   0  0  0  0  0  0  0  0  0  0  0  0
   -3.4709    2.4361   -3.3472 H   0  0  0  0  0  0  0  0  0  0  0  0
   -1.1660    3.0175    1.5425 C   0  0  0  0  0  0  0  0  0  0  0  0
   -1.6263    4.0328    1.5427 H   0  0  0  0  0  0  0  0  0  0  0  0
   -0.1887    3.0592    2.0589 H   0  0  0  0  0  0  0  0  0  0  0  0
   -1.8243    2.3336    2.1104 H   0  0  0  0  0  0  0  0  0  0  0  0
   -1.1563    0.0575   -3.0550 C   0  0  0  0  0  0  0  0  0  0  0  0
   -0.4596   -0.7476   -3.3232 H   0  0  0  0  0  0  0  0  0  0  0  0
   -0.1153    3.3773   -0.6321 C   0  0  0  0  0  0  0  0  0  0  0  0
   -0.3423    4.4511   -0.4354 H   0  0  0  0  0  0  0  0  0  0  0  0
   -0.3485    3.1876   -1.6992 H   0  0  0  0  0  0  0  0  0  0  0  0
   -2.3291    2.3525   -0.5052 C   0  0  0  0  0  0  0  0  0  0  0  0
   -2.9780    1.7949    0.2052 H   0  0  0  0  0  0  0  0  0  0  0  0
   -2.8016    3.3459   -0.6873 H   0  0  0  0  0  0  0  0  0  0  0  0
   -2.1252    1.6029   -1.7811 C   0  0  0  0  0  3  0  0  0  0  0  0
    1.2516    0.6381    1.8081 N   0  0  0  0  0  0  0  0  0  0  0  0
    1.7395    1.7058   -0.6683 N   0  0  0  0  0  0  0  0  0  0  0  0
    2.2655    1.0045    3.8144 C   0  0  0  0  0  0  0  0  0  0  0  0
    2.4463    1.0437    4.8954 H   0  0  0  0  0  0  0  0  0  0  0  0
    3.1630    1.4233    2.7770 C   0  0  0  0  0  0  0  0  0  0  0  0
    4.1711    1.8373    2.9014 H   0  0  0  0  0  0  0  0  0  0  0  0
    2.0003    1.5262   -2.1087 C   0  0  0  0  0  0  0  0  0  0  0  0
    2.8580    2.1561   -2.4398 H   0  0  0  0  0  0  0  0  0  0  0  0
    1.1018    1.7888   -2.6967 H   0  0  0  0  0  0  0  0  0  0  0  0
    2.2369    0.4633   -2.3069 H   0  0  0  0  0  0  0  0  0  0  0  0
    1.1165    0.5360    3.1869 C   0  0  0  0  0  3  0  0  0  0  0  0
    0.2037    0.1225    3.6344 H   0  0  0  0  0  0  0  0  0  0  0  0
    1.3519    3.1026   -0.3493 C   0  0  0  0  0  0  0  0  0  0  0  0
    1.9886    3.8162   -0.9220 H   0  0  0  0  0  0  0  0  0  0  0  0
    1.5734    3.2617    0.7257 H   0  0  0  0  0  0  0  0  0  0  0  0
    2.9318    1.3250    0.1443 C   0  0  0  0  0  0  0  0  0  0  0  0
    3.3094    0.3625   -0.2674 H   0  0  0  0  0  0  0  0  0  0  0  0
    3.7492    2.0737    0.0271 H   0  0  0  0  0  0  0  0  0  0  0  0
    2.5128    1.1825    1.5716 C   0  0  0  0  0  0  0  0  0  0  0  0
  2  7  1  0  0  0  0
  3 11  1  0  0  0  0
  3  5  2  0  0  0  0
  4  3  1  0  0  0  0
  5 19  1  0  0  0  0
  6  5  1  0  0  0  0
  7  8  1  0  0  0  0
  7  9  1  0  0  0  0
  7 10  1  0  0  0  0
 11  1  2  0  0  0  0
 12 11  1  0  0  0  0
 13 14  1  0  0  0  0
 13 32  1  0  0  0  0
 13  2  1  0  0  0  0
 15 13  1  0  0  0  0
 16  2  1  0  0  0  0
 16 17  1  0  0  0  0
 18 16  1  0  0  0  0
 19  1  1  0  0  0  0
 19 16  1  0  0  0  0
 20 30  1  0  0  0  0
 21 32  1  0  0  0  0
 21 35  1  0  0  0  0
 22 23  1  0  0  0  0
 24 25  1  0  0  0  0
 24 22  2  0  0  0  0
 26 21  1  0  0  0  0
 27 26  1  0  0  0  0
 28 26  1  0  0  0  0
 29 26  1  0  0  0  0
 30 31  1  0  0  0  0
 30 22  1  0  0  0  0
 32 34  1  0  0  0  0
 33 32  1  0  0  0  0
 35 38  1  0  0  0  0
 36 35  1  0  0  0  0
 37 35  1  0  0  0  0
 38 20  2  0  0  0  0
 38 24  1  0  0  0  0
M  END
