1,8,22,31
q = 0.0, confidence = 0.97

 61 63  0  0  0  0  0  0  0  0999 V2000
   -4.3528    0.0006   -0.0014 N   0  0  0  0  0  0  0  0  0  0  0  0
   -4.6638   -0.3668   -1.3872 C   0  0  0  0  0  0  0  0  0  0  0  0
   -4.6803    0.5606   -1.9943 H   0  0  0  0  0  0  0  0  0  0  0  0
   -5.6744   -0.8296   -1.4870 H   0  0  0  0  0  0  0  0  0  0  0  0
   -3.6102   -1.3169   -1.9791 C   0  0  0  0  0  0  0  0  0  0  0  0
   -3.6276   -2.2812   -1.4235 H   0  0  0  0  0  0  0  0  0  0  0  0
   -3.8695   -1.5500   -3.0357 H   0  0  0  0  0  0  0  0  0  0  0  0
   -2.2674   -1.2302    1.5810 N   0  0  0  0  0  2  0  0  0  0  0  0
   -1.4323   -2.0075    2.2017 C   0  0  0  0  0  3  0  0  0  0  0  0
   -1.7484   -2.5066    3.1437 H   0  0  0  0  0  0  0  0  0  0  0  0
   -0.0615   -2.2605    1.7655 C   0  0  0  0  0  0  0  0  0  0  0  0
    0.8689   -2.8133    2.6776 C   0  0  0  0  0  0  0  0  0  0  0  0
    0.5448   -3.0762    3.6968 H   0  0  0  0  0  0  0  0  0  0  0  0
    2.2038   -3.0105    2.3098 C   0  0  0  0  0  0  0  0  0  0  0  0
    2.9318   -3.4223    3.0222 H   0  0  0  0  0  0  0  0  0  0  0  0
    2.6172   -2.6760    1.0057 C   0  0  0  0  0  0  0  0  0  0  0  0
    4.2707   -2.8982    0.5431 Cl  0  0  0  0  0  0  0  0  0  0  0  0
    1.6986   -2.1601    0.0686 C   0  0  0  0  0  0  0  0  0  0  0  0
    2.0326   -1.9182   -0.9500 H   0  0  0  0  0  0  0  0  0  0  0  0
    0.3757   -1.9549    0.4552 C   0  0  0  0  0  0  0  0  0  0  0  0
   -0.3474   -1.5491   -0.2693 H   0  0  0  0  0  0  0  0  0  0  0  0
   -2.2649   -0.7538   -1.8564 N   0  0  0  0  0  2  0  0  0  0  0  0
   -3.6129   -1.0544    2.1292 C   0  0  0  0  0  0  0  0  0  0  0  0
   -4.6654   -1.0156    1.0094 C   0  0  0  0  0  0  0  0  0  0  0  0
   -4.6645    1.3844    0.3730 C   0  0  0  0  0  0  0  0  0  0  0  0
   -4.6824    1.4462    1.4797 H   0  0  0  0  0  0  0  0  0  0  0  0
   -5.6748    1.7019    0.0209 H   0  0  0  0  0  0  0  0  0  0  0  0
   -3.6107    2.3727   -0.1524 C   0  0  0  0  0  0  0  0  0  0  0  0
   -3.6271    2.3743   -1.2654 H   0  0  0  0  0  0  0  0  0  0  0  0
   -3.8707    3.4040    0.1744 H   0  0  0  0  0  0  0  0  0  0  0  0
   -2.2657    1.9852    0.2749 N   0  0  0  0  0  2  0  0  0  0  0  0
   -1.4301    2.9110    0.6375 C   0  0  0  0  0  3  0  0  0  0  0  0
   -1.7455    3.9765    0.5985 H   0  0  0  0  0  0  0  0  0  0  0  0
   -0.0594    2.6590    1.0751 C   0  0  0  0  0  0  0  0  0  0  0  0
    0.8709    3.7253    1.0991 C   0  0  0  0  0  0  0  0  0  0  0  0
    0.5470    4.7397    0.8182 H   0  0  0  0  0  0  0  0  0  0  0  0
    2.2058    3.5049    1.4537 C   0  0  0  0  0  0  0  0  0  0  0  0
    2.9339    4.3277    1.4551 H   0  0  0  0  0  0  0  0  0  0  0  0
    2.6191    2.2079    1.8147 C   0  0  0  0  0  0  0  0  0  0  0  0
    4.2726    1.9178    2.2382 Cl  0  0  0  0  0  0  0  0  0  0  0  0
    1.7005    1.1383    1.8352 C   0  0  0  0  0  0  0  0  0  0  0  0
    2.0345    0.1348    2.1335 H   0  0  0  0  0  0  0  0  0  0  0  0
    0.3778    1.3710    1.4641 C   0  0  0  0  0  0  0  0  0  0  0  0
   -0.3452    0.5405    1.4733 H   0  0  0  0  0  0  0  0  0  0  0  0
   -4.6825   -2.0050    0.5096 H   0  0  0  0  0  0  0  0  0  0  0  0
   -5.6763   -0.8697    1.4593 H   0  0  0  0  0  0  0  0  0  0  0  0
   -3.6302   -0.0914    2.6872 H   0  0  0  0  0  0  0  0  0  0  0  0
   -3.8733   -1.8533    2.8585 H   0  0  0  0  0  0  0  0  0  0  0  0
   -1.4291   -0.9033   -2.8391 C   0  0  0  0  0  3  0  0  0  0  0  0
   -1.7444   -1.4703   -3.7421 H   0  0  0  0  0  0  0  0  0  0  0  0
   -0.0583   -0.3988   -2.8397 C   0  0  0  0  0  0  0  0  0  0  0  0
    0.8725   -0.9133   -3.7735 C   0  0  0  0  0  0  0  0  0  0  0  0
    0.5489   -1.6653   -4.5100 H   0  0  0  0  0  0  0  0  0  0  0  0
    2.2074   -0.4962   -3.7600 C   0  0  0  0  0  0  0  0  0  0  0  0
    2.9359   -0.9081   -4.4719 H   0  0  0  0  0  0  0  0  0  0  0  0
    2.6202    0.4670   -2.8191 C   0  0  0  0  0  0  0  0  0  0  0  0
    4.2737    0.9788   -2.7800 Cl  0  0  0  0  0  0  0  0  0  0  0  0
    1.7011    1.0217   -1.9049 C   0  0  0  0  0  0  0  0  0  0  0  0
    2.0348    1.7835   -1.1866 H   0  0  0  0  0  0  0  0  0  0  0  0
    0.3783    0.5841   -1.9207 C   0  0  0  0  0  0  0  0  0  0  0  0
   -0.3451    1.0090   -1.2074 H   0  0  0  0  0  0  0  0  0  0  0  0
  1 25  1  0  0  0  0
  1 24  1  0  0  0  0
  2  1  1  0  0  0  0
  3  2  1  0  0  0  0
  4  2  1  0  0  0  0
  5 22  1  0  0  0  0
  5  6  1  0  0  0  0
  5  2  1  0  0  0  0
  7  5  1  0  0  0  0
  8 23  1  0  0  0  0
  8  9  1  0  0  0  0
  9 10  1  0  0  0  0
 11  9  1  0  0  0  0
 11 12  1  0  0  0  0
 12 13  1  0  0  0  0
 14 12  2  0  0  0  0
 14 15  1  0  0  0  0
 16 14  1  0  0  0  0
 17 16  1  0  0  0  0
 18 20  1  0  0  0  0
 18 16  2  0  0  0  0
 19 18  1  0  0  0  0
 20 11  2  0  0  0  0
 21 20  1  0  0  0  0
 23 47  1  0  0  0  0
 23 48  1  0  0  0  0
 24 46  1  0  0  0  0
 24 23  1  0  0  0  0
 25 26  1  0  0  0  0
 27 25  1  0  0  0  0
 28 30  1  0  0  0  0
 28 31  1  0  0  0  0
 28 25  1  0  0  0  0
 29 28  1  0  0  0  0
 31 32  1  0  0  0  0
 32 34  1  0  0  0  0
 33 32  1  0  0  0  0
 34 35  2  0  0  0  0
 34 43  1  0  0  0  0
 35 37  1  0  0  0  0
 36 35  1  0  0  0  0
 37 38  1  0  0  0  0
 37 39  2  0  0  0  0
 39 41  1  0  0  0  0
 39 40  1  0  0  0  0
 41 42  1  0  0  0  0
 43 44  1  0  0  0  0
 43 41  2  0  0  0  0
 45 24  1  0  0  0  0
 49 22  1  0  0  0  0
 50 49  1  0  0  0  0
 51 49  1  0  0  0  0
 51 60  1  0  0  0  0
 52 54  1  0  0  0  0
 52 51  2  0  0  0  0
 53 52  1  0  0  0  0
 54 56  2  0  0  0  0
 55 54  1  0  0  0  0
 56 57  1  0  0  0  0
 56 58  1  0  0  0  0
 58 59  1  0  0  0  0
 60 58  2  0  0  0  0
 60 61  1  0  0  0  0
M  END
