21,22,23,24
q = -2.0, confidence = 0.848

 76 86  0  0  0  0  0  0  0  0999 V2000
   -0.9660    2.6506   -0.4875 C   0  0  0  0  0  0  0  0  0  0  0  0
   -2.2011    3.3742   -0.3038 C   0  0  0  0  0  0  0  0  0  0  0  0
   -3.1006    2.4873    0.2624 C   0  0  0  0  0  0  0  0  0  0  0  0
   -2.4254    1.2220    0.3438 C   0  0  0  0  0  0  0  0  0  0  0  0
   -3.0493   -0.0001    0.6336 C   0  0  0  0  0  0  0  0  0  0  0  0
   -2.4254   -1.2221    0.3437 C   0  0  0  0  0  0  0  0  0  0  0  0
   -3.1005   -2.4874    0.2623 C   0  0  0  0  0  0  0  0  0  0  0  0
   -2.2010   -3.3743   -0.3040 C   0  0  0  0  0  0  0  0  0  0  0  0
   -0.9659   -2.6506   -0.4876 C   0  0  0  0  0  0  0  0  0  0  0  0
    0.2215   -3.3138   -0.8605 C   0  0  0  0  0  0  0  0  0  0  0  0
    1.4549   -2.7149   -0.5246 C   0  0  0  0  0  0  0  0  0  0  0  0
    2.6993   -3.4166   -0.2746 C   0  0  0  0  0  0  0  0  0  0  0  0
    3.5812   -2.4991    0.2369 C   0  0  0  0  0  0  0  0  0  0  0  0
    2.8981   -1.2267    0.2510 C   0  0  0  0  0  0  0  0  0  0  0  0
    3.5175    0.0001    0.5261 C   0  0  0  0  0  0  0  0  0  0  0  0
    2.8981    1.2268    0.2508 C   0  0  0  0  0  0  0  0  0  0  0  0
    3.5812    2.4993    0.2367 C   0  0  0  0  0  3  0  0  0  0  0  0
    2.6992    3.4167   -0.2748 C   0  0  0  0  0  0  0  0  0  0  0  0
    1.4549    2.7150   -0.5247 C   0  0  0  0  0  0  0  0  0  0  0  0
    0.2213    3.3138   -0.8605 C   0  0  0  0  0  0  0  0  0  0  0  0
   -1.1075    1.3472   -0.0915 N   0  0  0  0  0  0  0  0  0  0  0  0
   -1.1074   -1.3472   -0.0916 N   0  0  0  0  0  2  0  0  0  0  0  0
    1.5935   -1.3796   -0.1792 N   0  0  0  0  0  0  0  0  0  0  0  0
    1.5934    1.3796   -0.1793 N   0  0  0  0  0  0  0  0  0  0  0  0
    0.0866    4.6681   -1.4310 C   0  0  0  0  0  0  0  0  0  0  0  0
    1.1205    5.2619   -2.1945 C   0  0  0  0  0  0  0  0  0  0  0  0
    0.9877    6.5548   -2.7166 C   0  0  0  0  0  0  0  0  0  0  0  0
   -0.1901    7.2916   -2.5047 C   0  0  0  0  0  0  0  0  0  0  0  0
   -1.2467    6.7020   -1.8023 C   0  0  0  0  0  0  0  0  0  0  0  0
   -1.1320    5.4007   -1.2835 C   0  0  0  0  0  0  0  0  0  0  0  0
   -2.3424    4.7980   -0.6342 C   0  0  0  0  0  0  0  0  0  0  0  0
   -3.3786    5.4379   -0.4380 O   0  0  0  0  0  0  0  0  0  0  0  0
    0.0868   -4.6681   -1.4310 C   0  0  0  0  0  0  0  0  0  0  0  0
    1.1207   -5.2618   -2.1945 C   0  0  0  0  0  0  0  0  0  0  0  0
    0.9880   -6.5548   -2.7167 C   0  0  0  0  0  0  0  0  0  0  0  0
   -0.1898   -7.2916   -2.5048 C   0  0  0  0  0  0  0  0  0  0  0  0
   -1.2464   -6.7020   -1.8024 C   0  0  0  0  0  0  0  0  0  0  0  0
   -1.1318   -5.4008   -1.2836 C   0  0  0  0  0  0  0  0  0  0  0  0
   -2.3422   -4.7980   -0.6344 C   0  0  0  0  0  0  0  0  0  0  0  0
   -3.3784   -5.4380   -0.4382 O   0  0  0  0  0  0  0  0  0  0  0  0
   -4.4544   -0.0001    1.1299 C   0  0  0  0  0  0  0  0  0  0  0  0
   -4.7296    0.0001    2.5161 C   0  0  0  0  0  0  0  0  0  0  0  0
   -3.3970    0.0003    3.6392 Cl  0  0  0  0  0  0  0  0  0  0  0  0
   -6.0429    0.0002    3.0109 C   0  0  0  0  0  0  0  0  0  0  0  0
   -7.1127    0.0000    2.1060 C   0  0  0  0  0  0  0  0  0  0  0  0
   -6.8822   -0.0001    0.7238 C   0  0  0  0  0  0  0  0  0  0  0  0
   -5.5609   -0.0002    0.2500 C   0  0  0  0  0  0  0  0  0  0  0  0
   -5.2763   -0.0004   -1.4688 Cl  0  0  0  0  0  0  0  0  0  0  0  0
    4.9283    0.0001    1.0089 C   0  0  0  0  0  0  0  0  0  0  0  0
    6.0264    0.0003    0.1182 C   0  0  0  0  0  0  0  0  0  0  0  0
    5.7229    0.0007   -1.5982 Cl  0  0  0  0  0  0  0  0  0  0  0  0
    7.3538    0.0003    0.5751 C   0  0  0  0  0  0  0  0  0  0  0  0
    7.6011    0.0000    1.9546 C   0  0  0  0  0  0  0  0  0  0  0  0
    6.5416   -0.0002    2.8714 C   0  0  0  0  0  0  0  0  0  0  0  0
    5.2221   -0.0002    2.3919 C   0  0  0  0  0  0  0  0  0  0  0  0
    3.9055   -0.0005    3.5331 Cl  0  0  0  0  0  0  0  0  0  0  0  0
   -4.1354    2.6890    0.5589 H   0  0  0  0  0  0  0  0  0  0  0  0
   -4.1353   -2.6891    0.5588 H   0  0  0  0  0  0  0  0  0  0  0  0
    2.8534   -4.4919   -0.4009 H   0  0  0  0  0  0  0  0  0  0  0  0
    4.6123   -2.6595    0.5697 H   0  0  0  0  0  0  0  0  0  0  0  0
    4.6123    2.6596    0.5694 H   0  0  0  0  0  0  0  0  0  0  0  0
    2.8533    4.4920   -0.4012 H   0  0  0  0  0  0  0  0  0  0  0  0
    2.0287    4.6847   -2.4140 H   0  0  0  0  0  0  0  0  0  0  0  0
    1.8100    6.9852   -3.3083 H   0  0  0  0  0  0  0  0  0  0  0  0
   -0.2900    8.3096   -2.9101 H   0  0  0  0  0  0  0  0  0  0  0  0
   -2.2045    7.2202   -1.6434 H   0  0  0  0  0  0  0  0  0  0  0  0
    2.0289   -4.6846   -2.4140 H   0  0  0  0  0  0  0  0  0  0  0  0
    1.8103   -6.9851   -3.3083 H   0  0  0  0  0  0  0  0  0  0  0  0
   -0.2897   -8.3096   -2.9102 H   0  0  0  0  0  0  0  0  0  0  0  0
   -2.2042   -7.2203   -1.6435 H   0  0  0  0  0  0  0  0  0  0  0  0
   -6.2102    0.0003    4.0963 H   0  0  0  0  0  0  0  0  0  0  0  0
   -8.1455    0.0001    2.4848 H   0  0  0  0  0  0  0  0  0  0  0  0
   -7.7122   -0.0002    0.0048 H   0  0  0  0  0  0  0  0  0  0  0  0
    8.1752    0.0005   -0.1539 H   0  0  0  0  0  0  0  0  0  0  0  0
    8.6383   -0.0000    2.3214 H   0  0  0  0  0  0  0  0  0  0  0  0
    6.7215   -0.0005    3.9549 H   0  0  0  0  0  0  0  0  0  0  0  0
  1  2  1  0  0  0  0
  1 21  1  0  0  0  0
  2  3  2  0  0  0  0
  3  4  1  0  0  0  0
  3 57  1  0  0  0  0
  4  5  1  0  0  0  0
  5 41  1  0  0  0  0
  6  5  2  0  0  0  0
  7  6  1  0  0  0  0
  7 58  1  0  0  0  0
  8  7  2  0  0  0  0
  9  8  1  0  0  0  0
  9 22  1  0  0  0  0
 10 11  1  0  0  0  0
 10  9  2  0  0  0  0
 11 12  1  0  0  0  0
 11 23  2  0  0  0  0
 12 13  2  0  0  0  0
 13 14  1  0  0  0  0
 13 60  1  0  0  0  0
 14 15  2  0  0  0  0
 15 49  1  0  0  0  0
 16 15  1  0  0  0  0
 17 16  1  0  0  0  0
 17 61  1  0  0  0  0
 18 17  1  0  0  0  0
 19 18  2  0  0  0  0
 19 24  1  0  0  0  0
 20 19  1  0  0  0  0
 20  1  2  0  0  0  0
 21  4  2  0  0  0  0
 22  6  1  0  0  0  0
 23 14  1  0  0  0  0
 24 16  2  0  0  0  0
 25 30  1  0  0  0  0
 25 20  1  0  0  0  0
 26 25  2  0  0  0  0
 27 28  2  0  0  0  0
 27 26  1  0  0  0  0
 28 29  1  0  0  0  0
 29 66  1  0  0  0  0
 29 30  2  0  0  0  0
 30 31  1  0  0  0  0
 31 32  2  0  0  0  0
 31  2  1  0  0  0  0
 33 38  1  0  0  0  0
 33 10  1  0  0  0  0
 34 33  2  0  0  0  0
 35 36  2  0  0  0  0
 35 34  1  0  0  0  0
 36 37  1  0  0  0  0
 37 70  1  0  0  0  0
 37 38  2  0  0  0  0
 38 39  1  0  0  0  0
 39 40  2  0  0  0  0
 39  8  1  0  0  0  0
 41 42  1  0  0  0  0
 42 44  2  0  0  0  0
 42 43  1  0  0  0  0
 44 71  1  0  0  0  0
 45 72  1  0  0  0  0
 45 44  1  0  0  0  0
 46 45  2  0  0  0  0
 47 46  1  0  0  0  0
 47 41  2  0  0  0  0
 48 47  1  0  0  0  0
 49 55  1  0  0  0  0
 50 52  1  0  0  0  0
 50 49  2  0  0  0  0
 51 50  1  0  0  0  0
 52 53  2  0  0  0  0
 53 75  1  0  0  0  0
 53 54  1  0  0  0  0
 54 76  1  0  0  0  0
 55 54  2  0  0  0  0
 55 56  1  0  0  0  0
 59 12  1  0  0  0  0
 62 18  1  0  0  0  0
 63 26  1  0  0  0  0
 64 27  1  0  0  0  0
 65 28  1  0  0  0  0
 67 34  1  0  0  0  0
 68 35  1  0  0  0  0
 69 36  1  0  0  0  0
 73 46  1  0  0  0  0
 74 52  1  0  0  0  0
M  END
