5,6,7,8
q = -2.0, confidence = 0.832

 47 49  0  0  1  0  0  0  0  0999 V2000
   -1.9455    2.8004   -0.8365 O   0  0  0  0  0  0  0  0  0  0  0  0
   -0.9988   -3.5078   -0.9387 O   0  0  0  0  0  0  0  0  0  0  0  0
   -4.5251   -0.3632   -1.8624 O   0  0  0  0  0  0  0  0  0  0  0  0
   -6.1636    0.2147   -0.5449 O   0  0  0  0  0  0  0  0  0  0  0  0
    1.4309    2.0600    0.1112 N   0  0  0  0  0  2  0  0  0  0  0  0
   -0.7717    0.8096   -0.5463 N   0  0  0  0  0  2  0  0  0  0  0  0
    0.4531   -1.8384   -0.3786 N   0  0  0  0  0  2  0  0  0  0  0  0
    2.8521   -0.9214    0.0389 N   0  0  0  0  0  2  0  0  0  0  0  0
   -5.0108   -0.1661   -0.7449 N   0  0  0  0  0  0  0  0  0  0  0  0
    2.5423    2.6430    0.6219 C   0  0  0  0  0  3  0  0  0  0  0  0
    3.3596    1.9706    0.9152 H   0  0  0  0  0  0  0  0  0  0  0  0
    2.6532    4.0256    0.7929 C   0  0  0  0  0  0  0  0  0  0  0  0
    3.5821    4.4414    1.2083 H   0  0  0  0  0  0  0  0  0  0  0  0
    1.5751    4.8522    0.4352 C   0  0  0  0  0  0  0  0  0  0  0  0
    1.6412    5.9441    0.5499 H   0  0  0  0  0  0  0  0  0  0  0  0
    0.4077    4.2477   -0.0448 C   0  0  0  0  0  0  0  0  0  0  0  0
   -0.5046    4.8011   -0.3116 H   0  0  0  0  0  0  0  0  0  0  0  0
    0.3597    2.8573   -0.1812 C   0  0  0  0  0  0  0  0  0  0  0  0
   -0.9164    2.1652   -0.5754 C   0  0  0  0  0  0  0  0  0  0  0  0
   -1.9419   -0.0051   -0.8598 C   0  0  1  0  0  0  0  0  0  0  0  0
   -2.5874    0.6155   -1.5097 H   0  0  0  0  0  0  0  0  0  0  0  0
   -1.5642   -1.2659   -1.6625 C   0  0  0  0  0  0  0  0  0  0  0  0
   -2.4927   -1.7755   -1.9728 H   0  0  0  0  0  0  0  0  0  0  0  0
   -1.0363   -0.9320   -2.5814 H   0  0  0  0  0  0  0  0  0  0  0  0
   -0.6990   -2.3068   -0.9538 C   0  0  0  0  0  0  0  0  0  0  0  0
    1.3333   -2.8073    0.2420 C   0  0  0  0  0  0  0  0  0  0  0  0
    1.2665   -3.7812   -0.2907 H   0  0  0  0  0  0  0  0  0  0  0  0
    1.0294   -3.0308    1.2968 H   0  0  0  0  0  0  0  0  0  0  0  0
    2.7333   -2.2718    0.2391 C   0  0  1  0  0  3  0  0  0  0  0  0
    3.8689   -3.0782    0.4012 C   0  0  0  0  0  0  0  0  0  0  0  0
    3.7318   -4.1568    0.5650 H   0  0  0  0  0  0  0  0  0  0  0  0
    5.1469   -2.5124    0.3325 C   0  0  0  0  0  0  0  0  0  0  0  0
    6.0441   -3.1368    0.4539 H   0  0  0  0  0  0  0  0  0  0  0  0
    5.2570   -1.1374    0.0717 C   0  0  0  0  0  0  0  0  0  0  0  0
    6.2351   -0.6469   -0.0304 H   0  0  0  0  0  0  0  0  0  0  0  0
    4.0928   -0.3839   -0.0752 C   0  0  0  0  0  0  0  0  0  0  0  0
    4.1361    0.6865   -0.3166 H   0  0  0  0  0  0  0  0  0  0  0  0
   -2.7492   -0.3476    0.3957 C   0  0  0  0  0  0  0  0  0  0  0  0
   -2.0727   -0.6037    1.6071 C   0  0  0  0  0  0  0  0  0  0  0  0
   -0.9754   -0.5278    1.6092 H   0  0  0  0  0  0  0  0  0  0  0  0
   -2.7514   -0.9360    2.7853 C   0  0  0  0  0  0  0  0  0  0  0  0
   -2.1783   -1.1429    3.7018 H   0  0  0  0  0  0  0  0  0  0  0  0
   -4.1541   -0.9985    2.8002 C   0  0  0  0  0  0  0  0  0  0  0  0
   -4.6970   -1.2536    3.7222 H   0  0  0  0  0  0  0  0  0  0  0  0
   -4.8594   -0.7232    1.6273 C   0  0  0  0  0  0  0  0  0  0  0  0
   -5.9566   -0.7306    1.5916 H   0  0  0  0  0  0  0  0  0  0  0  0
   -4.1621   -0.4227    0.4444 C   0  0  0  0  0  0  0  0  0  0  0  0
  1 19  2  0  0  0  0
  3  9  2  0  0  0  0
  5 10  1  0  0  0  0
  7 26  1  0  0  0  0
  8 29  1  0  0  0  0
  9  4  2  0  0  0  0
  9 47  1  0  0  0  0
 10 12  1  0  0  0  0
 10 11  1  0  0  0  0
 12 13  1  0  0  0  0
 14 15  1  0  0  0  0
 14 12  2  0  0  0  0
 16 14  1  0  0  0  0
 17 16  1  0  0  0  0
 18 16  2  0  0  0  0
 18  5  1  0  0  0  0
 19  6  1  0  0  0  0
 19 18  1  0  0  0  0
 20 21  1  6  0  0  0
 20  6  1  0  0  0  0
 20 38  1  0  0  0  0
 22 25  1  0  0  0  0
 22 20  1  0  0  0  0
 23 22  1  0  0  0  0
 24 22  1  0  0  0  0
 25  2  2  0  0  0  0
 25  7  1  0  0  0  0
 26 28  1  0  0  0  0
 27 26  1  0  0  0  0
 29 26  1  6  0  0  0
 29 30  1  0  0  0  0
 30 31  1  0  0  0  0
 32 30  2  0  0  0  0
 32 33  1  0  0  0  0
 34 32  1  0  0  0  0
 35 34  1  0  0  0  0
 36  8  1  0  0  0  0
 36 34  2  0  0  0  0
 37 36  1  0  0  0  0
 38 47  2  0  0  0  0
 38 39  1  0  0  0  0
 39 40  1  0  0  0  0
 39 41  2  0  0  0  0
 41 43  1  0  0  0  0
 41 42  1  0  0  0  0
 43 44  1  0  0  0  0
 45 43  2  0  0  0  0
 46 45  1  0  0  0  0
 47 45  1  0  0  0  0
M  END
