1,2,13,24
q = 0.0, confidence = 0.996

 40 42  0  0  1  0  0  0  0  0999 V2000
   -1.2693   -2.0781   -0.1426 N   0  0  0  0  0  2  0  0  0  0  0  0
    1.4392   -1.6676   -0.2873 N   0  0  0  0  0  2  0  0  0  0  0  0
    2.2366   -1.8835    0.8005 C   0  0  0  0  0  0  0  0  0  0  0  0
    1.6514   -1.3037    2.0094 C   0  0  0  0  0  0  0  0  0  0  0  0
    2.2189   -1.3160    3.2913 C   0  0  0  0  0  0  0  0  0  0  0  0
    3.1917   -1.8008    3.4518 H   0  0  0  0  0  0  0  0  0  0  0  0
    1.5488   -0.6790    4.3411 C   0  0  0  0  0  0  0  0  0  0  0  0
    1.9828   -0.6662    5.3513 H   0  0  0  0  0  0  0  0  0  0  0  0
    0.3265   -0.0367    4.0760 C   0  0  0  0  0  0  0  0  0  0  0  0
   -0.2209    0.4967    4.8659 H   0  0  0  0  0  0  0  0  0  0  0  0
   -0.1956   -0.0596    2.7804 C   0  0  0  0  0  0  0  0  0  0  0  0
   -1.1309    0.4450    2.4974 H   0  0  0  0  0  0  0  0  0  0  0  0
    0.4413   -0.6922    1.7691 N   0  0  0  0  0  2  0  0  0  0  0  0
    3.4526   -2.5680    0.6474 C   0  0  0  0  0  0  0  0  0  0  0  0
    4.1098   -2.7253    1.5134 H   0  0  0  0  0  0  0  0  0  0  0  0
    3.8192   -3.0210   -0.6251 C   0  0  0  0  0  0  0  0  0  0  0  0
    4.7781   -3.5384   -0.7697 H   0  0  0  0  0  0  0  0  0  0  0  0
    2.9590   -2.8108   -1.7233 C   0  0  0  0  0  0  0  0  0  0  0  0
    3.2285   -3.1640   -2.7288 H   0  0  0  0  0  0  0  0  0  0  0  0
    1.7596   -2.1308   -1.5191 C   0  0  0  0  0  0  0  0  0  0  0  0
    0.6632   -1.9015   -2.5287 C   0  0  0  0  0  0  0  0  0  0  0  0
    0.0428   -2.8226   -2.5663 H   0  0  0  0  0  0  0  0  0  0  0  0
    1.0704   -1.7461   -3.5490 H   0  0  0  0  0  0  0  0  0  0  0  0
   -0.2159   -0.7511   -2.1292 N   0  0  0  0  0  0  0  0  0  0  0  0
    0.1523    0.4631   -2.8969 C   0  0  0  0  0  0  0  0  0  0  0  0
    1.2280    0.6641   -2.7509 H   0  0  0  0  0  0  0  0  0  0  0  0
   -0.4384    1.3170   -2.5210 H   0  0  0  0  0  0  0  0  0  0  0  0
   -0.0634    0.2987   -3.9767 H   0  0  0  0  0  0  0  0  0  0  0  0
   -1.6567   -1.0701   -2.2963 C   0  0  0  0  0  0  0  0  0  0  0  0
   -1.8948   -1.4142   -3.3295 H   0  0  0  0  0  0  0  0  0  0  0  0
   -2.2108   -0.1242   -2.1102 H   0  0  0  0  0  0  0  0  0  0  0  0
   -2.0394   -2.1011   -1.2718 C   0  0  1  0  0  3  0  0  0  0  0  0
   -1.4950   -2.9872    0.8339 C   0  0  0  0  0  0  0  0  0  0  0  0
   -0.8416   -2.9216    1.7155 H   0  0  0  0  0  0  0  0  0  0  0  0
   -2.5147   -3.9377    0.7399 C   0  0  0  0  0  0  0  0  0  0  0  0
   -2.6681   -4.6487    1.5640 H   0  0  0  0  0  0  0  0  0  0  0  0
   -3.3278   -3.9577   -0.4035 C   0  0  0  0  0  0  0  0  0  0  0  0
   -4.1426   -4.6894   -0.5030 H   0  0  0  0  0  0  0  0  0  0  0  0
   -3.0726   -3.0302   -1.4261 C   0  0  0  0  0  0  0  0  0  0  0  0
   -3.6708   -3.0217   -2.3488 H   0  0  0  0  0  0  0  0  0  0  0  0
  1 33  1  0  0  0  0
  2  3  1  0  0  0  0
  3  4  2  0  0  0  0
  4  5  1  0  0  0  0
  5  6  1  0  0  0  0
  5  7  2  0  0  0  0
  7  8  1  0  0  0  0
  9  7  1  0  0  0  0
  9 10  1  0  0  0  0
 11  9  2  0  0  0  0
 12 11  1  0  0  0  0
 13  4  1  0  0  0  0
 13 11  1  0  0  0  0
 14  3  1  0  0  0  0
 14 15  1  0  0  0  0
 16 14  2  0  0  0  0
 17 16  1  0  0  0  0
 18 20  2  0  0  0  0
 18 16  1  0  0  0  0
 19 18  1  0  0  0  0
 20  2  1  0  0  0  0
 21 24  1  0  0  0  0
 21 20  1  0  0  0  0
 22 21  1  0  0  0  0
 23 21  1  0  0  0  0
 25 26  1  0  0  0  0
 25 27  1  0  0  0  0
 25 24  1  0  0  0  0
 28 25  1  0  0  0  0
 29 24  1  0  0  0  0
 29 31  1  0  0  0  0
 30 29  1  0  0  0  0
 32 29  1  6  0  0  0
 32  1  1  0  0  0  0
 33 34  1  0  0  0  0
 35 33  2  0  0  0  0
 35 36  1  0  0  0  0
 37 35  1  0  0  0  0
 38 37  1  0  0  0  0
 39 32  1  0  0  0  0
 39 37  2  0  0  0  0
 40 39  1  0  0  0  0
M  END
