24,25,26,27
q = 0.0, confidence = 0.992

 54 55  0  0  1  0  0  0  0  0999 V2000
   -1.3844    2.0639   -1.8154 C   0  0  1  0  0  3  0  0  0  0  0  0
   -1.3847   -2.0639    1.8153 C   0  0  1  0  0  3  0  0  0  0  0  0
   -0.1008   -0.3968    2.8375 C   0  0  0  0  0  0  0  0  0  0  0  0
    0.4618    0.5346    2.6962 H   0  0  0  0  0  0  0  0  0  0  0  0
   -1.4380   -2.7992    3.0039 C   0  0  0  0  0  0  0  0  0  0  0  0
   -1.9647   -3.7644    3.0160 H   0  0  0  0  0  0  0  0  0  0  0  0
   -2.5075   -1.8154   -1.8027 C   0  0  0  0  0  0  0  0  0  0  0  0
   -2.4604   -0.8615   -2.3642 H   0  0  0  0  0  0  0  0  0  0  0  0
   -2.5079    1.8154    1.8024 C   0  0  0  0  0  0  0  0  0  0  0  0
   -2.4607    0.8614    2.3639 H   0  0  0  0  0  0  0  0  0  0  0  0
   -0.1073   -1.0864    4.0496 C   0  0  0  0  0  0  0  0  0  0  0  0
    0.4436   -0.6696    4.9043 H   0  0  0  0  0  0  0  0  0  0  0  0
   -1.9178    2.5680   -0.5071 C   0  0  0  0  0  0  0  0  0  0  0  0
   -1.0917    3.1326   -0.0270 H   0  0  0  0  0  0  0  0  0  0  0  0
   -2.7756    3.2605   -0.6589 H   0  0  0  0  0  0  0  0  0  0  0  0
   -1.4374    2.7992   -3.0040 C   0  0  0  0  0  0  0  0  0  0  0  0
   -1.9641    3.7645   -3.0161 H   0  0  0  0  0  0  0  0  0  0  0  0
   -0.1004    0.3967   -2.8375 C   0  0  0  0  0  0  0  0  0  0  0  0
    0.4621   -0.5346   -2.6961 H   0  0  0  0  0  0  0  0  0  0  0  0
   -0.7944    2.3057   -4.1474 C   0  0  0  0  0  0  0  0  0  0  0  0
   -0.8147    2.8711   -5.0904 H   0  0  0  0  0  0  0  0  0  0  0  0
   -0.7951   -2.3057    4.1474 C   0  0  0  0  0  0  0  0  0  0  0  0
   -0.8156   -2.8711    5.0904 H   0  0  0  0  0  0  0  0  0  0  0  0
   -2.2761   -1.4143   -0.3534 N   0  0  0  0  0  0  0  0  0  0  0  0
   -0.7519   -0.8566    1.7373 N   0  0  0  0  0  2  0  0  0  0  0  0
   -2.2762    1.4142    0.3531 N   0  0  0  0  0  0  0  0  0  0  0  0
   -0.7516    0.8565   -1.7373 N   0  0  0  0  0  2  0  0  0  0  0  0
   -1.9179   -2.5680    0.5069 C   0  0  0  0  0  0  0  0  0  0  0  0
   -1.0917   -3.1327    0.0270 H   0  0  0  0  0  0  0  0  0  0  0  0
   -2.7757   -3.2605    0.6586 H   0  0  0  0  0  0  0  0  0  0  0  0
   -3.4585   -0.7210    0.2240 C   0  0  0  0  0  0  0  0  0  0  0  0
   -3.3785   -0.7743    1.3277 H   0  0  0  0  0  0  0  0  0  0  0  0
   -4.4080   -1.2290   -0.0414 H   0  0  0  0  0  0  0  0  0  0  0  0
   -3.4585    0.7209   -0.2245 C   0  0  0  0  0  0  0  0  0  0  0  0
   -3.3782    0.7743   -1.3281 H   0  0  0  0  0  0  0  0  0  0  0  0
   -4.4080    1.2290    0.0408 H   0  0  0  0  0  0  0  0  0  0  0  0
   -0.1066    1.0864   -4.0496 C   0  0  0  0  0  0  0  0  0  0  0  0
    0.4444    0.6696   -4.9042 H   0  0  0  0  0  0  0  0  0  0  0  0
   -1.4096   -2.7352   -2.3431 C   0  0  0  0  0  0  0  0  0  0  0  0
   -1.4340   -2.7026   -3.4499 H   0  0  0  0  0  0  0  0  0  0  0  0
   -1.5751   -3.7887   -2.0400 H   0  0  0  0  0  0  0  0  0  0  0  0
   -0.4054   -2.4365   -1.9996 H   0  0  0  0  0  0  0  0  0  0  0  0
   -3.8802   -2.4564   -2.0651 C   0  0  0  0  0  0  0  0  0  0  0  0
   -4.7340   -1.7622   -1.9433 H   0  0  0  0  0  0  0  0  0  0  0  0
   -4.0525   -3.3432   -1.4206 H   0  0  0  0  0  0  0  0  0  0  0  0
   -3.9043   -2.8114   -3.1138 H   0  0  0  0  0  0  0  0  0  0  0  0
   -1.4101    2.7354    2.3428 C   0  0  0  0  0  0  0  0  0  0  0  0
   -1.4346    2.7028    3.4496 H   0  0  0  0  0  0  0  0  0  0  0  0
   -1.5757    3.7888    2.0397 H   0  0  0  0  0  0  0  0  0  0  0  0
   -0.4058    2.4368    1.9994 H   0  0  0  0  0  0  0  0  0  0  0  0
   -3.8806    2.4562    2.0646 C   0  0  0  0  0  0  0  0  0  0  0  0
   -4.7344    1.7618    1.9426 H   0  0  0  0  0  0  0  0  0  0  0  0
   -4.0529    3.3429    1.4200 H   0  0  0  0  0  0  0  0  0  0  0  0
   -3.9050    2.8112    3.1133 H   0  0  0  0  0  0  0  0  0  0  0  0
  1 27  1  0  0  0  0
  1 13  1  1  0  0  0
  2 28  1  6  0  0  0
  2  5  1  0  0  0  0
  3 11  2  0  0  0  0
  4  3  1  0  0  0  0
  5  6  1  0  0  0  0
  5 22  2  0  0  0  0
  7 24  1  0  0  0  0
  8  7  1  0  0  0  0
  9 51  1  0  0  0  0
  9 47  1  0  0  0  0
  9 10  1  0  0  0  0
 11 22  1  0  0  0  0
 11 12  1  0  0  0  0
 13 14  1  0  0  0  0
 13 26  1  0  0  0  0
 15 13  1  0  0  0  0
 16  1  1  0  0  0  0
 17 16  1  0  0  0  0
 18 19  1  0  0  0  0
 18 27  1  0  0  0  0
 20 37  1  0  0  0  0
 20 16  2  0  0  0  0
 21 20  1  0  0  0  0
 22 23  1  0  0  0  0
 24 31  1  0  0  0  0
 24 28  1  0  0  0  0
 25  2  1  0  0  0  0
 25  3  1  0  0  0  0
 26  9  1  0  0  0  0
 28 30  1  0  0  0  0
 29 28  1  0  0  0  0
 31 32  1  0  0  0  0
 33 31  1  0  0  0  0
 34 36  1  0  0  0  0
 34 31  1  0  0  0  0
 34 26  1  0  0  0  0
 35 34  1  0  0  0  0
 37 18  2  0  0  0  0
 38 37  1  0  0  0  0
 39 41  1  0  0  0  0
 39 42  1  0  0  0  0
 39  7  1  0  0  0  0
 40 39  1  0  0  0  0
 43 44  1  0  0  0  0
 43  7  1  0  0  0  0
 43 45  1  0  0  0  0
 46 43  1  0  0  0  0
 47 48  1  0  0  0  0
 49 47  1  0  0  0  0
 50 47  1  0  0  0  0
 51 54  1  0  0  0  0
 52 51  1  0  0  0  0
 53 51  1  0  0  0  0
M  END
