2,3,33,34
q = -2.0, confidence = 0.848

 63 64  0  0  1  0  0  0  0  0999 V2000
   -0.0000   -2.1100    0.0000 Si  0  0  0  0  0  0  0  0  0  0  0  0
    2.1250    1.0988    0.3513 N   0  0  0  0  0  2  0  0  0  0  0  0
    1.1127   -0.8483    0.4759 N   0  0  0  0  0  2  0  0  0  0  0  0
    3.1093    2.1898    0.2791 C   0  0  0  0  0  0  0  0  0  0  0  0
    2.3064    3.4995    0.3975 C   0  0  0  0  0  0  0  0  0  0  0  0
    1.7122    3.5050    1.3323 H   0  0  0  0  0  0  0  0  0  0  0  0
    1.6095    3.6007   -0.4583 H   0  0  0  0  0  0  0  0  0  0  0  0
    2.9877    4.3732    0.3990 H   0  0  0  0  0  0  0  0  0  0  0  0
    4.0781    2.0745    1.4726 C   0  0  0  0  0  0  0  0  0  0  0  0
    4.6978    1.1590    1.4042 H   0  0  0  0  0  0  0  0  0  0  0  0
    3.5120    2.0482    2.4250 H   0  0  0  0  0  0  0  0  0  0  0  0
    4.7610    2.9478    1.4939 H   0  0  0  0  0  0  0  0  0  0  0  0
    3.8838    2.1829   -1.0539 C   0  0  0  0  0  0  0  0  0  0  0  0
    4.5571    1.3077   -1.1299 H   0  0  0  0  0  0  0  0  0  0  0  0
    4.5062    3.0972   -1.1335 H   0  0  0  0  0  0  0  0  0  0  0  0
    3.1738    2.1647   -1.9036 H   0  0  0  0  0  0  0  0  0  0  0  0
    2.2938   -0.2058    0.3364 C   0  0  1  0  0  3  0  0  0  0  0  0
    3.5431   -1.0016    0.1205 C   0  0  0  0  0  0  0  0  0  0  0  0
    4.2214   -1.5789    1.2114 C   0  0  0  0  0  0  0  0  0  0  0  0
    3.8625   -1.3887    2.2342 H   0  0  0  0  0  0  0  0  0  0  0  0
    5.3486   -2.3847    0.9903 C   0  0  0  0  0  0  0  0  0  0  0  0
    5.8820   -2.8247    1.8466 H   0  0  0  0  0  0  0  0  0  0  0  0
    5.7927   -2.6325   -0.3184 C   0  0  0  0  0  0  0  0  0  0  0  0
    6.6756   -3.2666   -0.4899 H   0  0  0  0  0  0  0  0  0  0  0  0
    5.1056   -2.0743   -1.4089 C   0  0  0  0  0  0  0  0  0  0  0  0
    5.4459   -2.2733   -2.4365 H   0  0  0  0  0  0  0  0  0  0  0  0
    3.9836   -1.2611   -1.1932 C   0  0  0  0  0  0  0  0  0  0  0  0
    3.4368   -0.8220   -2.0412 H   0  0  0  0  0  0  0  0  0  0  0  0
    0.5632   -3.1345   -1.4639 C   0  0  0  0  0  0  0  0  0  0  0  0
    1.4714   -3.7183   -1.2086 H   0  0  0  0  0  0  0  0  0  0  0  0
    0.8043   -2.4655   -2.3137 H   0  0  0  0  0  0  0  0  0  0  0  0
   -0.2261   -3.8436   -1.7875 H   0  0  0  0  0  0  0  0  0  0  0  0
   -2.1250    1.0988   -0.3513 N   0  0  0  0  0  2  0  0  0  0  0  0
   -1.1127   -0.8483   -0.4759 N   0  0  0  0  0  2  0  0  0  0  0  0
   -3.1093    2.1898   -0.2791 C   0  0  0  0  0  0  0  0  0  0  0  0
   -2.3063    3.4995   -0.3975 C   0  0  0  0  0  0  0  0  0  0  0  0
   -1.7122    3.5050   -1.3323 H   0  0  0  0  0  0  0  0  0  0  0  0
   -1.6094    3.6007    0.4583 H   0  0  0  0  0  0  0  0  0  0  0  0
   -2.9877    4.3732   -0.3990 H   0  0  0  0  0  0  0  0  0  0  0  0
   -4.0781    2.0745   -1.4726 C   0  0  0  0  0  0  0  0  0  0  0  0
   -4.6979    1.1590   -1.4042 H   0  0  0  0  0  0  0  0  0  0  0  0
   -3.5120    2.0482   -2.4250 H   0  0  0  0  0  0  0  0  0  0  0  0
   -4.7610    2.9478   -1.4939 H   0  0  0  0  0  0  0  0  0  0  0  0
   -3.8838    2.1829    1.0539 C   0  0  0  0  0  0  0  0  0  0  0  0
   -4.5571    1.3078    1.1299 H   0  0  0  0  0  0  0  0  0  0  0  0
   -4.5061    3.0973    1.1335 H   0  0  0  0  0  0  0  0  0  0  0  0
   -3.1738    2.1647    1.9036 H   0  0  0  0  0  0  0  0  0  0  0  0
   -2.2938   -0.2058   -0.3364 C   0  0  1  0  0  3  0  0  0  0  0  0
   -3.5431   -1.0016   -0.1205 C   0  0  0  0  0  0  0  0  0  0  0  0
   -4.2215   -1.5788   -1.2115 C   0  0  0  0  0  0  0  0  0  0  0  0
   -3.8626   -1.3886   -2.2342 H   0  0  0  0  0  0  0  0  0  0  0  0
   -5.3486   -2.3846   -0.9903 C   0  0  0  0  0  0  0  0  0  0  0  0
   -5.8820   -2.8247   -1.8466 H   0  0  0  0  0  0  0  0  0  0  0  0
   -5.7927   -2.6325    0.3184 C   0  0  0  0  0  0  0  0  0  0  0  0
   -6.6756   -3.2666    0.4898 H   0  0  0  0  0  0  0  0  0  0  0  0
   -5.1056   -2.0743    1.4089 C   0  0  0  0  0  0  0  0  0  0  0  0
   -5.4459   -2.2734    2.4364 H   0  0  0  0  0  0  0  0  0  0  0  0
   -3.9836   -1.2612    1.1932 C   0  0  0  0  0  0  0  0  0  0  0  0
   -3.4368   -0.8220    2.0412 H   0  0  0  0  0  0  0  0  0  0  0  0
   -0.5632   -3.1345    1.4639 C   0  0  0  0  0  0  0  0  0  0  0  0
   -1.4714   -3.7183    1.2085 H   0  0  0  0  0  0  0  0  0  0  0  0
   -0.8043   -2.4655    2.3137 H   0  0  0  0  0  0  0  0  0  0  0  0
    0.2261   -3.8436    1.7875 H   0  0  0  0  0  0  0  0  0  0  0  0
  1  3  1  0  0  0  0
  1 60  1  0  0  0  0
  4  2  1  0  0  0  0
  4  5  1  0  0  0  0
  4  9  1  0  0  0  0
  5  8  1  0  0  0  0
  5  6  1  0  0  0  0
  7  5  1  0  0  0  0
  9 12  1  0  0  0  0
  9 11  1  0  0  0  0
 10  9  1  0  0  0  0
 13  4  1  0  0  0  0
 14 13  1  0  0  0  0
 15 13  1  0  0  0  0
 16 13  1  0  0  0  0
 17  2  1  6  0  0  0
 17  3  1  0  0  0  0
 18 17  1  0  0  0  0
 18 19  1  0  0  0  0
 19 20  1  0  0  0  0
 21 19  2  0  0  0  0
 21 22  1  0  0  0  0
 23 21  1  0  0  0  0
 24 23  1  0  0  0  0
 25 27  1  0  0  0  0
 25 23  2  0  0  0  0
 26 25  1  0  0  0  0
 27 18  2  0  0  0  0
 28 27  1  0  0  0  0
 29 30  1  0  0  0  0
 29  1  1  0  0  0  0
 31 29  1  0  0  0  0
 32 29  1  0  0  0  0
 33 48  1  0  0  0  0
 33 35  1  0  0  0  0
 34  1  1  0  0  0  0
 35 44  1  0  0  0  0
 36 35  1  0  0  0  0
 36 38  1  0  0  0  0
 37 36  1  0  0  0  0
 39 36  1  0  0  0  0
 40 41  1  0  0  0  0
 40 35  1  0  0  0  0
 42 40  1  0  0  0  0
 43 40  1  0  0  0  0
 44 45  1  0  0  0  0
 44 46  1  0  0  0  0
 44 47  1  0  0  0  0
 48 34  1  1  0  0  0
 48 49  1  0  0  0  0
 49 58  1  0  0  0  0
 50 52  1  0  0  0  0
 50 49  2  0  0  0  0
 51 50  1  0  0  0  0
 52 54  2  0  0  0  0
 53 52  1  0  0  0  0
 54 55  1  0  0  0  0
 54 56  1  0  0  0  0
 56 57  1  0  0  0  0
 58 56  2  0  0  0  0
 58 59  1  0  0  0  0
 60 63  1  0  0  0  0
 60 62  1  0  0  0  0
 61 60  1  0  0  0  0
M  END
