4,6,7,9
q = -2.0, confidence = 0.8

 32 31  0  0  1  0  0  0  0  0999 V2000
   -4.2310    0.0005   -1.4839 S   0  0  0  0  0  0  0  0  0  0  0  0
    4.2308    0.0030   -1.4843 S   0  0  0  0  0  0  0  0  0  0  0  0
    0.0002   -0.0051    4.3679 O   0  0  0  0  0  0  0  0  0  0  0  0
   -1.4674    0.0002   -1.4122 N   0  0  0  0  0  2  0  0  0  0  0  0
   -2.6644    0.0006    0.5837 N   0  0  0  0  0  0  0  0  0  0  0  0
   -1.4321   -0.0005    1.1109 N   0  0  0  0  0  2  0  0  0  0  0  0
    1.4321   -0.0014    1.1108 N   0  0  0  0  0  2  0  0  0  0  0  0
    2.6644   -0.0010    0.5834 N   0  0  0  0  0  0  0  0  0  0  0  0
    1.4672    0.0021   -1.4123 N   0  0  0  0  0  2  0  0  0  0  0  0
   -2.6258    0.0004   -0.7630 C   0  0  0  0  0  0  0  0  0  0  0  0
   -1.3215   -0.0009    2.4312 C   0  0  2  0  0  3  0  0  0  0  0  0
    0.0001   -0.0035    3.1286 C   0  0  0  0  0  0  0  0  0  0  0  0
    1.3217   -0.0036    2.4310 C   0  0  2  0  0  3  0  0  0  0  0  0
    2.6256    0.0013   -0.7632 C   0  0  0  0  0  0  0  0  0  0  0  0
   -2.5549    0.0003    3.2745 C   0  0  0  0  0  0  0  0  0  0  0  0
    2.5552   -0.0059    3.2742 C   0  0  0  0  0  0  0  0  0  0  0  0
   -3.8302    0.0011   -3.2552 C   0  0  0  0  0  0  0  0  0  0  0  0
    3.8297    0.0055   -3.2556 C   0  0  0  0  0  0  0  0  0  0  0  0
   -1.4838   -0.0015   -2.4351 H   0  0  0  0  0  0  0  0  0  0  0  0
    1.4835    0.0049   -2.4352 H   0  0  0  0  0  0  0  0  0  0  0  0
   -3.1822    0.8832    3.0338 H   0  0  0  0  0  0  0  0  0  0  0  0
   -3.1832   -0.8822    3.0350 H   0  0  0  0  0  0  0  0  0  0  0  0
   -2.2768    0.0006    4.3416 H   0  0  0  0  0  0  0  0  0  0  0  0
    2.2772   -0.0064    4.3414 H   0  0  0  0  0  0  0  0  0  0  0  0
    3.1843    0.8760    3.0346 H   0  0  0  0  0  0  0  0  0  0  0  0
    3.1817   -0.8894    3.0335 H   0  0  0  0  0  0  0  0  0  0  0  0
   -4.8033    0.0018   -3.7810 H   0  0  0  0  0  0  0  0  0  0  0  0
   -3.2747    0.9145   -3.5483 H   0  0  0  0  0  0  0  0  0  0  0  0
   -3.2756   -0.9126   -3.5491 H   0  0  0  0  0  0  0  0  0  0  0  0
    3.2745    0.9194   -3.5477 H   0  0  0  0  0  0  0  0  0  0  0  0
    3.2749   -0.9078   -3.5504 H   0  0  0  0  0  0  0  0  0  0  0  0
    4.8029    0.0065   -3.7815 H   0  0  0  0  0  0  0  0  0  0  0  0
  1 10  1  0  0  0  0
  2 14  1  0  0  0  0
  4 10  1  0  0  0  0
  5  6  1  0  0  0  0
  8  7  1  0  0  0  0
  9 14  1  0  0  0  0
 10  5  2  0  0  0  0
 11  6  1  6  0  0  0
 11 12  1  0  0  0  0
 11 15  1  0  0  0  0
 12  3  2  0  0  0  0
 13  7  1  1  0  0  0
 13 12  1  0  0  0  0
 13 16  1  0  0  0  0
 14  8  2  0  0  0  0
 15 23  1  0  0  0  0
 16 24  1  0  0  0  0
 17  1  1  0  0  0  0
 18  2  1  0  0  0  0
 19  4  1  0  0  0  0
 20  9  1  0  0  0  0
 21 15  1  0  0  0  0
 22 15  1  0  0  0  0
 25 16  1  0  0  0  0
 26 16  1  0  0  0  0
 27 17  1  0  0  0  0
 28 17  1  0  0  0  0
 29 17  1  0  0  0  0
 30 18  1  0  0  0  0
 31 18  1  0  0  0  0
 32 18  1  0  0  0  0
M  END
