1,4,9,12
q = 0.0, confidence = 0.996

 42 43  0  0  0  0  0  0  0  0999 V2000
   -1.3863    0.1713    1.4284 N   0  0  0  0  0  2  0  0  0  0  0  0
   -0.7730   -0.1332    2.6038 C   0  0  0  0  0  3  0  0  0  0  0  0
    0.1072   -0.7912    2.5396 H   0  0  0  0  0  0  0  0  0  0  0  0
   -2.6611    0.3114   -0.8729 N   0  0  0  0  0  0  0  0  0  0  0  0
   -1.2176    0.3830    3.8222 C   0  0  0  0  0  0  0  0  0  0  0  0
   -0.6797    0.1104    4.7413 H   0  0  0  0  0  0  0  0  0  0  0  0
   -2.3243    1.2454    3.8523 C   0  0  0  0  0  0  0  0  0  0  0  0
   -2.6910    1.6642    4.8005 H   0  0  0  0  0  0  0  0  0  0  0  0
   -1.8212   -2.2334   -0.1584 N   0  0  0  0  0  0  0  0  0  0  0  0
   -2.9441    1.5762    2.6372 C   0  0  0  0  0  0  0  0  0  0  0  0
   -3.7999    2.2663    2.6027 H   0  0  0  0  0  0  0  0  0  0  0  0
   -0.5593   -0.8870   -2.2827 N   0  0  0  0  0  0  0  0  0  0  0  0
   -2.4474    1.0392    1.4477 C   0  0  0  0  0  0  0  0  0  0  0  0
   -2.9418    1.4245    0.0792 C   0  0  0  0  0  0  0  0  0  0  0  0
   -4.0203    1.6972    0.0861 H   0  0  0  0  0  0  0  0  0  0  0  0
   -2.3698    2.3168   -0.2576 H   0  0  0  0  0  0  0  0  0  0  0  0
   -3.6985   -0.7600   -0.7800 C   0  0  0  0  0  0  0  0  0  0  0  0
   -3.8888   -1.1551   -1.7964 H   0  0  0  0  0  0  0  0  0  0  0  0
   -4.6630   -0.3420   -0.4226 H   0  0  0  0  0  0  0  0  0  0  0  0
   -3.2307   -1.8745    0.1454 C   0  0  0  0  0  0  0  0  0  0  0  0
   -3.2645   -1.5431    1.2003 H   0  0  0  0  0  0  0  0  0  0  0  0
   -3.9001   -2.7622    0.0549 H   0  0  0  0  0  0  0  0  0  0  0  0
   -1.3037   -3.1241    0.9053 C   0  0  0  0  0  0  0  0  0  0  0  0
   -1.9824   -3.9965    1.0409 H   0  0  0  0  0  0  0  0  0  0  0  0
   -1.2255   -2.5721    1.8578 H   0  0  0  0  0  0  0  0  0  0  0  0
   -0.3006   -3.4926    0.6304 H   0  0  0  0  0  0  0  0  0  0  0  0
   -1.7090   -2.9188   -1.4897 C   0  0  0  0  0  0  0  0  0  0  0  0
   -2.6552   -2.7754   -2.0473 H   0  0  0  0  0  0  0  0  0  0  0  0
   -1.5958   -4.0137   -1.3497 H   0  0  0  0  0  0  0  0  0  0  0  0
   -0.5287   -2.3704   -2.2721 C   0  0  0  0  0  0  0  0  0  0  0  0
    0.4184   -2.6742   -1.7818 H   0  0  0  0  0  0  0  0  0  0  0  0
   -0.5287   -2.7853   -3.3086 H   0  0  0  0  0  0  0  0  0  0  0  0
    0.7249   -0.3727   -2.8120 C   0  0  0  0  0  0  0  0  0  0  0  0
    0.8988   -0.7581   -3.8417 H   0  0  0  0  0  0  0  0  0  0  0  0
    1.5404   -0.6950   -2.1422 H   0  0  0  0  0  0  0  0  0  0  0  0
    0.7063    0.7298   -2.8135 H   0  0  0  0  0  0  0  0  0  0  0  0
   -1.7168   -0.3311   -3.0553 C   0  0  0  0  0  0  0  0  0  0  0  0
   -2.4175   -1.1552   -3.2985 H   0  0  0  0  0  0  0  0  0  0  0  0
   -1.3748    0.0724   -4.0315 H   0  0  0  0  0  0  0  0  0  0  0  0
   -2.4301    0.7707   -2.2703 C   0  0  0  0  0  0  0  0  0  0  0  0
   -1.7811    1.6622   -2.1960 H   0  0  0  0  0  0  0  0  0  0  0  0
   -3.3832    1.0571   -2.7723 H   0  0  0  0  0  0  0  0  0  0  0  0
  1 13  1  0  0  0  0
  1  2  1  0  0  0  0
  2  5  1  0  0  0  0
  3  2  1  0  0  0  0
  4 17  1  0  0  0  0
  4 14  1  0  0  0  0
  5  7  2  0  0  0  0
  5  6  1  0  0  0  0
  7  8  1  0  0  0  0
  9 20  1  0  0  0  0
  9 23  1  0  0  0  0
 10  7  1  0  0  0  0
 11 10  1  0  0  0  0
 12 30  1  0  0  0  0
 13 10  2  0  0  0  0
 14 15  1  0  0  0  0
 14 13  1  0  0  0  0
 16 14  1  0  0  0  0
 17 19  1  0  0  0  0
 17 20  1  0  0  0  0
 18 17  1  0  0  0  0
 20 21  1  0  0  0  0
 22 20  1  0  0  0  0
 23 24  1  0  0  0  0
 23 25  1  0  0  0  0
 26 23  1  0  0  0  0
 27 29  1  0  0  0  0
 27  9  1  0  0  0  0
 28 27  1  0  0  0  0
 30 31  1  0  0  0  0
 30 27  1  0  0  0  0
 32 30  1  0  0  0  0
 33 12  1  0  0  0  0
 33 35  1  0  0  0  0
 34 33  1  0  0  0  0
 36 33  1  0  0  0  0
 37 12  1  0  0  0  0
 37 40  1  0  0  0  0
 38 37  1  0  0  0  0
 39 37  1  0  0  0  0
 40 41  1  0  0  0  0
 40  4  1  0  0  0  0
 42 40  1  0  0  0  0
M  END
