16,17,18,19
q = -1.0, confidence = 0.356

 55 57  0  0  0  0  0  0  0  0999 V2000
   -3.4412   -1.4192    1.5133 F   0  0  0  0  0  0  0  0  0  0  0  0
   -5.4710    0.1972    0.7178 F   0  0  0  0  0  0  0  0  0  0  0  0
   -5.7067    0.9094   -1.9181 F   0  0  0  0  0  0  0  0  0  0  0  0
   -3.8972   -0.0025   -3.7526 F   0  0  0  0  0  0  0  0  0  0  0  0
   -1.8693   -1.6286   -2.9766 F   0  0  0  0  0  0  0  0  0  0  0  0
    3.3995   -0.2340    2.0557 F   0  0  0  0  0  0  0  0  0  0  0  0
    5.2952    1.5867    1.3485 F   0  0  0  0  0  0  0  0  0  0  0  0
    6.0133    1.8647   -1.2804 F   0  0  0  0  0  0  0  0  0  0  0  0
    4.8323    0.3202   -3.2003 F   0  0  0  0  0  0  0  0  0  0  0  0
    2.9644   -1.5318   -2.5039 F   0  0  0  0  0  0  0  0  0  0  0  0
    1.7887    1.8433    0.5477 F   0  0  0  0  0  0  0  0  0  0  0  0
    1.1647    4.3969   -0.0920 F   0  0  0  0  0  0  0  0  0  0  0  0
   -1.3704    5.3550    0.3353 F   0  0  0  0  0  0  0  0  0  0  0  0
   -3.2869    3.7019    1.4044 F   0  0  0  0  0  0  0  0  0  0  0  0
   -2.6912    1.1298    2.0103 F   0  0  0  0  0  0  0  0  0  0  0  0
   -1.4055   -2.2677   -0.2966 N   0  0  0  0  0  2  0  0  0  0  0  0
    2.0982   -1.8602    0.1271 N   0  0  0  0  0  2  0  0  0  0  0  0
   -0.1376    0.0131    1.4821 N   0  0  0  0  0  2  0  0  0  0  0  0
    0.2174   -2.6590    1.7806 N   0  0  0  0  0  0  0  0  0  0  0  0
   -2.5394   -1.5193   -0.6936 C   0  0  0  0  0  0  0  0  0  0  0  0
   -3.5254   -1.0726    0.2167 C   0  0  0  0  0  0  0  0  0  0  0  0
   -4.5776   -0.2355   -0.1748 C   0  0  0  0  0  0  0  0  0  0  0  0
   -4.7014    0.1262   -1.5278 C   0  0  0  0  0  0  0  0  0  0  0  0
   -3.7611   -0.3327   -2.4668 C   0  0  0  0  0  0  0  0  0  0  0  0
   -2.7165   -1.1760   -2.0575 C   0  0  0  0  0  0  0  0  0  0  0  0
    3.1131   -0.9305   -0.2066 C   0  0  0  0  0  0  0  0  0  0  0  0
    3.7623   -0.1348    0.7632 C   0  0  0  0  0  0  0  0  0  0  0  0
    4.7248    0.8206    0.4142 C   0  0  0  0  0  0  0  0  0  0  0  0
    5.0921    0.9651   -0.9348 C   0  0  0  0  0  0  0  0  0  0  0  0
    4.4728    0.1788   -1.9226 C   0  0  0  0  0  0  0  0  0  0  0  0
    3.5170   -0.7796   -1.5540 C   0  0  0  0  0  0  0  0  0  0  0  0
   -0.4340    1.3798    1.2714 C   0  0  0  0  0  0  0  0  0  0  0  0
    0.5346    2.2694    0.7537 C   0  0  0  0  0  0  0  0  0  0  0  0
    0.2247    3.5932    0.4151 C   0  0  0  0  0  0  0  0  0  0  0  0
   -1.0691    4.0913    0.6465 C   0  0  0  0  0  0  0  0  0  0  0  0
   -2.0492    3.2425    1.1871 C   0  0  0  0  0  0  0  0  0  0  0  0
   -1.7205    1.9169    1.5058 C   0  0  0  0  0  0  0  0  0  0  0  0
   -1.6047   -3.5322    0.4120 C   0  0  0  0  0  0  0  0  0  0  0  0
   -1.1009   -3.3424    1.8422 C   0  0  0  0  0  0  0  0  0  0  0  0
    2.5280   -2.9609    0.9897 C   0  0  0  0  0  0  0  0  0  0  0  0
    1.2865   -3.6553    1.5229 C   0  0  0  0  0  0  0  0  0  0  0  0
   -0.3162   -0.5049    2.8522 C   0  0  0  0  0  0  0  0  0  0  0  0
    0.4731   -1.8057    2.9740 C   0  0  0  0  0  0  0  0  0  0  0  0
   -2.6733   -3.8324    0.4134 H   0  0  0  0  0  0  0  0  0  0  0  0
   -1.0458   -4.3412   -0.1078 H   0  0  0  0  0  0  0  0  0  0  0  0
   -1.0192   -4.3018    2.4020 H   0  0  0  0  0  0  0  0  0  0  0  0
   -1.8041   -2.6860    2.3828 H   0  0  0  0  0  0  0  0  0  0  0  0
    1.5138   -4.2486    2.4389 H   0  0  0  0  0  0  0  0  0  0  0  0
    0.8924   -4.3518    0.7583 H   0  0  0  0  0  0  0  0  0  0  0  0
    3.1587   -3.6878    0.4302 H   0  0  0  0  0  0  0  0  0  0  0  0
    3.1565   -2.5743    1.8232 H   0  0  0  0  0  0  0  0  0  0  0  0
    0.2260   -2.3481    3.9148 H   0  0  0  0  0  0  0  0  0  0  0  0
    1.5531   -1.5669    2.9818 H   0  0  0  0  0  0  0  0  0  0  0  0
    0.0668    0.2222    3.6015 H   0  0  0  0  0  0  0  0  0  0  0  0
   -1.3949   -0.6608    3.0797 H   0  0  0  0  0  0  0  0  0  0  0  0
  3 23  1  0  0  0  0
  4 24  1  0  0  0  0
  5 25  1  0  0  0  0
  8 29  1  0  0  0  0
  9 30  1  0  0  0  0
 10 31  1  0  0  0  0
 11 33  1  0  0  0  0
 12 34  1  0  0  0  0
 13 35  1  0  0  0  0
 16 38  1  0  0  0  0
 17 40  1  0  0  0  0
 18 42  1  0  0  0  0
 19 39  1  0  0  0  0
 19 43  1  0  0  0  0
 20 16  1  0  0  0  0
 20 21  1  0  0  0  0
 21  1  1  0  0  0  0
 22 21  2  0  0  0  0
 22  2  1  0  0  0  0
 23 22  1  0  0  0  0
 24 25  1  0  0  0  0
 24 23  2  0  0  0  0
 25 20  2  0  0  0  0
 26 17  1  0  0  0  0
 26 27  1  0  0  0  0
 27  6  1  0  0  0  0
 28 27  2  0  0  0  0
 28  7  1  0  0  0  0
 29 28  1  0  0  0  0
 30 31  1  0  0  0  0
 30 29  2  0  0  0  0
 31 26  2  0  0  0  0
 32 18  1  0  0  0  0
 32 37  1  0  0  0  0
 33 32  2  0  0  0  0
 34 35  2  0  0  0  0
 34 33  1  0  0  0  0
 35 36  1  0  0  0  0
 36 14  1  0  0  0  0
 36 37  2  0  0  0  0
 37 15  1  0  0  0  0
 38 44  1  0  0  0  0
 38 39  1  0  0  0  0
 39 47  1  0  0  0  0
 39 46  1  0  0  0  0
 40 41  1  0  0  0  0
 40 51  1  0  0  0  0
 41 19  1  0  0  0  0
 41 48  1  0  0  0  0
 42 43  1  0  0  0  0
 42 55  1  0  0  0  0
 42 54  1  0  0  0  0
 43 53  1  0  0  0  0
 43 52  1  0  0  0  0
 45 38  1  0  0  0  0
 49 41  1  0  0  0  0
 50 40  1  0  0  0  0
M  END
