1,2,3,4
q = -1.0, confidence = 0.076

 40 41  0  0  1  0  0  0  0  0999 V2000
    2.3419   -0.0001    0.0001 N   0  0  0  0  0  2  0  0  0  0  0  0
   -1.2819    0.0000   -0.0000 N   0  0  0  0  0  2  0  0  0  0  0  0
    0.2503    1.8620    0.0868 N   0  0  0  0  0  2  0  0  0  0  0  0
    0.2502   -1.8620   -0.0871 N   0  0  0  0  0  2  0  0  0  0  0  0
   -1.9644   -1.2012   -0.0773 C   0  0  0  0  0  0  0  0  0  0  0  0
   -1.9643    1.2013    0.0773 C   0  0  0  0  0  0  0  0  0  0  0  0
   -1.0248    2.2852    0.1452 C   0  0  1  0  0  3  0  0  0  0  0  0
    2.4763    2.3821   -0.7666 C   0  0  0  0  0  0  0  0  0  0  0  0
    3.2128    3.2074   -0.8646 H   0  0  0  0  0  0  0  0  0  0  0  0
    2.0772    2.1682   -1.7816 H   0  0  0  0  0  0  0  0  0  0  0  0
   -1.4364    3.7226    0.2681 C   0  0  0  0  0  0  0  0  0  0  0  0
   -0.9982    4.2048    1.1674 H   0  0  0  0  0  0  0  0  0  0  0  0
   -2.5352    3.8097    0.3463 H   0  0  0  0  0  0  0  0  0  0  0  0
   -1.1184    4.3270   -0.6092 H   0  0  0  0  0  0  0  0  0  0  0  0
    3.1887   -1.1550    0.2210 C   0  0  0  0  0  0  0  0  0  0  0  0
    4.0141   -0.8844    0.9278 H   0  0  0  0  0  0  0  0  0  0  0  0
    3.7131   -1.4407   -0.7327 H   0  0  0  0  0  0  0  0  0  0  0  0
    1.3269    2.8383    0.1210 C   0  0  0  0  0  0  0  0  0  0  0  0
    1.6885    2.9608    1.1702 H   0  0  0  0  0  0  0  0  0  0  0  0
    0.9711    3.8363   -0.2107 H   0  0  0  0  0  0  0  0  0  0  0  0
   -1.0249   -2.2852   -0.1453 C   0  0  0  0  0  0  0  0  0  0  0  0
   -3.3708   -1.2157   -0.0803 C   0  0  0  0  0  0  0  0  0  0  0  0
   -3.9116   -2.1706   -0.1433 H   0  0  0  0  0  0  0  0  0  0  0  0
   -1.4366   -3.7226   -0.2682 C   0  0  0  0  0  0  0  0  0  0  0  0
   -0.9987   -4.2046   -1.1677 H   0  0  0  0  0  0  0  0  0  0  0  0
   -2.5354   -3.8096   -0.3460 H   0  0  0  0  0  0  0  0  0  0  0  0
   -1.1184   -4.3270    0.6090 H   0  0  0  0  0  0  0  0  0  0  0  0
    3.1887    1.1549   -0.2203 C   0  0  0  0  0  0  0  0  0  0  0  0
    4.0146    0.8842   -0.9266 H   0  0  0  0  0  0  0  0  0  0  0  0
    3.7126    1.4407    0.7336 H   0  0  0  0  0  0  0  0  0  0  0  0
    2.4760   -2.3824    0.7667 C   0  0  0  0  0  0  0  0  0  0  0  0
    3.2124   -3.2077    0.8646 H   0  0  0  0  0  0  0  0  0  0  0  0
    2.0765   -2.1688    1.7816 H   0  0  0  0  0  0  0  0  0  0  0  0
   -3.3708    1.2159    0.0806 C   0  0  0  0  0  0  0  0  0  0  0  0
   -3.9115    2.1708    0.1437 H   0  0  0  0  0  0  0  0  0  0  0  0
   -4.0733    0.0001    0.0002 C   0  0  0  0  0  0  0  0  0  0  0  0
   -5.1729    0.0001    0.0003 H   0  0  0  0  0  0  0  0  0  0  0  0
    1.3268   -2.8383   -0.1215 C   0  0  0  0  0  0  0  0  0  0  0  0
    1.6888   -2.9602   -1.1707 H   0  0  0  0  0  0  0  0  0  0  0  0
    0.9710   -3.8364    0.2096 H   0  0  0  0  0  0  0  0  0  0  0  0
  1 15  1  0  0  0  0
  2  6  1  0  0  0  0
  3 18  1  0  0  0  0
  3  7  1  0  0  0  0
  5  2  1  0  0  0  0
  6 34  2  0  0  0  0
  6  7  1  0  0  0  0
  7 11  1  1  0  0  0
  8 28  1  0  0  0  0
  8 18  1  0  0  0  0
  9  8  1  0  0  0  0
 10  8  1  0  0  0  0
 11 13  1  0  0  0  0
 11 12  1  0  0  0  0
 14 11  1  0  0  0  0
 15 31  1  0  0  0  0
 15 16  1  0  0  0  0
 17 15  1  0  0  0  0
 18 19  1  0  0  0  0
 20 18  1  0  0  0  0
 21  4  1  0  0  0  0
 21  5  2  0  0  0  0
 22  5  1  0  0  0  0
 22 36  2  0  0  0  0
 23 22  1  0  0  0  0
 24 21  1  0  0  0  0
 24 27  1  0  0  0  0
 25 24  1  0  0  0  0
 26 24  1  0  0  0  0
 28  1  1  0  0  0  0
 28 30  1  0  0  0  0
 29 28  1  0  0  0  0
 31 32  1  0  0  0  0
 31 33  1  0  0  0  0
 34 35  1  0  0  0  0
 36 37  1  0  0  0  0
 36 34  1  0  0  0  0
 38  4  1  0  0  0  0
 38 40  1  0  0  0  0
 38 31  1  0  0  0  0
 39 38  1  0  0  0  0
M  END
