1,2,3,4
q = 0.0, confidence = 0.938

 41 42  0  0  1  0  0  0  0  0999 V2000
   -1.5072    0.0013   -0.0591 N   0  0  0  0  0  2  0  0  0  0  0  0
    0.0135    1.8789   -0.1615 N   0  0  0  0  0  2  0  0  0  0  0  0
    0.0094   -1.8798   -0.1595 N   0  0  0  0  0  2  0  0  0  0  0  0
    1.9566   -0.0032   -1.3242 N   0  0  0  0  0  0  0  0  0  0  0  0
   -2.1855    1.2040   -0.0230 C   0  0  0  0  0  0  0  0  0  0  0  0
   -2.1881   -1.1999   -0.0219 C   0  0  0  0  0  0  0  0  0  0  0  0
   -1.2563   -2.2989   -0.0746 C   0  0  2  0  0  3  0  0  0  0  0  0
   -3.5910   -1.2123    0.0449 C   0  0  0  0  0  0  0  0  0  0  0  0
    2.8078   -1.2119   -1.2372 C   0  0  0  0  0  0  0  0  0  0  0  0
   -1.2513    2.3009   -0.0769 C   0  0  0  0  0  0  0  0  0  0  0  0
    1.1113    2.8293   -0.2251 C   0  0  0  0  0  0  0  0  0  0  0  0
   -3.5884    1.2194    0.0438 C   0  0  0  0  0  0  0  0  0  0  0  0
   -4.2928    0.0043    0.0768 C   0  0  0  0  0  0  0  0  0  0  0  0
    2.0563    2.5163   -1.3865 C   0  0  0  0  0  0  0  0  0  0  0  0
    2.8103    1.2038   -1.2389 C   0  0  0  0  0  0  0  0  0  0  0  0
    1.1052   -2.8326   -0.2218 C   0  0  0  0  0  0  0  0  0  0  0  0
   -1.6814   -3.7370   -0.0363 C   0  0  0  0  0  0  0  0  0  0  0  0
   -1.6733    3.7399   -0.0403 C   0  0  0  0  0  0  0  0  0  0  0  0
    2.0511   -2.5231   -1.3833 C   0  0  0  0  0  0  0  0  0  0  0  0
   -4.1327   -2.1680    0.0695 H   0  0  0  0  0  0  0  0  0  0  0  0
   -5.3905    0.0056    0.1257 H   0  0  0  0  0  0  0  0  0  0  0  0
   -4.1280    2.1763    0.0674 H   0  0  0  0  0  0  0  0  0  0  0  0
    1.5048   -0.0034   -2.2516 H   0  0  0  0  0  0  0  0  0  0  0  0
    3.6067   -1.1528   -2.0115 H   0  0  0  0  0  0  0  0  0  0  0  0
    3.3168   -1.1778   -0.2511 H   0  0  0  0  0  0  0  0  0  0  0  0
    0.7396    3.8681   -0.3243 H   0  0  0  0  0  0  0  0  0  0  0  0
    1.6764    2.7805    0.7326 H   0  0  0  0  0  0  0  0  0  0  0  0
    1.4894    2.5334   -2.3432 H   0  0  0  0  0  0  0  0  0  0  0  0
    2.8069    3.3299   -1.4577 H   0  0  0  0  0  0  0  0  0  0  0  0
    3.3194    1.1699   -0.2528 H   0  0  0  0  0  0  0  0  0  0  0  0
    3.6089    1.1421   -2.0132 H   0  0  0  0  0  0  0  0  0  0  0  0
    1.6702   -2.7838    0.7360 H   0  0  0  0  0  0  0  0  0  0  0  0
    0.7313   -3.8707   -0.3197 H   0  0  0  0  0  0  0  0  0  0  0  0
   -1.3703   -4.2850   -0.9499 H   0  0  0  0  0  0  0  0  0  0  0  0
   -1.2479   -4.2723    0.8335 H   0  0  0  0  0  0  0  0  0  0  0  0
   -2.7798   -3.8211    0.0379 H   0  0  0  0  0  0  0  0  0  0  0  0
   -1.2384    4.2754    0.8288 H   0  0  0  0  0  0  0  0  0  0  0  0
   -1.3613    4.2862   -0.9547 H   0  0  0  0  0  0  0  0  0  0  0  0
   -2.7715    3.8265    0.0342 H   0  0  0  0  0  0  0  0  0  0  0  0
    1.4844   -2.5402   -2.3401 H   0  0  0  0  0  0  0  0  0  0  0  0
    2.8001   -3.3382   -1.4533 H   0  0  0  0  0  0  0  0  0  0  0  0
  1  5  1  0  0  0  0
  1  6  1  0  0  0  0
  2 10  1  0  0  0  0
  3  7  1  0  0  0  0
  4 15  1  0  0  0  0
  4  9  1  0  0  0  0
  5 12  1  0  0  0  0
  6  8  2  0  0  0  0
  7 17  1  1  0  0  0
  7  6  1  0  0  0  0
  8 20  1  0  0  0  0
  8 13  1  0  0  0  0
  9 25  1  0  0  0  0
 10 18  1  0  0  0  0
 10  5  2  0  0  0  0
 11  2  1  0  0  0  0
 11 27  1  0  0  0  0
 12 22  1  0  0  0  0
 12 13  2  0  0  0  0
 13 21  1  0  0  0  0
 14 15  1  0  0  0  0
 14 11  1  0  0  0  0
 15 30  1  0  0  0  0
 16  3  1  0  0  0  0
 16 32  1  0  0  0  0
 17 36  1  0  0  0  0
 17 35  1  0  0  0  0
 18 39  1  0  0  0  0
 18 37  1  0  0  0  0
 19  9  1  0  0  0  0
 19 16  1  0  0  0  0
 23  4  1  0  0  0  0
 24  9  1  0  0  0  0
 26 11  1  0  0  0  0
 28 14  1  0  0  0  0
 29 14  1  0  0  0  0
 31 15  1  0  0  0  0
 33 16  1  0  0  0  0
 34 17  1  0  0  0  0
 38 18  1  0  0  0  0
 40 19  1  0  0  0  0
 41 19  1  0  0  0  0
M  END
