3,4,5,6
q = 0.0, confidence = 0.96

 54 57  0  0  1  0  0  0  0  0999 V2000
   -3.5369   -2.0929   -0.7431 O   0  0  0  0  0  0  0  0  0  0  0  0
    3.8698    1.2016    0.6062 O   0  0  0  0  0  0  0  0  0  0  0  0
   -1.3964   -1.5217   -0.2415 N   0  0  0  0  0  2  0  0  0  0  0  0
   -1.8596    1.0077   -0.1502 N   0  0  0  0  0  2  0  0  0  0  0  0
    0.4153    2.0241    0.1520 N   0  0  0  0  0  2  0  0  0  0  0  0
    1.9782   -0.0031    0.2628 N   0  0  0  0  0  2  0  0  0  0  0  0
   -1.3434   -2.9843   -0.4099 C   0  0  2  0  0  0  0  0  0  0  0  0
   -2.7621   -3.3100   -0.9510 C   0  0  0  0  0  0  0  0  0  0  0  0
   -2.6384   -1.1464   -0.4257 C   0  0  0  0  0  0  0  0  0  0  0  0
   -2.9928    0.2638   -0.3498 C   0  0  0  0  0  0  0  0  0  0  0  0
   -4.2452    0.8713   -0.4878 C   0  0  0  0  0  0  0  0  0  0  0  0
   -4.3180    2.2748   -0.4165 C   0  0  0  0  0  0  0  0  0  0  0  0
   -3.1484    3.0325   -0.2251 C   0  0  0  0  0  0  0  0  0  0  0  0
   -1.9075    2.3889   -0.0969 C   0  0  0  0  0  0  0  0  0  0  0  0
   -0.5803    2.9821    0.0858 C   0  0  2  0  0  3  0  0  0  0  0  0
   -0.2301    4.3371    0.1941 C   0  0  0  0  0  0  0  0  0  0  0  0
    1.1159    4.7046    0.3723 C   0  0  0  0  0  0  0  0  0  0  0  0
    2.1132    3.7147    0.4470 C   0  0  0  0  0  0  0  0  0  0  0  0
    1.7289    2.3746    0.3324 C   0  0  0  0  0  0  0  0  0  0  0  0
    2.5445    1.1707    0.3953 C   0  0  1  0  0  3  0  0  0  0  0  0
    4.2755   -0.1920    0.7620 C   0  0  0  0  0  0  0  0  0  0  0  0
    3.0323   -1.0242    0.3430 C   0  0  2  0  0  0  0  0  0  0  0  0
   -0.9899   -3.7366    0.8966 C   0  0  0  0  0  0  0  0  0  0  0  0
   -1.9351   -3.3705    2.0478 C   0  0  0  0  0  0  0  0  0  0  0  0
    0.4738   -3.5220    1.2933 C   0  0  0  0  0  0  0  0  0  0  0  0
    3.1659   -1.8084   -0.9833 C   0  0  0  0  0  0  0  0  0  0  0  0
    3.5863   -0.9225   -2.1590 C   0  0  0  0  0  0  0  0  0  0  0  0
    4.0936   -3.0137   -0.7966 C   0  0  0  0  0  0  0  0  0  0  0  0
   -0.5691   -3.2091   -1.1733 H   0  0  0  0  0  0  0  0  0  0  0  0
    2.7560   -1.7410    1.1433 H   0  0  0  0  0  0  0  0  0  0  0  0
   -1.1282   -4.8142    0.6432 H   0  0  0  0  0  0  0  0  0  0  0  0
    2.1380   -2.1751   -1.1970 H   0  0  0  0  0  0  0  0  0  0  0  0
   -3.2657   -4.1328   -0.4074 H   0  0  0  0  0  0  0  0  0  0  0  0
   -2.7711   -3.5278   -2.0384 H   0  0  0  0  0  0  0  0  0  0  0  0
    5.1648   -0.3580    0.1238 H   0  0  0  0  0  0  0  0  0  0  0  0
    4.5563   -0.3392    1.8243 H   0  0  0  0  0  0  0  0  0  0  0  0
   -5.1368    0.2505   -0.6505 H   0  0  0  0  0  0  0  0  0  0  0  0
   -5.2878    2.7818   -0.5171 H   0  0  0  0  0  0  0  0  0  0  0  0
   -3.1979    4.1296   -0.1794 H   0  0  0  0  0  0  0  0  0  0  0  0
   -1.0141    5.1057    0.1412 H   0  0  0  0  0  0  0  0  0  0  0  0
    1.3864    5.7663    0.4573 H   0  0  0  0  0  0  0  0  0  0  0  0
    3.1722    3.9667    0.5946 H   0  0  0  0  0  0  0  0  0  0  0  0
   -1.7331   -4.0082    2.9315 H   0  0  0  0  0  0  0  0  0  0  0  0
   -1.7770   -2.3136    2.3471 H   0  0  0  0  0  0  0  0  0  0  0  0
   -3.0038   -3.5053    1.7808 H   0  0  0  0  0  0  0  0  0  0  0  0
    1.1611   -3.7682    0.4577 H   0  0  0  0  0  0  0  0  0  0  0  0
    0.6331   -2.4661    1.5913 H   0  0  0  0  0  0  0  0  0  0  0  0
    0.7418   -4.1640    2.1567 H   0  0  0  0  0  0  0  0  0  0  0  0
    2.8505   -0.1101   -2.3198 H   0  0  0  0  0  0  0  0  0  0  0  0
    4.5972   -0.4849   -2.0135 H   0  0  0  0  0  0  0  0  0  0  0  0
    3.6226   -1.5193   -3.0925 H   0  0  0  0  0  0  0  0  0  0  0  0
    4.1393   -3.6225   -1.7217 H   0  0  0  0  0  0  0  0  0  0  0  0
    5.1338   -2.6971   -0.5654 H   0  0  0  0  0  0  0  0  0  0  0  0
    3.7524   -3.6730    0.0285 H   0  0  0  0  0  0  0  0  0  0  0  0
  1  9  1  0  0  0  0
  2 21  1  0  0  0  0
  4 14  1  0  0  0  0
  5 19  1  0  0  0  0
  6 22  1  0  0  0  0
  6 20  1  0  0  0  0
  7 29  1  6  0  0  0
  7  3  1  0  0  0  0
  7 23  1  0  0  0  0
  8  1  1  0  0  0  0
  8  7  1  0  0  0  0
  8 33  1  0  0  0  0
  9 10  2  0  0  0  0
  9  3  1  0  0  0  0
 10  4  1  0  0  0  0
 11 12  2  0  0  0  0
 11 10  1  0  0  0  0
 12 13  1  0  0  0  0
 13 39  1  0  0  0  0
 13 14  2  0  0  0  0
 15 14  1  6  0  0  0
 15  5  1  0  0  0  0
 15 16  1  0  0  0  0
 16 17  2  0  0  0  0
 17 18  1  0  0  0  0
 17 41  1  0  0  0  0
 18 42  1  0  0  0  0
 19 18  2  0  0  0  0
 20 19  1  1  0  0  0
 20  2  1  0  0  0  0
 21 36  1  0  0  0  0
 22 21  1  0  0  0  0
 22 30  1  1  0  0  0
 23 25  1  0  0  0  0
 23 24  1  0  0  0  0
 24 44  1  0  0  0  0
 24 43  1  0  0  0  0
 25 47  1  0  0  0  0
 25 48  1  0  0  0  0
 26 28  1  0  0  0  0
 26 22  1  0  0  0  0
 27 50  1  0  0  0  0
 27 26  1  0  0  0  0
 28 53  1  0  0  0  0
 28 54  1  0  0  0  0
 31 23  1  0  0  0  0
 32 26  1  0  0  0  0
 34  8  1  0  0  0  0
 35 21  1  0  0  0  0
 37 11  1  0  0  0  0
 38 12  1  0  0  0  0
 40 16  1  0  0  0  0
 45 24  1  0  0  0  0
 46 25  1  0  0  0  0
 49 27  1  0  0  0  0
 51 27  1  0  0  0  0
 52 28  1  0  0  0  0
M  END
