1,2,31,34
q = -2.0, confidence = 0.97

 52 54  0  0  1  0  0  0  0  0999 V2000
    1.4831   -0.6976   -1.5561 N   0  0  0  0  0  2  0  0  0  0  0  0
    1.6790   -0.7860    1.0110 N   0  0  0  0  0  2  0  0  0  0  0  0
    0.0000    0.1859   -3.3670 C   0  0  0  0  0  0  0  0  0  0  0  0
    1.2863   -0.5498   -2.9939 C   0  0  0  0  0  0  0  0  0  0  0  0
    2.5983   -1.3089   -1.1146 C   0  0  0  0  0  0  0  0  0  0  0  0
    3.5560   -1.8506   -2.0211 C   0  0  0  0  0  0  0  0  0  0  0  0
    4.7932   -2.4748   -1.8296 C   0  0  0  0  0  0  0  0  0  0  0  0
    5.4814   -2.7639   -0.6448 C   0  0  0  0  0  0  0  0  0  0  0  0
    5.0272   -2.4784    0.6504 C   0  0  0  0  0  0  0  0  0  0  0  0
    3.8401   -1.8763    1.0727 C   0  0  0  0  0  0  0  0  0  0  0  0
    2.7208   -1.3454    0.3675 C   0  0  1  0  0  3  0  0  0  0  0  0
    1.6780   -0.6825    2.4698 C   0  0  0  0  0  0  0  0  0  0  0  0
    1.3056   -1.9841    3.2061 C   0  0  0  0  0  0  0  0  0  0  0  0
   -0.0001   -2.6684    2.7802 C   0  0  0  0  0  0  0  0  0  0  0  0
    0.0000    1.2054   -2.9290 H   0  0  0  0  0  0  0  0  0  0  0  0
    0.0001    0.3159   -4.4688 H   0  0  0  0  0  0  0  0  0  0  0  0
    1.2795   -1.5532   -3.4855 H   0  0  0  0  0  0  0  0  0  0  0  0
    2.1497    0.0049   -3.4313 H   0  0  0  0  0  0  0  0  0  0  0  0
    3.2801   -1.7497   -3.0784 H   0  0  0  0  0  0  0  0  0  0  0  0
    5.3007   -2.7764   -2.7616 H   0  0  0  0  0  0  0  0  0  0  0  0
    6.4602   -3.2589   -0.7380 H   0  0  0  0  0  0  0  0  0  0  0  0
    5.7058   -2.7721    1.4691 H   0  0  0  0  0  0  0  0  0  0  0  0
    3.7655   -1.7777    2.1630 H   0  0  0  0  0  0  0  0  0  0  0  0
    0.9808    0.1348    2.7352 H   0  0  0  0  0  0  0  0  0  0  0  0
    2.6701   -0.3268    2.8272 H   0  0  0  0  0  0  0  0  0  0  0  0
    2.1298   -2.7172    3.0780 H   0  0  0  0  0  0  0  0  0  0  0  0
    1.2683   -1.7548    4.2942 H   0  0  0  0  0  0  0  0  0  0  0  0
   -0.0001   -2.8169    1.6779 H   0  0  0  0  0  0  0  0  0  0  0  0
   -0.0001   -3.6901    3.2142 H   0  0  0  0  0  0  0  0  0  0  0  0
   -1.2863   -0.5498   -2.9939 C   0  0  0  0  0  0  0  0  0  0  0  0
   -1.4831   -0.6976   -1.5561 N   0  0  0  0  0  2  0  0  0  0  0  0
   -1.3058   -1.9841    3.2061 C   0  0  0  0  0  0  0  0  0  0  0  0
   -1.6781   -0.6824    2.4698 C   0  0  0  0  0  0  0  0  0  0  0  0
   -1.6790   -0.7860    1.0110 N   0  0  0  0  0  2  0  0  0  0  0  0
   -2.7208   -1.3454    0.3675 C   0  0  0  0  0  0  0  0  0  0  0  0
   -2.5983   -1.3089   -1.1147 C   0  0  0  0  0  0  0  0  0  0  0  0
   -3.5560   -1.8506   -2.0212 C   0  0  0  0  0  0  0  0  0  0  0  0
   -4.7931   -2.4748   -1.8296 C   0  0  0  0  0  0  0  0  0  0  0  0
   -5.4813   -2.7639   -0.6449 C   0  0  0  0  0  0  0  0  0  0  0  0
   -5.0272   -2.4784    0.6503 C   0  0  0  0  0  0  0  0  0  0  0  0
   -3.8401   -1.8763    1.0726 C   0  0  0  0  0  3  0  0  0  0  0  0
   -3.7655   -1.7777    2.1629 H   0  0  0  0  0  0  0  0  0  0  0  0
   -5.7058   -2.7720    1.4690 H   0  0  0  0  0  0  0  0  0  0  0  0
   -6.4602   -3.2588   -0.7382 H   0  0  0  0  0  0  0  0  0  0  0  0
   -5.3006   -2.7763   -2.7617 H   0  0  0  0  0  0  0  0  0  0  0  0
   -3.2801   -1.7497   -3.0784 H   0  0  0  0  0  0  0  0  0  0  0  0
   -0.9809    0.1348    2.7352 H   0  0  0  0  0  0  0  0  0  0  0  0
   -2.6701   -0.3267    2.8271 H   0  0  0  0  0  0  0  0  0  0  0  0
   -2.1299   -2.7171    3.0780 H   0  0  0  0  0  0  0  0  0  0  0  0
   -1.2685   -1.7548    4.2942 H   0  0  0  0  0  0  0  0  0  0  0  0
   -1.2794   -1.5532   -3.4855 H   0  0  0  0  0  0  0  0  0  0  0  0
   -2.1496    0.0050   -3.4313 H   0  0  0  0  0  0  0  0  0  0  0  0
  1  5  1  0  0  0  0
  2 12  1  0  0  0  0
  3 30  1  0  0  0  0
  3  4  1  0  0  0  0
  3 15  1  0  0  0  0
  4  1  1  0  0  0  0
  6  7  1  0  0  0  0
  6  5  2  0  0  0  0
  7  8  2  0  0  0  0
  8  9  1  0  0  0  0
  9 10  2  0  0  0  0
  9 22  1  0  0  0  0
 10 23  1  0  0  0  0
 11  5  1  6  0  0  0
 11  2  1  0  0  0  0
 11 10  1  0  0  0  0
 12 24  1  0  0  0  0
 12 25  1  0  0  0  0
 12 13  1  0  0  0  0
 13 27  1  0  0  0  0
 14 32  1  0  0  0  0
 14 13  1  0  0  0  0
 14 29  1  0  0  0  0
 16  3  1  0  0  0  0
 17  4  1  0  0  0  0
 18  4  1  0  0  0  0
 19  6  1  0  0  0  0
 20  7  1  0  0  0  0
 21  8  1  0  0  0  0
 26 13  1  0  0  0  0
 28 14  1  0  0  0  0
 30 31  1  0  0  0  0
 31 36  1  0  0  0  0
 32 50  1  0  0  0  0
 33 47  1  0  0  0  0
 33 48  1  0  0  0  0
 33 32  1  0  0  0  0
 34 33  1  0  0  0  0
 35 34  1  0  0  0  0
 35 41  1  0  0  0  0
 36 35  2  0  0  0  0
 37 38  2  0  0  0  0
 37 36  1  0  0  0  0
 38 39  1  0  0  0  0
 39 40  2  0  0  0  0
 40 41  1  0  0  0  0
 40 43  1  0  0  0  0
 41 42  1  0  0  0  0
 44 39  1  0  0  0  0
 45 38  1  0  0  0  0
 46 37  1  0  0  0  0
 49 32  1  0  0  0  0
 51 30  1  0  0  0  0
 52 30  1  0  0  0  0
M  END
