1,2,3,4
q = 0.0, confidence = 0.966

 52 55  0  0  1  0  0  0  0  0999 V2000
    2.3713   -1.0770   -0.4983 N   0  0  2  0  0  0  0  0  0  0  0  0
   -0.8073   -1.7147    0.0553 N   0  0  0  0  0  0  0  0  0  0  0  0
   -1.2172    0.9655    0.2116 N   0  0  0  0  0  2  0  0  0  0  0  0
    1.6735    1.7086   -0.6475 N   0  0  1  0  0  0  0  0  0  0  0  0
    1.1668   -3.0586   -0.5728 N   0  0  2  0  0  0  0  0  0  0  0  0
   -0.1289    3.1090   -0.2981 N   0  0  1  0  0  0  0  0  0  0  0  0
    1.8179   -2.0954   -1.4297 C   0  0  0  0  0  0  0  0  0  0  0  0
    1.1085   -1.6343   -2.1472 H   0  0  0  0  0  0  0  0  0  0  0  0
    2.6493   -2.5660   -2.0146 H   0  0  0  0  0  0  0  0  0  0  0  0
   -2.0656   -1.2079   -0.4928 C   0  0  1  0  0  0  0  0  0  0  0  0
   -2.0453   -1.3903   -1.5935 H   0  0  0  0  0  0  0  0  0  0  0  0
   -3.3110   -1.9217    0.0849 C   0  0  0  0  0  0  0  0  0  0  0  0
   -3.2268   -3.0090   -0.1196 H   0  0  0  0  0  0  0  0  0  0  0  0
   -3.2869   -1.8006    1.1920 H   0  0  0  0  0  0  0  0  0  0  0  0
   -4.6265   -1.3637   -0.4629 C   0  0  0  0  0  0  0  0  0  0  0  0
   -4.6956   -1.5778   -1.5524 H   0  0  0  0  0  0  0  0  0  0  0  0
   -5.4833   -1.8838    0.0107 H   0  0  0  0  0  0  0  0  0  0  0  0
   -4.7184    0.1448   -0.2305 C   0  0  0  0  0  0  0  0  0  0  0  0
   -4.7575    0.3573    0.8597 H   0  0  0  0  0  0  0  0  0  0  0  0
   -5.6495    0.5583   -0.6669 H   0  0  0  0  0  0  0  0  0  0  0  0
   -3.5038    0.8714   -0.8435 C   0  0  0  0  0  0  0  0  0  0  0  0
   -3.5798    1.9626   -0.6861 H   0  0  0  0  0  0  0  0  0  0  0  0
   -3.5181    0.7069   -1.9456 H   0  0  0  0  0  0  0  0  0  0  0  0
   -2.1982    0.3144   -0.3275 C   0  0  2  0  0  3  0  0  0  0  0  0
   -1.2102    2.4357    0.3897 C   0  0  0  0  0  0  0  0  0  0  0  0
   -2.1635    2.8963    0.0587 H   0  0  0  0  0  0  0  0  0  0  0  0
   -1.1089    2.6234    1.4776 H   0  0  0  0  0  0  0  0  0  0  0  0
    1.2166    2.8674    0.1632 C   0  0  0  0  0  0  0  0  0  0  0  0
    1.2598    2.6460    1.2469 H   0  0  0  0  0  0  0  0  0  0  0  0
    1.8584    3.7619   -0.0405 H   0  0  0  0  0  0  0  0  0  0  0  0
   -0.0629    2.9131   -1.7553 C   0  0  0  0  0  0  0  0  0  0  0  0
    0.0373    3.8877   -2.2766 H   0  0  0  0  0  0  0  0  0  0  0  0
   -0.9902    2.4339   -2.1253 H   0  0  0  0  0  0  0  0  0  0  0  0
    1.2000    2.0344   -2.0076 C   0  0  0  0  0  0  0  0  0  0  0  0
    0.9799    1.1144   -2.5857 H   0  0  0  0  0  0  0  0  0  0  0  0
    1.9735    2.6099   -2.5702 H   0  0  0  0  0  0  0  0  0  0  0  0
    3.0735    1.3112   -0.5265 C   0  0  0  0  0  0  0  0  0  0  0  0
    3.3329    1.3122    0.5527 H   0  0  0  0  0  0  0  0  0  0  0  0
    3.7639    2.0276   -1.0357 H   0  0  0  0  0  0  0  0  0  0  0  0
    3.2826   -0.0941   -1.1080 C   0  0  0  0  0  0  0  0  0  0  0  0
    3.0867   -0.0683   -2.2002 H   0  0  0  0  0  0  0  0  0  0  0  0
    4.3468   -0.3966   -0.9886 H   0  0  0  0  0  0  0  0  0  0  0  0
   -0.2711   -2.9896   -0.5029 C   0  0  0  0  0  0  0  0  0  0  0  0
   -0.6269   -3.8640    0.0833 H   0  0  0  0  0  0  0  0  0  0  0  0
   -0.6820   -3.1005   -1.5275 H   0  0  0  0  0  0  0  0  0  0  0  0
    2.9397   -1.9172    0.5728 C   0  0  0  0  0  0  0  0  0  0  0  0
    3.0687   -1.3378    1.5073 H   0  0  0  0  0  0  0  0  0  0  0  0
    3.9333   -2.3201    0.2639 H   0  0  0  0  0  0  0  0  0  0  0  0
    1.9016   -3.0529    0.7102 C   0  0  0  0  0  0  0  0  0  0  0  0
    2.3995   -4.0255    0.9084 H   0  0  0  0  0  0  0  0  0  0  0  0
    1.2152   -2.8515    1.5594 H   0  0  0  0  0  0  0  0  0  0  0  0
   -0.9150   -1.8060    1.0741 H   0  0  0  0  0  0  0  0  0  0  0  0
  1  7  1  6  0  0  0
  1 46  1  0  0  0  0
  2 52  1  0  0  0  0
  3 25  1  0  0  0  0
  4 34  1  6  0  0  0
  4 37  1  0  0  0  0
  4 28  1  0  0  0  0
  5  7  1  6  0  0  0
  5 43  1  0  0  0  0
  5 49  1  0  0  0  0
  6 31  1  6  0  0  0
  6 28  1  0  0  0  0
  6 25  1  0  0  0  0
  8  7  1  0  0  0  0
  9  7  1  0  0  0  0
 10 11  1  6  0  0  0
 10 24  1  0  0  0  0
 10  2  1  0  0  0  0
 10 12  1  0  0  0  0
 12 14  1  0  0  0  0
 13 12  1  0  0  0  0
 15 18  1  0  0  0  0
 15 17  1  0  0  0  0
 15 12  1  0  0  0  0
 16 15  1  0  0  0  0
 18 19  1  0  0  0  0
 20 18  1  0  0  0  0
 21 22  1  0  0  0  0
 21 24  1  0  0  0  0
 21 18  1  0  0  0  0
 23 21  1  0  0  0  0
 24  3  1  6  0  0  0
 25 27  1  0  0  0  0
 26 25  1  0  0  0  0
 28 29  1  0  0  0  0
 30 28  1  0  0  0  0
 32 31  1  0  0  0  0
 33 31  1  0  0  0  0
 34 31  1  0  0  0  0
 35 34  1  0  0  0  0
 36 34  1  0  0  0  0
 37 38  1  0  0  0  0
 39 37  1  0  0  0  0
 40 42  1  0  0  0  0
 40 37  1  0  0  0  0
 40  1  1  0  0  0  0
 41 40  1  0  0  0  0
 43  2  1  0  0  0  0
 43 44  1  0  0  0  0
 45 43  1  0  0  0  0
 46 49  1  0  0  0  0
 46 47  1  0  0  0  0
 48 46  1  0  0  0  0
 49 50  1  0  0  0  0
 49 51  1  0  0  0  0
M  END
