1,2,3,4
q = -2.0, confidence = 0.832

 74 78  0  0  1  0  0  0  0  0999 V2000
    1.3306    1.4404   -0.0491 N   0  0  0  0  0  2  0  0  0  0  0  0
   -1.3300    1.4410   -0.0493 N   0  0  0  0  0  0  0  0  0  0  0  0
   -1.3328   -1.2127   -0.4181 N   0  0  0  0  0  2  0  0  0  0  0  0
    1.3322   -1.2133   -0.4179 N   0  0  0  0  0  0  0  0  0  0  0  0
    2.6163    1.2506    0.3197 C   0  0  2  0  0  3  0  0  0  0  0  0
    3.4037    2.3814   -0.0560 C   0  0  0  0  0  0  0  0  0  0  0  0
    2.5399    3.2852   -0.6728 C   0  0  0  0  0  0  0  0  0  0  0  0
    1.2321    2.6995   -0.6480 C   0  0  0  0  0  0  0  0  0  0  0  0
    0.0008    3.3002   -0.9867 C   0  0  0  0  0  0  0  0  0  0  0  0
   -1.2308    2.7001   -0.6483 C   0  0  0  0  0  0  0  0  0  0  0  0
   -2.5384    3.2864   -0.6733 C   0  0  0  0  0  0  0  0  0  0  0  0
   -3.4027    2.3830   -0.0567 C   0  0  0  0  0  0  0  0  0  0  0  0
   -2.6158    1.2518    0.3192 C   0  0  0  0  0  3  0  0  0  0  0  0
   -3.0248   -0.0507    0.9813 C   0  0  0  0  0  0  0  0  0  0  0  0
   -2.6138   -1.1364    0.0043 C   0  0  1  0  0  3  0  0  0  0  0  0
   -3.3932   -2.1682   -0.6004 C   0  0  0  0  0  0  0  0  0  0  0  0
   -2.5317   -2.8879   -1.4274 C   0  0  0  0  0  0  0  0  0  0  0  0
   -1.2311   -2.3006   -1.2894 C   0  0  0  0  0  0  0  0  0  0  0  0
   -0.0005   -2.8080   -1.7555 C   0  0  0  0  0  0  0  0  0  0  0  0
    1.2303   -2.3010   -1.2894 C   0  0  0  0  0  0  0  0  0  0  0  0
    2.5307   -2.8887   -1.4274 C   0  0  0  0  0  0  0  0  0  0  0  0
    3.3924   -2.1695   -0.6003 C   0  0  0  0  0  0  0  0  0  0  0  0
    2.6133   -1.1375    0.0046 C   0  0  0  0  0  3  0  0  0  0  0  0
    3.0246   -0.0521    0.9818 C   0  0  0  0  0  0  0  0  0  0  0  0
    0.0012    4.6205   -1.7214 C   0  0  0  0  0  0  0  0  0  0  0  0
    0.0021    4.4240   -3.2473 C   0  0  0  0  0  0  0  0  0  0  0  0
   -2.1950   -0.2232    2.2982 C   0  0  0  0  0  0  0  0  0  0  0  0
   -2.4124   -1.5468    3.0246 C   0  0  0  0  0  0  0  0  0  0  0  0
   -4.5458   -0.1104    1.2537 C   0  0  0  0  0  0  0  0  0  0  0  0
   -5.0561    0.7835    2.3869 C   0  0  0  0  0  0  0  0  0  0  0  0
   -0.0007   -4.0353   -2.6404 C   0  0  0  0  0  0  0  0  0  0  0  0
   -0.0009   -5.3532   -1.8465 C   0  0  0  0  0  0  0  0  0  0  0  0
    4.5455   -0.1125    1.2545 C   0  0  0  0  0  0  0  0  0  0  0  0
    5.0563    0.7818    2.3871 C   0  0  0  0  0  0  0  0  0  0  0  0
    2.1944   -0.2244    2.2985 C   0  0  0  0  0  0  0  0  0  0  0  0
    2.4105   -1.5484    3.0246 C   0  0  0  0  0  0  0  0  0  0  0  0
    4.4768    2.5098    0.1178 H   0  0  0  0  0  0  0  0  0  0  0  0
    2.7963    4.2750   -1.0663 H   0  0  0  0  0  0  0  0  0  0  0  0
   -2.7943    4.2762   -1.0669 H   0  0  0  0  0  0  0  0  0  0  0  0
   -4.4757    2.5118    0.1169 H   0  0  0  0  0  0  0  0  0  0  0  0
   -4.4598   -2.3520   -0.4361 H   0  0  0  0  0  0  0  0  0  0  0  0
   -2.7816   -3.7622   -2.0387 H   0  0  0  0  0  0  0  0  0  0  0  0
    2.7803   -3.7631   -2.0389 H   0  0  0  0  0  0  0  0  0  0  0  0
    4.4589   -2.3536   -0.4359 H   0  0  0  0  0  0  0  0  0  0  0  0
    0.8863    5.2156   -1.4235 H   0  0  0  0  0  0  0  0  0  0  0  0
   -0.8841    5.2157   -1.4245 H   0  0  0  0  0  0  0  0  0  0  0  0
    0.8970    3.8571   -3.5725 H   0  0  0  0  0  0  0  0  0  0  0  0
    0.0023    5.4017   -3.7703 H   0  0  0  0  0  0  0  0  0  0  0  0
   -0.8925    3.8571   -3.5735 H   0  0  0  0  0  0  0  0  0  0  0  0
   -1.1263   -0.1285    2.0091 H   0  0  0  0  0  0  0  0  0  0  0  0
   -2.4076    0.6390    2.9633 H   0  0  0  0  0  0  0  0  0  0  0  0
   -3.4500   -1.6595    3.4003 H   0  0  0  0  0  0  0  0  0  0  0  0
   -1.7353   -1.6265    3.8989 H   0  0  0  0  0  0  0  0  0  0  0  0
   -2.2027   -2.4076    2.3572 H   0  0  0  0  0  0  0  0  0  0  0  0
   -5.0757    0.1277    0.3076 H   0  0  0  0  0  0  0  0  0  0  0  0
   -4.8121   -1.1618    1.4867 H   0  0  0  0  0  0  0  0  0  0  0  0
   -4.6967    0.4391    3.3771 H   0  0  0  0  0  0  0  0  0  0  0  0
   -6.1640    0.7732    2.4201 H   0  0  0  0  0  0  0  0  0  0  0  0
   -4.7335    1.8369    2.2711 H   0  0  0  0  0  0  0  0  0  0  0  0
    0.8848   -4.0024   -3.3058 H   0  0  0  0  0  0  0  0  0  0  0  0
   -0.8863   -4.0022   -3.3058 H   0  0  0  0  0  0  0  0  0  0  0  0
    0.8930   -5.4244   -1.1957 H   0  0  0  0  0  0  0  0  0  0  0  0
   -0.0011   -6.2252   -2.5310 H   0  0  0  0  0  0  0  0  0  0  0  0
   -0.8948   -5.4242   -1.1957 H   0  0  0  0  0  0  0  0  0  0  0  0
    5.0757    0.1247    0.3083 H   0  0  0  0  0  0  0  0  0  0  0  0
    4.8112   -1.1640    1.4882 H   0  0  0  0  0  0  0  0  0  0  0  0
    4.7344    1.8354    2.2705 H   0  0  0  0  0  0  0  0  0  0  0  0
    6.1642    0.7707    2.4204 H   0  0  0  0  0  0  0  0  0  0  0  0
    4.6966    0.4384    3.3775 H   0  0  0  0  0  0  0  0  0  0  0  0
    2.4075    0.6375    2.9638 H   0  0  0  0  0  0  0  0  0  0  0  0
    1.1258   -0.1288    2.0092 H   0  0  0  0  0  0  0  0  0  0  0  0
    2.1999   -2.4088    2.3570 H   0  0  0  0  0  0  0  0  0  0  0  0
    1.7334   -1.6276    3.8990 H   0  0  0  0  0  0  0  0  0  0  0  0
    3.4481   -1.6622    3.4001 H   0  0  0  0  0  0  0  0  0  0  0  0
  1  5  1  0  0  0  0
  2 13  1  0  0  0  0
  3 15  1  0  0  0  0
  4 23  1  0  0  0  0
  5  6  1  6  0  0  0
  5 24  1  0  0  0  0
  6 37  1  0  0  0  0
  7  8  1  0  0  0  0
  7  6  2  0  0  0  0
  8  1  1  0  0  0  0
  9 10  1  0  0  0  0
  9  8  2  0  0  0  0
 10  2  2  0  0  0  0
 11 10  1  0  0  0  0
 11 12  2  0  0  0  0
 12 40  1  0  0  0  0
 12 13  1  0  0  0  0
 13 14  1  0  0  0  0
 14 29  1  0  0  0  0
 14 27  1  0  0  0  0
 15 16  1  6  0  0  0
 15 14  1  0  0  0  0
 16 41  1  0  0  0  0
 17 18  1  0  0  0  0
 17 16  2  0  0  0  0
 18  3  1  0  0  0  0
 19 18  2  0  0  0  0
 19 20  1  0  0  0  0
 20  4  2  0  0  0  0
 21 20  1  0  0  0  0
 21 22  2  0  0  0  0
 22 44  1  0  0  0  0
 22 23  1  0  0  0  0
 23 24  1  0  0  0  0
 24 33  1  0  0  0  0
 24 35  1  0  0  0  0
 25 46  1  0  0  0  0
 25 45  1  0  0  0  0
 25  9  1  0  0  0  0
 26 25  1  0  0  0  0
 27 51  1  0  0  0  0
 27 28  1  0  0  0  0
 28 52  1  0  0  0  0
 28 53  1  0  0  0  0
 29 56  1  0  0  0  0
 29 30  1  0  0  0  0
 30 58  1  0  0  0  0
 30 57  1  0  0  0  0
 31 32  1  0  0  0  0
 31 19  1  0  0  0  0
 32 62  1  0  0  0  0
 32 64  1  0  0  0  0
 33 66  1  0  0  0  0
 33 34  1  0  0  0  0
 34 68  1  0  0  0  0
 34 69  1  0  0  0  0
 35 70  1  0  0  0  0
 35 36  1  0  0  0  0
 36 74  1  0  0  0  0
 36 73  1  0  0  0  0
 38  7  1  0  0  0  0
 39 11  1  0  0  0  0
 42 17  1  0  0  0  0
 43 21  1  0  0  0  0
 47 26  1  0  0  0  0
 48 26  1  0  0  0  0
 49 26  1  0  0  0  0
 50 27  1  0  0  0  0
 54 28  1  0  0  0  0
 55 29  1  0  0  0  0
 59 30  1  0  0  0  0
 60 31  1  0  0  0  0
 61 31  1  0  0  0  0
 63 32  1  0  0  0  0
 65 33  1  0  0  0  0
 67 34  1  0  0  0  0
 71 35  1  0  0  0  0
 72 36  1  0  0  0  0
M  END
