53,54,56,58
q = 0.0, confidence = 0.988

 58 60  0  0  1  0  0  0  0  0999 V2000
    0.6911    3.0945    0.9598 C   0  0  0  0  0  3  0  0  0  0  0  0
    0.6938    2.6263    1.9562 H   0  0  0  0  0  0  0  0  0  0  0  0
    1.0922    4.4318    0.7919 C   0  0  0  0  0  0  0  0  0  0  0  0
    1.4037    5.0272    1.6620 H   0  0  0  0  0  0  0  0  0  0  0  0
    1.0839    4.9760   -0.4989 C   0  0  0  0  0  0  0  0  0  0  0  0
    1.3904    6.0181   -0.6730 H   0  0  0  0  0  0  0  0  0  0  0  0
    0.6792    4.1640   -1.5676 C   0  0  0  0  0  0  0  0  0  0  0  0
    0.6610    4.5476   -2.5986 H   0  0  0  0  0  0  0  0  0  0  0  0
    0.2949    2.8350   -1.3062 C   0  0  0  0  0  0  0  0  0  0  0  0
   -0.1309    1.9509   -2.4080 C   0  0  0  0  0  3  0  0  0  0  0  0
   -0.2018    2.4092   -3.4201 H   0  0  0  0  0  0  0  0  0  0  0  0
   -0.9019   -0.1097   -3.2942 C   0  0  0  0  0  0  0  0  0  0  0  0
   -0.3911   -1.0924   -3.2362 H   0  0  0  0  0  0  0  0  0  0  0  0
   -0.6785    0.3614   -4.2787 H   0  0  0  0  0  0  0  0  0  0  0  0
   -2.4203   -0.3367   -3.1790 C   0  0  0  0  0  0  0  0  0  0  0  0
   -2.9398    0.6457   -3.1896 H   0  0  0  0  0  0  0  0  0  0  0  0
   -2.7408   -0.8516   -4.1080 H   0  0  0  0  0  0  0  0  0  0  0  0
   -2.8818   -1.2075   -2.0136 C   0  0  0  0  0  0  0  0  0  0  0  0
   -3.9767   -1.4059   -2.1370 H   0  0  0  0  0  0  0  0  0  0  0  0
   -2.3603   -2.1839   -2.0703 H   0  0  0  0  0  0  0  0  0  0  0  0
   -3.0448   -1.6703    0.3408 C   0  0  0  0  0  0  0  0  0  0  0  0
   -2.5475   -2.6325    0.1164 H   0  0  0  0  0  0  0  0  0  0  0  0
   -4.1458   -1.8483    0.2653 H   0  0  0  0  0  0  0  0  0  0  0  0
   -2.6756   -1.1888    1.7611 C   0  0  0  0  0  0  0  0  0  0  0  0
   -3.5866   -1.1105    2.4015 H   0  0  0  0  0  0  0  0  0  0  0  0
   -1.9879   -1.9167    2.2267 H   0  0  0  0  0  0  0  0  0  0  0  0
   -3.2920    0.5911   -0.3787 C   0  0  0  0  0  0  0  0  0  0  0  0
   -4.4014    0.4846   -0.4687 H   0  0  0  0  0  0  0  0  0  0  0  0
   -2.9771    1.3369   -1.1329 H   0  0  0  0  0  0  0  0  0  0  0  0
   -2.9124    1.0844    1.0436 C   0  0  0  0  0  0  0  0  0  0  0  0
   -2.3975    2.0645    0.9951 H   0  0  0  0  0  0  0  0  0  0  0  0
   -3.8310    1.2278    1.6616 H   0  0  0  0  0  0  0  0  0  0  0  0
   -1.6687    0.6045    3.0612 C   0  0  0  0  0  0  0  0  0  0  0  0
   -1.3672    1.6701    2.9723 H   0  0  0  0  0  0  0  0  0  0  0  0
   -2.5996    0.6015    3.6805 H   0  0  0  0  0  0  0  0  0  0  0  0
   -0.5747   -0.1820    3.7931 C   0  0  0  0  0  0  0  0  0  0  0  0
   -0.6573   -1.2682    3.5861 H   0  0  0  0  0  0  0  0  0  0  0  0
   -0.7512   -0.0687    4.8820 H   0  0  0  0  0  0  0  0  0  0  0  0
    0.8625    0.2769    3.5306 C   0  0  0  0  0  0  0  0  0  0  0  0
    0.9176    1.3754    3.7171 H   0  0  0  0  0  0  0  0  0  0  0  0
    1.5511   -0.1993    4.2672 H   0  0  0  0  0  0  0  0  0  0  0  0
    2.4626   -0.4784    1.9817 C   0  0  0  0  0  0  0  0  0  0  0  0
    3.1225   -0.7441    2.8389 H   0  0  0  0  0  0  0  0  0  0  0  0
    3.0059   -0.7673    0.6416 C   0  0  1  0  0  3  0  0  0  0  0  0
    4.3030   -1.2979    0.5097 C   0  0  0  0  0  0  0  0  0  0  0  0
    4.9097   -1.4924    1.4065 H   0  0  0  0  0  0  0  0  0  0  0  0
    4.7953   -1.5765   -0.7728 C   0  0  0  0  0  0  0  0  0  0  0  0
    5.8034   -1.9963   -0.9053 H   0  0  0  0  0  0  0  0  0  0  0  0
    3.9750   -1.3195   -1.8784 C   0  0  0  0  0  0  0  0  0  0  0  0
    4.3127   -1.5309   -2.9029 H   0  0  0  0  0  0  0  0  0  0  0  0
    2.6899   -0.7961   -1.6551 C   0  0  0  0  0  0  0  0  0  0  0  0
    2.0049   -0.6042   -2.4953 H   0  0  0  0  0  0  0  0  0  0  0  0
    0.2960    2.3177   -0.0558 N   0  0  0  0  0  2  0  0  0  0  0  0
   -0.4090    0.7149   -2.2059 N   0  0  0  0  0  2  0  0  0  0  0  0
   -2.6264   -0.6830   -0.6629 N   0  0  0  0  0  0  0  0  0  0  0  0
   -2.0068    0.1274    1.7068 N   0  0  0  0  0  0  0  0  0  0  0  0
    1.3034    0.0395    2.1676 N   0  0  0  0  0  0  0  0  0  0  0  0
    2.2215   -0.5212   -0.4320 N   0  0  0  0  0  2  0  0  0  0  0  0
  1  2  1  0  0  0  0
  3  1  1  0  0  0  0
  3  4  1  0  0  0  0
  5  3  2  0  0  0  0
  6  5  1  0  0  0  0
  7  9  2  0  0  0  0
  7  5  1  0  0  0  0
  8  7  1  0  0  0  0
  9 53  1  0  0  0  0
 10 54  1  0  0  0  0
 10  9  1  0  0  0  0
 11 10  1  0  0  0  0
 12 13  1  0  0  0  0
 12 15  1  0  0  0  0
 12 54  1  0  0  0  0
 14 12  1  0  0  0  0
 15 18  1  0  0  0  0
 16 15  1  0  0  0  0
 17 15  1  0  0  0  0
 18 55  1  0  0  0  0
 19 18  1  0  0  0  0
 20 18  1  0  0  0  0
 21 24  1  0  0  0  0
 22 21  1  0  0  0  0
 23 21  1  0  0  0  0
 24 26  1  0  0  0  0
 24 25  1  0  0  0  0
 27 30  1  0  0  0  0
 28 27  1  0  0  0  0
 29 27  1  0  0  0  0
 30 32  1  0  0  0  0
 30 56  1  0  0  0  0
 31 30  1  0  0  0  0
 33 35  1  0  0  0  0
 33 36  1  0  0  0  0
 34 33  1  0  0  0  0
 36 38  1  0  0  0  0
 37 36  1  0  0  0  0
 39 40  1  0  0  0  0
 39 36  1  0  0  0  0
 39 41  1  0  0  0  0
 42 57  2  0  0  0  0
 42 43  1  0  0  0  0
 44 42  1  1  0  0  0
 45 44  1  0  0  0  0
 45 46  1  0  0  0  0
 47 45  2  0  0  0  0
 48 47  1  0  0  0  0
 49 51  2  0  0  0  0
 49 47  1  0  0  0  0
 50 49  1  0  0  0  0
 51 58  1  0  0  0  0
 52 51  1  0  0  0  0
 53  1  1  0  0  0  0
 55 27  1  0  0  0  0
 55 21  1  0  0  0  0
 56 24  1  0  0  0  0
 56 33  1  0  0  0  0
 57 39  1  0  0  0  0
 58 44  1  0  0  0  0
M  END
