4,5,6,7
q = -2.0, confidence = 0.864

 84 87  0  0  0  0  0  0  0  0999 V2000
    0.4347   -3.0715   -1.1505 O   0  0  0  0  0  0  0  0  0  0  0  0
    4.9118    0.8591   -0.4681 O   0  0  0  0  0  0  0  0  0  0  0  0
    1.2414   -2.3287    1.4887 O   0  0  0  0  0  0  0  0  0  0  0  0
   -1.2246   -1.7071   -0.1790 N   0  0  0  0  0  2  0  0  0  0  0  0
   -2.0379    1.0088   -0.0842 N   0  0  0  0  0  0  0  0  0  0  0  0
    0.6769    1.7350   -0.2989 N   0  0  0  0  0  2  0  0  0  0  0  0
    1.6546   -0.5390    0.1206 N   0  0  0  0  0  2  0  0  0  0  0  0
   -0.6554   -2.9425   -0.6088 C   0  0  0  0  0  0  0  0  0  0  0  0
   -1.6856   -4.0124   -0.3930 C   0  0  0  0  0  0  0  0  0  0  0  0
   -2.8320   -3.3910    0.0096 C   0  0  0  0  0  0  0  0  0  0  0  0
   -2.5323   -1.9312    0.0956 C   0  0  0  0  0  0  0  0  0  0  0  0
   -3.4882   -0.9327    0.3203 C   0  0  0  0  0  0  0  0  0  0  0  0
   -4.5186   -1.2508    0.5274 H   0  0  0  0  0  0  0  0  0  0  0  0
   -3.2586    0.4525    0.1799 C   0  0  0  0  0  3  0  0  0  0  0  0
   -4.2705    1.5080    0.2320 C   0  0  0  0  0  0  0  0  0  0  0  0
   -3.6132    2.6995   -0.0250 C   0  0  0  0  0  0  0  0  0  0  0  0
   -2.1969    2.3756   -0.2125 C   0  0  0  0  0  0  0  0  0  0  0  0
   -1.1700    3.2928   -0.4684 C   0  0  0  0  0  0  0  0  0  0  0  0
   -1.4632    4.3418   -0.6171 H   0  0  0  0  0  0  0  0  0  0  0  0
    0.2078    2.9860   -0.5434 C   0  0  0  0  0  0  0  0  0  0  0  0
    1.3426    3.8336   -0.8739 C   0  0  0  0  0  0  0  0  0  0  0  0
    2.4935    3.0383   -0.8344 C   0  0  0  0  0  0  0  0  0  0  0  0
    2.0489    1.6985   -0.4629 C   0  0  0  0  0  0  0  0  0  0  0  0
    2.5835    0.3992   -0.1934 C   0  0  0  0  0  0  0  0  0  0  0  0
    4.0319    0.0292   -0.2045 C   0  0  0  0  0  0  0  0  0  0  0  0
    4.3809   -1.3881    0.0708 C   0  0  0  0  0  0  0  0  0  0  0  0
    3.4054   -2.2507    0.5005 C   0  0  0  0  0  0  0  0  0  0  0  0
    2.0242   -1.7394    0.7440 C   0  0  0  0  0  0  0  0  0  0  0  0
   -1.4100   -5.4442   -0.7165 C   0  0  0  0  0  0  0  0  0  0  0  0
   -0.4301   -5.7212   -0.2713 H   0  0  0  0  0  0  0  0  0  0  0  0
   -2.1762   -6.0899   -0.2385 H   0  0  0  0  0  0  0  0  0  0  0  0
   -1.3587   -5.7136   -2.2311 C   0  0  0  0  0  0  0  0  0  0  0  0
   -2.3284   -5.4734   -2.7130 H   0  0  0  0  0  0  0  0  0  0  0  0
   -1.1262   -6.7777   -2.4372 H   0  0  0  0  0  0  0  0  0  0  0  0
   -0.5762   -5.0895   -2.7050 H   0  0  0  0  0  0  0  0  0  0  0  0
   -4.1866   -3.9873    0.2447 C   0  0  0  0  0  0  0  0  0  0  0  0
   -4.6724   -3.4838    1.1081 H   0  0  0  0  0  0  0  0  0  0  0  0
   -4.0642   -5.0501    0.5399 H   0  0  0  0  0  0  0  0  0  0  0  0
   -5.1062   -3.9029   -0.9869 C   0  0  0  0  0  0  0  0  0  0  0  0
   -5.2596   -2.8522   -1.3058 H   0  0  0  0  0  0  0  0  0  0  0  0
   -6.0999   -4.3457   -0.7735 H   0  0  0  0  0  0  0  0  0  0  0  0
   -4.6638   -4.4464   -1.8457 H   0  0  0  0  0  0  0  0  0  0  0  0
   -5.7183    1.2929    0.5596 C   0  0  0  0  0  0  0  0  0  0  0  0
   -6.0914    0.3930    0.0240 H   0  0  0  0  0  0  0  0  0  0  0  0
   -6.3116    2.1445    0.1659 H   0  0  0  0  0  0  0  0  0  0  0  0
   -5.9857    1.1370    2.0668 C   0  0  0  0  0  0  0  0  0  0  0  0
   -5.4209    0.2811    2.4888 H   0  0  0  0  0  0  0  0  0  0  0  0
   -7.0631    0.9696    2.2682 H   0  0  0  0  0  0  0  0  0  0  0  0
   -5.6693    2.0436    2.6209 H   0  0  0  0  0  0  0  0  0  0  0  0
   -4.1835    4.0862   -0.0391 C   0  0  0  0  0  0  0  0  0  0  0  0
   -5.2670    4.0316   -0.2745 H   0  0  0  0  0  0  0  0  0  0  0  0
   -3.7239    4.6707   -0.8649 H   0  0  0  0  0  0  0  0  0  0  0  0
   -3.9869    4.8373    1.2898 C   0  0  0  0  0  0  0  0  0  0  0  0
   -4.4749    4.2973    2.1259 H   0  0  0  0  0  0  0  0  0  0  0  0
   -4.4187    5.8572    1.2403 H   0  0  0  0  0  0  0  0  0  0  0  0
   -2.9112    4.9309    1.5418 H   0  0  0  0  0  0  0  0  0  0  0  0
    1.2429    5.3068   -1.1414 C   0  0  0  0  0  0  0  0  0  0  0  0
    0.3595    5.5059   -1.7867 H   0  0  0  0  0  0  0  0  0  0  0  0
    2.1251    5.6354   -1.7284 H   0  0  0  0  0  0  0  0  0  0  0  0
    1.1379    6.1542    0.1389 C   0  0  0  0  0  0  0  0  0  0  0  0
    0.2519    5.8662    0.7411 H   0  0  0  0  0  0  0  0  0  0  0  0
    1.0528    7.2339   -0.0997 H   0  0  0  0  0  0  0  0  0  0  0  0
    2.0303    6.0130    0.7809 H   0  0  0  0  0  0  0  0  0  0  0  0
    3.8883    3.5305   -1.0892 C   0  0  0  0  0  0  0  0  0  0  0  0
    3.8301    4.4179   -1.7542 H   0  0  0  0  0  0  0  0  0  0  0  0
    4.4665    2.7533   -1.6222 H   0  0  0  0  0  0  0  0  0  0  0  0
    4.6422    3.9070    0.1959 C   0  0  0  0  0  0  0  0  0  0  0  0
    4.1026    4.6908    0.7659 H   0  0  0  0  0  0  0  0  0  0  0  0
    5.6569    4.2872   -0.0392 H   0  0  0  0  0  0  0  0  0  0  0  0
    4.7586    3.0212    0.8499 H   0  0  0  0  0  0  0  0  0  0  0  0
    5.8370   -1.7390   -0.0918 C   0  0  0  0  0  0  0  0  0  0  0  0
    6.2157   -1.2148   -0.9931 H   0  0  0  0  0  0  0  0  0  0  0  0
    5.9457   -2.8274   -0.2675 H   0  0  0  0  0  0  0  0  0  0  0  0
    6.6931   -1.3136    1.1135 C   0  0  0  0  0  0  0  0  0  0  0  0
    6.6293   -0.2188    1.2657 H   0  0  0  0  0  0  0  0  0  0  0  0
    7.7579   -1.5750    0.9501 H   0  0  0  0  0  0  0  0  0  0  0  0
    6.3573   -1.8131    2.0445 H   0  0  0  0  0  0  0  0  0  0  0  0
    3.6192   -3.6955    0.8634 C   0  0  0  0  0  0  0  0  0  0  0  0
    2.7058   -4.2511    0.5679 H   0  0  0  0  0  0  0  0  0  0  0  0
    4.4633   -4.1033    0.2716 H   0  0  0  0  0  0  0  0  0  0  0  0
    3.8772   -3.9169    2.3642 C   0  0  0  0  0  0  0  0  0  0  0  0
    4.7900   -3.3849    2.7003 H   0  0  0  0  0  0  0  0  0  0  0  0
    4.0111   -4.9958    2.5808 H   0  0  0  0  0  0  0  0  0  0  0  0
    3.0187   -3.5465    2.9559 H   0  0  0  0  0  0  0  0  0  0  0  0
  1  8  2  0  0  0  0
  2 25  2  0  0  0  0
  4 11  1  0  0  0  0
  5 14  1  0  0  0  0
  7 28  1  0  0  0  0
  8  9  1  0  0  0  0
  8  4  1  0  0  0  0
  9 10  2  0  0  0  0
 10 11  1  0  0  0  0
 10 36  1  0  0  0  0
 11 12  2  0  0  0  0
 12 13  1  0  0  0  0
 14 15  1  0  0  0  0
 14 12  1  0  0  0  0
 15 43  1  0  0  0  0
 16 15  2  0  0  0  0
 17  5  2  0  0  0  0
 17 16  1  0  0  0  0
 18 17  1  0  0  0  0
 19 18  1  0  0  0  0
 20 18  2  0  0  0  0
 20  6  1  0  0  0  0
 21 22  2  0  0  0  0
 21 20  1  0  0  0  0
 22 23  1  0  0  0  0
 23  6  1  0  0  0  0
 23 24  2  0  0  0  0
 24  7  1  0  0  0  0
 25 24  1  0  0  0  0
 25 26  1  0  0  0  0
 26 27  2  0  0  0  0
 27 28  1  0  0  0  0
 27 78  1  0  0  0  0
 28  3  2  0  0  0  0
 29  9  1  0  0  0  0
 29 30  1  0  0  0  0
 29 31  1  0  0  0  0
 32 29  1  0  0  0  0
 33 32  1  0  0  0  0
 34 32  1  0  0  0  0
 35 32  1  0  0  0  0
 36 38  1  0  0  0  0
 36 37  1  0  0  0  0
 39 41  1  0  0  0  0
 39 36  1  0  0  0  0
 40 39  1  0  0  0  0
 42 39  1  0  0  0  0
 43 46  1  0  0  0  0
 44 43  1  0  0  0  0
 45 43  1  0  0  0  0
 46 48  1  0  0  0  0
 46 47  1  0  0  0  0
 46 49  1  0  0  0  0
 50 16  1  0  0  0  0
 50 53  1  0  0  0  0
 51 50  1  0  0  0  0
 52 50  1  0  0  0  0
 53 56  1  0  0  0  0
 53 54  1  0  0  0  0
 55 53  1  0  0  0  0
 57 21  1  0  0  0  0
 57 60  1  0  0  0  0
 58 57  1  0  0  0  0
 59 57  1  0  0  0  0
 60 61  1  0  0  0  0
 60 63  1  0  0  0  0
 62 60  1  0  0  0  0
 64 22  1  0  0  0  0
 64 67  1  0  0  0  0
 65 64  1  0  0  0  0
 66 64  1  0  0  0  0
 67 68  1  0  0  0  0
 67 70  1  0  0  0  0
 69 67  1  0  0  0  0
 71 26  1  0  0  0  0
 71 74  1  0  0  0  0
 72 71  1  0  0  0  0
 73 71  1  0  0  0  0
 74 75  1  0  0  0  0
 74 77  1  0  0  0  0
 76 74  1  0  0  0  0
 78 81  1  0  0  0  0
 79 78  1  0  0  0  0
 80 78  1  0  0  0  0
 81 83  1  0  0  0  0
 81 82  1  0  0  0  0
 81 84  1  0  0  0  0
M  END
