1,2,39,40
q = -2.0, confidence = 0.956

 72 75  0  0  1  0  0  0  0  0999 V2000
   -1.6694   -1.3410   -0.5881 N   0  0  0  0  0  2  0  0  0  0  0  0
    1.1638    1.4323    0.0473 N   0  0  0  0  0  2  0  0  0  0  0  0
   -1.6023   -2.7039   -0.2979 C   0  0  0  0  0  0  0  0  0  0  0  0
   -2.8483   -3.3316   -0.6808 C   0  0  0  0  0  0  0  0  0  0  0  0
   -3.1628   -4.7875   -0.5429 C   0  0  0  0  0  0  0  0  0  0  0  0
   -2.9372   -5.1638    0.4761 H   0  0  0  0  0  0  0  0  0  0  0  0
   -2.5732   -5.4062   -1.2534 H   0  0  0  0  0  0  0  0  0  0  0  0
   -4.2324   -4.9907   -0.7443 H   0  0  0  0  0  0  0  0  0  0  0  0
   -3.6225   -2.3270   -1.2666 C   0  0  0  0  0  0  0  0  0  0  0  0
   -4.9777   -2.4296   -1.8933 C   0  0  0  0  0  0  0  0  0  0  0  0
   -5.6886   -1.6918   -1.4636 H   0  0  0  0  0  0  0  0  0  0  0  0
   -5.4176   -3.4361   -1.7555 H   0  0  0  0  0  0  0  0  0  0  0  0
   -4.9432   -2.2322   -2.9870 H   0  0  0  0  0  0  0  0  0  0  0  0
   -2.8467   -1.1102   -1.2053 C   0  0  2  0  0  3  0  0  0  0  0  0
   -3.2564    0.1891   -1.8146 C   0  0  0  0  0  0  0  0  0  0  0  0
   -2.4359    0.9271   -1.7903 H   0  0  0  0  0  0  0  0  0  0  0  0
   -4.1342    0.6328   -1.2985 H   0  0  0  0  0  0  0  0  0  0  0  0
   -3.5583    0.0268   -2.8709 H   0  0  0  0  0  0  0  0  0  0  0  0
    0.8668    2.7730   -0.1562 C   0  0  0  0  0  0  0  0  0  0  0  0
   -0.4189   -3.3378    0.0727 C   0  0  0  0  0  0  0  0  0  0  0  0
   -0.4776   -4.4233    0.2459 H   0  0  0  0  0  0  0  0  0  0  0  0
    2.0860    3.4935   -0.4295 C   0  0  0  0  0  0  0  0  0  0  0  0
    2.1735    4.9639   -0.6976 C   0  0  0  0  0  0  0  0  0  0  0  0
    1.6463    5.2458   -1.6339 H   0  0  0  0  0  0  0  0  0  0  0  0
    3.2255    5.2897   -0.8050 H   0  0  0  0  0  0  0  0  0  0  0  0
    1.7229    5.5642    0.1209 H   0  0  0  0  0  0  0  0  0  0  0  0
    3.1259    2.5604   -0.3833 C   0  0  0  0  0  0  0  0  0  0  0  0
    4.5852    2.8306   -0.6159 C   0  0  0  0  0  0  0  0  0  0  0  0
    5.1806    2.2806    0.1380 H   0  0  0  0  0  0  0  0  0  0  0  0
    4.7747    3.9143   -0.4624 H   0  0  0  0  0  0  0  0  0  0  0  0
    5.0654    2.4209   -2.0170 C   0  0  0  0  0  0  0  0  0  0  0  0
    6.1388    2.6640   -2.1549 H   0  0  0  0  0  0  0  0  0  0  0  0
    4.4895    2.9419   -2.8092 H   0  0  0  0  0  0  0  0  0  0  0  0
    4.9465    1.3295   -2.1612 H   0  0  0  0  0  0  0  0  0  0  0  0
    2.5062    1.2816   -0.1075 C   0  0  1  0  0  3  0  0  0  0  0  0
    3.2322    0.0001   -0.0000 C   0  0  0  0  0  0  0  0  0  0  0  0
    4.4784    0.0001    0.0001 O   0  0  0  0  0  0  0  0  0  0  0  0
    0.8670   -2.7730    0.1561 C   0  0  0  0  0  0  0  0  0  0  0  0
    1.1638   -1.4323   -0.0473 N   0  0  0  0  0  0  0  0  0  0  0  0
   -1.6694    1.3409    0.5880 N   0  0  0  0  0  0  0  0  0  0  0  0
   -1.6025    2.7038    0.2978 C   0  0  0  0  0  0  0  0  0  0  0  0
   -2.8485    3.3315    0.6806 C   0  0  0  0  0  0  0  0  0  0  0  0
   -3.1631    4.7873    0.5427 C   0  0  0  0  0  0  0  0  0  0  0  0
   -2.9375    5.1636   -0.4764 H   0  0  0  0  0  0  0  0  0  0  0  0
   -2.5734    5.4061    1.2531 H   0  0  0  0  0  0  0  0  0  0  0  0
   -4.2326    4.9905    0.7441 H   0  0  0  0  0  0  0  0  0  0  0  0
   -3.6226    2.3269    1.2666 C   0  0  0  0  0  0  0  0  0  0  0  0
   -4.9778    2.4295    1.8934 C   0  0  0  0  0  0  0  0  0  0  0  0
   -5.6887    1.6916    1.4638 H   0  0  0  0  0  0  0  0  0  0  0  0
   -5.4178    3.4360    1.7555 H   0  0  0  0  0  0  0  0  0  0  0  0
   -4.9432    2.2322    2.9870 H   0  0  0  0  0  0  0  0  0  0  0  0
   -2.8467    1.1102    1.2054 C   0  0  0  0  0  3  0  0  0  0  0  0
   -3.2562   -0.1891    1.8150 C   0  0  0  0  0  0  0  0  0  0  0  0
   -2.4357   -0.9271    1.7907 H   0  0  0  0  0  0  0  0  0  0  0  0
   -4.1341   -0.6329    1.2989 H   0  0  0  0  0  0  0  0  0  0  0  0
   -3.5582   -0.0266    2.8713 H   0  0  0  0  0  0  0  0  0  0  0  0
   -0.4191    3.3377   -0.0729 C   0  0  0  0  0  0  0  0  0  0  0  0
    2.5063   -1.2815    0.1075 C   0  0  0  0  0  0  0  0  0  0  0  0
    3.1260   -2.5603    0.3833 C   0  0  0  0  0  0  0  0  0  0  0  0
    2.0862   -3.4934    0.4295 C   0  0  0  0  0  3  0  0  0  0  0  0
    2.1737   -4.9639    0.6975 C   0  0  0  0  0  0  0  0  0  0  0  0
    1.6461   -5.2459    1.6336 H   0  0  0  0  0  0  0  0  0  0  0  0
    3.2258   -5.2896    0.8054 H   0  0  0  0  0  0  0  0  0  0  0  0
    1.7235   -5.5642   -0.1212 H   0  0  0  0  0  0  0  0  0  0  0  0
    4.5854   -2.8304    0.6159 C   0  0  0  0  0  0  0  0  0  0  0  0
    5.1808   -2.2804   -0.1380 H   0  0  0  0  0  0  0  0  0  0  0  0
    4.7749   -3.9141    0.4625 H   0  0  0  0  0  0  0  0  0  0  0  0
    5.0655   -2.4207    2.0170 C   0  0  0  0  0  0  0  0  0  0  0  0
    6.1389   -2.6637    2.1549 H   0  0  0  0  0  0  0  0  0  0  0  0
    4.4897   -2.9416    2.8092 H   0  0  0  0  0  0  0  0  0  0  0  0
    4.9466   -1.3292    2.1612 H   0  0  0  0  0  0  0  0  0  0  0  0
   -0.4778    4.4233   -0.2461 H   0  0  0  0  0  0  0  0  0  0  0  0
  1  3  1  0  0  0  0
  3 20  2  0  0  0  0
  4  5  1  0  0  0  0
  4  3  1  0  0  0  0
  5  6  1  0  0  0  0
  7  5  1  0  0  0  0
  8  5  1  0  0  0  0
  9 14  1  0  0  0  0
  9  4  2  0  0  0  0
 10 12  1  0  0  0  0
 10 11  1  0  0  0  0
 10  9  1  0  0  0  0
 13 10  1  0  0  0  0
 14 15  1  6  0  0  0
 14  1  1  0  0  0  0
 15 16  1  0  0  0  0
 15 17  1  0  0  0  0
 18 15  1  0  0  0  0
 19 57  2  0  0  0  0
 19  2  1  0  0  0  0
 20 38  1  0  0  0  0
 20 21  1  0  0  0  0
 22 27  2  0  0  0  0
 22 19  1  0  0  0  0
 23 22  1  0  0  0  0
 23 26  1  0  0  0  0
 24 23  1  0  0  0  0
 25 23  1  0  0  0  0
 27 35  1  0  0  0  0
 28 30  1  0  0  0  0
 28 27  1  0  0  0  0
 28 29  1  0  0  0  0
 31 28  1  0  0  0  0
 32 31  1  0  0  0  0
 33 31  1  0  0  0  0
 34 31  1  0  0  0  0
 35 36  1  1  0  0  0
 35  2  1  0  0  0  0
 36 37  2  0  0  0  0
 36 58  1  0  0  0  0
 38 60  1  0  0  0  0
 39 58  1  0  0  0  0
 39 38  2  0  0  0  0
 40 52  1  0  0  0  0
 41 40  2  0  0  0  0
 41 42  1  0  0  0  0
 42 47  2  0  0  0  0
 43 42  1  0  0  0  0
 43 46  1  0  0  0  0
 43 45  1  0  0  0  0
 44 43  1  0  0  0  0
 47 48  1  0  0  0  0
 48 51  1  0  0  0  0
 49 48  1  0  0  0  0
 50 48  1  0  0  0  0
 52 47  1  0  0  0  0
 52 53  1  0  0  0  0
 53 56  1  0  0  0  0
 54 53  1  0  0  0  0
 55 53  1  0  0  0  0
 57 41  1  0  0  0  0
 58 59  2  0  0  0  0
 59 60  1  0  0  0  0
 59 65  1  0  0  0  0
 60 61  1  0  0  0  0
 61 63  1  0  0  0  0
 61 62  1  0  0  0  0
 64 61  1  0  0  0  0
 65 68  1  0  0  0  0
 66 65  1  0  0  0  0
 67 65  1  0  0  0  0
 68 69  1  0  0  0  0
 68 71  1  0  0  0  0
 68 70  1  0  0  0  0
 72 57  1  0  0  0  0
M  END
