1,2,3,4
q = -2.0, confidence = 0.648

 60 64  0  0  0  0  0  0  0  0999 V2000
    1.3669    1.3151   -0.4860 N   0  0  0  0  0  2  0  0  0  0  0  0
    1.3669   -1.3151   -0.4861 N   0  0  0  0  0  0  0  0  0  0  0  0
   -1.3669   -1.3151   -0.4861 N   0  0  0  0  0  0  0  0  0  0  0  0
   -1.3669    1.3151   -0.4860 N   0  0  0  0  0  0  0  0  0  0  0  0
    1.2247    2.5814   -1.0207 C   0  0  0  0  0  0  0  0  0  0  0  0
    2.4908    3.2692   -0.9927 C   0  0  0  0  0  0  0  0  0  0  0  0
    3.3763    2.4416   -0.3461 C   0  0  0  0  0  0  0  0  0  0  0  0
    2.6756    1.2040   -0.0468 C   0  0  0  0  0  0  0  0  0  0  0  0
    3.2685   -0.0000    0.4073 C   0  0  0  0  0  0  0  0  0  0  0  0
    2.6756   -1.2040   -0.0467 C   0  0  0  0  0  0  0  0  0  0  0  0
    3.3762   -2.4417   -0.3458 C   0  0  0  0  0  0  0  0  0  0  0  0
    2.4908   -3.2693   -0.9924 C   0  0  0  0  0  0  0  0  0  0  0  0
    1.2247   -2.5814   -1.0207 C   0  0  0  0  0  0  0  0  0  0  0  0
    0.0000   -3.1634   -1.3515 C   0  0  0  0  0  0  0  0  0  0  0  0
   -1.2247   -2.5813   -1.0208 C   0  0  0  0  0  0  0  0  0  0  0  0
   -2.4908   -3.2693   -0.9926 C   0  0  0  0  0  0  0  0  0  0  0  0
   -3.3762   -2.4416   -0.3460 C   0  0  0  0  0  0  0  0  0  0  0  0
   -2.6756   -1.2040   -0.0468 C   0  0  0  0  0  3  0  0  0  0  0  0
   -3.2685   -0.0000    0.4073 C   0  0  0  0  0  0  0  0  0  0  0  0
   -2.6756    1.2040   -0.0466 C   0  0  0  0  0  0  0  0  0  0  0  0
   -3.3762    2.4417   -0.3459 C   0  0  0  0  0  0  0  0  0  0  0  0
   -2.4908    3.2693   -0.9924 C   0  0  0  0  0  0  0  0  0  0  0  0
   -1.2247    2.5814   -1.0206 C   0  0  0  0  0  0  0  0  0  0  0  0
    0.0000    3.1635   -1.3514 C   0  0  0  0  0  0  0  0  0  0  0  0
    4.5497    0.0000    1.2783 C   0  0  0  0  0  0  0  0  0  0  0  0
    5.8264   -0.0001    0.4062 C   0  0  0  0  0  0  0  0  0  0  0  0
    4.5671   -1.2243    2.2295 C   0  0  0  0  0  0  0  0  0  0  0  0
    4.5672    1.2244    2.2294 C   0  0  0  0  0  0  0  0  0  0  0  0
   -4.5497   -0.0000    1.2783 C   0  0  0  0  0  0  0  0  0  0  0  0
   -5.8264    0.0000    0.4061 C   0  0  0  0  0  0  0  0  0  0  0  0
   -4.5672    1.2243    2.2294 C   0  0  0  0  0  0  0  0  0  0  0  0
   -4.5672   -1.2244    2.2294 C   0  0  0  0  0  0  0  0  0  0  0  0
    2.6711    4.2734   -1.3942 H   0  0  0  0  0  0  0  0  0  0  0  0
    4.4380    2.6329   -0.1695 H   0  0  0  0  0  0  0  0  0  0  0  0
    4.4378   -2.6331   -0.1690 H   0  0  0  0  0  0  0  0  0  0  0  0
    2.6710   -4.2736   -1.3938 H   0  0  0  0  0  0  0  0  0  0  0  0
    0.0000   -4.1869   -1.7509 H   0  0  0  0  0  0  0  0  0  0  0  0
   -2.6710   -4.2735   -1.3940 H   0  0  0  0  0  0  0  0  0  0  0  0
   -4.4379   -2.6330   -0.1693 H   0  0  0  0  0  0  0  0  0  0  0  0
   -4.4379    2.6331   -0.1691 H   0  0  0  0  0  0  0  0  0  0  0  0
   -2.6710    4.2736   -1.3938 H   0  0  0  0  0  0  0  0  0  0  0  0
   -0.0000    4.1869   -1.7509 H   0  0  0  0  0  0  0  0  0  0  0  0
    5.8707   -0.8919   -0.2492 H   0  0  0  0  0  0  0  0  0  0  0  0
    6.7323   -0.0002    1.0473 H   0  0  0  0  0  0  0  0  0  0  0  0
    5.8708    0.8917   -0.2493 H   0  0  0  0  0  0  0  0  0  0  0  0
    3.6328   -1.2722    2.8239 H   0  0  0  0  0  0  0  0  0  0  0  0
    5.4157   -1.1220    2.9358 H   0  0  0  0  0  0  0  0  0  0  0  0
    4.6819   -2.1920    1.7140 H   0  0  0  0  0  0  0  0  0  0  0  0
    5.4159    1.1223    2.9355 H   0  0  0  0  0  0  0  0  0  0  0  0
    3.6330    1.2723    2.8239 H   0  0  0  0  0  0  0  0  0  0  0  0
    4.6818    2.1921    1.7137 H   0  0  0  0  0  0  0  0  0  0  0  0
   -5.8707   -0.8917   -0.2493 H   0  0  0  0  0  0  0  0  0  0  0  0
   -5.8707    0.8918   -0.2493 H   0  0  0  0  0  0  0  0  0  0  0  0
   -6.7323    0.0001    1.0472 H   0  0  0  0  0  0  0  0  0  0  0  0
   -3.6329    1.2722    2.8239 H   0  0  0  0  0  0  0  0  0  0  0  0
   -5.4158    1.1221    2.9357 H   0  0  0  0  0  0  0  0  0  0  0  0
   -4.6819    2.1920    1.7139 H   0  0  0  0  0  0  0  0  0  0  0  0
   -3.6330   -1.2723    2.8239 H   0  0  0  0  0  0  0  0  0  0  0  0
   -4.6819   -2.1921    1.7137 H   0  0  0  0  0  0  0  0  0  0  0  0
   -5.4159   -1.1223    2.9355 H   0  0  0  0  0  0  0  0  0  0  0  0
  1  8  1  0  0  0  0
  2 10  2  0  0  0  0
  3 18  1  0  0  0  0
  4 20  1  0  0  0  0
  5  6  1  0  0  0  0
  5  1  1  0  0  0  0
  6  7  2  0  0  0  0
  7 34  1  0  0  0  0
  7  8  1  0  0  0  0
  8  9  2  0  0  0  0
  9 25  1  0  0  0  0
 10  9  1  0  0  0  0
 11 35  1  0  0  0  0
 11 10  1  0  0  0  0
 12 11  2  0  0  0  0
 13 12  1  0  0  0  0
 13  2  1  0  0  0  0
 14 15  1  0  0  0  0
 14 13  2  0  0  0  0
 15 16  1  0  0  0  0
 15  3  2  0  0  0  0
 16 17  2  0  0  0  0
 17 39  1  0  0  0  0
 17 18  1  0  0  0  0
 18 19  1  0  0  0  0
 19 29  1  0  0  0  0
 20 19  2  0  0  0  0
 21 40  1  0  0  0  0
 21 20  1  0  0  0  0
 22 21  2  0  0  0  0
 23 22  1  0  0  0  0
 23  4  2  0  0  0  0
 24  5  2  0  0  0  0
 24 23  1  0  0  0  0
 25 28  1  0  0  0  0
 25 27  1  0  0  0  0
 26 44  1  0  0  0  0
 26 25  1  0  0  0  0
 27 46  1  0  0  0  0
 27 47  1  0  0  0  0
 28 50  1  0  0  0  0
 28 49  1  0  0  0  0
 29 32  1  0  0  0  0
 29 31  1  0  0  0  0
 30 54  1  0  0  0  0
 30 29  1  0  0  0  0
 31 55  1  0  0  0  0
 31 56  1  0  0  0  0
 32 58  1  0  0  0  0
 32 60  1  0  0  0  0
 33  6  1  0  0  0  0
 36 12  1  0  0  0  0
 37 14  1  0  0  0  0
 38 16  1  0  0  0  0
 41 22  1  0  0  0  0
 42 24  1  0  0  0  0
 43 26  1  0  0  0  0
 45 26  1  0  0  0  0
 48 27  1  0  0  0  0
 51 28  1  0  0  0  0
 52 30  1  0  0  0  0
 53 30  1  0  0  0  0
 57 31  1  0  0  0  0
 59 32  1  0  0  0  0
M  END
