1,2,3,4
q = -2.0, confidence = 0.686

 84 88  0  0  0  0  0  0  0  0999 V2000
    1.0835   -1.6043   -0.0740 N   0  0  0  0  0  0  0  0  0  0  0  0
   -1.5263   -1.1030   -0.1946 N   0  0  0  0  0  2  0  0  0  0  0  0
   -1.0007    1.6018   -0.2859 N   0  0  0  0  0  0  0  0  0  0  0  0
    1.6078    1.1029   -0.1562 N   0  0  0  0  0  0  0  0  0  0  0  0
    2.3916   -1.7169   -0.4947 C   0  0  0  0  0  0  0  0  0  0  0  0
    2.8470   -3.0865   -0.3704 C   0  0  0  0  0  0  0  0  0  0  0  0
    4.1781   -3.5898   -0.8482 C   0  0  0  0  0  0  0  0  0  0  0  0
    4.2405   -3.7903   -2.3717 C   0  0  0  0  0  0  0  0  0  0  0  0
    1.8160   -3.7964    0.2227 C   0  0  0  0  0  0  0  0  0  0  0  0
    1.8367   -5.2758    0.4762 C   0  0  0  0  0  0  0  0  0  0  0  0
    0.7051   -2.8531    0.3896 C   0  0  0  0  0  0  0  0  0  0  0  0
   -0.6143   -3.1773    0.7784 C   0  0  0  0  0  0  0  0  0  0  0  0
   -0.8785   -4.3280    1.7278 C   0  0  0  0  0  0  0  0  0  0  0  0
   -1.4657   -3.8289    3.0598 C   0  0  0  0  0  0  0  0  0  0  0  0
   -1.6852   -2.3853    0.3019 C   0  0  0  0  0  0  0  0  0  0  0  0
   -3.0639   -2.8304    0.0812 C   0  0  0  0  0  0  0  0  0  0  0  0
   -3.6880   -4.1565    0.3980 C   0  0  0  0  0  0  0  0  0  0  0  0
   -3.6979   -1.8101   -0.6109 C   0  0  0  0  0  0  0  0  0  0  0  0
   -5.1232   -1.7479   -1.0793 C   0  0  0  0  0  0  0  0  0  0  0  0
   -6.0866   -1.1784   -0.0238 C   0  0  0  0  0  0  0  0  0  0  0  0
   -2.7447   -0.7265   -0.7178 C   0  0  0  0  0  0  0  0  0  0  0  0
   -3.0700    0.5718   -1.1087 C   0  0  0  0  0  0  0  0  0  0  0  0
   -2.2691    1.6758   -0.8200 C   0  0  0  0  0  0  0  0  0  0  0  0
   -2.7316    3.0471   -0.8369 C   0  0  0  0  0  0  0  0  0  0  0  0
   -4.0641    3.4983   -1.3606 C   0  0  0  0  0  0  0  0  0  0  0  0
   -5.1772    3.4683   -0.2993 C   0  0  0  0  0  0  0  0  0  0  0  0
   -1.7583    3.8030   -0.2032 C   0  0  0  0  0  0  0  0  0  0  0  0
   -0.6609    2.8837    0.1136 C   0  0  0  0  0  0  0  0  0  0  0  0
    0.6253    3.2437    0.5756 C   0  0  0  0  0  0  0  0  0  0  0  0
    0.8183    4.4641    1.4528 C   0  0  0  0  0  0  0  0  0  0  0  0
    1.3074    4.0703    2.8576 C   0  0  0  0  0  0  0  0  0  0  0  0
    1.7284    2.4224    0.2453 C   0  0  0  0  0  3  0  0  0  0  0  0
    3.1206    2.8552    0.0985 C   0  0  0  0  0  0  0  0  0  0  0  0
    3.7175    4.2079    0.3482 C   0  0  0  0  0  0  0  0  0  0  0  0
    3.8072    1.7838   -0.4513 C   0  0  0  0  0  0  0  0  0  0  0  0
    5.2647    1.6930   -0.8008 C   0  0  0  0  0  0  0  0  0  0  0  0
    6.1449    1.2350    0.3747 C   0  0  0  0  0  0  0  0  0  0  0  0
    2.8645    0.6896   -0.5430 C   0  0  0  0  0  0  0  0  0  0  0  0
    3.2186   -0.6356   -0.7944 C   0  0  0  0  0  0  0  0  0  0  0  0
   -1.8205    5.2926   -0.0348 C   0  0  0  0  0  0  0  0  0  0  0  0
    4.4206   -4.5440   -0.3368 H   0  0  0  0  0  0  0  0  0  0  0  0
    4.9756   -2.8799   -0.5378 H   0  0  0  0  0  0  0  0  0  0  0  0
    5.2403   -4.1481   -2.6919 H   0  0  0  0  0  0  0  0  0  0  0  0
    3.4865   -4.5323   -2.7038 H   0  0  0  0  0  0  0  0  0  0  0  0
    4.0262   -2.8435   -2.9073 H   0  0  0  0  0  0  0  0  0  0  0  0
    2.6994   -5.7408   -0.0392 H   0  0  0  0  0  0  0  0  0  0  0  0
    1.9301   -5.5318    1.5534 H   0  0  0  0  0  0  0  0  0  0  0  0
    0.9221   -5.7771    0.1015 H   0  0  0  0  0  0  0  0  0  0  0  0
    0.0662   -4.8478    1.9505 H   0  0  0  0  0  0  0  0  0  0  0  0
   -1.5484   -5.0912    1.2847 H   0  0  0  0  0  0  0  0  0  0  0  0
   -1.6485   -4.6748    3.7538 H   0  0  0  0  0  0  0  0  0  0  0  0
   -0.7663   -3.1243    3.5533 H   0  0  0  0  0  0  0  0  0  0  0  0
   -2.4217   -3.2882    2.9126 H   0  0  0  0  0  0  0  0  0  0  0  0
   -4.7254   -4.1921    0.0132 H   0  0  0  0  0  0  0  0  0  0  0  0
   -3.1382   -5.0001   -0.0689 H   0  0  0  0  0  0  0  0  0  0  0  0
   -3.7381   -4.3631    1.4863 H   0  0  0  0  0  0  0  0  0  0  0  0
   -5.4606   -2.7644   -1.3732 H   0  0  0  0  0  0  0  0  0  0  0  0
   -5.1841   -1.1386   -2.0058 H   0  0  0  0  0  0  0  0  0  0  0  0
   -7.1282   -1.1429   -0.4034 H   0  0  0  0  0  0  0  0  0  0  0  0
   -6.0763   -1.7972    0.8962 H   0  0  0  0  0  0  0  0  0  0  0  0
   -5.7926   -0.1501    0.2701 H   0  0  0  0  0  0  0  0  0  0  0  0
   -4.0751    0.7538   -1.5105 H   0  0  0  0  0  0  0  0  0  0  0  0
   -4.3575    2.8680   -2.2265 H   0  0  0  0  0  0  0  0  0  0  0  0
   -3.9716    4.5294   -1.7636 H   0  0  0  0  0  0  0  0  0  0  0  0
   -6.1469    3.8048   -0.7198 H   0  0  0  0  0  0  0  0  0  0  0  0
   -5.3147    2.4445    0.1046 H   0  0  0  0  0  0  0  0  0  0  0  0
   -4.9261    4.1270    0.5565 H   0  0  0  0  0  0  0  0  0  0  0  0
   -0.1406    4.9931    1.5664 H   0  0  0  0  0  0  0  0  0  0  0  0
    1.5179    5.1964    1.0033 H   0  0  0  0  0  0  0  0  0  0  0  0
    1.4378    4.9672    3.4975 H   0  0  0  0  0  0  0  0  0  0  0  0
    0.5748    3.3999    3.3508 H   0  0  0  0  0  0  0  0  0  0  0  0
    2.2723    3.5267    2.8216 H   0  0  0  0  0  0  0  0  0  0  0  0
    4.7796    4.2202    0.0362 H   0  0  0  0  0  0  0  0  0  0  0  0
    3.2001    5.0055   -0.2244 H   0  0  0  0  0  0  0  0  0  0  0  0
    3.6897    4.5037    1.4166 H   0  0  0  0  0  0  0  0  0  0  0  0
    5.6202    2.6810   -1.1627 H   0  0  0  0  0  0  0  0  0  0  0  0
    5.3990    1.0002   -1.6583 H   0  0  0  0  0  0  0  0  0  0  0  0
    7.2124    1.1701    0.0802 H   0  0  0  0  0  0  0  0  0  0  0  0
    6.0655    1.9401    1.2267 H   0  0  0  0  0  0  0  0  0  0  0  0
    5.8276    0.2387    0.7438 H   0  0  0  0  0  0  0  0  0  0  0  0
    4.2560   -0.8452   -1.0864 H   0  0  0  0  0  0  0  0  0  0  0  0
   -2.6399    5.7110   -0.6521 H   0  0  0  0  0  0  0  0  0  0  0  0
   -2.0228    5.6020    1.0131 H   0  0  0  0  0  0  0  0  0  0  0  0
   -0.8825    5.7933   -0.3469 H   0  0  0  0  0  0  0  0  0  0  0  0
  1 11  2  0  0  0  0
  2 15  1  0  0  0  0
  3 28  1  0  0  0  0
  4 32  1  0  0  0  0
  5  6  1  0  0  0  0
  5  1  1  0  0  0  0
  6  9  2  0  0  0  0
  7 42  1  0  0  0  0
  7  6  1  0  0  0  0
  7 41  1  0  0  0  0
  8  7  1  0  0  0  0
  9 11  1  0  0  0  0
  9 10  1  0  0  0  0
 10 47  1  0  0  0  0
 11 12  1  0  0  0  0
 12 13  1  0  0  0  0
 13 49  1  0  0  0  0
 13 14  1  0  0  0  0
 14 52  1  0  0  0  0
 14 51  1  0  0  0  0
 15 12  2  0  0  0  0
 16 15  1  0  0  0  0
 16 17  1  0  0  0  0
 17 56  1  0  0  0  0
 18 16  2  0  0  0  0
 19 18  1  0  0  0  0
 19 20  1  0  0  0  0
 20 61  1  0  0  0  0
 20 60  1  0  0  0  0
 21 18  1  0  0  0  0
 21  2  1  0  0  0  0
 22 23  1  0  0  0  0
 22 21  2  0  0  0  0
 23  3  2  0  0  0  0
 24 23  1  0  0  0  0
 24 27  2  0  0  0  0
 25 24  1  0  0  0  0
 25 26  1  0  0  0  0
 26 66  1  0  0  0  0
 26 67  1  0  0  0  0
 27 40  1  0  0  0  0
 27 28  1  0  0  0  0
 28 29  2  0  0  0  0
 29 30  1  0  0  0  0
 30 68  1  0  0  0  0
 30 31  1  0  0  0  0
 31 71  1  0  0  0  0
 31 70  1  0  0  0  0
 32 29  1  0  0  0  0
 33 32  1  0  0  0  0
 33 34  1  0  0  0  0
 34 75  1  0  0  0  0
 35 33  2  0  0  0  0
 36 35  1  0  0  0  0
 36 37  1  0  0  0  0
 37 80  1  0  0  0  0
 37 79  1  0  0  0  0
 38 35  1  0  0  0  0
 38  4  2  0  0  0  0
 39 38  1  0  0  0  0
 39  5  2  0  0  0  0
 40 83  1  0  0  0  0
 43  8  1  0  0  0  0
 44  8  1  0  0  0  0
 45  8  1  0  0  0  0
 46 10  1  0  0  0  0
 48 10  1  0  0  0  0
 50 13  1  0  0  0  0
 53 14  1  0  0  0  0
 54 17  1  0  0  0  0
 55 17  1  0  0  0  0
 57 19  1  0  0  0  0
 58 19  1  0  0  0  0
 59 20  1  0  0  0  0
 62 22  1  0  0  0  0
 63 25  1  0  0  0  0
 64 25  1  0  0  0  0
 65 26  1  0  0  0  0
 69 30  1  0  0  0  0
 72 31  1  0  0  0  0
 73 34  1  0  0  0  0
 74 34  1  0  0  0  0
 76 36  1  0  0  0  0
 77 36  1  0  0  0  0
 78 37  1  0  0  0  0
 81 39  1  0  0  0  0
 82 40  1  0  0  0  0
 84 40  1  0  0  0  0
M  END
