1,2,3,4
q = -2.0, confidence = 0.968

 46 50  0  0  0  0  0  0  0  0999 V2000
   -0.1942   -1.4970   -0.0660 N   0  0  0  0  0  2  0  0  0  0  0  0
   -2.8417   -1.5268   -0.2570 N   0  0  0  0  0  2  0  0  0  0  0  0
   -2.8265    1.6121   -0.0741 N   0  0  0  0  0  2  0  0  0  0  0  0
   -0.1652    1.5271   -0.0535 N   0  0  0  0  0  2  0  0  0  0  0  0
    3.4731    1.3588   -0.0394 N   0  0  0  0  0  0  0  0  0  0  0  0
    3.4412   -1.4005    0.1233 N   0  0  0  0  0  0  0  0  0  0  0  0
    1.1544   -1.6954    0.0330 C   0  0  0  0  0  0  0  0  0  0  0  0
    1.3722   -3.1144    0.0994 C   0  0  0  0  0  0  0  0  0  0  0  0
    2.3680   -3.5569    0.1793 H   0  0  0  0  0  0  0  0  0  0  0  0
    0.1425   -3.7583    0.0356 C   0  0  0  0  0  0  0  0  0  0  0  0
   -0.0489   -4.8370    0.0564 H   0  0  0  0  0  0  0  0  0  0  0  0
   -0.8370   -2.7382   -0.0683 C   0  0  0  0  0  0  0  0  0  0  0  0
   -2.2323   -2.7073   -0.2007 C   0  0  0  0  0  0  0  0  0  0  0  0
   -2.8318   -3.6297   -0.2835 H   0  0  0  0  0  0  0  0  0  0  0  0
   -4.2625   -1.3967   -0.5496 C   0  0  0  0  0  0  0  0  0  0  0  0
   -4.3699   -0.7410   -1.4407 H   0  0  0  0  0  0  0  0  0  0  0  0
   -4.6396   -2.3934   -0.8608 H   0  0  0  0  0  0  0  0  0  0  0  0
   -5.1129   -0.8650    0.6079 C   0  0  0  0  0  0  0  0  0  0  0  0
   -5.1262   -1.6086    1.4307 H   0  0  0  0  0  0  0  0  0  0  0  0
   -6.1539   -0.8092    0.2247 H   0  0  0  0  0  0  0  0  0  0  0  0
   -4.6966    0.5059    1.1632 C   0  0  0  0  0  0  0  0  0  0  0  0
   -5.5443    0.9204    1.7441 H   0  0  0  0  0  0  0  0  0  0  0  0
   -3.8652    0.4039    1.8923 H   0  0  0  0  0  0  0  0  0  0  0  0
   -4.2765    1.5328    0.0953 C   0  0  0  0  0  0  0  0  0  0  0  0
   -4.7542    1.3022   -0.8829 H   0  0  0  0  0  0  0  0  0  0  0  0
   -4.6247    2.5475    0.3767 H   0  0  0  0  0  0  0  0  0  0  0  0
   -2.1846    2.7765   -0.0463 C   0  0  0  0  0  0  0  0  0  0  0  0
   -2.7653    3.7128    0.0111 H   0  0  0  0  0  0  0  0  0  0  0  0
   -0.7827    2.7797   -0.0672 C   0  0  0  0  0  0  0  0  0  0  0  0
    0.2201    3.7823   -0.0742 C   0  0  0  0  0  0  0  0  0  0  0  0
    0.0504    4.8648   -0.0828 H   0  0  0  0  0  0  0  0  0  0  0  0
    1.4393    3.1152   -0.0684 C   0  0  0  0  0  0  0  0  0  0  0  0
    2.4462    3.5394   -0.0685 H   0  0  0  0  0  0  0  0  0  0  0  0
    1.1908    1.7001   -0.0526 C   0  0  0  0  0  0  0  0  0  0  0  0
    2.2916    0.7220   -0.0193 C   0  0  0  0  0  0  0  0  0  0  0  0
    2.2752   -0.7397    0.0470 C   0  0  0  0  0  0  0  0  0  0  0  0
    4.6345    0.6870    0.0184 C   0  0  0  0  0  0  0  0  0  0  0  0
    5.8823    1.3791   -0.0089 C   0  0  0  0  0  0  0  0  0  0  0  0
    5.8713    2.4754   -0.0895 H   0  0  0  0  0  0  0  0  0  0  0  0
    7.0600    0.6550    0.0705 C   0  0  0  0  0  0  0  0  0  0  0  0
    8.0274    1.1787    0.0519 H   0  0  0  0  0  0  0  0  0  0  0  0
    7.0430   -0.7701    0.1790 C   0  0  0  0  0  0  0  0  0  0  0  0
    7.9977   -1.3133    0.2419 H   0  0  0  0  0  0  0  0  0  0  0  0
    5.8484   -1.4700    0.2036 C   0  0  0  0  0  0  0  0  0  0  0  0
    5.8113   -2.5658    0.2830 H   0  0  0  0  0  0  0  0  0  0  0  0
    4.6175   -0.7526    0.1189 C   0  0  0  0  0  0  0  0  0  0  0  0
  1  7  1  0  0  0  0
  2 13  1  0  0  0  0
  3 27  1  0  0  0  0
  3 24  1  0  0  0  0
  4 34  1  0  0  0  0
  5 35  1  0  0  0  0
  5 37  2  0  0  0  0
  7 36  2  0  0  0  0
  7  8  1  0  0  0  0
  8  9  1  0  0  0  0
 10 11  1  0  0  0  0
 10  8  2  0  0  0  0
 12  1  1  0  0  0  0
 12 10  1  0  0  0  0
 13 12  2  0  0  0  0
 14 13  1  0  0  0  0
 15  2  1  0  0  0  0
 15 18  1  0  0  0  0
 16 15  1  0  0  0  0
 17 15  1  0  0  0  0
 18 21  1  0  0  0  0
 18 19  1  0  0  0  0
 20 18  1  0  0  0  0
 21 22  1  0  0  0  0
 21 23  1  0  0  0  0
 24 26  1  0  0  0  0
 24 21  1  0  0  0  0
 25 24  1  0  0  0  0
 27 28  1  0  0  0  0
 29  4  1  0  0  0  0
 29 27  2  0  0  0  0
 30 32  2  0  0  0  0
 30 29  1  0  0  0  0
 31 30  1  0  0  0  0
 32 34  1  0  0  0  0
 33 32  1  0  0  0  0
 34 35  2  0  0  0  0
 35 36  1  0  0  0  0
 36  6  1  0  0  0  0
 37 46  1  0  0  0  0
 38 37  1  0  0  0  0
 38 40  2  0  0  0  0
 39 38  1  0  0  0  0
 40 42  1  0  0  0  0
 41 40  1  0  0  0  0
 42 44  2  0  0  0  0
 42 43  1  0  0  0  0
 44 45  1  0  0  0  0
 46  6  2  0  0  0  0
 46 44  1  0  0  0  0
M  END
