1,2,5,20
q = 0.0, confidence = 0.998

 34 33  0  0  0  0  0  0  0  0999 V2000
    1.2121    0.3851    0.8570 N   0  0  0  0  0  0  0  0  0  0  0  0
   -0.4254    1.2287   -1.4231 N   0  0  0  0  0  0  0  0  0  0  0  0
    0.3547    1.3158   -2.0926 H   0  0  0  0  0  0  0  0  0  0  0  0
   -1.2687    1.0206   -1.9868 H   0  0  0  0  0  0  0  0  0  0  0  0
   -0.4164   -1.8388    1.0308 N   0  0  0  0  0  0  0  0  0  0  0  0
   -1.4011   -2.1469    1.0777 H   0  0  0  0  0  0  0  0  0  0  0  0
    0.1371   -2.6823    0.8104 H   0  0  0  0  0  0  0  0  0  0  0  0
    0.0285   -1.2462    2.3144 C   0  0  0  0  0  0  0  0  0  0  0  0
    0.1537   -2.0086    3.1119 H   0  0  0  0  0  0  0  0  0  0  0  0
   -0.7629   -0.5387    2.6252 H   0  0  0  0  0  0  0  0  0  0  0  0
    2.5312    0.4804    0.1622 C   0  0  0  0  0  0  0  0  0  0  0  0
    3.3134    0.6967    0.9244 H   0  0  0  0  0  0  0  0  0  0  0  0
    2.5002    1.3636   -0.5028 H   0  0  0  0  0  0  0  0  0  0  0  0
    2.9420   -0.7338   -0.6715 C   0  0  0  0  0  0  0  0  0  0  0  0
    3.9967   -0.5759   -0.9758 H   0  0  0  0  0  0  0  0  0  0  0  0
    2.9581   -1.6637   -0.0614 H   0  0  0  0  0  0  0  0  0  0  0  0
    0.7869    1.7415    1.3437 C   0  0  0  0  0  0  0  0  0  0  0  0
    1.5680    2.1138    2.0445 H   0  0  0  0  0  0  0  0  0  0  0  0
   -0.1478    1.5939    1.9177 H   0  0  0  0  0  0  0  0  0  0  0  0
    0.7367   -1.3925   -1.6043 N   0  0  0  0  0  0  0  0  0  0  0  0
    0.7634   -2.3824   -1.3142 H   0  0  0  0  0  0  0  0  0  0  0  0
    0.1385   -1.4044   -2.4468 H   0  0  0  0  0  0  0  0  0  0  0  0
    0.5487    2.7954    0.2594 C   0  0  0  0  0  0  0  0  0  0  0  0
    0.3182    3.7423    0.7890 H   0  0  0  0  0  0  0  0  0  0  0  0
    1.4817    3.0124   -0.3048 H   0  0  0  0  0  0  0  0  0  0  0  0
   -0.6042    2.5157   -0.6985 C   0  0  0  0  0  0  0  0  0  0  0  0
   -1.5530    2.4333   -0.1380 H   0  0  0  0  0  0  0  0  0  0  0  0
   -0.6987    3.3456   -1.4302 H   0  0  0  0  0  0  0  0  0  0  0  0
    2.1132   -0.9570   -1.9328 C   0  0  0  0  0  0  0  0  0  0  0  0
    2.0504   -0.0140   -2.5161 H   0  0  0  0  0  0  0  0  0  0  0  0
    2.6100   -1.6976   -2.5952 H   0  0  0  0  0  0  0  0  0  0  0  0
    1.3427   -0.5400    2.0337 C   0  0  0  0  0  0  0  0  0  0  0  0
    2.1176   -1.2946    1.7908 H   0  0  0  0  0  0  0  0  0  0  0  0
    1.7070    0.0163    2.9235 H   0  0  0  0  0  0  0  0  0  0  0  0
  1 17  1  0  0  0  0
  1 32  1  0  0  0  0
  2 26  1  0  0  0  0
  3  2  1  0  0  0  0
  4  2  1  0  0  0  0
  5  6  1  0  0  0  0
  5  8  1  0  0  0  0
  7  5  1  0  0  0  0
  8 10  1  0  0  0  0
  8  9  1  0  0  0  0
 11  1  1  0  0  0  0
 11 12  1  0  0  0  0
 13 11  1  0  0  0  0
 14 16  1  0  0  0  0
 14 11  1  0  0  0  0
 15 14  1  0  0  0  0
 17 19  1  0  0  0  0
 17 18  1  0  0  0  0
 20 21  1  0  0  0  0
 22 20  1  0  0  0  0
 23 24  1  0  0  0  0
 23 17  1  0  0  0  0
 25 23  1  0  0  0  0
 26 27  1  0  0  0  0
 26 23  1  0  0  0  0
 28 26  1  0  0  0  0
 29 20  1  0  0  0  0
 29 14  1  0  0  0  0
 30 29  1  0  0  0  0
 31 29  1  0  0  0  0
 32  8  1  0  0  0  0
 32 34  1  0  0  0  0
 33 32  1  0  0  0  0
M  END
