3,4,5,7
q = 0.0, confidence = 1.0

 41 45  0  0  1  0  0  0  0  0999 V2000
   -4.0160    2.4158    0.1587 S   0  0  0  0  0  0  0  0  0  0  0  0
    4.0160    2.4158   -0.1587 S   0  0  0  0  0  0  0  0  0  0  0  0
   -2.0692    0.7909    0.4395 N   0  0  0  0  0  2  0  0  0  0  0  0
    2.0692    0.7909   -0.4395 N   0  0  0  0  0  2  0  0  0  0  0  0
   -1.6635   -1.7458    1.1581 N   0  0  0  0  0  2  0  0  0  0  0  0
    0.0000    2.3397   -0.0000 N   0  0  0  0  0  0  0  0  0  0  0  0
    1.6635   -1.7458   -1.1581 N   0  0  0  0  0  2  0  0  0  0  0  0
   -2.3064    2.0587    0.1971 C   0  0  2  0  0  3  0  0  0  0  0  0
   -4.3618    0.7587    0.5138 C   0  0  0  0  0  0  0  0  0  0  0  0
   -5.3996    0.4196    0.6065 H   0  0  0  0  0  0  0  0  0  0  0  0
   -3.1822    0.0327    0.6368 C   0  0  0  0  0  0  0  0  0  0  0  0
    2.3064    2.0587   -0.1972 C   0  0  2  0  0  3  0  0  0  0  0  0
    4.3618    0.7587   -0.5138 C   0  0  0  0  0  0  0  0  0  0  0  0
    5.3996    0.4196   -0.6065 H   0  0  0  0  0  0  0  0  0  0  0  0
    3.1822    0.0327   -0.6368 C   0  0  0  0  0  0  0  0  0  0  0  0
   -2.9595   -1.3776    1.0268 C   0  0  2  0  0  3  0  0  0  0  0  0
   -4.0078   -2.2741    1.3016 C   0  0  0  0  0  0  0  0  0  0  0  0
   -5.0547   -1.9602    1.1846 H   0  0  0  0  0  0  0  0  0  0  0  0
   -3.6928   -3.5701    1.7289 C   0  0  0  0  0  0  0  0  0  0  0  0
   -4.4957   -4.2908    1.9449 H   0  0  0  0  0  0  0  0  0  0  0  0
   -2.3471   -3.9306    1.8875 C   0  0  0  0  0  0  0  0  0  0  0  0
   -2.0594   -4.9318    2.2384 H   0  0  0  0  0  0  0  0  0  0  0  0
   -1.3612   -2.9770    1.5880 C   0  0  0  0  0  0  0  0  0  0  0  0
   -0.2840   -3.1821    1.7081 H   0  0  0  0  0  0  0  0  0  0  0  0
   -1.1662    2.9881    0.0548 C   0  0  0  0  0  0  0  0  0  0  0  0
   -1.2186    4.3974    0.0404 C   0  0  0  0  0  0  0  0  0  0  0  0
   -2.1780    4.9341    0.0788 H   0  0  0  0  0  0  0  0  0  0  0  0
    0.0000    5.0944   -0.0000 C   0  0  0  0  0  0  0  0  0  0  0  0
    0.0000    6.1943   -0.0001 H   0  0  0  0  0  0  0  0  0  0  0  0
    1.2186    4.3974   -0.0405 C   0  0  0  0  0  0  0  0  0  0  0  0
    2.1780    4.9341   -0.0789 H   0  0  0  0  0  0  0  0  0  0  0  0
    1.1662    2.9881   -0.0548 C   0  0  0  0  0  0  0  0  0  0  0  0
    2.9595   -1.3776   -1.0268 C   0  0  2  0  0  3  0  0  0  0  0  0
    4.0078   -2.2742   -1.3016 C   0  0  0  0  0  0  0  0  0  0  0  0
    5.0547   -1.9602   -1.1846 H   0  0  0  0  0  0  0  0  0  0  0  0
    3.6928   -3.5702   -1.7289 C   0  0  0  0  0  0  0  0  0  0  0  0
    4.4957   -4.2909   -1.9449 H   0  0  0  0  0  0  0  0  0  0  0  0
    2.3471   -3.9306   -1.8874 C   0  0  0  0  0  0  0  0  0  0  0  0
    2.0594   -4.9319   -2.2384 H   0  0  0  0  0  0  0  0  0  0  0  0
    1.3612   -2.9770   -1.5880 C   0  0  0  0  0  0  0  0  0  0  0  0
    0.2840   -3.1821   -1.7081 H   0  0  0  0  0  0  0  0  0  0  0  0
  1  8  1  0  0  0  0
  1  9  1  0  0  0  0
  3 11  1  0  0  0  0
  4 12  1  0  0  0  0
  5 23  1  0  0  0  0
  6 25  1  0  0  0  0
  7 33  1  0  0  0  0
  8 25  1  1  0  0  0
  8  3  1  0  0  0  0
  9 10  1  0  0  0  0
  9 11  2  0  0  0  0
 12  2  1  0  0  0  0
 12 32  1  6  0  0  0
 13  2  1  0  0  0  0
 14 13  1  0  0  0  0
 15 13  2  0  0  0  0
 15  4  1  0  0  0  0
 16 11  1  1  0  0  0
 16  5  1  0  0  0  0
 16 17  1  0  0  0  0
 17 19  2  0  0  0  0
 18 17  1  0  0  0  0
 19 21  1  0  0  0  0
 19 20  1  0  0  0  0
 21 22  1  0  0  0  0
 23 24  1  0  0  0  0
 23 21  2  0  0  0  0
 26 25  2  0  0  0  0
 26 27  1  0  0  0  0
 28 26  1  0  0  0  0
 29 28  1  0  0  0  0
 30 28  2  0  0  0  0
 31 30  1  0  0  0  0
 32 30  1  0  0  0  0
 32  6  2  0  0  0  0
 33 15  1  6  0  0  0
 34 35  1  0  0  0  0
 34 33  1  0  0  0  0
 36 34  2  0  0  0  0
 37 36  1  0  0  0  0
 38 36  1  0  0  0  0
 38 40  2  0  0  0  0
 39 38  1  0  0  0  0
 40  7  1  0  0  0  0
 41 40  1  0  0  0  0
M  END
