1,2,3,4
q = -2.0, confidence = 0.558

 60 63  0  0  1  0  0  0  0  0999 V2000
    1.8201    1.8808    0.3724 N   0  0  0  0  0  2  0  0  0  0  0  0
   -0.8388    1.8985   -0.2637 N   0  0  0  0  0  2  0  0  0  0  0  0
   -0.8386   -1.8985    0.2638 N   0  0  0  0  0  2  0  0  0  0  0  0
    1.8201   -1.8806   -0.3727 N   0  0  0  0  0  2  0  0  0  0  0  0
    3.0305    1.8792    0.9966 C   0  0  2  0  0  3  0  0  0  0  0  0
    3.6428    0.6004    1.4984 C   0  0  0  0  0  0  0  0  0  0  0  0
    4.7137    0.5523    1.2174 H   0  0  0  0  0  0  0  0  0  0  0  0
    3.1203   -0.2982    1.1393 H   0  0  0  0  0  0  0  0  0  0  0  0
    3.5793    0.5764    2.6051 H   0  0  0  0  0  0  0  0  0  0  0  0
    3.7312    3.0801    1.2222 C   0  0  0  0  0  0  0  0  0  0  0  0
    4.7124    3.0372    1.7168 H   0  0  0  0  0  0  0  0  0  0  0  0
    3.1732    4.3022    0.8412 C   0  0  0  0  0  0  0  0  0  0  0  0
    3.7075    5.2466    1.0254 H   0  0  0  0  0  0  0  0  0  0  0  0
    1.9135    4.2978    0.2373 C   0  0  0  0  0  0  0  0  0  0  0  0
    1.4170    5.2315   -0.0631 H   0  0  0  0  0  0  0  0  0  0  0  0
    1.2699    3.0718    0.0104 C   0  0  0  0  0  0  0  0  0  0  0  0
   -0.0557    3.0260   -0.6966 C   0  0  0  0  0  0  0  0  0  0  0  0
   -0.5872    3.9965   -0.5544 H   0  0  0  0  0  0  0  0  0  0  0  0
    0.1773    2.9560   -1.7931 H   0  0  0  0  0  0  0  0  0  0  0  0
   -1.8391    1.4472   -1.1088 C   0  0  0  0  0  0  0  0  0  0  0  0
   -2.1684    2.0238   -2.3649 C   0  0  0  0  0  0  0  0  0  0  0  0
   -1.7382    2.9896   -2.6601 H   0  0  0  0  0  0  0  0  0  0  0  0
   -3.0130    1.3430   -3.2399 C   0  0  0  0  0  0  0  0  0  0  0  0
   -3.2580    1.7939   -4.2144 H   0  0  0  0  0  0  0  0  0  0  0  0
   -3.5362    0.0806   -2.9085 C   0  0  0  0  0  0  0  0  0  0  0  0
   -4.1756   -0.4569   -3.6251 H   0  0  0  0  0  0  0  0  0  0  0  0
   -3.2892   -0.4865   -1.6489 C   0  0  0  0  0  0  0  0  0  0  0  0
   -3.8934   -1.8094   -1.2680 C   0  0  0  0  0  0  0  0  0  0  0  0
   -4.5905   -2.1745   -2.0460 H   0  0  0  0  0  0  0  0  0  0  0  0
   -4.4350   -1.7477   -0.3019 H   0  0  0  0  0  0  0  0  0  0  0  0
   -3.0922   -2.5657   -1.1273 H   0  0  0  0  0  0  0  0  0  0  0  0
   -2.4676    0.2169   -0.7207 C   0  0  0  0  0  0  0  0  0  0  0  0
   -2.4676   -0.2172    0.7208 C   0  0  0  0  0  0  0  0  0  0  0  0
   -1.8390   -1.4474    1.1090 C   0  0  0  0  0  0  0  0  0  0  0  0
   -2.1681   -2.0239    2.3651 C   0  0  0  0  0  0  0  0  0  0  0  0
   -1.7378   -2.9896    2.6603 H   0  0  0  0  0  0  0  0  0  0  0  0
   -3.0127   -1.3432    3.2402 C   0  0  0  0  0  0  0  0  0  0  0  0
   -3.2576   -1.7941    4.2147 H   0  0  0  0  0  0  0  0  0  0  0  0
   -3.5361   -0.0809    2.9087 C   0  0  0  0  0  0  0  0  0  0  0  0
   -4.1756    0.4565    3.6253 H   0  0  0  0  0  0  0  0  0  0  0  0
   -3.2892    0.4862    1.6491 C   0  0  0  0  0  0  0  0  0  0  0  0
   -3.8936    1.8090    1.2681 C   0  0  0  0  0  0  0  0  0  0  0  0
   -4.5910    2.1739    2.0460 H   0  0  0  0  0  0  0  0  0  0  0  0
   -4.4350    1.7473    0.3019 H   0  0  0  0  0  0  0  0  0  0  0  0
   -3.0925    2.5655    1.1276 H   0  0  0  0  0  0  0  0  0  0  0  0
   -0.0554   -3.0260    0.6966 C   0  0  0  0  0  0  0  0  0  0  0  0
   -0.5868   -3.9965    0.5544 H   0  0  0  0  0  0  0  0  0  0  0  0
    0.1776   -2.9560    1.7931 H   0  0  0  0  0  0  0  0  0  0  0  0
    1.2702   -3.0716   -0.0103 C   0  0  2  0  0  3  0  0  0  0  0  0
    1.9141   -4.2976   -0.2368 C   0  0  0  0  0  0  0  0  0  0  0  0
    1.4179   -5.2313    0.0638 H   0  0  0  0  0  0  0  0  0  0  0  0
    3.1739   -4.3018   -0.8406 C   0  0  0  0  0  0  0  0  0  0  0  0
    3.7085   -5.2461   -1.0245 H   0  0  0  0  0  0  0  0  0  0  0  0
    3.7316   -3.0796   -1.2219 C   0  0  0  0  0  0  0  0  0  0  0  0
    4.7129   -3.0367   -1.7165 H   0  0  0  0  0  0  0  0  0  0  0  0
    3.0306   -1.8788   -0.9968 C   0  0  0  0  0  0  0  0  0  0  0  0
    3.6425   -0.6001   -1.4990 C   0  0  0  0  0  0  0  0  0  0  0  0
    3.1203    0.2985   -1.1394 H   0  0  0  0  0  0  0  0  0  0  0  0
    3.5780   -0.5760   -2.6057 H   0  0  0  0  0  0  0  0  0  0  0  0
    4.7137   -0.5520   -1.2190 H   0  0  0  0  0  0  0  0  0  0  0  0
  1  5  1  0  0  0  0
  3 46  1  0  0  0  0
  3 34  1  0  0  0  0
  4 49  1  0  0  0  0
  5 10  1  0  0  0  0
  5  6  1  1  0  0  0
  6  9  1  0  0  0  0
  7  6  1  0  0  0  0
  8  6  1  0  0  0  0
 10 11  1  0  0  0  0
 12 13  1  0  0  0  0
 12 10  2  0  0  0  0
 14 12  1  0  0  0  0
 15 14  1  0  0  0  0
 16 14  2  0  0  0  0
 16  1  1  0  0  0  0
 17 18  1  0  0  0  0
 17  2  1  0  0  0  0
 17 16  1  0  0  0  0
 19 17  1  0  0  0  0
 20 32  1  0  0  0  0
 20  2  1  0  0  0  0
 21 20  2  0  0  0  0
 22 21  1  0  0  0  0
 23 25  2  0  0  0  0
 23 21  1  0  0  0  0
 24 23  1  0  0  0  0
 25 27  1  0  0  0  0
 26 25  1  0  0  0  0
 27 28  1  0  0  0  0
 27 32  2  0  0  0  0
 28 31  1  0  0  0  0
 28 30  1  0  0  0  0
 29 28  1  0  0  0  0
 32 33  1  0  0  0  0
 33 34  2  0  0  0  0
 33 41  1  0  0  0  0
 34 35  1  0  0  0  0
 35 36  1  0  0  0  0
 35 37  2  0  0  0  0
 37 38  1  0  0  0  0
 39 37  1  0  0  0  0
 39 40  1  0  0  0  0
 41 39  2  0  0  0  0
 42 41  1  0  0  0  0
 42 43  1  0  0  0  0
 44 42  1  0  0  0  0
 45 42  1  0  0  0  0
 46 48  1  0  0  0  0
 47 46  1  0  0  0  0
 49 46  1  1  0  0  0
 50 49  1  0  0  0  0
 50 51  1  0  0  0  0
 52 50  2  0  0  0  0
 53 52  1  0  0  0  0
 54 56  2  0  0  0  0
 54 52  1  0  0  0  0
 55 54  1  0  0  0  0
 56  4  1  0  0  0  0
 57 60  1  0  0  0  0
 57 58  1  0  0  0  0
 57 56  1  0  0  0  0
 59 57  1  0  0  0  0
M  END
