1,2,3,4
q = 0.0, confidence = 0.996

 48 49  0  0  1  0  0  0  0  0999 V2000
   -1.7447   -0.0001   -0.1548 N   0  0  0  0  0  2  0  0  0  0  0  0
   -0.0966    2.1647    0.0642 N   0  0  0  0  0  0  0  0  0  0  0  0
    2.4090    0.0001    0.1241 N   0  0  0  0  0  0  0  0  0  0  0  0
   -0.0961   -2.1647    0.0642 N   0  0  0  0  0  0  0  0  0  0  0  0
   -2.3807   -1.1882   -0.3109 C   0  0  1  0  0  3  0  0  0  0  0  0
   -3.7764   -1.2176   -0.3962 C   0  0  0  0  0  0  0  0  0  0  0  0
   -4.4804   -0.0003   -0.3877 C   0  0  0  0  0  0  0  0  0  0  0  0
   -3.7765    1.2171   -0.3965 C   0  0  0  0  0  0  0  0  0  0  0  0
   -2.3808    1.1879   -0.3112 C   0  0  0  0  0  0  0  0  0  0  0  0
   -1.4287    2.3118   -0.6278 C   0  0  0  0  0  0  0  0  0  0  0  0
   -0.2001    2.8675    1.3712 C   0  0  0  0  0  0  0  0  0  0  0  0
    0.9624    2.8374   -0.7537 C   0  0  0  0  0  0  0  0  0  0  0  0
    2.3772    2.5610   -0.2534 C   0  0  0  0  0  0  0  0  0  0  0  0
    2.9253    1.1913   -0.6385 C   0  0  0  0  0  0  0  0  0  0  0  0
    3.0082   -0.0001    1.4790 C   0  0  0  0  0  0  0  0  0  0  0  0
    2.9254   -1.1908   -0.6390 C   0  0  0  0  0  0  0  0  0  0  0  0
    2.3776   -2.5607   -0.2543 C   0  0  0  0  0  0  0  0  0  0  0  0
    0.9627   -2.8371   -0.7542 C   0  0  0  0  0  0  0  0  0  0  0  0
   -0.1989   -2.8676    1.3713 C   0  0  0  0  0  0  0  0  0  0  0  0
   -1.4285   -2.3122   -0.6273 C   0  0  0  0  0  0  0  0  0  0  0  0
   -4.3033   -2.1767   -0.4988 H   0  0  0  0  0  0  0  0  0  0  0  0
   -5.5790   -0.0004   -0.4323 H   0  0  0  0  0  0  0  0  0  0  0  0
   -4.3036    2.1761   -0.4993 H   0  0  0  0  0  0  0  0  0  0  0  0
   -1.8626    3.3143   -0.4369 H   0  0  0  0  0  0  0  0  0  0  0  0
   -1.2253    2.2120   -1.7164 H   0  0  0  0  0  0  0  0  0  0  0  0
    0.7351    2.7684    1.9453 H   0  0  0  0  0  0  0  0  0  0  0  0
   -1.0279    2.4455    1.9633 H   0  0  0  0  0  0  0  0  0  0  0  0
   -0.3952    3.9450    1.1890 H   0  0  0  0  0  0  0  0  0  0  0  0
    0.8581    2.4530   -1.7872 H   0  0  0  0  0  0  0  0  0  0  0  0
    0.7550    3.9305   -0.7550 H   0  0  0  0  0  0  0  0  0  0  0  0
    2.4842    2.7678    0.8318 H   0  0  0  0  0  0  0  0  0  0  0  0
    3.0381    3.3036   -0.7460 H   0  0  0  0  0  0  0  0  0  0  0  0
    2.6764    1.0043   -1.7005 H   0  0  0  0  0  0  0  0  0  0  0  0
    4.0333    1.1902   -0.5391 H   0  0  0  0  0  0  0  0  0  0  0  0
    2.6831   -0.8918    2.0412 H   0  0  0  0  0  0  0  0  0  0  0  0
    2.6831    0.8914    2.0415 H   0  0  0  0  0  0  0  0  0  0  0  0
    4.1172   -0.0001    1.4082 H   0  0  0  0  0  0  0  0  0  0  0  0
    2.6763   -1.0035   -1.7009 H   0  0  0  0  0  0  0  0  0  0  0  0
    4.0334   -1.1895   -0.5398 H   0  0  0  0  0  0  0  0  0  0  0  0
    3.0384   -3.3030   -0.7475 H   0  0  0  0  0  0  0  0  0  0  0  0
    2.4851   -2.7680    0.8308 H   0  0  0  0  0  0  0  0  0  0  0  0
    0.7554   -3.9302   -0.7557 H   0  0  0  0  0  0  0  0  0  0  0  0
    0.8580   -2.4523   -1.7875 H   0  0  0  0  0  0  0  0  0  0  0  0
   -1.0268   -2.4461    1.9635 H   0  0  0  0  0  0  0  0  0  0  0  0
    0.7364   -2.7679    1.9451 H   0  0  0  0  0  0  0  0  0  0  0  0
   -0.3933   -3.9452    1.1890 H   0  0  0  0  0  0  0  0  0  0  0  0
   -1.8622   -3.3147   -0.4357 H   0  0  0  0  0  0  0  0  0  0  0  0
   -1.2256   -2.2130   -1.7160 H   0  0  0  0  0  0  0  0  0  0  0  0
  2 11  1  0  0  0  0
  3 15  1  0  0  0  0
  4 19  1  0  0  0  0
  5  6  1  6  0  0  0
  5  1  1  0  0  0  0
  6  7  2  0  0  0  0
  8  7  1  0  0  0  0
  8  9  2  0  0  0  0
  9  1  1  0  0  0  0
 10 24  1  0  0  0  0
 10  9  1  0  0  0  0
 10  2  1  0  0  0  0
 11 26  1  0  0  0  0
 11 27  1  0  0  0  0
 12 13  1  0  0  0  0
 12  2  1  0  0  0  0
 13 31  1  0  0  0  0
 14 34  1  0  0  0  0
 14 13  1  0  0  0  0
 14  3  1  0  0  0  0
 15 35  1  0  0  0  0
 15 36  1  0  0  0  0
 16 39  1  0  0  0  0
 16 17  1  0  0  0  0
 16  3  1  0  0  0  0
 17 41  1  0  0  0  0
 18 17  1  0  0  0  0
 18  4  1  0  0  0  0
 19 45  1  0  0  0  0
 19 44  1  0  0  0  0
 20 47  1  0  0  0  0
 20  5  1  0  0  0  0
 20  4  1  0  0  0  0
 21  6  1  0  0  0  0
 22  7  1  0  0  0  0
 23  8  1  0  0  0  0
 25 10  1  0  0  0  0
 28 11  1  0  0  0  0
 29 12  1  0  0  0  0
 30 12  1  0  0  0  0
 32 13  1  0  0  0  0
 33 14  1  0  0  0  0
 37 15  1  0  0  0  0
 38 16  1  0  0  0  0
 40 17  1  0  0  0  0
 42 18  1  0  0  0  0
 43 18  1  0  0  0  0
 46 19  1  0  0  0  0
 48 20  1  0  0  0  0
M  END
