7,8,9,10
q = -2.0, confidence = 0.826

 54 54  0  0  0  0  0  0  0  0999 V2000
    7.8079   -2.1792    1.2095 S   0  0  0  0  0  0  0  0  0  0  0  0
   -9.7812   -2.2185    0.1018 S   0  0  0  0  0  0  0  0  0  0  0  0
    5.2768   -1.6157   -0.9006 O   0  0  0  0  0  0  0  0  0  0  0  0
    5.6405    0.6310   -0.6748 O   0  0  0  0  0  0  0  0  0  0  0  0
   -4.8379    2.4917    0.4499 O   0  0  0  0  0  0  0  0  0  0  0  0
   -5.1902    0.2551    0.2366 O   0  0  0  0  0  0  0  0  0  0  0  0
    1.7066    1.5636   -0.4288 N   0  0  0  0  0  2  0  0  0  0  0  0
   -0.7322    1.9841    0.1968 N   0  0  0  0  0  2  0  0  0  0  0  0
   -1.2488   -0.6791   -0.0227 N   0  0  0  0  0  2  0  0  0  0  0  0
    1.1896   -1.0999   -0.6490 N   0  0  0  0  0  2  0  0  0  0  0  0
    2.9688    1.2034   -0.5531 C   0  0  0  0  0  3  0  0  0  0  0  0
    3.7375    1.9973   -0.5892 H   0  0  0  0  0  0  0  0  0  0  0  0
    1.3377    2.9786   -0.4681 C   0  0  0  0  0  0  0  0  0  0  0  0
    1.0549    3.2534   -1.5096 H   0  0  0  0  0  0  0  0  0  0  0  0
    2.1845    3.6297   -0.1614 H   0  0  0  0  0  0  0  0  0  0  0  0
    0.1315    3.1378    0.4453 C   0  0  0  0  0  0  0  0  0  0  0  0
    0.4641    3.1237    1.5081 H   0  0  0  0  0  0  0  0  0  0  0  0
   -0.4050    4.0946    0.2685 H   0  0  0  0  0  0  0  0  0  0  0  0
   -2.0404    2.0978    0.3012 C   0  0  0  0  0  3  0  0  0  0  0  0
   -2.4796    3.0981    0.4836 H   0  0  0  0  0  0  0  0  0  0  0  0
   -2.9574    1.0215    0.2148 C   0  0  0  0  0  0  0  0  0  0  0  0
   -2.5116   -0.3181    0.1042 C   0  0  0  0  0  0  0  0  0  0  0  0
   -3.2788   -1.1134    0.1442 H   0  0  0  0  0  0  0  0  0  0  0  0
   -0.8795   -2.0935    0.0208 C   0  0  0  0  0  0  0  0  0  0  0  0
   -1.7259   -2.7460   -0.2840 H   0  0  0  0  0  0  0  0  0  0  0  0
   -0.5959   -2.3667    1.0627 H   0  0  0  0  0  0  0  0  0  0  0  0
    0.3258   -2.2549   -0.8934 C   0  0  0  0  0  0  0  0  0  0  0  0
    0.8632   -3.2109   -0.7154 H   0  0  0  0  0  0  0  0  0  0  0  0
   -0.0077   -2.2420   -1.9559 H   0  0  0  0  0  0  0  0  0  0  0  0
    2.4970   -1.2149   -0.7512 C   0  0  0  0  0  0  0  0  0  0  0  0
    2.9352   -2.2154   -0.9325 H   0  0  0  0  0  0  0  0  0  0  0  0
    3.4148   -0.1374   -0.6641 C   0  0  0  0  0  0  0  0  0  0  0  0
    4.8395   -0.4738   -0.7573 C   0  0  0  0  0  0  0  0  0  0  0  0
    7.0669    0.4432   -0.7489 C   0  0  0  0  0  0  0  0  0  0  0  0
    7.4392    1.2203   -1.4463 H   0  0  0  0  0  0  0  0  0  0  0  0
    7.2827   -0.5586   -1.1720 H   0  0  0  0  0  0  0  0  0  0  0  0
    7.7163    0.6023    0.6211 C   0  0  0  0  0  0  0  0  0  0  0  0
    7.4612    1.6065    1.0277 H   0  0  0  0  0  0  0  0  0  0  0  0
    8.8171    0.5815    0.4727 H   0  0  0  0  0  0  0  0  0  0  0  0
    7.3237   -0.4628    1.6496 C   0  0  0  0  0  0  0  0  0  0  0  0
    6.2334   -0.4353    1.8538 H   0  0  0  0  0  0  0  0  0  0  0  0
    7.8298   -0.2569    2.6140 H   0  0  0  0  0  0  0  0  0  0  0  0
   -4.3841    1.3619    0.3124 C   0  0  0  0  0  0  0  0  0  0  0  0
   -6.5967    0.5086    0.3426 C   0  0  0  0  0  0  0  0  0  0  0  0
   -6.8974    1.2597   -0.4201 H   0  0  0  0  0  0  0  0  0  0  0  0
   -6.8199    0.9634    1.3331 H   0  0  0  0  0  0  0  0  0  0  0  0
   -7.3251   -0.8146    0.1551 C   0  0  0  0  0  0  0  0  0  0  0  0
   -6.9919   -1.5404    0.9258 H   0  0  0  0  0  0  0  0  0  0  0  0
   -7.0408   -1.2465   -0.8287 H   0  0  0  0  0  0  0  0  0  0  0  0
   -8.8421   -0.6486    0.2294 C   0  0  0  0  0  0  0  0  0  0  0  0
   -9.2087    0.0649   -0.5377 H   0  0  0  0  0  0  0  0  0  0  0  0
   -9.1436   -0.2342    1.2144 H   0  0  0  0  0  0  0  0  0  0  0  0
    6.8336   -2.3314    0.2594 H   0  0  0  0  0  0  0  0  0  0  0  0
   -9.3948   -2.5163   -1.1710 H   0  0  0  0  0  0  0  0  0  0  0  0
  1 40  1  0  0  0  0
  2 50  1  0  0  0  0
  3 33  2  0  0  0  0
  6 43  1  0  0  0  0
  6 44  1  0  0  0  0
  8 19  1  0  0  0  0
  8 16  1  0  0  0  0
  9 24  1  0  0  0  0
  9 22  1  0  0  0  0
 11  7  1  0  0  0  0
 12 11  1  0  0  0  0
 13  7  1  0  0  0  0
 13 15  1  0  0  0  0
 13 16  1  0  0  0  0
 14 13  1  0  0  0  0
 16 17  1  0  0  0  0
 18 16  1  0  0  0  0
 19 20  1  0  0  0  0
 21 19  1  0  0  0  0
 21 43  1  0  0  0  0
 22 23  1  0  0  0  0
 22 21  2  0  0  0  0
 24 26  1  0  0  0  0
 25 24  1  0  0  0  0
 27 28  1  0  0  0  0
 27 10  1  0  0  0  0
 27 24  1  0  0  0  0
 29 27  1  0  0  0  0
 30 32  2  0  0  0  0
 30 10  1  0  0  0  0
 31 30  1  0  0  0  0
 32 11  1  0  0  0  0
 33  4  1  0  0  0  0
 33 32  1  0  0  0  0
 34  4  1  0  0  0  0
 34 37  1  0  0  0  0
 35 34  1  0  0  0  0
 36 34  1  0  0  0  0
 37 38  1  0  0  0  0
 37 40  1  0  0  0  0
 39 37  1  0  0  0  0
 40 41  1  0  0  0  0
 40 42  1  0  0  0  0
 43  5  2  0  0  0  0
 44 46  1  0  0  0  0
 45 44  1  0  0  0  0
 47 50  1  0  0  0  0
 47 44  1  0  0  0  0
 47 48  1  0  0  0  0
 49 47  1  0  0  0  0
 50 52  1  0  0  0  0
 51 50  1  0  0  0  0
 53  1  1  0  0  0  0
 54  2  1  0  0  0  0
M  END
