1,17,22,38
q = 0.0, confidence = 0.984

 42 43  0  0  1  0  0  0  0  0999 V2000
   -0.0000    1.9889    0.1378 N   0  0  0  0  0  0  0  0  0  0  0  0
   -0.9700    2.2384   -0.0943 H   0  0  0  0  0  0  0  0  0  0  0  0
    0.2976    2.6875    1.4549 C   0  0  0  0  0  0  0  0  0  0  0  0
   -0.5353    3.3896    1.6584 H   0  0  0  0  0  0  0  0  0  0  0  0
    0.3345    1.9389    2.2644 H   0  0  0  0  0  0  0  0  0  0  0  0
    1.6140    3.4251    1.2270 C   0  0  0  0  0  0  0  0  0  0  0  0
    2.4632    2.7454    1.4419 H   0  0  0  0  0  0  0  0  0  0  0  0
    1.7162    4.3061    1.8883 H   0  0  0  0  0  0  0  0  0  0  0  0
    1.5628    3.8009   -0.2610 C   0  0  0  0  0  0  0  0  0  0  0  0
    2.5522    4.0448   -0.6960 H   0  0  0  0  0  0  0  0  0  0  0  0
    0.9061    4.6799   -0.4224 H   0  0  0  0  0  0  0  0  0  0  0  0
    0.9347    2.5560   -0.9081 C   0  0  1  0  0  0  0  0  0  0  0  0
    0.3465    2.8143   -1.8114 H   0  0  0  0  0  0  0  0  0  0  0  0
    1.9753    1.4859   -1.2320 C   0  0  0  0  0  0  0  0  0  0  0  0
    2.6981    1.4174   -0.3967 H   0  0  0  0  0  0  0  0  0  0  0  0
    2.5261    1.7331   -2.1642 H   0  0  0  0  0  0  0  0  0  0  0  0
    1.3588    0.1327   -1.3279 N   0  0  0  0  0  0  0  0  0  0  0  0
    2.1117   -0.5356   -1.1041 H   0  0  0  0  0  0  0  0  0  0  0  0
    0.7311   -0.2198   -2.6289 C   0  0  0  0  0  0  0  0  0  0  0  0
    0.8053   -1.3169   -2.7526 H   0  0  0  0  0  0  0  0  0  0  0  0
    1.2798    0.2373   -3.4798 H   0  0  0  0  0  0  0  0  0  0  0  0
    0.0000   -1.9889    0.1378 N   0  0  0  0  0  0  0  0  0  0  0  0
    0.9700   -2.2384   -0.0943 H   0  0  0  0  0  0  0  0  0  0  0  0
   -0.2976   -2.6875    1.4549 C   0  0  0  0  0  0  0  0  0  0  0  0
    0.5353   -3.3896    1.6584 H   0  0  0  0  0  0  0  0  0  0  0  0
   -0.3345   -1.9389    2.2644 H   0  0  0  0  0  0  0  0  0  0  0  0
   -1.6140   -3.4251    1.2270 C   0  0  0  0  0  0  0  0  0  0  0  0
   -2.4632   -2.7454    1.4419 H   0  0  0  0  0  0  0  0  0  0  0  0
   -1.7162   -4.3061    1.8883 H   0  0  0  0  0  0  0  0  0  0  0  0
   -1.5628   -3.8009   -0.2610 C   0  0  0  0  0  0  0  0  0  0  0  0
   -2.5522   -4.0448   -0.6960 H   0  0  0  0  0  0  0  0  0  0  0  0
   -0.9061   -4.6799   -0.4224 H   0  0  0  0  0  0  0  0  0  0  0  0
   -0.9347   -2.5560   -0.9081 C   0  0  1  0  0  0  0  0  0  0  0  0
   -0.3465   -2.8143   -1.8114 H   0  0  0  0  0  0  0  0  0  0  0  0
   -1.9753   -1.4859   -1.2320 C   0  0  0  0  0  0  0  0  0  0  0  0
   -2.6981   -1.4174   -0.3967 H   0  0  0  0  0  0  0  0  0  0  0  0
   -2.5261   -1.7331   -2.1642 H   0  0  0  0  0  0  0  0  0  0  0  0
   -1.3588   -0.1327   -1.3279 N   0  0  0  0  0  0  0  0  0  0  0  0
   -2.1117    0.5356   -1.1041 H   0  0  0  0  0  0  0  0  0  0  0  0
   -0.7311    0.2198   -2.6289 C   0  0  0  0  0  0  0  0  0  0  0  0
   -0.8053    1.3169   -2.7526 H   0  0  0  0  0  0  0  0  0  0  0  0
   -1.2798   -0.2373   -3.4798 H   0  0  0  0  0  0  0  0  0  0  0  0
  1  3  1  0  0  0  0
  2  1  1  0  0  0  0
  3  4  1  0  0  0  0
  3  5  1  0  0  0  0
  6  7  1  0  0  0  0
  6  3  1  0  0  0  0
  6  8  1  0  0  0  0
  9  6  1  0  0  0  0
 10  9  1  0  0  0  0
 11  9  1  0  0  0  0
 12 13  1  6  0  0  0
 12  9  1  0  0  0  0
 12  1  1  0  0  0  0
 14 12  1  0  0  0  0
 14 15  1  0  0  0  0
 16 14  1  0  0  0  0
 17 14  1  0  0  0  0
 17 18  1  0  0  0  0
 19 40  1  0  0  0  0
 19 17  1  0  0  0  0
 20 19  1  0  0  0  0
 21 19  1  0  0  0  0
 22 24  1  0  0  0  0
 23 22  1  0  0  0  0
 24 25  1  0  0  0  0
 24 26  1  0  0  0  0
 27 28  1  0  0  0  0
 27 24  1  0  0  0  0
 27 29  1  0  0  0  0
 30 27  1  0  0  0  0
 31 30  1  0  0  0  0
 32 30  1  0  0  0  0
 33 34  1  6  0  0  0
 33 30  1  0  0  0  0
 33 22  1  0  0  0  0
 35 33  1  0  0  0  0
 35 36  1  0  0  0  0
 37 35  1  0  0  0  0
 38 35  1  0  0  0  0
 38 39  1  0  0  0  0
 40 38  1  0  0  0  0
 41 40  1  0  0  0  0
 42 40  1  0  0  0  0
M  END
