4,5,8,14
q = -2.0, confidence = 0.982

 37 38  0  0  1  0  0  0  0  0999 V2000
   -1.3830   -2.7074   -0.5735 C   0  0  0  0  0  0  0  0  0  0  0  0
   -1.4813   -3.4991    0.2101 H   0  0  0  0  0  0  0  0  0  0  0  0
   -1.2076   -3.2820   -1.5165 H   0  0  0  0  0  0  0  0  0  0  0  0
   -0.2847   -1.8116   -0.2820 N   0  0  0  0  0  2  0  0  0  0  0  0
    0.4612    2.0454   -0.2399 N   0  0  0  0  0  2  0  0  0  0  0  0
    0.8989   -2.4440   -0.0318 C   0  0  0  0  0  0  0  0  0  0  0  0
    1.1040   -3.6731   -0.0090 O   0  0  0  0  0  0  0  0  0  0  0  0
    1.5568   -0.1512    0.1040 N   0  0  0  0  0  2  0  0  0  0  0  0
    1.7854    2.2413    0.0685 C   0  0  0  0  0  0  0  0  0  0  0  0
   -3.0711   -1.2998    0.5723 N   0  0  0  0  0  0  0  0  0  0  0  0
   -0.4250    3.1752   -0.4108 C   0  0  0  0  0  0  0  0  0  0  0  0
   -0.5877    3.4181   -1.4915 H   0  0  0  0  0  0  0  0  0  0  0  0
    0.0032    4.0932    0.0494 H   0  0  0  0  0  0  0  0  0  0  0  0
   -2.2584    1.4877   -0.2062 N   0  0  0  0  0  0  0  0  0  0  0  0
   -2.6649   -1.9125   -0.7082 C   0  0  0  0  0  0  0  0  0  0  0  0
   -2.4777   -1.0848   -1.4234 H   0  0  0  0  0  0  0  0  0  0  0  0
   -3.4853   -2.5396   -1.1327 H   0  0  0  0  0  0  0  0  0  0  0  0
   -4.0538   -0.2184    0.3934 C   0  0  0  0  0  0  0  0  0  0  0  0
   -4.8768   -0.3239    1.1305 H   0  0  0  0  0  0  0  0  0  0  0  0
   -4.5337   -0.2869   -0.6108 H   0  0  0  0  0  0  0  0  0  0  0  0
    3.7814    0.6591    0.5227 C   0  0  0  0  0  0  0  0  0  0  0  0
    4.4394    1.5338    0.6296 H   0  0  0  0  0  0  0  0  0  0  0  0
    2.4306    0.8934    0.2431 C   0  0  1  0  0  3  0  0  0  0  0  0
    1.9875   -1.4390    0.2074 C   0  0  0  0  0  0  0  0  0  0  0  0
   -3.4421    1.1622    0.6104 C   0  0  0  0  0  0  0  0  0  0  0  0
   -4.2412    1.9324    0.4819 H   0  0  0  0  0  0  0  0  0  0  0  0
   -3.1083    1.2275    1.6657 H   0  0  0  0  0  0  0  0  0  0  0  0
    2.3901    3.3183    0.1778 O   0  0  0  0  0  0  0  0  0  0  0  0
    3.3273   -1.7282    0.4857 C   0  0  0  0  0  0  0  0  0  0  0  0
    3.6147   -2.7871    0.5587 H   0  0  0  0  0  0  0  0  0  0  0  0
    4.2370   -0.6662    0.6511 C   0  0  0  0  0  0  0  0  0  0  0  0
    5.2952   -0.8701    0.8730 H   0  0  0  0  0  0  0  0  0  0  0  0
   -1.7496    2.8141    0.2410 C   0  0  0  0  0  0  0  0  0  0  0  0
   -1.5853    2.7225    1.3337 H   0  0  0  0  0  0  0  0  0  0  0  0
   -2.5165    3.6091    0.0795 H   0  0  0  0  0  0  0  0  0  0  0  0
   -2.5235    1.5471   -1.2010 H   0  0  0  0  0  0  0  0  0  0  0  0
   -3.4650   -2.0363    1.1705 H   0  0  0  0  0  0  0  0  0  0  0  0
  1  4  1  0  0  0  0
  1  2  1  0  0  0  0
  3  1  1  0  0  0  0
  4  6  1  0  0  0  0
  5  9  1  0  0  0  0
  6  7  2  0  0  0  0
  6 24  1  0  0  0  0
  8 24  1  0  0  0  0
  8 23  1  0  0  0  0
  9 28  2  0  0  0  0
 10 37  1  0  0  0  0
 11  5  1  0  0  0  0
 11 13  1  0  0  0  0
 11 33  1  0  0  0  0
 12 11  1  0  0  0  0
 14 33  1  0  0  0  0
 14 25  1  0  0  0  0
 15  1  1  0  0  0  0
 15 10  1  0  0  0  0
 16 15  1  0  0  0  0
 17 15  1  0  0  0  0
 18 10  1  0  0  0  0
 18 25  1  0  0  0  0
 18 19  1  0  0  0  0
 20 18  1  0  0  0  0
 21 22  1  0  0  0  0
 21 31  2  0  0  0  0
 23  9  1  1  0  0  0
 23 21  1  0  0  0  0
 24 29  2  0  0  0  0
 25 27  1  0  0  0  0
 26 25  1  0  0  0  0
 29 30  1  0  0  0  0
 29 31  1  0  0  0  0
 31 32  1  0  0  0  0
 33 34  1  0  0  0  0
 35 33  1  0  0  0  0
 36 14  1  0  0  0  0
M  END
