1,2,3,4
q = -2.0, confidence = 0.96

 54 59  0  0  0  0  0  0  0  0999 V2000
    0.3737    0.0628   -1.3467 N   0  0  0  0  0  2  0  0  0  0  0  0
    0.3731   -0.0633    1.3472 N   0  0  0  0  0  2  0  0  0  0  0  0
    1.9818    2.0475   -0.4943 N   0  0  0  0  0  0  0  0  0  0  0  0
    1.9801   -2.0486    0.4937 N   0  0  0  0  0  0  0  0  0  0  0  0
   -1.7505   -0.6339   -0.3967 C   0  0  0  0  0  0  0  0  0  0  0  0
   -0.6696   -0.8828   -1.2697 C   0  0  0  0  0  0  0  0  0  0  0  0
   -0.5781   -2.1168   -1.9725 C   0  0  0  0  0  0  0  0  0  0  0  0
    0.2764   -2.2717   -2.6449 H   0  0  0  0  0  0  0  0  0  0  0  0
   -1.5514   -3.0863   -1.8238 C   0  0  0  0  0  0  0  0  0  0  0  0
   -1.4798   -4.0340   -2.3792 H   0  0  0  0  0  0  0  0  0  0  0  0
   -2.6522   -2.8885   -0.9405 C   0  0  0  0  0  0  0  0  0  0  0  0
   -2.7483   -1.6498   -0.2050 C   0  0  0  0  0  0  0  0  0  0  0  0
   -3.8204   -1.4981    0.7264 C   0  0  0  0  0  0  0  0  0  0  0  0
   -3.8897   -0.5679    1.3081 H   0  0  0  0  0  0  0  0  0  0  0  0
   -4.7630   -2.5010    0.9023 C   0  0  0  0  0  0  0  0  0  0  0  0
   -5.5797   -2.3609    1.6268 H   0  0  0  0  0  0  0  0  0  0  0  0
   -4.6823   -3.7067    0.1563 C   0  0  0  0  0  0  0  0  0  0  0  0
   -5.4387   -4.4929    0.3002 H   0  0  0  0  0  0  0  0  0  0  0  0
   -3.6435   -3.8932   -0.7433 C   0  0  0  0  0  0  0  0  0  0  0  0
   -3.5614   -4.8303   -1.3162 H   0  0  0  0  0  0  0  0  0  0  0  0
   -1.7503    0.6347    0.3966 C   0  0  0  0  0  0  0  0  0  0  0  0
   -0.6696    0.8828    1.2702 C   0  0  0  0  0  0  0  0  0  0  0  0
   -0.5778    2.1166    1.9734 C   0  0  0  0  0  0  0  0  0  0  0  0
    0.2764    2.2707    2.6463 H   0  0  0  0  0  0  0  0  0  0  0  0
   -1.5505    3.0866    1.8245 C   0  0  0  0  0  0  0  0  0  0  0  0
   -1.4788    4.0341    2.3803 H   0  0  0  0  0  0  0  0  0  0  0  0
   -2.6511    2.8896    0.9406 C   0  0  0  0  0  0  0  0  0  0  0  0
   -2.7474    1.6512    0.2047 C   0  0  0  0  0  0  0  0  0  0  0  0
   -3.8192    1.5002   -0.7272 C   0  0  0  0  0  0  0  0  0  0  0  0
   -3.8887    0.5703   -1.3092 H   0  0  0  0  0  0  0  0  0  0  0  0
   -4.7612    2.5037   -0.9033 C   0  0  0  0  0  0  0  0  0  0  0  0
   -5.5777    2.3642   -1.6281 H   0  0  0  0  0  0  0  0  0  0  0  0
   -4.6802    3.7091   -0.1569 C   0  0  0  0  0  0  0  0  0  0  0  0
   -5.4362    4.4958   -0.3009 H   0  0  0  0  0  0  0  0  0  0  0  0
   -3.6417    3.8949    0.7433 C   0  0  0  0  0  0  0  0  0  0  0  0
   -3.5594    4.8318    1.3164 H   0  0  0  0  0  0  0  0  0  0  0  0
    0.0739    1.2976   -1.7180 C   0  0  0  0  0  3  0  0  0  0  0  0
   -0.8692    1.5061   -2.2591 H   0  0  0  0  0  0  0  0  0  0  0  0
    0.9417    2.3571   -1.3694 C   0  0  0  0  0  0  0  0  0  0  0  0
    0.9666    3.7389   -1.6810 C   0  0  0  0  0  0  0  0  0  0  0  0
    0.2636    4.2685   -2.3350 H   0  0  0  0  0  0  0  0  0  0  0  0
    2.0654    4.2750   -0.9824 C   0  0  0  0  0  0  0  0  0  0  0  0
    2.4035    5.3183   -0.9776 H   0  0  0  0  0  0  0  0  0  0  0  0
    2.6562    3.2025   -0.2704 C   0  0  0  0  0  3  0  0  0  0  0  0
    3.5290    3.2246    0.3952 H   0  0  0  0  0  0  0  0  0  0  0  0
    0.0728   -1.2980    1.7180 C   0  0  0  0  0  3  0  0  0  0  0  0
   -0.8705   -1.5064    2.2589 H   0  0  0  0  0  0  0  0  0  0  0  0
    0.9400   -2.3579    1.3688 C   0  0  0  0  0  3  0  0  0  0  0  0
    0.9634   -3.7401    1.6789 C   0  0  0  0  0  0  0  0  0  0  0  0
    0.2600   -4.2696    2.3325 H   0  0  0  0  0  0  0  0  0  0  0  0
    2.0612   -4.2768    0.9790 C   0  0  0  0  0  0  0  0  0  0  0  0
    2.3979   -5.3205    0.9729 H   0  0  0  0  0  0  0  0  0  0  0  0
    2.6530   -3.2043    0.2681 C   0  0  0  0  0  0  0  0  0  0  0  0
    3.5256   -3.2266   -0.3979 H   0  0  0  0  0  0  0  0  0  0  0  0
  1  6  1  0  0  0  0
  2 46  1  0  0  0  0
  3 44  1  0  0  0  0
  4 48  1  0  0  0  0
  5 12  1  0  0  0  0
  5 21  1  0  0  0  0
  6  5  2  0  0  0  0
  7  9  2  0  0  0  0
  7  6  1  0  0  0  0
  8  7  1  0  0  0  0
  9 11  1  0  0  0  0
 10  9  1  0  0  0  0
 11 19  2  0  0  0  0
 11 12  1  0  0  0  0
 12 13  2  0  0  0  0
 13 15  1  0  0  0  0
 13 14  1  0  0  0  0
 15 16  1  0  0  0  0
 17 18  1  0  0  0  0
 17 15  2  0  0  0  0
 19 17  1  0  0  0  0
 20 19  1  0  0  0  0
 21 22  1  0  0  0  0
 22  2  1  0  0  0  0
 22 23  2  0  0  0  0
 23 24  1  0  0  0  0
 25 23  1  0  0  0  0
 25 26  1  0  0  0  0
 27 25  2  0  0  0  0
 28 21  2  0  0  0  0
 28 27  1  0  0  0  0
 29 28  1  0  0  0  0
 30 29  1  0  0  0  0
 31 29  2  0  0  0  0
 31 33  1  0  0  0  0
 32 31  1  0  0  0  0
 33 35  2  0  0  0  0
 34 33  1  0  0  0  0
 35 27  1  0  0  0  0
 35 36  1  0  0  0  0
 37 39  1  0  0  0  0
 37  1  1  0  0  0  0
 38 37  1  0  0  0  0
 39  3  2  0  0  0  0
 40 39  1  0  0  0  0
 40 42  2  0  0  0  0
 41 40  1  0  0  0  0
 42 43  1  0  0  0  0
 42 44  1  0  0  0  0
 44 45  1  0  0  0  0
 46 47  1  0  0  0  0
 48 49  1  0  0  0  0
 48 46  1  0  0  0  0
 49 50  1  0  0  0  0
 51 49  2  0  0  0  0
 52 51  1  0  0  0  0
 53  4  2  0  0  0  0
 53 51  1  0  0  0  0
 54 53  1  0  0  0  0
M  END
