1,6,11,16
q = -2.0, confidence = 0.68

 36 36  0  0  1  0  0  0  0  0999 V2000
    1.3840    1.1287   -0.1205 N   0  0  0  0  0  2  0  0  0  0  0  0
    2.6422    0.4800   -0.4776 C   0  0  1  0  0  0  0  0  0  0  0  0
    3.7698    0.7507    0.5236 C   0  0  0  0  0  0  0  0  0  0  0  0
    2.3630   -1.0386   -0.6239 C   0  0  0  0  0  0  0  0  0  0  0  0
    3.1589   -1.8175   -1.1537 O   0  0  0  0  0  0  0  0  0  0  0  0
    1.1287   -1.3840   -0.1205 N   0  0  0  0  0  2  0  0  0  0  0  0
    0.4800   -2.6422   -0.4776 C   0  0  1  0  0  0  0  0  0  0  0  0
    0.7507   -3.7698    0.5236 C   0  0  0  0  0  0  0  0  0  0  0  0
   -1.0387   -2.3630   -0.6239 C   0  0  0  0  0  0  0  0  0  0  0  0
   -1.8175   -3.1588   -1.1538 O   0  0  0  0  0  0  0  0  0  0  0  0
   -1.3840   -1.1287   -0.1205 N   0  0  0  0  0  2  0  0  0  0  0  0
   -2.6422   -0.4800   -0.4776 C   0  0  1  0  0  0  0  0  0  0  0  0
   -3.7698   -0.7506    0.5236 C   0  0  0  0  0  0  0  0  0  0  0  0
   -2.3630    1.0386   -0.6239 C   0  0  0  0  0  0  0  0  0  0  0  0
   -3.1589    1.8175   -1.1537 O   0  0  0  0  0  0  0  0  0  0  0  0
   -1.1287    1.3839   -0.1205 N   0  0  0  0  0  2  0  0  0  0  0  0
   -0.4800    2.6422   -0.4776 C   0  0  1  0  0  0  0  0  0  0  0  0
   -0.7507    3.7698    0.5236 C   0  0  0  0  0  0  0  0  0  0  0  0
    1.0387    2.3630   -0.6239 C   0  0  0  0  0  0  0  0  0  0  0  0
    1.8175    3.1588   -1.1538 O   0  0  0  0  0  0  0  0  0  0  0  0
    2.9689    0.8438   -1.4774 H   0  0  0  0  0  0  0  0  0  0  0  0
    4.0181    1.8301    0.5285 H   0  0  0  0  0  0  0  0  0  0  0  0
    4.6702    0.1684    0.2418 H   0  0  0  0  0  0  0  0  0  0  0  0
    3.4561    0.4519    1.5450 H   0  0  0  0  0  0  0  0  0  0  0  0
    0.8438   -2.9689   -1.4774 H   0  0  0  0  0  0  0  0  0  0  0  0
    1.8301   -4.0181    0.5285 H   0  0  0  0  0  0  0  0  0  0  0  0
    0.1684   -4.6702    0.2417 H   0  0  0  0  0  0  0  0  0  0  0  0
    0.4519   -3.4561    1.5450 H   0  0  0  0  0  0  0  0  0  0  0  0
   -2.9689   -0.8438   -1.4773 H   0  0  0  0  0  0  0  0  0  0  0  0
   -4.0181   -1.8301    0.5286 H   0  0  0  0  0  0  0  0  0  0  0  0
   -4.6702   -0.1683    0.2418 H   0  0  0  0  0  0  0  0  0  0  0  0
   -3.4561   -0.4518    1.5450 H   0  0  0  0  0  0  0  0  0  0  0  0
   -0.8438    2.9689   -1.4774 H   0  0  0  0  0  0  0  0  0  0  0  0
   -1.8301    4.0181    0.5285 H   0  0  0  0  0  0  0  0  0  0  0  0
   -0.1684    4.6702    0.2417 H   0  0  0  0  0  0  0  0  0  0  0  0
   -0.4519    3.4561    1.5450 H   0  0  0  0  0  0  0  0  0  0  0  0
  2 21  1  6  0  0  0
  2  1  1  0  0  0  0
  2  3  1  0  0  0  0
  3 22  1  0  0  0  0
  3 24  1  0  0  0  0
  4  2  1  0  0  0  0
  4  6  1  0  0  0  0
  5  4  2  0  0  0  0
  7 25  1  6  0  0  0
  7  6  1  0  0  0  0
  7  8  1  0  0  0  0
  8 26  1  0  0  0  0
  8 28  1  0  0  0  0
  9  7  1  0  0  0  0
  9 11  1  0  0  0  0
 10  9  2  0  0  0  0
 12 29  1  6  0  0  0
 12 11  1  0  0  0  0
 12 13  1  0  0  0  0
 13 30  1  0  0  0  0
 13 32  1  0  0  0  0
 14 12  1  0  0  0  0
 14 16  1  0  0  0  0
 15 14  2  0  0  0  0
 17 33  1  6  0  0  0
 17 16  1  0  0  0  0
 17 18  1  0  0  0  0
 18 34  1  0  0  0  0
 18 36  1  0  0  0  0
 19 17  1  0  0  0  0
 19  1  1  0  0  0  0
 20 19  2  0  0  0  0
 23  3  1  0  0  0  0
 27  8  1  0  0  0  0
 31 13  1  0  0  0  0
 35 18  1  0  0  0  0
M  END
