1,2,3,4
q = -2.0, confidence = 0.606

 76 82  0  0  1  0  0  0  0  0999 V2000
    1.2422    1.3046   -0.8298 N   0  0  0  0  0  2  0  0  0  0  0  0
   -1.2423    1.3047   -0.8300 N   0  0  0  0  0  2  0  0  0  0  0  0
   -1.2105   -1.3251   -0.9384 N   0  0  0  0  0  0  0  0  0  0  0  0
    1.2105   -1.3251   -0.9383 N   0  0  0  0  0  0  0  0  0  0  0  0
    0.7772    2.7052   -0.7527 C   0  0  1  0  0  0  0  0  0  0  0  0
    1.1055    3.2181   -1.6887 H   0  0  0  0  0  0  0  0  0  0  0  0
   -0.7772    2.7052   -0.7527 C   0  0  2  0  0  0  0  0  0  0  0  0
   -1.1055    3.2183   -1.6885 H   0  0  0  0  0  0  0  0  0  0  0  0
   -1.6327    3.2620    0.3967 C   0  0  0  0  0  0  0  0  0  0  0  0
   -1.7337    4.3645    0.3814 H   0  0  0  0  0  0  0  0  0  0  0  0
   -1.2005    2.9615    1.3741 H   0  0  0  0  0  0  0  0  0  0  0  0
   -2.9705    2.5125    0.1633 C   0  0  0  0  0  0  0  0  0  0  0  0
   -3.6017    2.4082    1.0669 H   0  0  0  0  0  0  0  0  0  0  0  0
   -3.5885    3.0387   -0.5996 H   0  0  0  0  0  0  0  0  0  0  0  0
   -2.4912    1.1690   -0.3678 C   0  0  0  0  0  0  0  0  0  0  0  0
   -3.1965   -0.0701   -0.3076 C   0  0  0  0  0  0  0  0  0  0  0  0
   -2.5366   -1.2920   -0.5956 C   0  0  0  0  0  3  0  0  0  0  0  0
   -2.9519   -2.6724   -0.3908 C   0  0  0  0  0  0  0  0  0  0  0  0
   -3.9689   -2.9907   -0.1331 H   0  0  0  0  0  0  0  0  0  0  0  0
   -1.8234   -3.4755   -0.5324 C   0  0  0  0  0  0  0  0  0  0  0  0
   -1.7740   -4.5644   -0.4120 H   0  0  0  0  0  0  0  0  0  0  0  0
   -0.7139   -2.6069   -0.8431 C   0  0  0  0  0  0  0  0  0  0  0  0
    0.7139   -2.6069   -0.8430 C   0  0  0  0  0  0  0  0  0  0  0  0
    1.8233   -3.4755   -0.5323 C   0  0  0  0  0  0  0  0  0  0  0  0
    1.7740   -4.5644   -0.4120 H   0  0  0  0  0  0  0  0  0  0  0  0
    2.9519   -2.6724   -0.3908 C   0  0  0  0  0  0  0  0  0  0  0  0
    3.9688   -2.9908   -0.1331 H   0  0  0  0  0  0  0  0  0  0  0  0
    2.5366   -1.2920   -0.5956 C   0  0  0  0  0  3  0  0  0  0  0  0
    3.1965   -0.0701   -0.3075 C   0  0  0  0  0  0  0  0  0  0  0  0
    2.4912    1.1690   -0.3678 C   0  0  0  0  0  0  0  0  0  0  0  0
    2.9706    2.5125    0.1632 C   0  0  0  0  0  0  0  0  0  0  0  0
    3.5886    3.0386   -0.5997 H   0  0  0  0  0  0  0  0  0  0  0  0
    3.6018    2.4083    1.0668 H   0  0  0  0  0  0  0  0  0  0  0  0
    1.6328    3.2621    0.3965 C   0  0  0  0  0  0  0  0  0  0  0  0
    1.2006    2.9618    1.3740 H   0  0  0  0  0  0  0  0  0  0  0  0
    1.7338    4.3646    0.3811 H   0  0  0  0  0  0  0  0  0  0  0  0
   -4.5981   -0.0830    0.2103 C   0  0  0  0  0  0  0  0  0  0  0  0
   -4.8431   -0.3239    1.5864 C   0  0  0  0  0  0  0  0  0  0  0  0
   -6.1703   -0.3189    2.0552 C   0  0  0  0  0  0  0  0  0  0  0  0
   -6.3566   -0.5014    3.1264 H   0  0  0  0  0  0  0  0  0  0  0  0
   -7.2606   -0.0857    1.1984 C   0  0  0  0  0  0  0  0  0  0  0  0
   -6.9932    0.1526   -0.1626 C   0  0  0  0  0  0  0  0  0  0  0  0
   -7.8326    0.3397   -0.8527 H   0  0  0  0  0  0  0  0  0  0  0  0
   -5.6827    0.1576   -0.6717 C   0  0  0  0  0  0  0  0  0  0  0  0
   -3.6956   -0.5767    2.5330 C   0  0  0  0  0  0  0  0  0  0  0  0
   -2.9458    0.2408    2.4921 H   0  0  0  0  0  0  0  0  0  0  0  0
   -3.1481   -1.5029    2.2610 H   0  0  0  0  0  0  0  0  0  0  0  0
   -4.0474   -0.6745    3.5780 H   0  0  0  0  0  0  0  0  0  0  0  0
   -8.6784   -0.1172    1.7132 C   0  0  0  0  0  0  0  0  0  0  0  0
   -8.7196    0.0375    2.8092 H   0  0  0  0  0  0  0  0  0  0  0  0
   -9.1589   -1.0968    1.5008 H   0  0  0  0  0  0  0  0  0  0  0  0
   -9.3056    0.6592    1.2307 H   0  0  0  0  0  0  0  0  0  0  0  0
   -5.4261    0.4050   -2.1376 C   0  0  0  0  0  0  0  0  0  0  0  0
   -6.3707    0.5526   -2.6956 H   0  0  0  0  0  0  0  0  0  0  0  0
   -4.8767   -0.4428   -2.5959 H   0  0  0  0  0  0  0  0  0  0  0  0
   -4.7888    1.3001   -2.2948 H   0  0  0  0  0  0  0  0  0  0  0  0
    4.5981   -0.0830    0.2102 C   0  0  0  0  0  0  0  0  0  0  0  0
    5.6826    0.1577   -0.6717 C   0  0  0  0  0  0  0  0  0  0  0  0
    6.9932    0.1528   -0.1627 C   0  0  0  0  0  0  0  0  0  0  0  0
    7.8326    0.3399   -0.8527 H   0  0  0  0  0  0  0  0  0  0  0  0
    7.2606   -0.0856    1.1983 C   0  0  0  0  0  0  0  0  0  0  0  0
    6.1703   -0.3189    2.0551 C   0  0  0  0  0  0  0  0  0  0  0  0
    6.3567   -0.5015    3.1263 H   0  0  0  0  0  0  0  0  0  0  0  0
    4.8432   -0.3240    1.5864 C   0  0  0  0  0  0  0  0  0  0  0  0
    5.4260    0.4052   -2.1376 C   0  0  0  0  0  0  0  0  0  0  0  0
    6.3706    0.5528   -2.6956 H   0  0  0  0  0  0  0  0  0  0  0  0
    4.7888    1.3004   -2.2947 H   0  0  0  0  0  0  0  0  0  0  0  0
    4.8765   -0.4425   -2.5960 H   0  0  0  0  0  0  0  0  0  0  0  0
    8.6784   -0.1175    1.7131 C   0  0  0  0  0  0  0  0  0  0  0  0
    9.3075    0.6544    1.2259 H   0  0  0  0  0  0  0  0  0  0  0  0
    9.1564   -1.0996    1.5069 H   0  0  0  0  0  0  0  0  0  0  0  0
    8.7201    0.0438    2.8082 H   0  0  0  0  0  0  0  0  0  0  0  0
    3.6957   -0.5768    2.5330 C   0  0  0  0  0  0  0  0  0  0  0  0
    4.0475   -0.6743    3.5781 H   0  0  0  0  0  0  0  0  0  0  0  0
    3.1485   -1.5032    2.2612 H   0  0  0  0  0  0  0  0  0  0  0  0
    2.9457    0.2404    2.4919 H   0  0  0  0  0  0  0  0  0  0  0  0
  1  5  1  0  0  0  0
  1 30  1  0  0  0  0
  2  7  1  0  0  0  0
  2 15  1  0  0  0  0
  3 22  2  0  0  0  0
  3 17  1  0  0  0  0
  4 23  2  0  0  0  0
  4 28  1  0  0  0  0
  5  6  1  6  0  0  0
  5  7  1  0  0  0  0
  5 34  1  0  0  0  0
  7  8  1  6  0  0  0
  7  9  1  0  0  0  0
  9 11  1  0  0  0  0
 10  9  1  0  0  0  0
 12  9  1  0  0  0  0
 12 13  1  0  0  0  0
 14 12  1  0  0  0  0
 15 16  2  0  0  0  0
 15 12  1  0  0  0  0
 16 37  1  0  0  0  0
 17 18  1  0  0  0  0
 17 16  1  0  0  0  0
 18 19  1  0  0  0  0
 20 21  1  0  0  0  0
 20 18  2  0  0  0  0
 22 23  1  0  0  0  0
 22 20  1  0  0  0  0
 23 24  1  0  0  0  0
 24 25  1  0  0  0  0
 24 26  2  0  0  0  0
 26 27  1  0  0  0  0
 28 26  1  0  0  0  0
 28 29  1  0  0  0  0
 29 57  1  0  0  0  0
 30 29  2  0  0  0  0
 30 31  1  0  0  0  0
 31 34  1  0  0  0  0
 31 33  1  0  0  0  0
 32 31  1  0  0  0  0
 34 35  1  0  0  0  0
 36 34  1  0  0  0  0
 37 38  1  0  0  0  0
 38 39  2  0  0  0  0
 38 45  1  0  0  0  0
 39 40  1  0  0  0  0
 41 49  1  0  0  0  0
 41 39  1  0  0  0  0
 42 41  2  0  0  0  0
 43 42  1  0  0  0  0
 44 42  1  0  0  0  0
 44 37  2  0  0  0  0
 45 48  1  0  0  0  0
 46 45  1  0  0  0  0
 47 45  1  0  0  0  0
 49 50  1  0  0  0  0
 51 49  1  0  0  0  0
 52 49  1  0  0  0  0
 53 44  1  0  0  0  0
 54 53  1  0  0  0  0
 55 53  1  0  0  0  0
 56 53  1  0  0  0  0
 57 64  1  0  0  0  0
 58 59  1  0  0  0  0
 58 57  2  0  0  0  0
 59 61  2  0  0  0  0
 60 59  1  0  0  0  0
 61 69  1  0  0  0  0
 61 62  1  0  0  0  0
 62 63  1  0  0  0  0
 64 62  2  0  0  0  0
 64 73  1  0  0  0  0
 65 58  1  0  0  0  0
 66 65  1  0  0  0  0
 67 65  1  0  0  0  0
 68 65  1  0  0  0  0
 69 72  1  0  0  0  0
 70 69  1  0  0  0  0
 71 69  1  0  0  0  0
 73 74  1  0  0  0  0
 75 73  1  0  0  0  0
 76 73  1  0  0  0  0
M  END
