2,4,7,9
q = 0.0, confidence = 0.994

 54 57  0  0  1  0  0  0  0  0999 V2000
    5.0846   -0.8352    0.3910 O   0  0  0  0  0  0  0  0  0  0  0  0
    0.2411   -0.2360    2.0664 N   0  0  0  0  0  2  0  0  0  0  0  0
    2.2834    1.0903    1.7224 C   0  0  0  0  0  0  0  0  0  0  0  0
    1.2085   -1.8261   -0.2867 N   0  0  0  0  0  2  0  0  0  0  0  0
    3.1222    0.0283    1.3474 C   0  0  0  0  0  0  0  0  0  0  0  0
    2.8409   -1.0123    1.5516 H   0  0  0  0  0  0  0  0  0  0  0  0
   -1.1502   -1.4636   -1.3606 N   0  0  0  0  0  2  0  0  0  0  0  0
    4.3621    0.2744    0.7287 C   0  0  0  0  0  0  0  0  0  0  0  0
   -0.9173   -2.4003    1.1512 N   0  0  0  0  0  0  0  0  0  0  0  0
    4.7789    1.6011    0.5050 C   0  0  0  0  0  0  0  0  0  0  0  0
    5.7424    1.8216    0.0268 H   0  0  0  0  0  0  0  0  0  0  0  0
    3.9430    2.6584    0.9037 C   0  0  0  0  0  0  0  0  0  0  0  0
    4.2618    3.6931    0.7087 H   0  0  0  0  0  0  0  0  0  0  0  0
    2.7035    2.4205    1.5023 C   0  0  0  0  0  0  0  0  0  0  0  0
    2.0262    3.2507    1.7406 H   0  0  0  0  0  0  0  0  0  0  0  0
    6.3246   -0.6511   -0.2612 C   0  0  0  0  0  0  0  0  0  0  0  0
    6.7301   -1.6618   -0.4555 H   0  0  0  0  0  0  0  0  0  0  0  0
    7.0494   -0.0880    0.3692 H   0  0  0  0  0  0  0  0  0  0  0  0
    6.2101   -0.1149   -1.2307 H   0  0  0  0  0  0  0  0  0  0  0  0
   -1.5017   -1.9061    2.4237 C   0  0  0  0  0  0  0  0  0  0  0  0
   -1.5257   -2.7056    3.2005 H   0  0  0  0  0  0  0  0  0  0  0  0
   -2.5518   -1.6056    2.2419 H   0  0  0  0  0  0  0  0  0  0  0  0
   -0.7138   -0.7114    2.9131 C   0  0  2  0  0  3  0  0  0  0  0  0
   -0.9952   -0.1064    4.1395 C   0  0  0  0  0  0  0  0  0  0  0  0
   -1.8005   -0.5035    4.7727 H   0  0  0  0  0  0  0  0  0  0  0  0
   -0.2713    1.0372    4.5026 C   0  0  0  0  0  0  0  0  0  0  0  0
   -0.4977    1.5683    5.4387 H   0  0  0  0  0  0  0  0  0  0  0  0
    0.7680    1.4688    3.6748 C   0  0  0  0  0  0  0  0  0  0  0  0
    1.4095    2.3136    3.9598 H   0  0  0  0  0  0  0  0  0  0  0  0
    1.0435    0.7871    2.4726 C   0  0  0  0  0  0  0  0  0  0  0  0
    0.3027   -3.2177    1.4194 C   0  0  0  0  0  0  0  0  0  0  0  0
    0.0431   -4.2806    1.6152 H   0  0  0  0  0  0  0  0  0  0  0  0
    0.7681   -2.8120    2.3421 H   0  0  0  0  0  0  0  0  0  0  0  0
    1.2781   -3.0598    0.2934 C   0  0  2  0  0  3  0  0  0  0  0  0
    2.2300   -4.0085   -0.0895 C   0  0  0  0  0  0  0  0  0  0  0  0
    2.2457   -4.9916    0.4036 H   0  0  0  0  0  0  0  0  0  0  0  0
    3.1558   -3.6808   -1.0926 C   0  0  0  0  0  0  0  0  0  0  0  0
    3.9195   -4.4061   -1.4081 H   0  0  0  0  0  0  0  0  0  0  0  0
    3.0785   -2.4092   -1.6823 C   0  0  0  0  0  0  0  0  0  0  0  0
    3.7806   -2.1031   -2.4707 H   0  0  0  0  0  0  0  0  0  0  0  0
    2.0929   -1.5111   -1.2694 C   0  0  0  0  0  0  0  0  0  0  0  0
    1.9812   -0.5025   -1.6902 H   0  0  0  0  0  0  0  0  0  0  0  0
   -1.8905   -3.1011    0.2664 C   0  0  0  0  0  0  0  0  0  0  0  0
   -2.9047   -2.7480    0.5517 H   0  0  0  0  0  0  0  0  0  0  0  0
   -1.8341   -4.2032    0.3904 H   0  0  0  0  0  0  0  0  0  0  0  0
   -1.7262   -2.6833   -1.1704 C   0  0  1  0  0  3  0  0  0  0  0  0
   -2.2587   -3.4132   -2.2382 C   0  0  0  0  0  0  0  0  0  0  0  0
   -2.7087   -4.3991   -2.0509 H   0  0  0  0  0  0  0  0  0  0  0  0
   -2.2374   -2.8572   -3.5257 C   0  0  0  0  0  0  0  0  0  0  0  0
   -2.6589   -3.4097   -4.3784 H   0  0  0  0  0  0  0  0  0  0  0  0
   -1.6854   -1.5804   -3.6980 C   0  0  0  0  0  0  0  0  0  0  0  0
   -1.6679   -1.0902   -4.6815 H   0  0  0  0  0  0  0  0  0  0  0  0
   -1.1427   -0.9130   -2.5954 C   0  0  0  0  0  0  0  0  0  0  0  0
   -0.7157    0.0955   -2.6703 H   0  0  0  0  0  0  0  0  0  0  0  0
  1  8  1  0  0  0  0
  2 30  1  0  0  0  0
  2 23  1  0  0  0  0
  3 30  1  0  0  0  0
  4 34  1  0  0  0  0
  5  6  1  0  0  0  0
  5  3  2  0  0  0  0
  7 46  1  0  0  0  0
  8  5  1  0  0  0  0
  9 31  1  0  0  0  0
  9 20  1  0  0  0  0
 10  8  2  0  0  0  0
 10 12  1  0  0  0  0
 11 10  1  0  0  0  0
 12 14  2  0  0  0  0
 13 12  1  0  0  0  0
 14  3  1  0  0  0  0
 14 15  1  0  0  0  0
 16 18  1  0  0  0  0
 16  1  1  0  0  0  0
 17 16  1  0  0  0  0
 19 16  1  0  0  0  0
 20 21  1  0  0  0  0
 22 20  1  0  0  0  0
 23 20  1  6  0  0  0
 23 24  1  0  0  0  0
 24 26  2  0  0  0  0
 24 25  1  0  0  0  0
 26 27  1  0  0  0  0
 28 29  1  0  0  0  0
 28 26  1  0  0  0  0
 30 28  2  0  0  0  0
 31 32  1  0  0  0  0
 31 33  1  0  0  0  0
 34 31  1  1  0  0  0
 35 34  1  0  0  0  0
 35 36  1  0  0  0  0
 37 35  2  0  0  0  0
 38 37  1  0  0  0  0
 39 41  2  0  0  0  0
 39 37  1  0  0  0  0
 40 39  1  0  0  0  0
 41  4  1  0  0  0  0
 42 41  1  0  0  0  0
 43 45  1  0  0  0  0
 43 44  1  0  0  0  0
 43  9  1  0  0  0  0
 46 43  1  1  0  0  0
 47 48  1  0  0  0  0
 47 46  1  0  0  0  0
 49 47  2  0  0  0  0
 50 49  1  0  0  0  0
 51 49  1  0  0  0  0
 51 53  2  0  0  0  0
 52 51  1  0  0  0  0
 53  7  1  0  0  0  0
 54 53  1  0  0  0  0
M  END
