3,4,5,6
q = 0.0, confidence = 0.994

 66 69  0  0  0  0  0  0  0  0999 V2000
   -1.9875    1.2582   -1.0411 O   0  0  0  0  0  0  0  0  0  0  0  0
    0.7903    1.8160   -1.0147 O   0  0  0  0  0  0  0  0  0  0  0  0
   -0.2665    0.7323    1.4800 N   0  0  0  0  0  2  0  0  0  0  0  0
   -1.9505   -1.7256   -0.7626 N   0  0  0  0  0  2  0  0  0  0  0  0
    2.4371   -0.8895   -0.1488 N   0  0  0  0  0  2  0  0  0  0  0  0
    0.3901   -2.3599    1.2200 N   0  0  0  0  0  0  0  0  0  0  0  0
    1.5513    2.6272   -0.2177 C   0  0  0  0  0  0  0  0  0  0  0  0
   -3.2073    1.1703   -0.4393 C   0  0  0  0  0  0  0  0  0  0  0  0
   -0.9889   -3.9873   -0.2147 C   0  0  0  0  0  0  0  0  0  0  0  0
   -1.7371   -4.2048    0.5764 H   0  0  0  0  0  0  0  0  0  0  0  0
   -0.8187   -4.9596   -0.7220 H   0  0  0  0  0  0  0  0  0  0  0  0
    4.6624   -0.9146   -1.0524 C   0  0  0  0  0  0  0  0  0  0  0  0
    5.3728   -0.5421   -1.8039 H   0  0  0  0  0  0  0  0  0  0  0  0
    4.0956   -2.3173    0.8342 C   0  0  0  0  0  0  0  0  0  0  0  0
    4.3565   -3.0732    1.5897 H   0  0  0  0  0  0  0  0  0  0  0  0
   -0.1049    2.3863   -1.9916 C   0  0  0  0  0  0  0  0  0  0  0  0
   -0.1193    1.6589   -2.8295 H   0  0  0  0  0  0  0  0  0  0  0  0
    0.2711    3.3686   -2.3425 H   0  0  0  0  0  0  0  0  0  0  0  0
   -1.6052   -3.0543   -1.2680 C   0  0  0  0  0  0  0  0  0  0  0  0
   -0.8828   -2.8888   -2.0988 H   0  0  0  0  0  0  0  0  0  0  0  0
   -2.5053   -3.5518   -1.6954 H   0  0  0  0  0  0  0  0  0  0  0  0
   -5.0920   -0.2132    0.2605 C   0  0  0  0  0  0  0  0  0  0  0  0
   -5.5580   -1.2083    0.3334 H   0  0  0  0  0  0  0  0  0  0  0  0
   -1.4796    2.5542   -1.3760 C   0  0  0  0  0  0  0  0  0  0  0  0
   -1.4108    3.1882   -0.4636 H   0  0  0  0  0  0  0  0  0  0  0  0
   -2.1604    3.0544   -2.1003 H   0  0  0  0  0  0  0  0  0  0  0  0
    3.3351   -0.4678   -1.0568 C   0  0  0  0  0  3  0  0  0  0  0  0
    2.9497    0.2220   -1.8242 H   0  0  0  0  0  0  0  0  0  0  0  0
   -0.7765   -1.1087    3.1198 C   0  0  0  0  0  0  0  0  0  0  0  0
   -1.5347   -1.3360    3.8978 H   0  0  0  0  0  0  0  0  0  0  0  0
    0.1532   -0.8807    3.6834 H   0  0  0  0  0  0  0  0  0  0  0  0
   -5.1865    2.1715    0.5871 C   0  0  0  0  0  0  0  0  0  0  0  0
   -5.7165    3.0747    0.9248 H   0  0  0  0  0  0  0  0  0  0  0  0
    0.3964    1.7612    1.9017 C   0  0  0  0  0  3  0  0  0  0  0  0
    0.1979    2.1218    2.9387 H   0  0  0  0  0  0  0  0  0  0  0  0
   -3.1974   -1.3988   -0.7194 C   0  0  0  0  0  3  0  0  0  0  0  0
   -3.9525   -2.1703   -1.0011 H   0  0  0  0  0  0  0  0  0  0  0  0
    3.3147    4.2869    0.0231 C   0  0  0  0  0  0  0  0  0  0  0  0
    4.0616    4.9495   -0.4390 H   0  0  0  0  0  0  0  0  0  0  0  0
   -1.2535    0.1594    2.3958 C   0  0  0  0  0  0  0  0  0  0  0  0
   -2.1666   -0.0730    1.8093 H   0  0  0  0  0  0  0  0  0  0  0  0
   -1.5416    0.9124    3.1635 H   0  0  0  0  0  0  0  0  0  0  0  0
   -0.6391   -2.3778    2.2787 C   0  0  0  0  0  0  0  0  0  0  0  0
   -0.4583   -3.2433    2.9644 H   0  0  0  0  0  0  0  0  0  0  0  0
   -1.6131   -2.5632    1.7880 H   0  0  0  0  0  0  0  0  0  0  0  0
    2.5017    3.4884   -0.7914 C   0  0  0  0  0  0  0  0  0  0  0  0
    2.6095    3.5112   -1.8858 H   0  0  0  0  0  0  0  0  0  0  0  0
    2.2278    3.3925    1.9909 C   0  0  0  0  0  0  0  0  0  0  0  0
    2.1053    3.3641    3.0850 H   0  0  0  0  0  0  0  0  0  0  0  0
    1.3999    2.5578    1.1960 C   0  0  0  0  0  0  0  0  0  0  0  0
   -3.7916   -0.1264   -0.2935 C   0  0  0  0  0  0  0  0  0  0  0  0
   -3.9191    2.3039    0.0016 C   0  0  0  0  0  0  0  0  0  0  0  0
   -3.4935    3.3078   -0.1166 H   0  0  0  0  0  0  0  0  0  0  0  0
    2.7919   -1.7973    0.7792 C   0  0  0  0  0  0  0  0  0  0  0  0
    5.0461   -1.8589   -0.0891 C   0  0  0  0  0  0  0  0  0  0  0  0
    6.0749   -2.2485   -0.0657 H   0  0  0  0  0  0  0  0  0  0  0  0
   -5.7839    0.9103    0.7197 C   0  0  0  0  0  0  0  0  0  0  0  0
   -6.7861    0.8063    1.1584 H   0  0  0  0  0  0  0  0  0  0  0  0
    3.1815    4.2381    1.4218 C   0  0  0  0  0  0  0  0  0  0  0  0
    3.8160    4.8664    2.0629 H   0  0  0  0  0  0  0  0  0  0  0  0
    1.7330   -2.1804    1.7919 C   0  0  0  0  0  0  0  0  0  0  0  0
    2.0586   -3.0935    2.3460 H   0  0  0  0  0  0  0  0  0  0  0  0
    1.6840   -1.3593    2.5357 H   0  0  0  0  0  0  0  0  0  0  0  0
    0.3589   -3.6019    0.4034 C   0  0  0  0  0  0  0  0  0  0  0  0
    0.7022   -4.4590    1.0353 H   0  0  0  0  0  0  0  0  0  0  0  0
    1.1123   -3.4804   -0.4032 H   0  0  0  0  0  0  0  0  0  0  0  0
  1  8  1  0  0  0  0
  2  7  1  0  0  0  0
  3 34  1  0  0  0  0
  3 40  1  0  0  0  0
  4 36  1  0  0  0  0
  5 54  1  0  0  0  0
  6 61  1  0  0  0  0
  6 43  1  0  0  0  0
  7 50  1  0  0  0  0
  8 51  2  0  0  0  0
  8 52  1  0  0  0  0
  9 64  1  0  0  0  0
  9 10  1  0  0  0  0
 11  9  1  0  0  0  0
 12 55  2  0  0  0  0
 13 12  1  0  0  0  0
 14 15  1  0  0  0  0
 16 24  1  0  0  0  0
 16  2  1  0  0  0  0
 17 16  1  0  0  0  0
 18 16  1  0  0  0  0
 19  4  1  0  0  0  0
 19  9  1  0  0  0  0
 20 19  1  0  0  0  0
 21 19  1  0  0  0  0
 22 23  1  0  0  0  0
 22 57  2  0  0  0  0
 24  1  1  0  0  0  0
 24 25  1  0  0  0  0
 26 24  1  0  0  0  0
 27 12  1  0  0  0  0
 27  5  1  0  0  0  0
 28 27  1  0  0  0  0
 29 31  1  0  0  0  0
 29 30  1  0  0  0  0
 32 57  1  0  0  0  0
 32 33  1  0  0  0  0
 34 35  1  0  0  0  0
 36 51  1  0  0  0  0
 37 36  1  0  0  0  0
 38 59  2  0  0  0  0
 39 38  1  0  0  0  0
 40 29  1  0  0  0  0
 40 42  1  0  0  0  0
 41 40  1  0  0  0  0
 43 44  1  0  0  0  0
 43 29  1  0  0  0  0
 45 43  1  0  0  0  0
 46  7  2  0  0  0  0
 46 38  1  0  0  0  0
 47 46  1  0  0  0  0
 48 49  1  0  0  0  0
 50 34  1  0  0  0  0
 50 48  2  0  0  0  0
 51 22  1  0  0  0  0
 52 32  2  0  0  0  0
 53 52  1  0  0  0  0
 54 14  2  0  0  0  0
 54 61  1  0  0  0  0
 55 56  1  0  0  0  0
 55 14  1  0  0  0  0
 57 58  1  0  0  0  0
 59 48  1  0  0  0  0
 59 60  1  0  0  0  0
 61 62  1  0  0  0  0
 61 63  1  0  0  0  0
 64 65  1  0  0  0  0
 64  6  1  0  0  0  0
 66 64  1  0  0  0  0
M  END
