3,6,17,21
 OpenBabel05122313063D

 46 45  0  0  1  0  0  0  0  0999 V2000
   -1.1904   -2.7373   -0.3999 O   0  0  0  0  0  1  0  0  0  0  0  0
    0.0006   -2.8595   -0.4298 H   0  0  0  0  0  0  0  0  0  0  0  0
   -1.3859   -1.4626   -0.1912 N   0  0  0  0  0  2  0  0  0  0  0  0
   -2.6026   -1.0269    0.0502 C   0  0  2  0  0  3  0  0  0  0  0  0
   -2.7116    0.4678    0.2882 C   0  0  0  0  0  0  0  0  0  0  0  0
   -1.5034    1.0550   -0.4267 N   0  0  0  0  0  0  0  0  0  0  0  0
   -1.7059    0.9336   -1.4350 H   0  0  0  0  0  0  0  0  0  0  0  0
   -1.2754    2.5019   -0.2078 C   0  0  0  0  0  0  0  0  0  0  0  0
   -1.2071    2.6810    0.8823 H   0  0  0  0  0  0  0  0  0  0  0  0
   -2.1473    3.0793   -0.5803 H   0  0  0  0  0  0  0  0  0  0  0  0
   -0.0001    2.9953   -0.8820 C   0  0  0  0  0  0  0  0  0  0  0  0
    0.0006    2.7393   -1.9656 H   0  0  0  0  0  0  0  0  0  0  0  0
   -0.0001    4.1032   -0.8414 H   0  0  0  0  0  0  0  0  0  0  0  0
    1.2743    2.5018   -0.2062 C   0  0  0  0  0  0  0  0  0  0  0  0
    2.1467    3.0797   -0.5768 H   0  0  0  0  0  0  0  0  0  0  0  0
    1.2042    2.6798    0.8840 H   0  0  0  0  0  0  0  0  0  0  0  0
    1.5030    1.0551   -0.4262 N   0  0  0  0  0  0  0  0  0  0  0  0
    1.7048    0.9346   -1.4348 H   0  0  0  0  0  0  0  0  0  0  0  0
    2.7123    0.4681    0.2873 C   0  0  0  0  0  0  0  0  0  0  0  0
    2.6024   -1.0267    0.0509 C   0  0  2  0  0  3  0  0  0  0  0  0
    1.3858   -1.4622   -0.1905 N   0  0  0  0  0  2  0  0  0  0  0  0
    1.1909   -2.7373   -0.3978 O   0  0  0  0  0  0  0  0  0  0  0  0
   -3.7543   -1.9678    0.1602 C   0  0  0  0  0  0  0  0  0  0  0  0
   -4.2333   -2.1364   -0.8290 H   0  0  0  0  0  0  0  0  0  0  0  0
   -4.5330   -1.5843    0.8465 H   0  0  0  0  0  0  0  0  0  0  0  0
   -3.3951   -2.9527    0.5138 H   0  0  0  0  0  0  0  0  0  0  0  0
   -4.0106    1.0359   -0.3061 C   0  0  0  0  0  0  0  0  0  0  0  0
   -4.0862    0.8277   -1.3929 H   0  0  0  0  0  0  0  0  0  0  0  0
   -4.0847    2.1286   -0.1439 H   0  0  0  0  0  0  0  0  0  0  0  0
   -4.8919    0.5803    0.1827 H   0  0  0  0  0  0  0  0  0  0  0  0
   -2.6250    0.7490    1.7993 C   0  0  0  0  0  0  0  0  0  0  0  0
   -3.3791    0.1365    2.3293 H   0  0  0  0  0  0  0  0  0  0  0  0
   -2.8333    1.8088    2.0450 H   0  0  0  0  0  0  0  0  0  0  0  0
   -1.6273    0.4660    2.1904 H   0  0  0  0  0  0  0  0  0  0  0  0
    3.7527   -1.9693    0.1622 C   0  0  0  0  0  0  0  0  0  0  0  0
    3.3943   -2.9482    0.5331 H   0  0  0  0  0  0  0  0  0  0  0  0
    4.5399   -1.5789    0.8346 H   0  0  0  0  0  0  0  0  0  0  0  0
    4.2197   -2.1541   -0.8298 H   0  0  0  0  0  0  0  0  0  0  0  0
    4.0102    1.0355   -0.3101 C   0  0  0  0  0  0  0  0  0  0  0  0
    4.0841    0.8253   -1.3967 H   0  0  0  0  0  0  0  0  0  0  0  0
    4.8924    0.5812    0.1781 H   0  0  0  0  0  0  0  0  0  0  0  0
    4.0842    2.1285   -0.1501 H   0  0  0  0  0  0  0  0  0  0  0  0
    2.6284    0.7508    1.7982 C   0  0  0  0  0  0  0  0  0  0  0  0
    2.8374    1.8108    2.0424 H   0  0  0  0  0  0  0  0  0  0  0  0
    3.3834    0.1387    2.3274 H   0  0  0  0  0  0  0  0  0  0  0  0
    1.6314    0.4684    2.1915 H   0  0  0  0  0  0  0  0  0  0  0  0
  1  3  1  0  0  0  0
  2 22  1  0  0  0  0
  4  3  1  1  0  0  0
  4 23  1  0  0  0  0
  4  5  1  0  0  0  0
  5 31  1  0  0  0  0
  6  8  1  0  0  0  0
  6  5  1  0  0  0  0
  7  6  1  0  0  0  0
  8  9  1  0  0  0  0
 10  8  1  0  0  0  0
 11 13  1  0  0  0  0
 11  8  1  0  0  0  0
 11 14  1  0  0  0  0
 12 11  1  0  0  0  0
 14 16  1  0  0  0  0
 15 14  1  0  0  0  0
 17 14  1  0  0  0  0
 17 19  1  0  0  0  0
 18 17  1  0  0  0  0
 19 43  1  0  0  0  0
 20 21  1  1  0  0  0
 20 35  1  0  0  0  0
 20 19  1  0  0  0  0
 22 21  1  0  0  0  0
 23 26  1  0  0  0  0
 23 25  1  0  0  0  0
 24 23  1  0  0  0  0
 27 29  1  0  0  0  0
 27 30  1  0  0  0  0
 27  5  1  0  0  0  0
 28 27  1  0  0  0  0
 31 33  1  0  0  0  0
 31 34  1  0  0  0  0
 31 32  1  0  0  0  0
 35 36  1  0  0  0  0
 35 37  1  0  0  0  0
 38 35  1  0  0  0  0
 39 42  1  0  0  0  0
 39 41  1  0  0  0  0
 39 19  1  0  0  0  0
 40 39  1  0  0  0  0
 43 44  1  0  0  0  0
 43 46  1  0  0  0  0
 43 45  1  0  0  0  0
M  END
