1,2,3,4
 OpenBabel05122313063D

 40 42  0  0  0  0  0  0  0  0999 V2000
    1.7074   -1.2094    0.1189 N   0  0  0  0  0  2  0  0  0  0  0  0
   -0.9671   -1.1313   -0.9252 N   0  0  0  0  0  2  0  0  0  0  0  0
   -1.2438    1.2651    0.1687 N   0  0  0  0  0  2  0  0  0  0  0  0
    0.8888    0.7683   -1.3958 N   0  0  0  0  0  0  0  0  0  0  0  0
    1.9035   -2.3947    0.7356 C   0  0  0  0  0  3  0  0  0  0  0  0
    1.0724   -2.7317    1.3730 H   0  0  0  0  0  0  0  0  0  0  0  0
    3.0956   -3.1128    0.5927 C   0  0  0  0  0  0  0  0  0  0  0  0
    3.2177   -4.0687    1.1216 H   0  0  0  0  0  0  0  0  0  0  0  0
    4.1142   -2.5924   -0.2187 C   0  0  0  0  0  0  0  0  0  0  0  0
    5.0621   -3.1343   -0.3506 H   0  0  0  0  0  0  0  0  0  0  0  0
    3.9024   -1.3627   -0.8631 C   0  0  0  0  0  0  0  0  0  0  0  0
    4.6738   -0.9193   -1.5097 H   0  0  0  0  0  0  0  0  0  0  0  0
    2.6923   -0.6888   -0.6694 C   0  0  0  0  0  0  0  0  0  0  0  0
    2.3709    0.6550   -1.2782 C   0  0  0  0  0  0  0  0  0  0  0  0
    2.7383    1.4671   -0.6152 H   0  0  0  0  0  0  0  0  0  0  0  0
    2.8704    0.7824   -2.2647 H   0  0  0  0  0  0  0  0  0  0  0  0
   -1.9956   -1.9446   -0.5673 C   0  0  0  0  0  3  0  0  0  0  0  0
   -2.0931   -2.1612    0.5059 H   0  0  0  0  0  0  0  0  0  0  0  0
   -2.8955   -2.4639   -1.5024 C   0  0  0  0  0  0  0  0  0  0  0  0
   -3.7065   -3.1179   -1.1515 H   0  0  0  0  0  0  0  0  0  0  0  0
   -2.7598   -2.1297   -2.8579 C   0  0  0  0  0  0  0  0  0  0  0  0
   -3.4651   -2.5099   -3.6110 H   0  0  0  0  0  0  0  0  0  0  0  0
   -1.6995   -1.2881   -3.2281 C   0  0  0  0  0  0  0  0  0  0  0  0
   -1.5452   -0.9947   -4.2772 H   0  0  0  0  0  0  0  0  0  0  0  0
   -0.8211   -0.8205   -2.2459 C   0  0  0  0  0  0  0  0  0  0  0  0
    0.4103   -0.0208   -2.5662 C   0  0  0  0  0  0  0  0  0  0  0  0
    1.2143   -0.7385   -2.8342 H   0  0  0  0  0  0  0  0  0  0  0  0
    0.2584    0.6308   -3.4534 H   0  0  0  0  0  0  0  0  0  0  0  0
   -2.4116    1.2903    0.8487 C   0  0  0  0  0  3  0  0  0  0  0  0
   -2.5579    0.4933    1.5932 H   0  0  0  0  0  0  0  0  0  0  0  0
   -3.3730    2.2818    0.6247 C   0  0  0  0  0  0  0  0  0  0  0  0
   -4.3049    2.2675    1.2073 H   0  0  0  0  0  0  0  0  0  0  0  0
   -3.1275    3.2703   -0.3390 C   0  0  0  0  0  0  0  0  0  0  0  0
   -3.8679    4.0585   -0.5399 H   0  0  0  0  0  0  0  0  0  0  0  0
   -1.9157    3.2361   -1.0449 C   0  0  0  0  0  0  0  0  0  0  0  0
   -1.6795    3.9933   -1.8069 H   0  0  0  0  0  0  0  0  0  0  0  0
   -0.9879    2.2269   -0.7621 C   0  0  0  0  0  0  0  0  0  0  0  0
    0.3835    2.1664   -1.3874 C   0  0  0  0  0  0  0  0  0  0  0  0
    0.3812    2.6076   -2.4087 H   0  0  0  0  0  0  0  0  0  0  0  0
    1.0774    2.7741   -0.7644 H   0  0  0  0  0  0  0  0  0  0  0  0
  1  5  1  0  0  0  0
  2 17  1  0  0  0  0
  3 29  1  0  0  0  0
  4 38  1  0  0  0  0
  4 14  1  0  0  0  0
  5  6  1  0  0  0  0
  7  5  1  0  0  0  0
  7  8  1  0  0  0  0
  9  7  2  0  0  0  0
 10  9  1  0  0  0  0
 11 13  2  0  0  0  0
 11  9  1  0  0  0  0
 12 11  1  0  0  0  0
 13  1  1  0  0  0  0
 14 13  1  0  0  0  0
 14 15  1  0  0  0  0
 16 14  1  0  0  0  0
 17 18  1  0  0  0  0
 19 20  1  0  0  0  0
 19 17  1  0  0  0  0
 21 19  2  0  0  0  0
 22 21  1  0  0  0  0
 23 21  1  0  0  0  0
 23 25  2  0  0  0  0
 24 23  1  0  0  0  0
 25  2  1  0  0  0  0
 26 25  1  0  0  0  0
 26  4  1  0  0  0  0
 27 26  1  0  0  0  0
 28 26  1  0  0  0  0
 29 30  1  0  0  0  0
 31 29  1  0  0  0  0
 31 32  1  0  0  0  0
 33 31  2  0  0  0  0
 34 33  1  0  0  0  0
 35 37  2  0  0  0  0
 35 33  1  0  0  0  0
 36 35  1  0  0  0  0
 37  3  1  0  0  0  0
 38 40  1  0  0  0  0
 38 37  1  0  0  0  0
 39 38  1  0  0  0  0
M  END
