1,2,4,5
 OpenBabel05122313063D

 52 52  0  0  1  0  0  0  0  0999 V2000
    1.2676    1.3202   -0.6430 N   0  0  0  0  0  2  0  0  0  0  0  0
   -1.4175    1.2515   -0.6420 N   0  0  0  0  0  0  0  0  0  0  0  0
   -1.4479    0.8538   -1.6016 H   0  0  0  0  0  0  0  0  0  0  0  0
   -1.2675   -1.3202    0.6430 N   0  0  0  0  0  2  0  0  0  0  0  0
    1.4176   -1.2515    0.6420 N   0  0  0  0  0  0  0  0  0  0  0  0
    1.4479   -0.8538    1.6016 H   0  0  0  0  0  0  0  0  0  0  0  0
    0.5682    2.3841   -1.3723 C   0  0  0  0  0  0  0  0  0  0  0  0
    0.4574    2.0441   -2.4263 H   0  0  0  0  0  0  0  0  0  0  0  0
    1.1312    3.3356   -1.3800 H   0  0  0  0  0  0  0  0  0  0  0  0
   -0.7983    2.5867   -0.7406 C   0  0  0  0  0  0  0  0  0  0  0  0
   -0.7017    3.0313    0.2682 H   0  0  0  0  0  0  0  0  0  0  0  0
   -1.4058    3.2760   -1.3622 H   0  0  0  0  0  0  0  0  0  0  0  0
   -2.8110    1.1686   -0.0949 C   0  0  0  0  0  0  0  0  0  0  0  0
   -3.2749   -0.2895   -0.2901 C   0  0  0  0  0  0  0  0  0  0  0  0
   -4.3456   -0.3408   -0.0158 H   0  0  0  0  0  0  0  0  0  0  0  0
   -3.2453   -0.5579   -1.3734 H   0  0  0  0  0  0  0  0  0  0  0  0
   -2.5496   -1.3833    0.4497 C   0  0  1  0  0  3  0  0  0  0  0  0
   -0.5682   -2.3841    1.3724 C   0  0  0  0  0  0  0  0  0  0  0  0
   -1.1311   -3.3356    1.3802 H   0  0  0  0  0  0  0  0  0  0  0  0
   -0.4572   -2.0440    2.4263 H   0  0  0  0  0  0  0  0  0  0  0  0
    0.7984   -2.5867    0.7406 C   0  0  0  0  0  0  0  0  0  0  0  0
    1.4059   -3.2760    1.3621 H   0  0  0  0  0  0  0  0  0  0  0  0
    0.7017   -3.0313   -0.2682 H   0  0  0  0  0  0  0  0  0  0  0  0
    2.8111   -1.1686    0.0950 C   0  0  0  0  0  0  0  0  0  0  0  0
    3.2749    0.2894    0.2901 C   0  0  0  0  0  0  0  0  0  0  0  0
    3.2452    0.5579    1.3734 H   0  0  0  0  0  0  0  0  0  0  0  0
    4.3457    0.3407    0.0160 H   0  0  0  0  0  0  0  0  0  0  0  0
    2.5497    1.3832   -0.4498 C   0  0  2  0  0  3  0  0  0  0  0  0
   -3.7456    2.0675   -0.9290 C   0  0  0  0  0  0  0  0  0  0  0  0
   -3.5223    3.1409   -0.7792 H   0  0  0  0  0  0  0  0  0  0  0  0
   -4.7959    1.9099   -0.6170 H   0  0  0  0  0  0  0  0  0  0  0  0
   -3.6778    1.8373   -2.0124 H   0  0  0  0  0  0  0  0  0  0  0  0
   -2.8656    1.5715    1.3821 C   0  0  0  0  0  0  0  0  0  0  0  0
   -2.1878    0.9535    1.9993 H   0  0  0  0  0  0  0  0  0  0  0  0
   -3.9036    1.4645    1.7524 H   0  0  0  0  0  0  0  0  0  0  0  0
   -2.5801    2.6325    1.5216 H   0  0  0  0  0  0  0  0  0  0  0  0
   -3.3773   -2.5608    0.8970 C   0  0  0  0  0  0  0  0  0  0  0  0
   -2.9873   -3.5047    0.4636 H   0  0  0  0  0  0  0  0  0  0  0  0
   -4.4286   -2.4504    0.5796 H   0  0  0  0  0  0  0  0  0  0  0  0
   -3.3624   -2.6660    2.0020 H   0  0  0  0  0  0  0  0  0  0  0  0
    3.7457   -2.0675    0.9292 C   0  0  0  0  0  0  0  0  0  0  0  0
    3.6778   -1.8373    2.0125 H   0  0  0  0  0  0  0  0  0  0  0  0
    4.7960   -1.9099    0.6171 H   0  0  0  0  0  0  0  0  0  0  0  0
    3.5224   -3.1409    0.7794 H   0  0  0  0  0  0  0  0  0  0  0  0
    2.8658   -1.5716   -1.3820 C   0  0  0  0  0  0  0  0  0  0  0  0
    2.5803   -2.6326   -1.5215 H   0  0  0  0  0  0  0  0  0  0  0  0
    3.9037   -1.4645   -1.7523 H   0  0  0  0  0  0  0  0  0  0  0  0
    2.1878   -0.9537   -1.9993 H   0  0  0  0  0  0  0  0  0  0  0  0
    3.3773    2.5606   -0.8973 C   0  0  0  0  0  0  0  0  0  0  0  0
    3.3616    2.6663   -2.0023 H   0  0  0  0  0  0  0  0  0  0  0  0
    4.4289    2.4498   -0.5809 H   0  0  0  0  0  0  0  0  0  0  0  0
    2.9880    3.5044   -0.4633 H   0  0  0  0  0  0  0  0  0  0  0  0
  1 28  1  0  0  0  0
  2 13  1  0  0  0  0
  3  2  1  0  0  0  0
  4 18  1  0  0  0  0
  5 21  1  0  0  0  0
  5  6  1  0  0  0  0
  7 10  1  0  0  0  0
  7  1  1  0  0  0  0
  8  7  1  0  0  0  0
  9  7  1  0  0  0  0
 10  2  1  0  0  0  0
 10 11  1  0  0  0  0
 12 10  1  0  0  0  0
 13 33  1  0  0  0  0
 14 13  1  0  0  0  0
 14 15  1  0  0  0  0
 14 17  1  0  0  0  0
 16 14  1  0  0  0  0
 17  4  1  0  0  0  0
 17 37  1  6  0  0  0
 18 19  1  0  0  0  0
 18 20  1  0  0  0  0
 21 22  1  0  0  0  0
 21 18  1  0  0  0  0
 23 21  1  0  0  0  0
 24 25  1  0  0  0  0
 24  5  1  0  0  0  0
 24 41  1  0  0  0  0
 25 26  1  0  0  0  0
 27 25  1  0  0  0  0
 28 49  1  1  0  0  0
 28 25  1  0  0  0  0
 29 30  1  0  0  0  0
 29 31  1  0  0  0  0
 29 13  1  0  0  0  0
 32 29  1  0  0  0  0
 33 36  1  0  0  0  0
 33 35  1  0  0  0  0
 33 34  1  0  0  0  0
 37 40  1  0  0  0  0
 38 37  1  0  0  0  0
 39 37  1  0  0  0  0
 41 42  1  0  0  0  0
 43 41  1  0  0  0  0
 44 41  1  0  0  0  0
 45 24  1  0  0  0  0
 46 45  1  0  0  0  0
 47 45  1  0  0  0  0
 48 45  1  0  0  0  0
 49 51  1  0  0  0  0
 49 52  1  0  0  0  0
 50 49  1  0  0  0  0
M  END
