1,9,30,31
 OpenBabel05122313063D

 58 60  0  0  1  0  0  0  0  0999 V2000
    0.2791    1.3318    0.8315 N   0  0  0  0  0  2  0  0  0  0  0  0
    1.4497    1.3781    1.5150 C   0  0  2  0  0  3  0  0  0  0  0  0
    2.2725    0.1301    1.3459 C   0  0  0  0  0  0  0  0  0  0  0  0
    1.7442    2.4623    2.3463 C   0  0  0  0  0  0  0  0  0  0  0  0
    0.7898    3.4855    2.4991 C   0  0  0  0  0  0  0  0  0  0  0  0
   -0.4440    3.3826    1.8299 C   0  0  0  0  0  0  0  0  0  0  0  0
   -0.6708    2.2903    0.9880 C   0  0  0  0  0  0  0  0  0  0  0  0
   -1.9192    2.0008    0.2013 C   0  0  0  0  0  0  0  0  0  0  0  0
   -2.0524    0.5212    0.0097 N   0  0  0  0  0  0  0  0  0  0  0  0
   -3.2022    0.1688   -0.9596 C   0  0  0  0  0  0  0  0  0  0  0  0
   -4.5065    0.8800   -0.5377 C   0  0  0  0  0  0  0  0  0  0  0  0
   -2.8421    0.5930   -2.3885 C   0  0  0  0  0  0  0  0  0  0  0  0
   -3.4218   -1.3535   -0.9383 C   0  0  0  0  0  0  0  0  0  0  0  0
    1.9438   -0.5836    2.1301 H   0  0  0  0  0  0  0  0  0  0  0  0
    3.3460    0.3199    1.5420 H   0  0  0  0  0  0  0  0  0  0  0  0
    2.7085    2.5023    2.8737 H   0  0  0  0  0  0  0  0  0  0  0  0
    1.0006    4.3490    3.1460 H   0  0  0  0  0  0  0  0  0  0  0  0
   -1.2239    4.1477    1.9555 H   0  0  0  0  0  0  0  0  0  0  0  0
   -1.7956    2.4453   -0.8073 H   0  0  0  0  0  0  0  0  0  0  0  0
   -2.8068    2.4461    0.7012 H   0  0  0  0  0  0  0  0  0  0  0  0
   -4.7877    0.6870    0.5185 H   0  0  0  0  0  0  0  0  0  0  0  0
   -4.4592    1.9756   -0.6934 H   0  0  0  0  0  0  0  0  0  0  0  0
   -5.3345    0.4982   -1.1658 H   0  0  0  0  0  0  0  0  0  0  0  0
   -2.6439    1.6774   -2.4767 H   0  0  0  0  0  0  0  0  0  0  0  0
   -1.9460    0.0511   -2.7437 H   0  0  0  0  0  0  0  0  0  0  0  0
   -3.7009    0.3517   -3.0466 H   0  0  0  0  0  0  0  0  0  0  0  0
   -3.8519   -1.7174    0.0158 H   0  0  0  0  0  0  0  0  0  0  0  0
   -4.1433   -1.6123   -1.7375 H   0  0  0  0  0  0  0  0  0  0  0  0
   -2.4716   -1.8817   -1.1558 H   0  0  0  0  0  0  0  0  0  0  0  0
    2.0525   -0.5211    0.0096 N   0  0  0  0  0  0  0  0  0  0  0  0
   -0.2788   -1.3317    0.8317 N   0  0  0  0  0  2  0  0  0  0  0  0
   -1.4494   -1.3780    1.5151 C   0  0  2  0  0  3  0  0  0  0  0  0
   -2.2722   -0.1300    1.3461 C   0  0  0  0  0  0  0  0  0  0  0  0
   -1.9432    0.5838    2.1301 H   0  0  0  0  0  0  0  0  0  0  0  0
   -3.3457   -0.3196    1.5425 H   0  0  0  0  0  0  0  0  0  0  0  0
   -1.7441   -2.4623    2.3463 C   0  0  0  0  0  0  0  0  0  0  0  0
   -0.7898   -3.4856    2.4989 C   0  0  0  0  0  0  0  0  0  0  0  0
    0.4441   -3.3827    1.8298 C   0  0  0  0  0  0  0  0  0  0  0  0
    0.6710   -2.2903    0.9881 C   0  0  0  0  0  0  0  0  0  0  0  0
    1.9194   -2.0007    0.2015 C   0  0  0  0  0  0  0  0  0  0  0  0
    3.2020   -0.1687   -0.9599 C   0  0  0  0  0  0  0  0  0  0  0  0
    4.5066   -0.8792   -0.5379 C   0  0  0  0  0  0  0  0  0  0  0  0
    4.7878   -0.6859    0.5182 H   0  0  0  0  0  0  0  0  0  0  0  0
    4.4598   -1.9749   -0.6933 H   0  0  0  0  0  0  0  0  0  0  0  0
    5.3344   -0.4973   -1.1662 H   0  0  0  0  0  0  0  0  0  0  0  0
    2.8419   -0.5933   -2.3886 C   0  0  0  0  0  0  0  0  0  0  0  0
    2.6441   -1.6779   -2.4765 H   0  0  0  0  0  0  0  0  0  0  0  0
    1.9455   -0.0519   -2.7439 H   0  0  0  0  0  0  0  0  0  0  0  0
    3.7005   -0.3519   -3.0469 H   0  0  0  0  0  0  0  0  0  0  0  0
    3.4211    1.3537   -0.9390 C   0  0  0  0  0  0  0  0  0  0  0  0
    3.8509    1.7181    0.0151 H   0  0  0  0  0  0  0  0  0  0  0  0
    4.1426    1.6125   -1.7382 H   0  0  0  0  0  0  0  0  0  0  0  0
    2.4708    1.8815   -1.1568 H   0  0  0  0  0  0  0  0  0  0  0  0
    1.7960   -2.4455   -0.8070 H   0  0  0  0  0  0  0  0  0  0  0  0
    2.8071   -2.4458    0.7015 H   0  0  0  0  0  0  0  0  0  0  0  0
    1.2240   -4.1479    1.9553 H   0  0  0  0  0  0  0  0  0  0  0  0
   -1.0006   -4.3492    3.1457 H   0  0  0  0  0  0  0  0  0  0  0  0
   -2.7084   -2.5023    2.8736 H   0  0  0  0  0  0  0  0  0  0  0  0
  1  7  1  0  0  0  0
  2  1  1  1  0  0  0
  2  4  1  0  0  0  0
  3  2  1  0  0  0  0
  3 15  1  0  0  0  0
  3 14  1  0  0  0  0
  4  5  2  0  0  0  0
  4 16  1  0  0  0  0
  5 17  1  0  0  0  0
  6 18  1  0  0  0  0
  6  5  1  0  0  0  0
  7  6  2  0  0  0  0
  8 20  1  0  0  0  0
  8  7  1  0  0  0  0
  9  8  1  0  0  0  0
  9 33  1  0  0  0  0
 10 13  1  0  0  0  0
 10 11  1  0  0  0  0
 10  9  1  0  0  0  0
 11 21  1  0  0  0  0
 12 10  1  0  0  0  0
 13 27  1  0  0  0  0
 19  8  1  0  0  0  0
 22 11  1  0  0  0  0
 23 11  1  0  0  0  0
 24 12  1  0  0  0  0
 25 12  1  0  0  0  0
 26 12  1  0  0  0  0
 28 13  1  0  0  0  0
 29 13  1  0  0  0  0
 30 40  1  0  0  0  0
 30  3  1  0  0  0  0
 31 39  1  0  0  0  0
 32 31  1  1  0  0  0
 32 36  1  0  0  0  0
 33 32  1  0  0  0  0
 33 35  1  0  0  0  0
 33 34  1  0  0  0  0
 36 37  2  0  0  0  0
 36 58  1  0  0  0  0
 37 57  1  0  0  0  0
 38 56  1  0  0  0  0
 38 37  1  0  0  0  0
 39 38  2  0  0  0  0
 40 55  1  0  0  0  0
 40 39  1  0  0  0  0
 41 50  1  0  0  0  0
 41 42  1  0  0  0  0
 41 30  1  0  0  0  0
 42 43  1  0  0  0  0
 44 42  1  0  0  0  0
 45 42  1  0  0  0  0
 46 41  1  0  0  0  0
 47 46  1  0  0  0  0
 48 46  1  0  0  0  0
 49 46  1  0  0  0  0
 50 51  1  0  0  0  0
 52 50  1  0  0  0  0
 53 50  1  0  0  0  0
 54 40  1  0  0  0  0
M  END
