1,13,23,27
 OpenBabel05122313063D

 35 36  0  0  0  0  0  0  0  0999 V2000
    1.8164   -0.2491   -1.2118 N   0  0  0  0  0  2  0  0  0  0  0  0
    2.0183   -1.3301   -1.9769 C   0  0  0  0  0  3  0  0  0  0  0  0
    1.2296   -2.0995   -1.9625 H   0  0  0  0  0  0  0  0  0  0  0  0
    3.1776   -1.5041   -2.7528 C   0  0  0  0  0  0  0  0  0  0  0  0
    3.2977   -2.4094   -3.3647 H   0  0  0  0  0  0  0  0  0  0  0  0
    4.1634   -0.5097   -2.7199 C   0  0  0  0  0  0  0  0  0  0  0  0
    5.0843   -0.6112   -3.3127 H   0  0  0  0  0  0  0  0  0  0  0  0
    3.9607    0.6153   -1.9073 C   0  0  0  0  0  0  0  0  0  0  0  0
    4.7162    1.4122   -1.8406 H   0  0  0  0  0  0  0  0  0  0  0  0
    2.7732    0.7091   -1.1595 C   0  0  0  0  0  0  0  0  0  0  0  0
    2.5443    1.8532   -0.2561 C   0  0  0  0  0  3  0  0  0  0  0  0
    3.3197    2.6503   -0.2467 H   0  0  0  0  0  0  0  0  0  0  0  0
    1.5108    1.9115    0.5038 N   0  0  0  0  0  2  0  0  0  0  0  0
    1.3060    3.0363    1.4008 C   0  0  0  0  0  0  0  0  0  0  0  0
    2.1638    3.7447    1.3516 H   0  0  0  0  0  0  0  0  0  0  0  0
    1.2690    2.6305    2.4360 H   0  0  0  0  0  0  0  0  0  0  0  0
    0.0016    3.7955    1.1123 C   0  0  0  0  0  0  0  0  0  0  0  0
    0.0018    4.6999    1.7548 H   0  0  0  0  0  0  0  0  0  0  0  0
    0.0024    4.1563    0.0621 H   0  0  0  0  0  0  0  0  0  0  0  0
   -1.3040    3.0379    1.3994 C   0  0  0  0  0  0  0  0  0  0  0  0
   -1.2686    2.6321    2.4347 H   0  0  0  0  0  0  0  0  0  0  0  0
   -2.1609    3.7472    1.3490 H   0  0  0  0  0  0  0  0  0  0  0  0
   -1.5090    1.9131    0.5023 N   0  0  0  0  0  2  0  0  0  0  0  0
   -2.5419    1.8557   -0.2585 C   0  0  0  0  0  0  0  0  0  0  0  0
   -3.3165    2.6534   -0.2499 H   0  0  0  0  0  0  0  0  0  0  0  0
   -2.7711    0.7116   -1.1619 C   0  0  0  0  0  0  0  0  0  0  0  0
   -1.8151   -0.2475   -1.2132 N   0  0  0  0  0  2  0  0  0  0  0  0
   -2.0174   -1.3285   -1.9781 C   0  0  0  0  0  0  0  0  0  0  0  0
   -1.2295   -2.0987   -1.9628 H   0  0  0  0  0  0  0  0  0  0  0  0
   -3.1762   -1.5017   -2.7549 C   0  0  0  0  0  0  0  0  0  0  0  0
   -3.2967   -2.4070   -3.3668 H   0  0  0  0  0  0  0  0  0  0  0  0
   -4.1611   -0.5062   -2.7232 C   0  0  0  0  0  0  0  0  0  0  0  0
   -5.0816   -0.6071   -3.3167 H   0  0  0  0  0  0  0  0  0  0  0  0
   -3.9580    0.6187   -1.9106 C   0  0  0  0  0  0  0  0  0  0  0  0
   -4.7128    1.4164   -1.8448 H   0  0  0  0  0  0  0  0  0  0  0  0
  1 10  1  0  0  0  0
  2  3  1  0  0  0  0
  2  1  1  0  0  0  0
  4  6  2  0  0  0  0
  4  2  1  0  0  0  0
  5  4  1  0  0  0  0
  6  8  1  0  0  0  0
  7  6  1  0  0  0  0
  8  9  1  0  0  0  0
  8 10  2  0  0  0  0
 10 11  1  0  0  0  0
 11 12  1  0  0  0  0
 11 13  1  0  0  0  0
 13 14  1  0  0  0  0
 14 16  1  0  0  0  0
 15 14  1  0  0  0  0
 17 20  1  0  0  0  0
 17 14  1  0  0  0  0
 17 18  1  0  0  0  0
 19 17  1  0  0  0  0
 20 21  1  0  0  0  0
 22 20  1  0  0  0  0
 23 20  1  0  0  0  0
 24 25  1  0  0  0  0
 24 23  1  0  0  0  0
 26 24  2  0  0  0  0
 27 26  1  0  0  0  0
 28 29  1  0  0  0  0
 28 27  1  0  0  0  0
 30 32  1  0  0  0  0
 30 28  2  0  0  0  0
 31 30  1  0  0  0  0
 32 34  2  0  0  0  0
 33 32  1  0  0  0  0
 34 35  1  0  0  0  0
 34 26  1  0  0  0  0
M  END
