3,4,5,6
 OpenBabel05122313063D

 32 33  0  0  1  0  0  0  0  0999 V2000
    1.1537    2.7760    1.5566 O   0  0  0  0  0  0  0  0  0  0  0  0
    0.9722    1.8142    1.6207 H   0  0  0  0  0  0  0  0  0  0  0  0
   -1.7073   -0.8214   -0.1166 N   0  0  0  0  0  2  0  0  0  0  0  0
   -1.0373    1.6332   -0.0915 N   0  0  0  0  0  2  0  0  0  0  0  0
    1.6470    0.8748   -0.4878 N   0  0  0  0  0  2  0  0  0  0  0  0
    1.0260   -1.5287    0.0279 N   0  0  0  0  0  0  0  0  0  0  0  0
   -2.7438    0.0706    0.1373 C   0  0  0  0  0  0  0  0  0  0  0  0
   -3.9793   -0.6243    0.1590 C   0  0  0  0  0  0  0  0  0  0  0  0
   -4.9702   -0.1873    0.3295 H   0  0  0  0  0  0  0  0  0  0  0  0
   -3.6686   -1.9690   -0.1131 C   0  0  0  0  0  0  0  0  0  0  0  0
   -4.3686   -2.8090   -0.1923 H   0  0  0  0  0  0  0  0  0  0  0  0
   -2.2619   -2.0442   -0.2839 C   0  0  0  0  0  3  0  0  0  0  0  0
   -1.6560   -2.9207   -0.5399 H   0  0  0  0  0  0  0  0  0  0  0  0
   -2.3217    1.4182    0.1484 C   0  0  0  0  0  0  0  0  0  0  0  0
   -3.0144    2.2636    0.3131 H   0  0  0  0  0  0  0  0  0  0  0  0
   -0.5431    2.9946   -0.1927 C   0  0  0  0  0  0  0  0  0  0  0  0
   -1.1378    3.6635    0.4667 H   0  0  0  0  0  0  0  0  0  0  0  0
   -0.6586    3.3660   -1.2384 H   0  0  0  0  0  0  0  0  0  0  0  0
    0.9339    3.1138    0.2051 C   0  0  2  0  0  0  0  0  0  0  0  0
    1.2163    4.1822    0.0930 H   0  0  0  0  0  0  0  0  0  0  0  0
    1.8318    2.2888   -0.7339 C   0  0  0  0  0  0  0  0  0  0  0  0
    1.5884    2.5400   -1.7923 H   0  0  0  0  0  0  0  0  0  0  0  0
    2.8933    2.5658   -0.5557 H   0  0  0  0  0  0  0  0  0  0  0  0
    2.6808    0.0479   -0.4605 C   0  0  0  0  0  3  0  0  0  0  0  0
    3.7073    0.4217   -0.6277 H   0  0  0  0  0  0  0  0  0  0  0  0
    2.3841   -1.3029   -0.1805 C   0  0  0  0  0  0  0  0  0  0  0  0
    3.1149   -2.4860    0.0948 C   0  0  0  0  0  0  0  0  0  0  0  0
    4.2017   -2.6118    0.0245 H   0  0  0  0  0  0  0  0  0  0  0  0
    2.1635   -3.4402    0.4968 C   0  0  0  0  0  0  0  0  0  0  0  0
    2.3504   -4.4774    0.7990 H   0  0  0  0  0  0  0  0  0  0  0  0
    0.8946   -2.8067    0.4531 C   0  0  0  0  0  3  0  0  0  0  0  0
   -0.0791   -3.2227    0.7345 H   0  0  0  0  0  0  0  0  0  0  0  0
  1  2  1  0  0  0  0
  3  7  1  0  0  0  0
  4 14  1  0  0  0  0
  5 24  1  0  0  0  0
  6 31  1  0  0  0  0
  7 14  2  0  0  0  0
  7  8  1  0  0  0  0
  8  9  1  0  0  0  0
 10  8  2  0  0  0  0
 11 10  1  0  0  0  0
 12  3  1  0  0  0  0
 12 10  1  0  0  0  0
 13 12  1  0  0  0  0
 14 15  1  0  0  0  0
 16  4  1  0  0  0  0
 16 19  1  0  0  0  0
 16 17  1  0  0  0  0
 18 16  1  0  0  0  0
 19 20  1  6  0  0  0
 19  1  1  0  0  0  0
 21 23  1  0  0  0  0
 21  5  1  0  0  0  0
 21 19  1  0  0  0  0
 22 21  1  0  0  0  0
 24 26  1  0  0  0  0
 25 24  1  0  0  0  0
 26  6  2  0  0  0  0
 26 27  1  0  0  0  0
 27 29  2  0  0  0  0
 28 27  1  0  0  0  0
 29 30  1  0  0  0  0
 31 29  1  0  0  0  0
 31 32  1  0  0  0  0
M  END
