1,2,3,4
 OpenBabel05122313063D

 54 54  0  0  1  0  0  0  0  0999 V2000
    1.4776    2.1056   -0.1160 N   0  0  0  0  0  2  0  0  0  0  0  0
   -1.7563    0.7938    1.4266 N   0  0  0  0  0  2  0  0  0  0  0  0
   -1.4231   -0.3003   -1.7090 N   0  0  0  0  0  2  0  0  0  0  0  0
   -1.2266    2.4064   -0.9771 N   0  0  0  0  0  0  0  0  0  0  0  0
    3.0064    2.2617    0.7195 Si  0  0  0  0  0  0  0  0  0  0  0  0
   -3.0809   -0.1570    2.0767 Si  0  0  0  0  0  0  0  0  0  0  0  0
    1.1471    3.1221   -1.1001 C   0  0  0  0  0  0  0  0  0  0  0  0
   -0.3050    3.5661   -0.9369 C   0  0  0  0  0  0  0  0  0  0  0  0
   -2.0705    2.2243    1.3398 C   0  0  0  0  0  0  0  0  0  0  0  0
   -2.4072    2.6176   -0.1065 C   0  0  0  0  0  0  0  0  0  0  0  0
   -1.5875    2.0458   -2.3484 C   0  0  0  0  0  0  0  0  0  0  0  0
   -2.0703    0.6178   -2.4652 C   0  0  1  0  0  3  0  0  0  0  0  0
   -3.0961    0.2412   -3.3474 C   0  0  0  0  0  0  0  0  0  0  0  0
   -3.4399   -1.1131   -3.4618 C   0  0  0  0  0  0  0  0  0  0  0  0
   -2.7435   -2.0588   -2.6953 C   0  0  0  0  0  0  0  0  0  0  0  0
   -1.7400   -1.6063   -1.8310 C   0  0  0  0  0  0  0  0  0  0  0  0
    3.1169    3.9138    1.6554 C   0  0  0  0  0  0  0  0  0  0  0  0
    4.4868    2.1850   -0.4701 C   0  0  0  0  0  0  0  0  0  0  0  0
    3.1105    0.8488    1.9779 C   0  0  0  0  0  0  0  0  0  0  0  0
   -4.7470    0.3259    1.2788 C   0  0  0  0  0  0  0  0  0  0  0  0
   -3.2430    0.0930    3.9524 C   0  0  0  0  0  0  0  0  0  0  0  0
   -2.8696   -2.0055    1.7309 C   0  0  0  0  0  0  0  0  0  0  0  0
    1.3006    2.7659   -2.1568 H   0  0  0  0  0  0  0  0  0  0  0  0
    1.7779    4.0434   -1.0328 H   0  0  0  0  0  0  0  0  0  0  0  0
   -0.6053    4.3326   -1.6940 H   0  0  0  0  0  0  0  0  0  0  0  0
   -0.4040    4.0308    0.0635 H   0  0  0  0  0  0  0  0  0  0  0  0
   -2.9272    2.5417    1.9848 H   0  0  0  0  0  0  0  0  0  0  0  0
   -1.2180    2.8561    1.6903 H   0  0  0  0  0  0  0  0  0  0  0  0
   -3.2246    1.9573   -0.4584 H   0  0  0  0  0  0  0  0  0  0  0  0
   -2.7673    3.6734   -0.1917 H   0  0  0  0  0  0  0  0  0  0  0  0
   -0.6726    2.1380   -2.9761 H   0  0  0  0  0  0  0  0  0  0  0  0
   -2.3415    2.7432   -2.7878 H   0  0  0  0  0  0  0  0  0  0  0  0
   -3.6171    1.0104   -3.9359 H   0  0  0  0  0  0  0  0  0  0  0  0
   -4.2439   -1.4265   -4.1446 H   0  0  0  0  0  0  0  0  0  0  0  0
   -2.9711   -3.1322   -2.7570 H   0  0  0  0  0  0  0  0  0  0  0  0
   -1.1438   -2.2941   -1.2085 H   0  0  0  0  0  0  0  0  0  0  0  0
    4.0947    4.0237    2.1696 H   0  0  0  0  0  0  0  0  0  0  0  0
    2.3160    3.9822    2.4205 H   0  0  0  0  0  0  0  0  0  0  0  0
    3.0057    4.7812    0.9715 H   0  0  0  0  0  0  0  0  0  0  0  0
    5.4539    2.2770    0.0671 H   0  0  0  0  0  0  0  0  0  0  0  0
    4.4972    1.2322   -1.0371 H   0  0  0  0  0  0  0  0  0  0  0  0
    4.4362    3.0126   -1.2086 H   0  0  0  0  0  0  0  0  0  0  0  0
    4.0998    0.8415    2.4793 H   0  0  0  0  0  0  0  0  0  0  0  0
    2.9685   -0.1381    1.4909 H   0  0  0  0  0  0  0  0  0  0  0  0
    2.3417    0.9613    2.7717 H   0  0  0  0  0  0  0  0  0  0  0  0
   -5.5755   -0.2475    1.7450 H   0  0  0  0  0  0  0  0  0  0  0  0
   -4.7473    0.0918    0.1931 H   0  0  0  0  0  0  0  0  0  0  0  0
   -4.9875    1.4026    1.3962 H   0  0  0  0  0  0  0  0  0  0  0  0
   -4.1175   -0.4473    4.3715 H   0  0  0  0  0  0  0  0  0  0  0  0
   -2.3310   -0.2745    4.4667 H   0  0  0  0  0  0  0  0  0  0  0  0
   -3.3573    1.1678    4.2047 H   0  0  0  0  0  0  0  0  0  0  0  0
   -2.8110   -2.2100    0.6428 H   0  0  0  0  0  0  0  0  0  0  0  0
   -3.7570   -2.5465    2.1206 H   0  0  0  0  0  0  0  0  0  0  0  0
   -1.9762   -2.4405    2.2149 H   0  0  0  0  0  0  0  0  0  0  0  0
  1  5  1  0  0  0  0
  2  6  1  0  0  0  0
  4  8  1  0  0  0  0
  4 10  1  0  0  0  0
  5 17  1  0  0  0  0
  5 19  1  0  0  0  0
  6 21  1  0  0  0  0
  7 24  1  0  0  0  0
  7  8  1  0  0  0  0
  7  1  1  0  0  0  0
  8 26  1  0  0  0  0
  9  2  1  0  0  0  0
  9 28  1  0  0  0  0
  9 27  1  0  0  0  0
 10  9  1  0  0  0  0
 11  4  1  0  0  0  0
 12 11  1  6  0  0  0
 12  3  1  0  0  0  0
 13 12  1  0  0  0  0
 14 13  2  0  0  0  0
 14 15  1  0  0  0  0
 15 16  2  0  0  0  0
 16  3  1  0  0  0  0
 16 36  1  0  0  0  0
 17 37  1  0  0  0  0
 17 38  1  0  0  0  0
 18 40  1  0  0  0  0
 18  5  1  0  0  0  0
 19 43  1  0  0  0  0
 19 45  1  0  0  0  0
 20 48  1  0  0  0  0
 20 46  1  0  0  0  0
 20  6  1  0  0  0  0
 21 51  1  0  0  0  0
 21 49  1  0  0  0  0
 21 50  1  0  0  0  0
 22  6  1  0  0  0  0
 22 53  1  0  0  0  0
 22 54  1  0  0  0  0
 23  7  1  0  0  0  0
 25  8  1  0  0  0  0
 29 10  1  0  0  0  0
 30 10  1  0  0  0  0
 31 11  1  0  0  0  0
 32 11  1  0  0  0  0
 33 13  1  0  0  0  0
 34 14  1  0  0  0  0
 35 15  1  0  0  0  0
 39 17  1  0  0  0  0
 41 18  1  0  0  0  0
 42 18  1  0  0  0  0
 44 19  1  0  0  0  0
 47 20  1  0  0  0  0
 52 22  1  0  0  0  0
M  END
