9,10,11,12
 OpenBabel05122313063D

 72 75  0  0  0  0  0  0  0  0999 V2000
    2.7729    0.1106   -1.3891 S   0  0  0  0  0  0  0  0  0  0  0  0
   -1.1823    1.3378    1.1174 S   0  0  0  0  0  0  0  0  0  0  0  0
    4.0141   -0.4367   -1.9818 O   0  0  0  0  0  0  0  0  0  0  0  0
    1.5972    0.4376   -2.2546 O   0  0  0  0  0  0  0  0  0  0  0  0
   -0.5993   -5.0063   -1.4280 O   0  0  0  0  0  0  0  0  0  0  0  0
   -1.0642   -5.6895   -0.9117 H   0  0  0  0  0  0  0  0  0  0  0  0
   -1.0250    2.8103    1.2515 O   0  0  0  0  0  0  0  0  0  0  0  0
   -0.1937    0.4343    1.7668 O   0  0  0  0  0  0  0  0  0  0  0  0
    2.0529   -0.9231   -0.2804 N   0  0  0  0  0  2  0  0  0  0  0  0
   -0.2115   -2.5547    0.3673 N   0  0  0  0  0  2  0  0  0  0  0  0
   -0.9969   -1.5015   -2.1847 N   0  0  0  0  0  2  0  0  0  0  0  0
   -1.1888    0.7795   -0.4616 N   0  0  0  0  0  2  0  0  0  0  0  0
    4.1161    5.1472    1.8015 C   0  0  0  0  0  0  0  0  0  0  0  0
    5.1114    5.0821    2.2832 H   0  0  0  0  0  0  0  0  0  0  0  0
    3.3583    5.3404    2.5858 H   0  0  0  0  0  0  0  0  0  0  0  0
    4.1321    6.0390    1.1378 H   0  0  0  0  0  0  0  0  0  0  0  0
    3.7936    3.9029    1.0147 C   0  0  0  0  0  0  0  0  0  0  0  0
    4.8194    3.1304    0.4294 C   0  0  0  0  0  0  0  0  0  0  0  0
    5.8695    3.4336    0.5668 H   0  0  0  0  0  0  0  0  0  0  0  0
    4.5287    1.9811   -0.3188 C   0  0  0  0  0  0  0  0  0  0  0  0
    5.3225    1.3771   -0.7825 H   0  0  0  0  0  0  0  0  0  0  0  0
    3.1891    1.6049   -0.4860 C   0  0  0  0  0  0  0  0  0  0  0  0
    2.1473    2.3645    0.0643 C   0  0  0  0  0  0  0  0  0  0  0  0
    1.1025    2.0753   -0.0965 H   0  0  0  0  0  0  0  0  0  0  0  0
    2.4548    3.4995    0.8191 C   0  0  0  0  0  0  0  0  0  0  0  0
    1.6260    4.0682    1.2686 H   0  0  0  0  0  0  0  0  0  0  0  0
    2.7273   -1.6759    0.6471 C   0  0  0  0  0  0  0  0  0  0  0  0
    4.1036   -1.4759    0.9598 C   0  0  0  0  0  0  0  0  0  0  0  0
    4.6610   -0.7024    0.4197 H   0  0  0  0  0  0  0  0  0  0  0  0
    4.7534   -2.2391    1.9253 C   0  0  0  0  0  0  0  0  0  0  0  0
    5.8141   -2.0342    2.1390 H   0  0  0  0  0  0  0  0  0  0  0  0
    4.0805   -3.2636    2.6246 C   0  0  0  0  0  0  0  0  0  0  0  0
    4.6012   -3.8641    3.3839 H   0  0  0  0  0  0  0  0  0  0  0  0
    2.7474   -3.5051    2.3168 C   0  0  0  0  0  0  0  0  0  0  0  0
    2.2034   -4.3150    2.8292 H   0  0  0  0  0  0  0  0  0  0  0  0
    2.0388   -2.7413    1.3485 C   0  0  0  0  0  0  0  0  0  0  0  0
    0.6829   -3.1681    1.0859 C   0  0  0  0  0  3  0  0  0  0  0  0
    0.4017   -4.1407    1.5515 H   0  0  0  0  0  0  0  0  0  0  0  0
   -1.4505   -3.2058    0.0170 C   0  0  0  0  0  0  0  0  0  0  0  0
   -2.2684   -2.4544    0.0363 H   0  0  0  0  0  0  0  0  0  0  0  0
   -1.7184   -4.0190    0.7345 H   0  0  0  0  0  0  0  0  0  0  0  0
   -1.3876   -3.8304   -1.4021 C   0  0  0  0  0  0  0  0  0  0  0  0
   -2.4459   -4.0420   -1.6955 H   0  0  0  0  0  0  0  0  0  0  0  0
   -0.7567   -2.8983   -2.4679 C   0  0  0  0  0  0  0  0  0  0  0  0
    0.3382   -3.0822   -2.4273 H   0  0  0  0  0  0  0  0  0  0  0  0
   -1.1157   -3.1966   -3.4783 H   0  0  0  0  0  0  0  0  0  0  0  0
   -1.7910   -0.7877   -2.9190 C   0  0  0  0  0  3  0  0  0  0  0  0
   -2.2362   -1.2584   -3.8264 H   0  0  0  0  0  0  0  0  0  0  0  0
   -2.1901    0.5875   -2.6885 C   0  0  0  0  0  0  0  0  0  0  0  0
   -2.9591    1.1792   -3.7260 C   0  0  0  0  0  0  0  0  0  0  0  0
   -3.1555    0.5761   -4.6270 H   0  0  0  0  0  0  0  0  0  0  0  0
   -3.4615    2.4734   -3.6364 C   0  0  0  0  0  0  0  0  0  0  0  0
   -4.0494    2.9063   -4.4581 H   0  0  0  0  0  0  0  0  0  0  0  0
   -3.1905    3.2152   -2.4701 C   0  0  0  0  0  0  0  0  0  0  0  0
   -3.5607    4.2482   -2.3775 H   0  0  0  0  0  0  0  0  0  0  0  0
   -2.4409    2.6729   -1.4267 C   0  0  0  0  0  0  0  0  0  0  0  0
   -2.1982    3.2837   -0.5483 H   0  0  0  0  0  0  0  0  0  0  0  0
   -1.9186    1.3500   -1.4885 C   0  0  0  0  0  0  0  0  0  0  0  0
   -2.8081    0.8989    1.7409 C   0  0  0  0  0  0  0  0  0  0  0  0
   -3.0192   -0.4199    2.1786 C   0  0  0  0  0  0  0  0  0  0  0  0
   -2.1719   -1.1208    2.1958 H   0  0  0  0  0  0  0  0  0  0  0  0
   -4.2941   -0.7975    2.6101 C   0  0  0  0  0  0  0  0  0  0  0  0
   -4.4631   -1.8273    2.9637 H   0  0  0  0  0  0  0  0  0  0  0  0
   -5.3689    0.1212    2.6123 C   0  0  0  0  0  0  0  0  0  0  0  0
   -5.1208    1.4391    2.1814 C   0  0  0  0  0  0  0  0  0  0  0  0
   -5.9418    2.1731    2.1908 H   0  0  0  0  0  0  0  0  0  0  0  0
   -3.8470    1.8386    1.7492 C   0  0  0  0  0  0  0  0  0  0  0  0
   -3.6515    2.8734    1.4366 H   0  0  0  0  0  0  0  0  0  0  0  0
   -6.7368   -0.3067    3.0781 C   0  0  0  0  0  0  0  0  0  0  0  0
   -7.1284   -1.1410    2.4594 H   0  0  0  0  0  0  0  0  0  0  0  0
   -7.4658    0.5245    3.0281 H   0  0  0  0  0  0  0  0  0  0  0  0
   -6.7078   -0.6723    4.1258 H   0  0  0  0  0  0  0  0  0  0  0  0
  1 22  1  0  0  0  0
  1  9  1  0  0  0  0
  2  7  2  0  0  0  0
  2 59  1  0  0  0  0
  2  8  2  0  0  0  0
  3  1  2  0  0  0  0
  4  1  2  0  0  0  0
  5 42  1  0  0  0  0
  5  6  1  0  0  0  0
  9 27  1  0  0  0  0
 10 37  1  0  0  0  0
 12  2  1  0  0  0  0
 13 14  1  0  0  0  0
 13 15  1  0  0  0  0
 16 13  1  0  0  0  0
 17 13  1  0  0  0  0
 18 19  1  0  0  0  0
 18 17  2  0  0  0  0
 20 18  1  0  0  0  0
 21 20  1  0  0  0  0
 22 20  2  0  0  0  0
 22 23  1  0  0  0  0
 23 25  2  0  0  0  0
 24 23  1  0  0  0  0
 25 17  1  0  0  0  0
 25 26  1  0  0  0  0
 27 28  2  0  0  0  0
 27 36  1  0  0  0  0
 28 30  1  0  0  0  0
 29 28  1  0  0  0  0
 30 31  1  0  0  0  0
 30 32  2  0  0  0  0
 32 33  1  0  0  0  0
 34 32  1  0  0  0  0
 34 35  1  0  0  0  0
 36 34  2  0  0  0  0
 37 36  1  0  0  0  0
 37 38  1  0  0  0  0
 39 40  1  0  0  0  0
 39 10  1  0  0  0  0
 39 41  1  0  0  0  0
 42 39  1  0  0  0  0
 43 42  1  0  0  0  0
 44 45  1  0  0  0  0
 44 11  1  0  0  0  0
 44 42  1  0  0  0  0
 46 44  1  0  0  0  0
 47 49  1  0  0  0  0
 47 11  1  0  0  0  0
 48 47  1  0  0  0  0
 49 58  1  0  0  0  0
 50 52  1  0  0  0  0
 50 49  2  0  0  0  0
 51 50  1  0  0  0  0
 52 54  2  0  0  0  0
 53 52  1  0  0  0  0
 54 55  1  0  0  0  0
 54 56  1  0  0  0  0
 56 57  1  0  0  0  0
 58 56  2  0  0  0  0
 58 12  1  0  0  0  0
 59 67  2  0  0  0  0
 59 60  1  0  0  0  0
 60 61  1  0  0  0  0
 60 62  2  0  0  0  0
 62 64  1  0  0  0  0
 62 63  1  0  0  0  0
 64 69  1  0  0  0  0
 65 66  1  0  0  0  0
 65 64  2  0  0  0  0
 67 65  1  0  0  0  0
 68 67  1  0  0  0  0
 69 72  1  0  0  0  0
 70 69  1  0  0  0  0
 71 69  1  0  0  0  0
M  END
