1,2,3,4
 OpenBabel05122313063D

 51 52  0  0  0  0  0  0  0  0999 V2000
   -1.9520    1.3898   -0.0294 N   0  0  0  0  0  2  0  0  0  0  0  0
   -1.9517   -1.3538    0.2782 N   0  0  0  0  0  2  0  0  0  0  0  0
    0.5535   -1.5580    0.1413 N   0  0  0  0  0  2  0  0  0  0  0  0
    0.5602    1.5670   -0.0874 N   0  0  0  0  0  2  0  0  0  0  0  0
    4.1441    1.4043   -1.0858 C   0  0  0  0  0  0  0  0  0  0  0  0
    4.7484    1.1869   -1.9790 H   0  0  0  0  0  0  0  0  0  0  0  0
    4.2065   -1.4524    0.8513 C   0  0  0  0  0  0  0  0  0  0  0  0
    4.8820   -1.2430    1.6940 H   0  0  0  0  0  0  0  0  0  0  0  0
    3.9970    2.0450    1.2547 C   0  0  0  0  0  0  0  0  0  0  0  0
    4.4831    2.3330    2.1992 H   0  0  0  0  0  0  0  0  0  0  0  0
    2.4804   -1.9642   -1.3058 C   0  0  0  0  0  0  0  0  0  0  0  0
    1.7790   -2.1368   -2.1344 H   0  0  0  0  0  0  0  0  0  0  0  0
    4.7706    1.7862    0.1122 C   0  0  0  0  0  0  0  0  0  0  0  0
    5.8666    1.8735    0.1563 H   0  0  0  0  0  0  0  0  0  0  0  0
    2.8229   -1.3213    1.0294 C   0  0  0  0  0  0  0  0  0  0  0  0
    2.3845   -1.0208    1.9918 H   0  0  0  0  0  0  0  0  0  0  0  0
    4.7310   -1.8476   -0.3906 C   0  0  0  0  0  0  0  0  0  0  0  0
    5.8185   -1.9537   -0.5198 H   0  0  0  0  0  0  0  0  0  0  0  0
    2.6011    1.9367    1.1999 C   0  0  0  0  0  0  0  0  0  0  0  0
    1.9702    2.1168    2.0822 H   0  0  0  0  0  0  0  0  0  0  0  0
    3.8661   -2.0968   -1.4678 C   0  0  0  0  0  0  0  0  0  0  0  0
    4.2720   -2.3971   -2.4458 H   0  0  0  0  0  0  0  0  0  0  0  0
    2.7488    1.2960   -1.1564 C   0  0  0  0  0  0  0  0  0  0  0  0
    2.2301    1.0050   -2.0810 H   0  0  0  0  0  0  0  0  0  0  0  0
    1.9796    1.5768   -0.0125 C   0  0  0  0  0  0  0  0  0  0  0  0
    1.9622   -1.5906   -0.0503 C   0  0  0  0  0  0  0  0  0  0  0  0
   -0.0730    2.7168   -0.1771 C   0  0  0  0  0  0  0  0  0  0  0  0
   -0.0784   -2.6928    0.3495 C   0  0  0  0  0  0  0  0  0  0  0  0
   -1.5182    2.6338   -0.1368 C   0  0  0  0  0  0  0  0  0  0  0  0
   -1.5204   -2.5909    0.4477 C   0  0  0  0  0  0  0  0  0  0  0  0
   -2.4781    3.7758   -0.1685 C   0  0  0  0  0  0  0  0  0  0  0  0
   -3.2246    3.6198   -0.9736 H   0  0  0  0  0  0  0  0  0  0  0  0
   -1.9687    4.7425   -0.3205 H   0  0  0  0  0  0  0  0  0  0  0  0
   -3.0537    3.8150    0.7798 H   0  0  0  0  0  0  0  0  0  0  0  0
   -2.4741   -3.7051    0.7217 C   0  0  0  0  0  0  0  0  0  0  0  0
   -2.9385   -3.5754    1.7221 H   0  0  0  0  0  0  0  0  0  0  0  0
   -1.9820   -4.6919    0.6801 H   0  0  0  0  0  0  0  0  0  0  0  0
   -3.3059   -3.6744   -0.0100 H   0  0  0  0  0  0  0  0  0  0  0  0
    0.5902   -4.0289    0.4812 C   0  0  0  0  0  0  0  0  0  0  0  0
    0.3081   -4.6853   -0.3684 H   0  0  0  0  0  0  0  0  0  0  0  0
    0.2498   -4.5324    1.4083 H   0  0  0  0  0  0  0  0  0  0  0  0
    1.6891   -3.9395    0.5035 H   0  0  0  0  0  0  0  0  0  0  0  0
    0.6022    4.0496   -0.3104 C   0  0  0  0  0  0  0  0  0  0  0  0
    1.6822    3.9439   -0.5079 H   0  0  0  0  0  0  0  0  0  0  0  0
    0.4742    4.6430    0.6192 H   0  0  0  0  0  0  0  0  0  0  0  0
    0.1385    4.6286   -1.1336 H   0  0  0  0  0  0  0  0  0  0  0  0
   -3.2525    1.2615    0.1008 O   0  0  0  0  0  0  0  0  0  0  0  0
   -3.2452   -1.1819    0.4351 O   0  0  0  0  0  0  0  0  0  0  0  0
   -3.9425   -0.0397   -0.2912 B   0  0  0  0  0  0  0  0  0  0  0  0
   -3.8639   -0.2258   -1.6446 F   0  0  0  0  0  0  0  0  0  0  0  0
   -5.1996    0.0297    0.2291 F   0  0  0  0  0  0  0  0  0  0  0  0
  1 47  1  0  0  0  0
  2 48  1  0  0  0  0
  2 30  1  0  0  0  0
  3 28  1  0  0  0  0
  4 25  1  0  0  0  0
  5 13  1  0  0  0  0
  6  5  1  0  0  0  0
  7 15  1  0  0  0  0
  7  8  1  0  0  0  0
  9 10  1  0  0  0  0
 11 26  1  0  0  0  0
 12 11  1  0  0  0  0
 13 14  1  0  0  0  0
 13  9  2  0  0  0  0
 15 16  1  0  0  0  0
 17  7  2  0  0  0  0
 18 17  1  0  0  0  0
 19  9  1  0  0  0  0
 19 20  1  0  0  0  0
 21 11  2  0  0  0  0
 21 17  1  0  0  0  0
 22 21  1  0  0  0  0
 23  5  2  0  0  0  0
 23 25  1  0  0  0  0
 24 23  1  0  0  0  0
 25 19  2  0  0  0  0
 26  3  1  0  0  0  0
 26 15  2  0  0  0  0
 27 29  2  0  0  0  0
 27  4  1  0  0  0  0
 28 30  2  0  0  0  0
 28 39  1  0  0  0  0
 29  1  1  0  0  0  0
 30 35  1  0  0  0  0
 31 29  1  0  0  0  0
 31 34  1  0  0  0  0
 32 31  1  0  0  0  0
 33 31  1  0  0  0  0
 35 36  1  0  0  0  0
 37 35  1  0  0  0  0
 38 35  1  0  0  0  0
 39 42  1  0  0  0  0
 39 41  1  0  0  0  0
 40 39  1  0  0  0  0
 43 27  1  0  0  0  0
 43 45  1  0  0  0  0
 44 43  1  0  0  0  0
 46 43  1  0  0  0  0
 49 47  1  0  0  0  0
 49 51  1  0  0  0  0
 49 48  1  0  0  0  0
 50 49  1  0  0  0  0
M  END
