1,2,43,51
 OpenBabel05122313063D

 84 88  0  0  0  0  0  0  0  0999 V2000
   -0.0027    2.0613   -0.0000 N   0  0  0  0  0  2  0  0  0  0  0  0
   -2.0425   -0.0027    0.2784 N   0  0  0  0  0  0  0  0  0  0  0  0
    1.0898    2.8831   -0.1545 C   0  0  0  0  0  0  0  0  0  0  0  0
    0.6793    4.2834   -0.1027 C   0  0  0  0  0  0  0  0  0  0  0  0
   -0.6907    4.2816    0.1026 C   0  0  0  0  0  0  0  0  0  0  0  0
   -1.0975    2.8802    0.1545 C   0  0  0  0  0  0  0  0  0  0  0  0
   -2.4144    2.4315    0.3391 C   0  0  0  0  0  0  0  0  0  0  0  0
   -3.1838    3.2077    0.4586 H   0  0  0  0  0  0  0  0  0  0  0  0
   -2.8572    1.1006    0.3858 C   0  0  0  0  0  0  0  0  0  0  0  0
   -4.2464    0.6872    0.5632 C   0  0  0  0  0  0  0  0  0  0  0  0
   -4.2446   -0.6985    0.5632 C   0  0  0  0  0  0  0  0  0  0  0  0
   -2.8543   -1.1082    0.3858 C   0  0  0  0  0  0  0  0  0  0  0  0
    2.4079    2.4379   -0.3391 C   0  0  0  0  0  0  0  0  0  0  0  0
    3.1753    3.2161   -0.4586 H   0  0  0  0  0  0  0  0  0  0  0  0
    1.6016    5.4652   -0.1879 C   0  0  0  0  0  0  0  0  0  0  0  0
    1.0269    6.3573   -0.5135 H   0  0  0  0  0  0  0  0  0  0  0  0
    2.3586    5.2920   -0.9830 H   0  0  0  0  0  0  0  0  0  0  0  0
    2.3163    5.7741    1.1391 C   0  0  0  0  0  0  0  0  0  0  0  0
    2.9911    6.6487    1.0402 H   0  0  0  0  0  0  0  0  0  0  0  0
    2.9226    4.9094    1.4775 H   0  0  0  0  0  0  0  0  0  0  0  0
    1.5827    5.9936    1.9409 H   0  0  0  0  0  0  0  0  0  0  0  0
   -1.6161    5.4609    0.1878 C   0  0  0  0  0  0  0  0  0  0  0  0
   -1.0437    6.3546    0.5130 H   0  0  0  0  0  0  0  0  0  0  0  0
   -2.3724    5.2860    0.9832 H   0  0  0  0  0  0  0  0  0  0  0  0
   -2.3321    5.7676   -1.1390 C   0  0  0  0  0  0  0  0  0  0  0  0
   -3.0092    6.6405   -1.0400 H   0  0  0  0  0  0  0  0  0  0  0  0
   -2.9364    4.9013   -1.4769 H   0  0  0  0  0  0  0  0  0  0  0  0
   -1.5995    5.9888   -1.9412 H   0  0  0  0  0  0  0  0  0  0  0  0
   -5.4238    1.6131    0.6534 C   0  0  0  0  0  0  0  0  0  0  0  0
   -5.1715    2.4781    1.3042 H   0  0  0  0  0  0  0  0  0  0  0  0
   -6.2621    1.0904    1.1605 H   0  0  0  0  0  0  0  0  0  0  0  0
   -5.9006    2.1292   -0.7155 C   0  0  0  0  0  0  0  0  0  0  0  0
   -6.7697    2.8099   -0.6096 H   0  0  0  0  0  0  0  0  0  0  0  0
   -6.2007    1.2884   -1.3730 H   0  0  0  0  0  0  0  0  0  0  0  0
   -5.0933    2.6820   -1.2378 H   0  0  0  0  0  0  0  0  0  0  0  0
   -5.4195   -1.6275    0.6534 C   0  0  0  0  0  0  0  0  0  0  0  0
   -6.2591   -1.1071    1.1609 H   0  0  0  0  0  0  0  0  0  0  0  0
   -5.1647   -2.4920    1.3039 H   0  0  0  0  0  0  0  0  0  0  0  0
   -5.8952   -2.1445   -0.7155 C   0  0  0  0  0  0  0  0  0  0  0  0
   -6.7625   -2.8275   -0.6095 H   0  0  0  0  0  0  0  0  0  0  0  0
   -5.0866   -2.6950   -1.2381 H   0  0  0  0  0  0  0  0  0  0  0  0
   -6.1977   -1.3043   -1.3727 H   0  0  0  0  0  0  0  0  0  0  0  0
    0.0027   -2.0613    0.0000 N   0  0  0  0  0  0  0  0  0  0  0  0
   -1.0898   -2.8831    0.1545 C   0  0  0  0  0  3  0  0  0  0  0  0
   -0.6793   -4.2834    0.1027 C   0  0  0  0  0  0  0  0  0  0  0  0
    0.6907   -4.2816   -0.1026 C   0  0  0  0  0  0  0  0  0  0  0  0
    1.0975   -2.8802   -0.1545 C   0  0  0  0  0  0  0  0  0  0  0  0
    2.4144   -2.4315   -0.3391 C   0  0  0  0  0  0  0  0  0  0  0  0
    3.1838   -3.2077   -0.4586 H   0  0  0  0  0  0  0  0  0  0  0  0
    2.8572   -1.1006   -0.3858 C   0  0  0  0  0  0  0  0  0  0  0  0
    2.0425    0.0027   -0.2784 N   0  0  0  0  0  0  0  0  0  0  0  0
    2.8543    1.1082   -0.3858 C   0  0  0  0  0  0  0  0  0  0  0  0
    4.2446    0.6985   -0.5632 C   0  0  0  0  0  0  0  0  0  0  0  0
    4.2464   -0.6872   -0.5632 C   0  0  0  0  0  0  0  0  0  0  0  0
    5.4238   -1.6131   -0.6534 C   0  0  0  0  0  0  0  0  0  0  0  0
    5.1715   -2.4781   -1.3042 H   0  0  0  0  0  0  0  0  0  0  0  0
    6.2621   -1.0904   -1.1605 H   0  0  0  0  0  0  0  0  0  0  0  0
    5.9006   -2.1292    0.7155 C   0  0  0  0  0  0  0  0  0  0  0  0
    6.7697   -2.8099    0.6096 H   0  0  0  0  0  0  0  0  0  0  0  0
    6.2007   -1.2884    1.3730 H   0  0  0  0  0  0  0  0  0  0  0  0
    5.0933   -2.6820    1.2378 H   0  0  0  0  0  0  0  0  0  0  0  0
    5.4195    1.6275   -0.6534 C   0  0  0  0  0  0  0  0  0  0  0  0
    6.2591    1.1071   -1.1609 H   0  0  0  0  0  0  0  0  0  0  0  0
    5.1647    2.4921   -1.3039 H   0  0  0  0  0  0  0  0  0  0  0  0
    5.8952    2.1445    0.7155 C   0  0  0  0  0  0  0  0  0  0  0  0
    6.7625    2.8275    0.6095 H   0  0  0  0  0  0  0  0  0  0  0  0
    5.0866    2.6950    1.2381 H   0  0  0  0  0  0  0  0  0  0  0  0
    6.1977    1.3043    1.3727 H   0  0  0  0  0  0  0  0  0  0  0  0
    1.6161   -5.4609   -0.1878 C   0  0  0  0  0  0  0  0  0  0  0  0
    1.0437   -6.3546   -0.5130 H   0  0  0  0  0  0  0  0  0  0  0  0
    2.3724   -5.2860   -0.9832 H   0  0  0  0  0  0  0  0  0  0  0  0
    2.3321   -5.7676    1.1390 C   0  0  0  0  0  0  0  0  0  0  0  0
    3.0092   -6.6405    1.0400 H   0  0  0  0  0  0  0  0  0  0  0  0
    2.9364   -4.9013    1.4769 H   0  0  0  0  0  0  0  0  0  0  0  0
    1.5995   -5.9888    1.9412 H   0  0  0  0  0  0  0  0  0  0  0  0
   -1.6016   -5.4652    0.1879 C   0  0  0  0  0  0  0  0  0  0  0  0
   -1.0269   -6.3573    0.5135 H   0  0  0  0  0  0  0  0  0  0  0  0
   -2.3586   -5.2920    0.9829 H   0  0  0  0  0  0  0  0  0  0  0  0
   -2.3163   -5.7741   -1.1391 C   0  0  0  0  0  0  0  0  0  0  0  0
   -2.9911   -6.6487   -1.0402 H   0  0  0  0  0  0  0  0  0  0  0  0
   -2.9226   -4.9094   -1.4775 H   0  0  0  0  0  0  0  0  0  0  0  0
   -1.5827   -5.9936   -1.9409 H   0  0  0  0  0  0  0  0  0  0  0  0
   -2.4079   -2.4379    0.3391 C   0  0  0  0  0  0  0  0  0  0  0  0
   -3.1753   -3.2161    0.4586 H   0  0  0  0  0  0  0  0  0  0  0  0
  1  6  1  0  0  0  0
  2  9  2  0  0  0  0
  2 12  1  0  0  0  0
  3  4  1  0  0  0  0
  3  1  1  0  0  0  0
  4  5  2  0  0  0  0
  5  6  1  0  0  0  0
  5 22  1  0  0  0  0
  6  7  2  0  0  0  0
  7  9  1  0  0  0  0
  7  8  1  0  0  0  0
  9 10  1  0  0  0  0
 10 11  2  0  0  0  0
 10 29  1  0  0  0  0
 11 36  1  0  0  0  0
 12 11  1  0  0  0  0
 13  3  2  0  0  0  0
 14 13  1  0  0  0  0
 15  4  1  0  0  0  0
 15 18  1  0  0  0  0
 16 15  1  0  0  0  0
 17 15  1  0  0  0  0
 18 20  1  0  0  0  0
 18 21  1  0  0  0  0
 19 18  1  0  0  0  0
 22 23  1  0  0  0  0
 22 24  1  0  0  0  0
 25 26  1  0  0  0  0
 25 22  1  0  0  0  0
 27 25  1  0  0  0  0
 28 25  1  0  0  0  0
 29 31  1  0  0  0  0
 29 30  1  0  0  0  0
 32 33  1  0  0  0  0
 32 29  1  0  0  0  0
 34 32  1  0  0  0  0
 35 32  1  0  0  0  0
 36 37  1  0  0  0  0
 36 38  1  0  0  0  0
 39 40  1  0  0  0  0
 39 36  1  0  0  0  0
 41 39  1  0  0  0  0
 42 39  1  0  0  0  0
 43 44  1  0  0  0  0
 44 83  1  0  0  0  0
 45 44  1  0  0  0  0
 45 76  1  0  0  0  0
 46 45  2  0  0  0  0
 47 46  1  0  0  0  0
 47 43  2  0  0  0  0
 48 47  1  0  0  0  0
 49 48  1  0  0  0  0
 50 48  2  0  0  0  0
 50 51  1  0  0  0  0
 52 13  1  0  0  0  0
 52 51  2  0  0  0  0
 53 54  2  0  0  0  0
 53 52  1  0  0  0  0
 54 50  1  0  0  0  0
 55 54  1  0  0  0  0
 55 58  1  0  0  0  0
 56 55  1  0  0  0  0
 57 55  1  0  0  0  0
 58 61  1  0  0  0  0
 58 60  1  0  0  0  0
 59 58  1  0  0  0  0
 62 53  1  0  0  0  0
 62 65  1  0  0  0  0
 63 62  1  0  0  0  0
 64 62  1  0  0  0  0
 65 67  1  0  0  0  0
 65 68  1  0  0  0  0
 66 65  1  0  0  0  0
 69 46  1  0  0  0  0
 69 72  1  0  0  0  0
 70 69  1  0  0  0  0
 71 69  1  0  0  0  0
 72 74  1  0  0  0  0
 72 75  1  0  0  0  0
 73 72  1  0  0  0  0
 76 77  1  0  0  0  0
 76 78  1  0  0  0  0
 79 80  1  0  0  0  0
 79 76  1  0  0  0  0
 81 79  1  0  0  0  0
 82 79  1  0  0  0  0
 83 12  2  0  0  0  0
 83 84  1  0  0  0  0
M  END
