1,2,20,21
 OpenBabel05122313063D

 38 38  0  0  0  0  0  0  0  0999 V2000
   -0.0026   -1.3727   -1.4651 N   0  0  0  0  0  0  0  0  0  0  0  0
    0.0022    1.3725   -1.4652 N   0  0  0  0  0  0  0  0  0  0  0  0
    0.4104   -3.3512    0.0001 C   0  0  0  0  0  0  0  0  0  0  0  0
    0.9423   -4.3236    0.0001 H   0  0  0  0  0  0  0  0  0  0  0  0
   -0.6744   -3.6016    0.0003 H   0  0  0  0  0  0  0  0  0  0  0  0
    0.7879   -2.6069   -1.2731 C   0  0  0  0  0  0  0  0  0  0  0  0
    1.8557   -2.3095   -1.2445 H   0  0  0  0  0  0  0  0  0  0  0  0
    0.6391   -3.2643   -2.1579 H   0  0  0  0  0  0  0  0  0  0  0  0
    0.3534   -0.6693   -2.7177 C   0  0  0  0  0  0  0  0  0  0  0  0
    0.0795   -1.2742   -3.6084 H   0  0  0  0  0  0  0  0  0  0  0  0
    1.4542   -0.5319   -2.7193 H   0  0  0  0  0  0  0  0  0  0  0  0
   -0.3540    0.6689   -2.7177 C   0  0  0  0  0  0  0  0  0  0  0  0
   -0.0803    1.2737   -3.6085 H   0  0  0  0  0  0  0  0  0  0  0  0
   -1.4548    0.5315   -2.7190 H   0  0  0  0  0  0  0  0  0  0  0  0
   -0.7882    2.6067   -1.2732 C   0  0  0  0  0  0  0  0  0  0  0  0
   -1.8559    2.3093   -1.2443 H   0  0  0  0  0  0  0  0  0  0  0  0
   -0.6396    3.2639   -2.1582 H   0  0  0  0  0  0  0  0  0  0  0  0
   -1.0083   -1.6154   -1.4992 H   0  0  0  0  0  0  0  0  0  0  0  0
    1.0079    1.6151   -1.4996 H   0  0  0  0  0  0  0  0  0  0  0  0
    0.0026    1.3727    1.4650 N   0  0  0  0  0  0  0  0  0  0  0  0
   -0.0022   -1.3726    1.4652 N   0  0  0  0  0  0  0  0  0  0  0  0
   -0.4104    3.3512   -0.0002 C   0  0  0  0  0  0  0  0  0  0  0  0
   -0.9423    4.3235   -0.0002 H   0  0  0  0  0  0  0  0  0  0  0  0
    0.6744    3.6015   -0.0003 H   0  0  0  0  0  0  0  0  0  0  0  0
   -0.7879    2.6069    1.2730 C   0  0  0  0  0  0  0  0  0  0  0  0
   -1.8557    2.3094    1.2444 H   0  0  0  0  0  0  0  0  0  0  0  0
   -0.6391    3.2642    2.1579 H   0  0  0  0  0  0  0  0  0  0  0  0
   -0.3534    0.6692    2.7176 C   0  0  0  0  0  0  0  0  0  0  0  0
   -0.0795    1.2741    3.6083 H   0  0  0  0  0  0  0  0  0  0  0  0
   -1.4541    0.5318    2.7193 H   0  0  0  0  0  0  0  0  0  0  0  0
    0.3541   -0.6689    2.7176 C   0  0  0  0  0  0  0  0  0  0  0  0
    0.0803   -1.2738    3.6085 H   0  0  0  0  0  0  0  0  0  0  0  0
    1.4548   -0.5316    2.7190 H   0  0  0  0  0  0  0  0  0  0  0  0
    0.7882   -2.6068    1.2732 C   0  0  0  0  0  0  0  0  0  0  0  0
    1.8560   -2.3094    1.2442 H   0  0  0  0  0  0  0  0  0  0  0  0
    0.6396   -3.2640    2.1581 H   0  0  0  0  0  0  0  0  0  0  0  0
    1.0083    1.6153    1.4991 H   0  0  0  0  0  0  0  0  0  0  0  0
   -1.0079   -1.6152    1.4995 H   0  0  0  0  0  0  0  0  0  0  0  0
  1  6  1  0  0  0  0
  2 15  1  0  0  0  0
  3  5  1  0  0  0  0
  3 34  1  0  0  0  0
  4  3  1  0  0  0  0
  6  7  1  0  0  0  0
  6  3  1  0  0  0  0
  8  6  1  0  0  0  0
  9  1  1  0  0  0  0
 10  9  1  0  0  0  0
 11  9  1  0  0  0  0
 12  9  1  0  0  0  0
 12  2  1  0  0  0  0
 13 12  1  0  0  0  0
 14 12  1  0  0  0  0
 15 16  1  0  0  0  0
 15 22  1  0  0  0  0
 17 15  1  0  0  0  0
 18  1  1  0  0  0  0
 19  2  1  0  0  0  0
 20 37  1  0  0  0  0
 20 28  1  0  0  0  0
 21 38  1  0  0  0  0
 21 31  1  0  0  0  0
 22 23  1  0  0  0  0
 22 25  1  0  0  0  0
 24 22  1  0  0  0  0
 25 20  1  0  0  0  0
 25 27  1  0  0  0  0
 26 25  1  0  0  0  0
 28 30  1  0  0  0  0
 28 29  1  0  0  0  0
 31 28  1  0  0  0  0
 31 33  1  0  0  0  0
 31 32  1  0  0  0  0
 34 21  1  0  0  0  0
 34 36  1  0  0  0  0
 35 34  1  0  0  0  0
M  END
