3,7,8,9
 OpenBabel05122313063D

 49 50  0  0  0  0  0  0  0  0999 V2000
   -1.8397   -3.4752   -0.2867 O   0  0  0  0  0  0  0  0  0  0  0  0
   -2.6970    0.7118    0.0337 C   0  0  0  0  0  0  0  0  0  0  0  0
   -1.3947   -1.2235    0.0542 N   0  0  0  0  0  2  0  0  0  0  0  0
   -1.8396    3.4753   -0.2865 O   0  0  0  0  0  0  0  0  0  0  0  0
    3.1562    2.2946   -0.5601 O   0  0  0  0  0  0  0  0  0  0  0  0
    3.1562   -2.2947   -0.5599 O   0  0  0  0  0  0  0  0  0  0  0  0
   -1.3946    1.2234    0.0540 N   0  0  0  0  0  2  0  0  0  0  0  0
    1.0954    1.3774   -0.1369 N   0  0  0  0  0  2  0  0  0  0  0  0
    1.0954   -1.3774   -0.1368 N   0  0  0  0  0  2  0  0  0  0  0  0
   -1.0525    2.5310   -0.1728 C   0  0  0  0  0  0  0  0  0  0  0  0
   -1.0526   -2.5310   -0.1728 C   0  0  0  0  0  0  0  0  0  0  0  0
    2.4585   -1.3123   -0.2538 C   0  0  0  0  0  0  0  0  0  0  0  0
   -3.9107   -1.4236   -0.0239 C   0  0  0  0  0  0  0  0  0  0  0  0
   -3.8784   -2.5192   -0.0345 H   0  0  0  0  0  0  0  0  0  0  0  0
    0.4673    2.7076   -0.3113 C   0  0  0  0  0  0  0  0  0  0  0  0
    3.1760   -0.0000    0.1222 C   0  0  0  0  0  0  0  0  0  0  0  0
    0.4672   -2.7076   -0.3113 C   0  0  0  0  0  0  0  0  0  0  0  0
   -2.6970   -0.7118    0.0338 C   0  0  0  0  0  0  0  0  0  0  0  0
    2.4585    1.3123   -0.2539 C   0  0  0  0  0  0  0  0  0  0  0  0
   -5.1165    0.7028   -0.0714 C   0  0  0  0  0  0  0  0  0  0  0  0
   -6.0704    1.2526   -0.1072 H   0  0  0  0  0  0  0  0  0  0  0  0
    0.6970    3.2927   -1.7209 C   0  0  0  0  0  0  0  0  0  0  0  0
    1.7616    3.5503   -1.8562 H   0  0  0  0  0  0  0  0  0  0  0  0
    0.0554    4.1881   -1.8400 H   0  0  0  0  0  0  0  0  0  0  0  0
    0.4053    2.5480   -2.4892 H   0  0  0  0  0  0  0  0  0  0  0  0
    0.9170   -3.6876    0.7904 C   0  0  0  0  0  0  0  0  0  0  0  0
    1.9876   -3.9315    0.6646 H   0  0  0  0  0  0  0  0  0  0  0  0
    0.3017   -4.6069    0.7277 H   0  0  0  0  0  0  0  0  0  0  0  0
    0.7637   -3.2269    1.7875 H   0  0  0  0  0  0  0  0  0  0  0  0
    0.9171    3.6875    0.7904 C   0  0  0  0  0  0  0  0  0  0  0  0
    0.7638    3.2267    1.7875 H   0  0  0  0  0  0  0  0  0  0  0  0
    0.3018    4.6068    0.7278 H   0  0  0  0  0  0  0  0  0  0  0  0
    1.9877    3.9314    0.6646 H   0  0  0  0  0  0  0  0  0  0  0  0
   -5.1165   -0.7027   -0.0713 C   0  0  0  0  0  0  0  0  0  0  0  0
   -6.0705   -1.2526   -0.1070 H   0  0  0  0  0  0  0  0  0  0  0  0
    4.5653   -0.0001   -0.5367 C   0  0  0  0  0  0  0  0  0  0  0  0
    5.1167   -0.9103   -0.2396 H   0  0  0  0  0  0  0  0  0  0  0  0
    5.1167    0.9102   -0.2397 H   0  0  0  0  0  0  0  0  0  0  0  0
    4.4797   -0.0001   -1.6413 H   0  0  0  0  0  0  0  0  0  0  0  0
   -3.9107    1.4236   -0.0240 C   0  0  0  0  0  0  0  0  0  0  0  0
   -3.8784    2.5193   -0.0348 H   0  0  0  0  0  0  0  0  0  0  0  0
    0.6969   -3.2926   -1.7209 C   0  0  0  0  0  0  0  0  0  0  0  0
    0.4053   -2.5478   -2.4891 H   0  0  0  0  0  0  0  0  0  0  0  0
    0.0553   -4.1880   -1.8401 H   0  0  0  0  0  0  0  0  0  0  0  0
    1.7615   -3.5503   -1.8563 H   0  0  0  0  0  0  0  0  0  0  0  0
    3.3534    0.0000    1.6649 C   0  0  0  0  0  0  0  0  0  0  0  0
    2.3796    0.0001    2.1900 H   0  0  0  0  0  0  0  0  0  0  0  0
    3.9233    0.9010    1.9710 H   0  0  0  0  0  0  0  0  0  0  0  0
    3.9233   -0.9010    1.9711 H   0  0  0  0  0  0  0  0  0  0  0  0
  1 11  2  0  0  0  0
  2 18  1  0  0  0  0
  2  7  1  0  0  0  0
  4 10  2  0  0  0  0
  5 19  2  0  0  0  0
  6 12  2  0  0  0  0
 10  7  1  0  0  0  0
 11  3  1  0  0  0  0
 12  9  1  0  0  0  0
 12 16  1  0  0  0  0
 13 18  2  0  0  0  0
 14 13  1  0  0  0  0
 15 10  1  0  0  0  0
 15  8  1  0  0  0  0
 15 30  1  0  0  0  0
 16 46  1  0  0  0  0
 17 11  1  0  0  0  0
 17  9  1  0  0  0  0
 17 26  1  0  0  0  0
 18  3  1  0  0  0  0
 19  8  1  0  0  0  0
 19 16  1  0  0  0  0
 20 34  2  0  0  0  0
 20 40  1  0  0  0  0
 21 20  1  0  0  0  0
 22 15  1  0  0  0  0
 23 22  1  0  0  0  0
 24 22  1  0  0  0  0
 25 22  1  0  0  0  0
 26 29  1  0  0  0  0
 27 26  1  0  0  0  0
 28 26  1  0  0  0  0
 30 31  1  0  0  0  0
 32 30  1  0  0  0  0
 33 30  1  0  0  0  0
 34 13  1  0  0  0  0
 35 34  1  0  0  0  0
 36 38  1  0  0  0  0
 36 37  1  0  0  0  0
 36 16  1  0  0  0  0
 39 36  1  0  0  0  0
 40  2  2  0  0  0  0
 41 40  1  0  0  0  0
 42 17  1  0  0  0  0
 43 42  1  0  0  0  0
 44 42  1  0  0  0  0
 45 42  1  0  0  0  0
 46 48  1  0  0  0  0
 46 49  1  0  0  0  0
 46 47  1  0  0  0  0
M  END
