2,5,29,32
 OpenBabel05122313063D

 54 56  0  0  1  0  0  0  0  0999 V2000
    2.8702    1.4583    2.0896 O   0  0  0  0  0  0  0  0  0  0  0  0
    1.3098   -1.5277    0.7453 N   0  0  0  0  0  0  0  0  0  0  0  0
    0.9724   -2.4332    1.1047 H   0  0  0  0  0  0  0  0  0  0  0  0
    1.9608   -1.7617   -0.0288 H   0  0  0  0  0  0  0  0  0  0  0  0
    1.0142    1.0320    0.7374 N   0  0  0  0  0  2  0  0  0  0  0  0
    2.1079   -0.8254    1.7946 C   0  0  2  0  0  0  0  0  0  0  0  0
    1.5916   -0.9905    2.7643 H   0  0  0  0  0  0  0  0  0  0  0  0
    2.0558    0.7021    1.5417 C   0  0  0  0  0  0  0  0  0  0  0  0
    0.5835    2.3319    0.4096 C   0  0  0  0  0  0  0  0  0  0  0  0
    1.1644    3.5475    0.8173 C   0  0  0  0  0  0  0  0  0  0  0  0
    2.0598    3.5221    1.4499 H   0  0  0  0  0  0  0  0  0  0  0  0
    0.5750    4.7539    0.4038 C   0  0  0  0  0  0  0  0  0  0  0  0
    1.0243    5.7078    0.7202 H   0  0  0  0  0  0  0  0  0  0  0  0
    3.5575   -1.3342    1.8974 C   0  0  0  0  0  0  0  0  0  0  0  0
    4.0749   -0.6082    2.5576 H   0  0  0  0  0  0  0  0  0  0  0  0
    3.5813   -2.3287    2.3888 H   0  0  0  0  0  0  0  0  0  0  0  0
    4.2268   -1.4037    0.5432 C   0  0  0  0  0  0  0  0  0  0  0  0
    4.6454   -0.2258   -0.1159 C   0  0  0  0  0  0  0  0  0  0  0  0
    4.5333    0.7402    0.3994 H   0  0  0  0  0  0  0  0  0  0  0  0
    5.1921   -0.2885   -1.4054 C   0  0  0  0  0  0  0  0  0  0  0  0
    5.5154    0.6384   -1.9032 H   0  0  0  0  0  0  0  0  0  0  0  0
    5.3280   -1.5228   -2.0627 C   0  0  0  0  0  0  0  0  0  0  0  0
    5.7584   -1.5667   -3.0747 H   0  0  0  0  0  0  0  0  0  0  0  0
    4.9167   -2.6998   -1.4199 C   0  0  0  0  0  0  0  0  0  0  0  0
    5.0280   -3.6730   -1.9224 H   0  0  0  0  0  0  0  0  0  0  0  0
    4.3689   -2.6376   -0.1276 C   0  0  0  0  0  0  0  0  0  0  0  0
    4.0618   -3.5668    0.3810 H   0  0  0  0  0  0  0  0  0  0  0  0
   -2.8702    1.4584   -2.0896 O   0  0  0  0  0  0  0  0  0  0  0  0
   -1.3098   -1.5277   -0.7453 N   0  0  0  0  0  0  0  0  0  0  0  0
   -0.9724   -2.4332   -1.1048 H   0  0  0  0  0  0  0  0  0  0  0  0
   -1.9608   -1.7617    0.0288 H   0  0  0  0  0  0  0  0  0  0  0  0
   -1.0142    1.0320   -0.7374 N   0  0  0  0  0  2  0  0  0  0  0  0
   -2.1080   -0.8253   -1.7946 C   0  0  2  0  0  0  0  0  0  0  0  0
   -1.5916   -0.9904   -2.7643 H   0  0  0  0  0  0  0  0  0  0  0  0
   -2.0559    0.7021   -1.5416 C   0  0  0  0  0  0  0  0  0  0  0  0
   -0.5834    2.3319   -0.4097 C   0  0  0  0  0  0  0  0  0  0  0  0
   -1.1644    3.5475   -0.8173 C   0  0  0  0  0  0  0  0  0  0  0  0
   -2.0597    3.5221   -1.4499 H   0  0  0  0  0  0  0  0  0  0  0  0
   -0.5750    4.7539   -0.4037 C   0  0  0  0  0  0  0  0  0  0  0  0
   -1.0243    5.7079   -0.7202 H   0  0  0  0  0  0  0  0  0  0  0  0
   -3.5575   -1.3342   -1.8974 C   0  0  0  0  0  0  0  0  0  0  0  0
   -4.0749   -0.6081   -2.5576 H   0  0  0  0  0  0  0  0  0  0  0  0
   -3.5813   -2.3287   -2.3888 H   0  0  0  0  0  0  0  0  0  0  0  0
   -4.2268   -1.4037   -0.5432 C   0  0  0  0  0  0  0  0  0  0  0  0
   -4.6454   -0.2258    0.1159 C   0  0  0  0  0  0  0  0  0  0  0  0
   -4.5333    0.7402   -0.3994 H   0  0  0  0  0  0  0  0  0  0  0  0
   -5.1920   -0.2885    1.4055 C   0  0  0  0  0  0  0  0  0  0  0  0
   -5.5153    0.6384    1.9032 H   0  0  0  0  0  0  0  0  0  0  0  0
   -5.3280   -1.5228    2.0627 C   0  0  0  0  0  0  0  0  0  0  0  0
   -5.7584   -1.5667    3.0747 H   0  0  0  0  0  0  0  0  0  0  0  0
   -4.9167   -2.6998    1.4199 C   0  0  0  0  0  0  0  0  0  0  0  0
   -5.0281   -3.6730    1.9223 H   0  0  0  0  0  0  0  0  0  0  0  0
   -4.3689   -2.6375    0.1276 C   0  0  0  0  0  0  0  0  0  0  0  0
   -4.0618   -3.5668   -0.3810 H   0  0  0  0  0  0  0  0  0  0  0  0
  2  3  1  0  0  0  0
  2  6  1  0  0  0  0
  4  2  1  0  0  0  0
  5  8  1  0  0  0  0
  6 14  1  0  0  0  0
  6  7  1  1  0  0  0
  8  6  1  0  0  0  0
  8  1  2  0  0  0  0
  9  5  1  0  0  0  0
  9 10  1  0  0  0  0
 10 11  1  0  0  0  0
 12 13  1  0  0  0  0
 12 10  2  0  0  0  0
 14 16  1  0  0  0  0
 14 15  1  0  0  0  0
 17 14  1  0  0  0  0
 18 19  1  0  0  0  0
 18 17  1  0  0  0  0
 20 18  2  0  0  0  0
 21 20  1  0  0  0  0
 22 24  2  0  0  0  0
 22 20  1  0  0  0  0
 23 22  1  0  0  0  0
 24 26  1  0  0  0  0
 25 24  1  0  0  0  0
 26 27  1  0  0  0  0
 26 17  2  0  0  0  0
 28 35  2  0  0  0  0
 29 31  1  0  0  0  0
 30 29  1  0  0  0  0
 32 36  1  0  0  0  0
 33 34  1  6  0  0  0
 33 35  1  0  0  0  0
 33 29  1  0  0  0  0
 35 32  1  0  0  0  0
 36  9  2  0  0  0  0
 37 36  1  0  0  0  0
 37 39  2  0  0  0  0
 38 37  1  0  0  0  0
 39 12  1  0  0  0  0
 40 39  1  0  0  0  0
 41 33  1  0  0  0  0
 41 44  1  0  0  0  0
 42 41  1  0  0  0  0
 43 41  1  0  0  0  0
 44 45  2  0  0  0  0
 44 53  1  0  0  0  0
 45 47  1  0  0  0  0
 46 45  1  0  0  0  0
 47 48  1  0  0  0  0
 47 49  2  0  0  0  0
 49 50  1  0  0  0  0
 51 52  1  0  0  0  0
 51 49  1  0  0  0  0
 53 51  2  0  0  0  0
 54 53  1  0  0  0  0
M  END
