1,2,3,4
 OpenBabel05122313063D

 64 69  0  0  1  0  0  0  0  0999 V2000
   -1.3961   -1.5113   -0.2570 N   0  0  0  0  0  0  0  0  0  0  0  0
   -1.3966    1.5109   -0.2570 N   0  0  0  0  0  0  0  0  0  0  0  0
    1.5603    1.3681    0.0856 N   0  0  0  0  0  2  0  0  0  0  0  0
    1.5608   -1.3680    0.0860 N   0  0  0  0  0  2  0  0  0  0  0  0
   -1.0210   -2.7746   -0.6684 C   0  0  0  0  0  3  0  0  0  0  0  0
   -2.0042   -3.3186   -1.5138 C   0  0  0  0  0  0  0  0  0  0  0  0
   -1.9906   -4.3085   -1.9837 H   0  0  0  0  0  0  0  0  0  0  0  0
   -3.0390   -2.3534   -1.5954 C   0  0  0  0  0  0  0  0  0  0  0  0
   -3.9751   -2.4452   -2.1567 H   0  0  0  0  0  0  0  0  0  0  0  0
   -2.6358   -1.2570   -0.8108 C   0  0  0  0  0  0  0  0  0  0  0  0
   -3.4232   -0.0005   -0.4736 C   0  0  0  0  0  0  0  0  0  0  0  0
   -3.7463   -0.0005    1.0461 C   0  0  0  0  0  0  0  0  0  0  0  0
   -4.3283   -0.9055    1.3178 H   0  0  0  0  0  0  0  0  0  0  0  0
   -4.3285    0.9045    1.3177 H   0  0  0  0  0  0  0  0  0  0  0  0
   -2.8103   -0.0003    1.6337 H   0  0  0  0  0  0  0  0  0  0  0  0
   -4.7561   -0.0007   -1.2397 C   0  0  0  0  0  0  0  0  0  0  0  0
   -5.3521   -0.8969   -0.9785 H   0  0  0  0  0  0  0  0  0  0  0  0
   -4.5910   -0.0008   -2.3344 H   0  0  0  0  0  0  0  0  0  0  0  0
   -5.3523    0.8954   -0.9786 H   0  0  0  0  0  0  0  0  0  0  0  0
   -2.6362    1.2562   -0.8109 C   0  0  0  0  0  0  0  0  0  0  0  0
   -3.0395    2.3522   -1.5960 C   0  0  0  0  0  0  0  0  0  0  0  0
   -3.9755    2.4436   -2.1575 H   0  0  0  0  0  0  0  0  0  0  0  0
   -2.0049    3.3176   -1.5146 C   0  0  0  0  0  0  0  0  0  0  0  0
   -1.9915    4.3074   -1.9848 H   0  0  0  0  0  0  0  0  0  0  0  0
   -1.0217    2.7742   -0.6688 C   0  0  0  0  0  3  0  0  0  0  0  0
    0.2312    3.4415   -0.1271 C   0  0  0  0  0  0  0  0  0  0  0  0
    0.1633    3.5586    1.4134 C   0  0  0  0  0  0  0  0  0  0  0  0
    0.0220    2.5639    1.8733 H   0  0  0  0  0  0  0  0  0  0  0  0
   -0.6967    4.1987    1.6937 H   0  0  0  0  0  0  0  0  0  0  0  0
    1.0939    4.0049    1.8232 H   0  0  0  0  0  0  0  0  0  0  0  0
    0.4099    4.8405   -0.7340 C   0  0  0  0  0  0  0  0  0  0  0  0
    1.3559    5.3039   -0.3882 H   0  0  0  0  0  0  0  0  0  0  0  0
   -0.4279    5.4936   -0.4227 H   0  0  0  0  0  0  0  0  0  0  0  0
    0.4141    4.8104   -1.8408 H   0  0  0  0  0  0  0  0  0  0  0  0
    1.3713    2.5325   -0.5229 C   0  0  0  0  0  0  0  0  0  0  0  0
    2.3635    2.7490   -1.5735 C   0  0  0  0  0  0  0  0  0  0  0  0
    2.4209    3.6246   -2.2300 H   0  0  0  0  0  0  0  0  0  0  0  0
    3.2046    1.6693   -1.5614 C   0  0  0  0  0  3  0  0  0  0  0  0
    4.0883    1.5027   -2.1878 H   0  0  0  0  0  0  0  0  0  0  0  0
    2.7360    0.7951   -0.4759 C   0  0  1  0  0  0  0  0  0  0  0  0
    3.6584    0.0004    0.4503 C   0  0  0  0  0  0  0  0  0  0  0  0
    3.3525    0.0006    1.9341 C   0  0  0  0  0  0  0  0  0  0  0  0
    2.2685    0.0004    2.1314 H   0  0  0  0  0  0  0  0  0  0  0  0
    3.7990    0.8992    2.4072 H   0  0  0  0  0  0  0  0  0  0  0  0
    3.7994   -0.8977    2.4074 H   0  0  0  0  0  0  0  0  0  0  0  0
    5.1404    0.0007    0.1263 C   0  0  0  0  0  0  0  0  0  0  0  0
    5.6225   -0.8966    0.5653 H   0  0  0  0  0  0  0  0  0  0  0  0
    5.6222    0.8984    0.5649 H   0  0  0  0  0  0  0  0  0  0  0  0
    5.3543    0.0005   -0.9577 H   0  0  0  0  0  0  0  0  0  0  0  0
    2.7363   -0.7948   -0.4757 C   0  0  1  0  0  0  0  0  0  0  0  0
    3.2050   -1.6689   -1.5611 C   0  0  0  0  0  3  0  0  0  0  0  0
    4.0886   -1.5021   -2.1876 H   0  0  0  0  0  0  0  0  0  0  0  0
    2.3641   -2.7488   -1.5732 C   0  0  0  0  0  0  0  0  0  0  0  0
    2.4215   -3.6243   -2.2297 H   0  0  0  0  0  0  0  0  0  0  0  0
    1.3719   -2.5325   -0.5224 C   0  0  0  0  0  0  0  0  0  0  0  0
    0.2320   -3.4416   -0.1265 C   0  0  0  0  0  0  0  0  0  0  0  0
    0.1640   -3.5584    1.4140 C   0  0  0  0  0  0  0  0  0  0  0  0
   -0.6958   -4.1987    1.6943 H   0  0  0  0  0  0  0  0  0  0  0  0
    0.0226   -2.5637    1.8738 H   0  0  0  0  0  0  0  0  0  0  0  0
    1.0947   -4.0045    1.8239 H   0  0  0  0  0  0  0  0  0  0  0  0
    0.4110   -4.8407   -0.7332 C   0  0  0  0  0  0  0  0  0  0  0  0
   -0.4266   -5.4939   -0.4218 H   0  0  0  0  0  0  0  0  0  0  0  0
    1.3572   -5.3038   -0.3874 H   0  0  0  0  0  0  0  0  0  0  0  0
    0.4152   -4.8107   -1.8400 H   0  0  0  0  0  0  0  0  0  0  0  0
  5  1  1  0  0  0  0
  5 56  1  0  0  0  0
  6  5  1  0  0  0  0
  7  6  1  0  0  0  0
  8  6  2  0  0  0  0
  8 10  1  0  0  0  0
  9  8  1  0  0  0  0
 10 11  1  0  0  0  0
 10  1  2  0  0  0  0
 11 12  1  0  0  0  0
 12 14  1  0  0  0  0
 12 13  1  0  0  0  0
 12 15  1  0  0  0  0
 16 19  1  0  0  0  0
 16 17  1  0  0  0  0
 16 11  1  0  0  0  0
 18 16  1  0  0  0  0
 20 11  1  0  0  0  0
 20  2  2  0  0  0  0
 21 23  2  0  0  0  0
 21 20  1  0  0  0  0
 22 21  1  0  0  0  0
 23 25  1  0  0  0  0
 24 23  1  0  0  0  0
 25  2  1  0  0  0  0
 25 26  1  0  0  0  0
 26 27  1  0  0  0  0
 27 29  1  0  0  0  0
 27 30  1  0  0  0  0
 27 28  1  0  0  0  0
 31 33  1  0  0  0  0
 31 32  1  0  0  0  0
 31 26  1  0  0  0  0
 34 31  1  0  0  0  0
 35 26  1  0  0  0  0
 35  3  1  0  0  0  0
 36 38  1  0  0  0  0
 36 35  2  0  0  0  0
 37 36  1  0  0  0  0
 39 38  1  0  0  0  0
 40 38  1  6  0  0  0
 40 50  1  0  0  0  0
 40  3  1  0  0  0  0
 40 41  1  0  0  0  0
 41 42  1  0  0  0  0
 42 43  1  0  0  0  0
 42 44  1  0  0  0  0
 42 45  1  0  0  0  0
 46 41  1  0  0  0  0
 46 48  1  0  0  0  0
 46 47  1  0  0  0  0
 49 46  1  0  0  0  0
 50 51  1  6  0  0  0
 50  4  1  0  0  0  0
 50 41  1  0  0  0  0
 52 51  1  0  0  0  0
 53 51  1  0  0  0  0
 53 55  2  0  0  0  0
 54 53  1  0  0  0  0
 55 56  1  0  0  0  0
 55  4  1  0  0  0  0
 56 57  1  0  0  0  0
 57 58  1  0  0  0  0
 57 60  1  0  0  0  0
 57 59  1  0  0  0  0
 61 62  1  0  0  0  0
 61 63  1  0  0  0  0
 61 56  1  0  0  0  0
 64 61  1  0  0  0  0
M  END
