2,3,19,20
 OpenBabel05122313063D

 34 34  0  0  0  0  0  0  0  0999 V2000
    4.0159   -0.7541   -0.4582 O   0  0  0  0  0  0  0  0  0  0  0  0
    1.7585   -0.7024   -0.0375 N   0  0  0  0  0  2  0  0  0  0  0  0
   -0.5806   -1.8415   -0.0334 N   0  0  0  0  0  0  0  0  0  0  0  0
    2.9656   -0.1183   -0.2735 C   0  0  0  0  0  0  0  0  0  0  0  0
    1.8014   -2.1611   -0.0221 C   0  0  0  0  0  0  0  0  0  0  0  0
    0.5055   -2.6238    0.6073 C   0  0  0  0  0  0  0  0  0  0  0  0
   -1.9241   -2.0998    0.5250 C   0  0  0  0  0  0  0  0  0  0  0  0
    2.9942    1.4125   -0.3017 C   0  0  0  0  0  0  0  0  0  0  0  0
    1.9034   -2.5799   -1.0547 H   0  0  0  0  0  0  0  0  0  0  0  0
    2.6911   -2.5303    0.5303 H   0  0  0  0  0  0  0  0  0  0  0  0
    0.4877   -2.3842    1.6898 H   0  0  0  0  0  0  0  0  0  0  0  0
    0.3267   -3.7162    0.4885 H   0  0  0  0  0  0  0  0  0  0  0  0
   -2.0953   -3.2006    0.5641 H   0  0  0  0  0  0  0  0  0  0  0  0
   -1.9306   -1.7235    1.5680 H   0  0  0  0  0  0  0  0  0  0  0  0
    4.0006    1.7123    0.0491 H   0  0  0  0  0  0  0  0  0  0  0  0
    2.9340    1.7513   -1.3617 H   0  0  0  0  0  0  0  0  0  0  0  0
   -0.6034   -2.0991   -1.0358 H   0  0  0  0  0  0  0  0  0  0  0  0
    1.9241    2.0998    0.5250 C   0  0  0  0  0  0  0  0  0  0  0  0
    0.5806    1.8415   -0.0334 N   0  0  0  0  0  0  0  0  0  0  0  0
   -1.7585    0.7024   -0.0375 N   0  0  0  0  0  2  0  0  0  0  0  0
   -2.9656    0.1183   -0.2735 C   0  0  0  0  0  0  0  0  0  0  0  0
   -4.0159    0.7541   -0.4582 O   0  0  0  0  0  0  0  0  0  0  0  0
   -2.9942   -1.4125   -0.3017 C   0  0  0  0  0  0  0  0  0  0  0  0
   -4.0006   -1.7123    0.0491 H   0  0  0  0  0  0  0  0  0  0  0  0
   -2.9340   -1.7513   -1.3617 H   0  0  0  0  0  0  0  0  0  0  0  0
   -1.8014    2.1611   -0.0221 C   0  0  0  0  0  0  0  0  0  0  0  0
   -0.5055    2.6238    0.6073 C   0  0  0  0  0  0  0  0  0  0  0  0
    0.6034    2.0992   -1.0358 H   0  0  0  0  0  0  0  0  0  0  0  0
   -0.4877    2.3841    1.6898 H   0  0  0  0  0  0  0  0  0  0  0  0
   -0.3267    3.7162    0.4885 H   0  0  0  0  0  0  0  0  0  0  0  0
   -1.9034    2.5799   -1.0547 H   0  0  0  0  0  0  0  0  0  0  0  0
   -2.6911    2.5303    0.5303 H   0  0  0  0  0  0  0  0  0  0  0  0
    2.0953    3.2006    0.5641 H   0  0  0  0  0  0  0  0  0  0  0  0
    1.9306    1.7235    1.5680 H   0  0  0  0  0  0  0  0  0  0  0  0
  1  4  2  0  0  0  0
  2  5  1  0  0  0  0
  3  7  1  0  0  0  0
  3  6  1  0  0  0  0
  4  2  1  0  0  0  0
  5 10  1  0  0  0  0
  5  6  1  0  0  0  0
  6 11  1  0  0  0  0
  7 13  1  0  0  0  0
  7 14  1  0  0  0  0
  8  4  1  0  0  0  0
  8 15  1  0  0  0  0
  8 18  1  0  0  0  0
  9  5  1  0  0  0  0
 12  6  1  0  0  0  0
 16  8  1  0  0  0  0
 17  3  1  0  0  0  0
 18 33  1  0  0  0  0
 18 34  1  0  0  0  0
 19 18  1  0  0  0  0
 19 27  1  0  0  0  0
 20 26  1  0  0  0  0
 21 20  1  0  0  0  0
 22 21  2  0  0  0  0
 23 21  1  0  0  0  0
 23 24  1  0  0  0  0
 23  7  1  0  0  0  0
 25 23  1  0  0  0  0
 26 32  1  0  0  0  0
 26 27  1  0  0  0  0
 27 29  1  0  0  0  0
 28 19  1  0  0  0  0
 30 27  1  0  0  0  0
 31 26  1  0  0  0  0
M  END
