1,2,22,23
 OpenBabel05122313063D

 40 40  0  0  1  0  0  0  0  0999 V2000
    1.3444   -1.4966    0.0219 N   0  0  0  0  0  2  0  0  0  0  0  0
    1.3444    1.4966    0.0219 N   0  0  0  0  0  2  0  0  0  0  0  0
    0.7086   -2.7923    0.2865 C   0  0  0  0  0  0  0  0  0  0  0  0
    0.6732   -2.9648    1.3867 H   0  0  0  0  0  0  0  0  0  0  0  0
    1.2886   -3.6225   -0.1621 H   0  0  0  0  0  0  0  0  0  0  0  0
    0.7086    2.7923    0.2865 C   0  0  0  0  0  0  0  0  0  0  0  0
    1.2886    3.6225   -0.1622 H   0  0  0  0  0  0  0  0  0  0  0  0
    0.6732    2.9648    1.3867 H   0  0  0  0  0  0  0  0  0  0  0  0
    2.6649    1.2831   -0.0335 C   0  0  2  0  0  3  0  0  0  0  0  0
    3.2581    0.0000   -0.1006 C   0  0  0  0  0  0  0  0  0  0  0  0
    4.3516    0.0000   -0.1788 H   0  0  0  0  0  0  0  0  0  0  0  0
    2.6649   -1.2831   -0.0335 C   0  0  0  0  0  0  0  0  0  0  0  0
    3.5799    2.4846   -0.0095 C   0  0  0  0  0  0  0  0  0  0  0  0
    3.4636    3.0531    0.9362 H   0  0  0  0  0  0  0  0  0  0  0  0
    3.3524    3.1798   -0.8436 H   0  0  0  0  0  0  0  0  0  0  0  0
    4.6358    2.1764   -0.0966 H   0  0  0  0  0  0  0  0  0  0  0  0
    3.5799   -2.4845   -0.0095 C   0  0  0  0  0  0  0  0  0  0  0  0
    3.3524   -3.1798   -0.8436 H   0  0  0  0  0  0  0  0  0  0  0  0
    3.4636   -3.0531    0.9361 H   0  0  0  0  0  0  0  0  0  0  0  0
    4.6358   -2.1764   -0.0967 H   0  0  0  0  0  0  0  0  0  0  0  0
   -0.7086   -2.7923   -0.2864 C   0  0  0  0  0  0  0  0  0  0  0  0
   -1.3444   -1.4966   -0.0219 N   0  0  0  0  0  2  0  0  0  0  0  0
   -1.3444    1.4966   -0.0219 N   0  0  0  0  0  2  0  0  0  0  0  0
   -0.7086    2.7923   -0.2865 C   0  0  0  0  0  0  0  0  0  0  0  0
   -0.6732    2.9649   -1.3866 H   0  0  0  0  0  0  0  0  0  0  0  0
   -1.2886    3.6225    0.1622 H   0  0  0  0  0  0  0  0  0  0  0  0
   -2.6649    1.2831    0.0336 C   0  0  2  0  0  3  0  0  0  0  0  0
   -3.2581    0.0000    0.1006 C   0  0  0  0  0  0  0  0  0  0  0  0
   -2.6649   -1.2831    0.0336 C   0  0  0  0  0  0  0  0  0  0  0  0
   -3.5799   -2.4846    0.0096 C   0  0  0  0  0  0  0  0  0  0  0  0
   -3.4636   -3.0532   -0.9360 H   0  0  0  0  0  0  0  0  0  0  0  0
   -3.3524   -3.1797    0.8438 H   0  0  0  0  0  0  0  0  0  0  0  0
   -4.6358   -2.1764    0.0968 H   0  0  0  0  0  0  0  0  0  0  0  0
   -4.3516    0.0000    0.1790 H   0  0  0  0  0  0  0  0  0  0  0  0
   -3.5799    2.4846    0.0096 C   0  0  0  0  0  0  0  0  0  0  0  0
   -3.3523    3.1797    0.8438 H   0  0  0  0  0  0  0  0  0  0  0  0
   -3.4636    3.0531   -0.9360 H   0  0  0  0  0  0  0  0  0  0  0  0
   -4.6357    2.1764    0.0969 H   0  0  0  0  0  0  0  0  0  0  0  0
   -1.2886   -3.6225    0.1623 H   0  0  0  0  0  0  0  0  0  0  0  0
   -0.6732   -2.9649   -1.3866 H   0  0  0  0  0  0  0  0  0  0  0  0
  1  3  1  0  0  0  0
  2  6  1  0  0  0  0
  3  4  1  0  0  0  0
  5  3  1  0  0  0  0
  6  8  1  0  0  0  0
  7  6  1  0  0  0  0
  9 13  1  1  0  0  0
  9  2  1  0  0  0  0
 10 12  2  0  0  0  0
 10  9  1  0  0  0  0
 11 10  1  0  0  0  0
 12 17  1  0  0  0  0
 12  1  1  0  0  0  0
 13 14  1  0  0  0  0
 15 13  1  0  0  0  0
 16 13  1  0  0  0  0
 17 19  1  0  0  0  0
 18 17  1  0  0  0  0
 20 17  1  0  0  0  0
 21 22  1  0  0  0  0
 21 39  1  0  0  0  0
 21  3  1  0  0  0  0
 22 29  1  0  0  0  0
 23 27  1  0  0  0  0
 24 23  1  0  0  0  0
 24 26  1  0  0  0  0
 24  6  1  0  0  0  0
 25 24  1  0  0  0  0
 27 35  1  6  0  0  0
 27 28  1  0  0  0  0
 28 34  1  0  0  0  0
 29 28  2  0  0  0  0
 30 29  1  0  0  0  0
 30 33  1  0  0  0  0
 30 32  1  0  0  0  0
 31 30  1  0  0  0  0
 35 38  1  0  0  0  0
 35 36  1  0  0  0  0
 37 35  1  0  0  0  0
 40 21  1  0  0  0  0
M  END
