1,2,3,4
 OpenBabel05122313063D

 64 68  0  0  1  0  0  0  0  0999 V2000
   -1.2705   -1.3644   -0.3766 N   0  0  0  0  0  2  0  0  0  0  0  0
   -1.2702    1.3647   -0.3766 N   0  0  0  0  0  2  0  0  0  0  0  0
    1.2705    1.3644   -0.3766 N   0  0  0  0  0  2  0  0  0  0  0  0
    1.2702   -1.3647   -0.3766 N   0  0  0  0  0  2  0  0  0  0  0  0
   -5.4729   -0.0004    0.3874 O   0  0  0  0  0  0  0  0  0  0  0  0
   -7.7276   -0.0008    0.6881 O   0  0  0  0  0  0  0  0  0  0  0  0
    5.4729    0.0001    0.3874 O   0  0  0  0  0  0  0  0  0  0  0  0
    7.7276    0.0003    0.6881 O   0  0  0  0  0  0  0  0  0  0  0  0
   -2.4830   -1.2664    0.1844 C   0  0  1  0  0  3  0  0  0  0  0  0
   -3.3034   -2.5025    0.4785 C   0  0  0  0  0  0  0  0  0  0  0  0
   -2.6729   -3.4065    0.5469 H   0  0  0  0  0  0  0  0  0  0  0  0
   -4.0805   -2.6708   -0.2954 H   0  0  0  0  0  0  0  0  0  0  0  0
   -3.8376   -2.3641    1.4366 H   0  0  0  0  0  0  0  0  0  0  0  0
   -3.0311    0.0004    0.5573 C   0  0  0  0  0  0  0  0  0  0  0  0
   -4.3444    0.0004    1.2325 C   0  0  0  0  0  0  0  0  0  0  0  0
   -4.6935    0.0011    2.5397 C   0  0  0  0  0  0  0  0  0  0  0  0
   -3.9832    0.0017    3.3745 H   0  0  0  0  0  0  0  0  0  0  0  0
   -6.1871    0.0008    2.6363 C   0  0  0  0  0  0  0  0  0  0  0  0
   -6.6203    0.8884    3.1476 H   0  0  0  0  0  0  0  0  0  0  0  0
   -6.6199   -0.8865    3.1487 H   0  0  0  0  0  0  0  0  0  0  0  0
   -6.6247   -0.0002    1.1702 C   0  0  0  0  0  0  0  0  0  0  0  0
   -2.4828    1.2670    0.1844 C   0  0  0  0  0  0  0  0  0  0  0  0
   -3.3029    2.5033    0.4784 C   0  0  0  0  0  0  0  0  0  0  0  0
   -4.0798    2.6718   -0.2958 H   0  0  0  0  0  0  0  0  0  0  0  0
   -2.6722    3.4072    0.5469 H   0  0  0  0  0  0  0  0  0  0  0  0
   -3.8374    2.3650    1.4364 H   0  0  0  0  0  0  0  0  0  0  0  0
   -0.7150    2.5142   -0.9738 C   0  0  0  0  0  0  0  0  0  0  0  0
   -1.4077    3.5392   -1.6441 C   0  0  0  0  0  0  0  0  0  0  0  0
   -2.5008    3.5078   -1.7222 H   0  0  0  0  0  0  0  0  0  0  0  0
   -0.6997    4.5721   -2.2831 C   0  0  0  0  0  0  0  0  0  0  0  0
   -1.2547    5.3574   -2.8173 H   0  0  0  0  0  0  0  0  0  0  0  0
    0.7008    4.5719   -2.2830 C   0  0  0  0  0  0  0  0  0  0  0  0
    1.2560    5.3571   -2.8173 H   0  0  0  0  0  0  0  0  0  0  0  0
    1.4086    3.5389   -1.6441 C   0  0  0  0  0  0  0  0  0  0  0  0
    2.5017    3.5072   -1.7222 H   0  0  0  0  0  0  0  0  0  0  0  0
    0.7156    2.5140   -0.9738 C   0  0  0  0  0  0  0  0  0  0  0  0
    2.4830    1.2664    0.1844 C   0  0  1  0  0  3  0  0  0  0  0  0
    3.3034    2.5026    0.4785 C   0  0  0  0  0  0  0  0  0  0  0  0
    4.0805    2.6708   -0.2955 H   0  0  0  0  0  0  0  0  0  0  0  0
    3.8377    2.3641    1.4366 H   0  0  0  0  0  0  0  0  0  0  0  0
    2.6729    3.4066    0.5470 H   0  0  0  0  0  0  0  0  0  0  0  0
    3.0311   -0.0003    0.5573 C   0  0  0  0  0  0  0  0  0  0  0  0
    4.3444   -0.0004    1.2325 C   0  0  0  0  0  0  0  0  0  0  0  0
    4.6935   -0.0009    2.5397 C   0  0  0  0  0  0  0  0  0  0  0  0
    3.9832   -0.0013    3.3745 H   0  0  0  0  0  0  0  0  0  0  0  0
    6.1871   -0.0007    2.6363 C   0  0  0  0  0  0  0  0  0  0  0  0
    6.6200    0.8865    3.1485 H   0  0  0  0  0  0  0  0  0  0  0  0
    6.6202   -0.8883    3.1478 H   0  0  0  0  0  0  0  0  0  0  0  0
    6.6247   -0.0001    1.1702 C   0  0  0  0  0  0  0  0  0  0  0  0
    2.4827   -1.2669    0.1844 C   0  0  0  0  0  0  0  0  0  0  0  0
    3.3029   -2.5033    0.4784 C   0  0  0  0  0  0  0  0  0  0  0  0
    4.0798   -2.6717   -0.2957 H   0  0  0  0  0  0  0  0  0  0  0  0
    2.6721   -3.4071    0.5469 H   0  0  0  0  0  0  0  0  0  0  0  0
    3.8373   -2.3650    1.4364 H   0  0  0  0  0  0  0  0  0  0  0  0
    0.7150   -2.5141   -0.9738 C   0  0  0  0  0  0  0  0  0  0  0  0
    1.4077   -3.5391   -1.6442 C   0  0  0  0  0  0  0  0  0  0  0  0
    2.5008   -3.5077   -1.7223 H   0  0  0  0  0  0  0  0  0  0  0  0
    0.6997   -4.5720   -2.2831 C   0  0  0  0  0  0  0  0  0  0  0  0
    1.2547   -5.3573   -2.8174 H   0  0  0  0  0  0  0  0  0  0  0  0
   -0.7008   -4.5719   -2.2831 C   0  0  0  0  0  0  0  0  0  0  0  0
   -1.2560   -5.3571   -2.8173 H   0  0  0  0  0  0  0  0  0  0  0  0
   -1.4086   -3.5388   -1.6441 C   0  0  0  0  0  0  0  0  0  0  0  0
   -2.5017   -3.5072   -1.7222 H   0  0  0  0  0  0  0  0  0  0  0  0
   -0.7156   -2.5140   -0.9738 C   0  0  0  0  0  0  0  0  0  0  0  0
  1  9  1  0  0  0  0
  2 22  1  0  0  0  0
  3 37  1  0  0  0  0
  4 50  1  0  0  0  0
  5 21  1  0  0  0  0
  5 15  1  0  0  0  0
  6 21  2  0  0  0  0
  7 49  1  0  0  0  0
  7 43  1  0  0  0  0
  8 49  2  0  0  0  0
  9 10  1  1  0  0  0
  9 14  1  0  0  0  0
 10 11  1  0  0  0  0
 10 13  1  0  0  0  0
 12 10  1  0  0  0  0
 14 15  1  0  0  0  0
 15 16  2  0  0  0  0
 16 18  1  0  0  0  0
 16 17  1  0  0  0  0
 18 19  1  0  0  0  0
 18 20  1  0  0  0  0
 21 18  1  0  0  0  0
 22 23  1  0  0  0  0
 22 14  2  0  0  0  0
 23 25  1  0  0  0  0
 23 26  1  0  0  0  0
 24 23  1  0  0  0  0
 27 36  1  0  0  0  0
 27  2  1  0  0  0  0
 28 27  2  0  0  0  0
 29 28  1  0  0  0  0
 30 32  2  0  0  0  0
 30 28  1  0  0  0  0
 31 30  1  0  0  0  0
 32 34  1  0  0  0  0
 33 32  1  0  0  0  0
 34 36  2  0  0  0  0
 35 34  1  0  0  0  0
 36  3  1  0  0  0  0
 37 38  1  1  0  0  0
 37 42  1  0  0  0  0
 38 41  1  0  0  0  0
 38 40  1  0  0  0  0
 39 38  1  0  0  0  0
 42 43  1  0  0  0  0
 43 44  2  0  0  0  0
 44 46  1  0  0  0  0
 44 45  1  0  0  0  0
 46 48  1  0  0  0  0
 46 47  1  0  0  0  0
 49 46  1  0  0  0  0
 50 51  1  0  0  0  0
 50 42  2  0  0  0  0
 51 53  1  0  0  0  0
 51 54  1  0  0  0  0
 52 51  1  0  0  0  0
 55 64  1  0  0  0  0
 55  4  1  0  0  0  0
 56 55  2  0  0  0  0
 57 56  1  0  0  0  0
 58 60  2  0  0  0  0
 58 56  1  0  0  0  0
 59 58  1  0  0  0  0
 60 62  1  0  0  0  0
 61 60  1  0  0  0  0
 62 64  2  0  0  0  0
 63 62  1  0  0  0  0
 64  1  1  0  0  0  0
M  END
