4,11,16,26
 OpenBabel05122313063D

 48 50  0  0  1  0  0  0  0  0999 V2000
   -0.0002    3.0695    0.8282 C   0  0  0  0  0  0  0  0  0  0  0  0
    1.2968    2.5392    0.5930 C   0  0  1  0  0  3  0  0  0  0  0  0
    2.4582    3.3855    1.0774 C   0  0  0  0  0  0  0  0  0  0  0  0
    1.4952    1.3336    0.0362 N   0  0  0  0  0  2  0  0  0  0  0  0
    2.6976    0.7259   -0.3294 C   0  0  0  0  0  0  0  0  0  0  0  0
    3.8401    1.4020   -0.8142 C   0  0  0  0  0  0  0  0  0  0  0  0
    4.9709    0.7013   -1.2554 C   0  0  0  0  0  0  0  0  0  0  0  0
    4.9710   -0.7012   -1.2551 C   0  0  0  0  0  0  0  0  0  0  0  0
    3.8402   -1.4018   -0.8137 C   0  0  0  0  0  0  0  0  0  0  0  0
    2.6976   -0.7256   -0.3293 C   0  0  0  0  0  0  0  0  0  0  0  0
    1.4954   -1.3333    0.0364 N   0  0  0  0  0  2  0  0  0  0  0  0
    1.2971   -2.5391    0.5931 C   0  0  1  0  0  3  0  0  0  0  0  0
    2.4587   -3.3851    1.0773 C   0  0  0  0  0  0  0  0  0  0  0  0
    0.0002   -3.0695    0.8282 C   0  0  0  0  0  0  0  0  0  0  0  0
   -1.2971    2.5391    0.5930 C   0  0  0  0  0  0  0  0  0  0  0  0
   -1.4954    1.3334    0.0363 N   0  0  0  0  0  2  0  0  0  0  0  0
   -2.4587    3.3851    1.0772 C   0  0  0  0  0  0  0  0  0  0  0  0
   -2.6976    0.7256   -0.3293 C   0  0  0  0  0  0  0  0  0  0  0  0
   -3.8402    1.4018   -0.8138 C   0  0  0  0  0  0  0  0  0  0  0  0
   -4.9710    0.7012   -1.2551 C   0  0  0  0  0  0  0  0  0  0  0  0
   -4.9709   -0.7014   -1.2553 C   0  0  0  0  0  0  0  0  0  0  0  0
   -3.8401   -1.4020   -0.8142 C   0  0  0  0  0  0  0  0  0  0  0  0
   -2.6976   -0.7259   -0.3294 C   0  0  0  0  0  0  0  0  0  0  0  0
   -1.2968   -2.5392    0.5930 C   0  0  0  0  0  0  0  0  0  0  0  0
   -2.4582   -3.3855    1.0773 C   0  0  0  0  0  0  0  0  0  0  0  0
   -1.4952   -1.3336    0.0362 N   0  0  0  0  0  2  0  0  0  0  0  0
   -0.0002    4.0450    1.3341 H   0  0  0  0  0  0  0  0  0  0  0  0
    2.1308    4.0538    1.8954 H   0  0  0  0  0  0  0  0  0  0  0  0
    2.8598    4.0311    0.2682 H   0  0  0  0  0  0  0  0  0  0  0  0
    3.2936    2.7550    1.4389 H   0  0  0  0  0  0  0  0  0  0  0  0
    3.8290    2.4962   -0.8844 H   0  0  0  0  0  0  0  0  0  0  0  0
    5.8455    1.2583   -1.6237 H   0  0  0  0  0  0  0  0  0  0  0  0
    5.8456   -1.2582   -1.6232 H   0  0  0  0  0  0  0  0  0  0  0  0
    3.8292   -2.4961   -0.8835 H   0  0  0  0  0  0  0  0  0  0  0  0
    2.1316   -4.0535    1.8954 H   0  0  0  0  0  0  0  0  0  0  0  0
    3.2940   -2.7545    1.4386 H   0  0  0  0  0  0  0  0  0  0  0  0
    2.8602   -4.0307    0.2681 H   0  0  0  0  0  0  0  0  0  0  0  0
    0.0002   -4.0450    1.3341 H   0  0  0  0  0  0  0  0  0  0  0  0
   -2.1316    4.0535    1.8954 H   0  0  0  0  0  0  0  0  0  0  0  0
   -3.2940    2.7545    1.4386 H   0  0  0  0  0  0  0  0  0  0  0  0
   -2.8602    4.0307    0.2680 H   0  0  0  0  0  0  0  0  0  0  0  0
   -3.8292    2.4961   -0.8836 H   0  0  0  0  0  0  0  0  0  0  0  0
   -5.8456    1.2582   -1.6232 H   0  0  0  0  0  0  0  0  0  0  0  0
   -5.8455   -1.2584   -1.6236 H   0  0  0  0  0  0  0  0  0  0  0  0
   -3.8290   -2.4963   -0.8843 H   0  0  0  0  0  0  0  0  0  0  0  0
   -2.8598   -4.0310    0.2681 H   0  0  0  0  0  0  0  0  0  0  0  0
   -3.2936   -2.7550    1.4388 H   0  0  0  0  0  0  0  0  0  0  0  0
   -2.1309   -4.0538    1.8954 H   0  0  0  0  0  0  0  0  0  0  0  0
  1 27  1  0  0  0  0
  2  1  1  0  0  0  0
  2  3  1  1  0  0  0
  3 30  1  0  0  0  0
  3 28  1  0  0  0  0
  4  2  1  0  0  0  0
  5 10  1  0  0  0  0
  5  4  1  0  0  0  0
  6  5  2  0  0  0  0
  7  8  2  0  0  0  0
  7  6  1  0  0  0  0
  8  9  1  0  0  0  0
  9 10  2  0  0  0  0
 10 11  1  0  0  0  0
 11 12  1  0  0  0  0
 12 14  1  0  0  0  0
 12 13  1  1  0  0  0
 13 36  1  0  0  0  0
 13 35  1  0  0  0  0
 14 38  1  0  0  0  0
 15  1  2  0  0  0  0
 15 17  1  0  0  0  0
 16 15  1  0  0  0  0
 17 40  1  0  0  0  0
 17 39  1  0  0  0  0
 18 16  1  0  0  0  0
 19 18  2  0  0  0  0
 20 19  1  0  0  0  0
 21 20  2  0  0  0  0
 21 22  1  0  0  0  0
 22 23  2  0  0  0  0
 23 18  1  0  0  0  0
 23 26  1  0  0  0  0
 24 14  2  0  0  0  0
 24 25  1  0  0  0  0
 25 47  1  0  0  0  0
 25 48  1  0  0  0  0
 26 24  1  0  0  0  0
 29  3  1  0  0  0  0
 31  6  1  0  0  0  0
 32  7  1  0  0  0  0
 33  8  1  0  0  0  0
 34  9  1  0  0  0  0
 37 13  1  0  0  0  0
 41 17  1  0  0  0  0
 42 19  1  0  0  0  0
 43 20  1  0  0  0  0
 44 21  1  0  0  0  0
 45 22  1  0  0  0  0
 46 25  1  0  0  0  0
M  END
