1,7,8,19
 OpenBabel05122313063D

 72 76  0  0  1  0  0  0  0  0999 V2000
    0.8328    0.4347    0.0466 N   0  0  0  0  0  0  0  0  0  0  0  0
    2.0164    0.4159    2.3258 C   0  0  0  0  0  0  0  0  0  0  0  0
    2.9070    0.8988    1.8872 H   0  0  0  0  0  0  0  0  0  0  0  0
    1.3756    1.2365    2.7155 H   0  0  0  0  0  0  0  0  0  0  0  0
   -0.0020   -0.9967    1.8975 C   0  0  2  0  0  0  0  0  0  0  0  0
   -0.5586   -0.1584    2.3583 H   0  0  0  0  0  0  0  0  0  0  0  0
   -0.9571   -1.5819    0.8974 N   0  0  0  0  0  0  0  0  0  0  0  0
    0.7312   -2.2934   -1.0633 N   0  0  0  0  0  2  0  0  0  0  0  0
    1.2426   -0.3642    1.2432 C   0  0  1  0  0  0  0  0  0  0  0  0
    1.9010   -1.1675    0.8547 H   0  0  0  0  0  0  0  0  0  0  0  0
    0.0300    1.6210    0.4484 C   0  0  0  0  0  0  0  0  0  0  0  0
    0.6700    2.4885    0.7057 H   0  0  0  0  0  0  0  0  0  0  0  0
   -0.5404    1.3626    1.3626 H   0  0  0  0  0  0  0  0  0  0  0  0
    1.9773    0.7888   -0.8663 C   0  0  0  0  0  0  0  0  0  0  0  0
    1.5116    1.0124   -1.8505 H   0  0  0  0  0  0  0  0  0  0  0  0
    2.5417   -0.1515   -1.0115 H   0  0  0  0  0  0  0  0  0  0  0  0
    2.5143   -4.4716   -0.7576 C   0  0  0  0  0  0  0  0  0  0  0  0
    3.2132   -5.3114   -0.6323 H   0  0  0  0  0  0  0  0  0  0  0  0
   -1.4943    0.8575   -1.2184 N   0  0  0  0  0  2  0  0  0  0  0  0
    1.4058   -4.3219    0.0904 C   0  0  0  0  0  0  0  0  0  0  0  0
    1.1983   -5.0433    0.8948 H   0  0  0  0  0  0  0  0  0  0  0  0
    0.5366   -3.2432   -0.0988 C   0  0  2  0  0  3  0  0  0  0  0  0
   -2.9450   -0.1250    1.6497 C   0  0  0  0  0  0  0  0  0  0  0  0
   -0.9705    1.9548   -0.6069 C   0  0  1  0  0  3  0  0  0  0  0  0
   -1.3821    3.2579   -0.9017 C   0  0  0  0  0  0  0  0  0  0  0  0
   -0.9191    4.1015   -0.3688 H   0  0  0  0  0  0  0  0  0  0  0  0
    1.7917   -2.4597   -1.9028 C   0  0  0  0  0  0  0  0  0  0  0  0
    1.8587   -1.7070   -2.7049 H   0  0  0  0  0  0  0  0  0  0  0  0
    0.4003   -1.9273    3.0548 C   0  0  0  0  0  0  0  0  0  0  0  0
   -0.5070   -2.3792    3.5072 H   0  0  0  0  0  0  0  0  0  0  0  0
    1.0198   -2.7638    2.6675 H   0  0  0  0  0  0  0  0  0  0  0  0
    2.9323    1.8970   -0.4831 C   0  0  0  0  0  0  0  0  0  0  0  0
   -3.7313    0.4927    0.6569 C   0  0  0  0  0  0  0  0  0  0  0  0
   -3.9016   -0.0491   -0.2848 H   0  0  0  0  0  0  0  0  0  0  0  0
   -2.3813    3.4603   -1.8662 C   0  0  0  0  0  0  0  0  0  0  0  0
   -2.7277    4.4737   -2.1165 H   0  0  0  0  0  0  0  0  0  0  0  0
    2.5923    3.2498   -0.7032 C   0  0  0  0  0  0  0  0  0  0  0  0
    1.6203    3.4918   -1.1615 H   0  0  0  0  0  0  0  0  0  0  0  0
    4.2218    1.6109    0.0148 C   0  0  0  0  0  0  0  0  0  0  0  0
    4.5241    0.5592    0.1479 H   0  0  0  0  0  0  0  0  0  0  0  0
   -4.2734    1.7687    0.8616 C   0  0  0  0  0  0  0  0  0  0  0  0
   -4.8712    2.2392    0.0669 H   0  0  0  0  0  0  0  0  0  0  0  0
    2.4221   -0.4925    3.4915 C   0  0  0  0  0  0  0  0  0  0  0  0
    3.1230   -1.2743    3.1222 H   0  0  0  0  0  0  0  0  0  0  0  0
    2.9804    0.0939    4.2500 H   0  0  0  0  0  0  0  0  0  0  0  0
   -2.3801   -1.4969    1.3920 C   0  0  0  0  0  0  0  0  0  0  0  0
   -2.4565   -2.1102    2.3196 H   0  0  0  0  0  0  0  0  0  0  0  0
   -2.9728   -1.9876    0.5959 H   0  0  0  0  0  0  0  0  0  0  0  0
   -2.9057    2.3307   -2.5134 C   0  0  0  0  0  0  0  0  0  0  0  0
   -3.6737    2.4263   -3.2946 H   0  0  0  0  0  0  0  0  0  0  0  0
    5.1241    2.6377    0.3282 C   0  0  0  0  0  0  0  0  0  0  0  0
    6.1256    2.3894    0.7117 H   0  0  0  0  0  0  0  0  0  0  0  0
   -0.7251   -3.0366    0.6604 C   0  0  0  0  0  0  0  0  0  0  0  0
   -1.5579   -3.3524   -0.0069 H   0  0  0  0  0  0  0  0  0  0  0  0
   -0.7651   -3.6315    1.5960 H   0  0  0  0  0  0  0  0  0  0  0  0
   -2.4313    1.0594   -2.1863 C   0  0  0  0  0  0  0  0  0  0  0  0
   -2.7975    0.1426   -2.6715 H   0  0  0  0  0  0  0  0  0  0  0  0
    2.6897   -3.5222   -1.7775 C   0  0  0  0  0  0  0  0  0  0  0  0
    3.5247   -3.5972   -2.4893 H   0  0  0  0  0  0  0  0  0  0  0  0
    1.1993   -1.1660    4.1178 C   0  0  0  0  0  0  0  0  0  0  0  0
    0.5508   -0.3911    4.5848 H   0  0  0  0  0  0  0  0  0  0  0  0
    1.5004   -1.8559    4.9330 H   0  0  0  0  0  0  0  0  0  0  0  0
   -2.7630    0.5462    2.8790 C   0  0  0  0  0  0  0  0  0  0  0  0
   -2.2152    0.0510    3.6974 H   0  0  0  0  0  0  0  0  0  0  0  0
   -3.2972    1.8278    3.0848 C   0  0  0  0  0  0  0  0  0  0  0  0
   -3.1414    2.3391    4.0471 H   0  0  0  0  0  0  0  0  0  0  0  0
    3.4868    4.2816   -0.3807 C   0  0  0  0  0  0  0  0  0  0  0  0
    3.1995    5.3294   -0.5584 H   0  0  0  0  0  0  0  0  0  0  0  0
    4.7530    3.9795    0.1444 C   0  0  0  0  0  0  0  0  0  0  0  0
    5.4579    4.7879    0.3914 H   0  0  0  0  0  0  0  0  0  0  0  0
   -4.0433    2.4469    2.0693 C   0  0  0  0  0  0  0  0  0  0  0  0
   -4.4620    3.4525    2.2274 H   0  0  0  0  0  0  0  0  0  0  0  0
  1 11  1  0  0  0  0
  1  9  1  0  0  0  0
  2  4  1  0  0  0  0
  2 43  1  0  0  0  0
  3  2  1  0  0  0  0
  5  6  1  1  0  0  0
  5 29  1  0  0  0  0
  7 46  1  0  0  0  0
  7  5  1  0  0  0  0
  8 22  1  0  0  0  0
  9 10  1  6  0  0  0
  9  5  1  0  0  0  0
  9  2  1  0  0  0  0
 11 12  1  0  0  0  0
 11 13  1  0  0  0  0
 14 32  1  0  0  0  0
 14  1  1  0  0  0  0
 15 14  1  0  0  0  0
 16 14  1  0  0  0  0
 17 18  1  0  0  0  0
 17 20  2  0  0  0  0
 19 24  1  0  0  0  0
 20 21  1  0  0  0  0
 22 20  1  0  0  0  0
 22 53  1  6  0  0  0
 23 63  1  0  0  0  0
 24 11  1  1  0  0  0
 25 24  1  0  0  0  0
 25 26  1  0  0  0  0
 27 58  2  0  0  0  0
 27  8  1  0  0  0  0
 28 27  1  0  0  0  0
 29 30  1  0  0  0  0
 29 60  1  0  0  0  0
 31 29  1  0  0  0  0
 32 39  1  0  0  0  0
 33 41  1  0  0  0  0
 33 23  2  0  0  0  0
 34 33  1  0  0  0  0
 35 25  2  0  0  0  0
 36 35  1  0  0  0  0
 37 32  2  0  0  0  0
 37 67  1  0  0  0  0
 38 37  1  0  0  0  0
 39 40  1  0  0  0  0
 39 51  2  0  0  0  0
 41 71  2  0  0  0  0
 42 41  1  0  0  0  0
 43 60  1  0  0  0  0
 43 45  1  0  0  0  0
 44 43  1  0  0  0  0
 46 23  1  0  0  0  0
 46 47  1  0  0  0  0
 48 46  1  0  0  0  0
 49 56  2  0  0  0  0
 49 35  1  0  0  0  0
 50 49  1  0  0  0  0
 51 52  1  0  0  0  0
 53  7  1  0  0  0  0
 53 55  1  0  0  0  0
 54 53  1  0  0  0  0
 56 19  1  0  0  0  0
 57 56  1  0  0  0  0
 58 17  1  0  0  0  0
 59 58  1  0  0  0  0
 60 61  1  0  0  0  0
 60 62  1  0  0  0  0
 63 65  2  0  0  0  0
 63 64  1  0  0  0  0
 65 66  1  0  0  0  0
 67 69  2  0  0  0  0
 68 67  1  0  0  0  0
 69 51  1  0  0  0  0
 69 70  1  0  0  0  0
 71 72  1  0  0  0  0
 71 65  1  0  0  0  0
M  END
