2,4,6,7
 OpenBabel05122313063D

 84 88  0  0  0  0  0  0  0  0999 V2000
   -4.0093    3.7105   -0.7340 F   0  0  0  0  0  0  0  0  0  0  0  0
    0.6828   -2.1814    2.0283 N   0  0  0  0  0  0  0  0  0  0  0  0
    0.7321    3.9652   -2.9548 F   0  0  0  0  0  0  0  0  0  0  0  0
   -2.1304   -2.2308    0.6965 N   0  0  0  0  0  0  0  0  0  0  0  0
   -0.7259    3.9649    2.9562 F   0  0  0  0  0  0  0  0  0  0  0  0
    2.1270   -2.2334   -0.6974 N   0  0  0  0  0  0  0  0  0  0  0  0
   -0.6861   -2.1792   -2.0292 N   0  0  0  0  0  0  0  0  0  0  0  0
    4.0148    3.7044    0.7358 F   0  0  0  0  0  0  0  0  0  0  0  0
   -0.8000    0.1117   -3.0165 C   0  0  0  0  0  0  0  0  0  0  0  0
    3.2010   -1.4734   -1.3881 C   0  0  0  0  0  0  0  0  0  0  0  0
    2.8971   -1.3552   -2.4456 H   0  0  0  0  0  0  0  0  0  0  0  0
    4.1425   -2.0748   -1.3943 H   0  0  0  0  0  0  0  0  0  0  0  0
   -0.5682   -2.6992    2.6067 C   0  0  0  0  0  0  0  0  0  0  0  0
   -1.0431   -1.8638    3.1596 H   0  0  0  0  0  0  0  0  0  0  0  0
   -0.3526   -3.4919    3.3645 H   0  0  0  0  0  0  0  0  0  0  0  0
   -1.5658   -3.2554    1.5873 C   0  0  0  0  0  0  0  0  0  0  0  0
   -1.0724   -4.0292    0.9665 H   0  0  0  0  0  0  0  0  0  0  0  0
   -2.3732   -3.7909    2.1439 H   0  0  0  0  0  0  0  0  0  0  0  0
    0.8001    0.1090    3.0163 C   0  0  0  0  0  0  0  0  0  0  0  0
   -1.3751   -1.2841   -2.9921 C   0  0  0  0  0  0  0  0  0  0  0  0
   -2.4371   -1.2164   -2.6868 H   0  0  0  0  0  0  0  0  0  0  0  0
   -1.3648   -1.7328   -4.0135 H   0  0  0  0  0  0  0  0  0  0  0  0
    3.4533   -0.1010   -0.8131 C   0  0  0  0  0  0  0  0  0  0  0  0
   -3.2031   -1.4694    1.3875 C   0  0  0  0  0  0  0  0  0  0  0  0
   -2.8991   -1.3522    2.4450 H   0  0  0  0  0  0  0  0  0  0  0  0
   -4.1456   -2.0693    1.3935 H   0  0  0  0  0  0  0  0  0  0  0  0
   -3.4533   -0.0964    0.8131 C   0  0  0  0  0  0  0  0  0  0  0  0
    1.5608   -3.2567   -1.5888 C   0  0  0  0  0  0  0  0  0  0  0  0
    1.0664   -4.0300   -0.9684 H   0  0  0  0  0  0  0  0  0  0  0  0
    2.3675   -3.7931   -2.1456 H   0  0  0  0  0  0  0  0  0  0  0  0
   -0.0150    0.5852   -4.0843 C   0  0  0  0  0  0  0  0  0  0  0  0
    0.1867   -0.0687   -4.9473 H   0  0  0  0  0  0  0  0  0  0  0  0
   -2.6938    0.9945    1.2842 C   0  0  0  0  0  0  0  0  0  0  0  0
   -1.9485    0.8305    2.0761 H   0  0  0  0  0  0  0  0  0  0  0  0
    1.3731   -1.2877    2.9916 C   0  0  0  0  0  0  0  0  0  0  0  0
    2.4352   -1.2216    2.6863 H   0  0  0  0  0  0  0  0  0  0  0  0
    1.3621   -1.7367    4.0127 H   0  0  0  0  0  0  0  0  0  0  0  0
    0.5642   -2.6985   -2.6079 C   0  0  0  0  0  0  0  0  0  0  0  0
    1.0402   -1.8636   -3.1604 H   0  0  0  0  0  0  0  0  0  0  0  0
    0.3474   -3.4904   -3.3661 H   0  0  0  0  0  0  0  0  0  0  0  0
    0.5028    1.8914   -4.0771 C   0  0  0  0  0  0  0  0  0  0  0  0
    1.1194    2.2742   -4.9026 H   0  0  0  0  0  0  0  0  0  0  0  0
    1.5656   -3.2586    1.5543 C   0  0  0  0  0  0  0  0  0  0  0  0
    0.9343   -4.0405    1.0884 H   0  0  0  0  0  0  0  0  0  0  0  0
    2.0813   -3.7594    2.4097 H   0  0  0  0  0  0  0  0  0  0  0  0
    2.6955    0.9913   -1.2838 C   0  0  0  0  0  0  0  0  0  0  0  0
    1.9500    0.8287   -2.0759 H   0  0  0  0  0  0  0  0  0  0  0  0
   -0.5002    1.8902    4.0775 C   0  0  0  0  0  0  0  0  0  0  0  0
   -1.1165    2.2735    4.9030 H   0  0  0  0  0  0  0  0  0  0  0  0
    3.8434    2.4766    0.2276 C   0  0  0  0  0  0  0  0  0  0  0  0
   -1.0704    0.9806   -1.9353 C   0  0  0  0  0  0  0  0  0  0  0  0
   -1.7415    0.6535   -1.1239 H   0  0  0  0  0  0  0  0  0  0  0  0
   -2.6381   -2.7926   -0.5630 C   0  0  0  0  0  0  0  0  0  0  0  0
   -3.2573   -2.0090   -1.0417 H   0  0  0  0  0  0  0  0  0  0  0  0
   -3.3285   -3.6507   -0.3683 H   0  0  0  0  0  0  0  0  0  0  0  0
   -4.4283    0.1412   -0.1774 C   0  0  0  0  0  0  0  0  0  0  0  0
   -5.0698   -0.6833   -0.5269 H   0  0  0  0  0  0  0  0  0  0  0  0
    0.0156    0.5832    4.0842 C   0  0  0  0  0  0  0  0  0  0  0  0
   -0.1875   -0.0709    4.9468 H   0  0  0  0  0  0  0  0  0  0  0  0
   -0.5676    2.2874   -1.9131 C   0  0  0  0  0  0  0  0  0  0  0  0
   -0.7998    2.9766   -1.0896 H   0  0  0  0  0  0  0  0  0  0  0  0
    2.6339   -2.7967    0.5617 C   0  0  0  0  0  0  0  0  0  0  0  0
    3.2543   -2.0144    1.0409 H   0  0  0  0  0  0  0  0  0  0  0  0
    3.3230   -3.6557    0.3665 H   0  0  0  0  0  0  0  0  0  0  0  0
    4.6208    1.4172    0.7134 C   0  0  0  0  0  0  0  0  0  0  0  0
    5.3748    1.6137    1.4887 H   0  0  0  0  0  0  0  0  0  0  0  0
   -4.6187    1.4242   -0.7127 C   0  0  0  0  0  0  0  0  0  0  0  0
   -5.3724    1.6222   -1.4879 H   0  0  0  0  0  0  0  0  0  0  0  0
    1.0724    0.9781    1.9358 C   0  0  0  0  0  0  0  0  0  0  0  0
    1.7435    0.6504    1.1245 H   0  0  0  0  0  0  0  0  0  0  0  0
    4.4286    0.1347    0.1775 C   0  0  0  0  0  0  0  0  0  0  0  0
    5.0689   -0.6908    0.5267 H   0  0  0  0  0  0  0  0  0  0  0  0
   -1.5705   -3.2554   -1.5559 C   0  0  0  0  0  0  0  0  0  0  0  0
   -0.9403   -4.0386   -1.0905 H   0  0  0  0  0  0  0  0  0  0  0  0
   -2.0869   -3.7549   -2.4116 H   0  0  0  0  0  0  0  0  0  0  0  0
   -3.8396    2.4822   -0.2265 C   0  0  0  0  0  0  0  0  0  0  0  0
   -0.2160    2.7213    2.9872 C   0  0  0  0  0  0  0  0  0  0  0  0
    0.2203    2.7224   -2.9863 C   0  0  0  0  0  0  0  0  0  0  0  0
    0.5716    2.2857    1.9141 C   0  0  0  0  0  0  0  0  0  0  0  0
    0.8052    2.9749    1.0911 H   0  0  0  0  0  0  0  0  0  0  0  0
    2.8907    2.2842   -0.7822 C   0  0  0  0  0  0  0  0  0  0  0  0
    2.3294    3.1452   -1.1715 H   0  0  0  0  0  0  0  0  0  0  0  0
   -2.8872    2.2880    0.7831 C   0  0  0  0  0  0  0  0  0  0  0  0
   -2.3246    3.1480    1.1728 H   0  0  0  0  0  0  0  0  0  0  0  0
  1 76  1  0  0  0  0
  2 13  1  0  0  0  0
  2 35  1  0  0  0  0
  4 24  1  0  0  0  0
  4 16  1  0  0  0  0
  5 77  1  0  0  0  0
  6 62  1  0  0  0  0
  7 73  1  0  0  0  0
  9 20  1  0  0  0  0
  9 51  1  0  0  0  0
 10 23  1  0  0  0  0
 10  6  1  0  0  0  0
 11 10  1  0  0  0  0
 12 10  1  0  0  0  0
 13 14  1  0  0  0  0
 13 15  1  0  0  0  0
 16 18  1  0  0  0  0
 16 13  1  0  0  0  0
 17 16  1  0  0  0  0
 19 58  1  0  0  0  0
 20 21  1  0  0  0  0
 20  7  1  0  0  0  0
 22 20  1  0  0  0  0
 23 71  1  0  0  0  0
 24 26  1  0  0  0  0
 24 25  1  0  0  0  0
 27 33  1  0  0  0  0
 27 24  1  0  0  0  0
 28 29  1  0  0  0  0
 28  6  1  0  0  0  0
 30 28  1  0  0  0  0
 31 41  1  0  0  0  0
 31  9  2  0  0  0  0
 32 31  1  0  0  0  0
 33 34  1  0  0  0  0
 35 19  1  0  0  0  0
 35 37  1  0  0  0  0
 36 35  1  0  0  0  0
 38  7  1  0  0  0  0
 38 28  1  0  0  0  0
 39 38  1  0  0  0  0
 40 38  1  0  0  0  0
 41 78  2  0  0  0  0
 42 41  1  0  0  0  0
 43  2  1  0  0  0  0
 43 45  1  0  0  0  0
 44 43  1  0  0  0  0
 46 23  2  0  0  0  0
 46 81  1  0  0  0  0
 47 46  1  0  0  0  0
 48 58  2  0  0  0  0
 48 49  1  0  0  0  0
 50 65  1  0  0  0  0
 50  8  1  0  0  0  0
 51 60  2  0  0  0  0
 51 52  1  0  0  0  0
 53 55  1  0  0  0  0
 53  4  1  0  0  0  0
 54 53  1  0  0  0  0
 56 27  2  0  0  0  0
 57 56  1  0  0  0  0
 58 59  1  0  0  0  0
 60 61  1  0  0  0  0
 62 63  1  0  0  0  0
 62 43  1  0  0  0  0
 64 62  1  0  0  0  0
 65 66  1  0  0  0  0
 67 76  2  0  0  0  0
 67 56  1  0  0  0  0
 68 67  1  0  0  0  0
 69 19  2  0  0  0  0
 70 69  1  0  0  0  0
 71 72  1  0  0  0  0
 71 65  2  0  0  0  0
 73 74  1  0  0  0  0
 73 53  1  0  0  0  0
 75 73  1  0  0  0  0
 76 83  1  0  0  0  0
 77 48  1  0  0  0  0
 78  3  1  0  0  0  0
 78 60  1  0  0  0  0
 79 69  1  0  0  0  0
 79 77  2  0  0  0  0
 80 79  1  0  0  0  0
 81 50  2  0  0  0  0
 82 81  1  0  0  0  0
 83 84  1  0  0  0  0
 83 33  2  0  0  0  0
M  END
