1,2,17,18
 OpenBabel05122313063D

 32 33  0  0  1  0  0  0  0  0999 V2000
    1.5421    0.8725   -0.1167 N   0  0  0  0  0  2  0  0  0  0  0  0
    1.2233   -1.6213    0.1331 N   0  0  0  0  0  2  0  0  0  0  0  0
    2.7003    0.1755    0.0898 C   0  0  2  0  0  3  0  0  0  0  0  0
    3.9579    0.7797    0.0357 C   0  0  0  0  0  0  0  0  0  0  0  0
    4.0481    2.1416   -0.2825 C   0  0  0  0  0  0  0  0  0  0  0  0
    2.8633    2.8428   -0.5590 C   0  0  0  0  0  0  0  0  0  0  0  0
    1.6362    2.1753   -0.4680 C   0  0  0  0  0  0  0  0  0  0  0  0
    2.5282   -1.3069    0.3083 C   0  0  0  0  0  0  0  0  0  0  0  0
    0.6911   -2.9650    0.3278 C   0  0  0  0  0  0  0  0  0  0  0  0
    3.4693   -2.0697    0.5624 O   0  0  0  0  0  0  0  0  0  0  0  0
    4.8301    0.1384    0.2319 H   0  0  0  0  0  0  0  0  0  0  0  0
    5.0241    2.6468   -0.3346 H   0  0  0  0  0  0  0  0  0  0  0  0
    2.8788    3.9034   -0.8479 H   0  0  0  0  0  0  0  0  0  0  0  0
    0.6952    2.6935   -0.6996 H   0  0  0  0  0  0  0  0  0  0  0  0
    1.3778   -3.7255   -0.1008 H   0  0  0  0  0  0  0  0  0  0  0  0
    0.6061   -3.1833    1.4179 H   0  0  0  0  0  0  0  0  0  0  0  0
   -1.5421    0.8725    0.1167 N   0  0  0  0  0  2  0  0  0  0  0  0
   -1.2233   -1.6213   -0.1331 N   0  0  0  0  0  2  0  0  0  0  0  0
   -0.6911   -2.9650   -0.3279 C   0  0  0  0  0  0  0  0  0  0  0  0
   -2.7003    0.1755   -0.0898 C   0  0  1  0  0  3  0  0  0  0  0  0
   -1.6362    2.1753    0.4680 C   0  0  0  0  0  0  0  0  0  0  0  0
   -2.5282   -1.3069   -0.3082 C   0  0  0  0  0  0  0  0  0  0  0  0
   -1.3778   -3.7255    0.1008 H   0  0  0  0  0  0  0  0  0  0  0  0
   -0.6061   -3.1833   -1.4179 H   0  0  0  0  0  0  0  0  0  0  0  0
   -3.9579    0.7797   -0.0356 C   0  0  0  0  0  0  0  0  0  0  0  0
   -2.8633    2.8428    0.5590 C   0  0  0  0  0  0  0  0  0  0  0  0
   -0.6952    2.6936    0.6995 H   0  0  0  0  0  0  0  0  0  0  0  0
   -3.4693   -2.0697   -0.5624 O   0  0  0  0  0  0  0  0  0  0  0  0
   -4.0481    2.1416    0.2825 C   0  0  0  0  0  0  0  0  0  0  0  0
   -4.8301    0.1384   -0.2318 H   0  0  0  0  0  0  0  0  0  0  0  0
   -2.8788    3.9034    0.8479 H   0  0  0  0  0  0  0  0  0  0  0  0
   -5.0241    2.6468    0.3346 H   0  0  0  0  0  0  0  0  0  0  0  0
  1  3  1  0  0  0  0
  2  8  1  0  0  0  0
  2  9  1  0  0  0  0
  3  8  1  6  0  0  0
  4  3  1  0  0  0  0
  4 11  1  0  0  0  0
  5  4  2  0  0  0  0
  6  7  2  0  0  0  0
  6  5  1  0  0  0  0
  7  1  1  0  0  0  0
  8 10  2  0  0  0  0
  9 16  1  0  0  0  0
 12  5  1  0  0  0  0
 13  6  1  0  0  0  0
 14  7  1  0  0  0  0
 15  9  1  0  0  0  0
 17 21  1  0  0  0  0
 19 18  1  0  0  0  0
 19 23  1  0  0  0  0
 19  9  1  0  0  0  0
 20 22  1  1  0  0  0
 20 25  1  0  0  0  0
 20 17  1  0  0  0  0
 21 26  2  0  0  0  0
 21 27  1  0  0  0  0
 22 18  1  0  0  0  0
 24 19  1  0  0  0  0
 25 29  2  0  0  0  0
 26 31  1  0  0  0  0
 28 22  2  0  0  0  0
 29 32  1  0  0  0  0
 29 26  1  0  0  0  0
 30 25  1  0  0  0  0
M  END
