1,2,3,4
 OpenBabel05122313063D

 69 69  0  0  1  0  0  0  0  0999 V2000
    1.2546   -0.2610    0.7349 N   0  0  0  0  0  2  0  0  0  0  0  0
   -1.4894   -1.1965    1.4675 N   0  0  0  0  0  2  0  0  0  0  0  0
   -2.6988   -1.0905   -1.1356 N   0  0  0  0  0  0  0  0  0  0  0  0
   -3.0915    1.8747   -0.6165 N   0  0  0  0  0  0  0  0  0  0  0  0
    2.8910   -0.7118    2.5340 C   0  0  0  0  0  0  0  0  0  0  0  0
    3.5322   -1.2595    1.8152 H   0  0  0  0  0  0  0  0  0  0  0  0
    2.9238   -1.2250    3.5119 H   0  0  0  0  0  0  0  0  0  0  0  0
    3.3457    0.2928    2.6537 H   0  0  0  0  0  0  0  0  0  0  0  0
    1.4716   -0.5996    2.0111 C   0  0  2  0  0  3  0  0  0  0  0  0
    0.4299   -0.8925    2.9339 C   0  0  0  0  0  0  0  0  0  0  0  0
    0.7540   -1.0123    3.9767 H   0  0  0  0  0  0  0  0  0  0  0  0
   -0.9115   -1.2678    2.6782 C   0  0  0  0  0  0  0  0  0  0  0  0
   -1.6865   -1.8393    3.8521 C   0  0  0  0  0  0  0  0  0  0  0  0
   -2.6908   -1.3751    3.9353 H   0  0  0  0  0  0  0  0  0  0  0  0
   -1.1472   -1.6810    4.8033 H   0  0  0  0  0  0  0  0  0  0  0  0
   -1.8459   -2.9327    3.7367 H   0  0  0  0  0  0  0  0  0  0  0  0
   -2.7287   -1.9125    1.2222 C   0  0  0  0  0  0  0  0  0  0  0  0
   -3.6285   -1.3159    1.5210 H   0  0  0  0  0  0  0  0  0  0  0  0
   -2.8088   -2.8625    1.7974 H   0  0  0  0  0  0  0  0  0  0  0  0
   -2.8013   -2.2732   -0.2579 C   0  0  0  0  0  0  0  0  0  0  0  0
   -1.9365   -2.9284   -0.4863 H   0  0  0  0  0  0  0  0  0  0  0  0
   -3.7275   -2.8592   -0.4825 H   0  0  0  0  0  0  0  0  0  0  0  0
   -3.9853   -0.3759   -1.2188 C   0  0  0  0  0  0  0  0  0  0  0  0
   -4.4836   -0.4339   -0.2306 H   0  0  0  0  0  0  0  0  0  0  0  0
   -4.6726   -0.8837   -1.9400 H   0  0  0  0  0  0  0  0  0  0  0  0
   -3.8204    1.0839   -1.6230 C   0  0  0  0  0  0  0  0  0  0  0  0
   -4.8285    1.5277   -1.8223 H   0  0  0  0  0  0  0  0  0  0  0  0
   -3.2505    1.1449   -2.5713 H   0  0  0  0  0  0  0  0  0  0  0  0
   -2.2483   -1.4983   -2.4735 C   0  0  0  0  0  0  0  0  0  0  0  0
   -1.2358   -1.9371   -2.4117 H   0  0  0  0  0  0  0  0  0  0  0  0
   -2.1806   -0.6239   -3.1436 H   0  0  0  0  0  0  0  0  0  0  0  0
   -2.9427   -2.2505   -2.9227 H   0  0  0  0  0  0  0  0  0  0  0  0
    2.3315   -0.1925   -0.1957 C   0  0  0  0  0  0  0  0  0  0  0  0
    3.1617    0.9588   -0.2879 C   0  0  0  0  0  0  0  0  0  0  0  0
    4.1721    0.9808   -1.2686 C   0  0  0  0  0  0  0  0  0  0  0  0
    4.8200    1.8674   -1.3501 H   0  0  0  0  0  0  0  0  0  0  0  0
    4.3646   -0.0938   -2.1428 C   0  0  0  0  0  0  0  0  0  0  0  0
    5.1625   -0.0562   -2.8999 H   0  0  0  0  0  0  0  0  0  0  0  0
    3.5232   -1.2117   -2.0619 C   0  0  0  0  0  0  0  0  0  0  0  0
    3.6647   -2.0449   -2.7659 H   0  0  0  0  0  0  0  0  0  0  0  0
    2.4954   -1.2785   -1.1062 C   0  0  0  0  0  0  0  0  0  0  0  0
    1.5577   -2.4784   -1.0314 C   0  0  0  0  0  0  0  0  0  0  0  0
    0.5801   -2.0812   -0.6783 H   0  0  0  0  0  0  0  0  0  0  0  0
    2.0189   -3.4980    0.0259 C   0  0  0  0  0  0  0  0  0  0  0  0
    3.0227   -3.8985   -0.2275 H   0  0  0  0  0  0  0  0  0  0  0  0
    1.3139   -4.3538    0.0834 H   0  0  0  0  0  0  0  0  0  0  0  0
    2.0754   -3.0430    1.0332 H   0  0  0  0  0  0  0  0  0  0  0  0
    1.3278   -3.1616   -2.3850 C   0  0  0  0  0  0  0  0  0  0  0  0
    2.2333   -3.6950   -2.7418 H   0  0  0  0  0  0  0  0  0  0  0  0
    1.0386   -2.4301   -3.1663 H   0  0  0  0  0  0  0  0  0  0  0  0
    0.5222   -3.9203   -2.3024 H   0  0  0  0  0  0  0  0  0  0  0  0
    2.9511    2.1758    0.6073 C   0  0  0  0  0  0  0  0  0  0  0  0
    2.2380    1.8836    1.4033 H   0  0  0  0  0  0  0  0  0  0  0  0
    2.2922    3.3282   -0.1716 C   0  0  0  0  0  0  0  0  0  0  0  0
    2.9376    3.6638   -1.0099 H   0  0  0  0  0  0  0  0  0  0  0  0
    2.1084    4.1957    0.4949 H   0  0  0  0  0  0  0  0  0  0  0  0
    1.3184    3.0182   -0.5978 H   0  0  0  0  0  0  0  0  0  0  0  0
    4.2494    2.6449    1.2837 C   0  0  0  0  0  0  0  0  0  0  0  0
    4.7511    1.8201    1.8295 H   0  0  0  0  0  0  0  0  0  0  0  0
    4.0380    3.4585    2.0074 H   0  0  0  0  0  0  0  0  0  0  0  0
    4.9764    3.0432    0.5459 H   0  0  0  0  0  0  0  0  0  0  0  0
   -3.9077    2.1102    0.5819 C   0  0  0  0  0  0  0  0  0  0  0  0
   -3.3314    2.7194    1.3006 H   0  0  0  0  0  0  0  0  0  0  0  0
   -4.1605    1.1556    1.0842 H   0  0  0  0  0  0  0  0  0  0  0  0
   -4.8619    2.6362    0.3315 H   0  0  0  0  0  0  0  0  0  0  0  0
   -2.6650    3.1594   -1.1936 C   0  0  0  0  0  0  0  0  0  0  0  0
   -2.0024    2.9717   -2.0596 H   0  0  0  0  0  0  0  0  0  0  0  0
   -2.0912    3.7242   -0.4364 H   0  0  0  0  0  0  0  0  0  0  0  0
   -3.5395    3.7714   -1.5235 H   0  0  0  0  0  0  0  0  0  0  0  0
  2 12  1  0  0  0  0
  3 20  1  0  0  0  0
  4 62  1  0  0  0  0
  5  8  1  0  0  0  0
  5  7  1  0  0  0  0
  6  5  1  0  0  0  0
  9  1  1  6  0  0  0
  9  5  1  0  0  0  0
  9 10  1  0  0  0  0
 10 11  1  0  0  0  0
 12 10  2  0  0  0  0
 12 13  1  0  0  0  0
 13 14  1  0  0  0  0
 13 15  1  0  0  0  0
 16 13  1  0  0  0  0
 17  2  1  0  0  0  0
 17 18  1  0  0  0  0
 17 19  1  0  0  0  0
 20 17  1  0  0  0  0
 21 20  1  0  0  0  0
 22 20  1  0  0  0  0
 23  3  1  0  0  0  0
 23 24  1  0  0  0  0
 25 23  1  0  0  0  0
 26 23  1  0  0  0  0
 26  4  1  0  0  0  0
 27 26  1  0  0  0  0
 28 26  1  0  0  0  0
 29 30  1  0  0  0  0
 29  3  1  0  0  0  0
 31 29  1  0  0  0  0
 32 29  1  0  0  0  0
 33  1  1  0  0  0  0
 34 33  1  0  0  0  0
 34 52  1  0  0  0  0
 35 34  2  0  0  0  0
 36 35  1  0  0  0  0
 37 39  2  0  0  0  0
 37 35  1  0  0  0  0
 38 37  1  0  0  0  0
 39 41  1  0  0  0  0
 40 39  1  0  0  0  0
 41 42  1  0  0  0  0
 41 33  2  0  0  0  0
 42 43  1  0  0  0  0
 42 44  1  0  0  0  0
 44 46  1  0  0  0  0
 44 47  1  0  0  0  0
 45 44  1  0  0  0  0
 48 51  1  0  0  0  0
 48 42  1  0  0  0  0
 49 48  1  0  0  0  0
 50 48  1  0  0  0  0
 52 58  1  0  0  0  0
 52 53  1  0  0  0  0
 54 56  1  0  0  0  0
 54 52  1  0  0  0  0
 55 54  1  0  0  0  0
 57 54  1  0  0  0  0
 58 59  1  0  0  0  0
 58 60  1  0  0  0  0
 61 58  1  0  0  0  0
 62 64  1  0  0  0  0
 62 63  1  0  0  0  0
 65 62  1  0  0  0  0
 66  4  1  0  0  0  0
 66 68  1  0  0  0  0
 67 66  1  0  0  0  0
 69 66  1  0  0  0  0
M  END
