2,3,4,5
 OpenBabel05122313063D

 41 40  0  0  0  0  0  0  0  0999 V2000
   -2.6634    0.0028    0.0010 Si  0  0  0  0  0  0  0  0  0  0  0  0
    0.8392    2.5209    0.0837 N   0  0  0  0  0  0  0  0  0  0  0  0
   -1.4421    1.1658   -0.4315 N   0  0  0  0  0  2  0  0  0  0  0  0
   -1.4441   -1.1625    0.4331 N   0  0  0  0  0  2  0  0  0  0  0  0
    0.8338   -2.5227   -0.0842 N   0  0  0  0  0  0  0  0  0  0  0  0
    2.2228    2.8447   -0.2777 C   0  0  0  0  0  0  0  0  0  0  0  0
    2.4078    3.9461   -0.2553 H   0  0  0  0  0  0  0  0  0  0  0  0
    2.4337    2.4683   -1.2954 H   0  0  0  0  0  0  0  0  0  0  0  0
    2.9221    2.3636    0.4323 H   0  0  0  0  0  0  0  0  0  0  0  0
    0.5394    3.0068    1.4382 C   0  0  0  0  0  0  0  0  0  0  0  0
    1.2745    2.5916    2.1505 H   0  0  0  0  0  0  0  0  0  0  0  0
   -0.4660    2.6651    1.7485 H   0  0  0  0  0  0  0  0  0  0  0  0
    0.5743    4.1222    1.4863 H   0  0  0  0  0  0  0  0  0  0  0  0
   -0.0940    3.0956   -0.9093 C   0  0  0  0  0  0  0  0  0  0  0  0
    0.2528    2.7522   -1.9049 H   0  0  0  0  0  0  0  0  0  0  0  0
   -0.0484    4.2132   -0.8912 H   0  0  0  0  0  0  0  0  0  0  0  0
   -1.5130    2.5792   -0.6650 C   0  0  0  0  0  0  0  0  0  0  0  0
   -1.9781    3.1472    0.1837 H   0  0  0  0  0  0  0  0  0  0  0  0
   -2.1266    2.8516   -1.5603 H   0  0  0  0  0  0  0  0  0  0  0  0
   -3.7779    0.5629    1.4317 C   0  0  0  0  0  0  0  0  0  0  0  0
   -3.1614    0.8948    2.2924 H   0  0  0  0  0  0  0  0  0  0  0  0
   -4.4384   -0.2586    1.7804 H   0  0  0  0  0  0  0  0  0  0  0  0
   -4.4326    1.4085    1.1316 H   0  0  0  0  0  0  0  0  0  0  0  0
   -3.7787   -0.5558   -1.4296 C   0  0  0  0  0  0  0  0  0  0  0  0
   -4.4387    0.2662   -1.7781 H   0  0  0  0  0  0  0  0  0  0  0  0
   -4.4341   -1.4010   -1.1296 H   0  0  0  0  0  0  0  0  0  0  0  0
   -3.1626   -0.8881   -2.2904 H   0  0  0  0  0  0  0  0  0  0  0  0
   -1.5177   -2.5756    0.6674 C   0  0  0  0  0  0  0  0  0  0  0  0
   -1.9850   -3.1431   -0.1804 H   0  0  0  0  0  0  0  0  0  0  0  0
   -2.1307   -2.8463    1.5637 H   0  0  0  0  0  0  0  0  0  0  0  0
   -0.0994   -3.0950    0.9101 C   0  0  0  0  0  0  0  0  0  0  0  0
    0.2493   -2.7521    1.9052 H   0  0  0  0  0  0  0  0  0  0  0  0
   -0.0563   -4.2127    0.8923 H   0  0  0  0  0  0  0  0  0  0  0  0
    0.5312   -3.0082   -1.4382 C   0  0  0  0  0  0  0  0  0  0  0  0
    0.5640   -4.1237   -1.4862 H   0  0  0  0  0  0  0  0  0  0  0  0
    1.2661   -2.5945   -2.1516 H   0  0  0  0  0  0  0  0  0  0  0  0
   -0.4740   -2.6647   -1.7471 H   0  0  0  0  0  0  0  0  0  0  0  0
    2.2171   -2.8495    0.2755 C   0  0  0  0  0  0  0  0  0  0  0  0
    2.4302   -2.4732    1.2928 H   0  0  0  0  0  0  0  0  0  0  0  0
    2.9165   -2.3704   -0.4355 H   0  0  0  0  0  0  0  0  0  0  0  0
    2.3994   -3.9513    0.2534 H   0  0  0  0  0  0  0  0  0  0  0  0
  1  4  1  0  0  0  0
  1 20  1  0  0  0  0
  2 10  1  0  0  0  0
  3  1  1  0  0  0  0
  4 28  1  0  0  0  0
  5 38  1  0  0  0  0
  5 31  1  0  0  0  0
  6  7  1  0  0  0  0
  6  2  1  0  0  0  0
  6  9  1  0  0  0  0
  8  6  1  0  0  0  0
 10 13  1  0  0  0  0
 10 12  1  0  0  0  0
 10 11  1  0  0  0  0
 14 16  1  0  0  0  0
 14 17  1  0  0  0  0
 14  2  1  0  0  0  0
 15 14  1  0  0  0  0
 17  3  1  0  0  0  0
 17 18  1  0  0  0  0
 19 17  1  0  0  0  0
 20 22  1  0  0  0  0
 20 21  1  0  0  0  0
 23 20  1  0  0  0  0
 24 26  1  0  0  0  0
 24  1  1  0  0  0  0
 25 24  1  0  0  0  0
 27 24  1  0  0  0  0
 28 31  1  0  0  0  0
 28 30  1  0  0  0  0
 29 28  1  0  0  0  0
 31 32  1  0  0  0  0
 33 31  1  0  0  0  0
 34  5  1  0  0  0  0
 35 34  1  0  0  0  0
 36 34  1  0  0  0  0
 37 34  1  0  0  0  0
 38 39  1  0  0  0  0
 40 38  1  0  0  0  0
 41 38  1  0  0  0  0
M  END
