2,3,4,5
 OpenBabel05122313063D

 70 72  0  0  1  0  0  0  0  0999 V2000
    2.0912    3.8486    0.4372 O   0  0  0  0  0  0  0  0  0  0  0  0
   -2.1130   -0.9414    0.4305 N   0  0  0  0  0  2  0  0  0  0  0  0
   -2.5572    1.3008   -0.3391 N   0  0  0  0  0  2  0  0  0  0  0  0
    0.3590   -1.0737    0.3444 N   0  0  0  0  0  2  0  0  0  0  0  0
   -0.0772    2.1452   -0.4883 N   0  0  0  0  0  0  0  0  0  0  0  0
   -3.4572   -0.6199    0.5255 C   0  0  0  0  0  0  0  0  0  0  0  0
   -0.1812   -2.1945    0.8144 C   0  0  1  0  0  3  0  0  0  0  0  0
   -3.6943    0.7233    0.0568 C   0  0  0  0  0  0  0  0  0  0  0  0
    2.3895   -1.4091   -1.0267 C   0  0  0  0  0  0  0  0  0  0  0  0
   -1.6263   -2.1276    0.9299 C   0  0  0  0  0  0  0  0  0  0  0  0
   -2.4733    2.6838   -0.7902 C   0  0  0  0  0  0  0  0  0  0  0  0
   -2.7082    3.3686    0.0557 H   0  0  0  0  0  0  0  0  0  0  0  0
   -3.2169    2.9091   -1.5853 H   0  0  0  0  0  0  0  0  0  0  0  0
    1.7794   -0.9677    0.1795 C   0  0  0  0  0  0  0  0  0  0  0  0
    2.5412   -0.3670    1.2235 C   0  0  0  0  0  0  0  0  0  0  0  0
    2.0170    3.4733   -0.9294 C   0  0  0  0  0  0  0  0  0  0  0  0
    3.0564    3.3669   -1.2969 H   0  0  0  0  0  0  0  0  0  0  0  0
    1.5308    4.2835   -1.5270 H   0  0  0  0  0  0  0  0  0  0  0  0
    1.6169   -2.1133   -2.1350 C   0  0  0  0  0  0  0  0  0  0  0  0
    0.5535   -2.1663   -1.8296 H   0  0  0  0  0  0  0  0  0  0  0  0
   -2.5017   -3.0716    1.4815 C   0  0  0  0  0  0  0  0  0  0  0  0
   -2.1107   -4.0215    1.8716 H   0  0  0  0  0  0  0  0  0  0  0  0
   -1.0564    2.9100   -1.3185 C   0  0  0  0  0  0  0  0  0  0  0  0
   -0.9695    2.5171   -2.3499 H   0  0  0  0  0  0  0  0  0  0  0  0
   -0.8211    3.9945   -1.3537 H   0  0  0  0  0  0  0  0  0  0  0  0
    0.0191    2.6761    0.9067 C   0  0  0  0  0  0  0  0  0  0  0  0
    0.5479    1.9101    1.4993 H   0  0  0  0  0  0  0  0  0  0  0  0
   -0.9972    2.7791    1.3324 H   0  0  0  0  0  0  0  0  0  0  0  0
   -3.8792   -2.7832    1.5438 C   0  0  0  0  0  0  0  0  0  0  0  0
   -4.5751   -3.5148    1.9770 H   0  0  0  0  0  0  0  0  0  0  0  0
    1.2859    2.1403   -1.0957 C   0  0  0  0  0  0  0  0  0  0  0  0
    1.1918    1.8569   -2.1624 H   0  0  0  0  0  0  0  0  0  0  0  0
    1.8662    1.3479   -0.5861 H   0  0  0  0  0  0  0  0  0  0  0  0
    3.9209   -0.1875    1.0148 C   0  0  0  0  0  0  0  0  0  0  0  0
    4.5281    0.2751    1.8057 H   0  0  0  0  0  0  0  0  0  0  0  0
    4.5343   -0.5869   -0.1787 C   0  0  0  0  0  0  0  0  0  0  0  0
    5.6138   -0.4318   -0.3223 H   0  0  0  0  0  0  0  0  0  0  0  0
   -4.3567   -1.5509    1.0761 C   0  0  0  0  0  0  0  0  0  0  0  0
   -5.4252   -1.3032    1.1477 H   0  0  0  0  0  0  0  0  0  0  0  0
    0.5806   -3.4360    1.1575 C   0  0  0  0  0  0  0  0  0  0  0  0
    0.3647   -4.2292    0.4107 H   0  0  0  0  0  0  0  0  0  0  0  0
    0.2764   -3.8319    2.1465 H   0  0  0  0  0  0  0  0  0  0  0  0
    1.6700   -3.2568    1.1625 H   0  0  0  0  0  0  0  0  0  0  0  0
    1.9094    0.0365    2.5517 C   0  0  0  0  0  0  0  0  0  0  0  0
    0.8248    0.1909    2.3595 H   0  0  0  0  0  0  0  0  0  0  0  0
    2.4997    1.3380    3.1219 C   0  0  0  0  0  0  0  0  0  0  0  0
    3.5141    1.1727    3.5374 H   0  0  0  0  0  0  0  0  0  0  0  0
    1.8731    1.7121    3.9566 H   0  0  0  0  0  0  0  0  0  0  0  0
    2.5849    2.1331    2.3545 H   0  0  0  0  0  0  0  0  0  0  0  0
    3.7726   -1.1962   -1.1811 C   0  0  0  0  0  0  0  0  0  0  0  0
    4.2635   -1.5262   -2.1091 H   0  0  0  0  0  0  0  0  0  0  0  0
    0.7957    3.9911    0.9888 C   0  0  0  0  0  0  0  0  0  0  0  0
    0.2424    4.8207    0.4821 H   0  0  0  0  0  0  0  0  0  0  0  0
    0.9193    4.2777    2.0520 H   0  0  0  0  0  0  0  0  0  0  0  0
   -5.0191    1.4146    0.0317 C   0  0  0  0  0  0  0  0  0  0  0  0
   -4.9947    2.3543    0.6224 H   0  0  0  0  0  0  0  0  0  0  0  0
   -5.8221    0.7782    0.4434 H   0  0  0  0  0  0  0  0  0  0  0  0
   -5.3058    1.6925   -1.0049 H   0  0  0  0  0  0  0  0  0  0  0  0
    1.6850   -1.3340   -3.4597 C   0  0  0  0  0  0  0  0  0  0  0  0
    1.3540   -0.2844   -3.3322 H   0  0  0  0  0  0  0  0  0  0  0  0
    1.0345   -1.8042   -4.2239 H   0  0  0  0  0  0  0  0  0  0  0  0
    2.7175   -1.3147   -3.8635 H   0  0  0  0  0  0  0  0  0  0  0  0
    2.1105   -3.5596   -2.3272 C   0  0  0  0  0  0  0  0  0  0  0  0
    3.1634   -3.5844   -2.6745 H   0  0  0  0  0  0  0  0  0  0  0  0
    1.4964   -4.0811   -3.0888 H   0  0  0  0  0  0  0  0  0  0  0  0
    2.0592   -4.1418   -1.3861 H   0  0  0  0  0  0  0  0  0  0  0  0
    2.0203   -1.0964    3.5904 C   0  0  0  0  0  0  0  0  0  0  0  0
    1.5263   -2.0262    3.2517 H   0  0  0  0  0  0  0  0  0  0  0  0
    1.5532   -0.7933    4.5493 H   0  0  0  0  0  0  0  0  0  0  0  0
    3.0842   -1.3365    3.7915 H   0  0  0  0  0  0  0  0  0  0  0  0
  1 52  1  0  0  0  0
  2  6  1  0  0  0  0
  2 10  1  0  0  0  0
  3  8  1  0  0  0  0
  5 26  1  0  0  0  0
  6 38  1  0  0  0  0
  7  4  1  6  0  0  0
  7 10  1  0  0  0  0
  7 40  1  0  0  0  0
  8  6  2  0  0  0  0
  9 14  1  0  0  0  0
 10 21  2  0  0  0  0
 11  3  1  0  0  0  0
 11 12  1  0  0  0  0
 13 11  1  0  0  0  0
 14  4  1  0  0  0  0
 14 15  2  0  0  0  0
 15 44  1  0  0  0  0
 16  1  1  0  0  0  0
 17 16  1  0  0  0  0
 18 16  1  0  0  0  0
 19 20  1  0  0  0  0
 19  9  1  0  0  0  0
 21 29  1  0  0  0  0
 21 22  1  0  0  0  0
 23 11  1  0  0  0  0
 23  5  1  0  0  0  0
 24 23  1  0  0  0  0
 25 23  1  0  0  0  0
 26 52  1  0  0  0  0
 26 28  1  0  0  0  0
 26 27  1  0  0  0  0
 29 30  1  0  0  0  0
 31 16  1  0  0  0  0
 31 33  1  0  0  0  0
 31  5  1  0  0  0  0
 32 31  1  0  0  0  0
 34 15  1  0  0  0  0
 34 35  1  0  0  0  0
 36 34  2  0  0  0  0
 37 36  1  0  0  0  0
 38 39  1  0  0  0  0
 38 29  2  0  0  0  0
 40 43  1  0  0  0  0
 40 42  1  0  0  0  0
 41 40  1  0  0  0  0
 44 46  1  0  0  0  0
 44 67  1  0  0  0  0
 45 44  1  0  0  0  0
 46 47  1  0  0  0  0
 46 48  1  0  0  0  0
 49 46  1  0  0  0  0
 50  9  2  0  0  0  0
 50 36  1  0  0  0  0
 51 50  1  0  0  0  0
 52 54  1  0  0  0  0
 53 52  1  0  0  0  0
 55  8  1  0  0  0  0
 55 57  1  0  0  0  0
 55 56  1  0  0  0  0
 58 55  1  0  0  0  0
 59 60  1  0  0  0  0
 59 19  1  0  0  0  0
 61 59  1  0  0  0  0
 62 59  1  0  0  0  0
 63 19  1  0  0  0  0
 63 66  1  0  0  0  0
 64 63  1  0  0  0  0
 65 63  1  0  0  0  0
 67 70  1  0  0  0  0
 67 69  1  0  0  0  0
 68 67  1  0  0  0  0
M  END
