7,8,9,10
 OpenBabel05122313063D

 66 69  0  0  1  0  0  0  0  0999 V2000
    1.8915    4.0246    1.4019 O   0  0  0  0  0  0  0  0  0  0  0  0
   -0.8261    3.9761    1.9949 O   0  0  0  0  0  0  0  0  0  0  0  0
   -3.1799   -1.8002   -2.1272 O   0  0  0  0  0  0  0  0  0  0  0  0
   -4.2092   -1.7708   -0.0928 O   0  0  0  0  0  0  0  0  0  0  0  0
    3.7699   -2.3840   -1.6085 O   0  0  0  0  0  0  0  0  0  0  0  0
    3.8895   -2.1416    0.6545 O   0  0  0  0  0  0  0  0  0  0  0  0
    1.5472    2.0693    0.1584 N   0  0  0  0  0  2  0  0  0  0  0  0
   -1.0045    2.1394    0.5387 N   0  0  0  0  0  2  0  0  0  0  0  0
   -1.1406   -0.5296   -0.1941 N   0  0  0  0  0  2  0  0  0  0  0  0
    1.4261   -0.5826   -0.1640 N   0  0  0  0  0  2  0  0  0  0  0  0
    1.1758    3.1301    0.9686 C   0  0  0  0  0  0  0  0  0  0  0  0
   -0.3375    3.1274    1.2594 C   0  0  0  0  0  0  0  0  0  0  0  0
   -2.3590    2.1707    0.2927 C   0  0  0  0  0  0  0  0  0  0  0  0
   -3.1433    3.3391    0.5451 C   0  0  0  0  0  0  0  0  0  0  0  0
   -2.6607    4.1768    1.0583 H   0  0  0  0  0  0  0  0  0  0  0  0
   -4.4727    3.4255    0.1479 C   0  0  0  0  0  0  0  0  0  0  0  0
   -5.0253    4.3582    0.3402 H   0  0  0  0  0  0  0  0  0  0  0  0
   -5.1089    2.3481   -0.5034 C   0  0  0  0  0  0  0  0  0  0  0  0
   -6.1532    2.4251   -0.8383 H   0  0  0  0  0  0  0  0  0  0  0  0
   -4.3918    1.1773   -0.7027 C   0  0  0  0  0  3  0  0  0  0  0  0
   -4.8923    0.3354   -1.1980 H   0  0  0  0  0  0  0  0  0  0  0  0
   -3.0322    1.0368   -0.2948 C   0  0  0  0  0  0  0  0  0  0  0  0
   -2.4056   -0.2628   -0.4411 C   0  0  0  0  0  0  0  0  0  0  0  0
   -0.5676   -1.8962   -0.3541 C   0  0  2  0  0  0  0  0  0  0  0  0
   -0.4383   -2.0556   -1.4470 H   0  0  0  0  0  0  0  0  0  0  0  0
   -1.3263   -3.1009    0.2362 C   0  0  0  0  0  0  0  0  0  0  0  0
   -2.3039   -3.2565   -0.2478 H   0  0  0  0  0  0  0  0  0  0  0  0
   -0.7293   -3.9945   -0.0521 H   0  0  0  0  0  0  0  0  0  0  0  0
   -1.4462   -3.0514    1.7605 C   0  0  0  0  0  0  0  0  0  0  0  0
   -2.0109   -3.9349    2.1226 H   0  0  0  0  0  0  0  0  0  0  0  0
   -2.0356   -2.1575    2.0585 H   0  0  0  0  0  0  0  0  0  0  0  0
   -0.0528   -3.0005    2.3961 C   0  0  0  0  0  0  0  0  0  0  0  0
    0.4789   -3.9565    2.1866 H   0  0  0  0  0  0  0  0  0  0  0  0
   -0.1215   -2.9165    3.5001 H   0  0  0  0  0  0  0  0  0  0  0  0
    0.7543   -1.8260    1.8402 C   0  0  0  0  0  0  0  0  0  0  0  0
    1.7911   -1.8136    2.2310 H   0  0  0  0  0  0  0  0  0  0  0  0
    0.2822   -0.8689    2.1518 H   0  0  0  0  0  0  0  0  0  0  0  0
    0.8227   -1.8288    0.2988 C   0  0  2  0  0  0  0  0  0  0  0  0
    1.4048   -2.7111   -0.0439 H   0  0  0  0  0  0  0  0  0  0  0  0
    2.6793   -0.5047   -0.5367 C   0  0  0  0  0  0  0  0  0  0  0  0
    3.3355    0.7378   -0.8802 C   0  0  0  0  0  0  0  0  0  0  0  0
    4.5844    0.7022   -1.5607 C   0  0  0  0  0  3  0  0  0  0  0  0
    4.9731   -0.2677   -1.9014 H   0  0  0  0  0  0  0  0  0  0  0  0
    5.2949    1.8653   -1.8306 C   0  0  0  0  0  0  0  0  0  0  0  0
    6.2512    1.8198   -2.3711 H   0  0  0  0  0  0  0  0  0  0  0  0
    4.7656    3.1010   -1.4019 C   0  0  0  0  0  0  0  0  0  0  0  0
    5.3160    4.0333   -1.6019 H   0  0  0  0  0  0  0  0  0  0  0  0
    3.5483    3.1707   -0.7300 C   0  0  0  0  0  0  0  0  0  0  0  0
    3.1630    4.1350   -0.3830 H   0  0  0  0  0  0  0  0  0  0  0  0
    2.7788    2.0000   -0.4646 C   0  0  0  0  0  0  0  0  0  0  0  0
   -3.2965   -1.3627   -0.9981 C   0  0  0  0  0  0  0  0  0  0  0  0
   -5.1302   -2.8070   -0.5230 C   0  0  0  0  0  0  0  0  0  0  0  0
   -5.4366   -3.3052    0.4166 H   0  0  0  0  0  0  0  0  0  0  0  0
   -4.5786   -3.5294   -1.1593 H   0  0  0  0  0  0  0  0  0  0  0  0
   -6.3191   -2.2225   -1.2664 C   0  0  0  0  0  0  0  0  0  0  0  0
   -7.0444   -3.0260   -1.5049 H   0  0  0  0  0  0  0  0  0  0  0  0
   -5.9987   -1.7593   -2.2198 H   0  0  0  0  0  0  0  0  0  0  0  0
   -6.8375   -1.4611   -0.6508 H   0  0  0  0  0  0  0  0  0  0  0  0
    3.5018   -1.7816   -0.5869 C   0  0  0  0  0  0  0  0  0  0  0  0
    4.6606   -3.3682    0.7630 C   0  0  0  0  0  0  0  0  0  0  0  0
    5.2496   -3.2390    1.6908 H   0  0  0  0  0  0  0  0  0  0  0  0
    5.3483   -3.4293   -0.1040 H   0  0  0  0  0  0  0  0  0  0  0  0
    3.7535   -4.5850    0.8311 C   0  0  0  0  0  0  0  0  0  0  0  0
    4.3604   -5.4982    0.9934 H   0  0  0  0  0  0  0  0  0  0  0  0
    3.1954   -4.7131   -0.1170 H   0  0  0  0  0  0  0  0  0  0  0  0
    3.0309   -4.5004    1.6674 H   0  0  0  0  0  0  0  0  0  0  0  0
  3 51  2  0  0  0  0
  5 59  2  0  0  0  0
  6 60  1  0  0  0  0
  7 11  1  0  0  0  0
  8 12  1  0  0  0  0
 10 38  1  0  0  0  0
 11 12  1  0  0  0  0
 11  1  2  0  0  0  0
 12  2  2  0  0  0  0
 13  8  1  0  0  0  0
 13 14  2  0  0  0  0
 14 15  1  0  0  0  0
 16 17  1  0  0  0  0
 16 14  1  0  0  0  0
 18 16  2  0  0  0  0
 19 18  1  0  0  0  0
 20 18  1  0  0  0  0
 20 22  1  0  0  0  0
 21 20  1  0  0  0  0
 22 13  1  0  0  0  0
 23 22  2  0  0  0  0
 23  9  1  0  0  0  0
 24 25  1  6  0  0  0
 24  9  1  0  0  0  0
 24 26  1  0  0  0  0
 24 38  1  0  0  0  0
 26 29  1  0  0  0  0
 27 26  1  0  0  0  0
 28 26  1  0  0  0  0
 29 31  1  0  0  0  0
 29 30  1  0  0  0  0
 29 32  1  0  0  0  0
 32 34  1  0  0  0  0
 33 32  1  0  0  0  0
 35 37  1  0  0  0  0
 35 36  1  0  0  0  0
 35 32  1  0  0  0  0
 38 39  1  6  0  0  0
 38 35  1  0  0  0  0
 40 10  1  0  0  0  0
 41 40  2  0  0  0  0
 41 50  1  0  0  0  0
 42 41  1  0  0  0  0
 43 42  1  0  0  0  0
 44 42  1  0  0  0  0
 44 46  2  0  0  0  0
 45 44  1  0  0  0  0
 46 48  1  0  0  0  0
 47 46  1  0  0  0  0
 48 50  2  0  0  0  0
 48 49  1  0  0  0  0
 50  7  1  0  0  0  0
 51 23  1  0  0  0  0
 51  4  1  0  0  0  0
 52  4  1  0  0  0  0
 52 53  1  0  0  0  0
 54 52  1  0  0  0  0
 55 58  1  0  0  0  0
 55 52  1  0  0  0  0
 56 55  1  0  0  0  0
 57 55  1  0  0  0  0
 59 40  1  0  0  0  0
 59  6  1  0  0  0  0
 60 63  1  0  0  0  0
 60 61  1  0  0  0  0
 62 60  1  0  0  0  0
 63 64  1  0  0  0  0
 63 66  1  0  0  0  0
 65 63  1  0  0  0  0
M  END
