1,3,5,7
 OpenBabel05122313063D

 64 66  0  0  1  0  0  0  0  0999 V2000
    1.7049   -1.3462    0.0796 N   0  0  0  0  0  0  0  0  0  0  0  0
    1.7161   -1.4724    1.1056 H   0  0  0  0  0  0  0  0  0  0  0  0
    1.6073    1.3636   -0.6697 N   0  0  0  0  0  0  0  0  0  0  0  0
    1.7393    1.2554   -1.6883 H   0  0  0  0  0  0  0  0  0  0  0  0
   -1.5119    1.2359   -0.7477 N   0  0  0  0  0  0  0  0  0  0  0  0
   -1.5080    1.0912   -1.7707 H   0  0  0  0  0  0  0  0  0  0  0  0
   -1.4653   -1.4698    0.1076 N   0  0  0  0  0  0  0  0  0  0  0  0
   -1.6310   -1.5460    1.1320 H   0  0  0  0  0  0  0  0  0  0  0  0
    2.9640   -0.6490   -0.2818 C   0  0  2  0  0  0  0  0  0  0  0  0
    3.0902   -0.7539   -1.3818 H   0  0  0  0  0  0  0  0  0  0  0  0
    4.1996   -1.2390    0.4117 C   0  0  0  0  0  0  0  0  0  0  0  0
    4.0464   -1.1728    1.5129 H   0  0  0  0  0  0  0  0  0  0  0  0
    4.2888   -2.3176    0.1668 H   0  0  0  0  0  0  0  0  0  0  0  0
    5.4810   -0.4933    0.0238 C   0  0  0  0  0  0  0  0  0  0  0  0
    5.6860   -0.6519   -1.0581 H   0  0  0  0  0  0  0  0  0  0  0  0
    6.3465   -0.9201    0.5691 H   0  0  0  0  0  0  0  0  0  0  0  0
    5.3499    1.0062    0.3061 C   0  0  0  0  0  0  0  0  0  0  0  0
    5.2634    1.1708    1.4025 H   0  0  0  0  0  0  0  0  0  0  0  0
    6.2616    1.5469   -0.0178 H   0  0  0  0  0  0  0  0  0  0  0  0
    4.1184    1.5997   -0.3893 C   0  0  0  0  0  0  0  0  0  0  0  0
    4.2419    1.5303   -1.4951 H   0  0  0  0  0  0  0  0  0  0  0  0
    4.0300    2.6776   -0.1460 H   0  0  0  0  0  0  0  0  0  0  0  0
    2.8314    0.8629    0.0078 C   0  0  1  0  0  0  0  0  0  0  0  0
    2.6503    0.9940    1.0986 H   0  0  0  0  0  0  0  0  0  0  0  0
    1.2591    2.7762   -0.3969 C   0  0  0  0  0  0  0  0  0  0  0  0
    2.0829    3.4522   -0.7120 H   0  0  0  0  0  0  0  0  0  0  0  0
    1.1578    2.8838    0.7023 H   0  0  0  0  0  0  0  0  0  0  0  0
   -0.0267    3.2021   -1.1103 C   0  0  0  0  0  0  0  0  0  0  0  0
   -0.0614    4.3104   -1.1063 H   0  0  0  0  0  0  0  0  0  0  0  0
    0.0369    2.9216   -2.1872 H   0  0  0  0  0  0  0  0  0  0  0  0
   -1.3652    2.7132   -0.5260 C   0  0  2  0  0  0  0  0  0  0  0  0
   -2.1603    3.2295   -1.1100 H   0  0  0  0  0  0  0  0  0  0  0  0
   -1.5406    3.0881    0.9450 C   0  0  0  0  0  0  0  0  0  0  0  0
   -2.5835    2.9427    1.2857 H   0  0  0  0  0  0  0  0  0  0  0  0
   -1.3043    4.1610    1.0832 H   0  0  0  0  0  0  0  0  0  0  0  0
   -0.8779    2.4907    1.6041 H   0  0  0  0  0  0  0  0  0  0  0  0
   -2.7628    0.6167   -0.2287 C   0  0  1  0  0  0  0  0  0  0  0  0
   -2.7641    0.7716    0.8722 H   0  0  0  0  0  0  0  0  0  0  0  0
   -4.0421    1.2237   -0.8208 C   0  0  0  0  0  0  0  0  0  0  0  0
   -4.0806    2.3104   -0.6048 H   0  0  0  0  0  0  0  0  0  0  0  0
   -4.0027    1.1214   -1.9302 H   0  0  0  0  0  0  0  0  0  0  0  0
   -5.3023    0.5371   -0.2821 C   0  0  0  0  0  0  0  0  0  0  0  0
   -5.3855    0.7322    0.8095 H   0  0  0  0  0  0  0  0  0  0  0  0
   -6.2029    0.9848   -0.7480 H   0  0  0  0  0  0  0  0  0  0  0  0
   -5.2559   -0.9727   -0.5291 C   0  0  0  0  0  0  0  0  0  0  0  0
   -5.2914   -1.1719   -1.6232 H   0  0  0  0  0  0  0  0  0  0  0  0
   -6.1470   -1.4683   -0.0946 H   0  0  0  0  0  0  0  0  0  0  0  0
   -3.9814   -1.5862    0.0593 C   0  0  0  0  0  0  0  0  0  0  0  0
   -3.9440   -2.6731   -0.1567 H   0  0  0  0  0  0  0  0  0  0  0  0
   -3.9869   -1.4798    1.1678 H   0  0  0  0  0  0  0  0  0  0  0  0
   -2.7108   -0.9063   -0.4746 C   0  0  2  0  0  0  0  0  0  0  0  0
   -2.6486   -1.0690   -1.5767 H   0  0  0  0  0  0  0  0  0  0  0  0
   -1.1362   -2.8275   -0.3814 C   0  0  0  0  0  0  0  0  0  0  0  0
   -1.1825   -2.8069   -1.4897 H   0  0  0  0  0  0  0  0  0  0  0  0
   -1.9104   -3.5557   -0.0552 H   0  0  0  0  0  0  0  0  0  0  0  0
    0.2298   -3.3342    0.0834 C   0  0  0  0  0  0  0  0  0  0  0  0
    0.2732   -4.4170   -0.1528 H   0  0  0  0  0  0  0  0  0  0  0  0
    0.2956   -3.2755    1.1930 H   0  0  0  0  0  0  0  0  0  0  0  0
    1.4762   -2.6778   -0.5441 C   0  0  1  0  0  0  0  0  0  0  0  0
    2.3381   -3.3416   -0.3017 H   0  0  0  0  0  0  0  0  0  0  0  0
    1.3860   -2.5699   -2.0666 C   0  0  0  0  0  0  0  0  0  0  0  0
    2.3596   -2.3180   -2.5286 H   0  0  0  0  0  0  0  0  0  0  0  0
    0.6525   -1.7960   -2.3775 H   0  0  0  0  0  0  0  0  0  0  0  0
    1.0664   -3.5370   -2.5014 H   0  0  0  0  0  0  0  0  0  0  0  0
  1  2  1  0  0  0  0
  3 25  1  0  0  0  0
  3 23  1  0  0  0  0
  4  3  1  0  0  0  0
  5 31  1  0  0  0  0
  5 37  1  0  0  0  0
  6  5  1  0  0  0  0
  7  8  1  0  0  0  0
  9 10  1  6  0  0  0
  9 23  1  0  0  0  0
  9  1  1  0  0  0  0
  9 11  1  0  0  0  0
 11 12  1  0  0  0  0
 13 11  1  0  0  0  0
 14 17  1  0  0  0  0
 14 11  1  0  0  0  0
 14 16  1  0  0  0  0
 15 14  1  0  0  0  0
 17 18  1  0  0  0  0
 19 17  1  0  0  0  0
 20 22  1  0  0  0  0
 20 23  1  0  0  0  0
 20 17  1  0  0  0  0
 21 20  1  0  0  0  0
 23 24  1  1  0  0  0
 25 27  1  0  0  0  0
 26 25  1  0  0  0  0
 28 29  1  0  0  0  0
 28 31  1  0  0  0  0
 28 25  1  0  0  0  0
 30 28  1  0  0  0  0
 31 32  1  6  0  0  0
 31 33  1  0  0  0  0
 33 35  1  0  0  0  0
 33 34  1  0  0  0  0
 33 36  1  0  0  0  0
 37 38  1  1  0  0  0
 39 40  1  0  0  0  0
 39 42  1  0  0  0  0
 39 37  1  0  0  0  0
 41 39  1  0  0  0  0
 42 43  1  0  0  0  0
 44 42  1  0  0  0  0
 45 42  1  0  0  0  0
 45 47  1  0  0  0  0
 45 48  1  0  0  0  0
 46 45  1  0  0  0  0
 48 50  1  0  0  0  0
 49 48  1  0  0  0  0
 51 52  1  6  0  0  0
 51 37  1  0  0  0  0
 51 48  1  0  0  0  0
 51  7  1  0  0  0  0
 53 55  1  0  0  0  0
 53 56  1  0  0  0  0
 53  7  1  0  0  0  0
 54 53  1  0  0  0  0
 56 58  1  0  0  0  0
 57 56  1  0  0  0  0
 59 60  1  1  0  0  0
 59  1  1  0  0  0  0
 59 56  1  0  0  0  0
 61 59  1  0  0  0  0
 62 61  1  0  0  0  0
 63 61  1  0  0  0  0
 64 61  1  0  0  0  0
M  END
