35,38,39,42
 OpenBabel05122313063D

 42 45  0  0  1  0  0  0  0  0999 V2000
   -0.4978   -2.5500   -1.3817 C   0  0  0  0  0  3  0  0  0  0  0  0
    0.5927   -2.5811   -1.2677 H   0  0  0  0  0  0  0  0  0  0  0  0
   -1.2002   -3.6060   -1.9563 C   0  0  0  0  0  0  0  0  0  0  0  0
   -0.6581   -4.5028   -2.2855 H   0  0  0  0  0  0  0  0  0  0  0  0
   -2.5954   -3.4914   -2.0896 C   0  0  0  0  0  0  0  0  0  0  0  0
   -3.1962   -4.3099   -2.5122 H   0  0  0  0  0  0  0  0  0  0  0  0
   -3.2035   -2.2959   -1.7144 C   0  0  0  0  0  0  0  0  0  0  0  0
   -4.2816   -2.1343   -1.8612 H   0  0  0  0  0  0  0  0  0  0  0  0
   -2.4150   -1.2502   -1.1759 C   0  0  0  0  0  0  0  0  0  0  0  0
   -2.4919    1.2290   -0.7599 C   0  0  2  0  0  3  0  0  0  0  0  0
   -3.3680    2.3343   -0.8095 C   0  0  0  0  0  0  0  0  0  0  0  0
   -4.4335    2.1680   -1.0229 H   0  0  0  0  0  0  0  0  0  0  0  0
   -2.8708    3.6165   -0.5722 C   0  0  0  0  0  0  0  0  0  0  0  0
   -3.5428    4.4857   -0.6016 H   0  0  0  0  0  0  0  0  0  0  0  0
   -1.5146    3.7697   -0.2604 C   0  0  0  0  0  0  0  0  0  0  0  0
   -1.0995    4.7533   -0.0057 H   0  0  0  0  0  0  0  0  0  0  0  0
   -0.6987    2.6306   -0.2154 C   0  0  0  0  0  0  0  0  0  0  0  0
    0.6963    2.6313    0.2147 C   0  0  2  0  0  3  0  0  0  0  0  0
    1.5112    3.7712    0.2593 C   0  0  0  0  0  0  0  0  0  0  0  0
    1.0952    4.7543    0.0044 H   0  0  0  0  0  0  0  0  0  0  0  0
    2.8675    3.6192    0.5712 C   0  0  0  0  0  0  0  0  0  0  0  0
    3.5387    4.4890    0.6003 H   0  0  0  0  0  0  0  0  0  0  0  0
    3.3659    2.3375    0.8087 C   0  0  0  0  0  0  0  0  0  0  0  0
    4.4316    2.1722    1.0222 H   0  0  0  0  0  0  0  0  0  0  0  0
    2.4908    1.2315    0.7594 C   0  0  0  0  0  0  0  0  0  0  0  0
    2.4161   -1.2477    1.1762 C   0  0  2  0  0  3  0  0  0  0  0  0
    3.2055   -2.2925    1.7151 C   0  0  0  0  0  0  0  0  0  0  0  0
    4.2835   -2.1299    1.8619 H   0  0  0  0  0  0  0  0  0  0  0  0
    2.5985   -3.4884    2.0907 C   0  0  0  0  0  0  0  0  0  0  0  0
    3.2000   -4.3063    2.5136 H   0  0  0  0  0  0  0  0  0  0  0  0
    1.2033   -3.6043    1.9575 C   0  0  0  0  0  0  0  0  0  0  0  0
    0.6621   -4.5015    2.2869 H   0  0  0  0  0  0  0  0  0  0  0  0
    0.5000   -2.5491    1.3825 C   0  0  0  0  0  0  0  0  0  0  0  0
   -0.5904   -2.5811    1.2685 H   0  0  0  0  0  0  0  0  0  0  0  0
   -1.0906   -1.4105   -0.9299 N   0  0  0  0  0  2  0  0  0  0  0  0
   -3.0237   -0.0321   -0.9472 N   0  0  0  0  0  0  0  0  0  0  0  0
   -4.0425   -0.0545   -0.9710 H   0  0  0  0  0  0  0  0  0  0  0  0
   -1.1686    1.3767   -0.5105 N   0  0  0  0  0  2  0  0  0  0  0  0
    1.1674    1.3779    0.5101 N   0  0  0  0  0  2  0  0  0  0  0  0
    3.0238   -0.0291    0.9471 N   0  0  0  0  0  0  0  0  0  0  0  0
    4.0425   -0.0506    0.9708 H   0  0  0  0  0  0  0  0  0  0  0  0
    1.0918   -1.4092    0.9303 N   0  0  0  0  0  2  0  0  0  0  0  0
  1  2  1  0  0  0  0
  1 35  1  0  0  0  0
  3  1  1  0  0  0  0
  4  3  1  0  0  0  0
  5  3  2  0  0  0  0
  5  7  1  0  0  0  0
  6  5  1  0  0  0  0
  7  9  2  0  0  0  0
  8  7  1  0  0  0  0
  9 36  1  0  0  0  0
  9 35  1  0  0  0  0
 10 36  1  1  0  0  0
 10 38  1  0  0  0  0
 11 10  1  0  0  0  0
 11 13  2  0  0  0  0
 12 11  1  0  0  0  0
 13 15  1  0  0  0  0
 14 13  1  0  0  0  0
 15 17  2  0  0  0  0
 15 16  1  0  0  0  0
 18 17  1  6  0  0  0
 18 19  1  0  0  0  0
 18 39  1  0  0  0  0
 19 21  2  0  0  0  0
 20 19  1  0  0  0  0
 21 22  1  0  0  0  0
 21 23  1  0  0  0  0
 23 24  1  0  0  0  0
 25 23  2  0  0  0  0
 25 40  1  0  0  0  0
 26 40  1  1  0  0  0
 26 27  1  0  0  0  0
 27 28  1  0  0  0  0
 27 29  2  0  0  0  0
 29 30  1  0  0  0  0
 31 29  1  0  0  0  0
 31 32  1  0  0  0  0
 33 31  2  0  0  0  0
 34 33  1  0  0  0  0
 37 36  1  0  0  0  0
 38 17  1  0  0  0  0
 39 25  1  0  0  0  0
 40 41  1  0  0  0  0
 42 26  1  0  0  0  0
 42 33  1  0  0  0  0
M  END
