1,2,3,4
q = 0.0, confidence = 0.992

 52 54  0  0  1  0  0  0  0  0999 V2000
   -2.1310    1.1212    0.7677 N   0  0  0  0  0  0  0  0  0  0  0  0
   -1.8478   -1.1149   -0.9183 N   0  0  0  0  0  0  0  0  0  0  0  0
   -0.3498    1.4976   -1.1281 N   0  0  0  0  0  2  0  0  0  0  0  0
   -0.6052   -1.4560    1.3740 N   0  0  0  0  0  2  0  0  0  0  0  0
   -3.3005    0.7108   -0.0837 C   0  0  2  0  0  0  0  0  0  0  0  0
   -3.1630    1.2451   -1.0495 H   0  0  0  0  0  0  0  0  0  0  0  0
   -4.6738    1.1048    0.4841 C   0  0  0  0  0  0  0  0  0  0  0  0
   -4.8064    0.6375    1.4823 H   0  0  0  0  0  0  0  0  0  0  0  0
   -4.7198    2.2027    0.6383 H   0  0  0  0  0  0  0  0  0  0  0  0
   -5.8163    0.6358   -0.4224 C   0  0  0  0  0  0  0  0  0  0  0  0
   -6.7911    0.9219    0.0227 H   0  0  0  0  0  0  0  0  0  0  0  0
   -5.7554    1.1525   -1.4059 H   0  0  0  0  0  0  0  0  0  0  0  0
   -5.7374   -0.8781   -0.6368 C   0  0  0  0  0  0  0  0  0  0  0  0
   -6.5584   -1.2267   -1.2959 H   0  0  0  0  0  0  0  0  0  0  0  0
   -5.8735   -1.3979    0.3375 H   0  0  0  0  0  0  0  0  0  0  0  0
   -4.3847   -1.2595   -1.2469 C   0  0  0  0  0  0  0  0  0  0  0  0
   -4.3092   -0.7885   -2.2492 H   0  0  0  0  0  0  0  0  0  0  0  0
   -4.3211   -2.3557   -1.4056 H   0  0  0  0  0  0  0  0  0  0  0  0
   -3.2135   -0.7839   -0.3715 C   0  0  1  0  0  0  0  0  0  0  0  0
   -3.2751   -1.3159    0.6032 H   0  0  0  0  0  0  0  0  0  0  0  0
   -2.3488    0.9611    2.2203 C   0  0  0  0  0  0  0  0  0  0  0  0
   -3.1073    1.6746    2.6059 H   0  0  0  0  0  0  0  0  0  0  0  0
   -1.3824    1.1502    2.7212 H   0  0  0  0  0  0  0  0  0  0  0  0
   -2.6705   -0.0717    2.4461 H   0  0  0  0  0  0  0  0  0  0  0  0
   -1.7263   -0.9312   -2.3808 C   0  0  0  0  0  0  0  0  0  0  0  0
   -2.3626   -1.6502   -2.9389 H   0  0  0  0  0  0  0  0  0  0  0  0
   -0.6734   -1.1171   -2.6602 H   0  0  0  0  0  0  0  0  0  0  0  0
   -2.0095    0.0993   -2.6604 H   0  0  0  0  0  0  0  0  0  0  0  0
   -1.7969    2.5395    0.4650 C   0  0  0  0  0  0  0  0  0  0  0  0
   -1.0876    2.9052    1.2336 H   0  0  0  0  0  0  0  0  0  0  0  0
   -2.6994    3.1880    0.4986 H   0  0  0  0  0  0  0  0  0  0  0  0
   -1.0930    2.6088   -0.8540 C   0  0  1  0  0  3  0  0  0  0  0  0
   -1.0978    3.7286   -1.6885 C   0  0  0  0  0  0  0  0  0  0  0  0
   -1.7221    4.5950   -1.4262 H   0  0  0  0  0  0  0  0  0  0  0  0
   -0.2749    3.7397   -2.8243 C   0  0  0  0  0  0  0  0  0  0  0  0
   -0.2498    4.6137   -3.4912 H   0  0  0  0  0  0  0  0  0  0  0  0
    0.5288    2.6169   -3.0732 C   0  0  0  0  0  0  0  0  0  0  0  0
    1.2129    2.5822   -3.9329 H   0  0  0  0  0  0  0  0  0  0  0  0
    0.4657    1.5189   -2.2134 C   0  0  0  0  0  0  0  0  0  0  0  0
    1.0870    0.6248   -2.3521 H   0  0  0  0  0  0  0  0  0  0  0  0
   -1.5377   -2.5260   -0.5658 C   0  0  0  0  0  0  0  0  0  0  0  0
   -0.6885   -2.8587   -1.1998 H   0  0  0  0  0  0  0  0  0  0  0  0
   -2.3913   -3.2004   -0.7988 H   0  0  0  0  0  0  0  0  0  0  0  0
   -1.1440   -2.6060    0.8769 C   0  0  1  0  0  3  0  0  0  0  0  0
   -1.2292   -3.7780    1.6344 C   0  0  0  0  0  0  0  0  0  0  0  0
   -1.6811   -4.6762    1.1890 H   0  0  0  0  0  0  0  0  0  0  0  0
   -0.7011   -3.7959    2.9323 C   0  0  0  0  0  0  0  0  0  0  0  0
   -0.7429   -4.7096    3.5427 H   0  0  0  0  0  0  0  0  0  0  0  0
   -0.0990   -2.6264    3.4206 C   0  0  0  0  0  0  0  0  0  0  0  0
    0.3582   -2.5923    4.4196 H   0  0  0  0  0  0  0  0  0  0  0  0
   -0.0689   -1.4824    2.6214 C   0  0  0  0  0  0  0  0  0  0  0  0
    0.4127   -0.5462    2.9380 H   0  0  0  0  0  0  0  0  0  0  0  0
  1 21  1  0  0  0  0
  2 41  1  0  0  0  0
  2 19  1  0  0  0  0
  3 32  1  0  0  0  0
  4 51  1  0  0  0  0
  5  6  1  6  0  0  0
  5  7  1  0  0  0  0
  5  1  1  0  0  0  0
  7  9  1  0  0  0  0
  7  8  1  0  0  0  0
 10 11  1  0  0  0  0
 10  7  1  0  0  0  0
 12 10  1  0  0  0  0
 13 10  1  0  0  0  0
 13 15  1  0  0  0  0
 14 13  1  0  0  0  0
 16 13  1  0  0  0  0
 16 19  1  0  0  0  0
 17 16  1  0  0  0  0
 18 16  1  0  0  0  0
 19  5  1  0  0  0  0
 19 20  1  1  0  0  0
 21 24  1  0  0  0  0
 21 22  1  0  0  0  0
 21 23  1  0  0  0  0
 25  2  1  0  0  0  0
 26 25  1  0  0  0  0
 27 25  1  0  0  0  0
 28 25  1  0  0  0  0
 29 31  1  0  0  0  0
 29  1  1  0  0  0  0
 29 30  1  0  0  0  0
 32 29  1  1  0  0  0
 33 34  1  0  0  0  0
 33 32  1  0  0  0  0
 35 33  2  0  0  0  0
 36 35  1  0  0  0  0
 37 35  1  0  0  0  0
 37 39  2  0  0  0  0
 38 37  1  0  0  0  0
 39  3  1  0  0  0  0
 40 39  1  0  0  0  0
 42 41  1  0  0  0  0
 43 41  1  0  0  0  0
 44 41  1  6  0  0  0
 44  4  1  0  0  0  0
 44 45  1  0  0  0  0
 45 47  2  0  0  0  0
 46 45  1  0  0  0  0
 47 49  1  0  0  0  0
 47 48  1  0  0  0  0
 49 50  1  0  0  0  0
 51 52  1  0  0  0  0
 51 49  2  0  0  0  0
M  END
