10,20,24,31
 OpenBabel05122313063D

 48 50  0  0  0  0  0  0  0  0999 V2000
    1.8147    3.1167    0.4109 C   0  0  0  0  0  3  0  0  0  0  0  0
    2.8071    2.6765    0.6023 H   0  0  0  0  0  0  0  0  0  0  0  0
    1.5677    4.4930    0.4310 C   0  0  0  0  0  0  0  0  0  0  0  0
    2.3873    5.1831    0.6782 H   0  0  0  0  0  0  0  0  0  0  0  0
    0.2812    4.9654    0.1347 C   0  0  0  0  0  0  0  0  0  0  0  0
    0.0573    6.0424    0.1421 H   0  0  0  0  0  0  0  0  0  0  0  0
   -0.7227    4.0287   -0.1632 C   0  0  0  0  0  0  0  0  0  0  0  0
   -1.7520    4.3459   -0.3859 H   0  0  0  0  0  0  0  0  0  0  0  0
   -0.4060    2.6676   -0.1748 C   0  0  0  0  0  0  0  0  0  0  0  0
    0.8494    2.2168    0.1050 N   0  0  0  0  0  2  0  0  0  0  0  0
    1.5232   -2.4717   -1.4491 C   0  0  0  0  0  3  0  0  0  0  0  0
    1.2002   -1.9268   -2.3503 H   0  0  0  0  0  0  0  0  0  0  0  0
    1.8826   -3.8232   -1.4674 C   0  0  0  0  0  0  0  0  0  0  0  0
    1.8295   -4.3779   -2.4153 H   0  0  0  0  0  0  0  0  0  0  0  0
    2.3062   -4.4436   -0.2830 C   0  0  0  0  0  0  0  0  0  0  0  0
    2.5908   -5.5061   -0.2682 H   0  0  0  0  0  0  0  0  0  0  0  0
    2.3687   -3.6673    0.8852 C   0  0  0  0  0  0  0  0  0  0  0  0
    2.7110   -4.0954    1.8389 H   0  0  0  0  0  0  0  0  0  0  0  0
    2.0015   -2.3203    0.8289 C   0  0  0  0  0  0  0  0  0  0  0  0
    1.5612   -1.7257   -0.3193 N   0  0  0  0  0  2  0  0  0  0  0  0
    2.0622   -1.3441    1.9724 C   0  0  0  0  0  0  0  0  0  0  0  0
    1.8750   -1.8345    2.9533 H   0  0  0  0  0  0  0  0  0  0  0  0
    3.0844   -0.8922    1.9746 H   0  0  0  0  0  0  0  0  0  0  0  0
    1.1149   -0.2862    1.6576 N   0  0  0  0  0  2  0  0  0  0  0  0
   -0.1177   -0.3187    2.4202 C   0  0  0  0  0  0  0  0  0  0  0  0
    0.0169    0.0459    3.4667 H   0  0  0  0  0  0  0  0  0  0  0  0
   -0.4823   -1.3732    2.5129 H   0  0  0  0  0  0  0  0  0  0  0  0
   -1.1281    0.5465    1.6904 C   0  0  0  0  0  0  0  0  0  0  0  0
   -2.1739    0.3429    2.0073 H   0  0  0  0  0  0  0  0  0  0  0  0
   -0.9220    1.6111    1.9078 H   0  0  0  0  0  0  0  0  0  0  0  0
   -0.9618    0.3579    0.2221 N   0  0  0  0  0  0  0  0  0  0  0  0
   -1.3946    1.5789   -0.4882 C   0  0  0  0  0  0  0  0  0  0  0  0
   -2.4317    1.8792   -0.2207 H   0  0  0  0  0  0  0  0  0  0  0  0
   -1.3369    1.3624   -1.5757 H   0  0  0  0  0  0  0  0  0  0  0  0
   -1.6059   -0.8817   -0.3031 C   0  0  0  0  0  0  0  0  0  0  0  0
   -1.1523   -1.7339    0.2383 H   0  0  0  0  0  0  0  0  0  0  0  0
   -1.2777   -0.9509   -1.3597 H   0  0  0  0  0  0  0  0  0  0  0  0
   -3.1128   -0.9253   -0.1862 C   0  0  0  0  0  0  0  0  0  0  0  0
   -3.7349   -1.5166    0.9333 C   0  0  0  0  0  0  0  0  0  0  0  0
   -3.1113   -1.9938    1.7068 H   0  0  0  0  0  0  0  0  0  0  0  0
   -5.1321   -1.5240    1.0634 C   0  0  0  0  0  0  0  0  0  0  0  0
   -5.5990   -1.9945    1.9422 H   0  0  0  0  0  0  0  0  0  0  0  0
   -5.9322   -0.9403    0.0689 C   0  0  0  0  0  0  0  0  0  0  0  0
   -7.0284   -0.9470    0.1667 H   0  0  0  0  0  0  0  0  0  0  0  0
   -5.3280   -0.3611   -1.0587 C   0  0  0  0  0  0  0  0  0  0  0  0
   -5.9506    0.0826   -1.8507 H   0  0  0  0  0  0  0  0  0  0  0  0
   -3.9312   -0.3567   -1.1849 C   0  0  0  0  0  0  0  0  0  0  0  0
   -3.4628    0.0821   -2.0797 H   0  0  0  0  0  0  0  0  0  0  0  0
  1  3  1  0  0  0  0
  1  2  1  0  0  0  0
  3  4  1  0  0  0  0
  5  6  1  0  0  0  0
  5  3  2  0  0  0  0
  7  5  1  0  0  0  0
  8  7  1  0  0  0  0
  9  7  2  0  0  0  0
  9 10  1  0  0  0  0
 10  1  1  0  0  0  0
 11 20  1  0  0  0  0
 12 11  1  0  0  0  0
 13 11  1  0  0  0  0
 13 15  2  0  0  0  0
 14 13  1  0  0  0  0
 15 16  1  0  0  0  0
 15 17  1  0  0  0  0
 17 18  1  0  0  0  0
 19 17  2  0  0  0  0
 19 21  1  0  0  0  0
 20 19  1  0  0  0  0
 21 23  1  0  0  0  0
 21 22  1  0  0  0  0
 24 21  1  0  0  0  0
 24 25  1  0  0  0  0
 25 27  1  0  0  0  0
 25 26  1  0  0  0  0
 28 30  1  0  0  0  0
 28 29  1  0  0  0  0
 28 25  1  0  0  0  0
 31 28  1  0  0  0  0
 32 33  1  0  0  0  0
 32  9  1  0  0  0  0
 32 31  1  0  0  0  0
 34 32  1  0  0  0  0
 35 38  1  0  0  0  0
 35 31  1  0  0  0  0
 35 36  1  0  0  0  0
 37 35  1  0  0  0  0
 38 39  1  0  0  0  0
 39 41  2  0  0  0  0
 39 40  1  0  0  0  0
 41 42  1  0  0  0  0
 43 44  1  0  0  0  0
 43 41  1  0  0  0  0
 45 43  2  0  0  0  0
 46 45  1  0  0  0  0
 47 45  1  0  0  0  0
 47 38  2  0  0  0  0
 48 47  1  0  0  0  0
M  END
