1,2,3,4
 OpenBabel05122313063D

 64 66  0  0  0  0  0  0  0  0999 V2000
   -1.4127   -1.1463    0.5096 N   0  0  0  0  0  2  0  0  0  0  0  0
   -1.4124    1.1465   -0.5099 N   0  0  0  0  0  2  0  0  0  0  0  0
    1.4127    1.1463    0.5095 N   0  0  0  0  0  2  0  0  0  0  0  0
    1.4124   -1.1465   -0.5100 N   0  0  0  0  0  2  0  0  0  0  0  0
   -2.6498   -0.6212    0.3999 C   0  0  0  0  0  0  0  0  0  0  0  0
   -3.7921   -1.1503    1.0721 C   0  0  0  0  0  3  0  0  0  0  0  0
   -3.5761   -1.9400    1.8055 H   0  0  0  0  0  0  0  0  0  0  0  0
   -5.1501   -0.8618    0.9080 C   0  0  0  0  0  0  0  0  0  0  0  0
   -5.8231   -1.4383    1.5655 H   0  0  0  0  0  0  0  0  0  0  0  0
   -5.7856   -0.0003   -0.0019 C   0  0  0  0  0  0  0  0  0  0  0  0
   -6.8864   -0.0006   -0.0024 H   0  0  0  0  0  0  0  0  0  0  0  0
   -5.1496    0.8615   -0.9110 C   0  0  0  0  0  0  0  0  0  0  0  0
   -5.8221    1.4380   -1.5689 H   0  0  0  0  0  0  0  0  0  0  0  0
   -3.7915    1.1505   -1.0738 C   0  0  0  0  0  0  0  0  0  0  0  0
   -3.5752    1.9406   -1.8067 H   0  0  0  0  0  0  0  0  0  0  0  0
   -2.6495    0.6212   -0.4011 C   0  0  0  0  0  0  0  0  0  0  0  0
   -1.1303    2.1875   -1.4948 C   0  0  0  0  0  0  0  0  0  0  0  0
   -0.0390    2.1467   -1.6853 H   0  0  0  0  0  0  0  0  0  0  0  0
   -1.6141    1.9197   -2.4623 H   0  0  0  0  0  0  0  0  0  0  0  0
   -1.5191    3.6296   -1.1264 C   0  0  0  0  0  0  0  0  0  0  0  0
   -2.6119    3.6951   -0.9465 H   0  0  0  0  0  0  0  0  0  0  0  0
   -1.3132    4.2549   -2.0237 H   0  0  0  0  0  0  0  0  0  0  0  0
   -0.7682    4.1983    0.0812 C   0  0  0  0  0  0  0  0  0  0  0  0
   -1.1337    5.2266    0.2826 H   0  0  0  0  0  0  0  0  0  0  0  0
   -1.0604    3.6054    0.9740 H   0  0  0  0  0  0  0  0  0  0  0  0
    0.7677    4.1986   -0.0779 C   0  0  0  0  0  0  0  0  0  0  0  0
    1.0602    3.6068   -0.9714 H   0  0  0  0  0  0  0  0  0  0  0  0
    1.1329    5.2273   -0.2782 H   0  0  0  0  0  0  0  0  0  0  0  0
    1.5189    3.6288    1.1290 C   0  0  0  0  0  0  0  0  0  0  0  0
    2.6118    3.6950    0.9490 H   0  0  0  0  0  0  0  0  0  0  0  0
    1.3130    4.2531    2.0270 H   0  0  0  0  0  0  0  0  0  0  0  0
    1.1307    2.1862    1.4958 C   0  0  0  0  0  0  0  0  0  0  0  0
    0.0395    2.1449    1.6865 H   0  0  0  0  0  0  0  0  0  0  0  0
    1.6149    1.9172    2.4627 H   0  0  0  0  0  0  0  0  0  0  0  0
    2.6498    0.6211    0.3998 C   0  0  0  0  0  0  0  0  0  0  0  0
    3.7921    1.1503    1.0721 C   0  0  0  0  0  3  0  0  0  0  0  0
    3.5761    1.9400    1.8055 H   0  0  0  0  0  0  0  0  0  0  0  0
    5.1501    0.8618    0.9081 C   0  0  0  0  0  0  0  0  0  0  0  0
    5.8230    1.4384    1.5656 H   0  0  0  0  0  0  0  0  0  0  0  0
    5.7856    0.0003   -0.0018 C   0  0  0  0  0  0  0  0  0  0  0  0
    6.8864    0.0006   -0.0022 H   0  0  0  0  0  0  0  0  0  0  0  0
    5.1496   -0.8615   -0.9109 C   0  0  0  0  0  0  0  0  0  0  0  0
    5.8222   -1.4380   -1.5688 H   0  0  0  0  0  0  0  0  0  0  0  0
    3.7916   -1.1505   -1.0737 C   0  0  0  0  0  0  0  0  0  0  0  0
    3.5753   -1.9406   -1.8067 H   0  0  0  0  0  0  0  0  0  0  0  0
    2.6496   -0.6212   -0.4011 C   0  0  0  0  0  0  0  0  0  0  0  0
    1.1303   -2.1875   -1.4949 C   0  0  0  0  0  0  0  0  0  0  0  0
    0.0390   -2.1467   -1.6854 H   0  0  0  0  0  0  0  0  0  0  0  0
    1.6142   -1.9197   -2.4623 H   0  0  0  0  0  0  0  0  0  0  0  0
    1.5190   -3.6296   -1.1265 C   0  0  0  0  0  0  0  0  0  0  0  0
    2.6119   -3.6952   -0.9466 H   0  0  0  0  0  0  0  0  0  0  0  0
    1.3131   -4.2550   -2.0237 H   0  0  0  0  0  0  0  0  0  0  0  0
    0.7681   -4.1982    0.0812 C   0  0  0  0  0  0  0  0  0  0  0  0
    1.1336   -5.2265    0.2827 H   0  0  0  0  0  0  0  0  0  0  0  0
    1.0604   -3.6052    0.9739 H   0  0  0  0  0  0  0  0  0  0  0  0
   -0.7678   -4.1985   -0.0779 C   0  0  0  0  0  0  0  0  0  0  0  0
   -1.0602   -3.6065   -0.9713 H   0  0  0  0  0  0  0  0  0  0  0  0
   -1.1329   -5.2271   -0.2783 H   0  0  0  0  0  0  0  0  0  0  0  0
   -1.5189   -3.6288    1.1291 C   0  0  0  0  0  0  0  0  0  0  0  0
   -1.3129   -4.2531    2.0271 H   0  0  0  0  0  0  0  0  0  0  0  0
   -2.6118   -3.6951    0.9492 H   0  0  0  0  0  0  0  0  0  0  0  0
   -1.1308   -2.1862    1.4959 C   0  0  0  0  0  0  0  0  0  0  0  0
   -0.0395   -2.1449    1.6867 H   0  0  0  0  0  0  0  0  0  0  0  0
   -1.6150   -1.9172    2.4628 H   0  0  0  0  0  0  0  0  0  0  0  0
  1 62  1  0  0  0  0
  2 16  1  0  0  0  0
  3 32  1  0  0  0  0
  4 46  1  0  0  0  0
  5  1  1  0  0  0  0
  5  6  1  0  0  0  0
  6  7  1  0  0  0  0
  8  6  1  0  0  0  0
  8  9  1  0  0  0  0
 10  8  2  0  0  0  0
 11 10  1  0  0  0  0
 12 10  1  0  0  0  0
 13 12  1  0  0  0  0
 14 12  2  0  0  0  0
 14 16  1  0  0  0  0
 15 14  1  0  0  0  0
 16  5  2  0  0  0  0
 17 20  1  0  0  0  0
 17  2  1  0  0  0  0
 18 17  1  0  0  0  0
 19 17  1  0  0  0  0
 20 21  1  0  0  0  0
 20 23  1  0  0  0  0
 22 20  1  0  0  0  0
 23 24  1  0  0  0  0
 23 25  1  0  0  0  0
 26 23  1  0  0  0  0
 26 29  1  0  0  0  0
 27 26  1  0  0  0  0
 28 26  1  0  0  0  0
 29 32  1  0  0  0  0
 29 31  1  0  0  0  0
 30 29  1  0  0  0  0
 32 33  1  0  0  0  0
 32 34  1  0  0  0  0
 35  3  1  0  0  0  0
 35 36  1  0  0  0  0
 36 37  1  0  0  0  0
 38 36  1  0  0  0  0
 38 39  1  0  0  0  0
 40 38  2  0  0  0  0
 41 40  1  0  0  0  0
 42 40  1  0  0  0  0
 43 42  1  0  0  0  0
 44 42  2  0  0  0  0
 44 46  1  0  0  0  0
 45 44  1  0  0  0  0
 46 35  2  0  0  0  0
 47 50  1  0  0  0  0
 47  4  1  0  0  0  0
 48 47  1  0  0  0  0
 49 47  1  0  0  0  0
 50 51  1  0  0  0  0
 50 53  1  0  0  0  0
 52 50  1  0  0  0  0
 53 54  1  0  0  0  0
 53 55  1  0  0  0  0
 56 53  1  0  0  0  0
 56 59  1  0  0  0  0
 57 56  1  0  0  0  0
 58 56  1  0  0  0  0
 59 62  1  0  0  0  0
 59 60  1  0  0  0  0
 61 59  1  0  0  0  0
 62 63  1  0  0  0  0
 62 64  1  0  0  0  0
M  END
