1,2,3,4
 OpenBabel05122313063D

 46 48  0  0  1  0  0  0  0  0999 V2000
   -1.4116    1.2343    0.2760 N   0  0  0  0  0  2  0  0  0  0  0  0
   -1.4118   -1.2342    0.2767 N   0  0  0  0  0  2  0  0  0  0  0  0
    1.4118    1.2342    0.2765 N   0  0  0  0  0  2  0  0  0  0  0  0
    1.4116   -1.2343    0.2762 N   0  0  0  0  0  2  0  0  0  0  0  0
   -1.2670    2.6606    0.4871 C   0  0  0  0  0  0  0  0  0  0  0  0
   -0.0001    2.9982    1.2581 C   0  0  0  0  0  0  0  0  0  0  0  0
   -0.0001    4.0847    1.4831 H   0  0  0  0  0  0  0  0  0  0  0  0
   -0.0007    2.4610    2.2306 H   0  0  0  0  0  0  0  0  0  0  0  0
    1.2677    2.6603    0.4885 C   0  0  0  0  0  0  0  0  0  0  0  0
   -1.2677   -2.6604    0.4887 C   0  0  0  0  0  0  0  0  0  0  0  0
    0.0001   -2.9983    1.2582 C   0  0  0  0  0  0  0  0  0  0  0  0
    1.2670   -2.6606    0.4872 C   0  0  0  0  0  0  0  0  0  0  0  0
   -2.6016    0.7380   -0.1099 C   0  0  0  0  0  0  0  0  0  0  0  0
   -3.7094    1.5716   -0.4423 C   0  0  0  0  0  0  0  0  0  0  0  0
   -5.0088    1.2515   -0.8494 C   0  0  0  0  0  0  0  0  0  0  0  0
   -5.6150    0.0002   -1.0398 C   0  0  0  0  0  0  0  0  0  0  0  0
   -5.0094   -1.2511   -0.8479 C   0  0  0  0  0  0  0  0  0  0  0  0
   -3.7101   -1.5713   -0.4406 C   0  0  0  0  0  0  0  0  0  0  0  0
   -2.6018   -0.7379   -0.1093 C   0  0  2  0  0  3  0  0  0  0  0  0
    2.6018    0.7378   -0.1093 C   0  0  0  0  0  0  0  0  0  0  0  0
    3.7101    1.5714   -0.4403 C   0  0  0  0  0  0  0  0  0  0  0  0
    5.0094    1.2512   -0.8476 C   0  0  0  0  0  0  0  0  0  0  0  0
    5.6150   -0.0001   -1.0398 C   0  0  0  0  0  0  0  0  0  0  0  0
    5.0088   -1.2514   -0.8497 C   0  0  0  0  0  0  0  0  0  0  0  0
    3.7094   -1.5716   -0.4426 C   0  0  0  0  0  0  0  0  0  0  0  0
    2.6016   -0.7381   -0.1099 C   0  0  1  0  0  3  0  0  0  0  0  0
   -2.1439    3.0417    1.0580 H   0  0  0  0  0  0  0  0  0  0  0  0
   -1.2640    3.2101   -0.4868 H   0  0  0  0  0  0  0  0  0  0  0  0
    2.1440    3.0407    1.0607 H   0  0  0  0  0  0  0  0  0  0  0  0
    1.2661    3.2105   -0.4851 H   0  0  0  0  0  0  0  0  0  0  0  0
   -2.1440   -3.0408    1.0609 H   0  0  0  0  0  0  0  0  0  0  0  0
   -1.2661   -3.2105   -0.4850 H   0  0  0  0  0  0  0  0  0  0  0  0
    0.0007   -2.4611    2.2307 H   0  0  0  0  0  0  0  0  0  0  0  0
    0.0001   -4.0848    1.4831 H   0  0  0  0  0  0  0  0  0  0  0  0
    2.1438   -3.0419    1.0580 H   0  0  0  0  0  0  0  0  0  0  0  0
    1.2639   -3.2100   -0.4868 H   0  0  0  0  0  0  0  0  0  0  0  0
    3.5096    2.6496   -0.3872 H   0  0  0  0  0  0  0  0  0  0  0  0
    5.6510    2.1251   -1.0524 H   0  0  0  0  0  0  0  0  0  0  0  0
    6.6643   -0.0001   -1.3728 H   0  0  0  0  0  0  0  0  0  0  0  0
    5.6499   -2.1253   -1.0561 H   0  0  0  0  0  0  0  0  0  0  0  0
    3.5084   -2.6499   -0.3912 H   0  0  0  0  0  0  0  0  0  0  0  0
   -3.5084    2.6499   -0.3907 H   0  0  0  0  0  0  0  0  0  0  0  0
   -5.6500    2.1254   -1.0556 H   0  0  0  0  0  0  0  0  0  0  0  0
   -6.6643    0.0003   -1.3729 H   0  0  0  0  0  0  0  0  0  0  0  0
   -5.6509   -2.1250   -1.0530 H   0  0  0  0  0  0  0  0  0  0  0  0
   -3.5096   -2.6496   -0.3876 H   0  0  0  0  0  0  0  0  0  0  0  0
  1  5  1  0  0  0  0
  2 10  1  0  0  0  0
  3  9  1  0  0  0  0
  4 12  1  0  0  0  0
  5 27  1  0  0  0  0
  5  6  1  0  0  0  0
  6  7  1  0  0  0  0
  6  8  1  0  0  0  0
  9 29  1  0  0  0  0
  9  6  1  0  0  0  0
 10 31  1  0  0  0  0
 10 11  1  0  0  0  0
 11 34  1  0  0  0  0
 11 33  1  0  0  0  0
 12 35  1  0  0  0  0
 12 11  1  0  0  0  0
 13 19  1  0  0  0  0
 13  1  1  0  0  0  0
 14 42  1  0  0  0  0
 14 13  2  0  0  0  0
 15 14  1  0  0  0  0
 16 15  2  0  0  0  0
 16 17  1  0  0  0  0
 17 18  2  0  0  0  0
 18 46  1  0  0  0  0
 19 18  1  1  0  0  0
 19  2  1  0  0  0  0
 20  3  1  0  0  0  0
 21 37  1  0  0  0  0
 21 20  2  0  0  0  0
 22 21  1  0  0  0  0
 23 24  1  0  0  0  0
 23 22  2  0  0  0  0
 24 25  2  0  0  0  0
 25 41  1  0  0  0  0
 26 25  1  1  0  0  0
 26 20  1  0  0  0  0
 26  4  1  0  0  0  0
 28  5  1  0  0  0  0
 30  9  1  0  0  0  0
 32 10  1  0  0  0  0
 36 12  1  0  0  0  0
 38 22  1  0  0  0  0
 39 23  1  0  0  0  0
 40 24  1  0  0  0  0
 43 15  1  0  0  0  0
 44 16  1  0  0  0  0
 45 17  1  0  0  0  0
M  END
