1,2,3,4
 OpenBabel05122313063D

 28 27  0  0  0  0  0  0  0  0999 V2000
   -1.3792    0.1389   -0.7268 N   0  0  0  0  0  0  0  0  0  0  0  0
    0.2485   -1.9446   -0.0317 N   0  0  0  0  0  0  0  0  0  0  0  0
   -0.8387   -0.0419    1.9642 N   0  0  0  0  0  0  0  0  0  0  0  0
    0.4407    1.9575    0.2276 N   0  0  0  0  0  0  0  0  0  0  0  0
   -0.9272   -2.2764   -0.8828 C   0  0  0  0  0  0  0  0  0  0  0  0
   -1.3074   -1.0202   -1.6603 C   0  0  0  0  0  0  0  0  0  0  0  0
   -2.1766   -0.5361    1.5608 C   0  0  0  0  0  0  0  0  0  0  0  0
   -2.5480    0.0891    0.2109 C   0  0  0  0  0  0  0  0  0  0  0  0
   -0.7741    2.5016   -0.4273 C   0  0  0  0  0  0  0  0  0  0  0  0
   -1.2700    1.4558   -1.4216 C   0  0  0  0  0  0  0  0  0  0  0  0
   -0.7047   -3.1079   -1.5832 H   0  0  0  0  0  0  0  0  0  0  0  0
   -1.7589   -2.6225   -0.2397 H   0  0  0  0  0  0  0  0  0  0  0  0
   -2.2616   -1.1593   -2.2146 H   0  0  0  0  0  0  0  0  0  0  0  0
   -0.5090   -0.7892   -2.3929 H   0  0  0  0  0  0  0  0  0  0  0  0
   -2.9618   -0.3066    2.3121 H   0  0  0  0  0  0  0  0  0  0  0  0
   -2.1207   -1.6379    1.4926 H   0  0  0  0  0  0  0  0  0  0  0  0
   -2.8967    1.1270    0.3765 H   0  0  0  0  0  0  0  0  0  0  0  0
   -3.3991   -0.4528   -0.2530 H   0  0  0  0  0  0  0  0  0  0  0  0
   -0.5760    3.4648   -0.9424 H   0  0  0  0  0  0  0  0  0  0  0  0
   -1.5342    2.7122    0.3525 H   0  0  0  0  0  0  0  0  0  0  0  0
   -0.5232    1.3332   -2.2307 H   0  0  0  0  0  0  0  0  0  0  0  0
   -2.2334    1.7586   -1.8873 H   0  0  0  0  0  0  0  0  0  0  0  0
    0.3635   -2.6019    0.7539 H   0  0  0  0  0  0  0  0  0  0  0  0
    1.1106   -2.0117   -0.6014 H   0  0  0  0  0  0  0  0  0  0  0  0
   -0.9119    0.8879    2.4044 H   0  0  0  0  0  0  0  0  0  0  0  0
   -0.4158   -0.6430    2.6872 H   0  0  0  0  0  0  0  0  0  0  0  0
    1.2496    2.0229   -0.4175 H   0  0  0  0  0  0  0  0  0  0  0  0
    0.7010    2.4719    1.0826 H   0  0  0  0  0  0  0  0  0  0  0  0
  1  8  1  0  0  0  0
  2 23  1  0  0  0  0
  3 25  1  0  0  0  0
  3 26  1  0  0  0  0
  4 28  1  0  0  0  0
  5 12  1  0  0  0  0
  5  2  1  0  0  0  0
  6  5  1  0  0  0  0
  6  1  1  0  0  0  0
  7  3  1  0  0  0  0
  7 15  1  0  0  0  0
  8 17  1  0  0  0  0
  8  7  1  0  0  0  0
  9  4  1  0  0  0  0
  9 20  1  0  0  0  0
 10  1  1  0  0  0  0
 10  9  1  0  0  0  0
 11  5  1  0  0  0  0
 13  6  1  0  0  0  0
 14  6  1  0  0  0  0
 16  7  1  0  0  0  0
 18  8  1  0  0  0  0
 19  9  1  0  0  0  0
 21 10  1  0  0  0  0
 22 10  1  0  0  0  0
 24  2  1  0  0  0  0
 27  4  1  0  0  0  0
M  END
