4,5,6,7
 OpenBabel05122313063D

 60 65  0  0  1  0  0  0  0  0999 V2000
    1.1606    3.2813    0.7290 O   0  0  0  0  0  0  0  0  0  0  0  0
    5.5676    2.2408   -0.5096 O   0  0  0  0  0  0  0  0  0  0  0  0
    0.6328   -3.6535   -1.1033 O   0  0  0  0  0  0  0  0  0  0  0  0
   -2.0092    1.7813   -0.0101 N   0  0  0  0  0  2  0  0  0  0  0  0
    0.5448    1.1328    0.0370 N   0  0  0  0  0  2  0  0  0  0  0  0
    0.3670   -1.4430   -0.3806 N   0  0  0  0  0  2  0  0  0  0  0  0
   -2.2221   -1.7858   -0.0048 N   0  0  0  0  0  2  0  0  0  0  0  0
   -3.3012    2.1168   -0.3419 C   0  0  0  0  0  0  0  0  0  0  0  0
   -4.1414    1.1729   -0.9932 C   0  0  0  0  0  0  0  0  0  0  0  0
   -3.7187    0.1926   -1.2510 H   0  0  0  0  0  0  0  0  0  0  0  0
   -5.4466    1.5077   -1.3217 C   0  0  0  0  0  0  0  0  0  0  0  0
   -6.0826    0.7714   -1.8351 H   0  0  0  0  0  0  0  0  0  0  0  0
   -5.9675    2.7914   -1.0073 C   0  0  0  0  0  0  0  0  0  0  0  0
   -7.0086    3.0362   -1.2648 H   0  0  0  0  0  0  0  0  0  0  0  0
   -5.1582    3.7418   -0.4027 C   0  0  0  0  0  3  0  0  0  0  0  0
   -5.5409    4.7507   -0.1850 H   0  0  0  0  0  0  0  0  0  0  0  0
   -3.8047    3.4421   -0.0754 C   0  0  0  0  0  0  0  0  0  0  0  0
   -2.9078    4.4045    0.4696 C   0  0  0  0  0  0  0  0  0  0  0  0
   -3.2766    5.4171    0.6957 H   0  0  0  0  0  0  0  0  0  0  0  0
   -1.5793    4.0684    0.6576 C   0  0  0  0  0  0  0  0  0  0  0  0
   -0.8083    4.7739    0.9996 H   0  0  0  0  0  0  0  0  0  0  0  0
   -1.1560    2.7453    0.3879 C   0  0  0  0  0  0  0  0  0  0  0  0
    0.3250    2.4197    0.4340 C   0  0  0  0  0  0  0  0  0  0  0  0
    1.7765    0.4734   -0.1274 C   0  0  0  0  0  0  0  0  0  0  0  0
    3.0365    1.0852   -0.0810 C   0  0  0  0  0  0  0  0  0  0  0  0
    3.1214    2.1638    0.0979 H   0  0  0  0  0  0  0  0  0  0  0  0
    4.2048    0.3107   -0.2608 C   0  0  0  0  0  0  0  0  0  0  0  0
    4.0925   -1.0722   -0.5314 C   0  0  0  0  0  0  0  0  0  0  0  0
    4.9954   -1.6678   -0.7270 H   0  0  0  0  0  0  0  0  0  0  0  0
    2.8406   -1.6967   -0.5992 C   0  0  0  0  0  0  0  0  0  0  0  0
    2.7387   -2.7646   -0.8262 H   0  0  0  0  0  0  0  0  0  0  0  0
    1.6736   -0.9370   -0.3804 C   0  0  0  0  0  0  0  0  0  0  0  0
    5.5141    1.0370   -0.2519 C   0  0  0  0  0  0  0  0  0  0  0  0
    6.7830    0.2925    0.0743 C   0  0  0  0  0  0  0  0  0  0  0  0
    7.9881    0.7808   -0.4751 C   0  0  0  0  0  0  0  0  0  0  0  0
    7.9336    1.6542   -1.1418 H   0  0  0  0  0  0  0  0  0  0  0  0
    9.2091    0.1702   -0.1688 C   0  0  0  0  0  0  0  0  0  0  0  0
   10.1411    0.5487   -0.6160 H   0  0  0  0  0  0  0  0  0  0  0  0
    9.2468   -0.9211    0.7173 C   0  0  0  0  0  0  0  0  0  0  0  0
   10.2077   -1.3979    0.9649 H   0  0  0  0  0  0  0  0  0  0  0  0
    8.0583   -1.3942    1.2949 C   0  0  0  0  0  0  0  0  0  0  0  0
    8.0868   -2.2337    2.0063 H   0  0  0  0  0  0  0  0  0  0  0  0
    6.8309   -0.7957    0.9718 C   0  0  0  0  0  0  0  0  0  0  0  0
    5.9045   -1.1576    1.4412 H   0  0  0  0  0  0  0  0  0  0  0  0
   -3.4948   -1.9664    0.4844 C   0  0  2  0  0  3  0  0  0  0  0  0
   -4.1317   -0.9302    1.2205 C   0  0  0  0  0  0  0  0  0  0  0  0
   -3.5675   -0.0079    1.4129 H   0  0  0  0  0  0  0  0  0  0  0  0
   -5.4177   -1.1075    1.7084 C   0  0  0  0  0  0  0  0  0  0  0  0
   -5.8948   -0.3014    2.2853 H   0  0  0  0  0  0  0  0  0  0  0  0
   -6.1217   -2.3193    1.4751 C   0  0  0  0  0  0  0  0  0  0  0  0
   -7.1456   -2.4383    1.8593 H   0  0  0  0  0  0  0  0  0  0  0  0
   -5.5106   -3.3585    0.7894 C   0  0  0  0  0  0  0  0  0  0  0  0
   -6.0341   -4.3139    0.6321 H   0  0  0  0  0  0  0  0  0  0  0  0
   -4.1807   -3.2218    0.2977 C   0  0  0  0  0  0  0  0  0  0  0  0
   -3.4771   -4.2832   -0.3391 C   0  0  0  0  0  0  0  0  0  0  0  0
   -3.9879   -5.2441   -0.5066 H   0  0  0  0  0  0  0  0  0  0  0  0
   -2.1507   -4.1071   -0.6901 C   0  0  0  0  0  0  0  0  0  0  0  0
   -1.5174   -4.8994   -1.1145 H   0  0  0  0  0  0  0  0  0  0  0  0
   -1.5441   -2.8443   -0.4907 C   0  0  0  0  0  0  0  0  0  0  0  0
   -0.0527   -2.6969   -0.7227 C   0  0  0  0  0  0  0  0  0  0  0  0
  2 33  2  0  0  0  0
  3 60  2  0  0  0  0
  4 22  1  0  0  0  0
  5 23  1  0  0  0  0
  6 32  1  0  0  0  0
  8 17  1  0  0  0  0
  8  4  1  0  0  0  0
  9  8  2  0  0  0  0
 10  9  1  0  0  0  0
 11 13  2  0  0  0  0
 11  9  1  0  0  0  0
 12 11  1  0  0  0  0
 13 15  1  0  0  0  0
 14 13  1  0  0  0  0
 15 16  1  0  0  0  0
 15 17  1  0  0  0  0
 17 18  2  0  0  0  0
 18 20  1  0  0  0  0
 18 19  1  0  0  0  0
 20 21  1  0  0  0  0
 22 23  1  0  0  0  0
 22 20  2  0  0  0  0
 23  1  2  0  0  0  0
 24 25  1  0  0  0  0
 24  5  1  0  0  0  0
 25 26  1  0  0  0  0
 27 33  1  0  0  0  0
 27 25  2  0  0  0  0
 28 27  1  0  0  0  0
 29 28  1  0  0  0  0
 30 28  2  0  0  0  0
 30 32  1  0  0  0  0
 31 30  1  0  0  0  0
 32 24  2  0  0  0  0
 33 34  1  0  0  0  0
 34 43  1  0  0  0  0
 35 37  1  0  0  0  0
 35 34  2  0  0  0  0
 36 35  1  0  0  0  0
 37 39  2  0  0  0  0
 38 37  1  0  0  0  0
 39 40  1  0  0  0  0
 39 41  1  0  0  0  0
 41 42  1  0  0  0  0
 43 41  2  0  0  0  0
 43 44  1  0  0  0  0
 45  7  1  1  0  0  0
 45 46  1  0  0  0  0
 46 47  1  0  0  0  0
 46 48  2  0  0  0  0
 48 49  1  0  0  0  0
 50 48  1  0  0  0  0
 50 51  1  0  0  0  0
 52 50  2  0  0  0  0
 53 52  1  0  0  0  0
 54 45  1  0  0  0  0
 54 52  1  0  0  0  0
 55 54  2  0  0  0  0
 56 55  1  0  0  0  0
 57 59  2  0  0  0  0
 57 55  1  0  0  0  0
 58 57  1  0  0  0  0
 59  7  1  0  0  0  0
 60 59  1  0  0  0  0
 60  6  1  0  0  0  0
M  END
