2,3,26,27
 OpenBabel05122313063D

 48 52  0  0  1  0  0  0  0  0999 V2000
    2.4449   -3.5008    0.8336 O   0  0  0  0  0  0  0  0  0  0  0  0
   -0.5789   -1.7861   -0.0443 N   0  0  0  0  0  2  0  0  0  0  0  0
    2.0021   -1.2964    0.1818 N   0  0  0  0  0  2  0  0  0  0  0  0
   -1.8652   -2.0344   -0.4630 C   0  0  0  0  0  0  0  0  0  0  0  0
   -2.6070   -1.0237   -1.1336 C   0  0  0  0  0  0  0  0  0  0  0  0
   -2.1125   -0.0638   -1.3341 H   0  0  0  0  0  0  0  0  0  0  0  0
   -3.9068   -1.2696   -1.5502 C   0  0  0  0  0  0  0  0  0  0  0  0
   -4.4657   -0.4817   -2.0768 H   0  0  0  0  0  0  0  0  0  0  0  0
   -4.5207   -2.5277   -1.3082 C   0  0  0  0  0  0  0  0  0  0  0  0
   -5.5565   -2.7018   -1.6351 H   0  0  0  0  0  0  0  0  0  0  0  0
   -3.8072   -3.5417   -0.6863 C   0  0  0  0  0  3  0  0  0  0  0  0
   -4.2612   -4.5312   -0.5235 H   0  0  0  0  0  0  0  0  0  0  0  0
   -2.4614   -3.3336   -0.2691 C   0  0  0  0  0  0  0  0  0  0  0  0
   -1.6577   -4.3629    0.2989 C   0  0  0  0  0  0  0  0  0  0  0  0
   -2.0988   -5.3570    0.4713 H   0  0  0  0  0  0  0  0  0  0  0  0
   -0.3262   -4.1126    0.5766 C   0  0  0  0  0  0  0  0  0  0  0  0
    0.3793   -4.8722    0.9430 H   0  0  0  0  0  0  0  0  0  0  0  0
    0.1909   -2.8105    0.3736 C   0  0  0  0  0  0  0  0  0  0  0  0
    1.6816   -2.5776    0.5193 C   0  0  0  0  0  0  0  0  0  0  0  0
    3.2777   -0.7078    0.1116 C   0  0  0  0  0  0  0  0  0  0  0  0
    4.4986   -1.4014    0.2292 C   0  0  0  0  0  0  0  0  0  0  0  0
    4.4730   -2.4823    0.4127 H   0  0  0  0  0  0  0  0  0  0  0  0
    5.7052   -0.6930    0.1154 C   0  0  0  0  0  0  0  0  0  0  0  0
    6.6579   -1.2361    0.2085 H   0  0  0  0  0  0  0  0  0  0  0  0
    2.4449    3.5008   -0.8336 O   0  0  0  0  0  0  0  0  0  0  0  0
   -0.5789    1.7861    0.0443 N   0  0  0  0  0  2  0  0  0  0  0  0
    2.0022    1.2963   -0.1818 N   0  0  0  0  0  2  0  0  0  0  0  0
   -1.8652    2.0344    0.4630 C   0  0  1  0  0  3  0  0  0  0  0  0
   -2.6070    1.0237    1.1336 C   0  0  0  0  0  0  0  0  0  0  0  0
   -2.1125    0.0638    1.3340 H   0  0  0  0  0  0  0  0  0  0  0  0
   -3.9068    1.2696    1.5502 C   0  0  0  0  0  0  0  0  0  0  0  0
   -4.4657    0.4817    2.0768 H   0  0  0  0  0  0  0  0  0  0  0  0
   -4.5207    2.5277    1.3082 C   0  0  0  0  0  0  0  0  0  0  0  0
   -5.5565    2.7018    1.6351 H   0  0  0  0  0  0  0  0  0  0  0  0
   -3.8072    3.5417    0.6863 C   0  0  0  0  0  0  0  0  0  0  0  0
   -4.2612    4.5313    0.5235 H   0  0  0  0  0  0  0  0  0  0  0  0
   -2.4614    3.3336    0.2691 C   0  0  0  0  0  0  0  0  0  0  0  0
   -1.6577    4.3629   -0.2988 C   0  0  0  0  0  0  0  0  0  0  0  0
   -2.0987    5.3571   -0.4713 H   0  0  0  0  0  0  0  0  0  0  0  0
   -0.3262    4.1126   -0.5765 C   0  0  0  0  0  0  0  0  0  0  0  0
    0.3794    4.8722   -0.9430 H   0  0  0  0  0  0  0  0  0  0  0  0
    0.1909    2.8105   -0.3736 C   0  0  0  0  0  0  0  0  0  0  0  0
    1.6816    2.5776   -0.5193 C   0  0  0  0  0  0  0  0  0  0  0  0
    3.2777    0.7077   -0.1116 C   0  0  0  0  0  0  0  0  0  0  0  0
    4.4986    1.4013   -0.2292 C   0  0  0  0  0  0  0  0  0  0  0  0
    4.4730    2.4822   -0.4127 H   0  0  0  0  0  0  0  0  0  0  0  0
    5.7052    0.6929   -0.1154 C   0  0  0  0  0  0  0  0  0  0  0  0
    6.6579    1.2360   -0.2085 H   0  0  0  0  0  0  0  0  0  0  0  0
  2 18  1  0  0  0  0
  3 19  1  0  0  0  0
  4 13  1  0  0  0  0
  4  2  1  0  0  0  0
  5  4  2  0  0  0  0
  6  5  1  0  0  0  0
  7  9  2  0  0  0  0
  7  5  1  0  0  0  0
  8  7  1  0  0  0  0
  9 11  1  0  0  0  0
 10  9  1  0  0  0  0
 11 12  1  0  0  0  0
 11 13  1  0  0  0  0
 13 14  2  0  0  0  0
 14 15  1  0  0  0  0
 14 16  1  0  0  0  0
 16 17  1  0  0  0  0
 18 19  1  0  0  0  0
 18 16  2  0  0  0  0
 19  1  2  0  0  0  0
 20  3  1  0  0  0  0
 20 21  1  0  0  0  0
 21 22  1  0  0  0  0
 23 24  1  0  0  0  0
 23 21  2  0  0  0  0
 25 43  2  0  0  0  0
 27 44  1  0  0  0  0
 28 26  1  1  0  0  0
 28 29  1  0  0  0  0
 29 30  1  0  0  0  0
 29 31  2  0  0  0  0
 31 32  1  0  0  0  0
 33 31  1  0  0  0  0
 33 34  1  0  0  0  0
 35 33  2  0  0  0  0
 36 35  1  0  0  0  0
 37 28  1  0  0  0  0
 37 35  1  0  0  0  0
 38 37  2  0  0  0  0
 39 38  1  0  0  0  0
 40 42  2  0  0  0  0
 40 38  1  0  0  0  0
 41 40  1  0  0  0  0
 42 26  1  0  0  0  0
 43 42  1  0  0  0  0
 43 27  1  0  0  0  0
 44 20  2  0  0  0  0
 45 47  2  0  0  0  0
 45 44  1  0  0  0  0
 46 45  1  0  0  0  0
 47 23  1  0  0  0  0
 48 47  1  0  0  0  0
M  END
