12,15,18,21
 OpenBabel05122313063D

 61 62  0  0  1  0  0  0  0  0999 V2000
   -3.5386   -0.3529   -0.3161 N   0  0  0  0  0  0  0  0  0  0  0  0
   -4.2282    0.5536    0.4114 C   0  0  0  0  0  3  0  0  0  0  0  0
   -4.0891   -1.4456   -0.8932 C   0  0  0  0  0  3  0  0  0  0  0  0
   -2.0211   -0.2208   -0.2907 C   0  0  1  0  0  0  0  0  0  0  0  0
   -1.6328   -0.6938    1.1644 C   0  0  0  0  0  0  0  0  0  0  0  0
   -0.2885   -1.2155    1.3001 N   0  0  0  0  0  0  0  0  0  0  0  0
    0.3131   -1.1057    2.6269 C   0  0  0  0  0  0  0  0  0  0  0  0
    1.7851   -1.5475    2.6181 C   0  0  0  0  0  0  0  0  0  0  0  0
    2.4526   -0.9682    1.4678 N   0  0  0  0  0  0  0  0  0  0  0  0
    3.8653   -0.6400    1.5054 C   0  0  0  0  0  0  0  0  0  0  0  0
   -1.3902   -1.1180   -1.3843 C   0  0  0  0  0  0  0  0  0  0  0  0
   -0.0019   -0.7441   -1.7607 N   0  0  0  0  0  0  0  0  0  0  0  0
    0.7852   -1.9200   -2.2216 C   0  0  0  0  0  0  0  0  0  0  0  0
    2.2331   -1.4848   -2.4036 C   0  0  0  0  0  0  0  0  0  0  0  0
    2.5890   -0.7629   -1.1737 N   0  0  0  0  0  0  0  0  0  0  0  0
    3.9801   -0.3006   -1.0525 C   0  0  0  0  0  0  0  0  0  0  0  0
   -1.6531    1.2563   -0.5801 C   0  0  0  0  0  0  0  0  0  0  0  0
   -0.2990    1.5631   -0.0978 N   0  0  0  0  0  0  0  0  0  0  0  0
    0.1289    2.9737   -0.2611 C   0  0  0  0  0  0  0  0  0  0  0  0
    1.5324    3.0480    0.3247 C   0  0  0  0  0  0  0  0  0  0  0  0
    2.3342    1.9218   -0.2314 N   0  0  0  0  0  0  0  0  0  0  0  0
    3.6063    1.7064    0.5141 C   0  0  0  0  0  0  0  0  0  0  0  0
    4.2799    0.3112    0.3404 C   0  0  1  0  0  0  0  0  0  0  0  0
    5.8025    0.5209    0.4440 C   0  0  0  0  0  0  0  0  0  0  0  0
   -3.7029    1.1513    1.1621 H   0  0  0  0  0  0  0  0  0  0  0  0
   -5.3168    0.4322    0.4653 H   0  0  0  0  0  0  0  0  0  0  0  0
   -3.5876   -1.9496   -1.7210 H   0  0  0  0  0  0  0  0  0  0  0  0
   -5.1654   -1.5928   -0.7419 H   0  0  0  0  0  0  0  0  0  0  0  0
   -2.4192   -1.4222    1.4701 H   0  0  0  0  0  0  0  0  0  0  0  0
   -1.7458    0.1699    1.8549 H   0  0  0  0  0  0  0  0  0  0  0  0
   -0.2567   -2.1920    0.9841 H   0  0  0  0  0  0  0  0  0  0  0  0
   -0.2324   -1.6695    3.4237 H   0  0  0  0  0  0  0  0  0  0  0  0
    0.2687   -0.0315    2.9231 H   0  0  0  0  0  0  0  0  0  0  0  0
    1.8512   -2.6609    2.5925 H   0  0  0  0  0  0  0  0  0  0  0  0
    2.2428   -1.2359    3.5891 H   0  0  0  0  0  0  0  0  0  0  0  0
    1.8935   -0.1589    1.1040 H   0  0  0  0  0  0  0  0  0  0  0  0
    4.4740   -1.5713    1.4433 H   0  0  0  0  0  0  0  0  0  0  0  0
    4.1694   -0.1418    2.4637 H   0  0  0  0  0  0  0  0  0  0  0  0
   -2.0260   -1.0617   -2.2919 H   0  0  0  0  0  0  0  0  0  0  0  0
   -1.3909   -2.1714   -1.0506 H   0  0  0  0  0  0  0  0  0  0  0  0
   -0.0541   -0.0844   -2.5632 H   0  0  0  0  0  0  0  0  0  0  0  0
    0.3667   -2.3678   -3.1497 H   0  0  0  0  0  0  0  0  0  0  0  0
    0.7262   -2.6912   -1.4247 H   0  0  0  0  0  0  0  0  0  0  0  0
    2.3432   -0.8035   -3.2738 H   0  0  0  0  0  0  0  0  0  0  0  0
    2.8859   -2.3704   -2.5846 H   0  0  0  0  0  0  0  0  0  0  0  0
    2.4318   -1.3822   -0.3337 H   0  0  0  0  0  0  0  0  0  0  0  0
    4.1913    0.4479   -1.8489 H   0  0  0  0  0  0  0  0  0  0  0  0
    4.6803   -1.1512   -1.2222 H   0  0  0  0  0  0  0  0  0  0  0  0
   -2.3957    1.9300   -0.1124 H   0  0  0  0  0  0  0  0  0  0  0  0
   -1.6934    1.4507   -1.6730 H   0  0  0  0  0  0  0  0  0  0  0  0
   -0.2991    1.3782    0.9217 H   0  0  0  0  0  0  0  0  0  0  0  0
   -0.5618    3.6840    0.2481 H   0  0  0  0  0  0  0  0  0  0  0  0
    0.1279    3.2121   -1.3433 H   0  0  0  0  0  0  0  0  0  0  0  0
    1.4834    2.9096    1.4262 H   0  0  0  0  0  0  0  0  0  0  0  0
    2.0076    4.0362    0.1406 H   0  0  0  0  0  0  0  0  0  0  0  0
    2.5831    2.1814   -1.2045 H   0  0  0  0  0  0  0  0  0  0  0  0
    3.3939    1.8630    1.5917 H   0  0  0  0  0  0  0  0  0  0  0  0
    4.3277    2.5014    0.2196 H   0  0  0  0  0  0  0  0  0  0  0  0
    6.1790    1.1430   -0.3927 H   0  0  0  0  0  0  0  0  0  0  0  0
    6.3421   -0.4465    0.4207 H   0  0  0  0  0  0  0  0  0  0  0  0
    6.0689    1.0315    1.3911 H   0  0  0  0  0  0  0  0  0  0  0  0
  1  2  1  0  0  0  0
  2 26  1  0  0  0  0
  2 25  1  0  0  0  0
  3 28  1  0  0  0  0
  3  1  1  0  0  0  0
  4  1  1  6  0  0  0
  4  5  1  0  0  0  0
  5  6  1  0  0  0  0
  5 29  1  0  0  0  0
  5 30  1  0  0  0  0
  6  7  1  0  0  0  0
  7 33  1  0  0  0  0
  7 32  1  0  0  0  0
  8  7  1  0  0  0  0
  8 35  1  0  0  0  0
  9 10  1  0  0  0  0
  9  8  1  0  0  0  0
 10 38  1  0  0  0  0
 11 40  1  0  0  0  0
 11  4  1  0  0  0  0
 12 11  1  0  0  0  0
 13 12  1  0  0  0  0
 13 43  1  0  0  0  0
 14 13  1  0  0  0  0
 14 15  1  0  0  0  0
 15 16  1  0  0  0  0
 15 46  1  0  0  0  0
 16 23  1  0  0  0  0
 17  4  1  0  0  0  0
 17 49  1  0  0  0  0
 17 18  1  0  0  0  0
 18 51  1  0  0  0  0
 19 18  1  0  0  0  0
 19 52  1  0  0  0  0
 19 20  1  0  0  0  0
 20 54  1  0  0  0  0
 21 20  1  0  0  0  0
 21 22  1  0  0  0  0
 22 57  1  0  0  0  0
 23 24  1  1  0  0  0
 23 22  1  0  0  0  0
 23 10  1  0  0  0  0
 24 61  1  0  0  0  0
 27  3  1  0  0  0  0
 31  6  1  0  0  0  0
 34  8  1  0  0  0  0
 36  9  1  0  0  0  0
 37 10  1  0  0  0  0
 39 11  1  0  0  0  0
 41 12  1  0  0  0  0
 42 13  1  0  0  0  0
 44 14  1  0  0  0  0
 45 14  1  0  0  0  0
 47 16  1  0  0  0  0
 48 16  1  0  0  0  0
 50 17  1  0  0  0  0
 53 19  1  0  0  0  0
 55 20  1  0  0  0  0
 56 21  1  0  0  0  0
 58 22  1  0  0  0  0
 59 24  1  0  0  0  0
 60 24  1  0  0  0  0
M  END
