21,22,44,45
 OpenBabel05122313063D

 46 48  0  0  1  0  0  0  0  0999 V2000
   -3.1037   -0.7009    1.4348 C   0  0  0  0  0  3  0  0  0  0  0  0
   -2.5163   -1.3256    2.1328 H   0  0  0  0  0  0  0  0  0  0  0  0
   -4.4844   -0.5075    1.5794 C   0  0  0  0  0  0  0  0  0  0  0  0
   -5.0245   -0.9871    2.4084 H   0  0  0  0  0  0  0  0  0  0  0  0
   -5.1446    0.3085    0.6491 C   0  0  0  0  0  0  0  0  0  0  0  0
   -6.2271    0.4905    0.7308 H   0  0  0  0  0  0  0  0  0  0  0  0
   -4.4047    0.8951   -0.3862 C   0  0  0  0  0  0  0  0  0  0  0  0
   -4.8868    1.5446   -1.1325 H   0  0  0  0  0  0  0  0  0  0  0  0
   -3.0238    0.6417   -0.4681 C   0  0  0  0  0  0  0  0  0  0  0  0
   -2.1817    1.1808   -1.6066 C   0  0  0  0  0  0  0  0  0  0  0  0
   -2.7164    2.0345   -2.0850 H   0  0  0  0  0  0  0  0  0  0  0  0
   -2.0958    0.3687   -2.3668 H   0  0  0  0  0  0  0  0  0  0  0  0
   -0.6697    2.7154   -0.3874 C   0  0  1  0  0  0  0  0  0  0  0  0
   -1.4857    2.6966    0.3722 H   0  0  0  0  0  0  0  0  0  0  0  0
   -0.8088    4.0035   -1.2222 C   0  0  0  0  0  0  0  0  0  0  0  0
   -0.0211    3.9890   -2.0101 H   0  0  0  0  0  0  0  0  0  0  0  0
   -1.7829    3.9979   -1.7537 H   0  0  0  0  0  0  0  0  0  0  0  0
   -0.6653    5.2755   -0.3812 C   0  0  0  0  0  0  0  0  0  0  0  0
   -1.5063    5.3318    0.3456 H   0  0  0  0  0  0  0  0  0  0  0  0
   -0.7503    6.1743   -1.0263 H   0  0  0  0  0  0  0  0  0  0  0  0
   -2.4011   -0.1375    0.4374 N   0  0  0  0  0  2  0  0  0  0  0  0
   -0.8215    1.4950   -1.1851 N   0  0  0  0  0  0  0  0  0  0  0  0
   -0.1923    1.4936   -1.9979 H   0  0  0  0  0  0  0  0  0  0  0  0
    3.1039   -0.7000   -1.4348 C   0  0  0  0  0  3  0  0  0  0  0  0
    2.5167   -1.3249   -2.1327 H   0  0  0  0  0  0  0  0  0  0  0  0
    4.4846   -0.5061   -1.5794 C   0  0  0  0  0  0  0  0  0  0  0  0
    5.0248   -0.9856   -2.4083 H   0  0  0  0  0  0  0  0  0  0  0  0
    5.1444    0.3102   -0.6492 C   0  0  0  0  0  0  0  0  0  0  0  0
    6.2269    0.4925   -0.7309 H   0  0  0  0  0  0  0  0  0  0  0  0
    4.4044    0.8967    0.3860 C   0  0  0  0  0  0  0  0  0  0  0  0
    4.8862    1.5465    1.1322 H   0  0  0  0  0  0  0  0  0  0  0  0
    3.0236    0.6428    0.4679 C   0  0  0  0  0  0  0  0  0  0  0  0
    2.1813    1.1818    1.6063 C   0  0  0  0  0  0  0  0  0  0  0  0
    2.7156    2.0358    2.0846 H   0  0  0  0  0  0  0  0  0  0  0  0
    2.0957    0.3698    2.3667 H   0  0  0  0  0  0  0  0  0  0  0  0
    0.6687    2.7157    0.3870 C   0  0  1  0  0  0  0  0  0  0  0  0
    1.4846    2.6972   -0.3726 H   0  0  0  0  0  0  0  0  0  0  0  0
    0.8072    4.0040    1.2216 C   0  0  0  0  0  0  0  0  0  0  0  0
    0.0195    3.9892    2.0096 H   0  0  0  0  0  0  0  0  0  0  0  0
    1.7814    3.9987    1.7532 H   0  0  0  0  0  0  0  0  0  0  0  0
    0.6633    5.2758    0.3806 C   0  0  0  0  0  0  0  0  0  0  0  0
    1.5042    5.3323   -0.3462 H   0  0  0  0  0  0  0  0  0  0  0  0
    0.7479    6.1746    1.0256 H   0  0  0  0  0  0  0  0  0  0  0  0
    2.4011   -0.1367   -0.4374 N   0  0  0  0  0  2  0  0  0  0  0  0
    0.8209    1.4954    1.1848 N   0  0  0  0  0  0  0  0  0  0  0  0
    0.1917    1.4939    1.9976 H   0  0  0  0  0  0  0  0  0  0  0  0
  1  3  1  0  0  0  0
  1  2  1  0  0  0  0
  3  4  1  0  0  0  0
  5  6  1  0  0  0  0
  5  3  2  0  0  0  0
  7  5  1  0  0  0  0
  8  7  1  0  0  0  0
  9  7  2  0  0  0  0
  9 21  1  0  0  0  0
 10 22  1  0  0  0  0
 10  9  1  0  0  0  0
 11 10  1  0  0  0  0
 12 10  1  0  0  0  0
 13 14  1  1  0  0  0
 13 36  1  0  0  0  0
 15 13  1  0  0  0  0
 15 18  1  0  0  0  0
 16 15  1  0  0  0  0
 17 15  1  0  0  0  0
 18 19  1  0  0  0  0
 18 41  1  0  0  0  0
 20 18  1  0  0  0  0
 21  1  1  0  0  0  0
 22 13  1  0  0  0  0
 23 22  1  0  0  0  0
 24 44  1  0  0  0  0
 25 24  1  0  0  0  0
 26 24  1  0  0  0  0
 26 28  2  0  0  0  0
 27 26  1  0  0  0  0
 28 30  1  0  0  0  0
 29 28  1  0  0  0  0
 30 32  2  0  0  0  0
 30 31  1  0  0  0  0
 32 33  1  0  0  0  0
 33 34  1  0  0  0  0
 33 35  1  0  0  0  0
 36 37  1  6  0  0  0
 36 45  1  0  0  0  0
 36 38  1  0  0  0  0
 38 40  1  0  0  0  0
 38 39  1  0  0  0  0
 41 43  1  0  0  0  0
 41 38  1  0  0  0  0
 42 41  1  0  0  0  0
 44 32  1  0  0  0  0
 45 33  1  0  0  0  0
 45 46  1  0  0  0  0
M  END
