3,5,6,8
 OpenBabel05122313063D

 29 30  0  0  1  0  0  0  0  0999 V2000
   -3.2506   -2.1431   -0.0001 S   0  0  0  0  0  0  0  0  0  0  0  0
    3.3308   -2.0583   -0.0001 S   0  0  0  0  0  0  0  0  0  0  0  0
   -1.3636    2.0624    0.0001 N   0  0  0  0  0  2  0  0  0  0  0  0
   -3.2223    0.6280   -0.0000 N   0  0  0  0  0  0  0  0  0  0  0  0
   -1.2020   -0.5983    0.0001 N   0  0  0  0  0  2  0  0  0  0  0  0
    1.2456   -0.5609    0.0002 N   0  0  0  0  0  2  0  0  0  0  0  0
    3.3091    0.6626   -0.0000 N   0  0  0  0  0  0  0  0  0  0  0  0
    1.3730    2.0549   -0.0001 N   0  0  0  0  0  2  0  0  0  0  0  0
   -3.6467    3.0252   -0.0001 C   0  0  0  0  0  0  0  0  0  0  0  0
   -3.1281    4.0005    0.0002 H   0  0  0  0  0  0  0  0  0  0  0  0
   -4.2987    2.9799    0.8968 H   0  0  0  0  0  0  0  0  0  0  0  0
   -4.2980    2.9802   -0.8976 H   0  0  0  0  0  0  0  0  0  0  0  0
   -2.6613    1.8921    0.0000 C   0  0  1  0  0  3  0  0  0  0  0  0
   -2.5225   -0.5600    0.0000 C   0  0  1  0  0  3  0  0  0  0  0  0
   -1.6635   -2.8672   -0.0000 C   0  0  0  0  0  0  0  0  0  0  0  0
   -0.6836   -1.8991    0.0001 C   0  0  0  0  0  0  0  0  0  0  0  0
    0.7698   -1.8727    0.0001 C   0  0  0  0  0  0  0  0  0  0  0  0
    1.7674   -2.8195   -0.0001 C   0  0  0  0  0  0  0  0  0  0  0  0
    2.5867   -0.4443    0.0000 C   0  0  1  0  0  3  0  0  0  0  0  0
    2.6974    1.8574   -0.0000 C   0  0  0  0  0  0  0  0  0  0  0  0
    3.6142    3.0549   -0.0001 C   0  0  0  0  0  0  0  0  0  0  0  0
    3.0714    4.0186    0.0004 H   0  0  0  0  0  0  0  0  0  0  0  0
    4.2746    3.0089   -0.8887 H   0  0  0  0  0  0  0  0  0  0  0  0
    4.2753    3.0084    0.8880 H   0  0  0  0  0  0  0  0  0  0  0  0
   -1.1204    3.0611    0.0001 H   0  0  0  0  0  0  0  0  0  0  0  0
   -4.2426    0.5753   -0.0000 H   0  0  0  0  0  0  0  0  0  0  0  0
   -1.5605   -3.9579   -0.0001 H   0  0  0  0  0  0  0  0  0  0  0  0
    1.1319    3.0530   -0.0000 H   0  0  0  0  0  0  0  0  0  0  0  0
    1.6687   -3.9108   -0.0001 H   0  0  0  0  0  0  0  0  0  0  0  0
  1 15  1  0  0  0  0
  1 14  1  0  0  0  0
  2 18  1  0  0  0  0
  2 19  1  0  0  0  0
  3 25  1  0  0  0  0
  4 26  1  0  0  0  0
  4 13  1  0  0  0  0
  8 20  1  0  0  0  0
  8 28  1  0  0  0  0
  9 13  1  0  0  0  0
  9 10  1  0  0  0  0
  9 11  1  0  0  0  0
 12  9  1  0  0  0  0
 13  3  1  1  0  0  0
 14  4  1  1  0  0  0
 14  5  1  0  0  0  0
 15 16  2  0  0  0  0
 16  5  1  0  0  0  0
 17 16  1  0  0  0  0
 17  6  1  0  0  0  0
 18 17  2  0  0  0  0
 19  7  1  1  0  0  0
 19  6  1  0  0  0  0
 20  7  2  0  0  0  0
 21 20  1  0  0  0  0
 21 22  1  0  0  0  0
 21 24  1  0  0  0  0
 23 21  1  0  0  0  0
 27 15  1  0  0  0  0
 29 18  1  0  0  0  0
M  END
