1,6,9,14
 OpenBabel05122313063D

 49 51  0  0  1  0  0  0  0  0999 V2000
    1.2981   -0.4065    1.0884 N   0  0  0  0  0  2  0  0  0  0  0  0
    1.3588    0.5427    2.1089 C   0  0  0  0  0  0  0  0  0  0  0  0
    3.4383    0.2666    1.2698 N   0  0  0  0  0  0  0  0  0  0  0  0
    0.3608    1.0778    2.9446 C   0  0  0  0  0  0  0  0  0  0  0  0
   -0.6895    0.7711    2.8529 H   0  0  0  0  0  0  0  0  0  0  0  0
    1.5659   -2.2240   -0.8026 N   0  0  0  0  0  0  0  0  0  0  0  0
    0.7569    2.0488    3.8721 C   0  0  0  0  0  0  0  0  0  0  0  0
   -0.0027    2.4944    4.5313 H   0  0  0  0  0  0  0  0  0  0  0  0
   -0.3919   -2.8093    1.0852 N   0  0  0  0  0  0  0  0  0  0  0  0
    2.0998    2.4846    3.9719 C   0  0  0  0  0  0  0  0  0  0  0  0
    2.3625    3.2591    4.7080 H   0  0  0  0  0  0  0  0  0  0  0  0
    3.1020    1.9615    3.1448 C   0  0  0  0  0  0  0  0  0  0  0  0
    4.1410    2.3139    3.2143 H   0  0  0  0  0  0  0  0  0  0  0  0
   -1.1467   -2.1160   -1.5220 N   0  0  0  0  0  0  0  0  0  0  0  0
    2.7103    0.9834    2.2191 C   0  0  0  0  0  0  0  0  0  0  0  0
    4.7548    0.6232    0.7787 C   0  0  0  0  0  0  0  0  0  0  0  0
    5.3882    0.9636    1.6188 H   0  0  0  0  0  0  0  0  0  0  0  0
    4.6653    1.4322    0.0231 H   0  0  0  0  0  0  0  0  0  0  0  0
    5.2403   -0.2570    0.3167 H   0  0  0  0  0  0  0  0  0  0  0  0
    2.5424   -0.5373    0.6166 C   0  0  2  0  0  3  0  0  0  0  0  0
    2.7815   -1.3770   -0.5965 C   0  0  0  0  0  0  0  0  0  0  0  0
    2.9063   -0.7243   -1.4898 H   0  0  0  0  0  0  0  0  0  0  0  0
    3.7027   -1.9976   -0.5160 H   0  0  0  0  0  0  0  0  0  0  0  0
    1.6700   -3.5190   -0.0606 C   0  0  0  0  0  0  0  0  0  0  0  0
    2.7323   -3.8022    0.0960 H   0  0  0  0  0  0  0  0  0  0  0  0
    1.2274   -4.3163   -0.6879 H   0  0  0  0  0  0  0  0  0  0  0  0
    0.9446   -3.4297    1.2745 C   0  0  0  0  0  0  0  0  0  0  0  0
    0.8616   -4.4401    1.7405 H   0  0  0  0  0  0  0  0  0  0  0  0
    1.5055   -2.7838    1.9753 H   0  0  0  0  0  0  0  0  0  0  0  0
   -0.9567   -2.4566    2.4078 C   0  0  0  0  0  0  0  0  0  0  0  0
   -1.0307   -3.3616    3.0524 H   0  0  0  0  0  0  0  0  0  0  0  0
   -1.9565   -2.0043    2.2999 H   0  0  0  0  0  0  0  0  0  0  0  0
   -0.3061   -1.7091    2.8951 H   0  0  0  0  0  0  0  0  0  0  0  0
   -1.3201   -3.7283    0.3435 C   0  0  0  0  0  0  0  0  0  0  0  0
   -0.7267   -4.5562   -0.0933 H   0  0  0  0  0  0  0  0  0  0  0  0
   -2.0369   -4.2021    1.0463 H   0  0  0  0  0  0  0  0  0  0  0  0
   -2.0752   -2.9704   -0.7364 C   0  0  0  0  0  0  0  0  0  0  0  0
   -2.8256   -2.2914   -0.2843 H   0  0  0  0  0  0  0  0  0  0  0  0
   -2.6236   -3.6870   -1.3939 H   0  0  0  0  0  0  0  0  0  0  0  0
   -1.9291   -1.1738   -2.3566 C   0  0  0  0  0  0  0  0  0  0  0  0
   -2.5559   -1.7346   -3.0861 H   0  0  0  0  0  0  0  0  0  0  0  0
   -1.2403   -0.4925   -2.8828 H   0  0  0  0  0  0  0  0  0  0  0  0
   -2.5811   -0.5733   -1.6997 H   0  0  0  0  0  0  0  0  0  0  0  0
   -0.2056   -2.9177   -2.3678 C   0  0  0  0  0  0  0  0  0  0  0  0
   -0.5153   -2.8844   -3.4337 H   0  0  0  0  0  0  0  0  0  0  0  0
   -0.2733   -3.9827   -2.0670 H   0  0  0  0  0  0  0  0  0  0  0  0
    1.2305   -2.4129   -2.2436 C   0  0  0  0  0  0  0  0  0  0  0  0
    1.9342   -3.1242   -2.7371 H   0  0  0  0  0  0  0  0  0  0  0  0
    1.3438   -1.4260   -2.7315 H   0  0  0  0  0  0  0  0  0  0  0  0
  1  2  1  0  0  0  0
  2 15  2  0  0  0  0
  2  4  1  0  0  0  0
  3 15  1  0  0  0  0
  4  7  2  0  0  0  0
  5  4  1  0  0  0  0
  6 21  1  0  0  0  0
  6 24  1  0  0  0  0
  7 10  1  0  0  0  0
  7  8  1  0  0  0  0
  9 27  1  0  0  0  0
  9 30  1  0  0  0  0
 10 11  1  0  0  0  0
 12 13  1  0  0  0  0
 12 10  2  0  0  0  0
 14 37  1  0  0  0  0
 15 12  1  0  0  0  0
 16  3  1  0  0  0  0
 16 17  1  0  0  0  0
 18 16  1  0  0  0  0
 19 16  1  0  0  0  0
 20 21  1  6  0  0  0
 20  1  1  0  0  0  0
 20  3  1  0  0  0  0
 21 23  1  0  0  0  0
 22 21  1  0  0  0  0
 24 25  1  0  0  0  0
 24 27  1  0  0  0  0
 26 24  1  0  0  0  0
 27 28  1  0  0  0  0
 27 29  1  0  0  0  0
 30 33  1  0  0  0  0
 30 31  1  0  0  0  0
 32 30  1  0  0  0  0
 34 36  1  0  0  0  0
 34  9  1  0  0  0  0
 35 34  1  0  0  0  0
 37 38  1  0  0  0  0
 37 34  1  0  0  0  0
 39 37  1  0  0  0  0
 40 43  1  0  0  0  0
 40 14  1  0  0  0  0
 41 40  1  0  0  0  0
 42 40  1  0  0  0  0
 44 47  1  0  0  0  0
 44 46  1  0  0  0  0
 44 14  1  0  0  0  0
 45 44  1  0  0  0  0
 47  6  1  0  0  0  0
 48 47  1  0  0  0  0
 49 47  1  0  0  0  0
M  END
