4,7,14,17
 OpenBabel05122313063D

 63 66  0  0  1  0  0  0  0  0999 V2000
   -0.2956    4.6425    0.5827 S   0  0  0  0  0  0  0  0  0  0  0  0
    0.8698   -3.8248    0.9027 S   0  0  0  0  0  0  0  0  0  0  0  0
   -2.3072    0.1446   -0.1443 C   0  0  1  0  0  3  0  0  0  0  0  0
   -1.2294    0.9389   -0.0690 N   0  0  0  0  0  2  0  0  0  0  0  0
   -1.4486    2.2676    0.0993 N   0  0  0  0  0  0  0  0  0  0  0  0
   -0.3087    2.9172    0.2418 C   0  0  0  0  0  0  0  0  0  0  0  0
    0.8848    2.2554    0.1207 N   0  0  0  0  0  2  0  0  0  0  0  0
    1.9547    3.0126    0.4574 N   0  0  0  0  0  0  0  0  0  0  0  0
    3.1304    2.7173    0.0013 C   0  0  0  0  0  0  0  0  0  0  0  0
    3.3354    1.6196   -1.0248 C   0  0  0  0  0  0  0  0  0  0  0  0
    2.4484    1.6364   -1.6957 H   0  0  0  0  0  0  0  0  0  0  0  0
    4.2326    1.8429   -1.6305 H   0  0  0  0  0  0  0  0  0  0  0  0
    3.4484    0.2158   -0.4769 C   0  0  1  0  0  3  0  0  0  0  0  0
    2.3268   -0.3575   -0.0779 N   0  0  0  0  0  2  0  0  0  0  0  0
    2.3887   -1.6600    0.3613 N   0  0  0  0  0  2  0  0  0  0  0  0
    1.1762   -2.1598    0.4519 C   0  0  1  0  0  3  0  0  0  0  0  0
    0.0849   -1.3562    0.1743 N   0  0  0  0  0  2  0  0  0  0  0  0
   -1.0759   -1.9728    0.1202 N   0  0  0  0  0  0  0  0  0  0  0  0
   -2.1992   -1.3055   -0.0964 C   0  0  0  0  0  0  0  0  0  0  0  0
   -2.0931    4.9449    0.6357 C   0  0  0  0  0  0  0  0  0  0  0  0
   -2.2048    6.0166    0.8877 H   0  0  0  0  0  0  0  0  0  0  0  0
   -2.5736    4.3154    1.4072 H   0  0  0  0  0  0  0  0  0  0  0  0
   -2.5607    4.7315   -0.3431 H   0  0  0  0  0  0  0  0  0  0  0  0
    2.5826   -4.3834    1.1778 C   0  0  0  0  0  0  0  0  0  0  0  0
    3.1388   -4.4450    0.2238 H   0  0  0  0  0  0  0  0  0  0  0  0
    2.4956   -5.3928    1.6224 H   0  0  0  0  0  0  0  0  0  0  0  0
    3.1119   -3.7030    1.8698 H   0  0  0  0  0  0  0  0  0  0  0  0
   -3.6550    0.7844   -0.1470 C   0  0  0  0  0  0  0  0  0  0  0  0
   -4.0225    1.6840   -1.1702 C   0  0  0  0  0  0  0  0  0  0  0  0
   -3.2980    1.9233   -1.9619 H   0  0  0  0  0  0  0  0  0  0  0  0
   -5.2984    2.2603   -1.1820 C   0  0  0  0  0  0  0  0  0  0  0  0
   -5.5784    2.9498   -1.9931 H   0  0  0  0  0  0  0  0  0  0  0  0
   -6.2180    1.9630   -0.1613 C   0  0  0  0  0  0  0  0  0  0  0  0
   -7.2197    2.4190   -0.1704 H   0  0  0  0  0  0  0  0  0  0  0  0
   -5.8533    1.0830    0.8686 C   0  0  0  0  0  0  0  0  0  0  0  0
   -6.5660    0.8472    1.6733 H   0  0  0  0  0  0  0  0  0  0  0  0
   -4.5813    0.4925    0.8736 C   0  0  0  0  0  0  0  0  0  0  0  0
   -4.3012   -0.2080    1.6739 H   0  0  0  0  0  0  0  0  0  0  0  0
    4.2877    3.5479    0.4723 C   0  0  0  0  0  0  0  0  0  0  0  0
    4.9068    3.9041   -0.3782 H   0  0  0  0  0  0  0  0  0  0  0  0
    4.9592    2.9678    1.1431 H   0  0  0  0  0  0  0  0  0  0  0  0
    3.9101    4.4162    1.0433 H   0  0  0  0  0  0  0  0  0  0  0  0
    4.7749   -0.4417   -0.4809 C   0  0  0  0  0  0  0  0  0  0  0  0
    4.9765   -1.8160   -0.7505 C   0  0  0  0  0  0  0  0  0  0  0  0
    4.1205   -2.4709   -0.9441 H   0  0  0  0  0  0  0  0  0  0  0  0
    6.2829   -2.3229   -0.7780 C   0  0  0  0  0  0  0  0  0  0  0  0
    6.4447   -3.3929   -1.0017 H   0  0  0  0  0  0  0  0  0  0  0  0
    7.3850   -1.5908   -0.5448 N   0  0  0  0  0  0  0  0  0  0  0  0
    7.1977   -0.2860   -0.2925 C   0  0  0  0  0  0  0  0  0  0  0  0
    8.1055    0.3144   -0.1018 H   0  0  0  0  0  0  0  0  0  0  0  0
    5.9403    0.3327   -0.2658 C   0  0  0  0  0  0  0  0  0  0  0  0
    5.8746    1.4087   -0.0555 H   0  0  0  0  0  0  0  0  0  0  0  0
   -3.4017   -2.1791   -0.2293 C   0  0  0  0  0  0  0  0  0  0  0  0
   -4.3926   -1.9517   -1.2094 C   0  0  0  0  0  0  0  0  0  0  0  0
   -4.3017   -1.0929   -1.8889 H   0  0  0  0  0  0  0  0  0  0  0  0
   -5.4886   -2.8165   -1.3300 C   0  0  0  0  0  0  0  0  0  0  0  0
   -6.2490   -2.6233   -2.1020 H   0  0  0  0  0  0  0  0  0  0  0  0
   -5.6161   -3.9241   -0.4770 C   0  0  0  0  0  0  0  0  0  0  0  0
   -6.4814   -4.5980   -0.5691 H   0  0  0  0  0  0  0  0  0  0  0  0
   -4.6281   -4.1684    0.4910 C   0  0  0  0  0  0  0  0  0  0  0  0
   -4.7155   -5.0369    1.1618 H   0  0  0  0  0  0  0  0  0  0  0  0
   -3.5299   -3.3074    0.6109 C   0  0  0  0  0  0  0  0  0  0  0  0
   -2.7480   -3.4969    1.3607 H   0  0  0  0  0  0  0  0  0  0  0  0
  1 20  1  0  0  0  0
  2 24  1  0  0  0  0
  3 28  1  1  0  0  0
  3 19  1  0  0  0  0
  3  4  1  0  0  0  0
  4  5  1  0  0  0  0
  5  6  2  0  0  0  0
  6  1  1  0  0  0  0
  7  6  1  0  0  0  0
  7  8  1  0  0  0  0
  9  8  2  0  0  0  0
  9 39  1  0  0  0  0
 10 13  1  0  0  0  0
 10  9  1  0  0  0  0
 11 10  1  0  0  0  0
 12 10  1  0  0  0  0
 13 43  1  6  0  0  0
 13 14  1  0  0  0  0
 14 15  1  0  0  0  0
 15 16  1  0  0  0  0
 16  2  1  6  0  0  0
 17 16  1  0  0  0  0
 18 17  1  0  0  0  0
 19 18  2  0  0  0  0
 20 21  1  0  0  0  0
 20 22  1  0  0  0  0
 23 20  1  0  0  0  0
 24 26  1  0  0  0  0
 24 27  1  0  0  0  0
 25 24  1  0  0  0  0
 28 37  1  0  0  0  0
 29 28  2  0  0  0  0
 30 29  1  0  0  0  0
 31 29  1  0  0  0  0
 31 33  2  0  0  0  0
 32 31  1  0  0  0  0
 33 35  1  0  0  0  0
 34 33  1  0  0  0  0
 35 37  2  0  0  0  0
 35 36  1  0  0  0  0
 37 38  1  0  0  0  0
 39 42  1  0  0  0  0
 39 41  1  0  0  0  0
 40 39  1  0  0  0  0
 43 51  1  0  0  0  0
 44 43  2  0  0  0  0
 45 44  1  0  0  0  0
 46 44  1  0  0  0  0
 46 48  2  0  0  0  0
 47 46  1  0  0  0  0
 48 49  1  0  0  0  0
 49 51  2  0  0  0  0
 49 50  1  0  0  0  0
 51 52  1  0  0  0  0
 53 19  1  0  0  0  0
 53 62  1  0  0  0  0
 54 53  2  0  0  0  0
 55 54  1  0  0  0  0
 56 54  1  0  0  0  0
 56 58  2  0  0  0  0
 57 56  1  0  0  0  0
 58 60  1  0  0  0  0
 59 58  1  0  0  0  0
 60 62  2  0  0  0  0
 60 61  1  0  0  0  0
 62 63  1  0  0  0  0
M  END
