3,5,7,9
 OpenBabel05122313063D

 71 75  0  0  1  0  0  0  0  0999 V2000
    0.3600   -4.3189   -0.1364 S   0  0  0  0  0  0  0  0  0  0  0  0
   -0.7675    4.2394   -0.7044 S   0  0  0  0  0  0  0  0  0  0  0  0
   -1.5762   -0.9625    0.0417 N   0  0  0  0  0  2  0  0  0  0  0  0
   -1.4203   -2.3109    0.0350 N   0  0  0  0  0  0  0  0  0  0  0  0
    0.8237   -1.6691    0.0896 N   0  0  0  0  0  2  0  0  0  0  0  0
    2.0669   -2.1217   -0.1624 N   0  0  0  0  0  0  0  0  0  0  0  0
    1.4953    1.2300    0.2498 N   0  0  0  0  0  2  0  0  0  0  0  0
    1.2378    2.5261   -0.1524 N   0  0  0  0  0  2  0  0  0  0  0  0
   -0.9055    1.6075   -0.1356 N   0  0  0  0  0  2  0  0  0  0  0  0
   -2.1870    1.8807   -0.2194 N   0  0  0  0  0  2  0  0  0  0  0  0
   -2.8296   -0.4826    0.0622 C   0  0  0  0  0  0  0  0  0  0  0  0
   -0.1432   -2.6379   -0.0037 C   0  0  0  0  0  0  0  0  0  0  0  0
    3.1089   -1.5084    0.3238 C   0  0  0  0  0  0  0  0  0  0  0  0
    2.9332   -0.3774    1.3201 C   0  0  0  0  0  0  0  0  0  0  0  0
    2.0402   -0.6250    1.9316 H   0  0  0  0  0  0  0  0  0  0  0  0
    3.8153   -0.3315    1.9817 H   0  0  0  0  0  0  0  0  0  0  0  0
    2.7144    0.9628    0.6749 C   0  0  2  0  0  3  0  0  0  0  0  0
   -0.0532    2.6879   -0.3135 C   0  0  1  0  0  3  0  0  0  0  0  0
   -3.1085    0.9352   -0.1053 C   0  0  0  0  0  0  0  0  0  0  0  0
   -1.2765   -5.1134   -0.2456 C   0  0  0  0  0  0  0  0  0  0  0  0
   -1.8036   -4.8079   -1.1685 H   0  0  0  0  0  0  0  0  0  0  0  0
   -1.8992   -4.8521    0.6297 H   0  0  0  0  0  0  0  0  0  0  0  0
   -1.0764   -6.2016   -0.2663 H   0  0  0  0  0  0  0  0  0  0  0  0
    0.7562    5.2357   -0.7989 C   0  0  0  0  0  0  0  0  0  0  0  0
    1.4060    4.8847   -1.6220 H   0  0  0  0  0  0  0  0  0  0  0  0
    1.3170    5.1854    0.1525 H   0  0  0  0  0  0  0  0  0  0  0  0
    0.4213    6.2716   -0.9958 H   0  0  0  0  0  0  0  0  0  0  0  0
   -3.9641   -1.4291    0.2742 C   0  0  0  0  0  0  0  0  0  0  0  0
   -4.2219   -2.4947   -0.6141 C   0  0  0  0  0  0  0  0  0  0  0  0
   -3.5622   -2.6453   -1.4793 H   0  0  0  0  0  0  0  0  0  0  0  0
   -5.3156   -3.3439   -0.4019 C   0  0  0  0  0  0  0  0  0  0  0  0
   -5.5139   -4.1639   -1.1091 H   0  0  0  0  0  0  0  0  0  0  0  0
   -6.1553   -3.1540    0.7087 C   0  0  0  0  0  0  0  0  0  0  0  0
   -7.0118   -3.8250    0.8750 H   0  0  0  0  0  0  0  0  0  0  0  0
   -5.8974   -2.1046    1.6035 C   0  0  0  0  0  0  0  0  0  0  0  0
   -6.5490   -1.9485    2.4765 H   0  0  0  0  0  0  0  0  0  0  0  0
   -4.8130   -1.2435    1.3843 C   0  0  0  0  0  0  0  0  0  0  0  0
   -4.6211   -0.4101    2.0761 H   0  0  0  0  0  0  0  0  0  0  0  0
    4.4453   -1.9924   -0.0755 C   0  0  0  0  0  0  0  0  0  0  0  0
    4.5636   -3.1605   -0.8713 C   0  0  0  0  0  0  0  0  0  0  0  0
    3.6413   -3.6755   -1.1757 H   0  0  0  0  0  0  0  0  0  0  0  0
    5.8185   -3.6403   -1.2532 C   0  0  0  0  0  0  0  0  0  0  0  0
    5.8881   -4.5534   -1.8643 H   0  0  0  0  0  0  0  0  0  0  0  0
    6.9899   -2.9626   -0.8664 C   0  0  0  0  0  0  0  0  0  0  0  0
    7.9771   -3.3397   -1.1739 H   0  0  0  0  0  0  0  0  0  0  0  0
    6.8870   -1.7982   -0.0922 C   0  0  0  0  0  0  0  0  0  0  0  0
    7.7936   -1.2507    0.2076 H   0  0  0  0  0  0  0  0  0  0  0  0
    5.6296   -1.3176    0.3021 C   0  0  0  0  0  0  0  0  0  0  0  0
    5.5792   -0.3910    0.8907 H   0  0  0  0  0  0  0  0  0  0  0  0
    3.8467    1.9076    0.5520 C   0  0  0  0  0  0  0  0  0  0  0  0
    4.7489    2.0796    1.6271 C   0  0  0  0  0  0  0  0  0  0  0  0
    4.5705    1.5583    2.5798 H   0  0  0  0  0  0  0  0  0  0  0  0
    5.8521    2.9357    1.5076 C   0  0  0  0  0  0  0  0  0  0  0  0
    6.5335    3.0699    2.3612 H   0  0  0  0  0  0  0  0  0  0  0  0
    6.0860    3.6165    0.3031 C   0  0  0  0  0  0  0  0  0  0  0  0
    6.9582    4.2802    0.2037 H   0  0  0  0  0  0  0  0  0  0  0  0
    5.2024    3.4448   -0.7763 C   0  0  0  0  0  0  0  0  0  0  0  0
    5.3860    3.9683   -1.7267 H   0  0  0  0  0  0  0  0  0  0  0  0
    4.0873    2.6091   -0.6528 C   0  0  0  0  0  0  0  0  0  0  0  0
    3.3955    2.4782   -1.4949 H   0  0  0  0  0  0  0  0  0  0  0  0
   -4.5045    1.4598   -0.1928 C   0  0  0  0  0  0  0  0  0  0  0  0
   -5.5099    0.8402   -0.9675 C   0  0  0  0  0  0  0  0  0  0  0  0
   -5.2850   -0.0827   -1.5189 H   0  0  0  0  0  0  0  0  0  0  0  0
   -6.7926    1.3979   -1.0513 C   0  0  0  0  0  0  0  0  0  0  0  0
   -7.5604    0.9002   -1.6632 H   0  0  0  0  0  0  0  0  0  0  0  0
   -7.0976    2.5855   -0.3674 C   0  0  0  0  0  0  0  0  0  0  0  0
   -8.1079    3.0177   -0.4301 H   0  0  0  0  0  0  0  0  0  0  0  0
   -6.1013    3.2205    0.3913 C   0  0  0  0  0  0  0  0  0  0  0  0
   -6.3263    4.1560    0.9263 H   0  0  0  0  0  0  0  0  0  0  0  0
   -4.8178    2.6652    0.4746 C   0  0  0  0  0  0  0  0  0  0  0  0
   -4.0298    3.1621    1.0591 H   0  0  0  0  0  0  0  0  0  0  0  0
  1 12  1  0  0  0  0
  3 11  1  0  0  0  0
  4  3  1  0  0  0  0
  6  5  1  0  0  0  0
  6 13  2  0  0  0  0
  7 17  1  0  0  0  0
  8  7  1  0  0  0  0
 10  9  1  0  0  0  0
 10 19  1  0  0  0  0
 11 28  1  0  0  0  0
 12  4  2  0  0  0  0
 12  5  1  0  0  0  0
 13 14  1  0  0  0  0
 14 15  1  0  0  0  0
 14 16  1  0  0  0  0
 17 50  1  1  0  0  0
 17 14  1  0  0  0  0
 18  2  1  1  0  0  0
 18  8  1  0  0  0  0
 18  9  1  0  0  0  0
 19 11  2  0  0  0  0
 20  1  1  0  0  0  0
 20 22  1  0  0  0  0
 21 20  1  0  0  0  0
 23 20  1  0  0  0  0
 24  2  1  0  0  0  0
 24 26  1  0  0  0  0
 25 24  1  0  0  0  0
 27 24  1  0  0  0  0
 28 37  1  0  0  0  0
 29 31  1  0  0  0  0
 29 28  2  0  0  0  0
 30 29  1  0  0  0  0
 31 33  2  0  0  0  0
 32 31  1  0  0  0  0
 33 34  1  0  0  0  0
 33 35  1  0  0  0  0
 35 36  1  0  0  0  0
 37 35  2  0  0  0  0
 37 38  1  0  0  0  0
 39 48  1  0  0  0  0
 39 13  1  0  0  0  0
 40 39  2  0  0  0  0
 41 40  1  0  0  0  0
 42 40  1  0  0  0  0
 42 44  2  0  0  0  0
 43 42  1  0  0  0  0
 44 46  1  0  0  0  0
 45 44  1  0  0  0  0
 46 47  1  0  0  0  0
 46 48  2  0  0  0  0
 48 49  1  0  0  0  0
 50 51  1  0  0  0  0
 51 52  1  0  0  0  0
 53 51  2  0  0  0  0
 53 54  1  0  0  0  0
 55 53  1  0  0  0  0
 56 55  1  0  0  0  0
 57 59  1  0  0  0  0
 57 55  2  0  0  0  0
 58 57  1  0  0  0  0
 59 50  2  0  0  0  0
 60 59  1  0  0  0  0
 61 19  1  0  0  0  0
 61 70  1  0  0  0  0
 62 61  2  0  0  0  0
 63 62  1  0  0  0  0
 64 62  1  0  0  0  0
 64 66  2  0  0  0  0
 65 64  1  0  0  0  0
 66 68  1  0  0  0  0
 67 66  1  0  0  0  0
 68 70  2  0  0  0  0
 68 69  1  0  0  0  0
 70 71  1  0  0  0  0
M  END
