1,2,15,16
 OpenBabel05122313063D

 28 28  0  0  0  0  0  0  0  0999 V2000
   -1.5650    1.0180   -0.1649 N   0  0  0  0  0  2  0  0  0  0  0  0
    0.8076    1.6767    0.2691 N   0  0  0  0  0  2  0  0  0  0  0  0
   -2.7616    0.5348   -0.4666 O   0  0  0  0  0  0  0  0  0  0  0  0
    2.0803    1.8736    0.5451 O   0  0  0  0  0  0  0  0  0  0  0  0
   -1.4130    2.3211   -0.0264 C   0  0  0  0  0  0  0  0  0  0  0  0
   -0.0301    2.6864    0.2393 C   0  0  0  0  0  0  0  0  0  0  0  0
   -2.5488    3.2777   -0.1493 C   0  0  0  0  0  0  0  0  0  0  0  0
   -3.0441   -0.8591    0.1037 B   0  0  0  0  0  0  0  0  0  0  0  0
   -4.2917   -1.2037   -0.2970 F   0  0  0  0  0  0  0  0  0  0  0  0
   -2.7990   -0.8392    1.4586 F   0  0  0  0  0  0  0  0  0  0  0  0
   -2.8886    3.3429   -1.2047 H   0  0  0  0  0  0  0  0  0  0  0  0
   -2.2642    4.2879    0.1957 H   0  0  0  0  0  0  0  0  0  0  0  0
   -3.4150    2.9073    0.4346 H   0  0  0  0  0  0  0  0  0  0  0  0
    0.3186    3.7169    0.4059 H   0  0  0  0  0  0  0  0  0  0  0  0
    1.5651   -1.0180    0.1649 N   0  0  0  0  0  2  0  0  0  0  0  0
   -0.8075   -1.6767   -0.2690 N   0  0  0  0  0  2  0  0  0  0  0  0
    3.0440    0.8591   -0.1042 B   0  0  0  0  0  0  0  0  0  0  0  0
   -2.0801   -1.8735   -0.5453 O   0  0  0  0  0  0  0  0  0  0  0  0
    2.7618   -0.5347    0.4663 O   0  0  0  0  0  0  0  0  0  0  0  0
    1.4130   -2.3211    0.0273 C   0  0  0  0  0  0  0  0  0  0  0  0
    0.0300   -2.6864   -0.2384 C   0  0  0  0  0  0  0  0  0  0  0  0
    4.2918    1.2037    0.2959 F   0  0  0  0  0  0  0  0  0  0  0  0
    2.7984    0.8391   -1.4590 F   0  0  0  0  0  0  0  0  0  0  0  0
    2.5486   -3.2779    0.1511 C   0  0  0  0  0  0  0  0  0  0  0  0
   -0.3187   -3.7171   -0.4043 H   0  0  0  0  0  0  0  0  0  0  0  0
    2.8884   -3.3422    1.2065 H   0  0  0  0  0  0  0  0  0  0  0  0
    2.2639   -4.2883   -0.1931 H   0  0  0  0  0  0  0  0  0  0  0  0
    3.4149   -2.9081   -0.4332 H   0  0  0  0  0  0  0  0  0  0  0  0
  1  5  1  0  0  0  0
  2  4  1  0  0  0  0
  3  1  1  0  0  0  0
  3  8  1  0  0  0  0
  5  6  2  0  0  0  0
  6  2  1  0  0  0  0
  6 14  1  0  0  0  0
  7  5  1  0  0  0  0
  7 12  1  0  0  0  0
  7 13  1  0  0  0  0
  8 10  1  0  0  0  0
  9  8  1  0  0  0  0
 11  7  1  0  0  0  0
 15 19  1  0  0  0  0
 16 21  1  0  0  0  0
 17 22  1  0  0  0  0
 17 19  1  0  0  0  0
 17  4  1  0  0  0  0
 18 16  1  0  0  0  0
 18  8  1  0  0  0  0
 20 24  1  0  0  0  0
 20 15  1  0  0  0  0
 21 20  2  0  0  0  0
 23 17  1  0  0  0  0
 24 26  1  0  0  0  0
 25 21  1  0  0  0  0
 27 24  1  0  0  0  0
 28 24  1  0  0  0  0
M  END
