1,2,3,4
 OpenBabel05122313063D

 28 27  0  0  0  0  0  0  0  0999 V2000
    1.3830    0.3133   -1.4025 N   0  0  0  0  0  0  0  0  0  0  0  0
    1.1403   -1.2536    0.8052 N   0  0  0  0  0  0  0  0  0  0  0  0
   -1.1376   -1.2558   -0.8052 N   0  0  0  0  0  0  0  0  0  0  0  0
   -1.3835    0.3107    1.4024 N   0  0  0  0  0  0  0  0  0  0  0  0
    2.3502   -0.7992   -1.3071 C   0  0  0  0  0  0  0  0  0  0  0  0
    2.4881   -1.1646    0.1683 C   0  0  0  0  0  0  0  0  0  0  0  0
    0.4228   -2.5452    0.6405 C   0  0  0  0  0  0  0  0  0  0  0  0
   -0.4186   -2.5464   -0.6390 C   0  0  0  0  0  0  0  0  0  0  0  0
   -2.4861   -1.1682   -0.1694 C   0  0  0  0  0  0  0  0  0  0  0  0
   -2.3496   -0.8027    1.3061 C   0  0  0  0  0  0  0  0  0  0  0  0
    1.8241    1.2334   -1.1853 H   0  0  0  0  0  0  0  0  0  0  0  0
    0.9314    0.4137   -2.3263 H   0  0  0  0  0  0  0  0  0  0  0  0
    1.9774   -1.6545   -1.9031 H   0  0  0  0  0  0  0  0  0  0  0  0
    3.3390   -0.5255   -1.7299 H   0  0  0  0  0  0  0  0  0  0  0  0
    3.0413   -0.3650    0.7007 H   0  0  0  0  0  0  0  0  0  0  0  0
    3.0596   -2.1079    0.3009 H   0  0  0  0  0  0  0  0  0  0  0  0
    1.2574   -1.0513    1.8089 H   0  0  0  0  0  0  0  0  0  0  0  0
    1.1310   -3.4017    0.6315 H   0  0  0  0  0  0  0  0  0  0  0  0
   -0.2229   -2.6819    1.5284 H   0  0  0  0  0  0  0  0  0  0  0  0
   -1.1259   -3.4037   -0.6291 H   0  0  0  0  0  0  0  0  0  0  0  0
    0.2271   -2.6834   -1.5268 H   0  0  0  0  0  0  0  0  0  0  0  0
   -1.2545   -1.0545   -1.8091 H   0  0  0  0  0  0  0  0  0  0  0  0
   -3.0565   -2.1120   -0.3025 H   0  0  0  0  0  0  0  0  0  0  0  0
   -3.0397   -0.3691   -0.7022 H   0  0  0  0  0  0  0  0  0  0  0  0
   -1.9766   -1.6577    1.9023 H   0  0  0  0  0  0  0  0  0  0  0  0
   -3.3391   -0.5299    1.7282 H   0  0  0  0  0  0  0  0  0  0  0  0
   -1.8256    1.2304    1.1857 H   0  0  0  0  0  0  0  0  0  0  0  0
   -0.9325    0.4110    2.3266 H   0  0  0  0  0  0  0  0  0  0  0  0
  1  5  1  0  0  0  0
  1 11  1  0  0  0  0
  2 17  1  0  0  0  0
  3  8  1  0  0  0  0
  3  9  1  0  0  0  0
  4 28  1  0  0  0  0
  5  6  1  0  0  0  0
  6 16  1  0  0  0  0
  6 15  1  0  0  0  0
  6  2  1  0  0  0  0
  7  2  1  0  0  0  0
  7 19  1  0  0  0  0
  8 20  1  0  0  0  0
  8  7  1  0  0  0  0
  9 10  1  0  0  0  0
 10  4  1  0  0  0  0
 10 26  1  0  0  0  0
 10 25  1  0  0  0  0
 12  1  1  0  0  0  0
 13  5  1  0  0  0  0
 14  5  1  0  0  0  0
 18  7  1  0  0  0  0
 21  8  1  0  0  0  0
 22  3  1  0  0  0  0
 23  9  1  0  0  0  0
 24  9  1  0  0  0  0
 27  4  1  0  0  0  0
M  END
