1,2,3,4
 OpenBabel05122313063D

 50 50  0  0  0  0  0  0  0  0999 V2000
   -1.5689   -0.6909   -1.5858 N   0  0  0  0  0  0  0  0  0  0  0  0
   -0.7823    2.0603   -0.7793 N   0  0  0  0  0  0  0  0  0  0  0  0
   -0.2788    0.6671    2.0243 N   0  0  0  0  0  0  0  0  0  0  0  0
   -0.0705   -2.0504    0.8728 N   0  0  0  0  0  0  0  0  0  0  0  0
   -2.2489    0.5299   -2.0846 C   0  0  0  0  0  0  0  0  0  0  0  0
   -1.3148    1.7300   -2.1200 C   0  0  0  0  0  0  0  0  0  0  0  0
   -1.8244    2.7228    0.0410 C   0  0  0  0  0  0  0  0  0  0  0  0
   -1.4953    2.8652    1.5247 C   0  0  0  0  0  0  0  0  0  0  0  0
   -1.4328    1.5626    2.3177 C   0  0  0  0  0  0  0  0  0  0  0  0
   -0.4115   -0.5682    2.8407 C   0  0  0  0  0  0  0  0  0  0  0  0
    0.3766   -1.7271    2.2504 C   0  0  0  0  0  0  0  0  0  0  0  0
   -1.3883   -2.7332    0.9005 C   0  0  0  0  0  0  0  0  0  0  0  0
   -2.0583   -2.9308   -0.4573 C   0  0  0  0  0  0  0  0  0  0  0  0
   -2.5931   -1.6650   -1.1215 C   0  0  0  0  0  0  0  0  0  0  0  0
   -0.7400   -1.2688   -2.6704 C   0  0  0  0  0  0  0  0  0  0  0  0
    0.3943    2.9400   -0.9441 C   0  0  0  0  0  0  0  0  0  0  0  0
    1.0072    1.3320    2.3508 C   0  0  0  0  0  0  0  0  0  0  0  0
    0.9502   -2.9143    0.2396 C   0  0  0  0  0  0  0  0  0  0  0  0
   -3.1133    0.7318   -1.4208 H   0  0  0  0  0  0  0  0  0  0  0  0
   -2.6705    0.3525   -3.1001 H   0  0  0  0  0  0  0  0  0  0  0  0
   -1.8491    2.6035   -2.5621 H   0  0  0  0  0  0  0  0  0  0  0  0
   -0.4486    1.5209   -2.7775 H   0  0  0  0  0  0  0  0  0  0  0  0
   -2.7603    2.1346   -0.0516 H   0  0  0  0  0  0  0  0  0  0  0  0
   -2.0428    3.7294   -0.3900 H   0  0  0  0  0  0  0  0  0  0  0  0
   -0.5792    3.4702    1.6781 H   0  0  0  0  0  0  0  0  0  0  0  0
   -2.3077    3.4705    1.9769 H   0  0  0  0  0  0  0  0  0  0  0  0
   -2.3570    0.9751    2.1291 H   0  0  0  0  0  0  0  0  0  0  0  0
   -1.4240    1.8009    3.4074 H   0  0  0  0  0  0  0  0  0  0  0  0
   -1.4896   -0.8177    2.9049 H   0  0  0  0  0  0  0  0  0  0  0  0
   -0.0735   -0.3781    3.8840 H   0  0  0  0  0  0  0  0  0  0  0  0
    1.4503   -1.4651    2.1812 H   0  0  0  0  0  0  0  0  0  0  0  0
    0.2839   -2.6176    2.9144 H   0  0  0  0  0  0  0  0  0  0  0  0
   -2.0713   -2.1421    1.5445 H   0  0  0  0  0  0  0  0  0  0  0  0
   -1.2648   -3.7243    1.3988 H   0  0  0  0  0  0  0  0  0  0  0  0
   -1.4056   -3.5025   -1.1472 H   0  0  0  0  0  0  0  0  0  0  0  0
   -2.9340   -3.5910   -0.2904 H   0  0  0  0  0  0  0  0  0  0  0  0
   -3.2478   -1.1275   -0.4025 H   0  0  0  0  0  0  0  0  0  0  0  0
   -3.2372   -1.9480   -1.9874 H   0  0  0  0  0  0  0  0  0  0  0  0
   -0.2287   -2.1802   -2.3188 H   0  0  0  0  0  0  0  0  0  0  0  0
    0.0521   -0.5576   -2.9630 H   0  0  0  0  0  0  0  0  0  0  0  0
   -1.3720   -1.5279   -3.5491 H   0  0  0  0  0  0  0  0  0  0  0  0
    1.1838    2.3880   -1.4851 H   0  0  0  0  0  0  0  0  0  0  0  0
    0.7962    3.2386    0.0403 H   0  0  0  0  0  0  0  0  0  0  0  0
    0.1218    3.8664   -1.4989 H   0  0  0  0  0  0  0  0  0  0  0  0
    1.8513    0.6589    2.1085 H   0  0  0  0  0  0  0  0  0  0  0  0
    1.0324    1.6229    3.4248 H   0  0  0  0  0  0  0  0  0  0  0  0
    1.1349    2.2394    1.7367 H   0  0  0  0  0  0  0  0  0  0  0  0
    1.0143   -3.8928    0.7672 H   0  0  0  0  0  0  0  0  0  0  0  0
    0.7026   -3.1063   -0.8189 H   0  0  0  0  0  0  0  0  0  0  0  0
    1.9278   -2.4021    0.2909 H   0  0  0  0  0  0  0  0  0  0  0  0
  1 14  1  0  0  0  0
  2  7  1  0  0  0  0
  3  9  1  0  0  0  0
  3 17  1  0  0  0  0
  3 10  1  0  0  0  0
  4 12  1  0  0  0  0
  4 11  1  0  0  0  0
  5  1  1  0  0  0  0
  5 19  1  0  0  0  0
  6  5  1  0  0  0  0
  6  2  1  0  0  0  0
  7  8  1  0  0  0  0
  8 25  1  0  0  0  0
  8 26  1  0  0  0  0
  8  9  1  0  0  0  0
  9 28  1  0  0  0  0
 10 29  1  0  0  0  0
 10 30  1  0  0  0  0
 11 10  1  0  0  0  0
 11 32  1  0  0  0  0
 12 34  1  0  0  0  0
 12 33  1  0  0  0  0
 13 36  1  0  0  0  0
 13 12  1  0  0  0  0
 14 13  1  0  0  0  0
 14 37  1  0  0  0  0
 15 39  1  0  0  0  0
 15  1  1  0  0  0  0
 16  2  1  0  0  0  0
 16 43  1  0  0  0  0
 17 46  1  0  0  0  0
 18 50  1  0  0  0  0
 18 48  1  0  0  0  0
 18  4  1  0  0  0  0
 20  5  1  0  0  0  0
 21  6  1  0  0  0  0
 22  6  1  0  0  0  0
 23  7  1  0  0  0  0
 24  7  1  0  0  0  0
 27  9  1  0  0  0  0
 31 11  1  0  0  0  0
 35 13  1  0  0  0  0
 38 14  1  0  0  0  0
 40 15  1  0  0  0  0
 41 15  1  0  0  0  0
 42 16  1  0  0  0  0
 44 16  1  0  0  0  0
 45 17  1  0  0  0  0
 47 17  1  0  0  0  0
 49 18  1  0  0  0  0
M  END
