1,2,24,25
 OpenBabel05122313063D

 40 40  0  0  1  0  0  0  0  0999 V2000
   -1.6227   -1.4436    0.1717 N   0  0  0  0  0  0  0  0  0  0  0  0
    1.0618   -1.3926    0.1886 N   0  0  0  0  0  2  0  0  0  0  0  0
   -2.8520   -1.2765   -0.6312 C   0  0  0  0  0  0  0  0  0  0  0  0
   -3.6041    0.0000   -0.2743 C   0  0  0  0  0  0  0  0  0  0  0  0
   -0.9122   -2.7077   -0.1159 C   0  0  0  0  0  0  0  0  0  0  0  0
    0.4326   -2.6525    0.5903 C   0  0  0  0  0  0  0  0  0  0  0  0
    2.3064   -1.3096   -0.1486 C   0  0  2  0  0  3  0  0  0  0  0  0
    2.9074   -0.0000   -0.5816 C   0  0  0  0  0  0  0  0  0  0  0  0
    3.2413   -2.4911   -0.1692 C   0  0  0  0  0  0  0  0  0  0  0  0
    3.5052   -2.7949    0.8663 H   0  0  0  0  0  0  0  0  0  0  0  0
    4.1810   -2.2433   -0.6948 H   0  0  0  0  0  0  0  0  0  0  0  0
    2.7906   -3.3707   -0.6686 H   0  0  0  0  0  0  0  0  0  0  0  0
   -3.5053   -2.1622   -0.4717 H   0  0  0  0  0  0  0  0  0  0  0  0
   -2.5442   -1.2610   -1.6960 H   0  0  0  0  0  0  0  0  0  0  0  0
   -4.5638    0.0000   -0.8286 H   0  0  0  0  0  0  0  0  0  0  0  0
   -3.8796   -0.0000    0.8047 H   0  0  0  0  0  0  0  0  0  0  0  0
   -0.7612   -2.7581   -1.2128 H   0  0  0  0  0  0  0  0  0  0  0  0
   -1.5085   -3.5884    0.2050 H   0  0  0  0  0  0  0  0  0  0  0  0
    1.0459   -3.5396    0.3442 H   0  0  0  0  0  0  0  0  0  0  0  0
    0.2977   -2.6146    1.6931 H   0  0  0  0  0  0  0  0  0  0  0  0
    3.9807   -0.0000   -0.3028 H   0  0  0  0  0  0  0  0  0  0  0  0
    2.9059   -0.0000   -1.7001 H   0  0  0  0  0  0  0  0  0  0  0  0
   -1.8565   -1.4131    1.1827 H   0  0  0  0  0  0  0  0  0  0  0  0
   -1.6227    1.4436    0.1717 N   0  0  0  0  0  0  0  0  0  0  0  0
    1.0618    1.3926    0.1886 N   0  0  0  0  0  2  0  0  0  0  0  0
   -2.8520    1.2765   -0.6312 C   0  0  0  0  0  0  0  0  0  0  0  0
   -0.9122    2.7077   -0.1159 C   0  0  0  0  0  0  0  0  0  0  0  0
    0.4326    2.6525    0.5903 C   0  0  0  0  0  0  0  0  0  0  0  0
    2.3064    1.3096   -0.1486 C   0  0  2  0  0  3  0  0  0  0  0  0
    3.2413    2.4911   -0.1692 C   0  0  0  0  0  0  0  0  0  0  0  0
    3.5052    2.7949    0.8663 H   0  0  0  0  0  0  0  0  0  0  0  0
    4.1810    2.2433   -0.6948 H   0  0  0  0  0  0  0  0  0  0  0  0
    2.7905    3.3707   -0.6686 H   0  0  0  0  0  0  0  0  0  0  0  0
   -3.5053    2.1622   -0.4717 H   0  0  0  0  0  0  0  0  0  0  0  0
   -2.5442    1.2610   -1.6960 H   0  0  0  0  0  0  0  0  0  0  0  0
   -0.7612    2.7581   -1.2128 H   0  0  0  0  0  0  0  0  0  0  0  0
   -1.5085    3.5884    0.2050 H   0  0  0  0  0  0  0  0  0  0  0  0
    1.0459    3.5396    0.3442 H   0  0  0  0  0  0  0  0  0  0  0  0
    0.2977    2.6146    1.6931 H   0  0  0  0  0  0  0  0  0  0  0  0
   -1.8565    1.4131    1.1827 H   0  0  0  0  0  0  0  0  0  0  0  0
  1 23  1  0  0  0  0
  2  6  1  0  0  0  0
  3 13  1  0  0  0  0
  3  4  1  0  0  0  0
  3  1  1  0  0  0  0
  4 16  1  0  0  0  0
  5  1  1  0  0  0  0
  5 18  1  0  0  0  0
  5  6  1  0  0  0  0
  6 20  1  0  0  0  0
  7  9  1  6  0  0  0
  7  2  1  0  0  0  0
  8 21  1  0  0  0  0
  8 29  1  0  0  0  0
  8  7  1  0  0  0  0
  9 10  1  0  0  0  0
 11  9  1  0  0  0  0
 12  9  1  0  0  0  0
 14  3  1  0  0  0  0
 15  4  1  0  0  0  0
 17  5  1  0  0  0  0
 19  6  1  0  0  0  0
 22  8  1  0  0  0  0
 24 40  1  0  0  0  0
 25 28  1  0  0  0  0
 26 34  1  0  0  0  0
 26  4  1  0  0  0  0
 26 24  1  0  0  0  0
 27 24  1  0  0  0  0
 27 37  1  0  0  0  0
 27 28  1  0  0  0  0
 28 39  1  0  0  0  0
 29 30  1  6  0  0  0
 29 25  1  0  0  0  0
 30 31  1  0  0  0  0
 32 30  1  0  0  0  0
 33 30  1  0  0  0  0
 35 26  1  0  0  0  0
 36 27  1  0  0  0  0
 38 28  1  0  0  0  0
M  END
