2,9,10,11
 OpenBabel05122313063D

 28 28  0  0  0  0  0  0  0  0999 V2000
    0.0007    4.7803    2.1742 N   0  0  0  0  0  0  0  0  0  0  0  0
   -0.0000    1.3681    1.2694 N   0  0  0  0  0  2  0  0  0  0  0  0
    0.0000    3.8287    1.4832 C   0  0  0  0  0  0  0  0  0  0  0  0
    0.0000    2.6451    0.6929 C   0  0  0  0  0  0  0  0  0  0  0  0
    0.0000    1.2298    2.6033 C   0  0  0  0  0  3  0  0  0  0  0  0
    0.0000   -0.0000    3.2679 C   0  0  0  0  0  0  0  0  0  0  0  0
    0.0001    2.1581    3.2033 H   0  0  0  0  0  0  0  0  0  0  0  0
    0.0000   -0.0000    4.3648 H   0  0  0  0  0  0  0  0  0  0  0  0
    0.0000   -1.3681   -1.2694 N   0  0  0  0  0  2  0  0  0  0  0  0
    0.0000   -1.3681    1.2694 N   0  0  0  0  0  2  0  0  0  0  0  0
   -0.0000    1.3681   -1.2694 N   0  0  0  0  0  2  0  0  0  0  0  0
    0.0000    2.6451   -0.6929 C   0  0  0  0  0  0  0  0  0  0  0  0
   -0.0000   -1.2298    2.6033 C   0  0  0  0  0  0  0  0  0  0  0  0
   -0.0000   -2.6451   -0.6929 C   0  0  0  0  0  0  0  0  0  0  0  0
   -0.0000   -1.2298   -2.6033 C   0  0  0  0  0  3  0  0  0  0  0  0
   -0.0000   -2.6451    0.6929 C   0  0  0  0  0  0  0  0  0  0  0  0
    0.0000    1.2298   -2.6033 C   0  0  0  0  0  0  0  0  0  0  0  0
    0.0000    3.8287   -1.4832 C   0  0  0  0  0  0  0  0  0  0  0  0
   -0.0001   -2.1581    3.2033 H   0  0  0  0  0  0  0  0  0  0  0  0
   -0.0000   -3.8287   -1.4832 C   0  0  0  0  0  0  0  0  0  0  0  0
    0.0000    0.0000   -3.2679 C   0  0  0  0  0  0  0  0  0  0  0  0
   -0.0001   -2.1581   -3.2033 H   0  0  0  0  0  0  0  0  0  0  0  0
   -0.0000   -3.8287    1.4832 C   0  0  0  0  0  0  0  0  0  0  0  0
    0.0001    2.1581   -3.2033 H   0  0  0  0  0  0  0  0  0  0  0  0
    0.0007    4.7803   -2.1742 N   0  0  0  0  0  0  0  0  0  0  0  0
   -0.0007   -4.7803   -2.1742 N   0  0  0  0  0  0  0  0  0  0  0  0
    0.0000    0.0000   -4.3648 H   0  0  0  0  0  0  0  0  0  0  0  0
   -0.0007   -4.7803    2.1742 N   0  0  0  0  0  0  0  0  0  0  0  0
  2  5  1  0  0  0  0
  3  1  3  0  0  0  0
  4  2  1  0  0  0  0
  4  3  1  0  0  0  0
  5  7  1  0  0  0  0
  5  6  1  0  0  0  0
  6  8  1  0  0  0  0
  9 14  1  0  0  0  0
 10 13  1  0  0  0  0
 11 12  1  0  0  0  0
 12  4  2  0  0  0  0
 13 19  1  0  0  0  0
 13  6  2  0  0  0  0
 14 16  2  0  0  0  0
 15  9  1  0  0  0  0
 16 10  1  0  0  0  0
 16 23  1  0  0  0  0
 17 11  1  0  0  0  0
 18 12  1  0  0  0  0
 20 14  1  0  0  0  0
 21 17  2  0  0  0  0
 21 15  1  0  0  0  0
 22 15  1  0  0  0  0
 23 28  3  0  0  0  0
 24 17  1  0  0  0  0
 25 18  3  0  0  0  0
 26 20  3  0  0  0  0
 27 21  1  0  0  0  0
M  END
