5,6,7,8
 OpenBabel05122313063D

 60 64  0  0  1  0  0  0  0  0999 V2000
    5.3357   -3.2544   -0.7718 O   0  0  0  0  0  0  0  0  0  0  0  0
    5.3053    1.3377    0.8681 O   0  0  0  0  0  0  0  0  0  0  0  0
   -5.3357   -3.2545    0.7717 O   0  0  0  0  0  0  0  0  0  0  0  0
   -5.3054    1.3379   -0.8675 O   0  0  0  0  0  0  0  0  0  0  0  0
    1.2808   -1.0273   -0.4358 N   0  0  0  0  0  2  0  0  0  0  0  0
    1.2839    1.6706    0.0864 N   0  0  0  0  0  2  0  0  0  0  0  0
   -1.2808   -1.0273    0.4357 N   0  0  0  0  0  0  0  0  0  0  0  0
   -1.2839    1.6706   -0.0864 N   0  0  0  0  0  2  0  0  0  0  0  0
    1.1054   -2.2919   -0.9955 C   0  0  0  0  0  0  0  0  0  0  0  0
    2.3155   -2.9639   -1.1093 C   0  0  0  0  0  0  0  0  0  0  0  0
    3.3112   -2.0644   -0.6007 C   0  0  0  0  0  0  0  0  0  0  0  0
    2.6141   -0.8757   -0.2184 C   0  0  1  0  0  3  0  0  0  0  0  0
    4.7105   -2.1036   -0.4232 C   0  0  0  0  0  0  0  0  0  0  0  0
    5.3938   -0.9718    0.0966 C   0  0  0  0  0  0  0  0  0  0  0  0
    4.6950    0.2099    0.4086 C   0  0  0  0  0  0  0  0  0  0  0  0
    3.2769    0.3036    0.2278 C   0  0  0  0  0  0  0  0  0  0  0  0
    2.5835    1.5284    0.3360 C   0  0  0  0  0  0  0  0  0  0  0  0
    6.7399   -3.3512   -0.6237 C   0  0  0  0  0  0  0  0  0  0  0  0
    6.7125    1.3533    0.9984 C   0  0  0  0  0  0  0  0  0  0  0  0
    0.7095    2.9546    0.0325 C   0  0  0  0  0  0  0  0  0  0  0  0
    1.4078    4.1805    0.0268 C   0  0  0  0  0  0  0  0  0  0  0  0
    0.7036    5.3899    0.0083 C   0  0  0  0  0  0  0  0  0  0  0  0
   -0.7034    5.3899   -0.0087 C   0  0  0  0  0  0  0  0  0  0  0  0
   -1.4077    4.1806   -0.0271 C   0  0  0  0  0  0  0  0  0  0  0  0
   -0.7095    2.9546   -0.0327 C   0  0  0  0  0  0  0  0  0  0  0  0
   -1.1053   -2.2920    0.9952 C   0  0  0  0  0  3  0  0  0  0  0  0
   -2.3155   -2.9641    1.1090 C   0  0  0  0  0  0  0  0  0  0  0  0
   -3.3111   -2.0645    0.6005 C   0  0  0  0  0  0  0  0  0  0  0  0
   -2.6141   -0.8757    0.2184 C   0  0  0  0  0  0  0  0  0  0  0  0
   -4.7105   -2.1037    0.4231 C   0  0  0  0  0  0  0  0  0  0  0  0
   -5.3939   -0.9718   -0.0964 C   0  0  0  0  0  0  0  0  0  0  0  0
   -4.6951    0.2100   -0.4082 C   0  0  2  0  0  3  0  0  0  0  0  0
   -3.2770    0.3036   -0.2276 C   0  0  0  0  0  0  0  0  0  0  0  0
   -2.5835    1.5284   -0.3358 C   0  0  0  0  0  0  0  0  0  0  0  0
   -6.7399   -3.3513    0.6236 C   0  0  0  0  0  0  0  0  0  0  0  0
   -6.7126    1.3534   -0.9979 C   0  0  0  0  0  0  0  0  0  0  0  0
    0.1051   -2.6305   -1.2845 H   0  0  0  0  0  0  0  0  0  0  0  0
    2.4748   -3.9672   -1.5172 H   0  0  0  0  0  0  0  0  0  0  0  0
    6.4778   -1.0135    0.2428 H   0  0  0  0  0  0  0  0  0  0  0  0
    3.1753    2.4183    0.6059 H   0  0  0  0  0  0  0  0  0  0  0  0
    7.0532   -3.2340    0.4377 H   0  0  0  0  0  0  0  0  0  0  0  0
    7.2745   -2.5955   -1.2413 H   0  0  0  0  0  0  0  0  0  0  0  0
    7.0214   -4.3626   -0.9707 H   0  0  0  0  0  0  0  0  0  0  0  0
    6.9827    2.3636    1.3576 H   0  0  0  0  0  0  0  0  0  0  0  0
    7.2206    1.1649    0.0260 H   0  0  0  0  0  0  0  0  0  0  0  0
    7.0672    0.6014    1.7384 H   0  0  0  0  0  0  0  0  0  0  0  0
    2.5062    4.1945    0.0260 H   0  0  0  0  0  0  0  0  0  0  0  0
    1.2566    6.3410    0.0077 H   0  0  0  0  0  0  0  0  0  0  0  0
   -1.2564    6.3411   -0.0083 H   0  0  0  0  0  0  0  0  0  0  0  0
   -2.5061    4.1946   -0.0263 H   0  0  0  0  0  0  0  0  0  0  0  0
   -0.1051   -2.6307    1.2841 H   0  0  0  0  0  0  0  0  0  0  0  0
   -2.4747   -3.9674    1.5167 H   0  0  0  0  0  0  0  0  0  0  0  0
   -6.4778   -1.0134   -0.2424 H   0  0  0  0  0  0  0  0  0  0  0  0
   -3.1754    2.4184   -0.6055 H   0  0  0  0  0  0  0  0  0  0  0  0
   -7.0213   -4.3627    0.9704 H   0  0  0  0  0  0  0  0  0  0  0  0
   -7.0533   -3.2339   -0.4377 H   0  0  0  0  0  0  0  0  0  0  0  0
   -7.2745   -2.5957    1.2415 H   0  0  0  0  0  0  0  0  0  0  0  0
   -6.9828    2.3637   -1.3572 H   0  0  0  0  0  0  0  0  0  0  0  0
   -7.2208    1.1649   -0.0256 H   0  0  0  0  0  0  0  0  0  0  0  0
   -7.0672    0.6015   -1.7380 H   0  0  0  0  0  0  0  0  0  0  0  0
  1 18  1  0  0  0  0
  1 13  1  0  0  0  0
  2 19  1  0  0  0  0
  5 12  1  0  0  0  0
  6 17  1  0  0  0  0
  7 26  1  0  0  0  0
  8 25  1  0  0  0  0
  9  5  1  0  0  0  0
 10  9  2  0  0  0  0
 10 11  1  0  0  0  0
 11 13  2  0  0  0  0
 12 11  1  6  0  0  0
 12 16  1  0  0  0  0
 13 14  1  0  0  0  0
 14 39  1  0  0  0  0
 14 15  2  0  0  0  0
 15  2  1  0  0  0  0
 16 17  2  0  0  0  0
 16 15  1  0  0  0  0
 17 40  1  0  0  0  0
 18 41  1  0  0  0  0
 19 44  1  0  0  0  0
 19 46  1  0  0  0  0
 20  6  1  0  0  0  0
 21 20  1  0  0  0  0
 22 21  2  0  0  0  0
 23 49  1  0  0  0  0
 23 22  1  0  0  0  0
 24 50  1  0  0  0  0
 24 23  2  0  0  0  0
 25 24  1  0  0  0  0
 25 20  2  0  0  0  0
 26 27  1  0  0  0  0
 26 51  1  0  0  0  0
 27 52  1  0  0  0  0
 28 27  2  0  0  0  0
 29  7  2  0  0  0  0
 29 28  1  0  0  0  0
 30 28  1  0  0  0  0
 30  3  1  0  0  0  0
 31 30  2  0  0  0  0
 32  4  1  1  0  0  0
 32 33  1  0  0  0  0
 32 31  1  0  0  0  0
 33 29  1  0  0  0  0
 34 33  2  0  0  0  0
 34  8  1  0  0  0  0
 35  3  1  0  0  0  0
 35 55  1  0  0  0  0
 35 57  1  0  0  0  0
 36  4  1  0  0  0  0
 36 59  1  0  0  0  0
 37  9  1  0  0  0  0
 38 10  1  0  0  0  0
 42 18  1  0  0  0  0
 43 18  1  0  0  0  0
 45 19  1  0  0  0  0
 47 21  1  0  0  0  0
 48 22  1  0  0  0  0
 53 31  1  0  0  0  0
 54 34  1  0  0  0  0
 56 35  1  0  0  0  0
 58 36  1  0  0  0  0
 60 36  1  0  0  0  0
M  END
