1,2,3,4
 OpenBabel05122313063D

 58 61  0  0  1  0  0  0  0  0999 V2000
    1.5782   -0.8010   -0.0744 N   0  0  0  0  0  2  0  0  0  0  0  0
    1.8456    1.8084   -0.4891 N   0  0  0  0  0  2  0  0  0  0  0  0
   -1.1279    1.4774    0.9893 N   0  0  0  0  0  2  0  0  0  0  0  0
   -1.5294   -0.8222   -0.3251 N   0  0  0  0  0  2  0  0  0  0  0  0
    2.7892   -0.3449    0.0461 C   0  0  0  0  0  0  0  0  0  0  0  0
    3.9691   -1.1502    0.4557 C   0  0  0  0  0  0  0  0  0  0  0  0
    4.3863   -2.2627   -0.3080 C   0  0  0  0  0  0  0  0  0  0  0  0
    3.8482   -2.5248   -1.2311 H   0  0  0  0  0  0  0  0  0  0  0  0
    5.5020   -3.0111    0.0907 C   0  0  0  0  0  0  0  0  0  0  0  0
    5.8285   -3.8683   -0.5163 H   0  0  0  0  0  0  0  0  0  0  0  0
    6.2023   -2.6660    1.2578 C   0  0  0  0  0  0  0  0  0  0  0  0
    7.0751   -3.2581    1.5706 H   0  0  0  0  0  0  0  0  0  0  0  0
    5.7922   -1.5621    2.0229 C   0  0  0  0  0  0  0  0  0  0  0  0
    6.3375   -1.2920    2.9393 H   0  0  0  0  0  0  0  0  0  0  0  0
    4.6881   -0.7986    1.6204 C   0  0  0  0  0  0  0  0  0  0  0  0
    4.3683    0.0662    2.2217 H   0  0  0  0  0  0  0  0  0  0  0  0
    2.9818    1.1034   -0.2820 C   0  0  0  0  0  0  0  0  0  0  0  0
    4.2467    1.6947   -0.4423 C   0  0  0  0  0  0  0  0  0  0  0  0
    5.1570    1.0999   -0.2871 H   0  0  0  0  0  0  0  0  0  0  0  0
    4.3162    3.0431   -0.8282 C   0  0  0  0  0  0  0  0  0  0  0  0
    5.2941    3.5287   -0.9634 H   0  0  0  0  0  0  0  0  0  0  0  0
    3.1306    3.7522   -1.0608 C   0  0  0  0  0  0  0  0  0  0  0  0
    3.1451    4.8032   -1.3827 H   0  0  0  0  0  0  0  0  0  0  0  0
    1.9060    3.0859   -0.8879 C   0  0  0  0  0  0  0  0  0  0  0  0
    0.9396    3.5743   -1.0944 H   0  0  0  0  0  0  0  0  0  0  0  0
   -0.8722    2.6071    1.6695 C   0  0  0  0  0  3  0  0  0  0  0  0
    0.1470    3.0151    1.5741 H   0  0  0  0  0  0  0  0  0  0  0  0
   -1.8373    3.2429    2.4616 C   0  0  0  0  0  0  0  0  0  0  0  0
   -1.5834    4.1640    3.0048 H   0  0  0  0  0  0  0  0  0  0  0  0
   -3.1190    2.6777    2.5381 C   0  0  0  0  0  0  0  0  0  0  0  0
   -3.9040    3.1498    3.1470 H   0  0  0  0  0  0  0  0  0  0  0  0
   -3.3886    1.5019    1.8267 C   0  0  0  0  0  0  0  0  0  0  0  0
   -4.3787    1.0268    1.8558 H   0  0  0  0  0  0  0  0  0  0  0  0
   -2.3663    0.9204    1.0554 C   0  0  0  0  0  0  0  0  0  0  0  0
   -2.5732   -0.3320    0.2753 C   0  0  2  0  0  3  0  0  0  0  0  0
   -3.9178   -0.9760    0.2651 C   0  0  0  0  0  0  0  0  0  0  0  0
   -4.1398   -2.1057    1.0831 C   0  0  0  0  0  0  0  0  0  0  0  0
   -3.3310   -2.4847    1.7275 H   0  0  0  0  0  0  0  0  0  0  0  0
   -5.3938   -2.7326    1.0883 C   0  0  0  0  0  0  0  0  0  0  0  0
   -5.5643   -3.6072    1.7337 H   0  0  0  0  0  0  0  0  0  0  0  0
   -6.4281   -2.2430    0.2744 C   0  0  0  0  0  0  0  0  0  0  0  0
   -7.4105   -2.7382    0.2773 H   0  0  0  0  0  0  0  0  0  0  0  0
   -6.2082   -1.1217   -0.5409 C   0  0  0  0  0  0  0  0  0  0  0  0
   -7.0162   -0.7381   -1.1815 H   0  0  0  0  0  0  0  0  0  0  0  0
   -4.9601   -0.4805   -0.5477 C   0  0  0  0  0  0  0  0  0  0  0  0
   -4.7683    0.3922   -1.1900 H   0  0  0  0  0  0  0  0  0  0  0  0
   -1.6452   -1.9873   -1.2027 C   0  0  0  0  0  0  0  0  0  0  0  0
   -2.4375   -1.7844   -1.9568 H   0  0  0  0  0  0  0  0  0  0  0  0
   -2.0089   -2.8622   -0.6193 H   0  0  0  0  0  0  0  0  0  0  0  0
   -0.3247   -2.3091   -1.9010 C   0  0  0  0  0  0  0  0  0  0  0  0
    0.0519   -1.3828   -2.3884 H   0  0  0  0  0  0  0  0  0  0  0  0
   -0.5429   -3.0089   -2.7333 H   0  0  0  0  0  0  0  0  0  0  0  0
    0.7567   -2.9519   -1.0200 C   0  0  0  0  0  0  0  0  0  0  0  0
    0.4045   -3.9443   -0.6655 H   0  0  0  0  0  0  0  0  0  0  0  0
    1.6531   -3.1512   -1.6446 H   0  0  0  0  0  0  0  0  0  0  0  0
    1.1920   -2.1683    0.2325 C   0  0  0  0  0  0  0  0  0  0  0  0
    0.3299   -2.0958    0.9301 H   0  0  0  0  0  0  0  0  0  0  0  0
    2.0047   -2.7157    0.7522 H   0  0  0  0  0  0  0  0  0  0  0  0
  1  5  1  0  0  0  0
  1 56  1  0  0  0  0
  2 17  1  0  0  0  0
  3 34  1  0  0  0  0
  3 26  1  0  0  0  0
  5  6  1  0  0  0  0
  6 15  1  0  0  0  0
  7  9  1  0  0  0  0
  7  6  2  0  0  0  0
  8  7  1  0  0  0  0
  9 11  2  0  0  0  0
 10  9  1  0  0  0  0
 11 12  1  0  0  0  0
 11 13  1  0  0  0  0
 13 14  1  0  0  0  0
 15 13  2  0  0  0  0
 15 16  1  0  0  0  0
 17  5  2  0  0  0  0
 18 19  1  0  0  0  0
 18 17  1  0  0  0  0
 20 18  2  0  0  0  0
 21 20  1  0  0  0  0
 22 24  2  0  0  0  0
 22 20  1  0  0  0  0
 23 22  1  0  0  0  0
 24  2  1  0  0  0  0
 25 24  1  0  0  0  0
 26 28  1  0  0  0  0
 27 26  1  0  0  0  0
 28 30  2  0  0  0  0
 28 29  1  0  0  0  0
 30 31  1  0  0  0  0
 32 33  1  0  0  0  0
 32 30  1  0  0  0  0
 34 32  2  0  0  0  0
 35  4  1  1  0  0  0
 35 34  1  0  0  0  0
 36 35  1  0  0  0  0
 36 37  1  0  0  0  0
 37 39  2  0  0  0  0
 37 38  1  0  0  0  0
 39 40  1  0  0  0  0
 41 42  1  0  0  0  0
 41 39  1  0  0  0  0
 43 41  2  0  0  0  0
 44 43  1  0  0  0  0
 45 43  1  0  0  0  0
 45 36  2  0  0  0  0
 46 45  1  0  0  0  0
 47 49  1  0  0  0  0
 47  4  1  0  0  0  0
 48 47  1  0  0  0  0
 50 47  1  0  0  0  0
 50 53  1  0  0  0  0
 51 50  1  0  0  0  0
 52 50  1  0  0  0  0
 53 54  1  0  0  0  0
 53 56  1  0  0  0  0
 55 53  1  0  0  0  0
 56 58  1  0  0  0  0
 56 57  1  0  0  0  0
M  END
