1,3,4,6
 OpenBabel05122313063D

 55 58  0  0  0  0  0  0  0  0999 V2000
   -1.9215   -1.2457   -0.1774 N   0  0  0  0  0  0  0  0  0  0  0  0
   -0.1205   -2.7065   -0.2990 N   0  0  0  0  0  2  0  0  0  0  0  0
    0.5003   -1.5912   -0.0154 N   0  0  0  0  0  2  0  0  0  0  0  0
    0.5003    1.5913    0.0153 N   0  0  0  0  0  2  0  0  0  0  0  0
   -0.1206    2.7066    0.2986 N   0  0  0  0  0  2  0  0  0  0  0  0
   -1.9215    1.2457    0.1777 N   0  0  0  0  0  0  0  0  0  0  0  0
    5.9396   -1.8392    1.0440 F   0  0  0  0  0  0  0  0  0  0  0  0
    5.9396    1.8393   -1.0442 F   0  0  0  0  0  0  0  0  0  0  0  0
    2.4395   -0.8786    1.2561 C   0  0  0  0  0  0  0  0  0  0  0  0
    1.7808   -0.1959    1.8105 H   0  0  0  0  0  0  0  0  0  0  0  0
    3.8090   -0.9244    1.5311 C   0  0  0  0  0  0  0  0  0  0  0  0
    4.2630   -0.2812    2.2976 H   0  0  0  0  0  0  0  0  0  0  0  0
    4.6175   -1.8041    0.7995 C   0  0  0  0  0  0  0  0  0  0  0  0
    4.0803   -2.6536   -0.1786 C   0  0  0  0  0  0  0  0  0  0  0  0
    4.7489   -3.3348   -0.7243 H   0  0  0  0  0  0  0  0  0  0  0  0
    2.7076   -2.6077   -0.4439 C   0  0  0  0  0  0  0  0  0  0  0  0
    2.2531   -3.2577   -1.2043 H   0  0  0  0  0  0  0  0  0  0  0  0
    1.8820   -1.7065    0.2603 C   0  0  0  0  0  0  0  0  0  0  0  0
   -1.4464   -2.5262   -0.4233 C   0  0  0  0  0  0  0  0  0  0  0  0
   -2.5597   -3.3792   -0.6775 C   0  0  0  0  0  0  0  0  0  0  0  0
   -2.5152   -4.4507   -0.9001 H   0  0  0  0  0  0  0  0  0  0  0  0
   -3.6987   -2.5659   -0.5806 C   0  0  0  0  0  0  0  0  0  0  0  0
   -4.7405   -2.8836   -0.7051 H   0  0  0  0  0  0  0  0  0  0  0  0
   -3.2649   -1.2335   -0.2625 C   0  0  0  0  0  3  0  0  0  0  0  0
   -4.1049   -0.0001    0.0003 C   0  0  0  0  0  0  0  0  0  0  0  0
   -5.0141   -0.2686    1.2435 C   0  0  0  0  0  0  0  0  0  0  0  0
   -5.6754    0.6142    1.3760 H   0  0  0  0  0  0  0  0  0  0  0  0
   -5.6820   -1.1208    0.9960 H   0  0  0  0  0  0  0  0  0  0  0  0
   -4.2463   -0.5538    2.5316 C   0  0  0  0  0  0  0  0  0  0  0  0
   -3.6052   -1.4525    2.4285 H   0  0  0  0  0  0  0  0  0  0  0  0
   -4.9424   -0.7302    3.3755 H   0  0  0  0  0  0  0  0  0  0  0  0
   -3.5908    0.2975    2.8060 H   0  0  0  0  0  0  0  0  0  0  0  0
   -5.0156    0.2681   -1.2419 C   0  0  0  0  0  0  0  0  0  0  0  0
   -5.6768   -0.6148   -1.3736 H   0  0  0  0  0  0  0  0  0  0  0  0
   -5.6835    1.1201   -0.9935 H   0  0  0  0  0  0  0  0  0  0  0  0
   -4.2494    0.5536   -2.5308 C   0  0  0  0  0  0  0  0  0  0  0  0
   -3.6083    1.4524   -2.4283 H   0  0  0  0  0  0  0  0  0  0  0  0
   -4.9464    0.7299   -3.3739 H   0  0  0  0  0  0  0  0  0  0  0  0
   -3.5940   -0.2975   -2.8061 H   0  0  0  0  0  0  0  0  0  0  0  0
   -3.2650    1.2335    0.2623 C   0  0  0  0  0  0  0  0  0  0  0  0
   -3.6988    2.5660    0.5797 C   0  0  0  0  0  0  0  0  0  0  0  0
   -4.7407    2.8838    0.7039 H   0  0  0  0  0  0  0  0  0  0  0  0
   -2.5599    3.3794    0.6765 C   0  0  0  0  0  0  0  0  0  0  0  0
   -2.5154    4.4510    0.8985 H   0  0  0  0  0  0  0  0  0  0  0  0
   -1.4465    2.5263    0.4230 C   0  0  0  0  0  3  0  0  0  0  0  0
    1.8820    1.7065   -0.2604 C   0  0  0  0  0  0  0  0  0  0  0  0
    2.7075    2.6078    0.4438 C   0  0  0  0  0  0  0  0  0  0  0  0
    2.2530    3.2578    1.2041 H   0  0  0  0  0  0  0  0  0  0  0  0
    4.0802    2.6537    0.1785 C   0  0  0  0  0  0  0  0  0  0  0  0
    4.7488    3.3350    0.7241 H   0  0  0  0  0  0  0  0  0  0  0  0
    4.6174    1.8042   -0.7996 C   0  0  0  0  0  0  0  0  0  0  0  0
    3.8089    0.9244   -1.5312 C   0  0  0  0  0  0  0  0  0  0  0  0
    4.2629    0.2812   -2.2977 H   0  0  0  0  0  0  0  0  0  0  0  0
    2.4394    0.8786   -1.2562 C   0  0  0  0  0  0  0  0  0  0  0  0
    1.7808    0.1959   -1.8105 H   0  0  0  0  0  0  0  0  0  0  0  0
  2  3  1  0  0  0  0
  3 18  1  0  0  0  0
  4  5  1  0  0  0  0
  5 45  1  0  0  0  0
  6 40  2  0  0  0  0
  6 45  1  0  0  0  0
  8 51  1  0  0  0  0
  9 11  1  0  0  0  0
  9 10  1  0  0  0  0
 11 12  1  0  0  0  0
 13  7  1  0  0  0  0
 13 11  2  0  0  0  0
 14 13  1  0  0  0  0
 15 14  1  0  0  0  0
 16 14  2  0  0  0  0
 16 18  1  0  0  0  0
 17 16  1  0  0  0  0
 18  9  2  0  0  0  0
 19  2  1  0  0  0  0
 19  1  2  0  0  0  0
 20 22  2  0  0  0  0
 20 19  1  0  0  0  0
 21 20  1  0  0  0  0
 22 24  1  0  0  0  0
 23 22  1  0  0  0  0
 24  1  1  0  0  0  0
 24 25  1  0  0  0  0
 25 40  1  0  0  0  0
 25 26  1  0  0  0  0
 26 27  1  0  0  0  0
 26 29  1  0  0  0  0
 28 26  1  0  0  0  0
 29 32  1  0  0  0  0
 29 31  1  0  0  0  0
 30 29  1  0  0  0  0
 33 35  1  0  0  0  0
 33 25  1  0  0  0  0
 34 33  1  0  0  0  0
 36 37  1  0  0  0  0
 36 33  1  0  0  0  0
 38 36  1  0  0  0  0
 39 36  1  0  0  0  0
 40 41  1  0  0  0  0
 41 43  2  0  0  0  0
 41 42  1  0  0  0  0
 43 44  1  0  0  0  0
 45 43  1  0  0  0  0
 46  4  1  0  0  0  0
 46 47  1  0  0  0  0
 47 48  1  0  0  0  0
 49 47  2  0  0  0  0
 49 50  1  0  0  0  0
 51 49  1  0  0  0  0
 52 54  1  0  0  0  0
 52 51  2  0  0  0  0
 53 52  1  0  0  0  0
 54 46  2  0  0  0  0
 55 54  1  0  0  0  0
M  END
