1,3,4,6
 OpenBabel05122313063D

 55 58  0  0  0  0  0  0  0  0999 V2000
   -3.6530   -1.1645   -0.4760 N   0  0  0  0  0  0  0  0  0  0  0  0
   -1.8535   -2.5531   -0.9495 N   0  0  0  0  0  2  0  0  0  0  0  0
   -1.2322   -1.5412   -0.3991 N   0  0  0  0  0  2  0  0  0  0  0  0
   -1.2323    1.5413    0.3990 N   0  0  0  0  0  2  0  0  0  0  0  0
   -1.8536    2.5533    0.9490 N   0  0  0  0  0  2  0  0  0  0  0  0
   -3.6531    1.1645    0.4762 N   0  0  0  0  0  0  0  0  0  0  0  0
    4.9667   -2.1186    0.7497 I   0  0  0  0  0  0  0  0  0  0  0  0
    4.9667    2.1187   -0.7497 I   0  0  0  0  0  0  0  0  0  0  0  0
    0.7008   -1.1514    1.0115 C   0  0  0  0  0  0  0  0  0  0  0  0
    0.0437   -0.6074    1.7045 H   0  0  0  0  0  0  0  0  0  0  0  0
    2.0685   -1.2685    1.2780 C   0  0  0  0  0  0  0  0  0  0  0  0
    2.4938   -0.8100    2.1814 H   0  0  0  0  0  0  0  0  0  0  0  0
    2.8876   -1.9661    0.3741 C   0  0  0  0  0  0  0  0  0  0  0  0
    2.3426   -2.5652   -0.7763 C   0  0  0  0  0  0  0  0  0  0  0  0
    2.9885   -3.1149   -1.4758 H   0  0  0  0  0  0  0  0  0  0  0  0
    0.9718   -2.4507   -1.0324 C   0  0  0  0  0  0  0  0  0  0  0  0
    0.5222   -2.9087   -1.9245 H   0  0  0  0  0  0  0  0  0  0  0  0
    0.1451   -1.7263   -0.1490 C   0  0  0  0  0  0  0  0  0  0  0  0
   -3.1778   -2.3464   -1.0281 C   0  0  0  0  0  0  0  0  0  0  0  0
   -4.2918   -3.1107   -1.4847 C   0  0  0  0  0  0  0  0  0  0  0  0
   -4.2474   -4.0950   -1.9629 H   0  0  0  0  0  0  0  0  0  0  0  0
   -5.4299   -2.3455   -1.1924 C   0  0  0  0  0  0  0  0  0  0  0  0
   -6.4717   -2.6222   -1.3920 H   0  0  0  0  0  0  0  0  0  0  0  0
   -4.9958   -1.1314   -0.5565 C   0  0  0  0  0  3  0  0  0  0  0  0
   -5.8358   -0.0002    0.0003 C   0  0  0  0  0  0  0  0  0  0  0  0
   -6.7450   -0.5655    1.1399 C   0  0  0  0  0  0  0  0  0  0  0  0
   -7.4084    0.2570    1.4825 H   0  0  0  0  0  0  0  0  0  0  0  0
   -7.4107   -1.3329    0.6911 H   0  0  0  0  0  0  0  0  0  0  0  0
   -5.9773   -1.1544    2.3204 C   0  0  0  0  0  0  0  0  0  0  0  0
   -5.3317   -1.9977    2.0019 H   0  0  0  0  0  0  0  0  0  0  0  0
   -6.6736   -1.5354    3.0935 H   0  0  0  0  0  0  0  0  0  0  0  0
   -5.3264   -0.3936    2.7971 H   0  0  0  0  0  0  0  0  0  0  0  0
   -6.7468    0.5645   -1.1380 C   0  0  0  0  0  0  0  0  0  0  0  0
   -7.4101   -0.2584   -1.4799 H   0  0  0  0  0  0  0  0  0  0  0  0
   -7.4126    1.3314   -0.6885 H   0  0  0  0  0  0  0  0  0  0  0  0
   -5.9810    1.1540   -2.3195 C   0  0  0  0  0  0  0  0  0  0  0  0
   -5.3357    1.9978   -2.0018 H   0  0  0  0  0  0  0  0  0  0  0  0
   -6.6785    1.5345   -3.0918 H   0  0  0  0  0  0  0  0  0  0  0  0
   -5.3301    0.3936   -2.7970 H   0  0  0  0  0  0  0  0  0  0  0  0
   -4.9959    1.1315    0.5563 C   0  0  0  0  0  0  0  0  0  0  0  0
   -5.4300    2.3459    1.1915 C   0  0  0  0  0  0  0  0  0  0  0  0
   -6.4719    2.6227    1.3908 H   0  0  0  0  0  0  0  0  0  0  0  0
   -4.2920    3.1112    1.4837 C   0  0  0  0  0  0  0  0  0  0  0  0
   -4.2476    4.0957    1.9614 H   0  0  0  0  0  0  0  0  0  0  0  0
   -3.1778    2.3466    1.0277 C   0  0  0  0  0  3  0  0  0  0  0  0
    0.1451    1.7264    0.1489 C   0  0  0  0  0  0  0  0  0  0  0  0
    0.9717    2.4507    1.0323 C   0  0  0  0  0  0  0  0  0  0  0  0
    0.5221    2.9088    1.9243 H   0  0  0  0  0  0  0  0  0  0  0  0
    2.3426    2.5653    0.7762 C   0  0  0  0  0  0  0  0  0  0  0  0
    2.9884    3.1150    1.4757 H   0  0  0  0  0  0  0  0  0  0  0  0
    2.8876    1.9661   -0.3742 C   0  0  0  0  0  0  0  0  0  0  0  0
    2.0684    1.2686   -1.2781 C   0  0  0  0  0  0  0  0  0  0  0  0
    2.4938    0.8101   -2.1814 H   0  0  0  0  0  0  0  0  0  0  0  0
    0.7007    1.1514   -1.0116 C   0  0  0  0  0  0  0  0  0  0  0  0
    0.0437    0.6075   -1.7046 H   0  0  0  0  0  0  0  0  0  0  0  0
  2  3  1  0  0  0  0
  3 18  1  0  0  0  0
  4  5  1  0  0  0  0
  5 45  1  0  0  0  0
  6 40  2  0  0  0  0
  6 45  1  0  0  0  0
  8 51  1  0  0  0  0
  9 11  1  0  0  0  0
  9 10  1  0  0  0  0
 11 12  1  0  0  0  0
 13  7  1  0  0  0  0
 13 11  2  0  0  0  0
 14 13  1  0  0  0  0
 15 14  1  0  0  0  0
 16 14  2  0  0  0  0
 16 18  1  0  0  0  0
 17 16  1  0  0  0  0
 18  9  2  0  0  0  0
 19  2  1  0  0  0  0
 19  1  2  0  0  0  0
 20 22  2  0  0  0  0
 20 19  1  0  0  0  0
 21 20  1  0  0  0  0
 22 24  1  0  0  0  0
 23 22  1  0  0  0  0
 24  1  1  0  0  0  0
 24 25  1  0  0  0  0
 25 40  1  0  0  0  0
 25 26  1  0  0  0  0
 26 27  1  0  0  0  0
 26 29  1  0  0  0  0
 28 26  1  0  0  0  0
 29 32  1  0  0  0  0
 29 31  1  0  0  0  0
 30 29  1  0  0  0  0
 33 35  1  0  0  0  0
 33 25  1  0  0  0  0
 34 33  1  0  0  0  0
 36 37  1  0  0  0  0
 36 33  1  0  0  0  0
 38 36  1  0  0  0  0
 39 36  1  0  0  0  0
 40 41  1  0  0  0  0
 41 42  1  0  0  0  0
 41 43  2  0  0  0  0
 43 44  1  0  0  0  0
 45 43  1  0  0  0  0
 46  4  1  0  0  0  0
 46 47  1  0  0  0  0
 47 48  1  0  0  0  0
 49 47  2  0  0  0  0
 49 50  1  0  0  0  0
 51 49  1  0  0  0  0
 52 54  1  0  0  0  0
 52 51  2  0  0  0  0
 53 52  1  0  0  0  0
 54 46  2  0  0  0  0
 55 54  1  0  0  0  0
M  END
