1,2,3,4
 OpenBabel05122313063D

 43 45  0  0  1  0  0  0  0  0999 V2000
    1.5440   -1.0206    0.0998 N   0  0  0  0  0  2  0  0  0  0  0  0
   -2.3193    0.1051    0.0973 N   0  0  0  0  0  2  0  0  0  0  0  0
   -0.3482   -0.2383   -1.7330 N   0  0  0  0  0  0  0  0  0  0  0  0
    0.6102    1.6956    0.1762 N   0  0  0  0  0  2  0  0  0  0  0  0
    0.0014    1.1693   -2.0970 C   0  0  0  0  0  0  0  0  0  0  0  0
   -0.9441    1.7498   -2.0742 H   0  0  0  0  0  0  0  0  0  0  0  0
    0.3862    1.2040   -3.1378 H   0  0  0  0  0  0  0  0  0  0  0  0
    0.9493    1.8271   -1.1289 C   0  0  1  0  0  3  0  0  0  0  0  0
    2.0319    2.5956   -1.5666 C   0  0  0  0  0  0  0  0  0  0  0  0
    2.2710    2.6636   -2.6376 H   0  0  0  0  0  0  0  0  0  0  0  0
    2.7906    3.2786   -0.6027 C   0  0  0  0  0  0  0  0  0  0  0  0
    3.6602    3.8836   -0.8994 H   0  0  0  0  0  0  0  0  0  0  0  0
    2.4060    3.1933    0.7358 C   0  0  0  0  0  0  0  0  0  0  0  0
    2.9542    3.7433    1.5139 H   0  0  0  0  0  0  0  0  0  0  0  0
    1.2928    2.4047    1.1113 C   0  0  0  0  0  0  0  0  0  0  0  0
    0.8120    2.3824    2.5262 C   0  0  0  0  0  0  0  0  0  0  0  0
    1.5185    2.8979    3.2012 H   0  0  0  0  0  0  0  0  0  0  0  0
    0.6231    1.3461    2.8759 H   0  0  0  0  0  0  0  0  0  0  0  0
   -0.1681    2.9008    2.5895 H   0  0  0  0  0  0  0  0  0  0  0  0
    0.6971   -1.2066   -2.1765 C   0  0  0  0  0  0  0  0  0  0  0  0
    1.0310   -1.0007   -3.2162 H   0  0  0  0  0  0  0  0  0  0  0  0
    0.2352   -2.2154   -2.1635 H   0  0  0  0  0  0  0  0  0  0  0  0
    1.8661   -1.2111   -1.2139 C   0  0  2  0  0  3  0  0  0  0  0  0
    3.1851   -1.4682   -1.6003 C   0  0  0  0  0  0  0  0  0  0  0  0
    3.4259   -1.6120   -2.6633 H   0  0  0  0  0  0  0  0  0  0  0  0
    4.1834   -1.5472   -0.6156 C   0  0  0  0  0  0  0  0  0  0  0  0
    5.2258   -1.7532   -0.8994 H   0  0  0  0  0  0  0  0  0  0  0  0
    3.8323   -1.3591    0.7279 C   0  0  0  0  0  0  0  0  0  0  0  0
    4.5824   -1.4170    1.5290 H   0  0  0  0  0  0  0  0  0  0  0  0
    2.4973   -1.0909    1.0517 C   0  0  0  0  0  0  0  0  0  0  0  0
    2.1401   -0.9369    2.0824 H   0  0  0  0  0  0  0  0  0  0  0  0
   -1.7384   -0.5329   -2.1917 C   0  0  0  0  0  0  0  0  0  0  0  0
   -1.9175   -0.1501   -3.2192 H   0  0  0  0  0  0  0  0  0  0  0  0
   -1.8631   -1.6332   -2.2256 H   0  0  0  0  0  0  0  0  0  0  0  0
   -2.7335    0.0482   -1.2053 C   0  0  1  0  0  3  0  0  0  0  0  0
   -4.0205    0.4588   -1.5667 C   0  0  0  0  0  0  0  0  0  0  0  0
   -4.3314    0.4178   -2.6207 H   0  0  0  0  0  0  0  0  0  0  0  0
   -4.9026    0.9099   -0.5709 C   0  0  0  0  0  0  0  0  0  0  0  0
   -5.9202    1.2315   -0.8370 H   0  0  0  0  0  0  0  0  0  0  0  0
   -4.4666    0.9447    0.7599 C   0  0  0  0  0  0  0  0  0  0  0  0
   -5.1263    1.2860    1.5699 H   0  0  0  0  0  0  0  0  0  0  0  0
   -3.1613    0.5371    1.0599 C   0  0  0  0  0  0  0  0  0  0  0  0
   -2.7459    0.5297    2.0804 H   0  0  0  0  0  0  0  0  0  0  0  0
  1 30  1  0  0  0  0
  2 42  1  0  0  0  0
  4 15  1  0  0  0  0
  5  6  1  0  0  0  0
  5  3  1  0  0  0  0
  7  5  1  0  0  0  0
  8  5  1  6  0  0  0
  8  4  1  0  0  0  0
  9  8  1  0  0  0  0
  9 11  2  0  0  0  0
 10  9  1  0  0  0  0
 11 13  1  0  0  0  0
 12 11  1  0  0  0  0
 13 15  2  0  0  0  0
 13 14  1  0  0  0  0
 15 16  1  0  0  0  0
 16 19  1  0  0  0  0
 16 18  1  0  0  0  0
 16 17  1  0  0  0  0
 20 22  1  0  0  0  0
 20  3  1  0  0  0  0
 21 20  1  0  0  0  0
 23 20  1  1  0  0  0
 23  1  1  0  0  0  0
 24 23  1  0  0  0  0
 24 26  2  0  0  0  0
 25 24  1  0  0  0  0
 26 28  1  0  0  0  0
 27 26  1  0  0  0  0
 28 30  2  0  0  0  0
 28 29  1  0  0  0  0
 30 31  1  0  0  0  0
 32  3  1  0  0  0  0
 33 32  1  0  0  0  0
 34 32  1  0  0  0  0
 35 32  1  1  0  0  0
 35  2  1  0  0  0  0
 36 35  1  0  0  0  0
 36 38  2  0  0  0  0
 37 36  1  0  0  0  0
 38 40  1  0  0  0  0
 39 38  1  0  0  0  0
 40 42  2  0  0  0  0
 40 41  1  0  0  0  0
 42 43  1  0  0  0  0
M  END
