1,16,23,27
q = -2.0, confidence = 0.86

 58 60  0  0  1  0  0  0  0  0999 V2000
    0.4518   -1.6042   -0.6064 N   0  0  0  0  0  2  0  0  0  0  0  0
    0.9899   -1.3026   -2.1291 S   0  0  0  0  0  0  0  0  0  0  0  0
    0.2654   -0.0661   -2.5316 O   0  0  0  0  0  0  0  0  0  0  0  0
    1.0659   -2.4879   -3.0034 O   0  0  0  0  0  0  0  0  0  0  0  0
    2.7793   -0.6939   -1.9579 C   0  0  0  0  0  0  0  0  0  0  0  0
    2.8041    0.4944   -1.3412 F   0  0  0  0  0  0  0  0  0  0  0  0
    3.5156   -1.5715   -1.2523 F   0  0  0  0  0  0  0  0  0  0  0  0
    3.3098   -0.5663   -3.1791 F   0  0  0  0  0  0  0  0  0  0  0  0
    0.3872   -2.8721   -0.0395 C   0  0  0  0  0  0  0  0  0  0  0  0
    1.4141   -3.8306   -0.2219 C   0  0  0  0  0  0  0  0  0  0  0  0
    1.3521   -5.0877    0.3800 C   0  0  0  0  0  0  0  0  0  0  0  0
    0.2547   -5.4496    1.1851 C   0  0  0  0  0  0  0  0  0  0  0  0
   -0.7829   -4.5364    1.3505 C   0  0  0  0  0  0  0  0  0  0  0  0
   -0.7556   -3.2464    0.7569 C   0  0  0  0  0  0  0  0  0  0  0  0
   -1.9675   -2.4526    0.9134 C   0  0  0  0  0  3  0  0  0  0  0  0
   -2.1050   -1.1971    0.6256 N   0  0  0  0  0  2  0  0  0  0  0  0
   -3.3680   -0.4695    0.6347 C   0  0  2  0  0  0  0  0  0  0  0  0
   -4.6420   -1.3140    0.7107 C   0  0  0  0  0  0  0  0  0  0  0  0
   -5.9015   -0.4432    0.6322 C   0  0  0  0  0  0  0  0  0  0  0  0
   -5.9032    0.4211   -0.6324 C   0  0  0  0  0  0  0  0  0  0  0  0
   -4.6469    1.2967   -0.7110 C   0  0  0  0  0  0  0  0  0  0  0  0
   -3.3698    0.4568   -0.6352 C   0  0  1  0  0  0  0  0  0  0  0  0
   -2.1096    1.1892   -0.6263 N   0  0  0  0  0  2  0  0  0  0  0  0
   -1.9768    2.4453   -0.9136 C   0  0  0  0  0  3  0  0  0  0  0  0
   -0.7679    3.2437   -0.7570 C   0  0  0  0  0  0  0  0  0  0  0  0
    0.3763    2.8736    0.0392 C   0  0  0  0  0  0  0  0  0  0  0  0
    0.4457    1.6057    0.6059 N   0  0  0  0  0  2  0  0  0  0  0  0
    0.9840    1.3062    2.1289 S   0  0  0  0  0  0  0  0  0  0  0  0
    1.0550    2.4918    3.0032 O   0  0  0  0  0  0  0  0  0  0  0  0
    0.2640    0.0669    2.5311 O   0  0  0  0  0  0  0  0  0  0  0  0
    2.7758    0.7043    1.9587 C   0  0  0  0  0  0  0  0  0  0  0  0
    3.3061    0.5787    3.1802 F   0  0  0  0  0  0  0  0  0  0  0  0
    2.8054   -0.4839    1.3420 F   0  0  0  0  0  0  0  0  0  0  0  0
    3.5092    1.5846    1.2535 F   0  0  0  0  0  0  0  0  0  0  0  0
    1.3995    3.8359    0.2220 C   0  0  0  0  0  0  0  0  0  0  0  0
    1.3327    5.0929   -0.3796 C   0  0  0  0  0  0  0  0  0  0  0  0
    0.2339    5.4508   -1.1846 C   0  0  0  0  0  0  0  0  0  0  0  0
   -0.8002    4.5337   -1.3503 C   0  0  0  0  0  0  0  0  0  0  0  0
   -1.6816    4.8043   -1.9535 H   0  0  0  0  0  0  0  0  0  0  0  0
    0.1868    6.4392   -1.6635 H   0  0  0  0  0  0  0  0  0  0  0  0
    2.1576    5.8051   -0.2247 H   0  0  0  0  0  0  0  0  0  0  0  0
    2.2651    3.5689    0.8398 H   0  0  0  0  0  0  0  0  0  0  0  0
   -2.8497    3.0169   -1.2961 H   0  0  0  0  0  0  0  0  0  0  0  0
   -3.3331   -0.2327   -1.5126 H   0  0  0  0  0  0  0  0  0  0  0  0
   -4.6547    1.8879   -1.6502 H   0  0  0  0  0  0  0  0  0  0  0  0
   -4.6447    2.0281    0.1280 H   0  0  0  0  0  0  0  0  0  0  0  0
   -5.9495   -0.2369   -1.5283 H   0  0  0  0  0  0  0  0  0  0  0  0
   -6.8096    1.0593   -0.6671 H   0  0  0  0  0  0  0  0  0  0  0  0
   -6.8055   -1.0848    0.6671 H   0  0  0  0  0  0  0  0  0  0  0  0
   -5.9502    0.2146    1.5282 H   0  0  0  0  0  0  0  0  0  0  0  0
   -4.6371   -2.0455   -0.1283 H   0  0  0  0  0  0  0  0  0  0  0  0
   -4.6474   -1.9053    1.6499 H   0  0  0  0  0  0  0  0  0  0  0  0
   -3.3336    0.2203    1.5121 H   0  0  0  0  0  0  0  0  0  0  0  0
   -2.8381   -3.0273    1.2963 H   0  0  0  0  0  0  0  0  0  0  0  0
   -1.6633   -4.8102    1.9538 H   0  0  0  0  0  0  0  0  0  0  0  0
    0.2113   -6.4381    1.6642 H   0  0  0  0  0  0  0  0  0  0  0  0
    2.1797   -5.7968    0.2253 H   0  0  0  0  0  0  0  0  0  0  0  0
    2.2787   -3.5605   -0.8398 H   0  0  0  0  0  0  0  0  0  0  0  0
  1  9  1  0  0  0  0
  2  5  1  0  0  0  0
  2  1  1  0  0  0  0
  3  2  2  0  0  0  0
  4  2  2  0  0  0  0
  5  6  1  0  0  0  0
  5  7  1  0  0  0  0
  8  5  1  0  0  0  0
  9 14  1  0  0  0  0
 10  9  2  0  0  0  0
 10 11  1  0  0  0  0
 11 12  2  0  0  0  0
 12 13  1  0  0  0  0
 12 56  1  0  0  0  0
 13 55  1  0  0  0  0
 14 15  1  0  0  0  0
 14 13  2  0  0  0  0
 15 54  1  0  0  0  0
 16 17  1  0  0  0  0
 16 15  1  0  0  0  0
 17 18  1  0  0  0  0
 17 53  1  1  0  0  0
 18 52  1  0  0  0  0
 19 49  1  0  0  0  0
 19 18  1  0  0  0  0
 19 50  1  0  0  0  0
 20 19  1  0  0  0  0
 21 22  1  0  0  0  0
 21 20  1  0  0  0  0
 21 46  1  0  0  0  0
 22 44  1  6  0  0  0
 22 23  1  0  0  0  0
 22 17  1  0  0  0  0
 24 25  1  0  0  0  0
 24 23  1  0  0  0  0
 25 26  1  0  0  0  0
 26 35  2  0  0  0  0
 26 27  1  0  0  0  0
 27 28  1  0  0  0  0
 28 30  2  0  0  0  0
 28 29  2  0  0  0  0
 31 28  1  0  0  0  0
 31 32  1  0  0  0  0
 33 31  1  0  0  0  0
 34 31  1  0  0  0  0
 35 42  1  0  0  0  0
 36 41  1  0  0  0  0
 36 35  1  0  0  0  0
 37 36  2  0  0  0  0
 38 37  1  0  0  0  0
 38 25  2  0  0  0  0
 39 38  1  0  0  0  0
 40 37  1  0  0  0  0
 43 24  1  0  0  0  0
 45 21  1  0  0  0  0
 47 20  1  0  0  0  0
 48 20  1  0  0  0  0
 51 18  1  0  0  0  0
 57 11  1  0  0  0  0
 58 10  1  0  0  0  0
M  END
