3,4,5,6
 OpenBabel05122313063D

 44 43  0  0  1  0  0  0  0  0999 V2000
    1.7194   -2.8096    0.0993 O   0  0  0  0  0  0  0  0  0  0  0  0
   -0.6571   -3.1851   -0.2185 O   0  0  0  0  0  1  0  0  0  0  0  0
    1.7105   -1.4832    0.0762 N   0  0  0  0  0  2  0  0  0  0  0  0
   -1.0830   -1.9394   -0.2526 N   0  0  0  0  0  2  0  0  0  0  0  0
    1.2607    1.0239   -0.0622 N   0  0  0  0  0  2  0  0  0  0  0  0
   -1.4667    0.5820   -0.2842 N   0  0  0  0  0  2  0  0  0  0  0  0
    2.8358   -0.8212   -0.0282 C   0  0  2  0  0  3  0  0  0  0  0  0
   -2.2900   -1.6567   -0.6877 C   0  0  2  0  0  3  0  0  0  0  0  0
    2.6804    0.6682   -0.1788 C   0  0  1  0  0  0  0  0  0  0  0  0
   -2.6514   -0.1984   -0.6503 C   0  0  1  0  0  0  0  0  0  0  0  0
    4.1435   -1.5364   -0.0615 C   0  0  0  0  0  0  0  0  0  0  0  0
   -3.2131   -2.7388   -1.1318 C   0  0  0  0  0  0  0  0  0  0  0  0
    3.3300    1.1089   -1.5103 C   0  0  0  0  0  0  0  0  0  0  0  0
   -3.8238    0.0541    0.3219 C   0  0  0  0  0  0  0  0  0  0  0  0
    0.9592    2.4000   -0.4248 C   0  0  0  0  0  0  0  0  0  0  0  0
   -1.5048    1.9582   -0.7431 C   0  0  0  0  0  0  0  0  0  0  0  0
   -0.4652    2.8893   -0.0900 C   0  0  0  0  0  0  0  0  0  0  0  0
   -0.6910    3.0042    1.4281 C   0  0  0  0  0  0  0  0  0  0  0  0
   -0.6273    4.2840   -0.7225 C   0  0  0  0  0  0  0  0  0  0  0  0
    3.2539    1.1606    0.6516 H   0  0  0  0  0  0  0  0  0  0  0  0
   -2.9862    0.0895   -1.6801 H   0  0  0  0  0  0  0  0  0  0  0  0
    4.9950   -0.8464    0.0841 H   0  0  0  0  0  0  0  0  0  0  0  0
    4.2749   -2.0671   -1.0295 H   0  0  0  0  0  0  0  0  0  0  0  0
    4.1556   -2.3229    0.7199 H   0  0  0  0  0  0  0  0  0  0  0  0
   -3.6054   -3.3045   -0.2583 H   0  0  0  0  0  0  0  0  0  0  0  0
   -2.6477   -3.4744   -1.7392 H   0  0  0  0  0  0  0  0  0  0  0  0
   -4.0694   -2.3418   -1.7082 H   0  0  0  0  0  0  0  0  0  0  0  0
    2.7669    0.6828   -2.3654 H   0  0  0  0  0  0  0  0  0  0  0  0
    4.3791    0.7598   -1.5720 H   0  0  0  0  0  0  0  0  0  0  0  0
    3.3430    2.2105   -1.6098 H   0  0  0  0  0  0  0  0  0  0  0  0
   -4.0964    1.1279    0.3301 H   0  0  0  0  0  0  0  0  0  0  0  0
   -3.5219   -0.2378    1.3474 H   0  0  0  0  0  0  0  0  0  0  0  0
   -4.7260   -0.5221    0.0337 H   0  0  0  0  0  0  0  0  0  0  0  0
    1.1168    2.5642   -1.5182 H   0  0  0  0  0  0  0  0  0  0  0  0
    1.6800    3.0810    0.0930 H   0  0  0  0  0  0  0  0  0  0  0  0
   -2.5143    2.3883   -0.5363 H   0  0  0  0  0  0  0  0  0  0  0  0
   -1.3781    2.0051   -1.8553 H   0  0  0  0  0  0  0  0  0  0  0  0
    0.0265    3.7267    1.8685 H   0  0  0  0  0  0  0  0  0  0  0  0
   -0.5672    2.0380    1.9502 H   0  0  0  0  0  0  0  0  0  0  0  0
   -1.7154    3.3757    1.6370 H   0  0  0  0  0  0  0  0  0  0  0  0
    0.1276    4.9897   -0.3196 H   0  0  0  0  0  0  0  0  0  0  0  0
   -1.6298    4.7028   -0.4997 H   0  0  0  0  0  0  0  0  0  0  0  0
   -0.5085    4.2510   -1.8255 H   0  0  0  0  0  0  0  0  0  0  0  0
    0.5869   -3.0860   -0.0091 H   0  0  0  0  0  0  0  0  0  0  0  0
  3  1  1  0  0  0  0
  4  2  1  0  0  0  0
  7  3  1  6  0  0  0
  8 10  1  0  0  0  0
  8  4  1  1  0  0  0
  9  5  1  0  0  0  0
  9  7  1  0  0  0  0
  9 20  1  1  0  0  0
 10 21  1  6  0  0  0
 10  6  1  0  0  0  0
 10 14  1  0  0  0  0
 11  7  1  0  0  0  0
 11 22  1  0  0  0  0
 11 24  1  0  0  0  0
 12  8  1  0  0  0  0
 12 25  1  0  0  0  0
 13  9  1  0  0  0  0
 14 31  1  0  0  0  0
 14 32  1  0  0  0  0
 15 17  1  0  0  0  0
 15  5  1  0  0  0  0
 15 35  1  0  0  0  0
 16 36  1  0  0  0  0
 16  6  1  0  0  0  0
 16 17  1  0  0  0  0
 17 18  1  0  0  0  0
 18 40  1  0  0  0  0
 18 38  1  0  0  0  0
 18 39  1  0  0  0  0
 19 42  1  0  0  0  0
 19 41  1  0  0  0  0
 19 17  1  0  0  0  0
 23 11  1  0  0  0  0
 26 12  1  0  0  0  0
 27 12  1  0  0  0  0
 28 13  1  0  0  0  0
 29 13  1  0  0  0  0
 30 13  1  0  0  0  0
 33 14  1  0  0  0  0
 34 15  1  0  0  0  0
 37 16  1  0  0  0  0
 43 19  1  0  0  0  0
 44  1  1  0  0  0  0
M  END
