1,2,3,4
 OpenBabel05122313063D

 84 88  0  0  0  0  0  0  0  0999 V2000
    1.2257   -1.3045   -0.5220 N   0  0  0  0  0  2  0  0  0  0  0  0
   -1.4430   -1.4688    0.0508 N   0  0  0  0  0  0  0  0  0  0  0  0
   -1.6105    1.2580    0.0243 N   0  0  0  0  0  0  0  0  0  0  0  0
    1.0589    1.4203   -0.5367 N   0  0  0  0  0  0  0  0  0  0  0  0
    2.4315   -1.0865   -1.1733 C   0  0  0  0  0  0  0  0  0  0  0  0
    3.1767   -2.3230   -1.2469 C   0  0  0  0  0  0  0  0  0  0  0  0
    4.1423   -2.4580   -1.7440 H   0  0  0  0  0  0  0  0  0  0  0  0
    2.4584   -3.2665   -0.5576 C   0  0  0  0  0  0  0  0  0  0  0  0
    2.7213   -4.3168   -0.3967 H   0  0  0  0  0  0  0  0  0  0  0  0
    1.2289   -2.6347   -0.1369 C   0  0  0  0  0  0  0  0  0  0  0  0
    0.1498   -3.3316    0.4364 C   0  0  0  0  0  0  0  0  0  0  0  0
    0.3923   -4.7064    1.0138 C   0  0  0  0  0  0  0  0  0  0  0  0
    0.9701   -5.3291    0.2998 H   0  0  0  0  0  0  0  0  0  0  0  0
   -0.5664   -5.2382    1.1668 H   0  0  0  0  0  0  0  0  0  0  0  0
    1.1460   -4.6773    2.3683 C   0  0  0  0  0  0  0  0  0  0  0  0
    2.1237   -4.1758    2.1880 H   0  0  0  0  0  0  0  0  0  0  0  0
    0.3856   -3.8630    3.4199 C   0  0  0  0  0  0  0  0  0  0  0  0
    0.2279   -2.8164    3.0911 H   0  0  0  0  0  0  0  0  0  0  0  0
    0.9373   -3.8399    4.3815 H   0  0  0  0  0  0  0  0  0  0  0  0
   -0.6153   -4.3045    3.6159 H   0  0  0  0  0  0  0  0  0  0  0  0
    1.4219   -6.1047    2.8517 C   0  0  0  0  0  0  0  0  0  0  0  0
    1.9967   -6.6873    2.1023 H   0  0  0  0  0  0  0  0  0  0  0  0
    0.4723   -6.6496    3.0417 H   0  0  0  0  0  0  0  0  0  0  0  0
    2.0006   -6.1049    3.7977 H   0  0  0  0  0  0  0  0  0  0  0  0
   -1.1382   -2.7719    0.4173 C   0  0  0  0  0  0  0  0  0  0  0  0
   -2.3572   -3.5323    0.5786 C   0  0  0  0  0  0  0  0  0  0  0  0
   -2.4207   -4.5849    0.8706 H   0  0  0  0  0  0  0  0  0  0  0  0
   -3.3943   -2.7059    0.2316 C   0  0  0  0  0  0  0  0  0  0  0  0
   -4.4600   -2.9534    0.2186 H   0  0  0  0  0  0  0  0  0  0  0  0
   -2.8246   -1.4086   -0.0556 C   0  0  0  0  0  0  0  0  0  0  0  0
   -3.5786   -0.2373   -0.2406 C   0  0  0  0  0  0  0  0  0  0  0  0
   -5.0575   -0.3058   -0.5422 C   0  0  0  0  0  0  0  0  0  0  0  0
   -5.6213    0.3727    0.1306 H   0  0  0  0  0  0  0  0  0  0  0  0
   -5.4486   -1.3213   -0.3390 H   0  0  0  0  0  0  0  0  0  0  0  0
   -5.4001    0.0544   -2.0109 C   0  0  0  0  0  0  0  0  0  0  0  0
   -5.0348    1.0913   -2.1874 H   0  0  0  0  0  0  0  0  0  0  0  0
   -4.6860   -0.8711   -3.0012 C   0  0  0  0  0  0  0  0  0  0  0  0
   -3.5849   -0.8250   -2.8833 H   0  0  0  0  0  0  0  0  0  0  0  0
   -4.9294   -0.5980   -4.0480 H   0  0  0  0  0  0  0  0  0  0  0  0
   -4.9930   -1.9282   -2.8485 H   0  0  0  0  0  0  0  0  0  0  0  0
   -6.9178    0.0395   -2.2193 C   0  0  0  0  0  0  0  0  0  0  0  0
   -7.4343    0.7305   -1.5213 H   0  0  0  0  0  0  0  0  0  0  0  0
   -7.3314   -0.9777   -2.0495 H   0  0  0  0  0  0  0  0  0  0  0  0
   -7.1854    0.3392   -3.2529 H   0  0  0  0  0  0  0  0  0  0  0  0
   -2.9706    1.0214   -0.0906 C   0  0  0  0  0  0  0  0  0  0  0  0
   -3.7040    2.2432    0.1512 C   0  0  0  0  0  0  0  0  0  0  0  0
   -4.7927    2.3505    0.1155 H   0  0  0  0  0  0  0  0  0  0  0  0
   -2.7835    3.2034    0.4846 C   0  0  0  0  0  0  0  0  0  0  0  0
   -2.9817    4.2477    0.7448 H   0  0  0  0  0  0  0  0  0  0  0  0
   -1.4766    2.5972    0.3607 C   0  0  0  0  0  3  0  0  0  0  0  0
   -0.2666    3.3092    0.3930 C   0  0  0  0  0  0  0  0  0  0  0  0
   -0.2042    4.7093    0.9570 C   0  0  0  0  0  0  0  0  0  0  0  0
   -1.2235    5.1219    1.0843 H   0  0  0  0  0  0  0  0  0  0  0  0
    0.3095    5.3904    0.2475 H   0  0  0  0  0  0  0  0  0  0  0  0
    0.5175    4.7844    2.3273 C   0  0  0  0  0  0  0  0  0  0  0  0
    1.5526    4.4039    2.1732 H   0  0  0  0  0  0  0  0  0  0  0  0
    0.6074    6.2391    2.7994 C   0  0  0  0  0  0  0  0  0  0  0  0
    1.1234    6.8805    2.0552 H   0  0  0  0  0  0  0  0  0  0  0  0
    1.1610    6.3183    3.7570 H   0  0  0  0  0  0  0  0  0  0  0  0
   -0.4053    6.6660    2.9635 H   0  0  0  0  0  0  0  0  0  0  0  0
   -0.1611    3.8932    3.3725 C   0  0  0  0  0  0  0  0  0  0  0  0
   -0.1834    2.8322    3.0528 H   0  0  0  0  0  0  0  0  0  0  0  0
   -1.2122    4.2114    3.5428 H   0  0  0  0  0  0  0  0  0  0  0  0
    0.3684    3.9463    4.3454 H   0  0  0  0  0  0  0  0  0  0  0  0
    0.8992    2.7415   -0.1519 C   0  0  0  0  0  0  0  0  0  0  0  0
    2.0541    3.5133   -0.5498 C   0  0  0  0  0  0  0  0  0  0  0  0
    2.1920    4.5859   -0.3810 H   0  0  0  0  0  0  0  0  0  0  0  0
    2.8883    2.6630   -1.2286 C   0  0  0  0  0  0  0  0  0  0  0  0
    3.8438    2.9088   -1.7000 H   0  0  0  0  0  0  0  0  0  0  0  0
    2.2912    1.3479   -1.1726 C   0  0  0  0  0  0  0  0  0  0  0  0
    2.9463    0.1647   -1.5550 C   0  0  0  0  0  0  0  0  0  0  0  0
    4.2977    0.2240   -2.2366 C   0  0  0  0  0  0  0  0  0  0  0  0
    4.4008    1.1831   -2.7832 H   0  0  0  0  0  0  0  0  0  0  0  0
    4.3338   -0.5625   -3.0189 H   0  0  0  0  0  0  0  0  0  0  0  0
    5.5401    0.0394   -1.3213 C   0  0  0  0  0  0  0  0  0  0  0  0
    5.4251   -0.9428   -0.8128 H   0  0  0  0  0  0  0  0  0  0  0  0
    5.6565    1.1018   -0.2248 C   0  0  0  0  0  0  0  0  0  0  0  0
    4.7417    1.1573    0.3973 H   0  0  0  0  0  0  0  0  0  0  0  0
    5.8328    2.1104   -0.6549 H   0  0  0  0  0  0  0  0  0  0  0  0
    6.5114    0.8761    0.4449 H   0  0  0  0  0  0  0  0  0  0  0  0
    6.8102   -0.0155   -2.1778 C   0  0  0  0  0  0  0  0  0  0  0  0
    6.7592   -0.8233   -2.9368 H   0  0  0  0  0  0  0  0  0  0  0  0
    7.7099   -0.1920   -1.5540 H   0  0  0  0  0  0  0  0  0  0  0  0
    6.9635    0.9420   -2.7205 H   0  0  0  0  0  0  0  0  0  0  0  0
  1 10  1  0  0  0  0
  2 25  2  0  0  0  0
  3 50  1  0  0  0  0
  4 65  1  0  0  0  0
  5  1  1  0  0  0  0
  6  5  1  0  0  0  0
  6  8  2  0  0  0  0
  7  6  1  0  0  0  0
  8  9  1  0  0  0  0
  8 10  1  0  0  0  0
 10 11  2  0  0  0  0
 11 12  1  0  0  0  0
 12 14  1  0  0  0  0
 12 15  1  0  0  0  0
 13 12  1  0  0  0  0
 15 21  1  0  0  0  0
 15 17  1  0  0  0  0
 16 15  1  0  0  0  0
 17 20  1  0  0  0  0
 17 19  1  0  0  0  0
 18 17  1  0  0  0  0
 21 23  1  0  0  0  0
 21 24  1  0  0  0  0
 22 21  1  0  0  0  0
 25 11  1  0  0  0  0
 25 26  1  0  0  0  0
 26 27  1  0  0  0  0
 28 26  2  0  0  0  0
 29 28  1  0  0  0  0
 30  2  1  0  0  0  0
 30 28  1  0  0  0  0
 31 45  1  0  0  0  0
 31 30  2  0  0  0  0
 32 34  1  0  0  0  0
 32 31  1  0  0  0  0
 32 33  1  0  0  0  0
 35 32  1  0  0  0  0
 36 35  1  0  0  0  0
 37 38  1  0  0  0  0
 37 40  1  0  0  0  0
 37 35  1  0  0  0  0
 39 37  1  0  0  0  0
 41 43  1  0  0  0  0
 41 35  1  0  0  0  0
 41 42  1  0  0  0  0
 44 41  1  0  0  0  0
 45  3  2  0  0  0  0
 45 46  1  0  0  0  0
 46 48  2  0  0  0  0
 47 46  1  0  0  0  0
 48 49  1  0  0  0  0
 50 51  1  0  0  0  0
 50 48  1  0  0  0  0
 51 52  1  0  0  0  0
 52 53  1  0  0  0  0
 52 55  1  0  0  0  0
 54 52  1  0  0  0  0
 55 57  1  0  0  0  0
 55 61  1  0  0  0  0
 56 55  1  0  0  0  0
 57 60  1  0  0  0  0
 57 59  1  0  0  0  0
 58 57  1  0  0  0  0
 61 63  1  0  0  0  0
 61 64  1  0  0  0  0
 62 61  1  0  0  0  0
 65 51  2  0  0  0  0
 66 67  1  0  0  0  0
 66 65  1  0  0  0  0
 68 70  1  0  0  0  0
 68 66  2  0  0  0  0
 69 68  1  0  0  0  0
 70  4  2  0  0  0  0
 71  5  2  0  0  0  0
 71 70  1  0  0  0  0
 72 71  1  0  0  0  0
 72 75  1  0  0  0  0
 73 72  1  0  0  0  0
 74 72  1  0  0  0  0
 75 76  1  0  0  0  0
 75 77  1  0  0  0  0
 77 78  1  0  0  0  0
 77 80  1  0  0  0  0
 79 77  1  0  0  0  0
 81 83  1  0  0  0  0
 81 75  1  0  0  0  0
 82 81  1  0  0  0  0
 84 81  1  0  0  0  0
M  END
