1,8,10,22
 OpenBabel05122313063D

 41 42  0  0  1  0  0  0  0  0999 V2000
    1.8304   -0.8434    0.2182 N   0  0  0  0  0  2  0  0  0  0  0  0
    2.1793   -1.9693    0.8555 C   0  0  0  0  0  3  0  0  0  0  0  0
    1.4159   -2.4065    1.5201 H   0  0  0  0  0  0  0  0  0  0  0  0
    3.4531   -2.5426    0.7174 C   0  0  0  0  0  0  0  0  0  0  0  0
    3.7036   -3.4681    1.2549 H   0  0  0  0  0  0  0  0  0  0  0  0
    4.3850   -1.9014   -0.1087 C   0  0  0  0  0  0  0  0  0  0  0  0
    5.3925   -2.3205   -0.2480 H   0  0  0  0  0  0  0  0  0  0  0  0
    1.1522    1.5747   -0.6263 N   0  0  0  0  0  2  0  0  0  0  0  0
   -2.6352   -0.8115   -0.4749 C   0  0  0  0  0  0  0  0  0  0  0  0
   -1.3686   -1.2716   -0.2952 N   0  0  0  0  0  2  0  0  0  0  0  0
    2.3088    1.1664   -1.0388 C   0  0  2  0  0  3  0  0  0  0  0  0
    2.7363   -0.1815   -0.5390 C   0  0  0  0  0  0  0  0  0  0  0  0
    0.6292    2.9188   -0.8560 C   0  0  0  0  0  0  0  0  0  0  0  0
    0.1056    2.9362   -1.8401 H   0  0  0  0  0  0  0  0  0  0  0  0
    1.4557    3.6560   -0.9263 H   0  0  0  0  0  0  0  0  0  0  0  0
   -0.3334    3.3271    0.2710 C   0  0  0  0  0  0  0  0  0  0  0  0
    0.0908    2.9919    1.2420 H   0  0  0  0  0  0  0  0  0  0  0  0
   -0.3938    4.4330    0.3091 H   0  0  0  0  0  0  0  0  0  0  0  0
   -1.7526    2.7737    0.1267 C   0  0  0  0  0  0  0  0  0  0  0  0
   -2.3489    3.0308    1.0317 H   0  0  0  0  0  0  0  0  0  0  0  0
   -2.2745    3.2595   -0.7310 H   0  0  0  0  0  0  0  0  0  0  0  0
   -1.7450    1.3351   -0.0661 N   0  0  0  0  0  2  0  0  0  0  0  0
   -2.8270    0.6595   -0.2831 C   0  0  0  0  0  0  0  0  0  0  0  0
   -1.1039   -2.5721   -0.4814 C   0  0  0  0  0  0  0  0  0  0  0  0
   -0.0599   -2.8864   -0.3286 H   0  0  0  0  0  0  0  0  0  0  0  0
   -2.0862   -3.5026   -0.8520 C   0  0  0  0  0  0  0  0  0  0  0  0
   -1.8202   -4.5597   -0.9922 H   0  0  0  0  0  0  0  0  0  0  0  0
   -3.3971   -3.0464   -1.0306 C   0  0  0  0  0  0  0  0  0  0  0  0
   -4.2007   -3.7405   -1.3174 H   0  0  0  0  0  0  0  0  0  0  0  0
   -3.6747   -1.6849   -0.8408 C   0  0  0  0  0  0  0  0  0  0  0  0
   -4.6959   -1.3099   -0.9853 H   0  0  0  0  0  0  0  0  0  0  0  0
   -4.1840    1.2955   -0.3377 C   0  0  0  0  0  0  0  0  0  0  0  0
   -4.3828    1.8249    0.6178 H   0  0  0  0  0  0  0  0  0  0  0  0
   -5.0087    0.5855   -0.5100 H   0  0  0  0  0  0  0  0  0  0  0  0
   -4.2179    2.0672   -1.1353 H   0  0  0  0  0  0  0  0  0  0  0  0
    4.0289   -0.6985   -0.7381 C   0  0  0  0  0  0  0  0  0  0  0  0
    4.7600   -0.1633   -1.3583 H   0  0  0  0  0  0  0  0  0  0  0  0
    3.2601    1.9491   -1.8963 C   0  0  0  0  0  0  0  0  0  0  0  0
    2.8082    2.8733   -2.2941 H   0  0  0  0  0  0  0  0  0  0  0  0
    3.5973    1.3355   -2.7555 H   0  0  0  0  0  0  0  0  0  0  0  0
    4.1692    2.2256   -1.3221 H   0  0  0  0  0  0  0  0  0  0  0  0
  1  2  1  0  0  0  0
  2  3  1  0  0  0  0
  4  2  1  0  0  0  0
  4  5  1  0  0  0  0
  6  4  2  0  0  0  0
  7  6  1  0  0  0  0
  9 10  1  0  0  0  0
  9 23  2  0  0  0  0
 11  8  1  1  0  0  0
 11 12  1  0  0  0  0
 12  1  1  0  0  0  0
 13  8  1  0  0  0  0
 13 16  1  0  0  0  0
 14 13  1  0  0  0  0
 15 13  1  0  0  0  0
 16 18  1  0  0  0  0
 16 17  1  0  0  0  0
 19 16  1  0  0  0  0
 19 20  1  0  0  0  0
 21 19  1  0  0  0  0
 22 19  1  0  0  0  0
 23 22  1  0  0  0  0
 24 25  1  0  0  0  0
 24 10  1  0  0  0  0
 26 24  2  0  0  0  0
 27 26  1  0  0  0  0
 28 26  1  0  0  0  0
 28 30  2  0  0  0  0
 29 28  1  0  0  0  0
 30  9  1  0  0  0  0
 31 30  1  0  0  0  0
 32 23  1  0  0  0  0
 32 33  1  0  0  0  0
 34 32  1  0  0  0  0
 35 32  1  0  0  0  0
 36 12  2  0  0  0  0
 36  6  1  0  0  0  0
 37 36  1  0  0  0  0
 38 41  1  0  0  0  0
 38 11  1  0  0  0  0
 39 38  1  0  0  0  0
 40 38  1  0  0  0  0
M  END
