1,2,3,4
 OpenBabel05122313063D

 51 55  0  0  0  0  0  0  0  0999 V2000
   -0.5186    1.3799   -0.0415 N   0  0  0  0  0  0  0  0  0  0  0  0
   -0.4094   -1.4907   -0.0572 N   0  0  0  0  0  2  0  0  0  0  0  0
    2.5380   -1.3903   -0.0348 N   0  0  0  0  0  0  0  0  0  0  0  0
    2.4283    1.5024   -0.0190 N   0  0  0  0  0  0  0  0  0  0  0  0
   -0.3386    2.7459   -0.0360 C   0  0  0  0  0  0  0  0  0  0  0  0
   -1.6216    3.4117   -0.0447 C   0  0  0  0  0  0  0  0  0  0  0  0
   -1.7713    4.4981   -0.0445 H   0  0  0  0  0  0  0  0  0  0  0  0
   -2.5768    2.4264   -0.0545 C   0  0  0  0  0  0  0  0  0  0  0  0
   -3.6587    2.5748   -0.0661 H   0  0  0  0  0  0  0  0  0  0  0  0
   -1.8829    1.1449   -0.0524 C   0  0  0  0  0  0  0  0  0  0  0  0
   -2.5073   -0.1320   -0.0571 C   0  0  0  0  0  0  0  0  0  0  0  0
   -1.7871   -1.3589   -0.0618 C   0  0  0  0  0  0  0  0  0  0  0  0
   -2.3833   -2.6900   -0.0721 C   0  0  0  0  0  0  0  0  0  0  0  0
   -3.4510   -2.9287   -0.0803 H   0  0  0  0  0  0  0  0  0  0  0  0
   -1.3556   -3.5997   -0.0735 C   0  0  0  0  0  0  0  0  0  0  0  0
   -1.4226   -4.6943   -0.0809 H   0  0  0  0  0  0  0  0  0  0  0  0
   -0.1266   -2.8392   -0.0629 C   0  0  0  0  0  0  0  0  0  0  0  0
    1.1518   -3.4221   -0.0575 C   0  0  0  0  0  0  0  0  0  0  0  0
    1.1840   -4.5216   -0.0634 H   0  0  0  0  0  0  0  0  0  0  0  0
    2.3851   -2.7579   -0.0445 C   0  0  0  0  0  0  0  0  0  0  0  0
    3.6856   -3.4025   -0.0384 C   0  0  0  0  0  0  0  0  0  0  0  0
    3.8513   -4.4868   -0.0439 H   0  0  0  0  0  0  0  0  0  0  0  0
    4.6233   -2.3975   -0.0249 C   0  0  0  0  0  0  0  0  0  0  0  0
    5.7164   -2.4882   -0.0170 H   0  0  0  0  0  0  0  0  0  0  0  0
    3.8926   -1.1429   -0.0228 C   0  0  0  0  0  0  0  0  0  0  0  0
    4.4792    0.1316   -0.0104 C   0  0  0  0  0  0  0  0  0  0  0  0
    5.5782    0.1732   -0.0016 H   0  0  0  0  0  0  0  0  0  0  0  0
    3.7978    1.3582   -0.0089 C   0  0  0  0  0  3  0  0  0  0  0  0
    4.4313    2.6645    0.0028 C   0  0  0  0  0  0  0  0  0  0  0  0
    5.5143    2.8377    0.0122 H   0  0  0  0  0  0  0  0  0  0  0  0
    3.4200    3.5957   -0.0009 C   0  0  0  0  0  0  0  0  0  0  0  0
    3.5031    4.6894    0.0051 H   0  0  0  0  0  0  0  0  0  0  0  0
    2.1723    2.8546   -0.0146 C   0  0  0  0  0  0  0  0  0  0  0  0
    0.8921    3.4233   -0.0228 C   0  0  0  0  0  0  0  0  0  0  0  0
    0.8412    4.5221   -0.0185 H   0  0  0  0  0  0  0  0  0  0  0  0
   -4.0375   -0.2173   -0.0540 C   0  0  0  0  0  0  0  0  0  0  0  0
   -4.2847   -1.2948   -0.0462 H   0  0  0  0  0  0  0  0  0  0  0  0
   -4.6885    0.3315    1.2395 C   0  0  0  0  0  0  0  0  0  0  0  0
   -4.5991    1.4359    1.2885 H   0  0  0  0  0  0  0  0  0  0  0  0
   -5.7776    0.1194    1.1882 H   0  0  0  0  0  0  0  0  0  0  0  0
   -4.1122   -0.2833    2.5151 C   0  0  0  0  0  0  0  0  0  0  0  0
   -4.6463    0.0813    3.4153 H   0  0  0  0  0  0  0  0  0  0  0  0
   -3.0382   -0.0341    2.6346 H   0  0  0  0  0  0  0  0  0  0  0  0
   -4.1902   -1.3907    2.5018 H   0  0  0  0  0  0  0  0  0  0  0  0
   -4.6742    0.3118   -1.3641 C   0  0  0  0  0  0  0  0  0  0  0  0
   -4.0631   -0.0665   -2.2112 H   0  0  0  0  0  0  0  0  0  0  0  0
   -4.6024    1.4171   -1.4198 H   0  0  0  0  0  0  0  0  0  0  0  0
   -6.1294   -0.1174   -1.5612 C   0  0  0  0  0  0  0  0  0  0  0  0
   -6.5137    0.2176   -2.5456 H   0  0  0  0  0  0  0  0  0  0  0  0
   -6.8007    0.3055   -0.7865 H   0  0  0  0  0  0  0  0  0  0  0  0
   -6.2336   -1.2224   -1.5223 H   0  0  0  0  0  0  0  0  0  0  0  0
  1  5  1  0  0  0  0
  3 25  1  0  0  0  0
  4 33  2  0  0  0  0
  4 28  1  0  0  0  0
  5 34  2  0  0  0  0
  6  7  1  0  0  0  0
  6  5  1  0  0  0  0
  8 10  1  0  0  0  0
  8  6  2  0  0  0  0
  9  8  1  0  0  0  0
 10  1  2  0  0  0  0
 11 36  1  0  0  0  0
 11 10  1  0  0  0  0
 12  2  1  0  0  0  0
 12 11  2  0  0  0  0
 13 12  1  0  0  0  0
 14 13  1  0  0  0  0
 15 13  2  0  0  0  0
 15 17  1  0  0  0  0
 16 15  1  0  0  0  0
 17 18  2  0  0  0  0
 17  2  1  0  0  0  0
 18 20  1  0  0  0  0
 19 18  1  0  0  0  0
 20 21  1  0  0  0  0
 20  3  2  0  0  0  0
 21 23  2  0  0  0  0
 22 21  1  0  0  0  0
 23 25  1  0  0  0  0
 23 24  1  0  0  0  0
 25 26  2  0  0  0  0
 26 28  1  0  0  0  0
 26 27  1  0  0  0  0
 28 29  1  0  0  0  0
 29 30  1  0  0  0  0
 31 29  2  0  0  0  0
 31 32  1  0  0  0  0
 33 31  1  0  0  0  0
 34 35  1  0  0  0  0
 34 33  1  0  0  0  0
 36 37  1  0  0  0  0
 36 38  1  0  0  0  0
 38 39  1  0  0  0  0
 38 41  1  0  0  0  0
 40 38  1  0  0  0  0
 41 43  1  0  0  0  0
 41 42  1  0  0  0  0
 44 41  1  0  0  0  0
 45 36  1  0  0  0  0
 46 45  1  0  0  0  0
 47 45  1  0  0  0  0
 48 51  1  0  0  0  0
 48 45  1  0  0  0  0
 48 50  1  0  0  0  0
 49 48  1  0  0  0  0
M  END
