1,2,3,4
 OpenBabel05122313063D

 62 66  0  0  1  0  0  0  0  0999 V2000
    0.2541   -1.8658   -0.2665 N   0  0  0  0  0  2  0  0  0  0  0  0
   -1.8656   -0.0863   -0.1855 N   0  0  0  0  0  2  0  0  0  0  0  0
   -0.2541    1.8657   -0.2665 N   0  0  0  0  0  2  0  0  0  0  0  0
    1.8656    0.0863   -0.1855 N   0  0  0  0  0  2  0  0  0  0  0  0
   -4.3443    0.1020    1.5878 C   0  0  0  0  0  0  0  0  0  0  0  0
   -3.5822    0.8394    1.8798 H   0  0  0  0  0  0  0  0  0  0  0  0
   -5.6624    0.2287    2.0418 C   0  0  0  0  0  0  0  0  0  0  0  0
   -5.9354    1.0710    2.6956 H   0  0  0  0  0  0  0  0  0  0  0  0
   -6.6342   -0.7151    1.6673 C   0  0  0  0  0  0  0  0  0  0  0  0
   -7.6715   -0.6098    2.0197 H   0  0  0  0  0  0  0  0  0  0  0  0
   -6.2748   -1.7943    0.8451 C   0  0  0  0  0  0  0  0  0  0  0  0
   -7.0305   -2.5371    0.5473 H   0  0  0  0  0  0  0  0  0  0  0  0
   -4.9521   -1.9281    0.3965 C   0  0  0  0  0  0  0  0  0  0  0  0
   -4.6700   -2.7661   -0.2587 H   0  0  0  0  0  0  0  0  0  0  0  0
   -3.9740   -0.9774    0.7550 C   0  0  0  0  0  0  0  0  0  0  0  0
   -2.5522   -1.1285    0.3215 C   0  0  2  0  0  3  0  0  0  0  0  0
   -1.9451   -2.3758    0.5646 C   0  0  0  0  0  0  0  0  0  0  0  0
   -2.5662   -3.1332    1.0591 H   0  0  0  0  0  0  0  0  0  0  0  0
   -0.6277   -2.7550    0.2194 C   0  0  0  0  0  0  0  0  0  0  0  0
   -0.2561   -4.1989    0.4815 C   0  0  0  0  0  0  0  0  0  0  0  0
    0.8096   -4.3075    0.7584 H   0  0  0  0  0  0  0  0  0  0  0  0
   -0.4413   -4.8454   -0.4015 H   0  0  0  0  0  0  0  0  0  0  0  0
   -0.8822   -4.5910    1.3049 H   0  0  0  0  0  0  0  0  0  0  0  0
    1.5247   -2.1735   -0.7933 C   0  0  0  0  0  0  0  0  0  0  0  0
    1.9235   -3.3680   -1.4246 C   0  0  0  0  0  0  0  0  0  0  0  0
    1.2145   -4.1936   -1.5495 H   0  0  0  0  0  0  0  0  0  0  0  0
    3.2151   -3.4865   -1.9655 C   0  0  0  0  0  0  0  0  0  0  0  0
    3.5058   -4.4200   -2.4700 H   0  0  0  0  0  0  0  0  0  0  0  0
    4.1084   -2.4080   -1.9024 C   0  0  0  0  0  0  0  0  0  0  0  0
    5.1090   -2.4892   -2.3529 H   0  0  0  0  0  0  0  0  0  0  0  0
    3.7184   -1.1997   -1.3029 C   0  0  0  0  0  0  0  0  0  0  0  0
    4.4041   -0.3438   -1.3033 H   0  0  0  0  0  0  0  0  0  0  0  0
    2.4352   -1.0742   -0.7388 C   0  0  0  0  0  0  0  0  0  0  0  0
    2.5522    1.1285    0.3214 C   0  0  2  0  0  3  0  0  0  0  0  0
    3.9741    0.9774    0.7550 C   0  0  0  0  0  0  0  0  0  0  0  0
    4.3443   -0.1018    1.5880 C   0  0  0  0  0  0  0  0  0  0  0  0
    3.5821   -0.8392    1.8801 H   0  0  0  0  0  0  0  0  0  0  0  0
    5.6624   -0.2285    2.0420 C   0  0  0  0  0  0  0  0  0  0  0  0
    5.9353   -1.0707    2.6959 H   0  0  0  0  0  0  0  0  0  0  0  0
    6.6342    0.7152    1.6674 C   0  0  0  0  0  0  0  0  0  0  0  0
    7.6715    0.6100    2.0199 H   0  0  0  0  0  0  0  0  0  0  0  0
    6.2748    1.7943    0.8450 C   0  0  0  0  0  0  0  0  0  0  0  0
    7.0306    2.5371    0.5471 H   0  0  0  0  0  0  0  0  0  0  0  0
    4.9522    1.9281    0.3964 C   0  0  0  0  0  0  0  0  0  0  0  0
    4.6701    2.7660   -0.2590 H   0  0  0  0  0  0  0  0  0  0  0  0
    1.9451    2.3758    0.5645 C   0  0  0  0  0  0  0  0  0  0  0  0
    2.5662    3.1332    1.0589 H   0  0  0  0  0  0  0  0  0  0  0  0
    0.6277    2.7550    0.2193 C   0  0  0  0  0  0  0  0  0  0  0  0
    0.2562    4.1988    0.4814 C   0  0  0  0  0  0  0  0  0  0  0  0
   -0.8096    4.3075    0.7583 H   0  0  0  0  0  0  0  0  0  0  0  0
    0.8822    4.5910    1.3048 H   0  0  0  0  0  0  0  0  0  0  0  0
    0.4413    4.8454   -0.4016 H   0  0  0  0  0  0  0  0  0  0  0  0
   -1.5247    2.1734   -0.7934 C   0  0  0  0  0  0  0  0  0  0  0  0
   -1.9235    3.3679   -1.4246 C   0  0  0  0  0  0  0  0  0  0  0  0
   -1.2145    4.1935   -1.5497 H   0  0  0  0  0  0  0  0  0  0  0  0
   -3.2151    3.4864   -1.9655 C   0  0  0  0  0  0  0  0  0  0  0  0
   -3.5059    4.4199   -2.4700 H   0  0  0  0  0  0  0  0  0  0  0  0
   -4.1085    2.4080   -1.9023 C   0  0  0  0  0  0  0  0  0  0  0  0
   -5.1091    2.4891   -2.3527 H   0  0  0  0  0  0  0  0  0  0  0  0
   -3.7184    1.1997   -1.3028 C   0  0  0  0  0  0  0  0  0  0  0  0
   -4.4042    0.3438   -1.3030 H   0  0  0  0  0  0  0  0  0  0  0  0
   -2.4352    1.0742   -0.7387 C   0  0  0  0  0  0  0  0  0  0  0  0
  1 19  1  0  0  0  0
  2 16  1  0  0  0  0
  3 48  1  0  0  0  0
  4 34  1  0  0  0  0
  5  6  1  0  0  0  0
  5  7  1  0  0  0  0
  7  8  1  0  0  0  0
  9 10  1  0  0  0  0
  9  7  2  0  0  0  0
 11  9  1  0  0  0  0
 12 11  1  0  0  0  0
 13 15  1  0  0  0  0
 13 11  2  0  0  0  0
 14 13  1  0  0  0  0
 15  5  2  0  0  0  0
 16 17  1  0  0  0  0
 16 15  1  1  0  0  0
 17 18  1  0  0  0  0
 19 20  1  0  0  0  0
 19 17  2  0  0  0  0
 20 21  1  0  0  0  0
 20 23  1  0  0  0  0
 22 20  1  0  0  0  0
 24 33  1  0  0  0  0
 24  1  1  0  0  0  0
 25 24  2  0  0  0  0
 26 25  1  0  0  0  0
 27 29  2  0  0  0  0
 27 25  1  0  0  0  0
 28 27  1  0  0  0  0
 29 31  1  0  0  0  0
 30 29  1  0  0  0  0
 31 33  2  0  0  0  0
 32 31  1  0  0  0  0
 33  4  1  0  0  0  0
 34 46  1  0  0  0  0
 34 35  1  1  0  0  0
 35 36  1  0  0  0  0
 36 37  1  0  0  0  0
 36 38  2  0  0  0  0
 38 39  1  0  0  0  0
 40 41  1  0  0  0  0
 40 38  1  0  0  0  0
 42 40  2  0  0  0  0
 43 42  1  0  0  0  0
 44 35  2  0  0  0  0
 44 42  1  0  0  0  0
 45 44  1  0  0  0  0
 46 47  1  0  0  0  0
 48 49  1  0  0  0  0
 48 46  2  0  0  0  0
 49 50  1  0  0  0  0
 49 51  1  0  0  0  0
 52 49  1  0  0  0  0
 53 62  1  0  0  0  0
 53  3  1  0  0  0  0
 54 53  2  0  0  0  0
 55 54  1  0  0  0  0
 56 58  2  0  0  0  0
 56 54  1  0  0  0  0
 57 56  1  0  0  0  0
 58 60  1  0  0  0  0
 59 58  1  0  0  0  0
 60 62  2  0  0  0  0
 61 60  1  0  0  0  0
 62  2  1  0  0  0  0
M  END
