1,17,24,34
 OpenBabel05122313063D

 48 51  0  0  1  0  0  0  0  0999 V2000
   -1.4374   -0.7401    1.1290 N   0  0  0  0  0  2  0  0  0  0  0  0
   -1.7524    0.0728    2.1505 C   0  0  0  0  0  0  0  0  0  0  0  0
   -0.9836    0.8170    2.4048 H   0  0  0  0  0  0  0  0  0  0  0  0
   -2.9795   -0.0278    2.8434 C   0  0  0  0  0  0  0  0  0  0  0  0
   -3.1734    0.6692    3.6709 H   0  0  0  0  0  0  0  0  0  0  0  0
   -3.9163   -0.9834    2.4746 C   0  0  0  0  0  0  0  0  0  0  0  0
   -4.8775   -1.0775    3.0014 H   0  0  0  0  0  0  0  0  0  0  0  0
   -3.6298   -1.8388    1.3718 C   0  0  0  0  0  0  0  0  0  0  0  0
   -2.3706   -1.6666    0.7141 C   0  0  1  0  0  3  0  0  0  0  0  0
   -2.0541   -2.4299   -0.4343 C   0  0  0  0  0  0  0  0  0  0  0  0
   -2.9494   -3.3776   -0.9135 C   0  0  0  0  0  0  0  0  0  0  0  0
   -2.7158   -3.9637   -1.8141 H   0  0  0  0  0  0  0  0  0  0  0  0
   -4.1881   -3.5762   -0.2517 C   0  0  0  0  0  0  0  0  0  0  0  0
   -4.8918   -4.3251   -0.6436 H   0  0  0  0  0  0  0  0  0  0  0  0
   -4.5252   -2.8220    0.8644 C   0  0  0  0  0  0  0  0  0  0  0  0
   -5.4966   -2.9624    1.3620 H   0  0  0  0  0  0  0  0  0  0  0  0
   -0.7594   -2.1376   -1.0627 N   0  0  0  0  0  0  0  0  0  0  0  0
    0.1784   -3.2810   -0.8600 C   0  0  0  0  0  0  0  0  0  0  0  0
    1.0677   -3.1038   -1.4972 H   0  0  0  0  0  0  0  0  0  0  0  0
   -0.2854   -4.2375   -1.1881 H   0  0  0  0  0  0  0  0  0  0  0  0
    0.5726   -3.3510    0.5992 C   0  0  0  0  0  0  0  0  0  0  0  0
   -0.3294   -3.4875    1.2292 H   0  0  0  0  0  0  0  0  0  0  0  0
    1.2509   -4.2114    0.7882 H   0  0  0  0  0  0  0  0  0  0  0  0
    1.2117   -2.0644    1.0030 N   0  0  0  0  0  0  0  0  0  0  0  0
    2.5749   -1.9866    0.4623 C   0  0  0  0  0  0  0  0  0  0  0  0
    3.6544   -2.6918    0.9836 C   0  0  0  0  0  0  0  0  0  0  0  0
    3.5304   -3.3315    1.8688 H   0  0  0  0  0  0  0  0  0  0  0  0
    4.9296   -2.5845    0.3736 C   0  0  0  0  0  0  0  0  0  0  0  0
    5.7773   -3.1390    0.8021 H   0  0  0  0  0  0  0  0  0  0  0  0
    5.1144   -1.7888   -0.7497 C   0  0  0  0  0  3  0  0  0  0  0  0
    6.1063   -1.7049   -1.2188 H   0  0  0  0  0  0  0  0  0  0  0  0
    4.0299   -1.0531   -1.3021 C   0  0  0  0  0  0  0  0  0  0  0  0
    2.7488   -1.1574   -0.6717 C   0  0  0  0  0  0  0  0  0  0  0  0
    1.6475   -0.4514   -1.1076 N   0  0  0  0  0  2  0  0  0  0  0  0
    1.7862    0.3590   -2.1698 C   0  0  0  0  0  0  0  0  0  0  0  0
    0.8871    0.9252   -2.4537 H   0  0  0  0  0  0  0  0  0  0  0  0
    3.0126    0.4999   -2.8560 C   0  0  0  0  0  0  0  0  0  0  0  0
    3.0560    1.1842   -3.7150 H   0  0  0  0  0  0  0  0  0  0  0  0
    4.1369   -0.1931   -2.4315 C   0  0  0  0  0  0  0  0  0  0  0  0
    5.1062   -0.0798   -2.9394 H   0  0  0  0  0  0  0  0  0  0  0  0
   -0.9140   -1.8668   -2.5151 C   0  0  0  0  0  0  0  0  0  0  0  0
   -1.1995   -2.7899   -3.0633 H   0  0  0  0  0  0  0  0  0  0  0  0
    0.0482   -1.5005   -2.9147 H   0  0  0  0  0  0  0  0  0  0  0  0
   -1.6909   -1.0998   -2.6685 H   0  0  0  0  0  0  0  0  0  0  0  0
    1.2012   -1.9268    2.4819 C   0  0  0  0  0  0  0  0  0  0  0  0
    1.7245   -2.7769    2.9677 H   0  0  0  0  0  0  0  0  0  0  0  0
    0.1513   -1.9123    2.8250 H   0  0  0  0  0  0  0  0  0  0  0  0
    1.6719   -0.9695    2.7609 H   0  0  0  0  0  0  0  0  0  0  0  0
  1  2  1  0  0  0  0
  2  3  1  0  0  0  0
  2  4  2  0  0  0  0
  4  5  1  0  0  0  0
  6  4  1  0  0  0  0
  6  7  1  0  0  0  0
  8  6  2  0  0  0  0
  9 10  1  6  0  0  0
  9  1  1  0  0  0  0
  9  8  1  0  0  0  0
 11 10  2  0  0  0  0
 11 13  1  0  0  0  0
 12 11  1  0  0  0  0
 13 15  2  0  0  0  0
 14 13  1  0  0  0  0
 15 16  1  0  0  0  0
 15  8  1  0  0  0  0
 17 18  1  0  0  0  0
 17 10  1  0  0  0  0
 18 21  1  0  0  0  0
 19 18  1  0  0  0  0
 20 18  1  0  0  0  0
 21 23  1  0  0  0  0
 21 24  1  0  0  0  0
 21 22  1  0  0  0  0
 24 45  1  0  0  0  0
 25 26  1  0  0  0  0
 25 24  1  0  0  0  0
 26 27  1  0  0  0  0
 28 29  1  0  0  0  0
 28 26  2  0  0  0  0
 30 28  1  0  0  0  0
 31 30  1  0  0  0  0
 32 30  1  0  0  0  0
 32 33  1  0  0  0  0
 33 25  2  0  0  0  0
 34 33  1  0  0  0  0
 35 34  1  0  0  0  0
 36 35  1  0  0  0  0
 37 39  1  0  0  0  0
 37 35  2  0  0  0  0
 38 37  1  0  0  0  0
 39 32  2  0  0  0  0
 40 39  1  0  0  0  0
 41 17  1  0  0  0  0
 42 41  1  0  0  0  0
 43 41  1  0  0  0  0
 44 41  1  0  0  0  0
 45 48  1  0  0  0  0
 45 47  1  0  0  0  0
 45 46  1  0  0  0  0
M  END
