1,2,3,4
 OpenBabel05122313063D

 40 40  0  0  0  0  0  0  0  0999 V2000
    1.9814    1.4299    0.0786 N   0  0  0  0  0  2  0  0  0  0  0  0
    1.4702   -0.1426   -2.2869 N   0  0  0  0  0  0  0  0  0  0  0  0
    1.8120   -1.9765   -0.0092 N   0  0  0  0  0  0  0  0  0  0  0  0
    1.3988    0.0443    2.3493 N   0  0  0  0  0  0  0  0  0  0  0  0
    0.6105   -0.4400   -3.4467 C   0  0  0  0  0  0  0  0  0  0  0  0
   -0.2433    0.2621   -3.4559 H   0  0  0  0  0  0  0  0  0  0  0  0
    0.2039   -1.4671   -3.3685 H   0  0  0  0  0  0  0  0  0  0  0  0
    1.1687   -0.3493   -4.4090 H   0  0  0  0  0  0  0  0  0  0  0  0
    1.2383   -3.2152   -0.5508 C   0  0  0  0  0  0  0  0  0  0  0  0
    0.9008   -3.0693   -1.5934 H   0  0  0  0  0  0  0  0  0  0  0  0
    0.3535   -3.5014    0.0468 H   0  0  0  0  0  0  0  0  0  0  0  0
    1.9764   -4.0541   -0.5358 H   0  0  0  0  0  0  0  0  0  0  0  0
    0.5714   -0.3148    3.5064 C   0  0  0  0  0  0  0  0  0  0  0  0
   -0.3014    0.3625    3.5708 H   0  0  0  0  0  0  0  0  0  0  0  0
    1.1513   -0.2421    4.4591 H   0  0  0  0  0  0  0  0  0  0  0  0
    0.1817   -1.3428    3.3981 H   0  0  0  0  0  0  0  0  0  0  0  0
    2.6814    1.7559   -1.1318 C   0  0  0  0  0  0  0  0  0  0  0  0
    3.7275    1.3257   -1.1427 H   0  0  0  0  0  0  0  0  0  0  0  0
    2.8429    2.8593   -1.2728 H   0  0  0  0  0  0  0  0  0  0  0  0
    1.9202    1.2759   -2.3666 C   0  0  0  0  0  0  0  0  0  0  0  0
    2.5401    1.4227   -3.2850 H   0  0  0  0  0  0  0  0  0  0  0  0
    0.9999    1.8837   -2.4741 H   0  0  0  0  0  0  0  0  0  0  0  0
    2.5961   -1.1046   -2.2163 C   0  0  0  0  0  0  0  0  0  0  0  0
    3.5014   -0.6922   -2.7189 H   0  0  0  0  0  0  0  0  0  0  0  0
    2.3100   -2.0025   -2.7986 H   0  0  0  0  0  0  0  0  0  0  0  0
    2.9749   -1.5212   -0.7940 C   0  0  0  0  0  0  0  0  0  0  0  0
    3.7523   -2.3250   -0.8555 H   0  0  0  0  0  0  0  0  0  0  0  0
    3.4207   -0.6588   -0.2683 H   0  0  0  0  0  0  0  0  0  0  0  0
    2.1499   -2.1815    1.4176 C   0  0  0  0  0  0  0  0  0  0  0  0
    3.0013   -2.9019    1.5079 H   0  0  0  0  0  0  0  0  0  0  0  0
    1.2708   -2.6635    1.8886 H   0  0  0  0  0  0  0  0  0  0  0  0
    2.5110   -0.9143    2.1880 C   0  0  0  0  0  0  0  0  0  0  0  0
    2.9019   -1.2246    3.1877 H   0  0  0  0  0  0  0  0  0  0  0  0
    3.3502   -0.3959    1.6880 H   0  0  0  0  0  0  0  0  0  0  0  0
    1.9091    1.4271    2.4972 C   0  0  0  0  0  0  0  0  0  0  0  0
    2.5475    1.5233    3.4109 H   0  0  0  0  0  0  0  0  0  0  0  0
    1.0245    2.0796    2.6503 H   0  0  0  0  0  0  0  0  0  0  0  0
    2.6691    1.8791    1.2503 C   0  0  0  0  0  0  0  0  0  0  0  0
    2.7820    2.9957    1.3078 H   0  0  0  0  0  0  0  0  0  0  0  0
    3.7352    1.5025    1.2913 H   0  0  0  0  0  0  0  0  0  0  0  0
  1 38  1  0  0  0  0
  2 23  1  0  0  0  0
  3 29  1  0  0  0  0
  4 35  1  0  0  0  0
  4 13  1  0  0  0  0
  5  7  1  0  0  0  0
  5  2  1  0  0  0  0
  6  5  1  0  0  0  0
  8  5  1  0  0  0  0
  9 12  1  0  0  0  0
  9  3  1  0  0  0  0
  9 11  1  0  0  0  0
 10  9  1  0  0  0  0
 13 14  1  0  0  0  0
 13 15  1  0  0  0  0
 16 13  1  0  0  0  0
 17  1  1  0  0  0  0
 18 17  1  0  0  0  0
 19 17  1  0  0  0  0
 20  2  1  0  0  0  0
 20 17  1  0  0  0  0
 21 20  1  0  0  0  0
 22 20  1  0  0  0  0
 23 26  1  0  0  0  0
 24 23  1  0  0  0  0
 25 23  1  0  0  0  0
 26 28  1  0  0  0  0
 26  3  1  0  0  0  0
 27 26  1  0  0  0  0
 29 30  1  0  0  0  0
 29 31  1  0  0  0  0
 29 32  1  0  0  0  0
 32  4  1  0  0  0  0
 32 33  1  0  0  0  0
 34 32  1  0  0  0  0
 35 37  1  0  0  0  0
 35 36  1  0  0  0  0
 38 40  1  0  0  0  0
 38 39  1  0  0  0  0
 38 35  1  0  0  0  0
M  END
