5,6,7,8
 OpenBabel05122313063D

 56 60  0  0  0  0  0  0  0  0999 V2000
   -3.5758    1.3873   -0.0734 O   0  0  0  0  0  0  0  0  0  0  0  0
    3.5758    1.3873   -0.0734 O   0  0  0  0  0  0  0  0  0  0  0  0
   -1.3036    5.7568   -0.1168 O   0  0  0  0  0  0  0  0  0  0  0  0
    1.3036    5.7568   -0.1168 O   0  0  0  0  0  0  0  0  0  0  0  0
   -1.8188   -1.7408    0.2097 N   0  0  0  0  0  2  0  0  0  0  0  0
   -1.3340    0.8404    0.1615 N   0  0  0  0  0  2  0  0  0  0  0  0
    1.3340    0.8404    0.1615 N   0  0  0  0  0  2  0  0  0  0  0  0
    1.8188   -1.7408    0.2097 N   0  0  0  0  0  2  0  0  0  0  0  0
   -1.9221   -3.0949    0.2009 C   0  0  0  0  0  3  0  0  0  0  0  0
   -0.9849   -3.6512    0.3356 H   0  0  0  0  0  0  0  0  0  0  0  0
   -3.1292   -3.7422    0.0301 C   0  0  0  0  0  0  0  0  0  0  0  0
   -3.1729   -4.8409    0.0324 H   0  0  0  0  0  0  0  0  0  0  0  0
   -4.3126   -2.9759   -0.1501 C   0  0  0  0  0  0  0  0  0  0  0  0
   -5.5846   -3.5872   -0.3344 C   0  0  0  0  0  0  0  0  0  0  0  0
   -5.6485   -4.6859   -0.3359 H   0  0  0  0  0  0  0  0  0  0  0  0
   -6.7183   -2.8085   -0.5103 C   0  0  0  0  0  0  0  0  0  0  0  0
   -7.6988   -3.2877   -0.6530 H   0  0  0  0  0  0  0  0  0  0  0  0
   -6.6178   -1.3930   -0.5079 C   0  0  0  0  0  0  0  0  0  0  0  0
   -7.5236   -0.7843   -0.6494 H   0  0  0  0  0  0  0  0  0  0  0  0
   -5.3937   -0.7632   -0.3304 C   0  0  0  0  0  0  0  0  0  0  0  0
   -5.2956    0.3296   -0.3253 H   0  0  0  0  0  0  0  0  0  0  0  0
   -4.2064   -1.5347   -0.1459 C   0  0  0  0  0  0  0  0  0  0  0  0
   -2.9035   -0.9506    0.0420 C   0  0  0  0  0  0  0  0  0  0  0  0
   -2.6631    0.5506    0.0367 C   0  0  0  0  0  0  0  0  0  0  0  0
   -0.7176    2.0983    0.1087 C   0  0  0  0  0  0  0  0  0  0  0  0
   -1.4150    3.3252    0.0316 C   0  0  0  0  0  0  0  0  0  0  0  0
   -2.5086    3.2824    0.0202 H   0  0  0  0  0  0  0  0  0  0  0  0
   -0.7162    4.5355   -0.0408 C   0  0  0  0  0  0  0  0  0  0  0  0
    0.7162    4.5355   -0.0408 C   0  0  0  0  0  0  0  0  0  0  0  0
    1.4151    3.3252    0.0316 C   0  0  0  0  0  0  0  0  0  0  0  0
    2.5086    3.2824    0.0202 H   0  0  0  0  0  0  0  0  0  0  0  0
    0.7177    2.0983    0.1087 C   0  0  0  0  0  0  0  0  0  0  0  0
    2.6631    0.5506    0.0367 C   0  0  0  0  0  0  0  0  0  0  0  0
    2.9035   -0.9506    0.0420 C   0  0  0  0  0  0  0  0  0  0  0  0
    4.2064   -1.5347   -0.1459 C   0  0  0  0  0  0  0  0  0  0  0  0
    5.3937   -0.7632   -0.3304 C   0  0  0  0  0  3  0  0  0  0  0  0
    5.2956    0.3295   -0.3253 H   0  0  0  0  0  0  0  0  0  0  0  0
    6.6178   -1.3930   -0.5079 C   0  0  0  0  0  0  0  0  0  0  0  0
    7.5236   -0.7843   -0.6494 H   0  0  0  0  0  0  0  0  0  0  0  0
    6.7183   -2.8085   -0.5103 C   0  0  0  0  0  0  0  0  0  0  0  0
    7.6988   -3.2877   -0.6530 H   0  0  0  0  0  0  0  0  0  0  0  0
    5.5846   -3.5872   -0.3344 C   0  0  0  0  0  0  0  0  0  0  0  0
    5.6485   -4.6860   -0.3359 H   0  0  0  0  0  0  0  0  0  0  0  0
    4.3126   -2.9759   -0.1501 C   0  0  0  0  0  0  0  0  0  0  0  0
    3.1292   -3.7422    0.0302 C   0  0  0  0  0  0  0  0  0  0  0  0
    3.1729   -4.8409    0.0325 H   0  0  0  0  0  0  0  0  0  0  0  0
    1.9222   -3.0949    0.2009 C   0  0  0  0  0  0  0  0  0  0  0  0
    0.9849   -3.6512    0.3356 H   0  0  0  0  0  0  0  0  0  0  0  0
   -2.7177    5.8070   -0.1344 C   0  0  0  0  0  0  0  0  0  0  0  0
   -2.9908    6.8762   -0.2055 H   0  0  0  0  0  0  0  0  0  0  0  0
   -3.1588    5.3778    0.7931 H   0  0  0  0  0  0  0  0  0  0  0  0
   -3.1402    5.2618   -1.0078 H   0  0  0  0  0  0  0  0  0  0  0  0
    2.7178    5.8070   -0.1343 C   0  0  0  0  0  0  0  0  0  0  0  0
    2.9909    6.8762   -0.2055 H   0  0  0  0  0  0  0  0  0  0  0  0
    3.1402    5.2618   -1.0078 H   0  0  0  0  0  0  0  0  0  0  0  0
    3.1588    5.3778    0.7932 H   0  0  0  0  0  0  0  0  0  0  0  0
  1 24  2  0  0  0  0
  2 33  2  0  0  0  0
  3 28  1  0  0  0  0
  4 29  1  0  0  0  0
  9  5  1  0  0  0  0
  9 10  1  0  0  0  0
 11 12  1  0  0  0  0
 11  9  1  0  0  0  0
 13 22  1  0  0  0  0
 13 11  2  0  0  0  0
 14 13  1  0  0  0  0
 15 14  1  0  0  0  0
 16 18  1  0  0  0  0
 16 14  2  0  0  0  0
 17 16  1  0  0  0  0
 18 20  2  0  0  0  0
 19 18  1  0  0  0  0
 20 21  1  0  0  0  0
 20 22  1  0  0  0  0
 22 23  2  0  0  0  0
 23  5  1  0  0  0  0
 24 23  1  0  0  0  0
 24  6  1  0  0  0  0
 25 32  1  0  0  0  0
 25  6  1  0  0  0  0
 26 25  2  0  0  0  0
 27 26  1  0  0  0  0
 28 29  2  0  0  0  0
 28 26  1  0  0  0  0
 29 30  1  0  0  0  0
 30 32  2  0  0  0  0
 31 30  1  0  0  0  0
 32  7  1  0  0  0  0
 33 34  1  0  0  0  0
 33  7  1  0  0  0  0
 34  8  1  0  0  0  0
 35 34  2  0  0  0  0
 36 37  1  0  0  0  0
 36 35  1  0  0  0  0
 38 36  1  0  0  0  0
 39 38  1  0  0  0  0
 40 38  2  0  0  0  0
 40 42  1  0  0  0  0
 41 40  1  0  0  0  0
 42 44  2  0  0  0  0
 43 42  1  0  0  0  0
 44 35  1  0  0  0  0
 44 45  1  0  0  0  0
 45 46  1  0  0  0  0
 45 47  2  0  0  0  0
 47  8  1  0  0  0  0
 47 48  1  0  0  0  0
 49  3  1  0  0  0  0
 49 51  1  0  0  0  0
 50 49  1  0  0  0  0
 52 49  1  0  0  0  0
 53  4  1  0  0  0  0
 53 56  1  0  0  0  0
 54 53  1  0  0  0  0
 55 53  1  0  0  0  0
M  END
