1,2,3,4
 OpenBabel05122313063D

 55 57  0  0  1  0  0  0  0  0999 V2000
   -1.4015    1.8433   -0.0170 N   0  0  0  0  0  0  0  0  0  0  0  0
    1.4015    1.8432   -0.0173 N   0  0  0  0  0  0  0  0  0  0  0  0
   -1.4083   -0.7564   -0.2259 N   0  0  0  0  0  2  0  0  0  0  0  0
    1.4082   -0.7566   -0.2260 N   0  0  0  0  0  2  0  0  0  0  0  0
   -1.1860   -2.0416   -0.1839 O   0  0  0  0  0  0  0  0  0  0  0  0
   -0.0002   -2.1532   -0.1977 H   0  0  0  0  0  0  0  0  0  0  0  0
    1.1859   -2.0417   -0.1837 O   0  0  0  0  0  1  0  0  0  0  0  0
   -1.2843    3.0727   -0.8559 C   0  0  0  0  0  0  0  0  0  0  0  0
   -1.3855    2.7281   -1.9051 H   0  0  0  0  0  0  0  0  0  0  0  0
   -2.1580    3.7293   -0.6428 H   0  0  0  0  0  0  0  0  0  0  0  0
    0.0000    3.8789   -0.7117 C   0  0  0  0  0  0  0  0  0  0  0  0
   -0.0000    4.6232   -1.5344 H   0  0  0  0  0  0  0  0  0  0  0  0
    0.0001    4.4836    0.2112 H   0  0  0  0  0  0  0  0  0  0  0  0
    1.2843    3.0726   -0.8561 C   0  0  0  0  0  0  0  0  0  0  0  0
    2.1581    3.7292   -0.6430 H   0  0  0  0  0  0  0  0  0  0  0  0
    1.3854    2.7281   -1.9053 H   0  0  0  0  0  0  0  0  0  0  0  0
    1.3221    2.0814    1.4619 C   0  0  0  0  0  0  0  0  0  0  0  0
    2.1498    2.7674    1.7551 H   0  0  0  0  0  0  0  0  0  0  0  0
    1.5375    1.1019    1.9333 H   0  0  0  0  0  0  0  0  0  0  0  0
    0.0002    2.6544    1.9980 C   0  0  0  0  0  0  0  0  0  0  0  0
    0.0003    2.4665    3.0913 H   0  0  0  0  0  0  0  0  0  0  0  0
    0.0002    3.7544    1.9078 H   0  0  0  0  0  0  0  0  0  0  0  0
   -1.3219    2.0815    1.4621 C   0  0  0  0  0  0  0  0  0  0  0  0
   -1.5373    1.1020    1.9335 H   0  0  0  0  0  0  0  0  0  0  0  0
   -2.1495    2.7676    1.7554 H   0  0  0  0  0  0  0  0  0  0  0  0
   -2.7115    1.2019   -0.3399 C   0  0  0  0  0  0  0  0  0  0  0  0
   -3.5073    1.6534    0.2897 H   0  0  0  0  0  0  0  0  0  0  0  0
   -2.9631    1.4502   -1.3925 H   0  0  0  0  0  0  0  0  0  0  0  0
   -2.6505   -0.2911   -0.1731 C   0  0  1  0  0  3  0  0  0  0  0  0
   -3.8855   -1.0733   -0.0800 C   0  0  0  0  0  0  0  0  0  0  0  0
   -5.1297   -0.4153   -0.2928 C   0  0  0  0  0  0  0  0  0  0  0  0
   -5.1647    0.6534   -0.5477 H   0  0  0  0  0  0  0  0  0  0  0  0
   -6.3398   -1.1095   -0.2073 C   0  0  0  0  0  0  0  0  0  0  0  0
   -7.2854   -0.5766   -0.3862 H   0  0  0  0  0  0  0  0  0  0  0  0
   -6.3479   -2.4788    0.1033 C   0  0  0  0  0  0  0  0  0  0  0  0
   -7.3003   -3.0250    0.1729 H   0  0  0  0  0  0  0  0  0  0  0  0
   -5.1315   -3.1440    0.3207 C   0  0  0  0  0  0  0  0  0  0  0  0
   -5.1272   -4.2166    0.5652 H   0  0  0  0  0  0  0  0  0  0  0  0
   -3.9136   -2.4615    0.2253 C   0  0  0  0  0  0  0  0  0  0  0  0
   -2.9726   -2.9952    0.3905 H   0  0  0  0  0  0  0  0  0  0  0  0
    2.7115    1.2018   -0.3403 C   0  0  0  0  0  0  0  0  0  0  0  0
    3.5074    1.6533    0.2891 H   0  0  0  0  0  0  0  0  0  0  0  0
    2.9628    1.4499   -1.3930 H   0  0  0  0  0  0  0  0  0  0  0  0
    2.6505   -0.2912   -0.1733 C   0  0  2  0  0  3  0  0  0  0  0  0
    3.8854   -1.0734   -0.0800 C   0  0  0  0  0  0  0  0  0  0  0  0
    5.1296   -0.4154   -0.2931 C   0  0  0  0  0  0  0  0  0  0  0  0
    5.1645    0.6532   -0.5483 H   0  0  0  0  0  0  0  0  0  0  0  0
    6.3398   -1.1095   -0.2074 C   0  0  0  0  0  0  0  0  0  0  0  0
    7.2853   -0.5766   -0.3865 H   0  0  0  0  0  0  0  0  0  0  0  0
    6.3479   -2.4787    0.1035 C   0  0  0  0  0  0  0  0  0  0  0  0
    7.3003   -3.0249    0.1732 H   0  0  0  0  0  0  0  0  0  0  0  0
    5.1315   -3.1439    0.3211 C   0  0  0  0  0  0  0  0  0  0  0  0
    5.1273   -4.2165    0.5658 H   0  0  0  0  0  0  0  0  0  0  0  0
    3.9136   -2.4615    0.2255 C   0  0  0  0  0  0  0  0  0  0  0  0
    2.9726   -2.9952    0.3910 H   0  0  0  0  0  0  0  0  0  0  0  0
  1 23  1  0  0  0  0
  2 17  1  0  0  0  0
  3  5  1  0  0  0  0
  4  7  1  0  0  0  0
  6  5  1  0  0  0  0
  8 11  1  0  0  0  0
  8 10  1  0  0  0  0
  8  1  1  0  0  0  0
  9  8  1  0  0  0  0
 11 13  1  0  0  0  0
 12 11  1  0  0  0  0
 14 11  1  0  0  0  0
 14 15  1  0  0  0  0
 14  2  1  0  0  0  0
 16 14  1  0  0  0  0
 17 18  1  0  0  0  0
 17 19  1  0  0  0  0
 17 20  1  0  0  0  0
 20 21  1  0  0  0  0
 22 20  1  0  0  0  0
 23 25  1  0  0  0  0
 23 24  1  0  0  0  0
 23 20  1  0  0  0  0
 26 29  1  0  0  0  0
 26  1  1  0  0  0  0
 26 27  1  0  0  0  0
 28 26  1  0  0  0  0
 29  3  1  6  0  0  0
 29 30  1  0  0  0  0
 30 39  1  0  0  0  0
 31 33  1  0  0  0  0
 31 30  2  0  0  0  0
 32 31  1  0  0  0  0
 33 35  2  0  0  0  0
 34 33  1  0  0  0  0
 35 36  1  0  0  0  0
 35 37  1  0  0  0  0
 37 38  1  0  0  0  0
 39 37  2  0  0  0  0
 39 40  1  0  0  0  0
 41 44  1  0  0  0  0
 41  2  1  0  0  0  0
 41 42  1  0  0  0  0
 43 41  1  0  0  0  0
 44  4  1  6  0  0  0
 44 45  1  0  0  0  0
 45 54  1  0  0  0  0
 46 48  1  0  0  0  0
 46 45  2  0  0  0  0
 47 46  1  0  0  0  0
 48 50  2  0  0  0  0
 49 48  1  0  0  0  0
 50 51  1  0  0  0  0
 50 52  1  0  0  0  0
 52 53  1  0  0  0  0
 54 52  2  0  0  0  0
 54 55  1  0  0  0  0
M  END
