1,3,5,7
 OpenBabel05122313063D

 62 62  0  0  1  0  0  0  0  0999 V2000
    1.0463   -1.3978   -1.1077 N   0  0  0  0  0  0  0  0  0  0  0  0
    1.0100   -0.9456   -2.0357 H   0  0  0  0  0  0  0  0  0  0  0  0
    1.6792    1.3292    0.2132 N   0  0  0  0  0  0  0  0  0  0  0  0
    1.5047    1.8159    1.1070 H   0  0  0  0  0  0  0  0  0  0  0  0
   -0.8887    1.5113   -1.0698 N   0  0  0  0  0  0  0  0  0  0  0  0
   -0.7236    1.1548   -2.0255 H   0  0  0  0  0  0  0  0  0  0  0  0
   -1.7017   -1.3543   -0.2103 N   0  0  0  0  0  0  0  0  0  0  0  0
   -1.6668   -1.9662    0.6197 H   0  0  0  0  0  0  0  0  0  0  0  0
    2.4949   -1.6270   -0.8205 C   0  0  2  0  0  0  0  0  0  0  0  0
    2.5457   -2.0553    0.2003 H   0  0  0  0  0  0  0  0  0  0  0  0
    3.2688   -0.2989   -0.8391 C   0  0  0  0  0  0  0  0  0  0  0  0
    3.1206    0.1910   -1.8285 H   0  0  0  0  0  0  0  0  0  0  0  0
    4.3455   -0.5608   -0.8211 H   0  0  0  0  0  0  0  0  0  0  0  0
    3.0602    0.7337    0.2931 C   0  0  0  0  0  0  0  0  0  0  0  0
    1.4349    2.2870   -0.8769 C   0  0  0  0  0  0  0  0  0  0  0  0
    1.7077    1.8088   -1.8432 H   0  0  0  0  0  0  0  0  0  0  0  0
    2.0658    3.1967   -0.7900 H   0  0  0  0  0  0  0  0  0  0  0  0
   -0.0348    2.7219   -0.9185 C   0  0  1  0  0  0  0  0  0  0  0  0
   -0.2832    3.1517    0.0743 H   0  0  0  0  0  0  0  0  0  0  0  0
   -2.3673    1.7471   -0.9724 C   0  0  1  0  0  0  0  0  0  0  0  0
   -2.6579    2.3895   -1.8357 H   0  0  0  0  0  0  0  0  0  0  0  0
   -3.1441    0.4377   -1.2187 C   0  0  0  0  0  0  0  0  0  0  0  0
   -2.8769    0.0741   -2.2368 H   0  0  0  0  0  0  0  0  0  0  0  0
   -4.2116    0.7257   -1.3061 H   0  0  0  0  0  0  0  0  0  0  0  0
   -3.0921   -0.7730   -0.2535 C   0  0  0  0  0  0  0  0  0  0  0  0
   -1.2666   -2.1482   -1.3720 C   0  0  0  0  0  0  0  0  0  0  0  0
   -1.3528   -1.5192   -2.2842 H   0  0  0  0  0  0  0  0  0  0  0  0
   -1.9057   -3.0404   -1.5438 H   0  0  0  0  0  0  0  0  0  0  0  0
    0.1860   -2.6171   -1.2016 C   0  0  2  0  0  0  0  0  0  0  0  0
    0.4413   -3.1880   -2.1222 H   0  0  0  0  0  0  0  0  0  0  0  0
    3.1864    0.0795    1.6760 C   0  0  0  0  0  0  0  0  0  0  0  0
    2.3783   -0.6510    1.8730 H   0  0  0  0  0  0  0  0  0  0  0  0
    3.1462    0.8488    2.4746 H   0  0  0  0  0  0  0  0  0  0  0  0
    4.1609   -0.4378    1.7685 H   0  0  0  0  0  0  0  0  0  0  0  0
    4.1377    1.8271    0.1563 C   0  0  0  0  0  0  0  0  0  0  0  0
    3.9603    2.6503    0.8781 H   0  0  0  0  0  0  0  0  0  0  0  0
    4.1792    2.2585   -0.8634 H   0  0  0  0  0  0  0  0  0  0  0  0
    5.1378    1.4055    0.3754 H   0  0  0  0  0  0  0  0  0  0  0  0
   -0.2673    3.7768   -1.9996 C   0  0  0  0  0  0  0  0  0  0  0  0
   -1.3072    4.1556   -1.9930 H   0  0  0  0  0  0  0  0  0  0  0  0
   -0.0555    3.3680   -3.0106 H   0  0  0  0  0  0  0  0  0  0  0  0
    0.3983    4.6484   -1.8449 H   0  0  0  0  0  0  0  0  0  0  0  0
   -2.7423    2.5294    0.2893 C   0  0  0  0  0  0  0  0  0  0  0  0
   -2.4637    3.5969    0.1925 H   0  0  0  0  0  0  0  0  0  0  0  0
   -2.2599    2.1348    1.2021 H   0  0  0  0  0  0  0  0  0  0  0  0
   -3.8386    2.5004    0.4330 H   0  0  0  0  0  0  0  0  0  0  0  0
   -3.4524   -0.4168    1.1962 C   0  0  0  0  0  0  0  0  0  0  0  0
   -2.6897    0.2249    1.6708 H   0  0  0  0  0  0  0  0  0  0  0  0
   -3.5501   -1.3419    1.8013 H   0  0  0  0  0  0  0  0  0  0  0  0
   -4.4245    0.1091    1.2399 H   0  0  0  0  0  0  0  0  0  0  0  0
   -4.1076   -1.8169   -0.7617 C   0  0  0  0  0  0  0  0  0  0  0  0
   -4.0312   -2.7582   -0.1802 H   0  0  0  0  0  0  0  0  0  0  0  0
   -3.9751   -2.0561   -1.8353 H   0  0  0  0  0  0  0  0  0  0  0  0
   -5.1388   -1.4341   -0.6353 H   0  0  0  0  0  0  0  0  0  0  0  0
    3.1352   -2.6080   -1.8107 C   0  0  0  0  0  0  0  0  0  0  0  0
    3.1023   -2.2072   -2.8462 H   0  0  0  0  0  0  0  0  0  0  0  0
    2.6425   -3.5987   -1.8107 H   0  0  0  0  0  0  0  0  0  0  0  0
    4.1992   -2.7749   -1.5538 H   0  0  0  0  0  0  0  0  0  0  0  0
    0.3573   -3.5476    0.0018 C   0  0  0  0  0  0  0  0  0  0  0  0
    0.2466   -3.0173    0.9683 H   0  0  0  0  0  0  0  0  0  0  0  0
    1.3488   -4.0380    0.0037 H   0  0  0  0  0  0  0  0  0  0  0  0
   -0.3987   -4.3557   -0.0483 H   0  0  0  0  0  0  0  0  0  0  0  0
  1  9  1  0  0  0  0
  2  1  1  0  0  0  0
  3 14  1  0  0  0  0
  3  4  1  0  0  0  0
  5 20  1  0  0  0  0
  5 18  1  0  0  0  0
  6  5  1  0  0  0  0
  7  8  1  0  0  0  0
  9 10  1  1  0  0  0
 11 13  1  0  0  0  0
 11  9  1  0  0  0  0
 11 14  1  0  0  0  0
 12 11  1  0  0  0  0
 14 31  1  0  0  0  0
 15 17  1  0  0  0  0
 15  3  1  0  0  0  0
 16 15  1  0  0  0  0
 18 15  1  0  0  0  0
 18 19  1  1  0  0  0
 20 21  1  6  0  0  0
 20 43  1  0  0  0  0
 22 20  1  0  0  0  0
 22 25  1  0  0  0  0
 23 22  1  0  0  0  0
 24 22  1  0  0  0  0
 25  7  1  0  0  0  0
 25 47  1  0  0  0  0
 26 29  1  0  0  0  0
 26  7  1  0  0  0  0
 27 26  1  0  0  0  0
 28 26  1  0  0  0  0
 29 30  1  6  0  0  0
 29  1  1  0  0  0  0
 29 59  1  0  0  0  0
 31 34  1  0  0  0  0
 31 32  1  0  0  0  0
 31 33  1  0  0  0  0
 35 14  1  0  0  0  0
 35 38  1  0  0  0  0
 35 36  1  0  0  0  0
 37 35  1  0  0  0  0
 39 40  1  0  0  0  0
 39 42  1  0  0  0  0
 39 18  1  0  0  0  0
 41 39  1  0  0  0  0
 43 46  1  0  0  0  0
 43 45  1  0  0  0  0
 44 43  1  0  0  0  0
 47 50  1  0  0  0  0
 47 48  1  0  0  0  0
 47 49  1  0  0  0  0
 51 54  1  0  0  0  0
 51 25  1  0  0  0  0
 51 52  1  0  0  0  0
 53 51  1  0  0  0  0
 55 58  1  0  0  0  0
 55  9  1  0  0  0  0
 56 55  1  0  0  0  0
 57 55  1  0  0  0  0
 59 61  1  0  0  0  0
 59 60  1  0  0  0  0
 62 59  1  0  0  0  0
M  END
