1,10,12,15
 OpenBabel05122313063D

 48 49  0  0  1  0  0  0  0  0999 V2000
    2.0825   -0.0677   -0.2721 N   0  0  0  0  0  2  0  0  0  0  0  0
    2.4668   -2.0280   -1.7815 C   0  0  0  0  0  0  0  0  0  0  0  0
    2.0354   -1.5205   -2.6674 H   0  0  0  0  0  0  0  0  0  0  0  0
    1.6225   -2.6392   -1.4088 H   0  0  0  0  0  0  0  0  0  0  0  0
    3.3068   -2.6766   -2.0928 H   0  0  0  0  0  0  0  0  0  0  0  0
   -2.8350    2.0457   -1.4364 C   0  0  0  0  0  0  0  0  0  0  0  0
   -1.8845    1.8901   -1.9875 H   0  0  0  0  0  0  0  0  0  0  0  0
   -2.6764    2.9213   -0.7717 H   0  0  0  0  0  0  0  0  0  0  0  0
   -3.6544    2.3076   -2.1319 H   0  0  0  0  0  0  0  0  0  0  0  0
    0.4416    1.5090    1.1790 N   0  0  0  0  0  0  0  0  0  0  0  0
    2.9452   -1.0080   -0.8014 C   0  0  1  0  0  3  0  0  0  0  0  0
   -0.2533   -1.2468    1.3583 N   0  0  0  0  0  0  0  0  0  0  0  0
    4.3188   -0.9900   -0.4858 C   0  0  0  0  0  0  0  0  0  0  0  0
    4.9494   -1.7830   -0.9128 H   0  0  0  0  0  0  0  0  0  0  0  0
   -2.2249    0.0647   -0.0789 N   0  0  0  0  0  2  0  0  0  0  0  0
    4.8805    0.0073    0.3149 C   0  0  0  0  0  0  0  0  0  0  0  0
    5.9518    0.0083    0.5620 H   0  0  0  0  0  0  0  0  0  0  0  0
    4.0250    1.0246    0.7559 C   0  0  0  0  0  0  0  0  0  0  0  0
    4.3942    1.8754    1.3470 H   0  0  0  0  0  0  0  0  0  0  0  0
    2.6695    0.9695    0.4284 C   0  0  0  0  0  0  0  0  0  0  0  0
    1.7424    2.0858    0.7887 C   0  0  0  0  0  0  0  0  0  0  0  0
    2.1673    2.7389    1.5858 H   0  0  0  0  0  0  0  0  0  0  0  0
    1.5534    2.6816   -0.1320 H   0  0  0  0  0  0  0  0  0  0  0  0
   -0.5893    2.5551    1.2173 C   0  0  0  0  0  0  0  0  0  0  0  0
   -0.3235    3.3536    1.9489 H   0  0  0  0  0  0  0  0  0  0  0  0
   -1.5640    2.1163    1.4976 H   0  0  0  0  0  0  0  0  0  0  0  0
   -0.6678    2.9825    0.2005 H   0  0  0  0  0  0  0  0  0  0  0  0
    0.5654    0.7869    2.4680 C   0  0  0  0  0  0  0  0  0  0  0  0
    0.4307    1.4801    3.3299 H   0  0  0  0  0  0  0  0  0  0  0  0
    1.5989    0.3899    2.5338 H   0  0  0  0  0  0  0  0  0  0  0  0
   -0.4322   -0.3514    2.5277 C   0  0  0  0  0  0  0  0  0  0  0  0
   -0.3318   -0.9187    3.4823 H   0  0  0  0  0  0  0  0  0  0  0  0
   -1.4653    0.0470    2.4959 H   0  0  0  0  0  0  0  0  0  0  0  0
    0.8317   -2.2155    1.5719 C   0  0  0  0  0  0  0  0  0  0  0  0
    0.5944   -2.9045    2.4161 H   0  0  0  0  0  0  0  0  0  0  0  0
    1.7800   -1.6924    1.7904 H   0  0  0  0  0  0  0  0  0  0  0  0
    0.9655   -2.8037    0.6465 H   0  0  0  0  0  0  0  0  0  0  0  0
   -1.5036   -1.9665    1.0669 C   0  0  0  0  0  0  0  0  0  0  0  0
   -1.8303   -2.5796    1.9398 H   0  0  0  0  0  0  0  0  0  0  0  0
   -1.2882   -2.6280    0.1967 H   0  0  0  0  0  0  0  0  0  0  0  0
   -2.5970   -1.0378    0.6230 C   0  0  2  0  0  3  0  0  0  0  0  0
   -3.9346   -1.3851    0.8552 C   0  0  0  0  0  0  0  0  0  0  0  0
   -4.1684   -2.2793    1.4511 H   0  0  0  0  0  0  0  0  0  0  0  0
   -4.9439   -0.5977    0.2904 C   0  0  0  0  0  0  0  0  0  0  0  0
   -6.0056   -0.8481    0.4353 H   0  0  0  0  0  0  0  0  0  0  0  0
   -4.5644    0.5078   -0.4716 C   0  0  0  0  0  0  0  0  0  0  0  0
   -5.3192    1.1471   -0.9518 H   0  0  0  0  0  0  0  0  0  0  0  0
   -3.1998    0.8342   -0.6362 C   0  0  0  0  0  0  0  0  0  0  0  0
  1 20  1  0  0  0  0
  2  4  1  0  0  0  0
  3  2  1  0  0  0  0
  5  2  1  0  0  0  0
  6  8  1  0  0  0  0
  6 48  1  0  0  0  0
  7  6  1  0  0  0  0
  9  6  1  0  0  0  0
 10 24  1  0  0  0  0
 10 28  1  0  0  0  0
 11  2  1  6  0  0  0
 11 13  1  0  0  0  0
 11  1  1  0  0  0  0
 12 34  1  0  0  0  0
 12 31  1  0  0  0  0
 13 16  2  0  0  0  0
 14 13  1  0  0  0  0
 15 41  1  0  0  0  0
 16 17  1  0  0  0  0
 16 18  1  0  0  0  0
 18 19  1  0  0  0  0
 20 18  2  0  0  0  0
 20 21  1  0  0  0  0
 21 10  1  0  0  0  0
 21 22  1  0  0  0  0
 23 21  1  0  0  0  0
 24 26  1  0  0  0  0
 24 25  1  0  0  0  0
 27 24  1  0  0  0  0
 28 31  1  0  0  0  0
 28 30  1  0  0  0  0
 28 29  1  0  0  0  0
 31 32  1  0  0  0  0
 33 31  1  0  0  0  0
 34 36  1  0  0  0  0
 34 35  1  0  0  0  0
 37 34  1  0  0  0  0
 38 12  1  0  0  0  0
 38 39  1  0  0  0  0
 40 38  1  0  0  0  0
 41 42  1  0  0  0  0
 41 38  1  6  0  0  0
 42 43  1  0  0  0  0
 44 45  1  0  0  0  0
 44 42  2  0  0  0  0
 46 44  1  0  0  0  0
 47 46  1  0  0  0  0
 48 46  2  0  0  0  0
 48 15  1  0  0  0  0
M  END
