1,2,3,4
 OpenBabel05122313063D

 56 58  0  0  0  0  0  0  0  0999 V2000
   -1.2558   -1.9732   -0.0084 N   0  0  0  0  0  2  0  0  0  0  0  0
   -1.2919    0.7187    0.1369 N   0  0  0  0  0  2  0  0  0  0  0  0
    1.2658    0.7821    0.1390 N   0  0  0  0  0  2  0  0  0  0  0  0
    1.3153   -1.9528    0.3704 N   0  0  0  0  0  2  0  0  0  0  0  0
   -1.4480   -4.1642    0.7982 O   0  0  0  0  0  0  0  0  0  0  0  0
    1.2521   -4.0714    1.3863 O   0  0  0  0  0  0  0  0  0  0  0  0
    3.7801    2.5732    0.9995 O   0  0  0  0  0  0  0  0  0  0  0  0
    3.5101    2.3929   -1.2574 O   0  0  0  0  0  0  0  0  0  0  0  0
   -3.8022    2.5735   -0.9213 O   0  0  0  0  0  0  0  0  0  0  0  0
   -3.7787    1.9697    1.2766 O   0  0  0  0  0  0  0  0  0  0  0  0
    0.7118   -3.1156    0.8438 C   0  0  0  0  0  0  0  0  0  0  0  0
   -0.7999   -3.1535    0.5570 C   0  0  0  0  0  0  0  0  0  0  0  0
   -2.5096   -1.8654   -0.5804 C   0  0  0  0  0  0  0  0  0  0  0  0
   -3.2164   -3.0105   -1.0539 C   0  0  0  0  0  0  0  0  0  0  0  0
   -2.7588   -3.9956   -0.9192 H   0  0  0  0  0  0  0  0  0  0  0  0
   -4.4644   -2.8952   -1.6590 C   0  0  0  0  0  0  0  0  0  0  0  0
   -4.9637   -3.8062   -2.0237 H   0  0  0  0  0  0  0  0  0  0  0  0
   -5.0892   -1.6397   -1.8133 C   0  0  0  0  0  0  0  0  0  0  0  0
   -6.0712   -1.5550   -2.3003 H   0  0  0  0  0  0  0  0  0  0  0  0
   -4.4376   -0.5065   -1.3448 C   0  0  0  0  0  3  0  0  0  0  0  0
   -4.8988    0.4816   -1.4795 H   0  0  0  0  0  0  0  0  0  0  0  0
   -3.1568   -0.5867   -0.7274 C   0  0  0  0  0  0  0  0  0  0  0  0
   -2.5541    0.6186   -0.2059 C   0  0  0  0  0  0  0  0  0  0  0  0
   -3.4476    1.8351   -0.0221 C   0  0  0  0  0  0  0  0  0  0  0  0
   -4.6280    3.0984    1.6182 C   0  0  0  0  0  0  0  0  0  0  0  0
   -5.3728    3.2359    0.8090 H   0  0  0  0  0  0  0  0  0  0  0  0
   -5.1452    2.7792    2.5429 H   0  0  0  0  0  0  0  0  0  0  0  0
   -3.8106    4.3604    1.8334 C   0  0  0  0  0  0  0  0  0  0  0  0
   -4.4706    5.1809    2.1797 H   0  0  0  0  0  0  0  0  0  0  0  0
   -3.3322    4.6863    0.8890 H   0  0  0  0  0  0  0  0  0  0  0  0
   -3.0275    4.2032    2.6016 H   0  0  0  0  0  0  0  0  0  0  0  0
   -0.7504    1.9619    0.6874 C   0  0  0  0  0  0  0  0  0  0  0  0
   -0.6982    1.8738    1.7941 H   0  0  0  0  0  0  0  0  0  0  0  0
   -1.3753    2.8453    0.4442 H   0  0  0  0  0  0  0  0  0  0  0  0
    0.6394    2.1114    0.0996 C   0  0  0  0  0  0  0  0  0  0  0  0
    1.2288    2.8590    0.6683 H   0  0  0  0  0  0  0  0  0  0  0  0
    0.5747    2.4499   -0.9574 H   0  0  0  0  0  0  0  0  0  0  0  0
    2.5746    0.6858    0.0713 C   0  0  0  0  0  0  0  0  0  0  0  0
    3.3680    1.9846    0.0193 C   0  0  0  0  0  0  0  0  0  0  0  0
    4.2200    3.6441   -1.4650 C   0  0  0  0  0  0  0  0  0  0  0  0
    4.6448    3.5516   -2.4827 H   0  0  0  0  0  0  0  0  0  0  0  0
    5.0440    3.7087   -0.7264 H   0  0  0  0  0  0  0  0  0  0  0  0
    3.2836    4.8340   -1.3491 C   0  0  0  0  0  0  0  0  0  0  0  0
    3.8285    5.7669   -1.5974 H   0  0  0  0  0  0  0  0  0  0  0  0
    2.8963    4.9322   -0.3162 H   0  0  0  0  0  0  0  0  0  0  0  0
    2.4291    4.7392   -2.0483 H   0  0  0  0  0  0  0  0  0  0  0  0
    3.3178   -0.5489    0.0725 C   0  0  0  0  0  0  0  0  0  0  0  0
    4.7315   -0.4701   -0.0890 C   0  0  0  0  0  3  0  0  0  0  0  0
    5.1967    0.5160   -0.2318 H   0  0  0  0  0  0  0  0  0  0  0  0
    5.5368   -1.5994   -0.0757 C   0  0  0  0  0  0  0  0  0  0  0  0
    6.6249   -1.5123   -0.2058 H   0  0  0  0  0  0  0  0  0  0  0  0
    4.9250   -2.8568    0.1091 C   0  0  0  0  0  0  0  0  0  0  0  0
    5.5389   -3.7708    0.1203 H   0  0  0  0  0  0  0  0  0  0  0  0
    3.5491   -2.9738    0.2793 C   0  0  0  0  0  0  0  0  0  0  0  0
    3.0997   -3.9562    0.4511 H   0  0  0  0  0  0  0  0  0  0  0  0
    2.6879   -1.8336    0.2560 C   0  0  0  0  0  0  0  0  0  0  0  0
  1 12  1  0  0  0  0
  2 32  1  0  0  0  0
  4 11  1  0  0  0  0
  8 39  1  0  0  0  0
  9 24  2  0  0  0  0
 10 25  1  0  0  0  0
 11  6  2  0  0  0  0
 12  5  2  0  0  0  0
 12 11  1  0  0  0  0
 13  1  1  0  0  0  0
 14 15  1  0  0  0  0
 14 13  2  0  0  0  0
 16 14  1  0  0  0  0
 17 16  1  0  0  0  0
 18 16  2  0  0  0  0
 18 20  1  0  0  0  0
 19 18  1  0  0  0  0
 20 22  1  0  0  0  0
 21 20  1  0  0  0  0
 22 13  1  0  0  0  0
 22 23  2  0  0  0  0
 23 24  1  0  0  0  0
 23  2  1  0  0  0  0
 24 10  1  0  0  0  0
 25 28  1  0  0  0  0
 25 27  1  0  0  0  0
 26 25  1  0  0  0  0
 28 29  1  0  0  0  0
 28 31  1  0  0  0  0
 30 28  1  0  0  0  0
 32 33  1  0  0  0  0
 34 32  1  0  0  0  0
 35  3  1  0  0  0  0
 35 36  1  0  0  0  0
 35 32  1  0  0  0  0
 37 35  1  0  0  0  0
 38 47  2  0  0  0  0
 38  3  1  0  0  0  0
 39 38  1  0  0  0  0
 39  7  2  0  0  0  0
 40 43  1  0  0  0  0
 40  8  1  0  0  0  0
 40 42  1  0  0  0  0
 41 40  1  0  0  0  0
 43 45  1  0  0  0  0
 44 43  1  0  0  0  0
 46 43  1  0  0  0  0
 47 56  1  0  0  0  0
 48 50  1  0  0  0  0
 48 47  1  0  0  0  0
 49 48  1  0  0  0  0
 50 52  2  0  0  0  0
 51 50  1  0  0  0  0
 52 53  1  0  0  0  0
 52 54  1  0  0  0  0
 54 55  1  0  0  0  0
 56 54  2  0  0  0  0
 56  4  1  0  0  0  0
M  END
