1,4,6,8
 OpenBabel05122313063D

 32 31  0  0  0  0  0  0  0  0999 V2000
    1.5648   -1.8250    0.1245 N   0  0  0  0  0  0  0  0  0  0  0  0
    1.6491   -2.0906    1.1213 H   0  0  0  0  0  0  0  0  0  0  0  0
    1.4241   -2.6783   -0.4355 H   0  0  0  0  0  0  0  0  0  0  0  0
    1.3886    0.8670   -0.1266 N   0  0  0  0  0  0  0  0  0  0  0  0
    1.3504    1.0449   -1.1489 H   0  0  0  0  0  0  0  0  0  0  0  0
   -1.4932    0.6734   -0.1132 N   0  0  0  0  0  0  0  0  0  0  0  0
   -1.4640    0.8580   -1.1352 H   0  0  0  0  0  0  0  0  0  0  0  0
   -1.3025   -2.0192    0.1356 N   0  0  0  0  0  0  0  0  0  0  0  0
   -1.3494   -2.2871    1.1342 H   0  0  0  0  0  0  0  0  0  0  0  0
   -1.0490   -2.8496   -0.4190 H   0  0  0  0  0  0  0  0  0  0  0  0
   -0.1450    2.8309   -1.3047 O   0  0  0  0  0  0  0  0  0  0  0  0
   -0.6815    3.5822   -1.6159 H   0  0  0  0  0  0  0  0  0  0  0  0
    2.7797   -1.1109   -0.3402 C   0  0  0  0  0  0  0  0  0  0  0  0
    2.7413   -1.0849   -1.4471 H   0  0  0  0  0  0  0  0  0  0  0  0
    3.7098   -1.6295   -0.0293 H   0  0  0  0  0  0  0  0  0  0  0  0
    2.7088    0.2920    0.2312 C   0  0  0  0  0  0  0  0  0  0  0  0
    2.7651    0.2641    1.3388 H   0  0  0  0  0  0  0  0  0  0  0  0
    3.5376    0.9303   -0.1418 H   0  0  0  0  0  0  0  0  0  0  0  0
    1.1300    2.1411    0.5711 C   0  0  0  0  0  0  0  0  0  0  0  0
    1.9591    2.8470    0.3487 H   0  0  0  0  0  0  0  0  0  0  0  0
    1.1083    1.9417    1.6601 H   0  0  0  0  0  0  0  0  0  0  0  0
   -0.1864    2.7638    0.1179 C   0  0  0  0  0  0  0  0  0  0  0  0
   -0.2430    3.7733    0.5829 H   0  0  0  0  0  0  0  0  0  0  0  0
   -1.4089    1.9688    0.5851 C   0  0  0  0  0  0  0  0  0  0  0  0
   -1.3571    1.7761    1.6751 H   0  0  0  0  0  0  0  0  0  0  0  0
   -2.3339    2.5518    0.3766 H   0  0  0  0  0  0  0  0  0  0  0  0
   -2.7238   -0.0769    0.2369 C   0  0  0  0  0  0  0  0  0  0  0  0
   -3.6309    0.4416   -0.1398 H   0  0  0  0  0  0  0  0  0  0  0  0
   -2.7820   -0.1121    1.3441 H   0  0  0  0  0  0  0  0  0  0  0  0
   -2.6019   -1.4774   -0.3323 C   0  0  0  0  0  0  0  0  0  0  0  0
   -3.4540   -2.1164   -0.0217 H   0  0  0  0  0  0  0  0  0  0  0  0
   -2.5650   -1.4484   -1.4392 H   0  0  0  0  0  0  0  0  0  0  0  0
  1  2  1  0  0  0  0
  3  1  1  0  0  0  0
  4 16  1  0  0  0  0
  4 19  1  0  0  0  0
  5  4  1  0  0  0  0
  6 27  1  0  0  0  0
  6 24  1  0  0  0  0
  7  6  1  0  0  0  0
  8  9  1  0  0  0  0
 10  8  1  0  0  0  0
 11 22  1  0  0  0  0
 12 11  1  0  0  0  0
 13 15  1  0  0  0  0
 13  1  1  0  0  0  0
 13 16  1  0  0  0  0
 14 13  1  0  0  0  0
 16 17  1  0  0  0  0
 18 16  1  0  0  0  0
 19 21  1  0  0  0  0
 20 19  1  0  0  0  0
 22 19  1  0  0  0  0
 22 23  1  0  0  0  0
 22 24  1  0  0  0  0
 24 25  1  0  0  0  0
 26 24  1  0  0  0  0
 27 29  1  0  0  0  0
 28 27  1  0  0  0  0
 30 31  1  0  0  0  0
 30  8  1  0  0  0  0
 30 27  1  0  0  0  0
 32 30  1  0  0  0  0
M  END
