1,23,36,50
 OpenBabel05122313063D

 58 61  0  0  0  0  0  0  0  0999 V2000
    1.5585    1.8048   -0.1061 N   0  0  0  0  0  2  0  0  0  0  0  0
    2.6641    1.0491    0.1558 C   0  0  0  0  0  0  0  0  0  0  0  0
    3.9222    1.6393    0.3523 C   0  0  0  0  0  0  0  0  0  0  0  0
    4.7901    0.9988    0.5609 H   0  0  0  0  0  0  0  0  0  0  0  0
    4.0328    3.0333    0.2604 C   0  0  0  0  0  0  0  0  0  0  0  0
    5.0076    3.5227    0.4013 H   0  0  0  0  0  0  0  0  0  0  0  0
    2.8874    3.7922   -0.0246 C   0  0  0  0  0  0  0  0  0  0  0  0
    2.9356    4.8864   -0.1163 H   0  0  0  0  0  0  0  0  0  0  0  0
    1.6579    3.1420   -0.2047 C   0  0  0  0  0  0  0  0  0  0  0  0
    0.7148    3.6601   -0.4450 H   0  0  0  0  0  0  0  0  0  0  0  0
    2.3929   -0.3959    0.2000 C   0  0  0  0  0  0  0  0  0  0  0  0
    3.5001   -1.3572    0.4490 C   0  0  0  0  0  0  0  0  0  0  0  0
    4.3927   -1.6685   -0.5995 C   0  0  0  0  0  0  0  0  0  0  0  0
    4.2405   -1.2158   -1.5920 H   0  0  0  0  0  0  0  0  0  0  0  0
    5.4491   -2.5613   -0.3659 C   0  0  0  0  0  0  0  0  0  0  0  0
    6.1397   -2.8102   -1.1853 H   0  0  0  0  0  0  0  0  0  0  0  0
    5.6247   -3.1355    0.9034 C   0  0  0  0  0  0  0  0  0  0  0  0
    6.4566   -3.8331    1.0809 H   0  0  0  0  0  0  0  0  0  0  0  0
    4.7404   -2.8201    1.9477 C   0  0  0  0  0  0  0  0  0  0  0  0
    4.8791   -3.2667    2.9435 H   0  0  0  0  0  0  0  0  0  0  0  0
    3.6777   -1.9328    1.7251 C   0  0  0  0  0  0  0  0  0  0  0  0
    2.9850   -1.6804    2.5428 H   0  0  0  0  0  0  0  0  0  0  0  0
    1.1409   -0.7210   -0.0079 N   0  0  0  0  0  2  0  0  0  0  0  0
    0.7085   -2.1164   -0.0312 C   0  0  0  0  0  0  0  0  0  0  0  0
   -0.1214   -2.2205    0.7006 H   0  0  0  0  0  0  0  0  0  0  0  0
    1.5428   -2.7511    0.3247 H   0  0  0  0  0  0  0  0  0  0  0  0
    0.2467   -2.6028   -1.4239 C   0  0  0  0  0  0  0  0  0  0  0  0
    0.8618   -2.1122   -2.2057 H   0  0  0  0  0  0  0  0  0  0  0  0
    0.5079   -3.6796   -1.4749 H   0  0  0  0  0  0  0  0  0  0  0  0
   -1.2493   -2.4844   -1.7354 C   0  0  0  0  0  0  0  0  0  0  0  0
   -1.4555   -3.0230   -2.6834 H   0  0  0  0  0  0  0  0  0  0  0  0
   -1.8309   -3.0144   -0.9485 H   0  0  0  0  0  0  0  0  0  0  0  0
   -1.8294   -1.0713   -1.9030 C   0  0  0  0  0  0  0  0  0  0  0  0
   -1.3196   -0.5376   -2.7286 H   0  0  0  0  0  0  0  0  0  0  0  0
   -2.9094   -1.1424   -2.1289 H   0  0  0  0  0  0  0  0  0  0  0  0
   -1.6188   -0.2826   -0.6934 N   0  0  0  0  0  2  0  0  0  0  0  0
   -2.5054   -0.2211    0.2700 C   0  0  0  0  0  0  0  0  0  0  0  0
   -3.8822   -0.7673    0.1846 C   0  0  0  0  0  0  0  0  0  0  0  0
   -4.2836   -1.8498    0.9968 C   0  0  0  0  0  0  0  0  0  0  0  0
   -3.5637   -2.3172    1.6865 H   0  0  0  0  0  0  0  0  0  0  0  0
   -5.5943   -2.3406    0.9090 C   0  0  0  0  0  0  0  0  0  0  0  0
   -5.9017   -3.1923    1.5337 H   0  0  0  0  0  0  0  0  0  0  0  0
   -6.5098   -1.7470    0.0252 C   0  0  0  0  0  0  0  0  0  0  0  0
   -7.5386   -2.1315   -0.0387 H   0  0  0  0  0  0  0  0  0  0  0  0
   -6.1153   -0.6625   -0.7756 C   0  0  0  0  0  0  0  0  0  0  0  0
   -6.8341   -0.1921   -1.4627 H   0  0  0  0  0  0  0  0  0  0  0  0
   -4.8049   -0.1704   -0.7042 C   0  0  0  0  0  0  0  0  0  0  0  0
   -4.4913    0.6835   -1.3269 H   0  0  0  0  0  0  0  0  0  0  0  0
   -2.0285    0.4518    1.4863 C   0  0  0  0  0  0  0  0  0  0  0  0
   -0.7342    0.8800    1.4024 N   0  0  0  0  0  2  0  0  0  0  0  0
   -0.1514    1.4521    2.4681 C   0  0  0  0  0  0  0  0  0  0  0  0
    0.8892    1.7849    2.3458 H   0  0  0  0  0  0  0  0  0  0  0  0
   -0.8383    1.6373    3.6765 C   0  0  0  0  0  0  0  0  0  0  0  0
   -0.3237    2.1112    4.5241 H   0  0  0  0  0  0  0  0  0  0  0  0
   -2.1765    1.2287    3.7698 C   0  0  0  0  0  0  0  0  0  0  0  0
   -2.7457    1.3805    4.6984 H   0  0  0  0  0  0  0  0  0  0  0  0
   -2.7813    0.6261    2.6584 C   0  0  0  0  0  0  0  0  0  0  0  0
   -3.8273    0.2906    2.6803 H   0  0  0  0  0  0  0  0  0  0  0  0
  1  2  1  0  0  0  0
  2 11  2  0  0  0  0
  2  3  1  0  0  0  0
  3  4  1  0  0  0  0
  5  3  2  0  0  0  0
  5  6  1  0  0  0  0
  7  5  1  0  0  0  0
  8  7  1  0  0  0  0
  9  1  1  0  0  0  0
  9  7  2  0  0  0  0
 10  9  1  0  0  0  0
 11 12  1  0  0  0  0
 12 21  1  0  0  0  0
 13 15  1  0  0  0  0
 13 12  2  0  0  0  0
 14 13  1  0  0  0  0
 15 17  2  0  0  0  0
 16 15  1  0  0  0  0
 17 18  1  0  0  0  0
 17 19  1  0  0  0  0
 19 20  1  0  0  0  0
 21 19  2  0  0  0  0
 21 22  1  0  0  0  0
 23 11  1  0  0  0  0
 24 23  1  0  0  0  0
 24 26  1  0  0  0  0
 24 25  1  0  0  0  0
 27 24  1  0  0  0  0
 28 27  1  0  0  0  0
 29 27  1  0  0  0  0
 30 27  1  0  0  0  0
 30 32  1  0  0  0  0
 31 30  1  0  0  0  0
 33 30  1  0  0  0  0
 33 36  1  0  0  0  0
 34 33  1  0  0  0  0
 35 33  1  0  0  0  0
 36 37  1  0  0  0  0
 37 49  2  0  0  0  0
 38 37  1  0  0  0  0
 38 39  1  0  0  0  0
 39 40  1  0  0  0  0
 41 39  2  0  0  0  0
 41 42  1  0  0  0  0
 43 41  1  0  0  0  0
 44 43  1  0  0  0  0
 45 47  1  0  0  0  0
 45 43  2  0  0  0  0
 46 45  1  0  0  0  0
 47 38  2  0  0  0  0
 48 47  1  0  0  0  0
 49 57  1  0  0  0  0
 50 49  1  0  0  0  0
 50 51  1  0  0  0  0
 51 53  2  0  0  0  0
 52 51  1  0  0  0  0
 53 55  1  0  0  0  0
 53 54  1  0  0  0  0
 55 56  1  0  0  0  0
 57 58  1  0  0  0  0
 57 55  2  0  0  0  0
M  END
