1,2,3,4
 OpenBabel05122313063D

 46 51  0  0  1  0  0  0  0  0999 V2000
    2.3250    1.2007   -0.1190 N   0  0  0  0  0  2  0  0  0  0  0  0
    1.4541   -1.5615    0.7878 N   0  0  0  0  0  2  0  0  0  0  0  0
    0.0785    1.3130    0.9548 N   0  0  0  0  0  2  0  0  0  0  0  0
   -0.7320   -1.5032   -0.4673 N   0  0  0  0  0  2  0  0  0  0  0  0
   -0.3758   -2.7195   -0.1179 N   0  0  0  0  0  2  0  0  0  0  0  0
    0.8000    2.3781    1.2103 N   0  0  0  0  0  2  0  0  0  0  0  0
    3.5596    1.0725   -0.6691 C   0  0  0  0  0  3  0  0  0  0  0  0
    4.5551    2.0244   -0.4597 C   0  0  0  0  0  0  0  0  0  0  0  0
    4.2811    3.1574    0.3398 C   0  0  0  0  0  0  0  0  0  0  0  0
    3.0163    3.3016    0.8999 C   0  0  0  0  0  0  0  0  0  0  0  0
    2.0424    2.3047    0.6566 C   0  0  0  0  0  0  0  0  0  0  0  0
    2.5502   -1.5498    1.5906 C   0  0  0  0  0  3  0  0  0  0  0  0
    3.0802   -2.7165    2.1298 C   0  0  0  0  0  0  0  0  0  0  0  0
    2.4700   -3.9591    1.8329 C   0  0  0  0  0  0  0  0  0  0  0  0
    1.3314   -3.9819    1.0379 C   0  0  0  0  0  0  0  0  0  0  0  0
    0.8138   -2.7638    0.5324 C   0  0  0  0  0  0  0  0  0  0  0  0
   -2.1183   -1.4031   -0.7812 C   0  0  0  0  0  0  0  0  0  0  0  0
   -2.9668   -2.5334   -0.8277 C   0  0  0  0  0  0  0  0  0  0  0  0
   -4.3546   -2.3479   -0.8054 C   0  0  0  0  0  0  0  0  0  0  0  0
   -4.9050   -1.0683   -0.6033 C   0  0  0  0  0  0  0  0  0  0  0  0
   -4.0555    0.0540   -0.5995 C   0  0  0  0  0  0  0  0  0  0  0  0
   -2.6780   -0.1164   -0.8279 C   0  0  0  0  0  0  0  0  0  0  0  0
   -1.9965    2.5288    0.8059 C   0  0  0  0  0  0  0  0  0  0  0  0
   -3.4360    2.4366    0.8112 C   0  0  2  0  0  0  0  0  0  0  0  0
   -4.1256    1.4233    1.6502 C   0  0  2  0  0  0  0  0  0  0  0  0
   -3.2898    0.4104    2.2913 C   0  0  0  0  0  0  0  0  0  0  0  0
   -1.9378    0.3852    2.0530 C   0  0  0  0  0  0  0  0  0  0  0  0
   -1.2927    1.4509    1.3238 C   0  0  0  0  0  0  0  0  0  0  0  0
   -4.4223    1.3568    0.0087 C   0  0  2  0  0  0  0  0  0  0  0  0
   -4.2737    2.6938   -0.3623 C   0  0  0  0  0  2  0  0  0  0  0  0
    3.6883    0.1875   -1.3129 H   0  0  0  0  0  0  0  0  0  0  0  0
    5.5360    1.8884   -0.9361 H   0  0  0  0  0  0  0  0  0  0  0  0
    5.0552    3.9199    0.5102 H   0  0  0  0  0  0  0  0  0  0  0  0
    2.7325    4.1596    1.5238 H   0  0  0  0  0  0  0  0  0  0  0  0
    3.0059   -0.5652    1.7674 H   0  0  0  0  0  0  0  0  0  0  0  0
    3.9726   -2.6579    2.7682 H   0  0  0  0  0  0  0  0  0  0  0  0
    2.8875   -4.8937    2.2350 H   0  0  0  0  0  0  0  0  0  0  0  0
    0.7984   -4.9087    0.7874 H   0  0  0  0  0  0  0  0  0  0  0  0
   -2.5213   -3.5360   -0.8275 H   0  0  0  0  0  0  0  0  0  0  0  0
   -5.0179   -3.2245   -0.8576 H   0  0  0  0  0  0  0  0  0  0  0  0
   -5.9827   -0.9456   -0.4186 H   0  0  0  0  0  0  0  0  0  0  0  0
   -2.0147    0.7491   -0.9217 H   0  0  0  0  0  0  0  0  0  0  0  0
   -1.4928    3.2816    0.1849 H   0  0  0  0  0  0  0  0  0  0  0  0
   -5.0640    1.7235    2.1409 H   0  0  0  0  0  0  0  0  0  0  0  0
   -3.7567   -0.3609    2.9218 H   0  0  0  0  0  0  0  0  0  0  0  0
   -1.3032   -0.4192    2.4531 H   0  0  0  0  0  0  0  0  0  0  0  0
  1 11  1  0  0  0  0
  2 12  1  0  0  0  0
  3  6  1  0  0  0  0
  3 28  1  0  0  0  0
  4  5  1  0  0  0  0
  5 16  1  0  0  0  0
  7  8  1  0  0  0  0
  7  1  1  0  0  0  0
  8  9  2  0  0  0  0
  9 33  1  0  0  0  0
  9 10  1  0  0  0  0
 10 34  1  0  0  0  0
 11 10  2  0  0  0  0
 11  6  1  0  0  0  0
 12 35  1  0  0  0  0
 12 13  1  0  0  0  0
 13 36  1  0  0  0  0
 14 13  2  0  0  0  0
 14 37  1  0  0  0  0
 15 14  1  0  0  0  0
 16  2  1  0  0  0  0
 16 15  2  0  0  0  0
 17  4  1  0  0  0  0
 18 39  1  0  0  0  0
 18 19  2  0  0  0  0
 18 17  1  0  0  0  0
 19 20  1  0  0  0  0
 20 21  2  0  0  0  0
 20 41  1  0  0  0  0
 22 17  2  0  0  0  0
 22 21  1  0  0  0  0
 23 24  1  0  0  0  0
 23 28  2  0  0  0  0
 24 30  1  1  0  0  0
 24 25  1  0  0  0  0
 25 44  1  1  0  0  0
 25 26  1  0  0  0  0
 26 45  1  0  0  0  0
 27 26  2  0  0  0  0
 27 46  1  0  0  0  0
 28 27  1  0  0  0  0
 29 21  1  6  0  0  0
 29 24  1  0  0  0  0
 29 25  1  0  0  0  0
 30 29  1  0  0  0  0
 31  7  1  0  0  0  0
 32  8  1  0  0  0  0
 38 15  1  0  0  0  0
 40 19  1  0  0  0  0
 42 22  1  0  0  0  0
 43 23  1  0  0  0  0
M  END
