1,2,5,6
 OpenBabel05122313063D

 33 32  0  0  0  0  0  0  0  0999 V2000
   -1.4269   -1.2850   -0.0404 N   0  0  0  0  0  2  0  0  0  0  0  0
   -1.2841    1.2142    0.0181 N   0  0  0  0  0  2  0  0  0  0  0  0
   -2.6338   -0.6967   -0.0471 C   0  0  0  0  0  0  0  0  0  0  0  0
   -2.5231    0.7652    0.0220 C   0  0  0  0  0  0  0  0  0  0  0  0
    1.4260   -1.2648    0.0290 N   0  0  0  0  0  2  0  0  0  0  0  0
    1.2793    1.2201   -0.0469 N   0  0  0  0  0  2  0  0  0  0  0  0
    2.6216   -0.6940    0.0546 C   0  0  0  0  0  0  0  0  0  0  0  0
    2.5154    0.7873   -0.0157 C   0  0  0  0  0  0  0  0  0  0  0  0
   -3.9069   -1.4716   -0.1029 C   0  0  0  0  0  0  0  0  0  0  0  0
   -3.6879   -2.5471    0.0254 H   0  0  0  0  0  0  0  0  0  0  0  0
   -4.4223   -1.3400   -1.0783 H   0  0  0  0  0  0  0  0  0  0  0  0
   -4.6130   -1.1540    0.6907 H   0  0  0  0  0  0  0  0  0  0  0  0
   -3.7371    1.6274    0.1274 C   0  0  0  0  0  0  0  0  0  0  0  0
   -3.5045    2.7012    0.0133 H   0  0  0  0  0  0  0  0  0  0  0  0
   -4.2213    1.4808    1.1169 H   0  0  0  0  0  0  0  0  0  0  0  0
   -4.4883    1.3377   -0.6343 H   0  0  0  0  0  0  0  0  0  0  0  0
    3.9024   -1.4510    0.1359 C   0  0  0  0  0  0  0  0  0  0  0  0
    3.7172   -2.5308   -0.0037 H   0  0  0  0  0  0  0  0  0  0  0  0
    4.3868   -1.3090    1.1257 H   0  0  0  0  0  0  0  0  0  0  0  0
    4.6222   -1.1071   -0.6338 H   0  0  0  0  0  0  0  0  0  0  0  0
    3.7345    1.6438   -0.0863 C   0  0  0  0  0  0  0  0  0  0  0  0
    3.4983    2.7186    0.0093 H   0  0  0  0  0  0  0  0  0  0  0  0
    4.2532    1.4889   -1.0571 H   0  0  0  0  0  0  0  0  0  0  0  0
    4.4586    1.3620    0.7045 H   0  0  0  0  0  0  0  0  0  0  0  0
   -0.7387    2.5507    0.2514 C   0  0  0  0  0  0  0  0  0  0  0  0
   -0.7606    2.7568    1.3448 H   0  0  0  0  0  0  0  0  0  0  0  0
   -1.3290    3.3484   -0.2470 H   0  0  0  0  0  0  0  0  0  0  0  0
    0.7257    2.5584   -0.2552 C   0  0  0  0  0  0  0  0  0  0  0  0
    0.7464    2.7678   -1.3476 H   0  0  0  0  0  0  0  0  0  0  0  0
    1.3177    3.3527    0.2462 H   0  0  0  0  0  0  0  0  0  0  0  0
   -1.2393   -2.5441   -0.0704 O   0  0  0  0  0  1  0  0  0  0  0  0
    1.2857   -2.5731    0.0685 O   0  0  0  0  0  0  0  0  0  0  0  0
    0.2212   -2.7137    0.0090 H   0  0  0  0  0  0  0  0  0  0  0  0
  2  4  1  0  0  0  0
  2 25  1  0  0  0  0
  3  1  1  0  0  0  0
  3  4  2  0  0  0  0
  4 13  1  0  0  0  0
  5  7  1  0  0  0  0
  5 32  1  0  0  0  0
  6  8  1  0  0  0  0
  7 17  1  0  0  0  0
  8  7  2  0  0  0  0
  9  3  1  0  0  0  0
  9 10  1  0  0  0  0
  9 12  1  0  0  0  0
 11  9  1  0  0  0  0
 13 15  1  0  0  0  0
 14 13  1  0  0  0  0
 16 13  1  0  0  0  0
 17 19  1  0  0  0  0
 18 17  1  0  0  0  0
 20 17  1  0  0  0  0
 21  8  1  0  0  0  0
 21 22  1  0  0  0  0
 21 24  1  0  0  0  0
 23 21  1  0  0  0  0
 25 26  1  0  0  0  0
 27 25  1  0  0  0  0
 28  6  1  0  0  0  0
 28 30  1  0  0  0  0
 28 25  1  0  0  0  0
 29 28  1  0  0  0  0
 31  1  1  0  0  0  0
 33 32  1  0  0  0  0
M  END
