1,2,3,4
 OpenBabel05122313063D

 83 92  0  0  0  0  0  0  0  0999 V2000
    1.0324    2.0485   -0.0813 N   0  0  0  0  0  2  0  0  0  0  0  0
    3.0989    0.0001   -0.0114 N   0  0  0  0  0  0  0  0  0  0  0  0
    1.0325   -2.0484   -0.0815 N   0  0  0  0  0  0  0  0  0  0  0  0
   -1.0694   -0.0000   -0.1833 N   0  0  0  0  0  0  0  0  0  0  0  0
   -4.6966    2.2892    1.1368 F   0  0  0  0  0  0  0  0  0  0  0  0
   -5.2516    1.6276   -0.8886 F   0  0  0  0  0  0  0  0  0  0  0  0
   -5.2527    0.0002    2.2036 F   0  0  0  0  0  0  0  0  0  0  0  0
   -6.6918   -0.0001    0.5405 F   0  0  0  0  0  0  0  0  0  0  0  0
   -5.2515   -1.6282   -0.8880 F   0  0  0  0  0  0  0  0  0  0  0  0
   -4.6964   -2.2890    1.1376 F   0  0  0  0  0  0  0  0  0  0  0  0
   -1.4240    2.4665   -0.2037 C   0  0  0  0  0  0  0  0  0  0  0  0
   -0.0700    2.8698   -0.2167 C   0  0  0  0  0  0  0  0  0  0  0  0
    0.3611    4.2479   -0.3679 C   0  0  0  0  0  0  0  0  0  0  0  0
    1.7310    4.2468   -0.2953 C   0  0  0  0  0  0  0  0  0  0  0  0
    2.1427    2.8681   -0.1052 C   0  0  0  0  0  0  0  0  0  0  0  0
    3.4910    2.4534    0.0220 C   0  0  0  0  0  0  0  0  0  0  0  0
    3.9143    1.1061    0.1009 C   0  0  0  0  0  0  0  0  0  0  0  0
    5.2868    0.6863    0.3230 C   0  0  0  0  0  0  0  0  0  0  0  0
    5.2869   -0.6861    0.3229 C   0  0  0  0  0  0  0  0  0  0  0  0
    3.9143   -1.1060    0.1007 C   0  0  0  0  0  0  0  0  0  0  0  0
    3.4911   -2.4533    0.0216 C   0  0  0  0  0  0  0  0  0  0  0  0
    2.1428   -2.8681   -0.1055 C   0  0  0  0  0  3  0  0  0  0  0  0
    1.7311   -4.2467   -0.2955 C   0  0  0  0  0  0  0  0  0  0  0  0
    0.3613   -4.2479   -0.3679 C   0  0  0  0  0  0  0  0  0  0  0  0
   -0.0699   -2.8698   -0.2167 C   0  0  0  0  0  0  0  0  0  0  0  0
   -1.4239   -2.4665   -0.2035 C   0  0  0  0  0  0  0  0  0  0  0  0
   -1.8734   -1.1239   -0.1231 C   0  0  0  0  0  0  0  0  0  0  0  0
   -3.2463   -0.6927    0.0353 C   0  0  0  0  0  0  0  0  0  0  0  0
   -3.2464    0.6926    0.0351 C   0  0  0  0  0  0  0  0  0  0  0  0
   -1.8735    1.1238   -0.1233 C   0  0  0  0  0  0  0  0  0  0  0  0
   -4.6230    1.2466    0.2691 C   0  0  0  0  0  0  0  0  0  0  0  0
   -5.3795    0.0000    0.8520 C   0  0  0  0  0  0  0  0  0  0  0  0
   -4.6229   -1.2467    0.2695 C   0  0  0  0  0  0  0  0  0  0  0  0
   -2.4476    3.5485   -0.2962 C   0  0  0  0  0  0  0  0  0  0  0  0
   -2.6083    4.4783    0.7539 C   0  0  0  0  0  0  0  0  0  0  0  0
   -1.9850    4.3811    1.6553 H   0  0  0  0  0  0  0  0  0  0  0  0
   -3.5657    5.4961    0.6610 C   0  0  0  0  0  0  0  0  0  0  0  0
   -3.6912    6.2059    1.4927 H   0  0  0  0  0  0  0  0  0  0  0  0
   -4.3693    5.6052   -0.4859 C   0  0  0  0  0  0  0  0  0  0  0  0
   -5.1236    6.4034   -0.5571 H   0  0  0  0  0  0  0  0  0  0  0  0
   -4.2106    4.6912   -1.5376 C   0  0  0  0  0  0  0  0  0  0  0  0
   -4.8375    4.7703   -2.4385 H   0  0  0  0  0  0  0  0  0  0  0  0
   -3.2556    3.6688   -1.4443 C   0  0  0  0  0  0  0  0  0  0  0  0
   -3.1314    2.9502   -2.2677 H   0  0  0  0  0  0  0  0  0  0  0  0
    4.5399    3.5147    0.0768 C   0  0  0  0  0  0  0  0  0  0  0  0
    4.5609    4.4524    1.1327 C   0  0  0  0  0  0  0  0  0  0  0  0
    3.7974    4.3856    1.9222 H   0  0  0  0  0  0  0  0  0  0  0  0
    5.5474    5.4475    1.1868 C   0  0  0  0  0  0  0  0  0  0  0  0
    5.5528    6.1652    2.0213 H   0  0  0  0  0  0  0  0  0  0  0  0
    6.5281    5.5248    0.1850 C   0  0  0  0  0  0  0  0  0  0  0  0
    7.3013    6.3068    0.2270 H   0  0  0  0  0  0  0  0  0  0  0  0
    6.5169    4.5993   -0.8707 C   0  0  0  0  0  0  0  0  0  0  0  0
    7.2781    4.6572   -1.6637 H   0  0  0  0  0  0  0  0  0  0  0  0
    5.5325    3.6019   -0.9240 C   0  0  0  0  0  0  0  0  0  0  0  0
    5.5171    2.8822   -1.7563 H   0  0  0  0  0  0  0  0  0  0  0  0
    4.5401   -3.5145    0.0762 C   0  0  0  0  0  0  0  0  0  0  0  0
    5.5326   -3.6015   -0.9247 C   0  0  0  0  0  0  0  0  0  0  0  0
    5.5171   -2.8818   -1.7569 H   0  0  0  0  0  0  0  0  0  0  0  0
    6.5170   -4.5989   -0.8716 C   0  0  0  0  0  0  0  0  0  0  0  0
    7.2782   -4.6567   -1.6647 H   0  0  0  0  0  0  0  0  0  0  0  0
    6.5284   -5.5244    0.1840 C   0  0  0  0  0  0  0  0  0  0  0  0
    7.3017   -6.3064    0.2258 H   0  0  0  0  0  0  0  0  0  0  0  0
    5.5479   -5.4474    1.1859 C   0  0  0  0  0  0  0  0  0  0  0  0
    5.5534   -6.1652    2.0203 H   0  0  0  0  0  0  0  0  0  0  0  0
    4.5613   -4.4523    1.1320 C   0  0  0  0  0  0  0  0  0  0  0  0
    3.7978   -4.3856    1.9217 H   0  0  0  0  0  0  0  0  0  0  0  0
   -2.4474   -3.5486   -0.2957 C   0  0  0  0  0  0  0  0  0  0  0  0
   -2.6078   -4.4784    0.7545 C   0  0  0  0  0  0  0  0  0  0  0  0
   -1.9844   -4.3809    1.6559 H   0  0  0  0  0  0  0  0  0  0  0  0
   -3.5651   -5.4963    0.6619 C   0  0  0  0  0  0  0  0  0  0  0  0
   -3.6904   -6.2060    1.4937 H   0  0  0  0  0  0  0  0  0  0  0  0
   -4.3689   -5.6056   -0.4848 C   0  0  0  0  0  0  0  0  0  0  0  0
   -5.1231   -6.4039   -0.5558 H   0  0  0  0  0  0  0  0  0  0  0  0
   -4.2105   -4.6917   -1.5367 C   0  0  0  0  0  0  0  0  0  0  0  0
   -4.8375   -4.7710   -2.4374 H   0  0  0  0  0  0  0  0  0  0  0  0
   -3.2555   -3.6692   -1.4436 C   0  0  0  0  0  0  0  0  0  0  0  0
   -3.1315   -2.9506   -2.2671 H   0  0  0  0  0  0  0  0  0  0  0  0
   -0.3039    5.1026   -0.5257 H   0  0  0  0  0  0  0  0  0  0  0  0
    2.4091    5.1014   -0.3842 H   0  0  0  0  0  0  0  0  0  0  0  0
    6.1362    1.3586    0.4811 H   0  0  0  0  0  0  0  0  0  0  0  0
    6.1362   -1.3584    0.4808 H   0  0  0  0  0  0  0  0  0  0  0  0
    2.4093   -5.1013   -0.3846 H   0  0  0  0  0  0  0  0  0  0  0  0
   -0.3038   -5.1026   -0.5255 H   0  0  0  0  0  0  0  0  0  0  0  0
  2 20  1  0  0  0  0
  2 17  2  0  0  0  0
  4 30  2  0  0  0  0
  4 27  1  0  0  0  0
  6 31  1  0  0  0  0
  8 32  1  0  0  0  0
  9 33  1  0  0  0  0
 11 30  1  0  0  0  0
 12 11  2  0  0  0  0
 12  1  1  0  0  0  0
 13 14  2  0  0  0  0
 13 12  1  0  0  0  0
 14 15  1  0  0  0  0
 15  1  1  0  0  0  0
 15 16  2  0  0  0  0
 16 45  1  0  0  0  0
 16 17  1  0  0  0  0
 17 18  1  0  0  0  0
 18 80  1  0  0  0  0
 19 18  2  0  0  0  0
 19 81  1  0  0  0  0
 20 19  1  0  0  0  0
 21 56  1  0  0  0  0
 21 20  2  0  0  0  0
 22  3  1  0  0  0  0
 22 21  1  0  0  0  0
 23 22  1  0  0  0  0
 24 23  2  0  0  0  0
 24 25  1  0  0  0  0
 25 26  1  0  0  0  0
 25  3  2  0  0  0  0
 26 27  2  0  0  0  0
 27 28  1  0  0  0  0
 28 33  1  0  0  0  0
 29 28  2  0  0  0  0
 29 31  1  0  0  0  0
 30 29  1  0  0  0  0
 31 32  1  0  0  0  0
 31  5  1  0  0  0  0
 32  7  1  0  0  0  0
 33 32  1  0  0  0  0
 33 10  1  0  0  0  0
 34 11  1  0  0  0  0
 34 35  1  0  0  0  0
 35 36  1  0  0  0  0
 37 35  2  0  0  0  0
 37 38  1  0  0  0  0
 39 37  1  0  0  0  0
 40 39  1  0  0  0  0
 41 43  1  0  0  0  0
 41 39  2  0  0  0  0
 42 41  1  0  0  0  0
 43 34  2  0  0  0  0
 44 43  1  0  0  0  0
 45 46  1  0  0  0  0
 46 48  2  0  0  0  0
 46 47  1  0  0  0  0
 48 49  1  0  0  0  0
 50 51  1  0  0  0  0
 50 48  1  0  0  0  0
 52 50  2  0  0  0  0
 53 52  1  0  0  0  0
 54 52  1  0  0  0  0
 54 45  2  0  0  0  0
 55 54  1  0  0  0  0
 56 65  1  0  0  0  0
 57 59  1  0  0  0  0
 57 56  2  0  0  0  0
 58 57  1  0  0  0  0
 59 61  2  0  0  0  0
 60 59  1  0  0  0  0
 61 62  1  0  0  0  0
 61 63  1  0  0  0  0
 63 64  1  0  0  0  0
 65 63  2  0  0  0  0
 65 66  1  0  0  0  0
 67 26  1  0  0  0  0
 67 68  1  0  0  0  0
 68 69  1  0  0  0  0
 70 68  2  0  0  0  0
 70 71  1  0  0  0  0
 72 70  1  0  0  0  0
 73 72  1  0  0  0  0
 74 76  1  0  0  0  0
 74 72  2  0  0  0  0
 75 74  1  0  0  0  0
 76 67  2  0  0  0  0
 77 76  1  0  0  0  0
 78 13  1  0  0  0  0
 79 14  1  0  0  0  0
 82 23  1  0  0  0  0
 83 24  1  0  0  0  0
M  END
