1,2,3,41
 OpenBabel05122313063D

 41 43  0  0  0  0  0  0  0  0999 V2000
    1.1760    1.7259   -0.6168 N   0  0  0  0  0  2  0  0  0  0  0  0
    1.3237   -0.9604    0.0128 N   0  0  0  0  0  2  0  0  0  0  0  0
   -1.1883    1.7149    0.6381 N   0  0  0  0  0  2  0  0  0  0  0  0
   -1.3378   -3.3057   -0.1854 O   0  0  0  0  0  0  0  0  0  0  0  0
    1.3427   -3.2959    0.2864 O   0  0  0  0  0  0  0  0  0  0  0  0
   -0.7623   -2.2311   -0.0492 C   0  0  0  0  0  0  0  0  0  0  0  0
    0.7671   -2.2266    0.1128 C   0  0  0  0  0  0  0  0  0  0  0  0
    2.4718    1.6179   -0.7422 C   0  0  0  0  0  3  0  0  0  0  0  0
    3.0129    2.4624   -1.2159 H   0  0  0  0  0  0  0  0  0  0  0  0
    2.6967   -0.7593    0.0684 C   0  0  0  0  0  0  0  0  0  0  0  0
   -2.6908   -0.7642   -0.0867 C   0  0  0  0  0  0  0  0  0  0  0  0
    0.5330    2.9400   -1.1202 C   0  0  0  0  0  0  0  0  0  0  0  0
   -0.3050    2.6324   -1.7781 H   0  0  0  0  0  0  0  0  0  0  0  0
    1.2431    3.5238   -1.7437 H   0  0  0  0  0  0  0  0  0  0  0  0
   -0.5505    2.9208    1.1672 C   0  0  0  0  0  0  0  0  0  0  0  0
    0.2823    2.6025    1.8264 H   0  0  0  0  0  0  0  0  0  0  0  0
   -1.2661    3.4933    1.7950 H   0  0  0  0  0  0  0  0  0  0  0  0
    4.6770    0.6913   -0.3321 C   0  0  0  0  0  0  0  0  0  0  0  0
    5.0676    1.6687   -0.6577 H   0  0  0  0  0  0  0  0  0  0  0  0
   -5.5406   -0.3223   -0.1611 C   0  0  0  0  0  0  0  0  0  0  0  0
   -6.6281   -0.1628   -0.1860 H   0  0  0  0  0  0  0  0  0  0  0  0
    4.9968   -1.5442    0.4796 C   0  0  0  0  0  0  0  0  0  0  0  0
    5.6607   -2.3580    0.8109 H   0  0  0  0  0  0  0  0  0  0  0  0
   -0.0049    3.7993    0.0324 C   0  0  0  0  0  0  0  0  0  0  0  0
   -0.8006    4.4644   -0.3616 H   0  0  0  0  0  0  0  0  0  0  0  0
    0.7962    4.4500    0.4392 H   0  0  0  0  0  0  0  0  0  0  0  0
   -4.9769   -1.5509   -0.5620 C   0  0  0  0  0  0  0  0  0  0  0  0
   -5.6310   -2.3640   -0.9141 H   0  0  0  0  0  0  0  0  0  0  0  0
   -3.2734    0.4976    0.2921 C   0  0  0  0  0  0  0  0  0  0  0  0
    3.2681    0.5048   -0.3213 C   0  0  0  0  0  0  0  0  0  0  0  0
   -2.4859    1.6066    0.7407 C   0  0  0  0  0  3  0  0  0  0  0  0
   -3.0349    2.4452    1.2159 H   0  0  0  0  0  0  0  0  0  0  0  0
   -3.6012   -1.7763   -0.5191 C   0  0  0  0  0  0  0  0  0  0  0  0
   -3.1907   -2.7500   -0.8012 H   0  0  0  0  0  0  0  0  0  0  0  0
    3.6207   -1.7708    0.4737 C   0  0  0  0  0  0  0  0  0  0  0  0
    3.2180   -2.7446    0.7666 H   0  0  0  0  0  0  0  0  0  0  0  0
    5.5483   -0.3137    0.0683 C   0  0  0  0  0  0  0  0  0  0  0  0
    6.6359   -0.1526    0.0646 H   0  0  0  0  0  0  0  0  0  0  0  0
   -4.6821    0.6826    0.2666 C   0  0  0  0  0  0  0  0  0  0  0  0
   -5.0828    1.6581    0.5855 H   0  0  0  0  0  0  0  0  0  0  0  0
   -1.3196   -0.9634    0.0024 N   0  0  0  0  0  2  0  0  0  0  0  0
  2 10  1  0  0  0  0
  2  7  1  0  0  0  0
  3 31  1  0  0  0  0
  3 15  1  0  0  0  0
  4  6  2  0  0  0  0
  6 41  1  0  0  0  0
  6  7  1  0  0  0  0
  7  5  2  0  0  0  0
  8  1  1  0  0  0  0
  8 30  1  0  0  0  0
  9  8  1  0  0  0  0
 10 35  1  0  0  0  0
 11 41  1  0  0  0  0
 11 29  1  0  0  0  0
 12  1  1  0  0  0  0
 12 24  1  0  0  0  0
 13 12  1  0  0  0  0
 14 12  1  0  0  0  0
 15 17  1  0  0  0  0
 15 16  1  0  0  0  0
 18 30  1  0  0  0  0
 18 37  2  0  0  0  0
 19 18  1  0  0  0  0
 20 39  1  0  0  0  0
 21 20  1  0  0  0  0
 22 23  1  0  0  0  0
 24 26  1  0  0  0  0
 24 15  1  0  0  0  0
 25 24  1  0  0  0  0
 27 33  1  0  0  0  0
 27 20  2  0  0  0  0
 28 27  1  0  0  0  0
 29 31  1  0  0  0  0
 30 10  2  0  0  0  0
 31 32  1  0  0  0  0
 33 11  2  0  0  0  0
 34 33  1  0  0  0  0
 35 22  2  0  0  0  0
 35 36  1  0  0  0  0
 37 22  1  0  0  0  0
 38 37  1  0  0  0  0
 39 29  2  0  0  0  0
 39 40  1  0  0  0  0
M  END
