5,6,7,8
 OpenBabel05122313063D

 54 55  0  0  0  0  0  0  0  0999 V2000
   -2.0695    3.4787    0.3172 O   0  0  0  0  0  0  0  0  0  0  0  0
   -2.0597   -3.4671    0.4480 O   0  0  0  0  0  0  0  0  0  0  0  0
    2.9299   -2.3707    0.0637 O   0  0  0  0  0  0  0  0  0  0  0  0
    2.9328    2.3621    0.2108 O   0  0  0  0  0  0  0  0  0  0  0  0
   -1.6239    1.2317   -0.0303 N   0  0  0  0  0  2  0  0  0  0  0  0
   -1.6401   -1.2279   -0.0412 N   0  0  0  0  0  2  0  0  0  0  0  0
    0.8578   -1.3926    0.0778 N   0  0  0  0  0  2  0  0  0  0  0  0
    0.8621    1.3876    0.0941 N   0  0  0  0  0  2  0  0  0  0  0  0
   -4.0512   -1.4308    0.0797 N   0  0  0  0  0  0  0  0  0  0  0  0
   -2.9166    0.7281    0.0379 C   0  0  0  0  0  0  0  0  0  0  0  0
   -4.1369    1.4142    0.1441 C   0  0  0  0  0  0  0  0  0  0  0  0
   -5.3101    0.6396    0.2076 C   0  0  0  0  0  0  0  0  0  0  0  0
   -5.2139   -0.7596    0.1677 C   0  0  0  0  0  0  0  0  0  0  0  0
   -2.9351   -0.7020    0.0227 C   0  0  0  0  0  0  0  0  0  0  0  0
   -1.2928   -2.5421    0.2076 C   0  0  0  0  0  0  0  0  0  0  0  0
    0.2346   -2.7353    0.1322 C   0  0  0  0  0  0  0  0  0  0  0  0
    0.6447   -3.5277    1.3867 C   0  0  0  0  0  0  0  0  0  0  0  0
    0.5035   -3.5350   -1.1615 C   0  0  0  0  0  0  0  0  0  0  0  0
    2.2252   -1.3444    0.0782 C   0  0  0  0  0  0  0  0  0  0  0  0
    2.9770   -0.0041    0.1289 C   0  0  0  0  0  0  0  0  0  0  0  0
    3.8224   -0.0398    1.4382 C   0  0  0  0  0  0  0  0  0  0  0  0
    2.9876   -0.0729    2.7186 C   0  0  0  0  0  0  0  0  0  0  0  0
    3.9440    0.0283   -1.0880 C   0  0  0  0  0  0  0  0  0  0  0  0
    3.2362    0.0768   -2.4419 C   0  0  0  0  0  0  0  0  0  0  0  0
    2.2272    1.3375    0.1444 C   0  0  0  0  0  0  0  0  0  0  0  0
    0.2437    2.7351    0.1589 C   0  0  0  0  0  0  0  0  0  0  0  0
    0.5825    3.5727   -1.0930 C   0  0  0  0  0  0  0  0  0  0  0  0
    0.5928    3.4856    1.4593 C   0  0  0  0  0  0  0  0  0  0  0  0
   -1.2785    2.5440    0.1619 C   0  0  0  0  0  0  0  0  0  0  0  0
   -4.1359    2.5104    0.1735 H   0  0  0  0  0  0  0  0  0  0  0  0
   -6.2957    1.1250    0.2818 H   0  0  0  0  0  0  0  0  0  0  0  0
   -6.1290   -1.3795    0.2049 H   0  0  0  0  0  0  0  0  0  0  0  0
    1.7009   -3.8401    1.3220 H   0  0  0  0  0  0  0  0  0  0  0  0
   -0.0236   -4.4066    1.4728 H   0  0  0  0  0  0  0  0  0  0  0  0
    0.5076   -2.9001    2.2910 H   0  0  0  0  0  0  0  0  0  0  0  0
   -0.0992   -4.4646   -1.1459 H   0  0  0  0  0  0  0  0  0  0  0  0
    1.5798   -3.7751   -1.2336 H   0  0  0  0  0  0  0  0  0  0  0  0
    0.2047   -2.9346   -2.0449 H   0  0  0  0  0  0  0  0  0  0  0  0
    4.4686   -0.9389    1.3797 H   0  0  0  0  0  0  0  0  0  0  0  0
    4.4686    0.8610    1.4273 H   0  0  0  0  0  0  0  0  0  0  0  0
    3.6386   -0.0953    3.6168 H   0  0  0  0  0  0  0  0  0  0  0  0
    2.3339   -0.9684    2.7563 H   0  0  0  0  0  0  0  0  0  0  0  0
    2.3338    0.8196    2.8014 H   0  0  0  0  0  0  0  0  0  0  0  0
    4.5920    0.9193   -0.9629 H   0  0  0  0  0  0  0  0  0  0  0  0
    4.5773   -0.8792   -1.0198 H   0  0  0  0  0  0  0  0  0  0  0  0
    3.9709    0.0887   -3.2734 H   0  0  0  0  0  0  0  0  0  0  0  0
    2.6025    0.9816   -2.5404 H   0  0  0  0  0  0  0  0  0  0  0  0
    2.5743   -0.8005   -2.5895 H   0  0  0  0  0  0  0  0  0  0  0  0
   -0.0206    4.5022   -1.0822 H   0  0  0  0  0  0  0  0  0  0  0  0
    0.3315    2.9988   -2.0082 H   0  0  0  0  0  0  0  0  0  0  0  0
    1.6610    3.8125   -1.0996 H   0  0  0  0  0  0  0  0  0  0  0  0
   -0.0599    4.3775    1.5339 H   0  0  0  0  0  0  0  0  0  0  0  0
    1.6572    3.7759    1.4617 H   0  0  0  0  0  0  0  0  0  0  0  0
    0.3934    2.8344    2.3347 H   0  0  0  0  0  0  0  0  0  0  0  0
  3 19  2  0  0  0  0
  5 10  1  0  0  0  0
  5 29  1  0  0  0  0
  6 14  1  0  0  0  0
  6 15  1  0  0  0  0
  7 19  1  0  0  0  0
  7 16  1  0  0  0  0
  8 25  1  0  0  0  0
  8 26  1  0  0  0  0
  9 13  1  0  0  0  0
 10 11  2  0  0  0  0
 11 30  1  0  0  0  0
 11 12  1  0  0  0  0
 12 31  1  0  0  0  0
 13 32  1  0  0  0  0
 13 12  2  0  0  0  0
 14 10  1  0  0  0  0
 14  9  2  0  0  0  0
 15  2  2  0  0  0  0
 16 15  1  0  0  0  0
 16 17  1  0  0  0  0
 17 34  1  0  0  0  0
 17 35  1  0  0  0  0
 18 36  1  0  0  0  0
 18 16  1  0  0  0  0
 19 20  1  0  0  0  0
 20 25  1  0  0  0  0
 20 21  1  0  0  0  0
 21 22  1  0  0  0  0
 22 42  1  0  0  0  0
 22 43  1  0  0  0  0
 22 41  1  0  0  0  0
 23 45  1  0  0  0  0
 23 44  1  0  0  0  0
 23 20  1  0  0  0  0
 24 23  1  0  0  0  0
 25  4  2  0  0  0  0
 26 29  1  0  0  0  0
 26 28  1  0  0  0  0
 27 49  1  0  0  0  0
 27 26  1  0  0  0  0
 28 53  1  0  0  0  0
 28 52  1  0  0  0  0
 28 54  1  0  0  0  0
 29  1  2  0  0  0  0
 33 17  1  0  0  0  0
 37 18  1  0  0  0  0
 38 18  1  0  0  0  0
 39 21  1  0  0  0  0
 40 21  1  0  0  0  0
 46 24  1  0  0  0  0
 47 24  1  0  0  0  0
 48 24  1  0  0  0  0
 50 27  1  0  0  0  0
 51 27  1  0  0  0  0
M  END
