1,14,18,28
 OpenBabel05122313063D

 41 43  0  0  1  0  0  0  0  0999 V2000
   -0.0540    2.0600   -0.2076 N   0  0  0  0  0  2  0  0  0  0  0  0
    1.2394    2.4526   -0.3215 C   0  0  0  0  0  3  0  0  0  0  0  0
    2.0203    1.6715   -0.3682 H   0  0  0  0  0  0  0  0  0  0  0  0
    1.6134    3.7992   -0.3176 C   0  0  0  0  0  0  0  0  0  0  0  0
    2.6790    4.0521   -0.4119 H   0  0  0  0  0  0  0  0  0  0  0  0
    0.6282    4.7873   -0.1855 C   0  0  0  0  0  0  0  0  0  0  0  0
    0.8919    5.8555   -0.1870 H   0  0  0  0  0  0  0  0  0  0  0  0
   -0.7022    4.3827   -0.0267 C   0  0  0  0  0  0  0  0  0  0  0  0
   -1.5094    5.1168    0.1124 H   0  0  0  0  0  0  0  0  0  0  0  0
   -1.0199    3.0178   -0.0282 C   0  0  0  0  0  0  0  0  0  0  0  0
   -2.4145    2.5060    0.2031 C   0  0  0  0  0  0  0  0  0  0  0  0
   -2.8234    2.9251    1.1536 H   0  0  0  0  0  0  0  0  0  0  0  0
   -3.1024    2.8767   -0.5957 H   0  0  0  0  0  0  0  0  0  0  0  0
   -2.3388    1.0712    0.2293 N   0  0  0  0  0  2  0  0  0  0  0  0
   -3.4292    0.3015    0.5108 C   0  0  0  0  0  0  0  0  0  0  0  0
   -4.5638    0.6932    0.8040 O   0  0  0  0  0  0  0  0  0  0  0  0
   -3.0159   -1.1436    0.3805 C   0  0  2  0  0  3  0  0  0  0  0  0
   -1.7276   -1.2627   -0.0039 N   0  0  0  0  0  2  0  0  0  0  0  0
   -1.1346   -2.4466   -0.2218 C   0  0  0  0  0  0  0  0  0  0  0  0
   -1.8532   -3.6360   -0.0417 C   0  0  0  0  0  0  0  0  0  0  0  0
   -1.3426   -4.5902   -0.2337 H   0  0  0  0  0  0  0  0  0  0  0  0
   -3.1964   -3.5477    0.3661 C   0  0  0  0  0  0  0  0  0  0  0  0
   -3.7858   -4.4652    0.5144 H   0  0  0  0  0  0  0  0  0  0  0  0
   -3.7933   -2.2896    0.5776 C   0  0  0  0  0  0  0  0  0  0  0  0
   -4.8417   -2.1680    0.8851 H   0  0  0  0  0  0  0  0  0  0  0  0
    0.2785   -2.2936   -0.7031 C   0  0  0  0  0  0  0  0  0  0  0  0
    0.9682   -3.2758   -1.0276 O   0  0  0  0  0  0  0  0  0  0  0  0
    0.6287   -0.9700   -0.7646 N   0  0  0  0  0  2  0  0  0  0  0  0
    1.9356   -0.7268   -1.3701 C   0  0  0  0  0  0  0  0  0  0  0  0
    1.9354    0.2678   -1.8550 H   0  0  0  0  0  0  0  0  0  0  0  0
    2.1084   -1.4962   -2.1539 H   0  0  0  0  0  0  0  0  0  0  0  0
    3.0889   -0.7859   -0.3806 C   0  0  0  0  0  0  0  0  0  0  0  0
    3.5941    0.3892    0.0441 N   0  0  0  0  0  0  0  0  0  0  0  0
    4.6038    0.3775    0.9302 C   0  0  0  0  0  0  0  0  0  0  0  0
    4.9837    1.3635    1.2529 H   0  0  0  0  0  0  0  0  0  0  0  0
    5.1678   -0.8007    1.4377 C   0  0  0  0  0  0  0  0  0  0  0  0
    5.9966   -0.7560    2.1598 H   0  0  0  0  0  0  0  0  0  0  0  0
    4.6422   -2.0267    0.9988 C   0  0  0  0  0  0  0  0  0  0  0  0
    5.0533   -2.9778    1.3713 H   0  0  0  0  0  0  0  0  0  0  0  0
    3.5887   -2.0246    0.0779 C   0  0  0  0  0  0  0  0  0  0  0  0
    3.1222   -2.9495   -0.2916 H   0  0  0  0  0  0  0  0  0  0  0  0
  1 10  1  0  0  0  0
  2  4  1  0  0  0  0
  2  1  1  0  0  0  0
  3  2  1  0  0  0  0
  4  6  2  0  0  0  0
  5  4  1  0  0  0  0
  6  8  1  0  0  0  0
  7  6  1  0  0  0  0
  8  9  1  0  0  0  0
 10  8  2  0  0  0  0
 10 11  1  0  0  0  0
 11 14  1  0  0  0  0
 11 12  1  0  0  0  0
 13 11  1  0  0  0  0
 14 15  1  0  0  0  0
 15 16  2  0  0  0  0
 17 15  1  6  0  0  0
 17 24  1  0  0  0  0
 18 17  1  0  0  0  0
 19 20  2  0  0  0  0
 19 18  1  0  0  0  0
 20 22  1  0  0  0  0
 21 20  1  0  0  0  0
 22 23  1  0  0  0  0
 22 24  2  0  0  0  0
 24 25  1  0  0  0  0
 26 19  1  0  0  0  0
 27 26  2  0  0  0  0
 28 26  1  0  0  0  0
 29 28  1  0  0  0  0
 29 32  1  0  0  0  0
 30 29  1  0  0  0  0
 31 29  1  0  0  0  0
 32 33  2  0  0  0  0
 32 40  1  0  0  0  0
 33 34  1  0  0  0  0
 34 35  1  0  0  0  0
 34 36  2  0  0  0  0
 36 37  1  0  0  0  0
 38 39  1  0  0  0  0
 38 36  1  0  0  0  0
 40 38  2  0  0  0  0
 41 40  1  0  0  0  0
M  END
