1,2,3,4
 OpenBabel05122313063D

 45 46  0  0  1  0  0  0  0  0999 V2000
   -1.0705   -1.0614    1.3998 N   0  0  0  0  0  2  0  0  0  0  0  0
   -1.9873   -1.6193   -1.0553 N   0  0  0  0  0  0  0  0  0  0  0  0
    0.5163   -2.6825   -0.5537 N   0  0  0  0  0  0  0  0  0  0  0  0
    0.1846   -0.6032   -2.4495 N   0  0  0  0  0  0  0  0  0  0  0  0
    0.8366   -0.3835    2.8430 C   0  0  0  0  0  0  0  0  0  0  0  0
    1.6039   -0.9052    2.2491 H   0  0  0  0  0  0  0  0  0  0  0  0
    1.1232   -0.4117    3.9099 H   0  0  0  0  0  0  0  0  0  0  0  0
    0.8649    0.6696    2.4949 H   0  0  0  0  0  0  0  0  0  0  0  0
   -0.5299   -0.9500    2.6592 C   0  0  1  0  0  3  0  0  0  0  0  0
   -1.2775   -1.3037    3.8002 C   0  0  0  0  0  0  0  0  0  0  0  0
   -0.7899   -1.2138    4.7812 H   0  0  0  0  0  0  0  0  0  0  0  0
   -2.6025   -1.7311    3.7015 C   0  0  0  0  0  0  0  0  0  0  0  0
   -3.1795   -2.0092    4.5953 H   0  0  0  0  0  0  0  0  0  0  0  0
   -3.1773   -1.7622    2.4255 C   0  0  0  0  0  0  0  0  0  0  0  0
   -4.2297   -2.0416    2.2725 H   0  0  0  0  0  0  0  0  0  0  0  0
   -2.4006   -1.4043    1.3236 C   0  0  0  0  0  0  0  0  0  0  0  0
   -3.0073   -1.2844   -0.0395 C   0  0  0  0  0  0  0  0  0  0  0  0
   -3.9155   -1.9191   -0.1436 H   0  0  0  0  0  0  0  0  0  0  0  0
   -3.3228   -0.2298   -0.2034 H   0  0  0  0  0  0  0  0  0  0  0  0
   -2.2551   -0.9756   -2.3675 C   0  0  0  0  0  0  0  0  0  0  0  0
   -2.5019    0.0839   -2.1579 H   0  0  0  0  0  0  0  0  0  0  0  0
   -3.1300   -1.4416   -2.8781 H   0  0  0  0  0  0  0  0  0  0  0  0
   -1.0020   -1.0867   -3.2199 C   0  0  0  0  0  0  0  0  0  0  0  0
   -0.8348   -2.1335   -3.5429 H   0  0  0  0  0  0  0  0  0  0  0  0
   -1.1227   -0.4984   -4.1530 H   0  0  0  0  0  0  0  0  0  0  0  0
   -1.8276   -3.1038   -1.1733 C   0  0  0  0  0  0  0  0  0  0  0  0
   -1.6833   -3.3628   -2.2391 H   0  0  0  0  0  0  0  0  0  0  0  0
   -2.7561   -3.6189   -0.8499 H   0  0  0  0  0  0  0  0  0  0  0  0
   -0.6459   -3.5815   -0.3452 C   0  0  0  0  0  0  0  0  0  0  0  0
   -0.8933   -3.5496    0.7322 H   0  0  0  0  0  0  0  0  0  0  0  0
   -0.3933   -4.6383   -0.5980 H   0  0  0  0  0  0  0  0  0  0  0  0
    1.0938   -2.8379   -1.9329 C   0  0  0  0  0  0  0  0  0  0  0  0
    0.3897   -3.4338   -2.5466 H   0  0  0  0  0  0  0  0  0  0  0  0
    2.0327   -3.4277   -1.8883 H   0  0  0  0  0  0  0  0  0  0  0  0
    1.3634   -1.4890   -2.5842 C   0  0  0  0  0  0  0  0  0  0  0  0
    2.1955   -0.9730   -2.0711 H   0  0  0  0  0  0  0  0  0  0  0  0
    1.6483   -1.6348   -3.6536 H   0  0  0  0  0  0  0  0  0  0  0  0
    1.5528   -2.9892    0.4557 C   0  0  0  0  0  0  0  0  0  0  0  0
    1.8911   -4.0454    0.3567 H   0  0  0  0  0  0  0  0  0  0  0  0
    1.1354   -2.8379    1.4665 H   0  0  0  0  0  0  0  0  0  0  0  0
    2.4063   -2.3050    0.3199 H   0  0  0  0  0  0  0  0  0  0  0  0
    0.5182    0.7648   -2.9132 C   0  0  0  0  0  0  0  0  0  0  0  0
    1.3704    1.1658   -2.3382 H   0  0  0  0  0  0  0  0  0  0  0  0
   -0.3482    1.4265   -2.7480 H   0  0  0  0  0  0  0  0  0  0  0  0
    0.7784    0.7376   -3.9955 H   0  0  0  0  0  0  0  0  0  0  0  0
  1  9  1  0  0  0  0
  2 17  1  0  0  0  0
  3 29  1  0  0  0  0
  3 38  1  0  0  0  0
  5  7  1  0  0  0  0
  6  5  1  0  0  0  0
  8  5  1  0  0  0  0
  9  5  1  1  0  0  0
  9 10  1  0  0  0  0
 10 11  1  0  0  0  0
 12 10  2  0  0  0  0
 12 13  1  0  0  0  0
 14 12  1  0  0  0  0
 15 14  1  0  0  0  0
 16  1  1  0  0  0  0
 16 14  2  0  0  0  0
 17 16  1  0  0  0  0
 18 17  1  0  0  0  0
 19 17  1  0  0  0  0
 20 21  1  0  0  0  0
 20  2  1  0  0  0  0
 22 20  1  0  0  0  0
 23  4  1  0  0  0  0
 23 20  1  0  0  0  0
 24 23  1  0  0  0  0
 25 23  1  0  0  0  0
 26  2  1  0  0  0  0
 26 28  1  0  0  0  0
 26 29  1  0  0  0  0
 27 26  1  0  0  0  0
 29 30  1  0  0  0  0
 31 29  1  0  0  0  0
 32 34  1  0  0  0  0
 32  3  1  0  0  0  0
 33 32  1  0  0  0  0
 35  4  1  0  0  0  0
 35 36  1  0  0  0  0
 35 32  1  0  0  0  0
 37 35  1  0  0  0  0
 38 40  1  0  0  0  0
 39 38  1  0  0  0  0
 41 38  1  0  0  0  0
 42 44  1  0  0  0  0
 42  4  1  0  0  0  0
 42 43  1  0  0  0  0
 45 42  1  0  0  0  0
M  END
