1,2,35,36
 OpenBabel05122313063D

 68 72  0  0  0  0  0  0  0  0999 V2000
   -1.5261   -1.2940   -0.0495 N   0  0  0  0  0  0  0  0  0  0  0  0
   -1.5261    1.2940    0.0497 N   0  0  0  0  0  0  0  0  0  0  0  0
   -5.1486    1.5421   -0.0219 O   0  0  0  0  0  0  0  0  0  0  0  0
   -0.6985   -3.6686   -0.1613 C   0  0  0  0  0  0  0  0  0  0  0  0
   -1.1584   -4.6682   -0.2097 H   0  0  0  0  0  0  0  0  0  0  0  0
   -3.7932   -1.7361   -0.0125 C   0  0  0  0  0  0  0  0  0  0  0  0
   -1.6724   -2.6524   -0.1036 C   0  0  0  0  0  0  0  0  0  0  0  0
   -5.1485   -1.5422    0.0218 O   0  0  0  0  0  0  0  0  0  0  0  0
   -2.7780    0.7055    0.0101 C   0  0  0  0  0  0  0  0  0  0  0  0
   -3.5265    4.2276    0.1328 O   0  0  0  0  0  0  0  0  0  0  0  0
   -3.7932    1.7360    0.0125 C   0  0  0  0  0  0  0  0  0  0  0  0
   -2.7780   -0.7056   -0.0101 C   0  0  0  0  0  3  0  0  0  0  0  0
    0.6986   -3.6686   -0.1613 C   0  0  0  0  0  0  0  0  0  0  0  0
    1.1585   -4.6682   -0.2098 H   0  0  0  0  0  0  0  0  0  0  0  0
   -3.1062    2.9490    0.0813 C   0  0  0  0  0  0  0  0  0  0  0  0
   -1.6724    2.6523    0.1036 C   0  0  0  0  0  3  0  0  0  0  0  0
   -3.5264   -4.2277   -0.1328 O   0  0  0  0  0  0  0  0  0  0  0  0
   -3.1062   -2.9491   -0.0813 C   0  0  0  0  0  0  0  0  0  0  0  0
   -5.6689    1.2127   -1.3113 C   0  0  0  0  0  0  0  0  0  0  0  0
   -5.5046    2.0464   -2.0317 H   0  0  0  0  0  0  0  0  0  0  0  0
   -6.7560    1.0475   -1.1841 H   0  0  0  0  0  0  0  0  0  0  0  0
   -5.2118    0.2842   -1.7107 H   0  0  0  0  0  0  0  0  0  0  0  0
   -4.9251    4.4830    0.0785 C   0  0  0  0  0  0  0  0  0  0  0  0
   -5.3547    4.1779   -0.9008 H   0  0  0  0  0  0  0  0  0  0  0  0
   -5.0440    5.5757    0.2009 H   0  0  0  0  0  0  0  0  0  0  0  0
   -5.4696    3.9500    0.8842 H   0  0  0  0  0  0  0  0  0  0  0  0
   -5.6689   -1.2127    1.3111 C   0  0  0  0  0  0  0  0  0  0  0  0
   -5.5047   -2.0463    2.0316 H   0  0  0  0  0  0  0  0  0  0  0  0
   -6.7560   -1.0474    1.1838 H   0  0  0  0  0  0  0  0  0  0  0  0
   -5.2118   -0.2841    1.7104 H   0  0  0  0  0  0  0  0  0  0  0  0
   -4.9250   -4.4832   -0.0787 C   0  0  0  0  0  0  0  0  0  0  0  0
   -5.3547   -4.1781    0.9006 H   0  0  0  0  0  0  0  0  0  0  0  0
   -5.0438   -5.5758   -0.2011 H   0  0  0  0  0  0  0  0  0  0  0  0
   -5.4695   -3.9501   -0.8844 H   0  0  0  0  0  0  0  0  0  0  0  0
    1.5261    1.2940    0.0497 N   0  0  0  0  0  0  0  0  0  0  0  0
    1.5261   -1.2940   -0.0495 N   0  0  0  0  0  0  0  0  0  0  0  0
    5.1486   -1.5421    0.0218 O   0  0  0  0  0  0  0  0  0  0  0  0
    0.6985    3.6686    0.1613 C   0  0  0  0  0  0  0  0  0  0  0  0
    1.1584    4.6682    0.2097 H   0  0  0  0  0  0  0  0  0  0  0  0
    3.7932    1.7361    0.0125 C   0  0  0  0  0  0  0  0  0  0  0  0
    1.6724    2.6524    0.1036 C   0  0  0  0  0  3  0  0  0  0  0  0
    5.1485    1.5422   -0.0219 O   0  0  0  0  0  0  0  0  0  0  0  0
    2.7780   -0.7055   -0.0100 C   0  0  0  0  0  3  0  0  0  0  0  0
    3.5265   -4.2276   -0.1329 O   0  0  0  0  0  0  0  0  0  0  0  0
    3.7932   -1.7360   -0.0125 C   0  0  0  0  0  0  0  0  0  0  0  0
    2.7780    0.7056    0.0101 C   0  0  0  0  0  0  0  0  0  0  0  0
   -0.6986    3.6686    0.1613 C   0  0  0  0  0  0  0  0  0  0  0  0
   -1.1585    4.6682    0.2097 H   0  0  0  0  0  0  0  0  0  0  0  0
    3.1062   -2.9490   -0.0813 C   0  0  0  0  0  0  0  0  0  0  0  0
    1.6724   -2.6523   -0.1036 C   0  0  0  0  0  0  0  0  0  0  0  0
    3.5264    4.2277    0.1327 O   0  0  0  0  0  0  0  0  0  0  0  0
    3.1062    2.9491    0.0812 C   0  0  0  0  0  0  0  0  0  0  0  0
    5.6690   -1.2128    1.3111 C   0  0  0  0  0  0  0  0  0  0  0  0
    5.5048   -2.0465    2.0315 H   0  0  0  0  0  0  0  0  0  0  0  0
    6.7560   -1.0475    1.1839 H   0  0  0  0  0  0  0  0  0  0  0  0
    5.2119   -0.2843    1.7106 H   0  0  0  0  0  0  0  0  0  0  0  0
    4.9251   -4.4830   -0.0786 C   0  0  0  0  0  0  0  0  0  0  0  0
    5.3547   -4.1780    0.9007 H   0  0  0  0  0  0  0  0  0  0  0  0
    5.0439   -5.5757   -0.2011 H   0  0  0  0  0  0  0  0  0  0  0  0
    5.4696   -3.9500   -0.8843 H   0  0  0  0  0  0  0  0  0  0  0  0
    5.6688    1.2127   -1.3113 C   0  0  0  0  0  0  0  0  0  0  0  0
    5.5045    2.0464   -2.0318 H   0  0  0  0  0  0  0  0  0  0  0  0
    6.7559    1.0475   -1.1841 H   0  0  0  0  0  0  0  0  0  0  0  0
    5.2117    0.2842   -1.7106 H   0  0  0  0  0  0  0  0  0  0  0  0
    4.9250    4.4832    0.0785 C   0  0  0  0  0  0  0  0  0  0  0  0
    5.3546    4.1781   -0.9007 H   0  0  0  0  0  0  0  0  0  0  0  0
    5.0438    5.5758    0.2009 H   0  0  0  0  0  0  0  0  0  0  0  0
    5.4695    3.9501    0.8843 H   0  0  0  0  0  0  0  0  0  0  0  0
  1 12  1  0  0  0  0
  2 16  1  0  0  0  0
  3 11  1  0  0  0  0
  4  7  1  0  0  0  0
  5  4  1  0  0  0  0
  6 12  1  0  0  0  0
  6  8  1  0  0  0  0
  7 18  1  0  0  0  0
  7  1  2  0  0  0  0
  8 27  1  0  0  0  0
  9 11  1  0  0  0  0
  9  2  2  0  0  0  0
 11 15  2  0  0  0  0
 12  9  1  0  0  0  0
 13  4  2  0  0  0  0
 13 50  1  0  0  0  0
 14 13  1  0  0  0  0
 15 16  1  0  0  0  0
 15 10  1  0  0  0  0
 16 47  1  0  0  0  0
 17 18  1  0  0  0  0
 17 31  1  0  0  0  0
 18  6  2  0  0  0  0
 19 21  1  0  0  0  0
 19  3  1  0  0  0  0
 20 19  1  0  0  0  0
 22 19  1  0  0  0  0
 23 10  1  0  0  0  0
 23 25  1  0  0  0  0
 23 26  1  0  0  0  0
 24 23  1  0  0  0  0
 27 30  1  0  0  0  0
 27 28  1  0  0  0  0
 29 27  1  0  0  0  0
 31 32  1  0  0  0  0
 33 31  1  0  0  0  0
 34 31  1  0  0  0  0
 35 41  1  0  0  0  0
 36 43  1  0  0  0  0
 37 53  1  0  0  0  0
 38 47  2  0  0  0  0
 38 39  1  0  0  0  0
 40 52  2  0  0  0  0
 41 38  1  0  0  0  0
 42 40  1  0  0  0  0
 43 46  1  0  0  0  0
 44 49  1  0  0  0  0
 44 57  1  0  0  0  0
 45 43  1  0  0  0  0
 45 37  1  0  0  0  0
 46 40  1  0  0  0  0
 46 35  2  0  0  0  0
 47 48  1  0  0  0  0
 49 45  2  0  0  0  0
 50 49  1  0  0  0  0
 50 36  2  0  0  0  0
 52 41  1  0  0  0  0
 52 51  1  0  0  0  0
 53 56  1  0  0  0  0
 53 54  1  0  0  0  0
 55 53  1  0  0  0  0
 57 58  1  0  0  0  0
 59 57  1  0  0  0  0
 60 57  1  0  0  0  0
 61 63  1  0  0  0  0
 61 42  1  0  0  0  0
 62 61  1  0  0  0  0
 64 61  1  0  0  0  0
 65 51  1  0  0  0  0
 65 67  1  0  0  0  0
 65 68  1  0  0  0  0
 66 65  1  0  0  0  0
M  END
