1,2,3,4
 OpenBabel05122313063D

 43 45  0  0  1  0  0  0  0  0999 V2000
    1.1643   -1.6623   -0.4213 N   0  0  0  0  0  0  0  0  0  0  0  0
   -1.3326   -1.4958    0.1101 N   0  0  0  0  0  0  0  0  0  0  0  0
    1.5344    0.9656   -0.0002 N   0  0  0  0  0  2  0  0  0  0  0  0
   -1.4527    1.0728   -0.1543 N   0  0  0  0  0  2  0  0  0  0  0  0
    0.8662   -1.8833   -1.8612 C   0  0  0  0  0  0  0  0  0  0  0  0
    1.6121   -2.5938   -2.2897 H   0  0  0  0  0  0  0  0  0  0  0  0
    0.9982   -0.9128   -2.3811 H   0  0  0  0  0  0  0  0  0  0  0  0
   -0.5352   -2.4626   -2.0729 C   0  0  0  0  0  0  0  0  0  0  0  0
   -0.5279   -3.5388   -1.8059 H   0  0  0  0  0  0  0  0  0  0  0  0
   -0.7672   -2.4332   -3.1561 H   0  0  0  0  0  0  0  0  0  0  0  0
   -1.6679   -1.7568   -1.3221 C   0  0  0  0  0  0  0  0  0  0  0  0
   -1.9237   -0.7883   -1.7917 H   0  0  0  0  0  0  0  0  0  0  0  0
   -2.5792   -2.3957   -1.3590 H   0  0  0  0  0  0  0  0  0  0  0  0
    0.7467   -2.8100    0.4387 C   0  0  0  0  0  0  0  0  0  0  0  0
    1.2927   -2.6986    1.3921 H   0  0  0  0  0  0  0  0  0  0  0  0
    1.0264   -3.7752   -0.0357 H   0  0  0  0  0  0  0  0  0  0  0  0
   -0.7619   -2.7081    0.7667 C   0  0  0  0  0  0  0  0  0  0  0  0
   -1.3404   -3.6059    0.4618 H   0  0  0  0  0  0  0  0  0  0  0  0
   -0.8596   -2.5513    1.8558 H   0  0  0  0  0  0  0  0  0  0  0  0
    1.6097    2.2963    0.2283 C   0  0  0  0  0  3  0  0  0  0  0  0
    0.6947    2.7791    0.5955 H   0  0  0  0  0  0  0  0  0  0  0  0
    2.7950    3.0138    0.0463 C   0  0  0  0  0  0  0  0  0  0  0  0
    2.8081    4.0944    0.2455 H   0  0  0  0  0  0  0  0  0  0  0  0
    3.9447    2.3339   -0.3795 C   0  0  0  0  0  0  0  0  0  0  0  0
    4.8869    2.8740   -0.5514 H   0  0  0  0  0  0  0  0  0  0  0  0
    3.8818    0.9419   -0.5432 C   0  0  0  0  0  0  0  0  0  0  0  0
    4.7747    0.3619   -0.8178 H   0  0  0  0  0  0  0  0  0  0  0  0
    2.6725    0.2776   -0.3169 C   0  0  0  0  0  0  0  0  0  0  0  0
    2.5555   -1.2160   -0.1831 C   0  0  0  0  0  0  0  0  0  0  0  0
    3.2889   -1.7630   -0.8142 H   0  0  0  0  0  0  0  0  0  0  0  0
    2.7787   -1.4337    0.8835 H   0  0  0  0  0  0  0  0  0  0  0  0
   -2.4445   -0.8557    0.8637 C   0  0  0  0  0  0  0  0  0  0  0  0
   -2.0730   -0.7609    1.9113 H   0  0  0  0  0  0  0  0  0  0  0  0
   -3.3747   -1.4624    0.8352 H   0  0  0  0  0  0  0  0  0  0  0  0
   -2.6266    0.5193    0.2877 C   0  0  2  0  0  3  0  0  0  0  0  0
   -3.8443    1.1973    0.1934 C   0  0  0  0  0  0  0  0  0  0  0  0
   -4.7624    0.7172    0.5614 H   0  0  0  0  0  0  0  0  0  0  0  0
   -3.8737    2.4808   -0.3739 C   0  0  0  0  0  0  0  0  0  0  0  0
   -4.8190    3.0370   -0.4507 H   0  0  0  0  0  0  0  0  0  0  0  0
   -2.6769    3.0259   -0.8631 C   0  0  0  0  0  0  0  0  0  0  0  0
   -2.6536    4.0122   -1.3476 H   0  0  0  0  0  0  0  0  0  0  0  0
   -1.4943    2.2913   -0.7437 C   0  0  0  0  0  0  0  0  0  0  0  0
   -0.5457    2.6774   -1.1435 H   0  0  0  0  0  0  0  0  0  0  0  0
  1 29  1  0  0  0  0
  1 14  1  0  0  0  0
  2 17  1  0  0  0  0
  2 32  1  0  0  0  0
  3 20  1  0  0  0  0
  4 35  1  0  0  0  0
  5  1  1  0  0  0  0
  6  5  1  0  0  0  0
  7  5  1  0  0  0  0
  8  5  1  0  0  0  0
  8  9  1  0  0  0  0
  8 11  1  0  0  0  0
 10  8  1  0  0  0  0
 11  2  1  0  0  0  0
 12 11  1  0  0  0  0
 13 11  1  0  0  0  0
 14 17  1  0  0  0  0
 14 15  1  0  0  0  0
 16 14  1  0  0  0  0
 17 19  1  0  0  0  0
 18 17  1  0  0  0  0
 20 21  1  0  0  0  0
 22 20  1  0  0  0  0
 22 23  1  0  0  0  0
 24 22  2  0  0  0  0
 25 24  1  0  0  0  0
 26 24  1  0  0  0  0
 26 28  2  0  0  0  0
 27 26  1  0  0  0  0
 28 29  1  0  0  0  0
 28  3  1  0  0  0  0
 29 31  1  0  0  0  0
 30 29  1  0  0  0  0
 32 33  1  0  0  0  0
 34 32  1  0  0  0  0
 35 32  1  6  0  0  0
 36 35  1  0  0  0  0
 36 37  1  0  0  0  0
 38 36  2  0  0  0  0
 39 38  1  0  0  0  0
 40 42  2  0  0  0  0
 40 38  1  0  0  0  0
 41 40  1  0  0  0  0
 42  4  1  0  0  0  0
 43 42  1  0  0  0  0
M  END
