1,5,9,13
 OpenBabel05122313063D

 56 64  0  0  0  0  0  0  0  0999 V2000
   -1.3097    1.3655   -0.1117 N   0  0  0  0  0  0  0  0  0  0  0  0
   -2.6677    1.1477    0.0343 C   0  0  0  0  0  0  0  0  0  0  0  0
   -3.2951   -0.0110    0.1518 N   0  0  0  0  0  0  0  0  0  0  0  0
   -2.6600   -1.1654    0.0338 C   0  0  0  0  0  0  0  0  0  0  0  0
   -1.3007   -1.3742   -0.1122 N   0  0  0  0  0  2  0  0  0  0  0  0
   -1.0899   -2.7343   -0.2586 C   0  0  0  0  0  0  0  0  0  0  0  0
    0.0685   -3.3669   -0.3704 N   0  0  0  0  0  0  0  0  0  0  0  0
    1.2293   -2.7280   -0.3381 C   0  0  0  0  0  0  0  0  0  0  0  0
    1.4435   -1.3667   -0.2122 N   0  0  0  0  0  0  0  0  0  0  0  0
    2.8092   -1.1497   -0.1737 C   0  0  0  0  0  0  0  0  0  0  0  0
    3.4443    0.0113   -0.1246 N   0  0  0  0  0  0  0  0  0  0  0  0
    2.8016    1.1681   -0.1737 C   0  0  0  0  0  0  0  0  0  0  0  0
    1.4344    1.3762   -0.2119 N   0  0  0  0  0  2  0  0  0  0  0  0
    1.2113    2.7360   -0.3378 C   0  0  0  0  0  0  0  0  0  0  0  0
    0.0463    3.3672   -0.3698 N   0  0  0  0  0  0  0  0  0  0  0  0
   -1.1079    2.7269   -0.2578 C   0  0  0  0  0  0  0  0  0  0  0  0
   -2.3924    3.4204   -0.2052 C   0  0  0  0  0  0  0  0  0  0  0  0
   -2.7372    4.7754   -0.3057 C   0  0  0  0  0  0  0  0  0  0  0  0
   -4.0971    5.1055   -0.2011 C   0  0  0  0  0  0  0  0  0  0  0  0
   -5.0810    4.1081   -0.0027 C   0  0  0  0  0  0  0  0  0  0  0  0
   -4.7334    2.7523    0.0969 C   0  0  0  0  0  0  0  0  0  0  0  0
   -3.3744    2.4255   -0.0031 C   0  0  0  0  0  0  0  0  0  0  0  0
   -3.3583   -2.4478   -0.0040 C   0  0  0  0  0  0  0  0  0  0  0  0
   -4.7151   -2.7835    0.0959 C   0  0  0  0  0  0  0  0  0  0  0  0
   -5.0539   -4.1416   -0.0041 C   0  0  0  0  0  0  0  0  0  0  0  0
   -4.0635   -5.1324   -0.2027 C   0  0  0  0  0  0  0  0  0  0  0  0
   -2.7058   -4.7935   -0.3071 C   0  0  0  0  0  0  0  0  0  0  0  0
   -2.3698   -3.4362   -0.2063 C   0  0  0  0  0  0  0  0  0  0  0  0
    2.5125   -3.4235   -0.3736 C   0  0  0  0  0  0  0  0  0  0  0  0
    2.8469   -4.7808   -0.4856 C   0  0  0  0  0  0  0  0  0  0  0  0
    4.2094   -5.1144   -0.4761 C   0  0  0  0  0  0  0  0  0  0  0  0
    5.2080   -4.1181   -0.3580 C   0  0  0  0  0  0  0  0  0  0  0  0
    4.8719   -2.7605   -0.2469 C   0  0  0  0  0  0  0  0  0  0  0  0
    3.5094   -2.4288   -0.2532 C   0  0  0  0  0  0  0  0  0  0  0  0
    3.4933    2.4518   -0.2535 C   0  0  0  0  0  0  0  0  0  0  0  0
    4.8535    2.7925   -0.2475 C   0  0  0  0  0  0  0  0  0  0  0  0
    5.1807    4.1522   -0.3589 C   0  0  0  0  0  0  0  0  0  0  0  0
    4.1756    5.1420   -0.4767 C   0  0  0  0  0  0  0  0  0  0  0  0
    2.8152    4.7994   -0.4859 C   0  0  0  0  0  0  0  0  0  0  0  0
    2.4898    3.4399   -0.3737 C   0  0  0  0  0  0  0  0  0  0  0  0
   -1.9621    5.5386   -0.4663 H   0  0  0  0  0  0  0  0  0  0  0  0
   -4.4083    6.1583   -0.2795 H   0  0  0  0  0  0  0  0  0  0  0  0
   -6.1385    4.4045    0.0692 H   0  0  0  0  0  0  0  0  0  0  0  0
   -5.4866    1.9647    0.2420 H   0  0  0  0  0  0  0  0  0  0  0  0
   -5.4735   -2.0009    0.2412 H   0  0  0  0  0  0  0  0  0  0  0  0
   -6.1094   -4.4449    0.0677 H   0  0  0  0  0  0  0  0  0  0  0  0
   -4.3677   -6.1872   -0.2813 H   0  0  0  0  0  0  0  0  0  0  0  0
   -1.9257   -5.5515   -0.4679 H   0  0  0  0  0  0  0  0  0  0  0  0
    2.0599   -5.5429   -0.5808 H   0  0  0  0  0  0  0  0  0  0  0  0
    4.5115   -6.1690   -0.5650 H   0  0  0  0  0  0  0  0  0  0  0  0
    6.2671   -4.4176   -0.3564 H   0  0  0  0  0  0  0  0  0  0  0  0
    5.6367   -1.9754   -0.1589 H   0  0  0  0  0  0  0  0  0  0  0  0
    5.6235    2.0124   -0.1596 H   0  0  0  0  0  0  0  0  0  0  0  0
    6.2378    4.4587   -0.3575 H   0  0  0  0  0  0  0  0  0  0  0  0
    4.4707    6.1985   -0.5658 H   0  0  0  0  0  0  0  0  0  0  0  0
    2.0233    5.5563   -0.5809 H   0  0  0  0  0  0  0  0  0  0  0  0
  1  2  2  0  0  0  0
  2  3  1  0  0  0  0
  4  3  2  0  0  0  0
  5  4  1  0  0  0  0
  6 28  1  0  0  0  0
  6  5  1  0  0  0  0
  7  8  1  0  0  0  0
  7  6  2  0  0  0  0
  8  9  2  0  0  0  0
  9 10  1  0  0  0  0
 10 11  2  0  0  0  0
 12 11  1  0  0  0  0
 13 12  1  0  0  0  0
 14 13  1  0  0  0  0
 15 14  1  0  0  0  0
 15 16  2  0  0  0  0
 16 17  1  0  0  0  0
 16  1  1  0  0  0  0
 17 22  1  0  0  0  0
 18 17  2  0  0  0  0
 18 19  1  0  0  0  0
 19 20  2  0  0  0  0
 20 43  1  0  0  0  0
 20 21  1  0  0  0  0
 21 44  1  0  0  0  0
 22  2  1  0  0  0  0
 22 21  2  0  0  0  0
 23  4  1  0  0  0  0
 23 24  1  0  0  0  0
 24 45  1  0  0  0  0
 25 46  1  0  0  0  0
 25 24  2  0  0  0  0
 26 25  1  0  0  0  0
 27 28  1  0  0  0  0
 27 26  2  0  0  0  0
 28 23  2  0  0  0  0
 29  8  1  0  0  0  0
 29 34  1  0  0  0  0
 30 31  1  0  0  0  0
 30 29  2  0  0  0  0
 31 32  2  0  0  0  0
 32 51  1  0  0  0  0
 32 33  1  0  0  0  0
 33 52  1  0  0  0  0
 34 33  2  0  0  0  0
 34 10  1  0  0  0  0
 35 36  1  0  0  0  0
 35 12  2  0  0  0  0
 36 53  1  0  0  0  0
 37 54  1  0  0  0  0
 37 36  2  0  0  0  0
 38 37  1  0  0  0  0
 39 38  2  0  0  0  0
 39 40  1  0  0  0  0
 40 14  2  0  0  0  0
 40 35  1  0  0  0  0
 41 18  1  0  0  0  0
 42 19  1  0  0  0  0
 47 26  1  0  0  0  0
 48 27  1  0  0  0  0
 49 30  1  0  0  0  0
 50 31  1  0  0  0  0
 55 38  1  0  0  0  0
 56 39  1  0  0  0  0
M  END
