1,2,3,4
 OpenBabel05122313063D

 72 76  0  0  0  0  0  0  0  0999 V2000
    1.2469    0.9461   -0.4910 N   0  0  0  0  0  2  0  0  0  0  0  0
   -1.4390    0.3900   -0.4817 N   0  0  0  0  0  0  0  0  0  0  0  0
   -0.9059   -2.2536   -0.8254 N   0  0  0  0  0  0  0  0  0  0  0  0
    1.8045   -1.6923   -0.8371 N   0  0  0  0  0  0  0  0  0  0  0  0
    2.5898    1.0264   -0.1578 C   0  0  0  0  0  0  0  0  0  0  0  0
    3.0058    2.4101   -0.1202 C   0  0  0  0  0  0  0  0  0  0  0  0
    4.0138    2.7647    0.1172 H   0  0  0  0  0  0  0  0  0  0  0  0
    1.9240    3.1642   -0.4973 C   0  0  0  0  0  0  0  0  0  0  0  0
    1.8765    4.2525   -0.6061 H   0  0  0  0  0  0  0  0  0  0  0  0
    0.8199    2.2517   -0.6847 C   0  0  0  0  0  0  0  0  0  0  0  0
   -0.5098    2.6616   -0.8695 C   0  0  0  0  0  0  0  0  0  0  0  0
   -1.5666    1.7572   -0.6788 C   0  0  0  0  0  0  0  0  0  0  0  0
   -2.9414    2.1570   -0.4858 C   0  0  0  0  0  0  0  0  0  0  0  0
   -3.3305    3.1746   -0.5945 H   0  0  0  0  0  0  0  0  0  0  0  0
   -3.6327    1.0363   -0.1018 C   0  0  0  0  0  0  0  0  0  0  0  0
   -4.6975    0.9623    0.1409 H   0  0  0  0  0  0  0  0  0  0  0  0
   -2.7015   -0.0685   -0.1404 C   0  0  0  0  0  0  0  0  0  0  0  0
   -3.0876   -1.4159   -0.0097 C   0  0  0  0  0  0  0  0  0  0  0  0
   -2.2282   -2.4356   -0.4451 C   0  0  0  0  0  3  0  0  0  0  0  0
   -2.6352   -3.8001   -0.7159 C   0  0  0  0  0  0  0  0  0  0  0  0
   -3.6260   -4.2197   -0.5165 H   0  0  0  0  0  0  0  0  0  0  0  0
   -1.5710   -4.4246   -1.3140 C   0  0  0  0  0  0  0  0  0  0  0  0
   -1.4996   -5.4560   -1.6788 H   0  0  0  0  0  0  0  0  0  0  0  0
   -0.4908   -3.4686   -1.3387 C   0  0  0  0  0  0  0  0  0  0  0  0
    0.8223   -3.7913   -1.6698 C   0  0  0  0  0  0  0  0  0  0  0  0
    1.0287   -4.7964   -2.0618 H   0  0  0  0  0  0  0  0  0  0  0  0
    1.9019   -2.9727   -1.3500 C   0  0  0  0  0  0  0  0  0  0  0  0
    3.2732   -3.4208   -1.3368 C   0  0  0  0  0  0  0  0  0  0  0  0
    3.6143   -4.3960   -1.7037 H   0  0  0  0  0  0  0  0  0  0  0  0
    4.0066   -2.4245   -0.7457 C   0  0  0  0  0  0  0  0  0  0  0  0
    5.0843   -2.4157   -0.5552 H   0  0  0  0  0  0  0  0  0  0  0  0
    3.0933   -1.3339   -0.4676 C   0  0  0  0  0  0  0  0  0  0  0  0
    3.4803   -0.0569   -0.0345 C   0  0  0  0  0  0  0  0  0  0  0  0
   -0.8177    4.1288   -1.0777 C   0  0  0  0  0  0  0  0  0  0  0  0
   -1.7381    4.2187   -1.6877 H   0  0  0  0  0  0  0  0  0  0  0  0
   -0.0150    4.5930   -1.6867 H   0  0  0  0  0  0  0  0  0  0  0  0
   -0.9812    4.9287    0.2309 C   0  0  0  0  0  0  0  0  0  0  0  0
   -1.7720    4.4510    0.8496 H   0  0  0  0  0  0  0  0  0  0  0  0
   -0.0452    4.8366    0.8212 H   0  0  0  0  0  0  0  0  0  0  0  0
   -1.3161    6.4110    0.0194 C   0  0  0  0  0  0  0  0  0  0  0  0
   -1.2702    6.9258    1.0032 H   0  0  0  0  0  0  0  0  0  0  0  0
   -0.5215    6.8813   -0.6026 H   0  0  0  0  0  0  0  0  0  0  0  0
   -2.6846    6.6663   -0.6175 C   0  0  0  0  0  0  0  0  0  0  0  0
   -2.8982    7.7510   -0.7003 H   0  0  0  0  0  0  0  0  0  0  0  0
   -3.4982    6.2123   -0.0128 H   0  0  0  0  0  0  0  0  0  0  0  0
   -2.7561    6.2424   -1.6402 H   0  0  0  0  0  0  0  0  0  0  0  0
   -4.4498   -1.7372    0.5589 C   0  0  0  0  0  0  0  0  0  0  0  0
   -4.7270   -2.7845    0.3307 H   0  0  0  0  0  0  0  0  0  0  0  0
   -5.2271   -1.1097    0.0761 H   0  0  0  0  0  0  0  0  0  0  0  0
   -4.5370   -1.5412    2.0944 C   0  0  0  0  0  0  0  0  0  0  0  0
   -4.2926   -0.4750    2.3028 H   0  0  0  0  0  0  0  0  0  0  0  0
   -5.9646   -1.8091    2.5819 C   0  0  0  0  0  0  0  0  0  0  0  0
   -6.7023   -1.1597    2.0668 H   0  0  0  0  0  0  0  0  0  0  0  0
   -6.0581   -1.6299    3.6723 H   0  0  0  0  0  0  0  0  0  0  0  0
   -6.2574   -2.8638    2.3911 H   0  0  0  0  0  0  0  0  0  0  0  0
   -3.5162   -2.4114    2.8346 C   0  0  0  0  0  0  0  0  0  0  0  0
   -2.4786   -2.1840    2.5181 H   0  0  0  0  0  0  0  0  0  0  0  0
   -3.6959   -3.4899    2.6359 H   0  0  0  0  0  0  0  0  0  0  0  0
   -3.5810   -2.2560    3.9306 H   0  0  0  0  0  0  0  0  0  0  0  0
    4.8620    0.1886    0.5248 C   0  0  0  0  0  0  0  0  0  0  0  0
    5.3209    1.0766    0.0435 H   0  0  0  0  0  0  0  0  0  0  0  0
    5.5323   -0.6598    0.2869 H   0  0  0  0  0  0  0  0  0  0  0  0
    4.8754    0.3952    2.0614 C   0  0  0  0  0  0  0  0  0  0  0  0
    4.2277    1.2744    2.2790 H   0  0  0  0  0  0  0  0  0  0  0  0
    4.2917   -0.8135    2.8001 C   0  0  0  0  0  0  0  0  0  0  0  0
    3.2472   -1.0172    2.4906 H   0  0  0  0  0  0  0  0  0  0  0  0
    4.2976   -0.6506    3.8969 H   0  0  0  0  0  0  0  0  0  0  0  0
    4.8849   -1.7300    2.5922 H   0  0  0  0  0  0  0  0  0  0  0  0
    6.2950    0.7163    2.5397 C   0  0  0  0  0  0  0  0  0  0  0  0
    6.7088    1.6085    2.0258 H   0  0  0  0  0  0  0  0  0  0  0  0
    6.9825   -0.1334    2.3395 H   0  0  0  0  0  0  0  0  0  0  0  0
    6.3177    0.9125    3.6309 H   0  0  0  0  0  0  0  0  0  0  0  0
  1  5  1  0  0  0  0
  2 17  1  0  0  0  0
  3 19  1  0  0  0  0
  4 32  2  0  0  0  0
  5  6  1  0  0  0  0
  5 33  2  0  0  0  0
  6  7  1  0  0  0  0
  8  6  2  0  0  0  0
  9  8  1  0  0  0  0
 10  8  1  0  0  0  0
 10  1  1  0  0  0  0
 11 10  2  0  0  0  0
 11 12  1  0  0  0  0
 12 13  1  0  0  0  0
 12  2  2  0  0  0  0
 13 15  2  0  0  0  0
 14 13  1  0  0  0  0
 15 16  1  0  0  0  0
 17 15  1  0  0  0  0
 17 18  2  0  0  0  0
 18 47  1  0  0  0  0
 19 18  1  0  0  0  0
 20 21  1  0  0  0  0
 20 19  1  0  0  0  0
 22 20  2  0  0  0  0
 23 22  1  0  0  0  0
 24 22  1  0  0  0  0
 24  3  2  0  0  0  0
 25 27  2  0  0  0  0
 25 24  1  0  0  0  0
 26 25  1  0  0  0  0
 27 28  1  0  0  0  0
 27  4  1  0  0  0  0
 28 30  2  0  0  0  0
 29 28  1  0  0  0  0
 30 31  1  0  0  0  0
 30 32  1  0  0  0  0
 32 33  1  0  0  0  0
 33 60  1  0  0  0  0
 34 11  1  0  0  0  0
 34 37  1  0  0  0  0
 35 34  1  0  0  0  0
 36 34  1  0  0  0  0
 37 39  1  0  0  0  0
 37 38  1  0  0  0  0
 40 37  1  0  0  0  0
 40 41  1  0  0  0  0
 42 40  1  0  0  0  0
 43 45  1  0  0  0  0
 43 40  1  0  0  0  0
 44 43  1  0  0  0  0
 46 43  1  0  0  0  0
 47 50  1  0  0  0  0
 48 47  1  0  0  0  0
 49 47  1  0  0  0  0
 50 51  1  0  0  0  0
 50 52  1  0  0  0  0
 50 56  1  0  0  0  0
 52 54  1  0  0  0  0
 53 52  1  0  0  0  0
 55 52  1  0  0  0  0
 56 59  1  0  0  0  0
 57 56  1  0  0  0  0
 58 56  1  0  0  0  0
 60 63  1  0  0  0  0
 61 60  1  0  0  0  0
 62 60  1  0  0  0  0
 63 64  1  0  0  0  0
 63 69  1  0  0  0  0
 63 65  1  0  0  0  0
 65 67  1  0  0  0  0
 66 65  1  0  0  0  0
 68 65  1  0  0  0  0
 69 72  1  0  0  0  0
 70 69  1  0  0  0  0
 71 69  1  0  0  0  0
M  END
