1,2,3,4
 OpenBabel05122313063D

 35 37  0  0  0  0  0  0  0  0999 V2000
    1.0959    0.3196    1.7563 N   0  0  0  0  0  0  0  0  0  0  0  0
   -0.9108   -1.0740    0.8480 N   0  0  0  0  0  2  0  0  0  0  0  0
   -0.2528   -0.3073   -1.7796 N   0  0  0  0  0  2  0  0  0  0  0  0
    1.3406    1.5239   -0.9456 N   0  0  0  0  0  0  0  0  0  0  0  0
    2.1811    0.8249    2.3757 C   0  0  0  0  0  0  0  0  0  0  0  0
    2.8973    1.4736    1.8560 H   0  0  0  0  0  0  0  0  0  0  0  0
    2.2234    0.3787    3.7288 C   0  0  0  0  0  0  0  0  0  0  0  0
    2.9866    0.6511    4.4669 H   0  0  0  0  0  0  0  0  0  0  0  0
    1.1173   -0.4576    3.9214 C   0  0  0  0  0  0  0  0  0  0  0  0
    0.8300   -0.9868    4.8373 H   0  0  0  0  0  0  0  0  0  0  0  0
    0.4311   -0.4953    2.6736 C   0  0  0  0  0  3  0  0  0  0  0  0
   -0.6730   -1.1928    2.1556 C   0  0  0  0  0  3  0  0  0  0  0  0
   -1.3060   -1.8358    2.7906 H   0  0  0  0  0  0  0  0  0  0  0  0
   -2.1129   -1.5028    0.2536 C   0  0  0  0  0  0  0  0  0  0  0  0
   -3.2933   -1.6564    1.0208 C   0  0  0  0  0  0  0  0  0  0  0  0
   -3.2808   -1.4057    2.0908 H   0  0  0  0  0  0  0  0  0  0  0  0
   -4.4854   -2.0898    0.4318 C   0  0  0  0  0  0  0  0  0  0  0  0
   -5.3860   -2.2057    1.0527 H   0  0  0  0  0  0  0  0  0  0  0  0
   -4.5369   -2.3447   -0.9469 C   0  0  0  0  0  0  0  0  0  0  0  0
   -5.4735   -2.6728   -1.4202 H   0  0  0  0  0  0  0  0  0  0  0  0
   -3.3858   -2.1495   -1.7233 C   0  0  0  0  0  0  0  0  0  0  0  0
   -3.4262   -2.3258   -2.8097 H   0  0  0  0  0  0  0  0  0  0  0  0
   -2.1716   -1.7341   -1.1509 C   0  0  0  0  0  0  0  0  0  0  0  0
   -0.9566   -1.5509   -2.0341 C   0  0  0  0  0  0  0  0  0  0  0  0
   -0.2476   -2.3986   -1.8775 H   0  0  0  0  0  0  0  0  0  0  0  0
   -1.2619   -1.6023   -3.1008 H   0  0  0  0  0  0  0  0  0  0  0  0
    0.2571    0.4437   -2.7373 C   0  0  0  0  0  3  0  0  0  0  0  0
    0.0334    0.2391   -3.8003 H   0  0  0  0  0  0  0  0  0  0  0  0
    1.0992    1.5003   -2.3195 C   0  0  0  0  0  0  0  0  0  0  0  0
    1.7574    2.5982   -2.9317 C   0  0  0  0  0  0  0  0  0  0  0  0
    1.7595    2.8429   -4.0001 H   0  0  0  0  0  0  0  0  0  0  0  0
    2.3866    3.3018   -1.8919 C   0  0  0  0  0  0  0  0  0  0  0  0
    2.9926    4.2110   -1.9788 H   0  0  0  0  0  0  0  0  0  0  0  0
    2.0964    2.6134   -0.6831 C   0  0  0  0  0  3  0  0  0  0  0  0
    2.4080    2.8757    0.3353 H   0  0  0  0  0  0  0  0  0  0  0  0
  1  5  2  0  0  0  0
  1 11  1  0  0  0  0
  2 12  1  0  0  0  0
  4 34  1  0  0  0  0
  5  7  1  0  0  0  0
  6  5  1  0  0  0  0
  7  9  2  0  0  0  0
  7  8  1  0  0  0  0
  9 10  1  0  0  0  0
 11  9  1  0  0  0  0
 12 11  1  0  0  0  0
 12 13  1  0  0  0  0
 14  2  1  0  0  0  0
 14 15  1  0  0  0  0
 15 16  1  0  0  0  0
 17 15  2  0  0  0  0
 17 18  1  0  0  0  0
 19 17  1  0  0  0  0
 20 19  1  0  0  0  0
 21 23  1  0  0  0  0
 21 19  2  0  0  0  0
 22 21  1  0  0  0  0
 23 14  2  0  0  0  0
 24 25  1  0  0  0  0
 24  3  1  0  0  0  0
 24 23  1  0  0  0  0
 26 24  1  0  0  0  0
 27 29  1  0  0  0  0
 27  3  1  0  0  0  0
 28 27  1  0  0  0  0
 29  4  2  0  0  0  0
 30 29  1  0  0  0  0
 30 32  2  0  0  0  0
 31 30  1  0  0  0  0
 32 34  1  0  0  0  0
 33 32  1  0  0  0  0
 34 35  1  0  0  0  0
M  END
