3,4,5,6
 OpenBabel05122313063D

 41 40  0  0  1  0  0  0  0  0999 V2000
   -1.2647    2.6636   -0.2523 O   0  0  0  0  0  0  0  0  0  0  0  0
    1.2058    2.6702   -0.2154 O   0  0  0  0  0  1  0  0  0  0  0  0
   -1.4365    1.3455   -0.1146 N   0  0  0  0  0  2  0  0  0  0  0  0
    1.4105    1.3781   -0.1018 N   0  0  0  0  0  2  0  0  0  0  0  0
   -1.2383   -1.1684    0.0739 N   0  0  0  0  0  2  0  0  0  0  0  0
    1.2783   -1.1358    0.1156 N   0  0  0  0  0  2  0  0  0  0  0  0
   -2.5779    0.7884   -0.4340 C   0  0  2  0  0  3  0  0  0  0  0  0
    2.5496    0.8198   -0.4647 C   0  0  1  0  0  3  0  0  0  0  0  0
   -2.5938   -0.7380   -0.3495 C   0  0  0  0  0  0  0  0  0  0  0  0
    2.6043   -0.7042   -0.3698 C   0  0  0  0  0  0  0  0  0  0  0  0
   -3.7258    1.6265   -0.8861 C   0  0  0  0  0  0  0  0  0  0  0  0
    3.6605    1.6805   -0.9618 C   0  0  0  0  0  0  0  0  0  0  0  0
   -2.9786   -1.2781   -1.7454 C   0  0  0  0  0  0  0  0  0  0  0  0
   -3.6302   -1.1980    0.7028 C   0  0  0  0  0  0  0  0  0  0  0  0
    2.8887   -1.2658   -1.7821 C   0  0  0  0  0  0  0  0  0  0  0  0
    3.7099   -1.1418    0.6184 C   0  0  0  0  0  0  0  0  0  0  0  0
   -0.6917   -2.4456   -0.4132 C   0  0  0  0  0  0  0  0  0  0  0  0
    0.7912   -2.5188    0.0203 C   0  0  0  0  0  0  0  0  0  0  0  0
   -0.1455    2.7799   -0.1874 H   0  0  0  0  0  0  0  0  0  0  0  0
   -4.6551    1.0402   -0.9994 H   0  0  0  0  0  0  0  0  0  0  0  0
   -3.4829    2.1107   -1.8563 H   0  0  0  0  0  0  0  0  0  0  0  0
   -3.8937    2.4564   -0.1693 H   0  0  0  0  0  0  0  0  0  0  0  0
    3.2904    2.3271   -1.7857 H   0  0  0  0  0  0  0  0  0  0  0  0
    4.5297    1.0936   -1.3094 H   0  0  0  0  0  0  0  0  0  0  0  0
    3.9907    2.3796   -0.1638 H   0  0  0  0  0  0  0  0  0  0  0  0
   -3.0498   -2.3830   -1.7336 H   0  0  0  0  0  0  0  0  0  0  0  0
   -2.2333   -0.9782   -2.5082 H   0  0  0  0  0  0  0  0  0  0  0  0
   -3.9680   -0.8891   -2.0550 H   0  0  0  0  0  0  0  0  0  0  0  0
   -3.6292   -2.3047    0.7639 H   0  0  0  0  0  0  0  0  0  0  0  0
   -3.3589   -0.7959    1.6981 H   0  0  0  0  0  0  0  0  0  0  0  0
   -4.6590   -0.8711    0.4476 H   0  0  0  0  0  0  0  0  0  0  0  0
    2.0685   -0.9965   -2.4764 H   0  0  0  0  0  0  0  0  0  0  0  0
    3.8400   -0.8679   -2.1863 H   0  0  0  0  0  0  0  0  0  0  0  0
    2.9847   -2.3694   -1.7565 H   0  0  0  0  0  0  0  0  0  0  0  0
    3.4941   -0.7383    1.6268 H   0  0  0  0  0  0  0  0  0  0  0  0
    3.7414   -2.2484    0.6842 H   0  0  0  0  0  0  0  0  0  0  0  0
    4.7122   -0.7919    0.2979 H   0  0  0  0  0  0  0  0  0  0  0  0
   -1.2533   -3.3227   -0.0142 H   0  0  0  0  0  0  0  0  0  0  0  0
   -0.7488   -2.5021   -1.5251 H   0  0  0  0  0  0  0  0  0  0  0  0
    1.3695   -3.1268   -0.7072 H   0  0  0  0  0  0  0  0  0  0  0  0
    0.8784   -3.0229    1.0107 H   0  0  0  0  0  0  0  0  0  0  0  0
  1 19  1  0  0  0  0
  1  3  1  0  0  0  0
  2  4  1  0  0  0  0
  7  9  1  0  0  0  0
  7  3  1  6  0  0  0
  8 10  1  0  0  0  0
  8  4  1  6  0  0  0
  9  5  1  0  0  0  0
  9 14  1  0  0  0  0
 10  6  1  0  0  0  0
 10 16  1  0  0  0  0
 11  7  1  0  0  0  0
 11 22  1  0  0  0  0
 12  8  1  0  0  0  0
 12 25  1  0  0  0  0
 13 26  1  0  0  0  0
 13  9  1  0  0  0  0
 14 29  1  0  0  0  0
 14 30  1  0  0  0  0
 15 34  1  0  0  0  0
 15 10  1  0  0  0  0
 16 36  1  0  0  0  0
 16 35  1  0  0  0  0
 17 38  1  0  0  0  0
 17 18  1  0  0  0  0
 17  5  1  0  0  0  0
 18  6  1  0  0  0  0
 18 41  1  0  0  0  0
 20 11  1  0  0  0  0
 21 11  1  0  0  0  0
 23 12  1  0  0  0  0
 24 12  1  0  0  0  0
 27 13  1  0  0  0  0
 28 13  1  0  0  0  0
 31 14  1  0  0  0  0
 32 15  1  0  0  0  0
 33 15  1  0  0  0  0
 37 16  1  0  0  0  0
 39 17  1  0  0  0  0
 40 18  1  0  0  0  0
M  END
