1,2,3,4
 OpenBabel05122313063D

 58 63  0  0  1  0  0  0  0  0999 V2000
    1.3453   -1.6089   -0.4407 N   0  0  0  0  0  2  0  0  0  0  0  0
    1.6001    0.8615   -1.4048 N   0  0  0  0  0  2  0  0  0  0  0  0
   -1.3640    1.0671   -1.4874 N   0  0  0  0  0  2  0  0  0  0  0  0
   -0.0847   -0.8279   -2.6277 N   0  0  0  0  0  0  0  0  0  0  0  0
    0.5974   -2.1428   -2.6682 C   0  0  0  0  0  0  0  0  0  0  0  0
    1.0006   -2.3643   -3.6790 H   0  0  0  0  0  0  0  0  0  0  0  0
   -0.1622   -2.9138   -2.4016 H   0  0  0  0  0  0  0  0  0  0  0  0
    1.6600   -2.2111   -1.6062 C   0  0  0  0  0  0  0  0  0  0  0  0
    2.8607   -2.9326   -1.7969 C   0  0  0  0  0  0  0  0  0  0  0  0
    3.0684   -3.3786   -2.7799 H   0  0  0  0  0  0  0  0  0  0  0  0
    3.7620   -3.0361   -0.7498 C   0  0  0  0  0  0  0  0  0  0  0  0
    4.7288   -3.5459   -0.8807 H   0  0  0  0  0  0  0  0  0  0  0  0
    3.4144   -2.5097    0.5224 C   0  0  0  0  0  0  0  0  0  0  0  0
    4.2544   -2.6537    1.6645 C   0  0  0  0  0  0  0  0  0  0  0  0
    5.2320   -3.1444    1.5396 H   0  0  0  0  0  0  0  0  0  0  0  0
    3.8303   -2.2153    2.9091 C   0  0  0  0  0  0  0  0  0  0  0  0
    4.4801   -2.3372    3.7888 H   0  0  0  0  0  0  0  0  0  0  0  0
    2.5349   -1.6532    3.0562 C   0  0  0  0  0  0  0  0  0  0  0  0
    2.1668   -1.3659    4.0525 H   0  0  0  0  0  0  0  0  0  0  0  0
    1.7024   -1.4717    1.9619 C   0  0  0  0  0  0  0  0  0  0  0  0
    0.6870   -1.0893    2.0935 H   0  0  0  0  0  0  0  0  0  0  0  0
    2.1432   -1.8420    0.6649 C   0  0  2  0  0  3  0  0  0  0  0  0
    0.5939    0.1841   -3.4786 C   0  0  0  0  0  0  0  0  0  0  0  0
   -0.1384    0.9885   -3.6941 H   0  0  0  0  0  0  0  0  0  0  0  0
    0.9014   -0.2530   -4.4534 H   0  0  0  0  0  0  0  0  0  0  0  0
    1.7559    0.7769   -2.7455 C   0  0  0  0  0  0  0  0  0  0  0  0
    2.8957    1.2383   -3.4400 C   0  0  0  0  0  0  0  0  0  0  0  0
    2.9350    1.1262   -4.5331 H   0  0  0  0  0  0  0  0  0  0  0  0
    3.9362    1.8151   -2.7345 C   0  0  0  0  0  0  0  0  0  0  0  0
    4.8381    2.1861   -3.2440 H   0  0  0  0  0  0  0  0  0  0  0  0
    3.8395    1.9042   -1.3202 C   0  0  0  0  0  0  0  0  0  0  0  0
    4.8921    2.4564   -0.5351 C   0  0  0  0  0  0  0  0  0  0  0  0
    5.7878    2.8303   -1.0547 H   0  0  0  0  0  0  0  0  0  0  0  0
    4.7947    2.5163    0.8466 C   0  0  0  0  0  0  0  0  0  0  0  0
    5.6151    2.9435    1.4425 H   0  0  0  0  0  0  0  0  0  0  0  0
    3.6322    2.0205    1.4860 C   0  0  0  0  0  0  0  0  0  0  0  0
    3.5410    2.0590    2.5818 H   0  0  0  0  0  0  0  0  0  0  0  0
    2.5864    1.4766    0.7514 C   0  0  0  0  0  0  0  0  0  0  0  0
    1.6880    1.1054    1.2547 H   0  0  0  0  0  0  0  0  0  0  0  0
    2.6512    1.4056   -0.6646 C   0  0  2  0  0  3  0  0  0  0  0  0
   -1.5432   -0.8652   -2.9226 C   0  0  0  0  0  0  0  0  0  0  0  0
   -1.9719   -1.7633   -2.4332 H   0  0  0  0  0  0  0  0  0  0  0  0
   -1.7307   -0.9444   -4.0183 H   0  0  0  0  0  0  0  0  0  0  0  0
   -2.1402    0.4043   -2.3699 C   0  0  0  0  0  0  0  0  0  0  0  0
   -3.3994    0.8888   -2.7854 C   0  0  0  0  0  0  0  0  0  0  0  0
   -4.0022    0.2906   -3.4835 H   0  0  0  0  0  0  0  0  0  0  0  0
   -3.8530    2.1011   -2.2897 C   0  0  0  0  0  0  0  0  0  0  0  0
   -4.8459    2.4889   -2.5639 H   0  0  0  0  0  0  0  0  0  0  0  0
   -3.0060    2.8788   -1.4560 C   0  0  0  0  0  0  0  0  0  0  0  0
   -3.3646    4.1793   -1.0005 C   0  0  0  0  0  0  0  0  0  0  0  0
   -4.3565    4.5752   -1.2671 H   0  0  0  0  0  0  0  0  0  0  0  0
   -2.4736    4.9345   -0.2550 C   0  0  0  0  0  0  0  0  0  0  0  0
   -2.7560    5.9396    0.0920 H   0  0  0  0  0  0  0  0  0  0  0  0
   -1.1880    4.4178    0.0500 C   0  0  0  0  0  0  0  0  0  0  0  0
   -0.4785    5.0280    0.6277 H   0  0  0  0  0  0  0  0  0  0  0  0
   -0.8151    3.1442   -0.3526 C   0  0  0  0  0  0  0  0  0  0  0  0
    0.1664    2.7345   -0.0977 H   0  0  0  0  0  0  0  0  0  0  0  0
   -1.7210    2.3379   -1.0897 C   0  0  2  0  0  3  0  0  0  0  0  0
  5  4  1  0  0  0  0
  5  7  1  0  0  0  0
  5  8  1  0  0  0  0
  6  5  1  0  0  0  0
  8  1  1  0  0  0  0
  9  8  2  0  0  0  0
  9 11  1  0  0  0  0
 10  9  1  0  0  0  0
 11 13  2  0  0  0  0
 12 11  1  0  0  0  0
 13 22  1  0  0  0  0
 13 14  1  0  0  0  0
 14 16  2  0  0  0  0
 15 14  1  0  0  0  0
 16 18  1  0  0  0  0
 16 17  1  0  0  0  0
 18 19  1  0  0  0  0
 20 21  1  0  0  0  0
 20 18  2  0  0  0  0
 22  1  1  1  0  0  0
 22 20  1  0  0  0  0
 23 26  1  0  0  0  0
 23  4  1  0  0  0  0
 24 23  1  0  0  0  0
 25 23  1  0  0  0  0
 26  2  1  0  0  0  0
 27 26  2  0  0  0  0
 27 29  1  0  0  0  0
 28 27  1  0  0  0  0
 29 31  2  0  0  0  0
 30 29  1  0  0  0  0
 31 40  1  0  0  0  0
 31 32  1  0  0  0  0
 32 34  2  0  0  0  0
 33 32  1  0  0  0  0
 34 35  1  0  0  0  0
 34 36  1  0  0  0  0
 36 37  1  0  0  0  0
 38 39  1  0  0  0  0
 38 36  2  0  0  0  0
 40  2  1  1  0  0  0
 40 38  1  0  0  0  0
 41  4  1  0  0  0  0
 41 42  1  0  0  0  0
 41 44  1  0  0  0  0
 43 41  1  0  0  0  0
 44  3  1  0  0  0  0
 45 44  2  0  0  0  0
 45 47  1  0  0  0  0
 46 45  1  0  0  0  0
 47 49  2  0  0  0  0
 48 47  1  0  0  0  0
 49 58  1  0  0  0  0
 49 50  1  0  0  0  0
 50 52  2  0  0  0  0
 51 50  1  0  0  0  0
 52 54  1  0  0  0  0
 52 53  1  0  0  0  0
 54 55  1  0  0  0  0
 56 57  1  0  0  0  0
 56 54  2  0  0  0  0
 58  3  1  6  0  0  0
 58 56  1  0  0  0  0
M  END
