1,2,3,4
 OpenBabel05122313063D

 37 36  0  0  1  0  0  0  0  0999 V2000
    1.6214   -1.4154    0.6744 N   0  0  0  0  0  0  0  0  0  0  0  0
    0.8131    1.2768    0.5137 N   0  0  0  0  0  0  0  0  0  0  0  0
   -1.4109    0.8243   -0.9767 N   0  0  0  0  0  0  0  0  0  0  0  0
   -1.4514   -0.7096    1.3444 N   0  0  0  0  0  0  0  0  0  0  0  0
    2.3353   -0.4016    1.5192 C   0  0  1  0  0  0  0  0  0  0  0  0
    3.7781   -0.8047    1.8118 C   0  0  0  0  0  0  0  0  0  0  0  0
    2.2417    0.9606    0.8106 C   0  0  0  0  0  0  0  0  0  0  0  0
    0.5508    2.3933   -0.4709 C   0  0  2  0  0  0  0  0  0  0  0  0
    0.4138    3.7343    0.2451 C   0  0  0  0  0  0  0  0  0  0  0  0
   -0.6598    2.0437   -1.4010 C   0  0  0  0  0  0  0  0  0  0  0  0
   -2.4670    1.0789    0.0428 C   0  0  0  0  0  0  0  0  0  0  0  0
   -2.7631   -0.2029    0.8147 C   0  0  2  0  0  0  0  0  0  0  0  0
   -3.8118   -0.0306    1.9064 C   0  0  0  0  0  0  0  0  0  0  0  0
    2.1912   -1.6485   -0.1629 H   0  0  0  0  0  0  0  0  0  0  0  0
    1.4592   -2.2975    1.1834 H   0  0  0  0  0  0  0  0  0  0  0  0
    1.7684   -0.3454    2.4762 H   0  0  0  0  0  0  0  0  0  0  0  0
    4.2650   -0.0735    2.4862 H   0  0  0  0  0  0  0  0  0  0  0  0
    3.8203   -1.7949    2.3067 H   0  0  0  0  0  0  0  0  0  0  0  0
    4.3722   -0.8577    0.8767 H   0  0  0  0  0  0  0  0  0  0  0  0
    2.7133    1.7529    1.4286 H   0  0  0  0  0  0  0  0  0  0  0  0
    2.7637    0.9032   -0.1653 H   0  0  0  0  0  0  0  0  0  0  0  0
    0.3555    1.5334    1.4035 H   0  0  0  0  0  0  0  0  0  0  0  0
    1.4429    2.4079   -1.1252 H   0  0  0  0  0  0  0  0  0  0  0  0
    0.2835    4.5538   -0.4883 H   0  0  0  0  0  0  0  0  0  0  0  0
   -0.4677    3.7533    0.9217 H   0  0  0  0  0  0  0  0  0  0  0  0
    1.3183    3.9707    0.8402 H   0  0  0  0  0  0  0  0  0  0  0  0
   -1.3584    2.9038   -1.4765 H   0  0  0  0  0  0  0  0  0  0  0  0
   -0.2655    1.8217   -2.4083 H   0  0  0  0  0  0  0  0  0  0  0  0
   -1.8268    0.3740   -1.8074 H   0  0  0  0  0  0  0  0  0  0  0  0
   -3.3848    1.4834   -0.4327 H   0  0  0  0  0  0  0  0  0  0  0  0
   -2.0944    1.8631    0.7371 H   0  0  0  0  0  0  0  0  0  0  0  0
   -3.0836   -0.9796    0.0879 H   0  0  0  0  0  0  0  0  0  0  0  0
   -3.9824   -0.9834    2.4448 H   0  0  0  0  0  0  0  0  0  0  0  0
   -3.5108    0.7416    2.6460 H   0  0  0  0  0  0  0  0  0  0  0  0
   -4.7819    0.2801    1.4719 H   0  0  0  0  0  0  0  0  0  0  0  0
   -1.2531   -0.2952    2.2704 H   0  0  0  0  0  0  0  0  0  0  0  0
   -1.5237   -1.7350    1.4660 H   0  0  0  0  0  0  0  0  0  0  0  0
  1 15  1  0  0  0  0
  1  5  1  0  0  0  0
  2  7  1  0  0  0  0
  2 22  1  0  0  0  0
  3 11  1  0  0  0  0
  4 37  1  0  0  0  0
  4 36  1  0  0  0  0
  5  6  1  0  0  0  0
  5 16  1  1  0  0  0
  6 18  1  0  0  0  0
  6 17  1  0  0  0  0
  7 20  1  0  0  0  0
  7  5  1  0  0  0  0
  8 23  1  6  0  0  0
  8  9  1  0  0  0  0
  8  2  1  0  0  0  0
  9 26  1  0  0  0  0
  9 25  1  0  0  0  0
 10  3  1  0  0  0  0
 10  8  1  0  0  0  0
 11 31  1  0  0  0  0
 11 12  1  0  0  0  0
 12 32  1  6  0  0  0
 12  4  1  0  0  0  0
 12 13  1  0  0  0  0
 13 33  1  0  0  0  0
 13 34  1  0  0  0  0
 14  1  1  0  0  0  0
 19  6  1  0  0  0  0
 21  7  1  0  0  0  0
 24  9  1  0  0  0  0
 27 10  1  0  0  0  0
 28 10  1  0  0  0  0
 29  3  1  0  0  0  0
 30 11  1  0  0  0  0
 35 13  1  0  0  0  0
M  END
