1,2,3,4
 OpenBabel05122313063D

 42 43  0  0  1  0  0  0  0  0999 V2000
   -0.3265   -0.8661    2.0972 N   0  0  0  0  0  0  0  0  0  0  0  0
    0.0409   -0.8888   -2.0115 N   0  0  0  0  0  0  0  0  0  0  0  0
    0.7321   -2.6126    0.1206 N   0  0  0  0  0  0  0  0  0  0  0  0
   -1.7331   -1.1978   -0.1040 N   0  0  0  0  0  2  0  0  0  0  0  0
    2.2059   -2.7691    0.2171 C   0  0  0  0  0  0  0  0  0  0  0  0
    2.4595   -3.8519    0.2475 H   0  0  0  0  0  0  0  0  0  0  0  0
    2.5925   -2.2569    1.1115 H   0  0  0  0  0  0  0  0  0  0  0  0
    2.7030   -2.2849   -0.6377 H   0  0  0  0  0  0  0  0  0  0  0  0
   -2.4929   -1.3815    1.0152 C   0  0  2  0  0  3  0  0  0  0  0  0
   -3.8005   -1.8615    0.9242 C   0  0  0  0  0  0  0  0  0  0  0  0
   -4.3913   -2.0133    1.8393 H   0  0  0  0  0  0  0  0  0  0  0  0
    0.2483   -2.1835    2.4682 C   0  0  0  0  0  0  0  0  0  0  0  0
   -0.2160   -2.5746    3.4025 H   0  0  0  0  0  0  0  0  0  0  0  0
    1.3212   -2.0218    2.6851 H   0  0  0  0  0  0  0  0  0  0  0  0
   -3.5890   -1.8250   -1.4937 C   0  0  0  0  0  0  0  0  0  0  0  0
   -4.0114   -1.9481   -2.5015 H   0  0  0  0  0  0  0  0  0  0  0  0
   -1.8107   -0.8607    2.2488 C   0  0  0  0  0  0  0  0  0  0  0  0
   -2.1134    0.2006    2.3581 H   0  0  0  0  0  0  0  0  0  0  0  0
   -2.1285   -1.3928    3.1735 H   0  0  0  0  0  0  0  0  0  0  0  0
   -1.3931   -0.7979   -2.4167 C   0  0  0  0  0  0  0  0  0  0  0  0
   -1.5687   -1.2654   -3.4114 H   0  0  0  0  0  0  0  0  0  0  0  0
   -1.6205    0.2907   -2.4895 H   0  0  0  0  0  0  0  0  0  0  0  0
    0.8426    0.1106   -2.7578 C   0  0  0  0  0  0  0  0  0  0  0  0
    1.8784    0.0932   -2.3804 H   0  0  0  0  0  0  0  0  0  0  0  0
    0.4249    1.1151   -2.5765 H   0  0  0  0  0  0  0  0  0  0  0  0
    0.8273   -0.1139   -3.8485 H   0  0  0  0  0  0  0  0  0  0  0  0
    0.2680    0.2055    2.9296 C   0  0  0  0  0  0  0  0  0  0  0  0
   -0.1338    1.1754    2.5888 H   0  0  0  0  0  0  0  0  0  0  0  0
    1.3600    0.2338    2.7700 H   0  0  0  0  0  0  0  0  0  0  0  0
    0.0346    0.0446    4.0061 H   0  0  0  0  0  0  0  0  0  0  0  0
   -4.3513   -2.1138   -0.3462 C   0  0  0  0  0  0  0  0  0  0  0  0
   -5.3766   -2.4982   -0.4416 H   0  0  0  0  0  0  0  0  0  0  0  0
    0.5844   -2.2496   -2.2768 C   0  0  0  0  0  0  0  0  0  0  0  0
    1.6822   -2.1509   -2.3748 H   0  0  0  0  0  0  0  0  0  0  0  0
    0.2101   -2.6405   -3.2498 H   0  0  0  0  0  0  0  0  0  0  0  0
    0.0953   -3.1833    1.3315 C   0  0  0  0  0  0  0  0  0  0  0  0
    0.5558   -4.1594    1.6083 H   0  0  0  0  0  0  0  0  0  0  0  0
   -0.9732   -3.3748    1.1133 H   0  0  0  0  0  0  0  0  0  0  0  0
    0.2536   -3.2119   -1.1470 C   0  0  0  0  0  0  0  0  0  0  0  0
   -0.8376   -3.3793   -1.0713 H   0  0  0  0  0  0  0  0  0  0  0  0
    0.7289   -4.2029   -1.3313 H   0  0  0  0  0  0  0  0  0  0  0  0
   -2.2861   -1.3460   -1.3448 C   0  0  0  0  0  0  0  0  0  0  0  0
  1 17  1  0  0  0  0
  1 12  1  0  0  0  0
  1 27  1  0  0  0  0
  3  5  1  0  0  0  0
  3 36  1  0  0  0  0
  5  6  1  0  0  0  0
  5  7  1  0  0  0  0
  8  5  1  0  0  0  0
  9  4  1  6  0  0  0
  9 17  1  0  0  0  0
 10  9  1  0  0  0  0
 10 11  1  0  0  0  0
 12 14  1  0  0  0  0
 12 13  1  0  0  0  0
 15 42  2  0  0  0  0
 15 31  1  0  0  0  0
 16 15  1  0  0  0  0
 17 18  1  0  0  0  0
 17 19  1  0  0  0  0
 20  2  1  0  0  0  0
 20 42  1  0  0  0  0
 21 20  1  0  0  0  0
 22 20  1  0  0  0  0
 23 25  1  0  0  0  0
 23 24  1  0  0  0  0
 23  2  1  0  0  0  0
 26 23  1  0  0  0  0
 27 30  1  0  0  0  0
 28 27  1  0  0  0  0
 29 27  1  0  0  0  0
 31 10  2  0  0  0  0
 32 31  1  0  0  0  0
 33  2  1  0  0  0  0
 33 39  1  0  0  0  0
 34 33  1  0  0  0  0
 35 33  1  0  0  0  0
 36 37  1  0  0  0  0
 36 12  1  0  0  0  0
 38 36  1  0  0  0  0
 39 40  1  0  0  0  0
 39  3  1  0  0  0  0
 41 39  1  0  0  0  0
 42  4  1  0  0  0  0
M  END
