1,11,21,27
 OpenBabel05122313063D

 74 78  0  0  1  0  0  0  0  0999 V2000
    1.4277   -1.1564   -0.3758 N   0  0  0  0  0  0  0  0  0  0  0  0
    2.3681   -0.0911   -0.8160 C   0  0  0  0  0  0  0  0  0  0  0  0
    3.8214   -0.5042   -0.9318 C   0  0  0  0  0  0  0  0  0  0  0  0
    4.6933   -0.3937    0.1716 C   0  0  0  0  0  0  0  0  0  0  0  0
    6.0261   -0.8219    0.0831 C   0  0  0  0  0  0  0  0  0  0  0  0
    6.5126   -1.3641   -1.1169 C   0  0  0  0  0  0  0  0  0  0  0  0
    5.6641   -1.4609   -2.2306 C   0  0  0  0  0  0  0  0  0  0  0  0
    4.3318   -1.0311   -2.1374 C   0  0  0  0  0  0  0  0  0  0  0  0
    1.6727   -1.6812    0.9736 C   0  0  0  0  0  0  0  0  0  0  0  0
    1.5364   -0.6311    2.0768 C   0  0  0  0  0  0  0  0  0  0  0  0
    0.2430    0.0747    2.0702 N   0  0  0  0  0  0  0  0  0  0  0  0
    0.3079    1.4366    2.6633 C   0  0  0  0  0  0  0  0  0  0  0  0
    1.2272    2.3645    1.8997 C   0  0  0  0  0  0  0  0  0  0  0  0
    2.5120    2.6748    2.3776 C   0  0  0  0  0  0  0  0  0  0  0  0
    3.3963    3.4867    1.6484 C   0  0  0  0  0  0  0  0  0  0  0  0
    2.9881    4.0103    0.4152 C   0  0  0  0  0  0  0  0  0  0  0  0
    1.7041    3.7370   -0.0853 C   0  0  0  0  0  0  0  0  0  0  0  0
    0.8319    2.9198    0.6541 C   0  0  0  0  0  0  0  0  0  0  0  0
   -0.4311    2.5874    0.2475 O   0  0  0  0  0  0  0  0  0  0  0  0
   -0.9602    3.0900   -0.9630 C   0  0  0  0  0  0  0  0  0  0  0  0
   -2.7110    1.4499   -0.4863 N   0  0  0  0  0  2  0  0  0  0  0  0
   -2.3999    2.6233   -1.0659 C   0  0  1  0  0  3  0  0  0  0  0  0
   -3.3644    3.4093   -1.7226 C   0  0  0  0  0  0  0  0  0  0  0  0
   -4.6868    2.9552   -1.7678 C   0  0  0  0  0  0  0  0  0  0  0  0
    1.2491   -2.2206   -1.3676 C   0  0  0  0  0  0  0  0  0  0  0  0
    0.2539   -1.8562   -2.4741 C   0  0  0  0  0  0  0  0  0  0  0  0
   -1.1058   -1.6333   -1.9625 N   0  0  0  0  0  0  0  0  0  0  0  0
   -1.8382   -2.8713   -1.5817 C   0  0  0  0  0  0  0  0  0  0  0  0
   -1.9946   -3.0353   -0.0868 C   0  0  0  0  0  0  0  0  0  0  0  0
   -1.2875   -3.9940    0.6538 C   0  0  0  0  0  0  0  0  0  0  0  0
   -1.4184   -4.0866    2.0503 C   0  0  0  0  0  0  0  0  0  0  0  0
   -2.2921   -3.2164    2.7157 C   0  0  0  0  0  0  0  0  0  0  0  0
   -3.0429   -2.2675    1.9983 C   0  0  0  0  0  0  0  0  0  0  0  0
   -2.8891   -2.1726    0.6025 C   0  0  0  0  0  0  0  0  0  0  0  0
   -3.5766   -1.3044   -0.2049 O   0  0  0  0  0  0  0  0  0  0  0  0
   -4.2889   -0.2027    0.3438 C   0  0  0  0  0  0  0  0  0  0  0  0
   -3.9979    1.0381   -0.4707 C   0  0  0  0  0  0  0  0  0  0  0  0
   -5.0146    1.7564   -1.1170 C   0  0  0  0  0  0  0  0  0  0  0  0
    2.2704    0.7609   -0.1158 H   0  0  0  0  0  0  0  0  0  0  0  0
    2.0042    0.2768   -1.7970 H   0  0  0  0  0  0  0  0  0  0  0  0
    4.3309    0.0598    1.1077 H   0  0  0  0  0  0  0  0  0  0  0  0
    6.6927   -0.7228    0.9530 H   0  0  0  0  0  0  0  0  0  0  0  0
    7.5585   -1.6979   -1.1885 H   0  0  0  0  0  0  0  0  0  0  0  0
    6.0454   -1.8637   -3.1811 H   0  0  0  0  0  0  0  0  0  0  0  0
    3.6824   -1.0825   -3.0264 H   0  0  0  0  0  0  0  0  0  0  0  0
    2.6832   -2.1478    1.0683 H   0  0  0  0  0  0  0  0  0  0  0  0
    0.9291   -2.4868    1.1457 H   0  0  0  0  0  0  0  0  0  0  0  0
    2.3302    0.1306    1.9604 H   0  0  0  0  0  0  0  0  0  0  0  0
    1.7306   -1.1280    3.0545 H   0  0  0  0  0  0  0  0  0  0  0  0
   -0.4419   -0.4764    2.6057 H   0  0  0  0  0  0  0  0  0  0  0  0
    0.6547    1.3932    3.7218 H   0  0  0  0  0  0  0  0  0  0  0  0
   -0.7239    1.8411    2.6639 H   0  0  0  0  0  0  0  0  0  0  0  0
    2.8232    2.2658    3.3521 H   0  0  0  0  0  0  0  0  0  0  0  0
    4.3969    3.7102    2.0445 H   0  0  0  0  0  0  0  0  0  0  0  0
    3.6691    4.6460   -0.1700 H   0  0  0  0  0  0  0  0  0  0  0  0
    1.3967    4.1636   -1.0495 H   0  0  0  0  0  0  0  0  0  0  0  0
   -0.3683    2.7191   -1.8356 H   0  0  0  0  0  0  0  0  0  0  0  0
   -0.9274    4.2020   -0.9878 H   0  0  0  0  0  0  0  0  0  0  0  0
   -3.0795    4.3699   -2.1767 H   0  0  0  0  0  0  0  0  0  0  0  0
   -5.4617    3.5420   -2.2829 H   0  0  0  0  0  0  0  0  0  0  0  0
    0.8777   -3.1195   -0.8386 H   0  0  0  0  0  0  0  0  0  0  0  0
    2.2152   -2.5245   -1.8318 H   0  0  0  0  0  0  0  0  0  0  0  0
    0.2776   -2.6686   -3.2393 H   0  0  0  0  0  0  0  0  0  0  0  0
    0.5798   -0.9273   -2.9872 H   0  0  0  0  0  0  0  0  0  0  0  0
   -1.6529   -1.1287   -2.6659 H   0  0  0  0  0  0  0  0  0  0  0  0
   -1.3245   -3.7641   -2.0000 H   0  0  0  0  0  0  0  0  0  0  0  0
   -2.8437   -2.8319   -2.0451 H   0  0  0  0  0  0  0  0  0  0  0  0
   -0.6181   -4.6883    0.1206 H   0  0  0  0  0  0  0  0  0  0  0  0
   -0.8535   -4.8451    2.6108 H   0  0  0  0  0  0  0  0  0  0  0  0
   -2.4226   -3.2898    3.8060 H   0  0  0  0  0  0  0  0  0  0  0  0
   -3.7634   -1.6341    2.5336 H   0  0  0  0  0  0  0  0  0  0  0  0
   -3.9622   -0.0017    1.3862 H   0  0  0  0  0  0  0  0  0  0  0  0
   -5.3770   -0.4230    0.3573 H   0  0  0  0  0  0  0  0  0  0  0  0
   -6.0498    1.3859   -1.0983 H   0  0  0  0  0  0  0  0  0  0  0  0
  1  9  1  0  0  0  0
  2  1  1  0  0  0  0
  2 39  1  0  0  0  0
  3  2  1  0  0  0  0
  3  4  1  0  0  0  0
  4 41  1  0  0  0  0
  5  4  2  0  0  0  0
  5 42  1  0  0  0  0
  6  5  1  0  0  0  0
  7  8  1  0  0  0  0
  7  6  2  0  0  0  0
  8  3  2  0  0  0  0
  9 46  1  0  0  0  0
  9 47  1  0  0  0  0
  9 10  1  0  0  0  0
 10 49  1  0  0  0  0
 11 10  1  0  0  0  0
 11 50  1  0  0  0  0
 11 12  1  0  0  0  0
 12 52  1  0  0  0  0
 12 51  1  0  0  0  0
 13 14  1  0  0  0  0
 13 12  1  0  0  0  0
 14 53  1  0  0  0  0
 15 54  1  0  0  0  0
 15 14  2  0  0  0  0
 16 15  1  0  0  0  0
 17 16  2  0  0  0  0
 17 18  1  0  0  0  0
 18 13  2  0  0  0  0
 19 18  1  0  0  0  0
 20 19  1  0  0  0  0
 21 37  1  0  0  0  0
 22 23  1  1  0  0  0
 22 20  1  0  0  0  0
 22 21  1  0  0  0  0
 24 23  2  0  0  0  0
 24 38  1  0  0  0  0
 25 61  1  0  0  0  0
 25  1  1  0  0  0  0
 26 27  1  0  0  0  0
 26 25  1  0  0  0  0
 27 28  1  0  0  0  0
 28 29  1  0  0  0  0
 29 34  2  0  0  0  0
 29 30  1  0  0  0  0
 30 31  2  0  0  0  0
 31 69  1  0  0  0  0
 31 32  1  0  0  0  0
 32 70  1  0  0  0  0
 33 71  1  0  0  0  0
 33 32  2  0  0  0  0
 34 33  1  0  0  0  0
 35 36  1  0  0  0  0
 35 34  1  0  0  0  0
 36 73  1  0  0  0  0
 36 72  1  0  0  0  0
 37 36  1  0  0  0  0
 38 74  1  0  0  0  0
 38 37  2  0  0  0  0
 40  2  1  0  0  0  0
 43  6  1  0  0  0  0
 44  7  1  0  0  0  0
 45  8  1  0  0  0  0
 48 10  1  0  0  0  0
 55 16  1  0  0  0  0
 56 17  1  0  0  0  0
 57 20  1  0  0  0  0
 58 20  1  0  0  0  0
 59 23  1  0  0  0  0
 60 24  1  0  0  0  0
 62 25  1  0  0  0  0
 63 26  1  0  0  0  0
 64 26  1  0  0  0  0
 65 27  1  0  0  0  0
 66 28  1  0  0  0  0
 67 28  1  0  0  0  0
 68 30  1  0  0  0  0
M  END
