1,13,20,32
 OpenBabel05122313063D

 35 36  0  0  0  0  0  0  0  0999 V2000
   -1.6681    1.5112    0.4412 N   0  0  0  0  0  2  0  0  0  0  0  0
   -1.8663    2.6678   -0.2069 C   0  0  0  0  0  3  0  0  0  0  0  0
   -1.2199    2.8441   -1.0827 H   0  0  0  0  0  0  0  0  0  0  0  0
   -2.8619    3.5914    0.1621 C   0  0  0  0  0  0  0  0  0  0  0  0
   -2.9802    4.5235   -0.4087 H   0  0  0  0  0  0  0  0  0  0  0  0
   -3.6910    3.2906    1.2485 C   0  0  0  0  0  0  0  0  0  0  0  0
   -4.4824    3.9861    1.5653 H   0  0  0  0  0  0  0  0  0  0  0  0
   -3.5034    2.0725    1.9157 C   0  0  0  0  0  0  0  0  0  0  0  0
   -4.1450    1.7815    2.7607 H   0  0  0  0  0  0  0  0  0  0  0  0
   -2.4848    1.2047    1.4789 C   0  0  0  0  0  0  0  0  0  0  0  0
   -2.3044   -0.1005    2.1369 C   0  0  0  0  0  3  0  0  0  0  0  0
   -2.9879   -0.3253    2.9878 H   0  0  0  0  0  0  0  0  0  0  0  0
   -1.4262   -0.9508    1.7430 N   0  0  0  0  0  2  0  0  0  0  0  0
   -1.3030   -2.2231    2.4358 C   0  0  0  0  0  0  0  0  0  0  0  0
   -1.3190   -3.0174    1.6585 H   0  0  0  0  0  0  0  0  0  0  0  0
   -2.1667   -2.3932    3.1197 H   0  0  0  0  0  0  0  0  0  0  0  0
   -0.0009   -2.3115    3.2455 C   0  0  0  0  0  0  0  0  0  0  0  0
   -0.0011   -3.2868    3.7747 H   0  0  0  0  0  0  0  0  0  0  0  0
   -0.0009   -1.5215    4.0281 H   0  0  0  0  0  0  0  0  0  0  0  0
    1.6670    1.5115    0.4429 N   0  0  0  0  0  2  0  0  0  0  0  0
    1.8652    2.6684   -0.2047 C   0  0  0  0  0  3  0  0  0  0  0  0
    1.2192    2.8449   -1.0807 H   0  0  0  0  0  0  0  0  0  0  0  0
    2.8605    3.5920    0.1650 C   0  0  0  0  0  0  0  0  0  0  0  0
    2.9789    4.5244   -0.4054 H   0  0  0  0  0  0  0  0  0  0  0  0
    3.6893    3.2909    1.2515 C   0  0  0  0  0  0  0  0  0  0  0  0
    4.4805    3.9865    1.5689 H   0  0  0  0  0  0  0  0  0  0  0  0
    3.5017    2.0725    1.9183 C   0  0  0  0  0  0  0  0  0  0  0  0
    4.1431    1.7814    2.7634 H   0  0  0  0  0  0  0  0  0  0  0  0
    2.4834    1.2048    1.4808 C   0  0  0  0  0  0  0  0  0  0  0  0
    2.3029   -0.1006    2.1383 C   0  0  0  0  0  3  0  0  0  0  0  0
    2.9860   -0.3256    2.9896 H   0  0  0  0  0  0  0  0  0  0  0  0
    1.4252   -0.9510    1.7437 N   0  0  0  0  0  2  0  0  0  0  0  0
    1.3014   -2.2234    2.4361 C   0  0  0  0  0  0  0  0  0  0  0  0
    1.3174   -3.0176    1.6587 H   0  0  0  0  0  0  0  0  0  0  0  0
    2.1650   -2.3938    3.1202 H   0  0  0  0  0  0  0  0  0  0  0  0
  1 10  1  0  0  0  0
  2  4  1  0  0  0  0
  2  1  1  0  0  0  0
  3  2  1  0  0  0  0
  4  6  2  0  0  0  0
  5  4  1  0  0  0  0
  6  7  1  0  0  0  0
  6  8  1  0  0  0  0
  8  9  1  0  0  0  0
 10  8  2  0  0  0  0
 10 11  1  0  0  0  0
 11 12  1  0  0  0  0
 13 11  1  0  0  0  0
 13 14  1  0  0  0  0
 14 16  1  0  0  0  0
 14 17  1  0  0  0  0
 15 14  1  0  0  0  0
 17 18  1  0  0  0  0
 17 19  1  0  0  0  0
 20 29  1  0  0  0  0
 21 23  1  0  0  0  0
 21 20  1  0  0  0  0
 22 21  1  0  0  0  0
 23 25  2  0  0  0  0
 24 23  1  0  0  0  0
 25 26  1  0  0  0  0
 25 27  1  0  0  0  0
 27 28  1  0  0  0  0
 29 27  2  0  0  0  0
 29 30  1  0  0  0  0
 30 31  1  0  0  0  0
 32 30  1  0  0  0  0
 32 33  1  0  0  0  0
 33 35  1  0  0  0  0
 33 17  1  0  0  0  0
 34 33  1  0  0  0  0
M  END
