1,2,3,4
 OpenBabel05122313063D

 48 50  0  0  1  0  0  0  0  0999 V2000
    2.2945   -0.7510   -0.3490 N   0  0  0  0  0  2  0  0  0  0  0  0
    1.1470    1.1920   -0.5281 N   0  0  0  0  0  2  0  0  0  0  0  0
   -1.1469    1.1922    0.5277 N   0  0  0  0  0  2  0  0  0  0  0  0
   -2.2945   -0.7508    0.3491 N   0  0  0  0  0  2  0  0  0  0  0  0
    3.9037    1.3302    0.0034 S   0  0  0  0  0  0  0  0  0  0  0  0
   -3.9037    1.3303   -0.0037 S   0  0  0  0  0  0  0  0  0  0  0  0
    3.6473   -2.7092    0.3379 C   0  0  0  0  0  0  0  0  0  0  0  0
    3.3520   -2.6035    1.3995 H   0  0  0  0  0  0  0  0  0  0  0  0
    4.6605   -3.1562    0.2965 H   0  0  0  0  0  0  0  0  0  0  0  0
    2.9411   -3.4118   -0.1474 H   0  0  0  0  0  0  0  0  0  0  0  0
    4.0560   -1.5307   -1.8535 C   0  0  0  0  0  0  0  0  0  0  0  0
    3.3311   -2.1793   -2.3823 H   0  0  0  0  0  0  0  0  0  0  0  0
    5.0615   -1.9936   -1.9245 H   0  0  0  0  0  0  0  0  0  0  0  0
    4.0799   -0.5498   -2.3689 H   0  0  0  0  0  0  0  0  0  0  0  0
    3.6275   -1.3572   -0.3828 C   0  0  0  0  0  0  0  0  0  0  0  0
    4.5702   -0.3474    0.3443 C   0  0  0  0  0  0  0  0  0  0  0  0
    5.6132   -0.4075   -0.0217 H   0  0  0  0  0  0  0  0  0  0  0  0
    4.5613   -0.5092    1.4412 H   0  0  0  0  0  0  0  0  0  0  0  0
    2.3110    0.5791   -0.3268 C   0  0  1  0  0  3  0  0  0  0  0  0
    0.7710    2.4898    0.0049 C   0  0  1  0  0  0  0  0  0  0  0  0
    1.0912    2.5639    1.0751 H   0  0  0  0  0  0  0  0  0  0  0  0
    1.3100    3.7222   -0.7277 C   0  0  0  0  0  0  0  0  0  0  0  0
    2.4203    3.7210   -0.7207 H   0  0  0  0  0  0  0  0  0  0  0  0
    0.9951    3.6744   -1.7931 H   0  0  0  0  0  0  0  0  0  0  0  0
    0.7673    4.9932   -0.0533 C   0  0  0  0  0  0  0  0  0  0  0  0
    1.1116    5.8940   -0.6023 H   0  0  0  0  0  0  0  0  0  0  0  0
    1.2013    5.0680    0.9687 H   0  0  0  0  0  0  0  0  0  0  0  0
   -0.7670    4.9933    0.0523 C   0  0  0  0  0  0  0  0  0  0  0  0
   -1.2011    5.0679   -0.9697 H   0  0  0  0  0  0  0  0  0  0  0  0
   -1.1114    5.8941    0.6012 H   0  0  0  0  0  0  0  0  0  0  0  0
   -1.3098    3.7224    0.7269 C   0  0  0  0  0  0  0  0  0  0  0  0
   -0.9950    3.6747    1.7923 H   0  0  0  0  0  0  0  0  0  0  0  0
   -2.4201    3.7213    0.7199 H   0  0  0  0  0  0  0  0  0  0  0  0
   -0.7708    2.4898   -0.0055 C   0  0  2  0  0  0  0  0  0  0  0  0
   -1.0911    2.5638   -1.0757 H   0  0  0  0  0  0  0  0  0  0  0  0
   -2.3109    0.5793    0.3265 C   0  0  2  0  0  3  0  0  0  0  0  0
   -4.5703   -0.3474   -0.3440 C   0  0  0  0  0  0  0  0  0  0  0  0
   -5.6133   -0.4073    0.0221 H   0  0  0  0  0  0  0  0  0  0  0  0
   -4.5616   -0.5095   -1.4408 H   0  0  0  0  0  0  0  0  0  0  0  0
   -3.6276   -1.3569    0.3833 C   0  0  0  0  0  0  0  0  0  0  0  0
   -3.6476   -2.7092   -0.3369 C   0  0  0  0  0  0  0  0  0  0  0  0
   -3.3525   -2.6039   -1.3987 H   0  0  0  0  0  0  0  0  0  0  0  0
   -4.6608   -3.1561   -0.2953 H   0  0  0  0  0  0  0  0  0  0  0  0
   -2.9414   -3.4118    0.1484 H   0  0  0  0  0  0  0  0  0  0  0  0
   -4.0559   -1.5300    1.8541 C   0  0  0  0  0  0  0  0  0  0  0  0
   -3.3309   -2.1784    2.3830 H   0  0  0  0  0  0  0  0  0  0  0  0
   -5.0614   -1.9928    1.9254 H   0  0  0  0  0  0  0  0  0  0  0  0
   -4.0797   -0.5490    2.3691 H   0  0  0  0  0  0  0  0  0  0  0  0
  1 19  1  0  0  0  0
  2 20  1  0  0  0  0
  4 40  1  0  0  0  0
  5 16  1  0  0  0  0
  6 36  1  0  0  0  0
  7  8  1  0  0  0  0
  9  7  1  0  0  0  0
 10  7  1  0  0  0  0
 11 15  1  0  0  0  0
 12 11  1  0  0  0  0
 13 11  1  0  0  0  0
 14 11  1  0  0  0  0
 15  1  1  0  0  0  0
 15  7  1  0  0  0  0
 15 16  1  0  0  0  0
 16 18  1  0  0  0  0
 17 16  1  0  0  0  0
 19  2  1  1  0  0  0
 19  5  1  0  0  0  0
 20 21  1  1  0  0  0
 22 23  1  0  0  0  0
 22 25  1  0  0  0  0
 22 20  1  0  0  0  0
 24 22  1  0  0  0  0
 25 28  1  0  0  0  0
 25 27  1  0  0  0  0
 26 25  1  0  0  0  0
 28 30  1  0  0  0  0
 28 31  1  0  0  0  0
 29 28  1  0  0  0  0
 31 32  1  0  0  0  0
 33 31  1  0  0  0  0
 34 35  1  6  0  0  0
 34 20  1  0  0  0  0
 34  3  1  0  0  0  0
 34 31  1  0  0  0  0
 36  4  1  0  0  0  0
 36  3  1  6  0  0  0
 37  6  1  0  0  0  0
 37 38  1  0  0  0  0
 37 40  1  0  0  0  0
 39 37  1  0  0  0  0
 40 45  1  0  0  0  0
 41 43  1  0  0  0  0
 41 44  1  0  0  0  0
 41 40  1  0  0  0  0
 42 41  1  0  0  0  0
 45 47  1  0  0  0  0
 45 48  1  0  0  0  0
 45 46  1  0  0  0  0
M  END
