1,2,37,38
 OpenBabel05122313063D

 72 76  0  0  0  0  0  0  0  0999 V2000
   -1.9080   -0.1206    0.0157 N   0  0  0  0  0  2  0  0  0  0  0  0
   -0.0476   -1.8881    0.3031 N   0  0  0  0  0  2  0  0  0  0  0  0
   -3.0408    0.6552   -0.1167 C   0  0  0  0  0  0  0  0  0  0  0  0
   -4.2291   -0.1957    0.0183 C   0  0  0  0  0  0  0  0  0  0  0  0
   -3.7742   -1.4832    0.2317 C   0  0  0  0  0  0  0  0  0  0  0  0
   -2.3451   -1.4105    0.2244 C   0  0  0  0  0  0  0  0  0  0  0  0
   -1.3379   -2.3685    0.3777 C   0  0  0  0  0  0  0  0  0  0  0  0
   -1.3542   -3.7812    0.5988 C   0  0  0  0  0  0  0  0  0  0  0  0
   -0.0326   -4.1818    0.6644 C   0  0  0  0  0  0  0  0  0  0  0  0
    0.7825   -2.9759    0.4771 C   0  0  0  0  0  0  0  0  0  0  0  0
    2.1874   -3.0271    0.5031 C   0  0  0  0  0  0  0  0  0  0  0  0
   -3.1512    2.0369   -0.3483 C   0  0  0  0  0  0  0  0  0  0  0  0
   -5.6509    0.2782   -0.0653 C   0  0  0  0  0  0  0  0  0  0  0  0
   -6.7050   -0.8189    0.1110 C   0  0  0  0  0  0  0  0  0  0  0  0
   -8.1358   -0.2887    0.0180 C   0  0  0  0  0  0  0  0  0  0  0  0
    0.4835   -5.5821    0.8204 C   0  0  0  0  0  0  0  0  0  0  0  0
    0.9166   -6.2454   -0.5074 C   0  0  0  0  0  0  0  0  0  0  0  0
   -0.2229   -6.4151   -1.5110 C   0  0  0  0  0  0  0  0  0  0  0  0
   -4.3647   -2.3939    0.3788 H   0  0  0  0  0  0  0  0  0  0  0  0
   -2.2483   -4.4084    0.6942 H   0  0  0  0  0  0  0  0  0  0  0  0
    2.5870   -4.0366    0.6815 H   0  0  0  0  0  0  0  0  0  0  0  0
   -4.1910    2.3899   -0.4190 H   0  0  0  0  0  0  0  0  0  0  0  0
   -5.8204    1.0720    0.6979 H   0  0  0  0  0  0  0  0  0  0  0  0
   -5.8135    0.7851   -1.0441 H   0  0  0  0  0  0  0  0  0  0  0  0
   -6.5510   -1.3174    1.0925 H   0  0  0  0  0  0  0  0  0  0  0  0
   -6.5440   -1.6054   -0.6578 H   0  0  0  0  0  0  0  0  0  0  0  0
   -8.3342    0.4770    0.7969 H   0  0  0  0  0  0  0  0  0  0  0  0
   -8.3272    0.1868   -0.9667 H   0  0  0  0  0  0  0  0  0  0  0  0
   -8.8812   -1.0985    0.1483 H   0  0  0  0  0  0  0  0  0  0  0  0
   -0.3116   -6.2008    1.2885 H   0  0  0  0  0  0  0  0  0  0  0  0
    1.3394   -5.5970    1.5284 H   0  0  0  0  0  0  0  0  0  0  0  0
    1.3631   -7.2356   -0.2716 H   0  0  0  0  0  0  0  0  0  0  0  0
    1.7298   -5.6412   -0.9646 H   0  0  0  0  0  0  0  0  0  0  0  0
   -1.0365   -7.0455   -1.0936 H   0  0  0  0  0  0  0  0  0  0  0  0
   -0.6691   -5.4371   -1.7839 H   0  0  0  0  0  0  0  0  0  0  0  0
    0.1295   -6.8981   -2.4444 H   0  0  0  0  0  0  0  0  0  0  0  0
    1.9080    0.1206   -0.0157 N   0  0  0  0  0  2  0  0  0  0  0  0
    0.0476    1.8881   -0.3031 N   0  0  0  0  0  2  0  0  0  0  0  0
    3.1512   -2.0369    0.3483 C   0  0  0  0  0  0  0  0  0  0  0  0
   -2.1874    3.0271   -0.5031 C   0  0  0  0  0  0  0  0  0  0  0  0
    3.0408   -0.6552    0.1167 C   0  0  0  0  0  0  0  0  0  0  0  0
    2.3451    1.4105   -0.2244 C   0  0  0  0  0  0  0  0  0  0  0  0
    1.3379    2.3685   -0.3777 C   0  0  0  0  0  0  0  0  0  0  0  0
   -0.7825    2.9759   -0.4771 C   0  0  0  0  0  0  0  0  0  0  0  0
    4.1910   -2.3899    0.4190 H   0  0  0  0  0  0  0  0  0  0  0  0
   -2.5870    4.0366   -0.6815 H   0  0  0  0  0  0  0  0  0  0  0  0
    4.2291    0.1957   -0.0183 C   0  0  0  0  0  0  0  0  0  0  0  0
    3.7742    1.4832   -0.2317 C   0  0  0  0  0  0  0  0  0  0  0  0
    1.3542    3.7812   -0.5988 C   0  0  0  0  0  0  0  0  0  0  0  0
    0.0326    4.1818   -0.6644 C   0  0  0  0  0  0  0  0  0  0  0  0
    5.6509   -0.2782    0.0653 C   0  0  0  0  0  0  0  0  0  0  0  0
    4.3647    2.3939   -0.3788 H   0  0  0  0  0  0  0  0  0  0  0  0
    2.2483    4.4084   -0.6942 H   0  0  0  0  0  0  0  0  0  0  0  0
   -0.4835    5.5821   -0.8204 C   0  0  0  0  0  0  0  0  0  0  0  0
    6.7050    0.8189   -0.1110 C   0  0  0  0  0  0  0  0  0  0  0  0
    5.8204   -1.0720   -0.6979 H   0  0  0  0  0  0  0  0  0  0  0  0
    5.8135   -0.7851    1.0441 H   0  0  0  0  0  0  0  0  0  0  0  0
   -0.9166    6.2454    0.5074 C   0  0  0  0  0  0  0  0  0  0  0  0
    0.3116    6.2008   -1.2885 H   0  0  0  0  0  0  0  0  0  0  0  0
   -1.3394    5.5970   -1.5284 H   0  0  0  0  0  0  0  0  0  0  0  0
    8.1358    0.2887   -0.0180 C   0  0  0  0  0  0  0  0  0  0  0  0
    6.5510    1.3174   -1.0925 H   0  0  0  0  0  0  0  0  0  0  0  0
    6.5440    1.6054    0.6578 H   0  0  0  0  0  0  0  0  0  0  0  0
    0.2229    6.4151    1.5110 C   0  0  0  0  0  0  0  0  0  0  0  0
   -1.3631    7.2356    0.2716 H   0  0  0  0  0  0  0  0  0  0  0  0
   -1.7298    5.6412    0.9646 H   0  0  0  0  0  0  0  0  0  0  0  0
    8.3342   -0.4770   -0.7969 H   0  0  0  0  0  0  0  0  0  0  0  0
    8.3272   -0.1868    0.9667 H   0  0  0  0  0  0  0  0  0  0  0  0
    8.8812    1.0985   -0.1483 H   0  0  0  0  0  0  0  0  0  0  0  0
    1.0365    7.0455    1.0936 H   0  0  0  0  0  0  0  0  0  0  0  0
    0.6691    5.4371    1.7839 H   0  0  0  0  0  0  0  0  0  0  0  0
   -0.1295    6.8981    2.4444 H   0  0  0  0  0  0  0  0  0  0  0  0
  1  6  1  0  0  0  0
  2  7  1  0  0  0  0
  2 10  1  0  0  0  0
  3  1  1  0  0  0  0
  3  4  1  0  0  0  0
  4  5  2  0  0  0  0
  5 19  1  0  0  0  0
  6  5  1  0  0  0  0
  6  7  2  0  0  0  0
  7  8  1  0  0  0  0
  8  9  2  0  0  0  0
  8 20  1  0  0  0  0
  9 16  1  0  0  0  0
 10 11  2  0  0  0  0
 10  9  1  0  0  0  0
 11 21  1  0  0  0  0
 12  3  2  0  0  0  0
 13  4  1  0  0  0  0
 13 14  1  0  0  0  0
 13 23  1  0  0  0  0
 14 25  1  0  0  0  0
 15 14  1  0  0  0  0
 15 29  1  0  0  0  0
 15 27  1  0  0  0  0
 16 30  1  0  0  0  0
 16 31  1  0  0  0  0
 17 32  1  0  0  0  0
 17 16  1  0  0  0  0
 18 34  1  0  0  0  0
 18 17  1  0  0  0  0
 22 12  1  0  0  0  0
 24 13  1  0  0  0  0
 26 14  1  0  0  0  0
 28 15  1  0  0  0  0
 33 17  1  0  0  0  0
 35 18  1  0  0  0  0
 36 18  1  0  0  0  0
 37 41  1  0  0  0  0
 39 45  1  0  0  0  0
 39 11  1  0  0  0  0
 40 44  2  0  0  0  0
 40 12  1  0  0  0  0
 41 39  2  0  0  0  0
 42 37  1  0  0  0  0
 43 38  1  0  0  0  0
 43 42  2  0  0  0  0
 44 38  1  0  0  0  0
 46 40  1  0  0  0  0
 47 51  1  0  0  0  0
 47 41  1  0  0  0  0
 48 42  1  0  0  0  0
 48 47  2  0  0  0  0
 49 43  1  0  0  0  0
 50 49  2  0  0  0  0
 50 44  1  0  0  0  0
 51 57  1  0  0  0  0
 52 48  1  0  0  0  0
 53 49  1  0  0  0  0
 54 50  1  0  0  0  0
 54 58  1  0  0  0  0
 55 61  1  0  0  0  0
 55 51  1  0  0  0  0
 55 63  1  0  0  0  0
 56 51  1  0  0  0  0
 58 66  1  0  0  0  0
 58 64  1  0  0  0  0
 59 54  1  0  0  0  0
 60 54  1  0  0  0  0
 61 68  1  0  0  0  0
 62 55  1  0  0  0  0
 64 71  1  0  0  0  0
 64 72  1  0  0  0  0
 65 58  1  0  0  0  0
 67 61  1  0  0  0  0
 69 61  1  0  0  0  0
 70 64  1  0  0  0  0
M  END
