1,2,3,4
 OpenBabel05122313063D

 52 54  0  0  1  0  0  0  0  0999 V2000
   -2.1110   -1.0164   -0.1320 N   0  0  0  0  0  2  0  0  0  0  0  0
   -0.4965    0.7181    1.3456 N   0  0  0  0  0  0  0  0  0  0  0  0
    0.4961    0.7183   -1.3453 N   0  0  0  0  0  0  0  0  0  0  0  0
    2.1116   -1.0154    0.1321 N   0  0  0  0  0  2  0  0  0  0  0  0
   -2.8509   -1.5920   -1.1188 C   0  0  0  0  0  3  0  0  0  0  0  0
   -2.2792   -2.1988   -1.8373 H   0  0  0  0  0  0  0  0  0  0  0  0
   -4.2312   -1.4208   -1.2013 C   0  0  0  0  0  0  0  0  0  0  0  0
   -4.7881   -1.9175   -2.0081 H   0  0  0  0  0  0  0  0  0  0  0  0
   -4.8826   -0.6159   -0.2512 C   0  0  0  0  0  0  0  0  0  0  0  0
   -5.9692   -0.4552   -0.2981 H   0  0  0  0  0  0  0  0  0  0  0  0
   -4.1154   -0.0118    0.7554 C   0  0  0  0  0  0  0  0  0  0  0  0
   -4.5836    0.6331    1.5130 H   0  0  0  0  0  0  0  0  0  0  0  0
   -2.7340   -0.2307    0.8024 C   0  0  0  0  0  0  0  0  0  0  0  0
   -1.8488    0.3477    1.8765 C   0  0  0  0  0  0  0  0  0  0  0  0
   -2.3409    1.2181    2.3599 H   0  0  0  0  0  0  0  0  0  0  0  0
   -1.6774   -0.4203    2.6567 H   0  0  0  0  0  0  0  0  0  0  0  0
   -0.5725    1.9690    0.5137 C   0  0  1  0  0  0  0  0  0  0  0  0
   -1.5287    1.8963   -0.0494 H   0  0  0  0  0  0  0  0  0  0  0  0
   -0.6045    3.2654    1.3420 C   0  0  0  0  0  0  0  0  0  0  0  0
   -1.4823    3.2566    2.0205 H   0  0  0  0  0  0  0  0  0  0  0  0
    0.2955    3.3118    1.9889 H   0  0  0  0  0  0  0  0  0  0  0  0
   -0.6133    4.5164    0.4591 C   0  0  0  0  0  0  0  0  0  0  0  0
   -1.5411    4.5481   -0.1536 H   0  0  0  0  0  0  0  0  0  0  0  0
   -0.6296    5.4212    1.0987 H   0  0  0  0  0  0  0  0  0  0  0  0
    0.6104    4.5167   -0.4593 C   0  0  0  0  0  0  0  0  0  0  0  0
    1.5382    4.5492    0.1534 H   0  0  0  0  0  0  0  0  0  0  0  0
    0.6261    5.4214   -1.0990 H   0  0  0  0  0  0  0  0  0  0  0  0
    0.6024    3.2656   -1.3420 C   0  0  0  0  0  0  0  0  0  0  0  0
    1.4803    3.2572   -2.0205 H   0  0  0  0  0  0  0  0  0  0  0  0
   -0.2975    3.3112   -1.9888 H   0  0  0  0  0  0  0  0  0  0  0  0
    0.5713    1.9693   -0.5134 C   0  0  2  0  0  0  0  0  0  0  0  0
    1.5277    1.8973    0.0496 H   0  0  0  0  0  0  0  0  0  0  0  0
    1.8486    0.3488   -1.8762 C   0  0  0  0  0  0  0  0  0  0  0  0
    2.3402    1.2197   -2.3595 H   0  0  0  0  0  0  0  0  0  0  0  0
    1.6776   -0.4190   -2.6567 H   0  0  0  0  0  0  0  0  0  0  0  0
    2.7341   -0.2293   -0.8023 C   0  0  2  0  0  3  0  0  0  0  0  0
    2.8519   -1.5909    1.1186 C   0  0  0  0  0  0  0  0  0  0  0  0
    2.2804   -2.1981    1.8372 H   0  0  0  0  0  0  0  0  0  0  0  0
    4.1155   -0.0099   -0.7555 C   0  0  0  0  0  0  0  0  0  0  0  0
    4.5834    0.6353   -1.5131 H   0  0  0  0  0  0  0  0  0  0  0  0
    4.8830   -0.6139    0.2509 C   0  0  0  0  0  0  0  0  0  0  0  0
    5.9696   -0.4529    0.2977 H   0  0  0  0  0  0  0  0  0  0  0  0
    4.2321   -1.4192    1.2009 C   0  0  0  0  0  0  0  0  0  0  0  0
    4.7893   -1.9159    2.0076 H   0  0  0  0  0  0  0  0  0  0  0  0
    0.4583    0.8210    2.4787 C   0  0  0  0  0  0  0  0  0  0  0  0
    1.4474    1.1499    2.1102 H   0  0  0  0  0  0  0  0  0  0  0  0
    0.5676   -0.1834    2.9229 H   0  0  0  0  0  0  0  0  0  0  0  0
    0.1048    1.5296    3.2551 H   0  0  0  0  0  0  0  0  0  0  0  0
   -0.4588    0.8207   -2.4783 C   0  0  0  0  0  0  0  0  0  0  0  0
   -1.4480    1.1491   -2.1097 H   0  0  0  0  0  0  0  0  0  0  0  0
   -0.5676   -0.1837   -2.9226 H   0  0  0  0  0  0  0  0  0  0  0  0
   -0.1058    1.5296   -3.2547 H   0  0  0  0  0  0  0  0  0  0  0  0
  1 13  1  0  0  0  0
  2 14  1  0  0  0  0
  2 45  1  0  0  0  0
  3 31  1  0  0  0  0
  4 37  1  0  0  0  0
  5  1  1  0  0  0  0
  6  5  1  0  0  0  0
  7  5  1  0  0  0  0
  7  9  2  0  0  0  0
  8  7  1  0  0  0  0
  9 11  1  0  0  0  0
 10  9  1  0  0  0  0
 11 13  2  0  0  0  0
 11 12  1  0  0  0  0
 13 14  1  0  0  0  0
 14 15  1  0  0  0  0
 14 16  1  0  0  0  0
 17 18  1  6  0  0  0
 17 19  1  0  0  0  0
 17  2  1  0  0  0  0
 19 21  1  0  0  0  0
 19 20  1  0  0  0  0
 22 24  1  0  0  0  0
 22 19  1  0  0  0  0
 23 22  1  0  0  0  0
 25 26  1  0  0  0  0
 25 22  1  0  0  0  0
 27 25  1  0  0  0  0
 28 31  1  0  0  0  0
 28 25  1  0  0  0  0
 29 28  1  0  0  0  0
 30 28  1  0  0  0  0
 31 32  1  1  0  0  0
 31 17  1  0  0  0  0
 33  3  1  0  0  0  0
 34 33  1  0  0  0  0
 35 33  1  0  0  0  0
 36 33  1  6  0  0  0
 36 39  1  0  0  0  0
 36  4  1  0  0  0  0
 37 43  2  0  0  0  0
 37 38  1  0  0  0  0
 39 41  2  0  0  0  0
 40 39  1  0  0  0  0
 41 42  1  0  0  0  0
 41 43  1  0  0  0  0
 43 44  1  0  0  0  0
 45 47  1  0  0  0  0
 45 48  1  0  0  0  0
 46 45  1  0  0  0  0
 49 50  1  0  0  0  0
 49  3  1  0  0  0  0
 51 49  1  0  0  0  0
 52 49  1  0  0  0  0
M  END
