1,4,7,10
 OpenBabel05122313063D

 32 32  0  0  0  0  0  0  0  0999 V2000
   -0.3927    1.8059    0.0199 N   0  0  0  0  0  0  0  0  0  0  0  0
    0.4705    2.6527   -0.8599 C   0  0  0  0  0  0  0  0  0  0  0  0
    1.2258    1.7688   -1.8429 C   0  0  0  0  0  0  0  0  0  0  0  0
    1.7540    0.6152   -1.0682 N   0  0  0  0  0  0  0  0  0  0  0  0
    2.2411   -0.5366   -1.8702 C   0  0  0  0  0  0  0  0  0  0  0  0
    2.3743   -1.7136   -0.9152 C   0  0  0  0  0  0  0  0  0  0  0  0
    1.1441   -1.8079   -0.0620 N   0  0  0  0  0  0  0  0  0  0  0  0
    1.4357   -2.1228    1.3648 C   0  0  0  0  0  0  0  0  0  0  0  0
    1.8620   -0.8310    2.0768 C   0  0  0  0  0  0  0  0  0  0  0  0
    0.7943    0.1395    1.7975 N   0  0  0  0  0  0  0  0  0  0  0  0
    0.8795    1.5723    2.1140 C   0  0  0  0  0  0  0  0  0  0  0  0
   -0.3543    2.2019    1.4529 C   0  0  0  0  0  0  0  0  0  0  0  0
   -1.3785    1.7555   -0.3075 H   0  0  0  0  0  0  0  0  0  0  0  0
   -0.1346    3.4134   -1.3931 H   0  0  0  0  0  0  0  0  0  0  0  0
    1.1803    3.2092   -0.2122 H   0  0  0  0  0  0  0  0  0  0  0  0
    0.5217    1.3346   -2.5775 H   0  0  0  0  0  0  0  0  0  0  0  0
    2.0350    2.3232   -2.3636 H   0  0  0  0  0  0  0  0  0  0  0  0
    2.5043    0.9384   -0.4356 H   0  0  0  0  0  0  0  0  0  0  0  0
    3.1984   -0.3108   -2.3860 H   0  0  0  0  0  0  0  0  0  0  0  0
    1.4390   -0.7401   -2.6053 H   0  0  0  0  0  0  0  0  0  0  0  0
    2.5457   -2.6604   -1.4659 H   0  0  0  0  0  0  0  0  0  0  0  0
    3.2458   -1.5756   -0.2420 H   0  0  0  0  0  0  0  0  0  0  0  0
    0.4799   -2.4851   -0.4650 H   0  0  0  0  0  0  0  0  0  0  0  0
    2.2049   -2.9179    1.4627 H   0  0  0  0  0  0  0  0  0  0  0  0
    0.4958   -2.4987    1.8152 H   0  0  0  0  0  0  0  0  0  0  0  0
    2.0106   -1.0114    3.1639 H   0  0  0  0  0  0  0  0  0  0  0  0
    2.8244   -0.4422    1.6806 H   0  0  0  0  0  0  0  0  0  0  0  0
   -0.0992   -0.2282    2.1802 H   0  0  0  0  0  0  0  0  0  0  0  0
    1.8230    1.9857    1.6967 H   0  0  0  0  0  0  0  0  0  0  0  0
    0.8938    1.7745    3.2073 H   0  0  0  0  0  0  0  0  0  0  0  0
   -1.2760    1.8045    1.9221 H   0  0  0  0  0  0  0  0  0  0  0  0
   -0.3645    3.3058    1.5743 H   0  0  0  0  0  0  0  0  0  0  0  0
  1 12  1  0  0  0  0
  2 15  1  0  0  0  0
  2  1  1  0  0  0  0
  3  4  1  0  0  0  0
  3  2  1  0  0  0  0
  4 18  1  0  0  0  0
  5  4  1  0  0  0  0
  5  6  1  0  0  0  0
  6 22  1  0  0  0  0
  6  7  1  0  0  0  0
  7  8  1  0  0  0  0
  8 24  1  0  0  0  0
  8 25  1  0  0  0  0
  8  9  1  0  0  0  0
  9 26  1  0  0  0  0
 10  9  1  0  0  0  0
 10 11  1  0  0  0  0
 10 28  1  0  0  0  0
 11 30  1  0  0  0  0
 12 32  1  0  0  0  0
 12 31  1  0  0  0  0
 12 11  1  0  0  0  0
 13  1  1  0  0  0  0
 14  2  1  0  0  0  0
 16  3  1  0  0  0  0
 17  3  1  0  0  0  0
 19  5  1  0  0  0  0
 20  5  1  0  0  0  0
 21  6  1  0  0  0  0
 23  7  1  0  0  0  0
 27  9  1  0  0  0  0
 29 11  1  0  0  0  0
M  END
