1,2,3,4
 OpenBabel05122313063D

 54 55  0  0  1  0  0  0  0  0999 V2000
    0.0000    1.3923   -0.1520 N   0  0  0  0  0  2  0  0  0  0  0  0
   -1.9722   -0.0689    0.6174 N   0  0  0  0  0  0  0  0  0  0  0  0
   -0.0000   -1.7969   -1.3753 N   0  0  0  0  0  0  0  0  0  0  0  0
    1.9722   -0.0690    0.6174 N   0  0  0  0  0  0  0  0  0  0  0  0
    1.1862    2.0351   -0.3231 C   0  0  2  0  0  3  0  0  0  0  0  0
    1.2150    3.4083   -0.5794 C   0  0  0  0  0  0  0  0  0  0  0  0
    0.0001    4.1068   -0.6885 C   0  0  0  0  0  0  0  0  0  0  0  0
   -1.2149    3.4084   -0.5794 C   0  0  0  0  0  0  0  0  0  0  0  0
   -1.1861    2.0351   -0.3231 C   0  0  0  0  0  0  0  0  0  0  0  0
   -2.3513    1.0794   -0.2991 C   0  0  2  0  0  0  0  0  0  0  0  0
   -2.7624   -1.2994    0.3079 C   0  0  0  0  0  0  0  0  0  0  0  0
   -2.5296   -1.9286   -1.0655 C   0  0  0  0  0  0  0  0  0  0  0  0
   -1.1982   -2.6549   -1.2648 C   0  0  0  0  0  0  0  0  0  0  0  0
    1.1981   -2.6549   -1.2648 C   0  0  0  0  0  0  0  0  0  0  0  0
    2.5295   -1.9287   -1.0655 C   0  0  0  0  0  0  0  0  0  0  0  0
    2.7624   -1.2995    0.3079 C   0  0  0  0  0  0  0  0  0  0  0  0
    2.3513    1.0794   -0.2991 C   0  0  1  0  0  0  0  0  0  0  0  0
    3.7109    1.7226   -0.0340 C   0  0  0  0  0  0  0  0  0  0  0  0
   -3.7108    1.7228   -0.0340 C   0  0  0  0  0  0  0  0  0  0  0  0
   -2.1853    0.3093    2.0406 C   0  0  0  0  0  0  0  0  0  0  0  0
   -0.0000   -1.0473   -2.6336 C   0  0  0  0  0  0  0  0  0  0  0  0
    2.1853    0.3092    2.0406 C   0  0  0  0  0  0  0  0  0  0  0  0
    2.1752    3.9281   -0.6983 H   0  0  0  0  0  0  0  0  0  0  0  0
    0.0001    5.1900   -0.8756 H   0  0  0  0  0  0  0  0  0  0  0  0
   -2.1750    3.9281   -0.6983 H   0  0  0  0  0  0  0  0  0  0  0  0
   -2.3791    0.6280   -1.3141 H   0  0  0  0  0  0  0  0  0  0  0  0
   -3.8403   -1.0519    0.4267 H   0  0  0  0  0  0  0  0  0  0  0  0
   -2.4989   -2.0278    1.0986 H   0  0  0  0  0  0  0  0  0  0  0  0
   -3.3242   -2.6945   -1.1811 H   0  0  0  0  0  0  0  0  0  0  0  0
   -2.7287   -1.2091   -1.8885 H   0  0  0  0  0  0  0  0  0  0  0  0
   -1.2750   -3.3092   -2.1685 H   0  0  0  0  0  0  0  0  0  0  0  0
   -1.0338   -3.3183   -0.3928 H   0  0  0  0  0  0  0  0  0  0  0  0
    1.0336   -3.3183   -0.3928 H   0  0  0  0  0  0  0  0  0  0  0  0
    1.2749   -3.3092   -2.1685 H   0  0  0  0  0  0  0  0  0  0  0  0
    2.7286   -1.2092   -1.8885 H   0  0  0  0  0  0  0  0  0  0  0  0
    3.3241   -2.6946   -1.1811 H   0  0  0  0  0  0  0  0  0  0  0  0
    2.4988   -2.0279    1.0985 H   0  0  0  0  0  0  0  0  0  0  0  0
    3.8403   -1.0520    0.4267 H   0  0  0  0  0  0  0  0  0  0  0  0
    2.3791    0.6279   -1.3141 H   0  0  0  0  0  0  0  0  0  0  0  0
    3.9691    2.3933   -0.8761 H   0  0  0  0  0  0  0  0  0  0  0  0
    4.5158    0.9659    0.0240 H   0  0  0  0  0  0  0  0  0  0  0  0
    3.7206    2.3228    0.8955 H   0  0  0  0  0  0  0  0  0  0  0  0
   -4.5157    0.9661    0.0240 H   0  0  0  0  0  0  0  0  0  0  0  0
   -3.9690    2.3935   -0.8761 H   0  0  0  0  0  0  0  0  0  0  0  0
   -3.7205    2.3229    0.8955 H   0  0  0  0  0  0  0  0  0  0  0  0
   -1.6688    1.2647    2.2513 H   0  0  0  0  0  0  0  0  0  0  0  0
   -1.7572   -0.4843    2.6785 H   0  0  0  0  0  0  0  0  0  0  0  0
   -3.2675    0.4222    2.2599 H   0  0  0  0  0  0  0  0  0  0  0  0
   -0.8892   -0.3925   -2.6992 H   0  0  0  0  0  0  0  0  0  0  0  0
   -0.0000   -1.7207   -3.5255 H   0  0  0  0  0  0  0  0  0  0  0  0
    0.8892   -0.3925   -2.6991 H   0  0  0  0  0  0  0  0  0  0  0  0
    1.6688    1.2646    2.2513 H   0  0  0  0  0  0  0  0  0  0  0  0
    3.2675    0.4220    2.2599 H   0  0  0  0  0  0  0  0  0  0  0  0
    1.7572   -0.4844    2.6785 H   0  0  0  0  0  0  0  0  0  0  0  0
  2 20  1  0  0  0  0
  3 14  1  0  0  0  0
  3 13  1  0  0  0  0
  4 22  1  0  0  0  0
  5  6  1  6  0  0  0
  5 17  1  0  0  0  0
  5  1  1  0  0  0  0
  7  8  1  0  0  0  0
  7  6  2  0  0  0  0
  8  9  2  0  0  0  0
  9 10  1  0  0  0  0
  9  1  1  0  0  0  0
 10 26  1  6  0  0  0
 10 19  1  0  0  0  0
 10  2  1  0  0  0  0
 11 27  1  0  0  0  0
 11  2  1  0  0  0  0
 11 28  1  0  0  0  0
 12 11  1  0  0  0  0
 13 12  1  0  0  0  0
 13 32  1  0  0  0  0
 14 15  1  0  0  0  0
 14 33  1  0  0  0  0
 15 16  1  0  0  0  0
 16 38  1  0  0  0  0
 16  4  1  0  0  0  0
 16 37  1  0  0  0  0
 17 39  1  6  0  0  0
 17 18  1  0  0  0  0
 17  4  1  0  0  0  0
 18 41  1  0  0  0  0
 18 42  1  0  0  0  0
 19 43  1  0  0  0  0
 19 45  1  0  0  0  0
 20 46  1  0  0  0  0
 20 48  1  0  0  0  0
 20 47  1  0  0  0  0
 21  3  1  0  0  0  0
 22 52  1  0  0  0  0
 22 53  1  0  0  0  0
 22 54  1  0  0  0  0
 23  6  1  0  0  0  0
 24  7  1  0  0  0  0
 25  8  1  0  0  0  0
 29 12  1  0  0  0  0
 30 12  1  0  0  0  0
 31 13  1  0  0  0  0
 34 14  1  0  0  0  0
 35 15  1  0  0  0  0
 36 15  1  0  0  0  0
 40 18  1  0  0  0  0
 44 19  1  0  0  0  0
 49 21  1  0  0  0  0
 50 21  1  0  0  0  0
 51 21  1  0  0  0  0
M  END
