1,17,36
 OpenBabel05122313063D

 42 42  0  0  1  0  0  0  0  0999 V2000
   -2.2770   -0.2700   -1.3002 N   0  0  0  0  0  0  0  0  0  0  0  0
   -2.4870   -1.2795   -1.2125 H   0  0  0  0  0  0  0  0  0  0  0  0
   -2.2210   -0.0638   -2.3074 H   0  0  0  0  0  0  0  0  0  0  0  0
   -3.2790    0.5482   -0.5830 C   0  0  0  0  0  0  0  0  0  0  0  0
   -4.3133    0.1542   -0.6895 H   0  0  0  0  0  0  0  0  0  0  0  0
   -3.2853    1.5686   -1.0178 H   0  0  0  0  0  0  0  0  0  0  0  0
   -2.8916    0.5895    0.8971 C   0  0  0  0  0  0  0  0  0  0  0  0
   -3.5206    1.3212    1.4565 H   0  0  0  0  0  0  0  0  0  0  0  0
   -3.0183   -0.4227    1.3302 H   0  0  0  0  0  0  0  0  0  0  0  0
   -1.4482    0.9176    1.0017 N   0  0  0  0  0  0  0  0  0  0  0  0
   -0.8239    0.5481    2.2950 C   0  0  0  0  0  0  0  0  0  0  0  0
   -1.2437   -0.4380    2.5791 H   0  0  0  0  0  0  0  0  0  0  0  0
   -1.0494    1.2898    3.0982 H   0  0  0  0  0  0  0  0  0  0  0  0
    0.6858    0.4186    2.0980 C   0  0  0  0  0  0  0  0  0  0  0  0
    1.1186    1.3951    1.8014 H   0  0  0  0  0  0  0  0  0  0  0  0
    1.1600    0.1450    3.0663 H   0  0  0  0  0  0  0  0  0  0  0  0
    0.9771   -0.5600    1.0244 N   0  0  0  0  0  0  0  0  0  0  0  0
    0.6992   -1.5009    1.3561 H   0  0  0  0  0  0  0  0  0  0  0  0
    2.3971   -0.6167    0.5072 C   0  0  0  0  0  0  0  0  0  0  0  0
    3.4117   -0.0398    1.5098 C   0  0  0  0  0  0  0  0  0  0  0  0
    3.2987    1.0534    1.6531 H   0  0  0  0  0  0  0  0  0  0  0  0
    4.4368   -0.2170    1.1292 H   0  0  0  0  0  0  0  0  0  0  0  0
    3.3381   -0.5319    2.5009 H   0  0  0  0  0  0  0  0  0  0  0  0
    2.7037   -2.0995    0.2555 C   0  0  0  0  0  0  0  0  0  0  0  0
    3.6907   -2.2093   -0.2361 H   0  0  0  0  0  0  0  0  0  0  0  0
    1.9281   -2.5272   -0.4128 H   0  0  0  0  0  0  0  0  0  0  0  0
    2.7296   -2.6648    1.2106 H   0  0  0  0  0  0  0  0  0  0  0  0
    2.4902    0.1513   -0.8542 C   0  0  0  0  0  0  0  0  0  0  0  0
    3.5554    0.3801   -1.0538 H   0  0  0  0  0  0  0  0  0  0  0  0
    2.1185   -0.5472   -1.6379 H   0  0  0  0  0  0  0  0  0  0  0  0
    1.6547    1.3946   -0.9627 C   0  0  2  0  0  3  0  0  0  0  0  0
    2.3192    2.7374   -1.1398 C   0  0  0  0  0  0  0  0  0  0  0  0
    2.3784    3.3162   -0.1882 H   0  0  0  0  0  0  0  0  0  0  0  0
    1.7997    3.3840   -1.8767 H   0  0  0  0  0  0  0  0  0  0  0  0
    3.3593    2.6023   -1.4919 H   0  0  0  0  0  0  0  0  0  0  0  0
    0.3460    1.2292   -0.8686 N   0  0  0  0  0  2  0  0  0  0  0  0
   -0.5554    2.3763   -0.7937 C   0  0  0  0  0  0  0  0  0  0  0  0
   -1.3327    2.2714   -1.5772 H   0  0  0  0  0  0  0  0  0  0  0  0
   -0.0607    3.3573   -0.9564 H   0  0  0  0  0  0  0  0  0  0  0  0
   -1.1677    2.3343    0.6113 C   0  0  0  0  0  0  0  0  0  0  0  0
   -0.4428    2.7641    1.3311 H   0  0  0  0  0  0  0  0  0  0  0  0
   -2.0913    2.9482    0.6838 H   0  0  0  0  0  0  0  0  0  0  0  0
  1  2  1  0  0  0  0
  1  4  1  0  0  0  0
  3  1  1  0  0  0  0
  4  7  1  0  0  0  0
  5  4  1  0  0  0  0
  6  4  1  0  0  0  0
  7 10  1  0  0  0  0
  7  9  1  0  0  0  0
  7  8  1  0  0  0  0
 10 11  1  0  0  0  0
 11 12  1  0  0  0  0
 11 13  1  0  0  0  0
 14 11  1  0  0  0  0
 14 16  1  0  0  0  0
 15 14  1  0  0  0  0
 17 18  1  0  0  0  0
 17 14  1  0  0  0  0
 19 17  1  0  0  0  0
 19 20  1  0  0  0  0
 20 21  1  0  0  0  0
 20 23  1  0  0  0  0
 22 20  1  0  0  0  0
 24 19  1  0  0  0  0
 24 27  1  0  0  0  0
 25 24  1  0  0  0  0
 26 24  1  0  0  0  0
 28 19  1  0  0  0  0
 29 28  1  0  0  0  0
 30 28  1  0  0  0  0
 31 32  1  1  0  0  0
 31 36  1  0  0  0  0
 31 28  1  0  0  0  0
 32 33  1  0  0  0  0
 34 32  1  0  0  0  0
 35 32  1  0  0  0  0
 36 37  1  0  0  0  0
 37 40  1  0  0  0  0
 38 37  1  0  0  0  0
 39 37  1  0  0  0  0
 40 42  1  0  0  0  0
 40 10  1  0  0  0  0
 40 41  1  0  0  0  0
M  END
