1,2,26,27
 OpenBabel05122313063D

 50 50  0  0  0  0  0  0  0  0999 V2000
    2.2310   -0.5478   -0.2781 N   0  0  0  0  0  0  0  0  0  0  0  0
   -0.6561   -1.6710   -0.2291 N   0  0  0  0  0  2  0  0  0  0  0  0
    2.5235   -1.9897   -0.4783 C   0  0  0  0  0  0  0  0  0  0  0  0
    2.8066   -2.3915    0.5166 H   0  0  0  0  0  0  0  0  0  0  0  0
    3.4177   -2.0998   -1.1367 H   0  0  0  0  0  0  0  0  0  0  0  0
    1.3946   -2.8559   -1.0481 C   0  0  0  0  0  0  0  0  0  0  0  0
    1.1338   -2.5426   -2.0825 H   0  0  0  0  0  0  0  0  0  0  0  0
    1.8142   -3.8809   -1.1479 H   0  0  0  0  0  0  0  0  0  0  0  0
    0.1199   -2.9026   -0.1860 C   0  0  0  0  0  0  0  0  0  0  0  0
   -0.5083   -3.7658   -0.5147 H   0  0  0  0  0  0  0  0  0  0  0  0
    0.4112   -3.1286    0.8634 H   0  0  0  0  0  0  0  0  0  0  0  0
    3.3163    0.0995    0.5164 C   0  0  0  0  0  0  0  0  0  0  0  0
    3.3982   -0.4809    1.4574 H   0  0  0  0  0  0  0  0  0  0  0  0
    2.9655    1.1129    0.7980 H   0  0  0  0  0  0  0  0  0  0  0  0
   -1.5849   -1.5981   -1.3343 C   0  0  0  0  0  0  0  0  0  0  0  0
   -2.4851   -2.2459   -1.1657 H   0  0  0  0  0  0  0  0  0  0  0  0
   -1.1425   -1.9668   -2.2950 H   0  0  0  0  0  0  0  0  0  0  0  0
   -2.0135   -0.1494   -1.5639 C   0  0  0  0  0  0  0  0  0  0  0  0
   -1.2021    0.3921   -2.0894 H   0  0  0  0  0  0  0  0  0  0  0  0
   -2.9244   -0.1054   -2.2074 H   0  0  0  0  0  0  0  0  0  0  0  0
    5.3061    1.3306   -0.4208 C   0  0  0  0  0  0  0  0  0  0  0  0
    4.8613    2.3065   -0.1610 H   0  0  0  0  0  0  0  0  0  0  0  0
    6.3038    1.3437   -0.8873 H   0  0  0  0  0  0  0  0  0  0  0  0
    4.6604    0.1808   -0.1598 C   0  0  0  0  0  0  0  0  0  0  0  0
    5.1480   -0.7741   -0.4272 H   0  0  0  0  0  0  0  0  0  0  0  0
   -2.2310    0.5478   -0.2782 N   0  0  0  0  0  0  0  0  0  0  0  0
    0.6562    1.6709   -0.2288 N   0  0  0  0  0  2  0  0  0  0  0  0
   -2.5234    1.9897   -0.4783 C   0  0  0  0  0  0  0  0  0  0  0  0
   -2.8065    2.3915    0.5166 H   0  0  0  0  0  0  0  0  0  0  0  0
   -3.4176    2.1000   -1.1368 H   0  0  0  0  0  0  0  0  0  0  0  0
   -1.3944    2.8559   -1.0479 C   0  0  0  0  0  0  0  0  0  0  0  0
   -1.1334    2.5428   -2.0823 H   0  0  0  0  0  0  0  0  0  0  0  0
   -1.8139    3.8810   -1.1476 H   0  0  0  0  0  0  0  0  0  0  0  0
   -0.1197    2.9025   -0.1856 C   0  0  0  0  0  0  0  0  0  0  0  0
    0.5085    3.7657   -0.5141 H   0  0  0  0  0  0  0  0  0  0  0  0
   -0.4112    3.1283    0.8638 H   0  0  0  0  0  0  0  0  0  0  0  0
   -3.3164   -0.0994    0.5163 C   0  0  0  0  0  0  0  0  0  0  0  0
   -3.3981    0.4809    1.4573 H   0  0  0  0  0  0  0  0  0  0  0  0
   -2.9658   -1.1129    0.7978 H   0  0  0  0  0  0  0  0  0  0  0  0
    1.5851    1.5981   -1.3340 C   0  0  0  0  0  0  0  0  0  0  0  0
    2.4853    2.2459   -1.1652 H   0  0  0  0  0  0  0  0  0  0  0  0
    1.1427    1.9670   -2.2946 H   0  0  0  0  0  0  0  0  0  0  0  0
    2.0135    0.1494   -1.5638 C   0  0  0  0  0  0  0  0  0  0  0  0
    1.2022   -0.3920   -2.0893 H   0  0  0  0  0  0  0  0  0  0  0  0
    2.9245    0.1055   -2.2072 H   0  0  0  0  0  0  0  0  0  0  0  0
   -5.3066   -1.3299   -0.4208 C   0  0  0  0  0  0  0  0  0  0  0  0
   -4.8621   -2.3060   -0.1610 H   0  0  0  0  0  0  0  0  0  0  0  0
   -6.3043   -1.3427   -0.8871 H   0  0  0  0  0  0  0  0  0  0  0  0
   -4.6605   -0.1803   -0.1598 C   0  0  0  0  0  0  0  0  0  0  0  0
   -5.1480    0.7747   -0.4271 H   0  0  0  0  0  0  0  0  0  0  0  0
  1 12  1  0  0  0  0
  2  9  1  0  0  0  0
  3  1  1  0  0  0  0
  3  4  1  0  0  0  0
  5  3  1  0  0  0  0
  6  3  1  0  0  0  0
  6  9  1  0  0  0  0
  7  6  1  0  0  0  0
  8  6  1  0  0  0  0
  9 11  1  0  0  0  0
 10  9  1  0  0  0  0
 12 14  1  0  0  0  0
 12 13  1  0  0  0  0
 15 16  1  0  0  0  0
 15  2  1  0  0  0  0
 17 15  1  0  0  0  0
 18 15  1  0  0  0  0
 18 26  1  0  0  0  0
 19 18  1  0  0  0  0
 20 18  1  0  0  0  0
 21 22  1  0  0  0  0
 21 24  2  0  0  0  0
 23 21  1  0  0  0  0
 24 12  1  0  0  0  0
 25 24  1  0  0  0  0
 26 37  1  0  0  0  0
 27 34  1  0  0  0  0
 28 26  1  0  0  0  0
 28 29  1  0  0  0  0
 30 28  1  0  0  0  0
 31 28  1  0  0  0  0
 31 34  1  0  0  0  0
 32 31  1  0  0  0  0
 33 31  1  0  0  0  0
 34 36  1  0  0  0  0
 35 34  1  0  0  0  0
 37 39  1  0  0  0  0
 37 38  1  0  0  0  0
 40 41  1  0  0  0  0
 40 27  1  0  0  0  0
 42 40  1  0  0  0  0
 43 40  1  0  0  0  0
 43  1  1  0  0  0  0
 44 43  1  0  0  0  0
 45 43  1  0  0  0  0
 46 47  1  0  0  0  0
 46 49  2  0  0  0  0
 48 46  1  0  0  0  0
 49 37  1  0  0  0  0
 50 49  1  0  0  0  0
M  END
