1,22,42,43
 OpenBabel05122313063D

 48 51  0  0  1  0  0  0  0  0999 V2000
    0.0761    2.2249    0.0539 N   0  0  0  0  0  2  0  0  0  0  0  0
   -0.2118    3.5076    0.3372 C   0  0  0  0  0  3  0  0  0  0  0  0
   -1.2707    3.6946    0.5814 H   0  0  0  0  0  0  0  0  0  0  0  0
    0.7689    4.5070    0.3206 C   0  0  0  0  0  0  0  0  0  0  0  0
    0.4899    5.5441    0.5543 H   0  0  0  0  0  0  0  0  0  0  0  0
    2.0936    4.1592    0.0012 C   0  0  0  0  0  0  0  0  0  0  0  0
    2.8859    4.9225   -0.0137 H   0  0  0  0  0  0  0  0  0  0  0  0
    2.3952    2.8286   -0.3021 C   0  0  0  0  0  0  0  0  0  0  0  0
    3.4209    2.5193   -0.5446 H   0  0  0  0  0  0  0  0  0  0  0  0
    1.3605    1.8690   -0.2908 C   0  0  0  0  0  0  0  0  0  0  0  0
    1.4989    0.4355   -0.5029 C   0  0  1  0  0  3  0  0  0  0  0  0
    2.8241   -0.2320   -0.4100 C   0  0  0  0  0  0  0  0  0  0  0  0
    3.8144   -0.0089   -1.3938 C   0  0  0  0  0  0  0  0  0  0  0  0
    3.5952    0.6361   -2.2578 H   0  0  0  0  0  0  0  0  0  0  0  0
    5.0564   -0.6426   -1.2561 C   0  0  0  0  0  0  0  0  0  0  0  0
    5.8453   -0.4932   -2.0090 H   0  0  0  0  0  0  0  0  0  0  0  0
    5.2678   -1.4794   -0.1506 C   0  0  0  0  0  0  0  0  0  0  0  0
    6.2249   -2.0010   -0.0024 H   0  0  0  0  0  0  0  0  0  0  0  0
    4.2211   -1.6325    0.7757 C   0  0  0  0  0  0  0  0  0  0  0  0
    4.3556   -2.2774    1.6631 H   0  0  0  0  0  0  0  0  0  0  0  0
    3.0339   -1.0250    0.6630 N   0  0  0  0  0  0  0  0  0  0  0  0
   -2.1664   -0.7631   -0.6928 N   0  0  0  0  0  2  0  0  0  0  0  0
   -3.4481   -0.8325   -1.1189 C   0  0  0  0  0  3  0  0  0  0  0  0
   -3.9940    0.1220   -1.1147 H   0  0  0  0  0  0  0  0  0  0  0  0
   -4.0031   -2.0551   -1.5069 C   0  0  0  0  0  0  0  0  0  0  0  0
   -5.0500   -2.0902   -1.8406 H   0  0  0  0  0  0  0  0  0  0  0  0
   -3.2212   -3.2228   -1.4527 C   0  0  0  0  0  0  0  0  0  0  0  0
   -3.6465   -4.1949   -1.7427 H   0  0  0  0  0  0  0  0  0  0  0  0
   -1.8872   -3.1321   -1.0232 C   0  0  0  0  0  0  0  0  0  0  0  0
   -1.2337   -4.0127   -0.9526 H   0  0  0  0  0  0  0  0  0  0  0  0
   -1.3919   -1.8727   -0.6773 C   0  0  0  0  0  0  0  0  0  0  0  0
    0.0123   -1.5771   -0.1323 C   0  0  2  0  0  0  0  0  0  0  0  0
   -0.1963   -1.3644    1.3714 C   0  0  2  0  0  3  0  0  0  0  0  0
    0.1777   -2.2301    2.3961 C   0  0  0  0  0  0  0  0  0  0  0  0
    0.7245   -3.1496    2.1492 H   0  0  0  0  0  0  0  0  0  0  0  0
   -0.1471   -1.8618    3.7114 C   0  0  0  0  0  0  0  0  0  0  0  0
    0.1446   -2.5033    4.5564 H   0  0  0  0  0  0  0  0  0  0  0  0
   -0.8471   -0.6636    3.9337 C   0  0  0  0  0  0  0  0  0  0  0  0
   -1.1248   -0.3492    4.9500 H   0  0  0  0  0  0  0  0  0  0  0  0
   -1.1950    0.1463    2.8455 C   0  0  0  0  0  0  0  0  0  0  0  0
   -1.7739    1.0810    2.9272 H   0  0  0  0  0  0  0  0  0  0  0  0
   -0.8591   -0.1973    1.5866 N   0  0  0  0  0  2  0  0  0  0  0  0
    0.3145   -0.1784   -0.5502 N   0  0  0  0  0  2  0  0  0  0  0  0
    0.9288   -2.5887   -0.3927 O   0  0  0  0  0  0  0  0  0  0  0  0
    1.2742   -2.7553   -1.7658 C   0  0  0  0  0  0  0  0  0  0  0  0
    1.8608   -1.8908   -2.1433 H   0  0  0  0  0  0  0  0  0  0  0  0
    0.3803   -2.8816   -2.4130 H   0  0  0  0  0  0  0  0  0  0  0  0
    1.9002   -3.6650   -1.8208 H   0  0  0  0  0  0  0  0  0  0  0  0
  1  2  1  0  0  0  0
  2  3  1  0  0  0  0
  4  2  1  0  0  0  0
  4  5  1  0  0  0  0
  6  4  2  0  0  0  0
  7  6  1  0  0  0  0
  8 10  2  0  0  0  0
  8  6  1  0  0  0  0
  9  8  1  0  0  0  0
 10  1  1  0  0  0  0
 11 43  1  1  0  0  0
 11 12  1  0  0  0  0
 11 10  1  0  0  0  0
 12 21  1  0  0  0  0
 13 15  1  0  0  0  0
 13 12  2  0  0  0  0
 14 13  1  0  0  0  0
 15 17  2  0  0  0  0
 16 15  1  0  0  0  0
 17 18  1  0  0  0  0
 17 19  1  0  0  0  0
 19 20  1  0  0  0  0
 21 19  2  0  0  0  0
 22 31  1  0  0  0  0
 23 24  1  0  0  0  0
 23 22  1  0  0  0  0
 25 27  2  0  0  0  0
 25 23  1  0  0  0  0
 26 25  1  0  0  0  0
 27 29  1  0  0  0  0
 28 27  1  0  0  0  0
 29 30  1  0  0  0  0
 29 31  2  0  0  0  0
 31 32  1  0  0  0  0
 32 43  1  6  0  0  0
 33 32  1  6  0  0  0
 33 42  1  0  0  0  0
 33 34  1  0  0  0  0
 34 36  2  0  0  0  0
 35 34  1  0  0  0  0
 36 38  1  0  0  0  0
 36 37  1  0  0  0  0
 38 39  1  0  0  0  0
 40 41  1  0  0  0  0
 40 38  2  0  0  0  0
 42 40  1  0  0  0  0
 44 32  1  0  0  0  0
 45 44  1  0  0  0  0
 46 45  1  0  0  0  0
 47 45  1  0  0  0  0
 48 45  1  0  0  0  0
M  END
