61,62,63,64
 OpenBabel05122313063D

 64 66  0  0  1  0  0  0  0  0999 V2000
   -2.3634   -1.5363   -0.3822 C   0  0  2  0  0  3  0  0  0  0  0  0
   -2.9154   -2.7298   -1.1330 C   0  0  0  0  0  0  0  0  0  0  0  0
   -2.1125   -3.3300   -1.5973 H   0  0  0  0  0  0  0  0  0  0  0  0
   -3.6010   -2.3689   -1.9201 H   0  0  0  0  0  0  0  0  0  0  0  0
   -3.5488   -3.3749   -0.4948 H   0  0  0  0  0  0  0  0  0  0  0  0
   -3.2592   -0.4358   -0.1166 C   0  0  0  0  0  0  0  0  0  0  0  0
   -4.7267   -0.6004   -0.1758 C   0  0  0  0  0  0  0  0  0  0  0  0
   -5.6127    0.6217    0.1062 C   0  0  0  0  0  0  0  0  0  0  0  0
   -6.6610    0.2995   -0.0244 H   0  0  0  0  0  0  0  0  0  0  0  0
   -5.4037    1.4643   -0.5844 H   0  0  0  0  0  0  0  0  0  0  0  0
   -5.4866    0.9993    1.1421 H   0  0  0  0  0  0  0  0  0  0  0  0
   -2.7486    0.8318    0.2516 C   0  0  0  0  0  0  0  0  0  0  0  0
   -3.4833    1.6116    0.5054 H   0  0  0  0  0  0  0  0  0  0  0  0
   -1.0820    2.5656    0.5830 C   0  0  2  0  0  0  0  0  0  0  0  0
   -0.6444    2.5797    1.6102 H   0  0  0  0  0  0  0  0  0  0  0  0
   -2.1570    3.6511    0.5053 C   0  0  0  0  0  0  0  0  0  0  0  0
   -2.9573    3.4670    1.2516 H   0  0  0  0  0  0  0  0  0  0  0  0
   -2.6365    3.6226   -0.4983 H   0  0  0  0  0  0  0  0  0  0  0  0
   -1.5265    5.0312    0.7466 C   0  0  0  0  0  0  0  0  0  0  0  0
   -2.3020    5.8194    0.6570 H   0  0  0  0  0  0  0  0  0  0  0  0
   -1.1496    5.0814    1.7922 H   0  0  0  0  0  0  0  0  0  0  0  0
   -0.3692    5.3038   -0.2210 C   0  0  0  0  0  0  0  0  0  0  0  0
    0.0867    6.2928   -0.0102 H   0  0  0  0  0  0  0  0  0  0  0  0
   -0.7663    5.3587   -1.2590 H   0  0  0  0  0  0  0  0  0  0  0  0
    0.7059    4.2094   -0.1496 C   0  0  0  0  0  0  0  0  0  0  0  0
    1.4999    4.4104   -0.8965 H   0  0  0  0  0  0  0  0  0  0  0  0
    1.1968    4.2166    0.8483 H   0  0  0  0  0  0  0  0  0  0  0  0
    0.0736    2.8362   -0.3856 C   0  0  1  0  0  0  0  0  0  0  0  0
   -0.3639    2.8187   -1.4132 H   0  0  0  0  0  0  0  0  0  0  0  0
    2.2461    1.7701   -0.3663 C   0  0  0  0  0  3  0  0  0  0  0  0
    2.6953    2.7508   -0.6083 H   0  0  0  0  0  0  0  0  0  0  0  0
    3.2002    0.7458   -0.1594 C   0  0  0  0  0  0  0  0  0  0  0  0
    4.5968    1.2085   -0.3713 C   0  0  0  0  0  0  0  0  0  0  0  0
    5.7550    0.2195   -0.4890 C   0  0  0  0  0  0  0  0  0  0  0  0
    6.5526    0.7227   -1.0655 H   0  0  0  0  0  0  0  0  0  0  0  0
    5.4720   -0.7268   -0.9886 H   0  0  0  0  0  0  0  0  0  0  0  0
    6.1734   -0.0324    0.5068 H   0  0  0  0  0  0  0  0  0  0  0  0
    2.7908   -0.5736    0.2347 C   0  0  0  0  0  0  0  0  0  0  0  0
    3.7684   -1.3955    1.0626 C   0  0  0  0  0  0  0  0  0  0  0  0
    3.2266   -2.0559    1.7654 H   0  0  0  0  0  0  0  0  0  0  0  0
    4.3936   -0.7120    1.6631 H   0  0  0  0  0  0  0  0  0  0  0  0
    4.4555   -2.0278    0.4689 H   0  0  0  0  0  0  0  0  0  0  0  0
    1.1809   -2.3998    0.3535 C   0  0  2  0  0  0  0  0  0  0  0  0
    1.1676   -2.4977    1.4678 H   0  0  0  0  0  0  0  0  0  0  0  0
    2.0616   -3.5360   -0.2148 C   0  0  0  0  0  0  0  0  0  0  0  0
    3.1338   -3.3855   -0.0121 H   0  0  0  0  0  0  0  0  0  0  0  0
    1.9510   -3.5454   -1.3207 H   0  0  0  0  0  0  0  0  0  0  0  0
    1.6206   -4.8792    0.3892 C   0  0  0  0  0  0  0  0  0  0  0  0
    2.2180   -5.7057   -0.0485 H   0  0  0  0  0  0  0  0  0  0  0  0
    1.8580   -4.8682    1.4765 H   0  0  0  0  0  0  0  0  0  0  0  0
    0.1219   -5.1472    0.2056 C   0  0  0  0  0  0  0  0  0  0  0  0
   -0.1830   -6.0457    0.7809 H   0  0  0  0  0  0  0  0  0  0  0  0
   -0.0800   -5.3805   -0.8636 H   0  0  0  0  0  0  0  0  0  0  0  0
   -0.7364   -3.9402    0.6095 C   0  0  0  0  0  0  0  0  0  0  0  0
   -1.8001   -4.1534    0.4108 H   0  0  0  0  0  0  0  0  0  0  0  0
   -0.6549   -3.7445    1.7005 H   0  0  0  0  0  0  0  0  0  0  0  0
   -0.2438   -2.6888   -0.1475 C   0  0  1  0  0  0  0  0  0  0  0  0
   -0.1567   -2.9497   -1.2303 H   0  0  0  0  0  0  0  0  0  0  0  0
   -5.2911   -1.6727   -0.4273 O   0  0  0  0  0  0  0  0  0  0  0  0
    4.8484    2.4081   -0.5499 O   0  0  0  0  0  0  0  0  0  0  0  0
   -1.0724   -1.4840   -0.0371 N   0  0  0  0  0  2  0  0  0  0  0  0
   -1.4822    1.1869    0.2790 N   0  0  0  0  0  2  0  0  0  0  0  0
    0.9443    1.6631   -0.2367 N   0  0  0  0  0  2  0  0  0  0  0  0
    1.5431   -1.0138    0.0277 N   0  0  0  0  0  2  0  0  0  0  0  0
  1  2  1  6  0  0  0
  1  6  1  0  0  0  0
  1 61  1  0  0  0  0
  2  5  1  0  0  0  0
  3  2  1  0  0  0  0
  4  2  1  0  0  0  0
  6 12  2  0  0  0  0
  7  6  1  0  0  0  0
  7  8  1  0  0  0  0
  8 11  1  0  0  0  0
  9  8  1  0  0  0  0
 10  8  1  0  0  0  0
 12 62  1  0  0  0  0
 12 13  1  0  0  0  0
 14 15  1  1  0  0  0
 16 14  1  0  0  0  0
 16 19  1  0  0  0  0
 16 17  1  0  0  0  0
 18 16  1  0  0  0  0
 19 21  1  0  0  0  0
 20 19  1  0  0  0  0
 22 25  1  0  0  0  0
 22 23  1  0  0  0  0
 22 19  1  0  0  0  0
 24 22  1  0  0  0  0
 25 27  1  0  0  0  0
 26 25  1  0  0  0  0
 28 29  1  6  0  0  0
 28 63  1  0  0  0  0
 28 25  1  0  0  0  0
 28 14  1  0  0  0  0
 30 63  1  0  0  0  0
 30 32  1  0  0  0  0
 31 30  1  0  0  0  0
 32 38  2  0  0  0  0
 33 32  1  0  0  0  0
 34 33  1  0  0  0  0
 34 37  1  0  0  0  0
 35 34  1  0  0  0  0
 36 34  1  0  0  0  0
 38 39  1  0  0  0  0
 39 41  1  0  0  0  0
 39 40  1  0  0  0  0
 42 39  1  0  0  0  0
 43 44  1  1  0  0  0
 45 46  1  0  0  0  0
 45 43  1  0  0  0  0
 45 48  1  0  0  0  0
 47 45  1  0  0  0  0
 48 50  1  0  0  0  0
 49 48  1  0  0  0  0
 51 48  1  0  0  0  0
 51 54  1  0  0  0  0
 51 52  1  0  0  0  0
 53 51  1  0  0  0  0
 54 56  1  0  0  0  0
 55 54  1  0  0  0  0
 57 58  1  6  0  0  0
 57 61  1  0  0  0  0
 57 43  1  0  0  0  0
 57 54  1  0  0  0  0
 59  7  2  0  0  0  0
 60 33  2  0  0  0  0
 62 14  1  0  0  0  0
 64 38  1  0  0  0  0
 64 43  1  0  0  0  0
M  END
