43,45,46,49
 OpenBabel05122313063D

 49 54  0  0  0  0  0  0  0  0999 V2000
    1.6904    1.8176    1.7681 C   0  0  0  0  0  0  0  0  0  0  0  0
    0.9663    1.7223    0.5205 C   0  0  0  0  0  0  0  0  0  0  0  0
    1.2001    2.6239   -0.5544 C   0  0  0  0  0  0  0  0  0  0  0  0
    0.6254    2.5564   -1.4897 H   0  0  0  0  0  0  0  0  0  0  0  0
    2.1563    3.6231   -0.3492 C   0  0  0  0  0  0  0  0  0  0  0  0
    2.3637    4.3515   -1.1460 H   0  0  0  0  0  0  0  0  0  0  0  0
    2.8578    3.7198    0.8767 C   0  0  0  0  0  0  0  0  0  0  0  0
    3.5983    4.5242    1.0010 H   0  0  0  0  0  0  0  0  0  0  0  0
    2.6327    2.8258    1.9532 C   0  0  0  0  0  0  0  0  0  0  0  0
    3.1762    2.9232    2.9036 H   0  0  0  0  0  0  0  0  0  0  0  0
    0.3598    0.1468    1.9423 C   0  0  0  0  0  0  0  0  0  0  0  0
    2.5339   -0.6614   -0.9139 C   0  0  0  0  0  0  0  0  0  0  0  0
    3.5158   -1.3218   -0.0886 C   0  0  0  0  0  3  0  0  0  0  0  0
    4.8553   -0.9587   -0.1783 C   0  0  0  0  0  0  0  0  0  0  0  0
    5.6165   -1.4501    0.4443 H   0  0  0  0  0  0  0  0  0  0  0  0
    5.1996    0.0686   -1.0975 C   0  0  0  0  0  0  0  0  0  0  0  0
    6.2552    0.3646   -1.1897 H   0  0  0  0  0  0  0  0  0  0  0  0
    4.2379    0.7053   -1.9143 C   0  0  0  0  0  0  0  0  0  0  0  0
    4.5633    1.4760   -2.6274 H   0  0  0  0  0  0  0  0  0  0  0  0
    2.8855    0.3509   -1.8471 C   0  0  0  0  0  0  0  0  0  0  0  0
    2.1372    0.7840   -2.5241 H   0  0  0  0  0  0  0  0  0  0  0  0
    1.6114   -2.1561    0.4498 C   0  0  0  0  0  0  0  0  0  0  0  0
   -3.2145    0.5990   -0.4873 C   0  0  0  0  0  0  0  0  0  0  0  0
   -4.3231    0.2882    0.3803 C   0  0  0  0  0  3  0  0  0  0  0  0
   -5.4593    1.0930    0.3777 C   0  0  0  0  0  0  0  0  0  0  0  0
   -6.3261    0.8487    1.0081 H   0  0  0  0  0  0  0  0  0  0  0  0
   -5.4578    2.2273   -0.4733 C   0  0  0  0  0  0  0  0  0  0  0  0
   -6.3388    2.8864   -0.4830 H   0  0  0  0  0  0  0  0  0  0  0  0
   -4.3622    2.5364   -1.3187 C   0  0  0  0  0  0  0  0  0  0  0  0
   -4.4181    3.4234   -1.9657 H   0  0  0  0  0  0  0  0  0  0  0  0
   -3.2257    1.7262   -1.3498 C   0  0  0  0  0  0  0  0  0  0  0  0
   -2.3775    1.9428   -2.0154 H   0  0  0  0  0  0  0  0  0  0  0  0
   -2.8645   -1.2600    0.6763 C   0  0  0  0  0  0  0  0  0  0  0  0
   -0.4366   -1.0402    2.4045 C   0  0  0  0  0  0  0  0  0  0  0  0
    0.0942   -1.5140    3.2584 H   0  0  0  0  0  0  0  0  0  0  0  0
   -1.4189   -0.6897    2.7868 H   0  0  0  0  0  0  0  0  0  0  0  0
    0.4463   -2.9028    1.0327 C   0  0  0  0  0  0  0  0  0  0  0  0
    0.0912   -3.6391    0.2804 H   0  0  0  0  0  0  0  0  0  0  0  0
    0.7828   -3.4529    1.9380 H   0  0  0  0  0  0  0  0  0  0  0  0
   -2.0448   -2.4382    1.1134 C   0  0  0  0  0  0  0  0  0  0  0  0
   -2.4973   -2.8979    2.0191 H   0  0  0  0  0  0  0  0  0  0  0  0
   -2.0427   -3.1991    0.3042 H   0  0  0  0  0  0  0  0  0  0  0  0
   -0.6660   -1.9770    1.3000 N   0  0  0  0  0  0  0  0  0  0  0  0
    1.2674    0.7994    2.6262 N   0  0  0  0  0  2  0  0  0  0  0  0
    0.1069    0.6809    0.6527 N   0  0  0  0  0  0  0  0  0  0  0  0
    1.3410   -1.2071   -0.5786 N   0  0  0  0  0  0  0  0  0  0  0  0
    2.8808   -2.2544    0.7406 N   0  0  0  0  0  0  0  0  0  0  0  0
   -4.0459   -0.8845    1.0942 N   0  0  0  0  0  0  0  0  0  0  0  0
   -2.3122   -0.3982   -0.3083 N   0  0  0  0  0  0  0  0  0  0  0  0
  1  9  1  0  0  0  0
  1 44  1  0  0  0  0
  2 45  1  0  0  0  0
  2  1  2  0  0  0  0
  3  5  2  0  0  0  0
  3  2  1  0  0  0  0
  4  3  1  0  0  0  0
  5  7  1  0  0  0  0
  6  5  1  0  0  0  0
  7  8  1  0  0  0  0
  7  9  2  0  0  0  0
  9 10  1  0  0  0  0
 11 34  1  0  0  0  0
 11 44  1  0  0  0  0
 12 46  2  0  0  0  0
 12 13  1  0  0  0  0
 13 47  1  0  0  0  0
 14 13  1  0  0  0  0
 14 15  1  0  0  0  0
 16 14  2  0  0  0  0
 17 16  1  0  0  0  0
 18 20  2  0  0  0  0
 18 16  1  0  0  0  0
 19 18  1  0  0  0  0
 20 12  1  0  0  0  0
 21 20  1  0  0  0  0
 22 47  2  0  0  0  0
 22 37  1  0  0  0  0
 23 49  2  0  0  0  0
 23 24  1  0  0  0  0
 24 48  1  0  0  0  0
 25 24  1  0  0  0  0
 25 26  1  0  0  0  0
 27 25  2  0  0  0  0
 28 27  1  0  0  0  0
 29 27  1  0  0  0  0
 30 29  1  0  0  0  0
 31 29  2  0  0  0  0
 31 23  1  0  0  0  0
 32 31  1  0  0  0  0
 33 48  2  0  0  0  0
 33 40  1  0  0  0  0
 34 36  1  0  0  0  0
 34 35  1  0  0  0  0
 37 43  1  0  0  0  0
 37 39  1  0  0  0  0
 38 37  1  0  0  0  0
 40 43  1  0  0  0  0
 40 41  1  0  0  0  0
 42 40  1  0  0  0  0
 43 34  1  0  0  0  0
 45 11  2  0  0  0  0
 46 22  1  0  0  0  0
 49 33  1  0  0  0  0
M  END
