1,32,39
 OpenBabel05122313063D

 62 65  0  0  1  0  0  0  0  0999 V2000
    2.0487    0.2770    0.1722 N   0  0  0  0  0  0  0  0  0  0  0  0
    2.3456    0.6666    1.5916 C   0  0  0  0  0  0  0  0  0  0  0  0
    3.1293    1.4542    1.6119 H   0  0  0  0  0  0  0  0  0  0  0  0
    2.7746   -0.2100    2.1065 H   0  0  0  0  0  0  0  0  0  0  0  0
    1.0813    1.0711    2.3818 C   0  0  0  0  0  0  0  0  0  0  0  0
    0.7301    0.1795    2.9322 H   0  0  0  0  0  0  0  0  0  0  0  0
    1.3029    1.8935    3.1027 H   0  0  0  0  0  0  0  0  0  0  0  0
   -0.0225    1.4415    1.4658 N   0  0  1  0  0  0  0  0  0  0  0  0
   -1.3633    1.2332    2.0626 C   0  0  0  0  0  0  0  0  0  0  0  0
   -1.5986    2.0063    2.8350 H   0  0  0  0  0  0  0  0  0  0  0  0
   -1.3362    0.2325    2.5400 H   0  0  0  0  0  0  0  0  0  0  0  0
    2.4092    1.3745   -0.7828 C   0  0  0  0  0  0  0  0  0  0  0  0
    3.4135    1.2056   -1.2256 H   0  0  0  0  0  0  0  0  0  0  0  0
    2.4969    2.3233   -0.2207 H   0  0  0  0  0  0  0  0  0  0  0  0
    0.1773    2.8273    0.9378 C   0  0  0  0  0  0  0  0  0  0  0  0
    1.2374    3.0938    1.0984 H   0  0  0  0  0  0  0  0  0  0  0  0
   -0.4159    3.5574    1.5327 H   0  0  0  0  0  0  0  0  0  0  0  0
    2.7368   -1.0202   -0.1940 C   0  0  0  0  0  0  0  0  0  0  0  0
    2.3647   -1.2873   -1.2018 H   0  0  0  0  0  0  0  0  0  0  0  0
    2.3062   -1.7704    0.4976 H   0  0  0  0  0  0  0  0  0  0  0  0
    4.2459   -1.0040   -0.1492 C   0  0  0  0  0  0  0  0  0  0  0  0
    4.9537   -1.3079    1.0350 C   0  0  0  0  0  0  0  0  0  0  0  0
    4.3950   -1.6107    1.9346 H   0  0  0  0  0  0  0  0  0  0  0  0
    6.3549   -1.2655    1.0749 C   0  0  0  0  0  0  0  0  0  0  0  0
    6.8832   -1.5121    2.0088 H   0  0  0  0  0  0  0  0  0  0  0  0
    7.0841   -0.9276   -0.0767 C   0  0  0  0  0  0  0  0  0  0  0  0
    8.1839   -0.8972   -0.0472 H   0  0  0  0  0  0  0  0  0  0  0  0
    6.4009   -0.6540   -1.2720 C   0  0  0  0  0  0  0  0  0  0  0  0
    6.9639   -0.4179   -2.1881 H   0  0  0  0  0  0  0  0  0  0  0  0
    4.9990   -0.6983   -1.3055 C   0  0  0  0  0  0  0  0  0  0  0  0
    4.4711   -0.5209   -2.2566 H   0  0  0  0  0  0  0  0  0  0  0  0
   -2.0490    0.2971   -0.1356 N   0  0  0  0  0  0  0  0  0  0  0  0
   -2.3461    0.8751   -1.4889 C   0  0  0  0  0  0  0  0  0  0  0  0
   -3.1312    1.6569   -1.4028 H   0  0  0  0  0  0  0  0  0  0  0  0
   -2.7730    0.0754   -2.1181 H   0  0  0  0  0  0  0  0  0  0  0  0
   -1.0823    1.3855   -2.2165 C   0  0  0  0  0  0  0  0  0  0  0  0
   -0.7310    0.5784   -2.8846 H   0  0  0  0  0  0  0  0  0  0  0  0
   -1.3051    2.2988   -2.8177 H   0  0  0  0  0  0  0  0  0  0  0  0
    0.0218    1.6280   -1.2590 N   0  0  1  0  0  0  0  0  0  0  0  0
    1.3628    1.5037   -1.8787 C   0  0  0  0  0  0  0  0  0  0  0  0
    1.5980    2.3757   -2.5377 H   0  0  0  0  0  0  0  0  0  0  0  0
    1.3361    0.5783   -2.4892 H   0  0  0  0  0  0  0  0  0  0  0  0
   -0.1785    2.9288   -0.5470 C   0  0  0  0  0  0  0  0  0  0  0  0
   -2.4095    1.2550    0.9595 C   0  0  0  0  0  0  0  0  0  0  0  0
   -2.7366   -1.0377    0.0517 C   0  0  0  0  0  0  0  0  0  0  0  0
   -2.3624   -1.4399    1.0129 H   0  0  0  0  0  0  0  0  0  0  0  0
   -2.3078   -1.6864   -0.7368 H   0  0  0  0  0  0  0  0  0  0  0  0
   -4.2458   -1.0154    0.0134 C   0  0  0  0  0  0  0  0  0  0  0  0
   -4.9571   -1.1535   -1.1992 C   0  0  0  0  0  0  0  0  0  0  0  0
   -4.4011   -1.3295   -2.1336 H   0  0  0  0  0  0  0  0  0  0  0  0
   -6.3584   -1.1061   -1.2289 C   0  0  0  0  0  0  0  0  0  0  0  0
   -6.8895   -1.2221   -2.1862 H   0  0  0  0  0  0  0  0  0  0  0  0
   -7.0841   -0.9298   -0.0396 C   0  0  0  0  0  0  0  0  0  0  0  0
   -8.1841   -0.8957   -0.0615 H   0  0  0  0  0  0  0  0  0  0  0  0
   -6.3974   -0.8230    1.1800 C   0  0  0  0  0  0  0  0  0  0  0  0
   -6.9577   -0.7149    2.1215 H   0  0  0  0  0  0  0  0  0  0  0  0
   -4.9955   -0.8715    1.2030 C   0  0  0  0  0  0  0  0  0  0  0  0
   -4.4648   -0.8265    2.1679 H   0  0  0  0  0  0  0  0  0  0  0  0
   -3.4138    1.0275    1.3751 H   0  0  0  0  0  0  0  0  0  0  0  0
   -2.4970    2.2713    0.5315 H   0  0  0  0  0  0  0  0  0  0  0  0
   -1.2388    3.2141   -0.6698 H   0  0  0  0  0  0  0  0  0  0  0  0
    0.4143    3.7335   -1.0369 H   0  0  0  0  0  0  0  0  0  0  0  0
  1  2  1  0  0  0  0
  2  3  1  0  0  0  0
  2  4  1  0  0  0  0
  2  5  1  0  0  0  0
  5  6  1  0  0  0  0
  5  7  1  0  0  0  0
  8 15  1  1  0  0  0
  8  9  1  0  0  0  0
  8  5  1  0  0  0  0
  9 11  1  0  0  0  0
  9 10  1  0  0  0  0
 12 14  1  0  0  0  0
 12  1  1  0  0  0  0
 13 12  1  0  0  0  0
 15 16  1  0  0  0  0
 15 17  1  0  0  0  0
 18 21  1  0  0  0  0
 18  1  1  0  0  0  0
 18 20  1  0  0  0  0
 19 18  1  0  0  0  0
 21 22  1  0  0  0  0
 22 24  2  0  0  0  0
 22 23  1  0  0  0  0
 24 25  1  0  0  0  0
 26 27  1  0  0  0  0
 26 24  1  0  0  0  0
 28 26  2  0  0  0  0
 29 28  1  0  0  0  0
 30 28  1  0  0  0  0
 30 21  2  0  0  0  0
 31 30  1  0  0  0  0
 32 45  1  0  0  0  0
 32 44  1  0  0  0  0
 33 34  1  0  0  0  0
 33 32  1  0  0  0  0
 35 33  1  0  0  0  0
 36 33  1  0  0  0  0
 37 36  1  0  0  0  0
 38 36  1  0  0  0  0
 39 36  1  6  0  0  0
 39 43  1  0  0  0  0
 40 39  1  0  0  0  0
 40 12  1  0  0  0  0
 41 40  1  0  0  0  0
 42 40  1  0  0  0  0
 43 15  1  0  0  0  0
 44 59  1  0  0  0  0
 44  9  1  0  0  0  0
 45 46  1  0  0  0  0
 47 45  1  0  0  0  0
 48 45  1  0  0  0  0
 48 57  1  0  0  0  0
 49 48  2  0  0  0  0
 50 49  1  0  0  0  0
 51 49  1  0  0  0  0
 51 53  2  0  0  0  0
 52 51  1  0  0  0  0
 53 55  1  0  0  0  0
 54 53  1  0  0  0  0
 55 57  2  0  0  0  0
 55 56  1  0  0  0  0
 57 58  1  0  0  0  0
 60 44  1  0  0  0  0
 61 43  1  0  0  0  0
 62 43  1  0  0  0  0
M  END
