3,5,6,8
 OpenBabel05122313063D

 38 40  0  0  1  0  0  0  0  0999 V2000
   -3.6063    1.5160   -0.2149 O   0  0  0  0  0  0  0  0  0  0  0  0
    3.6063    1.5160   -0.2150 O   0  0  0  0  0  0  0  0  0  0  0  0
   -1.7825   -1.5941    0.1438 N   0  0  0  0  0  2  0  0  0  0  0  0
   -3.9519   -1.4833   -0.2743 N   0  0  0  0  0  0  0  0  0  0  0  0
   -1.3334    1.0344    0.1178 N   0  0  0  0  0  2  0  0  0  0  0  0
    1.3334    1.0344    0.1178 N   0  0  0  0  0  2  0  0  0  0  0  0
    3.9519   -1.4833   -0.2743 N   0  0  0  0  0  0  0  0  0  0  0  0
    1.7825   -1.5941    0.1438 N   0  0  0  0  0  2  0  0  0  0  0  0
   -2.2474   -2.8759    0.0317 C   0  0  0  0  0  0  0  0  0  0  0  0
   -1.5941   -3.7478    0.1365 H   0  0  0  0  0  0  0  0  0  0  0  0
   -3.6080   -2.8217   -0.2273 C   0  0  0  0  0  0  0  0  0  0  0  0
   -4.3507   -3.6110   -0.3784 H   0  0  0  0  0  0  0  0  0  0  0  0
   -2.8206   -0.7569   -0.0462 C   0  0  2  0  0  3  0  0  0  0  0  0
   -2.6536    0.7346   -0.0580 C   0  0  0  0  0  0  0  0  0  0  0  0
   -0.7193    2.2989    0.0679 C   0  0  0  0  0  0  0  0  0  0  0  0
   -1.4159    3.5232    0.0027 C   0  0  0  0  0  0  0  0  0  0  0  0
   -2.5120    3.4987   -0.0096 H   0  0  0  0  0  0  0  0  0  0  0  0
   -0.7022    4.7288   -0.0565 C   0  0  0  0  0  0  0  0  0  0  0  0
   -1.2547    5.6793   -0.1058 H   0  0  0  0  0  0  0  0  0  0  0  0
    0.7022    4.7288   -0.0565 C   0  0  0  0  0  0  0  0  0  0  0  0
    1.2547    5.6793   -0.1058 H   0  0  0  0  0  0  0  0  0  0  0  0
    1.4160    3.5232    0.0027 C   0  0  0  0  0  0  0  0  0  0  0  0
    2.5120    3.4987   -0.0096 H   0  0  0  0  0  0  0  0  0  0  0  0
    0.7193    2.2989    0.0679 C   0  0  0  0  0  0  0  0  0  0  0  0
    2.6536    0.7346   -0.0580 C   0  0  0  0  0  0  0  0  0  0  0  0
    2.8206   -0.7569   -0.0462 C   0  0  2  0  0  3  0  0  0  0  0  0
    3.6080   -2.8217   -0.2274 C   0  0  0  0  0  0  0  0  0  0  0  0
    4.3506   -3.6111   -0.3786 H   0  0  0  0  0  0  0  0  0  0  0  0
    2.2474   -2.8759    0.0316 C   0  0  0  0  0  0  0  0  0  0  0  0
    1.5940   -3.7478    0.1364 H   0  0  0  0  0  0  0  0  0  0  0  0
   -5.2844   -0.9496   -0.5396 C   0  0  0  0  0  0  0  0  0  0  0  0
   -5.2117    0.1537   -0.5126 H   0  0  0  0  0  0  0  0  0  0  0  0
   -5.9936   -1.3059    0.2328 H   0  0  0  0  0  0  0  0  0  0  0  0
   -5.6304   -1.2836   -1.5371 H   0  0  0  0  0  0  0  0  0  0  0  0
    5.2844   -0.9496   -0.5395 C   0  0  0  0  0  0  0  0  0  0  0  0
    5.2115    0.1537   -0.5131 H   0  0  0  0  0  0  0  0  0  0  0  0
    5.6308   -1.2842   -1.5367 H   0  0  0  0  0  0  0  0  0  0  0  0
    5.9934   -1.3053    0.2334 H   0  0  0  0  0  0  0  0  0  0  0  0
  1 14  2  0  0  0  0
  2 25  2  0  0  0  0
  4 11  1  0  0  0  0
  4 13  1  0  0  0  0
  7 27  1  0  0  0  0
  7 26  1  0  0  0  0
  9 10  1  0  0  0  0
  9  3  1  0  0  0  0
 11  9  2  0  0  0  0
 12 11  1  0  0  0  0
 13 14  1  6  0  0  0
 13  3  1  0  0  0  0
 14  5  1  0  0  0  0
 15 24  1  0  0  0  0
 15  5  1  0  0  0  0
 16 15  2  0  0  0  0
 17 16  1  0  0  0  0
 18 16  1  0  0  0  0
 19 18  1  0  0  0  0
 20 18  2  0  0  0  0
 20 22  1  0  0  0  0
 21 20  1  0  0  0  0
 22 24  2  0  0  0  0
 23 22  1  0  0  0  0
 24  6  1  0  0  0  0
 25  6  1  0  0  0  0
 26 25  1  6  0  0  0
 26  8  1  0  0  0  0
 27 29  2  0  0  0  0
 28 27  1  0  0  0  0
 29 30  1  0  0  0  0
 29  8  1  0  0  0  0
 31 32  1  0  0  0  0
 31  4  1  0  0  0  0
 31 33  1  0  0  0  0
 34 31  1  0  0  0  0
 35 36  1  0  0  0  0
 35  7  1  0  0  0  0
 35 38  1  0  0  0  0
 37 35  1  0  0  0  0
M  END
