61,62,63,64
q = 0.0, confidence = 0.96

 65 68  0  0  1  0  0  0  0  0999 V2000
   -1.2649    0.8189    1.3788 C   0  0  0  0  0  0  0  0  0  0  0  0
   -1.3087    1.6454    2.1177 H   0  0  0  0  0  0  0  0  0  0  0  0
   -2.1295    0.1575    1.5570 H   0  0  0  0  0  0  0  0  0  0  0  0
   -1.3265    1.4148   -0.0272 C   0  0  1  0  0  0  0  0  0  0  0  0
   -0.1332    2.3976   -0.2155 C   0  0  0  0  0  0  0  0  0  0  0  0
    1.1731    1.5592    0.0016 C   0  0  1  0  0  0  0  0  0  0  0  0
    1.2809    0.4936   -1.1261 C   0  0  1  0  0  0  0  0  0  0  0  0
    1.4636    1.0534   -2.0637 H   0  0  0  0  0  0  0  0  0  0  0  0
   -1.2825    0.3352   -1.1443 C   0  0  2  0  0  0  0  0  0  0  0  0
   -1.5301    0.8472   -2.0969 H   0  0  0  0  0  0  0  0  0  0  0  0
   -2.6042    2.2353   -0.2490 C   0  0  0  0  0  0  0  0  0  0  0  0
   -4.7114    2.8739    0.5963 C   0  0  0  0  0  0  0  0  0  0  0  0
   -5.3032    2.6627    1.5026 H   0  0  0  0  0  0  0  0  0  0  0  0
   -5.2568    2.5564   -0.3134 H   0  0  0  0  0  0  0  0  0  0  0  0
   -4.4780    3.9529    0.5183 H   0  0  0  0  0  0  0  0  0  0  0  0
    2.3666    2.5191   -0.1660 C   0  0  0  0  0  0  0  0  0  0  0  0
    3.4528    4.4261    0.7444 C   0  0  0  0  0  0  0  0  0  0  0  0
    3.3291    5.0797    1.6245 H   0  0  0  0  0  0  0  0  0  0  0  0
    3.3682    5.0043   -0.1956 H   0  0  0  0  0  0  0  0  0  0  0  0
    4.4349    3.9171    0.7669 H   0  0  0  0  0  0  0  0  0  0  0  0
    2.4037   -0.4873   -0.8552 C   0  0  2  0  0  3  0  0  0  0  0  0
    3.6965   -0.4031   -1.3783 C   0  0  0  0  0  0  0  0  0  0  0  0
    3.9548    0.4346   -2.0378 H   0  0  0  0  0  0  0  0  0  0  0  0
    4.6362   -1.3879   -1.0301 C   0  0  0  0  0  0  0  0  0  0  0  0
    5.6606   -1.3436   -1.4272 H   0  0  0  0  0  0  0  0  0  0  0  0
    4.2369   -2.4338   -0.1855 C   0  0  0  0  0  0  0  0  0  0  0  0
    4.9339   -3.2345    0.0998 H   0  0  0  0  0  0  0  0  0  0  0  0
    2.9187   -2.4758    0.2763 C   0  0  0  0  0  0  0  0  0  0  0  0
    2.5324   -3.3026    0.8876 H   0  0  0  0  0  0  0  0  0  0  0  0
   -2.2887   -0.7475   -0.8294 C   0  0  2  0  0  3  0  0  0  0  0  0
   -3.6058   -0.7562   -1.2905 C   0  0  0  0  0  0  0  0  0  0  0  0
   -3.9440    0.0315   -1.9798 H   0  0  0  0  0  0  0  0  0  0  0  0
   -4.4675   -1.7855   -0.8726 C   0  0  0  0  0  0  0  0  0  0  0  0
   -5.5097   -1.8209   -1.2208 H   0  0  0  0  0  0  0  0  0  0  0  0
   -3.9580   -2.7788   -0.0238 C   0  0  0  0  0  0  0  0  0  0  0  0
   -4.5855   -3.6160    0.3133 H   0  0  0  0  0  0  0  0  0  0  0  0
   -2.6207   -2.7182    0.3795 C   0  0  0  0  0  0  0  0  0  0  0  0
   -2.1729   -3.5144    0.9902 H   0  0  0  0  0  0  0  0  0  0  0  0
    1.1420    0.9458    1.4172 C   0  0  0  0  0  0  0  0  0  0  0  0
    2.0721    0.3799    1.6093 H   0  0  0  0  0  0  0  0  0  0  0  0
    1.0731    1.7669    2.1618 H   0  0  0  0  0  0  0  0  0  0  0  0
   -0.0674   -0.5753    2.9292 C   0  0  0  0  0  0  0  0  0  0  0  0
   -1.1197   -0.8686    3.1163 H   0  0  0  0  0  0  0  0  0  0  0  0
    0.2111    0.1735    3.7051 H   0  0  0  0  0  0  0  0  0  0  0  0
    0.8071   -1.8106    3.0182 C   0  0  0  0  0  0  0  0  0  0  0  0
    1.8824   -1.5670    2.8919 H   0  0  0  0  0  0  0  0  0  0  0  0
    0.6901   -2.3072    4.0028 H   0  0  0  0  0  0  0  0  0  0  0  0
    0.0870   -1.0302   -2.5939 C   0  0  0  0  0  0  0  0  0  0  0  0
    0.0473   -0.2755   -3.4084 H   0  0  0  0  0  0  0  0  0  0  0  0
   -0.7598   -1.7339   -2.6712 H   0  0  0  0  0  0  0  0  0  0  0  0
    1.0112   -1.6288   -2.6671 H   0  0  0  0  0  0  0  0  0  0  0  0
   -0.3227    3.3796    0.7679 O   0  0  0  0  0  0  0  0  0  0  0  0
    0.5193    3.8785    0.8549 H   0  0  0  0  0  0  0  0  0  0  0  0
   -0.0606    2.9196   -1.5050 O   0  0  0  0  0  0  0  0  0  0  0  0
   -0.9716    3.2449   -1.7189 H   0  0  0  0  0  0  0  0  0  0  0  0
   -2.7734    2.9233   -1.2480 O   0  0  0  0  0  0  0  0  0  0  0  0
   -3.4921    2.1112    0.7370 O   0  0  0  0  0  0  0  0  0  0  0  0
    3.1706    2.4990   -1.0709 O   0  0  0  0  0  0  0  0  0  0  0  0
    2.3877    3.4484    0.8278 O   0  0  0  0  0  0  0  0  0  0  0  0
    0.4648   -2.6981    1.9432 O   0  0  0  0  0  0  0  0  0  0  0  0
   -0.0200    0.0308    1.5667 N   0  0  0  0  0  0  0  0  0  0  0  0
    0.0420   -0.3512   -1.2706 N   0  0  0  0  0  0  0  0  0  0  0  0
    2.0183   -1.5096   -0.0360 N   0  0  0  0  0  2  0  0  0  0  0  0
   -1.7950   -1.7074    0.0105 N   0  0  0  0  0  2  0  0  0  0  0  0
   -0.1355   -3.4225    2.2073 H   0  0  0  0  0  0  0  0  0  0  0  0
  1  3  1  0  0  0  0
  1 61  1  0  0  0  0
  1  2  1  0  0  0  0
  4 11  1  6  0  0  0
  4  1  1  0  0  0  0
  5  4  1  0  0  0  0
  5  6  1  0  0  0  0
  5 52  1  0  0  0  0
  6 16  1  6  0  0  0
  6 39  1  0  0  0  0
  7  8  1  6  0  0  0
  7 21  1  0  0  0  0
  7  6  1  0  0  0  0
  9 10  1  6  0  0  0
  9 30  1  0  0  0  0
  9  4  1  0  0  0  0
 11 57  1  0  0  0  0
 12 57  1  0  0  0  0
 12 13  1  0  0  0  0
 14 12  1  0  0  0  0
 15 12  1  0  0  0  0
 16 59  1  0  0  0  0
 17 20  1  0  0  0  0
 17 59  1  0  0  0  0
 17 18  1  0  0  0  0
 19 17  1  0  0  0  0
 21 22  1  6  0  0  0
 21 63  1  0  0  0  0
 22 24  2  0  0  0  0
 23 22  1  0  0  0  0
 24 26  1  0  0  0  0
 25 24  1  0  0  0  0
 26 27  1  0  0  0  0
 26 28  2  0  0  0  0
 28 29  1  0  0  0  0
 30 31  1  1  0  0  0
 30 64  1  0  0  0  0
 31 33  2  0  0  0  0
 32 31  1  0  0  0  0
 33 35  1  0  0  0  0
 34 33  1  0  0  0  0
 35 36  1  0  0  0  0
 35 37  2  0  0  0  0
 37 38  1  0  0  0  0
 39 61  1  0  0  0  0
 39 40  1  0  0  0  0
 39 41  1  0  0  0  0
 42 45  1  0  0  0  0
 42 43  1  0  0  0  0
 42 44  1  0  0  0  0
 45 47  1  0  0  0  0
 46 45  1  0  0  0  0
 48 62  1  0  0  0  0
 49 48  1  0  0  0  0
 50 48  1  0  0  0  0
 51 48  1  0  0  0  0
 52 53  1  0  0  0  0
 54  5  1  0  0  0  0
 55 54  1  0  0  0  0
 56 11  2  0  0  0  0
 58 16  2  0  0  0  0
 60 65  1  0  0  0  0
 60 45  1  0  0  0  0
 61 42  1  0  0  0  0
 62  9  1  0  0  0  0
 62  7  1  0  0  0  0
 63 28  1  0  0  0  0
 64 37  1  0  0  0  0
M  END
