3,4,5,6
 OpenBabel05122313063D

 42 41  0  0  0  0  0  0  0  0999 V2000
    1.2726    1.4466   -2.5669 O   0  0  0  0  0  1  0  0  0  0  0  0
   -1.1531    1.4753   -2.6536 O   0  0  0  0  0  0  0  0  0  0  0  0
    1.3975    0.2721   -1.9886 N   0  0  0  0  0  2  0  0  0  0  0  0
    1.3846   -1.9777   -0.9401 N   0  0  0  0  0  2  0  0  0  0  0  0
   -1.4671   -1.8821   -0.9228 N   0  0  0  0  0  2  0  0  0  0  0  0
   -1.3352    0.3068   -2.0407 N   0  0  0  0  0  2  0  0  0  0  0  0
    2.6337   -0.2634   -1.8946 C   0  0  0  0  0  0  0  0  0  0  0  0
    2.6112   -1.5544   -1.2837 C   0  0  0  0  0  0  0  0  0  0  0  0
    1.2008   -3.2741   -0.3166 C   0  0  0  0  0  0  0  0  0  0  0  0
   -0.1152   -3.9377   -0.7126 C   0  0  0  0  0  0  0  0  0  0  0  0
   -1.3508   -3.1641   -0.2582 C   0  0  0  0  0  0  0  0  0  0  0  0
   -2.6665   -1.4076   -1.2937 C   0  0  0  0  0  0  0  0  0  0  0  0
   -2.6063   -0.1332   -1.9386 C   0  0  0  0  0  0  0  0  0  0  0  0
    3.8291    0.5069   -2.3753 C   0  0  0  0  0  0  0  0  0  0  0  0
    4.3025    1.5587   -1.3586 C   0  0  0  0  0  0  0  0  0  0  0  0
    3.8571   -2.3696   -1.0682 C   0  0  0  0  0  0  0  0  0  0  0  0
   -3.9576   -2.1483   -1.0726 C   0  0  0  0  0  0  0  0  0  0  0  0
   -3.7472    0.7177   -2.4174 C   0  0  0  0  0  0  0  0  0  0  0  0
   -4.1059    1.8312   -1.4177 C   0  0  0  0  0  0  0  0  0  0  0  0
    2.0375   -3.9567   -0.5754 H   0  0  0  0  0  0  0  0  0  0  0  0
    1.2159   -3.1718    0.7987 H   0  0  0  0  0  0  0  0  0  0  0  0
   -0.1449   -4.0671   -1.8155 H   0  0  0  0  0  0  0  0  0  0  0  0
   -0.1457   -4.9499   -0.2563 H   0  0  0  0  0  0  0  0  0  0  0  0
   -1.2996   -3.0083    0.8467 H   0  0  0  0  0  0  0  0  0  0  0  0
   -2.2502   -3.7872   -0.4433 H   0  0  0  0  0  0  0  0  0  0  0  0
    4.6552   -0.1904   -2.6222 H   0  0  0  0  0  0  0  0  0  0  0  0
    3.5399    1.0145   -3.3183 H   0  0  0  0  0  0  0  0  0  0  0  0
    3.4841    2.2720   -1.1396 H   0  0  0  0  0  0  0  0  0  0  0  0
    4.6000    1.0892   -0.3995 H   0  0  0  0  0  0  0  0  0  0  0  0
    5.1661    2.1354   -1.7485 H   0  0  0  0  0  0  0  0  0  0  0  0
    4.7586   -1.7924   -1.3393 H   0  0  0  0  0  0  0  0  0  0  0  0
    3.9689   -2.6812   -0.0089 H   0  0  0  0  0  0  0  0  0  0  0  0
    3.8571   -3.2971   -1.6809 H   0  0  0  0  0  0  0  0  0  0  0  0
   -3.9996   -3.0902   -1.6614 H   0  0  0  0  0  0  0  0  0  0  0  0
   -4.0949   -2.4244   -0.0069 H   0  0  0  0  0  0  0  0  0  0  0  0
   -4.8235   -1.5330   -1.3757 H   0  0  0  0  0  0  0  0  0  0  0  0
   -3.4471    1.1775   -3.3811 H   0  0  0  0  0  0  0  0  0  0  0  0
   -4.6327    0.0838   -2.6255 H   0  0  0  0  0  0  0  0  0  0  0  0
   -4.9079    2.4865   -1.8148 H   0  0  0  0  0  0  0  0  0  0  0  0
   -4.4578    1.4086   -0.4538 H   0  0  0  0  0  0  0  0  0  0  0  0
   -3.2187    2.4600   -1.2063 H   0  0  0  0  0  0  0  0  0  0  0  0
   -0.0412    1.5572   -2.7012 H   0  0  0  0  0  0  0  0  0  0  0  0
  1  3  1  0  0  0  0
  2  6  1  0  0  0  0
  3  7  1  0  0  0  0
  4  9  1  0  0  0  0
  5 11  1  0  0  0  0
  6 13  1  0  0  0  0
  7  8  2  0  0  0  0
  8 16  1  0  0  0  0
  8  4  1  0  0  0  0
  9 21  1  0  0  0  0
 10  9  1  0  0  0  0
 10 11  1  0  0  0  0
 10 23  1  0  0  0  0
 11 24  1  0  0  0  0
 12 17  1  0  0  0  0
 12  5  1  0  0  0  0
 13 12  2  0  0  0  0
 14  7  1  0  0  0  0
 14 15  1  0  0  0  0
 15 28  1  0  0  0  0
 15 29  1  0  0  0  0
 16 32  1  0  0  0  0
 17 35  1  0  0  0  0
 18 13  1  0  0  0  0
 18 19  1  0  0  0  0
 19 41  1  0  0  0  0
 19 40  1  0  0  0  0
 20  9  1  0  0  0  0
 22 10  1  0  0  0  0
 25 11  1  0  0  0  0
 26 14  1  0  0  0  0
 27 14  1  0  0  0  0
 30 15  1  0  0  0  0
 31 16  1  0  0  0  0
 33 16  1  0  0  0  0
 34 17  1  0  0  0  0
 36 17  1  0  0  0  0
 37 18  1  0  0  0  0
 38 18  1  0  0  0  0
 39 19  1  0  0  0  0
 42  2  1  0  0  0  0
M  END
