3,4,5,6
 OpenBabel05122313063D

 76 83  0  0  0  0  0  0  0  0999 V2000
    0.8391    4.3931   -0.7632 O   0  0  0  0  0  0  0  0  0  0  0  0
   -0.7962    4.3953    0.8506 O   0  0  0  0  0  0  0  0  0  0  0  0
    1.4539   -2.8818    0.0163 N   0  0  0  0  0  0  0  0  0  0  0  0
    1.4588    0.0229   -0.0313 N   0  0  0  0  0  2  0  0  0  0  0  0
   -1.4624    0.0346   -0.0106 N   0  0  0  0  0  0  0  0  0  0  0  0
   -1.4806   -2.8704   -0.0029 N   0  0  0  0  0  0  0  0  0  0  0  0
    1.2363   -4.2425   -0.0194 C   0  0  0  0  0  0  0  0  0  0  0  0
    2.5016   -4.9455   -0.0589 C   0  0  0  0  0  0  0  0  0  0  0  0
    2.6160   -6.0356   -0.0987 H   0  0  0  0  0  0  0  0  0  0  0  0
    3.4873   -3.9877   -0.0541 C   0  0  0  0  0  0  0  0  0  0  0  0
    4.5713   -4.1353   -0.0971 H   0  0  0  0  0  0  0  0  0  0  0  0
    2.8185   -2.6978   -0.0008 C   0  0  0  0  0  0  0  0  0  0  0  0
    3.4768   -1.4429    0.0008 C   0  0  0  0  0  0  0  0  0  0  0  0
    2.8243   -0.1876   -0.0031 C   0  0  0  0  0  0  0  0  0  0  0  0
    3.5129    1.0899    0.0475 C   0  0  0  0  0  0  0  0  0  0  0  0
    4.5986    1.2210    0.0979 H   0  0  0  0  0  0  0  0  0  0  0  0
    2.5471    2.0627    0.0333 C   0  0  0  0  0  0  0  0  0  0  0  0
    2.6850    3.1470    0.0437 H   0  0  0  0  0  0  0  0  0  0  0  0
    1.2585    1.3884   -0.0117 C   0  0  0  0  0  0  0  0  0  0  0  0
    0.0059    2.0548    0.0217 C   0  0  0  0  0  0  0  0  0  0  0  0
   -1.2519    1.3978    0.0435 C   0  0  0  0  0  0  0  0  0  0  0  0
   -2.5355    2.0809    0.0992 C   0  0  0  0  0  0  0  0  0  0  0  0
   -2.6622    3.1637    0.1793 H   0  0  0  0  0  0  0  0  0  0  0  0
   -3.5086    1.1154    0.0800 C   0  0  0  0  0  0  0  0  0  0  0  0
   -4.5934    1.2533    0.1311 H   0  0  0  0  0  0  0  0  0  0  0  0
   -2.8295   -0.1659    0.0039 C   0  0  0  0  0  0  0  0  0  0  0  0
   -3.4919   -1.4158   -0.0223 C   0  0  0  0  0  0  0  0  0  0  0  0
   -2.8434   -2.6757   -0.0354 C   0  0  0  0  0  3  0  0  0  0  0  0
   -3.5214   -3.9598   -0.1080 C   0  0  0  0  0  0  0  0  0  0  0  0
   -4.6059   -4.0986   -0.1665 H   0  0  0  0  0  0  0  0  0  0  0  0
   -2.5432   -4.9254   -0.1044 C   0  0  0  0  0  0  0  0  0  0  0  0
   -2.6657   -6.0143   -0.1515 H   0  0  0  0  0  0  0  0  0  0  0  0
   -1.2732   -4.2326   -0.0420 C   0  0  0  0  0  0  0  0  0  0  0  0
   -0.0209   -4.8631   -0.0388 C   0  0  0  0  0  0  0  0  0  0  0  0
   -0.0249   -5.9626   -0.0697 H   0  0  0  0  0  0  0  0  0  0  0  0
    4.9714   -1.4494    0.0030 C   0  0  0  0  0  0  0  0  0  0  0  0
    5.6883   -1.9605    1.1067 C   0  0  0  0  0  0  0  0  0  0  0  0
    5.1305   -2.3450    1.9739 H   0  0  0  0  0  0  0  0  0  0  0  0
    7.0909   -1.9688    1.1083 C   0  0  0  0  0  0  0  0  0  0  0  0
    7.6330   -2.3653    1.9805 H   0  0  0  0  0  0  0  0  0  0  0  0
    7.8013   -1.4678    0.0058 C   0  0  0  0  0  0  0  0  0  0  0  0
    8.9019   -1.4750    0.0069 H   0  0  0  0  0  0  0  0  0  0  0  0
    7.0996   -0.9578   -1.0982 C   0  0  0  0  0  0  0  0  0  0  0  0
    7.6485   -0.5684   -1.9692 H   0  0  0  0  0  0  0  0  0  0  0  0
    5.6970   -0.9482   -1.0996 C   0  0  0  0  0  0  0  0  0  0  0  0
    5.1457   -0.5565   -1.9677 H   0  0  0  0  0  0  0  0  0  0  0  0
    0.7314    5.7743   -0.3142 C   0  0  0  0  0  0  0  0  0  0  0  0
   -0.6705    5.7798    0.4163 C   0  0  0  0  0  0  0  0  0  0  0  0
    1.9051    6.0268    0.6399 C   0  0  0  0  0  0  0  0  0  0  0  0
    1.8523    5.3656    1.5271 H   0  0  0  0  0  0  0  0  0  0  0  0
    1.9328    7.0783    0.9862 H   0  0  0  0  0  0  0  0  0  0  0  0
    2.8536    5.8145    0.1087 H   0  0  0  0  0  0  0  0  0  0  0  0
    0.8283    6.6911   -1.5292 C   0  0  0  0  0  0  0  0  0  0  0  0
    0.6668    7.7482   -1.2375 H   0  0  0  0  0  0  0  0  0  0  0  0
    0.0890    6.4194   -2.3045 H   0  0  0  0  0  0  0  0  0  0  0  0
    1.8371    6.6093   -1.9788 H   0  0  0  0  0  0  0  0  0  0  0  0
   -0.7552    6.6847    1.6412 C   0  0  0  0  0  0  0  0  0  0  0  0
   -0.5797    7.7426    1.3607 H   0  0  0  0  0  0  0  0  0  0  0  0
   -0.0198    6.3950    2.4136 H   0  0  0  0  0  0  0  0  0  0  0  0
   -1.7652    6.6116    2.0899 H   0  0  0  0  0  0  0  0  0  0  0  0
   -1.8406    6.0575   -0.5350 C   0  0  0  0  0  0  0  0  0  0  0  0
   -1.8534    7.1125   -0.8714 H   0  0  0  0  0  0  0  0  0  0  0  0
   -2.7922    5.8539   -0.0058 H   0  0  0  0  0  0  0  0  0  0  0  0
   -1.7974    5.4036   -1.4280 H   0  0  0  0  0  0  0  0  0  0  0  0
   -4.9864   -1.4095   -0.0360 C   0  0  0  0  0  0  0  0  0  0  0  0
   -5.7201   -1.9324    1.0509 C   0  0  0  0  0  0  0  0  0  0  0  0
   -5.1755   -2.3363    1.9177 H   0  0  0  0  0  0  0  0  0  0  0  0
   -7.1226   -1.9277    1.0371 C   0  0  0  0  0  0  0  0  0  0  0  0
   -7.6780   -2.3336    1.8964 H   0  0  0  0  0  0  0  0  0  0  0  0
   -7.8162   -1.4014   -0.0644 C   0  0  0  0  0  0  0  0  0  0  0  0
   -8.9167   -1.3983   -0.0754 H   0  0  0  0  0  0  0  0  0  0  0  0
   -7.0977   -0.8792   -1.1517 C   0  0  0  0  0  0  0  0  0  0  0  0
   -7.6334   -0.4698   -2.0219 H   0  0  0  0  0  0  0  0  0  0  0  0
   -5.6952   -0.8827   -1.1376 C   0  0  0  0  0  0  0  0  0  0  0  0
   -5.1307   -0.4812   -1.9927 H   0  0  0  0  0  0  0  0  0  0  0  0
    0.0156    3.6263    0.0385 B   0  0  0  0  0  0  0  0  0  0  0  0
  1 47  1  0  0  0  0
  1 76  1  0  0  0  0
  4 19  1  0  0  0  0
  4 14  1  0  0  0  0
  5 26  1  0  0  0  0
  5 21  2  0  0  0  0
  7  3  1  0  0  0  0
  8 10  2  0  0  0  0
  8  7  1  0  0  0  0
  9  8  1  0  0  0  0
 10 12  1  0  0  0  0
 11 10  1  0  0  0  0
 12 13  1  0  0  0  0
 12  3  2  0  0  0  0
 13 36  1  0  0  0  0
 14 13  2  0  0  0  0
 14 15  1  0  0  0  0
 15 16  1  0  0  0  0
 17 18  1  0  0  0  0
 17 15  2  0  0  0  0
 19 20  2  0  0  0  0
 19 17  1  0  0  0  0
 20 76  1  0  0  0  0
 20 21  1  0  0  0  0
 21 22  1  0  0  0  0
 22 23  1  0  0  0  0
 24 22  2  0  0  0  0
 24 25  1  0  0  0  0
 26 24  1  0  0  0  0
 27 26  2  0  0  0  0
 28 27  1  0  0  0  0
 28  6  1  0  0  0  0
 29 31  2  0  0  0  0
 29 28  1  0  0  0  0
 30 29  1  0  0  0  0
 31 33  1  0  0  0  0
 32 31  1  0  0  0  0
 33 34  1  0  0  0  0
 33  6  2  0  0  0  0
 34  7  2  0  0  0  0
 35 34  1  0  0  0  0
 36 37  1  0  0  0  0
 37 39  2  0  0  0  0
 37 38  1  0  0  0  0
 39 40  1  0  0  0  0
 41 42  1  0  0  0  0
 41 39  1  0  0  0  0
 43 41  2  0  0  0  0
 44 43  1  0  0  0  0
 45 43  1  0  0  0  0
 45 36  2  0  0  0  0
 46 45  1  0  0  0  0
 47 48  1  0  0  0  0
 47 49  1  0  0  0  0
 48  2  1  0  0  0  0
 48 57  1  0  0  0  0
 49 51  1  0  0  0  0
 49 50  1  0  0  0  0
 52 49  1  0  0  0  0
 53 54  1  0  0  0  0
 53 47  1  0  0  0  0
 55 53  1  0  0  0  0
 56 53  1  0  0  0  0
 57 60  1  0  0  0  0
 57 59  1  0  0  0  0
 58 57  1  0  0  0  0
 61 63  1  0  0  0  0
 61 48  1  0  0  0  0
 62 61  1  0  0  0  0
 64 61  1  0  0  0  0
 65 27  1  0  0  0  0
 65 66  1  0  0  0  0
 66 67  1  0  0  0  0
 68 66  2  0  0  0  0
 68 69  1  0  0  0  0
 70 68  1  0  0  0  0
 71 70  1  0  0  0  0
 72 74  1  0  0  0  0
 72 70  2  0  0  0  0
 73 72  1  0  0  0  0
 74 65  2  0  0  0  0
 75 74  1  0  0  0  0
 76  2  1  0  0  0  0
M  END
