16,17,18,19
 OpenBabel05122313063D

 64 71  0  0  1  0  0  0  0  0999 V2000
   -5.0543   -0.2792   -2.0694 F   0  0  0  0  0  0  0  0  0  0  0  0
   -7.7582   -0.5082   -2.0305 F   0  0  0  0  0  0  0  0  0  0  0  0
   -9.0084   -1.6716    0.1107 F   0  0  0  0  0  0  0  0  0  0  0  0
   -7.5335   -2.5916    2.2272 F   0  0  0  0  0  0  0  0  0  0  0  0
   -4.8316   -2.3396    2.2166 F   0  0  0  0  0  0  0  0  0  0  0  0
   -1.0414    4.0503   -2.1396 F   0  0  0  0  0  0  0  0  0  0  0  0
   -1.0518    6.7656   -2.1269 F   0  0  0  0  0  0  0  0  0  0  0  0
   -0.0002    8.1333    0.0001 F   0  0  0  0  0  0  0  0  0  0  0  0
    1.0515    6.7655    2.1271 F   0  0  0  0  0  0  0  0  0  0  0  0
    1.0413    4.0502    2.1395 F   0  0  0  0  0  0  0  0  0  0  0  0
    5.0540   -0.2790    2.0695 F   0  0  0  0  0  0  0  0  0  0  0  0
    7.7579   -0.5079    2.0310 F   0  0  0  0  0  0  0  0  0  0  0  0
    9.0084   -1.6714   -0.1099 F   0  0  0  0  0  0  0  0  0  0  0  0
    7.5339   -2.5916   -2.2266 F   0  0  0  0  0  0  0  0  0  0  0  0
    4.8320   -2.3396   -2.2164 F   0  0  0  0  0  0  0  0  0  0  0  0
    1.2587   -2.4073   -0.0208 N   0  0  0  0  0  0  0  0  0  0  0  0
   -1.2586   -2.4074    0.0203 N   0  0  0  0  0  0  0  0  0  0  0  0
   -1.4666    0.4655    0.0095 N   0  0  0  0  0  0  0  0  0  0  0  0
    1.4666    0.4655   -0.0099 N   0  0  0  0  0  0  0  0  0  0  0  0
    2.6270   -2.4115   -0.0389 C   0  0  0  0  0  0  0  0  0  0  0  0
    3.0165   -3.8071   -0.0301 C   0  0  0  0  0  0  0  0  0  0  0  0
    4.0452   -4.1852   -0.0338 H   0  0  0  0  0  0  0  0  0  0  0  0
    1.8493   -4.5803   -0.0144 C   0  0  0  0  0  0  0  0  0  0  0  0
    1.7980   -5.6754   -0.0067 H   0  0  0  0  0  0  0  0  0  0  0  0
    0.7258   -3.6800   -0.0078 C   0  0  0  0  0  3  0  0  0  0  0  0
   -0.7257   -3.6800    0.0076 C   0  0  0  0  0  0  0  0  0  0  0  0
   -1.8492   -4.5804    0.0145 C   0  0  0  0  0  0  0  0  0  0  0  0
   -1.7978   -5.6755    0.0069 H   0  0  0  0  0  0  0  0  0  0  0  0
   -3.0164   -3.8072    0.0301 C   0  0  0  0  0  0  0  0  0  0  0  0
   -4.0450   -4.1854    0.0340 H   0  0  0  0  0  0  0  0  0  0  0  0
   -2.6269   -2.4116    0.0387 C   0  0  0  0  0  3  0  0  0  0  0  0
   -3.3647   -1.1824    0.0556 C   0  0  1  0  0  3  0  0  0  0  0  0
   -2.8166    0.1440    0.0533 C   0  0  0  0  0  3  0  0  0  0  0  0
   -3.5305    1.4064    0.1156 C   0  0  0  0  0  0  0  0  0  0  0  0
   -4.6195    1.5138    0.1747 H   0  0  0  0  0  0  0  0  0  0  0  0
   -2.6011    2.4315    0.1016 C   0  0  0  0  0  0  0  0  0  0  0  0
   -2.8095    3.5061    0.1469 H   0  0  0  0  0  0  0  0  0  0  0  0
   -1.2819    1.8304    0.0302 C   0  0  0  0  0  0  0  0  0  0  0  0
   -0.0000    2.4671   -0.0001 C   0  0  1  0  0  3  0  0  0  0  0  0
    1.2819    1.8304   -0.0305 C   0  0  0  0  0  3  0  0  0  0  0  0
    2.6010    2.4316   -0.1017 C   0  0  0  0  0  0  0  0  0  0  0  0
    2.8094    3.5062   -0.1468 H   0  0  0  0  0  0  0  0  0  0  0  0
    3.5305    1.4065   -0.1157 C   0  0  0  0  0  0  0  0  0  0  0  0
    4.6194    1.5140   -0.1746 H   0  0  0  0  0  0  0  0  0  0  0  0
    2.8166    0.1441   -0.0535 C   0  0  0  0  0  0  0  0  0  0  0  0
    3.3647   -1.1823   -0.0557 C   0  0  1  0  0  3  0  0  0  0  0  0
   -4.8484   -1.2987    0.0738 C   0  0  0  0  0  0  0  0  0  0  0  0
   -5.6369   -0.8356   -0.9990 C   0  0  0  0  0  0  0  0  0  0  0  0
   -7.0364   -0.9509   -0.9964 C   0  0  0  0  0  0  0  0  0  0  0  0
   -7.6794   -1.5532    0.0986 C   0  0  0  0  0  0  0  0  0  0  0  0
   -6.9204   -2.0292    1.1812 C   0  0  0  0  0  0  0  0  0  0  0  0
   -5.5225   -1.8962    1.1579 C   0  0  0  0  0  0  0  0  0  0  0  0
   -0.0001    3.9565   -0.0000 C   0  0  0  0  0  0  0  0  0  0  0  0
   -0.5342    4.6910   -1.0778 C   0  0  0  0  0  0  0  0  0  0  0  0
   -0.5439    6.0952   -1.0881 C   0  0  0  0  0  0  0  0  0  0  0  0
   -0.0001    6.7989    0.0001 C   0  0  0  0  0  0  0  0  0  0  0  0
    0.5436    6.0952    1.0882 C   0  0  0  0  0  0  0  0  0  0  0  0
    0.5341    4.6909    1.0778 C   0  0  0  0  0  0  0  0  0  0  0  0
    4.8484   -1.2986   -0.0737 C   0  0  0  0  0  0  0  0  0  0  0  0
    5.6368   -0.8353    0.9992 C   0  0  0  0  0  0  0  0  0  0  0  0
    7.0363   -0.9507    0.9968 C   0  0  0  0  0  0  0  0  0  0  0  0
    7.6794   -1.5530   -0.0980 C   0  0  0  0  0  0  0  0  0  0  0  0
    6.9206   -2.0291   -1.1807 C   0  0  0  0  0  0  0  0  0  0  0  0
    5.5228   -1.8962   -1.1577 C   0  0  0  0  0  0  0  0  0  0  0  0
  1 48  1  0  0  0  0
  2 49  1  0  0  0  0
  6 54  1  0  0  0  0
  7 55  1  0  0  0  0
 13 62  1  0  0  0  0
 14 63  1  0  0  0  0
 15 64  1  0  0  0  0
 16 25  1  0  0  0  0
 17 31  1  0  0  0  0
 18 38  2  0  0  0  0
 18 33  1  0  0  0  0
 20 21  1  0  0  0  0
 20 16  2  0  0  0  0
 21 23  2  0  0  0  0
 22 21  1  0  0  0  0
 23 25  1  0  0  0  0
 23 24  1  0  0  0  0
 25 26  1  0  0  0  0
 26 27  1  0  0  0  0
 26 17  2  0  0  0  0
 27 29  2  0  0  0  0
 28 27  1  0  0  0  0
 29 30  1  0  0  0  0
 29 31  1  0  0  0  0
 31 32  1  0  0  0  0
 32 47  1  6  0  0  0
 33 32  1  0  0  0  0
 33 34  1  0  0  0  0
 34 35  1  0  0  0  0
 36 34  2  0  0  0  0
 36 37  1  0  0  0  0
 38 36  1  0  0  0  0
 39 53  1  6  0  0  0
 39 38  1  0  0  0  0
 40 19  1  0  0  0  0
 40 39  1  0  0  0  0
 41 40  1  0  0  0  0
 42 41  1  0  0  0  0
 43 41  2  0  0  0  0
 43 45  1  0  0  0  0
 44 43  1  0  0  0  0
 45 19  2  0  0  0  0
 46 59  1  1  0  0  0
 46 45  1  0  0  0  0
 46 20  1  0  0  0  0
 47 52  1  0  0  0  0
 48 49  1  0  0  0  0
 48 47  2  0  0  0  0
 49 50  2  0  0  0  0
 50  3  1  0  0  0  0
 50 51  1  0  0  0  0
 51  4  1  0  0  0  0
 52 51  2  0  0  0  0
 52  5  1  0  0  0  0
 53 58  1  0  0  0  0
 54 53  2  0  0  0  0
 55 54  1  0  0  0  0
 55 56  2  0  0  0  0
 56  8  1  0  0  0  0
 56 57  1  0  0  0  0
 57  9  1  0  0  0  0
 58 57  2  0  0  0  0
 58 10  1  0  0  0  0
 59 60  1  0  0  0  0
 60 11  1  0  0  0  0
 61 60  2  0  0  0  0
 61 12  1  0  0  0  0
 62 61  1  0  0  0  0
 63 64  1  0  0  0  0
 63 62  2  0  0  0  0
 64 59  2  0  0  0  0
M  END
