1,30,40,69
 OpenBabel05122313063D

 78 82  0  0  1  0  0  0  0  0999 V2000
    0.2355   -1.5805   -0.6471 N   0  0  0  0  0  2  0  0  0  0  0  0
   -0.3765   -1.1941   -2.1560 S   0  0  0  0  0  0  0  0  0  0  0  0
   -0.3919   -2.3606   -3.0669 O   0  0  0  0  0  0  0  0  0  0  0  0
    0.4065    0.0364   -2.4842 O   0  0  0  0  0  0  0  0  0  0  0  0
   -2.0731   -0.6318   -1.9500 C   0  0  0  0  0  0  0  0  0  0  0  0
   -2.3017    0.6763   -1.4918 C   0  0  0  0  0  0  0  0  0  0  0  0
   -3.6161    1.1309   -1.3632 C   0  0  0  0  0  0  0  0  0  0  0  0
   -4.7133    0.3041   -1.6885 C   0  0  0  0  0  0  0  0  0  0  0  0
   -4.4526   -1.0031   -2.1471 C   0  0  0  0  0  0  0  0  0  0  0  0
   -3.1387   -1.4759   -2.2880 C   0  0  0  0  0  0  0  0  0  0  0  0
   -2.9307   -2.4792   -2.6882 H   0  0  0  0  0  0  0  0  0  0  0  0
   -5.2954   -1.6587   -2.4180 H   0  0  0  0  0  0  0  0  0  0  0  0
   -6.1194    0.8316   -1.5717 C   0  0  0  0  0  0  0  0  0  0  0  0
   -6.3265    1.5844   -2.3618 H   0  0  0  0  0  0  0  0  0  0  0  0
   -6.2761    1.3376   -0.5973 H   0  0  0  0  0  0  0  0  0  0  0  0
   -6.8733    0.0271   -1.6706 H   0  0  0  0  0  0  0  0  0  0  0  0
   -3.7956    2.1548   -1.0003 H   0  0  0  0  0  0  0  0  0  0  0  0
   -1.4504    1.3250   -1.2490 H   0  0  0  0  0  0  0  0  0  0  0  0
    0.3017   -2.8609   -0.1420 C   0  0  0  0  0  0  0  0  0  0  0  0
    1.4432   -3.2693    0.6471 C   0  0  0  0  0  0  0  0  0  0  0  0
    1.4621   -4.5780    1.1986 C   0  0  0  0  0  0  0  0  0  0  0  0
    0.4204   -5.4810    1.0064 C   0  0  0  0  0  0  0  0  0  0  0  0
   -0.6772   -5.0877    0.2137 C   0  0  0  0  0  0  0  0  0  0  0  0
   -0.7313   -3.8151   -0.3519 C   0  0  0  0  0  0  0  0  0  0  0  0
   -1.5974   -3.5226   -0.9592 H   0  0  0  0  0  0  0  0  0  0  0  0
   -1.5093   -5.7878    0.0410 H   0  0  0  0  0  0  0  0  0  0  0  0
    0.4587   -6.4840    1.4548 H   0  0  0  0  0  0  0  0  0  0  0  0
    2.3416   -4.8754    1.7924 H   0  0  0  0  0  0  0  0  0  0  0  0
    2.6570   -2.4848    0.8273 C   0  0  0  0  0  3  0  0  0  0  0  0
    2.8002   -1.2221    0.5726 N   0  0  0  0  0  2  0  0  0  0  0  0
    4.0611   -0.4941    0.6116 C   0  0  1  0  0  0  0  0  0  0  0  0
    5.3366   -1.3397    0.6433 C   0  0  0  0  0  0  0  0  0  0  0  0
    6.5953   -0.4649    0.6089 C   0  0  0  0  0  0  0  0  0  0  0  0
    6.6434    0.1460    1.5376 H   0  0  0  0  0  0  0  0  0  0  0  0
    7.5006   -1.1059    0.6100 H   0  0  0  0  0  0  0  0  0  0  0  0
    5.3310   -2.0278   -0.2316 H   0  0  0  0  0  0  0  0  0  0  0  0
    5.3439   -1.9784    1.5510 H   0  0  0  0  0  0  0  0  0  0  0  0
    4.0298    0.1531    1.5212 H   0  0  0  0  0  0  0  0  0  0  0  0
    3.5245   -3.0735    1.1977 H   0  0  0  0  0  0  0  0  0  0  0  0
    0.2356    1.5805    0.6471 N   0  0  0  0  0  2  0  0  0  0  0  0
   -0.3763    1.1941    2.1560 S   0  0  0  0  0  0  0  0  0  0  0  0
   -0.3915    2.3607    3.0669 O   0  0  0  0  0  0  0  0  0  0  0  0
    0.4068   -0.0364    2.4843 O   0  0  0  0  0  0  0  0  0  0  0  0
   -2.0729    0.6320    1.9501 C   0  0  0  0  0  0  0  0  0  0  0  0
   -2.3015   -0.6761    1.4917 C   0  0  0  0  0  0  0  0  0  0  0  0
   -3.6159   -1.1307    1.3630 C   0  0  0  0  0  0  0  0  0  0  0  0
   -4.7130   -0.3039    1.6886 C   0  0  0  0  0  0  0  0  0  0  0  0
   -4.4523    1.0032    2.1475 C   0  0  0  0  0  0  0  0  0  0  0  0
   -3.1384    1.4759    2.2884 C   0  0  0  0  0  0  0  0  0  0  0  0
   -2.9304    2.4792    2.6887 H   0  0  0  0  0  0  0  0  0  0  0  0
   -5.2951    1.6588    2.4185 H   0  0  0  0  0  0  0  0  0  0  0  0
   -6.1192   -0.8314    1.5717 C   0  0  0  0  0  0  0  0  0  0  0  0
   -6.3263   -1.5844    2.3616 H   0  0  0  0  0  0  0  0  0  0  0  0
   -6.2759   -1.3372    0.5973 H   0  0  0  0  0  0  0  0  0  0  0  0
   -6.8731   -0.0269    1.6708 H   0  0  0  0  0  0  0  0  0  0  0  0
   -3.7954   -2.1546    1.0000 H   0  0  0  0  0  0  0  0  0  0  0  0
   -1.4502   -1.3248    1.2487 H   0  0  0  0  0  0  0  0  0  0  0  0
    0.3019    2.8609    0.1420 C   0  0  0  0  0  0  0  0  0  0  0  0
    1.4435    3.2693   -0.6471 C   0  0  0  0  0  0  0  0  0  0  0  0
    1.4625    4.5779   -1.1986 C   0  0  0  0  0  0  0  0  0  0  0  0
    0.4208    5.4810   -1.0064 C   0  0  0  0  0  0  0  0  0  0  0  0
   -0.6767    5.0878   -0.2137 C   0  0  0  0  0  0  0  0  0  0  0  0
   -0.7310    3.8152    0.3519 C   0  0  0  0  0  0  0  0  0  0  0  0
   -1.5970    3.5228    0.9592 H   0  0  0  0  0  0  0  0  0  0  0  0
   -1.5087    5.7880   -0.0409 H   0  0  0  0  0  0  0  0  0  0  0  0
    0.4593    6.4840   -1.4548 H   0  0  0  0  0  0  0  0  0  0  0  0
    2.3420    4.8752   -1.7925 H   0  0  0  0  0  0  0  0  0  0  0  0
    2.6573    2.4847   -0.8274 C   0  0  0  0  0  3  0  0  0  0  0  0
    2.8003    1.2220   -0.5727 N   0  0  0  0  0  2  0  0  0  0  0  0
    4.0611    0.4938   -0.6117 C   0  0  1  0  0  0  0  0  0  0  0  0
    5.3368    1.3394   -0.6434 C   0  0  0  0  0  0  0  0  0  0  0  0
    6.5953    0.4644   -0.6089 C   0  0  0  0  0  0  0  0  0  0  0  0
    6.6434   -0.1465   -1.5376 H   0  0  0  0  0  0  0  0  0  0  0  0
    7.5008    1.1053   -0.6100 H   0  0  0  0  0  0  0  0  0  0  0  0
    5.3311    2.0274    0.2316 H   0  0  0  0  0  0  0  0  0  0  0  0
    5.3441    1.9780   -1.5510 H   0  0  0  0  0  0  0  0  0  0  0  0
    4.0298   -0.1534   -1.5213 H   0  0  0  0  0  0  0  0  0  0  0  0
    3.5248    3.0733   -1.1977 H   0  0  0  0  0  0  0  0  0  0  0  0
  1 19  1  0  0  0  0
  2  5  1  0  0  0  0
  2  1  1  0  0  0  0
  3  2  2  0  0  0  0
  4  2  2  0  0  0  0
  5  6  1  0  0  0  0
  6  7  2  0  0  0  0
  6 18  1  0  0  0  0
  7 17  1  0  0  0  0
  8 13  1  0  0  0  0
  8  7  1  0  0  0  0
  9  8  2  0  0  0  0
 10  9  1  0  0  0  0
 10  5  2  0  0  0  0
 11 10  1  0  0  0  0
 12  9  1  0  0  0  0
 13 15  1  0  0  0  0
 14 13  1  0  0  0  0
 16 13  1  0  0  0  0
 19 20  1  0  0  0  0
 20 29  1  0  0  0  0
 20 21  2  0  0  0  0
 21 28  1  0  0  0  0
 22 21  1  0  0  0  0
 22 27  1  0  0  0  0
 23 22  2  0  0  0  0
 24 19  2  0  0  0  0
 24 23  1  0  0  0  0
 25 24  1  0  0  0  0
 26 23  1  0  0  0  0
 29 39  1  0  0  0  0
 30 31  1  0  0  0  0
 30 29  1  0  0  0  0
 31 32  1  0  0  0  0
 31 38  1  1  0  0  0
 32 37  1  0  0  0  0
 33 35  1  0  0  0  0
 33 32  1  0  0  0  0
 33 34  1  0  0  0  0
 36 32  1  0  0  0  0
 40 41  1  0  0  0  0
 41 43  2  0  0  0  0
 41 42  2  0  0  0  0
 44 41  1  0  0  0  0
 44 49  1  0  0  0  0
 45 44  2  0  0  0  0
 46 45  1  0  0  0  0
 46 47  2  0  0  0  0
 47 48  1  0  0  0  0
 48 49  2  0  0  0  0
 48 51  1  0  0  0  0
 49 50  1  0  0  0  0
 52 55  1  0  0  0  0
 52 47  1  0  0  0  0
 52 53  1  0  0  0  0
 54 52  1  0  0  0  0
 56 46  1  0  0  0  0
 57 45  1  0  0  0  0
 58 63  1  0  0  0  0
 58 40  1  0  0  0  0
 59 58  2  0  0  0  0
 60 61  2  0  0  0  0
 60 59  1  0  0  0  0
 61 62  1  0  0  0  0
 62 65  1  0  0  0  0
 62 63  2  0  0  0  0
 63 64  1  0  0  0  0
 66 61  1  0  0  0  0
 67 60  1  0  0  0  0
 68 59  1  0  0  0  0
 68 69  1  0  0  0  0
 70 77  1  6  0  0  0
 70 69  1  0  0  0  0
 70 31  1  0  0  0  0
 71 70  1  0  0  0  0
 71 72  1  0  0  0  0
 71 75  1  0  0  0  0
 72 33  1  0  0  0  0
 73 72  1  0  0  0  0
 74 72  1  0  0  0  0
 76 71  1  0  0  0  0
 78 68  1  0  0  0  0
M  END
