9,15,18,26
 OpenBabel05122313063D

 48 49  0  0  1  0  0  0  0  0999 V2000
    1.0235   -1.0308    1.4154 N   0  0  0  0  0  0  0  0  0  0  0  0
    1.9868   -0.5820    2.2399 C   0  0  0  0  0  0  0  0  0  0  0  0
    3.2720   -1.1401    2.3015 C   0  0  0  0  0  0  0  0  0  0  0  0
    3.5607   -2.2422    1.4798 C   0  0  0  0  0  0  0  0  0  0  0  0
    2.5655   -2.7128    0.6143 C   0  0  0  0  0  0  0  0  0  0  0  0
    1.3206   -2.0587    0.5897 C   0  0  0  0  0  0  0  0  0  0  0  0
    0.2925   -2.4998   -0.4286 C   0  0  0  0  0  0  0  0  0  0  0  0
    0.3919   -3.6204   -0.9685 O   0  0  0  0  0  0  0  0  0  0  0  0
   -0.6448   -1.5670   -0.7404 N   0  0  0  0  0  2  0  0  0  0  0  0
   -1.5563   -1.9750   -1.7979 C   0  0  0  0  0  0  0  0  0  0  0  0
   -2.3607   -0.7988   -2.3501 C   0  0  0  0  0  0  0  0  0  0  0  0
   -2.8987    0.0288   -1.2809 N   0  0  0  0  0  0  0  0  0  0  0  0
   -3.7319   -0.5859   -0.2685 C   0  0  0  0  0  0  0  0  0  0  0  0
   -3.4015   -0.0081    1.1082 C   0  0  0  0  0  0  0  0  0  0  0  0
   -1.9894   -0.2276    1.4748 N   0  0  0  0  0  0  0  0  0  0  0  0
   -1.5606    0.6011    2.6363 C   0  0  0  0  0  0  0  0  0  0  0  0
   -1.2690    2.0143    2.1300 C   0  0  0  0  0  0  0  0  0  0  0  0
   -0.5461    1.8437    0.8887 N   0  0  0  0  0  2  0  0  0  0  0  0
    0.3944    2.7294    0.4836 C   0  0  0  0  0  0  0  0  0  0  0  0
    0.6978    3.8131    1.0070 O   0  0  0  0  0  0  0  0  0  0  0  0
    1.0756    2.1728   -0.7365 C   0  0  1  0  0  3  0  0  0  0  0  0
    2.0705    2.8637   -1.4309 C   0  0  0  0  0  0  0  0  0  0  0  0
    2.6717    2.2595   -2.5437 C   0  0  0  0  0  0  0  0  0  0  0  0
    2.2510    0.9712   -2.9138 C   0  0  0  0  0  0  0  0  0  0  0  0
    1.2530    0.3305   -2.1705 C   0  0  0  0  0  0  0  0  0  0  0  0
    0.6682    0.9196   -1.1008 N   0  0  0  0  0  2  0  0  0  0  0  0
   -3.2750    0.9175   -1.6195 H   0  0  0  0  0  0  0  0  0  0  0  0
   -1.8262   -1.2248    1.6742 H   0  0  0  0  0  0  0  0  0  0  0  0
    1.7173    0.2712    2.8887 H   0  0  0  0  0  0  0  0  0  0  0  0
    4.0226   -0.7260    2.9911 H   0  0  0  0  0  0  0  0  0  0  0  0
    4.5517   -2.7208    1.5106 H   0  0  0  0  0  0  0  0  0  0  0  0
    2.7080   -3.5681   -0.0618 H   0  0  0  0  0  0  0  0  0  0  0  0
   -2.2404   -2.7811   -1.4358 H   0  0  0  0  0  0  0  0  0  0  0  0
   -0.9980   -2.4693   -2.6267 H   0  0  0  0  0  0  0  0  0  0  0  0
   -3.1367   -1.2045   -3.0496 H   0  0  0  0  0  0  0  0  0  0  0  0
   -1.6955   -0.1467   -2.9553 H   0  0  0  0  0  0  0  0  0  0  0  0
   -3.5358   -1.6774   -0.2571 H   0  0  0  0  0  0  0  0  0  0  0  0
   -4.8293   -0.4761   -0.4479 H   0  0  0  0  0  0  0  0  0  0  0  0
   -4.0779   -0.4344    1.8847 H   0  0  0  0  0  0  0  0  0  0  0  0
   -3.5733    1.0874    1.0936 H   0  0  0  0  0  0  0  0  0  0  0  0
   -0.6327    0.1403    3.0216 H   0  0  0  0  0  0  0  0  0  0  0  0
   -2.3262    0.5869    3.4451 H   0  0  0  0  0  0  0  0  0  0  0  0
   -0.6721    2.5990    2.8640 H   0  0  0  0  0  0  0  0  0  0  0  0
   -2.2154    2.5891    1.9808 H   0  0  0  0  0  0  0  0  0  0  0  0
    2.3402    3.8629   -1.0579 H   0  0  0  0  0  0  0  0  0  0  0  0
    3.4582    2.7781   -3.1122 H   0  0  0  0  0  0  0  0  0  0  0  0
    2.6948    0.4493   -3.7738 H   0  0  0  0  0  0  0  0  0  0  0  0
    0.9089   -0.6852   -2.4094 H   0  0  0  0  0  0  0  0  0  0  0  0
  1  2  1  0  0  0  0
  2  3  2  0  0  0  0
  2 29  1  0  0  0  0
  3 30  1  0  0  0  0
  4 31  1  0  0  0  0
  4  3  1  0  0  0  0
  5  4  2  0  0  0  0
  6  5  1  0  0  0  0
  6  1  2  0  0  0  0
  7  6  1  0  0  0  0
  8  7  2  0  0  0  0
  9  7  1  0  0  0  0
 10 33  1  0  0  0  0
 10  9  1  0  0  0  0
 11 10  1  0  0  0  0
 11 12  1  0  0  0  0
 12 13  1  0  0  0  0
 13 37  1  0  0  0  0
 13 14  1  0  0  0  0
 14 15  1  0  0  0  0
 14 39  1  0  0  0  0
 15 28  1  0  0  0  0
 15 16  1  0  0  0  0
 16 41  1  0  0  0  0
 16 42  1  0  0  0  0
 17 16  1  0  0  0  0
 17 43  1  0  0  0  0
 18 17  1  0  0  0  0
 19 18  1  0  0  0  0
 19 20  2  0  0  0  0
 21 19  1  1  0  0  0
 22 45  1  0  0  0  0
 22 21  1  0  0  0  0
 23 22  2  0  0  0  0
 24 23  1  0  0  0  0
 24 25  2  0  0  0  0
 25 26  1  0  0  0  0
 26 21  1  0  0  0  0
 27 12  1  0  0  0  0
 32  5  1  0  0  0  0
 34 10  1  0  0  0  0
 35 11  1  0  0  0  0
 36 11  1  0  0  0  0
 38 13  1  0  0  0  0
 40 14  1  0  0  0  0
 44 17  1  0  0  0  0
 46 23  1  0  0  0  0
 47 24  1  0  0  0  0
 48 25  1  0  0  0  0
M  END
