3,4,5,6
 OpenBabel05122313063D

 40 43  0  0  1  0  0  0  0  0999 V2000
    1.2520   -3.9727    0.1600 O   0  0  0  0  0  0  0  0  0  0  0  0
   -3.3715    1.3624   -0.5289 O   0  0  0  0  0  0  0  0  0  0  0  0
    0.1174   -1.9260   -0.1148 N   0  0  0  0  0  2  0  0  0  0  0  0
   -1.4859   -0.0506   -0.6313 N   0  0  0  0  0  2  0  0  0  0  0  0
    0.1690    1.8883   -0.6328 N   0  0  0  0  0  2  0  0  0  0  0  0
    2.2181   -0.5345    0.3219 N   0  0  0  0  0  2  0  0  0  0  0  0
   -1.1673   -2.3736   -0.3931 C   0  0  0  0  0  0  0  0  0  0  0  0
   -2.0877   -1.3024   -0.6702 C   0  0  0  0  0  0  0  0  0  0  0  0
   -3.4461   -1.5857   -0.9364 C   0  0  0  0  0  0  0  0  0  0  0  0
   -4.1327   -0.7537   -1.1339 H   0  0  0  0  0  0  0  0  0  0  0  0
   -3.8751   -2.9184   -0.9399 C   0  0  0  0  0  0  0  0  0  0  0  0
   -4.9297   -3.1456   -1.1584 H   0  0  0  0  0  0  0  0  0  0  0  0
   -2.9722   -3.9701   -0.6752 C   0  0  0  0  0  0  0  0  0  0  0  0
   -3.3294   -5.0112   -0.6876 H   0  0  0  0  0  0  0  0  0  0  0  0
   -1.6244   -3.7124   -0.4016 C   0  0  0  0  0  0  0  0  0  0  0  0
   -0.9048   -4.5144   -0.1992 H   0  0  0  0  0  0  0  0  0  0  0  0
    1.2118   -2.7388    0.1290 C   0  0  0  0  0  0  0  0  0  0  0  0
    2.4114   -1.8825    0.3907 C   0  0  2  0  0  3  0  0  0  0  0  0
    3.6426   -2.4534    0.7382 C   0  0  0  0  0  0  0  0  0  0  0  0
    3.7070   -3.5506    0.7642 H   0  0  0  0  0  0  0  0  0  0  0  0
    4.7125   -1.6068    1.0357 C   0  0  0  0  0  0  0  0  0  0  0  0
    5.7001   -2.0131    1.3002 H   0  0  0  0  0  0  0  0  0  0  0  0
    4.4993   -0.2175    0.9998 C   0  0  0  0  0  0  0  0  0  0  0  0
    5.3127    0.4824    1.2412 H   0  0  0  0  0  0  0  0  0  0  0  0
    3.2413    0.2974    0.6488 C   0  0  0  0  0  0  0  0  0  0  0  0
    2.9700    1.7802    0.6366 C   0  0  0  0  0  0  0  0  0  0  0  0
    2.1690    1.9805    1.3800 H   0  0  0  0  0  0  0  0  0  0  0  0
    3.8748    2.2995    1.0074 H   0  0  0  0  0  0  0  0  0  0  0  0
    2.5642    2.3640   -0.7455 C   0  0  0  0  0  0  0  0  0  0  0  0
    3.2270    3.2122   -1.0029 H   0  0  0  0  0  0  0  0  0  0  0  0
    2.6905    1.5898   -1.5349 H   0  0  0  0  0  0  0  0  0  0  0  0
    1.1364    2.8313   -0.8086 C   0  0  2  0  0  3  0  0  0  0  0  0
    0.7955    4.1743   -1.0320 C   0  0  0  0  0  0  0  0  0  0  0  0
    1.6009    4.9103   -1.1705 H   0  0  0  0  0  0  0  0  0  0  0  0
   -0.5545    4.5713   -1.0679 C   0  0  0  0  0  0  0  0  0  0  0  0
   -0.8217    5.6260   -1.2301 H   0  0  0  0  0  0  0  0  0  0  0  0
   -1.5412    3.5949   -0.9083 C   0  0  0  0  0  0  0  0  0  0  0  0
   -2.6191    3.8080   -0.9471 H   0  0  0  0  0  0  0  0  0  0  0  0
   -1.1458    2.2639   -0.7170 C   0  0  0  0  0  0  0  0  0  0  0  0
   -2.1488    1.1594   -0.6232 C   0  0  0  0  0  0  0  0  0  0  0  0
  3 17  1  0  0  0  0
  4 40  1  0  0  0  0
  6 18  1  0  0  0  0
  6 25  1  0  0  0  0
  7  3  1  0  0  0  0
  8  4  1  0  0  0  0
  8  7  2  0  0  0  0
  9  8  1  0  0  0  0
 10  9  1  0  0  0  0
 11  9  2  0  0  0  0
 11 13  1  0  0  0  0
 12 11  1  0  0  0  0
 13 15  2  0  0  0  0
 14 13  1  0  0  0  0
 15  7  1  0  0  0  0
 15 16  1  0  0  0  0
 17  1  2  0  0  0  0
 18 17  1  1  0  0  0
 18 19  1  0  0  0  0
 19 20  1  0  0  0  0
 19 21  2  0  0  0  0
 21 22  1  0  0  0  0
 23 21  1  0  0  0  0
 23 24  1  0  0  0  0
 25 23  2  0  0  0  0
 26 25  1  0  0  0  0
 26 28  1  0  0  0  0
 26 27  1  0  0  0  0
 29 26  1  0  0  0  0
 30 29  1  0  0  0  0
 31 29  1  0  0  0  0
 32 33  1  1  0  0  0
 32 29  1  0  0  0  0
 32  5  1  0  0  0  0
 34 33  1  0  0  0  0
 35 33  2  0  0  0  0
 35 37  1  0  0  0  0
 36 35  1  0  0  0  0
 37 39  2  0  0  0  0
 38 37  1  0  0  0  0
 39  5  1  0  0  0  0
 39 40  1  0  0  0  0
 40  2  2  0  0  0  0
M  END
