1,16,23,38
 OpenBabel05122313063D

 46 47  0  0  1  0  0  0  0  0999 V2000
    1.5321    0.4789    1.2633 N   0  0  0  0  0  2  0  0  0  0  0  0
    1.8738   -0.1951    2.5165 C   0  0  0  0  0  0  0  0  0  0  0  0
    1.4587   -1.2210    2.5399 H   0  0  0  0  0  0  0  0  0  0  0  0
    1.4258    0.3411    3.3913 H   0  0  0  0  0  0  0  0  0  0  0  0
    3.4273   -0.1922    2.6335 C   0  0  0  0  0  0  0  0  0  0  0  0
    3.7489    0.3103    3.5683 H   0  0  0  0  0  0  0  0  0  0  0  0
    3.8401   -1.2192    2.6524 H   0  0  0  0  0  0  0  0  0  0  0  0
    3.9045    0.5791    1.3882 C   0  0  0  0  0  0  0  0  0  0  0  0
    4.1594   -0.1229    0.5697 H   0  0  0  0  0  0  0  0  0  0  0  0
    4.7861    1.2234    1.5803 H   0  0  0  0  0  0  0  0  0  0  0  0
    2.6502    1.3786    0.9983 C   0  0  1  0  0  0  0  0  0  0  0  0
    2.6056    2.2719    1.6862 H   0  0  0  0  0  0  0  0  0  0  0  0
    2.5968    1.8470   -0.4480 C   0  0  0  0  0  0  0  0  0  0  0  0
    2.9214    1.0158   -1.1025 H   0  0  0  0  0  0  0  0  0  0  0  0
    3.2762    2.7149   -0.6287 H   0  0  0  0  0  0  0  0  0  0  0  0
    1.2020    2.1816   -0.8070 N   0  0  0  0  0  0  0  0  0  0  0  0
    0.7538    3.3966   -0.0983 C   0  0  0  0  0  0  0  0  0  0  0  0
    1.2491    3.4230    0.8906 H   0  0  0  0  0  0  0  0  0  0  0  0
    1.0795    4.3153   -0.6415 H   0  0  0  0  0  0  0  0  0  0  0  0
   -0.7519    3.3977    0.0813 C   0  0  0  0  0  0  0  0  0  0  0  0
   -1.2474    3.4181   -0.9078 H   0  0  0  0  0  0  0  0  0  0  0  0
   -1.0770    4.3202    0.6186 H   0  0  0  0  0  0  0  0  0  0  0  0
   -1.2010    2.1876    0.7978 N   0  0  0  0  0  0  0  0  0  0  0  0
   -2.5963    1.8519    0.4418 C   0  0  0  0  0  0  0  0  0  0  0  0
   -3.2749    2.7214    0.6180 H   0  0  0  0  0  0  0  0  0  0  0  0
   -2.9208    1.0246    1.1015 H   0  0  0  0  0  0  0  0  0  0  0  0
   -2.6510    1.3749   -1.0016 C   0  0  2  0  0  0  0  0  0  0  0  0
   -2.6054    2.2643   -1.6944 H   0  0  0  0  0  0  0  0  0  0  0  0
   -3.9058    0.5750   -1.3871 C   0  0  0  0  0  0  0  0  0  0  0  0
   -4.1554   -0.1298   -0.5695 H   0  0  0  0  0  0  0  0  0  0  0  0
   -4.7897    1.2177   -1.5744 H   0  0  0  0  0  0  0  0  0  0  0  0
   -3.4305   -0.1903   -2.6357 C   0  0  0  0  0  0  0  0  0  0  0  0
   -3.8632   -1.2087   -2.6749 H   0  0  0  0  0  0  0  0  0  0  0  0
   -3.7319    0.3327   -3.5661 H   0  0  0  0  0  0  0  0  0  0  0  0
   -1.8789   -0.2234   -2.5022 C   0  0  0  0  0  0  0  0  0  0  0  0
   -1.4878   -1.2592   -2.4956 H   0  0  0  0  0  0  0  0  0  0  0  0
   -1.4086    0.2794   -3.3846 H   0  0  0  0  0  0  0  0  0  0  0  0
   -1.5345    0.4714   -1.2602 N   0  0  0  0  0  2  0  0  0  0  0  0
    1.0339    2.3228   -2.2591 C   0  0  0  0  0  0  0  0  0  0  0  0
    1.6546    3.1592   -2.6601 H   0  0  0  0  0  0  0  0  0  0  0  0
   -0.0287    2.5066   -2.5025 H   0  0  0  0  0  0  0  0  0  0  0  0
    1.3325    1.3824   -2.7559 H   0  0  0  0  0  0  0  0  0  0  0  0
   -1.0323    2.3381    2.2489 C   0  0  0  0  0  0  0  0  0  0  0  0
   -1.6537    3.1763    2.6448 H   0  0  0  0  0  0  0  0  0  0  0  0
    0.0302    2.5247    2.4909 H   0  0  0  0  0  0  0  0  0  0  0  0
   -1.3297    1.4005    2.7519 H   0  0  0  0  0  0  0  0  0  0  0  0
  1  2  1  0  0  0  0
  2  3  1  0  0  0  0
  2  5  1  0  0  0  0
  2  4  1  0  0  0  0
  5  7  1  0  0  0  0
  5  6  1  0  0  0  0
  8 10  1  0  0  0  0
  8  5  1  0  0  0  0
  9  8  1  0  0  0  0
 11  1  1  0  0  0  0
 11  8  1  0  0  0  0
 11 12  1  1  0  0  0
 13 11  1  0  0  0  0
 14 13  1  0  0  0  0
 15 13  1  0  0  0  0
 16 13  1  0  0  0  0
 16 17  1  0  0  0  0
 17 20  1  0  0  0  0
 17 18  1  0  0  0  0
 19 17  1  0  0  0  0
 20 22  1  0  0  0  0
 20 23  1  0  0  0  0
 21 20  1  0  0  0  0
 23 43  1  0  0  0  0
 24 25  1  0  0  0  0
 24 23  1  0  0  0  0
 24 26  1  0  0  0  0
 27 28  1  6  0  0  0
 27 24  1  0  0  0  0
 29 27  1  0  0  0  0
 29 30  1  0  0  0  0
 31 29  1  0  0  0  0
 32 35  1  0  0  0  0
 32 29  1  0  0  0  0
 33 32  1  0  0  0  0
 34 32  1  0  0  0  0
 35 36  1  0  0  0  0
 35 38  1  0  0  0  0
 37 35  1  0  0  0  0
 38 27  1  0  0  0  0
 39 16  1  0  0  0  0
 40 39  1  0  0  0  0
 41 39  1  0  0  0  0
 42 39  1  0  0  0  0
 43 45  1  0  0  0  0
 43 44  1  0  0  0  0
 43 46  1  0  0  0  0
M  END
