1,3,6,8
 OpenBabel05122313063D

 34 34  0  0  0  0  0  0  0  0999 V2000
   -0.6862    0.5797    1.5092 N   0  0  0  0  0  2  0  0  0  0  0  0
   -2.4930    0.4388    2.9316 O   0  0  0  0  0  0  0  0  0  0  0  0
    0.7851   -1.6053    1.1529 N   0  0  0  0  0  0  0  0  0  0  0  0
    0.2668   -2.4424    0.8475 H   0  0  0  0  0  0  0  0  0  0  0  0
   -3.6646   -1.0755   -1.1080 O   0  0  0  0  0  0  0  0  0  0  0  0
    0.9857   -1.1012   -1.6433 N   0  0  0  0  0  0  0  0  0  0  0  0
    0.8546   -0.3986   -2.3866 H   0  0  0  0  0  0  0  0  0  0  0  0
   -1.4574   -1.1859   -0.5297 N   0  0  0  0  0  2  0  0  0  0  0  0
   -2.9396    0.4795    0.5713 C   0  0  0  0  0  0  0  0  0  0  0  0
   -3.9900    0.4606    0.9104 H   0  0  0  0  0  0  0  0  0  0  0  0
   -2.7876    1.4029   -0.0270 H   0  0  0  0  0  0  0  0  0  0  0  0
   -2.0297    0.4987    1.7805 C   0  0  0  0  0  0  0  0  0  0  0  0
    0.1637    0.2327    2.6412 C   0  0  0  0  0  0  0  0  0  0  0  0
   -0.3480    0.4979    3.5880 H   0  0  0  0  0  0  0  0  0  0  0  0
    1.1357    0.7618    2.5849 H   0  0  0  0  0  0  0  0  0  0  0  0
    0.3545   -1.2761    2.5515 C   0  0  0  0  0  0  0  0  0  0  0  0
    1.0871   -1.6886    3.2791 H   0  0  0  0  0  0  0  0  0  0  0  0
   -0.6268   -1.7579    2.7287 H   0  0  0  0  0  0  0  0  0  0  0  0
    2.2438   -1.8413    1.0573 C   0  0  0  0  0  0  0  0  0  0  0  0
    2.5390   -2.5922    1.8240 H   0  0  0  0  0  0  0  0  0  0  0  0
    2.7365   -0.8837    1.3125 H   0  0  0  0  0  0  0  0  0  0  0  0
    2.7161   -2.3262   -0.3128 C   0  0  0  0  0  0  0  0  0  0  0  0
    2.3110   -3.3414   -0.5146 H   0  0  0  0  0  0  0  0  0  0  0  0
    3.8159   -2.4616   -0.2574 H   0  0  0  0  0  0  0  0  0  0  0  0
    2.4246   -1.3916   -1.4895 C   0  0  0  0  0  0  0  0  0  0  0  0
    2.9349   -0.4228   -1.3283 H   0  0  0  0  0  0  0  0  0  0  0  0
    2.8263   -1.8450   -2.4248 H   0  0  0  0  0  0  0  0  0  0  0  0
    0.1511   -2.2831   -1.9653 C   0  0  0  0  0  0  0  0  0  0  0  0
    0.4158   -3.0915   -1.2552 H   0  0  0  0  0  0  0  0  0  0  0  0
    0.3720   -2.6666   -2.9868 H   0  0  0  0  0  0  0  0  0  0  0  0
   -1.3025   -1.8996   -1.7982 C   0  0  0  0  0  0  0  0  0  0  0  0
   -1.6372   -1.2584   -2.6506 H   0  0  0  0  0  0  0  0  0  0  0  0
   -1.9526   -2.7990   -1.8440 H   0  0  0  0  0  0  0  0  0  0  0  0
   -2.7281   -0.6709   -0.4060 C   0  0  0  0  0  0  0  0  0  0  0  0
  1 12  1  0  0  0  0
  1 13  1  0  0  0  0
  3 16  1  0  0  0  0
  4  3  1  0  0  0  0
  5 34  2  0  0  0  0
  6 25  1  0  0  0  0
  7  6  1  0  0  0  0
  8 34  1  0  0  0  0
  9 10  1  0  0  0  0
  9 12  1  0  0  0  0
 11  9  1  0  0  0  0
 12  2  2  0  0  0  0
 13 14  1  0  0  0  0
 15 13  1  0  0  0  0
 16 13  1  0  0  0  0
 16 18  1  0  0  0  0
 16 17  1  0  0  0  0
 19  3  1  0  0  0  0
 19 21  1  0  0  0  0
 19 20  1  0  0  0  0
 22 24  1  0  0  0  0
 22 19  1  0  0  0  0
 23 22  1  0  0  0  0
 25 26  1  0  0  0  0
 25 22  1  0  0  0  0
 27 25  1  0  0  0  0
 28 31  1  0  0  0  0
 28  6  1  0  0  0  0
 28 29  1  0  0  0  0
 30 28  1  0  0  0  0
 31  8  1  0  0  0  0
 32 31  1  0  0  0  0
 33 31  1  0  0  0  0
 34  9  1  0  0  0  0
M  END
