1,2,5,6
 OpenBabel05122313063D

 36 37  0  0  1  0  0  0  0  0999 V2000
   -0.0059   -1.7096    0.0360 N   0  0  0  0  0  0  0  0  0  0  0  0
    0.1649    0.0611    2.1619 N   0  0  0  0  0  0  0  0  0  0  0  0
    0.8016    0.7515    2.5836 H   0  0  0  0  0  0  0  0  0  0  0  0
   -0.7615    0.2705    2.5620 H   0  0  0  0  0  0  0  0  0  0  0  0
   -1.9564    0.0791    0.1203 N   0  0  0  0  0  2  0  0  0  0  0  0
    1.9361    0.1844   -0.0373 N   0  0  0  0  0  2  0  0  0  0  0  0
   -0.1570   -2.2122    1.4339 C   0  0  0  0  0  0  0  0  0  0  0  0
    0.1721   -3.2712    1.5038 H   0  0  0  0  0  0  0  0  0  0  0  0
   -1.2387   -2.1902    1.6785 H   0  0  0  0  0  0  0  0  0  0  0  0
    0.5921   -1.3247    2.4162 C   0  0  0  0  0  0  0  0  0  0  0  0
    0.3959   -1.6558    3.4582 H   0  0  0  0  0  0  0  0  0  0  0  0
    1.6866   -1.3886    2.2572 H   0  0  0  0  0  0  0  0  0  0  0  0
   -1.2015   -2.0523   -0.7692 C   0  0  0  0  0  0  0  0  0  0  0  0
   -1.4861   -3.1222   -0.6627 H   0  0  0  0  0  0  0  0  0  0  0  0
   -0.9545   -1.8756   -1.8358 H   0  0  0  0  0  0  0  0  0  0  0  0
   -2.3325   -1.1386   -0.3665 C   0  0  2  0  0  3  0  0  0  0  0  0
   -3.6804   -1.4754   -0.5276 C   0  0  0  0  0  0  0  0  0  0  0  0
   -3.9495   -2.4694   -0.9132 H   0  0  0  0  0  0  0  0  0  0  0  0
   -4.6662   -0.5302   -0.2076 C   0  0  0  0  0  0  0  0  0  0  0  0
   -5.7315   -0.7710   -0.3382 H   0  0  0  0  0  0  0  0  0  0  0  0
   -4.2676    0.7202    0.2802 C   0  0  0  0  0  0  0  0  0  0  0  0
   -5.0011    1.4949    0.5436 H   0  0  0  0  0  0  0  0  0  0  0  0
   -2.9029    0.9894    0.4341 C   0  0  0  0  0  0  0  0  0  0  0  0
   -2.5384    1.9494    0.8263 H   0  0  0  0  0  0  0  0  0  0  0  0
    1.2800   -2.1053   -0.5835 C   0  0  0  0  0  0  0  0  0  0  0  0
    1.5920   -3.1222   -0.2621 H   0  0  0  0  0  0  0  0  0  0  0  0
    1.1365   -2.1184   -1.6818 H   0  0  0  0  0  0  0  0  0  0  0  0
    2.3536   -1.0868   -0.3010 C   0  0  1  0  0  3  0  0  0  0  0  0
    3.7146   -1.4036   -0.3909 C   0  0  0  0  0  0  0  0  0  0  0  0
    4.0155   -2.4408   -0.5980 H   0  0  0  0  0  0  0  0  0  0  0  0
    4.6708   -0.3924   -0.2306 C   0  0  0  0  0  0  0  0  0  0  0  0
    5.7440   -0.6222   -0.3035 H   0  0  0  0  0  0  0  0  0  0  0  0
    4.2302    0.9140    0.0165 C   0  0  0  0  0  0  0  0  0  0  0  0
    4.9365    1.7472    0.1368 H   0  0  0  0  0  0  0  0  0  0  0  0
    2.8576    1.1634    0.1092 C   0  0  0  0  0  0  0  0  0  0  0  0
    2.4714    2.1789    0.2701 H   0  0  0  0  0  0  0  0  0  0  0  0
  1  7  1  0  0  0  0
  2 10  1  0  0  0  0
  2  4  1  0  0  0  0
  2  3  1  0  0  0  0
  5 23  1  0  0  0  0
  6 35  1  0  0  0  0
  7  8  1  0  0  0  0
  7  9  1  0  0  0  0
  7 10  1  0  0  0  0
 10 11  1  0  0  0  0
 12 10  1  0  0  0  0
 13 14  1  0  0  0  0
 13  1  1  0  0  0  0
 15 13  1  0  0  0  0
 16 13  1  6  0  0  0
 16  5  1  0  0  0  0
 17 16  1  0  0  0  0
 17 19  2  0  0  0  0
 18 17  1  0  0  0  0
 19 21  1  0  0  0  0
 20 19  1  0  0  0  0
 21 23  2  0  0  0  0
 21 22  1  0  0  0  0
 23 24  1  0  0  0  0
 25 26  1  0  0  0  0
 25  1  1  0  0  0  0
 27 25  1  0  0  0  0
 28 25  1  6  0  0  0
 28  6  1  0  0  0  0
 29 28  1  0  0  0  0
 29 31  2  0  0  0  0
 30 29  1  0  0  0  0
 31 33  1  0  0  0  0
 32 31  1  0  0  0  0
 33 35  2  0  0  0  0
 33 34  1  0  0  0  0
 35 36  1  0  0  0  0
M  END
