1,8,32,62
 OpenBabel05122313063D

 62 62  0  0  1  0  0  0  0  0999 V2000
    1.6585   -1.9308   -1.2107 N   0  0  0  0  0  0  0  0  0  0  0  0
    0.9096   -3.1984   -1.4804 C   0  0  0  0  0  0  0  0  0  0  0  0
    1.6184   -4.0576   -1.5145 H   0  0  0  0  0  0  0  0  0  0  0  0
    0.4456   -3.1011   -2.4811 H   0  0  0  0  0  0  0  0  0  0  0  0
   -0.2004   -3.3569   -0.4369 C   0  0  0  0  0  0  0  0  0  0  0  0
   -0.9435   -4.1232   -0.7529 H   0  0  0  0  0  0  0  0  0  0  0  0
    0.2345   -3.7044    0.5318 H   0  0  0  0  0  0  0  0  0  0  0  0
   -0.8174   -2.0584   -0.3093 N   0  0  0  0  0  2  0  0  0  0  0  0
   -2.1799   -1.9954   -0.3050 C   0  0  0  0  0  0  0  0  0  0  0  0
   -2.9423   -2.9866   -0.2027 O   0  0  0  0  0  0  0  0  0  0  0  0
   -2.6633   -0.6938   -0.4669 N   0  0  0  0  0  0  0  0  0  0  0  0
   -1.9039   -0.0036   -0.4873 H   0  0  0  0  0  0  0  0  0  0  0  0
   -3.9282   -0.2464    0.1246 C   0  0  0  0  0  0  0  0  0  0  0  0
   -5.1110   -0.9229   -0.5969 C   0  0  0  0  0  0  0  0  0  0  0  0
   -5.1041   -0.6459   -1.6712 H   0  0  0  0  0  0  0  0  0  0  0  0
   -6.0798   -0.6071   -0.1536 H   0  0  0  0  0  0  0  0  0  0  0  0
   -4.9930   -2.0204   -0.5216 H   0  0  0  0  0  0  0  0  0  0  0  0
   -3.9989    1.2749   -0.0727 C   0  0  0  0  0  0  0  0  0  0  0  0
   -3.1409    1.7734    0.4217 H   0  0  0  0  0  0  0  0  0  0  0  0
   -4.9405    1.6819    0.3494 H   0  0  0  0  0  0  0  0  0  0  0  0
   -3.9530    1.5309   -1.1508 H   0  0  0  0  0  0  0  0  0  0  0  0
   -3.9692   -0.5772    1.6346 C   0  0  0  0  0  0  0  0  0  0  0  0
   -3.1167   -0.0846    2.1448 H   0  0  0  0  0  0  0  0  0  0  0  0
   -3.8770   -1.6735    1.7693 H   0  0  0  0  0  0  0  0  0  0  0  0
   -4.9166   -0.2360    2.1039 H   0  0  0  0  0  0  0  0  0  0  0  0
    1.8501   -1.1103   -2.4446 C   0  0  0  0  0  0  0  0  0  0  0  0
    2.1445   -1.7640   -3.2998 H   0  0  0  0  0  0  0  0  0  0  0  0
    2.6799   -0.4018   -2.2467 H   0  0  0  0  0  0  0  0  0  0  0  0
    0.5677   -0.3242   -2.6968 C   0  0  0  0  0  0  0  0  0  0  0  0
    0.7154    0.4202   -3.5087 H   0  0  0  0  0  0  0  0  0  0  0  0
   -0.2433   -1.0252   -3.0157 H   0  0  0  0  0  0  0  0  0  0  0  0
    0.2121    0.3381   -1.4624 N   0  0  0  0  0  2  0  0  0  0  0  0
   -0.0101    1.6846   -1.5274 C   0  0  0  0  0  0  0  0  0  0  0  0
    0.0879    2.3785   -2.5687 O   0  0  0  0  0  0  0  0  0  0  0  0
   -0.4224    2.2496   -0.3168 N   0  0  0  0  0  0  0  0  0  0  0  0
   -0.4252    1.6225    0.4948 H   0  0  0  0  0  0  0  0  0  0  0  0
   -0.4939    3.6913   -0.0707 C   0  0  0  0  0  0  0  0  0  0  0  0
   -0.8517    3.8710    1.4136 C   0  0  0  0  0  0  0  0  0  0  0  0
   -1.8191    3.3814    1.6481 H   0  0  0  0  0  0  0  0  0  0  0  0
   -0.9353    4.9479    1.6645 H   0  0  0  0  0  0  0  0  0  0  0  0
   -0.0779    3.4212    2.0705 H   0  0  0  0  0  0  0  0  0  0  0  0
    0.8607    4.3736   -0.3693 C   0  0  0  0  0  0  0  0  0  0  0  0
    1.1328    4.1789   -1.4245 H   0  0  0  0  0  0  0  0  0  0  0  0
    1.6598    3.9595    0.2791 H   0  0  0  0  0  0  0  0  0  0  0  0
    0.8031    5.4698   -0.2000 H   0  0  0  0  0  0  0  0  0  0  0  0
   -1.5915    4.3280   -0.9510 C   0  0  0  0  0  0  0  0  0  0  0  0
   -2.5811    3.8915   -0.7084 H   0  0  0  0  0  0  0  0  0  0  0  0
   -1.3612    4.1092   -2.0110 H   0  0  0  0  0  0  0  0  0  0  0  0
   -1.6398    5.4269   -0.7952 H   0  0  0  0  0  0  0  0  0  0  0  0
    2.9136   -2.1377   -0.4583 C   0  0  0  0  0  0  0  0  0  0  0  0
    3.7186   -2.5909   -1.0871 H   0  0  0  0  0  0  0  0  0  0  0  0
    2.6768   -2.8456    0.3648 H   0  0  0  0  0  0  0  0  0  0  0  0
    3.3405   -0.8180    0.1302 C   0  0  2  0  0  3  0  0  0  0  0  0
    4.6602   -0.4440    0.3653 C   0  0  0  0  0  0  0  0  0  0  0  0
    5.4700   -1.1247    0.0586 H   0  0  0  0  0  0  0  0  0  0  0  0
    4.9428    0.7881    0.9972 C   0  0  0  0  0  0  0  0  0  0  0  0
    5.9776    1.1012    1.1968 H   0  0  0  0  0  0  0  0  0  0  0  0
    3.8463    1.5991    1.3512 C   0  0  0  0  0  0  0  0  0  0  0  0
    3.9949    2.5745    1.8399 H   0  0  0  0  0  0  0  0  0  0  0  0
    2.5467    1.1826    1.0666 C   0  0  0  0  0  0  0  0  0  0  0  0
    1.6716    1.7999    1.3078 H   0  0  0  0  0  0  0  0  0  0  0  0
    2.2664   -0.0126    0.4599 N   0  0  0  0  0  2  0  0  0  0  0  0
  1 50  1  0  0  0  0
  2  1  1  0  0  0  0
  2  5  1  0  0  0  0
  3  2  1  0  0  0  0
  4  2  1  0  0  0  0
  5  8  1  0  0  0  0
  5  7  1  0  0  0  0
  6  5  1  0  0  0  0
  8  9  1  0  0  0  0
  9 10  2  0  0  0  0
 11  9  1  0  0  0  0
 11 13  1  0  0  0  0
 12 11  1  0  0  0  0
 13 22  1  0  0  0  0
 14 17  1  0  0  0  0
 14 16  1  0  0  0  0
 14 13  1  0  0  0  0
 15 14  1  0  0  0  0
 18 13  1  0  0  0  0
 18 20  1  0  0  0  0
 18 19  1  0  0  0  0
 21 18  1  0  0  0  0
 22 24  1  0  0  0  0
 22 25  1  0  0  0  0
 22 23  1  0  0  0  0
 26 28  1  0  0  0  0
 26  1  1  0  0  0  0
 27 26  1  0  0  0  0
 29 26  1  0  0  0  0
 29 32  1  0  0  0  0
 30 29  1  0  0  0  0
 31 29  1  0  0  0  0
 33 32  1  0  0  0  0
 33 35  1  0  0  0  0
 34 33  2  0  0  0  0
 35 37  1  0  0  0  0
 35 36  1  0  0  0  0
 37 38  1  0  0  0  0
 38 39  1  0  0  0  0
 38 40  1  0  0  0  0
 38 41  1  0  0  0  0
 42 45  1  0  0  0  0
 42 37  1  0  0  0  0
 42 44  1  0  0  0  0
 43 42  1  0  0  0  0
 46 49  1  0  0  0  0
 46 47  1  0  0  0  0
 46 37  1  0  0  0  0
 48 46  1  0  0  0  0
 50 52  1  0  0  0  0
 51 50  1  0  0  0  0
 53 50  1  1  0  0  0
 53 54  1  0  0  0  0
 53 62  1  0  0  0  0
 54 56  2  0  0  0  0
 55 54  1  0  0  0  0
 56 57  1  0  0  0  0
 56 58  1  0  0  0  0
 58 59  1  0  0  0  0
 60 61  1  0  0  0  0
 60 58  2  0  0  0  0
 62 60  1  0  0  0  0
M  END
