2,3,4,5
 OpenBabel05122313063D

 49 50  0  0  1  0  0  0  0  0999 V2000
    3.3143    0.2016    0.5413 S   0  0  0  0  0  0  0  0  0  0  0  0
    0.5132    1.3484   -1.1474 N   0  0  1  0  0  0  0  0  0  0  0  0
    0.8972   -1.3858   -1.1198 N   0  0  2  0  0  0  0  0  0  0  0  0
    0.1311    1.2663    1.7749 N   0  0  0  0  0  0  0  0  0  0  0  0
    0.5498   -1.4208    1.6911 N   0  0  0  0  0  0  0  0  0  0  0  0
    0.0073    0.5676   -2.3217 C   0  0  0  0  0  0  0  0  0  0  0  0
    0.7926   -0.7127   -2.4607 C   0  0  0  0  0  0  0  0  0  0  0  0
    2.2565   -1.9737   -0.9589 C   0  0  0  0  0  0  0  0  0  0  0  0
    3.4197   -0.9837   -0.8537 C   0  0  0  0  0  0  0  0  0  0  0  0
    2.9143    1.8105   -0.2580 C   0  0  0  0  0  0  0  0  0  0  0  0
    1.9097    1.8392   -1.4040 C   0  0  0  0  0  0  0  0  0  0  0  0
   -0.4313    2.4970   -0.9660 C   0  0  0  0  0  0  0  0  0  0  0  0
   -0.2797    3.2627    0.3377 C   0  0  0  0  0  0  0  0  0  0  0  0
   -0.7385    2.4417    1.5302 C   0  0  0  0  0  0  0  0  0  0  0  0
   -0.3794    0.4543    2.9089 C   0  0  0  0  0  0  0  0  0  0  0  0
    0.5159   -0.7561    3.0208 C   0  0  0  0  0  0  0  0  0  0  0  0
   -0.5082   -2.4489    1.4959 C   0  0  0  0  0  0  0  0  0  0  0  0
   -0.2422   -3.2576    0.2340 C   0  0  0  0  0  0  0  0  0  0  0  0
   -0.1700   -2.4507   -1.0586 C   0  0  0  0  0  0  0  0  0  0  0  0
    1.0692    1.6118    2.0362 H   0  0  0  0  0  0  0  0  0  0  0  0
    1.4660   -1.8869    1.6149 H   0  0  0  0  0  0  0  0  0  0  0  0
   -1.0616    0.3362   -2.1424 H   0  0  0  0  0  0  0  0  0  0  0  0
    0.0704    1.1795   -3.2492 H   0  0  0  0  0  0  0  0  0  0  0  0
    0.2984   -1.3872   -3.1888 H   0  0  0  0  0  0  0  0  0  0  0  0
    1.8133   -0.5324   -2.8467 H   0  0  0  0  0  0  0  0  0  0  0  0
    2.4532   -2.6619   -1.8135 H   0  0  0  0  0  0  0  0  0  0  0  0
    2.2512   -2.6164   -0.0583 H   0  0  0  0  0  0  0  0  0  0  0  0
    3.5863   -0.4164   -1.7904 H   0  0  0  0  0  0  0  0  0  0  0  0
    4.3476   -1.5679   -0.6925 H   0  0  0  0  0  0  0  0  0  0  0  0
    3.8600    2.2481   -0.6400 H   0  0  0  0  0  0  0  0  0  0  0  0
    2.6005    2.4544    0.5882 H   0  0  0  0  0  0  0  0  0  0  0  0
    2.3293    1.2596   -2.2469 H   0  0  0  0  0  0  0  0  0  0  0  0
    1.8528    2.8867   -1.7722 H   0  0  0  0  0  0  0  0  0  0  0  0
   -1.4605    2.0916   -1.0171 H   0  0  0  0  0  0  0  0  0  0  0  0
   -0.2945    3.1769   -1.8354 H   0  0  0  0  0  0  0  0  0  0  0  0
   -0.9331    4.1556    0.2707 H   0  0  0  0  0  0  0  0  0  0  0  0
    0.7493    3.6604    0.4806 H   0  0  0  0  0  0  0  0  0  0  0  0
   -1.7564    2.0512    1.3378 H   0  0  0  0  0  0  0  0  0  0  0  0
   -0.7654    3.0631    2.4520 H   0  0  0  0  0  0  0  0  0  0  0  0
   -1.4165    0.1641    2.6508 H   0  0  0  0  0  0  0  0  0  0  0  0
   -0.4004    1.0458    3.8495 H   0  0  0  0  0  0  0  0  0  0  0  0
    1.5537   -0.4505    3.2701 H   0  0  0  0  0  0  0  0  0  0  0  0
    0.1691   -1.4562    3.8091 H   0  0  0  0  0  0  0  0  0  0  0  0
   -0.5290   -3.1225    2.3800 H   0  0  0  0  0  0  0  0  0  0  0  0
   -1.4776   -1.9202    1.4171 H   0  0  0  0  0  0  0  0  0  0  0  0
   -1.0798   -3.9730    0.1069 H   0  0  0  0  0  0  0  0  0  0  0  0
    0.6607   -3.8938    0.3664 H   0  0  0  0  0  0  0  0  0  0  0  0
    0.0100   -3.1487   -1.9065 H   0  0  0  0  0  0  0  0  0  0  0  0
   -1.1363   -1.9393   -1.2442 H   0  0  0  0  0  0  0  0  0  0  0  0
  2  6  1  6  0  0  0
  2 12  1  0  0  0  0
  3  7  1  6  0  0  0
  3 19  1  0  0  0  0
  3  8  1  0  0  0  0
  4 20  1  0  0  0  0
  4 15  1  0  0  0  0
  5 16  1  0  0  0  0
  6 22  1  0  0  0  0
  7  6  1  0  0  0  0
  8  9  1  0  0  0  0
  8 27  1  0  0  0  0
  9 29  1  0  0  0  0
  9  1  1  0  0  0  0
 10  1  1  0  0  0  0
 10 31  1  0  0  0  0
 11  2  1  0  0  0  0
 11 10  1  0  0  0  0
 12 13  1  0  0  0  0
 13 37  1  0  0  0  0
 13 14  1  0  0  0  0
 14  4  1  0  0  0  0
 14 39  1  0  0  0  0
 15 16  1  0  0  0  0
 15 41  1  0  0  0  0
 16 42  1  0  0  0  0
 16 43  1  0  0  0  0
 17  5  1  0  0  0  0
 17 44  1  0  0  0  0
 18 47  1  0  0  0  0
 18 17  1  0  0  0  0
 19 18  1  0  0  0  0
 21  5  1  0  0  0  0
 23  6  1  0  0  0  0
 24  7  1  0  0  0  0
 25  7  1  0  0  0  0
 26  8  1  0  0  0  0
 28  9  1  0  0  0  0
 30 10  1  0  0  0  0
 32 11  1  0  0  0  0
 33 11  1  0  0  0  0
 34 12  1  0  0  0  0
 35 12  1  0  0  0  0
 36 13  1  0  0  0  0
 38 14  1  0  0  0  0
 40 15  1  0  0  0  0
 45 17  1  0  0  0  0
 46 18  1  0  0  0  0
 48 19  1  0  0  0  0
 49 19  1  0  0  0  0
M  END
