1,2,3,4
 OpenBabel05122313063D

 39 40  0  0  1  0  0  0  0  0999 V2000
    1.6982    0.4978    0.0922 N   0  0  0  0  0  2  0  0  0  0  0  0
    0.1459   -1.1959    1.3500 N   0  0  0  0  0  0  0  0  0  0  0  0
   -1.6503   -1.3909   -0.6774 N   0  0  0  0  0  0  0  0  0  0  0  0
   -1.1662    1.1085    0.1050 N   0  0  0  0  0  2  0  0  0  0  0  0
    2.6214    1.0548   -0.7209 C   0  0  0  0  0  3  0  0  0  0  0  0
    3.8193    1.5758   -0.2197 C   0  0  0  0  0  0  0  0  0  0  0  0
    4.0731    1.5036    1.1560 C   0  0  0  0  0  0  0  0  0  0  0  0
    3.1208    0.9006    1.9917 C   0  0  0  0  0  0  0  0  0  0  0  0
    1.9393    0.4023    1.4327 C   0  0  0  0  0  0  0  0  0  0  0  0
    0.8473   -0.2630    2.2382 C   0  0  0  0  0  0  0  0  0  0  0  0
   -1.1983   -1.6912    1.7371 C   0  0  2  0  0  0  0  0  0  0  0  0
   -1.1804   -2.6464    2.9277 C   0  0  0  0  0  0  0  0  0  0  0  0
   -1.7486   -2.3429    0.4628 C   0  0  0  0  0  0  0  0  0  0  0  0
   -2.7836   -0.4412   -0.7967 C   0  0  0  0  0  0  0  0  0  0  0  0
   -2.4856    0.8509   -0.0846 C   0  0  2  0  0  3  0  0  0  0  0  0
   -3.4714    1.7832    0.2652 C   0  0  0  0  0  0  0  0  0  0  0  0
   -3.0811    3.0230    0.7888 C   0  0  0  0  0  0  0  0  0  0  0  0
   -1.7132    3.2969    0.9363 C   0  0  0  0  0  0  0  0  0  0  0  0
   -0.7858    2.3135    0.5806 C   0  0  0  0  0  0  0  0  0  0  0  0
   -0.5655   -3.5436    2.7104 H   0  0  0  0  0  0  0  0  0  0  0  0
   -2.2060   -2.9872    3.1704 H   0  0  0  0  0  0  0  0  0  0  0  0
   -0.7749   -2.1553    3.8337 H   0  0  0  0  0  0  0  0  0  0  0  0
    0.7372   -2.0225    1.1151 H   0  0  0  0  0  0  0  0  0  0  0  0
    1.2670   -0.7500    3.1438 H   0  0  0  0  0  0  0  0  0  0  0  0
    0.1170    0.4992    2.5895 H   0  0  0  0  0  0  0  0  0  0  0  0
   -1.8083   -0.7964    1.9914 H   0  0  0  0  0  0  0  0  0  0  0  0
   -1.5647   -1.8902   -1.5763 H   0  0  0  0  0  0  0  0  0  0  0  0
   -3.7326   -0.8969   -0.4440 H   0  0  0  0  0  0  0  0  0  0  0  0
   -2.9052   -0.2130   -1.8763 H   0  0  0  0  0  0  0  0  0  0  0  0
   -1.1266   -3.2229    0.2082 H   0  0  0  0  0  0  0  0  0  0  0  0
   -2.7953   -2.6835    0.6043 H   0  0  0  0  0  0  0  0  0  0  0  0
    2.3683    1.0840   -1.7888 H   0  0  0  0  0  0  0  0  0  0  0  0
    4.5431    2.0233   -0.9150 H   0  0  0  0  0  0  0  0  0  0  0  0
    5.0101    1.8982    1.5761 H   0  0  0  0  0  0  0  0  0  0  0  0
    3.2942    0.8026    3.0731 H   0  0  0  0  0  0  0  0  0  0  0  0
    0.2960    2.4893    0.6653 H   0  0  0  0  0  0  0  0  0  0  0  0
   -1.3606    4.2647    1.3192 H   0  0  0  0  0  0  0  0  0  0  0  0
   -3.8366    3.7730    1.0656 H   0  0  0  0  0  0  0  0  0  0  0  0
   -4.5326    1.5415    0.1082 H   0  0  0  0  0  0  0  0  0  0  0  0
  1  9  1  0  0  0  0
  2 11  1  0  0  0  0
  2 10  1  0  0  0  0
  3 13  1  0  0  0  0
  4 19  1  0  0  0  0
  5  6  1  0  0  0  0
  5  1  1  0  0  0  0
  6  7  2  0  0  0  0
  7 34  1  0  0  0  0
  7  8  1  0  0  0  0
  8 35  1  0  0  0  0
  9  8  2  0  0  0  0
  9 10  1  0  0  0  0
 10 25  1  0  0  0  0
 10 24  1  0  0  0  0
 11 26  1  1  0  0  0
 11 12  1  0  0  0  0
 12 21  1  0  0  0  0
 12 22  1  0  0  0  0
 13 31  1  0  0  0  0
 13 11  1  0  0  0  0
 14  3  1  0  0  0  0
 14 28  1  0  0  0  0
 15 14  1  6  0  0  0
 15  4  1  0  0  0  0
 15 16  1  0  0  0  0
 16 17  2  0  0  0  0
 17 18  1  0  0  0  0
 17 38  1  0  0  0  0
 18 37  1  0  0  0  0
 19 36  1  0  0  0  0
 19 18  2  0  0  0  0
 20 12  1  0  0  0  0
 23  2  1  0  0  0  0
 27  3  1  0  0  0  0
 29 14  1  0  0  0  0
 30 13  1  0  0  0  0
 32  5  1  0  0  0  0
 33  6  1  0  0  0  0
 39 16  1  0  0  0  0
M  END
