1,2,3,4
 OpenBabel05122313063D

 49 51  0  0  1  0  0  0  0  0999 V2000
    1.3478   -0.8264   -1.8857 N   0  0  0  0  0  0  0  0  0  0  0  0
    0.1766   -2.3788   -0.1444 N   0  0  0  0  0  2  0  0  0  0  0  0
    2.6007   -0.7606    0.5382 N   0  0  0  0  0  2  0  0  0  0  0  0
    1.3342    1.4472   -0.3384 N   0  0  0  0  0  2  0  0  0  0  0  0
    0.3397   -1.7314   -2.4835 C   0  0  0  0  0  0  0  0  0  0  0  0
    0.7197   -2.2367   -3.3999 H   0  0  0  0  0  0  0  0  0  0  0  0
   -0.5214   -1.1102   -2.8021 H   0  0  0  0  0  0  0  0  0  0  0  0
   -0.0746   -2.7443   -1.4429 C   0  0  1  0  0  3  0  0  0  0  0  0
   -0.6632   -3.9606   -1.7951 C   0  0  0  0  0  0  0  0  0  0  0  0
   -0.8402   -4.1949   -2.8548 H   0  0  0  0  0  0  0  0  0  0  0  0
   -1.0124   -4.8590   -0.7782 C   0  0  0  0  0  0  0  0  0  0  0  0
   -1.4986   -5.8168   -1.0128 H   0  0  0  0  0  0  0  0  0  0  0  0
   -0.6872   -4.5226    0.5387 C   0  0  0  0  0  0  0  0  0  0  0  0
   -0.8973   -5.2199    1.3620 H   0  0  0  0  0  0  0  0  0  0  0  0
   -0.0680   -3.2944    0.8456 C   0  0  0  0  0  0  0  0  0  0  0  0
    0.3713   -3.0065    2.2458 C   0  0  0  0  0  0  0  0  0  0  0  0
   -0.0911   -2.0797    2.6337 H   0  0  0  0  0  0  0  0  0  0  0  0
    1.4676   -2.8464    2.2642 H   0  0  0  0  0  0  0  0  0  0  0  0
    0.1305   -3.8555    2.9098 H   0  0  0  0  0  0  0  0  0  0  0  0
    2.6645   -1.4968   -1.7665 C   0  0  0  0  0  0  0  0  0  0  0  0
    3.2688   -1.3772   -2.6911 H   0  0  0  0  0  0  0  0  0  0  0  0
    2.4725   -2.5832   -1.6395 H   0  0  0  0  0  0  0  0  0  0  0  0
    3.3973   -1.0117   -0.5514 C   0  0  2  0  0  3  0  0  0  0  0  0
    4.7877   -0.9139   -0.5331 C   0  0  0  0  0  0  0  0  0  0  0  0
    5.3587   -1.1105   -1.4517 H   0  0  0  0  0  0  0  0  0  0  0  0
    5.4255   -0.5661    0.6661 C   0  0  0  0  0  0  0  0  0  0  0  0
    6.5189   -0.4644    0.7194 H   0  0  0  0  0  0  0  0  0  0  0  0
    4.6277   -0.3692    1.7913 C   0  0  0  0  0  0  0  0  0  0  0  0
    5.0805   -0.1266    2.7635 H   0  0  0  0  0  0  0  0  0  0  0  0
    3.2211   -0.4806    1.7267 C   0  0  0  0  0  0  0  0  0  0  0  0
    2.4510   -0.3549    3.0079 C   0  0  0  0  0  0  0  0  0  0  0  0
    2.6757   -1.2332    3.6499 H   0  0  0  0  0  0  0  0  0  0  0  0
    1.3615   -0.3074    2.8511 H   0  0  0  0  0  0  0  0  0  0  0  0
    2.7863    0.5361    3.5738 H   0  0  0  0  0  0  0  0  0  0  0  0
    1.4216    0.4818   -2.5669 C   0  0  0  0  0  0  0  0  0  0  0  0
    0.4000    0.7179   -2.9310 H   0  0  0  0  0  0  0  0  0  0  0  0
    2.0882    0.4491   -3.4557 H   0  0  0  0  0  0  0  0  0  0  0  0
    1.8292    1.5658   -1.6097 C   0  0  1  0  0  3  0  0  0  0  0  0
    2.5735    2.6591   -2.0539 C   0  0  0  0  0  0  0  0  0  0  0  0
    2.9518    2.6777   -3.0859 H   0  0  0  0  0  0  0  0  0  0  0  0
    2.8156    3.7148   -1.1651 C   0  0  0  0  0  0  0  0  0  0  0  0
    3.4057    4.5908   -1.4712 H   0  0  0  0  0  0  0  0  0  0  0  0
    2.2768    3.6232    0.1159 C   0  0  0  0  0  0  0  0  0  0  0  0
    2.4190    4.4362    0.8415 H   0  0  0  0  0  0  0  0  0  0  0  0
    1.5292    2.4945    0.5212 C   0  0  0  0  0  0  0  0  0  0  0  0
    0.9017    2.5215    1.8780 C   0  0  0  0  0  0  0  0  0  0  0  0
    1.4149    3.2563    2.5243 H   0  0  0  0  0  0  0  0  0  0  0  0
    0.8775    1.5367    2.3637 H   0  0  0  0  0  0  0  0  0  0  0  0
   -0.1571    2.8440    1.7829 H   0  0  0  0  0  0  0  0  0  0  0  0
  1 20  1  0  0  0  0
  2 15  1  0  0  0  0
  3 30  1  0  0  0  0
  4 45  1  0  0  0  0
  5  1  1  0  0  0  0
  6  5  1  0  0  0  0
  7  5  1  0  0  0  0
  8  5  1  6  0  0  0
  8  2  1  0  0  0  0
  9  8  1  0  0  0  0
  9 11  2  0  0  0  0
 10  9  1  0  0  0  0
 11 13  1  0  0  0  0
 12 11  1  0  0  0  0
 13 15  2  0  0  0  0
 13 14  1  0  0  0  0
 15 16  1  0  0  0  0
 16 18  1  0  0  0  0
 16 17  1  0  0  0  0
 16 19  1  0  0  0  0
 20 22  1  0  0  0  0
 21 20  1  0  0  0  0
 23 20  1  1  0  0  0
 23 24  1  0  0  0  0
 23  3  1  0  0  0  0
 24 26  2  0  0  0  0
 25 24  1  0  0  0  0
 26 27  1  0  0  0  0
 26 28  1  0  0  0  0
 28 29  1  0  0  0  0
 30 28  2  0  0  0  0
 30 31  1  0  0  0  0
 31 34  1  0  0  0  0
 31 32  1  0  0  0  0
 33 31  1  0  0  0  0
 35  1  1  0  0  0  0
 36 35  1  0  0  0  0
 37 35  1  0  0  0  0
 38 35  1  6  0  0  0
 38  4  1  0  0  0  0
 39 38  1  0  0  0  0
 39 41  2  0  0  0  0
 40 39  1  0  0  0  0
 41 43  1  0  0  0  0
 42 41  1  0  0  0  0
 43 45  2  0  0  0  0
 43 44  1  0  0  0  0
 45 46  1  0  0  0  0
 46 48  1  0  0  0  0
 46 47  1  0  0  0  0
 49 46  1  0  0  0  0
M  END
