2,3,4,5
 OpenBabel05122313063D

 76 83  0  0  0  0  0  0  0  0999 V2000
    3.7278   -2.2790   -1.4262 O   0  0  0  0  0  0  0  0  0  0  0  0
    1.7422   -0.7679    0.0121 N   0  0  0  0  0  2  0  0  0  0  0  0
    0.7552    1.7342    0.1517 N   0  0  0  0  0  0  0  0  0  0  0  0
   -1.7678    0.7367   -0.0331 N   0  0  0  0  0  2  0  0  0  0  0  0
   -0.7590   -1.7692    0.0069 N   0  0  0  0  0  0  0  0  0  0  0  0
    3.6877   -1.0528   -1.4632 C   0  0  0  0  0  0  0  0  0  0  0  0
    4.3014   -0.4834   -2.2121 H   0  0  0  0  0  0  0  0  0  0  0  0
    2.8129   -0.1738   -0.6477 C   0  0  0  0  0  0  0  0  0  0  0  0
    3.0283    1.2110   -0.6521 C   0  0  0  0  0  0  0  0  0  0  0  0
    2.0724    2.0773   -0.0646 C   0  0  0  0  0  0  0  0  0  0  0  0
    2.3221    3.4155    0.4071 C   0  0  0  0  0  0  0  0  0  0  0  0
    3.2963    3.9153    0.3826 H   0  0  0  0  0  0  0  0  0  0  0  0
    1.1330    3.8864    0.9191 C   0  0  0  0  0  0  0  0  0  0  0  0
    0.9359    4.8575    1.3840 H   0  0  0  0  0  0  0  0  0  0  0  0
    0.1463    2.8563    0.6945 C   0  0  0  0  0  3  0  0  0  0  0  0
   -1.2498    3.0169    0.7954 C   0  0  0  0  0  0  0  0  0  0  0  0
   -2.1313    2.0237    0.3269 C   0  0  0  0  0  0  0  0  0  0  0  0
   -3.5253    2.2452    0.0181 C   0  0  0  0  0  0  0  0  0  0  0  0
   -4.0577    3.1886    0.1777 H   0  0  0  0  0  0  0  0  0  0  0  0
   -3.9942    1.0902   -0.5611 C   0  0  0  0  0  0  0  0  0  0  0  0
   -4.9960    0.8910   -0.9542 H   0  0  0  0  0  0  0  0  0  0  0  0
   -2.9078    0.1366   -0.5354 C   0  0  0  0  0  0  0  0  0  0  0  0
   -3.0258   -1.2404   -0.8272 C   0  0  0  0  0  0  0  0  0  0  0  0
   -2.0030   -2.1368   -0.4816 C   0  0  0  0  0  0  0  0  0  0  0  0
   -2.1600   -3.5727   -0.3805 C   0  0  0  0  0  0  0  0  0  0  0  0
   -3.0477   -4.1271   -0.7026 H   0  0  0  0  0  0  0  0  0  0  0  0
   -1.0261   -4.0571    0.2246 C   0  0  0  0  0  0  0  0  0  0  0  0
   -0.7766   -5.0947    0.4694 H   0  0  0  0  0  0  0  0  0  0  0  0
   -0.1506   -2.9259    0.4425 C   0  0  0  0  0  3  0  0  0  0  0  0
    1.1853   -2.9902    0.8968 C   0  0  0  0  0  0  0  0  0  0  0  0
    2.0599   -1.9402    0.6023 C   0  0  0  0  0  0  0  0  0  0  0  0
    3.1187   -2.0869    0.8612 H   0  0  0  0  0  0  0  0  0  0  0  0
    4.2829    1.8003   -1.1856 C   0  0  0  0  0  0  0  0  0  0  0  0
    5.5478    1.3194   -0.7738 C   0  0  0  0  0  0  0  0  0  0  0  0
    5.5960    0.5007   -0.0398 H   0  0  0  0  0  0  0  0  0  0  0  0
    6.7280    1.8923   -1.2669 C   0  0  0  0  0  0  0  0  0  0  0  0
    7.7028    1.5075   -0.9310 H   0  0  0  0  0  0  0  0  0  0  0  0
    6.6669    2.9600   -2.1765 C   0  0  0  0  0  0  0  0  0  0  0  0
    7.5937    3.4104   -2.5632 H   0  0  0  0  0  0  0  0  0  0  0  0
    5.4178    3.4538   -2.5872 C   0  0  0  0  0  0  0  0  0  0  0  0
    5.3629    4.2883   -3.3028 H   0  0  0  0  0  0  0  0  0  0  0  0
    4.2368    2.8828   -2.0944 C   0  0  0  0  0  0  0  0  0  0  0  0
    3.2576    3.2614   -2.4234 H   0  0  0  0  0  0  0  0  0  0  0  0
   -1.8257    4.2939    1.2979 C   0  0  0  0  0  0  0  0  0  0  0  0
   -1.5451    5.5289    0.6719 C   0  0  0  0  0  0  0  0  0  0  0  0
   -0.8932    5.5450   -0.2140 H   0  0  0  0  0  0  0  0  0  0  0  0
   -2.1120    6.7183    1.1516 C   0  0  0  0  0  0  0  0  0  0  0  0
   -1.8900    7.6704    0.6459 H   0  0  0  0  0  0  0  0  0  0  0  0
   -2.9680    6.6952    2.2643 C   0  0  0  0  0  0  0  0  0  0  0  0
   -3.4111    7.6297    2.6407 H   0  0  0  0  0  0  0  0  0  0  0  0
   -3.2602    5.4731    2.8904 C   0  0  0  0  0  0  0  0  0  0  0  0
   -3.9300    5.4462    3.7635 H   0  0  0  0  0  0  0  0  0  0  0  0
   -2.6977    4.2823    2.4096 C   0  0  0  0  0  0  0  0  0  0  0  0
   -2.9216    3.3238    2.9013 H   0  0  0  0  0  0  0  0  0  0  0  0
   -4.2926   -1.7868   -1.3892 C   0  0  0  0  0  0  0  0  0  0  0  0
   -5.5126   -1.7020   -0.6830 C   0  0  0  0  0  0  0  0  0  0  0  0
   -5.5264   -1.2260    0.3088 H   0  0  0  0  0  0  0  0  0  0  0  0
   -6.6895   -2.2408   -1.2226 C   0  0  0  0  0  0  0  0  0  0  0  0
   -7.6303   -2.1725   -0.6552 H   0  0  0  0  0  0  0  0  0  0  0  0
   -6.6674   -2.8752   -2.4750 C   0  0  0  0  0  0  0  0  0  0  0  0
   -7.5917   -3.2975   -2.8975 H   0  0  0  0  0  0  0  0  0  0  0  0
   -5.4588   -2.9731   -3.1823 C   0  0  0  0  0  0  0  0  0  0  0  0
   -5.4323   -3.4698   -4.1643 H   0  0  0  0  0  0  0  0  0  0  0  0
   -4.2809   -2.4357   -2.6435 C   0  0  0  0  0  0  0  0  0  0  0  0
   -3.3331   -2.5074   -3.1980 H   0  0  0  0  0  0  0  0  0  0  0  0
    1.7303   -4.2141    1.5278 C   0  0  0  0  0  0  0  0  0  0  0  0
    1.0270   -4.8834    2.5560 C   0  0  0  0  0  0  0  0  0  0  0  0
    0.0650   -4.4757    2.9014 H   0  0  0  0  0  0  0  0  0  0  0  0
    1.5567   -6.0370    3.1504 C   0  0  0  0  0  0  0  0  0  0  0  0
    0.9995   -6.5409    3.9551 H   0  0  0  0  0  0  0  0  0  0  0  0
    2.7986   -6.5415    2.7318 C   0  0  0  0  0  0  0  0  0  0  0  0
    3.2142   -7.4466    3.2003 H   0  0  0  0  0  0  0  0  0  0  0  0
    3.5064   -5.8850    1.7112 C   0  0  0  0  0  0  0  0  0  0  0  0
    4.4742   -6.2820    1.3684 H   0  0  0  0  0  0  0  0  0  0  0  0
    2.9800   -4.7330    1.1123 C   0  0  0  0  0  0  0  0  0  0  0  0
    3.5143   -4.2382    0.2863 H   0  0  0  0  0  0  0  0  0  0  0  0
  2 31  1  0  0  0  0
  3 15  1  0  0  0  0
  4 17  1  0  0  0  0
  5 29  1  0  0  0  0
  6  1  2  0  0  0  0
  6  8  1  0  0  0  0
  7  6  1  0  0  0  0
  8  2  1  0  0  0  0
  9  8  2  0  0  0  0
  9 10  1  0  0  0  0
 10  3  2  0  0  0  0
 10 11  1  0  0  0  0
 11 13  2  0  0  0  0
 12 11  1  0  0  0  0
 13 14  1  0  0  0  0
 15 16  1  0  0  0  0
 15 13  1  0  0  0  0
 16 44  1  0  0  0  0
 17 16  2  0  0  0  0
 18 19  1  0  0  0  0
 18 17  1  0  0  0  0
 20 22  1  0  0  0  0
 20 18  2  0  0  0  0
 21 20  1  0  0  0  0
 22  4  1  0  0  0  0
 23 22  2  0  0  0  0
 23 24  1  0  0  0  0
 24 25  1  0  0  0  0
 24  5  2  0  0  0  0
 25 27  2  0  0  0  0
 26 25  1  0  0  0  0
 27 29  1  0  0  0  0
 27 28  1  0  0  0  0
 29 30  1  0  0  0  0
 30 66  1  0  0  0  0
 31 32  1  0  0  0  0
 31 30  2  0  0  0  0
 33 34  1  0  0  0  0
 33  9  1  0  0  0  0
 34 35  1  0  0  0  0
 36 37  1  0  0  0  0
 36 34  2  0  0  0  0
 38 36  1  0  0  0  0
 39 38  1  0  0  0  0
 40 38  2  0  0  0  0
 40 42  1  0  0  0  0
 41 40  1  0  0  0  0
 42 33  2  0  0  0  0
 43 42  1  0  0  0  0
 44 53  1  0  0  0  0
 45 47  1  0  0  0  0
 45 44  2  0  0  0  0
 46 45  1  0  0  0  0
 47 49  2  0  0  0  0
 48 47  1  0  0  0  0
 49 50  1  0  0  0  0
 49 51  1  0  0  0  0
 51 52  1  0  0  0  0
 53 51  2  0  0  0  0
 53 54  1  0  0  0  0
 55 23  1  0  0  0  0
 55 56  1  0  0  0  0
 56 57  1  0  0  0  0
 58 56  2  0  0  0  0
 58 59  1  0  0  0  0
 60 58  1  0  0  0  0
 61 60  1  0  0  0  0
 62 64  1  0  0  0  0
 62 60  2  0  0  0  0
 63 62  1  0  0  0  0
 64 55  2  0  0  0  0
 65 64  1  0  0  0  0
 66 67  1  0  0  0  0
 67 68  1  0  0  0  0
 67 69  2  0  0  0  0
 69 70  1  0  0  0  0
 71 69  1  0  0  0  0
 71 72  1  0  0  0  0
 73 71  2  0  0  0  0
 74 73  1  0  0  0  0
 75 66  2  0  0  0  0
 75 73  1  0  0  0  0
 76 75  1  0  0  0  0
M  END
