1,5,34,56
q = 0.0, confidence = 0.988

 56 58  0  0  1  0  0  0  0  0999 V2000
   -2.2231    0.1385    1.3207 N   0  0  0  0  0  0  0  0  0  0  0  0
   -1.8792   -1.0149    2.1563 C   0  0  0  0  0  0  0  0  0  0  0  0
   -2.2342   -1.9262    1.6274 H   0  0  0  0  0  0  0  0  0  0  0  0
   -2.3977   -0.9975    3.1420 H   0  0  0  0  0  0  0  0  0  0  0  0
    0.4078   -0.8157    1.2975 N   0  0  0  0  0  2  0  0  0  0  0  0
   -0.3828   -1.1222    2.3638 C   0  0  2  0  0  3  0  0  0  0  0  0
    0.1331   -1.5437    3.5872 C   0  0  0  0  0  0  0  0  0  0  0  0
   -0.5434   -1.7664    4.4242 H   0  0  0  0  0  0  0  0  0  0  0  0
    1.5282   -1.6758    3.7105 C   0  0  0  0  0  0  0  0  0  0  0  0
    1.9742   -2.0141    4.6576 H   0  0  0  0  0  0  0  0  0  0  0  0
    2.3507   -1.3717    2.6340 C   0  0  0  0  0  0  0  0  0  0  0  0
    3.4429   -1.4404    2.6834 H   0  0  0  0  0  0  0  0  0  0  0  0
    1.7661   -0.9295    1.4145 C   0  0  0  0  0  0  0  0  0  0  0  0
    2.5215   -0.5944    0.3102 N   0  0  0  0  0  0  0  0  0  0  0  0
    1.9915   -0.4094   -0.5640 H   0  0  0  0  0  0  0  0  0  0  0  0
    4.6434   -0.7055    1.2155 O   0  0  0  0  0  0  0  0  0  0  0  0
    3.9312   -0.4907    0.2454 C   0  0  0  0  0  0  0  0  0  0  0  0
    4.4927   -0.0849   -1.1309 C   0  0  0  0  0  0  0  0  0  0  0  0
    6.0197    0.0201   -1.0022 C   0  0  0  0  0  0  0  0  0  0  0  0
    6.4638   -0.9429   -0.6863 H   0  0  0  0  0  0  0  0  0  0  0  0
    6.3102    0.7807   -0.2523 H   0  0  0  0  0  0  0  0  0  0  0  0
    6.4551    0.3050   -1.9800 H   0  0  0  0  0  0  0  0  0  0  0  0
    4.1302   -1.1715   -2.1692 C   0  0  0  0  0  0  0  0  0  0  0  0
    4.5332   -2.1588   -1.8668 H   0  0  0  0  0  0  0  0  0  0  0  0
    4.5815   -0.9075   -3.1468 H   0  0  0  0  0  0  0  0  0  0  0  0
    3.0376   -1.2637   -2.3244 H   0  0  0  0  0  0  0  0  0  0  0  0
    3.9104    1.2850   -1.5475 C   0  0  0  0  0  0  0  0  0  0  0  0
    4.1402    2.0621   -0.7906 H   0  0  0  0  0  0  0  0  0  0  0  0
    2.8150    1.2471   -1.7068 H   0  0  0  0  0  0  0  0  0  0  0  0
    4.3700    1.6007   -2.5057 H   0  0  0  0  0  0  0  0  0  0  0  0
   -3.5279    0.0265    0.6691 C   0  0  0  0  0  0  0  0  0  0  0  0
   -3.7687    1.0142    0.2184 H   0  0  0  0  0  0  0  0  0  0  0  0
   -4.3474   -0.2008    1.3897 H   0  0  0  0  0  0  0  0  0  0  0  0
   -2.3168   -1.1660   -1.0720 N   0  0  0  0  0  2  0  0  0  0  0  0
   -3.5013   -1.0055   -0.4423 C   0  0  2  0  0  3  0  0  0  0  0  0
   -4.6410   -1.7186   -0.8393 C   0  0  0  0  0  0  0  0  0  0  0  0
   -5.5927   -1.5773   -0.3059 H   0  0  0  0  0  0  0  0  0  0  0  0
   -4.5425   -2.6046   -1.9221 C   0  0  0  0  0  0  0  0  0  0  0  0
   -5.4229   -3.1759   -2.2523 H   0  0  0  0  0  0  0  0  0  0  0  0
   -3.3095   -2.7543   -2.5739 C   0  0  0  0  0  0  0  0  0  0  0  0
   -3.1913   -3.4379   -3.4263 H   0  0  0  0  0  0  0  0  0  0  0  0
   -2.2145   -2.0132   -2.1161 C   0  0  0  0  0  0  0  0  0  0  0  0
   -1.2187   -2.0660   -2.5865 H   0  0  0  0  0  0  0  0  0  0  0  0
   -1.9752    1.4388    1.9461 C   0  0  0  0  0  0  0  0  0  0  0  0
   -1.1211    1.3182    2.6475 H   0  0  0  0  0  0  0  0  0  0  0  0
   -2.8359    1.7923    2.5584 H   0  0  0  0  0  0  0  0  0  0  0  0
   -1.5909    2.4850    0.9157 C   0  0  1  0  0  3  0  0  0  0  0  0
   -1.8478    3.8517    1.0939 C   0  0  0  0  0  0  0  0  0  0  0  0
   -2.3951    4.1976    1.9832 H   0  0  0  0  0  0  0  0  0  0  0  0
   -1.3935    4.7596    0.1259 C   0  0  0  0  0  0  0  0  0  0  0  0
   -1.5819    5.8370    0.2458 H   0  0  0  0  0  0  0  0  0  0  0  0
   -0.7051    4.2766   -0.9968 C   0  0  0  0  0  0  0  0  0  0  0  0
   -0.3374    4.9552   -1.7792 H   0  0  0  0  0  0  0  0  0  0  0  0
   -0.4969    2.8979   -1.1131 C   0  0  0  0  0  0  0  0  0  0  0  0
    0.0252    2.4403   -1.9705 H   0  0  0  0  0  0  0  0  0  0  0  0
   -0.9309    2.0331   -0.1739 N   0  0  0  0  0  2  0  0  0  0  0  0
  1 44  1  0  0  0  0
  1  2  1  0  0  0  0
  2  4  1  0  0  0  0
  3  2  1  0  0  0  0
  5 13  1  0  0  0  0
  5  6  1  0  0  0  0
  6  2  1  6  0  0  0
  6  7  1  0  0  0  0
  7  9  2  0  0  0  0
  7  8  1  0  0  0  0
  9 10  1  0  0  0  0
 11 12  1  0  0  0  0
 11  9  1  0  0  0  0
 13 11  2  0  0  0  0
 14 13  1  0  0  0  0
 15 14  1  0  0  0  0
 17 14  1  0  0  0  0
 17 16  2  0  0  0  0
 18 19  1  0  0  0  0
 18 17  1  0  0  0  0
 19 20  1  0  0  0  0
 19 21  1  0  0  0  0
 22 19  1  0  0  0  0
 23 24  1  0  0  0  0
 23 18  1  0  0  0  0
 25 23  1  0  0  0  0
 26 23  1  0  0  0  0
 27 18  1  0  0  0  0
 27 28  1  0  0  0  0
 29 27  1  0  0  0  0
 30 27  1  0  0  0  0
 31  1  1  0  0  0  0
 31 33  1  0  0  0  0
 32 31  1  0  0  0  0
 34 35  1  0  0  0  0
 35 31  1  6  0  0  0
 36 35  1  0  0  0  0
 36 37  1  0  0  0  0
 38 36  2  0  0  0  0
 39 38  1  0  0  0  0
 40 42  2  0  0  0  0
 40 38  1  0  0  0  0
 41 40  1  0  0  0  0
 42 34  1  0  0  0  0
 43 42  1  0  0  0  0
 44 46  1  0  0  0  0
 44 45  1  0  0  0  0
 47 48  1  0  0  0  0
 47 44  1  1  0  0  0
 48 49  1  0  0  0  0
 50 51  1  0  0  0  0
 50 48  2  0  0  0  0
 52 50  1  0  0  0  0
 53 52  1  0  0  0  0
 54 52  2  0  0  0  0
 54 56  1  0  0  0  0
 55 54  1  0  0  0  0
 56 47  1  0  0  0  0
M  END
