13,14,15,16
 OpenBabel05122313063D

 72 76  0  0  1  0  0  0  0  0999 V2000
    6.4332    0.4250    2.7480 F   0  0  0  0  0  0  0  0  0  0  0  0
    8.7466    1.0983    1.4852 F   0  0  0  0  0  0  0  0  0  0  0  0
    9.0782    0.5057   -1.1634 F   0  0  0  0  0  0  0  0  0  0  0  0
    7.0852   -0.7489   -2.5569 F   0  0  0  0  0  0  0  0  0  0  0  0
    4.7780   -1.4370   -1.3114 F   0  0  0  0  0  0  0  0  0  0  0  0
   -4.7781    1.4367   -1.3116 F   0  0  0  0  0  0  0  0  0  0  0  0
   -7.0853    0.7484   -2.5570 F   0  0  0  0  0  0  0  0  0  0  0  0
   -9.0782   -0.5059   -1.1633 F   0  0  0  0  0  0  0  0  0  0  0  0
   -8.7465   -1.0983    1.4854 F   0  0  0  0  0  0  0  0  0  0  0  0
   -6.4331   -0.4247    2.7481 F   0  0  0  0  0  0  0  0  0  0  0  0
    4.4518   -1.7016    2.5007 O   0  0  0  0  0  0  0  0  0  0  0  0
   -4.4518    1.7020    2.5004 O   0  0  0  0  0  0  0  0  0  0  0  0
   -0.9214    1.6157   -0.0215 N   0  0  0  0  0  2  0  0  0  0  0  0
    1.5573    1.0225   -0.0687 N   0  0  0  0  0  2  0  0  0  0  0  0
    0.9214   -1.6156   -0.0213 N   0  0  0  0  0  2  0  0  0  0  0  0
   -1.5573   -1.0224   -0.0688 N   0  0  0  0  0  2  0  0  0  0  0  0
   -0.1172    2.6163   -0.6074 C   0  0  0  0  0  0  0  0  0  0  0  0
   -0.5639    3.7791   -1.2598 C   0  0  0  0  0  0  0  0  0  0  0  0
   -1.6368    3.9959   -1.3260 H   0  0  0  0  0  0  0  0  0  0  0  0
    0.3578    4.6330   -1.8901 C   0  0  0  0  0  0  0  0  0  0  0  0
   -0.0059    5.5316   -2.4101 H   0  0  0  0  0  0  0  0  0  0  0  0
    1.7222    4.3162   -1.8981 C   0  0  0  0  0  0  0  0  0  0  0  0
    2.4391    4.9643   -2.4234 H   0  0  0  0  0  0  0  0  0  0  0  0
    2.1790    3.1392   -1.2807 C   0  0  0  0  0  0  0  0  0  0  0  0
    3.2354    2.8589   -1.3683 H   0  0  0  0  0  0  0  0  0  0  0  0
    1.2726    2.2869   -0.6237 C   0  0  0  0  0  0  0  0  0  0  0  0
    2.7168    0.6568    0.4943 C   0  0  2  0  0  3  0  0  0  0  0  0
    2.9715   -0.7002    0.8739 C   0  0  0  0  0  0  0  0  0  0  0  0
    2.0995   -1.8059    0.5824 C   0  0  0  0  0  0  0  0  0  0  0  0
    0.1172   -2.6163   -0.6072 C   0  0  0  0  0  0  0  0  0  0  0  0
    0.5639   -3.7792   -1.2595 C   0  0  0  0  0  0  0  0  0  0  0  0
    1.6368   -3.9960   -1.3255 H   0  0  0  0  0  0  0  0  0  0  0  0
   -0.3576   -4.6331   -1.8898 C   0  0  0  0  0  0  0  0  0  0  0  0
    0.0061   -5.5317   -2.4096 H   0  0  0  0  0  0  0  0  0  0  0  0
   -1.7221   -4.3162   -1.8980 C   0  0  0  0  0  0  0  0  0  0  0  0
   -2.4389   -4.9644   -2.4233 H   0  0  0  0  0  0  0  0  0  0  0  0
   -2.1789   -3.1392   -1.2807 C   0  0  0  0  0  0  0  0  0  0  0  0
   -3.2353   -2.8589   -1.3685 H   0  0  0  0  0  0  0  0  0  0  0  0
   -1.2726   -2.2868   -0.6237 C   0  0  0  0  0  0  0  0  0  0  0  0
   -2.7168   -0.6567    0.4942 C   0  0  2  0  0  3  0  0  0  0  0  0
   -2.9715    0.7003    0.8737 C   0  0  0  0  0  0  0  0  0  0  0  0
   -2.0995    1.8060    0.5822 C   0  0  0  0  0  0  0  0  0  0  0  0
    3.7126    1.7344    0.8870 C   0  0  0  0  0  0  0  0  0  0  0  0
    3.1927    2.7007    1.0247 H   0  0  0  0  0  0  0  0  0  0  0  0
    4.5136    1.8879    0.1374 H   0  0  0  0  0  0  0  0  0  0  0  0
    4.2035    1.4742    1.8421 H   0  0  0  0  0  0  0  0  0  0  0  0
    2.5380   -3.2035    0.9570 C   0  0  0  0  0  0  0  0  0  0  0  0
    1.6890   -3.9076    0.9527 H   0  0  0  0  0  0  0  0  0  0  0  0
    2.9887   -3.1759    1.9636 H   0  0  0  0  0  0  0  0  0  0  0  0
    3.3179   -3.5828    0.2638 H   0  0  0  0  0  0  0  0  0  0  0  0
   -3.7126   -1.7343    0.8869 C   0  0  0  0  0  0  0  0  0  0  0  0
   -3.1928   -2.7005    1.0246 H   0  0  0  0  0  0  0  0  0  0  0  0
   -4.5137   -1.8878    0.1372 H   0  0  0  0  0  0  0  0  0  0  0  0
   -4.2037   -1.4740    1.8419 H   0  0  0  0  0  0  0  0  0  0  0  0
   -2.5381    3.2036    0.9569 C   0  0  0  0  0  0  0  0  0  0  0  0
   -1.6891    3.9077    0.9528 H   0  0  0  0  0  0  0  0  0  0  0  0
   -2.9889    3.1758    1.9635 H   0  0  0  0  0  0  0  0  0  0  0  0
   -3.3179    3.5829    0.2637 H   0  0  0  0  0  0  0  0  0  0  0  0
    4.2901   -1.0132    1.4958 C   0  0  0  0  0  0  0  0  0  0  0  0
    5.5363   -0.5307    0.7647 C   0  0  0  0  0  0  0  0  0  0  0  0
    6.5874    0.0932    1.4615 C   0  0  0  0  0  0  0  0  0  0  0  0
    7.7761    0.4694    0.8184 C   0  0  0  0  0  0  0  0  0  0  0  0
    7.9449    0.1727   -0.5467 C   0  0  0  0  0  0  0  0  0  0  0  0
    6.9160   -0.4613   -1.2637 C   0  0  0  0  0  0  0  0  0  0  0  0
    5.7274   -0.8096   -0.6002 C   0  0  0  0  0  0  0  0  0  0  0  0
   -4.2902    1.0134    1.4956 C   0  0  0  0  0  0  0  0  0  0  0  0
   -5.5363    0.5308    0.7646 C   0  0  0  0  0  0  0  0  0  0  0  0
   -5.7275    0.8095   -0.6003 C   0  0  0  0  0  0  0  0  0  0  0  0
   -6.9160    0.4610   -1.2637 C   0  0  0  0  0  0  0  0  0  0  0  0
   -7.9450   -0.1729   -0.5467 C   0  0  0  0  0  0  0  0  0  0  0  0
   -7.7761   -0.4694    0.8185 C   0  0  0  0  0  0  0  0  0  0  0  0
   -6.5874   -0.0931    1.4615 C   0  0  0  0  0  0  0  0  0  0  0  0
  3 63  1  0  0  0  0
  4 64  1  0  0  0  0
  5 65  1  0  0  0  0
  6 68  1  0  0  0  0
  7 69  1  0  0  0  0
  8 70  1  0  0  0  0
 13 42  1  0  0  0  0
 14 27  1  0  0  0  0
 15 29  1  0  0  0  0
 16 40  1  0  0  0  0
 17 13  1  0  0  0  0
 18 17  2  0  0  0  0
 19 18  1  0  0  0  0
 20 18  1  0  0  0  0
 21 20  1  0  0  0  0
 22 20  2  0  0  0  0
 22 24  1  0  0  0  0
 23 22  1  0  0  0  0
 24 26  2  0  0  0  0
 25 24  1  0  0  0  0
 26 17  1  0  0  0  0
 26 14  1  0  0  0  0
 27 28  1  0  0  0  0
 27 43  1  1  0  0  0
 28 59  1  0  0  0  0
 29 28  2  0  0  0  0
 29 47  1  0  0  0  0
 30 15  1  0  0  0  0
 31 30  2  0  0  0  0
 32 31  1  0  0  0  0
 33 31  1  0  0  0  0
 34 33  1  0  0  0  0
 35 33  2  0  0  0  0
 35 37  1  0  0  0  0
 36 35  1  0  0  0  0
 37 39  2  0  0  0  0
 38 37  1  0  0  0  0
 39 30  1  0  0  0  0
 39 16  1  0  0  0  0
 40 41  1  0  0  0  0
 40 51  1  1  0  0  0
 41 66  1  0  0  0  0
 42 41  2  0  0  0  0
 42 55  1  0  0  0  0
 43 44  1  0  0  0  0
 43 46  1  0  0  0  0
 45 43  1  0  0  0  0
 47 49  1  0  0  0  0
 48 47  1  0  0  0  0
 50 47  1  0  0  0  0
 51 52  1  0  0  0  0
 51 54  1  0  0  0  0
 53 51  1  0  0  0  0
 55 57  1  0  0  0  0
 56 55  1  0  0  0  0
 58 55  1  0  0  0  0
 59 11  2  0  0  0  0
 60 61  1  0  0  0  0
 60 59  1  0  0  0  0
 61  1  1  0  0  0  0
 62 61  2  0  0  0  0
 62  2  1  0  0  0  0
 63 62  1  0  0  0  0
 64 65  1  0  0  0  0
 64 63  2  0  0  0  0
 65 60  2  0  0  0  0
 66 12  2  0  0  0  0
 67 72  1  0  0  0  0
 67 66  1  0  0  0  0
 68 67  2  0  0  0  0
 69 68  1  0  0  0  0
 69 70  2  0  0  0  0
 70 71  1  0  0  0  0
 71 72  2  0  0  0  0
 71  9  1  0  0  0  0
 72 10  1  0  0  0  0
M  END
