5,6,7,8
 OpenBabel05122313063D

 68 73  0  0  1  0  0  0  0  0999 V2000
   -6.8503   -1.9768   -1.3250 Cl  0  0  0  0  0  0  0  0  0  0  0  0
    6.6868   -1.8661   -2.1813 Cl  0  0  0  0  0  0  0  0  0  0  0  0
   -1.2377   -3.9167    2.0403 O   0  0  0  0  0  0  0  0  0  0  0  0
    1.5023   -4.0767    1.5688 O   0  0  0  0  0  0  0  0  0  0  0  0
   -1.2435   -1.9807    0.7054 N   0  0  0  0  0  2  0  0  0  0  0  0
    1.3197   -2.0263    0.4502 N   0  0  0  0  0  2  0  0  0  0  0  0
    1.3526    0.6443    0.2877 N   0  0  0  0  0  2  0  0  0  0  0  0
   -1.2132    0.7275    0.1560 N   0  0  0  0  0  2  0  0  0  0  0  0
   -0.6681   -3.0481    1.3902 C   0  0  0  0  0  0  0  0  0  0  0  0
    0.8555   -3.1161    1.1687 C   0  0  0  0  0  0  0  0  0  0  0  0
    2.5784   -1.9815   -0.1151 C   0  0  0  0  0  0  0  0  0  0  0  0
    3.3043   -3.1728   -0.4156 C   0  0  0  0  0  0  0  0  0  0  0  0
    2.8650   -4.1350   -0.1314 H   0  0  0  0  0  0  0  0  0  0  0  0
    4.5449   -3.1385   -1.0428 C   0  0  0  0  0  0  0  0  0  0  0  0
    5.0702   -4.0749   -1.2795 H   0  0  0  0  0  0  0  0  0  0  0  0
    5.1339   -1.9027   -1.3827 C   0  0  0  0  0  0  0  0  0  0  0  0
    4.4793   -0.7162   -1.0742 C   0  0  0  0  0  3  0  0  0  0  0  0
    4.9494    0.2424   -1.3291 H   0  0  0  0  0  0  0  0  0  0  0  0
    3.2087   -0.7281   -0.4378 C   0  0  0  0  0  0  0  0  0  0  0  0
    2.6178    0.5444   -0.0538 C   0  0  0  0  0  0  0  0  0  0  0  0
    3.4972    1.7565   -0.0179 C   0  0  0  0  0  0  0  0  0  0  0  0
    4.4815    1.8888    0.9823 C   0  0  0  0  0  0  0  0  0  0  0  0
    4.6067    1.0866    1.7251 H   0  0  0  0  0  0  0  0  0  0  0  0
    5.2945    3.0308    1.0251 C   0  0  0  0  0  0  0  0  0  0  0  0
    6.0567    3.1283    1.8128 H   0  0  0  0  0  0  0  0  0  0  0  0
    5.1426    4.0420    0.0628 C   0  0  0  0  0  0  0  0  0  0  0  0
    5.7866    4.9337    0.0937 H   0  0  0  0  0  0  0  0  0  0  0  0
    4.1731    3.9096   -0.9441 C   0  0  0  0  0  0  0  0  0  0  0  0
    4.0581    4.6943   -1.7069 H   0  0  0  0  0  0  0  0  0  0  0  0
    3.3507    2.7739   -0.9837 C   0  0  0  0  0  0  0  0  0  0  0  0
    2.5928    2.6628   -1.7744 H   0  0  0  0  0  0  0  0  0  0  0  0
    0.7913    1.8434    0.9051 C   0  0  2  0  0  0  0  0  0  0  0  0
    1.4282    2.7315    0.7180 H   0  0  0  0  0  0  0  0  0  0  0  0
    0.6895    1.6140    2.4294 C   0  0  0  0  0  0  0  0  0  0  0  0
    0.1854    0.6364    2.5941 H   0  0  0  0  0  0  0  0  0  0  0  0
    1.7170    1.5113    2.8354 H   0  0  0  0  0  0  0  0  0  0  0  0
   -0.0920    2.7194    3.1408 C   0  0  0  0  0  0  0  0  0  0  0  0
    0.4711    3.6777    3.0837 H   0  0  0  0  0  0  0  0  0  0  0  0
   -0.1870    2.4744    4.2186 H   0  0  0  0  0  0  0  0  0  0  0  0
   -1.4678    2.9052    2.4931 C   0  0  0  0  0  0  0  0  0  0  0  0
   -2.0791    1.9870    2.6363 H   0  0  0  0  0  0  0  0  0  0  0  0
   -2.0233    3.7325    2.9803 H   0  0  0  0  0  0  0  0  0  0  0  0
   -1.3140    3.1942    0.9985 C   0  0  0  0  0  0  0  0  0  0  0  0
   -0.6895    4.1062    0.8708 H   0  0  0  0  0  0  0  0  0  0  0  0
   -2.2827    3.4295    0.5292 H   0  0  0  0  0  0  0  0  0  0  0  0
   -0.5747    2.0746    0.2401 C   0  0  2  0  0  0  0  0  0  0  0  0
   -0.3860    2.4171   -0.8010 H   0  0  0  0  0  0  0  0  0  0  0  0
   -2.4622    0.5568   -0.2429 C   0  0  0  0  0  0  0  0  0  0  0  0
   -3.2512    1.7230   -0.7601 C   0  0  0  0  0  0  0  0  0  0  0  0
   -4.3646    2.2241   -0.0522 C   0  0  0  0  0  0  0  0  0  0  0  0
   -4.6577    1.7494    0.8961 H   0  0  0  0  0  0  0  0  0  0  0  0
   -5.0785    3.3245   -0.5447 C   0  0  0  0  0  0  0  0  0  0  0  0
   -5.9392    3.7137    0.0197 H   0  0  0  0  0  0  0  0  0  0  0  0
   -4.6992    3.9261   -1.7566 C   0  0  0  0  0  0  0  0  0  0  0  0
   -5.2622    4.7885   -2.1441 H   0  0  0  0  0  0  0  0  0  0  0  0
   -3.6091    3.4158   -2.4785 C   0  0  0  0  0  0  0  0  0  0  0  0
   -3.3209    3.8708   -3.4381 H   0  0  0  0  0  0  0  0  0  0  0  0
   -2.8879    2.3184   -1.9838 C   0  0  0  0  0  0  0  0  0  0  0  0
   -2.0418    1.9088   -2.5562 H   0  0  0  0  0  0  0  0  0  0  0  0
   -3.1434   -0.7345   -0.2212 C   0  0  0  0  0  0  0  0  0  0  0  0
   -4.4620   -0.7984   -0.7591 C   0  0  0  0  0  3  0  0  0  0  0  0
   -4.8820    0.0712   -1.2770 H   0  0  0  0  0  0  0  0  0  0  0  0
   -5.2417   -1.9412   -0.6432 C   0  0  0  0  0  0  0  0  0  0  0  0
   -4.7373   -3.0670    0.0382 C   0  0  0  0  0  0  0  0  0  0  0  0
   -5.3642   -3.9624    0.1570 H   0  0  0  0  0  0  0  0  0  0  0  0
   -3.4428   -3.0486    0.5413 C   0  0  0  0  0  0  0  0  0  0  0  0
   -3.0476   -3.9204    1.0732 H   0  0  0  0  0  0  0  0  0  0  0  0
   -2.5782   -1.9213    0.3766 C   0  0  0  0  0  0  0  0  0  0  0  0
  1 63  1  0  0  0  0
  2 16  1  0  0  0  0
  5  9  1  0  0  0  0
  6 10  1  0  0  0  0
  7 32  1  0  0  0  0
  8 46  1  0  0  0  0
  9  3  2  0  0  0  0
 10  9  1  0  0  0  0
 10  4  2  0  0  0  0
 11  6  1  0  0  0  0
 12 13  1  0  0  0  0
 12 11  2  0  0  0  0
 14 12  1  0  0  0  0
 15 14  1  0  0  0  0
 16 17  1  0  0  0  0
 16 14  2  0  0  0  0
 17 19  1  0  0  0  0
 18 17  1  0  0  0  0
 19 11  1  0  0  0  0
 19 20  2  0  0  0  0
 20 21  1  0  0  0  0
 20  7  1  0  0  0  0
 21 22  1  0  0  0  0
 22 24  2  0  0  0  0
 22 23  1  0  0  0  0
 24 25  1  0  0  0  0
 26 27  1  0  0  0  0
 26 24  1  0  0  0  0
 28 26  2  0  0  0  0
 29 28  1  0  0  0  0
 30 28  1  0  0  0  0
 30 21  2  0  0  0  0
 31 30  1  0  0  0  0
 32 33  1  6  0  0  0
 32 34  1  0  0  0  0
 34 35  1  0  0  0  0
 34 36  1  0  0  0  0
 34 37  1  0  0  0  0
 37 39  1  0  0  0  0
 38 37  1  0  0  0  0
 40 41  1  0  0  0  0
 40 42  1  0  0  0  0
 40 37  1  0  0  0  0
 43 40  1  0  0  0  0
 44 43  1  0  0  0  0
 45 43  1  0  0  0  0
 46 47  1  6  0  0  0
 46 32  1  0  0  0  0
 46 43  1  0  0  0  0
 48 60  2  0  0  0  0
 48  8  1  0  0  0  0
 49 48  1  0  0  0  0
 49 50  1  0  0  0  0
 50 51  1  0  0  0  0
 52 50  2  0  0  0  0
 52 53  1  0  0  0  0
 54 52  1  0  0  0  0
 55 54  1  0  0  0  0
 56 58  1  0  0  0  0
 56 54  2  0  0  0  0
 57 56  1  0  0  0  0
 58 49  2  0  0  0  0
 59 58  1  0  0  0  0
 60 68  1  0  0  0  0
 61 63  1  0  0  0  0
 61 60  1  0  0  0  0
 62 61  1  0  0  0  0
 63 64  2  0  0  0  0
 64 65  1  0  0  0  0
 64 66  1  0  0  0  0
 66 67  1  0  0  0  0
 68 66  2  0  0  0  0
 68  5  1  0  0  0  0
M  END
