1,2,22,23
 OpenBabel05122313063D

 42 45  0  0  0  0  0  0  0  0999 V2000
   -1.5281    1.1716    0.3585 N   0  0  0  0  0  2  0  0  0  0  0  0
   -0.9716   -0.9993   -1.0739 N   0  0  0  0  0  0  0  0  0  0  0  0
   -0.9703   -2.0088   -0.8541 H   0  0  0  0  0  0  0  0  0  0  0  0
   -1.7279    2.3083    1.0462 C   0  0  0  0  0  0  0  0  0  0  0  0
   -0.8717    2.6683    1.6340 H   0  0  0  0  0  0  0  0  0  0  0  0
   -2.9682    2.9860    1.0476 C   0  0  0  0  0  0  0  0  0  0  0  0
   -3.0573    3.9127    1.6323 H   0  0  0  0  0  0  0  0  0  0  0  0
   -4.0550    2.4689    0.3528 C   0  0  0  0  0  0  0  0  0  0  0  0
   -5.0363    2.9658    0.3707 H   0  0  0  0  0  0  0  0  0  0  0  0
   -3.8880    1.2578   -0.3778 C   0  0  0  0  0  0  0  0  0  0  0  0
   -2.5870    0.6599   -0.3686 C   0  0  0  0  0  0  0  0  0  0  0  0
   -4.9249    0.5920   -1.0934 C   0  0  0  0  0  3  0  0  0  0  0  0
   -5.9327    1.0340   -1.0981 H   0  0  0  0  0  0  0  0  0  0  0  0
   -4.6781   -0.6052   -1.7542 C   0  0  0  0  0  0  0  0  0  0  0  0
   -5.4955   -1.1224   -2.2778 H   0  0  0  0  0  0  0  0  0  0  0  0
   -3.3788   -1.1746   -1.7643 C   0  0  0  0  0  0  0  0  0  0  0  0
   -3.1902   -2.1227   -2.2896 H   0  0  0  0  0  0  0  0  0  0  0  0
   -2.3467   -0.5314   -1.0940 C   0  0  0  0  0  0  0  0  0  0  0  0
   -0.2213   -0.7314   -2.3313 C   0  0  0  0  0  0  0  0  0  0  0  0
   -0.8288   -0.9586   -3.2338 H   0  0  0  0  0  0  0  0  0  0  0  0
    0.6652   -1.3970   -2.3384 H   0  0  0  0  0  0  0  0  0  0  0  0
    1.5277   -1.1707    0.3592 N   0  0  0  0  0  2  0  0  0  0  0  0
    0.9699    0.9979   -1.0761 N   0  0  0  0  0  0  0  0  0  0  0  0
    0.9683    2.0077   -0.8578 H   0  0  0  0  0  0  0  0  0  0  0  0
    1.7282   -2.3063    1.0484 C   0  0  0  0  0  0  0  0  0  0  0  0
    0.8725   -2.6658    1.6371 H   0  0  0  0  0  0  0  0  0  0  0  0
    2.9687   -2.9837    1.0500 C   0  0  0  0  0  0  0  0  0  0  0  0
    3.0583   -3.9095    1.6360 H   0  0  0  0  0  0  0  0  0  0  0  0
    4.0549   -2.4674    0.3538 C   0  0  0  0  0  0  0  0  0  0  0  0
    5.0364   -2.9641    0.3718 H   0  0  0  0  0  0  0  0  0  0  0  0
    3.8872   -1.2574   -0.3786 C   0  0  0  0  0  0  0  0  0  0  0  0
    2.5860   -0.6598   -0.3694 C   0  0  0  0  0  0  0  0  0  0  0  0
    4.9235   -0.5924   -1.0958 C   0  0  0  0  0  3  0  0  0  0  0  0
    5.9314   -1.0343   -1.1004 H   0  0  0  0  0  0  0  0  0  0  0  0
    4.6760    0.6037   -1.7583 C   0  0  0  0  0  0  0  0  0  0  0  0
    5.4929    1.1202   -2.2831 H   0  0  0  0  0  0  0  0  0  0  0  0
    3.3766    1.1727   -1.7684 C   0  0  0  0  0  0  0  0  0  0  0  0
    3.1874    2.1200   -2.2950 H   0  0  0  0  0  0  0  0  0  0  0  0
    2.3451    0.5303   -1.0964 C   0  0  0  0  0  0  0  0  0  0  0  0
    0.2188    0.7279   -2.3327 C   0  0  0  0  0  0  0  0  0  0  0  0
    0.8257    0.9536   -3.2359 H   0  0  0  0  0  0  0  0  0  0  0  0
   -0.6678    1.3935   -2.3403 H   0  0  0  0  0  0  0  0  0  0  0  0
  1  4  1  0  0  0  0
  2  3  1  0  0  0  0
  4  6  2  0  0  0  0
  4  5  1  0  0  0  0
  6  7  1  0  0  0  0
  8  9  1  0  0  0  0
  8  6  1  0  0  0  0
 10 11  1  0  0  0  0
 10  8  2  0  0  0  0
 11  1  1  0  0  0  0
 12 10  1  0  0  0  0
 13 12  1  0  0  0  0
 14 12  1  0  0  0  0
 15 14  1  0  0  0  0
 16 14  2  0  0  0  0
 16 18  1  0  0  0  0
 17 16  1  0  0  0  0
 18  2  1  0  0  0  0
 18 11  2  0  0  0  0
 19  2  1  0  0  0  0
 20 19  1  0  0  0  0
 21 19  1  0  0  0  0
 22 25  1  0  0  0  0
 23 24  1  0  0  0  0
 25 27  2  0  0  0  0
 25 26  1  0  0  0  0
 27 28  1  0  0  0  0
 29 30  1  0  0  0  0
 29 27  1  0  0  0  0
 31 32  1  0  0  0  0
 31 29  2  0  0  0  0
 32 22  1  0  0  0  0
 33 31  1  0  0  0  0
 34 33  1  0  0  0  0
 35 33  1  0  0  0  0
 36 35  1  0  0  0  0
 37 35  2  0  0  0  0
 37 39  1  0  0  0  0
 38 37  1  0  0  0  0
 39 23  1  0  0  0  0
 39 32  2  0  0  0  0
 40 19  1  0  0  0  0
 40 23  1  0  0  0  0
 41 40  1  0  0  0  0
 42 40  1  0  0  0  0
M  END
