1,2,3,4
 OpenBabel05122313063D

 61 63  0  0  0  0  0  0  0  0999 V2000
    3.5027    0.0011    0.0029 N   0  0  0  0  0  0  0  0  0  0  0  0
    1.4094    0.6225    1.9028 N   0  0  0  0  0  2  0  0  0  0  0  0
    1.4137   -1.9589   -0.4114 N   0  0  0  0  0  2  0  0  0  0  0  0
    1.4125    1.3367   -1.4888 N   0  0  0  0  0  2  0  0  0  0  0  0
    3.8105    0.2933    1.4063 C   0  0  0  0  0  0  0  0  0  0  0  0
    2.7470    1.1980    2.0492 C   0  0  0  0  0  0  0  0  0  0  0  0
    0.5991    0.6658    2.9156 C   0  0  0  0  0  3  0  0  0  0  0  0
   -0.7653    0.1400    2.9216 C   0  0  0  0  0  0  0  0  0  0  0  0
   -1.6264    0.4930    3.9875 C   0  0  0  0  0  0  0  0  0  0  0  0
   -2.9509    0.0375    4.0093 C   0  0  0  0  0  0  0  0  0  0  0  0
   -3.4271   -0.7894    2.9777 C   0  0  0  0  0  0  0  0  0  0  0  0
   -2.5728   -1.1660    1.9244 C   0  0  0  0  0  0  0  0  0  0  0  0
   -1.2545   -0.7053    1.8986 C   0  0  0  0  0  0  0  0  0  0  0  0
    3.8137   -1.3597   -0.4456 C   0  0  0  0  0  0  0  0  0  0  0  0
    2.7517   -2.3709    0.0151 C   0  0  0  0  0  0  0  0  0  0  0  0
    0.6054   -2.8591   -0.8810 C   0  0  0  0  0  3  0  0  0  0  0  0
   -0.7590   -2.6035   -1.3405 C   0  0  0  0  0  0  0  0  0  0  0  0
   -1.6182   -3.7046   -1.5682 C   0  0  0  0  0  0  0  0  0  0  0  0
   -2.9427   -3.4979   -1.9746 C   0  0  0  0  0  0  0  0  0  0  0  0
   -3.4209   -2.1919   -2.1754 C   0  0  0  0  0  0  0  0  0  0  0  0
   -2.5685   -1.0899   -1.9744 C   0  0  0  0  0  0  0  0  0  0  0  0
   -1.2502   -1.2957   -1.5616 C   0  0  0  0  0  0  0  0  0  0  0  0
    3.8125    1.0705   -0.9512 C   0  0  0  0  0  0  0  0  0  0  0  0
    2.7511    1.1755   -2.0581 C   0  0  0  0  0  0  0  0  0  0  0  0
    0.6040    2.1938   -2.0328 C   0  0  0  0  0  3  0  0  0  0  0  0
   -0.7610    2.4626   -1.5827 C   0  0  0  0  0  0  0  0  0  0  0  0
   -1.6185    3.2144   -2.4204 C   0  0  0  0  0  0  0  0  0  0  0  0
   -2.9432    3.4629   -2.0389 C   0  0  0  0  0  0  0  0  0  0  0  0
   -3.4233    2.9795   -0.8098 C   0  0  0  0  0  0  0  0  0  0  0  0
   -2.5726    2.2502    0.0421 C   0  0  0  0  0  0  0  0  0  0  0  0
   -1.2542    1.9957   -0.3420 C   0  0  0  0  0  0  0  0  0  0  0  0
    3.8366   -0.6660    1.9613 H   0  0  0  0  0  0  0  0  0  0  0  0
    4.8163    0.7604    1.5321 H   0  0  0  0  0  0  0  0  0  0  0  0
    3.0069    1.3802    3.1158 H   0  0  0  0  0  0  0  0  0  0  0  0
    2.7484    2.1889    1.5424 H   0  0  0  0  0  0  0  0  0  0  0  0
    0.9361    1.1501    3.8583 H   0  0  0  0  0  0  0  0  0  0  0  0
   -1.2515    1.1384    4.7975 H   0  0  0  0  0  0  0  0  0  0  0  0
   -3.6157    0.3250    4.8371 H   0  0  0  0  0  0  0  0  0  0  0  0
   -4.4670   -1.1486    2.9981 H   0  0  0  0  0  0  0  0  0  0  0  0
   -2.9361   -1.8199    1.1172 H   0  0  0  0  0  0  0  0  0  0  0  0
   -0.5803   -1.0007    1.0792 H   0  0  0  0  0  0  0  0  0  0  0  0
    3.8409   -1.3604   -1.5539 H   0  0  0  0  0  0  0  0  0  0  0  0
    4.8199   -1.7002   -0.1030 H   0  0  0  0  0  0  0  0  0  0  0  0
    3.0138   -3.3852   -0.3603 H   0  0  0  0  0  0  0  0  0  0  0  0
    2.7521   -2.4278    1.1266 H   0  0  0  0  0  0  0  0  0  0  0  0
    0.9443   -3.9170   -0.9328 H   0  0  0  0  0  0  0  0  0  0  0  0
   -1.2418   -4.7281   -1.4139 H   0  0  0  0  0  0  0  0  0  0  0  0
   -3.6060   -4.3596   -2.1400 H   0  0  0  0  0  0  0  0  0  0  0  0
   -4.4608   -2.0317   -2.4976 H   0  0  0  0  0  0  0  0  0  0  0  0
   -2.9335   -0.0646   -2.1375 H   0  0  0  0  0  0  0  0  0  0  0  0
   -0.5773   -0.4374   -1.4074 H   0  0  0  0  0  0  0  0  0  0  0  0
    3.8375    2.0307   -0.3976 H   0  0  0  0  0  0  0  0  0  0  0  0
    4.8192    0.9459   -1.4166 H   0  0  0  0  0  0  0  0  0  0  0  0
    3.0124    2.0083   -2.7484 H   0  0  0  0  0  0  0  0  0  0  0  0
    2.7534    0.2415   -2.6633 H   0  0  0  0  0  0  0  0  0  0  0  0
    0.9434    2.7694   -2.9218 H   0  0  0  0  0  0  0  0  0  0  0  0
   -1.2406    3.5960   -3.3821 H   0  0  0  0  0  0  0  0  0  0  0  0
   -3.6052    4.0402   -2.7010 H   0  0  0  0  0  0  0  0  0  0  0  0
   -4.4634    3.1784   -0.5104 H   0  0  0  0  0  0  0  0  0  0  0  0
   -2.9391    1.8755    1.0098 H   0  0  0  0  0  0  0  0  0  0  0  0
   -0.5829    1.4296    0.3228 H   0  0  0  0  0  0  0  0  0  0  0  0
  1  5  1  0  0  0  0
  2  6  1  0  0  0  0
  2  7  1  0  0  0  0
  3 15  1  0  0  0  0
  5 33  1  0  0  0  0
  5 32  1  0  0  0  0
  5  6  1  0  0  0  0
  6 34  1  0  0  0  0
  7  8  1  0  0  0  0
  7 36  1  0  0  0  0
  8  9  1  0  0  0  0
  9 10  2  0  0  0  0
  9 37  1  0  0  0  0
 10 38  1  0  0  0  0
 11 39  1  0  0  0  0
 11 10  1  0  0  0  0
 12 11  2  0  0  0  0
 13 12  1  0  0  0  0
 13  8  2  0  0  0  0
 14 43  1  0  0  0  0
 14  1  1  0  0  0  0
 14 15  1  0  0  0  0
 15 45  1  0  0  0  0
 16  3  1  0  0  0  0
 17 16  1  0  0  0  0
 18 47  1  0  0  0  0
 18 17  2  0  0  0  0
 19 18  1  0  0  0  0
 20 19  2  0  0  0  0
 20 21  1  0  0  0  0
 21 22  2  0  0  0  0
 22 51  1  0  0  0  0
 22 17  1  0  0  0  0
 23 52  1  0  0  0  0
 23  1  1  0  0  0  0
 24  4  1  0  0  0  0
 24 23  1  0  0  0  0
 25 26  1  0  0  0  0
 25  4  1  0  0  0  0
 26 31  1  0  0  0  0
 27 28  1  0  0  0  0
 27 26  2  0  0  0  0
 28 29  2  0  0  0  0
 29 59  1  0  0  0  0
 29 30  1  0  0  0  0
 30 60  1  0  0  0  0
 31 30  2  0  0  0  0
 31 61  1  0  0  0  0
 35  6  1  0  0  0  0
 40 12  1  0  0  0  0
 41 13  1  0  0  0  0
 42 14  1  0  0  0  0
 44 15  1  0  0  0  0
 46 16  1  0  0  0  0
 48 19  1  0  0  0  0
 49 20  1  0  0  0  0
 50 21  1  0  0  0  0
 53 23  1  0  0  0  0
 54 24  1  0  0  0  0
 55 24  1  0  0  0  0
 56 25  1  0  0  0  0
 57 27  1  0  0  0  0
 58 28  1  0  0  0  0
M  END
