1,2,36,37
 OpenBabel05122313063D

 70 78  0  0  0  0  0  0  0  0999 V2000
   -2.0369    0.2013    0.0018 N   0  0  0  0  0  0  0  0  0  0  0  0
   -0.2013   -2.0628   -0.0045 N   0  0  0  0  0  2  0  0  0  0  0  0
   -5.7380   -1.4079    1.6641 F   0  0  0  0  0  0  0  0  0  0  0  0
   -6.6039   -0.5650   -0.1773 F   0  0  0  0  0  0  0  0  0  0  0  0
   -6.2244   -3.3623   -0.1325 F   0  0  0  0  0  0  0  0  0  0  0  0
   -5.1600   -2.2502   -1.7132 F   0  0  0  0  0  0  0  0  0  0  0  0
   -4.0366   -3.6695    1.3143 F   0  0  0  0  0  0  0  0  0  0  0  0
   -3.6953   -4.2065   -0.7910 F   0  0  0  0  0  0  0  0  0  0  0  0
   -2.7572    1.3800    0.0438 C   0  0  0  0  0  0  0  0  0  0  0  0
   -4.1711    1.0886    0.1681 C   0  0  0  0  0  0  0  0  0  0  0  0
   -4.9771    1.8241    0.2485 H   0  0  0  0  0  0  0  0  0  0  0  0
   -4.2826   -0.2802    0.1814 C   0  0  0  0  0  0  0  0  0  0  0  0
   -2.9439   -0.8260    0.0678 C   0  0  0  0  0  0  0  0  0  0  0  0
   -2.6678   -2.2101    0.0301 C   0  0  0  0  0  0  0  0  0  0  0  0
   -1.3764   -2.7829    0.0534 C   0  0  0  0  0  0  0  0  0  0  0  0
   -1.0815   -4.2015    0.1802 C   0  0  0  0  0  0  0  0  0  0  0  0
   -1.8224   -4.9999    0.2672 H   0  0  0  0  0  0  0  0  0  0  0  0
    0.2834   -4.3202    0.1956 C   0  0  0  0  0  0  0  0  0  0  0  0
    0.8744   -5.2349    0.3045 H   0  0  0  0  0  0  0  0  0  0  0  0
    0.8280   -2.9800    0.0615 C   0  0  0  0  0  0  0  0  0  0  0  0
   -2.2113    2.6857   -0.0162 C   0  0  0  0  0  0  0  0  0  0  0  0
   -5.4839   -1.1444    0.3406 C   0  0  0  0  0  0  0  0  0  0  0  0
   -5.2198   -2.4902   -0.3725 C   0  0  0  0  0  0  0  0  0  0  0  0
   -3.8696   -3.1441    0.0586 C   0  0  0  0  0  0  0  0  0  0  0  0
   -3.1691    3.8312   -0.0295 C   0  0  0  0  0  0  0  0  0  0  0  0
   -3.1859    4.7661    1.0285 C   0  0  0  0  0  0  0  0  0  0  0  0
   -2.4886    4.6371    1.8699 H   0  0  0  0  0  0  0  0  0  0  0  0
   -4.0902    5.8378    1.0188 C   0  0  0  0  0  0  0  0  0  0  0  0
   -4.0965    6.5532    1.8550 H   0  0  0  0  0  0  0  0  0  0  0  0
   -4.9886    5.9938   -0.0488 C   0  0  0  0  0  0  0  0  0  0  0  0
   -5.6974    6.8355   -0.0560 H   0  0  0  0  0  0  0  0  0  0  0  0
   -4.9793    5.0710   -1.1068 C   0  0  0  0  0  0  0  0  0  0  0  0
   -5.6764    5.1901   -1.9500 H   0  0  0  0  0  0  0  0  0  0  0  0
   -4.0783    3.9965   -1.0972 C   0  0  0  0  0  0  0  0  0  0  0  0
   -4.0639    3.2788   -1.9314 H   0  0  0  0  0  0  0  0  0  0  0  0
    2.0369   -0.2013   -0.0018 N   0  0  0  0  0  0  0  0  0  0  0  0
    0.2013    2.0628    0.0045 N   0  0  0  0  0  0  0  0  0  0  0  0
    5.7380    1.4079   -1.6641 F   0  0  0  0  0  0  0  0  0  0  0  0
    6.6039    0.5650    0.1773 F   0  0  0  0  0  0  0  0  0  0  0  0
    6.2244    3.3623    0.1325 F   0  0  0  0  0  0  0  0  0  0  0  0
    5.1600    2.2502    1.7132 F   0  0  0  0  0  0  0  0  0  0  0  0
    4.0366    3.6695   -1.3143 F   0  0  0  0  0  0  0  0  0  0  0  0
    3.6953    4.2065    0.7910 F   0  0  0  0  0  0  0  0  0  0  0  0
    2.7572   -1.3800   -0.0438 C   0  0  0  0  0  0  0  0  0  0  0  0
    4.1711   -1.0886   -0.1681 C   0  0  0  0  0  0  0  0  0  0  0  0
    4.9771   -1.8241   -0.2485 H   0  0  0  0  0  0  0  0  0  0  0  0
    4.2826    0.2802   -0.1814 C   0  0  0  0  0  0  0  0  0  0  0  0
    2.9439    0.8260   -0.0678 C   0  0  0  0  0  0  0  0  0  0  0  0
    2.6678    2.2101   -0.0301 C   0  0  0  0  0  0  0  0  0  0  0  0
    1.3764    2.7829   -0.0534 C   0  0  0  0  0  3  0  0  0  0  0  0
    1.0815    4.2015   -0.1802 C   0  0  0  0  0  0  0  0  0  0  0  0
    1.8224    4.9999   -0.2672 H   0  0  0  0  0  0  0  0  0  0  0  0
   -0.2834    4.3202   -0.1956 C   0  0  0  0  0  0  0  0  0  0  0  0
   -0.8744    5.2349   -0.3045 H   0  0  0  0  0  0  0  0  0  0  0  0
   -0.8280    2.9800   -0.0615 C   0  0  0  0  0  0  0  0  0  0  0  0
    2.2113   -2.6857    0.0162 C   0  0  0  0  0  0  0  0  0  0  0  0
    5.4839    1.1444   -0.3406 C   0  0  0  0  0  0  0  0  0  0  0  0
    5.2198    2.4902    0.3725 C   0  0  0  0  0  0  0  0  0  0  0  0
    3.8696    3.1441   -0.0586 C   0  0  0  0  0  0  0  0  0  0  0  0
    3.1691   -3.8312    0.0295 C   0  0  0  0  0  0  0  0  0  0  0  0
    3.1859   -4.7661   -1.0285 C   0  0  0  0  0  0  0  0  0  0  0  0
    2.4886   -4.6371   -1.8700 H   0  0  0  0  0  0  0  0  0  0  0  0
    4.0902   -5.8378   -1.0188 C   0  0  0  0  0  0  0  0  0  0  0  0
    4.0965   -6.5532   -1.8550 H   0  0  0  0  0  0  0  0  0  0  0  0
    4.9886   -5.9938    0.0488 C   0  0  0  0  0  0  0  0  0  0  0  0
    5.6974   -6.8355    0.0560 H   0  0  0  0  0  0  0  0  0  0  0  0
    4.9793   -5.0710    1.1068 C   0  0  0  0  0  0  0  0  0  0  0  0
    5.6764   -5.1901    1.9500 H   0  0  0  0  0  0  0  0  0  0  0  0
    4.0783   -3.9965    1.0972 C   0  0  0  0  0  0  0  0  0  0  0  0
    4.0639   -3.2788    1.9314 H   0  0  0  0  0  0  0  0  0  0  0  0
  1  9  1  0  0  0  0
  1 13  2  0  0  0  0
  2 15  1  0  0  0  0
  2 20  1  0  0  0  0
  4 22  1  0  0  0  0
  6 23  1  0  0  0  0
  8 24  1  0  0  0  0
  9 10  1  0  0  0  0
 10 12  2  0  0  0  0
 10 11  1  0  0  0  0
 12 22  1  0  0  0  0
 13 12  1  0  0  0  0
 14 15  2  0  0  0  0
 14 24  1  0  0  0  0
 14 13  1  0  0  0  0
 15 16  1  0  0  0  0
 16 18  2  0  0  0  0
 16 17  1  0  0  0  0
 18 19  1  0  0  0  0
 20 18  1  0  0  0  0
 21  9  2  0  0  0  0
 22  3  1  0  0  0  0
 23  5  1  0  0  0  0
 23 24  1  0  0  0  0
 23 22  1  0  0  0  0
 24  7  1  0  0  0  0
 25 21  1  0  0  0  0
 25 26  1  0  0  0  0
 26 27  1  0  0  0  0
 28 26  2  0  0  0  0
 28 29  1  0  0  0  0
 30 28  1  0  0  0  0
 31 30  1  0  0  0  0
 32 34  1  0  0  0  0
 32 30  2  0  0  0  0
 33 32  1  0  0  0  0
 34 25  2  0  0  0  0
 35 34  1  0  0  0  0
 38 57  1  0  0  0  0
 40 58  1  0  0  0  0
 42 59  1  0  0  0  0
 44 36  2  0  0  0  0
 44 56  1  0  0  0  0
 45 44  1  0  0  0  0
 46 45  1  0  0  0  0
 47 45  2  0  0  0  0
 47 48  1  0  0  0  0
 48 49  2  0  0  0  0
 48 36  1  0  0  0  0
 50 49  1  0  0  0  0
 50 37  1  0  0  0  0
 51 50  1  0  0  0  0
 52 51  1  0  0  0  0
 53 51  2  0  0  0  0
 53 55  1  0  0  0  0
 54 53  1  0  0  0  0
 55 21  1  0  0  0  0
 55 37  2  0  0  0  0
 56 60  1  0  0  0  0
 56 20  2  0  0  0  0
 57 47  1  0  0  0  0
 57 39  1  0  0  0  0
 57 58  1  0  0  0  0
 58 41  1  0  0  0  0
 59 49  1  0  0  0  0
 59 58  1  0  0  0  0
 59 43  1  0  0  0  0
 60 69  1  0  0  0  0
 61 63  1  0  0  0  0
 61 60  2  0  0  0  0
 62 61  1  0  0  0  0
 63 65  2  0  0  0  0
 64 63  1  0  0  0  0
 65 66  1  0  0  0  0
 65 67  1  0  0  0  0
 67 68  1  0  0  0  0
 69 67  2  0  0  0  0
 69 70  1  0  0  0  0
M  END
