5,6,7,8
 OpenBabel05122313063D

 27 26  0  0  1  0  0  0  0  0999 V2000
    1.2441   -2.5350    0.0637 O   0  0  0  0  0  1  0  0  0  0  0  0
    3.5674    1.5573   -0.1684 O   0  0  0  0  0  0  0  0  0  0  0  0
   -3.5858    1.5496    0.0931 O   0  0  0  0  0  0  0  0  0  0  0  0
   -1.2534   -2.5504   -0.0524 O   0  0  0  0  0  0  0  0  0  0  0  0
    1.4149   -1.2381    0.0561 N   0  0  0  0  0  2  0  0  0  0  0  0
    1.2606    1.2710    0.0844 N   0  0  0  0  0  2  0  0  0  0  0  0
   -1.2622    1.2715   -0.0328 N   0  0  0  0  0  2  0  0  0  0  0  0
   -1.4054   -1.2201   -0.0369 N   0  0  0  0  0  2  0  0  0  0  0  0
    3.8855   -1.4205    0.0513 C   0  0  0  0  0  0  0  0  0  0  0  0
    4.0355   -1.9816    1.0006 H   0  0  0  0  0  0  0  0  0  0  0  0
    4.7142   -0.6980   -0.0829 H   0  0  0  0  0  0  0  0  0  0  0  0
    3.9013   -2.1779   -0.7622 H   0  0  0  0  0  0  0  0  0  0  0  0
    2.6051   -0.6618    0.0541 C   0  0  1  0  0  3  0  0  0  0  0  0
    2.5514    0.8515   -0.0194 C   0  0  0  0  0  0  0  0  0  0  0  0
    0.7455    2.5978   -0.2078 C   0  0  0  0  0  0  0  0  0  0  0  0
    0.8244    2.8200   -1.3013 H   0  0  0  0  0  0  0  0  0  0  0  0
    1.3239    3.3943    0.3155 H   0  0  0  0  0  0  0  0  0  0  0  0
   -0.7464    2.6064    0.2144 C   0  0  0  0  0  0  0  0  0  0  0  0
   -0.8248    2.8601    1.3006 H   0  0  0  0  0  0  0  0  0  0  0  0
   -1.3249    3.3862   -0.3331 H   0  0  0  0  0  0  0  0  0  0  0  0
   -2.5518    0.8594    0.0039 C   0  0  0  0  0  0  0  0  0  0  0  0
   -2.5960   -0.6642   -0.0664 C   0  0  2  0  0  3  0  0  0  0  0  0
   -3.8782   -1.4178   -0.1118 C   0  0  0  0  0  0  0  0  0  0  0  0
   -3.9791   -1.9975   -1.0555 H   0  0  0  0  0  0  0  0  0  0  0  0
   -4.7051   -0.6850   -0.0366 H   0  0  0  0  0  0  0  0  0  0  0  0
   -3.9441   -2.1546    0.7175 H   0  0  0  0  0  0  0  0  0  0  0  0
   -0.1491   -2.6551    0.0002 H   0  0  0  0  0  0  0  0  0  0  0  0
  2 14  2  0  0  0  0
  4  8  1  0  0  0  0
  4 27  1  0  0  0  0
  5  1  1  0  0  0  0
  7 21  1  0  0  0  0
  7 18  1  0  0  0  0
  9 13  1  0  0  0  0
  9 10  1  0  0  0  0
 11  9  1  0  0  0  0
 12  9  1  0  0  0  0
 13 14  1  6  0  0  0
 13  5  1  0  0  0  0
 14  6  1  0  0  0  0
 15  6  1  0  0  0  0
 15 18  1  0  0  0  0
 15 17  1  0  0  0  0
 16 15  1  0  0  0  0
 18 19  1  0  0  0  0
 20 18  1  0  0  0  0
 21  3  2  0  0  0  0
 22  8  1  1  0  0  0
 22 21  1  0  0  0  0
 23 22  1  0  0  0  0
 23 25  1  0  0  0  0
 23 26  1  0  0  0  0
 24 23  1  0  0  0  0
M  END
