6,10,12,13
 OpenBabel05122313063D

 49 52  0  0  0  0  0  0  0  0999 V2000
   -4.2977    0.3306   -0.0047 N   0  0  0  0  0  0  0  0  0  0  0  0
   -5.2141   -0.0932   -0.1531 H   0  0  0  0  0  0  0  0  0  0  0  0
    3.9833    0.1498   -0.2792 N   0  0  0  0  0  0  0  0  0  0  0  0
    4.7486   -0.2192   -0.8439 H   0  0  0  0  0  0  0  0  0  0  0  0
    2.8638   -0.5433    0.0952 C   0  0  0  0  0  0  0  0  0  0  0  0
   -1.8162   -2.2319    0.7154 N   0  0  0  0  0  2  0  0  0  0  0  0
   -0.3950   -4.0263   -0.2420 C   0  0  0  0  0  0  0  0  0  0  0  0
   -0.5169   -5.1125   -0.4301 H   0  0  0  0  0  0  0  0  0  0  0  0
   -0.6108   -3.5055   -1.1972 H   0  0  0  0  0  0  0  0  0  0  0  0
    1.4784   -2.4309    0.2692 N   0  0  0  0  0  2  0  0  0  0  0  0
   -3.1415   -0.3365    0.3185 C   0  0  0  0  0  0  0  0  0  0  0  0
    2.0000    0.2515    0.7312 N   0  0  0  0  0  2  0  0  0  0  0  0
   -2.1149    0.5116    0.4124 N   0  0  0  0  0  2  0  0  0  0  0  0
   -2.6995    4.1198   -0.3279 C   0  0  0  0  0  0  0  0  0  0  0  0
   -2.2157    5.1021   -0.4299 H   0  0  0  0  0  0  0  0  0  0  0  0
   -1.4474   -3.6283    0.8178 C   0  0  0  0  0  0  0  0  0  0  0  0
   -2.3243   -4.3037    0.7307 H   0  0  0  0  0  0  0  0  0  0  0  0
   -1.0228   -3.7841    1.8351 H   0  0  0  0  0  0  0  0  0  0  0  0
   -4.0972    4.0175   -0.5618 C   0  0  0  0  0  0  0  0  0  0  0  0
   -4.6612    4.9239   -0.8265 H   0  0  0  0  0  0  0  0  0  0  0  0
    1.0789   -3.8197    0.1343 C   0  0  0  0  0  0  0  0  0  0  0  0
    1.2642   -4.3055    1.1208 H   0  0  0  0  0  0  0  0  0  0  0  0
    1.6997   -4.3674   -0.6062 H   0  0  0  0  0  0  0  0  0  0  0  0
    3.6702   -2.7201   -0.9307 C   0  0  0  0  0  0  0  0  0  0  0  0
    3.5185   -3.8121   -0.9327 H   0  0  0  0  0  0  0  0  0  0  0  0
    4.6795   -2.5233   -0.5169 H   0  0  0  0  0  0  0  0  0  0  0  0
    3.6446   -2.3634   -1.9829 H   0  0  0  0  0  0  0  0  0  0  0  0
    3.8226    1.4715    0.1037 C   0  0  0  0  0  0  0  0  0  0  0  0
    4.1235    3.8044    0.4855 C   0  0  0  0  0  0  0  0  0  0  0  0
    4.7192    4.7243    0.3937 H   0  0  0  0  0  0  0  0  0  0  0  0
    4.6304    2.6108   -0.0389 C   0  0  0  0  0  0  0  0  0  0  0  0
    5.6079    2.5737   -0.5400 H   0  0  0  0  0  0  0  0  0  0  0  0
   -2.5935    1.7702    0.1126 C   0  0  0  0  0  0  0  0  0  0  0  0
   -3.9959    1.6760   -0.1469 C   0  0  0  0  0  0  0  0  0  0  0  0
    2.0592    2.7276    1.2733 C   0  0  0  0  0  0  0  0  0  0  0  0
    1.0788    2.7688    1.7698 H   0  0  0  0  0  0  0  0  0  0  0  0
   -4.2623   -2.6193    0.2831 C   0  0  0  0  0  0  0  0  0  0  0  0
   -4.1074   -3.6911    0.4918 H   0  0  0  0  0  0  0  0  0  0  0  0
   -4.6247   -2.5281   -0.7626 H   0  0  0  0  0  0  0  0  0  0  0  0
   -5.0694   -2.2597    0.9541 H   0  0  0  0  0  0  0  0  0  0  0  0
    2.6118   -1.9767   -0.1646 C   0  0  0  0  0  0  0  0  0  0  0  0
   -1.9271    3.0076    0.0083 C   0  0  0  0  0  0  0  0  0  0  0  0
   -0.8398    3.0728    0.1498 H   0  0  0  0  0  0  0  0  0  0  0  0
    2.5507    1.5168    0.7495 C   0  0  0  0  0  0  0  0  0  0  0  0
   -4.7735    2.7966   -0.4817 C   0  0  0  0  0  0  0  0  0  0  0  0
   -5.8520    2.7225   -0.6801 H   0  0  0  0  0  0  0  0  0  0  0  0
   -3.0122   -1.8007    0.4701 C   0  0  0  0  0  0  0  0  0  0  0  0
    2.8610    3.8627    1.1312 C   0  0  0  0  0  0  0  0  0  0  0  0
    2.5097    4.8275    1.5253 H   0  0  0  0  0  0  0  0  0  0  0  0
  1 11  1  0  0  0  0
  2  1  1  0  0  0  0
  3  5  1  0  0  0  0
  3 28  1  0  0  0  0
  4  3  1  0  0  0  0
  5 12  1  0  0  0  0
  6 16  1  0  0  0  0
  7 21  1  0  0  0  0
  7 16  1  0  0  0  0
  8  7  1  0  0  0  0
  9  7  1  0  0  0  0
 11 13  1  0  0  0  0
 11 47  2  0  0  0  0
 12 44  1  0  0  0  0
 14 42  1  0  0  0  0
 15 14  1  0  0  0  0
 16 18  1  0  0  0  0
 17 16  1  0  0  0  0
 19 45  1  0  0  0  0
 19 14  2  0  0  0  0
 20 19  1  0  0  0  0
 21 10  1  0  0  0  0
 21 22  1  0  0  0  0
 23 21  1  0  0  0  0
 24 26  1  0  0  0  0
 24 41  1  0  0  0  0
 25 24  1  0  0  0  0
 27 24  1  0  0  0  0
 28 44  1  0  0  0  0
 29 48  2  0  0  0  0
 30 29  1  0  0  0  0
 31 28  2  0  0  0  0
 31 29  1  0  0  0  0
 32 31  1  0  0  0  0
 33 13  1  0  0  0  0
 34  1  1  0  0  0  0
 34 33  1  0  0  0  0
 35 36  1  0  0  0  0
 37 47  1  0  0  0  0
 37 38  1  0  0  0  0
 37 40  1  0  0  0  0
 39 37  1  0  0  0  0
 41  5  2  0  0  0  0
 41 10  1  0  0  0  0
 42 33  2  0  0  0  0
 42 43  1  0  0  0  0
 44 35  2  0  0  0  0
 45 34  2  0  0  0  0
 46 45  1  0  0  0  0
 47  6  1  0  0  0  0
 48 35  1  0  0  0  0
 48 49  1  0  0  0  0
M  END
