1,2,3,4
 OpenBabel05122313063D

 46 45  0  0  0  0  0  0  0  0999 V2000
   -1.8669    1.1168   -0.5504 N   0  0  0  0  0  0  0  0  0  0  0  0
   -1.0156   -1.2245    1.0830 N   0  0  0  0  0  0  0  0  0  0  0  0
    1.0156   -1.2245   -1.0830 N   0  0  0  0  0  0  0  0  0  0  0  0
    1.8669    1.1168    0.5504 N   0  0  0  0  0  0  0  0  0  0  0  0
   -2.1033    0.8661   -1.9861 C   0  0  0  0  0  0  0  0  0  0  0  0
   -2.0299    2.5580   -0.2706 C   0  0  0  0  0  0  0  0  0  0  0  0
   -2.7964    0.3140    0.2860 C   0  0  0  0  0  0  0  0  0  0  0  0
   -2.3363   -1.1366    0.4291 C   0  0  0  0  0  0  0  0  0  0  0  0
   -1.1355   -1.1004    2.5409 C   0  0  0  0  0  0  0  0  0  0  0  0
   -0.2594   -2.4363    0.7201 C   0  0  0  0  0  0  0  0  0  0  0  0
    0.2594   -2.4363   -0.7202 C   0  0  0  0  0  0  0  0  0  0  0  0
    1.1356   -1.1003   -2.5409 C   0  0  0  0  0  0  0  0  0  0  0  0
    2.3363   -1.1366   -0.4291 C   0  0  0  0  0  0  0  0  0  0  0  0
    2.7964    0.3141   -0.2859 C   0  0  0  0  0  0  0  0  0  0  0  0
    2.0299    2.5581    0.2706 C   0  0  0  0  0  0  0  0  0  0  0  0
    2.1032    0.8661    1.9862 C   0  0  0  0  0  0  0  0  0  0  0  0
   -1.3521    1.4109   -2.5883 H   0  0  0  0  0  0  0  0  0  0  0  0
   -3.1209    1.2026   -2.2952 H   0  0  0  0  0  0  0  0  0  0  0  0
   -2.0100   -0.2126   -2.2108 H   0  0  0  0  0  0  0  0  0  0  0  0
   -3.0633    2.9090   -0.5027 H   0  0  0  0  0  0  0  0  0  0  0  0
   -1.3178    3.1377   -0.8877 H   0  0  0  0  0  0  0  0  0  0  0  0
   -1.8158    2.7580    0.7962 H   0  0  0  0  0  0  0  0  0  0  0  0
   -2.8457    0.7907    1.2852 H   0  0  0  0  0  0  0  0  0  0  0  0
   -3.8307    0.3449   -0.1303 H   0  0  0  0  0  0  0  0  0  0  0  0
   -2.2699   -1.6054   -0.5724 H   0  0  0  0  0  0  0  0  0  0  0  0
   -3.1087   -1.7149    0.9908 H   0  0  0  0  0  0  0  0  0  0  0  0
   -0.1298   -1.0648    3.0012 H   0  0  0  0  0  0  0  0  0  0  0  0
   -1.6987   -1.9520    2.9921 H   0  0  0  0  0  0  0  0  0  0  0  0
   -1.6597   -0.1627    2.8063 H   0  0  0  0  0  0  0  0  0  0  0  0
   -0.8603   -3.3654    0.8770 H   0  0  0  0  0  0  0  0  0  0  0  0
    0.5913   -2.5089    1.4282 H   0  0  0  0  0  0  0  0  0  0  0  0
   -0.5913   -2.5089   -1.4282 H   0  0  0  0  0  0  0  0  0  0  0  0
    0.8603   -3.3654   -0.8771 H   0  0  0  0  0  0  0  0  0  0  0  0
    1.6988   -1.9520   -2.9921 H   0  0  0  0  0  0  0  0  0  0  0  0
    1.6597   -0.1627   -2.8062 H   0  0  0  0  0  0  0  0  0  0  0  0
    0.1298   -1.0647   -3.0012 H   0  0  0  0  0  0  0  0  0  0  0  0
    2.2699   -1.6054    0.5724 H   0  0  0  0  0  0  0  0  0  0  0  0
    3.1087   -1.7149   -0.9908 H   0  0  0  0  0  0  0  0  0  0  0  0
    2.8457    0.7908   -1.2851 H   0  0  0  0  0  0  0  0  0  0  0  0
    3.8307    0.3450    0.1304 H   0  0  0  0  0  0  0  0  0  0  0  0
    1.3178    3.1377    0.8877 H   0  0  0  0  0  0  0  0  0  0  0  0
    3.0633    2.9090    0.5027 H   0  0  0  0  0  0  0  0  0  0  0  0
    1.8158    2.7580   -0.7962 H   0  0  0  0  0  0  0  0  0  0  0  0
    3.1209    1.2026    2.2952 H   0  0  0  0  0  0  0  0  0  0  0  0
    2.0099   -0.2126    2.2108 H   0  0  0  0  0  0  0  0  0  0  0  0
    1.3520    1.4109    2.5883 H   0  0  0  0  0  0  0  0  0  0  0  0
  1  6  1  0  0  0  0
  1  7  1  0  0  0  0
  2  9  1  0  0  0  0
  3 11  1  0  0  0  0
  3 13  1  0  0  0  0
  4 16  1  0  0  0  0
  5  1  1  0  0  0  0
  6 22  1  0  0  0  0
  7  8  1  0  0  0  0
  7 23  1  0  0  0  0
  8 26  1  0  0  0  0
  8  2  1  0  0  0  0
  9 29  1  0  0  0  0
  9 28  1  0  0  0  0
  9 27  1  0  0  0  0
 10 30  1  0  0  0  0
 10  2  1  0  0  0  0
 10 31  1  0  0  0  0
 11 10  1  0  0  0  0
 12  3  1  0  0  0  0
 13 14  1  0  0  0  0
 13 37  1  0  0  0  0
 14 40  1  0  0  0  0
 14  4  1  0  0  0  0
 15 42  1  0  0  0  0
 15  4  1  0  0  0  0
 15 41  1  0  0  0  0
 16 45  1  0  0  0  0
 16 44  1  0  0  0  0
 16 46  1  0  0  0  0
 17  5  1  0  0  0  0
 18  5  1  0  0  0  0
 19  5  1  0  0  0  0
 20  6  1  0  0  0  0
 21  6  1  0  0  0  0
 24  7  1  0  0  0  0
 25  8  1  0  0  0  0
 32 11  1  0  0  0  0
 33 11  1  0  0  0  0
 34 12  1  0  0  0  0
 35 12  1  0  0  0  0
 36 12  1  0  0  0  0
 38 13  1  0  0  0  0
 39 14  1  0  0  0  0
 43 15  1  0  0  0  0
M  END
