4,6,8,9
 OpenBabel05122313063D

 71 77  0  0  0  0  0  0  0  0999 V2000
    2.5342    0.2119    1.2413 N   0  0  0  0  0  0  0  0  0  0  0  0
   -2.6949    0.6508   -1.2769 N   0  0  0  0  0  0  0  0  0  0  0  0
    2.6922    0.6380   -1.2764 N   0  0  0  0  0  0  0  0  0  0  0  0
   -1.6048    1.1584    1.5449 N   0  0  0  0  0  2  0  0  0  0  0  0
   -0.0052   -0.6156   -0.2364 N   0  0  0  0  0  0  0  0  0  0  0  0
    1.7567    1.6206   -1.2962 N   0  0  0  0  0  2  0  0  0  0  0  0
   -2.5402    0.2271    1.2418 N   0  0  0  0  0  0  0  0  0  0  0  0
    1.6042    1.1485    1.5449 N   0  0  0  0  0  2  0  0  0  0  0  0
   -1.7524    1.6267   -1.2986 N   0  0  0  0  0  2  0  0  0  0  0  0
    5.2150   -0.9215   -0.3448 C   0  0  0  0  0  0  0  0  0  0  0  0
    5.3423    0.1347   -0.6294 H   0  0  0  0  0  0  0  0  0  0  0  0
    3.4430    0.7017   -2.4042 C   0  0  0  0  0  3  0  0  0  0  0  0
    4.2329   -0.0319   -2.5904 H   0  0  0  0  0  0  0  0  0  0  0  0
   -3.4442    0.7166   -2.4056 C   0  0  0  0  0  3  0  0  0  0  0  0
   -4.2392   -0.0117   -2.5904 H   0  0  0  0  0  0  0  0  0  0  0  0
    6.3678   -1.7010   -0.1678 C   0  0  0  0  0  0  0  0  0  0  0  0
    7.3592   -1.2542   -0.3491 H   0  0  0  0  0  0  0  0  0  0  0  0
    3.3551    0.0272    2.3094 C   0  0  0  0  0  3  0  0  0  0  0  0
    4.1790   -0.6904    2.2614 H   0  0  0  0  0  0  0  0  0  0  0  0
   -2.9967    1.7981   -3.1750 C   0  0  0  0  0  0  0  0  0  0  0  0
   -3.3944    2.1411   -4.1351 H   0  0  0  0  0  0  0  0  0  0  0  0
    6.2826   -3.0423    0.2552 C   0  0  0  0  0  0  0  0  0  0  0  0
    2.9421    0.8783    3.3395 C   0  0  0  0  0  0  0  0  0  0  0  0
    3.3870    0.9832    4.3338 H   0  0  0  0  0  0  0  0  0  0  0  0
    3.0042    1.7887   -3.1708 C   0  0  0  0  0  0  0  0  0  0  0  0
    3.4052    2.1314   -4.1296 H   0  0  0  0  0  0  0  0  0  0  0  0
   -5.0236   -3.5291    0.5201 C   0  0  0  0  0  0  0  0  0  0  0  0
   -4.9264   -4.5646    0.8854 H   0  0  0  0  0  0  0  0  0  0  0  0
   -0.0121   -2.9947   -1.7058 C   0  0  0  0  0  0  0  0  0  0  0  0
   -0.0147   -3.8992   -2.3349 H   0  0  0  0  0  0  0  0  0  0  0  0
   -3.3623    0.0480    2.3100 C   0  0  0  0  0  3  0  0  0  0  0  0
   -4.1904   -0.6647    2.2624 H   0  0  0  0  0  0  0  0  0  0  0  0
   -3.8715   -2.7507    0.3348 C   0  0  0  0  0  0  0  0  0  0  0  0
   -2.8954   -3.1956    0.5833 H   0  0  0  0  0  0  0  0  0  0  0  0
   -1.8386    1.5805    2.8054 C   0  0  0  0  0  0  0  0  0  0  0  0
   -1.2106    2.3657    3.2387 H   0  0  0  0  0  0  0  0  0  0  0  0
    1.1895   -2.4129   -1.2947 C   0  0  0  0  0  0  0  0  0  0  0  0
    2.1523   -2.8573   -1.5815 H   0  0  0  0  0  0  0  0  0  0  0  0
   -1.2101   -2.4072   -1.2927 C   0  0  0  0  0  0  0  0  0  0  0  0
   -2.1755   -2.8469   -1.5780 H   0  0  0  0  0  0  0  0  0  0  0  0
    3.8493   -2.7720    0.3316 C   0  0  0  0  0  0  0  0  0  0  0  0
    2.8708   -3.2121    0.5792 H   0  0  0  0  0  0  0  0  0  0  0  0
    1.1825   -1.2248   -0.5371 C   0  0  0  0  0  0  0  0  0  0  0  0
    4.9973   -3.5568    0.5166 C   0  0  0  0  0  0  0  0  0  0  0  0
    4.8944   -4.5922    0.8807 H   0  0  0  0  0  0  0  0  0  0  0  0
   -3.9295   -1.4149   -0.1268 C   0  0  0  0  0  0  0  0  0  0  0  0
   -1.9347    2.3406   -2.4323 C   0  0  0  0  0  0  0  0  0  0  0  0
   -1.2988    3.2103   -2.6291 H   0  0  0  0  0  0  0  0  0  0  0  0
    3.9147   -1.4362   -0.1286 C   0  0  0  0  0  0  0  0  0  0  0  0
   -5.2268   -0.8934   -0.3441 C   0  0  0  0  0  0  0  0  0  0  0  0
   -5.3483    0.1632   -0.6298 H   0  0  0  0  0  0  0  0  0  0  0  0
    1.8406    1.5684    2.8056 C   0  0  0  0  0  0  0  0  0  0  0  0
    1.2176    2.3576    3.2389 H   0  0  0  0  0  0  0  0  0  0  0  0
    1.9453    2.3366   -2.4276 C   0  0  0  0  0  0  0  0  0  0  0  0
    1.3160    3.2117   -2.6217 H   0  0  0  0  0  0  0  0  0  0  0  0
   -6.3839   -1.6667   -0.1668 C   0  0  0  0  0  0  0  0  0  0  0  0
   -7.3728   -1.2149   -0.3492 H   0  0  0  0  0  0  0  0  0  0  0  0
   -2.9442    0.8973    3.3396 C   0  0  0  0  0  0  0  0  0  0  0  0
   -3.3887    1.0055    4.3337 H   0  0  0  0  0  0  0  0  0  0  0  0
    7.5160   -3.8955    0.4103 C   0  0  0  0  0  0  0  0  0  0  0  0
    7.7617   -4.4180   -0.5397 H   0  0  0  0  0  0  0  0  0  0  0  0
    7.3784   -4.6772    1.1836 H   0  0  0  0  0  0  0  0  0  0  0  0
    8.4018   -3.2885    0.6842 H   0  0  0  0  0  0  0  0  0  0  0  0
   -1.1963   -1.2188   -0.5356 C   0  0  0  0  0  0  0  0  0  0  0  0
   -6.3061   -3.0078    0.2576 C   0  0  0  0  0  0  0  0  0  0  0  0
   -7.5435   -3.8552    0.4134 C   0  0  0  0  0  0  0  0  0  0  0  0
   -7.7665   -4.4117   -0.5228 H   0  0  0  0  0  0  0  0  0  0  0  0
   -8.4350   -3.2392    0.6450 H   0  0  0  0  0  0  0  0  0  0  0  0
   -7.4245   -4.6092    1.2169 H   0  0  0  0  0  0  0  0  0  0  0  0
   -2.6077   -0.4743   -0.1680 B   0  0  1  0  0  0  0  0  0  0  0  0
    2.5980   -0.4884   -0.1692 B   0  0  2  0  0  0  0  0  0  0  0  0
  1  8  1  0  0  0  0
  1 18  1  0  0  0  0
  2 70  1  0  0  0  0
  3 71  1  0  0  0  0
  4 35  1  0  0  0  0
  6  3  1  0  0  0  0
  7  4  1  0  0  0  0
  7 31  1  0  0  0  0
  8 52  1  0  0  0  0
  9  2  1  0  0  0  0
 10 16  2  0  0  0  0
 10 49  1  0  0  0  0
 11 10  1  0  0  0  0
 12  3  1  0  0  0  0
 13 12  1  0  0  0  0
 14  2  1  0  0  0  0
 15 14  1  0  0  0  0
 16 22  1  0  0  0  0
 17 16  1  0  0  0  0
 18 23  1  0  0  0  0
 19 18  1  0  0  0  0
 20 47  2  0  0  0  0
 20 14  1  0  0  0  0
 21 20  1  0  0  0  0
 22 60  1  0  0  0  0
 22 44  2  0  0  0  0
 23 24  1  0  0  0  0
 25 54  2  0  0  0  0
 25 12  1  0  0  0  0
 26 25  1  0  0  0  0
 27 28  1  0  0  0  0
 29 37  2  0  0  0  0
 29 39  1  0  0  0  0
 30 29  1  0  0  0  0
 31 58  1  0  0  0  0
 32 31  1  0  0  0  0
 33 27  1  0  0  0  0
 33 34  1  0  0  0  0
 35 36  1  0  0  0  0
 35 58  2  0  0  0  0
 37 43  1  0  0  0  0
 38 37  1  0  0  0  0
 39 64  2  0  0  0  0
 40 39  1  0  0  0  0
 41 44  1  0  0  0  0
 41 42  1  0  0  0  0
 43  5  2  0  0  0  0
 44 45  1  0  0  0  0
 46 33  2  0  0  0  0
 47  9  1  0  0  0  0
 48 47  1  0  0  0  0
 49 41  2  0  0  0  0
 50 56  2  0  0  0  0
 50 46  1  0  0  0  0
 51 50  1  0  0  0  0
 52 53  1  0  0  0  0
 52 23  2  0  0  0  0
 54  6  1  0  0  0  0
 55 54  1  0  0  0  0
 56 65  1  0  0  0  0
 57 56  1  0  0  0  0
 58 59  1  0  0  0  0
 60 63  1  0  0  0  0
 60 62  1  0  0  0  0
 61 60  1  0  0  0  0
 64  5  1  0  0  0  0
 65 66  1  0  0  0  0
 65 27  2  0  0  0  0
 66 68  1  0  0  0  0
 66 69  1  0  0  0  0
 67 66  1  0  0  0  0
 70 64  1  6  0  0  0
 70 46  1  0  0  0  0
 70  7  1  0  0  0  0
 71 43  1  6  0  0  0
 71 49  1  0  0  0  0
 71  1  1  0  0  0  0
M  END
