6,8,9,10
 OpenBabel05122313063D

 43 43  0  0  1  0  0  0  0  0999 V2000
   -2.3856    3.9038    0.3648 O   0  0  0  0  0  0  0  0  0  0  0  0
    1.6967    1.9631   -0.6351 O   0  0  0  0  0  1  0  0  0  0  0  0
    2.7049   -2.1131    1.1852 O   0  0  0  0  0  0  0  0  0  0  0  0
    5.7735    0.9788   -0.3295 O   0  0  0  0  0  0  0  0  0  0  0  0
    5.7478    1.6738   -1.0153 H   0  0  0  0  0  0  0  0  0  0  0  0
   -1.7518   -1.1092   -0.1012 N   0  0  0  0  0  2  0  0  0  0  0  0
   -3.2569    1.3520    0.3600 N   0  0  0  0  0  0  0  0  0  0  0  0
   -1.9963    1.5864    0.1448 N   0  0  0  0  0  2  0  0  0  0  0  0
    0.4519    1.9675   -0.3349 N   0  0  0  0  0  2  0  0  0  0  0  0
    0.7452   -0.8908   -0.3882 N   0  0  0  0  0  2  0  0  0  0  0  0
    2.0559   -0.5568   -0.4096 N   0  0  0  0  0  0  0  0  0  0  0  0
    2.1486    0.5124   -0.6045 H   0  0  0  0  0  0  0  0  0  0  0  0
    4.5125    0.4362   -0.4095 N   0  0  0  0  0  0  0  0  0  0  0  0
   -1.0917   -2.2911   -0.3337 C   0  0  0  0  0  0  0  0  0  0  0  0
   -1.7644   -3.5181   -0.3529 C   0  0  0  0  0  0  0  0  0  0  0  0
   -1.2089   -4.4475   -0.5331 H   0  0  0  0  0  0  0  0  0  0  0  0
   -3.1497   -3.5303   -0.1175 C   0  0  0  0  0  0  0  0  0  0  0  0
   -3.7053   -4.4795   -0.1184 H   0  0  0  0  0  0  0  0  0  0  0  0
   -3.8109   -2.3295    0.1224 C   0  0  0  0  0  0  0  0  0  0  0  0
   -4.8905   -2.3228    0.3134 H   0  0  0  0  0  0  0  0  0  0  0  0
   -3.0996   -1.0959    0.1257 C   0  0  0  0  0  0  0  0  0  0  0  0
   -3.8080    0.1541    0.3660 C   0  0  0  0  0  0  0  0  0  0  0  0
   -5.2944    0.1314    0.6379 C   0  0  0  0  0  0  0  0  0  0  0  0
   -5.6276    1.1724    0.7967 H   0  0  0  0  0  0  0  0  0  0  0  0
   -5.5514   -0.4568    1.5443 H   0  0  0  0  0  0  0  0  0  0  0  0
   -5.8752   -0.2914   -0.2093 H   0  0  0  0  0  0  0  0  0  0  0  0
   -1.6183    2.9791    0.1513 C   0  0  0  0  0  0  0  0  0  0  0  0
   -0.1864    3.1137   -0.1492 C   0  0  2  0  0  3  0  0  0  0  0  0
    0.4946    4.4300   -0.2617 C   0  0  0  0  0  0  0  0  0  0  0  0
    1.3647    4.4800    0.4260 H   0  0  0  0  0  0  0  0  0  0  0  0
   -0.2240    5.2359   -0.0254 H   0  0  0  0  0  0  0  0  0  0  0  0
    0.8996    4.5781   -1.2854 H   0  0  0  0  0  0  0  0  0  0  0  0
    0.3491   -2.1490   -0.5250 C   0  0  0  0  0  0  0  0  0  0  0  0
    1.2395   -3.2797   -0.9150 C   0  0  0  0  0  0  0  0  0  0  0  0
    2.0842   -2.8900   -1.5177 H   0  0  0  0  0  0  0  0  0  0  0  0
    0.6890   -4.0271   -1.5168 H   0  0  0  0  0  0  0  0  0  0  0  0
    1.6853   -3.7693   -0.0253 H   0  0  0  0  0  0  0  0  0  0  0  0
    2.9706   -1.1576    0.4567 C   0  0  0  0  0  0  0  0  0  0  0  0
    4.3294   -0.5173    0.4506 C   0  0  0  0  0  0  0  0  0  0  0  0
    5.3545   -1.0051    1.4254 C   0  0  0  0  0  0  0  0  0  0  0  0
    6.2822   -1.2984    0.8931 H   0  0  0  0  0  0  0  0  0  0  0  0
    4.9546   -1.8613    1.9961 H   0  0  0  0  0  0  0  0  0  0  0  0
    5.6387   -0.1900    2.1228 H   0  0  0  0  0  0  0  0  0  0  0  0
  2  9  1  0  0  0  0
  5  4  1  0  0  0  0
  6 21  1  0  0  0  0
  7 22  2  0  0  0  0
  8 27  1  0  0  0  0
  8  7  1  0  0  0  0
 11 10  1  0  0  0  0
 11 38  1  0  0  0  0
 12 11  1  0  0  0  0
 13  4  1  0  0  0  0
 13 39  2  0  0  0  0
 14  6  1  0  0  0  0
 15 14  1  0  0  0  0
 15 17  2  0  0  0  0
 16 15  1  0  0  0  0
 17 19  1  0  0  0  0
 18 17  1  0  0  0  0
 19 21  2  0  0  0  0
 19 20  1  0  0  0  0
 21 22  1  0  0  0  0
 22 23  1  0  0  0  0
 23 24  1  0  0  0  0
 23 25  1  0  0  0  0
 26 23  1  0  0  0  0
 27  1  2  0  0  0  0
 28  9  1  6  0  0  0
 28 27  1  0  0  0  0
 29 28  1  0  0  0  0
 29 31  1  0  0  0  0
 29 30  1  0  0  0  0
 32 29  1  0  0  0  0
 33 10  1  0  0  0  0
 33 14  2  0  0  0  0
 34 33  1  0  0  0  0
 34 37  1  0  0  0  0
 35 34  1  0  0  0  0
 36 34  1  0  0  0  0
 38  3  2  0  0  0  0
 39 38  1  0  0  0  0
 39 40  1  0  0  0  0
 40 42  1  0  0  0  0
 40 43  1  0  0  0  0
 41 40  1  0  0  0  0
M  END
