1,2,3,4
 OpenBabel05122313063D

 65 65  0  0  0  0  0  0  0  0999 V2000
    0.2688   -1.2072    0.6396 N   0  0  0  0  0  0  0  0  0  0  0  0
    0.5658    1.5777   -0.3272 N   0  0  0  0  0  0  0  0  0  0  0  0
    3.2959    1.2677   -0.2696 N   0  0  0  0  0  0  0  0  0  0  0  0
    3.0003   -1.4948    0.5298 N   0  0  0  0  0  0  0  0  0  0  0  0
   -0.7023    1.7435    0.4278 C   0  0  0  0  0  0  0  0  0  0  0  0
    1.4147    2.7931   -0.2974 C   0  0  0  0  0  0  0  0  0  0  0  0
    2.7363    2.4556   -0.9515 C   0  0  0  0  0  0  0  0  0  0  0  0
    4.5098    0.7601   -0.9456 C   0  0  0  0  0  0  0  0  0  0  0  0
    5.1204   -0.4380   -0.2328 C   0  0  0  0  0  0  0  0  0  0  0  0
    4.2341   -1.6753   -0.2630 C   0  0  0  0  0  0  0  0  0  0  0  0
    2.1692   -2.7181    0.5774 C   0  0  0  0  0  0  0  0  0  0  0  0
    0.9009   -2.3691    1.3264 C   0  0  0  0  0  0  0  0  0  0  0  0
   -0.7519   -1.6243   -0.3631 C   0  0  0  0  0  0  0  0  0  0  0  0
   -2.0776   -2.0352    0.2748 C   0  0  0  0  0  0  0  0  0  0  0  0
   -3.0979   -2.5243   -0.7602 C   0  0  0  0  0  0  0  0  0  0  0  0
   -4.4960   -2.7868   -0.1768 C   0  0  0  0  0  0  0  0  0  0  0  0
   -5.2405   -1.5328    0.3077 C   0  0  0  0  0  0  0  0  0  0  0  0
   -5.6512   -0.5760   -0.8183 C   0  0  0  0  0  0  0  0  0  0  0  0
   -6.2076    0.7751   -0.3453 C   0  0  0  0  0  0  0  0  0  0  0  0
   -5.2368    1.6322    0.4842 C   0  0  0  0  0  0  0  0  0  0  0  0
   -3.8785    1.8731   -0.1821 C   0  0  0  0  0  0  0  0  0  0  0  0
   -2.9806    2.8523    0.5822 C   0  0  0  0  0  0  0  0  0  0  0  0
   -1.5524    2.9535    0.0211 C   0  0  0  0  0  0  0  0  0  0  0  0
   -0.1993   -0.6449    1.3672 H   0  0  0  0  0  0  0  0  0  0  0  0
    0.3484    1.3590   -1.3173 H   0  0  0  0  0  0  0  0  0  0  0  0
    3.5283    1.5279    0.7071 H   0  0  0  0  0  0  0  0  0  0  0  0
    3.2548   -1.2352    1.5013 H   0  0  0  0  0  0  0  0  0  0  0  0
   -0.4379    1.7919    1.5041 H   0  0  0  0  0  0  0  0  0  0  0  0
   -1.2985    0.8265    0.2646 H   0  0  0  0  0  0  0  0  0  0  0  0
    1.5564    3.0724    0.7669 H   0  0  0  0  0  0  0  0  0  0  0  0
    0.9262    3.6428   -0.8162 H   0  0  0  0  0  0  0  0  0  0  0  0
    3.4428    3.3120   -0.9068 H   0  0  0  0  0  0  0  0  0  0  0  0
    2.5888    2.1850   -2.0169 H   0  0  0  0  0  0  0  0  0  0  0  0
    4.2142    0.4852   -1.9776 H   0  0  0  0  0  0  0  0  0  0  0  0
    5.2506    1.5872   -1.0083 H   0  0  0  0  0  0  0  0  0  0  0  0
    6.0778   -0.6848   -0.7336 H   0  0  0  0  0  0  0  0  0  0  0  0
    5.3876   -0.1758    0.8160 H   0  0  0  0  0  0  0  0  0  0  0  0
    3.9245   -1.9081   -1.3015 H   0  0  0  0  0  0  0  0  0  0  0  0
    4.7873   -2.5534    0.1370 H   0  0  0  0  0  0  0  0  0  0  0  0
    2.7163   -3.5551    1.0628 H   0  0  0  0  0  0  0  0  0  0  0  0
    1.9488   -3.0099   -0.4694 H   0  0  0  0  0  0  0  0  0  0  0  0
    0.2075   -3.2326    1.3748 H   0  0  0  0  0  0  0  0  0  0  0  0
    1.1395   -2.0610    2.3636 H   0  0  0  0  0  0  0  0  0  0  0  0
   -0.9062   -0.7910   -1.0751 H   0  0  0  0  0  0  0  0  0  0  0  0
   -0.3152   -2.4394   -0.9728 H   0  0  0  0  0  0  0  0  0  0  0  0
   -1.9174   -2.8303    1.0359 H   0  0  0  0  0  0  0  0  0  0  0  0
   -2.4909   -1.1630    0.8302 H   0  0  0  0  0  0  0  0  0  0  0  0
   -3.1663   -1.7806   -1.5846 H   0  0  0  0  0  0  0  0  0  0  0  0
   -2.7135   -3.4544   -1.2308 H   0  0  0  0  0  0  0  0  0  0  0  0
   -5.1102   -3.2969   -0.9494 H   0  0  0  0  0  0  0  0  0  0  0  0
   -4.4045   -3.5105    0.6623 H   0  0  0  0  0  0  0  0  0  0  0  0
   -6.1480   -1.8431    0.8682 H   0  0  0  0  0  0  0  0  0  0  0  0
   -4.6150   -0.9947    1.0544 H   0  0  0  0  0  0  0  0  0  0  0  0
   -4.7862   -0.3935   -1.4934 H   0  0  0  0  0  0  0  0  0  0  0  0
   -6.4112   -1.0774   -1.4553 H   0  0  0  0  0  0  0  0  0  0  0  0
   -6.5244    1.3563   -1.2384 H   0  0  0  0  0  0  0  0  0  0  0  0
   -7.1316    0.6080    0.2490 H   0  0  0  0  0  0  0  0  0  0  0  0
   -5.7175    2.6120    0.6945 H   0  0  0  0  0  0  0  0  0  0  0  0
   -5.0702    1.1688    1.4822 H   0  0  0  0  0  0  0  0  0  0  0  0
   -3.3546    0.8981   -0.3025 H   0  0  0  0  0  0  0  0  0  0  0  0
   -4.0317    2.2539   -1.2171 H   0  0  0  0  0  0  0  0  0  0  0  0
   -3.4464    3.8595    0.5695 H   0  0  0  0  0  0  0  0  0  0  0  0
   -2.9331    2.5621    1.6562 H   0  0  0  0  0  0  0  0  0  0  0  0
   -1.0735    3.8882    0.3777 H   0  0  0  0  0  0  0  0  0  0  0  0
   -1.5994    3.0216   -1.0895 H   0  0  0  0  0  0  0  0  0  0  0  0
  1 12  1  0  0  0  0
  1 24  1  0  0  0  0
  2  6  1  0  0  0  0
  2  5  1  0  0  0  0
  3 26  1  0  0  0  0
  4 11  1  0  0  0  0
  4 27  1  0  0  0  0
  5 28  1  0  0  0  0
  6 30  1  0  0  0  0
  7 32  1  0  0  0  0
  7  6  1  0  0  0  0
  7  3  1  0  0  0  0
  8  3  1  0  0  0  0
  8  9  1  0  0  0  0
  9 37  1  0  0  0  0
 10  9  1  0  0  0  0
 10 39  1  0  0  0  0
 10  4  1  0  0  0  0
 11 40  1  0  0  0  0
 11 12  1  0  0  0  0
 12 42  1  0  0  0  0
 12 43  1  0  0  0  0
 13 14  1  0  0  0  0
 13  1  1  0  0  0  0
 14 47  1  0  0  0  0
 14 46  1  0  0  0  0
 15 16  1  0  0  0  0
 15 14  1  0  0  0  0
 16 17  1  0  0  0  0
 16 51  1  0  0  0  0
 17 52  1  0  0  0  0
 17 53  1  0  0  0  0
 18 19  1  0  0  0  0
 18 17  1  0  0  0  0
 19 57  1  0  0  0  0
 19 20  1  0  0  0  0
 20 58  1  0  0  0  0
 20 59  1  0  0  0  0
 21 20  1  0  0  0  0
 21 22  1  0  0  0  0
 22 63  1  0  0  0  0
 23 64  1  0  0  0  0
 23  5  1  0  0  0  0
 23 22  1  0  0  0  0
 25  2  1  0  0  0  0
 29  5  1  0  0  0  0
 31  6  1  0  0  0  0
 33  7  1  0  0  0  0
 34  8  1  0  0  0  0
 35  8  1  0  0  0  0
 36  9  1  0  0  0  0
 38 10  1  0  0  0  0
 41 11  1  0  0  0  0
 44 13  1  0  0  0  0
 45 13  1  0  0  0  0
 48 15  1  0  0  0  0
 49 15  1  0  0  0  0
 50 16  1  0  0  0  0
 54 18  1  0  0  0  0
 55 18  1  0  0  0  0
 56 19  1  0  0  0  0
 60 21  1  0  0  0  0
 61 21  1  0  0  0  0
 62 22  1  0  0  0  0
 65 23  1  0  0  0  0
M  END
