3,11,17,25
 OpenBabel05122313063D

 32 32  0  0  0  0  0  0  0  0999 V2000
    2.4442    1.4822    0.0687 C   0  0  0  0  0  3  0  0  0  0  0  0
    2.9638    2.4628    0.0909 H   0  0  0  0  0  0  0  0  0  0  0  0
    1.1271    1.4851    0.1324 N   0  0  0  0  0  2  0  0  0  0  0  0
    4.7043    0.4421   -0.1021 C   0  0  0  0  0  0  0  0  0  0  0  0
    5.0742    1.5146   -0.1303 H   0  0  0  0  0  0  0  0  0  0  0  0
    3.2503    0.3223   -0.0052 C   0  0  0  0  0  0  0  0  0  0  0  0
    5.4956   -0.4957   -0.1457 O   0  0  0  0  0  0  0  0  0  0  0  0
    0.3965    2.7323    0.3540 C   0  0  0  0  0  0  0  0  0  0  0  0
    0.9789    3.6142    0.0104 H   0  0  0  0  0  0  0  0  0  0  0  0
    0.2025    2.8547    1.4439 H   0  0  0  0  0  0  0  0  0  0  0  0
    1.3961   -1.2316    0.1525 N   0  0  0  0  0  2  0  0  0  0  0  0
    2.6844   -0.9756    0.0838 C   0  0  0  0  0  0  0  0  0  0  0  0
    3.4080   -1.8149    0.1127 H   0  0  0  0  0  0  0  0  0  0  0  0
   -0.9251    2.5972   -0.3871 C   0  0  0  0  0  0  0  0  0  0  0  0
   -0.7573    2.7391   -1.4785 H   0  0  0  0  0  0  0  0  0  0  0  0
   -1.6730    3.3483   -0.0550 H   0  0  0  0  0  0  0  0  0  0  0  0
   -1.1272   -1.4851   -0.1324 N   0  0  0  0  0  2  0  0  0  0  0  0
   -2.4442   -1.4822   -0.0688 C   0  0  0  0  0  3  0  0  0  0  0  0
   -2.9638   -2.4628   -0.0909 H   0  0  0  0  0  0  0  0  0  0  0  0
   -3.2503   -0.3223    0.0052 C   0  0  0  0  0  0  0  0  0  0  0  0
   -4.7043   -0.4421    0.1021 C   0  0  0  0  0  0  0  0  0  0  0  0
   -5.0742   -1.5146    0.1305 H   0  0  0  0  0  0  0  0  0  0  0  0
   -5.4956    0.4957    0.1458 O   0  0  0  0  0  0  0  0  0  0  0  0
   -2.6844    0.9756   -0.0838 C   0  0  0  0  0  0  0  0  0  0  0  0
   -1.3961    1.2316   -0.1525 N   0  0  0  0  0  2  0  0  0  0  0  0
   -3.4080    1.8149   -0.1127 H   0  0  0  0  0  0  0  0  0  0  0  0
   -0.3965   -2.7323   -0.3541 C   0  0  0  0  0  0  0  0  0  0  0  0
   -0.9789   -3.6142   -0.0104 H   0  0  0  0  0  0  0  0  0  0  0  0
   -0.2025   -2.8547   -1.4439 H   0  0  0  0  0  0  0  0  0  0  0  0
    0.9251   -2.5972    0.3871 C   0  0  0  0  0  0  0  0  0  0  0  0
    0.7573   -2.7391    1.4785 H   0  0  0  0  0  0  0  0  0  0  0  0
    1.6730   -3.3483    0.0550 H   0  0  0  0  0  0  0  0  0  0  0  0
  1  2  1  0  0  0  0
  1  3  1  0  0  0  0
  3  8  1  0  0  0  0
  4  6  1  0  0  0  0
  5  4  1  0  0  0  0
  6  1  1  0  0  0  0
  6 12  2  0  0  0  0
  7  4  2  0  0  0  0
  8 10  1  0  0  0  0
  9  8  1  0  0  0  0
 11 30  1  0  0  0  0
 12 13  1  0  0  0  0
 12 11  1  0  0  0  0
 14 25  1  0  0  0  0
 14 16  1  0  0  0  0
 14  8  1  0  0  0  0
 15 14  1  0  0  0  0
 17 18  1  0  0  0  0
 18 20  1  0  0  0  0
 19 18  1  0  0  0  0
 20 21  1  0  0  0  0
 21 22  1  0  0  0  0
 21 23  2  0  0  0  0
 24 20  2  0  0  0  0
 25 24  1  0  0  0  0
 26 24  1  0  0  0  0
 27 17  1  0  0  0  0
 27 28  1  0  0  0  0
 27 30  1  0  0  0  0
 29 27  1  0  0  0  0
 30 31  1  0  0  0  0
 32 30  1  0  0  0  0
M  END
