1,2,3,4
 OpenBabel05122313063D

 49 51  0  0  0  0  0  0  0  0999 V2000
    1.4814    1.1343    0.1908 N   0  0  0  0  0  2  0  0  0  0  0  0
    1.4258   -1.3617   -0.1023 N   0  0  0  0  0  2  0  0  0  0  0  0
   -1.3947   -1.3702    0.0188 N   0  0  0  0  0  2  0  0  0  0  0  0
   -1.2916    1.0543   -0.5143 N   0  0  0  0  0  2  0  0  0  0  0  0
    2.6815    0.6198   -0.1277 C   0  0  0  0  0  0  0  0  0  0  0  0
    3.8827    1.3946   -0.1101 C   0  0  0  0  0  3  0  0  0  0  0  0
    5.1809    1.0876   -0.5263 C   0  0  0  0  0  0  0  0  0  0  0  0
    5.7026   -0.0970   -1.0709 C   0  0  0  0  0  0  0  0  0  0  0  0
    5.0047   -1.2993   -1.2622 C   0  0  0  0  0  0  0  0  0  0  0  0
    3.6823   -1.6239   -0.9463 C   0  0  0  0  0  0  0  0  0  0  0  0
    2.6272   -0.8340   -0.4013 C   0  0  0  0  0  0  0  0  0  0  0  0
    1.2377   -2.8008   -0.0481 C   0  0  0  0  0  0  0  0  0  0  0  0
    0.1040   -3.1629    0.9038 C   0  0  0  0  0  0  0  0  0  0  0  0
   -1.2797   -2.7701    0.4016 C   0  0  0  0  0  0  0  0  0  0  0  0
   -2.6085   -0.8559   -0.2385 C   0  0  0  0  0  0  0  0  0  0  0  0
   -3.7875   -1.6620   -0.2549 C   0  0  0  0  0  3  0  0  0  0  0  0
   -5.1205   -1.3388   -0.5199 C   0  0  0  0  0  0  0  0  0  0  0  0
   -5.7014   -0.1060   -0.8592 C   0  0  0  0  0  0  0  0  0  0  0  0
   -5.0272    1.1133   -1.0256 C   0  0  0  0  0  0  0  0  0  0  0  0
   -3.6666    1.4082   -0.8988 C   0  0  0  0  0  0  0  0  0  0  0  0
   -2.5534    0.5891   -0.5538 C   0  0  0  0  0  0  0  0  0  0  0  0
   -0.9512    2.3788   -1.0139 C   0  0  0  0  0  0  0  0  0  0  0  0
   -0.8516    3.4379    0.0854 C   0  0  0  0  0  0  0  0  0  0  0  0
    0.0736    2.9992    1.2215 C   0  0  0  0  0  0  0  0  0  0  0  0
    1.4419    2.4852    0.7713 C   0  0  0  0  0  0  0  0  0  0  0  0
    3.7638    2.4199    0.2622 H   0  0  0  0  0  0  0  0  0  0  0  0
    5.9011    1.9164   -0.4197 H   0  0  0  0  0  0  0  0  0  0  0  0
    6.7640   -0.0851   -1.3629 H   0  0  0  0  0  0  0  0  0  0  0  0
    5.5870   -2.1246   -1.7055 H   0  0  0  0  0  0  0  0  0  0  0  0
    3.4031   -2.6612   -1.1773 H   0  0  0  0  0  0  0  0  0  0  0  0
    1.0340   -3.2067   -1.0689 H   0  0  0  0  0  0  0  0  0  0  0  0
    2.1707   -3.2893    0.3090 H   0  0  0  0  0  0  0  0  0  0  0  0
    0.1079   -4.2602    1.0671 H   0  0  0  0  0  0  0  0  0  0  0  0
    0.2936   -2.6721    1.8796 H   0  0  0  0  0  0  0  0  0  0  0  0
   -2.0155   -3.0030    1.2036 H   0  0  0  0  0  0  0  0  0  0  0  0
   -1.5526   -3.4090   -0.4729 H   0  0  0  0  0  0  0  0  0  0  0  0
   -3.6210   -2.7247   -0.0364 H   0  0  0  0  0  0  0  0  0  0  0  0
   -5.8195   -2.1892   -0.4505 H   0  0  0  0  0  0  0  0  0  0  0  0
   -6.7919   -0.0957   -1.0102 H   0  0  0  0  0  0  0  0  0  0  0  0
   -5.6618    1.9770   -1.2860 H   0  0  0  0  0  0  0  0  0  0  0  0
   -3.4182    2.4656   -1.0663 H   0  0  0  0  0  0  0  0  0  0  0  0
    0.0344    2.2881   -1.5148 H   0  0  0  0  0  0  0  0  0  0  0  0
   -1.6650    2.6967   -1.8027 H   0  0  0  0  0  0  0  0  0  0  0  0
   -0.4814    4.3781   -0.3805 H   0  0  0  0  0  0  0  0  0  0  0  0
   -1.8603    3.6608    0.4941 H   0  0  0  0  0  0  0  0  0  0  0  0
    0.2577    3.8644    1.8923 H   0  0  0  0  0  0  0  0  0  0  0  0
   -0.4102    2.2194    1.8420 H   0  0  0  0  0  0  0  0  0  0  0  0
    2.1167    2.4902    1.6565 H   0  0  0  0  0  0  0  0  0  0  0  0
    1.8809    3.2112    0.0458 H   0  0  0  0  0  0  0  0  0  0  0  0
  1 25  1  0  0  0  0
  2 12  1  0  0  0  0
  3 14  1  0  0  0  0
  5  6  1  0  0  0  0
  5  1  1  0  0  0  0
  6 26  1  0  0  0  0
  7 27  1  0  0  0  0
  7  6  1  0  0  0  0
  8  7  2  0  0  0  0
  9  8  1  0  0  0  0
  9 10  2  0  0  0  0
 10 11  1  0  0  0  0
 11  5  2  0  0  0  0
 11  2  1  0  0  0  0
 12 32  1  0  0  0  0
 12 13  1  0  0  0  0
 13 33  1  0  0  0  0
 13 34  1  0  0  0  0
 14 13  1  0  0  0  0
 14 35  1  0  0  0  0
 15  3  1  0  0  0  0
 16 15  1  0  0  0  0
 16 37  1  0  0  0  0
 17 38  1  0  0  0  0
 17 16  1  0  0  0  0
 18 17  2  0  0  0  0
 19 20  2  0  0  0  0
 19 18  1  0  0  0  0
 20 21  1  0  0  0  0
 21  4  1  0  0  0  0
 21 15  2  0  0  0  0
 22  4  1  0  0  0  0
 22 23  1  0  0  0  0
 23 45  1  0  0  0  0
 23 24  1  0  0  0  0
 24 47  1  0  0  0  0
 24 46  1  0  0  0  0
 25 24  1  0  0  0  0
 25 48  1  0  0  0  0
 28  8  1  0  0  0  0
 29  9  1  0  0  0  0
 30 10  1  0  0  0  0
 31 12  1  0  0  0  0
 36 14  1  0  0  0  0
 39 18  1  0  0  0  0
 40 19  1  0  0  0  0
 41 20  1  0  0  0  0
 42 22  1  0  0  0  0
 43 22  1  0  0  0  0
 44 23  1  0  0  0  0
 49 25  1  0  0  0  0
M  END
