1,2,17,24
 OpenBabel05122313063D

 46 45  0  0  0  0  0  0  0  0999 V2000
   -0.0001   -0.0000    1.6357 N   0  0  0  0  0  0  0  0  0  0  0  0
   -1.3242    1.6579   -0.4594 N   0  0  0  0  0  0  0  0  0  0  0  0
   -1.0290    0.9965    1.9607 C   0  0  0  0  0  0  0  0  0  0  0  0
   -0.8814    1.4433    2.9730 H   0  0  0  0  0  0  0  0  0  0  0  0
   -2.0081    0.4790    2.0037 H   0  0  0  0  0  0  0  0  0  0  0  0
   -1.0879    2.1294    0.9292 C   0  0  0  0  0  0  0  0  0  0  0  0
   -1.8699    2.8658    1.2350 H   0  0  0  0  0  0  0  0  0  0  0  0
   -0.1266    2.6821    0.9312 H   0  0  0  0  0  0  0  0  0  0  0  0
   -1.0029    2.7275   -1.4244 C   0  0  0  0  0  0  0  0  0  0  0  0
   -1.1467    2.3528   -2.4555 H   0  0  0  0  0  0  0  0  0  0  0  0
    0.0493    3.0430   -1.3072 H   0  0  0  0  0  0  0  0  0  0  0  0
   -1.6575    3.6199   -1.2827 H   0  0  0  0  0  0  0  0  0  0  0  0
   -2.7331    1.2656   -0.6436 C   0  0  0  0  0  0  0  0  0  0  0  0
   -2.8816    0.8828   -1.6706 H   0  0  0  0  0  0  0  0  0  0  0  0
   -3.4210    2.1307   -0.4886 H   0  0  0  0  0  0  0  0  0  0  0  0
   -3.0159    0.4697    0.0695 H   0  0  0  0  0  0  0  0  0  0  0  0
    2.0981    0.3178   -0.4595 N   0  0  0  0  0  0  0  0  0  0  0  0
    2.3881   -0.1229    0.9291 C   0  0  0  0  0  0  0  0  0  0  0  0
    1.3775    0.3923    1.9608 C   0  0  0  0  0  0  0  0  0  0  0  0
   -0.3489   -1.3892    1.9605 C   0  0  0  0  0  0  0  0  0  0  0  0
   -0.8100   -1.4845    2.9727 H   0  0  0  0  0  0  0  0  0  0  0  0
    0.5884   -1.9789    2.0039 H   0  0  0  0  0  0  0  0  0  0  0  0
   -1.3007   -2.0062    0.9289 C   0  0  0  0  0  0  0  0  0  0  0  0
   -0.7739   -1.9757   -0.4595 N   0  0  0  0  0  0  0  0  0  0  0  0
   -1.8609   -2.2318   -1.4246 C   0  0  0  0  0  0  0  0  0  0  0  0
   -1.4643   -2.1698   -2.4557 H   0  0  0  0  0  0  0  0  0  0  0  0
   -2.6593   -1.4774   -1.3077 H   0  0  0  0  0  0  0  0  0  0  0  0
   -2.3074   -3.2444   -1.2824 H   0  0  0  0  0  0  0  0  0  0  0  0
    0.2701   -2.9999   -0.6433 C   0  0  0  0  0  0  0  0  0  0  0  0
    0.6761   -2.9372   -1.6703 H   0  0  0  0  0  0  0  0  0  0  0  0
   -0.1352   -4.0281   -0.4881 H   0  0  0  0  0  0  0  0  0  0  0  0
    1.1007   -2.8464    0.0698 H   0  0  0  0  0  0  0  0  0  0  0  0
   -1.5481   -3.0515    1.2349 H   0  0  0  0  0  0  0  0  0  0  0  0
   -2.2598   -1.4497    0.9306 H   0  0  0  0  0  0  0  0  0  0  0  0
    1.6906    0.0403    2.9728 H   0  0  0  0  0  0  0  0  0  0  0  0
    1.4195    1.4989    2.0047 H   0  0  0  0  0  0  0  0  0  0  0  0
    3.4168    0.1861    1.2350 H   0  0  0  0  0  0  0  0  0  0  0  0
    2.3864   -1.2318    0.9308 H   0  0  0  0  0  0  0  0  0  0  0  0
    2.8633   -0.4956   -1.4246 C   0  0  0  0  0  0  0  0  0  0  0  0
    2.6112   -0.1833   -2.4557 H   0  0  0  0  0  0  0  0  0  0  0  0
    2.6095   -1.5644   -1.3076 H   0  0  0  0  0  0  0  0  0  0  0  0
    3.9635   -0.3758   -1.2827 H   0  0  0  0  0  0  0  0  0  0  0  0
    2.4634    1.7339   -0.6440 C   0  0  0  0  0  0  0  0  0  0  0  0
    2.2053    2.0538   -1.6708 H   0  0  0  0  0  0  0  0  0  0  0  0
    3.5568    1.8965   -0.4900 H   0  0  0  0  0  0  0  0  0  0  0  0
    1.9166    2.3772    0.0695 H   0  0  0  0  0  0  0  0  0  0  0  0
  1 20  1  0  0  0  0
  1  3  1  0  0  0  0
  1 19  1  0  0  0  0
  2  6  1  0  0  0  0
  3  5  1  0  0  0  0
  3  4  1  0  0  0  0
  6  8  1  0  0  0  0
  6  7  1  0  0  0  0
  6  3  1  0  0  0  0
  9 11  1  0  0  0  0
  9 12  1  0  0  0  0
  9  2  1  0  0  0  0
 10  9  1  0  0  0  0
 13 15  1  0  0  0  0
 13  2  1  0  0  0  0
 13 16  1  0  0  0  0
 14 13  1  0  0  0  0
 17 18  1  0  0  0  0
 18 38  1  0  0  0  0
 18 37  1  0  0  0  0
 18 19  1  0  0  0  0
 19 36  1  0  0  0  0
 19 35  1  0  0  0  0
 20 22  1  0  0  0  0
 20 21  1  0  0  0  0
 23 34  1  0  0  0  0
 23 33  1  0  0  0  0
 23 20  1  0  0  0  0
 24 23  1  0  0  0  0
 25 27  1  0  0  0  0
 25 28  1  0  0  0  0
 25 24  1  0  0  0  0
 26 25  1  0  0  0  0
 29 31  1  0  0  0  0
 29 24  1  0  0  0  0
 29 32  1  0  0  0  0
 30 29  1  0  0  0  0
 39 41  1  0  0  0  0
 39 42  1  0  0  0  0
 39 17  1  0  0  0  0
 40 39  1  0  0  0  0
 43 45  1  0  0  0  0
 43 17  1  0  0  0  0
 43 46  1  0  0  0  0
 44 43  1  0  0  0  0
M  END
