1,2,31,32
 OpenBabel05122313063D

 60 63  0  0  1  0  0  0  0  0999 V2000
    1.3907   -0.3891    0.1488 N   0  0  0  0  0  0  0  0  0  0  0  0
    0.0208   -2.1152   -1.4328 N   0  0  0  0  0  2  0  0  0  0  0  0
    3.3159    0.3769    2.4686 N   0  0  0  0  0  0  0  0  0  0  0  0
    2.0464   -1.6639   -0.1924 C   0  0  0  0  0  0  0  0  0  0  0  0
    2.3931    0.7128    0.2317 C   0  0  0  0  0  0  0  0  0  0  0  0
    0.5586   -0.5125    1.3758 C   0  0  0  0  0  0  0  0  0  0  0  0
    1.0381   -2.6502   -0.7153 C   0  0  2  0  0  3  0  0  0  0  0  0
    1.1484   -4.0364   -0.5370 C   0  0  0  0  0  0  0  0  0  0  0  0
    0.1989   -4.8786   -1.1317 C   0  0  0  0  0  0  0  0  0  0  0  0
   -0.8366   -4.3121   -1.8898 C   0  0  0  0  0  0  0  0  0  0  0  0
   -0.8921   -2.9215   -2.0185 C   0  0  0  0  0  0  0  0  0  0  0  0
    3.5735    0.4456    1.1452 C   0  0  0  0  0  0  0  0  0  0  0  0
    4.8695    0.2793    0.6206 C   0  0  0  0  0  0  0  0  0  0  0  0
    5.9335    0.0440    1.5039 C   0  0  0  0  0  0  0  0  0  0  0  0
    5.6650   -0.0266    2.8771 C   0  0  0  0  0  0  0  0  0  0  0  0
    4.3375    0.1410    3.3059 C   0  0  0  0  0  0  0  0  0  0  0  0
    1.9759   -4.4440    0.0613 H   0  0  0  0  0  0  0  0  0  0  0  0
    0.2678   -5.9694   -1.0051 H   0  0  0  0  0  0  0  0  0  0  0  0
   -1.5958   -4.9364   -2.3813 H   0  0  0  0  0  0  0  0  0  0  0  0
   -1.6649   -2.4057   -2.6091 H   0  0  0  0  0  0  0  0  0  0  0  0
    5.0408    0.3420   -0.4650 H   0  0  0  0  0  0  0  0  0  0  0  0
    6.9585   -0.0809    1.1234 H   0  0  0  0  0  0  0  0  0  0  0  0
    6.4669   -0.2054    3.6082 H   0  0  0  0  0  0  0  0  0  0  0  0
    4.0879    0.0894    4.3801 H   0  0  0  0  0  0  0  0  0  0  0  0
    2.6157   -2.0935    0.6610 H   0  0  0  0  0  0  0  0  0  0  0  0
    2.7726   -1.4571   -1.0091 H   0  0  0  0  0  0  0  0  0  0  0  0
    1.8638    1.6203    0.5806 H   0  0  0  0  0  0  0  0  0  0  0  0
    2.7432    0.8980   -0.8018 H   0  0  0  0  0  0  0  0  0  0  0  0
    1.1902   -0.3902    2.2815 H   0  0  0  0  0  0  0  0  0  0  0  0
    0.1329   -1.5363    1.3978 H   0  0  0  0  0  0  0  0  0  0  0  0
   -1.3908    0.3890    0.1486 N   0  0  0  0  0  0  0  0  0  0  0  0
   -0.0207    2.1150   -1.4330 N   0  0  0  0  0  2  0  0  0  0  0  0
   -0.5588    0.5125    1.3757 C   0  0  0  0  0  0  0  0  0  0  0  0
   -2.0464    1.6638   -0.1927 C   0  0  0  0  0  0  0  0  0  0  0  0
   -2.3932   -0.7128    0.2316 C   0  0  0  0  0  0  0  0  0  0  0  0
   -1.0381    2.6501   -0.7156 C   0  0  2  0  0  3  0  0  0  0  0  0
    0.8921    2.9213   -2.0188 C   0  0  0  0  0  0  0  0  0  0  0  0
   -1.1904    0.3903    2.2814 H   0  0  0  0  0  0  0  0  0  0  0  0
   -0.1331    1.5363    1.3977 H   0  0  0  0  0  0  0  0  0  0  0  0
   -2.6157    2.0935    0.6606 H   0  0  0  0  0  0  0  0  0  0  0  0
   -2.7726    1.4570   -1.0094 H   0  0  0  0  0  0  0  0  0  0  0  0
   -3.5736   -0.4454    1.1452 C   0  0  0  0  0  0  0  0  0  0  0  0
   -1.8640   -1.6203    0.5806 H   0  0  0  0  0  0  0  0  0  0  0  0
   -2.7434   -0.8981   -0.8018 H   0  0  0  0  0  0  0  0  0  0  0  0
   -1.1483    4.0363   -0.5374 C   0  0  0  0  0  0  0  0  0  0  0  0
    0.8367    4.3118   -1.8903 C   0  0  0  0  0  0  0  0  0  0  0  0
    1.6650    2.4053   -2.6093 H   0  0  0  0  0  0  0  0  0  0  0  0
   -3.3159   -0.3765    2.4686 N   0  0  0  0  0  0  0  0  0  0  0  0
   -4.8696   -0.2791    0.6206 C   0  0  0  0  0  0  0  0  0  0  0  0
   -0.1988    4.8784   -1.1322 C   0  0  0  0  0  0  0  0  0  0  0  0
   -1.9759    4.4439    0.0608 H   0  0  0  0  0  0  0  0  0  0  0  0
    1.5959    4.9361   -2.3818 H   0  0  0  0  0  0  0  0  0  0  0  0
   -4.3374   -0.1404    3.3059 C   0  0  0  0  0  0  0  0  0  0  0  0
   -5.9336   -0.0436    1.5039 C   0  0  0  0  0  0  0  0  0  0  0  0
   -5.0410   -0.3419   -0.4650 H   0  0  0  0  0  0  0  0  0  0  0  0
   -0.2677    5.9692   -1.0057 H   0  0  0  0  0  0  0  0  0  0  0  0
   -5.6650    0.0271    2.8771 C   0  0  0  0  0  0  0  0  0  0  0  0
   -4.0878   -0.0887    4.3800 H   0  0  0  0  0  0  0  0  0  0  0  0
   -6.9586    0.0813    1.1234 H   0  0  0  0  0  0  0  0  0  0  0  0
   -6.4668    0.2061    3.6082 H   0  0  0  0  0  0  0  0  0  0  0  0
  1  5  1  0  0  0  0
  1  6  1  0  0  0  0
  2  7  1  0  0  0  0
  3 16  1  0  0  0  0
  4  1  1  0  0  0  0
  4 25  1  0  0  0  0
  5 27  1  0  0  0  0
  5 12  1  0  0  0  0
  6 30  1  0  0  0  0
  6 29  1  0  0  0  0
  7  8  1  0  0  0  0
  7  4  1  6  0  0  0
  8 17  1  0  0  0  0
  9 18  1  0  0  0  0
  9  8  2  0  0  0  0
 10  9  1  0  0  0  0
 11 10  2  0  0  0  0
 11  2  1  0  0  0  0
 12  3  2  0  0  0  0
 13 12  1  0  0  0  0
 13 14  2  0  0  0  0
 14 15  1  0  0  0  0
 15 16  2  0  0  0  0
 15 23  1  0  0  0  0
 16 24  1  0  0  0  0
 19 10  1  0  0  0  0
 20 11  1  0  0  0  0
 21 13  1  0  0  0  0
 22 14  1  0  0  0  0
 26  4  1  0  0  0  0
 28  5  1  0  0  0  0
 31 35  1  0  0  0  0
 31 33  1  0  0  0  0
 32 36  1  0  0  0  0
 33  6  1  0  0  0  0
 33 39  1  0  0  0  0
 33 38  1  0  0  0  0
 34 31  1  0  0  0  0
 34 40  1  0  0  0  0
 35 43  1  0  0  0  0
 35 42  1  0  0  0  0
 36 45  1  0  0  0  0
 36 34  1  6  0  0  0
 37 46  2  0  0  0  0
 37 32  1  0  0  0  0
 41 34  1  0  0  0  0
 42 48  1  0  0  0  0
 44 35  1  0  0  0  0
 45 51  1  0  0  0  0
 46 50  1  0  0  0  0
 47 37  1  0  0  0  0
 48 53  2  0  0  0  0
 49 42  2  0  0  0  0
 49 54  1  0  0  0  0
 50 56  1  0  0  0  0
 50 45  2  0  0  0  0
 52 46  1  0  0  0  0
 53 58  1  0  0  0  0
 54 57  2  0  0  0  0
 55 49  1  0  0  0  0
 57 53  1  0  0  0  0
 57 60  1  0  0  0  0
 59 54  1  0  0  0  0
M  END
