1,2,42,43
 OpenBabel05122313063D

 82 86  0  0  1  0  0  0  0  0999 V2000
    1.4238   -1.3488    0.7173 N   0  0  0  0  0  2  0  0  0  0  0  0
    1.7657    1.0817   -0.2776 N   0  0  0  0  0  0  0  0  0  0  0  0
    1.2269   -2.7343    0.5561 C   0  0  0  0  0  0  0  0  0  0  0  0
    2.4334   -3.3224   -0.0248 C   0  0  0  0  0  0  0  0  0  0  0  0
    3.3450   -2.2871   -0.1788 C   0  0  2  0  0  3  0  0  0  0  0  0
    2.6514   -1.0592    0.2376 C   0  0  1  0  0  3  0  0  0  0  0  0
    2.9079    0.3414   -0.0362 C   0  0  0  0  0  3  0  0  0  0  0  0
    4.0735    1.1601   -0.2162 C   0  0  0  0  0  0  0  0  0  0  0  0
    3.5955    2.4254   -0.6275 C   0  0  0  0  0  0  0  0  0  0  0  0
    2.1715    2.3291   -0.6724 C   0  0  0  0  0  0  0  0  0  0  0  0
    1.2293    3.2558   -1.2791 C   0  0  0  0  0  3  0  0  0  0  0  0
    0.0575   -3.2926    0.9305 C   0  0  0  0  0  2  0  0  0  0  0  0
    2.5979   -4.7746   -0.3590 C   0  0  0  0  0  0  0  0  0  0  0  0
    1.5808   -5.2754   -1.3965 C   0  0  0  0  0  0  0  0  0  0  0  0
    4.7289   -2.4226   -0.7455 C   0  0  0  0  0  0  0  0  0  0  0  0
    5.7972   -2.7579    0.3079 C   0  0  0  0  0  0  0  0  0  0  0  0
    5.4984    0.8615    0.1628 C   0  0  0  0  0  0  0  0  0  0  0  0
    5.7146    0.8266    1.6851 C   0  0  0  0  0  0  0  0  0  0  0  0
    4.3858    3.6707   -0.9060 C   0  0  0  0  0  0  0  0  0  0  0  0
    4.4861    4.6180    0.3012 C   0  0  0  0  0  0  0  0  0  0  0  0
    1.5950    3.8756   -2.1216 H   0  0  0  0  0  0  0  0  0  0  0  0
    3.9189    4.2182   -1.7550 H   0  0  0  0  0  0  0  0  0  0  0  0
    5.4063    3.3990   -1.2502 H   0  0  0  0  0  0  0  0  0  0  0  0
    5.0629    5.5330    0.0542 H   0  0  0  0  0  0  0  0  0  0  0  0
    3.4779    4.9279    0.6434 H   0  0  0  0  0  0  0  0  0  0  0  0
    4.9854    4.1189    1.1565 H   0  0  0  0  0  0  0  0  0  0  0  0
    6.1558    1.6375   -0.2817 H   0  0  0  0  0  0  0  0  0  0  0  0
    5.8409   -0.0978   -0.2710 H   0  0  0  0  0  0  0  0  0  0  0  0
    6.7718    0.6059    1.9394 H   0  0  0  0  0  0  0  0  0  0  0  0
    5.4439    1.7974    2.1474 H   0  0  0  0  0  0  0  0  0  0  0  0
    5.0777    0.0518    2.1588 H   0  0  0  0  0  0  0  0  0  0  0  0
    4.9946   -1.4913   -1.2847 H   0  0  0  0  0  0  0  0  0  0  0  0
    4.7207   -3.2213   -1.5168 H   0  0  0  0  0  0  0  0  0  0  0  0
    6.8045   -2.8280   -0.1505 H   0  0  0  0  0  0  0  0  0  0  0  0
    5.8381   -1.9903    1.1055 H   0  0  0  0  0  0  0  0  0  0  0  0
    5.5752   -3.7277    0.7973 H   0  0  0  0  0  0  0  0  0  0  0  0
    2.4896   -5.3715    0.5731 H   0  0  0  0  0  0  0  0  0  0  0  0
    3.6313   -4.9575   -0.7183 H   0  0  0  0  0  0  0  0  0  0  0  0
    1.7255   -6.3541   -1.6065 H   0  0  0  0  0  0  0  0  0  0  0  0
    0.5429   -5.1341   -1.0329 H   0  0  0  0  0  0  0  0  0  0  0  0
    1.6811   -4.7216   -2.3517 H   0  0  0  0  0  0  0  0  0  0  0  0
   -1.4238    1.3488   -0.7173 N   0  0  0  0  0  2  0  0  0  0  0  0
   -1.7657   -1.0817    0.2777 N   0  0  0  0  0  0  0  0  0  0  0  0
   -0.0575    3.2926   -0.9305 C   0  0  0  0  0  2  0  0  0  0  0  0
   -1.2293   -3.2558    1.2791 C   0  0  0  0  0  3  0  0  0  0  0  0
   -1.2268    2.7343   -0.5561 C   0  0  0  0  0  0  0  0  0  0  0  0
   -2.6514    1.0592   -0.2376 C   0  0  1  0  0  3  0  0  0  0  0  0
   -2.9079   -0.3414    0.0363 C   0  0  0  0  0  0  0  0  0  0  0  0
   -2.1715   -2.3291    0.6724 C   0  0  0  0  0  3  0  0  0  0  0  0
   -1.5950   -3.8756    2.1216 H   0  0  0  0  0  0  0  0  0  0  0  0
   -2.4334    3.3224    0.0248 C   0  0  0  0  0  0  0  0  0  0  0  0
   -3.3450    2.2871    0.1788 C   0  0  2  0  0  3  0  0  0  0  0  0
   -4.0735   -1.1601    0.2162 C   0  0  0  0  0  0  0  0  0  0  0  0
   -3.5955   -2.4254    0.6275 C   0  0  0  0  0  0  0  0  0  0  0  0
   -2.5979    4.7746    0.3589 C   0  0  0  0  0  0  0  0  0  0  0  0
   -4.7289    2.4226    0.7455 C   0  0  0  0  0  0  0  0  0  0  0  0
   -5.4984   -0.8615   -0.1628 C   0  0  0  0  0  0  0  0  0  0  0  0
   -4.3858   -3.6707    0.9060 C   0  0  0  0  0  0  0  0  0  0  0  0
   -1.5808    5.2754    1.3964 C   0  0  0  0  0  0  0  0  0  0  0  0
   -2.4896    5.3715   -0.5732 H   0  0  0  0  0  0  0  0  0  0  0  0
   -3.6313    4.9575    0.7182 H   0  0  0  0  0  0  0  0  0  0  0  0
   -5.7973    2.7577   -0.3079 C   0  0  0  0  0  0  0  0  0  0  0  0
   -4.9945    1.4913    1.2849 H   0  0  0  0  0  0  0  0  0  0  0  0
   -4.7207    3.2213    1.5167 H   0  0  0  0  0  0  0  0  0  0  0  0
   -5.7146   -0.8265   -1.6851 C   0  0  0  0  0  0  0  0  0  0  0  0
   -6.1558   -1.6375    0.2817 H   0  0  0  0  0  0  0  0  0  0  0  0
   -5.8408    0.0979    0.2710 H   0  0  0  0  0  0  0  0  0  0  0  0
   -4.4862   -4.6180   -0.3012 C   0  0  0  0  0  0  0  0  0  0  0  0
   -3.9189   -4.2182    1.7550 H   0  0  0  0  0  0  0  0  0  0  0  0
   -5.4063   -3.3989    1.2503 H   0  0  0  0  0  0  0  0  0  0  0  0
   -1.7255    6.3542    1.6064 H   0  0  0  0  0  0  0  0  0  0  0  0
   -0.5429    5.1341    1.0328 H   0  0  0  0  0  0  0  0  0  0  0  0
   -1.6811    4.7216    2.3516 H   0  0  0  0  0  0  0  0  0  0  0  0
   -6.8045    2.8278    0.1505 H   0  0  0  0  0  0  0  0  0  0  0  0
   -5.8381    1.9899   -1.1054 H   0  0  0  0  0  0  0  0  0  0  0  0
   -5.5753    3.7275   -0.7974 H   0  0  0  0  0  0  0  0  0  0  0  0
   -6.7718   -0.6058   -1.9394 H   0  0  0  0  0  0  0  0  0  0  0  0
   -5.4439   -1.7973   -2.1474 H   0  0  0  0  0  0  0  0  0  0  0  0
   -5.0777   -0.0517   -2.1588 H   0  0  0  0  0  0  0  0  0  0  0  0
   -5.0630   -5.5329   -0.0542 H   0  0  0  0  0  0  0  0  0  0  0  0
   -3.4779   -4.9279   -0.6435 H   0  0  0  0  0  0  0  0  0  0  0  0
   -4.9854   -4.1189   -1.1565 H   0  0  0  0  0  0  0  0  0  0  0  0
  2  7  1  0  0  0  0
  3  1  1  0  0  0  0
  3 12  1  0  0  0  0
  4  3  2  0  0  0  0
  5 15  1  6  0  0  0
  5  4  1  0  0  0  0
  5  6  1  0  0  0  0
  6  7  1  6  0  0  0
  6  1  1  0  0  0  0
  8  7  1  0  0  0  0
  8 17  1  0  0  0  0
  9  8  2  0  0  0  0
 10  9  1  0  0  0  0
 10  2  2  0  0  0  0
 11 44  1  0  0  0  0
 11 10  1  0  0  0  0
 12 45  1  0  0  0  0
 13  4  1  0  0  0  0
 13 37  1  0  0  0  0
 14 40  1  0  0  0  0
 14 13  1  0  0  0  0
 15 16  1  0  0  0  0
 16 36  1  0  0  0  0
 16 35  1  0  0  0  0
 17 18  1  0  0  0  0
 18 29  1  0  0  0  0
 18 30  1  0  0  0  0
 18 31  1  0  0  0  0
 19  9  1  0  0  0  0
 19 20  1  0  0  0  0
 20 25  1  0  0  0  0
 20 26  1  0  0  0  0
 21 11  1  0  0  0  0
 22 19  1  0  0  0  0
 23 19  1  0  0  0  0
 24 20  1  0  0  0  0
 27 17  1  0  0  0  0
 28 17  1  0  0  0  0
 32 15  1  0  0  0  0
 33 15  1  0  0  0  0
 34 16  1  0  0  0  0
 38 13  1  0  0  0  0
 39 14  1  0  0  0  0
 41 14  1  0  0  0  0
 42 46  1  0  0  0  0
 43 49  1  0  0  0  0
 44 46  1  0  0  0  0
 45 50  1  0  0  0  0
 46 51  2  0  0  0  0
 47 42  1  1  0  0  0
 47 48  1  0  0  0  0
 47 52  1  0  0  0  0
 48 53  1  0  0  0  0
 48 43  2  0  0  0  0
 49 45  1  0  0  0  0
 51 52  1  0  0  0  0
 51 55  1  0  0  0  0
 52 56  1  1  0  0  0
 53 54  2  0  0  0  0
 54 49  1  0  0  0  0
 54 58  1  0  0  0  0
 55 61  1  0  0  0  0
 55 59  1  0  0  0  0
 56 63  1  0  0  0  0
 56 64  1  0  0  0  0
 57 53  1  0  0  0  0
 57 67  1  0  0  0  0
 57 66  1  0  0  0  0
 58 70  1  0  0  0  0
 58 69  1  0  0  0  0
 59 71  1  0  0  0  0
 59 73  1  0  0  0  0
 60 55  1  0  0  0  0
 62 74  1  0  0  0  0
 62 56  1  0  0  0  0
 65 57  1  0  0  0  0
 68 80  1  0  0  0  0
 68 58  1  0  0  0  0
 72 59  1  0  0  0  0
 75 62  1  0  0  0  0
 76 62  1  0  0  0  0
 77 65  1  0  0  0  0
 78 65  1  0  0  0  0
 79 65  1  0  0  0  0
 81 68  1  0  0  0  0
 82 68  1  0  0  0  0
M  END
