1,2,27,52
 OpenBabel05122313063D

 76 81  0  0  1  0  0  0  0  0999 V2000
   -0.0066   -0.0007   -3.2665 N   0  0  0  0  0  0  0  0  0  0  0  0
    1.4042   -1.5236   -1.4361 N   0  0  0  0  0  2  0  0  0  0  0  0
    2.5418   -1.4260    0.5748 N   0  0  0  0  0  0  0  0  0  0  0  0
    1.7287   -0.8411    0.8660 H   0  0  0  0  0  0  0  0  0  0  0  0
    0.1624   -1.4102   -3.5433 C   0  0  0  0  0  0  0  0  0  0  0  0
    0.3848   -1.6293   -4.6187 H   0  0  0  0  0  0  0  0  0  0  0  0
   -0.8016   -1.9140   -3.3139 H   0  0  0  0  0  0  0  0  0  0  0  0
    1.2415   -2.0382   -2.6788 C   0  0  2  0  0  3  0  0  0  0  0  0
    2.0031   -3.1033   -3.1716 C   0  0  0  0  0  0  0  0  0  0  0  0
    1.8462   -3.4633   -4.1984 H   0  0  0  0  0  0  0  0  0  0  0  0
    2.9468   -3.6988   -2.3158 C   0  0  0  0  0  0  0  0  0  0  0  0
    3.5294   -4.5723   -2.6459 H   0  0  0  0  0  0  0  0  0  0  0  0
    3.1453   -3.1736   -1.0434 C   0  0  0  0  0  0  0  0  0  0  0  0
    3.8642   -3.6261   -0.3495 H   0  0  0  0  0  0  0  0  0  0  0  0
    2.3828   -2.0446   -0.6340 C   0  0  0  0  0  0  0  0  0  0  0  0
    3.5417   -1.5913    1.5416 C   0  0  0  0  0  0  0  0  0  0  0  0
    4.8901   -1.8770    1.2238 C   0  0  0  0  0  0  0  0  0  0  0  0
    5.2006   -1.9732    0.1744 H   0  0  0  0  0  0  0  0  0  0  0  0
    5.8444   -1.9930    2.2442 C   0  0  0  0  0  0  0  0  0  0  0  0
    6.8896   -2.2138    1.9777 H   0  0  0  0  0  0  0  0  0  0  0  0
    5.4857   -1.8109    3.5888 C   0  0  0  0  0  0  0  0  0  0  0  0
    6.2406   -1.9023    4.3837 H   0  0  0  0  0  0  0  0  0  0  0  0
    4.1527   -1.4977    3.9040 C   0  0  0  0  0  0  0  0  0  0  0  0
    3.8562   -1.3393    4.9523 H   0  0  0  0  0  0  0  0  0  0  0  0
    3.1867   -1.3917    2.8976 C   0  0  0  0  0  0  0  0  0  0  0  0
    2.1413   -1.1438    3.1357 H   0  0  0  0  0  0  0  0  0  0  0  0
   -2.0261   -0.4566   -1.4310 N   0  0  0  0  0  2  0  0  0  0  0  0
   -2.5052   -1.4862    0.5834 N   0  0  0  0  0  0  0  0  0  0  0  0
   -1.5904   -1.0756    0.8704 H   0  0  0  0  0  0  0  0  0  0  0  0
   -1.3122    0.5567   -3.5426 C   0  0  0  0  0  0  0  0  0  0  0  0
   -1.6156    0.4690   -4.6170 H   0  0  0  0  0  0  0  0  0  0  0  0
   -1.2659    1.6446   -3.3184 H   0  0  0  0  0  0  0  0  0  0  0  0
   -2.3938   -0.0600   -2.6731 C   0  0  2  0  0  3  0  0  0  0  0  0
   -3.6989   -0.1858   -3.1614 C   0  0  0  0  0  0  0  0  0  0  0  0
   -3.9352    0.1286   -4.1880 H   0  0  0  0  0  0  0  0  0  0  0  0
   -4.6846   -0.7019   -2.3012 C   0  0  0  0  0  0  0  0  0  0  0  0
   -5.7335   -0.7684   -2.6276 H   0  0  0  0  0  0  0  0  0  0  0  0
   -4.3254   -1.1347   -1.0293 C   0  0  0  0  0  0  0  0  0  0  0  0
   -5.0751   -1.5284   -0.3322 H   0  0  0  0  0  0  0  0  0  0  0  0
   -2.9649   -1.0406   -0.6246 C   0  0  0  0  0  0  0  0  0  0  0  0
   -3.1457   -2.2671    1.5538 C   0  0  0  0  0  0  0  0  0  0  0  0
   -4.0708   -3.2905    1.2413 C   0  0  0  0  0  0  0  0  0  0  0  0
   -4.3146   -3.5120    0.1933 H   0  0  0  0  0  0  0  0  0  0  0  0
   -4.6453   -4.0567    2.2651 C   0  0  0  0  0  0  0  0  0  0  0  0
   -5.3619   -4.8503    2.0027 H   0  0  0  0  0  0  0  0  0  0  0  0
   -4.3019   -3.8362    3.6080 C   0  0  0  0  0  0  0  0  0  0  0  0
   -4.7561   -4.4424    4.4056 H   0  0  0  0  0  0  0  0  0  0  0  0
   -3.3608   -2.8398    3.9178 C   0  0  0  0  0  0  0  0  0  0  0  0
   -3.0704   -2.6616    4.9647 H   0  0  0  0  0  0  0  0  0  0  0  0
   -2.7889   -2.0585    2.9080 C   0  0  0  0  0  0  0  0  0  0  0  0
   -2.0490   -1.2783    3.1419 H   0  0  0  0  0  0  0  0  0  0  0  0
    0.6129    1.9797   -1.4357 N   0  0  0  0  0  2  0  0  0  0  0  0
   -0.0326    2.9118    0.5795 N   0  0  0  0  0  0  0  0  0  0  0  0
   -0.1312    1.9144    0.8687 H   0  0  0  0  0  0  0  0  0  0  0  0
    1.1285    0.8508   -3.5464 C   0  0  0  0  0  0  0  0  0  0  0  0
    1.2031    1.1543   -4.6217 H   0  0  0  0  0  0  0  0  0  0  0  0
    2.0478    0.2679   -3.3210 H   0  0  0  0  0  0  0  0  0  0  0  0
    1.1349    2.0984   -2.6803 C   0  0  2  0  0  3  0  0  0  0  0  0
    1.6725    3.2921   -3.1738 C   0  0  0  0  0  0  0  0  0  0  0  0
    2.0587    3.3381   -4.2021 H   0  0  0  0  0  0  0  0  0  0  0  0
    1.7176    4.4062   -2.3168 C   0  0  0  0  0  0  0  0  0  0  0  0
    2.1795    5.3488   -2.6477 H   0  0  0  0  0  0  0  0  0  0  0  0
    1.1689    4.3129   -1.0423 C   0  0  0  0  0  0  0  0  0  0  0  0
    1.2027    5.1611   -0.3476 H   0  0  0  0  0  0  0  0  0  0  0  0
    0.5765    3.0864   -0.6318 C   0  0  0  0  0  0  0  0  0  0  0  0
   -0.3851    3.8578    1.5505 C   0  0  0  0  0  0  0  0  0  0  0  0
   -0.8156    5.1685    1.2382 C   0  0  0  0  0  0  0  0  0  0  0  0
   -0.8939    5.4877    0.1900 H   0  0  0  0  0  0  0  0  0  0  0  0
   -1.1878    6.0500    2.2628 C   0  0  0  0  0  0  0  0  0  0  0  0
   -1.5221    7.0657    2.0006 H   0  0  0  0  0  0  0  0  0  0  0  0
   -1.1577    5.6451    3.6063 C   0  0  0  0  0  0  0  0  0  0  0  0
   -1.4526    6.3423    4.4046 H   0  0  0  0  0  0  0  0  0  0  0  0
   -0.7587    4.3340    3.9162 C   0  0  0  0  0  0  0  0  0  0  0  0
   -0.7411    3.9956    4.9636 H   0  0  0  0  0  0  0  0  0  0  0  0
   -0.3720    3.4474    2.9055 C   0  0  0  0  0  0  0  0  0  0  0  0
   -0.0612    2.4180    3.1394 H   0  0  0  0  0  0  0  0  0  0  0  0
  2 15  1  0  0  0  0
  3  4  1  0  0  0  0
  3 16  1  0  0  0  0
  5  7  1  0  0  0  0
  5  1  1  0  0  0  0
  6  5  1  0  0  0  0
  8  5  1  1  0  0  0
  8  2  1  0  0  0  0
  9  8  1  0  0  0  0
  9 11  2  0  0  0  0
 10  9  1  0  0  0  0
 11 13  1  0  0  0  0
 12 11  1  0  0  0  0
 13 15  2  0  0  0  0
 13 14  1  0  0  0  0
 15  3  1  0  0  0  0
 16 25  1  0  0  0  0
 17 16  2  0  0  0  0
 17 19  1  0  0  0  0
 18 17  1  0  0  0  0
 19 21  2  0  0  0  0
 20 19  1  0  0  0  0
 21 23  1  0  0  0  0
 21 22  1  0  0  0  0
 23 24  1  0  0  0  0
 25 26  1  0  0  0  0
 25 23  2  0  0  0  0
 27 40  1  0  0  0  0
 28 29  1  0  0  0  0
 28 41  1  0  0  0  0
 30 32  1  0  0  0  0
 30  1  1  0  0  0  0
 31 30  1  0  0  0  0
 33 30  1  1  0  0  0
 33 27  1  0  0  0  0
 34 33  1  0  0  0  0
 34 36  2  0  0  0  0
 35 34  1  0  0  0  0
 36 38  1  0  0  0  0
 37 36  1  0  0  0  0
 38 40  2  0  0  0  0
 38 39  1  0  0  0  0
 40 28  1  0  0  0  0
 41 50  1  0  0  0  0
 42 41  2  0  0  0  0
 42 44  1  0  0  0  0
 43 42  1  0  0  0  0
 44 46  2  0  0  0  0
 45 44  1  0  0  0  0
 46 48  1  0  0  0  0
 46 47  1  0  0  0  0
 48 49  1  0  0  0  0
 50 51  1  0  0  0  0
 50 48  2  0  0  0  0
 52 65  1  0  0  0  0
 53 54  1  0  0  0  0
 53 66  1  0  0  0  0
 55 57  1  0  0  0  0
 55  1  1  0  0  0  0
 56 55  1  0  0  0  0
 58 55  1  1  0  0  0
 58 52  1  0  0  0  0
 59 58  1  0  0  0  0
 59 61  2  0  0  0  0
 60 59  1  0  0  0  0
 61 63  1  0  0  0  0
 62 61  1  0  0  0  0
 63 65  2  0  0  0  0
 63 64  1  0  0  0  0
 65 53  1  0  0  0  0
 66 75  1  0  0  0  0
 67 66  2  0  0  0  0
 67 69  1  0  0  0  0
 68 67  1  0  0  0  0
 69 71  2  0  0  0  0
 70 69  1  0  0  0  0
 71 73  1  0  0  0  0
 71 72  1  0  0  0  0
 73 74  1  0  0  0  0
 75 76  1  0  0  0  0
 75 73  2  0  0  0  0
M  END
