3,4,5,6
 OpenBabel05122313063D

 58 62  0  0  0  0  0  0  0  0999 V2000
    1.3364   -4.1499    1.2953 O   0  0  0  0  0  0  0  0  0  0  0  0
   -1.4077   -4.2407    0.9072 O   0  0  0  0  0  0  0  0  0  0  0  0
    1.3165   -2.0304    0.2796 N   0  0  0  0  0  2  0  0  0  0  0  0
   -1.2679   -2.0427    0.1061 N   0  0  0  0  0  2  0  0  0  0  0  0
   -1.2972    0.6373    0.3149 N   0  0  0  0  0  2  0  0  0  0  0  0
    1.2675    0.7071    0.1374 N   0  0  0  0  0  2  0  0  0  0  0  0
    0.7534   -3.1932    0.7993 C   0  0  0  0  0  0  0  0  0  0  0  0
   -0.7767   -3.2282    0.6282 C   0  0  0  0  0  0  0  0  0  0  0  0
   -2.5510   -1.9224   -0.3918 C   0  0  0  0  0  0  0  0  0  0  0  0
   -3.2896   -3.0625   -0.8286 C   0  0  0  0  0  0  0  0  0  0  0  0
   -2.8352   -4.0512   -0.7089 H   0  0  0  0  0  0  0  0  0  0  0  0
   -4.5602   -2.9373   -1.3832 C   0  0  0  0  0  0  0  0  0  0  0  0
   -5.0827   -3.8446   -1.7240 H   0  0  0  0  0  0  0  0  0  0  0  0
   -5.1777   -1.6762   -1.5148 C   0  0  0  0  0  0  0  0  0  0  0  0
   -6.1798   -1.5820   -1.9575 H   0  0  0  0  0  0  0  0  0  0  0  0
   -4.4961   -0.5503   -1.0692 C   0  0  0  0  0  3  0  0  0  0  0  0
   -4.9638    0.4401   -1.1576 H   0  0  0  0  0  0  0  0  0  0  0  0
   -3.1921   -0.6369   -0.5047 C   0  0  0  0  0  0  0  0  0  0  0  0
   -2.5732    0.5768   -0.0013 C   0  0  0  0  0  0  0  0  0  0  0  0
   -0.7035    1.8144    0.9484 C   0  0  0  0  0  0  0  0  0  0  0  0
   -0.5519    1.5891    2.0271 H   0  0  0  0  0  0  0  0  0  0  0  0
   -1.3460    2.7133    0.8774 H   0  0  0  0  0  0  0  0  0  0  0  0
    0.6360    2.0298    0.2727 C   0  0  0  0  0  0  0  0  0  0  0  0
    0.4820    2.4710   -0.7366 H   0  0  0  0  0  0  0  0  0  0  0  0
    1.2717    2.7344    0.8449 H   0  0  0  0  0  0  0  0  0  0  0  0
    2.5699    0.6262   -0.0584 C   0  0  0  0  0  0  0  0  0  0  0  0
    3.2877   -0.6276   -0.1902 C   0  0  0  0  0  0  0  0  0  0  0  0
    4.6734   -0.5666   -0.5213 C   0  0  0  0  0  3  0  0  0  0  0  0
    5.1244    0.4183   -0.7024 H   0  0  0  0  0  0  0  0  0  0  0  0
    5.4586   -1.7065   -0.6296 C   0  0  0  0  0  0  0  0  0  0  0  0
    6.5232   -1.6267   -0.8929 H   0  0  0  0  0  0  0  0  0  0  0  0
    4.8604   -2.9612   -0.3948 C   0  0  0  0  0  0  0  0  0  0  0  0
    5.4592   -3.8819   -0.4729 H   0  0  0  0  0  0  0  0  0  0  0  0
    3.5124   -3.0642   -0.0673 C   0  0  0  0  0  0  0  0  0  0  0  0
    3.0709   -4.0443    0.1364 H   0  0  0  0  0  0  0  0  0  0  0  0
    2.6700   -1.9139    0.0274 C   0  0  0  0  0  0  0  0  0  0  0  0
   -3.4401    1.7875    0.1803 C   0  0  0  0  0  0  0  0  0  0  0  0
   -4.3342    1.8630    1.2666 C   0  0  0  0  0  0  0  0  0  0  0  0
   -4.3989    1.0203    1.9713 H   0  0  0  0  0  0  0  0  0  0  0  0
   -5.1362    3.0002    1.4425 C   0  0  0  0  0  0  0  0  0  0  0  0
   -5.8286    3.0524    2.2963 H   0  0  0  0  0  0  0  0  0  0  0  0
   -5.0615    4.0651    0.5304 C   0  0  0  0  0  0  0  0  0  0  0  0
   -5.6956    4.9540    0.6671 H   0  0  0  0  0  0  0  0  0  0  0  0
   -4.1807    3.9906   -0.5604 C   0  0  0  0  0  0  0  0  0  0  0  0
   -4.1253    4.8185   -1.2834 H   0  0  0  0  0  0  0  0  0  0  0  0
   -3.3708    2.8583   -0.7347 C   0  0  0  0  0  0  0  0  0  0  0  0
   -2.6832    2.7927   -1.5920 H   0  0  0  0  0  0  0  0  0  0  0  0
    3.3545    1.9036   -0.1495 C   0  0  0  0  0  0  0  0  0  0  0  0
    3.3623    2.6475   -1.3462 C   0  0  0  0  0  0  0  0  0  0  0  0
    2.8135    2.2692   -2.2223 H   0  0  0  0  0  0  0  0  0  0  0  0
    4.0779    3.8517   -1.4253 C   0  0  0  0  0  0  0  0  0  0  0  0
    4.0857    4.4214   -2.3668 H   0  0  0  0  0  0  0  0  0  0  0  0
    4.7851    4.3261   -0.3091 C   0  0  0  0  0  0  0  0  0  0  0  0
    5.3451    5.2713   -0.3719 H   0  0  0  0  0  0  0  0  0  0  0  0
    4.7818    3.5880    0.8854 C   0  0  0  0  0  0  0  0  0  0  0  0
    5.3400    3.9523    1.7611 H   0  0  0  0  0  0  0  0  0  0  0  0
    4.0737    2.3796    0.9655 C   0  0  0  0  0  0  0  0  0  0  0  0
    4.0787    1.7909    1.8954 H   0  0  0  0  0  0  0  0  0  0  0  0
  3  7  1  0  0  0  0
  4  8  1  0  0  0  0
  5 20  1  0  0  0  0
  6 23  1  0  0  0  0
  7  1  2  0  0  0  0
  8  7  1  0  0  0  0
  8  2  2  0  0  0  0
  9  4  1  0  0  0  0
 10 11  1  0  0  0  0
 10  9  2  0  0  0  0
 12 10  1  0  0  0  0
 13 12  1  0  0  0  0
 14 12  2  0  0  0  0
 14 16  1  0  0  0  0
 15 14  1  0  0  0  0
 16 18  1  0  0  0  0
 17 16  1  0  0  0  0
 18  9  1  0  0  0  0
 18 19  2  0  0  0  0
 19 37  1  0  0  0  0
 19  5  1  0  0  0  0
 20 21  1  0  0  0  0
 22 20  1  0  0  0  0
 23 25  1  0  0  0  0
 23 20  1  0  0  0  0
 24 23  1  0  0  0  0
 26  6  1  0  0  0  0
 27 26  2  0  0  0  0
 27 36  1  0  0  0  0
 28 27  1  0  0  0  0
 29 28  1  0  0  0  0
 30 28  1  0  0  0  0
 30 32  2  0  0  0  0
 31 30  1  0  0  0  0
 32 34  1  0  0  0  0
 33 32  1  0  0  0  0
 34 36  2  0  0  0  0
 34 35  1  0  0  0  0
 36  3  1  0  0  0  0
 37 38  1  0  0  0  0
 38 40  2  0  0  0  0
 38 39  1  0  0  0  0
 40 41  1  0  0  0  0
 42 43  1  0  0  0  0
 42 40  1  0  0  0  0
 44 42  2  0  0  0  0
 45 44  1  0  0  0  0
 46 44  1  0  0  0  0
 46 37  2  0  0  0  0
 47 46  1  0  0  0  0
 48 26  1  0  0  0  0
 48 57  1  0  0  0  0
 49 48  2  0  0  0  0
 50 49  1  0  0  0  0
 51 49  1  0  0  0  0
 51 53  2  0  0  0  0
 52 51  1  0  0  0  0
 53 55  1  0  0  0  0
 54 53  1  0  0  0  0
 55 57  2  0  0  0  0
 55 56  1  0  0  0  0
 57 58  1  0  0  0  0
M  END
