1,2,6,12
 OpenBabel05122313063D

 42 44  0  0  1  0  0  0  0  0999 V2000
    2.1410   -1.5064   -0.0363 N   0  0  0  0  0  2  0  0  0  0  0  0
   -2.6557   -0.6377    0.1452 N   0  0  0  0  0  2  0  0  0  0  0  0
   -3.3895   -1.7498    0.2534 C   0  0  0  0  0  3  0  0  0  0  0  0
   -2.8127   -2.6918    0.2541 H   0  0  0  0  0  0  0  0  0  0  0  0
   -3.2616    0.5662    0.1169 C   0  0  0  0  0  0  0  0  0  0  0  0
    1.4705    1.0428   -0.8198 N   0  0  0  0  0  2  0  0  0  0  0  0
    2.4505   -2.7587    0.3138 C   0  0  0  0  0  3  0  0  0  0  0  0
    1.5877   -3.4239    0.4909 H   0  0  0  0  0  0  0  0  0  0  0  0
    3.1196   -0.6194   -0.3079 C   0  0  0  0  0  0  0  0  0  0  0  0
   -4.7939   -1.7129    0.3442 C   0  0  0  0  0  0  0  0  0  0  0  0
   -5.3649   -2.6483    0.4359 H   0  0  0  0  0  0  0  0  0  0  0  0
   -1.1225    1.6299   -0.1001 N   0  0  0  0  0  2  0  0  0  0  0  0
    4.4798   -0.9725   -0.2181 C   0  0  0  0  0  0  0  0  0  0  0  0
    5.2580   -0.2265   -0.4402 H   0  0  0  0  0  0  0  0  0  0  0  0
   -4.6612    0.6945    0.2012 C   0  0  0  0  0  0  0  0  0  0  0  0
   -5.1265    1.6918    0.1761 H   0  0  0  0  0  0  0  0  0  0  0  0
    3.7834   -3.1953    0.4237 C   0  0  0  0  0  0  0  0  0  0  0  0
    4.0020   -4.2328    0.7152 H   0  0  0  0  0  0  0  0  0  0  0  0
   -5.4371   -0.4680    0.3173 C   0  0  0  0  0  0  0  0  0  0  0  0
   -6.5334   -0.4009    0.3865 H   0  0  0  0  0  0  0  0  0  0  0  0
    4.8128   -2.2818    0.1563 C   0  0  0  0  0  0  0  0  0  0  0  0
    5.8674   -2.5863    0.2364 H   0  0  0  0  0  0  0  0  0  0  0  0
   -2.3908    1.7605    0.0086 C   0  0  0  0  0  3  0  0  0  0  0  0
   -2.9063    2.7454    0.0513 H   0  0  0  0  0  0  0  0  0  0  0  0
    2.7094    0.7478   -0.6968 C   0  0  0  0  0  3  0  0  0  0  0  0
    3.5349    1.4766   -0.8468 H   0  0  0  0  0  0  0  0  0  0  0  0
    0.9752    2.3662   -1.1334 C   0  0  1  0  0  0  0  0  0  0  0  0
    0.4915    2.2750   -2.1361 H   0  0  0  0  0  0  0  0  0  0  0  0
   -0.1750    2.7209   -0.1301 C   0  0  1  0  0  0  0  0  0  0  0  0
    0.3084    2.6776    0.8773 H   0  0  0  0  0  0  0  0  0  0  0  0
    2.0225    3.4867   -1.1798 C   0  0  0  0  0  0  0  0  0  0  0  0
    2.7927    3.2439   -1.9418 H   0  0  0  0  0  0  0  0  0  0  0  0
    2.5404    3.5221   -0.1956 H   0  0  0  0  0  0  0  0  0  0  0  0
   -0.7596    4.1111   -0.4040 C   0  0  0  0  0  0  0  0  0  0  0  0
   -1.3071    4.0897   -1.3741 H   0  0  0  0  0  0  0  0  0  0  0  0
   -1.5078    4.3583    0.3781 H   0  0  0  0  0  0  0  0  0  0  0  0
    0.3204    5.1964   -0.4477 C   0  0  0  0  0  0  0  0  0  0  0  0
   -0.1391    6.1812   -0.6722 H   0  0  0  0  0  0  0  0  0  0  0  0
    0.7884    5.2876    0.5572 H   0  0  0  0  0  0  0  0  0  0  0  0
    1.3993    4.8536   -1.4778 C   0  0  0  0  0  0  0  0  0  0  0  0
    2.1878    5.6342   -1.4941 H   0  0  0  0  0  0  0  0  0  0  0  0
    0.9487    4.8425   -2.4955 H   0  0  0  0  0  0  0  0  0  0  0  0
  1  7  1  0  0  0  0
  2  3  1  0  0  0  0
  3  4  1  0  0  0  0
  3 10  1  0  0  0  0
  5  2  1  0  0  0  0
  5 15  2  0  0  0  0
  6 25  1  0  0  0  0
  7 17  1  0  0  0  0
  7  8  1  0  0  0  0
  9 13  2  0  0  0  0
  9  1  1  0  0  0  0
 10 11  1  0  0  0  0
 12 23  1  0  0  0  0
 13 21  1  0  0  0  0
 14 13  1  0  0  0  0
 15 19  1  0  0  0  0
 16 15  1  0  0  0  0
 17 18  1  0  0  0  0
 19 10  2  0  0  0  0
 19 20  1  0  0  0  0
 21 22  1  0  0  0  0
 21 17  2  0  0  0  0
 23 24  1  0  0  0  0
 23  5  1  0  0  0  0
 25  9  1  0  0  0  0
 26 25  1  0  0  0  0
 27 28  1  6  0  0  0
 27  6  1  0  0  0  0
 27 29  1  0  0  0  0
 29 12  1  0  0  0  0
 29 30  1  1  0  0  0
 31 27  1  0  0  0  0
 31 33  1  0  0  0  0
 32 31  1  0  0  0  0
 34 29  1  0  0  0  0
 34 36  1  0  0  0  0
 35 34  1  0  0  0  0
 37 34  1  0  0  0  0
 37 39  1  0  0  0  0
 38 37  1  0  0  0  0
 40 31  1  0  0  0  0
 40 37  1  0  0  0  0
 41 40  1  0  0  0  0
 42 40  1  0  0  0  0
M  END
