1,9,13,20
q = 0.0, confidence = 0.98

 62 62  0  0  0  0  0  0  0  0999 V2000
    0.0003   -2.3027   -1.4015 N   0  0  0  0  0  0  0  0  0  0  0  0
    0.0004   -1.6110   -2.1872 H   0  0  0  0  0  0  0  0  0  0  0  0
    6.4759    3.7958    0.3531 O   0  0  0  0  0  0  0  0  0  0  0  0
    1.2810   -3.0190   -1.4105 C   0  0  0  0  0  0  0  0  0  0  0  0
    1.4469   -3.5648   -2.3647 H   0  0  0  0  0  0  0  0  0  0  0  0
    1.2857   -3.7816   -0.6023 H   0  0  0  0  0  0  0  0  0  0  0  0
    8.3912    2.8111   -0.3470 O   0  0  0  0  0  0  0  0  0  0  0  0
    8.7127    3.7226   -0.1704 H   0  0  0  0  0  0  0  0  0  0  0  0
    2.0514   -1.1534    0.0255 N   0  0  0  0  0  0  0  0  0  0  0  0
    2.3502   -1.9519   -1.2051 C   0  0  0  0  0  0  0  0  0  0  0  0
    3.3642   -2.4002   -1.1542 H   0  0  0  0  0  0  0  0  0  0  0  0
    2.3303   -1.2449   -2.0585 H   0  0  0  0  0  0  0  0  0  0  0  0
   -0.0003   -2.1144    1.5504 N   0  0  0  0  0  0  0  0  0  0  0  0
   -0.0002   -3.0954    1.2263 H   0  0  0  0  0  0  0  0  0  0  0  0
   -8.3902    2.8124   -0.3513 O   0  0  0  0  0  0  0  0  0  0  0  0
   -8.7123    3.7231   -0.1714 H   0  0  0  0  0  0  0  0  0  0  0  0
    2.3809   -1.9562    1.2607 C   0  0  0  0  0  0  0  0  0  0  0  0
    2.5370   -3.0139    0.9657 H   0  0  0  0  0  0  0  0  0  0  0  0
    3.3399   -1.6112    1.6937 H   0  0  0  0  0  0  0  0  0  0  0  0
   -2.0513   -1.1533    0.0247 N   0  0  0  0  0  0  0  0  0  0  0  0
    1.2621   -1.8629    2.2822 C   0  0  0  0  0  0  0  0  0  0  0  0
    1.4080   -2.5908    3.1095 H   0  0  0  0  0  0  0  0  0  0  0  0
    1.1890   -0.8410    2.7011 H   0  0  0  0  0  0  0  0  0  0  0  0
   -6.4777    3.7931    0.3622 O   0  0  0  0  0  0  0  0  0  0  0  0
   -1.2629   -1.8629    2.2817 C   0  0  0  0  0  0  0  0  0  0  0  0
   -1.1900   -0.8410    2.7006 H   0  0  0  0  0  0  0  0  0  0  0  0
   -1.4092   -2.5908    3.1090 H   0  0  0  0  0  0  0  0  0  0  0  0
   -2.3814   -1.9561    1.2597 C   0  0  0  0  0  0  0  0  0  0  0  0
   -3.3405   -1.6112    1.6924 H   0  0  0  0  0  0  0  0  0  0  0  0
   -2.5373   -3.0139    0.9646 H   0  0  0  0  0  0  0  0  0  0  0  0
   -1.2805   -3.0189   -1.4110 C   0  0  0  0  0  0  0  0  0  0  0  0
   -1.2856   -3.7816   -0.6029 H   0  0  0  0  0  0  0  0  0  0  0  0
   -1.4461   -3.5646   -2.3654 H   0  0  0  0  0  0  0  0  0  0  0  0
   -2.3497   -1.9517   -1.2060 C   0  0  0  0  0  0  0  0  0  0  0  0
   -2.3295   -1.2447   -2.0594 H   0  0  0  0  0  0  0  0  0  0  0  0
   -3.3637   -2.4000   -1.1555 H   0  0  0  0  0  0  0  0  0  0  0  0
    2.7937    0.1535    0.0127 C   0  0  0  0  0  0  0  0  0  0  0  0
    2.5431    0.6609    0.9631 H   0  0  0  0  0  0  0  0  0  0  0  0
    2.3310    0.7627   -0.7878 H   0  0  0  0  0  0  0  0  0  0  0  0
    4.3081    0.0637   -0.1819 C   0  0  0  0  0  0  0  0  0  0  0  0
    4.7717   -0.6283    0.5571 H   0  0  0  0  0  0  0  0  0  0  0  0
    4.5528   -0.3465   -1.1856 H   0  0  0  0  0  0  0  0  0  0  0  0
    4.9431    1.4508   -0.0348 C   0  0  0  0  0  0  0  0  0  0  0  0
    4.4667    2.1613   -0.7428 H   0  0  0  0  0  0  0  0  0  0  0  0
    4.7311    1.8628    0.9738 H   0  0  0  0  0  0  0  0  0  0  0  0
    6.4513    1.4463   -0.2648 C   0  0  0  0  0  0  0  0  0  0  0  0
    6.9668    0.7340    0.4168 H   0  0  0  0  0  0  0  0  0  0  0  0
    6.7149    1.1070   -1.2897 H   0  0  0  0  0  0  0  0  0  0  0  0
    7.0719    2.8149   -0.0465 C   0  0  0  0  0  0  0  0  0  0  0  0
   -2.7936    0.1536    0.0118 C   0  0  0  0  0  0  0  0  0  0  0  0
   -2.3305    0.7629   -0.7884 H   0  0  0  0  0  0  0  0  0  0  0  0
   -2.5434    0.6609    0.9623 H   0  0  0  0  0  0  0  0  0  0  0  0
   -4.3079    0.0639   -0.1836 C   0  0  0  0  0  0  0  0  0  0  0  0
   -4.7718   -0.6285    0.5548 H   0  0  0  0  0  0  0  0  0  0  0  0
   -4.5521   -0.3458   -1.1876 H   0  0  0  0  0  0  0  0  0  0  0  0
   -4.9430    1.4508   -0.0360 C   0  0  0  0  0  0  0  0  0  0  0  0
   -4.7318    1.8623    0.9731 H   0  0  0  0  0  0  0  0  0  0  0  0
   -4.4661    2.1618   -0.7432 H   0  0  0  0  0  0  0  0  0  0  0  0
   -6.4511    1.4466   -0.2669 C   0  0  0  0  0  0  0  0  0  0  0  0
   -6.7142    1.1097   -1.2926 H   0  0  0  0  0  0  0  0  0  0  0  0
   -6.9666    0.7325    0.4130 H   0  0  0  0  0  0  0  0  0  0  0  0
   -7.0722    2.8143   -0.0450 C   0  0  0  0  0  0  0  0  0  0  0  0
  2  1  1  0  0  0  0
  4  1  1  0  0  0  0
  4 10  1  0  0  0  0
  4  6  1  0  0  0  0
  5  4  1  0  0  0  0
  7  8  1  0  0  0  0
  7 49  1  0  0  0  0
  9 17  1  0  0  0  0
 10 11  1  0  0  0  0
 10  9  1  0  0  0  0
 12 10  1  0  0  0  0
 13 25  1  0  0  0  0
 13 21  1  0  0  0  0
 14 13  1  0  0  0  0
 15 16  1  0  0  0  0
 15 62  1  0  0  0  0
 17 19  1  0  0  0  0
 17 21  1  0  0  0  0
 18 17  1  0  0  0  0
 20 28  1  0  0  0  0
 21 23  1  0  0  0  0
 21 22  1  0  0  0  0
 25 26  1  0  0  0  0
 25 27  1  0  0  0  0
 28 29  1  0  0  0  0
 28 25  1  0  0  0  0
 30 28  1  0  0  0  0
 31  1  1  0  0  0  0
 31 34  1  0  0  0  0
 31 32  1  0  0  0  0
 33 31  1  0  0  0  0
 34 36  1  0  0  0  0
 34 20  1  0  0  0  0
 35 34  1  0  0  0  0
 37  9  1  0  0  0  0
 37 38  1  0  0  0  0
 39 37  1  0  0  0  0
 40 43  1  0  0  0  0
 40 37  1  0  0  0  0
 40 41  1  0  0  0  0
 42 40  1  0  0  0  0
 43 45  1  0  0  0  0
 44 43  1  0  0  0  0
 46 49  1  0  0  0  0
 46 43  1  0  0  0  0
 46 47  1  0  0  0  0
 48 46  1  0  0  0  0
 49  3  2  0  0  0  0
 50 20  1  0  0  0  0
 50 52  1  0  0  0  0
 51 50  1  0  0  0  0
 53 56  1  0  0  0  0
 53 50  1  0  0  0  0
 53 54  1  0  0  0  0
 55 53  1  0  0  0  0
 56 57  1  0  0  0  0
 58 56  1  0  0  0  0
 59 62  1  0  0  0  0
 59 56  1  0  0  0  0
 59 61  1  0  0  0  0
 60 59  1  0  0  0  0
 62 24  2  0  0  0  0
M  END
