1,2,3,4
 OpenBabel05122313063D

 74 81  0  0  0  0  0  0  0  0999 V2000
   -1.4193    0.9425    0.0979 N   0  0  0  0  0  0  0  0  0  0  0  0
    1.3682   -1.7481    0.3169 N   0  0  0  0  0  2  0  0  0  0  0  0
    1.3199    0.9909    0.1420 N   0  0  0  0  0  0  0  0  0  0  0  0
   -1.3731   -1.7742    0.3614 N   0  0  0  0  0  0  0  0  0  0  0  0
   -0.0468   -4.9404    1.6811 N   0  0  0  0  0  0  0  0  0  0  0  0
    0.9031   -5.5410    2.1831 N   0  0  0  0  0  4  0  0  0  0  0  0
    2.6725   -1.6152   -0.1394 C   0  0  0  0  0  0  0  0  0  0  0  0
    3.3186   -0.3896   -0.3764 C   0  0  0  0  0  0  0  0  0  0  0  0
    3.3316   -2.8978   -0.1424 C   0  0  0  0  0  0  0  0  0  0  0  0
    4.3458   -3.0837   -0.5086 H   0  0  0  0  0  0  0  0  0  0  0  0
    1.6695   -6.2388    2.6896 N   0  0  0  0  0  2  0  0  0  0  0  0
   -6.5083   -1.5010   -2.2845 C   0  0  0  0  0  0  0  0  0  0  0  0
   -6.7641   -2.1122   -3.1648 H   0  0  0  0  0  0  0  0  0  0  0  0
   -2.7341    0.7422   -0.3039 C   0  0  0  0  0  0  0  0  0  0  0  0
    0.4414    5.3993   -0.0311 C   0  0  0  0  0  0  0  0  0  0  0  0
    0.9576    5.0522   -0.9385 H   0  0  0  0  0  0  0  0  0  0  0  0
   -0.1488    4.4486    0.8307 C   0  0  0  0  0  0  0  0  0  0  0  0
    7.1097   -0.8532   -0.4076 C   0  0  0  0  0  0  0  0  0  0  0  0
    7.8906   -1.2870    0.2373 H   0  0  0  0  0  0  0  0  0  0  0  0
   -4.8041   -0.6019   -0.7778 C   0  0  0  0  0  0  0  0  0  0  0  0
   -5.1677   -1.3819   -1.8967 C   0  0  0  0  0  0  0  0  0  0  0  0
   -4.3804   -1.8956   -2.4688 H   0  0  0  0  0  0  0  0  0  0  0  0
   -2.5148    2.9828   -0.0843 C   0  0  0  0  0  0  0  0  0  0  0  0
   -2.6558    4.0684   -0.0662 H   0  0  0  0  0  0  0  0  0  0  0  0
    5.7708   -0.9175   -0.0019 C   0  0  0  0  0  0  0  0  0  0  0  0
    5.5102   -1.3853    0.9592 H   0  0  0  0  0  0  0  0  0  0  0  0
   -2.4707   -3.7354    0.9629 C   0  0  0  0  0  0  0  0  0  0  0  0
   -2.5966   -4.7504    1.3527 H   0  0  0  0  0  0  0  0  0  0  0  0
    2.4565   -3.7993    0.4144 C   0  0  0  0  0  0  0  0  0  0  0  0
    2.6289   -4.8685    0.5706 H   0  0  0  0  0  0  0  0  0  0  0  0
    4.7465   -0.3572   -0.7962 C   0  0  0  0  0  0  0  0  0  0  0  0
   -7.5370   -0.8530   -1.5704 C   0  0  0  0  0  0  0  0  0  0  0  0
   -0.8421    4.9097    1.9716 C   0  0  0  0  0  0  0  0  0  0  0  0
   -1.3075    4.1746    2.6454 H   0  0  0  0  0  0  0  0  0  0  0  0
   -3.3756   -0.5044   -0.3687 C   0  0  0  0  0  0  0  0  0  0  0  0
    2.6719    0.8281   -0.1081 C   0  0  0  0  0  0  0  0  0  0  0  0
    0.3508    6.7707    0.2478 C   0  0  0  0  0  0  0  0  0  0  0  0
    0.8103    7.4981   -0.4388 H   0  0  0  0  0  0  0  0  0  0  0  0
   -0.3321    7.2160    1.3909 C   0  0  0  0  0  0  0  0  0  0  0  0
   -0.4020    8.2925    1.6092 H   0  0  0  0  0  0  0  0  0  0  0  0
   -3.4016    2.0130   -0.4762 C   0  0  0  0  0  0  0  0  0  0  0  0
   -4.4277    2.1373   -0.8356 H   0  0  0  0  0  0  0  0  0  0  0  0
   -1.2796    2.3102    0.2506 C   0  0  0  0  0  3  0  0  0  0  0  0
    1.2391   -3.0762    0.6836 C   0  0  0  0  0  0  0  0  0  0  0  0
   -0.9301    6.2811    2.2507 C   0  0  0  0  0  0  0  0  0  0  0  0
   -1.4678    6.6217    3.1487 H   0  0  0  0  0  0  0  0  0  0  0  0
   -2.7220   -1.6713    0.0645 C   0  0  0  0  0  0  0  0  0  0  0  0
    2.4369    3.0027    0.4718 C   0  0  0  0  0  0  0  0  0  0  0  0
    2.5912    4.0527    0.7389 H   0  0  0  0  0  0  0  0  0  0  0  0
    5.1153    0.2802   -2.0006 C   0  0  0  0  0  0  0  0  0  0  0  0
    4.3315    0.7301   -2.6284 H   0  0  0  0  0  0  0  0  0  0  0  0
   -3.4069   -2.8960    0.4114 C   0  0  0  0  0  0  0  0  0  0  0  0
   -4.4802   -3.0664    0.2784 H   0  0  0  0  0  0  0  0  0  0  0  0
   -0.0835    2.9880    0.5439 C   0  0  0  0  0  0  0  0  0  0  0  0
    3.3715    2.0795    0.0789 C   0  0  0  0  0  0  0  0  0  0  0  0
    4.4529    2.2090   -0.0324 H   0  0  0  0  0  0  0  0  0  0  0  0
    1.1547    2.3341    0.4482 C   0  0  0  0  0  0  0  0  0  0  0  0
   -5.8323    0.0383   -0.0529 C   0  0  0  0  0  0  0  0  0  0  0  0
   -5.5744    0.6211    0.8440 H   0  0  0  0  0  0  0  0  0  0  0  0
    6.4560    0.3379   -2.4023 C   0  0  0  0  0  0  0  0  0  0  0  0
    6.7155    0.8367   -3.3497 H   0  0  0  0  0  0  0  0  0  0  0  0
    0.0318   -3.6541    1.1270 C   0  0  0  0  0  0  0  0  0  0  0  0
   -7.1715   -0.0875   -0.4442 C   0  0  0  0  0  0  0  0  0  0  0  0
   -7.9559    0.4124    0.1462 H   0  0  0  0  0  0  0  0  0  0  0  0
   -1.2103   -3.0424    0.8846 C   0  0  0  0  0  0  0  0  0  0  0  0
    7.4798   -0.2313   -1.6181 C   0  0  0  0  0  0  0  0  0  0  0  0
   -8.9755   -0.9560   -2.0097 C   0  0  0  0  0  0  0  0  0  0  0  0
   -9.2296   -0.1491   -2.7308 H   0  0  0  0  0  0  0  0  0  0  0  0
   -9.6725   -0.8581   -1.1541 H   0  0  0  0  0  0  0  0  0  0  0  0
   -9.1808   -1.9199   -2.5159 H   0  0  0  0  0  0  0  0  0  0  0  0
    8.9185   -0.1976   -2.0673 C   0  0  0  0  0  0  0  0  0  0  0  0
    9.1190    0.6634   -2.7347 H   0  0  0  0  0  0  0  0  0  0  0  0
    9.1798   -1.1178   -2.6335 H   0  0  0  0  0  0  0  0  0  0  0  0
    9.6142   -0.1391   -1.2067 H   0  0  0  0  0  0  0  0  0  0  0  0
  1 43  1  0  0  0  0
  2 44  1  0  0  0  0
  3 57  1  0  0  0  0
  4 65  2  0  0  0  0
  5  6  2  0  0  0  0
  6 11  2  0  0  0  0
  7  2  1  0  0  0  0
  8  7  2  0  0  0  0
  8 36  1  0  0  0  0
  9  7  1  0  0  0  0
  9 29  2  0  0  0  0
 10  9  1  0  0  0  0
 12 21  2  0  0  0  0
 12 32  1  0  0  0  0
 13 12  1  0  0  0  0
 14  1  2  0  0  0  0
 15 37  2  0  0  0  0
 15 17  1  0  0  0  0
 16 15  1  0  0  0  0
 17 33  2  0  0  0  0
 18 25  1  0  0  0  0
 18 19  1  0  0  0  0
 20 35  1  0  0  0  0
 20 58  2  0  0  0  0
 21 20  1  0  0  0  0
 22 21  1  0  0  0  0
 23 24  1  0  0  0  0
 23 43  1  0  0  0  0
 25 26  1  0  0  0  0
 27 28  1  0  0  0  0
 29 30  1  0  0  0  0
 29 44  1  0  0  0  0
 31  8  1  0  0  0  0
 31 25  2  0  0  0  0
 32 63  2  0  0  0  0
 33 45  1  0  0  0  0
 33 34  1  0  0  0  0
 35 14  1  0  0  0  0
 35 47  2  0  0  0  0
 36 55  1  0  0  0  0
 36  3  2  0  0  0  0
 37 39  1  0  0  0  0
 38 37  1  0  0  0  0
 39 40  1  0  0  0  0
 39 45  2  0  0  0  0
 41 14  1  0  0  0  0
 41 23  2  0  0  0  0
 42 41  1  0  0  0  0
 43 54  1  0  0  0  0
 44 62  2  0  0  0  0
 45 46  1  0  0  0  0
 47  4  1  0  0  0  0
 47 52  1  0  0  0  0
 48 49  1  0  0  0  0
 50 31  1  0  0  0  0
 51 50  1  0  0  0  0
 52 27  2  0  0  0  0
 53 52  1  0  0  0  0
 54 17  1  0  0  0  0
 55 48  2  0  0  0  0
 56 55  1  0  0  0  0
 57 48  1  0  0  0  0
 57 54  2  0  0  0  0
 58 59  1  0  0  0  0
 60 50  2  0  0  0  0
 60 66  1  0  0  0  0
 61 60  1  0  0  0  0
 62  5  1  0  0  0  0
 63 58  1  0  0  0  0
 63 64  1  0  0  0  0
 65 27  1  0  0  0  0
 65 62  1  0  0  0  0
 66 18  2  0  0  0  0
 67 32  1  0  0  0  0
 67 69  1  0  0  0  0
 68 67  1  0  0  0  0
 70 67  1  0  0  0  0
 71 66  1  0  0  0  0
 71 74  1  0  0  0  0
 72 71  1  0  0  0  0
 73 71  1  0  0  0  0
M  END
