1,2,3,4
 OpenBabel05122313063D

 72 79  0  0  1  0  0  0  0  0999 V2000
   -2.2058   -0.3464    1.9573 N   0  0  0  0  0  2  0  0  0  0  0  0
    0.0444   -1.3064    0.9291 N   0  0  0  0  0  2  0  0  0  0  0  0
   -2.6036    1.5775   -0.5568 N   0  0  0  0  0  2  0  0  0  0  0  0
    0.0767    1.8544   -0.2128 N   0  0  0  0  0  2  0  0  0  0  0  0
   -3.2441    0.2791    2.5326 C   0  0  0  0  0  3  0  0  0  0  0  0
   -3.4779    1.2865    2.1520 H   0  0  0  0  0  0  0  0  0  0  0  0
   -4.0033   -0.3075    3.5527 C   0  0  0  0  0  0  0  0  0  0  0  0
   -4.8457    0.2380    4.0001 H   0  0  0  0  0  0  0  0  0  0  0  0
   -3.6595   -1.6003    3.9744 C   0  0  0  0  0  0  0  0  0  0  0  0
   -4.2317   -2.1002    4.7698 H   0  0  0  0  0  0  0  0  0  0  0  0
   -2.5733   -2.2502    3.3759 C   0  0  0  0  0  0  0  0  0  0  0  0
   -2.2799   -3.2558    3.7050 H   0  0  0  0  0  0  0  0  0  0  0  0
   -1.8552   -1.5934    2.3603 C   0  0  0  0  0  0  0  0  0  0  0  0
   -0.6658   -2.1771    1.6878 C   0  0  2  0  0  3  0  0  0  0  0  0
   -0.2499   -3.5103    1.8144 C   0  0  0  0  0  0  0  0  0  0  0  0
   -0.8296   -4.2290    2.4084 H   0  0  0  0  0  0  0  0  0  0  0  0
    0.9118   -3.9230    1.1449 C   0  0  0  0  0  0  0  0  0  0  0  0
    1.2435   -4.9702    1.2115 H   0  0  0  0  0  0  0  0  0  0  0  0
    1.6669   -3.0002    0.4080 C   0  0  0  0  0  0  0  0  0  0  0  0
    2.9694   -3.2839   -0.2779 C   0  0  1  0  0  0  0  0  0  0  0  0
    3.2806   -4.3429   -0.1863 H   0  0  0  0  0  0  0  0  0  0  0  0
    2.9723   -2.6119   -1.7091 C   0  0  0  0  0  0  0  0  0  0  0  0
    3.2803   -1.2731   -0.9320 C   0  0  1  0  0  0  0  0  0  0  0  0
    3.9211   -0.5481   -1.4665 H   0  0  0  0  0  0  0  0  0  0  0  0
    1.9813   -0.6085   -0.4192 C   0  0  1  0  0  0  0  0  0  0  0  0
    1.3671   -0.3249   -1.3022 H   0  0  0  0  0  0  0  0  0  0  0  0
    1.1858   -1.6666    0.3312 C   0  0  0  0  0  0  0  0  0  0  0  0
    3.9358   -2.1498    0.1739 C   0  0  0  0  0  0  0  0  0  0  0  0
    4.9937   -2.3814   -0.0408 H   0  0  0  0  0  0  0  0  0  0  0  0
    3.8480   -1.8257    1.2302 H   0  0  0  0  0  0  0  0  0  0  0  0
    4.1795   -3.0615   -2.5415 C   0  0  0  0  0  0  0  0  0  0  0  0
    4.2743   -2.4233   -3.4436 H   0  0  0  0  0  0  0  0  0  0  0  0
    4.0406   -4.1059   -2.8865 H   0  0  0  0  0  0  0  0  0  0  0  0
    5.1402   -3.0124   -1.9943 H   0  0  0  0  0  0  0  0  0  0  0  0
    1.7136   -2.7121   -2.5637 C   0  0  0  0  0  0  0  0  0  0  0  0
    1.7889   -2.0341   -3.4387 H   0  0  0  0  0  0  0  0  0  0  0  0
    0.7771   -2.4619   -2.0364 H   0  0  0  0  0  0  0  0  0  0  0  0
    1.5985   -3.7429   -2.9560 H   0  0  0  0  0  0  0  0  0  0  0  0
   -3.8879    1.2891   -0.8324 C   0  0  0  0  0  3  0  0  0  0  0  0
   -4.2243    0.2806   -0.5460 H   0  0  0  0  0  0  0  0  0  0  0  0
   -4.7292    2.2046   -1.4752 C   0  0  0  0  0  0  0  0  0  0  0  0
   -5.7728    1.9364   -1.6896 H   0  0  0  0  0  0  0  0  0  0  0  0
   -4.1989    3.4475   -1.8486 C   0  0  0  0  0  0  0  0  0  0  0  0
   -4.8245    4.1911   -2.3642 H   0  0  0  0  0  0  0  0  0  0  0  0
   -2.8542    3.7307   -1.5793 C   0  0  0  0  0  0  0  0  0  0  0  0
   -2.4225    4.6883   -1.8972 H   0  0  0  0  0  0  0  0  0  0  0  0
   -2.0659    2.7630   -0.9272 C   0  0  0  0  0  0  0  0  0  0  0  0
   -0.6166    2.9470   -0.6430 C   0  0  2  0  0  3  0  0  0  0  0  0
    0.0266    4.1801   -0.8272 C   0  0  0  0  0  0  0  0  0  0  0  0
   -0.5358    5.0632   -1.1553 H   0  0  0  0  0  0  0  0  0  0  0  0
    1.3969    4.2782   -0.5694 C   0  0  0  0  0  0  0  0  0  0  0  0
    1.9178    5.2403   -0.6880 H   0  0  0  0  0  0  0  0  0  0  0  0
    2.1115    3.1461   -0.1636 C   0  0  0  0  0  0  0  0  0  0  0  0
    3.5793    3.1474    0.1338 C   0  0  1  0  0  0  0  0  0  0  0  0
    4.0421    4.1414   -0.0235 H   0  0  0  0  0  0  0  0  0  0  0  0
    3.8194    2.4064    1.5089 C   0  0  0  0  0  0  0  0  0  0  0  0
    3.6649    1.0902    0.6603 C   0  0  1  0  0  0  0  0  0  0  0  0
    4.2666    0.2299    1.0029 H   0  0  0  0  0  0  0  0  0  0  0  0
    2.1853    0.6884    0.4734 C   0  0  1  0  0  0  0  0  0  0  0  0
    1.7728    0.4472    1.4778 H   0  0  0  0  0  0  0  0  0  0  0  0
    1.4063    1.9183   -0.0033 C   0  0  0  0  0  0  0  0  0  0  0  0
    4.1720    1.8940   -0.5681 C   0  0  0  0  0  0  0  0  0  0  0  0
    5.2734    1.9224   -0.6363 H   0  0  0  0  0  0  0  0  0  0  0  0
    3.7560    1.6475   -1.5649 H   0  0  0  0  0  0  0  0  0  0  0  0
    5.2567    2.5878    2.0109 C   0  0  0  0  0  0  0  0  0  0  0  0
    5.4601    1.8853    2.8448 H   0  0  0  0  0  0  0  0  0  0  0  0
    5.4059    3.6166    2.3967 H   0  0  0  0  0  0  0  0  0  0  0  0
    6.0198    2.4080    1.2303 H   0  0  0  0  0  0  0  0  0  0  0  0
    2.8566    2.6703    2.6654 C   0  0  0  0  0  0  0  0  0  0  0  0
    3.0322    1.9412    3.4832 H   0  0  0  0  0  0  0  0  0  0  0  0
    1.7875    2.6094    2.3850 H   0  0  0  0  0  0  0  0  0  0  0  0
    3.0281    3.6822    3.0860 H   0  0  0  0  0  0  0  0  0  0  0  0
  1 13  1  0  0  0  0
  1  5  1  0  0  0  0
  2 14  1  0  0  0  0
  4 61  1  0  0  0  0
  5  7  1  0  0  0  0
  6  5  1  0  0  0  0
  7  9  2  0  0  0  0
  7  8  1  0  0  0  0
  9 10  1  0  0  0  0
 11 12  1  0  0  0  0
 11  9  1  0  0  0  0
 13 11  2  0  0  0  0
 14 15  1  0  0  0  0
 14 13  1  1  0  0  0
 15 16  1  0  0  0  0
 17 18  1  0  0  0  0
 17 15  2  0  0  0  0
 19 17  1  0  0  0  0
 20 21  1  1  0  0  0
 20 28  1  0  0  0  0
 20 19  1  0  0  0  0
 22 23  1  0  0  0  0
 22 20  1  0  0  0  0
 23 24  1  6  0  0  0
 23 25  1  0  0  0  0
 23 28  1  0  0  0  0
 25 26  1  6  0  0  0
 25 27  1  0  0  0  0
 25 59  1  0  0  0  0
 27 19  2  0  0  0  0
 27  2  1  0  0  0  0
 28 30  1  0  0  0  0
 29 28  1  0  0  0  0
 31 34  1  0  0  0  0
 31 22  1  0  0  0  0
 32 31  1  0  0  0  0
 33 31  1  0  0  0  0
 35 37  1  0  0  0  0
 35 22  1  0  0  0  0
 36 35  1  0  0  0  0
 38 35  1  0  0  0  0
 39  3  1  0  0  0  0
 39 40  1  0  0  0  0
 41 39  1  0  0  0  0
 42 41  1  0  0  0  0
 43 45  1  0  0  0  0
 43 41  2  0  0  0  0
 44 43  1  0  0  0  0
 45 47  2  0  0  0  0
 46 45  1  0  0  0  0
 47  3  1  0  0  0  0
 48 47  1  6  0  0  0
 48  4  1  0  0  0  0
 49 48  1  0  0  0  0
 49 51  2  0  0  0  0
 50 49  1  0  0  0  0
 51 53  1  0  0  0  0
 52 51  1  0  0  0  0
 53 61  2  0  0  0  0
 53 54  1  0  0  0  0
 54 55  1  6  0  0  0
 54 56  1  0  0  0  0
 56 65  1  0  0  0  0
 56 69  1  0  0  0  0
 57 58  1  1  0  0  0
 57 56  1  0  0  0  0
 59 57  1  0  0  0  0
 59 60  1  1  0  0  0
 61 59  1  0  0  0  0
 62 54  1  0  0  0  0
 62 57  1  0  0  0  0
 63 62  1  0  0  0  0
 64 62  1  0  0  0  0
 65 67  1  0  0  0  0
 65 66  1  0  0  0  0
 68 65  1  0  0  0  0
 69 72  1  0  0  0  0
 69 70  1  0  0  0  0
 71 69  1  0  0  0  0
M  END
