1,2,4,5
 OpenBabel05122313063D

 83 89  0  0  0  0  0  0  0  0999 V2000
    0.4161   -1.5130   -0.5215 N   0  0  0  0  0  2  0  0  0  0  0  0
   -2.1936   -1.5637   -0.6182 N   0  0  0  0  0  2  0  0  0  0  0  0
   -3.5078   -1.6746   -0.6373 N   0  0  0  0  0  2  0  0  0  0  0  0
    0.4160    1.5125   -0.5229 N   0  0  0  0  0  2  0  0  0  0  0  0
   -2.1936    1.5630   -0.6195 N   0  0  0  0  0  2  0  0  0  0  0  0
   -3.5079    1.6739   -0.6386 N   0  0  0  0  0  2  0  0  0  0  0  0
    2.3206    0.0001    0.1276 C   0  0  0  0  0  0  0  0  0  0  0  0
    1.7562   -1.3428   -0.3856 C   0  0  0  0  0  0  0  0  0  0  0  0
    2.6126   -2.4493   -0.5319 C   0  0  0  0  0  0  0  0  0  0  0  0
    3.6933   -2.3116   -0.4193 H   0  0  0  0  0  0  0  0  0  0  0  0
    2.0825   -3.7232   -0.7864 C   0  0  0  0  0  0  0  0  0  0  0  0
    2.7575   -4.5841   -0.9006 H   0  0  0  0  0  0  0  0  0  0  0  0
    0.7023   -3.8923   -0.8705 C   0  0  0  0  0  0  0  0  0  0  0  0
    0.2462   -4.8761   -1.0435 H   0  0  0  0  0  0  0  0  0  0  0  0
   -0.1279   -2.7663   -0.7297 C   0  0  0  0  0  0  0  0  0  0  0  0
   -1.5677   -2.7859   -0.7682 C   0  0  0  0  0  0  0  0  0  0  0  0
   -2.5767   -3.7579   -0.8919 C   0  0  0  0  0  0  0  0  0  0  0  0
   -2.4795   -4.8395   -1.0235 H   0  0  0  0  0  0  0  0  0  0  0  0
   -3.7603   -2.9990   -0.7995 C   0  0  0  0  0  0  0  0  0  0  0  0
   -5.1718   -3.5034   -0.8545 C   0  0  0  0  0  0  0  0  0  0  0  0
    1.7561    1.3425   -0.3869 C   0  0  0  0  0  0  0  0  0  0  0  0
    2.6125    2.4488   -0.5344 C   0  0  0  0  0  0  0  0  0  0  0  0
    3.6932    2.3112   -0.4218 H   0  0  0  0  0  0  0  0  0  0  0  0
    2.0824    3.7225   -0.7900 C   0  0  0  0  0  0  0  0  0  0  0  0
    2.7574    4.5832   -0.9051 H   0  0  0  0  0  0  0  0  0  0  0  0
    0.7022    3.8914   -0.8741 C   0  0  0  0  0  0  0  0  0  0  0  0
    0.2460    4.8751   -1.0480 H   0  0  0  0  0  0  0  0  0  0  0  0
   -0.1280    2.7656   -0.7322 C   0  0  0  0  0  0  0  0  0  0  0  0
   -1.5678    2.7851   -0.7706 C   0  0  0  0  0  0  0  0  0  0  0  0
   -2.5768    3.7570   -0.8950 C   0  0  0  0  0  0  0  0  0  0  0  0
   -2.4797    4.8384   -1.0275 H   0  0  0  0  0  0  0  0  0  0  0  0
   -3.7604    2.9981   -0.8019 C   0  0  0  0  0  0  0  0  0  0  0  0
   -5.1719    3.5024   -0.8571 C   0  0  0  0  0  0  0  0  0  0  0  0
    2.1210    0.0009    1.6703 C   0  0  0  0  0  0  0  0  0  0  0  0
    0.9298    0.0012    2.3862 C   0  0  0  0  0  0  0  0  0  0  0  0
   -0.0301    0.0009    1.8436 H   0  0  0  0  0  0  0  0  0  0  0  0
    0.9466    0.0020    3.8007 C   0  0  0  0  0  0  0  0  0  0  0  0
    2.2015    0.0024    4.4478 C   0  0  0  0  0  0  0  0  0  0  0  0
    2.2480    0.0030    5.5453 H   0  0  0  0  0  0  0  0  0  0  0  0
    3.4103    0.0020    3.7280 C   0  0  0  0  0  0  0  0  0  0  0  0
    4.3706    0.0024    4.2661 H   0  0  0  0  0  0  0  0  0  0  0  0
    3.3762    0.0013    2.3268 C   0  0  0  0  0  0  0  0  0  0  0  0
    4.4383    0.0007    1.3156 C   0  0  0  0  0  0  0  0  0  0  0  0
    5.8397    0.0008    1.4276 C   0  0  0  0  0  0  0  0  0  0  0  0
    6.3243    0.0014    2.4156 H   0  0  0  0  0  0  0  0  0  0  0  0
    6.6167    0.0002    0.2625 C   0  0  0  0  0  0  0  0  0  0  0  0
    7.7124    0.0003    0.3638 H   0  0  0  0  0  0  0  0  0  0  0  0
    6.0416   -0.0005   -1.0334 C   0  0  0  0  0  0  0  0  0  0  0  0
    4.6332   -0.0006   -1.1279 C   0  0  0  0  0  0  0  0  0  0  0  0
    4.1385   -0.0011   -2.1087 H   0  0  0  0  0  0  0  0  0  0  0  0
    3.8509    0.0000    0.0313 C   0  0  0  0  0  0  0  0  0  0  0  0
   -0.3974    0.0024    4.5460 C   0  0  0  0  0  0  0  0  0  0  0  0
   -0.2138    0.0032    6.0725 C   0  0  0  0  0  0  0  0  0  0  0  0
    0.3337   -0.8953    6.4230 H   0  0  0  0  0  0  0  0  0  0  0  0
   -1.2047    0.0034    6.5689 H   0  0  0  0  0  0  0  0  0  0  0  0
    0.3337    0.9019    6.4222 H   0  0  0  0  0  0  0  0  0  0  0  0
   -1.1969   -1.2587    4.1410 C   0  0  0  0  0  0  0  0  0  0  0  0
   -1.4064   -1.2834    3.0528 H   0  0  0  0  0  0  0  0  0  0  0  0
   -2.1731   -1.2788    4.6671 H   0  0  0  0  0  0  0  0  0  0  0  0
   -0.6432   -2.1827    4.4045 H   0  0  0  0  0  0  0  0  0  0  0  0
   -1.1967    1.2634    4.1398 C   0  0  0  0  0  0  0  0  0  0  0  0
   -0.6429    2.1875    4.4023 H   0  0  0  0  0  0  0  0  0  0  0  0
   -2.1729    1.2841    4.6658 H   0  0  0  0  0  0  0  0  0  0  0  0
   -1.4062    1.2870    3.0515 H   0  0  0  0  0  0  0  0  0  0  0  0
    6.9512   -0.0012   -2.2741 C   0  0  0  0  0  0  0  0  0  0  0  0
    6.1435   -0.0018   -3.5833 C   0  0  0  0  0  0  0  0  0  0  0  0
    6.8342   -0.0022   -4.4500 H   0  0  0  0  0  0  0  0  0  0  0  0
    5.4993    0.8961   -3.6728 H   0  0  0  0  0  0  0  0  0  0  0  0
    5.4992   -0.8997   -3.6719 H   0  0  0  0  0  0  0  0  0  0  0  0
    7.8426    1.2617   -2.2506 C   0  0  0  0  0  0  0  0  0  0  0  0
    8.4811    1.3007   -1.3459 H   0  0  0  0  0  0  0  0  0  0  0  0
    7.2255    2.1828   -2.2692 H   0  0  0  0  0  0  0  0  0  0  0  0
    8.5117    1.2783   -3.1354 H   0  0  0  0  0  0  0  0  0  0  0  0
    7.8423   -1.2643   -2.2493 C   0  0  0  0  0  0  0  0  0  0  0  0
    8.5114   -1.2819   -3.1341 H   0  0  0  0  0  0  0  0  0  0  0  0
    7.2250   -2.1852   -2.2669 H   0  0  0  0  0  0  0  0  0  0  0  0
    8.4808   -1.3025   -1.3446 H   0  0  0  0  0  0  0  0  0  0  0  0
   -5.8514   -3.2491    0.2877 F   0  0  0  0  0  0  0  0  0  0  0  0
   -5.1778   -4.8513   -1.0392 F   0  0  0  0  0  0  0  0  0  0  0  0
   -5.8756   -2.9516   -1.8679 F   0  0  0  0  0  0  0  0  0  0  0  0
   -5.8514    3.2492    0.2854 F   0  0  0  0  0  0  0  0  0  0  0  0
   -5.8759    2.9497   -1.8700 F   0  0  0  0  0  0  0  0  0  0  0  0
   -5.1780    4.8502   -1.0431 F   0  0  0  0  0  0  0  0  0  0  0  0
  1  8  1  0  0  0  0
  3  2  1  0  0  0  0
  4 21  1  0  0  0  0
  6  5  1  0  0  0  0
  7 34  1  0  0  0  0
  8  7  1  0  0  0  0
  9 10  1  0  0  0  0
  9  8  2  0  0  0  0
 11  9  1  0  0  0  0
 12 11  1  0  0  0  0
 13 11  2  0  0  0  0
 13 15  1  0  0  0  0
 14 13  1  0  0  0  0
 15  1  1  0  0  0  0
 16 15  2  0  0  0  0
 16  2  1  0  0  0  0
 17 19  2  0  0  0  0
 17 16  1  0  0  0  0
 18 17  1  0  0  0  0
 19  3  1  0  0  0  0
 20 19  1  0  0  0  0
 20 78  1  0  0  0  0
 21  7  1  0  0  0  0
 22 23  1  0  0  0  0
 22 21  2  0  0  0  0
 24 22  1  0  0  0  0
 25 24  1  0  0  0  0
 26 24  2  0  0  0  0
 26 28  1  0  0  0  0
 27 26  1  0  0  0  0
 28  4  1  0  0  0  0
 29 28  2  0  0  0  0
 29  5  1  0  0  0  0
 30 32  2  0  0  0  0
 30 29  1  0  0  0  0
 31 30  1  0  0  0  0
 32  6  1  0  0  0  0
 33 32  1  0  0  0  0
 33 81  1  0  0  0  0
 34 42  2  0  0  0  0
 34 35  1  0  0  0  0
 35 37  2  0  0  0  0
 36 35  1  0  0  0  0
 37 38  1  0  0  0  0
 37 52  1  0  0  0  0
 38 39  1  0  0  0  0
 40 41  1  0  0  0  0
 40 38  2  0  0  0  0
 42 40  1  0  0  0  0
 43 44  1  0  0  0  0
 43 42  1  0  0  0  0
 44 45  1  0  0  0  0
 46 47  1  0  0  0  0
 46 44  2  0  0  0  0
 48 46  1  0  0  0  0
 49 48  2  0  0  0  0
 49 51  1  0  0  0  0
 50 49  1  0  0  0  0
 51  7  1  0  0  0  0
 51 43  2  0  0  0  0
 52 53  1  0  0  0  0
 53 56  1  0  0  0  0
 53 54  1  0  0  0  0
 53 55  1  0  0  0  0
 57 60  1  0  0  0  0
 57 52  1  0  0  0  0
 57 59  1  0  0  0  0
 58 57  1  0  0  0  0
 61 62  1  0  0  0  0
 61 52  1  0  0  0  0
 61 63  1  0  0  0  0
 64 61  1  0  0  0  0
 65 70  1  0  0  0  0
 65 74  1  0  0  0  0
 65 48  1  0  0  0  0
 66 65  1  0  0  0  0
 67 66  1  0  0  0  0
 68 66  1  0  0  0  0
 69 66  1  0  0  0  0
 70 71  1  0  0  0  0
 72 70  1  0  0  0  0
 73 70  1  0  0  0  0
 74 77  1  0  0  0  0
 75 74  1  0  0  0  0
 76 74  1  0  0  0  0
 79 20  1  0  0  0  0
 80 20  1  0  0  0  0
 82 33  1  0  0  0  0
 83 33  1  0  0  0  0
M  END
