3,4,5,6
 OpenBabel05122313063D

 74 81  0  0  0  0  0  0  0  0999 V2000
   -4.6335   -1.5699   -0.7155 Br  0  0  0  0  0  0  0  0  0  0  0  0
   -4.6335    1.5700    0.7148 Br  0  0  0  0  0  0  0  0  0  0  0  0
   -0.8691   -0.0000    0.0000 N   0  0  0  0  0  2  0  0  0  0  0  0
    1.0523    1.9013   -0.0896 N   0  0  0  0  0  0  0  0  0  0  0  0
    2.9761    0.0000   -0.0002 N   0  0  0  0  0  2  0  0  0  0  0  0
    1.0524   -1.9013    0.0897 N   0  0  0  0  0  0  0  0  0  0  0  0
   -1.6832   -1.0254   -0.4574 C   0  0  0  0  0  0  0  0  0  0  0  0
   -3.0682   -0.6224   -0.3052 C   0  0  0  0  0  0  0  0  0  0  0  0
   -3.0682    0.6224    0.3049 C   0  0  0  0  0  0  0  0  0  0  0  0
   -1.6832    1.0253    0.4574 C   0  0  0  0  0  0  0  0  0  0  0  0
   -1.2158    2.3157    0.8062 C   0  0  0  0  0  0  0  0  0  0  0  0
    0.0797    2.7275    0.4603 C   0  0  0  0  0  3  0  0  0  0  0  0
    0.5441    4.0962    0.4402 C   0  0  0  0  0  0  0  0  0  0  0  0
   -0.0041    4.9523    0.8454 H   0  0  0  0  0  0  0  0  0  0  0  0
    1.7559    4.0959   -0.2129 C   0  0  0  0  0  0  0  0  0  0  0  0
    2.4107    4.9472   -0.4265 H   0  0  0  0  0  0  0  0  0  0  0  0
    2.0721    2.7183   -0.5044 C   0  0  0  0  0  0  0  0  0  0  0  0
    3.3354    2.2426   -0.9525 C   0  0  0  0  0  0  0  0  0  0  0  0
    3.7268    0.9537   -0.6275 C   0  0  0  0  0  0  0  0  0  0  0  0
    4.7677    0.6665   -0.8560 H   0  0  0  0  0  0  0  0  0  0  0  0
    3.7270   -0.9536    0.6269 C   0  0  0  0  0  0  0  0  0  0  0  0
    4.7680   -0.6665    0.8549 H   0  0  0  0  0  0  0  0  0  0  0  0
    3.3357   -2.2424    0.9523 C   0  0  0  0  0  0  0  0  0  0  0  0
    2.0722   -2.7182    0.5047 C   0  0  0  0  0  3  0  0  0  0  0  0
    1.7559   -4.0958    0.2136 C   0  0  0  0  0  0  0  0  0  0  0  0
    2.4107   -4.9472    0.4274 H   0  0  0  0  0  0  0  0  0  0  0  0
    0.5441   -4.0963   -0.4394 C   0  0  0  0  0  0  0  0  0  0  0  0
   -0.0042   -4.9525   -0.8443 H   0  0  0  0  0  0  0  0  0  0  0  0
    0.0798   -2.7276   -0.4598 C   0  0  0  0  0  0  0  0  0  0  0  0
   -1.2158   -2.3159   -0.8059 C   0  0  0  0  0  0  0  0  0  0  0  0
   -2.1049    3.2997    1.4877 C   0  0  0  0  0  0  0  0  0  0  0  0
   -2.5957    4.4408    0.8198 C   0  0  0  0  0  0  0  0  0  0  0  0
   -2.3456    4.5906   -0.2410 H   0  0  0  0  0  0  0  0  0  0  0  0
   -3.4247    5.3528    1.4877 C   0  0  0  0  0  0  0  0  0  0  0  0
   -3.8134    6.2317    0.9510 H   0  0  0  0  0  0  0  0  0  0  0  0
   -3.7660    5.1417    2.8331 C   0  0  0  0  0  0  0  0  0  0  0  0
   -4.4188    5.8572    3.3560 H   0  0  0  0  0  0  0  0  0  0  0  0
   -3.2699    4.0158    3.5095 C   0  0  0  0  0  0  0  0  0  0  0  0
   -3.5293    3.8473    4.5658 H   0  0  0  0  0  0  0  0  0  0  0  0
   -2.4458    3.1002    2.8416 C   0  0  0  0  0  0  0  0  0  0  0  0
   -2.0625    2.2114    3.3651 H   0  0  0  0  0  0  0  0  0  0  0  0
    4.2816    3.1521   -1.6431 C   0  0  0  0  0  0  0  0  0  0  0  0
    3.8227    4.0128   -2.6680 C   0  0  0  0  0  0  0  0  0  0  0  0
    2.7584    3.9921   -2.9461 H   0  0  0  0  0  0  0  0  0  0  0  0
    4.7080    4.8655   -3.3412 C   0  0  0  0  0  0  0  0  0  0  0  0
    4.3299    5.5223   -4.1395 H   0  0  0  0  0  0  0  0  0  0  0  0
    6.0723    4.8745   -3.0098 C   0  0  0  0  0  0  0  0  0  0  0  0
    6.7674    5.5435   -3.5394 H   0  0  0  0  0  0  0  0  0  0  0  0
    6.5428    4.0253   -1.9952 C   0  0  0  0  0  0  0  0  0  0  0  0
    7.6082    4.0339   -1.7188 H   0  0  0  0  0  0  0  0  0  0  0  0
    5.6576    3.1764   -1.3176 C   0  0  0  0  0  0  0  0  0  0  0  0
    6.0313    2.5410   -0.5003 H   0  0  0  0  0  0  0  0  0  0  0  0
    4.2820   -3.1518    1.6429 C   0  0  0  0  0  0  0  0  0  0  0  0
    5.6579   -3.1763    1.3170 C   0  0  0  0  0  0  0  0  0  0  0  0
    6.0314   -2.5411    0.4994 H   0  0  0  0  0  0  0  0  0  0  0  0
    6.5433   -4.0250    1.9946 C   0  0  0  0  0  0  0  0  0  0  0  0
    7.6086   -4.0337    1.7179 H   0  0  0  0  0  0  0  0  0  0  0  0
    6.0731   -4.8739    3.0096 C   0  0  0  0  0  0  0  0  0  0  0  0
    6.7683   -5.5428    3.5391 H   0  0  0  0  0  0  0  0  0  0  0  0
    4.7089   -4.8647    3.3414 C   0  0  0  0  0  0  0  0  0  0  0  0
    4.3309   -5.5213    4.1400 H   0  0  0  0  0  0  0  0  0  0  0  0
    3.8234   -4.0122    2.6682 C   0  0  0  0  0  0  0  0  0  0  0  0
    2.7592   -3.9914    2.9466 H   0  0  0  0  0  0  0  0  0  0  0  0
   -2.1048   -3.3000   -1.4873 C   0  0  0  0  0  0  0  0  0  0  0  0
   -2.5958   -4.4409   -0.8190 C   0  0  0  0  0  0  0  0  0  0  0  0
   -2.3460   -4.5903    0.2418 H   0  0  0  0  0  0  0  0  0  0  0  0
   -3.4248   -5.3530   -1.4868 C   0  0  0  0  0  0  0  0  0  0  0  0
   -3.8137   -6.2316   -0.9499 H   0  0  0  0  0  0  0  0  0  0  0  0
   -3.7657   -5.1424   -2.8324 C   0  0  0  0  0  0  0  0  0  0  0  0
   -4.4184   -5.8580   -3.3552 H   0  0  0  0  0  0  0  0  0  0  0  0
   -3.2693   -4.0168   -3.5091 C   0  0  0  0  0  0  0  0  0  0  0  0
   -3.5284   -3.8487   -4.5656 H   0  0  0  0  0  0  0  0  0  0  0  0
   -2.4453   -3.1010   -2.8414 C   0  0  0  0  0  0  0  0  0  0  0  0
   -2.0618   -2.2125   -3.3651 H   0  0  0  0  0  0  0  0  0  0  0  0
  1  8  1  0  0  0  0
  3 10  1  0  0  0  0
  4 12  1  0  0  0  0
  5 21  1  0  0  0  0
  6 24  1  0  0  0  0
  7  8  1  0  0  0  0
  7  3  1  0  0  0  0
  8  9  2  0  0  0  0
  9 10  1  0  0  0  0
  9  2  1  0  0  0  0
 10 11  2  0  0  0  0
 11 31  1  0  0  0  0
 12 11  1  0  0  0  0
 13 12  1  0  0  0  0
 13 14  1  0  0  0  0
 15 13  2  0  0  0  0
 16 15  1  0  0  0  0
 17 15  1  0  0  0  0
 17  4  2  0  0  0  0
 18 19  2  0  0  0  0
 18 17  1  0  0  0  0
 19  5  1  0  0  0  0
 20 19  1  0  0  0  0
 21 22  1  0  0  0  0
 21 23  2  0  0  0  0
 23 53  1  0  0  0  0
 24 23  1  0  0  0  0
 25 26  1  0  0  0  0
 25 24  1  0  0  0  0
 27 25  2  0  0  0  0
 28 27  1  0  0  0  0
 29 27  1  0  0  0  0
 29  6  2  0  0  0  0
 30 29  1  0  0  0  0
 30  7  2  0  0  0  0
 31 40  1  0  0  0  0
 32 34  1  0  0  0  0
 32 31  2  0  0  0  0
 33 32  1  0  0  0  0
 34 36  2  0  0  0  0
 35 34  1  0  0  0  0
 36 37  1  0  0  0  0
 36 38  1  0  0  0  0
 38 39  1  0  0  0  0
 40 41  1  0  0  0  0
 40 38  2  0  0  0  0
 42 51  1  0  0  0  0
 42 18  1  0  0  0  0
 43 42  2  0  0  0  0
 44 43  1  0  0  0  0
 45 47  2  0  0  0  0
 45 43  1  0  0  0  0
 46 45  1  0  0  0  0
 47 49  1  0  0  0  0
 48 47  1  0  0  0  0
 49 50  1  0  0  0  0
 49 51  2  0  0  0  0
 51 52  1  0  0  0  0
 53 62  1  0  0  0  0
 54 53  2  0  0  0  0
 54 56  1  0  0  0  0
 55 54  1  0  0  0  0
 56 58  2  0  0  0  0
 57 56  1  0  0  0  0
 58 60  1  0  0  0  0
 58 59  1  0  0  0  0
 60 61  1  0  0  0  0
 62 63  1  0  0  0  0
 62 60  2  0  0  0  0
 64 65  1  0  0  0  0
 64 30  1  0  0  0  0
 65 66  1  0  0  0  0
 67 68  1  0  0  0  0
 67 65  2  0  0  0  0
 69 67  1  0  0  0  0
 70 69  1  0  0  0  0
 71 73  1  0  0  0  0
 71 69  2  0  0  0  0
 72 71  1  0  0  0  0
 73 64  2  0  0  0  0
 74 73  1  0  0  0  0
M  END
