5,6,7,8
 OpenBabel05122313063D

 72 75  0  0  0  0  0  0  0  0999 V2000
   -1.9106    4.1118    0.3943 O   0  0  0  0  0  0  0  0  0  0  0  0
   -2.1691    1.8681    0.0774 O   0  0  0  0  0  0  0  0  0  0  0  0
   -2.8829   -1.5501   -1.7330 O   0  0  0  0  0  0  0  0  0  0  0  0
   -4.6514   -1.3342   -0.3650 O   0  0  0  0  0  0  0  0  0  0  0  0
    0.4604    1.6032   -0.6612 N   0  0  0  0  0  0  0  0  0  0  0  0
    1.9920   -0.4953   -1.3260 N   0  0  0  0  0  2  0  0  0  0  0  0
    1.3353   -0.6925    1.2210 N   0  0  0  0  0  2  0  0  0  0  0  0
   -1.1795   -1.1322    0.6679 N   0  0  0  0  0  0  0  0  0  0  0  0
   -4.4195    2.2122   -0.7907 C   0  0  0  0  0  0  0  0  0  0  0  0
   -5.4942    2.2028   -0.5157 H   0  0  0  0  0  0  0  0  0  0  0  0
   -4.2448    1.4126   -1.5388 H   0  0  0  0  0  0  0  0  0  0  0  0
   -4.1925    3.1887   -1.2621 H   0  0  0  0  0  0  0  0  0  0  0  0
   -3.5551    1.9966    0.4422 C   0  0  0  0  0  0  0  0  0  0  0  0
   -3.6652    2.8405    1.1525 H   0  0  0  0  0  0  0  0  0  0  0  0
   -3.8080    1.0467    0.9506 H   0  0  0  0  0  0  0  0  0  0  0  0
   -1.4381    3.0242    0.0812 C   0  0  0  0  0  0  0  0  0  0  0  0
   -0.0454    2.8136   -0.3437 C   0  0  0  0  0  3  0  0  0  0  0  0
    0.9271    3.8699   -0.5399 C   0  0  0  0  0  0  0  0  0  0  0  0
    0.7158    5.3299   -0.2871 C   0  0  0  0  0  0  0  0  0  0  0  0
    1.6038    5.9243   -0.5804 H   0  0  0  0  0  0  0  0  0  0  0  0
    0.5012    5.5308    0.7828 H   0  0  0  0  0  0  0  0  0  0  0  0
   -0.1656    5.7136   -0.8395 H   0  0  0  0  0  0  0  0  0  0  0  0
    2.0838    3.2361   -1.0172 C   0  0  0  0  0  0  0  0  0  0  0  0
    3.4115    3.8423   -1.3547 C   0  0  0  0  0  0  0  0  0  0  0  0
    3.3633    4.9487   -1.3612 H   0  0  0  0  0  0  0  0  0  0  0  0
    3.7736    3.5217   -2.3544 H   0  0  0  0  0  0  0  0  0  0  0  0
    4.1947    3.5523   -0.6207 H   0  0  0  0  0  0  0  0  0  0  0  0
    1.7556    1.8361   -1.0749 C   0  0  0  0  0  0  0  0  0  0  0  0
    2.5333    0.7098   -1.4195 C   0  0  0  0  0  3  0  0  0  0  0  0
    3.5841    0.8097   -1.7481 H   0  0  0  0  0  0  0  0  0  0  0  0
    2.7144   -1.7012   -1.3125 C   0  0  0  0  0  0  0  0  0  0  0  0
    2.5192   -2.6787   -2.3060 C   0  0  0  0  0  0  0  0  0  0  0  0
    1.7920   -2.4751   -3.1042 H   0  0  0  0  0  0  0  0  0  0  0  0
    3.2357   -3.8818   -2.2527 C   0  0  0  0  0  0  0  0  0  0  0  0
    3.0826   -4.6424   -3.0332 H   0  0  0  0  0  0  0  0  0  0  0  0
    4.1442   -4.1168   -1.2074 C   0  0  0  0  0  0  0  0  0  0  0  0
    4.7054   -5.0621   -1.1639 H   0  0  0  0  0  0  0  0  0  0  0  0
    4.3261   -3.1498   -0.2060 C   0  0  0  0  0  0  0  0  0  0  0  0
    5.0165   -3.3427    0.6295 H   0  0  0  0  0  0  0  0  0  0  0  0
    3.6129   -1.9374   -0.2344 C   0  0  0  0  0  0  0  0  0  0  0  0
    3.7822   -0.8910    0.8052 C   0  0  0  0  0  0  0  0  0  0  0  0
    5.0796   -0.4644    1.1533 C   0  0  0  0  0  0  0  0  0  0  0  0
    5.9352   -0.9407    0.6508 H   0  0  0  0  0  0  0  0  0  0  0  0
    5.2990    0.5591    2.0868 C   0  0  0  0  0  0  0  0  0  0  0  0
    6.3256    0.8741    2.3260 H   0  0  0  0  0  0  0  0  0  0  0  0
    4.2019    1.1951    2.6841 C   0  0  0  0  0  0  0  0  0  0  0  0
    4.3519    2.0275    3.3879 H   0  0  0  0  0  0  0  0  0  0  0  0
    2.9024    0.7807    2.3648 C   0  0  0  0  0  0  0  0  0  0  0  0
    2.0333    1.2942    2.8010 H   0  0  0  0  0  0  0  0  0  0  0  0
    2.6712   -0.2708    1.4527 C   0  0  0  0  0  0  0  0  0  0  0  0
    0.5397   -0.8706    2.2698 C   0  0  0  0  0  3  0  0  0  0  0  0
    0.9419   -0.8279    3.2963 H   0  0  0  0  0  0  0  0  0  0  0  0
   -0.8214   -1.1213    1.9998 C   0  0  0  0  0  3  0  0  0  0  0  0
   -1.9504   -1.3162    2.8523 C   0  0  0  0  0  0  0  0  0  0  0  0
   -1.9064   -1.3747    4.3481 C   0  0  0  0  0  0  0  0  0  0  0  0
   -2.9103   -1.5485    4.7805 H   0  0  0  0  0  0  0  0  0  0  0  0
   -1.5216   -0.4283    4.7849 H   0  0  0  0  0  0  0  0  0  0  0  0
   -1.2447   -2.1896    4.7106 H   0  0  0  0  0  0  0  0  0  0  0  0
   -3.0566   -1.4267    1.9973 C   0  0  0  0  0  0  0  0  0  0  0  0
   -4.4760   -1.6617    2.4169 C   0  0  0  0  0  0  0  0  0  0  0  0
   -4.5382   -1.8374    3.5082 H   0  0  0  0  0  0  0  0  0  0  0  0
   -4.9207   -2.5361    1.9014 H   0  0  0  0  0  0  0  0  0  0  0  0
   -5.1296   -0.7988    2.1728 H   0  0  0  0  0  0  0  0  0  0  0  0
   -2.5444   -1.3067    0.6488 C   0  0  0  0  0  0  0  0  0  0  0  0
   -3.3182   -1.4048   -0.5724 C   0  0  0  0  0  0  0  0  0  0  0  0
   -5.4972   -1.4596   -1.5257 C   0  0  0  0  0  0  0  0  0  0  0  0
   -5.3615   -2.4726   -1.9613 H   0  0  0  0  0  0  0  0  0  0  0  0
   -5.1632   -0.7332   -2.2956 H   0  0  0  0  0  0  0  0  0  0  0  0
   -6.9239   -1.2093   -1.0831 C   0  0  0  0  0  0  0  0  0  0  0  0
   -7.6101   -1.3032   -1.9477 H   0  0  0  0  0  0  0  0  0  0  0  0
   -7.0331   -0.1895   -0.6633 H   0  0  0  0  0  0  0  0  0  0  0  0
   -7.2379   -1.9385   -0.3102 H   0  0  0  0  0  0  0  0  0  0  0  0
  2 16  1  0  0  0  0
  2 13  1  0  0  0  0
  3 65  2  0  0  0  0
  5 17  1  0  0  0  0
  6 31  1  0  0  0  0
  7 50  1  0  0  0  0
  7 51  1  0  0  0  0
  8 53  1  0  0  0  0
  9 10  1  0  0  0  0
  9 13  1  0  0  0  0
 11  9  1  0  0  0  0
 12  9  1  0  0  0  0
 13 15  1  0  0  0  0
 13 14  1  0  0  0  0
 16  1  2  0  0  0  0
 17 16  1  0  0  0  0
 18 17  1  0  0  0  0
 18 19  1  0  0  0  0
 19 21  1  0  0  0  0
 20 19  1  0  0  0  0
 22 19  1  0  0  0  0
 23 18  2  0  0  0  0
 24 23  1  0  0  0  0
 24 27  1  0  0  0  0
 25 24  1  0  0  0  0
 26 24  1  0  0  0  0
 28 23  1  0  0  0  0
 28  5  2  0  0  0  0
 29  6  1  0  0  0  0
 29 28  1  0  0  0  0
 30 29  1  0  0  0  0
 31 40  1  0  0  0  0
 32 34  1  0  0  0  0
 32 31  2  0  0  0  0
 33 32  1  0  0  0  0
 34 36  2  0  0  0  0
 35 34  1  0  0  0  0
 36 37  1  0  0  0  0
 36 38  1  0  0  0  0
 38 39  1  0  0  0  0
 40 38  2  0  0  0  0
 40 41  1  0  0  0  0
 41 42  2  0  0  0  0
 41 50  1  0  0  0  0
 42 44  1  0  0  0  0
 43 42  1  0  0  0  0
 44 45  1  0  0  0  0
 44 46  2  0  0  0  0
 46 47  1  0  0  0  0
 48 46  1  0  0  0  0
 48 49  1  0  0  0  0
 50 48  2  0  0  0  0
 51 52  1  0  0  0  0
 53 51  1  0  0  0  0
 53 54  1  0  0  0  0
 54 55  1  0  0  0  0
 55 58  1  0  0  0  0
 55 56  1  0  0  0  0
 55 57  1  0  0  0  0
 59 60  1  0  0  0  0
 59 54  2  0  0  0  0
 60 61  1  0  0  0  0
 62 60  1  0  0  0  0
 63 60  1  0  0  0  0
 64  8  2  0  0  0  0
 64 59  1  0  0  0  0
 65  4  1  0  0  0  0
 65 64  1  0  0  0  0
 66 69  1  0  0  0  0
 66  4  1  0  0  0  0
 67 66  1  0  0  0  0
 68 66  1  0  0  0  0
 69 71  1  0  0  0  0
 69 72  1  0  0  0  0
 70 69  1  0  0  0  0
M  END
