2,5,29,32
 OpenBabel05122313063D

 54 56  0  0  1  0  0  0  0  0999 V2000
    1.6452    3.2534    1.5235 O   0  0  0  0  0  0  0  0  0  0  0  0
    1.2674    1.0298    0.8887 N   0  0  0  0  0  2  0  0  0  0  0  0
   -0.2919    2.6311    0.4295 N   0  0  0  0  0  0  0  0  0  0  0  0
   -0.4826    3.6114    0.2039 H   0  0  0  0  0  0  0  0  0  0  0  0
    0.8307   -1.6521    0.3473 N   0  0  0  0  0  2  0  0  0  0  0  0
    2.5434    0.5450    1.3535 C   0  0  1  0  0  0  0  0  0  0  0  0
    2.9207    1.2623    2.1152 H   0  0  0  0  0  0  0  0  0  0  0  0
    0.9888    2.3504    1.0075 C   0  0  0  0  0  0  0  0  0  0  0  0
    1.8075   -1.9136    1.1795 C   0  0  1  0  0  3  0  0  0  0  0  0
    2.3516   -0.8146    2.0578 C   0  0  0  0  0  0  0  0  0  0  0  0
    1.6626   -0.6636    2.9202 H   0  0  0  0  0  0  0  0  0  0  0  0
    3.3199   -1.1505    2.4762 H   0  0  0  0  0  0  0  0  0  0  0  0
    2.3517   -3.3090    1.2800 C   0  0  0  0  0  0  0  0  0  0  0  0
    1.5624   -4.0425    1.5625 H   0  0  0  0  0  0  0  0  0  0  0  0
    3.1555   -3.3725    2.0340 H   0  0  0  0  0  0  0  0  0  0  0  0
    2.7686   -3.6386    0.3021 H   0  0  0  0  0  0  0  0  0  0  0  0
    3.6076    0.4348    0.2589 C   0  0  0  0  0  0  0  0  0  0  0  0
    4.9700    0.3918    0.6146 C   0  0  0  0  0  0  0  0  0  0  0  0
    5.2568    0.4949    1.6743 H   0  0  0  0  0  0  0  0  0  0  0  0
    5.9640    0.2371   -0.3625 C   0  0  0  0  0  0  0  0  0  0  0  0
    7.0244    0.2159   -0.0672 H   0  0  0  0  0  0  0  0  0  0  0  0
    5.6076    0.1214   -1.7162 C   0  0  0  0  0  0  0  0  0  0  0  0
    6.3859    0.0027   -2.4855 H   0  0  0  0  0  0  0  0  0  0  0  0
    4.2533    0.1700   -2.0812 C   0  0  0  0  0  0  0  0  0  0  0  0
    3.9640    0.0877   -3.1404 H   0  0  0  0  0  0  0  0  0  0  0  0
    3.2623    0.3267   -1.1000 C   0  0  0  0  0  0  0  0  0  0  0  0
    2.1977    0.3793   -1.3778 H   0  0  0  0  0  0  0  0  0  0  0  0
   -1.6452   -3.2534   -1.5234 O   0  0  0  0  0  0  0  0  0  0  0  0
   -1.2673   -1.0297   -0.8887 N   0  0  0  0  0  2  0  0  0  0  0  0
    0.2919   -2.6311   -0.4295 N   0  0  0  0  0  0  0  0  0  0  0  0
    0.4826   -3.6114   -0.2039 H   0  0  0  0  0  0  0  0  0  0  0  0
   -0.8307    1.6521   -0.3473 N   0  0  0  0  0  2  0  0  0  0  0  0
   -2.5434   -0.5450   -1.3535 C   0  0  2  0  0  0  0  0  0  0  0  0
   -2.9207   -1.2623   -2.1152 H   0  0  0  0  0  0  0  0  0  0  0  0
   -0.9888   -2.3504   -1.0075 C   0  0  0  0  0  0  0  0  0  0  0  0
   -1.8075    1.9136   -1.1795 C   0  0  2  0  0  3  0  0  0  0  0  0
   -2.3516    0.8146   -2.0577 C   0  0  0  0  0  0  0  0  0  0  0  0
   -1.6626    0.6637   -2.9202 H   0  0  0  0  0  0  0  0  0  0  0  0
   -3.3199    1.1505   -2.4762 H   0  0  0  0  0  0  0  0  0  0  0  0
   -2.3517    3.3090   -1.2800 C   0  0  0  0  0  0  0  0  0  0  0  0
   -1.5624    4.0425   -1.5625 H   0  0  0  0  0  0  0  0  0  0  0  0
   -3.1555    3.3725   -2.0340 H   0  0  0  0  0  0  0  0  0  0  0  0
   -2.7686    3.6386   -0.3021 H   0  0  0  0  0  0  0  0  0  0  0  0
   -3.6076   -0.4348   -0.2589 C   0  0  0  0  0  0  0  0  0  0  0  0
   -4.9700   -0.3918   -0.6146 C   0  0  0  0  0  0  0  0  0  0  0  0
   -5.2568   -0.4949   -1.6743 H   0  0  0  0  0  0  0  0  0  0  0  0
   -5.9640   -0.2371    0.3625 C   0  0  0  0  0  0  0  0  0  0  0  0
   -7.0244   -0.2159    0.0672 H   0  0  0  0  0  0  0  0  0  0  0  0
   -5.6076   -0.1215    1.7162 C   0  0  0  0  0  0  0  0  0  0  0  0
   -6.3859   -0.0028    2.4854 H   0  0  0  0  0  0  0  0  0  0  0  0
   -4.2533   -0.1700    2.0812 C   0  0  0  0  0  0  0  0  0  0  0  0
   -3.9640   -0.0877    3.1404 H   0  0  0  0  0  0  0  0  0  0  0  0
   -3.2623   -0.3267    1.1000 C   0  0  0  0  0  0  0  0  0  0  0  0
   -2.1977   -0.3793    1.3778 H   0  0  0  0  0  0  0  0  0  0  0  0
  2  8  1  0  0  0  0
  2  6  1  0  0  0  0
  3  8  1  0  0  0  0
  4  3  1  0  0  0  0
  5  9  1  0  0  0  0
  6 10  1  0  0  0  0
  6  7  1  1  0  0  0
  8  1  2  0  0  0  0
  9 13  1  1  0  0  0
  9 10  1  0  0  0  0
 10 12  1  0  0  0  0
 10 11  1  0  0  0  0
 13 14  1  0  0  0  0
 13 15  1  0  0  0  0
 16 13  1  0  0  0  0
 17 18  1  0  0  0  0
 17  6  1  0  0  0  0
 18 19  1  0  0  0  0
 20 21  1  0  0  0  0
 20 18  2  0  0  0  0
 22 20  1  0  0  0  0
 23 22  1  0  0  0  0
 24 22  2  0  0  0  0
 24 26  1  0  0  0  0
 25 24  1  0  0  0  0
 26 17  2  0  0  0  0
 27 26  1  0  0  0  0
 28 35  2  0  0  0  0
 30 31  1  0  0  0  0
 30  5  1  0  0  0  0
 32  3  1  0  0  0  0
 33 34  1  6  0  0  0
 33 29  1  0  0  0  0
 33 44  1  0  0  0  0
 35 29  1  0  0  0  0
 35 30  1  0  0  0  0
 36 40  1  6  0  0  0
 36 32  1  0  0  0  0
 37 33  1  0  0  0  0
 37 36  1  0  0  0  0
 38 37  1  0  0  0  0
 39 37  1  0  0  0  0
 40 43  1  0  0  0  0
 41 40  1  0  0  0  0
 42 40  1  0  0  0  0
 44 53  1  0  0  0  0
 45 44  2  0  0  0  0
 45 47  1  0  0  0  0
 46 45  1  0  0  0  0
 47 49  2  0  0  0  0
 48 47  1  0  0  0  0
 49 51  1  0  0  0  0
 49 50  1  0  0  0  0
 51 52  1  0  0  0  0
 53 54  1  0  0  0  0
 53 51  2  0  0  0  0
M  END
