1,12,32,43
 OpenBabel05122313063D

 62 62  0  0  1  0  0  0  0  0999 V2000
   -1.7241   -1.4944   -0.4012 N   0  0  0  0  0  0  0  0  0  0  0  0
   -1.7360   -2.2357    0.3147 H   0  0  0  0  0  0  0  0  0  0  0  0
   -1.2215   -2.0762   -1.6581 C   0  0  0  0  0  0  0  0  0  0  0  0
   -1.3184   -1.3154   -2.4618 H   0  0  0  0  0  0  0  0  0  0  0  0
   -1.8192   -2.9555   -1.9817 H   0  0  0  0  0  0  0  0  0  0  0  0
    0.2549   -2.5185   -1.5435 C   0  0  2  0  0  0  0  0  0  0  0  0
    0.4999   -3.0118   -2.5116 H   0  0  0  0  0  0  0  0  0  0  0  0
    0.4681   -3.5348   -0.4193 C   0  0  0  0  0  0  0  0  0  0  0  0
    1.4743   -3.9924   -0.4659 H   0  0  0  0  0  0  0  0  0  0  0  0
   -0.2636   -4.3608   -0.5166 H   0  0  0  0  0  0  0  0  0  0  0  0
    0.3556   -3.0840    0.5886 H   0  0  0  0  0  0  0  0  0  0  0  0
    1.1001   -1.3058   -1.3602 N   0  0  0  0  0  0  0  0  0  0  0  0
    1.0012   -0.7301   -2.2101 H   0  0  0  0  0  0  0  0  0  0  0  0
    2.5599   -1.4847   -1.1238 C   0  0  1  0  0  0  0  0  0  0  0  0
    2.6625   -2.0196   -0.1577 H   0  0  0  0  0  0  0  0  0  0  0  0
    3.2293   -2.3180   -2.2243 C   0  0  0  0  0  0  0  0  0  0  0  0
    2.7704   -3.3199   -2.3302 H   0  0  0  0  0  0  0  0  0  0  0  0
    4.3023   -2.4735   -1.9987 H   0  0  0  0  0  0  0  0  0  0  0  0
    3.1648   -1.8053   -3.2075 H   0  0  0  0  0  0  0  0  0  0  0  0
    3.2582   -0.1139   -1.0084 C   0  0  0  0  0  0  0  0  0  0  0  0
    3.0190    0.4869   -1.9150 H   0  0  0  0  0  0  0  0  0  0  0  0
    4.3441   -0.3167   -1.0979 H   0  0  0  0  0  0  0  0  0  0  0  0
    3.1152    0.7722    0.2607 C   0  0  0  0  0  0  0  0  0  0  0  0
    3.2883   -0.0567    1.5419 C   0  0  0  0  0  0  0  0  0  0  0  0
    3.3298    0.6053    2.4312 H   0  0  0  0  0  0  0  0  0  0  0  0
    4.2379   -0.6248    1.5114 H   0  0  0  0  0  0  0  0  0  0  0  0
    2.4573   -0.7729    1.7053 H   0  0  0  0  0  0  0  0  0  0  0  0
    4.2109    1.8556    0.2047 C   0  0  0  0  0  0  0  0  0  0  0  0
    4.2000    2.4150   -0.7518 H   0  0  0  0  0  0  0  0  0  0  0  0
    5.2135    1.3971    0.3082 H   0  0  0  0  0  0  0  0  0  0  0  0
    4.0904    2.5817    1.0345 H   0  0  0  0  0  0  0  0  0  0  0  0
    1.7540    1.4164    0.3508 N   0  0  0  0  0  0  0  0  0  0  0  0
    1.6782    1.8283    1.2937 H   0  0  0  0  0  0  0  0  0  0  0  0
    1.4224    2.4527   -0.6353 C   0  0  0  0  0  0  0  0  0  0  0  0
    1.6616    2.0637   -1.6480 H   0  0  0  0  0  0  0  0  0  0  0  0
    2.0425    3.3643   -0.4989 H   0  0  0  0  0  0  0  0  0  0  0  0
   -0.0623    2.8873   -0.6233 C   0  0  1  0  0  0  0  0  0  0  0  0
   -0.3226    3.2255    0.4042 H   0  0  0  0  0  0  0  0  0  0  0  0
   -0.2080    4.0526   -1.6116 C   0  0  0  0  0  0  0  0  0  0  0  0
    0.0558    3.7232   -2.6392 H   0  0  0  0  0  0  0  0  0  0  0  0
    0.4790    4.8798   -1.3448 H   0  0  0  0  0  0  0  0  0  0  0  0
   -1.2304    4.4642   -1.6393 H   0  0  0  0  0  0  0  0  0  0  0  0
   -0.9411    1.7260   -0.9210 N   0  0  0  0  0  0  0  0  0  0  0  0
   -0.9406    1.5792   -1.9416 H   0  0  0  0  0  0  0  0  0  0  0  0
   -2.3641    1.7266   -0.4529 C   0  0  1  0  0  0  0  0  0  0  0  0
   -2.3211    1.5970    0.6499 H   0  0  0  0  0  0  0  0  0  0  0  0
   -3.1488    3.0158   -0.7268 C   0  0  0  0  0  0  0  0  0  0  0  0
   -2.6900    3.8966   -0.2396 H   0  0  0  0  0  0  0  0  0  0  0  0
   -4.1707    2.9175   -0.3106 H   0  0  0  0  0  0  0  0  0  0  0  0
   -3.2460    3.2188   -1.8135 H   0  0  0  0  0  0  0  0  0  0  0  0
   -3.0978    0.5194   -1.0885 C   0  0  0  0  0  0  0  0  0  0  0  0
   -4.1675    0.7949   -1.1706 H   0  0  0  0  0  0  0  0  0  0  0  0
   -2.7630    0.4099   -2.1455 H   0  0  0  0  0  0  0  0  0  0  0  0
   -3.0934   -0.8686   -0.3936 C   0  0  0  0  0  0  0  0  0  0  0  0
   -3.4977   -0.7390    1.0833 C   0  0  0  0  0  0  0  0  0  0  0  0
   -3.5967   -1.7399    1.5512 H   0  0  0  0  0  0  0  0  0  0  0  0
   -4.4790   -0.2346    1.1722 H   0  0  0  0  0  0  0  0  0  0  0  0
   -2.7594   -0.1593    1.6727 H   0  0  0  0  0  0  0  0  0  0  0  0
   -4.1069   -1.7735   -1.1202 C   0  0  0  0  0  0  0  0  0  0  0  0
   -3.9185   -1.8260   -2.2110 H   0  0  0  0  0  0  0  0  0  0  0  0
   -5.1354   -1.3879   -0.9811 H   0  0  0  0  0  0  0  0  0  0  0  0
   -4.0816   -2.8041   -0.7115 H   0  0  0  0  0  0  0  0  0  0  0  0
  1 54  1  0  0  0  0
  1  2  1  0  0  0  0
  3  6  1  0  0  0  0
  3  1  1  0  0  0  0
  4  3  1  0  0  0  0
  5  3  1  0  0  0  0
  6  7  1  6  0  0  0
  6 12  1  0  0  0  0
  6  8  1  0  0  0  0
  8 11  1  0  0  0  0
  9  8  1  0  0  0  0
 10  8  1  0  0  0  0
 12 14  1  0  0  0  0
 13 12  1  0  0  0  0
 14 20  1  0  0  0  0
 14 15  1  1  0  0  0
 16 18  1  0  0  0  0
 16 14  1  0  0  0  0
 17 16  1  0  0  0  0
 19 16  1  0  0  0  0
 20 23  1  0  0  0  0
 21 20  1  0  0  0  0
 22 20  1  0  0  0  0
 23 32  1  0  0  0  0
 23 24  1  0  0  0  0
 24 27  1  0  0  0  0
 24 25  1  0  0  0  0
 26 24  1  0  0  0  0
 28 23  1  0  0  0  0
 28 30  1  0  0  0  0
 28 31  1  0  0  0  0
 29 28  1  0  0  0  0
 32 33  1  0  0  0  0
 34 37  1  0  0  0  0
 34 36  1  0  0  0  0
 34 32  1  0  0  0  0
 35 34  1  0  0  0  0
 37 38  1  1  0  0  0
 39 41  1  0  0  0  0
 39 37  1  0  0  0  0
 40 39  1  0  0  0  0
 42 39  1  0  0  0  0
 43 37  1  0  0  0  0
 43 45  1  0  0  0  0
 44 43  1  0  0  0  0
 45 46  1  1  0  0  0
 47 45  1  0  0  0  0
 47 49  1  0  0  0  0
 47 48  1  0  0  0  0
 50 47  1  0  0  0  0
 51 45  1  0  0  0  0
 51 54  1  0  0  0  0
 52 51  1  0  0  0  0
 53 51  1  0  0  0  0
 54 55  1  0  0  0  0
 55 57  1  0  0  0  0
 55 56  1  0  0  0  0
 55 58  1  0  0  0  0
 59 61  1  0  0  0  0
 59 62  1  0  0  0  0
 59 54  1  0  0  0  0
 60 59  1  0  0  0  0
M  END
