1,5,9,10
 OpenBabel05122313063D

 56 56  0  0  0  0  0  0  0  0999 V2000
    1.0884   -1.6957   -1.3218 N   0  0  0  0  0  0  0  0  0  0  0  0
    1.7245   -2.8393   -0.5981 C   0  0  0  0  0  0  0  0  0  0  0  0
    2.6809   -2.4669   -0.1904 H   0  0  0  0  0  0  0  0  0  0  0  0
    2.0070   -3.6074   -1.3533 H   0  0  0  0  0  0  0  0  0  0  0  0
    0.6125   -1.3399    1.8119 N   0  0  0  0  0  0  0  0  0  0  0  0
    0.8974   -3.5238    0.4780 C   0  0  0  0  0  0  0  0  0  0  0  0
    0.2195   -4.2791    0.0298 H   0  0  0  0  0  0  0  0  0  0  0  0
    1.6085   -4.1064    1.0982 H   0  0  0  0  0  0  0  0  0  0  0  0
    0.4575    1.8996    1.4473 N   0  0  0  0  0  0  0  0  0  0  0  0
    0.9516    1.5389   -1.6998 N   0  0  0  0  0  0  0  0  0  0  0  0
   -0.1259    0.4645    3.4821 C   0  0  0  0  0  0  0  0  0  0  0  0
   -0.7989    0.5298    4.3615 H   0  0  0  0  0  0  0  0  0  0  0  0
    0.8956    0.5659    3.8999 H   0  0  0  0  0  0  0  0  0  0  0  0
   -0.4880    1.6148    2.5686 C   0  0  0  0  0  0  0  0  0  0  0  0
   -0.5797    2.5489    3.1680 H   0  0  0  0  0  0  0  0  0  0  0  0
   -1.4827    1.4237    2.1190 H   0  0  0  0  0  0  0  0  0  0  0  0
   -0.2255    2.9911    0.6921 C   0  0  0  0  0  0  0  0  0  0  0  0
   -0.5837    3.7530    1.4218 H   0  0  0  0  0  0  0  0  0  0  0  0
   -1.1313    2.5331    0.2515 H   0  0  0  0  0  0  0  0  0  0  0  0
    0.6011    3.7033   -0.3662 C   0  0  0  0  0  0  0  0  0  0  0  0
    1.2460    4.4741    0.1027 H   0  0  0  0  0  0  0  0  0  0  0  0
   -0.1105    4.2695   -1.0019 H   0  0  0  0  0  0  0  0  0  0  0  0
    1.7420   -0.2614   -3.3448 C   0  0  0  0  0  0  0  0  0  0  0  0
    0.7383   -0.3485   -3.8082 H   0  0  0  0  0  0  0  0  0  0  0  0
    2.4502   -0.3291   -4.1960 H   0  0  0  0  0  0  0  0  0  0  0  0
    2.0562   -1.4276   -2.4345 C   0  0  0  0  0  0  0  0  0  0  0  0
    3.0568   -1.2889   -1.9807 H   0  0  0  0  0  0  0  0  0  0  0  0
    2.1153   -2.3592   -3.0417 H   0  0  0  0  0  0  0  0  0  0  0  0
   -0.1867   -2.1482   -1.9276 C   0  0  0  0  0  0  0  0  0  0  0  0
   -0.0078   -3.0161   -2.6004 H   0  0  0  0  0  0  0  0  0  0  0  0
   -0.6445   -1.3310   -2.5094 H   0  0  0  0  0  0  0  0  0  0  0  0
   -0.9072   -2.4412   -1.1480 H   0  0  0  0  0  0  0  0  0  0  0  0
    1.7206    2.4088    2.0377 C   0  0  0  0  0  0  0  0  0  0  0  0
    2.4520    2.6520    1.2538 H   0  0  0  0  0  0  0  0  0  0  0  0
    2.1840    1.6291    2.6635 H   0  0  0  0  0  0  0  0  0  0  0  0
    1.5125    3.3066    2.6606 H   0  0  0  0  0  0  0  0  0  0  0  0
    0.0297   -2.6393    1.3577 C   0  0  0  0  0  0  0  0  0  0  0  0
   -0.2517   -3.2291    2.2595 H   0  0  0  0  0  0  0  0  0  0  0  0
   -0.9188   -2.3806    0.8507 H   0  0  0  0  0  0  0  0  0  0  0  0
   -0.3575   -0.8948    2.8611 C   0  0  0  0  0  0  0  0  0  0  0  0
   -0.3511   -1.6702    3.6602 H   0  0  0  0  0  0  0  0  0  0  0  0
   -1.3655   -0.9163    2.4018 H   0  0  0  0  0  0  0  0  0  0  0  0
    1.9254   -1.5700    2.4660 C   0  0  0  0  0  0  0  0  0  0  0  0
    1.8086   -2.2667    3.3255 H   0  0  0  0  0  0  0  0  0  0  0  0
    2.3378   -0.6136    2.8285 H   0  0  0  0  0  0  0  0  0  0  0  0
    2.6577   -1.9961    1.7623 H   0  0  0  0  0  0  0  0  0  0  0  0
    1.5131    2.8368   -1.2182 C   0  0  0  0  0  0  0  0  0  0  0  0
    1.8247    3.4339   -2.1050 H   0  0  0  0  0  0  0  0  0  0  0  0
    2.4365    2.5617   -0.6745 H   0  0  0  0  0  0  0  0  0  0  0  0
    1.9649    1.0911   -2.7054 C   0  0  0  0  0  0  0  0  0  0  0  0
    2.9438    1.0960   -2.1883 H   0  0  0  0  0  0  0  0  0  0  0  0
    2.0044    1.8720   -3.4984 H   0  0  0  0  0  0  0  0  0  0  0  0
   -0.3340    1.7650   -2.3985 C   0  0  0  0  0  0  0  0  0  0  0  0
   -0.2015    2.4890   -3.2328 H   0  0  0  0  0  0  0  0  0  0  0  0
   -1.0955    2.1528   -1.7037 H   0  0  0  0  0  0  0  0  0  0  0  0
   -0.7176    0.8156   -2.8090 H   0  0  0  0  0  0  0  0  0  0  0  0
  1  2  1  0  0  0  0
  2  3  1  0  0  0  0
  2  6  1  0  0  0  0
  4  2  1  0  0  0  0
  5 43  1  0  0  0  0
  5 40  1  0  0  0  0
  6  8  1  0  0  0  0
  6 37  1  0  0  0  0
  7  6  1  0  0  0  0
  9 33  1  0  0  0  0
  9 14  1  0  0  0  0
 10 47  1  0  0  0  0
 11 13  1  0  0  0  0
 11 12  1  0  0  0  0
 14 15  1  0  0  0  0
 14 11  1  0  0  0  0
 16 14  1  0  0  0  0
 17 18  1  0  0  0  0
 17  9  1  0  0  0  0
 19 17  1  0  0  0  0
 20 21  1  0  0  0  0
 20 17  1  0  0  0  0
 22 20  1  0  0  0  0
 23 50  1  0  0  0  0
 23 26  1  0  0  0  0
 24 23  1  0  0  0  0
 25 23  1  0  0  0  0
 26 27  1  0  0  0  0
 26  1  1  0  0  0  0
 28 26  1  0  0  0  0
 29  1  1  0  0  0  0
 29 32  1  0  0  0  0
 30 29  1  0  0  0  0
 31 29  1  0  0  0  0
 33 36  1  0  0  0  0
 33 35  1  0  0  0  0
 34 33  1  0  0  0  0
 37  5  1  0  0  0  0
 37 38  1  0  0  0  0
 39 37  1  0  0  0  0
 40 11  1  0  0  0  0
 40 41  1  0  0  0  0
 42 40  1  0  0  0  0
 43 45  1  0  0  0  0
 43 44  1  0  0  0  0
 46 43  1  0  0  0  0
 47 49  1  0  0  0  0
 47 20  1  0  0  0  0
 48 47  1  0  0  0  0
 50 51  1  0  0  0  0
 50 10  1  0  0  0  0
 52 50  1  0  0  0  0
 53 55  1  0  0  0  0
 53 10  1  0  0  0  0
 54 53  1  0  0  0  0
 56 53  1  0  0  0  0
M  END
