1,2,3,4
 OpenBabel05122313063D

 58 61  0  0  1  0  0  0  0  0999 V2000
   -0.1720    0.0311   -1.4240 N   0  0  0  0  0  0  0  0  0  0  0  0
    0.2227   -0.0106    1.6131 N   0  0  0  0  0  0  0  0  0  0  0  0
    2.3769    0.7017   -0.7450 N   0  0  0  0  0  2  0  0  0  0  0  0
    0.1201   -2.5254   -0.5194 N   0  0  0  0  0  2  0  0  0  0  0  0
   -2.9704    2.0845    0.2943 O   0  0  0  0  0  0  0  0  0  0  0  0
   -0.6366    4.1408   -0.8414 O   0  0  0  0  0  0  0  0  0  0  0  0
   -0.8140    3.9775    1.4082 O   0  0  0  0  0  0  0  0  0  0  0  0
   -3.8317   -1.0308    1.6471 O   0  0  0  0  0  0  0  0  0  0  0  0
   -4.1449   -0.5165   -0.5379 O   0  0  0  0  0  0  0  0  0  0  0  0
    1.5773    1.7055   -1.1786 C   0  0  2  0  0  3  0  0  0  0  0  0
    2.1020    2.9286   -1.6270 C   0  0  0  0  0  0  0  0  0  0  0  0
    1.4134    3.7137   -1.9692 H   0  0  0  0  0  0  0  0  0  0  0  0
    3.4905    3.1190   -1.6194 C   0  0  0  0  0  0  0  0  0  0  0  0
    3.9237    4.0670   -1.9714 H   0  0  0  0  0  0  0  0  0  0  0  0
    4.3146    2.0780   -1.1653 C   0  0  0  0  0  0  0  0  0  0  0  0
    5.4094    2.1782   -1.1502 H   0  0  0  0  0  0  0  0  0  0  0  0
    3.7127    0.8898   -0.7385 C   0  0  0  0  0  0  0  0  0  0  0  0
    4.3168    0.0409   -0.3787 H   0  0  0  0  0  0  0  0  0  0  0  0
    0.0673    1.4455   -1.1424 C   0  0  2  0  0  0  0  0  0  0  0  0
   -0.4026    2.1021   -1.9113 H   0  0  0  0  0  0  0  0  0  0  0  0
   -0.5405    1.9380    0.2132 C   0  0  1  0  0  0  0  0  0  0  0  0
   -1.9730    1.3921    0.2887 C   0  0  0  0  0  0  0  0  0  0  0  0
   -1.9661   -0.1366    0.3677 C   0  0  1  0  0  0  0  0  0  0  0  0
   -1.3915   -0.6488   -0.9977 C   0  0  2  0  0  0  0  0  0  0  0  0
   -2.2145   -0.4941   -1.7330 H   0  0  0  0  0  0  0  0  0  0  0  0
   -1.1221   -2.1521   -0.9063 C   0  0  2  0  0  3  0  0  0  0  0  0
   -2.1296   -3.0918   -1.1738 C   0  0  0  0  0  0  0  0  0  0  0  0
   -3.1201   -2.7443   -1.5005 H   0  0  0  0  0  0  0  0  0  0  0  0
   -1.8477   -4.4568   -1.0284 C   0  0  0  0  0  0  0  0  0  0  0  0
   -2.6205   -5.2120   -1.2349 H   0  0  0  0  0  0  0  0  0  0  0  0
   -0.5596   -4.8396   -0.6240 C   0  0  0  0  0  0  0  0  0  0  0  0
   -0.2880   -5.8983   -0.5052 H   0  0  0  0  0  0  0  0  0  0  0  0
    0.3892   -3.8401   -0.3832 C   0  0  0  0  0  0  0  0  0  0  0  0
    1.4158   -4.0908   -0.0697 H   0  0  0  0  0  0  0  0  0  0  0  0
   -1.1497   -0.5375    1.6189 C   0  0  0  0  0  0  0  0  0  0  0  0
   -1.7128   -0.1758    2.5110 H   0  0  0  0  0  0  0  0  0  0  0  0
   -1.1128   -1.6415    1.7009 H   0  0  0  0  0  0  0  0  0  0  0  0
    0.2137    1.4547    1.4760 C   0  0  0  0  0  0  0  0  0  0  0  0
    1.2621    1.8138    1.4465 H   0  0  0  0  0  0  0  0  0  0  0  0
   -0.2703    1.9255    2.3624 H   0  0  0  0  0  0  0  0  0  0  0  0
    0.1337   -0.2808   -2.8206 C   0  0  0  0  0  0  0  0  0  0  0  0
   -0.6053    0.1784   -3.5210 H   0  0  0  0  0  0  0  0  0  0  0  0
    0.1314   -1.3759   -2.9761 H   0  0  0  0  0  0  0  0  0  0  0  0
    1.1415    0.0919   -3.0823 H   0  0  0  0  0  0  0  0  0  0  0  0
    0.8952   -0.3791    2.8690 C   0  0  0  0  0  0  0  0  0  0  0  0
    0.3729    0.0498    3.7574 H   0  0  0  0  0  0  0  0  0  0  0  0
    1.9375   -0.0079    2.8522 H   0  0  0  0  0  0  0  0  0  0  0  0
    0.9174   -1.4808    2.9660 H   0  0  0  0  0  0  0  0  0  0  0  0
   -0.6504    3.4761    0.1767 C   0  0  0  0  0  0  0  0  0  0  0  0
   -1.0653    5.3953    1.4798 C   0  0  0  0  0  0  0  0  0  0  0  0
   -1.1358    5.6354    2.5542 H   0  0  0  0  0  0  0  0  0  0  0  0
   -2.0141    5.6357    0.9619 H   0  0  0  0  0  0  0  0  0  0  0  0
   -0.2416    5.9598    1.0018 H   0  0  0  0  0  0  0  0  0  0  0  0
   -3.4099   -0.6274    0.5827 C   0  0  0  0  0  0  0  0  0  0  0  0
   -5.5484   -0.8111   -0.3926 C   0  0  0  0  0  0  0  0  0  0  0  0
   -5.9870   -0.6967   -1.3985 H   0  0  0  0  0  0  0  0  0  0  0  0
   -6.0116   -0.0988    0.3172 H   0  0  0  0  0  0  0  0  0  0  0  0
   -5.6924   -1.8409   -0.0113 H   0  0  0  0  0  0  0  0  0  0  0  0
  1 19  1  0  0  0  0
  1 24  1  0  0  0  0
  2 35  1  0  0  0  0
  2 45  1  0  0  0  0
  3 17  1  0  0  0  0
  4 33  1  0  0  0  0
  6 49  2  0  0  0  0
  7 50  1  0  0  0  0
  9 55  1  0  0  0  0
  9 54  1  0  0  0  0
 10 11  1  1  0  0  0
 10 19  1  0  0  0  0
 10  3  1  0  0  0  0
 11 13  2  0  0  0  0
 12 11  1  0  0  0  0
 13 15  1  0  0  0  0
 14 13  1  0  0  0  0
 15 16  1  0  0  0  0
 15 17  2  0  0  0  0
 17 18  1  0  0  0  0
 19 20  1  6  0  0  0
 19 21  1  0  0  0  0
 21 49  1  1  0  0  0
 21 22  1  0  0  0  0
 21 38  1  0  0  0  0
 22  5  2  0  0  0  0
 22 23  1  0  0  0  0
 23 54  1  1  0  0  0
 23 35  1  0  0  0  0
 24 25  1  6  0  0  0
 24 26  1  0  0  0  0
 24 23  1  0  0  0  0
 26 27  1  1  0  0  0
 26  4  1  0  0  0  0
 27 29  2  0  0  0  0
 28 27  1  0  0  0  0
 29 31  1  0  0  0  0
 30 29  1  0  0  0  0
 31 32  1  0  0  0  0
 31 33  2  0  0  0  0
 33 34  1  0  0  0  0
 35 37  1  0  0  0  0
 35 36  1  0  0  0  0
 38  2  1  0  0  0  0
 38 40  1  0  0  0  0
 39 38  1  0  0  0  0
 41  1  1  0  0  0  0
 42 41  1  0  0  0  0
 43 41  1  0  0  0  0
 44 41  1  0  0  0  0
 45 48  1  0  0  0  0
 45 46  1  0  0  0  0
 47 45  1  0  0  0  0
 49  7  1  0  0  0  0
 50 51  1  0  0  0  0
 52 50  1  0  0  0  0
 53 50  1  0  0  0  0
 54  8  2  0  0  0  0
 55 58  1  0  0  0  0
 55 57  1  0  0  0  0
 56 55  1  0  0  0  0
M  END
