1,2,4,6
 OpenBabel05122313063D

 37 40  0  0  1  0  0  0  0  0999 V2000
   -0.1949    1.2197   -0.2035 N   0  0  0  0  0  2  0  0  0  0  0  0
   -1.9377   -0.4911    0.2713 N   0  0  0  0  0  2  0  0  0  0  0  0
    1.8163    0.4891    1.6120 N   0  0  0  0  0  0  0  0  0  0  0  0
    0.8521   -0.4661    1.5106 N   0  0  0  0  0  2  0  0  0  0  0  0
    2.5722    0.3740   -0.6235 N   0  0  0  0  0  0  0  0  0  0  0  0
    1.6972   -0.5852   -1.0068 N   0  0  0  0  0  2  0  0  0  0  0  0
    2.1189    1.2804    0.4172 C   0  0  1  0  0  0  0  0  0  0  0  0
    2.9416    1.9747    0.6625 H   0  0  0  0  0  0  0  0  0  0  0  0
    0.8708    2.0368    0.0001 C   0  0  2  0  0  3  0  0  0  0  0  0
    0.7611    3.4247   -0.0688 C   0  0  0  0  0  0  0  0  0  0  0  0
    1.6474    4.0588    0.0805 H   0  0  0  0  0  0  0  0  0  0  0  0
   -0.5092    3.9895   -0.3142 C   0  0  0  0  0  0  0  0  0  0  0  0
   -0.6263    5.0784   -0.4048 H   0  0  0  0  0  0  0  0  0  0  0  0
   -1.6293    3.1468   -0.3638 C   0  0  0  0  0  0  0  0  0  0  0  0
   -2.6408    3.5683   -0.4504 H   0  0  0  0  0  0  0  0  0  0  0  0
   -1.4603    1.7569   -0.2621 C   0  0  0  0  0  0  0  0  0  0  0  0
   -2.4796    0.7392   -0.0247 C   0  0  2  0  0  3  0  0  0  0  0  0
   -3.8669    0.9569    0.0135 C   0  0  0  0  0  0  0  0  0  0  0  0
   -4.2718    1.9481   -0.2347 H   0  0  0  0  0  0  0  0  0  0  0  0
   -4.7145   -0.1003    0.3595 C   0  0  0  0  0  0  0  0  0  0  0  0
   -5.8043    0.0465    0.3876 H   0  0  0  0  0  0  0  0  0  0  0  0
   -4.1478   -1.3511    0.6589 C   0  0  0  0  0  0  0  0  0  0  0  0
   -4.7763   -2.2137    0.9221 H   0  0  0  0  0  0  0  0  0  0  0  0
   -2.7591   -1.5090    0.5980 C   0  0  0  0  0  0  0  0  0  0  0  0
   -2.2461   -2.4723    0.7595 H   0  0  0  0  0  0  0  0  0  0  0  0
    2.4512    0.4285    2.8235 C   0  0  0  0  0  3  0  0  0  0  0  0
    3.2642    1.1179    3.0756 H   0  0  0  0  0  0  0  0  0  0  0  0
    1.8497   -0.6057    3.5352 C   0  0  0  0  0  0  0  0  0  0  0  0
    2.0956   -0.9355    4.5494 H   0  0  0  0  0  0  0  0  0  0  0  0
    0.8635   -1.1400    2.6702 C   0  0  0  0  0  0  0  0  0  0  0  0
    0.1905   -1.9967    2.7826 H   0  0  0  0  0  0  0  0  0  0  0  0
    3.7613    0.2686   -1.2955 C   0  0  0  0  0  3  0  0  0  0  0  0
    4.5862    0.9649   -1.1107 H   0  0  0  0  0  0  0  0  0  0  0  0
    3.6229   -0.8143   -2.1602 C   0  0  0  0  0  0  0  0  0  0  0  0
    4.3727   -1.1933   -2.8616 H   0  0  0  0  0  0  0  0  0  0  0  0
    2.3167   -1.3186   -1.9429 C   0  0  0  0  0  0  0  0  0  0  0  0
    1.7725   -2.1519   -2.3987 H   0  0  0  0  0  0  0  0  0  0  0  0
  1  9  1  0  0  0  0
  2 24  1  0  0  0  0
  3 26  1  0  0  0  0
  4  3  1  0  0  0  0
  4 30  1  0  0  0  0
  5  7  1  0  0  0  0
  6  5  1  0  0  0  0
  7  8  1  1  0  0  0
  7  3  1  0  0  0  0
  9  7  1  1  0  0  0
 10  9  1  0  0  0  0
 10 11  1  0  0  0  0
 12 10  2  0  0  0  0
 13 12  1  0  0  0  0
 14 12  1  0  0  0  0
 14 16  2  0  0  0  0
 15 14  1  0  0  0  0
 16  1  1  0  0  0  0
 17 16  1  1  0  0  0
 17 18  1  0  0  0  0
 17  2  1  0  0  0  0
 18 20  2  0  0  0  0
 19 18  1  0  0  0  0
 20 21  1  0  0  0  0
 20 22  1  0  0  0  0
 22 23  1  0  0  0  0
 24 22  2  0  0  0  0
 24 25  1  0  0  0  0
 26 27  1  0  0  0  0
 26 28  1  0  0  0  0
 28 29  1  0  0  0  0
 30 31  1  0  0  0  0
 30 28  2  0  0  0  0
 32 33  1  0  0  0  0
 32  5  1  0  0  0  0
 34 36  2  0  0  0  0
 34 32  1  0  0  0  0
 35 34  1  0  0  0  0
 36  6  1  0  0  0  0
 37 36  1  0  0  0  0
M  END
