1,4,5,8
 OpenBabel05122313063D

 70 73  0  0  1  0  0  0  0  0999 V2000
    1.2136   -1.2064    0.0773 N   0  0  0  0  0  2  0  0  0  0  0  0
    3.5827   -1.9297    0.1137 N   0  0  0  0  0  0  0  0  0  0  0  0
    3.0318    0.2038   -0.0516 N   0  0  0  0  0  0  0  0  0  0  0  0
    2.1700    1.2401   -0.1134 N   0  0  0  0  0  2  0  0  0  0  0  0
   -1.2140   -1.2047   -0.1044 N   0  0  0  0  0  2  0  0  0  0  0  0
   -3.5833   -1.9267   -0.1483 N   0  0  0  0  0  0  0  0  0  0  0  0
   -3.0319    0.2048    0.0392 N   0  0  0  0  0  0  0  0  0  0  0  0
   -2.1699    1.2399    0.1156 N   0  0  0  0  0  2  0  0  0  0  0  0
    1.8365    3.6309   -0.2292 C   0  0  0  0  0  0  0  0  0  0  0  0
    1.1596    3.5497   -1.1035 H   0  0  0  0  0  0  0  0  0  0  0  0
    2.4139    4.5705   -0.2901 H   0  0  0  0  0  0  0  0  0  0  0  0
    1.2031    3.6457    0.6803 H   0  0  0  0  0  0  0  0  0  0  0  0
    2.7395    2.4381   -0.1860 C   0  0  1  0  0  3  0  0  0  0  0  0
    4.1615    2.5676   -0.2154 C   0  0  0  0  0  0  0  0  0  0  0  0
    4.5782    3.5822   -0.2808 H   0  0  0  0  0  0  0  0  0  0  0  0
    5.0391    1.4750   -0.1701 C   0  0  0  0  0  0  0  0  0  0  0  0
    6.5169    1.7297   -0.2509 C   0  0  0  0  0  0  0  0  0  0  0  0
    7.0860    1.1352    0.4880 H   0  0  0  0  0  0  0  0  0  0  0  0
    6.7379    2.8006   -0.0861 H   0  0  0  0  0  0  0  0  0  0  0  0
    6.9056    1.4561   -1.2537 H   0  0  0  0  0  0  0  0  0  0  0  0
    4.4532    0.1832   -0.0729 C   0  0  0  0  0  0  0  0  0  0  0  0
    4.7457   -1.2160    0.0362 C   0  0  0  0  0  0  0  0  0  0  0  0
    6.0785   -1.9578    0.1086 C   0  0  0  0  0  0  0  0  0  0  0  0
    6.8203   -1.5836    1.4125 C   0  0  0  0  0  0  0  0  0  0  0  0
    7.7820   -2.1333    1.4820 H   0  0  0  0  0  0  0  0  0  0  0  0
    6.2078   -1.8472    2.2976 H   0  0  0  0  0  0  0  0  0  0  0  0
    7.0461   -0.5012    1.4753 H   0  0  0  0  0  0  0  0  0  0  0  0
    6.9539   -1.6455   -1.1245 C   0  0  0  0  0  0  0  0  0  0  0  0
    7.8960   -2.2302   -1.0817 H   0  0  0  0  0  0  0  0  0  0  0  0
    7.2293   -0.5775   -1.1892 H   0  0  0  0  0  0  0  0  0  0  0  0
    6.4241   -1.9183   -2.0591 H   0  0  0  0  0  0  0  0  0  0  0  0
    5.8099   -3.4754    0.1310 C   0  0  0  0  0  0  0  0  0  0  0  0
    6.7738   -4.0206    0.1901 H   0  0  0  0  0  0  0  0  0  0  0  0
    5.2729   -3.8006   -0.7805 H   0  0  0  0  0  0  0  0  0  0  0  0
    5.1832   -3.7601    0.9966 H   0  0  0  0  0  0  0  0  0  0  0  0
    2.5621   -1.0581    0.0566 C   0  0  0  0  0  0  0  0  0  0  0  0
    0.6920   -2.5500    0.2919 C   0  0  0  0  0  0  0  0  0  0  0  0
    0.6274   -2.7572    1.3848 H   0  0  0  0  0  0  0  0  0  0  0  0
    1.3645   -3.3143   -0.1502 H   0  0  0  0  0  0  0  0  0  0  0  0
   -0.6932   -2.5464   -0.3327 C   0  0  0  0  0  0  0  0  0  0  0  0
   -0.6288   -2.7425   -1.4277 H   0  0  0  0  0  0  0  0  0  0  0  0
   -1.3662   -3.3147    0.1015 H   0  0  0  0  0  0  0  0  0  0  0  0
   -2.5625   -1.0561   -0.0816 C   0  0  1  0  0  3  0  0  0  0  0  0
   -4.7462   -1.2132   -0.0692 C   0  0  0  0  0  0  0  0  0  0  0  0
   -6.0783   -1.9594   -0.0913 C   0  0  0  0  0  0  0  0  0  0  0  0
   -5.8116   -3.4599   -0.3217 C   0  0  0  0  0  0  0  0  0  0  0  0
   -6.7751   -4.0087   -0.3355 H   0  0  0  0  0  0  0  0  0  0  0  0
   -5.1707   -3.8816    0.4750 H   0  0  0  0  0  0  0  0  0  0  0  0
   -5.2905   -3.6310   -1.2829 H   0  0  0  0  0  0  0  0  0  0  0  0
   -6.7939   -1.8037    1.2703 C   0  0  0  0  0  0  0  0  0  0  0  0
   -7.7548   -2.3589    1.2679 H   0  0  0  0  0  0  0  0  0  0  0  0
   -7.0167   -0.7464    1.5129 H   0  0  0  0  0  0  0  0  0  0  0  0
   -6.1648   -2.2070    2.0887 H   0  0  0  0  0  0  0  0  0  0  0  0
   -6.9777   -1.4524   -1.2397 C   0  0  0  0  0  0  0  0  0  0  0  0
   -7.9196   -2.0379   -1.2740 H   0  0  0  0  0  0  0  0  0  0  0  0
   -6.4667   -1.5685   -2.2164 H   0  0  0  0  0  0  0  0  0  0  0  0
   -7.2528   -0.3885   -1.1243 H   0  0  0  0  0  0  0  0  0  0  0  0
   -4.4535    0.1851    0.0517 C   0  0  0  0  0  0  0  0  0  0  0  0
   -5.0391    1.4756    0.1638 C   0  0  0  0  0  0  0  0  0  0  0  0
   -6.5181    1.7366    0.1654 C   0  0  0  0  0  0  0  0  0  0  0  0
   -7.0677    1.0329    0.8180 H   0  0  0  0  0  0  0  0  0  0  0  0
   -6.9357    1.6227   -0.8565 H   0  0  0  0  0  0  0  0  0  0  0  0
   -6.7316    2.7682    0.5014 H   0  0  0  0  0  0  0  0  0  0  0  0
   -4.1609    2.5655    0.2474 C   0  0  0  0  0  0  0  0  0  0  0  0
   -4.5773    3.5783    0.3374 H   0  0  0  0  0  0  0  0  0  0  0  0
   -2.7390    2.4362    0.2148 C   0  0  0  0  0  0  0  0  0  0  0  0
   -1.8359    3.6278    0.2828 C   0  0  0  0  0  0  0  0  0  0  0  0
   -1.1617    3.5305    1.1577 H   0  0  0  0  0  0  0  0  0  0  0  0
   -2.4134    4.5663    0.3588 H   0  0  0  0  0  0  0  0  0  0  0  0
   -1.1995    3.6592   -0.6242 H   0  0  0  0  0  0  0  0  0  0  0  0
  1 37  1  0  0  0  0
  3 36  1  0  0  0  0
  4  3  1  0  0  0  0
  6 43  1  0  0  0  0
  6 44  2  0  0  0  0
  7 58  1  0  0  0  0
  7  8  1  0  0  0  0
  8 66  1  0  0  0  0
  9 12  1  0  0  0  0
 10  9  1  0  0  0  0
 11  9  1  0  0  0  0
 13  9  1  1  0  0  0
 13  4  1  0  0  0  0
 14 13  1  0  0  0  0
 14 16  2  0  0  0  0
 15 14  1  0  0  0  0
 16 21  1  0  0  0  0
 17 16  1  0  0  0  0
 17 19  1  0  0  0  0
 17 18  1  0  0  0  0
 20 17  1  0  0  0  0
 21  3  1  0  0  0  0
 21 22  2  0  0  0  0
 22 23  1  0  0  0  0
 22  2  1  0  0  0  0
 23 32  1  0  0  0  0
 23 24  1  0  0  0  0
 24 27  1  0  0  0  0
 24 25  1  0  0  0  0
 24 26  1  0  0  0  0
 28 29  1  0  0  0  0
 28 23  1  0  0  0  0
 30 28  1  0  0  0  0
 31 28  1  0  0  0  0
 32 33  1  0  0  0  0
 32 35  1  0  0  0  0
 34 32  1  0  0  0  0
 36  1  1  0  0  0  0
 36  2  2  0  0  0  0
 37 38  1  0  0  0  0
 39 37  1  0  0  0  0
 40  5  1  0  0  0  0
 40 42  1  0  0  0  0
 40 37  1  0  0  0  0
 41 40  1  0  0  0  0
 43  5  1  1  0  0  0
 43  7  1  0  0  0  0
 44 58  1  0  0  0  0
 45 44  1  0  0  0  0
 45 50  1  0  0  0  0
 46 45  1  0  0  0  0
 46 48  1  0  0  0  0
 47 46  1  0  0  0  0
 49 46  1  0  0  0  0
 50 52  1  0  0  0  0
 50 53  1  0  0  0  0
 51 50  1  0  0  0  0
 54 57  1  0  0  0  0
 54 45  1  0  0  0  0
 55 54  1  0  0  0  0
 56 54  1  0  0  0  0
 58 59  2  0  0  0  0
 59 60  1  0  0  0  0
 59 64  1  0  0  0  0
 60 63  1  0  0  0  0
 60 61  1  0  0  0  0
 62 60  1  0  0  0  0
 64 65  1  0  0  0  0
 66 64  2  0  0  0  0
 66 67  1  0  0  0  0
 67 69  1  0  0  0  0
 67 68  1  0  0  0  0
 70 67  1  0  0  0  0
M  END
