1,2,3,4
 OpenBabel05122313063D

 50 50  0  0  1  0  0  0  0  0999 V2000
   -1.2389   -1.3122   -0.6863 N   0  0  0  0  0  2  0  0  0  0  0  0
    1.3254   -1.2695   -0.3670 N   0  0  0  0  0  2  0  0  0  0  0  0
    1.3106    1.3184    0.6253 N   0  0  0  0  0  2  0  0  0  0  0  0
   -1.2545    1.2277    0.4305 N   0  0  0  0  0  2  0  0  0  0  0  0
   -2.4837   -1.4297   -0.3525 C   0  0  2  0  0  3  0  0  0  0  0  0
   -3.1260   -0.3495    0.4709 C   0  0  0  0  0  0  0  0  0  0  0  0
   -2.9282   -0.5744    1.5427 H   0  0  0  0  0  0  0  0  0  0  0  0
   -4.2239   -0.4186    0.3446 H   0  0  0  0  0  0  0  0  0  0  0  0
   -2.6910    1.0993    0.1608 C   0  0  0  0  0  0  0  0  0  0  0  0
   -0.7647    2.4573    1.0130 C   0  0  0  0  0  0  0  0  0  0  0  0
   -1.4260    2.8313    1.8203 H   0  0  0  0  0  0  0  0  0  0  0  0
   -0.7457    3.2551    0.2274 H   0  0  0  0  0  0  0  0  0  0  0  0
    0.6294    2.2078    1.5584 C   0  0  0  0  0  0  0  0  0  0  0  0
    1.1742    3.1554    1.7268 H   0  0  0  0  0  0  0  0  0  0  0  0
    0.5530    1.6608    2.5216 H   0  0  0  0  0  0  0  0  0  0  0  0
    2.5598    1.4090    0.3013 C   0  0  2  0  0  3  0  0  0  0  0  0
    3.1460    0.3374   -0.5712 C   0  0  0  0  0  0  0  0  0  0  0  0
    4.2482    0.4316   -0.5713 H   0  0  0  0  0  0  0  0  0  0  0  0
    2.7972    0.5080   -1.6138 H   0  0  0  0  0  0  0  0  0  0  0  0
    2.7663   -1.1080   -0.1629 C   0  0  0  0  0  0  0  0  0  0  0  0
    0.8013   -2.5443   -0.7965 C   0  0  0  0  0  0  0  0  0  0  0  0
    0.6310   -3.2099    0.0898 H   0  0  0  0  0  0  0  0  0  0  0  0
    1.4990   -3.0847   -1.4656 H   0  0  0  0  0  0  0  0  0  0  0  0
   -0.5144   -2.2743   -1.5090 C   0  0  0  0  0  0  0  0  0  0  0  0
   -0.3104   -1.7794   -2.4815 H   0  0  0  0  0  0  0  0  0  0  0  0
   -1.0813   -3.2056   -1.6900 H   0  0  0  0  0  0  0  0  0  0  0  0
   -3.3717   -2.5810   -0.7173 C   0  0  0  0  0  0  0  0  0  0  0  0
   -4.1005   -2.2505   -1.4884 H   0  0  0  0  0  0  0  0  0  0  0  0
   -3.9625   -2.8709    0.1749 H   0  0  0  0  0  0  0  0  0  0  0  0
   -2.8431   -3.4725   -1.0928 H   0  0  0  0  0  0  0  0  0  0  0  0
   -3.5536    2.0280    1.0379 C   0  0  0  0  0  0  0  0  0  0  0  0
   -3.3844    1.8468    2.1182 H   0  0  0  0  0  0  0  0  0  0  0  0
   -4.6222    1.8317    0.8281 H   0  0  0  0  0  0  0  0  0  0  0  0
   -3.3719    3.0962    0.8150 H   0  0  0  0  0  0  0  0  0  0  0  0
   -2.9442    1.4356   -1.3336 C   0  0  0  0  0  0  0  0  0  0  0  0
   -2.6280    2.4734   -1.5545 H   0  0  0  0  0  0  0  0  0  0  0  0
   -4.0270    1.3496   -1.5529 H   0  0  0  0  0  0  0  0  0  0  0  0
   -2.3788    0.7585   -1.9998 H   0  0  0  0  0  0  0  0  0  0  0  0
    3.4901    2.4892    0.7621 C   0  0  0  0  0  0  0  0  0  0  0  0
    2.9927    3.3728    1.1963 H   0  0  0  0  0  0  0  0  0  0  0  0
    4.1227    2.8141   -0.0882 H   0  0  0  0  0  0  0  0  0  0  0  0
    4.1814    2.0670    1.5238 H   0  0  0  0  0  0  0  0  0  0  0  0
    3.6032   -2.0585   -1.0450 C   0  0  0  0  0  0  0  0  0  0  0  0
    3.4694   -3.1185   -0.7579 H   0  0  0  0  0  0  0  0  0  0  0  0
    4.6760   -1.8223   -0.9112 H   0  0  0  0  0  0  0  0  0  0  0  0
    3.3609   -1.9369   -2.1195 H   0  0  0  0  0  0  0  0  0  0  0  0
    3.1001   -1.3777    1.3284 C   0  0  0  0  0  0  0  0  0  0  0  0
    2.5028   -0.7291    1.9948 H   0  0  0  0  0  0  0  0  0  0  0  0
    4.1818   -1.2126    1.5061 H   0  0  0  0  0  0  0  0  0  0  0  0
    2.8679   -2.4294    1.5859 H   0  0  0  0  0  0  0  0  0  0  0  0
  1  5  1  0  0  0  0
  2 20  1  0  0  0  0
  3 13  1  0  0  0  0
  4 10  1  0  0  0  0
  5 27  1  1  0  0  0
  5  6  1  0  0  0  0
  6  7  1  0  0  0  0
  8  6  1  0  0  0  0
  9  4  1  0  0  0  0
  9  6  1  0  0  0  0
  9 31  1  0  0  0  0
 10 13  1  0  0  0  0
 10 11  1  0  0  0  0
 12 10  1  0  0  0  0
 13 14  1  0  0  0  0
 13 15  1  0  0  0  0
 16  3  1  0  0  0  0
 16 39  1  1  0  0  0
 17 20  1  0  0  0  0
 17 16  1  0  0  0  0
 18 17  1  0  0  0  0
 19 17  1  0  0  0  0
 20 47  1  0  0  0  0
 21  2  1  0  0  0  0
 21 22  1  0  0  0  0
 23 21  1  0  0  0  0
 24 21  1  0  0  0  0
 24  1  1  0  0  0  0
 25 24  1  0  0  0  0
 26 24  1  0  0  0  0
 27 29  1  0  0  0  0
 28 27  1  0  0  0  0
 30 27  1  0  0  0  0
 31 32  1  0  0  0  0
 33 31  1  0  0  0  0
 34 31  1  0  0  0  0
 35  9  1  0  0  0  0
 36 35  1  0  0  0  0
 37 35  1  0  0  0  0
 38 35  1  0  0  0  0
 39 40  1  0  0  0  0
 39 42  1  0  0  0  0
 41 39  1  0  0  0  0
 43 45  1  0  0  0  0
 43 44  1  0  0  0  0
 43 20  1  0  0  0  0
 46 43  1  0  0  0  0
 47 49  1  0  0  0  0
 47 50  1  0  0  0  0
 47 48  1  0  0  0  0
M  END
