3,6,7,8
 OpenBabel05122313063D

 24 23  0  0  0  0  0  0  0  0999 V2000
    1.4583    3.0076    0.0192 O   0  0  0  0  0  0  0  0  0  0  0  0
   -1.4583    3.0077    0.0191 O   0  0  0  0  0  0  0  0  0  0  0  0
    1.8236   -1.9293   -0.1195 N   0  0  0  0  0  0  0  0  0  0  0  0
    1.8387   -2.8363    0.3652 H   0  0  0  0  0  0  0  0  0  0  0  0
    2.0501   -2.1315   -1.1052 H   0  0  0  0  0  0  0  0  0  0  0  0
    1.2838    0.7097   -0.0046 N   0  0  0  0  0  2  0  0  0  0  0  0
   -1.2837    0.7097   -0.0045 N   0  0  0  0  0  2  0  0  0  0  0  0
   -1.8237   -1.9292   -0.1195 N   0  0  0  0  0  0  0  0  0  0  0  0
   -2.0502   -2.1315   -1.1051 H   0  0  0  0  0  0  0  0  0  0  0  0
   -1.8387   -2.8362    0.3652 H   0  0  0  0  0  0  0  0  0  0  0  0
    2.8708   -1.0217    0.4562 C   0  0  0  0  0  0  0  0  0  0  0  0
    3.8925   -1.4146    0.2591 H   0  0  0  0  0  0  0  0  0  0  0  0
    2.7064   -1.0017    1.5519 H   0  0  0  0  0  0  0  0  0  0  0  0
    2.6856    0.3848   -0.1107 C   0  0  0  0  0  0  0  0  0  0  0  0
    3.3061    1.1222    0.4442 H   0  0  0  0  0  0  0  0  0  0  0  0
    3.0418    0.4137   -1.1724 H   0  0  0  0  0  0  0  0  0  0  0  0
    0.7820    1.9799    0.0167 C   0  0  0  0  0  0  0  0  0  0  0  0
   -0.7819    1.9799    0.0167 C   0  0  0  0  0  0  0  0  0  0  0  0
   -2.6855    0.3849   -0.1107 C   0  0  0  0  0  0  0  0  0  0  0  0
   -3.0417    0.4137   -1.1724 H   0  0  0  0  0  0  0  0  0  0  0  0
   -3.3061    1.1223    0.4441 H   0  0  0  0  0  0  0  0  0  0  0  0
   -2.8708   -1.0216    0.4562 C   0  0  0  0  0  0  0  0  0  0  0  0
   -2.7065   -1.0016    1.5519 H   0  0  0  0  0  0  0  0  0  0  0  0
   -3.8926   -1.4145    0.2590 H   0  0  0  0  0  0  0  0  0  0  0  0
  3  4  1  0  0  0  0
  3 11  1  0  0  0  0
  5  3  1  0  0  0  0
  6 17  1  0  0  0  0
  7 18  1  0  0  0  0
  8 10  1  0  0  0  0
  8 22  1  0  0  0  0
  9  8  1  0  0  0  0
 11 13  1  0  0  0  0
 12 11  1  0  0  0  0
 14  6  1  0  0  0  0
 14 15  1  0  0  0  0
 14 11  1  0  0  0  0
 16 14  1  0  0  0  0
 17 18  1  0  0  0  0
 17  1  2  0  0  0  0
 18  2  2  0  0  0  0
 19  7  1  0  0  0  0
 19 21  1  0  0  0  0
 19 22  1  0  0  0  0
 20 19  1  0  0  0  0
 22 23  1  0  0  0  0
 24 22  1  0  0  0  0
M  END
