2,10,19
 OpenBabel05122313063D

 45 46  0  0  1  0  0  0  0  0999 V2000
   -2.2440   -0.7313    1.4867 N   0  0  0  0  0  0  0  0  0  0  0  0
   -1.5724   -0.0436   -0.9659 N   0  0  0  0  0  2  0  0  0  0  0  0
   -0.5386   -3.2010   -1.3040 C   0  0  0  0  0  0  0  0  0  0  0  0
   -0.9891   -4.1940   -1.5300 H   0  0  0  0  0  0  0  0  0  0  0  0
    0.5605   -3.2980   -1.3148 H   0  0  0  0  0  0  0  0  0  0  0  0
   -0.8349   -2.4800   -2.0854 H   0  0  0  0  0  0  0  0  0  0  0  0
   -3.0206    0.4033    0.9088 C   0  0  0  0  0  0  0  0  0  0  0  0
   -2.6371    1.3455    1.3583 H   0  0  0  0  0  0  0  0  0  0  0  0
   -4.1026    0.3285    1.1564 H   0  0  0  0  0  0  0  0  0  0  0  0
    0.3705   -1.4845    2.1533 N   0  0  0  0  0  0  0  0  0  0  0  0
   -2.9671   -2.0281    1.3197 C   0  0  0  0  0  0  0  0  0  0  0  0
   -4.0631   -1.8612    1.2584 H   0  0  0  0  0  0  0  0  0  0  0  0
   -2.7970   -2.6456    2.2226 H   0  0  0  0  0  0  0  0  0  0  0  0
   -3.3008    1.2075   -2.8347 C   0  0  0  0  0  0  0  0  0  0  0  0
    0.7703   -2.8608    1.7691 C   0  0  0  0  0  0  0  0  0  0  0  0
    1.1263   -3.4434    2.6525 H   0  0  0  0  0  0  0  0  0  0  0  0
    1.6153   -2.7691    1.0568 H   0  0  0  0  0  0  0  0  0  0  0  0
   -2.7832    0.4626   -0.5772 C   0  0  1  0  0  3  0  0  0  0  0  0
   -0.9886   -2.7248    0.0238 N   0  0  0  0  0  0  0  0  0  0  0  0
   -3.6588    1.0681   -1.4790 C   0  0  0  0  0  0  0  0  0  0  0  0
   -4.6212    1.4580   -1.1130 H   0  0  0  0  0  0  0  0  0  0  0  0
   -1.2098    0.0887   -2.2694 C   0  0  0  0  0  0  0  0  0  0  0  0
   -0.2112   -0.2877   -2.5401 H   0  0  0  0  0  0  0  0  0  0  0  0
   -2.0412    0.6963   -3.2085 C   0  0  0  0  0  0  0  0  0  0  0  0
   -1.6876    0.7820   -4.2467 H   0  0  0  0  0  0  0  0  0  0  0  0
   -0.3867   -3.5819    1.0997 C   0  0  0  0  0  0  0  0  0  0  0  0
   -0.0378   -4.5454    0.6738 H   0  0  0  0  0  0  0  0  0  0  0  0
   -1.1738   -3.8375    1.8361 H   0  0  0  0  0  0  0  0  0  0  0  0
   -0.6663   -1.4566    3.2346 C   0  0  0  0  0  0  0  0  0  0  0  0
   -0.2111   -1.1593    4.2027 H   0  0  0  0  0  0  0  0  0  0  0  0
   -1.0560   -2.4832    3.3871 H   0  0  0  0  0  0  0  0  0  0  0  0
   -4.1922    1.9119   -3.8190 C   0  0  0  0  0  0  0  0  0  0  0  0
   -5.2534    1.8917   -3.5028 H   0  0  0  0  0  0  0  0  0  0  0  0
   -4.1171    1.4658   -4.8304 H   0  0  0  0  0  0  0  0  0  0  0  0
   -3.8965    2.9794   -3.9130 H   0  0  0  0  0  0  0  0  0  0  0  0
   -2.4730   -2.7551    0.0771 C   0  0  0  0  0  0  0  0  0  0  0  0
   -2.8549   -3.8031    0.0616 H   0  0  0  0  0  0  0  0  0  0  0  0
   -2.8438   -2.2556   -0.8376 H   0  0  0  0  0  0  0  0  0  0  0  0
   -1.8035   -0.4937    2.8892 C   0  0  0  0  0  0  0  0  0  0  0  0
   -2.6461   -0.6067    3.6102 H   0  0  0  0  0  0  0  0  0  0  0  0
   -1.4400    0.5495    2.9239 H   0  0  0  0  0  0  0  0  0  0  0  0
    1.5720   -0.7166    2.5531 C   0  0  0  0  0  0  0  0  0  0  0  0
    2.0817   -1.2155    3.4078 H   0  0  0  0  0  0  0  0  0  0  0  0
    1.2768    0.3095    2.8284 H   0  0  0  0  0  0  0  0  0  0  0  0
    2.2551   -0.6499    1.6890 H   0  0  0  0  0  0  0  0  0  0  0  0
  1 39  1  0  0  0  0
  2 18  1  0  0  0  0
  3 19  1  0  0  0  0
  4  3  1  0  0  0  0
  5  3  1  0  0  0  0
  6  3  1  0  0  0  0
  7  9  1  0  0  0  0
  7  8  1  0  0  0  0
  7  1  1  0  0  0  0
 10 42  1  0  0  0  0
 10 29  1  0  0  0  0
 11  1  1  0  0  0  0
 11 13  1  0  0  0  0
 12 11  1  0  0  0  0
 14 20  2  0  0  0  0
 15 10  1  0  0  0  0
 15 16  1  0  0  0  0
 17 15  1  0  0  0  0
 18  7  1  1  0  0  0
 19 36  1  0  0  0  0
 19 26  1  0  0  0  0
 20 21  1  0  0  0  0
 20 18  1  0  0  0  0
 22  2  1  0  0  0  0
 23 22  1  0  0  0  0
 24 14  1  0  0  0  0
 24 22  2  0  0  0  0
 25 24  1  0  0  0  0
 26 15  1  0  0  0  0
 26 28  1  0  0  0  0
 27 26  1  0  0  0  0
 29 31  1  0  0  0  0
 29 30  1  0  0  0  0
 32 33  1  0  0  0  0
 32 14  1  0  0  0  0
 34 32  1  0  0  0  0
 35 32  1  0  0  0  0
 36 11  1  0  0  0  0
 37 36  1  0  0  0  0
 38 36  1  0  0  0  0
 39 41  1  0  0  0  0
 39 29  1  0  0  0  0
 39 40  1  0  0  0  0
 42 44  1  0  0  0  0
 42 43  1  0  0  0  0
 45 42  1  0  0  0  0
M  END
