1,5,10,11
 OpenBabel05122313063D

 51 52  0  0  0  0  0  0  0  0999 V2000
   -1.0130   -0.2021   -0.7529 N   0  0  0  0  0  2  0  0  0  0  0  0
   -5.9481    0.8748   -0.3945 O   0  0  0  0  0  0  0  0  0  0  0  0
   -1.6061   -1.1811   -0.0193 C   0  0  0  0  0  3  0  0  0  0  0  0
   -0.9387   -1.9586    0.3724 H   0  0  0  0  0  0  0  0  0  0  0  0
    0.2003    1.2923   -2.4777 N   0  0  0  0  0  0  0  0  0  0  0  0
   -5.6827   -1.0267    0.8329 O   0  0  0  0  0  0  0  0  0  0  0  0
   -2.9671   -1.1650    0.2771 C   0  0  0  0  0  0  0  0  0  0  0  0
   -3.4031   -1.9649    0.8893 H   0  0  0  0  0  0  0  0  0  0  0  0
   -3.7710   -0.1114   -0.2010 C   0  0  0  0  0  0  0  0  0  0  0  0
    2.7476    0.7423   -1.4351 N   0  0  0  0  0  0  0  0  0  0  0  0
    1.1847   -1.2664   -2.5912 N   0  0  0  0  0  0  0  0  0  0  0  0
   -3.1522    0.9099   -0.9486 C   0  0  0  0  0  0  0  0  0  0  0  0
   -3.7585    1.7530   -1.3095 H   0  0  0  0  0  0  0  0  0  0  0  0
   -1.7843    0.8519   -1.1863 C   0  0  0  0  0  0  0  0  0  0  0  0
   -1.0077    1.9336   -1.8939 C   0  0  0  0  0  0  0  0  0  0  0  0
   -1.6255    2.4345   -2.6742 H   0  0  0  0  0  0  0  0  0  0  0  0
   -0.6773    2.7180   -1.1811 H   0  0  0  0  0  0  0  0  0  0  0  0
    1.3111    2.2251   -2.8475 C   0  0  0  0  0  0  0  0  0  0  0  0
    0.9405    3.2698   -2.8997 H   0  0  0  0  0  0  0  0  0  0  0  0
    1.6564    1.9609   -3.8678 H   0  0  0  0  0  0  0  0  0  0  0  0
    2.4563    2.1458   -1.8358 C   0  0  0  0  0  0  0  0  0  0  0  0
    3.3636    2.6460   -2.2502 H   0  0  0  0  0  0  0  0  0  0  0  0
    2.1584    2.6862   -0.9171 H   0  0  0  0  0  0  0  0  0  0  0  0
    3.6418    0.7240   -0.2543 C   0  0  0  0  0  0  0  0  0  0  0  0
    4.6161    1.1995   -0.5063 H   0  0  0  0  0  0  0  0  0  0  0  0
    3.7981   -0.3171    0.0750 H   0  0  0  0  0  0  0  0  0  0  0  0
    3.1590    1.2549    0.5808 H   0  0  0  0  0  0  0  0  0  0  0  0
    3.3399   -0.0881   -2.5194 C   0  0  0  0  0  0  0  0  0  0  0  0
    4.4335   -0.2088   -2.3709 H   0  0  0  0  0  0  0  0  0  0  0  0
    3.2218    0.4327   -3.4905 H   0  0  0  0  0  0  0  0  0  0  0  0
    2.6629   -1.4512   -2.5389 C   0  0  0  0  0  0  0  0  0  0  0  0
    3.0173   -2.0662   -3.3989 H   0  0  0  0  0  0  0  0  0  0  0  0
    2.8774   -1.9954   -1.5995 H   0  0  0  0  0  0  0  0  0  0  0  0
    0.4899   -2.5528   -2.3764 C   0  0  0  0  0  0  0  0  0  0  0  0
    0.7872   -3.2968   -3.1494 H   0  0  0  0  0  0  0  0  0  0  0  0
   -0.6027   -2.3922   -2.4288 H   0  0  0  0  0  0  0  0  0  0  0  0
    0.7442   -2.9296   -1.3702 H   0  0  0  0  0  0  0  0  0  0  0  0
    0.7701   -0.6513   -3.8895 C   0  0  0  0  0  0  0  0  0  0  0  0
    0.3468   -1.4190   -4.5705 H   0  0  0  0  0  0  0  0  0  0  0  0
    1.6607   -0.2420   -4.4023 H   0  0  0  0  0  0  0  0  0  0  0  0
   -0.2415    0.4435   -3.6232 C   0  0  0  0  0  0  0  0  0  0  0  0
   -0.4205    1.0642   -4.5302 H   0  0  0  0  0  0  0  0  0  0  0  0
   -1.2136   -0.0026   -3.3370 H   0  0  0  0  0  0  0  0  0  0  0  0
   -5.2353   -0.0130    0.0500 C   0  0  0  0  0  0  0  0  0  0  0  0
   -7.0931   -1.0204    1.1424 C   0  0  0  0  0  0  0  0  0  0  0  0
   -7.1710   -1.5755    2.0975 H   0  0  0  0  0  0  0  0  0  0  0  0
   -7.4169    0.0283    1.3010 H   0  0  0  0  0  0  0  0  0  0  0  0
   -7.9104   -1.6787    0.0424 C   0  0  0  0  0  0  0  0  0  0  0  0
   -8.9762   -1.7324    0.3434 H   0  0  0  0  0  0  0  0  0  0  0  0
   -7.5545   -2.7095   -0.1554 H   0  0  0  0  0  0  0  0  0  0  0  0
   -7.8472   -1.0909   -0.8939 H   0  0  0  0  0  0  0  0  0  0  0  0
  1  3  1  0  0  0  0
  2 44  2  0  0  0  0
  3  7  1  0  0  0  0
  3  4  1  0  0  0  0
  5 15  1  0  0  0  0
  6 45  1  0  0  0  0
  7  8  1  0  0  0  0
  9 44  1  0  0  0  0
  9  7  2  0  0  0  0
 10 24  1  0  0  0  0
 11 31  1  0  0  0  0
 11 34  1  0  0  0  0
 12  9  1  0  0  0  0
 13 12  1  0  0  0  0
 14 12  2  0  0  0  0
 14  1  1  0  0  0  0
 15 14  1  0  0  0  0
 15 17  1  0  0  0  0
 16 15  1  0  0  0  0
 18  5  1  0  0  0  0
 18 21  1  0  0  0  0
 19 18  1  0  0  0  0
 20 18  1  0  0  0  0
 21 10  1  0  0  0  0
 21 23  1  0  0  0  0
 22 21  1  0  0  0  0
 24 26  1  0  0  0  0
 24 27  1  0  0  0  0
 25 24  1  0  0  0  0
 28 29  1  0  0  0  0
 28 10  1  0  0  0  0
 30 28  1  0  0  0  0
 31 28  1  0  0  0  0
 31 33  1  0  0  0  0
 32 31  1  0  0  0  0
 34 37  1  0  0  0  0
 35 34  1  0  0  0  0
 36 34  1  0  0  0  0
 38 41  1  0  0  0  0
 38 11  1  0  0  0  0
 39 38  1  0  0  0  0
 40 38  1  0  0  0  0
 41 43  1  0  0  0  0
 41  5  1  0  0  0  0
 42 41  1  0  0  0  0
 44  6  1  0  0  0  0
 45 47  1  0  0  0  0
 45 46  1  0  0  0  0
 48 49  1  0  0  0  0
 48 45  1  0  0  0  0
 50 48  1  0  0  0  0
 51 48  1  0  0  0  0
M  END
