2,3,4,5
 OpenBabel05122313063D

 52 53  0  0  0  0  0  0  0  0999 V2000
   -4.5501   -1.0362   -2.3969 O   0  0  0  0  0  0  0  0  0  0  0  0
   -0.8928    0.4843   -1.1141 N   0  0  0  0  0  2  0  0  0  0  0  0
   -0.4809    2.7120    0.2301 N   0  0  0  0  0  0  0  0  0  0  0  0
    1.4949    2.1192   -1.6292 N   0  0  0  0  0  0  0  0  0  0  0  0
    2.0417    1.8847    1.1181 N   0  0  0  0  0  0  0  0  0  0  0  0
   -0.9384   -0.6020   -1.9216 C   0  0  0  0  0  3  0  0  0  0  0  0
    0.0215   -1.0958   -2.1384 H   0  0  0  0  0  0  0  0  0  0  0  0
   -2.1359   -1.1467   -2.3947 C   0  0  0  0  0  0  0  0  0  0  0  0
   -3.3397   -0.5226   -1.9979 C   0  0  0  0  0  0  0  0  0  0  0  0
   -3.3132    0.6429   -1.1956 C   0  0  0  0  0  0  0  0  0  0  0  0
   -2.0575    1.1109   -0.7801 C   0  0  0  0  0  0  0  0  0  0  0  0
   -2.1276   -2.3887   -3.2405 C   0  0  0  0  0  0  0  0  0  0  0  0
   -1.1773   -2.4822   -3.7996 H   0  0  0  0  0  0  0  0  0  0  0  0
   -2.9772   -2.3937   -3.9502 H   0  0  0  0  0  0  0  0  0  0  0  0
   -2.2149   -3.2951   -2.6040 H   0  0  0  0  0  0  0  0  0  0  0  0
   -5.0386   -2.0889   -1.5627 C   0  0  0  0  0  0  0  0  0  0  0  0
   -6.0136   -2.4036   -1.9803 H   0  0  0  0  0  0  0  0  0  0  0  0
   -5.1790   -1.7418   -0.5149 H   0  0  0  0  0  0  0  0  0  0  0  0
   -4.3474   -2.9592   -1.5489 H   0  0  0  0  0  0  0  0  0  0  0  0
   -4.5878    1.3034   -0.7445 C   0  0  0  0  0  0  0  0  0  0  0  0
   -5.4518    0.8800   -1.2879 H   0  0  0  0  0  0  0  0  0  0  0  0
   -4.5718    2.3987   -0.9202 H   0  0  0  0  0  0  0  0  0  0  0  0
   -4.7496    1.1507    0.3438 H   0  0  0  0  0  0  0  0  0  0  0  0
   -1.8998    2.2509    0.1950 C   0  0  0  0  0  0  0  0  0  0  0  0
   -2.5908    3.0948   -0.0246 H   0  0  0  0  0  0  0  0  0  0  0  0
   -2.1474    1.8695    1.2046 H   0  0  0  0  0  0  0  0  0  0  0  0
   -0.1923    3.7319   -0.8229 C   0  0  0  0  0  0  0  0  0  0  0  0
    0.4944    4.4895   -0.3978 H   0  0  0  0  0  0  0  0  0  0  0  0
   -1.1168    4.2757   -1.1105 H   0  0  0  0  0  0  0  0  0  0  0  0
    0.4344    3.0736   -2.0447 C   0  0  0  0  0  0  0  0  0  0  0  0
   -0.3244    2.4915   -2.6008 H   0  0  0  0  0  0  0  0  0  0  0  0
    0.8371    3.8489   -2.7390 H   0  0  0  0  0  0  0  0  0  0  0  0
    1.9010    1.3040   -2.7964 C   0  0  0  0  0  0  0  0  0  0  0  0
    2.1982    1.9634   -3.6433 H   0  0  0  0  0  0  0  0  0  0  0  0
    1.0650    0.6571   -3.1135 H   0  0  0  0  0  0  0  0  0  0  0  0
    2.7574    0.6625   -2.5262 H   0  0  0  0  0  0  0  0  0  0  0  0
    2.6924    2.8269   -1.0644 C   0  0  0  0  0  0  0  0  0  0  0  0
    2.4194    3.8796   -0.8523 H   0  0  0  0  0  0  0  0  0  0  0  0
    3.5080    2.8656   -1.8161 H   0  0  0  0  0  0  0  0  0  0  0  0
    3.1779    2.1245    0.1943 C   0  0  0  0  0  0  0  0  0  0  0  0
    3.6012    1.1341   -0.0693 H   0  0  0  0  0  0  0  0  0  0  0  0
    3.9832    2.7243    0.6827 H   0  0  0  0  0  0  0  0  0  0  0  0
    2.4521    0.9649    2.2041 C   0  0  0  0  0  0  0  0  0  0  0  0
    3.2771    1.4136    2.8017 H   0  0  0  0  0  0  0  0  0  0  0  0
    2.7792    0.0098    1.7595 H   0  0  0  0  0  0  0  0  0  0  0  0
    1.5827    0.7413    2.8451 H   0  0  0  0  0  0  0  0  0  0  0  0
    1.4730    3.1525    1.6731 C   0  0  0  0  0  0  0  0  0  0  0  0
    1.8957    4.0138    1.1178 H   0  0  0  0  0  0  0  0  0  0  0  0
    1.7847    3.2914    2.7301 H   0  0  0  0  0  0  0  0  0  0  0  0
   -0.0526    3.1520    1.5886 C   0  0  0  0  0  0  0  0  0  0  0  0
   -0.4611    2.4072    2.2955 H   0  0  0  0  0  0  0  0  0  0  0  0
   -0.4636    4.1561    1.8460 H   0  0  0  0  0  0  0  0  0  0  0  0
  1  9  1  0  0  0  0
  1 16  1  0  0  0  0
  2 11  1  0  0  0  0
  3 50  1  0  0  0  0
  4 37  1  0  0  0  0
  5 47  1  0  0  0  0
  5 43  1  0  0  0  0
  6  2  1  0  0  0  0
  7  6  1  0  0  0  0
  8  9  2  0  0  0  0
  8  6  1  0  0  0  0
  9 10  1  0  0  0  0
 10 11  2  0  0  0  0
 10 20  1  0  0  0  0
 11 24  1  0  0  0  0
 12 15  1  0  0  0  0
 12  8  1  0  0  0  0
 13 12  1  0  0  0  0
 14 12  1  0  0  0  0
 16 19  1  0  0  0  0
 16 18  1  0  0  0  0
 17 16  1  0  0  0  0
 20 23  1  0  0  0  0
 21 20  1  0  0  0  0
 22 20  1  0  0  0  0
 24  3  1  0  0  0  0
 24 26  1  0  0  0  0
 25 24  1  0  0  0  0
 27 28  1  0  0  0  0
 27  3  1  0  0  0  0
 29 27  1  0  0  0  0
 30  4  1  0  0  0  0
 30 27  1  0  0  0  0
 31 30  1  0  0  0  0
 32 30  1  0  0  0  0
 33 36  1  0  0  0  0
 33  4  1  0  0  0  0
 34 33  1  0  0  0  0
 35 33  1  0  0  0  0
 37 38  1  0  0  0  0
 37 40  1  0  0  0  0
 39 37  1  0  0  0  0
 40 42  1  0  0  0  0
 40  5  1  0  0  0  0
 41 40  1  0  0  0  0
 43 44  1  0  0  0  0
 43 46  1  0  0  0  0
 45 43  1  0  0  0  0
 47 49  1  0  0  0  0
 48 47  1  0  0  0  0
 50 47  1  0  0  0  0
 50 52  1  0  0  0  0
 50 51  1  0  0  0  0
M  END
