3,5,7,9
 OpenBabel05122313063D

 61 64  0  0  1  0  0  0  0  0999 V2000
    2.1697    1.1525   -0.4554 O   0  0  0  0  0  0  0  0  0  0  0  0
   -2.3081    0.5792    0.0690 O   0  0  0  0  0  0  0  0  0  0  0  0
    1.8523   -0.5826    1.9793 N   0  0  0  0  0  0  0  0  0  0  0  0
    1.2965   -0.1486    2.7296 H   0  0  0  0  0  0  0  0  0  0  0  0
    0.7129   -2.4865    0.0618 N   0  0  0  0  0  0  0  0  0  0  0  0
   -0.1179   -2.8874    0.5225 H   0  0  0  0  0  0  0  0  0  0  0  0
   -0.5819   -0.8605   -1.9703 N   0  0  0  0  0  0  0  0  0  0  0  0
    0.1793   -0.4535   -2.5333 H   0  0  0  0  0  0  0  0  0  0  0  0
   -0.3200    2.2179   -0.2945 N   0  0  0  0  0  2  0  0  0  0  0  0
    1.9012   -2.0398    2.1731 C   0  0  0  0  0  0  0  0  0  0  0  0
    0.9995   -2.3323    2.7479 H   0  0  0  0  0  0  0  0  0  0  0  0
    2.7894   -2.3423    2.7730 H   0  0  0  0  0  0  0  0  0  0  0  0
    1.9105   -2.8044    0.8442 C   0  0  0  0  0  0  0  0  0  0  0  0
    2.7971   -2.5197    0.2433 H   0  0  0  0  0  0  0  0  0  0  0  0
    1.9970   -3.8956    1.0515 H   0  0  0  0  0  0  0  0  0  0  0  0
    0.7445   -2.8655   -1.3501 C   0  0  0  0  0  0  0  0  0  0  0  0
    0.7982   -3.9689   -1.4987 H   0  0  0  0  0  0  0  0  0  0  0  0
    1.6716   -2.4415   -1.7961 H   0  0  0  0  0  0  0  0  0  0  0  0
   -0.4896   -2.3274   -2.0694 C   0  0  0  0  0  0  0  0  0  0  0  0
   -0.4841   -2.6715   -3.1292 H   0  0  0  0  0  0  0  0  0  0  0  0
   -1.4062   -2.7488   -1.6054 H   0  0  0  0  0  0  0  0  0  0  0  0
   -1.8609   -0.3159   -2.5017 C   0  0  0  0  0  0  0  0  0  0  0  0
   -1.9908   -0.6096   -3.5679 H   0  0  0  0  0  0  0  0  0  0  0  0
   -1.7714    0.7888   -2.4625 H   0  0  0  0  0  0  0  0  0  0  0  0
   -3.0774   -0.7561   -1.7218 C   0  0  0  0  0  0  0  0  0  0  0  0
   -4.0303   -1.6489   -2.2466 C   0  0  0  0  0  0  0  0  0  0  0  0
   -3.8849   -2.0547   -3.2604 H   0  0  0  0  0  0  0  0  0  0  0  0
   -5.1656   -2.0090   -1.5039 C   0  0  0  0  0  0  0  0  0  0  0  0
   -5.9035   -2.7024   -1.9325 H   0  0  0  0  0  0  0  0  0  0  0  0
   -5.3551   -1.4881   -0.2138 C   0  0  0  0  0  0  0  0  0  0  0  0
   -6.2346   -1.7830    0.3774 H   0  0  0  0  0  0  0  0  0  0  0  0
   -4.4156   -0.6049    0.3397 C   0  0  0  0  0  0  0  0  0  0  0  0
   -4.5160   -0.2312    1.3693 H   0  0  0  0  0  0  0  0  0  0  0  0
   -3.2994   -0.2445   -0.4246 C   0  0  0  0  0  0  0  0  0  0  0  0
   -2.5971    1.8827    0.5541 C   0  0  0  0  0  0  0  0  0  0  0  0
   -2.6859    1.8725    1.6640 H   0  0  0  0  0  0  0  0  0  0  0  0
   -3.5518    2.2523    0.1221 H   0  0  0  0  0  0  0  0  0  0  0  0
   -1.4590    2.7933    0.1384 C   0  0  2  0  0  3  0  0  0  0  0  0
   -1.6055    4.1915    0.1864 C   0  0  0  0  0  0  0  0  0  0  0  0
   -2.5463    4.6337    0.5460 H   0  0  0  0  0  0  0  0  0  0  0  0
   -0.5452    4.9979   -0.2376 C   0  0  0  0  0  0  0  0  0  0  0  0
   -0.6306    6.0941   -0.2048 H   0  0  0  0  0  0  0  0  0  0  0  0
    0.6266    4.3908   -0.7160 C   0  0  0  0  0  0  0  0  0  0  0  0
    1.4756    4.9940   -1.0687 H   0  0  0  0  0  0  0  0  0  0  0  0
    0.6954    2.9918   -0.7330 C   0  0  0  0  0  0  0  0  0  0  0  0
    1.8943    2.2657   -1.2999 C   0  0  0  0  0  0  0  0  0  0  0  0
    1.6594    1.9262   -2.3374 H   0  0  0  0  0  0  0  0  0  0  0  0
    2.7776    2.9360   -1.3571 H   0  0  0  0  0  0  0  0  0  0  0  0
    3.3468    0.4442   -0.6177 C   0  0  0  0  0  0  0  0  0  0  0  0
    3.9837    0.2855   -1.8576 C   0  0  0  0  0  0  0  0  0  0  0  0
    3.5804    0.7584   -2.7643 H   0  0  0  0  0  0  0  0  0  0  0  0
    5.1578   -0.4838   -1.9304 C   0  0  0  0  0  0  0  0  0  0  0  0
    5.6617   -0.6098   -2.9002 H   0  0  0  0  0  0  0  0  0  0  0  0
    5.6889   -1.0763   -0.7763 C   0  0  0  0  0  0  0  0  0  0  0  0
    6.6132   -1.6688   -0.8337 H   0  0  0  0  0  0  0  0  0  0  0  0
    5.0434   -0.8968    0.4581 C   0  0  0  0  0  0  0  0  0  0  0  0
    5.4672   -1.3456    1.3703 H   0  0  0  0  0  0  0  0  0  0  0  0
    3.8650   -0.1386    0.5626 C   0  0  0  0  0  0  0  0  0  0  0  0
    3.1615    0.0900    1.8806 C   0  0  0  0  0  0  0  0  0  0  0  0
    3.8335   -0.2306    2.7091 H   0  0  0  0  0  0  0  0  0  0  0  0
    2.9736    1.1759    2.0053 H   0  0  0  0  0  0  0  0  0  0  0  0
  2 35  1  0  0  0  0
  3 10  1  0  0  0  0
  3  4  1  0  0  0  0
  5  6  1  0  0  0  0
  5 13  1  0  0  0  0
  8  7  1  0  0  0  0
 10 11  1  0  0  0  0
 10 12  1  0  0  0  0
 13 15  1  0  0  0  0
 13 10  1  0  0  0  0
 14 13  1  0  0  0  0
 16  5  1  0  0  0  0
 17 16  1  0  0  0  0
 18 16  1  0  0  0  0
 19  7  1  0  0  0  0
 19 21  1  0  0  0  0
 19 16  1  0  0  0  0
 20 19  1  0  0  0  0
 22 24  1  0  0  0  0
 22  7  1  0  0  0  0
 22 25  1  0  0  0  0
 23 22  1  0  0  0  0
 25 34  1  0  0  0  0
 26 25  2  0  0  0  0
 26 28  1  0  0  0  0
 27 26  1  0  0  0  0
 28 30  2  0  0  0  0
 29 28  1  0  0  0  0
 30 32  1  0  0  0  0
 30 31  1  0  0  0  0
 32 33  1  0  0  0  0
 34  2  1  0  0  0  0
 34 32  2  0  0  0  0
 35 36  1  0  0  0  0
 37 35  1  0  0  0  0
 38  9  1  6  0  0  0
 38 39  1  0  0  0  0
 38 35  1  0  0  0  0
 39 40  1  0  0  0  0
 41 42  1  0  0  0  0
 41 39  2  0  0  0  0
 43 41  1  0  0  0  0
 44 43  1  0  0  0  0
 45 43  2  0  0  0  0
 45  9  1  0  0  0  0
 46 45  1  0  0  0  0
 46  1  1  0  0  0  0
 47 46  1  0  0  0  0
 48 46  1  0  0  0  0
 49  1  1  0  0  0  0
 49 58  1  0  0  0  0
 50 49  2  0  0  0  0
 51 50  1  0  0  0  0
 52 50  1  0  0  0  0
 52 54  2  0  0  0  0
 53 52  1  0  0  0  0
 54 56  1  0  0  0  0
 55 54  1  0  0  0  0
 56 58  2  0  0  0  0
 56 57  1  0  0  0  0
 58 59  1  0  0  0  0
 59  3  1  0  0  0  0
 59 61  1  0  0  0  0
 59 60  1  0  0  0  0
M  END
