5,6,7,8
 OpenBabel05122313063D

 43 42  0  0  1  0  0  0  0  0999 V2000
   -1.1948   -3.2641   -0.0002 O   0  0  0  0  0  0  0  0  0  0  0  0
    1.1947   -3.2641    0.0001 O   0  0  0  0  0  1  0  0  0  0  0  0
   -1.0937    4.5431   -0.0002 O   0  0  0  0  0  0  0  0  0  0  0  0
    1.0938    4.5430    0.0001 O   0  0  0  0  0  0  0  0  0  0  0  0
   -1.3873   -1.9630   -0.0001 N   0  0  0  0  0  2  0  0  0  0  0  0
    1.3873   -1.9631    0.0000 N   0  0  0  0  0  2  0  0  0  0  0  0
   -1.3924    0.5413   -0.0001 N   0  0  0  0  0  2  0  0  0  0  0  0
    1.3924    0.5413    0.0001 N   0  0  0  0  0  2  0  0  0  0  0  0
    0.0000    3.9597   -0.0000 N   0  0  0  0  0  0  0  0  0  0  0  0
   -2.6203   -1.5172   -0.0001 C   0  0  2  0  0  3  0  0  0  0  0  0
    2.6203   -1.5172    0.0001 C   0  0  2  0  0  3  0  0  0  0  0  0
   -2.7747   -0.0137    0.0001 C   0  0  0  0  0  0  0  0  0  0  0  0
    2.7747   -0.0137   -0.0000 C   0  0  0  0  0  0  0  0  0  0  0  0
    1.2478    1.8519    0.0000 C   0  0  0  0  0  3  0  0  0  0  0  0
    0.0000    2.5077   -0.0000 C   0  0  0  0  0  0  0  0  0  0  0  0
   -1.2478    1.8519   -0.0001 C   0  0  0  0  0  0  0  0  0  0  0  0
    3.7628   -2.4776    0.0001 C   0  0  0  0  0  0  0  0  0  0  0  0
   -3.7628   -2.4776   -0.0001 C   0  0  0  0  0  0  0  0  0  0  0  0
    3.5249    0.4335    1.2731 C   0  0  0  0  0  0  0  0  0  0  0  0
   -3.5250    0.4335   -1.2729 C   0  0  0  0  0  0  0  0  0  0  0  0
    3.5246    0.4333   -1.2733 C   0  0  0  0  0  0  0  0  0  0  0  0
   -3.5245    0.4332    1.2735 C   0  0  0  0  0  0  0  0  0  0  0  0
   -0.0000   -3.3789   -0.0001 H   0  0  0  0  0  0  0  0  0  0  0  0
    2.1290    2.5172    0.0000 H   0  0  0  0  0  0  0  0  0  0  0  0
   -2.1290    2.5173   -0.0001 H   0  0  0  0  0  0  0  0  0  0  0  0
    3.7006   -3.1468   -0.8839 H   0  0  0  0  0  0  0  0  0  0  0  0
    3.7009   -3.1463    0.8846 H   0  0  0  0  0  0  0  0  0  0  0  0
    4.7416   -1.9648   -0.0002 H   0  0  0  0  0  0  0  0  0  0  0  0
   -3.7005   -3.1468    0.8839 H   0  0  0  0  0  0  0  0  0  0  0  0
   -3.7009   -3.1463   -0.8846 H   0  0  0  0  0  0  0  0  0  0  0  0
   -4.7416   -1.9648    0.0002 H   0  0  0  0  0  0  0  0  0  0  0  0
    4.5249   -0.0392    1.3272 H   0  0  0  0  0  0  0  0  0  0  0  0
    3.6716    1.5316    1.2807 H   0  0  0  0  0  0  0  0  0  0  0  0
    2.9493    0.1474    2.1748 H   0  0  0  0  0  0  0  0  0  0  0  0
   -2.9495    0.1475   -2.1747 H   0  0  0  0  0  0  0  0  0  0  0  0
   -4.5251   -0.0391   -1.3270 H   0  0  0  0  0  0  0  0  0  0  0  0
   -3.6717    1.5317   -1.2805 H   0  0  0  0  0  0  0  0  0  0  0  0
    4.5246   -0.0394   -1.3277 H   0  0  0  0  0  0  0  0  0  0  0  0
    2.9487    0.1471   -2.1749 H   0  0  0  0  0  0  0  0  0  0  0  0
    3.6713    1.5314   -1.2811 H   0  0  0  0  0  0  0  0  0  0  0  0
   -3.6712    1.5314    1.2814 H   0  0  0  0  0  0  0  0  0  0  0  0
   -2.9485    0.1470    2.1750 H   0  0  0  0  0  0  0  0  0  0  0  0
   -4.5245   -0.0394    1.3279 H   0  0  0  0  0  0  0  0  0  0  0  0
  1  5  1  0  0  0  0
  1 23  1  0  0  0  0
  3  9  2  0  0  0  0
  6  2  1  0  0  0  0
  7 16  1  0  0  0  0
  7 12  1  0  0  0  0
  9 15  1  0  0  0  0
  9  4  2  0  0  0  0
 10  5  1  1  0  0  0
 10 12  1  0  0  0  0
 11  6  1  6  0  0  0
 11 17  1  0  0  0  0
 12 22  1  0  0  0  0
 13 11  1  0  0  0  0
 13  8  1  0  0  0  0
 13 19  1  0  0  0  0
 14 24  1  0  0  0  0
 14  8  1  0  0  0  0
 15 14  1  0  0  0  0
 16 25  1  0  0  0  0
 16 15  2  0  0  0  0
 17 27  1  0  0  0  0
 18 10  1  0  0  0  0
 18 31  1  0  0  0  0
 18 29  1  0  0  0  0
 19 33  1  0  0  0  0
 19 32  1  0  0  0  0
 19 34  1  0  0  0  0
 20 12  1  0  0  0  0
 21 13  1  0  0  0  0
 22 41  1  0  0  0  0
 22 43  1  0  0  0  0
 22 42  1  0  0  0  0
 26 17  1  0  0  0  0
 28 17  1  0  0  0  0
 30 18  1  0  0  0  0
 35 20  1  0  0  0  0
 36 20  1  0  0  0  0
 37 20  1  0  0  0  0
 38 21  1  0  0  0  0
 39 21  1  0  0  0  0
 40 21  1  0  0  0  0
M  END
