2,3,4,5
 OpenBabel05122313063D

 52 53  0  0  1  0  0  0  0  0999 V2000
   -0.7238   -3.0760    0.0200 O   0  0  0  0  0  0  0  0  0  0  0  0
    2.6879   -1.2522    1.0402 N   0  0  0  0  0  0  0  0  0  0  0  0
    3.4258    1.4036    0.2665 N   0  0  0  0  0  0  0  0  0  0  0  0
    1.4787    1.2567   -1.8006 N   0  0  0  0  0  0  0  0  0  0  0  0
    0.5842   -1.3517   -0.9240 N   0  0  0  0  0  0  0  0  0  0  0  0
   -1.5771   -0.9437   -0.0171 N   0  0  0  0  0  0  0  0  0  0  0  0
    4.1031   -0.9172    0.8098 C   0  0  0  0  0  0  0  0  0  0  0  0
    4.3396    0.5715    1.0767 C   0  0  0  0  0  0  0  0  0  0  0  0
    3.8303    1.6246   -1.1337 C   0  0  0  0  0  0  0  0  0  0  0  0
    2.6406    2.1525   -1.9416 C   0  0  0  0  0  0  0  0  0  0  0  0
    1.3565    0.1612   -2.7733 C   0  0  0  0  0  0  0  0  0  0  0  0
    0.3055   -0.8419   -2.2957 C   0  0  0  0  0  0  0  0  0  0  0  0
    1.6550   -2.3777   -0.9090 C   0  0  0  0  0  0  0  0  0  0  0  0
    2.2286   -2.5482    0.4980 C   0  0  0  0  0  0  0  0  0  0  0  0
   -0.6430   -1.8863   -0.2529 C   0  0  0  0  0  0  0  0  0  0  0  0
   -2.8728   -1.2708    0.6127 C   0  0  1  0  0  0  0  0  0  0  0  0
   -2.7582   -1.2793    2.1427 C   0  0  0  0  0  0  0  0  0  0  0  0
   -3.9304   -0.3158    0.0824 C   0  0  0  0  0  0  0  0  0  0  0  0
   -4.9769   -0.7974   -0.7262 C   0  0  0  0  0  0  0  0  0  0  0  0
   -5.9574    0.0753   -1.2231 C   0  0  0  0  0  0  0  0  0  0  0  0
   -5.8963    1.4442   -0.9214 C   0  0  0  0  0  0  0  0  0  0  0  0
   -4.8537    1.9347   -0.1186 C   0  0  0  0  0  0  0  0  0  0  0  0
   -3.8782    1.0615    0.3851 C   0  0  0  0  0  0  0  0  0  0  0  0
    4.3481   -1.1664   -0.2443 H   0  0  0  0  0  0  0  0  0  0  0  0
    4.7886   -1.5236    1.4416 H   0  0  0  0  0  0  0  0  0  0  0  0
    4.1278    0.7921    2.1429 H   0  0  0  0  0  0  0  0  0  0  0  0
    5.4072    0.8245    0.8958 H   0  0  0  0  0  0  0  0  0  0  0  0
    4.1684    0.6528   -1.5506 H   0  0  0  0  0  0  0  0  0  0  0  0
    4.6912    2.3230   -1.2206 H   0  0  0  0  0  0  0  0  0  0  0  0
    2.3466    3.1496   -1.5540 H   0  0  0  0  0  0  0  0  0  0  0  0
    2.9356    2.2965   -3.0036 H   0  0  0  0  0  0  0  0  0  0  0  0
    2.3493   -0.3248   -2.8760 H   0  0  0  0  0  0  0  0  0  0  0  0
    1.0790    0.5240   -3.7881 H   0  0  0  0  0  0  0  0  0  0  0  0
   -0.6902   -0.3564   -2.2752 H   0  0  0  0  0  0  0  0  0  0  0  0
    0.2338   -1.6849   -3.0170 H   0  0  0  0  0  0  0  0  0  0  0  0
    2.4470   -2.0489   -1.6123 H   0  0  0  0  0  0  0  0  0  0  0  0
    1.2580   -3.3511   -1.2627 H   0  0  0  0  0  0  0  0  0  0  0  0
    1.4317   -2.9439    1.1555 H   0  0  0  0  0  0  0  0  0  0  0  0
    3.0452   -3.3013    0.4834 H   0  0  0  0  0  0  0  0  0  0  0  0
   -3.1139   -2.2984    0.2748 H   0  0  0  0  0  0  0  0  0  0  0  0
   -2.0031   -2.0230    2.4658 H   0  0  0  0  0  0  0  0  0  0  0  0
   -3.7313   -1.5564    2.5924 H   0  0  0  0  0  0  0  0  0  0  0  0
   -2.4746   -0.2833    2.5380 H   0  0  0  0  0  0  0  0  0  0  0  0
   -5.0274   -1.8720   -0.9637 H   0  0  0  0  0  0  0  0  0  0  0  0
   -6.7741   -0.3175   -1.8472 H   0  0  0  0  0  0  0  0  0  0  0  0
   -6.6654    2.1298   -1.3078 H   0  0  0  0  0  0  0  0  0  0  0  0
   -4.8048    3.0062    0.1277 H   0  0  0  0  0  0  0  0  0  0  0  0
   -3.0754    1.4661    1.0221 H   0  0  0  0  0  0  0  0  0  0  0  0
    2.4836   -1.2021    2.0477 H   0  0  0  0  0  0  0  0  0  0  0  0
    3.2871    2.3101    0.7333 H   0  0  0  0  0  0  0  0  0  0  0  0
    0.6102    1.8081   -1.7864 H   0  0  0  0  0  0  0  0  0  0  0  0
   -1.3299    0.0540   -0.0863 H   0  0  0  0  0  0  0  0  0  0  0  0
  2 49  1  0  0  0  0
  3 50  1  0  0  0  0
  3  8  1  0  0  0  0
  4 51  1  0  0  0  0
  5 13  1  0  0  0  0
  5 15  1  0  0  0  0
  6 16  1  0  0  0  0
  7  2  1  0  0  0  0
  7  8  1  0  0  0  0
  7 25  1  0  0  0  0
  8 26  1  0  0  0  0
  9  3  1  0  0  0  0
 10  4  1  0  0  0  0
 10 30  1  0  0  0  0
 10  9  1  0  0  0  0
 11 12  1  0  0  0  0
 11  4  1  0  0  0  0
 12 34  1  0  0  0  0
 12  5  1  0  0  0  0
 13 14  1  0  0  0  0
 14  2  1  0  0  0  0
 14 38  1  0  0  0  0
 15  6  1  0  0  0  0
 15  1  2  0  0  0  0
 16 40  1  6  0  0  0
 16 17  1  0  0  0  0
 17 41  1  0  0  0  0
 17 43  1  0  0  0  0
 17 42  1  0  0  0  0
 18 23  1  0  0  0  0
 18 16  1  0  0  0  0
 19 18  2  0  0  0  0
 20 21  2  0  0  0  0
 20 19  1  0  0  0  0
 21 22  1  0  0  0  0
 22 47  1  0  0  0  0
 22 23  2  0  0  0  0
 23 48  1  0  0  0  0
 24  7  1  0  0  0  0
 27  8  1  0  0  0  0
 28  9  1  0  0  0  0
 29  9  1  0  0  0  0
 31 10  1  0  0  0  0
 32 11  1  0  0  0  0
 33 11  1  0  0  0  0
 35 12  1  0  0  0  0
 36 13  1  0  0  0  0
 37 13  1  0  0  0  0
 39 14  1  0  0  0  0
 44 19  1  0  0  0  0
 45 20  1  0  0  0  0
 46 21  1  0  0  0  0
 52  6  1  0  0  0  0
M  END
