1,2,3,4
 OpenBabel05122313063D

 44 48  0  0  0  0  0  0  0  0999 V2000
   -1.9734    0.3141   -0.0302 N   0  0  0  0  0  2  0  0  0  0  0  0
   -0.6980   -2.3094    0.0371 N   0  0  0  0  0  0  0  0  0  0  0  0
    1.9065   -0.9988    0.0051 N   0  0  0  0  0  0  0  0  0  0  0  0
    0.6423    1.6645   -0.0688 N   0  0  0  0  0  0  0  0  0  0  0  0
   -2.3953    1.6191   -0.0310 C   0  0  0  0  0  0  0  0  0  0  0  0
   -3.8391    1.6843   -0.0383 C   0  0  0  0  0  0  0  0  0  0  0  0
   -4.4443    2.5973   -0.0404 H   0  0  0  0  0  0  0  0  0  0  0  0
   -4.2749    0.3774   -0.0407 C   0  0  0  0  0  0  0  0  0  0  0  0
   -6.0577   -0.2169   -0.0503 Br  0  0  0  0  0  0  0  0  0  0  0  0
   -3.1053   -0.4867   -0.0309 C   0  0  0  0  0  0  0  0  0  0  0  0
   -3.1254   -1.8815   -0.0082 C   0  0  0  0  0  0  0  0  0  0  0  0
   -4.1188   -2.3540   -0.0093 H   0  0  0  0  0  0  0  0  0  0  0  0
   -2.0077   -2.7347    0.0289 C   0  0  0  0  0  0  0  0  0  0  0  0
   -2.0577   -4.1798    0.0723 C   0  0  0  0  0  0  0  0  0  0  0  0
   -2.9767   -4.7784    0.0751 H   0  0  0  0  0  0  0  0  0  0  0  0
   -0.7519   -4.6202    0.1094 C   0  0  0  0  0  0  0  0  0  0  0  0
   -0.3852   -5.6531    0.1485 H   0  0  0  0  0  0  0  0  0  0  0  0
    0.0854   -3.4404    0.0856 C   0  0  0  0  0  0  0  0  0  0  0  0
    1.4924   -3.4389    0.1026 C   0  0  0  0  0  0  0  0  0  0  0  0
    1.9860   -4.4211    0.1425 H   0  0  0  0  0  0  0  0  0  0  0  0
    2.3307   -2.3201    0.0617 C   0  0  0  0  0  3  0  0  0  0  0  0
    3.7740   -2.3760    0.0553 C   0  0  0  0  0  0  0  0  0  0  0  0
    4.3840   -3.2850    0.0939 H   0  0  0  0  0  0  0  0  0  0  0  0
    4.2021   -1.0690   -0.0131 C   0  0  0  0  0  0  0  0  0  0  0  0
    5.9815   -0.4615   -0.0600 Br  0  0  0  0  0  0  0  0  0  0  0  0
    3.0258   -0.2118   -0.0456 C   0  0  0  0  0  0  0  0  0  0  0  0
    3.0479    1.1952   -0.1289 C   0  0  0  0  0  0  0  0  0  0  0  0
    4.0447    1.6558   -0.1893 H   0  0  0  0  0  0  0  0  0  0  0  0
    1.9521    2.0477   -0.1496 C   0  0  0  0  0  0  0  0  0  0  0  0
    2.0643    3.5485   -0.3098 C   0  0  0  0  0  0  0  0  0  0  0  0
    2.2915    3.7831   -1.3733 H   0  0  0  0  0  0  0  0  0  0  0  0
    2.8809    3.9850    0.2987 H   0  0  0  0  0  0  0  0  0  0  0  0
    0.6606    4.0647    0.0824 C   0  0  0  0  0  0  0  0  0  0  0  0
   -0.1621    2.7696   -0.0275 C   0  0  0  0  0  0  0  0  0  0  0  0
   -1.5494    2.7524   -0.0148 C   0  0  0  0  0  0  0  0  0  0  0  0
   -2.0579    3.7268    0.0139 H   0  0  0  0  0  0  0  0  0  0  0  0
    0.1635    5.1894   -0.8339 C   0  0  0  0  0  0  0  0  0  0  0  0
    0.1094    4.8558   -1.8895 H   0  0  0  0  0  0  0  0  0  0  0  0
    0.8488    6.0602   -0.7804 H   0  0  0  0  0  0  0  0  0  0  0  0
   -0.8431    5.5458   -0.5359 H   0  0  0  0  0  0  0  0  0  0  0  0
    0.6448    4.5229    1.5569 C   0  0  0  0  0  0  0  0  0  0  0  0
   -0.3843    4.7769    1.8813 H   0  0  0  0  0  0  0  0  0  0  0  0
    1.2830    5.4209    1.6907 H   0  0  0  0  0  0  0  0  0  0  0  0
    1.0253    3.7251    2.2262 H   0  0  0  0  0  0  0  0  0  0  0  0
  2 18  1  0  0  0  0
  3 21  1  0  0  0  0
  4 34  2  0  0  0  0
  5  1  1  0  0  0  0
  5 35  2  0  0  0  0
  6  5  1  0  0  0  0
  7  6  1  0  0  0  0
  8  6  2  0  0  0  0
  8 10  1  0  0  0  0
  9  8  1  0  0  0  0
 10  1  1  0  0  0  0
 10 11  2  0  0  0  0
 11 13  1  0  0  0  0
 12 11  1  0  0  0  0
 13  2  2  0  0  0  0
 13 14  1  0  0  0  0
 14 15  1  0  0  0  0
 14 16  2  0  0  0  0
 16 17  1  0  0  0  0
 18 19  2  0  0  0  0
 18 16  1  0  0  0  0
 19 20  1  0  0  0  0
 21 19  1  0  0  0  0
 22 21  1  0  0  0  0
 22 23  1  0  0  0  0
 24 22  2  0  0  0  0
 25 24  1  0  0  0  0
 26 24  1  0  0  0  0
 26  3  2  0  0  0  0
 27 26  1  0  0  0  0
 28 27  1  0  0  0  0
 29 27  2  0  0  0  0
 29  4  1  0  0  0  0
 30 29  1  0  0  0  0
 30 33  2  0  0  0  0
 30 32  1  0  0  0  0
 31 30  1  0  0  0  0
 33 41  1  0  0  0  0
 34 35  1  0  0  0  0
 34 33  1  0  0  0  0
 35 36  1  0  0  0  0
 37 39  1  0  0  0  0
 37 40  1  0  0  0  0
 37 33  1  0  0  0  0
 38 37  1  0  0  0  0
 41 43  1  0  0  0  0
 41 42  1  0  0  0  0
 41 44  1  0  0  0  0
M  END
