1,30,35,64
 OpenBabel05122313063D

 68 70  0  0  0  0  0  0  0  0999 V2000
    2.2144   -0.0686   -0.4437 N   0  0  0  0  0  0  0  0  0  0  0  0
    6.8606   -0.2236   -0.7872 C   0  0  0  0  0  0  0  0  0  0  0  0
    7.5578   -0.5391   -1.5766 H   0  0  0  0  0  0  0  0  0  0  0  0
    6.4078    1.0624    1.2256 C   0  0  0  0  0  0  0  0  0  0  0  0
    6.7511    1.7518    2.0101 H   0  0  0  0  0  0  0  0  0  0  0  0
    3.2410   -0.8961    0.2792 C   0  0  0  0  0  0  0  0  0  0  0  0
    3.2106   -1.8940   -0.1988 H   0  0  0  0  0  0  0  0  0  0  0  0
    2.8786   -1.0214    1.3183 H   0  0  0  0  0  0  0  0  0  0  0  0
    1.5601    0.7200   -2.8047 C   0  0  0  0  0  0  0  0  0  0  0  0
    2.0321    0.7623   -3.8102 H   0  0  0  0  0  0  0  0  0  0  0  0
    1.3789    1.7794   -2.5203 H   0  0  0  0  0  0  0  0  0  0  0  0
    2.5912    0.0662   -1.8809 C   0  0  0  0  0  0  0  0  0  0  0  0
    2.7871   -0.9642   -2.2408 H   0  0  0  0  0  0  0  0  0  0  0  0
    3.5464    0.6345   -1.9469 H   0  0  0  0  0  0  0  0  0  0  0  0
    5.5584   -0.7357   -0.7463 C   0  0  0  0  0  0  0  0  0  0  0  0
    5.2369   -1.4610   -1.5094 H   0  0  0  0  0  0  0  0  0  0  0  0
    2.0210    1.2569    0.1858 C   0  0  0  0  0  0  0  0  0  0  0  0
    1.2760    1.7948   -0.4307 H   0  0  0  0  0  0  0  0  0  0  0  0
    2.9619    1.8542    0.1686 H   0  0  0  0  0  0  0  0  0  0  0  0
    9.5575    0.4429   -0.4501 F   0  0  0  0  0  0  0  0  0  0  0  0
    7.2860    0.6863    0.1957 C   0  0  0  0  0  0  0  0  0  0  0  0
    4.6543   -0.3517    0.2666 C   0  0  0  0  0  0  0  0  0  0  0  0
    0.2267   -0.0345   -2.9017 C   0  0  0  0  0  0  0  0  0  0  0  0
   -0.3784    0.3957   -3.7338 H   0  0  0  0  0  0  0  0  0  0  0  0
    0.4338   -1.0899   -3.1774 H   0  0  0  0  0  0  0  0  0  0  0  0
    9.1419    1.6205    1.3453 F   0  0  0  0  0  0  0  0  0  0  0  0
    8.6684    1.2900    0.1202 C   0  0  0  0  0  0  0  0  0  0  0  0
    5.1073    0.5436    1.2574 C   0  0  0  0  0  0  0  0  0  0  0  0
    4.4332    0.8264    2.0805 H   0  0  0  0  0  0  0  0  0  0  0  0
   -0.5413    0.0073   -1.6585 N   0  0  0  0  0  2  0  0  0  0  0  0
    1.4820    1.1051    1.6047 C   0  0  0  0  0  0  0  0  0  0  0  0
    2.3178    0.9542    2.3375 H   0  0  0  0  0  0  0  0  0  0  0  0
    1.0215    2.0823    1.8982 H   0  0  0  0  0  0  0  0  0  0  0  0
    8.6688    2.4256   -0.6246 F   0  0  0  0  0  0  0  0  0  0  0  0
   -2.2144   -0.0682    0.4437 N   0  0  0  0  0  0  0  0  0  0  0  0
   -6.8606   -0.2232    0.7874 C   0  0  0  0  0  0  0  0  0  0  0  0
   -7.5578   -0.5382    1.5770 H   0  0  0  0  0  0  0  0  0  0  0  0
   -6.4079    1.0616   -1.2261 C   0  0  0  0  0  0  0  0  0  0  0  0
   -6.7512    1.7506   -2.0111 H   0  0  0  0  0  0  0  0  0  0  0  0
   -3.2410   -0.8962   -0.2787 C   0  0  0  0  0  0  0  0  0  0  0  0
   -3.2106   -1.8938    0.2000 H   0  0  0  0  0  0  0  0  0  0  0  0
   -2.8786   -1.0223   -1.3177 H   0  0  0  0  0  0  0  0  0  0  0  0
   -1.5601    0.7220    2.8042 C   0  0  0  0  0  0  0  0  0  0  0  0
   -2.0320    0.7650    3.8096 H   0  0  0  0  0  0  0  0  0  0  0  0
   -1.3789    1.7812    2.5190 H   0  0  0  0  0  0  0  0  0  0  0  0
   -2.5912    0.0675    1.8808 C   0  0  0  0  0  0  0  0  0  0  0  0
   -2.7871   -0.9626    2.2414 H   0  0  0  0  0  0  0  0  0  0  0  0
   -3.5464    0.6359    1.9464 H   0  0  0  0  0  0  0  0  0  0  0  0
   -5.5584   -0.7352    0.7468 C   0  0  0  0  0  0  0  0  0  0  0  0
   -5.2369   -1.4602    1.5102 H   0  0  0  0  0  0  0  0  0  0  0  0
   -2.0209    1.2568   -0.1868 C   0  0  0  0  0  0  0  0  0  0  0  0
   -1.2759    1.7951    0.4293 H   0  0  0  0  0  0  0  0  0  0  0  0
   -2.9618    1.8541   -0.1700 H   0  0  0  0  0  0  0  0  0  0  0  0
   -9.5574    0.4434    0.4504 F   0  0  0  0  0  0  0  0  0  0  0  0
   -7.2860    0.6862   -0.1961 C   0  0  0  0  0  0  0  0  0  0  0  0
   -4.6543   -0.3519   -0.2663 C   0  0  0  0  0  0  0  0  0  0  0  0
   -0.2267   -0.0324    2.9016 C   0  0  0  0  0  0  0  0  0  0  0  0
    0.3785    0.3983    3.7334 H   0  0  0  0  0  0  0  0  0  0  0  0
   -0.4337   -1.0876    3.1781 H   0  0  0  0  0  0  0  0  0  0  0  0
   -9.1421    1.6191   -1.3463 F   0  0  0  0  0  0  0  0  0  0  0  0
   -8.6684    1.2899   -0.1209 C   0  0  0  0  0  0  0  0  0  0  0  0
   -5.1073    0.5428   -1.2577 C   0  0  0  0  0  0  0  0  0  0  0  0
   -4.4332    0.8252   -2.0810 H   0  0  0  0  0  0  0  0  0  0  0  0
    0.5413    0.0085    1.6584 N   0  0  0  0  0  2  0  0  0  0  0  0
   -1.4820    1.1040   -1.6055 C   0  0  0  0  0  0  0  0  0  0  0  0
   -2.3177    0.9526   -2.3383 H   0  0  0  0  0  0  0  0  0  0  0  0
   -1.0214    2.0809   -1.8997 H   0  0  0  0  0  0  0  0  0  0  0  0
   -8.6687    2.4263    0.6227 F   0  0  0  0  0  0  0  0  0  0  0  0
  1 17  1  0  0  0  0
  1  6  1  0  0  0  0
  2 15  2  0  0  0  0
  2 21  1  0  0  0  0
  3  2  1  0  0  0  0
  4 28  1  0  0  0  0
  4  5  1  0  0  0  0
  6  8  1  0  0  0  0
  7  6  1  0  0  0  0
  9 11  1  0  0  0  0
  9 12  1  0  0  0  0
 10  9  1  0  0  0  0
 12  1  1  0  0  0  0
 13 12  1  0  0  0  0
 14 12  1  0  0  0  0
 15 22  1  0  0  0  0
 16 15  1  0  0  0  0
 17 31  1  0  0  0  0
 18 17  1  0  0  0  0
 19 17  1  0  0  0  0
 20 27  1  0  0  0  0
 21  4  2  0  0  0  0
 22  6  1  0  0  0  0
 22 28  2  0  0  0  0
 23  9  1  0  0  0  0
 23 30  1  0  0  0  0
 24 23  1  0  0  0  0
 25 23  1  0  0  0  0
 27 21  1  0  0  0  0
 27 26  1  0  0  0  0
 28 29  1  0  0  0  0
 30 65  1  0  0  0  0
 31 64  1  0  0  0  0
 31 33  1  0  0  0  0
 31 32  1  0  0  0  0
 34 27  1  0  0  0  0
 35 46  1  0  0  0  0
 36 37  1  0  0  0  0
 38 55  1  0  0  0  0
 39 38  1  0  0  0  0
 40 56  1  0  0  0  0
 40 41  1  0  0  0  0
 40 35  1  0  0  0  0
 42 40  1  0  0  0  0
 43 57  1  0  0  0  0
 43 44  1  0  0  0  0
 45 43  1  0  0  0  0
 46 48  1  0  0  0  0
 46 47  1  0  0  0  0
 46 43  1  0  0  0  0
 49 36  1  0  0  0  0
 49 50  1  0  0  0  0
 51 53  1  0  0  0  0
 51 52  1  0  0  0  0
 51 35  1  0  0  0  0
 55 61  1  0  0  0  0
 55 36  2  0  0  0  0
 56 49  2  0  0  0  0
 57 59  1  0  0  0  0
 57 58  1  0  0  0  0
 60 61  1  0  0  0  0
 61 54  1  0  0  0  0
 61 68  1  0  0  0  0
 62 38  2  0  0  0  0
 62 56  1  0  0  0  0
 63 62  1  0  0  0  0
 64 57  1  0  0  0  0
 65 51  1  0  0  0  0
 66 65  1  0  0  0  0
 67 65  1  0  0  0  0
M  END
