1,2,3,5
 OpenBabel05122313063D

 76 83  0  0  1  0  0  0  0  0999 V2000
    1.2927   -2.2249    0.0058 N   0  0  0  0  0  0  0  0  0  0  0  0
    1.4204    0.4841    0.1563 N   0  0  0  0  0  0  0  0  0  0  0  0
   -1.1732   -2.2979    0.0613 N   0  0  0  0  0  0  0  0  0  0  0  0
    9.0973   -1.2217   -0.4071 O   0  0  0  0  0  0  0  0  0  0  0  0
   -1.4155    0.4036    0.1312 N   0  0  0  0  0  0  0  0  0  0  0  0
   -0.0824    8.1864    0.0319 O   0  0  0  0  0  0  0  0  0  0  0  0
   -8.9766   -1.9703   -0.3981 O   0  0  0  0  0  0  0  0  0  0  0  0
   -0.6178   -3.5463   -0.2209 C   0  0  0  0  0  0  0  0  0  0  0  0
   -2.5455   -2.3594   -0.1057 C   0  0  0  0  0  3  0  0  0  0  0  0
    3.4227   -1.0310   -0.0807 C   0  0  2  0  0  3  0  0  0  0  0  0
   -3.3545   -1.1974   -0.0343 C   0  0  1  0  0  3  0  0  0  0  0  0
   -0.0540    2.4961    0.0897 C   0  0  2  0  0  3  0  0  0  0  0  0
    2.6729   -2.2324   -0.1226 C   0  0  0  0  0  3  0  0  0  0  0  0
   -2.7924    0.0993    0.0801 C   0  0  0  0  0  0  0  0  0  0  0  0
    1.2115    1.8622    0.0452 C   0  0  0  0  0  3  0  0  0  0  0  0
    2.7980    0.2408   -0.0042 C   0  0  0  0  0  0  0  0  0  0  0  0
    3.0665   -3.5900   -0.3662 C   0  0  0  0  0  0  0  0  0  0  0  0
    4.0997   -3.9358   -0.4778 H   0  0  0  0  0  0  0  0  0  0  0  0
   -0.1189    6.8269   -0.0228 C   0  0  0  0  0  0  0  0  0  0  0  0
    7.7367   -1.2147   -0.4005 C   0  0  0  0  0  0  0  0  0  0  0  0
    4.9033   -1.0950   -0.1966 C   0  0  0  0  0  0  0  0  0  0  0  0
    6.9275   -1.7835   -1.4055 C   0  0  0  0  0  0  0  0  0  0  0  0
    7.3733   -2.2683   -2.2843 H   0  0  0  0  0  0  0  0  0  0  0  0
    0.8010   -3.5099   -0.2262 C   0  0  0  0  0  0  0  0  0  0  0  0
   -2.8706   -3.7132   -0.4485 C   0  0  0  0  0  0  0  0  0  0  0  0
   -3.8814   -4.0840   -0.6511 H   0  0  0  0  0  0  0  0  0  0  0  0
   -5.5247   -2.2229    0.7324 C   0  0  0  0  0  0  0  0  0  0  0  0
   -4.9660   -2.7421    1.5254 H   0  0  0  0  0  0  0  0  0  0  0  0
    3.4474    1.5067   -0.1958 C   0  0  0  0  0  0  0  0  0  0  0  0
    4.5199    1.6322   -0.3781 H   0  0  0  0  0  0  0  0  0  0  0  0
   -1.2845    1.7991    0.1260 C   0  0  0  0  0  3  0  0  0  0  0  0
    2.4803    2.4964   -0.1692 C   0  0  0  0  0  0  0  0  0  0  0  0
    2.6245    3.5721   -0.3138 H   0  0  0  0  0  0  0  0  0  0  0  0
    5.5301   -1.7183   -1.2946 C   0  0  0  0  0  0  0  0  0  0  0  0
    4.9080   -2.1434   -2.0963 H   0  0  0  0  0  0  0  0  0  0  0  0
   -1.6767   -4.4440   -0.5198 C   0  0  0  0  0  0  0  0  0  0  0  0
   -1.5680   -5.4997   -0.7930 H   0  0  0  0  0  0  0  0  0  0  0  0
    1.9067   -4.3723   -0.4491 C   0  0  0  0  0  0  0  0  0  0  0  0
    1.8534   -5.4474   -0.6553 H   0  0  0  0  0  0  0  0  0  0  0  0
    0.5233    6.1449    1.0341 C   0  0  0  0  0  0  0  0  0  0  0  0
    0.9978    6.7411    1.8269 H   0  0  0  0  0  0  0  0  0  0  0  0
   -0.0834    3.9855    0.0495 C   0  0  0  0  0  0  0  0  0  0  0  0
   -0.7420    6.0828   -1.0458 C   0  0  0  0  0  0  0  0  0  0  0  0
   -1.2395    6.5830   -1.8873 H   0  0  0  0  0  0  0  0  0  0  0  0
    5.7332   -0.5258    0.8000 C   0  0  0  0  0  0  0  0  0  0  0  0
    5.2669   -0.0440    1.6724 H   0  0  0  0  0  0  0  0  0  0  0  0
    7.1236   -0.5832    0.7041 C   0  0  0  0  0  0  0  0  0  0  0  0
    7.7695   -0.1511    1.4821 H   0  0  0  0  0  0  0  0  0  0  0  0
    0.5391    4.7501    1.0652 C   0  0  0  0  0  0  0  0  0  0  0  0
    1.0327    4.2295    1.8996 H   0  0  0  0  0  0  0  0  0  0  0  0
   -0.7172    4.6802   -0.9997 C   0  0  0  0  0  0  0  0  0  0  0  0
   -1.1910    4.1073   -1.8110 H   0  0  0  0  0  0  0  0  0  0  0  0
    9.7611   -1.8466   -1.4886 C   0  0  0  0  0  0  0  0  0  0  0  0
    9.5084   -2.9285   -1.5624 H   0  0  0  0  0  0  0  0  0  0  0  0
   10.8446   -1.7438   -1.2934 H   0  0  0  0  0  0  0  0  0  0  0  0
    9.5219   -1.3595   -2.4609 H   0  0  0  0  0  0  0  0  0  0  0  0
   -0.7140    8.9175   -1.0009 C   0  0  0  0  0  0  0  0  0  0  0  0
   -0.2620    8.7067   -1.9965 H   0  0  0  0  0  0  0  0  0  0  0  0
   -0.5700    9.9874   -0.7615 H   0  0  0  0  0  0  0  0  0  0  0  0
   -1.8054    8.7034   -1.0548 H   0  0  0  0  0  0  0  0  0  0  0  0
   -2.5985    2.3748    0.1559 C   0  0  0  0  0  0  0  0  0  0  0  0
   -2.8095    3.4477    0.2082 H   0  0  0  0  0  0  0  0  0  0  0  0
   -6.9036   -2.4050    0.6273 C   0  0  0  0  0  0  0  0  0  0  0  0
   -7.4488   -3.0630    1.3193 H   0  0  0  0  0  0  0  0  0  0  0  0
   -3.5152    1.3387    0.1307 C   0  0  0  0  0  0  0  0  0  0  0  0
   -4.6067    1.4215    0.1531 H   0  0  0  0  0  0  0  0  0  0  0  0
   -4.8264   -1.3617   -0.1495 C   0  0  0  0  0  0  0  0  0  0  0  0
   -5.5725   -0.7027   -1.1483 C   0  0  0  0  0  0  0  0  0  0  0  0
   -5.0495   -0.0541   -1.8668 H   0  0  0  0  0  0  0  0  0  0  0  0
   -7.6373   -1.7312   -0.3738 C   0  0  0  0  0  0  0  0  0  0  0  0
   -6.9596   -0.8761   -1.2674 C   0  0  0  0  0  0  0  0  0  0  0  0
   -7.4985   -0.3513   -2.0674 H   0  0  0  0  0  0  0  0  0  0  0  0
   -9.7589   -1.3158   -1.3782 C   0  0  0  0  0  0  0  0  0  0  0  0
   -9.7073   -0.2080   -1.2795 H   0  0  0  0  0  0  0  0  0  0  0  0
  -10.8029   -1.6422   -1.2156 H   0  0  0  0  0  0  0  0  0  0  0  0
   -9.4505   -1.5947   -2.4111 H   0  0  0  0  0  0  0  0  0  0  0  0
  4 20  1  0  0  0  0
  7 70  1  0  0  0  0
  8  3  2  0  0  0  0
  9 11  1  0  0  0  0
  9  3  1  0  0  0  0
 10 21  1  6  0  0  0
 10 16  1  0  0  0  0
 11 67  1  6  0  0  0
 11 14  1  0  0  0  0
 12 42  1  6  0  0  0
 12 31  1  0  0  0  0
 13 10  1  0  0  0  0
 13  1  1  0  0  0  0
 14 65  1  0  0  0  0
 14  5  2  0  0  0  0
 15 12  1  0  0  0  0
 15  2  1  0  0  0  0
 16  2  2  0  0  0  0
 17 13  1  0  0  0  0
 18 17  1  0  0  0  0
 19  6  1  0  0  0  0
 19 40  1  0  0  0  0
 20 47  1  0  0  0  0
 21 45  1  0  0  0  0
 22 34  1  0  0  0  0
 22 20  2  0  0  0  0
 23 22  1  0  0  0  0
 24  8  1  0  0  0  0
 24  1  2  0  0  0  0
 25  9  1  0  0  0  0
 26 25  1  0  0  0  0
 27 28  1  0  0  0  0
 29 32  2  0  0  0  0
 29 16  1  0  0  0  0
 30 29  1  0  0  0  0
 31  5  1  0  0  0  0
 31 61  1  0  0  0  0
 32 15  1  0  0  0  0
 33 32  1  0  0  0  0
 34 21  2  0  0  0  0
 35 34  1  0  0  0  0
 36 25  2  0  0  0  0
 36  8  1  0  0  0  0
 37 36  1  0  0  0  0
 38 17  2  0  0  0  0
 38 24  1  0  0  0  0
 39 38  1  0  0  0  0
 40 49  2  0  0  0  0
 40 41  1  0  0  0  0
 42 49  1  0  0  0  0
 43 51  1  0  0  0  0
 43 19  2  0  0  0  0
 44 43  1  0  0  0  0
 45 46  1  0  0  0  0
 47 45  2  0  0  0  0
 47 48  1  0  0  0  0
 49 50  1  0  0  0  0
 51 42  2  0  0  0  0
 52 51  1  0  0  0  0
 53 55  1  0  0  0  0
 53  4  1  0  0  0  0
 54 53  1  0  0  0  0
 56 53  1  0  0  0  0
 57 59  1  0  0  0  0
 57  6  1  0  0  0  0
 58 57  1  0  0  0  0
 60 57  1  0  0  0  0
 61 62  1  0  0  0  0
 63 27  1  0  0  0  0
 63 64  1  0  0  0  0
 65 66  1  0  0  0  0
 65 61  2  0  0  0  0
 67 27  2  0  0  0  0
 68 67  1  0  0  0  0
 69 68  1  0  0  0  0
 70 63  2  0  0  0  0
 71 68  2  0  0  0  0
 71 70  1  0  0  0  0
 72 71  1  0  0  0  0
 73 74  1  0  0  0  0
 73 75  1  0  0  0  0
 73  7  1  0  0  0  0
 76 73  1  0  0  0  0
M  END
