1,2,3,4
 OpenBabel05122313063D

 41 42  0  0  0  0  0  0  0  0999 V2000
   -1.7425   -0.9516   -0.1802 N   0  0  0  0  0  2  0  0  0  0  0  0
   -1.6972    1.6930    0.0581 N   0  0  0  0  0  2  0  0  0  0  0  0
    1.2597    1.9762    0.1778 N   0  0  0  0  0  2  0  0  0  0  0  0
    1.4391   -0.4683   -0.8554 N   0  0  0  0  0  2  0  0  0  0  0  0
   -2.8528   -0.2794   -0.5703 C   0  0  0  0  0  0  0  0  0  0  0  0
   -4.0388   -0.9585   -0.9006 C   0  0  0  0  0  0  0  0  0  0  0  0
   -4.9357   -0.4079   -1.2133 H   0  0  0  0  0  0  0  0  0  0  0  0
   -4.0749   -2.3575   -0.7921 C   0  0  0  0  0  0  0  0  0  0  0  0
   -4.9944   -2.9077   -1.0408 H   0  0  0  0  0  0  0  0  0  0  0  0
   -2.9359   -3.0335   -0.3406 C   0  0  0  0  0  0  0  0  0  0  0  0
   -2.9277   -4.1249   -0.2115 H   0  0  0  0  0  0  0  0  0  0  0  0
   -1.7842   -2.2860   -0.0410 C   0  0  0  0  0  0  0  0  0  0  0  0
   -0.8759   -2.7761    0.3530 H   0  0  0  0  0  0  0  0  0  0  0  0
   -2.7604    1.2116   -0.5095 C   0  0  0  0  0  0  0  0  0  0  0  0
   -3.8962    2.0589   -1.0034 C   0  0  0  0  0  0  0  0  0  0  0  0
   -4.5923    2.2957   -0.1691 H   0  0  0  0  0  0  0  0  0  0  0  0
   -4.4816    1.5551   -1.7923 H   0  0  0  0  0  0  0  0  0  0  0  0
   -3.5318    3.0217   -1.4076 H   0  0  0  0  0  0  0  0  0  0  0  0
   -1.5528    3.1217    0.3295 C   0  0  0  0  0  0  0  0  0  0  0  0
   -2.5035    3.5181    0.7465 H   0  0  0  0  0  0  0  0  0  0  0  0
   -1.3845    3.6698   -0.6276 H   0  0  0  0  0  0  0  0  0  0  0  0
   -0.4140    3.4027    1.3130 C   0  0  0  0  0  0  0  0  0  0  0  0
   -0.5082    2.7193    2.1842 H   0  0  0  0  0  0  0  0  0  0  0  0
   -0.5416    4.4297    1.7104 H   0  0  0  0  0  0  0  0  0  0  0  0
    0.9889    3.2994    0.7187 C   0  0  0  0  0  0  0  0  0  0  0  0
    1.1203    4.0654   -0.0817 H   0  0  0  0  0  0  0  0  0  0  0  0
    1.7429    3.5493    1.4992 H   0  0  0  0  0  0  0  0  0  0  0  0
    2.3928    1.7022   -0.3938 C   0  0  0  0  0  0  0  0  0  0  0  0
    3.4937    2.7110   -0.5350 C   0  0  0  0  0  0  0  0  0  0  0  0
    3.0940    3.6626   -0.9404 H   0  0  0  0  0  0  0  0  0  0  0  0
    4.3136    2.3791   -1.1923 H   0  0  0  0  0  0  0  0  0  0  0  0
    3.9219    2.9509    0.4619 H   0  0  0  0  0  0  0  0  0  0  0  0
    2.5597    0.3035   -0.8808 C   0  0  0  0  0  0  0  0  0  0  0  0
    3.7933   -0.2178   -1.3038 C   0  0  0  0  0  0  0  0  0  0  0  0
    4.6933    0.4103   -1.3146 H   0  0  0  0  0  0  0  0  0  0  0  0
    3.8753   -1.5652   -1.6894 C   0  0  0  0  0  0  0  0  0  0  0  0
    4.8368   -1.9923   -2.0096 H   0  0  0  0  0  0  0  0  0  0  0  0
    2.7204   -2.3503   -1.6476 C   0  0  0  0  0  0  0  0  0  0  0  0
    2.7336   -3.4115   -1.9320 H   0  0  0  0  0  0  0  0  0  0  0  0
    1.5208   -1.7550   -1.2241 C   0  0  0  0  0  0  0  0  0  0  0  0
    0.5898   -2.3376   -1.1947 H   0  0  0  0  0  0  0  0  0  0  0  0
  1 12  1  0  0  0  0
  2 19  1  0  0  0  0
  3 25  1  0  0  0  0
  5 14  2  0  0  0  0
  5  1  1  0  0  0  0
  6  8  2  0  0  0  0
  6  5  1  0  0  0  0
  7  6  1  0  0  0  0
  8 10  1  0  0  0  0
  9  8  1  0  0  0  0
 10 11  1  0  0  0  0
 10 12  2  0  0  0  0
 12 13  1  0  0  0  0
 14  2  1  0  0  0  0
 15 14  1  0  0  0  0
 15 16  1  0  0  0  0
 17 15  1  0  0  0  0
 18 15  1  0  0  0  0
 19 20  1  0  0  0  0
 19 22  1  0  0  0  0
 21 19  1  0  0  0  0
 22 24  1  0  0  0  0
 22 23  1  0  0  0  0
 25 22  1  0  0  0  0
 25 27  1  0  0  0  0
 26 25  1  0  0  0  0
 28  3  1  0  0  0  0
 29 28  1  0  0  0  0
 29 32  1  0  0  0  0
 30 29  1  0  0  0  0
 31 29  1  0  0  0  0
 33  4  1  0  0  0  0
 33 28  2  0  0  0  0
 34 33  1  0  0  0  0
 35 34  1  0  0  0  0
 36 38  1  0  0  0  0
 36 34  2  0  0  0  0
 37 36  1  0  0  0  0
 38 40  2  0  0  0  0
 39 38  1  0  0  0  0
 40 41  1  0  0  0  0
 40  4  1  0  0  0  0
M  END
