5,6,7,8
 OpenBabel05122313063D

 62 66  0  0  0  0  0  0  0  0999 V2000
    1.6780    2.3948    0.7958 O   0  0  0  0  0  0  0  0  0  0  0  0
    0.7048   -2.6193    0.1109 O   0  0  0  0  0  0  0  0  0  0  0  0
   -1.6780   -2.3947    0.7961 O   0  0  0  0  0  0  0  0  0  0  0  0
   -0.7048    2.6193    0.1106 O   0  0  0  0  0  0  0  0  0  0  0  0
    1.6457    1.0467    0.7267 N   0  0  0  0  0  2  0  0  0  0  0  0
    0.9983   -1.3210    0.1352 N   0  0  0  0  0  2  0  0  0  0  0  0
   -1.6458   -1.0466    0.7268 N   0  0  0  0  0  2  0  0  0  0  0  0
   -0.9984    1.3210    0.1350 N   0  0  0  0  0  2  0  0  0  0  0  0
   -1.0106   -2.5256   -1.4933 F   0  0  0  0  0  0  0  0  0  0  0  0
   -0.8141   -4.3663   -0.0727 F   0  0  0  0  0  0  0  0  0  0  0  0
    1.0106    2.5254   -1.4936 F   0  0  0  0  0  0  0  0  0  0  0  0
    0.8141    4.3663   -0.0732 F   0  0  0  0  0  0  0  0  0  0  0  0
   -0.7425   -3.0142   -0.2190 B   0  0  0  0  0  0  0  0  0  0  0  0
    0.7424    3.0142   -0.2194 B   0  0  0  0  0  0  0  0  0  0  0  0
    2.5058    0.4410   -0.0892 C   0  0  0  0  0  0  0  0  0  0  0  0
    3.6174    1.1530   -0.7537 C   0  0  0  0  0  0  0  0  0  0  0  0
    4.4697    1.9993   -0.0129 C   0  0  0  0  0  0  0  0  0  0  0  0
    4.2866    2.1491    1.0604 H   0  0  0  0  0  0  0  0  0  0  0  0
    5.5398    2.6461   -0.6427 C   0  0  0  0  0  0  0  0  0  0  0  0
    6.2027    3.2997   -0.0561 H   0  0  0  0  0  0  0  0  0  0  0  0
    5.7612    2.4688   -2.0183 C   0  0  0  0  0  0  0  0  0  0  0  0
    6.5992    2.9833   -2.5124 H   0  0  0  0  0  0  0  0  0  0  0  0
    4.9067    1.6403   -2.7629 C   0  0  0  0  0  0  0  0  0  0  0  0
    5.0676    1.5080   -3.8432 H   0  0  0  0  0  0  0  0  0  0  0  0
    3.8428    0.9813   -2.1357 C   0  0  0  0  0  0  0  0  0  0  0  0
    3.1677    0.3409   -2.7203 H   0  0  0  0  0  0  0  0  0  0  0  0
    2.1938   -0.9573   -0.3361 C   0  0  0  0  0  0  0  0  0  0  0  0
    3.0988   -1.8927   -1.0329 C   0  0  0  0  0  0  0  0  0  0  0  0
    2.6028   -2.7683   -2.0265 C   0  0  0  0  0  0  0  0  0  0  0  0
    1.5297   -2.7666   -2.2632 H   0  0  0  0  0  0  0  0  0  0  0  0
    3.4794   -3.6216   -2.7066 C   0  0  0  0  0  0  0  0  0  0  0  0
    3.0861   -4.2944   -3.4833 H   0  0  0  0  0  0  0  0  0  0  0  0
    4.8506   -3.6245   -2.3994 C   0  0  0  0  0  0  0  0  0  0  0  0
    5.5341   -4.3010   -2.9347 H   0  0  0  0  0  0  0  0  0  0  0  0
    5.3473   -2.7630   -1.4088 C   0  0  0  0  0  0  0  0  0  0  0  0
    6.4195   -2.7621   -1.1619 H   0  0  0  0  0  0  0  0  0  0  0  0
    4.4789   -1.8965   -0.7328 C   0  0  0  0  0  0  0  0  0  0  0  0
    4.8711   -1.2153    0.0364 H   0  0  0  0  0  0  0  0  0  0  0  0
   -2.1938    0.9573   -0.3362 C   0  0  0  0  0  0  0  0  0  0  0  0
   -3.0988    1.8926   -1.0331 C   0  0  0  0  0  0  0  0  0  0  0  0
   -2.6028    2.7681   -2.0268 C   0  0  0  0  0  0  0  0  0  0  0  0
   -1.5297    2.7663   -2.2636 H   0  0  0  0  0  0  0  0  0  0  0  0
   -3.4794    3.6214   -2.7070 C   0  0  0  0  0  0  0  0  0  0  0  0
   -3.0860    4.2941   -3.4838 H   0  0  0  0  0  0  0  0  0  0  0  0
   -4.8506    3.6244   -2.3998 C   0  0  0  0  0  0  0  0  0  0  0  0
   -5.5340    4.3008   -2.9351 H   0  0  0  0  0  0  0  0  0  0  0  0
   -5.3473    2.7630   -1.4090 C   0  0  0  0  0  0  0  0  0  0  0  0
   -6.4195    2.7622   -1.1621 H   0  0  0  0  0  0  0  0  0  0  0  0
   -4.4789    1.8965   -0.7330 C   0  0  0  0  0  0  0  0  0  0  0  0
   -4.8711    1.2154    0.0363 H   0  0  0  0  0  0  0  0  0  0  0  0
   -2.5058   -0.4410   -0.0892 C   0  0  0  0  0  0  0  0  0  0  0  0
   -3.6173   -1.1532   -0.7537 C   0  0  0  0  0  0  0  0  0  0  0  0
   -4.4697   -1.9994   -0.0127 C   0  0  0  0  0  0  0  0  0  0  0  0
   -4.2867   -2.1490    1.0605 H   0  0  0  0  0  0  0  0  0  0  0  0
   -5.5397   -2.6463   -0.6425 C   0  0  0  0  0  0  0  0  0  0  0  0
   -6.2026   -3.2998   -0.0558 H   0  0  0  0  0  0  0  0  0  0  0  0
   -5.7610   -2.4693   -2.0182 C   0  0  0  0  0  0  0  0  0  0  0  0
   -6.5990   -2.9839   -2.5123 H   0  0  0  0  0  0  0  0  0  0  0  0
   -4.9064   -1.6409   -2.7629 C   0  0  0  0  0  0  0  0  0  0  0  0
   -5.0672   -1.5088   -3.8433 H   0  0  0  0  0  0  0  0  0  0  0  0
   -3.8426   -0.9817   -2.1358 C   0  0  0  0  0  0  0  0  0  0  0  0
   -3.1675   -0.3415   -2.7204 H   0  0  0  0  0  0  0  0  0  0  0  0
  2  6  1  0  0  0  0
  4  8  1  0  0  0  0
  5  1  1  0  0  0  0
  7  3  1  0  0  0  0
  9 13  1  0  0  0  0
 11 14  1  0  0  0  0
 13 10  1  0  0  0  0
 13  2  1  0  0  0  0
 13  3  1  0  0  0  0
 14 12  1  0  0  0  0
 14  4  1  0  0  0  0
 14  1  1  0  0  0  0
 15  5  1  0  0  0  0
 16 15  1  0  0  0  0
 16 17  1  0  0  0  0
 17 18  1  0  0  0  0
 19 20  1  0  0  0  0
 19 17  2  0  0  0  0
 21 19  1  0  0  0  0
 22 21  1  0  0  0  0
 23 25  1  0  0  0  0
 23 21  2  0  0  0  0
 24 23  1  0  0  0  0
 25 16  2  0  0  0  0
 26 25  1  0  0  0  0
 27 15  2  0  0  0  0
 27  6  1  0  0  0  0
 28 37  1  0  0  0  0
 28 27  1  0  0  0  0
 29 28  2  0  0  0  0
 30 29  1  0  0  0  0
 31 33  2  0  0  0  0
 31 29  1  0  0  0  0
 32 31  1  0  0  0  0
 33 35  1  0  0  0  0
 34 33  1  0  0  0  0
 35 36  1  0  0  0  0
 35 37  2  0  0  0  0
 37 38  1  0  0  0  0
 39 51  2  0  0  0  0
 39  8  1  0  0  0  0
 40 49  1  0  0  0  0
 40 39  1  0  0  0  0
 41 40  2  0  0  0  0
 42 41  1  0  0  0  0
 43 45  2  0  0  0  0
 43 41  1  0  0  0  0
 44 43  1  0  0  0  0
 45 47  1  0  0  0  0
 46 45  1  0  0  0  0
 47 48  1  0  0  0  0
 47 49  2  0  0  0  0
 49 50  1  0  0  0  0
 51  7  1  0  0  0  0
 52 51  1  0  0  0  0
 52 53  1  0  0  0  0
 53 54  1  0  0  0  0
 55 56  1  0  0  0  0
 55 53  2  0  0  0  0
 57 55  1  0  0  0  0
 58 57  1  0  0  0  0
 59 61  1  0  0  0  0
 59 57  2  0  0  0  0
 60 59  1  0  0  0  0
 61 52  2  0  0  0  0
 62 61  1  0  0  0  0
M  END
