1,9,11,19
 OpenBabel05122313063D

 65 68  0  0  1  0  0  0  0  0999 V2000
   -2.2707   -2.0017    0.4943 N   0  0  0  0  0  2  0  0  0  0  0  0
   -3.3938   -1.3307    0.2559 C   0  0  0  0  0  3  0  0  0  0  0  0
   -4.3488   -1.8800    0.3885 H   0  0  0  0  0  0  0  0  0  0  0  0
   -3.4702    0.0259   -0.0941 C   0  0  0  0  0  0  0  0  0  0  0  0
   -4.5766    0.9102   -0.3705 C   0  0  0  0  0  0  0  0  0  0  0  0
   -4.1720    2.1641   -0.4997 N   0  0  0  0  0  0  0  0  0  0  0  0
   -2.7943    2.1490   -0.3257 N   0  0  0  0  0  0  0  0  0  0  0  0
   -2.3238    0.8731   -0.0456 C   0  0  0  0  0  0  0  0  0  0  0  0
   -1.0958    0.4912    0.2716 N   0  0  0  0  0  2  0  0  0  0  0  0
   -0.4245    1.2594    0.3559 H   0  0  0  0  0  0  0  0  0  0  0  0
    0.2678   -2.9685   -0.3435 N   0  0  0  0  0  2  0  0  0  0  0  0
    1.5314   -3.1682   -0.6964 C   0  0  0  0  0  3  0  0  0  0  0  0
    1.7990   -4.1799   -1.0625 H   0  0  0  0  0  0  0  0  0  0  0  0
    2.5572   -2.2091   -0.6347 C   0  0  0  0  0  0  0  0  0  0  0  0
    3.9578   -2.2550   -0.9705 C   0  0  0  0  0  0  0  0  0  0  0  0
    4.5659   -1.1214   -0.6552 N   0  0  0  0  0  0  0  0  0  0  0  0
    3.5911   -0.2902   -0.1220 N   0  0  0  0  0  0  0  0  0  0  0  0
    2.3561   -0.9231   -0.0548 C   0  0  0  0  0  0  0  0  0  0  0  0
    1.2257   -0.5094    0.5035 N   0  0  0  0  0  2  0  0  0  0  0  0
    1.2765    0.4160    0.9393 H   0  0  0  0  0  0  0  0  0  0  0  0
   -6.0190    0.5477   -0.5151 C   0  0  0  0  0  0  0  0  0  0  0  0
   -6.6172    1.4591   -0.7005 H   0  0  0  0  0  0  0  0  0  0  0  0
   -6.4057    0.0525    0.4006 H   0  0  0  0  0  0  0  0  0  0  0  0
   -6.1769   -0.1566   -1.3584 H   0  0  0  0  0  0  0  0  0  0  0  0
    4.7095   -3.3814   -1.6023 C   0  0  0  0  0  0  0  0  0  0  0  0
    5.7756   -3.1072   -1.7070 H   0  0  0  0  0  0  0  0  0  0  0  0
    4.3071   -3.6224   -2.6085 H   0  0  0  0  0  0  0  0  0  0  0  0
    4.6411   -4.3070   -0.9928 H   0  0  0  0  0  0  0  0  0  0  0  0
   -0.5967   -4.1582   -0.4107 C   0  0  1  0  0  0  0  0  0  0  0  0
    0.0675   -5.0475   -0.4978 H   0  0  0  0  0  0  0  0  0  0  0  0
   -1.3277   -4.2897    0.9276 C   0  0  0  0  0  0  0  0  0  0  0  0
   -0.5783   -4.1381    1.7329 H   0  0  0  0  0  0  0  0  0  0  0  0
   -1.7142   -5.3235    1.0449 H   0  0  0  0  0  0  0  0  0  0  0  0
   -2.5011   -3.3260    1.1138 C   0  0  1  0  0  0  0  0  0  0  0  0
   -3.3869   -3.7709    0.6027 H   0  0  0  0  0  0  0  0  0  0  0  0
   -1.5046   -4.1401   -1.6460 C   0  0  0  0  0  0  0  0  0  0  0  0
   -0.8921   -4.1637   -2.5689 H   0  0  0  0  0  0  0  0  0  0  0  0
   -2.1250   -3.2249   -1.6748 H   0  0  0  0  0  0  0  0  0  0  0  0
   -2.1734   -5.0251   -1.6533 H   0  0  0  0  0  0  0  0  0  0  0  0
   -2.8361   -3.1720    2.6031 C   0  0  0  0  0  0  0  0  0  0  0  0
   -3.7480   -2.5605    2.7510 H   0  0  0  0  0  0  0  0  0  0  0  0
   -1.9980   -2.6688    3.1272 H   0  0  0  0  0  0  0  0  0  0  0  0
   -2.9998   -4.1623    3.0751 H   0  0  0  0  0  0  0  0  0  0  0  0
   -2.0543    3.3429   -0.4248 C   0  0  0  0  0  0  0  0  0  0  0  0
   -0.7290    3.3320   -0.9156 C   0  0  0  0  0  0  0  0  0  0  0  0
   -0.2903    2.3972   -1.2938 H   0  0  0  0  0  0  0  0  0  0  0  0
    0.0012    4.5279   -0.9831 C   0  0  0  0  0  0  0  0  0  0  0  0
    1.0298    4.5073   -1.3751 H   0  0  0  0  0  0  0  0  0  0  0  0
   -0.5811    5.7418   -0.5863 C   0  0  0  0  0  0  0  0  0  0  0  0
   -0.0063    6.6780   -0.6433 H   0  0  0  0  0  0  0  0  0  0  0  0
   -1.9125    5.7522   -0.1347 C   0  0  0  0  0  0  0  0  0  0  0  0
   -2.3843    6.7013    0.1625 H   0  0  0  0  0  0  0  0  0  0  0  0
   -2.6499    4.5654   -0.0499 C   0  0  0  0  0  0  0  0  0  0  0  0
   -3.6928    4.5541    0.2941 H   0  0  0  0  0  0  0  0  0  0  0  0
    3.9414    1.0032    0.3161 C   0  0  0  0  0  0  0  0  0  0  0  0
    3.0124    2.0661    0.2658 C   0  0  0  0  0  0  0  0  0  0  0  0
    2.0181    1.9130   -0.1754 H   0  0  0  0  0  0  0  0  0  0  0  0
    3.3764    3.3384    0.7296 C   0  0  0  0  0  0  0  0  0  0  0  0
    2.6374    4.1533    0.6895 H   0  0  0  0  0  0  0  0  0  0  0  0
    4.6702    3.5744    1.2186 C   0  0  0  0  0  0  0  0  0  0  0  0
    4.9536    4.5742    1.5794 H   0  0  0  0  0  0  0  0  0  0  0  0
    5.6039    2.5238    1.2306 C   0  0  0  0  0  0  0  0  0  0  0  0
    6.6263    2.7011    1.5981 H   0  0  0  0  0  0  0  0  0  0  0  0
    5.2487    1.2441    0.7883 C   0  0  0  0  0  0  0  0  0  0  0  0
    5.9649    0.4119    0.7861 H   0  0  0  0  0  0  0  0  0  0  0  0
  1 34  1  0  0  0  0
  2  3  1  0  0  0  0
  2  1  1  0  0  0  0
  4  8  2  0  0  0  0
  4  2  1  0  0  0  0
  5  4  1  0  0  0  0
  6  5  2  0  0  0  0
  6  7  1  0  0  0  0
  7  8  1  0  0  0  0
  8  9  1  0  0  0  0
  9 10  1  0  0  0  0
 12 14  1  0  0  0  0
 12 11  1  0  0  0  0
 13 12  1  0  0  0  0
 14 18  2  0  0  0  0
 15 16  2  0  0  0  0
 15 14  1  0  0  0  0
 16 17  1  0  0  0  0
 17 18  1  0  0  0  0
 17 55  1  0  0  0  0
 18 19  1  0  0  0  0
 19 20  1  0  0  0  0
 21  5  1  0  0  0  0
 21 23  1  0  0  0  0
 22 21  1  0  0  0  0
 24 21  1  0  0  0  0
 25 28  1  0  0  0  0
 25 15  1  0  0  0  0
 26 25  1  0  0  0  0
 27 25  1  0  0  0  0
 29 30  1  6  0  0  0
 29 11  1  0  0  0  0
 29 31  1  0  0  0  0
 31 33  1  0  0  0  0
 31 34  1  0  0  0  0
 31 32  1  0  0  0  0
 34 35  1  6  0  0  0
 34 40  1  0  0  0  0
 36 29  1  0  0  0  0
 37 36  1  0  0  0  0
 38 36  1  0  0  0  0
 39 36  1  0  0  0  0
 40 41  1  0  0  0  0
 40 43  1  0  0  0  0
 40 42  1  0  0  0  0
 44  7  1  0  0  0  0
 44 53  1  0  0  0  0
 45 44  2  0  0  0  0
 46 45  1  0  0  0  0
 47 45  1  0  0  0  0
 47 49  2  0  0  0  0
 48 47  1  0  0  0  0
 49 51  1  0  0  0  0
 50 49  1  0  0  0  0
 51 53  2  0  0  0  0
 51 52  1  0  0  0  0
 53 54  1  0  0  0  0
 55 64  1  0  0  0  0
 56 55  2  0  0  0  0
 56 58  1  0  0  0  0
 57 56  1  0  0  0  0
 58 60  2  0  0  0  0
 59 58  1  0  0  0  0
 60 62  1  0  0  0  0
 60 61  1  0  0  0  0
 62 63  1  0  0  0  0
 64 62  2  0  0  0  0
 65 64  1  0  0  0  0
M  END
