3,4,5,6
 OpenBabel05122313063D

 47 49  0  0  0  0  0  0  0  0999 V2000
   -1.3074   -3.4074    0.8618 O   0  0  0  0  0  0  0  0  0  0  0  0
    1.4290   -3.1305    1.3654 O   0  0  0  0  0  0  0  0  0  0  0  0
   -1.2677   -1.1602    0.2116 N   0  0  0  0  0  2  0  0  0  0  0  0
    1.3114   -1.0878    0.2036 N   0  0  0  0  0  2  0  0  0  0  0  0
    1.1657    1.6084   -0.4103 N   0  0  0  0  0  2  0  0  0  0  0  0
   -1.3630    1.4560    0.6406 N   0  0  0  0  0  2  0  0  0  0  0  0
   -0.7247   -2.3505    0.6443 C   0  0  0  0  0  0  0  0  0  0  0  0
    0.8005   -2.2406    0.8048 C   0  0  0  0  0  0  0  0  0  0  0  0
    2.6610   -0.9363   -0.0548 C   0  0  0  0  0  0  0  0  0  0  0  0
    3.5228   -2.0766   -0.1004 C   0  0  0  0  0  0  0  0  0  0  0  0
    3.0877   -3.0594    0.1019 H   0  0  0  0  0  0  0  0  0  0  0  0
    4.8838   -1.9662   -0.3545 C   0  0  0  0  0  0  0  0  0  0  0  0
    5.4988   -2.8791   -0.3802 H   0  0  0  0  0  0  0  0  0  0  0  0
    5.4720   -0.7054   -0.5752 C   0  0  0  0  0  0  0  0  0  0  0  0
    6.5492   -0.6078   -0.7737 H   0  0  0  0  0  0  0  0  0  0  0  0
    4.6592    0.4195   -0.5523 C   0  0  0  0  0  3  0  0  0  0  0  0
    5.1253    1.3904   -0.7578 H   0  0  0  0  0  0  0  0  0  0  0  0
    3.2534    0.3564   -0.3109 C   0  0  0  0  0  0  0  0  0  0  0  0
    2.4876    1.5930   -0.4265 C   0  0  0  0  0  0  0  0  0  0  0  0
    3.2601    2.8850   -0.6270 C   0  0  0  0  0  0  0  0  0  0  0  0
    2.6607    3.7756   -0.3761 H   0  0  0  0  0  0  0  0  0  0  0  0
    3.6221    2.9957   -1.6708 H   0  0  0  0  0  0  0  0  0  0  0  0
    4.1485    2.9004    0.0292 H   0  0  0  0  0  0  0  0  0  0  0  0
    0.4397    2.8223   -0.8074 C   0  0  0  0  0  0  0  0  0  0  0  0
   -0.3946    2.4905   -1.4561 H   0  0  0  0  0  0  0  0  0  0  0  0
    1.0607    3.4982   -1.4245 H   0  0  0  0  0  0  0  0  0  0  0  0
   -0.1394    3.5635    0.4024 C   0  0  0  0  0  0  0  0  0  0  0  0
   -0.9057    4.2818    0.0428 H   0  0  0  0  0  0  0  0  0  0  0  0
    0.6433    4.1523    0.9246 H   0  0  0  0  0  0  0  0  0  0  0  0
   -0.7556    2.5587    1.3876 C   0  0  0  0  0  0  0  0  0  0  0  0
    0.0425    2.1259    2.0237 H   0  0  0  0  0  0  0  0  0  0  0  0
   -1.4710    3.0614    2.0660 H   0  0  0  0  0  0  0  0  0  0  0  0
   -2.6662    1.3599    0.4997 C   0  0  0  0  0  0  0  0  0  0  0  0
   -3.5843    2.3862    1.1299 C   0  0  0  0  0  0  0  0  0  0  0  0
   -3.3545    3.4167    0.7921 H   0  0  0  0  0  0  0  0  0  0  0  0
   -3.4757    2.3670    2.2341 H   0  0  0  0  0  0  0  0  0  0  0  0
   -4.6426    2.1742    0.9100 H   0  0  0  0  0  0  0  0  0  0  0  0
   -3.2513    0.2231   -0.2080 C   0  0  0  0  0  0  0  0  0  0  0  0
   -4.5464    0.3260   -0.7812 C   0  0  0  0  0  3  0  0  0  0  0  0
   -5.0541    1.3013   -0.7872 H   0  0  0  0  0  0  0  0  0  0  0  0
   -5.1810   -0.7650   -1.3684 C   0  0  0  0  0  0  0  0  0  0  0  0
   -6.1752   -0.6507   -1.8240 H   0  0  0  0  0  0  0  0  0  0  0  0
   -4.5299   -2.0146   -1.3580 C   0  0  0  0  0  0  0  0  0  0  0  0
   -5.0215   -2.8961   -1.7980 H   0  0  0  0  0  0  0  0  0  0  0  0
   -3.2591   -2.1553   -0.8058 C   0  0  0  0  0  0  0  0  0  0  0  0
   -2.7669   -3.1336   -0.7832 H   0  0  0  0  0  0  0  0  0  0  0  0
   -2.5626   -1.0399   -0.2568 C   0  0  0  0  0  0  0  0  0  0  0  0
  3  7  1  0  0  0  0
  4  8  1  0  0  0  0
  6 30  1  0  0  0  0
  7  8  1  0  0  0  0
  7  1  2  0  0  0  0
  8  2  2  0  0  0  0
  9  4  1  0  0  0  0
 10  9  2  0  0  0  0
 10 11  1  0  0  0  0
 12 10  1  0  0  0  0
 13 12  1  0  0  0  0
 14 16  1  0  0  0  0
 14 12  2  0  0  0  0
 15 14  1  0  0  0  0
 16 18  1  0  0  0  0
 17 16  1  0  0  0  0
 18  9  1  0  0  0  0
 19  5  1  0  0  0  0
 19 18  2  0  0  0  0
 20 19  1  0  0  0  0
 20 21  1  0  0  0  0
 20 23  1  0  0  0  0
 22 20  1  0  0  0  0
 24  5  1  0  0  0  0
 24 27  1  0  0  0  0
 25 24  1  0  0  0  0
 26 24  1  0  0  0  0
 27 29  1  0  0  0  0
 27 30  1  0  0  0  0
 28 27  1  0  0  0  0
 30 31  1  0  0  0  0
 30 32  1  0  0  0  0
 33  6  1  0  0  0  0
 33 34  1  0  0  0  0
 34 36  1  0  0  0  0
 35 34  1  0  0  0  0
 37 34  1  0  0  0  0
 38 33  2  0  0  0  0
 39 38  1  0  0  0  0
 40 39  1  0  0  0  0
 41 43  2  0  0  0  0
 41 39  1  0  0  0  0
 42 41  1  0  0  0  0
 43 45  1  0  0  0  0
 44 43  1  0  0  0  0
 45 46  1  0  0  0  0
 45 47  2  0  0  0  0
 47 38  1  0  0  0  0
 47  3  1  0  0  0  0
M  END
