1,2,4,6
 OpenBabel05122313063D

 45 46  0  0  1  0  0  0  0  0999 V2000
    2.1302    0.2135   -0.3454 N   0  0  0  0  0  2  0  0  0  0  0  0
    0.2290   -1.6279   -1.0501 N   0  0  0  0  0  0  0  0  0  0  0  0
    0.5495   -2.3445   -0.3799 H   0  0  0  0  0  0  0  0  0  0  0  0
   -1.9488   -0.3405    0.8507 N   0  0  0  0  0  0  0  0  0  0  0  0
   -1.9039   -0.9405    1.6844 H   0  0  0  0  0  0  0  0  0  0  0  0
   -0.7669    1.8123   -0.3444 N   0  0  0  0  0  2  0  0  0  0  0  0
    3.0812    0.9275    0.2897 C   0  0  0  0  0  3  0  0  0  0  0  0
    2.7327    1.5516    1.1286 H   0  0  0  0  0  0  0  0  0  0  0  0
    4.4285    0.8531   -0.0802 C   0  0  0  0  0  0  0  0  0  0  0  0
    5.1808    1.4479    0.4567 H   0  0  0  0  0  0  0  0  0  0  0  0
    4.7884   -0.0055   -1.1301 C   0  0  0  0  0  0  0  0  0  0  0  0
    5.8401   -0.0984   -1.4396 H   0  0  0  0  0  0  0  0  0  0  0  0
    3.7954   -0.7607   -1.7712 C   0  0  0  0  0  0  0  0  0  0  0  0
    4.0491   -1.4568   -2.5842 H   0  0  0  0  0  0  0  0  0  0  0  0
    2.4643   -0.6226   -1.3517 C   0  0  0  0  0  0  0  0  0  0  0  0
    1.3150   -1.3637   -2.0076 C   0  0  0  0  0  0  0  0  0  0  0  0
    0.8973   -0.7278   -2.8202 H   0  0  0  0  0  0  0  0  0  0  0  0
    1.6868   -2.2898   -2.4995 H   0  0  0  0  0  0  0  0  0  0  0  0
   -1.0141   -2.0941   -1.6951 C   0  0  0  0  0  0  0  0  0  0  0  0
   -0.8211   -3.0410   -2.2511 H   0  0  0  0  0  0  0  0  0  0  0  0
   -1.2966   -1.3348   -2.4555 H   0  0  0  0  0  0  0  0  0  0  0  0
   -2.2097   -2.3231   -0.7405 C   0  0  0  0  0  0  0  0  0  0  0  0
   -2.7714   -0.9912   -0.1876 C   0  0  0  0  0  0  0  0  0  0  0  0
   -2.8853   -0.2696   -1.0247 H   0  0  0  0  0  0  0  0  0  0  0  0
   -3.7970   -1.1747    0.2088 H   0  0  0  0  0  0  0  0  0  0  0  0
   -3.3297   -2.9505   -1.5952 C   0  0  0  0  0  0  0  0  0  0  0  0
   -4.2262   -3.1584   -0.9786 H   0  0  0  0  0  0  0  0  0  0  0  0
   -2.9987   -3.9102   -2.0389 H   0  0  0  0  0  0  0  0  0  0  0  0
   -3.6356   -2.2800   -2.4247 H   0  0  0  0  0  0  0  0  0  0  0  0
   -1.8343   -3.2855    0.4025 C   0  0  0  0  0  0  0  0  0  0  0  0
   -2.7181   -3.4994    1.0377 H   0  0  0  0  0  0  0  0  0  0  0  0
   -1.0340   -2.8927    1.0641 H   0  0  0  0  0  0  0  0  0  0  0  0
   -1.4885   -4.2576   -0.0044 H   0  0  0  0  0  0  0  0  0  0  0  0
   -2.4374    0.9933    1.2277 C   0  0  0  0  0  0  0  0  0  0  0  0
   -1.9959    1.2468    2.2156 H   0  0  0  0  0  0  0  0  0  0  0  0
   -3.5445    1.0332    1.3305 H   0  0  0  0  0  0  0  0  0  0  0  0
   -1.9687    2.0395    0.2325 C   0  0  1  0  0  3  0  0  0  0  0  0
   -2.6972    3.2062   -0.0435 C   0  0  0  0  0  0  0  0  0  0  0  0
   -3.6763    3.3666    0.4312 H   0  0  0  0  0  0  0  0  0  0  0  0
   -2.1570    4.1540   -0.9236 C   0  0  0  0  0  0  0  0  0  0  0  0
   -2.7106    5.0767   -1.1530 H   0  0  0  0  0  0  0  0  0  0  0  0
   -0.9056    3.9096   -1.5100 C   0  0  0  0  0  0  0  0  0  0  0  0
   -0.4483    4.6278   -2.2049 H   0  0  0  0  0  0  0  0  0  0  0  0
   -0.2437    2.7196   -1.1912 C   0  0  0  0  0  0  0  0  0  0  0  0
    0.7431    2.4766   -1.6177 H   0  0  0  0  0  0  0  0  0  0  0  0
  1  7  1  0  0  0  0
  2  3  1  0  0  0  0
  4 34  1  0  0  0  0
  4  5  1  0  0  0  0
  6 37  1  0  0  0  0
  7  8  1  0  0  0  0
  9  7  1  0  0  0  0
  9 10  1  0  0  0  0
 11  9  2  0  0  0  0
 12 11  1  0  0  0  0
 13 15  2  0  0  0  0
 13 11  1  0  0  0  0
 14 13  1  0  0  0  0
 15  1  1  0  0  0  0
 16 15  1  0  0  0  0
 16  2  1  0  0  0  0
 17 16  1  0  0  0  0
 18 16  1  0  0  0  0
 19  2  1  0  0  0  0
 19 22  1  0  0  0  0
 20 19  1  0  0  0  0
 21 19  1  0  0  0  0
 22 23  1  0  0  0  0
 22 30  1  0  0  0  0
 23 25  1  0  0  0  0
 23  4  1  0  0  0  0
 24 23  1  0  0  0  0
 26 27  1  0  0  0  0
 26 22  1  0  0  0  0
 28 26  1  0  0  0  0
 29 26  1  0  0  0  0
 30 31  1  0  0  0  0
 30 32  1  0  0  0  0
 33 30  1  0  0  0  0
 34 36  1  0  0  0  0
 34 35  1  0  0  0  0
 37 34  1  1  0  0  0
 38 37  1  0  0  0  0
 38 39  1  0  0  0  0
 40 38  2  0  0  0  0
 41 40  1  0  0  0  0
 42 44  2  0  0  0  0
 42 40  1  0  0  0  0
 43 42  1  0  0  0  0
 44  6  1  0  0  0  0
 45 44  1  0  0  0  0
M  END
