1,2,3,4
 OpenBabel05122313063D

 44 48  0  0  0  0  0  0  0  0999 V2000
   -0.0095   -1.9896   -0.0455 N   0  0  0  0  0  2  0  0  0  0  0  0
   -2.4869   -0.4533    0.0178 N   0  0  0  0  0  0  0  0  0  0  0  0
   -0.9008    1.9935   -0.0179 N   0  0  0  0  0  0  0  0  0  0  0  0
    1.6161    0.4642   -0.0875 N   0  0  0  0  0  0  0  0  0  0  0  0
    1.2423   -2.5480   -0.0443 C   0  0  0  0  0  0  0  0  0  0  0  0
    1.1407   -3.9932   -0.0481 C   0  0  0  0  0  0  0  0  0  0  0  0
   -0.2020   -4.2976   -0.0505 C   0  0  0  0  0  0  0  0  0  0  0  0
   -0.9177   -3.0396   -0.0441 C   0  0  0  0  0  0  0  0  0  0  0  0
   -2.3100   -2.9102   -0.0222 C   0  0  0  0  0  0  0  0  0  0  0  0
   -3.0463   -1.7109    0.0121 C   0  0  0  0  0  0  0  0  0  0  0  0
   -4.4887   -1.6083    0.0544 C   0  0  0  0  0  0  0  0  0  0  0  0
   -4.7893   -0.2626    0.0882 C   0  0  0  0  0  0  0  0  0  0  0  0
   -3.5280    0.4456    0.0635 C   0  0  0  0  0  0  0  0  0  0  0  0
   -3.3725    1.8448    0.0771 C   0  0  0  0  0  0  0  0  0  0  0  0
   -2.1691    2.5555    0.0357 C   0  0  0  0  0  3  0  0  0  0  0  0
   -2.0590    3.9989    0.0250 C   0  0  0  0  0  0  0  0  0  0  0  0
   -0.7168    4.2968   -0.0426 C   0  0  0  0  0  0  0  0  0  0  0  0
   -0.0084    3.0330   -0.0696 C   0  0  0  0  0  0  0  0  0  0  0  0
    1.3971    2.9037   -0.1498 C   0  0  0  0  0  0  0  0  0  0  0  0
    2.1339    1.7265   -0.1677 C   0  0  0  0  0  0  0  0  0  0  0  0
    3.6395    1.6796   -0.3249 C   0  0  0  0  0  0  0  0  0  0  0  0
    4.0036    0.2288    0.0687 C   0  0  0  0  0  0  0  0  0  0  0  0
    2.6285   -0.4526   -0.0438 C   0  0  0  0  0  0  0  0  0  0  0  0
    2.4609   -1.8303   -0.0289 C   0  0  0  0  0  0  0  0  0  0  0  0
    4.4546    0.1652    1.5440 C   0  0  0  0  0  0  0  0  0  0  0  0
    5.0713   -0.3850   -0.8449 C   0  0  0  0  0  0  0  0  0  0  0  0
    1.9934   -4.6830   -0.0478 H   0  0  0  0  0  0  0  0  0  0  0  0
   -0.6739   -5.2878   -0.0525 H   0  0  0  0  0  0  0  0  0  0  0  0
   -2.8899   -3.8451   -0.0216 H   0  0  0  0  0  0  0  0  0  0  0  0
   -5.1822   -2.4581    0.0589 H   0  0  0  0  0  0  0  0  0  0  0  0
   -5.7782    0.2104    0.1257 H   0  0  0  0  0  0  0  0  0  0  0  0
   -4.2950    2.4432    0.1146 H   0  0  0  0  0  0  0  0  0  0  0  0
   -2.9077    4.6928    0.0611 H   0  0  0  0  0  0  0  0  0  0  0  0
   -0.2410    5.2845   -0.0735 H   0  0  0  0  0  0  0  0  0  0  0  0
    1.9660    3.8432   -0.2113 H   0  0  0  0  0  0  0  0  0  0  0  0
    3.9004    1.8793   -1.3880 H   0  0  0  0  0  0  0  0  0  0  0  0
    4.1602    2.4447    0.2847 H   0  0  0  0  0  0  0  0  0  0  0  0
    3.3743   -2.4419    0.0020 H   0  0  0  0  0  0  0  0  0  0  0  0
    3.6996    0.6283    2.2109 H   0  0  0  0  0  0  0  0  0  0  0  0
    4.5965   -0.8850    1.8691 H   0  0  0  0  0  0  0  0  0  0  0  0
    5.4151    0.7045    1.6805 H   0  0  0  0  0  0  0  0  0  0  0  0
    4.7368   -0.4017   -1.9014 H   0  0  0  0  0  0  0  0  0  0  0  0
    6.0113    0.2017   -0.7881 H   0  0  0  0  0  0  0  0  0  0  0  0
    5.3152   -1.4250   -0.5475 H   0  0  0  0  0  0  0  0  0  0  0  0
  1  5  1  0  0  0  0
  1  8  1  0  0  0  0
  2 13  1  0  0  0  0
  3 15  1  0  0  0  0
  4 23  2  0  0  0  0
  5 24  2  0  0  0  0
  6 27  1  0  0  0  0
  6  5  1  0  0  0  0
  7  6  2  0  0  0  0
  7  8  1  0  0  0  0
  8  9  2  0  0  0  0
  9 29  1  0  0  0  0
  9 10  1  0  0  0  0
 10  2  2  0  0  0  0
 10 11  1  0  0  0  0
 11 30  1  0  0  0  0
 11 12  2  0  0  0  0
 12 31  1  0  0  0  0
 13 14  2  0  0  0  0
 13 12  1  0  0  0  0
 14 32  1  0  0  0  0
 15 14  1  0  0  0  0
 16 15  1  0  0  0  0
 16 33  1  0  0  0  0
 17 16  2  0  0  0  0
 18 17  1  0  0  0  0
 18  3  2  0  0  0  0
 19 18  1  0  0  0  0
 20 19  2  0  0  0  0
 20  4  1  0  0  0  0
 21 20  1  0  0  0  0
 21 22  2  0  0  0  0
 21 37  1  0  0  0  0
 22 25  1  0  0  0  0
 23 24  1  0  0  0  0
 23 22  1  0  0  0  0
 24 38  1  0  0  0  0
 25 41  1  0  0  0  0
 25 40  1  0  0  0  0
 25 39  1  0  0  0  0
 26 43  1  0  0  0  0
 26 44  1  0  0  0  0
 26 22  1  0  0  0  0
 28  7  1  0  0  0  0
 34 17  1  0  0  0  0
 35 19  1  0  0  0  0
 36 21  1  0  0  0  0
 42 26  1  0  0  0  0
M  END
