1,4,5,6
 OpenBabel05122313063D

 36 37  0  0  0  0  0  0  0  0999 V2000
   -1.3506   -1.1432   -0.3276 N   0  0  0  0  0  2  0  0  0  0  0  0
   -3.3976   -1.9343   -0.0043 N   0  0  0  0  0  0  0  0  0  0  0  0
   -4.3458   -2.0309    0.3580 H   0  0  0  0  0  0  0  0  0  0  0  0
   -1.3395    0.6035    1.5661 N   0  0  0  0  0  2  0  0  0  0  0  0
    1.3007    1.4614    0.8709 N   0  0  0  0  0  2  0  0  0  0  0  0
    1.3065    0.0251   -1.1899 N   0  0  0  0  0  2  0  0  0  0  0  0
   -1.5300   -2.2195   -1.1536 C   0  0  0  0  0  0  0  0  0  0  0  0
   -0.7408   -2.6011   -1.8078 H   0  0  0  0  0  0  0  0  0  0  0  0
   -2.8127   -2.7218   -0.9737 C   0  0  0  0  0  0  0  0  0  0  0  0
   -3.3353   -3.5606   -1.4418 H   0  0  0  0  0  0  0  0  0  0  0  0
   -2.4854   -0.9915    0.3773 C   0  0  0  0  0  0  0  0  0  0  0  0
   -2.4884   -0.0142    1.4241 C   0  0  0  0  0  0  0  0  0  0  0  0
   -3.3600    0.1833    2.0710 H   0  0  0  0  0  0  0  0  0  0  0  0
   -1.1749    1.5457    2.6567 C   0  0  0  0  0  0  0  0  0  0  0  0
   -0.6608    1.0112    3.4892 H   0  0  0  0  0  0  0  0  0  0  0  0
   -2.1679    1.8725    3.0360 H   0  0  0  0  0  0  0  0  0  0  0  0
   -0.3366    2.7455    2.2307 C   0  0  0  0  0  0  0  0  0  0  0  0
   -0.7744    3.1989    1.3177 H   0  0  0  0  0  0  0  0  0  0  0  0
   -0.3720    3.5076    3.0358 H   0  0  0  0  0  0  0  0  0  0  0  0
    1.1221    2.3817    1.9844 C   0  0  0  0  0  0  0  0  0  0  0  0
    1.7048    3.3100    1.7991 H   0  0  0  0  0  0  0  0  0  0  0  0
    1.5536    1.9187    2.9042 H   0  0  0  0  0  0  0  0  0  0  0  0
    2.5179    1.3041    0.3653 C   0  0  0  0  0  0  0  0  0  0  0  0
    3.7371    1.9727    0.9269 C   0  0  0  0  0  0  0  0  0  0  0  0
    3.8359    1.7725    2.0136 H   0  0  0  0  0  0  0  0  0  0  0  0
    3.6979    3.0768    0.8023 H   0  0  0  0  0  0  0  0  0  0  0  0
    4.6601    1.6163    0.4371 H   0  0  0  0  0  0  0  0  0  0  0  0
    2.5487    0.4862   -0.8344 C   0  0  0  0  0  0  0  0  0  0  0  0
    3.6644    0.2520   -1.6661 C   0  0  0  0  0  0  0  0  0  0  0  0
    4.6620    0.5933   -1.3581 H   0  0  0  0  0  0  0  0  0  0  0  0
    3.4822   -0.3949   -2.8912 C   0  0  0  0  0  0  0  0  0  0  0  0
    4.3417   -0.5851   -3.5506 H   0  0  0  0  0  0  0  0  0  0  0  0
    2.1841   -0.7726   -3.2788 C   0  0  0  0  0  0  0  0  0  0  0  0
    1.9889   -1.2449   -4.2515 H   0  0  0  0  0  0  0  0  0  0  0  0
    1.1250   -0.5407   -2.3931 C   0  0  0  0  0  0  0  0  0  0  0  0
    0.0889   -0.7983   -2.6524 H   0  0  0  0  0  0  0  0  0  0  0  0
  1 11  1  0  0  0  0
  2  3  1  0  0  0  0
  2 11  1  0  0  0  0
  4 14  1  0  0  0  0
  5 20  1  0  0  0  0
  6 28  1  0  0  0  0
  7  9  2  0  0  0  0
  7  1  1  0  0  0  0
  8  7  1  0  0  0  0
  9  2  1  0  0  0  0
 10  9  1  0  0  0  0
 11 12  2  0  0  0  0
 12  4  1  0  0  0  0
 12 13  1  0  0  0  0
 14 16  1  0  0  0  0
 14 15  1  0  0  0  0
 17 14  1  0  0  0  0
 17 19  1  0  0  0  0
 18 17  1  0  0  0  0
 20 17  1  0  0  0  0
 20 22  1  0  0  0  0
 21 20  1  0  0  0  0
 23  5  1  0  0  0  0
 23 24  1  0  0  0  0
 24 25  1  0  0  0  0
 26 24  1  0  0  0  0
 27 24  1  0  0  0  0
 28 23  2  0  0  0  0
 29 30  1  0  0  0  0
 29 28  1  0  0  0  0
 31 29  2  0  0  0  0
 32 31  1  0  0  0  0
 33 31  1  0  0  0  0
 33 35  2  0  0  0  0
 34 33  1  0  0  0  0
 35  6  1  0  0  0  0
 36 35  1  0  0  0  0
M  END
