1,2,3,4
 OpenBabel05122313063D

 50 51  0  0  0  0  0  0  0  0999 V2000
   -1.6921   -0.2365   -1.3073 N   0  0  0  0  0  0  0  0  0  0  0  0
   -0.4882    1.9669   -0.6007 N   0  0  0  0  0  2  0  0  0  0  0  0
    2.2373    0.3474   -0.4034 N   0  0  0  0  0  2  0  0  0  0  0  0
    0.9250   -1.9011   -0.6302 N   0  0  0  0  0  2  0  0  0  0  0  0
   -3.6802    0.7626   -1.8563 N   0  0  0  0  0  0  0  0  0  0  0  0
    4.3072   -0.6237   -0.2411 N   0  0  0  0  0  0  0  0  0  0  0  0
    3.1603    1.3423   -0.3265 C   0  0  0  0  0  3  0  0  0  0  0  0
    4.4290    0.7241   -0.2233 C   0  0  0  0  0  0  0  0  0  0  0  0
    2.9794   -0.8222   -0.3572 C   0  0  0  0  0  0  0  0  0  0  0  0
    2.2222   -2.0197   -0.4317 C   0  0  0  0  0  0  0  0  0  0  0  0
    0.0632   -3.0671   -0.4706 C   0  0  0  0  0  0  0  0  0  0  0  0
   -0.8717   -2.9226    0.7399 C   0  0  0  0  0  0  0  0  0  0  0  0
   -0.1486   -2.7276    2.0763 C   0  0  0  0  0  0  0  0  0  0  0  0
   -1.0694   -2.2537    3.2130 C   0  0  0  0  0  0  0  0  0  0  0  0
   -1.7367   -0.8858    2.9893 C   0  0  0  0  0  0  0  0  0  0  0  0
   -0.7670    0.2866    2.8060 C   0  0  0  0  0  0  0  0  0  0  0  0
   -1.4820    1.6160    2.5468 C   0  0  0  0  0  0  0  0  0  0  0  0
   -0.5670    2.8528    2.5020 C   0  0  0  0  0  0  0  0  0  0  0  0
    0.5904    2.8593    1.4886 C   0  0  0  0  0  0  0  0  0  0  0  0
    0.2165    3.0845    0.0149 C   0  0  0  0  0  0  0  0  0  0  0  0
   -1.7516    2.1016   -0.9473 C   0  0  0  0  0  3  0  0  0  0  0  0
   -2.4325    0.9330   -1.3761 C   0  0  0  0  0  3  0  0  0  0  0  0
   -3.7441   -0.5635   -2.1192 C   0  0  0  0  0  0  0  0  0  0  0  0
   -2.5221   -1.1978   -1.7917 C   0  0  0  0  0  0  0  0  0  0  0  0
    2.8991    2.4050   -0.3415 H   0  0  0  0  0  0  0  0  0  0  0  0
    5.4047    1.2212   -0.1355 H   0  0  0  0  0  0  0  0  0  0  0  0
    2.6910   -3.0090   -0.2952 H   0  0  0  0  0  0  0  0  0  0  0  0
    0.7058   -3.9680   -0.3591 H   0  0  0  0  0  0  0  0  0  0  0  0
   -0.5319   -3.2063   -1.3972 H   0  0  0  0  0  0  0  0  0  0  0  0
   -1.5424   -2.0611    0.5517 H   0  0  0  0  0  0  0  0  0  0  0  0
   -1.5269   -3.8195    0.7797 H   0  0  0  0  0  0  0  0  0  0  0  0
    0.6696   -1.9879    1.9446 H   0  0  0  0  0  0  0  0  0  0  0  0
    0.3502   -3.6755    2.3748 H   0  0  0  0  0  0  0  0  0  0  0  0
   -0.4772   -2.2162    4.1534 H   0  0  0  0  0  0  0  0  0  0  0  0
   -1.8621   -3.0150    3.3847 H   0  0  0  0  0  0  0  0  0  0  0  0
   -2.4092   -0.9309    2.1037 H   0  0  0  0  0  0  0  0  0  0  0  0
   -2.4067   -0.6743    3.8513 H   0  0  0  0  0  0  0  0  0  0  0  0
   -0.1097    0.3752    3.7012 H   0  0  0  0  0  0  0  0  0  0  0  0
   -0.0930    0.0716    1.9454 H   0  0  0  0  0  0  0  0  0  0  0  0
   -2.2368    1.7840    3.3465 H   0  0  0  0  0  0  0  0  0  0  0  0
   -2.0681    1.5247    1.6077 H   0  0  0  0  0  0  0  0  0  0  0  0
   -1.1917    3.7599    2.3406 H   0  0  0  0  0  0  0  0  0  0  0  0
   -0.1182    2.9807    3.5116 H   0  0  0  0  0  0  0  0  0  0  0  0
    1.2856    3.6832    1.7581 H   0  0  0  0  0  0  0  0  0  0  0  0
    1.1866    1.9275    1.5721 H   0  0  0  0  0  0  0  0  0  0  0  0
   -0.4173    3.9946   -0.0754 H   0  0  0  0  0  0  0  0  0  0  0  0
    1.1370    3.2780   -0.5745 H   0  0  0  0  0  0  0  0  0  0  0  0
   -2.2627    3.0767   -0.8776 H   0  0  0  0  0  0  0  0  0  0  0  0
   -4.6479   -1.0347   -2.5290 H   0  0  0  0  0  0  0  0  0  0  0  0
   -2.2323   -2.2498   -1.8804 H   0  0  0  0  0  0  0  0  0  0  0  0
  2 20  1  0  0  0  0
  3  9  1  0  0  0  0
  3  7  1  0  0  0  0
  4 11  1  0  0  0  0
  4 10  1  0  0  0  0
  5 22  1  0  0  0  0
  6  8  2  0  0  0  0
  7  8  1  0  0  0  0
  8 26  1  0  0  0  0
  9  6  1  0  0  0  0
 10  9  2  0  0  0  0
 10 27  1  0  0  0  0
 11 28  1  0  0  0  0
 11 12  1  0  0  0  0
 12 31  1  0  0  0  0
 12 13  1  0  0  0  0
 13 33  1  0  0  0  0
 13 14  1  0  0  0  0
 14 35  1  0  0  0  0
 14 34  1  0  0  0  0
 15 14  1  0  0  0  0
 15 37  1  0  0  0  0
 16 15  1  0  0  0  0
 16 38  1  0  0  0  0
 17 16  1  0  0  0  0
 17 40  1  0  0  0  0
 18 17  1  0  0  0  0
 18 43  1  0  0  0  0
 19 45  1  0  0  0  0
 19 44  1  0  0  0  0
 19 18  1  0  0  0  0
 20 19  1  0  0  0  0
 21 48  1  0  0  0  0
 21  2  1  0  0  0  0
 22  1  1  0  0  0  0
 22 21  1  0  0  0  0
 23  5  2  0  0  0  0
 23 24  1  0  0  0  0
 24  1  2  0  0  0  0
 25  7  1  0  0  0  0
 29 11  1  0  0  0  0
 30 12  1  0  0  0  0
 32 13  1  0  0  0  0
 36 15  1  0  0  0  0
 39 16  1  0  0  0  0
 41 17  1  0  0  0  0
 42 18  1  0  0  0  0
 46 20  1  0  0  0  0
 47 20  1  0  0  0  0
 49 23  1  0  0  0  0
 50 24  1  0  0  0  0
M  END
