1,3,29,50
 OpenBabel05122313063D

 56 57  0  0  0  0  0  0  0  0999 V2000
   -1.2839    2.0345   -0.0831 N   0  0  0  0  0  2  0  0  0  0  0  0
   -1.4403    3.8782   -1.4351 N   0  0  0  0  0  0  0  0  0  0  0  0
   -1.0341    0.3148   -2.0338 N   0  0  0  0  0  2  0  0  0  0  0  0
   -1.2538    2.5450   -1.3704 C   0  0  0  0  0  0  0  0  0  0  0  0
   -1.6124    4.2404   -0.1423 C   0  0  0  0  0  0  0  0  0  0  0  0
   -1.5258    3.1130    0.7086 C   0  0  0  0  0  3  0  0  0  0  0  0
   -1.0723    1.5812   -2.3957 C   0  0  0  0  0  0  0  0  0  0  0  0
   -0.6833   -0.6993   -3.0211 C   0  0  0  0  0  0  0  0  0  0  0  0
    0.6708   -1.3678   -2.7401 C   0  0  0  0  0  0  0  0  0  0  0  0
    1.8271   -0.3901   -2.5277 C   0  0  0  0  0  0  0  0  0  0  0  0
    3.1723   -1.1008   -2.3478 C   0  0  0  0  0  0  0  0  0  0  0  0
    4.3368   -0.1734   -1.9704 C   0  0  0  0  0  0  0  0  0  0  0  0
    4.2317    0.4919   -0.5888 C   0  0  0  0  0  0  0  0  0  0  0  0
   -1.7913    5.2832    0.1531 H   0  0  0  0  0  0  0  0  0  0  0  0
   -1.6237    3.0474    1.7969 H   0  0  0  0  0  0  0  0  0  0  0  0
   -0.9557    1.8764   -3.4522 H   0  0  0  0  0  0  0  0  0  0  0  0
   -0.6619   -0.2145   -4.0218 H   0  0  0  0  0  0  0  0  0  0  0  0
   -1.4877   -1.4642   -3.0520 H   0  0  0  0  0  0  0  0  0  0  0  0
    0.5833   -2.0161   -1.8442 H   0  0  0  0  0  0  0  0  0  0  0  0
    0.8882   -2.0470   -3.5935 H   0  0  0  0  0  0  0  0  0  0  0  0
    1.8929    0.3255   -3.3791 H   0  0  0  0  0  0  0  0  0  0  0  0
    1.6030    0.2259   -1.6299 H   0  0  0  0  0  0  0  0  0  0  0  0
    3.4267   -1.6384   -3.2875 H   0  0  0  0  0  0  0  0  0  0  0  0
    3.0606   -1.8949   -1.5767 H   0  0  0  0  0  0  0  0  0  0  0  0
    5.2839   -0.7553   -2.0128 H   0  0  0  0  0  0  0  0  0  0  0  0
    4.4330    0.6180   -2.7463 H   0  0  0  0  0  0  0  0  0  0  0  0
    3.3218    1.1298   -0.5488 H   0  0  0  0  0  0  0  0  0  0  0  0
    5.0872    1.1929   -0.4684 H   0  0  0  0  0  0  0  0  0  0  0  0
   -1.0340   -0.3148    2.0339 N   0  0  0  0  0  2  0  0  0  0  0  0
   -1.0721   -1.5813    2.3957 C   0  0  0  0  0  3  0  0  0  0  0  0
   -0.6832    0.6993    3.0211 C   0  0  0  0  0  0  0  0  0  0  0  0
    0.6708    1.3678    2.7401 C   0  0  0  0  0  0  0  0  0  0  0  0
    1.8272    0.3903    2.5277 C   0  0  0  0  0  0  0  0  0  0  0  0
    3.1724    1.1010    2.3477 C   0  0  0  0  0  0  0  0  0  0  0  0
    4.3369    0.1737    1.9702 C   0  0  0  0  0  0  0  0  0  0  0  0
    4.2317   -0.4915    0.5886 C   0  0  0  0  0  0  0  0  0  0  0  0
   -0.9553   -1.8765    3.4522 H   0  0  0  0  0  0  0  0  0  0  0  0
   -0.6618    0.2144    4.0218 H   0  0  0  0  0  0  0  0  0  0  0  0
   -1.4876    1.4641    3.0521 H   0  0  0  0  0  0  0  0  0  0  0  0
    0.5832    2.0162    1.8442 H   0  0  0  0  0  0  0  0  0  0  0  0
    0.8882    2.0470    3.5935 H   0  0  0  0  0  0  0  0  0  0  0  0
    1.8931   -0.3253    3.3791 H   0  0  0  0  0  0  0  0  0  0  0  0
    1.6031   -0.2257    1.6299 H   0  0  0  0  0  0  0  0  0  0  0  0
    3.4267    1.6386    3.2874 H   0  0  0  0  0  0  0  0  0  0  0  0
    3.0605    1.8952    1.5766 H   0  0  0  0  0  0  0  0  0  0  0  0
    5.2839    0.7557    2.0126 H   0  0  0  0  0  0  0  0  0  0  0  0
    4.4332   -0.6177    2.7461 H   0  0  0  0  0  0  0  0  0  0  0  0
    3.3219   -1.1295    0.5487 H   0  0  0  0  0  0  0  0  0  0  0  0
    5.0873   -1.1925    0.4682 H   0  0  0  0  0  0  0  0  0  0  0  0
   -1.2837   -2.0346    0.0832 N   0  0  0  0  0  0  0  0  0  0  0  0
   -1.4398   -3.8783    1.4351 N   0  0  0  0  0  0  0  0  0  0  0  0
   -1.2535   -2.5451    1.3704 C   0  0  0  0  0  3  0  0  0  0  0  0
   -1.6119   -4.2405    0.1424 C   0  0  0  0  0  0  0  0  0  0  0  0
   -1.5255   -3.1131   -0.7085 C   0  0  0  0  0  0  0  0  0  0  0  0
   -1.7907   -5.2833   -0.1531 H   0  0  0  0  0  0  0  0  0  0  0  0
   -1.6234   -3.0475   -1.7969 H   0  0  0  0  0  0  0  0  0  0  0  0
  1  6  1  0  0  0  0
  2  4  1  0  0  0  0
  2  5  2  0  0  0  0
  4  1  1  0  0  0  0
  5 14  1  0  0  0  0
  5  6  1  0  0  0  0
  6 15  1  0  0  0  0
  7  3  1  0  0  0  0
  7  4  2  0  0  0  0
  8  9  1  0  0  0  0
  8  3  1  0  0  0  0
  9 10  1  0  0  0  0
  9 19  1  0  0  0  0
 10 11  1  0  0  0  0
 10 22  1  0  0  0  0
 11 12  1  0  0  0  0
 11 24  1  0  0  0  0
 12 13  1  0  0  0  0
 13 27  1  0  0  0  0
 13 28  1  0  0  0  0
 13 36  1  0  0  0  0
 16  7  1  0  0  0  0
 17  8  1  0  0  0  0
 18  8  1  0  0  0  0
 20  9  1  0  0  0  0
 21 10  1  0  0  0  0
 23 11  1  0  0  0  0
 25 12  1  0  0  0  0
 26 12  1  0  0  0  0
 29 30  1  0  0  0  0
 29 31  1  0  0  0  0
 30 37  1  0  0  0  0
 31 39  1  0  0  0  0
 31 38  1  0  0  0  0
 32 31  1  0  0  0  0
 32 41  1  0  0  0  0
 33 32  1  0  0  0  0
 33 42  1  0  0  0  0
 34 33  1  0  0  0  0
 34 44  1  0  0  0  0
 35 46  1  0  0  0  0
 35 34  1  0  0  0  0
 35 47  1  0  0  0  0
 36 35  1  0  0  0  0
 40 32  1  0  0  0  0
 43 33  1  0  0  0  0
 45 34  1  0  0  0  0
 48 36  1  0  0  0  0
 49 36  1  0  0  0  0
 50 52  1  0  0  0  0
 52 51  1  0  0  0  0
 52 30  1  0  0  0  0
 53 51  2  0  0  0  0
 54 50  2  0  0  0  0
 54 53  1  0  0  0  0
 55 53  1  0  0  0  0
 56 54  1  0  0  0  0
M  END
