1,2,3,4
 OpenBabel05122313063D

 62 66  0  0  1  0  0  0  0  0999 V2000
   -1.2996   -1.2692   -0.7031 N   0  0  0  0  0  2  0  0  0  0  0  0
   -1.4010    1.3808   -0.4262 N   0  0  0  0  0  0  0  0  0  0  0  0
    1.4037   -1.1834   -0.5478 N   0  0  0  0  0  0  0  0  0  0  0  0
    1.3026    1.4718   -0.2848 N   0  0  0  0  0  2  0  0  0  0  0  0
    2.5593    1.3702    0.2058 C   0  0  2  0  0  3  0  0  0  0  0  0
   -3.1239   -0.1257    0.5329 C   0  0  0  0  0  0  0  0  0  0  0  0
   -2.7042    1.1654   -0.1384 C   0  0  0  0  0  3  0  0  0  0  0  0
   -0.0829    3.3003   -1.1762 C   0  0  0  0  0  0  0  0  0  0  0  0
   -0.0977    4.3331   -1.5555 H   0  0  0  0  0  0  0  0  0  0  0  0
   -1.3057    2.6486   -1.0049 C   0  0  0  0  0  0  0  0  0  0  0  0
   -2.6111   -1.2213   -0.3784 C   0  0  2  0  0  3  0  0  0  0  0  0
   -2.3819   -0.2345    1.9089 C   0  0  0  0  0  0  0  0  0  0  0  0
   -1.2984   -0.1177    1.6920 H   0  0  0  0  0  0  0  0  0  0  0  0
   -2.6654    0.6405    2.5294 H   0  0  0  0  0  0  0  0  0  0  0  0
    3.0642    0.0870    0.8298 C   0  0  0  0  0  0  0  0  0  0  0  0
    1.1439    2.7776   -0.7588 C   0  0  0  0  0  0  0  0  0  0  0  0
   -3.4969    2.2761   -0.5689 C   0  0  0  0  0  0  0  0  0  0  0  0
   -4.5825    2.3707   -0.4663 H   0  0  0  0  0  0  0  0  0  0  0  0
   -3.3152   -2.3081   -0.9842 C   0  0  0  0  0  0  0  0  0  0  0  0
   -4.3852   -2.5161   -0.8838 H   0  0  0  0  0  0  0  0  0  0  0  0
    1.3451   -2.3773   -1.2737 C   0  0  0  0  0  0  0  0  0  0  0  0
    2.6200   -3.0227   -1.2109 C   0  0  0  0  0  0  0  0  0  0  0  0
    2.8666   -3.9833   -1.6786 H   0  0  0  0  0  0  0  0  0  0  0  0
    0.1585   -2.9098   -1.7842 C   0  0  0  0  0  0  0  0  0  0  0  0
    0.2214   -3.8515   -2.3500 H   0  0  0  0  0  0  0  0  0  0  0  0
    3.2379    2.6248    0.0859 C   0  0  0  0  0  0  0  0  0  0  0  0
    4.2519    2.8437    0.4347 H   0  0  0  0  0  0  0  0  0  0  0  0
    2.3616    3.4983   -0.5505 C   0  0  0  0  0  0  0  0  0  0  0  0
    2.5280    4.5494   -0.8146 H   0  0  0  0  0  0  0  0  0  0  0  0
    2.6543   -1.0803   -0.0410 C   0  0  0  0  0  3  0  0  0  0  0  0
   -4.6578   -0.2242    0.7025 C   0  0  0  0  0  0  0  0  0  0  0  0
   -5.1280   -0.0250   -0.2833 H   0  0  0  0  0  0  0  0  0  0  0  0
   -4.9096   -1.2772    0.9441 H   0  0  0  0  0  0  0  0  0  0  0  0
    3.4313   -2.2244   -0.4108 C   0  0  0  0  0  0  0  0  0  0  0  0
    4.4642   -2.4240   -0.1092 H   0  0  0  0  0  0  0  0  0  0  0  0
   -1.1102   -2.4039   -1.4951 C   0  0  0  0  0  0  0  0  0  0  0  0
   -2.6192    3.2049   -1.1227 C   0  0  0  0  0  0  0  0  0  0  0  0
   -2.8537    4.1953   -1.5309 H   0  0  0  0  0  0  0  0  0  0  0  0
   -2.6174   -1.5414    2.6600 C   0  0  0  0  0  0  0  0  0  0  0  0
   -2.0055   -1.5747    3.5838 H   0  0  0  0  0  0  0  0  0  0  0  0
   -2.3363   -2.4162    2.0387 H   0  0  0  0  0  0  0  0  0  0  0  0
   -3.6767   -1.6720    2.9620 H   0  0  0  0  0  0  0  0  0  0  0  0
   -2.3740   -3.0451   -1.6993 C   0  0  0  0  0  0  0  0  0  0  0  0
   -2.5311   -3.9662   -2.2732 H   0  0  0  0  0  0  0  0  0  0  0  0
   -5.2712    0.6789    1.7759 C   0  0  0  0  0  0  0  0  0  0  0  0
   -6.3779    0.6351    1.7323 H   0  0  0  0  0  0  0  0  0  0  0  0
   -4.9726    1.7391    1.6584 H   0  0  0  0  0  0  0  0  0  0  0  0
   -4.9725    0.3670    2.7966 H   0  0  0  0  0  0  0  0  0  0  0  0
    4.5989    0.1284    1.0400 C   0  0  0  0  0  0  0  0  0  0  0  0
    4.8950   -0.8029    1.5648 H   0  0  0  0  0  0  0  0  0  0  0  0
    4.8121    0.9465    1.7612 H   0  0  0  0  0  0  0  0  0  0  0  0
    2.3346   -0.0511    2.2192 C   0  0  0  0  0  0  0  0  0  0  0  0
    2.5965    0.8435    2.8239 H   0  0  0  0  0  0  0  0  0  0  0  0
    1.2470    0.0218    2.0056 H   0  0  0  0  0  0  0  0  0  0  0  0
    5.4708    0.2999   -0.2083 C   0  0  0  0  0  0  0  0  0  0  0  0
    6.5438    0.3119    0.0706 H   0  0  0  0  0  0  0  0  0  0  0  0
    5.2513    1.2423   -0.7450 H   0  0  0  0  0  0  0  0  0  0  0  0
    5.3212   -0.5226   -0.9337 H   0  0  0  0  0  0  0  0  0  0  0  0
    2.6194   -1.3336    2.9963 C   0  0  0  0  0  0  0  0  0  0  0  0
    2.0068   -1.3656    3.9197 H   0  0  0  0  0  0  0  0  0  0  0  0
    3.6808   -1.4165    3.3056 H   0  0  0  0  0  0  0  0  0  0  0  0
    2.3714   -2.2324    2.3958 H   0  0  0  0  0  0  0  0  0  0  0  0
  1 11  1  0  0  0  0
  2  7  1  0  0  0  0
  3 30  1  0  0  0  0
  5  4  1  1  0  0  0
  5 15  1  0  0  0  0
  6 31  1  0  0  0  0
  6 12  1  0  0  0  0
  7  6  1  0  0  0  0
  8 10  1  0  0  0  0
  8 16  2  0  0  0  0
  9  8  1  0  0  0  0
 10  2  2  0  0  0  0
 11 19  1  1  0  0  0
 11  6  1  0  0  0  0
 12 14  1  0  0  0  0
 12 39  1  0  0  0  0
 13 12  1  0  0  0  0
 15 49  1  0  0  0  0
 15 52  1  0  0  0  0
 16 28  1  0  0  0  0
 16  4  1  0  0  0  0
 17 18  1  0  0  0  0
 17  7  1  0  0  0  0
 19 20  1  0  0  0  0
 21 22  1  0  0  0  0
 21  3  2  0  0  0  0
 22 34  2  0  0  0  0
 23 22  1  0  0  0  0
 24 36  2  0  0  0  0
 24 21  1  0  0  0  0
 25 24  1  0  0  0  0
 26  5  1  0  0  0  0
 26 27  1  0  0  0  0
 28 26  2  0  0  0  0
 29 28  1  0  0  0  0
 30 15  1  0  0  0  0
 31 33  1  0  0  0  0
 31 45  1  0  0  0  0
 32 31  1  0  0  0  0
 34 35  1  0  0  0  0
 34 30  1  0  0  0  0
 36  1  1  0  0  0  0
 37 10  1  0  0  0  0
 37 17  2  0  0  0  0
 38 37  1  0  0  0  0
 39 42  1  0  0  0  0
 39 40  1  0  0  0  0
 41 39  1  0  0  0  0
 43 36  1  0  0  0  0
 43 19  2  0  0  0  0
 44 43  1  0  0  0  0
 45 48  1  0  0  0  0
 46 45  1  0  0  0  0
 47 45  1  0  0  0  0
 49 50  1  0  0  0  0
 49 51  1  0  0  0  0
 52 53  1  0  0  0  0
 52 59  1  0  0  0  0
 54 52  1  0  0  0  0
 55 56  1  0  0  0  0
 55 49  1  0  0  0  0
 57 55  1  0  0  0  0
 58 55  1  0  0  0  0
 59 61  1  0  0  0  0
 59 60  1  0  0  0  0
 62 59  1  0  0  0  0
M  END
