3,5,7,9
 OpenBabel05122313063D

 78 86  0  0  0  0  0  0  0  0999 V2000
    2.4720    0.5528    1.9465 O   0  0  0  0  0  0  0  0  0  0  0  0
   -2.5444   -0.5718    1.5311 O   0  0  0  0  0  0  0  0  0  0  0  0
    0.6917    1.8572   -0.4262 N   0  0  0  0  0  2  0  0  0  0  0  0
    3.0726    1.6317    0.0375 N   0  0  0  0  0  0  0  0  0  0  0  0
    1.8614   -0.5050   -0.0955 N   0  0  0  0  0  0  0  0  0  0  0  0
    1.7173   -2.7412   -0.9725 N   0  0  0  0  0  0  0  0  0  0  0  0
   -0.4442   -1.6902   -0.6609 N   0  0  0  0  0  0  0  0  0  0  0  0
   -2.8683   -1.4909   -0.5233 N   0  0  0  0  0  0  0  0  0  0  0  0
   -1.6530    0.6414   -0.3215 N   0  0  0  0  0  0  0  0  0  0  0  0
   -1.4021    2.9351   -0.9989 N   0  0  0  0  0  0  0  0  0  0  0  0
   -0.0841    2.8944   -0.8703 C   0  0  0  0  0  0  0  0  0  0  0  0
    0.7761    4.0556   -1.1728 C   0  0  0  0  0  0  0  0  0  0  0  0
    0.4750    5.3349   -1.6482 C   0  0  0  0  0  0  0  0  0  0  0  0
   -0.5645    5.6177   -1.8683 H   0  0  0  0  0  0  0  0  0  0  0  0
    1.5483    6.2274   -1.8283 C   0  0  0  0  0  0  0  0  0  0  0  0
    1.3537    7.2431   -2.2051 H   0  0  0  0  0  0  0  0  0  0  0  0
    2.8722    5.8438   -1.5305 C   0  0  0  0  0  0  0  0  0  0  0  0
    3.6887    6.5663   -1.6812 H   0  0  0  0  0  0  0  0  0  0  0  0
    3.1654    4.5553   -1.0439 C   0  0  0  0  0  0  0  0  0  0  0  0
    4.1911    4.2415   -0.8014 H   0  0  0  0  0  0  0  0  0  0  0  0
    2.0974    3.6718   -0.8779 C   0  0  0  0  0  0  0  0  0  0  0  0
    2.0375    2.2774   -0.3807 C   0  0  0  0  0  0  0  0  0  0  0  0
    2.8846    0.3278    0.6061 C   0  0  0  0  0  0  0  0  0  0  0  0
    4.1516   -0.5126    0.4641 C   0  0  0  0  0  0  0  0  0  0  0  0
    5.4624   -0.2330    0.8433 C   0  0  0  0  0  0  0  0  0  0  0  0
    5.7212    0.7326    1.3020 H   0  0  0  0  0  0  0  0  0  0  0  0
    6.4376   -1.2244    0.6091 C   0  0  0  0  0  0  0  0  0  0  0  0
    7.4838   -1.0344    0.8938 H   0  0  0  0  0  0  0  0  0  0  0  0
    6.0974   -2.4534    0.0109 C   0  0  0  0  0  0  0  0  0  0  0  0
    6.8809   -3.2072   -0.1597 H   0  0  0  0  0  0  0  0  0  0  0  0
    4.7724   -2.7246   -0.3768 C   0  0  0  0  0  0  0  0  0  0  0  0
    4.4830   -3.6725   -0.8532 H   0  0  0  0  0  0  0  0  0  0  0  0
    3.8156   -1.7316   -0.1428 C   0  0  0  0  0  0  0  0  0  0  0  0
    2.3693   -1.6891   -0.4414 C   0  0  0  0  0  0  0  0  0  0  0  0
    0.3952   -2.7025   -1.0424 C   0  0  0  0  0  0  0  0  0  0  0  0
   -0.4046   -3.8387   -1.5428 C   0  0  0  0  0  0  0  0  0  0  0  0
   -0.0299   -5.0880   -2.0443 C   0  0  0  0  0  0  0  0  0  0  0  0
    1.0321   -5.3628   -2.1200 H   0  0  0  0  0  0  0  0  0  0  0  0
   -1.0599   -5.9620   -2.4401 C   0  0  0  0  0  0  0  0  0  0  0  0
   -0.8062   -6.9538   -2.8442 H   0  0  0  0  0  0  0  0  0  0  0  0
   -2.4150   -5.5901   -2.3243 C   0  0  0  0  0  0  0  0  0  0  0  0
   -3.1963   -6.2975   -2.6413 H   0  0  0  0  0  0  0  0  0  0  0  0
   -2.7839   -4.3322   -1.8094 C   0  0  0  0  0  3  0  0  0  0  0  0
   -3.8358   -4.0286   -1.7059 H   0  0  0  0  0  0  0  0  0  0  0  0
   -1.7571   -3.4664   -1.4295 C   0  0  0  0  0  0  0  0  0  0  0  0
   -1.7796   -2.1080   -0.8374 C   0  0  0  0  0  0  0  0  0  0  0  0
   -2.7546   -0.2373    0.1654 C   0  0  0  0  0  0  0  0  0  0  0  0
   -3.9935    0.6304   -0.0458 C   0  0  0  0  0  0  0  0  0  0  0  0
   -5.3367    0.3467    0.1888 C   0  0  0  0  0  0  0  0  0  0  0  0
   -5.6474   -0.6449    0.5491 H   0  0  0  0  0  0  0  0  0  0  0  0
   -6.2741    1.3702   -0.0597 C   0  0  0  0  0  0  0  0  0  0  0  0
   -7.3448    1.1782    0.1092 H   0  0  0  0  0  0  0  0  0  0  0  0
   -5.8651    2.6361   -0.5244 C   0  0  0  0  0  0  0  0  0  0  0  0
   -6.6210    3.4144   -0.7087 H   0  0  0  0  0  0  0  0  0  0  0  0
   -4.5062    2.9153   -0.7553 C   0  0  0  0  0  0  0  0  0  0  0  0
   -4.1618    3.8955   -1.1155 H   0  0  0  0  0  0  0  0  0  0  0  0
   -3.5870    1.8889   -0.5106 C   0  0  0  0  0  0  0  0  0  0  0  0
   -2.1166    1.8530   -0.6382 C   0  0  0  0  0  0  0  0  0  0  0  0
    2.7109   -0.4508    2.9456 C   0  0  0  0  0  0  0  0  0  0  0  0
    3.4046   -0.0060    3.6935 H   0  0  0  0  0  0  0  0  0  0  0  0
    3.2258   -1.3331    2.5093 H   0  0  0  0  0  0  0  0  0  0  0  0
    1.4187   -0.8926    3.6276 C   0  0  0  0  0  0  0  0  0  0  0  0
    0.8643    0.0145    3.9538 H   0  0  0  0  0  0  0  0  0  0  0  0
    1.7121   -1.4235    4.5603 H   0  0  0  0  0  0  0  0  0  0  0  0
    0.5258   -1.7882    2.7719 C   0  0  0  0  0  0  0  0  0  0  0  0
    0.1633   -1.2597    1.8699 H   0  0  0  0  0  0  0  0  0  0  0  0
   -0.3673   -2.1321    3.3296 H   0  0  0  0  0  0  0  0  0  0  0  0
    1.0745   -2.6899    2.4265 H   0  0  0  0  0  0  0  0  0  0  0  0
   -2.3597    0.5242    2.4335 C   0  0  0  0  0  0  0  0  0  0  0  0
   -3.0230    1.3747    2.1530 H   0  0  0  0  0  0  0  0  0  0  0  0
   -1.3074    0.8845    2.3711 H   0  0  0  0  0  0  0  0  0  0  0  0
   -2.7009    0.0530    3.8407 C   0  0  0  0  0  0  0  0  0  0  0  0
   -2.4730    0.8889    4.5369 H   0  0  0  0  0  0  0  0  0  0  0  0
   -2.0139   -0.7752    4.1163 H   0  0  0  0  0  0  0  0  0  0  0  0
   -4.1548   -0.3949    3.9903 C   0  0  0  0  0  0  0  0  0  0  0  0
   -4.8565    0.4299    3.7448 H   0  0  0  0  0  0  0  0  0  0  0  0
   -4.3745   -0.7317    5.0230 H   0  0  0  0  0  0  0  0  0  0  0  0
   -4.3728   -1.2334    3.2999 H   0  0  0  0  0  0  0  0  0  0  0  0
  1 59  1  0  0  0  0
  2 69  1  0  0  0  0
  3 22  1  0  0  0  0
  4 23  1  0  0  0  0
  5 23  2  0  0  0  0
  6 34  2  0  0  0  0
  8 47  2  0  0  0  0
  9 47  1  0  0  0  0
 10 11  2  0  0  0  0
 10 58  1  0  0  0  0
 11  3  1  0  0  0  0
 12 21  1  0  0  0  0
 12 11  1  0  0  0  0
 13 12  2  0  0  0  0
 14 13  1  0  0  0  0
 15 13  1  0  0  0  0
 15 17  2  0  0  0  0
 16 15  1  0  0  0  0
 17 19  1  0  0  0  0
 18 17  1  0  0  0  0
 19 21  2  0  0  0  0
 19 20  1  0  0  0  0
 21 22  1  0  0  0  0
 22  4  2  0  0  0  0
 23  1  1  0  0  0  0
 24 23  1  0  0  0  0
 24 25  1  0  0  0  0
 25 26  1  0  0  0  0
 27 25  2  0  0  0  0
 27 28  1  0  0  0  0
 29 27  1  0  0  0  0
 30 29  1  0  0  0  0
 31 33  1  0  0  0  0
 31 29  2  0  0  0  0
 32 31  1  0  0  0  0
 33 24  2  0  0  0  0
 34 33  1  0  0  0  0
 34  5  1  0  0  0  0
 35  6  1  0  0  0  0
 35  7  2  0  0  0  0
 36 45  1  0  0  0  0
 36 35  1  0  0  0  0
 37 36  2  0  0  0  0
 38 37  1  0  0  0  0
 39 41  2  0  0  0  0
 39 37  1  0  0  0  0
 40 39  1  0  0  0  0
 41 43  1  0  0  0  0
 42 41  1  0  0  0  0
 43 44  1  0  0  0  0
 43 45  1  0  0  0  0
 45 46  2  0  0  0  0
 46  7  1  0  0  0  0
 46  8  1  0  0  0  0
 47  2  1  0  0  0  0
 48 47  1  0  0  0  0
 48 49  1  0  0  0  0
 49 50  1  0  0  0  0
 51 52  1  0  0  0  0
 51 49  2  0  0  0  0
 53 51  1  0  0  0  0
 54 53  1  0  0  0  0
 55 53  2  0  0  0  0
 55 57  1  0  0  0  0
 56 55  1  0  0  0  0
 57 48  2  0  0  0  0
 58 57  1  0  0  0  0
 58  9  2  0  0  0  0
 59 62  1  0  0  0  0
 59 60  1  0  0  0  0
 61 59  1  0  0  0  0
 62 63  1  0  0  0  0
 62 64  1  0  0  0  0
 65 67  1  0  0  0  0
 65 62  1  0  0  0  0
 66 65  1  0  0  0  0
 68 65  1  0  0  0  0
 69 72  1  0  0  0  0
 70 69  1  0  0  0  0
 71 69  1  0  0  0  0
 72 75  1  0  0  0  0
 72 74  1  0  0  0  0
 72 73  1  0  0  0  0
 75 77  1  0  0  0  0
 76 75  1  0  0  0  0
 78 75  1  0  0  0  0
M  END
