1,2,3,4
 OpenBabel05122313063D

 60 68  0  0  0  0  0  0  0  0999 V2000
    1.5324   -1.3453   -0.4268 N   0  0  0  0  0  0  0  0  0  0  0  0
    1.5488    1.3269   -0.4202 N   0  0  0  0  0  0  0  0  0  0  0  0
   -1.5328    1.3453   -0.4264 N   0  0  0  0  0  0  0  0  0  0  0  0
   -1.5493   -1.3269   -0.4196 N   0  0  0  0  0  0  0  0  0  0  0  0
    1.6738   -2.6993   -0.5205 C   0  0  0  0  0  0  0  0  0  0  0  0
    3.0853   -2.9958   -0.7651 C   0  0  0  0  0  0  0  0  0  0  0  0
    3.7701   -1.7387   -0.8250 C   0  0  0  0  0  0  0  0  0  0  0  0
    2.7515   -0.7282   -0.5688 C   0  0  0  0  0  0  0  0  0  0  0  0
    2.7682    0.6962   -0.4581 C   0  0  0  0  0  0  0  0  0  0  0  0
    3.8251    1.6921   -0.3283 C   0  0  0  0  0  3  0  0  0  0  0  0
    3.1526    2.9551   -0.2530 C   0  0  0  0  0  0  0  0  0  0  0  0
    1.7176    2.6768   -0.3164 C   0  0  0  0  0  0  0  0  0  0  0  0
    0.7229    3.6829   -0.2969 C   0  0  0  0  0  0  0  0  0  0  0  0
    1.1580    4.6923   -0.2176 H   0  0  0  0  0  0  0  0  0  0  0  0
   -0.6741    3.6932   -0.4029 C   0  0  0  0  0  0  0  0  0  0  0  0
   -1.0989    4.7101   -0.4189 H   0  0  0  0  0  0  0  0  0  0  0  0
   -1.6742    2.6993   -0.5203 C   0  0  0  0  0  0  0  0  0  0  0  0
   -3.0858    2.9957   -0.7647 C   0  0  0  0  0  0  0  0  0  0  0  0
   -3.7706    1.7387   -0.8244 C   0  0  0  0  0  0  0  0  0  0  0  0
   -2.7520    0.7282   -0.5683 C   0  0  0  0  0  0  0  0  0  0  0  0
   -2.7687   -0.6962   -0.4575 C   0  0  0  0  0  0  0  0  0  0  0  0
   -3.8256   -1.6921   -0.3277 C   0  0  0  0  0  3  0  0  0  0  0  0
   -3.1530   -2.9551   -0.2525 C   0  0  0  0  0  0  0  0  0  0  0  0
   -1.7180   -2.6768   -0.3159 C   0  0  0  0  0  0  0  0  0  0  0  0
   -0.7234   -3.6829   -0.2966 C   0  0  0  0  0  0  0  0  0  0  0  0
   -1.1584   -4.6923   -0.2172 H   0  0  0  0  0  0  0  0  0  0  0  0
    0.6736   -3.6932   -0.4028 C   0  0  0  0  0  0  0  0  0  0  0  0
    1.0984   -4.7101   -0.4189 H   0  0  0  0  0  0  0  0  0  0  0  0
    3.7729   -4.2038   -0.9778 C   0  0  0  0  0  3  0  0  0  0  0  0
    3.2453   -5.1689   -0.9325 H   0  0  0  0  0  0  0  0  0  0  0  0
    5.1408   -4.1591   -1.2697 C   0  0  0  0  0  0  0  0  0  0  0  0
    5.6953   -5.0944   -1.4396 H   0  0  0  0  0  0  0  0  0  0  0  0
    5.8120   -2.9200   -1.3770 C   0  0  0  0  0  0  0  0  0  0  0  0
    6.8796   -2.9037   -1.6438 H   0  0  0  0  0  0  0  0  0  0  0  0
    5.1384   -1.7113   -1.1654 C   0  0  0  0  0  0  0  0  0  0  0  0
    5.6722   -0.7628   -1.3015 H   0  0  0  0  0  0  0  0  0  0  0  0
    5.2284    1.6463   -0.1947 C   0  0  0  0  0  0  0  0  0  0  0  0
    5.7675    0.6915   -0.1739 H   0  0  0  0  0  0  0  0  0  0  0  0
    5.9381    2.8436   -0.0451 C   0  0  0  0  0  0  0  0  0  0  0  0
    7.0330    2.8125    0.0613 H   0  0  0  0  0  0  0  0  0  0  0  0
    5.2718    4.0896   -0.0179 C   0  0  0  0  0  0  0  0  0  0  0  0
    5.8550    5.0160    0.0956 H   0  0  0  0  0  0  0  0  0  0  0  0
    3.8769    4.1521   -0.1125 C   0  0  0  0  0  0  0  0  0  0  0  0
    3.3595    5.1225   -0.0643 H   0  0  0  0  0  0  0  0  0  0  0  0
   -3.7734    4.2038   -0.9773 C   0  0  0  0  0  3  0  0  0  0  0  0
   -3.2457    5.1689   -0.9322 H   0  0  0  0  0  0  0  0  0  0  0  0
   -5.1413    4.1591   -1.2690 C   0  0  0  0  0  0  0  0  0  0  0  0
   -5.6959    5.0944   -1.4389 H   0  0  0  0  0  0  0  0  0  0  0  0
   -5.8126    2.9200   -1.3761 C   0  0  0  0  0  0  0  0  0  0  0  0
   -6.8802    2.9037   -1.6428 H   0  0  0  0  0  0  0  0  0  0  0  0
   -5.1390    1.7113   -1.1646 C   0  0  0  0  0  0  0  0  0  0  0  0
   -5.6728    0.7629   -1.3005 H   0  0  0  0  0  0  0  0  0  0  0  0
   -5.2288   -1.6463   -0.1939 C   0  0  0  0  0  0  0  0  0  0  0  0
   -5.7680   -0.6916   -0.1730 H   0  0  0  0  0  0  0  0  0  0  0  0
   -5.9385   -2.8437   -0.0443 C   0  0  0  0  0  0  0  0  0  0  0  0
   -7.0334   -2.8126    0.0622 H   0  0  0  0  0  0  0  0  0  0  0  0
   -5.2721   -4.0897   -0.0172 C   0  0  0  0  0  0  0  0  0  0  0  0
   -5.8554   -5.0161    0.0963 H   0  0  0  0  0  0  0  0  0  0  0  0
   -3.8773   -4.1521   -0.1119 C   0  0  0  0  0  0  0  0  0  0  0  0
   -3.3598   -5.1226   -0.0638 H   0  0  0  0  0  0  0  0  0  0  0  0
  2 12  1  0  0  0  0
  4 24  1  0  0  0  0
  5  1  1  0  0  0  0
  5 27  1  0  0  0  0
  6  5  2  0  0  0  0
  7  6  1  0  0  0  0
  7  8  1  0  0  0  0
  8  9  1  0  0  0  0
  8  1  2  0  0  0  0
  9  2  2  0  0  0  0
  9 10  1  0  0  0  0
 10 11  1  0  0  0  0
 10 37  1  0  0  0  0
 11 43  1  0  0  0  0
 12 13  1  0  0  0  0
 12 11  2  0  0  0  0
 13 14  1  0  0  0  0
 15 13  2  0  0  0  0
 16 15  1  0  0  0  0
 17  3  1  0  0  0  0
 17 15  1  0  0  0  0
 18 17  2  0  0  0  0
 19 18  1  0  0  0  0
 19 20  1  0  0  0  0
 20 21  1  0  0  0  0
 20  3  2  0  0  0  0
 21  4  2  0  0  0  0
 21 22  1  0  0  0  0
 22 23  1  0  0  0  0
 22 53  1  0  0  0  0
 23 59  1  0  0  0  0
 24 25  1  0  0  0  0
 24 23  2  0  0  0  0
 25 26  1  0  0  0  0
 27 25  2  0  0  0  0
 28 27  1  0  0  0  0
 29 30  1  0  0  0  0
 29  6  1  0  0  0  0
 31 29  1  0  0  0  0
 32 31  1  0  0  0  0
 33 31  2  0  0  0  0
 33 35  1  0  0  0  0
 34 33  1  0  0  0  0
 35  7  2  0  0  0  0
 36 35  1  0  0  0  0
 37 38  1  0  0  0  0
 37 39  2  0  0  0  0
 39 41  1  0  0  0  0
 39 40  1  0  0  0  0
 41 42  1  0  0  0  0
 43 44  1  0  0  0  0
 43 41  2  0  0  0  0
 45 46  1  0  0  0  0
 45 18  1  0  0  0  0
 47 45  1  0  0  0  0
 48 47  1  0  0  0  0
 49 47  2  0  0  0  0
 49 51  1  0  0  0  0
 50 49  1  0  0  0  0
 51 19  2  0  0  0  0
 52 51  1  0  0  0  0
 53 54  1  0  0  0  0
 53 55  2  0  0  0  0
 55 57  1  0  0  0  0
 55 56  1  0  0  0  0
 57 58  1  0  0  0  0
 59 60  1  0  0  0  0
 59 57  2  0  0  0  0
M  END
