1,2,3,4
 OpenBabel05122313063D

 42 43  0  0  1  0  0  0  0  0999 V2000
    0.0527   -0.3424    1.6710 N   0  0  0  0  0  0  0  0  0  0  0  0
   -1.9187    0.1698   -0.0854 N   0  0  0  0  0  2  0  0  0  0  0  0
    1.9565    0.0514   -0.1188 N   0  0  0  0  0  2  0  0  0  0  0  0
   -0.1931   -2.0694   -0.5604 N   0  0  0  0  0  0  0  0  0  0  0  0
   -1.2154    0.1872    2.2341 C   0  0  0  0  0  0  0  0  0  0  0  0
   -1.0399    1.2524    2.4927 H   0  0  0  0  0  0  0  0  0  0  0  0
   -1.5009   -0.3305    3.1760 H   0  0  0  0  0  0  0  0  0  0  0  0
   -2.3297    0.1484    1.2144 C   0  0  1  0  0  3  0  0  0  0  0  0
   -3.6844    0.2007    1.5597 C   0  0  0  0  0  0  0  0  0  0  0  0
   -3.9815    0.1603    2.6180 H   0  0  0  0  0  0  0  0  0  0  0  0
   -4.6446    0.3228    0.5424 C   0  0  0  0  0  0  0  0  0  0  0  0
   -5.7153    0.3671    0.7894 H   0  0  0  0  0  0  0  0  0  0  0  0
   -4.2091    0.4006   -0.7887 C   0  0  0  0  0  0  0  0  0  0  0  0
   -4.9221    0.5189   -1.6170 H   0  0  0  0  0  0  0  0  0  0  0  0
   -2.8409    0.3173   -1.0669 C   0  0  0  0  0  0  0  0  0  0  0  0
   -2.4242    0.3621   -2.0866 H   0  0  0  0  0  0  0  0  0  0  0  0
    1.2677    0.3459    2.1784 C   0  0  0  0  0  0  0  0  0  0  0  0
    1.5617   -0.0097    3.1907 H   0  0  0  0  0  0  0  0  0  0  0  0
    1.0319    1.4266    2.2583 H   0  0  0  0  0  0  0  0  0  0  0  0
    2.3801    0.1693    1.1742 C   0  0  2  0  0  3  0  0  0  0  0  0
    3.7376    0.1981    1.5086 C   0  0  0  0  0  0  0  0  0  0  0  0
    4.0388    0.2721    2.5639 H   0  0  0  0  0  0  0  0  0  0  0  0
    4.6953    0.1463    0.4828 C   0  0  0  0  0  0  0  0  0  0  0  0
    5.7689    0.1699    0.7201 H   0  0  0  0  0  0  0  0  0  0  0  0
    4.2523    0.0745   -0.8455 C   0  0  0  0  0  0  0  0  0  0  0  0
    4.9630    0.0525   -1.6840 H   0  0  0  0  0  0  0  0  0  0  0  0
    2.8793    0.0256   -1.1092 C   0  0  0  0  0  0  0  0  0  0  0  0
    2.4614   -0.0193   -2.1281 H   0  0  0  0  0  0  0  0  0  0  0  0
    0.2000   -1.8174    1.8482 C   0  0  0  0  0  0  0  0  0  0  0  0
   -0.1154   -2.1227    2.8698 H   0  0  0  0  0  0  0  0  0  0  0  0
    1.2790   -2.0537    1.7591 H   0  0  0  0  0  0  0  0  0  0  0  0
   -0.5843   -2.5572    0.7856 C   0  0  0  0  0  0  0  0  0  0  0  0
   -0.4257   -3.6556    0.8789 H   0  0  0  0  0  0  0  0  0  0  0  0
   -1.6706   -2.3804    0.9122 H   0  0  0  0  0  0  0  0  0  0  0  0
   -1.2234   -2.4729   -1.5476 C   0  0  0  0  0  0  0  0  0  0  0  0
   -0.9815   -2.0042   -2.5189 H   0  0  0  0  0  0  0  0  0  0  0  0
   -2.2202   -2.1307   -1.2208 H   0  0  0  0  0  0  0  0  0  0  0  0
   -1.2447   -3.5802   -1.6451 H   0  0  0  0  0  0  0  0  0  0  0  0
    1.0863   -2.6695   -0.9989 C   0  0  0  0  0  0  0  0  0  0  0  0
    0.9729   -3.7673   -1.1368 H   0  0  0  0  0  0  0  0  0  0  0  0
    1.8885   -2.4845   -0.2640 H   0  0  0  0  0  0  0  0  0  0  0  0
    1.3702   -2.2082   -1.9623 H   0  0  0  0  0  0  0  0  0  0  0  0
  1 29  1  0  0  0  0
  1 17  1  0  0  0  0
  1  5  1  0  0  0  0
  2  8  1  0  0  0  0
  3 20  1  0  0  0  0
  4 32  1  0  0  0  0
  5  6  1  0  0  0  0
  5  7  1  0  0  0  0
  8  9  1  0  0  0  0
  8  5  1  1  0  0  0
  9 10  1  0  0  0  0
 11 12  1  0  0  0  0
 11  9  2  0  0  0  0
 13 11  1  0  0  0  0
 14 13  1  0  0  0  0
 15 13  2  0  0  0  0
 15  2  1  0  0  0  0
 16 15  1  0  0  0  0
 17 19  1  0  0  0  0
 17 18  1  0  0  0  0
 20 21  1  0  0  0  0
 20 17  1  6  0  0  0
 21 22  1  0  0  0  0
 23 24  1  0  0  0  0
 23 21  2  0  0  0  0
 25 23  1  0  0  0  0
 26 25  1  0  0  0  0
 27 25  2  0  0  0  0
 27  3  1  0  0  0  0
 28 27  1  0  0  0  0
 29 30  1  0  0  0  0
 31 29  1  0  0  0  0
 32 33  1  0  0  0  0
 32 34  1  0  0  0  0
 32 29  1  0  0  0  0
 35 37  1  0  0  0  0
 35  4  1  0  0  0  0
 36 35  1  0  0  0  0
 38 35  1  0  0  0  0
 39  4  1  0  0  0  0
 39 41  1  0  0  0  0
 40 39  1  0  0  0  0
 42 39  1  0  0  0  0
M  END
