1,2,3,4
 OpenBabel05122313063D

 58 60  0  0  1  0  0  0  0  0999 V2000
    1.1418   -1.9404    0.6763 N   0  0  0  0  0  0  0  0  0  0  0  0
    1.2937   -0.4025   -1.6717 N   0  0  0  0  0  0  0  0  0  0  0  0
   -0.3807   -0.1528    1.9069 N   0  0  0  0  0  2  0  0  0  0  0  0
    1.9193    0.8423    0.6128 N   0  0  0  0  0  2  0  0  0  0  0  0
    2.4214   -2.0191   -0.0954 C   0  0  2  0  0  0  0  0  0  0  0  0
    3.0828   -1.2388    0.3318 H   0  0  0  0  0  0  0  0  0  0  0  0
    2.1286   -1.6580   -1.5631 C   0  0  2  0  0  0  0  0  0  0  0  0
    1.4773   -2.4607   -1.9663 H   0  0  0  0  0  0  0  0  0  0  0  0
    3.4226   -1.6566   -2.3918 C   0  0  0  0  0  0  0  0  0  0  0  0
    3.1909   -1.4224   -3.4512 H   0  0  0  0  0  0  0  0  0  0  0  0
    4.0978   -0.8555   -2.0218 H   0  0  0  0  0  0  0  0  0  0  0  0
    4.1579   -2.9977   -2.2830 C   0  0  0  0  0  0  0  0  0  0  0  0
    3.5327   -3.8038   -2.7268 H   0  0  0  0  0  0  0  0  0  0  0  0
    5.0935   -2.9632   -2.8779 H   0  0  0  0  0  0  0  0  0  0  0  0
    4.4586   -3.3353   -0.8193 C   0  0  0  0  0  0  0  0  0  0  0  0
    5.1551   -2.5749   -0.4007 H   0  0  0  0  0  0  0  0  0  0  0  0
    4.9768   -4.3128   -0.7400 H   0  0  0  0  0  0  0  0  0  0  0  0
    3.1656   -3.3606    0.0036 C   0  0  0  0  0  0  0  0  0  0  0  0
    3.3806   -3.5920    1.0679 H   0  0  0  0  0  0  0  0  0  0  0  0
    2.5194   -4.1783   -0.3783 H   0  0  0  0  0  0  0  0  0  0  0  0
    1.3354   -1.8139    2.1485 C   0  0  0  0  0  0  0  0  0  0  0  0
    2.2444   -1.1988    2.3178 H   0  0  0  0  0  0  0  0  0  0  0  0
    1.5068   -2.8008    2.6308 H   0  0  0  0  0  0  0  0  0  0  0  0
    0.1218   -1.1299    2.7217 C   0  0  2  0  0  3  0  0  0  0  0  0
   -1.4724    0.5446    2.2920 C   0  0  0  0  0  0  0  0  0  0  0  0
   -1.8340    1.3159    1.5950 H   0  0  0  0  0  0  0  0  0  0  0  0
   -2.1560    0.2736    3.4905 C   0  0  0  0  0  0  0  0  0  0  0  0
   -1.6350   -0.7271    4.3289 C   0  0  0  0  0  0  0  0  0  0  0  0
   -2.1451   -0.9778    5.2713 H   0  0  0  0  0  0  0  0  0  0  0  0
   -0.4804   -1.4288    3.9425 C   0  0  0  0  0  0  0  0  0  0  0  0
   -0.0672   -2.2300    4.5727 H   0  0  0  0  0  0  0  0  0  0  0  0
   -3.4433    0.9957    3.7670 C   0  0  0  0  0  0  0  0  0  0  0  0
   -3.3235    2.0930    3.6682 H   0  0  0  0  0  0  0  0  0  0  0  0
   -3.8420    0.7654    4.7731 H   0  0  0  0  0  0  0  0  0  0  0  0
   -4.1918    0.6914    3.0051 H   0  0  0  0  0  0  0  0  0  0  0  0
    0.2447   -3.0957    0.4228 C   0  0  0  0  0  0  0  0  0  0  0  0
    0.7199   -4.0351    0.7735 H   0  0  0  0  0  0  0  0  0  0  0  0
   -0.0005   -3.1714   -0.6493 H   0  0  0  0  0  0  0  0  0  0  0  0
   -0.7107   -2.9444    0.9579 H   0  0  0  0  0  0  0  0  0  0  0  0
    2.0816    0.8494   -1.7846 C   0  0  0  0  0  0  0  0  0  0  0  0
    1.3508    1.6396   -2.0476 H   0  0  0  0  0  0  0  0  0  0  0  0
    2.8414    0.8157   -2.5936 H   0  0  0  0  0  0  0  0  0  0  0  0
    2.6753    1.2245   -0.4630 C   0  0  1  0  0  3  0  0  0  0  0  0
    2.2751    1.3079    1.8402 C   0  0  0  0  0  0  0  0  0  0  0  0
    1.6020    1.0454    2.6688 H   0  0  0  0  0  0  0  0  0  0  0  0
    3.4088    2.0976    2.0742 C   0  0  0  0  0  0  0  0  0  0  0  0
    4.2193    2.4239    0.9665 C   0  0  0  0  0  0  0  0  0  0  0  0
    5.1278    3.0301    1.1004 H   0  0  0  0  0  0  0  0  0  0  0  0
    3.8342    1.9887   -0.3093 C   0  0  0  0  0  0  0  0  0  0  0  0
    4.4208    2.2568   -1.2005 H   0  0  0  0  0  0  0  0  0  0  0  0
    3.7286    2.5872    3.4614 C   0  0  0  0  0  0  0  0  0  0  0  0
    4.7675    2.3277    3.7510 H   0  0  0  0  0  0  0  0  0  0  0  0
    3.0423    2.1572    4.2159 H   0  0  0  0  0  0  0  0  0  0  0  0
    3.6436    3.6924    3.5194 H   0  0  0  0  0  0  0  0  0  0  0  0
    0.3756   -0.4980   -2.8325 C   0  0  0  0  0  0  0  0  0  0  0  0
    0.9470   -0.5437   -3.7864 H   0  0  0  0  0  0  0  0  0  0  0  0
   -0.3061    0.3734   -2.8329 H   0  0  0  0  0  0  0  0  0  0  0  0
   -0.2531   -1.3982   -2.7254 H   0  0  0  0  0  0  0  0  0  0  0  0
  1 21  1  0  0  0  0
  2  7  1  0  0  0  0
  3 25  1  0  0  0  0
  3 24  1  0  0  0  0
  4 44  1  0  0  0  0
  5 18  1  0  0  0  0
  5  6  1  1  0  0  0
  5  1  1  0  0  0  0
  7  8  1  6  0  0  0
  7  5  1  0  0  0  0
  9 12  1  0  0  0  0
  9 11  1  0  0  0  0
  9  7  1  0  0  0  0
 10  9  1  0  0  0  0
 12 15  1  0  0  0  0
 13 12  1  0  0  0  0
 14 12  1  0  0  0  0
 15 17  1  0  0  0  0
 15 16  1  0  0  0  0
 15 18  1  0  0  0  0
 18 19  1  0  0  0  0
 20 18  1  0  0  0  0
 21 22  1  0  0  0  0
 21 23  1  0  0  0  0
 24 21  1  6  0  0  0
 24 30  1  0  0  0  0
 25 27  2  0  0  0  0
 26 25  1  0  0  0  0
 27 32  1  0  0  0  0
 27 28  1  0  0  0  0
 28 29  1  0  0  0  0
 30 28  2  0  0  0  0
 30 31  1  0  0  0  0
 32 34  1  0  0  0  0
 33 32  1  0  0  0  0
 35 32  1  0  0  0  0
 36  1  1  0  0  0  0
 36 37  1  0  0  0  0
 36 39  1  0  0  0  0
 38 36  1  0  0  0  0
 40  2  1  0  0  0  0
 41 40  1  0  0  0  0
 42 40  1  0  0  0  0
 43 40  1  6  0  0  0
 43 49  1  0  0  0  0
 43  4  1  0  0  0  0
 44 46  2  0  0  0  0
 44 45  1  0  0  0  0
 46 51  1  0  0  0  0
 47 48  1  0  0  0  0
 47 46  1  0  0  0  0
 49 47  2  0  0  0  0
 50 49  1  0  0  0  0
 51 54  1  0  0  0  0
 51 52  1  0  0  0  0
 51 53  1  0  0  0  0
 55 58  1  0  0  0  0
 55  2  1  0  0  0  0
 56 55  1  0  0  0  0
 57 55  1  0  0  0  0
M  END
