3,4,34,35
 OpenBabel05122313063D

 62 64  0  0  0  0  0  0  0  0999 V2000
    3.7136   -3.5531    0.9804 O   0  0  0  0  0  0  0  0  0  0  0  0
    5.4715   -2.4175    0.0944 O   0  0  0  0  0  0  0  0  0  0  0  0
    1.2208    2.4932   -0.2687 N   0  0  0  0  0  2  0  0  0  0  0  0
    1.5493    0.0042    0.0122 N   0  0  0  0  0  0  0  0  0  0  0  0
    0.6969    3.7821   -0.1568 C   0  0  0  0  0  0  0  0  0  0  0  0
    1.3864    4.9998   -0.3028 C   0  0  0  0  0  0  0  0  0  0  0  0
    2.4617    5.0069   -0.5319 H   0  0  0  0  0  0  0  0  0  0  0  0
    0.6880    6.2064   -0.1499 C   0  0  0  0  0  0  0  0  0  0  0  0
    1.2230    7.1606   -0.2659 H   0  0  0  0  0  0  0  0  0  0  0  0
    2.4555    2.1053   -0.5805 C   0  0  0  0  0  3  0  0  0  0  0  0
    3.2439    2.8242   -0.8595 H   0  0  0  0  0  0  0  0  0  0  0  0
    2.6729    0.7184   -0.4494 C   0  0  0  0  0  0  0  0  0  0  0  0
    1.9753   -1.2057    0.4225 C   0  0  0  0  0  3  0  0  0  0  0  0
    3.3877   -1.3280    0.1524 C   0  0  0  0  0  0  0  0  0  0  0  0
    3.8311   -0.0995   -0.4058 C   0  0  0  0  0  0  0  0  0  0  0  0
    1.1145   -2.1821    1.1464 C   0  0  0  0  0  0  0  0  0  0  0  0
    0.1070   -1.7612    1.3112 H   0  0  0  0  0  0  0  0  0  0  0  0
    1.5795   -2.4308    2.1213 H   0  0  0  0  0  0  0  0  0  0  0  0
    1.0422   -3.1460    0.6065 H   0  0  0  0  0  0  0  0  0  0  0  0
    4.1573   -2.5366    0.4592 C   0  0  0  0  0  0  0  0  0  0  0  0
    6.2933   -3.5667    0.3617 C   0  0  0  0  0  0  0  0  0  0  0  0
    5.8662   -4.4496   -0.1608 H   0  0  0  0  0  0  0  0  0  0  0  0
    6.2538   -3.7987    1.4478 H   0  0  0  0  0  0  0  0  0  0  0  0
    7.7008   -3.2528   -0.1048 C   0  0  0  0  0  0  0  0  0  0  0  0
    8.3671   -4.1180    0.0837 H   0  0  0  0  0  0  0  0  0  0  0  0
    8.1131   -2.3759    0.4334 H   0  0  0  0  0  0  0  0  0  0  0  0
    7.7207   -3.0316   -1.1907 H   0  0  0  0  0  0  0  0  0  0  0  0
    5.2084    0.3024   -0.8254 C   0  0  0  0  0  0  0  0  0  0  0  0
    5.5841   -0.3560   -1.6347 H   0  0  0  0  0  0  0  0  0  0  0  0
    5.9310    0.1926    0.0079 H   0  0  0  0  0  0  0  0  0  0  0  0
    5.2362    1.3486   -1.1868 H   0  0  0  0  0  0  0  0  0  0  0  0
   -3.7136   -3.5531   -0.9803 O   0  0  0  0  0  0  0  0  0  0  0  0
   -5.4715   -2.4175   -0.0944 O   0  0  0  0  0  0  0  0  0  0  0  0
   -1.2208    2.4932    0.2687 N   0  0  0  0  0  2  0  0  0  0  0  0
   -1.5493    0.0042   -0.0122 N   0  0  0  0  0  0  0  0  0  0  0  0
   -0.6969    3.7821    0.1568 C   0  0  0  0  0  0  0  0  0  0  0  0
   -1.3864    4.9998    0.3028 C   0  0  0  0  0  0  0  0  0  0  0  0
   -2.4617    5.0069    0.5319 H   0  0  0  0  0  0  0  0  0  0  0  0
   -0.6880    6.2064    0.1499 C   0  0  0  0  0  0  0  0  0  0  0  0
   -1.2230    7.1606    0.2658 H   0  0  0  0  0  0  0  0  0  0  0  0
   -2.4555    2.1053    0.5805 C   0  0  0  0  0  3  0  0  0  0  0  0
   -3.2439    2.8242    0.8595 H   0  0  0  0  0  0  0  0  0  0  0  0
   -2.6729    0.7184    0.4494 C   0  0  0  0  0  3  0  0  0  0  0  0
   -1.9753   -1.2057   -0.4225 C   0  0  0  0  0  0  0  0  0  0  0  0
   -3.3877   -1.3280   -0.1524 C   0  0  0  0  0  0  0  0  0  0  0  0
   -3.8311   -0.0995    0.4058 C   0  0  0  0  0  0  0  0  0  0  0  0
   -1.1145   -2.1821   -1.1464 C   0  0  0  0  0  0  0  0  0  0  0  0
   -0.1070   -1.7612   -1.3112 H   0  0  0  0  0  0  0  0  0  0  0  0
   -1.5795   -2.4308   -2.1212 H   0  0  0  0  0  0  0  0  0  0  0  0
   -1.0422   -3.1460   -0.6065 H   0  0  0  0  0  0  0  0  0  0  0  0
   -4.1573   -2.5366   -0.4592 C   0  0  0  0  0  0  0  0  0  0  0  0
   -6.2933   -3.5667   -0.3617 C   0  0  0  0  0  0  0  0  0  0  0  0
   -5.8662   -4.4496    0.1608 H   0  0  0  0  0  0  0  0  0  0  0  0
   -6.2538   -3.7987   -1.4478 H   0  0  0  0  0  0  0  0  0  0  0  0
   -7.7008   -3.2528    0.1047 C   0  0  0  0  0  0  0  0  0  0  0  0
   -8.3671   -4.1180   -0.0837 H   0  0  0  0  0  0  0  0  0  0  0  0
   -8.1130   -2.3758   -0.4334 H   0  0  0  0  0  0  0  0  0  0  0  0
   -7.7207   -3.0316    1.1906 H   0  0  0  0  0  0  0  0  0  0  0  0
   -5.2084    0.3024    0.8254 C   0  0  0  0  0  0  0  0  0  0  0  0
   -5.5841   -0.3560    1.6347 H   0  0  0  0  0  0  0  0  0  0  0  0
   -5.9310    0.1926   -0.0079 H   0  0  0  0  0  0  0  0  0  0  0  0
   -5.2362    1.3486    1.1868 H   0  0  0  0  0  0  0  0  0  0  0  0
  2 21  1  0  0  0  0
  2 20  1  0  0  0  0
  3  5  1  0  0  0  0
  4 13  1  0  0  0  0
  5 36  1  0  0  0  0
  6  5  2  0  0  0  0
  6  8  1  0  0  0  0
  7  6  1  0  0  0  0
  8 39  2  0  0  0  0
  9  8  1  0  0  0  0
 10 12  1  0  0  0  0
 10  3  1  0  0  0  0
 11 10  1  0  0  0  0
 12 15  1  0  0  0  0
 12  4  2  0  0  0  0
 13 16  1  0  0  0  0
 14 13  1  0  0  0  0
 14 20  1  0  0  0  0
 15 14  2  0  0  0  0
 16 17  1  0  0  0  0
 16 18  1  0  0  0  0
 19 16  1  0  0  0  0
 20  1  2  0  0  0  0
 21 23  1  0  0  0  0
 22 21  1  0  0  0  0
 24 25  1  0  0  0  0
 24 21  1  0  0  0  0
 24 26  1  0  0  0  0
 27 24  1  0  0  0  0
 28 15  1  0  0  0  0
 28 30  1  0  0  0  0
 29 28  1  0  0  0  0
 31 28  1  0  0  0  0
 32 51  2  0  0  0  0
 34 41  1  0  0  0  0
 35 43  1  0  0  0  0
 36 34  1  0  0  0  0
 36 37  2  0  0  0  0
 37 38  1  0  0  0  0
 39 40  1  0  0  0  0
 39 37  1  0  0  0  0
 41 42  1  0  0  0  0
 43 41  1  0  0  0  0
 44 45  1  0  0  0  0
 44 35  2  0  0  0  0
 45 46  2  0  0  0  0
 46 43  1  0  0  0  0
 46 59  1  0  0  0  0
 47 50  1  0  0  0  0
 47 44  1  0  0  0  0
 48 47  1  0  0  0  0
 49 47  1  0  0  0  0
 51 45  1  0  0  0  0
 51 33  1  0  0  0  0
 52 33  1  0  0  0  0
 52 55  1  0  0  0  0
 52 53  1  0  0  0  0
 54 52  1  0  0  0  0
 55 58  1  0  0  0  0
 56 55  1  0  0  0  0
 57 55  1  0  0  0  0
 59 62  1  0  0  0  0
 59 60  1  0  0  0  0
 61 59  1  0  0  0  0
M  END
