3,4,5,6
 OpenBabel05122313063D

 47 49  0  0  1  0  0  0  0  0999 V2000
    4.7461    1.1036   -0.1616 O   0  0  0  0  0  0  0  0  0  0  0  0
    5.3932   -1.0806    0.0536 O   0  0  0  0  0  0  0  0  0  0  0  0
   -0.8746   -2.5465   -0.1334 N   0  0  0  0  0  0  0  0  0  0  0  0
   -1.8498   -0.5261   -1.7811 N   0  0  0  0  0  2  0  0  0  0  0  0
   -2.1669   -0.8993    1.6708 N   0  0  0  0  0  2  0  0  0  0  0  0
    0.9929   -0.5424    0.2339 N   0  0  0  0  0  2  0  0  0  0  0  0
    3.1874   -0.5898    0.1240 N   0  0  0  0  0  0  0  0  0  0  0  0
   -0.7990   -2.7304   -1.5821 C   0  0  0  0  0  0  0  0  0  0  0  0
   -1.0306   -3.7739   -1.8986 H   0  0  0  0  0  0  0  0  0  0  0  0
    0.2535   -2.5374   -1.8860 H   0  0  0  0  0  0  0  0  0  0  0  0
   -2.1072   -3.0326    0.4829 C   0  0  0  0  0  0  0  0  0  0  0  0
   -2.0633   -4.1149    0.7456 H   0  0  0  0  0  0  0  0  0  0  0  0
   -2.9232   -2.9269   -0.2651 H   0  0  0  0  0  0  0  0  0  0  0  0
    0.3511   -2.9136    0.5936 C   0  0  0  0  0  0  0  0  0  0  0  0
    0.7291   -3.9259    0.3221 H   0  0  0  0  0  0  0  0  0  0  0  0
    0.0923   -2.9506    1.6739 H   0  0  0  0  0  0  0  0  0  0  0  0
   -1.6823   -1.7501   -2.3349 C   0  0  2  0  0  3  0  0  0  0  0  0
   -2.2448   -2.0646   -3.5797 C   0  0  0  0  0  0  0  0  0  0  0  0
   -2.1056   -3.0691   -4.0059 H   0  0  0  0  0  0  0  0  0  0  0  0
   -2.9725   -1.0823   -4.2673 C   0  0  0  0  0  0  0  0  0  0  0  0
   -3.4181   -1.3072   -5.2478 H   0  0  0  0  0  0  0  0  0  0  0  0
   -3.1250    0.1847   -3.6877 C   0  0  0  0  0  0  0  0  0  0  0  0
   -3.6839    0.9855   -4.1916 H   0  0  0  0  0  0  0  0  0  0  0  0
   -2.5516    0.4246   -2.4346 C   0  0  0  0  0  0  0  0  0  0  0  0
   -2.6447    1.4063   -1.9421 H   0  0  0  0  0  0  0  0  0  0  0  0
   -2.4924   -2.2113    1.7018 C   0  0  2  0  0  3  0  0  0  0  0  0
   -3.2096   -2.7552    2.7768 C   0  0  0  0  0  0  0  0  0  0  0  0
   -3.4551   -3.8275    2.7873 H   0  0  0  0  0  0  0  0  0  0  0  0
   -3.6091   -1.9119    3.8241 C   0  0  0  0  0  0  0  0  0  0  0  0
   -4.1732   -2.3175    4.6772 H   0  0  0  0  0  0  0  0  0  0  0  0
   -3.2804   -0.5497    3.7695 C   0  0  0  0  0  0  0  0  0  0  0  0
   -3.5791    0.1446    4.5673 H   0  0  0  0  0  0  0  0  0  0  0  0
   -2.5518   -0.0791    2.6714 C   0  0  0  0  0  0  0  0  0  0  0  0
   -2.2643    0.9783    2.5553 H   0  0  0  0  0  0  0  0  0  0  0  0
    1.4030   -1.8642    0.3716 C   0  0  0  0  0  0  0  0  0  0  0  0
    2.0759    0.2067    0.0818 C   0  0  0  0  0  3  0  0  0  0  0  0
    2.1006    1.2886   -0.0913 H   0  0  0  0  0  0  0  0  0  0  0  0
    2.7785   -1.9117    0.2985 C   0  0  0  0  0  0  0  0  0  0  0  0
    3.5011   -2.7296    0.3578 H   0  0  0  0  0  0  0  0  0  0  0  0
    4.5297   -0.0733   -0.0137 C   0  0  0  0  0  0  0  0  0  0  0  0
    6.8063   -0.7148   -0.0661 C   0  0  0  0  0  0  0  0  0  0  0  0
    7.0349    0.0178    0.7345 H   0  0  0  0  0  0  0  0  0  0  0  0
    6.9410   -0.2002   -1.0393 H   0  0  0  0  0  0  0  0  0  0  0  0
    7.6240   -1.9798    0.0461 C   0  0  0  0  0  0  0  0  0  0  0  0
    7.4678   -2.4757    1.0240 H   0  0  0  0  0  0  0  0  0  0  0  0
    8.6990   -1.7284   -0.0417 H   0  0  0  0  0  0  0  0  0  0  0  0
    7.3734   -2.6954   -0.7613 H   0  0  0  0  0  0  0  0  0  0  0  0
  1 40  2  0  0  0  0
  3 11  1  0  0  0  0
  3 14  1  0  0  0  0
  5 26  1  0  0  0  0
  5 33  1  0  0  0  0
  6 35  1  0  0  0  0
  7 38  1  0  0  0  0
  8  3  1  0  0  0  0
  9  8  1  0  0  0  0
 10  8  1  0  0  0  0
 11 12  1  0  0  0  0
 13 11  1  0  0  0  0
 14 16  1  0  0  0  0
 15 14  1  0  0  0  0
 17  4  1  0  0  0  0
 17  8  1  6  0  0  0
 18 17  1  0  0  0  0
 19 18  1  0  0  0  0
 20 22  1  0  0  0  0
 20 18  2  0  0  0  0
 21 20  1  0  0  0  0
 22 24  2  0  0  0  0
 23 22  1  0  0  0  0
 24 25  1  0  0  0  0
 24  4  1  0  0  0  0
 26 11  1  6  0  0  0
 26 27  1  0  0  0  0
 27 28  1  0  0  0  0
 27 29  2  0  0  0  0
 29 30  1  0  0  0  0
 31 29  1  0  0  0  0
 31 32  1  0  0  0  0
 33 31  2  0  0  0  0
 34 33  1  0  0  0  0
 35 14  1  0  0  0  0
 36  7  1  0  0  0  0
 36  6  1  0  0  0  0
 37 36  1  0  0  0  0
 38 39  1  0  0  0  0
 38 35  2  0  0  0  0
 40  2  1  0  0  0  0
 40  7  1  0  0  0  0
 41 44  1  0  0  0  0
 41  2  1  0  0  0  0
 41 42  1  0  0  0  0
 43 41  1  0  0  0  0
 44 45  1  0  0  0  0
 46 44  1  0  0  0  0
 47 44  1  0  0  0  0
M  END
