1,2,27,28
 OpenBabel05122313063D

 52 55  0  0  0  0  0  0  0  0999 V2000
   -1.9489    1.3495    0.1927 N   0  0  0  0  0  2  0  0  0  0  0  0
   -0.2103   -0.0846    1.2881 N   0  0  0  0  0  2  0  0  0  0  0  0
    0.5960   -2.2116    0.4554 C   0  0  0  0  0  0  0  0  0  0  0  0
    0.7533   -1.1212    1.3606 C   0  0  0  0  0  0  0  0  0  0  0  0
    1.8672   -1.0083    2.2018 C   0  0  0  0  0  0  0  0  0  0  0  0
    1.9451   -0.1285    2.8558 H   0  0  0  0  0  0  0  0  0  0  0  0
    2.8488   -2.0074    2.1627 C   0  0  0  0  0  0  0  0  0  0  0  0
    3.7287   -1.9386    2.8198 H   0  0  0  0  0  0  0  0  0  0  0  0
    2.7226   -3.0788    1.2693 C   0  0  0  0  0  0  0  0  0  0  0  0
    3.5138   -3.8435    1.2223 H   0  0  0  0  0  0  0  0  0  0  0  0
    1.6161   -3.1952    0.4003 C   0  0  0  0  0  0  0  0  0  0  0  0
    1.5609   -4.3402   -0.5805 C   0  0  0  0  0  0  0  0  0  0  0  0
    2.5741   -4.5882   -0.9537 H   0  0  0  0  0  0  0  0  0  0  0  0
    0.9131   -4.1098   -1.4479 H   0  0  0  0  0  0  0  0  0  0  0  0
    1.1600   -5.2611   -0.1061 H   0  0  0  0  0  0  0  0  0  0  0  0
   -1.4045   -0.2296    1.8229 C   0  0  0  0  0  0  0  0  0  0  0  0
   -1.6289   -1.0375    2.5390 H   0  0  0  0  0  0  0  0  0  0  0  0
   -2.4152    0.6295    1.2694 C   0  0  0  0  0  0  0  0  0  0  0  0
   -3.7646    0.6801    1.6682 C   0  0  0  0  0  0  0  0  0  0  0  0
   -4.0928    0.0899    2.5359 H   0  0  0  0  0  0  0  0  0  0  0  0
   -4.6528    1.4844    0.9501 C   0  0  0  0  0  0  0  0  0  0  0  0
   -5.7120    1.5456    1.2410 H   0  0  0  0  0  0  0  0  0  0  0  0
   -4.1635    2.2190   -0.1447 C   0  0  0  0  0  0  0  0  0  0  0  0
   -4.8233    2.8724   -0.7331 H   0  0  0  0  0  0  0  0  0  0  0  0
   -2.8085    2.1306   -0.4881 C   0  0  0  0  0  0  0  0  0  0  0  0
   -2.3488    2.7016   -1.3129 H   0  0  0  0  0  0  0  0  0  0  0  0
    1.9489    1.3495   -0.1927 N   0  0  0  0  0  2  0  0  0  0  0  0
    0.2103   -0.0846   -1.2881 N   0  0  0  0  0  2  0  0  0  0  0  0
   -0.5960   -2.2116   -0.4554 C   0  0  0  0  0  0  0  0  0  0  0  0
   -0.7533   -1.1212   -1.3606 C   0  0  0  0  0  0  0  0  0  0  0  0
   -1.8672   -1.0083   -2.2018 C   0  0  0  0  0  0  0  0  0  0  0  0
   -1.9452   -0.1285   -2.8558 H   0  0  0  0  0  0  0  0  0  0  0  0
   -2.8488   -2.0075   -2.1627 C   0  0  0  0  0  0  0  0  0  0  0  0
   -3.7287   -1.9386   -2.8198 H   0  0  0  0  0  0  0  0  0  0  0  0
   -2.7226   -3.0788   -1.2693 C   0  0  0  0  0  0  0  0  0  0  0  0
   -3.5138   -3.8435   -1.2223 H   0  0  0  0  0  0  0  0  0  0  0  0
   -1.6161   -3.1953   -0.4003 C   0  0  0  0  0  0  0  0  0  0  0  0
   -1.5608   -4.3402    0.5805 C   0  0  0  0  0  0  0  0  0  0  0  0
   -2.5741   -4.5884    0.9535 H   0  0  0  0  0  0  0  0  0  0  0  0
   -0.9132   -4.1097    1.4480 H   0  0  0  0  0  0  0  0  0  0  0  0
   -1.1597   -5.2610    0.1062 H   0  0  0  0  0  0  0  0  0  0  0  0
    1.4045   -0.2295   -1.8229 C   0  0  0  0  0  0  0  0  0  0  0  0
    1.6289   -1.0375   -2.5390 H   0  0  0  0  0  0  0  0  0  0  0  0
    2.4152    0.6295   -1.2694 C   0  0  0  0  0  0  0  0  0  0  0  0
    3.7646    0.6802   -1.6682 C   0  0  0  0  0  0  0  0  0  0  0  0
    4.0928    0.0900   -2.5359 H   0  0  0  0  0  0  0  0  0  0  0  0
    4.6528    1.4845   -0.9501 C   0  0  0  0  0  0  0  0  0  0  0  0
    5.7119    1.5457   -1.2410 H   0  0  0  0  0  0  0  0  0  0  0  0
    4.1634    2.2190    0.1447 C   0  0  0  0  0  0  0  0  0  0  0  0
    4.8232    2.8724    0.7331 H   0  0  0  0  0  0  0  0  0  0  0  0
    2.8085    2.1306    0.4881 C   0  0  0  0  0  0  0  0  0  0  0  0
    2.3488    2.7016    1.3130 H   0  0  0  0  0  0  0  0  0  0  0  0
  1 18  1  0  0  0  0
  2  4  1  0  0  0  0
  2 16  1  0  0  0  0
  3  4  1  0  0  0  0
  4  5  2  0  0  0  0
  5  6  1  0  0  0  0
  7  5  1  0  0  0  0
  7  8  1  0  0  0  0
  9  7  2  0  0  0  0
 10  9  1  0  0  0  0
 11  3  2  0  0  0  0
 11  9  1  0  0  0  0
 12 15  1  0  0  0  0
 12 11  1  0  0  0  0
 13 12  1  0  0  0  0
 14 12  1  0  0  0  0
 16 17  1  0  0  0  0
 18 19  1  0  0  0  0
 18 16  2  0  0  0  0
 19 20  1  0  0  0  0
 21 22  1  0  0  0  0
 21 19  2  0  0  0  0
 23 21  1  0  0  0  0
 24 23  1  0  0  0  0
 25 23  2  0  0  0  0
 25  1  1  0  0  0  0
 26 25  1  0  0  0  0
 27 51  1  0  0  0  0
 29 37  1  0  0  0  0
 29  3  1  0  0  0  0
 30 28  1  0  0  0  0
 30 29  2  0  0  0  0
 31 33  2  0  0  0  0
 31 30  1  0  0  0  0
 32 31  1  0  0  0  0
 33 35  1  0  0  0  0
 34 33  1  0  0  0  0
 35 36  1  0  0  0  0
 35 37  2  0  0  0  0
 37 38  1  0  0  0  0
 38 39  1  0  0  0  0
 38 40  1  0  0  0  0
 41 38  1  0  0  0  0
 42 28  1  0  0  0  0
 42 44  2  0  0  0  0
 43 42  1  0  0  0  0
 44 27  1  0  0  0  0
 45 44  1  0  0  0  0
 45 47  2  0  0  0  0
 46 45  1  0  0  0  0
 47 49  1  0  0  0  0
 48 47  1  0  0  0  0
 49 51  2  0  0  0  0
 49 50  1  0  0  0  0
 51 52  1  0  0  0  0
M  END
