1,2,4,5
 OpenBabel05122313063D

 28 28  0  0  0  0  0  0  0  0999 V2000
   -2.1914    1.2490   -0.5143 N   0  0  0  0  0  2  0  0  0  0  0  0
    0.5271    1.3076    0.1145 N   0  0  0  0  0  2  0  0  0  0  0  0
   -0.9652    3.1515    0.0918 N   0  0  0  0  0  0  0  0  0  0  0  0
   -2.1987   -1.2379    0.5102 N   0  0  0  0  0  2  0  0  0  0  0  0
    0.5210   -1.3103   -0.1142 N   0  0  0  0  0  2  0  0  0  0  0  0
   -0.9800   -3.1471   -0.0898 N   0  0  0  0  0  0  0  0  0  0  0  0
   -2.1987    2.5798   -0.2710 C   0  0  0  0  0  0  0  0  0  0  0  0
    0.3463    2.6730    0.2172 C   0  0  0  0  0  0  0  0  0  0  0  0
   -2.2113   -2.5693    0.2707 C   0  0  0  0  0  0  0  0  0  0  0  0
    0.3339   -2.6750   -0.2143 C   0  0  0  0  0  0  0  0  0  0  0  0
   -3.1955    3.3122   -0.3814 O   0  0  0  0  0  0  0  0  0  0  0  0
    1.2376    3.5015    0.4553 O   0  0  0  0  0  0  0  0  0  0  0  0
   -3.2113   -3.2971    0.3821 O   0  0  0  0  0  0  0  0  0  0  0  0
    1.2215   -3.5083   -0.4495 O   0  0  0  0  0  0  0  0  0  0  0  0
    1.7879    0.7164    0.0067 C   0  0  0  0  0  0  0  0  0  0  0  0
    3.0272    1.4034   -0.0536 C   0  0  0  0  0  0  0  0  0  0  0  0
    4.2317    0.6929   -0.0344 C   0  0  0  0  0  0  0  0  0  0  0  0
    4.2285   -0.7121    0.0318 C   0  0  0  0  0  0  0  0  0  0  0  0
    3.0209   -1.4173    0.0521 C   0  0  0  0  0  0  0  0  0  0  0  0
    1.7846   -0.7249   -0.0072 C   0  0  0  0  0  0  0  0  0  0  0  0
   -3.1442    0.9037   -0.6669 H   0  0  0  0  0  0  0  0  0  0  0  0
   -1.0137    4.1637    0.2143 H   0  0  0  0  0  0  0  0  0  0  0  0
   -3.1501   -0.8881    0.6621 H   0  0  0  0  0  0  0  0  0  0  0  0
   -1.0329   -4.1594   -0.2097 H   0  0  0  0  0  0  0  0  0  0  0  0
    3.0081    2.4979   -0.0513 H   0  0  0  0  0  0  0  0  0  0  0  0
    5.1837    1.2474   -0.0524 H   0  0  0  0  0  0  0  0  0  0  0  0
    5.1781   -1.2709    0.0489 H   0  0  0  0  0  0  0  0  0  0  0  0
    2.9969   -2.5117    0.0501 H   0  0  0  0  0  0  0  0  0  0  0  0
  1  7  1  0  0  0  0
  2  8  1  0  0  0  0
  3 22  1  0  0  0  0
  3  8  1  0  0  0  0
  4 23  1  0  0  0  0
  5 20  1  0  0  0  0
  6  9  1  0  0  0  0
  7  3  1  0  0  0  0
  8 12  2  0  0  0  0
  9 13  2  0  0  0  0
  9  4  1  0  0  0  0
 10  5  1  0  0  0  0
 10  6  1  0  0  0  0
 11  7  2  0  0  0  0
 14 10  2  0  0  0  0
 15  2  1  0  0  0  0
 16 25  1  0  0  0  0
 16 17  1  0  0  0  0
 16 15  2  0  0  0  0
 17 18  2  0  0  0  0
 18 27  1  0  0  0  0
 18 19  1  0  0  0  0
 20 15  1  0  0  0  0
 20 19  2  0  0  0  0
 21  1  1  0  0  0  0
 24  6  1  0  0  0  0
 26 17  1  0  0  0  0
 28 19  1  0  0  0  0
M  END
