1,2,4,5
 OpenBabel05122313063D

 55 59  0  0  1  0  0  0  0  0999 V2000
   -2.1743    0.7448   -0.8104 N   0  0  0  0  0  2  0  0  0  0  0  0
    0.0000    2.2146   -0.0007 N   0  0  0  0  0  2  0  0  0  0  0  0
    2.1745    0.7456    0.8100 N   0  0  0  0  0  0  0  0  0  0  0  0
    0.8467   -2.1372    0.9421 N   0  0  1  0  0  0  0  0  0  0  0  0
   -0.8465   -2.1379   -0.9412 N   0  0  2  0  0  0  0  0  0  0  0  0
   -2.2599    2.0319   -0.7766 C   0  0  0  0  0  0  0  0  0  0  0  0
   -3.1969    2.5680   -1.0337 H   0  0  0  0  0  0  0  0  0  0  0  0
   -1.1047    2.8620   -0.3870 C   0  0  0  0  0  0  0  0  0  0  0  0
   -1.1446    4.2723   -0.4011 C   0  0  0  0  0  0  0  0  0  0  0  0
   -2.0574    4.7972   -0.7183 H   0  0  0  0  0  0  0  0  0  0  0  0
   -0.0001    4.9769   -0.0017 C   0  0  0  0  0  0  0  0  0  0  0  0
   -0.0002    6.0768   -0.0021 H   0  0  0  0  0  0  0  0  0  0  0  0
    1.1445    4.2727    0.3982 C   0  0  0  0  0  0  0  0  0  0  0  0
    2.0572    4.7979    0.7150 H   0  0  0  0  0  0  0  0  0  0  0  0
    1.1046    2.8624    0.3851 C   0  0  0  0  0  0  0  0  0  0  0  0
    2.2600    2.0327    0.7753 C   0  0  0  0  0  0  0  0  0  0  0  0
    3.1969    2.5691    1.0319 H   0  0  0  0  0  0  0  0  0  0  0  0
    3.2922   -0.0711    1.0266 C   0  0  0  0  0  0  0  0  0  0  0  0
    4.5719    0.3226    0.5694 C   0  0  0  0  0  0  0  0  0  0  0  0
    4.6602    1.2444   -0.0224 H   0  0  0  0  0  0  0  0  0  0  0  0
    5.6866   -0.4939    0.7752 C   0  0  0  0  0  0  0  0  0  0  0  0
    6.6710   -0.1801    0.3972 H   0  0  0  0  0  0  0  0  0  0  0  0
    5.5372   -1.7238    1.4338 C   0  0  0  0  0  0  0  0  0  0  0  0
    6.4077   -2.3754    1.6009 H   0  0  0  0  0  0  0  0  0  0  0  0
    4.2618   -2.1392    1.8438 C   0  0  0  0  0  0  0  0  0  0  0  0
    4.1387   -3.1191    2.3313 H   0  0  0  0  0  0  0  0  0  0  0  0
    3.1189   -1.3462    1.6382 C   0  0  0  0  0  0  0  0  0  0  0  0
    1.7687   -1.8826    2.0648 C   0  0  0  0  0  0  0  0  0  0  0  0
    1.9365   -2.8254    2.6396 H   0  0  0  0  0  0  0  0  0  0  0  0
    1.2445   -1.1725    2.7386 H   0  0  0  0  0  0  0  0  0  0  0  0
    1.3904   -2.8955   -0.1931 C   0  0  0  0  0  0  0  0  0  0  0  0
    1.5455   -3.9637    0.0952 H   0  0  0  0  0  0  0  0  0  0  0  0
    2.3675   -2.4674   -0.4835 H   0  0  0  0  0  0  0  0  0  0  0  0
    0.4051   -2.7735   -1.3892 C   0  0  0  0  0  0  0  0  0  0  0  0
    0.8506   -2.1414   -2.1800 H   0  0  0  0  0  0  0  0  0  0  0  0
    0.1871   -3.7797   -1.8217 H   0  0  0  0  0  0  0  0  0  0  0  0
   -0.4049   -2.7726    1.3906 C   0  0  0  0  0  0  0  0  0  0  0  0
   -0.8505   -2.1400    2.1810 H   0  0  0  0  0  0  0  0  0  0  0  0
   -0.1868   -3.7785    1.8236 H   0  0  0  0  0  0  0  0  0  0  0  0
   -1.3903   -2.8954    0.1946 C   0  0  0  0  0  0  0  0  0  0  0  0
   -1.5455   -3.9638   -0.0929 H   0  0  0  0  0  0  0  0  0  0  0  0
   -2.3673   -2.4670    0.4847 H   0  0  0  0  0  0  0  0  0  0  0  0
   -1.7685   -1.8839   -2.0640 C   0  0  0  0  0  0  0  0  0  0  0  0
   -1.9362   -2.8270   -2.6384 H   0  0  0  0  0  0  0  0  0  0  0  0
   -1.2443   -1.1741   -2.7381 H   0  0  0  0  0  0  0  0  0  0  0  0
   -3.1186   -1.3474   -1.6376 C   0  0  0  0  0  0  0  0  0  0  0  0
   -4.2616   -2.1405   -1.8428 C   0  0  0  0  0  0  0  0  0  0  0  0
   -4.1386   -3.1205   -2.3301 H   0  0  0  0  0  0  0  0  0  0  0  0
   -5.5370   -1.7249   -1.4329 C   0  0  0  0  0  0  0  0  0  0  0  0
   -6.4074   -2.3766   -1.5997 H   0  0  0  0  0  0  0  0  0  0  0  0
   -5.6863   -0.4947   -0.7747 C   0  0  0  0  0  0  0  0  0  0  0  0
   -6.6706   -0.1809   -0.3966 H   0  0  0  0  0  0  0  0  0  0  0  0
   -4.5716    0.3218   -0.5693 C   0  0  0  0  0  0  0  0  0  0  0  0
   -4.6598    1.2438    0.0223 H   0  0  0  0  0  0  0  0  0  0  0  0
   -3.2920   -0.0720   -1.0265 C   0  0  0  0  0  0  0  0  0  0  0  0
  1  6  1  0  0  0  0
  2 15  1  0  0  0  0
  3 18  1  0  0  0  0
  4 31  1  6  0  0  0
  4 37  1  0  0  0  0
  4 28  1  0  0  0  0
  5 43  1  6  0  0  0
  5 40  1  0  0  0  0
  6  8  2  0  0  0  0
  7  6  1  0  0  0  0
  8  2  1  0  0  0  0
  9  8  1  0  0  0  0
  9 11  2  0  0  0  0
 10  9  1  0  0  0  0
 11 13  1  0  0  0  0
 12 11  1  0  0  0  0
 13 14  1  0  0  0  0
 15 13  2  0  0  0  0
 15 16  1  0  0  0  0
 16  3  2  0  0  0  0
 16 17  1  0  0  0  0
 18 27  1  0  0  0  0
 19 21  1  0  0  0  0
 19 18  2  0  0  0  0
 20 19  1  0  0  0  0
 21 23  2  0  0  0  0
 22 21  1  0  0  0  0
 23 24  1  0  0  0  0
 23 25  1  0  0  0  0
 25 26  1  0  0  0  0
 27 25  2  0  0  0  0
 27 28  1  0  0  0  0
 28 29  1  0  0  0  0
 28 30  1  0  0  0  0
 31 32  1  0  0  0  0
 33 31  1  0  0  0  0
 34  5  1  0  0  0  0
 34 31  1  0  0  0  0
 35 34  1  0  0  0  0
 36 34  1  0  0  0  0
 37 39  1  0  0  0  0
 37 38  1  0  0  0  0
 40 42  1  0  0  0  0
 40 37  1  0  0  0  0
 41 40  1  0  0  0  0
 43 46  1  0  0  0  0
 44 43  1  0  0  0  0
 45 43  1  0  0  0  0
 46 55  1  0  0  0  0
 47 46  2  0  0  0  0
 47 49  1  0  0  0  0
 48 47  1  0  0  0  0
 49 51  2  0  0  0  0
 50 49  1  0  0  0  0
 51 53  1  0  0  0  0
 51 52  1  0  0  0  0
 53 54  1  0  0  0  0
 55  1  1  0  0  0  0
 55 53  2  0  0  0  0
M  END
