3,4,5,6
 OpenBabel05122313063D

 50 51  0  0  1  0  0  0  0  0999 V2000
   -1.9094    1.1434    1.4951 O   0  0  0  0  0  0  0  0  0  0  0  0
   -1.0107    1.9617   -1.0354 O   0  0  0  0  0  0  0  0  0  0  0  0
    0.9723    1.1965   -0.1958 N   0  0  0  0  0  2  0  0  0  0  0  0
    2.4194   -1.0060    0.2907 N   0  0  0  0  0  0  0  0  0  0  0  0
    0.3715   -1.2920   -1.6869 N   0  0  0  0  0  0  0  0  0  0  0  0
   -1.5227   -0.4646   -0.0555 N   0  0  0  0  0  2  0  0  0  0  0  0
    0.2548    2.2596   -0.6722 C   0  0  1  0  0  3  0  0  0  0  0  0
    0.7977    3.5464   -0.8221 C   0  0  0  0  0  0  0  0  0  0  0  0
    0.1673    4.3672   -1.1862 H   0  0  0  0  0  0  0  0  0  0  0  0
    2.1537    3.7613   -0.5401 C   0  0  0  0  0  0  0  0  0  0  0  0
    2.6001    4.7579   -0.6666 H   0  0  0  0  0  0  0  0  0  0  0  0
    2.9175    2.6710   -0.1067 C   0  0  0  0  0  0  0  0  0  0  0  0
    3.9868    2.7744    0.1260 H   0  0  0  0  0  0  0  0  0  0  0  0
    2.3003    1.4293    0.0717 C   0  0  0  0  0  0  0  0  0  0  0  0
    3.0252    0.2793    0.6936 C   0  0  0  0  0  0  0  0  0  0  0  0
    4.1200    0.3156    0.4864 H   0  0  0  0  0  0  0  0  0  0  0  0
    2.8460    0.3524    1.7901 H   0  0  0  0  0  0  0  0  0  0  0  0
    2.8751   -2.0554    1.2275 C   0  0  0  0  0  0  0  0  0  0  0  0
    2.4706   -1.8082    2.2272 H   0  0  0  0  0  0  0  0  0  0  0  0
    3.9888   -2.0927    1.2409 H   0  0  0  0  0  0  0  0  0  0  0  0
    2.4518   -3.0305    0.9338 H   0  0  0  0  0  0  0  0  0  0  0  0
    2.7409   -1.3635   -1.1171 C   0  0  0  0  0  0  0  0  0  0  0  0
    3.6860   -1.9496   -1.1722 H   0  0  0  0  0  0  0  0  0  0  0  0
    2.9172   -0.4239   -1.6806 H   0  0  0  0  0  0  0  0  0  0  0  0
    1.5846   -2.1430   -1.7309 C   0  0  0  0  0  0  0  0  0  0  0  0
    1.8262   -2.4582   -2.7734 H   0  0  0  0  0  0  0  0  0  0  0  0
    1.3669   -3.0402   -1.1172 H   0  0  0  0  0  0  0  0  0  0  0  0
    0.3980   -0.2600   -2.7391 C   0  0  0  0  0  0  0  0  0  0  0  0
   -0.4931    0.3835   -2.6367 H   0  0  0  0  0  0  0  0  0  0  0  0
    0.3993   -0.7340   -3.7471 H   0  0  0  0  0  0  0  0  0  0  0  0
    1.2937    0.3786   -2.6429 H   0  0  0  0  0  0  0  0  0  0  0  0
   -0.9068   -2.0406   -1.7828 C   0  0  0  0  0  0  0  0  0  0  0  0
   -0.7677   -2.9908   -1.2251 H   0  0  0  0  0  0  0  0  0  0  0  0
   -1.1877   -2.2518   -2.8396 H   0  0  0  0  0  0  0  0  0  0  0  0
   -1.9792   -1.2651   -1.0655 C   0  0  1  0  0  3  0  0  0  0  0  0
   -3.3396   -1.4228   -1.3502 C   0  0  0  0  0  0  0  0  0  0  0  0
   -3.6468   -2.0826   -2.1741 H   0  0  0  0  0  0  0  0  0  0  0  0
   -4.2829   -0.7615   -0.5509 C   0  0  0  0  0  0  0  0  0  0  0  0
   -5.3611   -0.8896   -0.7263 H   0  0  0  0  0  0  0  0  0  0  0  0
   -3.8253    0.0852    0.4674 C   0  0  0  0  0  0  0  0  0  0  0  0
   -4.5283    0.6493    1.0953 H   0  0  0  0  0  0  0  0  0  0  0  0
   -2.4398    0.2453    0.6566 C   0  0  0  0  0  0  0  0  0  0  0  0
   -1.9425    3.0073   -1.2366 C   0  0  0  0  0  0  0  0  0  0  0  0
   -1.7138    3.6022   -2.1490 H   0  0  0  0  0  0  0  0  0  0  0  0
   -1.9819    3.6846   -0.3565 H   0  0  0  0  0  0  0  0  0  0  0  0
   -2.9256    2.5159   -1.3619 H   0  0  0  0  0  0  0  0  0  0  0  0
   -2.5815    1.4739    2.6975 C   0  0  0  0  0  0  0  0  0  0  0  0
   -3.0115    0.5704    3.1779 H   0  0  0  0  0  0  0  0  0  0  0  0
   -3.3866    2.2257    2.5317 H   0  0  0  0  0  0  0  0  0  0  0  0
   -1.8053    1.8938    3.3639 H   0  0  0  0  0  0  0  0  0  0  0  0
  1 47  1  0  0  0  0
  3 14  1  0  0  0  0
  4 15  1  0  0  0  0
  4 18  1  0  0  0  0
  6 42  1  0  0  0  0
  7  2  1  6  0  0  0
  7  3  1  0  0  0  0
  8  7  1  0  0  0  0
  8 10  2  0  0  0  0
  9  8  1  0  0  0  0
 10 12  1  0  0  0  0
 11 10  1  0  0  0  0
 12 14  2  0  0  0  0
 12 13  1  0  0  0  0
 14 15  1  0  0  0  0
 15 17  1  0  0  0  0
 16 15  1  0  0  0  0
 18 20  1  0  0  0  0
 18 19  1  0  0  0  0
 21 18  1  0  0  0  0
 22  4  1  0  0  0  0
 23 22  1  0  0  0  0
 24 22  1  0  0  0  0
 25  5  1  0  0  0  0
 25 27  1  0  0  0  0
 25 22  1  0  0  0  0
 26 25  1  0  0  0  0
 28 31  1  0  0  0  0
 28 29  1  0  0  0  0
 28  5  1  0  0  0  0
 30 28  1  0  0  0  0
 32  5  1  0  0  0  0
 32 33  1  0  0  0  0
 34 32  1  0  0  0  0
 35 32  1  1  0  0  0
 35  6  1  0  0  0  0
 36 35  1  0  0  0  0
 36 38  2  0  0  0  0
 37 36  1  0  0  0  0
 38 40  1  0  0  0  0
 39 38  1  0  0  0  0
 40 42  2  0  0  0  0
 40 41  1  0  0  0  0
 42  1  1  0  0  0  0
 43  2  1  0  0  0  0
 43 45  1  0  0  0  0
 44 43  1  0  0  0  0
 46 43  1  0  0  0  0
 47 48  1  0  0  0  0
 47 50  1  0  0  0  0
 49 47  1  0  0  0  0
M  END
