2,3,4,7
 OpenBabel05122313063D

 70 74  0  0  1  0  0  0  0  0999 V2000
   -1.6755   -0.9570   -0.2572 C   0  0  2  0  0  3  0  0  0  0  0  0
    2.1434    1.3050   -0.2313 N   0  0  0  0  0  2  0  0  0  0  0  0
   -1.4514    0.3755   -0.1077 N   0  0  0  0  0  2  0  0  0  0  0  0
    0.6620   -0.8365   -0.0816 N   0  0  0  0  0  0  0  0  0  0  0  0
   -1.8067    2.6221    0.1244 C   0  0  1  0  0  3  0  0  0  0  0  0
    3.1551    0.4728   -0.0832 N   0  0  0  0  0  0  0  0  0  0  0  0
   -0.4944    2.6244    0.0437 N   0  0  0  0  0  2  0  0  0  0  0  0
    1.8107   -1.5558   -0.1143 C   0  0  0  0  0  3  0  0  0  0  0  0
   -2.4095    1.3772    0.0318 N   0  0  0  0  0  0  0  0  0  0  0  0
    3.0658   -0.8551   -0.0188 C   0  0  0  0  0  0  0  0  0  0  0  0
    0.0479   -2.9967   -0.3969 C   0  0  0  0  0  0  0  0  0  0  0  0
   -0.5650   -3.8895   -0.5668 H   0  0  0  0  0  0  0  0  0  0  0  0
   -0.4320   -1.6599   -0.2374 C   0  0  0  0  0  0  0  0  0  0  0  0
    1.9688    3.5373   -1.2325 C   0  0  0  0  0  0  0  0  0  0  0  0
    1.2172    3.1338   -1.9266 H   0  0  0  0  0  0  0  0  0  0  0  0
    2.5675    2.6612   -0.3000 C   0  0  0  0  0  0  0  0  0  0  0  0
   -2.6359    3.8508    0.3399 C   0  0  0  0  0  0  0  0  0  0  0  0
   -3.3093    3.7366    1.2129 H   0  0  0  0  0  0  0  0  0  0  0  0
   -3.2750    4.0762   -0.5375 H   0  0  0  0  0  0  0  0  0  0  0  0
   -1.9707    4.7159    0.5166 H   0  0  0  0  0  0  0  0  0  0  0  0
   -3.6860    1.1187    0.6354 C   0  0  0  0  0  0  0  0  0  0  0  0
   -5.4523   -2.9558   -0.9345 C   0  0  0  0  0  0  0  0  0  0  0  0
   -2.9700   -1.6196   -0.4825 C   0  0  0  0  0  0  0  0  0  0  0  0
    5.7097   -3.4464    0.9222 C   0  0  0  0  0  0  0  0  0  0  0  0
    5.7670   -4.4018    1.4687 H   0  0  0  0  0  0  0  0  0  0  0  0
   -5.1189   -1.7769   -1.6357 C   0  0  0  0  0  0  0  0  0  0  0  0
   -5.8288   -1.3688   -2.3729 H   0  0  0  0  0  0  0  0  0  0  0  0
    6.8850   -2.8921    0.3808 C   0  0  0  0  0  0  0  0  0  0  0  0
    4.4711   -2.8008    0.7970 C   0  0  0  0  0  0  0  0  0  0  0  0
    3.5820   -3.2419    1.2698 H   0  0  0  0  0  0  0  0  0  0  0  0
    6.7732   -1.6509   -0.2840 C   0  0  0  0  0  0  0  0  0  0  0  0
    7.6764   -1.1862   -0.7127 H   0  0  0  0  0  0  0  0  0  0  0  0
    3.3633    5.3721   -0.4416 C   0  0  0  0  0  0  0  0  0  0  0  0
    3.6720    6.4270   -0.4932 H   0  0  0  0  0  0  0  0  0  0  0  0
   -3.7581    0.3587    1.8176 C   0  0  0  0  0  0  0  0  0  0  0  0
   -2.8334   -0.0322    2.2657 H   0  0  0  0  0  0  0  0  0  0  0  0
    4.3587   -1.5702    0.1135 C   0  0  0  0  0  0  0  0  0  0  0  0
   -4.8573    1.6169    0.0400 C   0  0  0  0  0  0  0  0  0  0  0  0
   -4.7897    2.1776   -0.9030 H   0  0  0  0  0  0  0  0  0  0  0  0
   -3.9049   -1.1204   -1.4186 C   0  0  0  0  0  0  0  0  0  0  0  0
   -3.6601   -0.2154   -1.9935 H   0  0  0  0  0  0  0  0  0  0  0  0
    3.9829    4.4933    0.4651 C   0  0  0  0  0  0  0  0  0  0  0  0
    4.7781    4.8628    1.1314 H   0  0  0  0  0  0  0  0  0  0  0  0
    5.5425   -1.0034   -0.4158 C   0  0  0  0  0  0  0  0  0  0  0  0
    5.4681   -0.0360   -0.9332 H   0  0  0  0  0  0  0  0  0  0  0  0
    1.4438   -2.9377   -0.3095 C   0  0  0  0  0  0  0  0  0  0  0  0
    2.1409   -3.7759   -0.4070 H   0  0  0  0  0  0  0  0  0  0  0  0
   -3.2893   -2.8121    0.2051 C   0  0  0  0  0  0  0  0  0  0  0  0
   -2.5758   -3.2127    0.9400 H   0  0  0  0  0  0  0  0  0  0  0  0
   -6.1810    0.5967    1.8063 C   0  0  0  0  0  0  0  0  0  0  0  0
   -7.1594    0.3845    2.2623 H   0  0  0  0  0  0  0  0  0  0  0  0
    3.5967    3.1498    0.5358 C   0  0  0  0  0  0  0  0  0  0  0  0
    4.0778    2.4480    1.2311 H   0  0  0  0  0  0  0  0  0  0  0  0
   -4.5083   -3.4630   -0.0193 C   0  0  0  0  0  0  0  0  0  0  0  0
   -4.7388   -4.3856    0.5369 H   0  0  0  0  0  0  0  0  0  0  0  0
   -5.0068    0.0933    2.3920 C   0  0  0  0  0  0  0  0  0  0  0  0
   -5.0629   -0.5100    3.3104 H   0  0  0  0  0  0  0  0  0  0  0  0
    2.3605    4.8834   -1.2945 C   0  0  0  0  0  0  0  0  0  0  0  0
    1.8931    5.5502   -2.0360 H   0  0  0  0  0  0  0  0  0  0  0  0
   -6.1015    1.3660    0.6356 C   0  0  0  0  0  0  0  0  0  0  0  0
   -7.0170    1.7562    0.1664 H   0  0  0  0  0  0  0  0  0  0  0  0
    8.2147   -3.5947    0.4927 C   0  0  0  0  0  0  0  0  0  0  0  0
    8.1699   -4.4441    1.2021 H   0  0  0  0  0  0  0  0  0  0  0  0
    9.0135   -2.9046    0.8347 H   0  0  0  0  0  0  0  0  0  0  0  0
    8.5416   -3.9990   -0.4897 H   0  0  0  0  0  0  0  0  0  0  0  0
   -6.7827   -3.6305   -1.1486 C   0  0  0  0  0  0  0  0  0  0  0  0
   -7.6030   -3.0559   -0.6665 H   0  0  0  0  0  0  0  0  0  0  0  0
   -6.7979   -4.6520   -0.7217 H   0  0  0  0  0  0  0  0  0  0  0  0
   -7.0339   -3.7036   -2.2264 H   0  0  0  0  0  0  0  0  0  0  0  0
   -0.0458    3.5481    0.0674 H   0  0  0  0  0  0  0  0  0  0  0  0
  1 13  1  0  0  0  0
  1  3  1  6  0  0  0
  2  6  1  0  0  0  0
  3  9  1  0  0  0  0
  5  7  1  1  0  0  0
  5 17  1  0  0  0  0
  6 10  2  0  0  0  0
  7 70  1  0  0  0  0
  8  4  1  0  0  0  0
  8 10  1  0  0  0  0
  9  5  1  0  0  0  0
  9 21  1  0  0  0  0
 10 37  1  0  0  0  0
 11 46  2  0  0  0  0
 11 13  1  0  0  0  0
 12 11  1  0  0  0  0
 13  4  2  0  0  0  0
 14 16  1  0  0  0  0
 15 14  1  0  0  0  0
 16  2  1  0  0  0  0
 16 52  2  0  0  0  0
 17 20  1  0  0  0  0
 17 18  1  0  0  0  0
 19 17  1  0  0  0  0
 21 35  1  0  0  0  0
 22 54  1  0  0  0  0
 23  1  1  0  0  0  0
 23 48  1  0  0  0  0
 24 25  1  0  0  0  0
 26 40  1  0  0  0  0
 26 22  2  0  0  0  0
 27 26  1  0  0  0  0
 28 62  1  0  0  0  0
 28 24  2  0  0  0  0
 29 24  1  0  0  0  0
 29 30  1  0  0  0  0
 31 28  1  0  0  0  0
 32 31  1  0  0  0  0
 33 42  2  0  0  0  0
 34 33  1  0  0  0  0
 35 36  1  0  0  0  0
 35 56  2  0  0  0  0
 37 29  2  0  0  0  0
 38 21  2  0  0  0  0
 38 60  1  0  0  0  0
 39 38  1  0  0  0  0
 40 23  2  0  0  0  0
 41 40  1  0  0  0  0
 42 52  1  0  0  0  0
 42 43  1  0  0  0  0
 44 31  2  0  0  0  0
 44 37  1  0  0  0  0
 45 44  1  0  0  0  0
 46  8  1  0  0  0  0
 47 46  1  0  0  0  0
 48 49  1  0  0  0  0
 50 51  1  0  0  0  0
 50 56  1  0  0  0  0
 52 53  1  0  0  0  0
 54 48  2  0  0  0  0
 54 55  1  0  0  0  0
 56 57  1  0  0  0  0
 58 14  2  0  0  0  0
 58 33  1  0  0  0  0
 59 58  1  0  0  0  0
 60 50  2  0  0  0  0
 61 60  1  0  0  0  0
 62 64  1  0  0  0  0
 62 63  1  0  0  0  0
 65 62  1  0  0  0  0
 66 22  1  0  0  0  0
 66 68  1  0  0  0  0
 66 67  1  0  0  0  0
 69 66  1  0  0  0  0
M  END
