2,3,7,8
 OpenBabel05122313063D

 63 67  0  0  0  0  0  0  0  0999 V2000
    5.2155   -0.0001    0.5122 F   0  0  0  0  0  0  0  0  0  0  0  0
   -1.9243    1.3637    0.0006 N   0  0  0  0  0  0  0  0  0  0  0  0
   -1.9244   -1.3636    0.0004 N   0  0  0  0  0  0  0  0  0  0  0  0
    4.0622    1.0826    2.0128 F   0  0  0  0  0  0  0  0  0  0  0  0
   -3.0483   -3.4057   -0.1373 C   0  0  0  0  0  0  0  0  0  0  0  0
   -3.0480    3.4059   -0.1367 C   0  0  0  0  0  0  0  0  0  0  0  0
    0.8241    1.3456   -0.2799 N   0  0  0  0  0  2  0  0  0  0  0  0
    0.8240   -1.3456   -0.2798 N   0  0  0  0  0  0  0  0  0  0  0  0
   -3.2195    1.2220    0.4606 C   0  0  0  0  0  0  0  0  0  0  0  0
   -3.2197   -1.2219    0.4603 C   0  0  0  0  0  3  0  0  0  0  0  0
   -3.9247    2.4940    0.4214 C   0  0  0  0  0  0  0  0  0  0  0  0
    1.8874    3.3561   -0.7745 C   0  0  0  0  0  0  0  0  0  0  0  0
   -1.8044    2.6874   -0.3646 C   0  0  0  0  0  0  0  0  0  0  0  0
   -0.6130    3.2794   -0.7800 C   0  0  0  0  0  0  0  0  0  0  0  0
   -0.6330    4.3397   -1.0645 H   0  0  0  0  0  0  0  0  0  0  0  0
    2.8617    2.4925   -0.3079 C   0  0  0  0  0  0  0  0  0  0  0  0
    2.1746   -1.2284   -0.0119 C   0  0  0  0  0  0  0  0  0  0  0  0
   -1.8045   -2.6873   -0.3649 C   0  0  0  0  0  0  0  0  0  0  0  0
   -3.8182    0.0001    0.7570 C   0  0  0  0  0  0  0  0  0  0  0  0
   -4.8581    0.0001    1.1099 H   0  0  0  0  0  0  0  0  0  0  0  0
    4.0621   -1.0821    2.0132 F   0  0  0  0  0  0  0  0  0  0  0  0
   -3.2601   -4.8558   -0.4359 C   0  0  0  0  0  0  0  0  0  0  0  0
   -4.2948   -5.1708   -0.2004 H   0  0  0  0  0  0  0  0  0  0  0  0
   -2.5744   -5.5023    0.1521 H   0  0  0  0  0  0  0  0  0  0  0  0
   -3.0785   -5.0852   -1.5070 H   0  0  0  0  0  0  0  0  0  0  0  0
   -3.2597    4.8561   -0.4350 C   0  0  0  0  0  0  0  0  0  0  0  0
   -4.2945    5.1709   -0.2000 H   0  0  0  0  0  0  0  0  0  0  0  0
   -3.0775    5.0858   -1.5060 H   0  0  0  0  0  0  0  0  0  0  0  0
   -2.5744    5.5025    0.1535 H   0  0  0  0  0  0  0  0  0  0  0  0
    2.1747    1.2283   -0.0123 C   0  0  0  0  0  0  0  0  0  0  0  0
    0.6245    2.6527   -0.6844 C   0  0  0  0  0  0  0  0  0  0  0  0
    2.8615   -2.4928   -0.3071 C   0  0  0  0  0  0  0  0  0  0  0  0
   -3.9249   -2.4938    0.4208 C   0  0  0  0  0  0  0  0  0  0  0  0
    0.6244   -2.6528   -0.6841 C   0  0  0  0  0  0  0  0  0  0  0  0
   -0.6131   -3.2793   -0.7801 C   0  0  0  0  0  0  0  0  0  0  0  0
   -0.6331   -4.3396   -1.0645 H   0  0  0  0  0  0  0  0  0  0  0  0
    4.0294    0.0001    1.1966 C   0  0  0  0  0  0  0  0  0  0  0  0
    2.0341    4.7643   -1.2559 C   0  0  0  0  0  0  0  0  0  0  0  0
    1.6029    5.4901   -0.5330 H   0  0  0  0  0  0  0  0  0  0  0  0
    1.5146    4.9236   -2.2231 H   0  0  0  0  0  0  0  0  0  0  0  0
    3.0968    5.0392   -1.3954 H   0  0  0  0  0  0  0  0  0  0  0  0
    2.7800   -0.0000    0.3420 C   0  0  0  0  0  0  0  0  0  0  0  0
   -5.3381   -2.6973    0.8658 C   0  0  0  0  0  0  0  0  0  0  0  0
   -6.0504   -2.0891    0.2685 H   0  0  0  0  0  0  0  0  0  0  0  0
   -5.4797   -2.4070    1.9280 H   0  0  0  0  0  0  0  0  0  0  0  0
   -5.6448   -3.7562    0.7671 H   0  0  0  0  0  0  0  0  0  0  0  0
    4.3295    2.7905   -0.2711 C   0  0  0  0  0  0  0  0  0  0  0  0
    4.5494    3.7018   -0.8592 H   0  0  0  0  0  0  0  0  0  0  0  0
    4.9301    1.9636   -0.6934 H   0  0  0  0  0  0  0  0  0  0  0  0
    4.7010    2.9576    0.7587 H   0  0  0  0  0  0  0  0  0  0  0  0
    1.8872   -3.3564   -0.7739 C   0  0  0  0  0  0  0  0  0  0  0  0
    4.3293   -2.7911   -0.2699 C   0  0  0  0  0  0  0  0  0  0  0  0
    4.7005   -2.9579    0.7601 H   0  0  0  0  0  0  0  0  0  0  0  0
    4.9301   -1.9645   -0.6923 H   0  0  0  0  0  0  0  0  0  0  0  0
    4.5491   -3.7026   -0.8576 H   0  0  0  0  0  0  0  0  0  0  0  0
   -5.3378    2.6976    0.8667 C   0  0  0  0  0  0  0  0  0  0  0  0
   -5.6445    3.7565    0.7676 H   0  0  0  0  0  0  0  0  0  0  0  0
   -5.4791    2.4078    1.9291 H   0  0  0  0  0  0  0  0  0  0  0  0
   -6.0502    2.0891    0.2699 H   0  0  0  0  0  0  0  0  0  0  0  0
    2.0340   -4.7647   -1.2548 C   0  0  0  0  0  0  0  0  0  0  0  0
    1.5134   -4.9245   -2.2215 H   0  0  0  0  0  0  0  0  0  0  0  0
    1.6038   -5.4904   -0.5313 H   0  0  0  0  0  0  0  0  0  0  0  0
    3.0965   -5.0393   -1.3955 H   0  0  0  0  0  0  0  0  0  0  0  0
  1 37  1  0  0  0  0
  2  9  1  0  0  0  0
  3 10  1  0  0  0  0
  5 33  2  0  0  0  0
  6 11  2  0  0  0  0
  7 30  1  0  0  0  0
  8 17  2  0  0  0  0
  9 19  2  0  0  0  0
 10 19  1  0  0  0  0
 11  9  1  0  0  0  0
 11 56  1  0  0  0  0
 12 31  1  0  0  0  0
 12 16  2  0  0  0  0
 13  6  1  0  0  0  0
 13  2  2  0  0  0  0
 14 31  2  0  0  0  0
 14 13  1  0  0  0  0
 15 14  1  0  0  0  0
 16 47  1  0  0  0  0
 16 30  1  0  0  0  0
 17 42  1  0  0  0  0
 18  5  1  0  0  0  0
 18  3  2  0  0  0  0
 19 20  1  0  0  0  0
 22 23  1  0  0  0  0
 22  5  1  0  0  0  0
 22 24  1  0  0  0  0
 25 22  1  0  0  0  0
 26 27  1  0  0  0  0
 26  6  1  0  0  0  0
 26 29  1  0  0  0  0
 28 26  1  0  0  0  0
 30 42  2  0  0  0  0
 31  7  1  0  0  0  0
 32 52  1  0  0  0  0
 32 17  1  0  0  0  0
 33 10  1  0  0  0  0
 33 43  1  0  0  0  0
 34  8  1  0  0  0  0
 35 34  2  0  0  0  0
 35 18  1  0  0  0  0
 36 35  1  0  0  0  0
 37  4  1  0  0  0  0
 37 21  1  0  0  0  0
 38 12  1  0  0  0  0
 38 39  1  0  0  0  0
 40 38  1  0  0  0  0
 41 38  1  0  0  0  0
 42 37  1  0  0  0  0
 43 45  1  0  0  0  0
 44 43  1  0  0  0  0
 46 43  1  0  0  0  0
 47 50  1  0  0  0  0
 48 47  1  0  0  0  0
 49 47  1  0  0  0  0
 51 34  1  0  0  0  0
 51 32  2  0  0  0  0
 52 53  1  0  0  0  0
 54 52  1  0  0  0  0
 55 52  1  0  0  0  0
 56 58  1  0  0  0  0
 57 56  1  0  0  0  0
 59 56  1  0  0  0  0
 60 51  1  0  0  0  0
 60 62  1  0  0  0  0
 61 60  1  0  0  0  0
 63 60  1  0  0  0  0
M  END
