1,2,3,4
 OpenBabel05122313063D

 42 43  0  0  1  0  0  0  0  0999 V2000
   -0.9072    1.3321    0.1144 N   0  0  0  0  0  2  0  0  0  0  0  0
   -0.9070   -1.3323    0.1144 N   0  0  0  0  0  2  0  0  0  0  0  0
    2.0688   -1.3139   -0.1600 N   0  0  0  0  0  2  0  0  0  0  0  0
    2.0686    1.3142   -0.1600 N   0  0  0  0  0  2  0  0  0  0  0  0
   -2.1685    0.7203   -0.0642 C   0  0  0  0  0  0  0  0  0  0  0  0
   -2.1685   -0.7207   -0.0642 C   0  0  0  0  0  0  0  0  0  0  0  0
   -3.3667   -1.3968   -0.3727 C   0  0  0  0  0  0  0  0  0  0  0  0
   -3.3730   -2.4861   -0.4667 H   0  0  0  0  0  0  0  0  0  0  0  0
   -4.5575   -0.6986   -0.6340 C   0  0  0  0  0  0  0  0  0  0  0  0
   -5.4721   -1.2607   -0.8744 H   0  0  0  0  0  0  0  0  0  0  0  0
   -4.5575    0.6982   -0.6340 C   0  0  0  0  0  0  0  0  0  0  0  0
   -5.4722    1.2601   -0.8745 H   0  0  0  0  0  0  0  0  0  0  0  0
   -3.3668    1.3964   -0.3728 C   0  0  0  0  0  0  0  0  0  0  0  0
   -3.3731    2.4857   -0.4668 H   0  0  0  0  0  0  0  0  0  0  0  0
   -0.6566   -2.6262    0.3950 C   0  0  1  0  0  3  0  0  0  0  0  0
    0.6349   -3.2069    0.2970 C   0  0  0  0  0  0  0  0  0  0  0  0
    0.6626   -4.2864    0.4998 H   0  0  0  0  0  0  0  0  0  0  0  0
    1.8895   -2.6372   -0.0165 C   0  0  0  0  0  0  0  0  0  0  0  0
   -1.7401   -3.5663    0.8902 C   0  0  0  0  0  0  0  0  0  0  0  0
   -2.5025   -3.0332    1.4884 H   0  0  0  0  0  0  0  0  0  0  0  0
   -1.2815   -4.3495    1.5221 H   0  0  0  0  0  0  0  0  0  0  0  0
   -2.2635   -4.0853    0.0599 H   0  0  0  0  0  0  0  0  0  0  0  0
    3.0825   -3.5569   -0.1447 C   0  0  0  0  0  0  0  0  0  0  0  0
    3.5611   -3.4526   -1.1407 H   0  0  0  0  0  0  0  0  0  0  0  0
    2.7849   -4.6126   -0.0161 H   0  0  0  0  0  0  0  0  0  0  0  0
    3.8574   -3.3212    0.6149 H   0  0  0  0  0  0  0  0  0  0  0  0
    3.2938   -0.6857   -0.3435 C   0  0  0  0  0  0  0  0  0  0  0  0
    4.2181   -1.2720   -0.4443 H   0  0  0  0  0  0  0  0  0  0  0  0
    3.2937    0.6862   -0.3435 C   0  0  0  0  0  0  0  0  0  0  0  0
    4.2179    1.2727   -0.4443 H   0  0  0  0  0  0  0  0  0  0  0  0
    1.8891    2.6374   -0.0165 C   0  0  1  0  0  3  0  0  0  0  0  0
    0.6344    3.2070    0.2971 C   0  0  0  0  0  0  0  0  0  0  0  0
    0.6618    4.2865    0.4999 H   0  0  0  0  0  0  0  0  0  0  0  0
   -0.6571    2.6261    0.3951 C   0  0  0  0  0  0  0  0  0  0  0  0
    3.0819    3.5573   -0.1446 C   0  0  0  0  0  0  0  0  0  0  0  0
    3.8569    3.3218    0.6150 H   0  0  0  0  0  0  0  0  0  0  0  0
    2.7842    4.6130   -0.0160 H   0  0  0  0  0  0  0  0  0  0  0  0
    3.5606    3.4531   -1.1406 H   0  0  0  0  0  0  0  0  0  0  0  0
   -1.7408    3.5659    0.8902 C   0  0  0  0  0  0  0  0  0  0  0  0
   -2.2641    4.0850    0.0598 H   0  0  0  0  0  0  0  0  0  0  0  0
   -1.2824    4.3491    1.5223 H   0  0  0  0  0  0  0  0  0  0  0  0
   -2.5031    3.0326    1.4882 H   0  0  0  0  0  0  0  0  0  0  0  0
  1 34  1  0  0  0  0
  2 15  1  0  0  0  0
  3 18  1  0  0  0  0
  4 31  1  0  0  0  0
  5  6  1  0  0  0  0
  5  1  1  0  0  0  0
  6  2  1  0  0  0  0
  7  6  2  0  0  0  0
  8  7  1  0  0  0  0
  9  7  1  0  0  0  0
 10  9  1  0  0  0  0
 11  9  2  0  0  0  0
 11 13  1  0  0  0  0
 12 11  1  0  0  0  0
 13  5  2  0  0  0  0
 14 13  1  0  0  0  0
 15 19  1  1  0  0  0
 16 15  1  0  0  0  0
 16 17  1  0  0  0  0
 18 16  2  0  0  0  0
 19 20  1  0  0  0  0
 19 21  1  0  0  0  0
 22 19  1  0  0  0  0
 23 18  1  0  0  0  0
 23 25  1  0  0  0  0
 23 26  1  0  0  0  0
 24 23  1  0  0  0  0
 27  3  1  0  0  0  0
 28 27  1  0  0  0  0
 29 27  2  0  0  0  0
 29  4  1  0  0  0  0
 30 29  1  0  0  0  0
 31 35  1  1  0  0  0
 31 32  1  0  0  0  0
 32 34  2  0  0  0  0
 32 33  1  0  0  0  0
 34 39  1  0  0  0  0
 35 37  1  0  0  0  0
 35 36  1  0  0  0  0
 38 35  1  0  0  0  0
 39 42  1  0  0  0  0
 39 41  1  0  0  0  0
 40 39  1  0  0  0  0
M  END
