1,2,3,4
 OpenBabel05122313063D

 74 78  0  0  1  0  0  0  0  0999 V2000
   -1.6143    1.0520   -0.2977 N   0  0  0  0  0  0  0  0  0  0  0  0
    1.1689    1.5100   -0.3597 N   0  0  0  0  0  0  0  0  0  0  0  0
    1.6193   -1.1638   -0.0372 N   0  0  0  0  0  0  0  0  0  0  0  0
   -1.1632   -1.6321   -0.0870 N   0  0  0  0  0  0  0  0  0  0  0  0
   -2.8909    0.7515    0.0633 C   0  0  0  0  0  3  0  0  0  0  0  0
   -3.7726    1.8306   -0.2608 C   0  0  0  0  0  0  0  0  0  0  0  0
   -4.8488    1.8627   -0.0612 H   0  0  0  0  0  0  0  0  0  0  0  0
   -3.0109    2.8073   -0.8852 C   0  0  0  0  0  0  0  0  0  0  0  0
   -3.3596    3.7670   -1.2817 H   0  0  0  0  0  0  0  0  0  0  0  0
   -1.6600    2.3281   -0.8860 C   0  0  0  0  0  0  0  0  0  0  0  0
   -0.5385    3.0741   -1.2855 C   0  0  2  0  0  3  0  0  0  0  0  0
    0.7872    2.6987   -1.0091 C   0  0  0  0  0  0  0  0  0  0  0  0
    1.9301    3.5504   -1.1576 C   0  0  0  0  0  0  0  0  0  0  0  0
    1.9474    4.5364   -1.6344 H   0  0  0  0  0  0  0  0  0  0  0  0
    2.9908    2.8939   -0.5494 C   0  0  0  0  0  0  0  0  0  0  0  0
    4.0181    3.2589   -0.4471 H   0  0  0  0  0  0  0  0  0  0  0  0
    2.4948    1.6367   -0.0830 C   0  0  0  0  0  3  0  0  0  0  0  0
    3.3200    0.6077    0.6522 C   0  0  0  0  0  0  0  0  0  0  0  0
    2.8901   -0.7904    0.2739 C   0  0  0  0  0  3  0  0  0  0  0  0
    3.7823   -1.9028    0.1618 C   0  0  0  0  0  0  0  0  0  0  0  0
    4.8564   -1.8891    0.3744 H   0  0  0  0  0  0  0  0  0  0  0  0
    3.0328   -2.9862   -0.2705 C   0  0  0  0  0  0  0  0  0  0  0  0
    3.3954   -3.9988   -0.4760 H   0  0  0  0  0  0  0  0  0  0  0  0
    1.6781   -2.5282   -0.3734 C   0  0  0  0  0  0  0  0  0  0  0  0
    0.5640   -3.3398   -0.6520 C   0  0  2  0  0  3  0  0  0  0  0  0
   -0.7687   -2.9205   -0.4941 C   0  0  0  0  0  0  0  0  0  0  0  0
   -1.9172   -3.7775   -0.5399 C   0  0  0  0  0  0  0  0  0  0  0  0
   -1.9309   -4.8320   -0.8349 H   0  0  0  0  0  0  0  0  0  0  0  0
   -2.9942   -3.0162   -0.1097 C   0  0  0  0  0  0  0  0  0  0  0  0
   -4.0294   -3.3522    0.0113 H   0  0  0  0  0  0  0  0  0  0  0  0
   -2.5008   -1.7002    0.1511 C   0  0  0  0  0  3  0  0  0  0  0  0
   -3.3370   -0.5566    0.6739 C   0  0  0  0  0  0  0  0  0  0  0  0
   -0.7769    4.4427   -1.9001 C   0  0  0  0  0  0  0  0  0  0  0  0
    0.0423    4.6699   -2.6112 H   0  0  0  0  0  0  0  0  0  0  0  0
   -1.7035    4.4126   -2.5074 H   0  0  0  0  0  0  0  0  0  0  0  0
   -0.8801    5.5691   -0.8592 C   0  0  0  0  0  0  0  0  0  0  0  0
   -1.7142    5.3779   -0.1551 H   0  0  0  0  0  0  0  0  0  0  0  0
   -1.0533    6.5523   -1.3453 H   0  0  0  0  0  0  0  0  0  0  0  0
    0.0500    5.6361   -0.2605 H   0  0  0  0  0  0  0  0  0  0  0  0
    4.8265    0.7996    0.2928 C   0  0  0  0  0  0  0  0  0  0  0  0
    5.1244    1.8094    0.6452 H   0  0  0  0  0  0  0  0  0  0  0  0
    5.4201    0.0994    0.9155 H   0  0  0  0  0  0  0  0  0  0  0  0
    5.2140    0.6316   -1.1781 C   0  0  0  0  0  0  0  0  0  0  0  0
    4.9737   -0.3856   -1.5454 H   0  0  0  0  0  0  0  0  0  0  0  0
    6.3026    0.7981   -1.3204 H   0  0  0  0  0  0  0  0  0  0  0  0
    4.6713    1.3511   -1.8228 H   0  0  0  0  0  0  0  0  0  0  0  0
    3.1643    0.8666    2.1974 C   0  0  0  0  0  0  0  0  0  0  0  0
    3.6570    1.8416    2.4087 H   0  0  0  0  0  0  0  0  0  0  0  0
    2.0889    0.9904    2.4226 H   0  0  0  0  0  0  0  0  0  0  0  0
    3.7155   -0.2254    3.1120 C   0  0  0  0  0  0  0  0  0  0  0  0
    3.1576   -1.1720    2.9692 H   0  0  0  0  0  0  0  0  0  0  0  0
    3.5913    0.0732    4.1731 H   0  0  0  0  0  0  0  0  0  0  0  0
    4.7938   -0.4366    2.9472 H   0  0  0  0  0  0  0  0  0  0  0  0
    0.8163   -4.7552   -1.1383 C   0  0  0  0  0  0  0  0  0  0  0  0
    1.7481   -5.1475   -0.6878 H   0  0  0  0  0  0  0  0  0  0  0  0
    0.0085   -5.4249   -0.7862 H   0  0  0  0  0  0  0  0  0  0  0  0
    0.9167   -4.8315   -2.6699 C   0  0  0  0  0  0  0  0  0  0  0  0
   -0.0201   -4.4737   -3.1426 H   0  0  0  0  0  0  0  0  0  0  0  0
    1.1019   -5.8717   -3.0117 H   0  0  0  0  0  0  0  0  0  0  0  0
    1.7438   -4.1930   -3.0406 H   0  0  0  0  0  0  0  0  0  0  0  0
   -3.2162   -0.5402    2.2436 C   0  0  0  0  0  0  0  0  0  0  0  0
   -3.7265   -1.4574    2.6126 H   0  0  0  0  0  0  0  0  0  0  0  0
   -2.1473   -0.6322    2.5107 H   0  0  0  0  0  0  0  0  0  0  0  0
   -3.7692    0.7024    2.9384 C   0  0  0  0  0  0  0  0  0  0  0  0
   -3.1894    1.6007    2.6481 H   0  0  0  0  0  0  0  0  0  0  0  0
   -3.6764    0.5923    4.0382 H   0  0  0  0  0  0  0  0  0  0  0  0
   -4.8390    0.8966    2.7095 H   0  0  0  0  0  0  0  0  0  0  0  0
   -4.8366   -0.8056    0.3205 C   0  0  0  0  0  0  0  0  0  0  0  0
   -5.1465   -1.7395    0.8349 H   0  0  0  0  0  0  0  0  0  0  0  0
   -5.4394   -0.0079    0.8010 H   0  0  0  0  0  0  0  0  0  0  0  0
   -5.1923   -0.8922   -1.1653 C   0  0  0  0  0  0  0  0  0  0  0  0
   -4.9442    0.0483   -1.6955 H   0  0  0  0  0  0  0  0  0  0  0  0
   -6.2776   -1.0850   -1.3003 H   0  0  0  0  0  0  0  0  0  0  0  0
   -4.6356   -1.7088   -1.6662 H   0  0  0  0  0  0  0  0  0  0  0  0
  1  5  1  0  0  0  0
  2 17  1  0  0  0  0
  3 19  1  0  0  0  0
  4 31  1  0  0  0  0
  5 32  1  0  0  0  0
  6  7  1  0  0  0  0
  6  5  1  0  0  0  0
  8  6  2  0  0  0  0
  9  8  1  0  0  0  0
 10  8  1  0  0  0  0
 10  1  2  0  0  0  0
 11 33  1  1  0  0  0
 11 12  1  0  0  0  0
 11 10  1  0  0  0  0
 12  2  2  0  0  0  0
 13 12  1  0  0  0  0
 13 15  2  0  0  0  0
 14 13  1  0  0  0  0
 15 16  1  0  0  0  0
 15 17  1  0  0  0  0
 17 18  1  0  0  0  0
 18 47  1  0  0  0  0
 19 18  1  0  0  0  0
 20 19  1  0  0  0  0
 20 21  1  0  0  0  0
 22 20  2  0  0  0  0
 23 22  1  0  0  0  0
 24 22  1  0  0  0  0
 24  3  2  0  0  0  0
 25 54  1  1  0  0  0
 25 26  1  0  0  0  0
 25 24  1  0  0  0  0
 26  4  2  0  0  0  0
 27 26  1  0  0  0  0
 27 29  2  0  0  0  0
 28 27  1  0  0  0  0
 29 30  1  0  0  0  0
 29 31  1  0  0  0  0
 31 32  1  0  0  0  0
 32 61  1  0  0  0  0
 33 36  1  0  0  0  0
 34 33  1  0  0  0  0
 35 33  1  0  0  0  0
 36 39  1  0  0  0  0
 36 37  1  0  0  0  0
 38 36  1  0  0  0  0
 40 41  1  0  0  0  0
 40 18  1  0  0  0  0
 40 42  1  0  0  0  0
 43 40  1  0  0  0  0
 44 43  1  0  0  0  0
 45 43  1  0  0  0  0
 46 43  1  0  0  0  0
 47 48  1  0  0  0  0
 47 49  1  0  0  0  0
 47 50  1  0  0  0  0
 50 52  1  0  0  0  0
 51 50  1  0  0  0  0
 53 50  1  0  0  0  0
 54 56  1  0  0  0  0
 54 55  1  0  0  0  0
 57 54  1  0  0  0  0
 58 57  1  0  0  0  0
 59 57  1  0  0  0  0
 60 57  1  0  0  0  0
 61 63  1  0  0  0  0
 61 62  1  0  0  0  0
 61 64  1  0  0  0  0
 64 66  1  0  0  0  0
 65 64  1  0  0  0  0
 67 64  1  0  0  0  0
 68 32  1  0  0  0  0
 68 70  1  0  0  0  0
 68 69  1  0  0  0  0
 71 68  1  0  0  0  0
 72 71  1  0  0  0  0
 73 71  1  0  0  0  0
 74 71  1  0  0  0  0
M  END
