1,4,14,24
 OpenBabel05122313063D

 73 72  0  0  0  0  0  0  0  0999 V2000
    0.5880   -2.8805    1.0941 N   0  0  0  0  0  0  0  0  0  0  0  0
   -0.7241   -3.4424    1.4646 C   0  0  0  0  0  0  0  0  0  0  0  0
   -1.6967   -3.1907    0.3279 C   0  0  0  0  0  0  0  0  0  0  0  0
   -1.4839   -1.8208   -0.1488 N   0  0  0  0  0  2  0  0  0  0  0  0
   -2.6230   -1.3528   -0.8340 C   0  0  0  0  0  0  0  0  0  0  0  0
   -3.5700   -2.1203   -1.1145 O   0  0  0  0  0  0  0  0  0  0  0  0
   -2.6345   -0.0127   -1.1195 N   0  0  0  0  0  0  0  0  0  0  0  0
   -3.6199    0.6112   -2.0046 C   0  0  0  0  0  0  0  0  0  0  0  0
   -3.6171   -0.0661   -3.3937 C   0  0  0  0  0  0  0  0  0  0  0  0
   -5.0294    0.5228   -1.3830 C   0  0  0  0  0  0  0  0  0  0  0  0
   -3.2154    2.0871   -2.1503 C   0  0  0  0  0  0  0  0  0  0  0  0
    1.4384   -2.5797    2.2612 C   0  0  0  0  0  0  0  0  0  0  0  0
    0.8668   -1.3593    2.9637 C   0  0  0  0  0  0  0  0  0  0  0  0
    0.4790   -0.4006    1.9250 N   0  0  0  0  0  2  0  0  0  0  0  0
    0.0796    0.8295    2.4861 C   0  0  0  0  0  0  0  0  0  0  0  0
   -0.0874    0.9453    3.7167 O   0  0  0  0  0  0  0  0  0  0  0  0
   -0.0693    1.8661    1.5980 N   0  0  0  0  0  0  0  0  0  0  0  0
   -0.8642    3.0648    1.8973 C   0  0  0  0  0  0  0  0  0  0  0  0
   -2.3132    2.6607    2.2492 C   0  0  0  0  0  0  0  0  0  0  0  0
   -0.8567    3.9194    0.6188 C   0  0  0  0  0  0  0  0  0  0  0  0
   -0.2335    3.8644    3.0534 C   0  0  0  0  0  0  0  0  0  0  0  0
    1.2658   -3.6807    0.0572 C   0  0  0  0  0  0  0  0  0  0  0  0
    2.3324   -2.8310   -0.6120 C   0  0  0  0  0  0  0  0  0  0  0  0
    1.8150   -1.4658   -0.7347 N   0  0  0  0  0  2  0  0  0  0  0  0
    2.8073   -0.6149   -1.2492 C   0  0  0  0  0  0  0  0  0  0  0  0
    3.8572   -1.0649   -1.7563 O   0  0  0  0  0  0  0  0  0  0  0  0
    2.5696    0.7276   -1.0910 N   0  0  0  0  0  0  0  0  0  0  0  0
    3.4071    1.7940   -1.6378 C   0  0  0  0  0  0  0  0  0  0  0  0
    2.7112    3.1157   -1.2729 C   0  0  0  0  0  0  0  0  0  0  0  0
    4.8108    1.7465   -0.9988 C   0  0  0  0  0  0  0  0  0  0  0  0
    3.5264    1.6653   -3.1722 C   0  0  0  0  0  0  0  0  0  0  0  0
   -1.0698   -2.9045    2.3681 H   0  0  0  0  0  0  0  0  0  0  0  0
   -0.6441   -4.5279    1.7193 H   0  0  0  0  0  0  0  0  0  0  0  0
   -1.5623   -3.9362   -0.4936 H   0  0  0  0  0  0  0  0  0  0  0  0
   -2.7429   -3.3411    0.6684 H   0  0  0  0  0  0  0  0  0  0  0  0
   -1.7124    0.4681   -0.9523 H   0  0  0  0  0  0  0  0  0  0  0  0
   -2.6156    0.0263   -3.8627 H   0  0  0  0  0  0  0  0  0  0  0  0
   -4.3645    0.4002   -4.0699 H   0  0  0  0  0  0  0  0  0  0  0  0
   -3.8540   -1.1409   -3.2760 H   0  0  0  0  0  0  0  0  0  0  0  0
   -5.0432    1.0383   -0.4009 H   0  0  0  0  0  0  0  0  0  0  0  0
   -5.2887   -0.5410   -1.2254 H   0  0  0  0  0  0  0  0  0  0  0  0
   -5.7856    0.9982   -2.0432 H   0  0  0  0  0  0  0  0  0  0  0  0
   -3.2411    2.6013   -1.1684 H   0  0  0  0  0  0  0  0  0  0  0  0
   -3.9081    2.6138   -2.8376 H   0  0  0  0  0  0  0  0  0  0  0  0
   -2.1856    2.1791   -2.5529 H   0  0  0  0  0  0  0  0  0  0  0  0
    2.4503   -2.3466    1.8779 H   0  0  0  0  0  0  0  0  0  0  0  0
    1.5209   -3.4584    2.9472 H   0  0  0  0  0  0  0  0  0  0  0  0
   -0.0012   -1.6230    3.6123 H   0  0  0  0  0  0  0  0  0  0  0  0
    1.6154   -0.9232    3.6612 H   0  0  0  0  0  0  0  0  0  0  0  0
   -0.0431    1.5887    0.5961 H   0  0  0  0  0  0  0  0  0  0  0  0
   -2.7516    2.0670    1.4203 H   0  0  0  0  0  0  0  0  0  0  0  0
   -2.9510    3.5517    2.4293 H   0  0  0  0  0  0  0  0  0  0  0  0
   -2.3107    2.0331    3.1617 H   0  0  0  0  0  0  0  0  0  0  0  0
   -1.2629    3.3474   -0.2389 H   0  0  0  0  0  0  0  0  0  0  0  0
    0.1770    4.2274    0.3609 H   0  0  0  0  0  0  0  0  0  0  0  0
   -1.4709    4.8320    0.7580 H   0  0  0  0  0  0  0  0  0  0  0  0
    0.7983    4.1708    2.7838 H   0  0  0  0  0  0  0  0  0  0  0  0
   -0.1827    3.2287    3.9567 H   0  0  0  0  0  0  0  0  0  0  0  0
   -0.8285    4.7776    3.2657 H   0  0  0  0  0  0  0  0  0  0  0  0
    0.4926   -3.9689   -0.6810 H   0  0  0  0  0  0  0  0  0  0  0  0
    1.6946   -4.6221    0.4821 H   0  0  0  0  0  0  0  0  0  0  0  0
    3.2875   -2.8454   -0.0337 H   0  0  0  0  0  0  0  0  0  0  0  0
    2.6037   -3.2620   -1.6011 H   0  0  0  0  0  0  0  0  0  0  0  0
    1.6187    0.9651   -0.7461 H   0  0  0  0  0  0  0  0  0  0  0  0
    1.6960    3.1620   -1.7183 H   0  0  0  0  0  0  0  0  0  0  0  0
    3.2971    3.9820   -1.6407 H   0  0  0  0  0  0  0  0  0  0  0  0
    2.5960    3.2036   -0.1730 H   0  0  0  0  0  0  0  0  0  0  0  0
    4.7316    1.8749    0.0998 H   0  0  0  0  0  0  0  0  0  0  0  0
    5.4601    2.5511   -1.4042 H   0  0  0  0  0  0  0  0  0  0  0  0
    5.2694    0.7609   -1.2062 H   0  0  0  0  0  0  0  0  0  0  0  0
    2.5232    1.7329   -3.6419 H   0  0  0  0  0  0  0  0  0  0  0  0
    3.9672    0.6809   -3.4216 H   0  0  0  0  0  0  0  0  0  0  0  0
    4.1649    2.4697   -3.5944 H   0  0  0  0  0  0  0  0  0  0  0  0
  1  2  1  0  0  0  0
  1 12  1  0  0  0  0
  2 33  1  0  0  0  0
  2 32  1  0  0  0  0
  3 35  1  0  0  0  0
  3  2  1  0  0  0  0
  4  3  1  0  0  0  0
  5  4  1  0  0  0  0
  6  5  2  0  0  0  0
  7 36  1  0  0  0  0
  7  5  1  0  0  0  0
  8 10  1  0  0  0  0
  8  7  1  0  0  0  0
  9 39  1  0  0  0  0
  9  8  1  0  0  0  0
 10 41  1  0  0  0  0
 10 40  1  0  0  0  0
 11  8  1  0  0  0  0
 11 43  1  0  0  0  0
 12 47  1  0  0  0  0
 12 13  1  0  0  0  0
 13 48  1  0  0  0  0
 13 49  1  0  0  0  0
 14 15  1  0  0  0  0
 14 13  1  0  0  0  0
 15 16  2  0  0  0  0
 17 18  1  0  0  0  0
 17 15  1  0  0  0  0
 18 19  1  0  0  0  0
 18 21  1  0  0  0  0
 19 52  1  0  0  0  0
 19 53  1  0  0  0  0
 20 56  1  0  0  0  0
 20 18  1  0  0  0  0
 21 59  1  0  0  0  0
 21 58  1  0  0  0  0
 22 61  1  0  0  0  0
 22  1  1  0  0  0  0
 23 62  1  0  0  0  0
 23 22  1  0  0  0  0
 24 23  1  0  0  0  0
 25 27  1  0  0  0  0
 25 24  1  0  0  0  0
 26 25  2  0  0  0  0
 27 64  1  0  0  0  0
 28 29  1  0  0  0  0
 28 27  1  0  0  0  0
 28 30  1  0  0  0  0
 29 67  1  0  0  0  0
 30 68  1  0  0  0  0
 31 28  1  0  0  0  0
 34  3  1  0  0  0  0
 37  9  1  0  0  0  0
 38  9  1  0  0  0  0
 42 10  1  0  0  0  0
 44 11  1  0  0  0  0
 45 11  1  0  0  0  0
 46 12  1  0  0  0  0
 50 17  1  0  0  0  0
 51 19  1  0  0  0  0
 54 20  1  0  0  0  0
 55 20  1  0  0  0  0
 57 21  1  0  0  0  0
 60 22  1  0  0  0  0
 63 23  1  0  0  0  0
 65 29  1  0  0  0  0
 66 29  1  0  0  0  0
 69 30  1  0  0  0  0
 70 30  1  0  0  0  0
 71 31  1  0  0  0  0
 72 31  1  0  0  0  0
 73 31  1  0  0  0  0
M  END
