1,2,3,4
 OpenBabel05122313063D

 42 44  0  0  1  0  0  0  0  0999 V2000
   -1.8209   -1.4972    0.2042 N   0  0  0  0  0  2  0  0  0  0  0  0
    0.8044   -1.5407   -0.0941 N   0  0  0  0  0  2  0  0  0  0  0  0
    1.3178    1.0184    0.0769 N   0  0  0  0  0  2  0  0  0  0  0  0
   -1.1249    1.9903   -0.2006 N   0  0  0  0  0  2  0  0  0  0  0  0
    0.8058   -3.8167   -0.6262 O   0  0  0  0  0  0  0  0  0  0  0  0
    2.1980    3.1193    0.6035 O   0  0  0  0  0  0  0  0  0  0  0  0
    6.0866    0.1256    0.1029 F   0  0  0  0  0  0  0  0  0  0  0  0
   -3.0920   -1.4670    0.6750 C   0  0  1  0  0  3  0  0  0  0  0  0
   -3.9005   -2.6214    0.6045 C   0  0  0  0  0  0  0  0  0  0  0  0
   -4.9366   -2.5668    0.9692 H   0  0  0  0  0  0  0  0  0  0  0  0
   -3.3769   -3.8167    0.1001 C   0  0  0  0  0  0  0  0  0  0  0  0
   -4.0084   -4.7151    0.0282 H   0  0  0  0  0  0  0  0  0  0  0  0
   -2.0234   -3.8611   -0.2580 C   0  0  0  0  0  0  0  0  0  0  0  0
   -1.5016   -4.7741   -0.5792 H   0  0  0  0  0  0  0  0  0  0  0  0
   -1.2665   -2.6899   -0.1707 C   0  0  0  0  0  0  0  0  0  0  0  0
    0.2355   -2.7517   -0.3544 C   0  0  0  0  0  0  0  0  0  0  0  0
    2.1712   -1.2103   -0.0748 C   0  0  0  0  0  0  0  0  0  0  0  0
    3.2342   -2.1327   -0.1500 C   0  0  0  0  0  0  0  0  0  0  0  0
    2.9983   -3.1980   -0.2602 H   0  0  0  0  0  0  0  0  0  0  0  0
    4.5589   -1.6757   -0.0930 C   0  0  0  0  0  0  0  0  0  0  0  0
    5.4059   -2.3737   -0.1507 H   0  0  0  0  0  0  0  0  0  0  0  0
    4.8082   -0.3030    0.0406 C   0  0  0  0  0  0  0  0  0  0  0  0
    3.7820    0.6450    0.1115 C   0  0  0  0  0  0  0  0  0  0  0  0
    3.9961    1.7141    0.2220 H   0  0  0  0  0  0  0  0  0  0  0  0
    2.4508    0.1898    0.0469 C   0  0  0  0  0  0  0  0  0  0  0  0
    1.2612    2.3562    0.3380 C   0  0  0  0  0  0  0  0  0  0  0  0
   -0.1515    2.8779    0.1661 C   0  0  1  0  0  3  0  0  0  0  0  0
   -0.3970    4.2500    0.2548 C   0  0  0  0  0  0  0  0  0  0  0  0
    0.4389    4.8919    0.5684 H   0  0  0  0  0  0  0  0  0  0  0  0
   -1.6663    4.7309   -0.0927 C   0  0  0  0  0  0  0  0  0  0  0  0
   -1.9021    5.8033   -0.0192 H   0  0  0  0  0  0  0  0  0  0  0  0
   -2.6138    3.8293   -0.5885 C   0  0  0  0  0  0  0  0  0  0  0  0
   -3.5941    4.1781   -0.9448 H   0  0  0  0  0  0  0  0  0  0  0  0
   -2.3135    2.4524   -0.6612 C   0  0  0  0  0  0  0  0  0  0  0  0
   -3.5869   -0.2242    1.3586 C   0  0  0  0  0  0  0  0  0  0  0  0
   -2.8589    0.6008    1.2646 H   0  0  0  0  0  0  0  0  0  0  0  0
   -3.7129   -0.4355    2.4412 H   0  0  0  0  0  0  0  0  0  0  0  0
   -4.5731    0.0994    0.9733 H   0  0  0  0  0  0  0  0  0  0  0  0
   -3.2556    1.4961   -1.3354 C   0  0  0  0  0  0  0  0  0  0  0  0
   -2.8979    0.4549   -1.2487 H   0  0  0  0  0  0  0  0  0  0  0  0
   -3.3054    1.7430   -2.4167 H   0  0  0  0  0  0  0  0  0  0  0  0
   -4.2854    1.5738   -0.9363 H   0  0  0  0  0  0  0  0  0  0  0  0
  1  8  1  0  0  0  0
  2 17  1  0  0  0  0
  3 26  1  0  0  0  0
  4 27  1  0  0  0  0
  5 16  2  0  0  0  0
  8 35  1  1  0  0  0
  9  8  1  0  0  0  0
  9 10  1  0  0  0  0
 11  9  2  0  0  0  0
 12 11  1  0  0  0  0
 13 15  2  0  0  0  0
 13 11  1  0  0  0  0
 14 13  1  0  0  0  0
 15  1  1  0  0  0  0
 16 15  1  0  0  0  0
 16  2  1  0  0  0  0
 17 25  1  0  0  0  0
 18 20  1  0  0  0  0
 18 17  2  0  0  0  0
 19 18  1  0  0  0  0
 20 22  2  0  0  0  0
 21 20  1  0  0  0  0
 22  7  1  0  0  0  0
 22 23  1  0  0  0  0
 23 24  1  0  0  0  0
 25  3  1  0  0  0  0
 25 23  2  0  0  0  0
 26  6  2  0  0  0  0
 27 28  1  0  0  0  0
 27 26  1  6  0  0  0
 28 29  1  0  0  0  0
 30 31  1  0  0  0  0
 30 28  2  0  0  0  0
 32 30  1  0  0  0  0
 33 32  1  0  0  0  0
 34 32  2  0  0  0  0
 34  4  1  0  0  0  0
 35 37  1  0  0  0  0
 36 35  1  0  0  0  0
 38 35  1  0  0  0  0
 39 40  1  0  0  0  0
 39 42  1  0  0  0  0
 39 34  1  0  0  0  0
 41 39  1  0  0  0  0
M  END
