5,16,29,40
 OpenBabel05122313063D

 48 50  0  0  1  0  0  0  0  0999 V2000
   -3.6996    0.8726   -1.3491 C   0  0  0  0  0  0  0  0  0  0  0  0
   -3.7889    1.1017   -2.4318 H   0  0  0  0  0  0  0  0  0  0  0  0
   -4.7274    0.7484   -0.9567 H   0  0  0  0  0  0  0  0  0  0  0  0
   -3.1457   -0.0783   -1.2559 H   0  0  0  0  0  0  0  0  0  0  0  0
   -1.7127    1.7774   -0.2069 N   0  0  0  0  0  2  0  0  0  0  0  0
   -2.9671    1.9965   -0.6727 C   0  0  1  0  0  3  0  0  0  0  0  0
   -3.5331    3.2872   -0.6035 C   0  0  0  0  0  0  0  0  0  0  0  0
   -4.5614    3.4360   -0.9640 H   0  0  0  0  0  0  0  0  0  0  0  0
   -2.7828    4.3578   -0.1051 C   0  0  0  0  0  0  0  0  0  0  0  0
   -3.2253    5.3629   -0.0339 H   0  0  0  0  0  0  0  0  0  0  0  0
   -1.4455    4.1364    0.2480 C   0  0  0  0  0  0  0  0  0  0  0  0
   -0.7530    4.9296    0.5645 H   0  0  0  0  0  0  0  0  0  0  0  0
   -0.9335    2.8390    0.1619 C   0  0  0  0  0  0  0  0  0  0  0  0
    0.5526    2.6061    0.3406 C   0  0  0  0  0  0  0  0  0  0  0  0
    1.3188    3.5418    0.6081 O   0  0  0  0  0  0  0  0  0  0  0  0
    0.8724    1.3066    0.0827 N   0  0  0  0  0  2  0  0  0  0  0  0
    2.1466    0.7116    0.0583 C   0  0  0  0  0  0  0  0  0  0  0  0
    3.3710    1.4031    0.1239 C   0  0  0  0  0  0  0  0  0  0  0  0
    3.3472    2.4952    0.2298 H   0  0  0  0  0  0  0  0  0  0  0  0
    4.5925    0.7083    0.0652 C   0  0  0  0  0  0  0  0  0  0  0  0
    5.8924    1.4681    0.1397 C   0  0  0  0  0  0  0  0  0  0  0  0
    6.5160    1.3059   -0.7659 H   0  0  0  0  0  0  0  0  0  0  0  0
    6.5111    1.1411    1.0031 H   0  0  0  0  0  0  0  0  0  0  0  0
    5.7176    2.5561    0.2408 H   0  0  0  0  0  0  0  0  0  0  0  0
   -3.6996   -0.8726    1.3491 C   0  0  0  0  0  0  0  0  0  0  0  0
   -3.7889   -1.1017    2.4318 H   0  0  0  0  0  0  0  0  0  0  0  0
   -4.7274   -0.7484    0.9567 H   0  0  0  0  0  0  0  0  0  0  0  0
   -3.1457    0.0783    1.2559 H   0  0  0  0  0  0  0  0  0  0  0  0
   -1.7127   -1.7774    0.2069 N   0  0  0  0  0  2  0  0  0  0  0  0
   -2.9671   -1.9965    0.6727 C   0  0  1  0  0  3  0  0  0  0  0  0
   -3.5331   -3.2872    0.6035 C   0  0  0  0  0  0  0  0  0  0  0  0
   -4.5614   -3.4360    0.9639 H   0  0  0  0  0  0  0  0  0  0  0  0
   -2.7828   -4.3578    0.1051 C   0  0  0  0  0  0  0  0  0  0  0  0
   -3.2253   -5.3629    0.0339 H   0  0  0  0  0  0  0  0  0  0  0  0
   -1.4455   -4.1364   -0.2480 C   0  0  0  0  0  0  0  0  0  0  0  0
   -0.7530   -4.9296   -0.5645 H   0  0  0  0  0  0  0  0  0  0  0  0
   -0.9335   -2.8390   -0.1619 C   0  0  0  0  0  0  0  0  0  0  0  0
    0.5526   -2.6061   -0.3406 C   0  0  0  0  0  0  0  0  0  0  0  0
    1.3188   -3.5418   -0.6081 O   0  0  0  0  0  0  0  0  0  0  0  0
    0.8724   -1.3066   -0.0827 N   0  0  0  0  0  2  0  0  0  0  0  0
    2.1466   -0.7116   -0.0583 C   0  0  0  0  0  0  0  0  0  0  0  0
    3.3710   -1.4031   -0.1239 C   0  0  0  0  0  0  0  0  0  0  0  0
    3.3472   -2.4952   -0.2298 H   0  0  0  0  0  0  0  0  0  0  0  0
    4.5925   -0.7083   -0.0652 C   0  0  0  0  0  0  0  0  0  0  0  0
    5.8924   -1.4681   -0.1397 C   0  0  0  0  0  0  0  0  0  0  0  0
    6.5160   -1.3059    0.7659 H   0  0  0  0  0  0  0  0  0  0  0  0
    6.5111   -1.1411   -1.0031 H   0  0  0  0  0  0  0  0  0  0  0  0
    5.7176   -2.5561   -0.2408 H   0  0  0  0  0  0  0  0  0  0  0  0
  1  4  1  0  0  0  0
  1  3  1  0  0  0  0
  2  1  1  0  0  0  0
  5 13  1  0  0  0  0
  6  1  1  6  0  0  0
  6  7  1  0  0  0  0
  6  5  1  0  0  0  0
  7  9  2  0  0  0  0
  8  7  1  0  0  0  0
  9 10  1  0  0  0  0
  9 11  1  0  0  0  0
 11 12  1  0  0  0  0
 13 11  2  0  0  0  0
 13 14  1  0  0  0  0
 14 15  2  0  0  0  0
 16 14  1  0  0  0  0
 17 16  1  0  0  0  0
 17 18  1  0  0  0  0
 18 19  1  0  0  0  0
 20 18  2  0  0  0  0
 20 21  1  0  0  0  0
 21 24  1  0  0  0  0
 21 23  1  0  0  0  0
 22 21  1  0  0  0  0
 25 26  1  0  0  0  0
 27 25  1  0  0  0  0
 28 25  1  0  0  0  0
 29 30  1  0  0  0  0
 30 25  1  1  0  0  0
 31 30  1  0  0  0  0
 31 32  1  0  0  0  0
 33 31  2  0  0  0  0
 34 33  1  0  0  0  0
 35 37  2  0  0  0  0
 35 33  1  0  0  0  0
 36 35  1  0  0  0  0
 37 29  1  0  0  0  0
 38 37  1  0  0  0  0
 38 40  1  0  0  0  0
 39 38  2  0  0  0  0
 40 41  1  0  0  0  0
 41 17  2  0  0  0  0
 42 44  2  0  0  0  0
 42 41  1  0  0  0  0
 43 42  1  0  0  0  0
 44 20  1  0  0  0  0
 45 44  1  0  0  0  0
 45 46  1  0  0  0  0
 47 45  1  0  0  0  0
 48 45  1  0  0  0  0
M  END
