1,2,3,4
 OpenBabel05122313063D

 43 42  0  0  0  0  0  0  0  0999 V2000
    2.5208   -0.0610   -0.0166 N   0  0  0  0  0  0  0  0  0  0  0  0
    0.7528    1.9480   -0.7130 N   0  0  0  0  0  2  0  0  0  0  0  0
    0.5110   -0.3278    1.8679 N   0  0  0  0  0  2  0  0  0  0  0  0
    0.5488   -1.4179   -1.3956 N   0  0  0  0  0  2  0  0  0  0  0  0
    3.0100    1.0201   -0.8941 C   0  0  0  0  0  0  0  0  0  0  0  0
    2.8950    0.6708   -1.9395 H   0  0  0  0  0  0  0  0  0  0  0  0
    4.0949    1.2210   -0.7210 H   0  0  0  0  0  0  0  0  0  0  0  0
    2.1679    2.2801   -0.7022 C   0  0  0  0  0  0  0  0  0  0  0  0
    2.4784    2.8067    0.2376 H   0  0  0  0  0  0  0  0  0  0  0  0
    2.4162    2.9917   -1.5279 H   0  0  0  0  0  0  0  0  0  0  0  0
   -0.1159    3.1010   -0.9297 C   0  0  0  0  0  0  0  0  0  0  0  0
   -1.1077    2.7311   -1.2580 H   0  0  0  0  0  0  0  0  0  0  0  0
    0.2869    3.7182   -1.7720 H   0  0  0  0  0  0  0  0  0  0  0  0
   -0.2981    3.9935    0.3049 C   0  0  0  0  0  0  0  0  0  0  0  0
   -0.9637    4.8532    0.0817 H   0  0  0  0  0  0  0  0  0  0  0  0
    0.6677    4.4044    0.6646 H   0  0  0  0  0  0  0  0  0  0  0  0
   -0.7492    3.4107    1.1342 H   0  0  0  0  0  0  0  0  0  0  0  0
    2.8700    0.1327    1.4045 C   0  0  0  0  0  0  0  0  0  0  0  0
    2.8047    1.2188    1.6138 H   0  0  0  0  0  0  0  0  0  0  0  0
    3.9193   -0.1897    1.6098 H   0  0  0  0  0  0  0  0  0  0  0  0
    1.8725   -0.5999    2.2994 C   0  0  0  0  0  0  0  0  0  0  0  0
    2.1066   -1.6961    2.3130 H   0  0  0  0  0  0  0  0  0  0  0  0
    2.0329   -0.2565    3.3511 H   0  0  0  0  0  0  0  0  0  0  0  0
   -0.4945   -0.6731    2.8685 C   0  0  0  0  0  0  0  0  0  0  0  0
   -0.1729   -0.2887    3.8691 H   0  0  0  0  0  0  0  0  0  0  0  0
   -1.4330   -0.1416    2.6145 H   0  0  0  0  0  0  0  0  0  0  0  0
   -0.7841   -2.1759    2.9776 C   0  0  0  0  0  0  0  0  0  0  0  0
   -1.5590   -2.3789    3.7458 H   0  0  0  0  0  0  0  0  0  0  0  0
    0.1212   -2.7534    3.2567 H   0  0  0  0  0  0  0  0  0  0  0  0
   -1.1485   -2.5662    2.0049 H   0  0  0  0  0  0  0  0  0  0  0  0
    2.8389   -1.4126   -0.5162 C   0  0  0  0  0  0  0  0  0  0  0  0
    2.6497   -2.1206    0.3148 H   0  0  0  0  0  0  0  0  0  0  0  0
    3.9177   -1.4964   -0.7932 H   0  0  0  0  0  0  0  0  0  0  0  0
    1.9279   -1.7807   -1.6852 C   0  0  0  0  0  0  0  0  0  0  0  0
    2.2880   -1.2964   -2.6307 H   0  0  0  0  0  0  0  0  0  0  0  0
    2.0364   -2.8774   -1.8610 H   0  0  0  0  0  0  0  0  0  0  0  0
   -0.4220   -2.1856   -2.1728 C   0  0  0  0  0  0  0  0  0  0  0  0
   -1.3586   -1.5984   -2.2452 H   0  0  0  0  0  0  0  0  0  0  0  0
   -0.0542   -2.3132   -3.2210 H   0  0  0  0  0  0  0  0  0  0  0  0
   -0.7353   -3.5601   -1.5701 C   0  0  0  0  0  0  0  0  0  0  0  0
   -1.4513   -4.1248   -2.2031 H   0  0  0  0  0  0  0  0  0  0  0  0
    0.1790   -4.1805   -1.4641 H   0  0  0  0  0  0  0  0  0  0  0  0
   -1.1800   -3.4413   -0.5608 H   0  0  0  0  0  0  0  0  0  0  0  0
  1 18  1  0  0  0  0
  2  8  1  0  0  0  0
  3 21  1  0  0  0  0
  3 24  1  0  0  0  0
  5  7  1  0  0  0  0
  5  8  1  0  0  0  0
  5  1  1  0  0  0  0
  6  5  1  0  0  0  0
  8  9  1  0  0  0  0
 10  8  1  0  0  0  0
 11  2  1  0  0  0  0
 11 14  1  0  0  0  0
 12 11  1  0  0  0  0
 13 11  1  0  0  0  0
 14 16  1  0  0  0  0
 14 17  1  0  0  0  0
 15 14  1  0  0  0  0
 18 20  1  0  0  0  0
 18 19  1  0  0  0  0
 18 21  1  0  0  0  0
 21 22  1  0  0  0  0
 21 23  1  0  0  0  0
 24 27  1  0  0  0  0
 24 25  1  0  0  0  0
 26 24  1  0  0  0  0
 27 29  1  0  0  0  0
 27 28  1  0  0  0  0
 30 27  1  0  0  0  0
 31  1  1  0  0  0  0
 31 32  1  0  0  0  0
 33 31  1  0  0  0  0
 34  4  1  0  0  0  0
 34 31  1  0  0  0  0
 35 34  1  0  0  0  0
 36 34  1  0  0  0  0
 37 40  1  0  0  0  0
 37  4  1  0  0  0  0
 38 37  1  0  0  0  0
 39 37  1  0  0  0  0
 40 42  1  0  0  0  0
 40 43  1  0  0  0  0
 41 40  1  0  0  0  0
M  END
