1,2,3,4
 OpenBabel05122313063D

 32 34  0  0  0  0  0  0  0  0999 V2000
    1.9203    0.9047    0.9071 N   0  0  0  0  0  2  0  0  0  0  0  0
    1.9202   -0.9049   -0.9071 N   0  0  0  0  0  2  0  0  0  0  0  0
   -0.5947    1.4710    1.4743 N   0  0  0  0  0  0  0  0  0  0  0  0
   -0.5948   -1.4709   -1.4743 N   0  0  0  0  0  0  0  0  0  0  0  0
    3.1900    0.5028    0.5041 C   0  0  0  0  0  0  0  0  0  0  0  0
    3.1899   -0.5029   -0.5042 C   0  0  0  0  0  0  0  0  0  0  0  0
    4.4195   -0.9940   -0.9968 C   0  0  0  0  0  0  0  0  0  0  0  0
    4.4352   -1.7698   -1.7748 H   0  0  0  0  0  0  0  0  0  0  0  0
    5.6288   -0.4972   -0.4987 C   0  0  0  0  0  0  0  0  0  0  0  0
    6.5800   -0.8873   -0.8899 H   0  0  0  0  0  0  0  0  0  0  0  0
    5.6288    0.4970    0.4983 C   0  0  0  0  0  0  0  0  0  0  0  0
    6.5801    0.8872    0.8894 H   0  0  0  0  0  0  0  0  0  0  0  0
    4.4196    0.9939    0.9966 C   0  0  0  0  0  0  0  0  0  0  0  0
    4.4354    1.7697    1.7745 H   0  0  0  0  0  0  0  0  0  0  0  0
    1.7312    1.8255    1.8302 C   0  0  0  0  0  3  0  0  0  0  0  0
    2.5729    2.3310    2.3370 H   0  0  0  0  0  0  0  0  0  0  0  0
    0.4094    2.1539    2.1591 C   0  0  0  0  0  3  0  0  0  0  0  0
   -0.1504    3.0729    3.0805 C   0  0  0  0  0  0  0  0  0  0  0  0
    0.4074    3.7396    3.7489 H   0  0  0  0  0  0  0  0  0  0  0  0
   -1.5438    2.9425    2.9496 C   0  0  0  0  0  0  0  0  0  0  0  0
   -2.3209    3.4887    3.4972 H   0  0  0  0  0  0  0  0  0  0  0  0
   -1.7681    1.9566    1.9611 C   0  0  0  0  0  0  0  0  0  0  0  0
   -2.7376    1.5986    1.6019 H   0  0  0  0  0  0  0  0  0  0  0  0
    1.7311   -1.8259   -1.8300 C   0  0  0  0  0  3  0  0  0  0  0  0
    2.5727   -2.3315   -2.3367 H   0  0  0  0  0  0  0  0  0  0  0  0
    0.4092   -2.1541   -2.1589 C   0  0  0  0  0  0  0  0  0  0  0  0
   -0.1507   -3.0732   -3.0801 C   0  0  0  0  0  0  0  0  0  0  0  0
    0.4070   -3.7401   -3.7484 H   0  0  0  0  0  0  0  0  0  0  0  0
   -1.5441   -2.9426   -2.9493 C   0  0  0  0  0  0  0  0  0  0  0  0
   -2.3213   -3.4889   -3.4968 H   0  0  0  0  0  0  0  0  0  0  0  0
   -1.7683   -1.9565   -1.9610 C   0  0  0  0  0  3  0  0  0  0  0  0
   -2.7378   -1.5982   -1.6021 H   0  0  0  0  0  0  0  0  0  0  0  0
  1 15  1  0  0  0  0
  2  6  1  0  0  0  0
  3 22  2  0  0  0  0
  3 17  1  0  0  0  0
  5  1  1  0  0  0  0
  5 13  1  0  0  0  0
  6  5  2  0  0  0  0
  7  6  1  0  0  0  0
  7  9  2  0  0  0  0
  8  7  1  0  0  0  0
  9 11  1  0  0  0  0
 10  9  1  0  0  0  0
 11 12  1  0  0  0  0
 11 13  2  0  0  0  0
 13 14  1  0  0  0  0
 15 17  1  0  0  0  0
 15 16  1  0  0  0  0
 17 18  1  0  0  0  0
 18 19  1  0  0  0  0
 20 18  2  0  0  0  0
 20 21  1  0  0  0  0
 22 20  1  0  0  0  0
 23 22  1  0  0  0  0
 24  2  1  0  0  0  0
 25 24  1  0  0  0  0
 26 24  1  0  0  0  0
 26  4  2  0  0  0  0
 27 29  2  0  0  0  0
 27 26  1  0  0  0  0
 28 27  1  0  0  0  0
 29 31  1  0  0  0  0
 30 29  1  0  0  0  0
 31 32  1  0  0  0  0
 31  4  1  0  0  0  0
M  END
