1,5,10,13
 OpenBabel05122313063D

 59 63  0  0  0  0  0  0  0  0999 V2000
    1.3533    0.8985   -0.3191 N   0  0  0  0  0  2  0  0  0  0  0  0
    4.9534    0.1665    1.4710 F   0  0  0  0  0  0  0  0  0  0  0  0
    5.5434    2.6877   -0.7449 O   0  0  0  0  0  0  0  0  0  0  0  0
    1.3842    2.2193   -0.7444 C   0  0  0  0  0  0  0  0  0  0  0  0
    0.8512   -1.7614   -0.1452 N   0  0  0  0  0  0  0  0  0  0  0  0
    4.1021   -1.6690    2.2539 F   0  0  0  0  0  0  0  0  0  0  0  0
    5.4676    0.5363   -1.1578 O   0  0  0  0  0  0  0  0  0  0  0  0
    2.7315    2.6644   -0.9207 C   0  0  0  0  0  0  0  0  0  0  0  0
    3.0596    3.6360   -1.3034 H   0  0  0  0  0  0  0  0  0  0  0  0
   -1.8556   -1.2849   -0.1217 N   0  0  0  0  0  0  0  0  0  0  0  0
    5.2486   -1.7272    0.4108 F   0  0  0  0  0  0  0  0  0  0  0  0
    3.5316    1.6130   -0.5400 C   0  0  0  0  0  0  0  0  0  0  0  0
   -1.3665    1.4114   -0.0980 N   0  0  0  0  0  0  0  0  0  0  0  0
    2.6717    0.5143   -0.1326 C   0  0  0  0  0  0  0  0  0  0  0  0
    4.9603    1.6044   -0.8121 N   0  0  0  0  0  0  0  0  0  0  0  0
    3.0445   -0.7476    0.3671 C   0  0  0  0  0  0  0  0  0  0  0  0
    4.3544   -0.9863    1.1020 C   0  0  0  0  0  0  0  0  0  0  0  0
    2.1769   -1.8407    0.2424 C   0  0  0  0  0  0  0  0  0  0  0  0
    2.6074   -3.2265    0.2865 C   0  0  0  0  0  0  0  0  0  0  0  0
    3.6122   -3.5633    0.5567 H   0  0  0  0  0  0  0  0  0  0  0  0
    1.5524   -3.9755   -0.1624 C   0  0  0  0  0  0  0  0  0  0  0  0
    1.5000   -5.0610   -0.3067 H   0  0  0  0  0  0  0  0  0  0  0  0
    0.4529   -3.0640   -0.3795 C   0  0  0  0  0  0  0  0  0  0  0  0
   -0.8565   -3.4683   -0.6237 C   0  0  0  0  0  0  0  0  0  0  0  0
   -1.0384   -4.5320   -0.8269 H   0  0  0  0  0  0  0  0  0  0  0  0
   -1.9481   -2.6271   -0.4393 C   0  0  0  0  0  0  0  0  0  0  0  0
   -3.3272   -3.0883   -0.3682 C   0  0  0  0  0  0  0  0  0  0  0  0
   -3.7818   -4.4775   -0.6824 C   0  0  0  0  0  0  0  0  0  0  0  0
   -3.2809   -5.2310   -0.0383 H   0  0  0  0  0  0  0  0  0  0  0  0
   -3.5578   -4.7537   -1.7341 H   0  0  0  0  0  0  0  0  0  0  0  0
   -4.8731   -4.5868   -0.5349 H   0  0  0  0  0  0  0  0  0  0  0  0
   -4.0714   -2.0134    0.0744 C   0  0  0  0  0  0  0  0  0  0  0  0
   -5.5523   -1.9318    0.3023 C   0  0  0  0  0  0  0  0  0  0  0  0
   -5.7605   -1.2852    1.1815 H   0  0  0  0  0  0  0  0  0  0  0  0
   -5.9319   -2.9378    0.5779 H   0  0  0  0  0  0  0  0  0  0  0  0
   -6.3295   -1.4097   -0.9184 C   0  0  0  0  0  0  0  0  0  0  0  0
   -5.9892   -0.3944   -1.2063 H   0  0  0  0  0  0  0  0  0  0  0  0
   -7.4176   -1.3616   -0.7108 H   0  0  0  0  0  0  0  0  0  0  0  0
   -6.1756   -2.0684   -1.7966 H   0  0  0  0  0  0  0  0  0  0  0  0
   -3.1437   -0.8965    0.1922 C   0  0  0  0  0  3  0  0  0  0  0  0
   -3.5261    0.4077    0.4828 C   0  0  0  0  0  0  0  0  0  0  0  0
   -4.5726    0.5949    0.7558 H   0  0  0  0  0  0  0  0  0  0  0  0
   -2.6873    1.5026    0.2887 C   0  0  0  0  0  0  0  0  0  0  0  0
   -3.1474    2.8855    0.2686 C   0  0  0  0  0  0  0  0  0  0  0  0
   -4.5060    3.3462    0.7064 C   0  0  0  0  0  0  0  0  0  0  0  0
   -5.2848    2.6812    0.2735 H   0  0  0  0  0  0  0  0  0  0  0  0
   -4.7034    4.3512    0.2793 H   0  0  0  0  0  0  0  0  0  0  0  0
   -4.6676    3.3971    2.2351 C   0  0  0  0  0  0  0  0  0  0  0  0
   -4.5017    2.3999    2.6907 H   0  0  0  0  0  0  0  0  0  0  0  0
   -5.6833    3.7388    2.5195 H   0  0  0  0  0  0  0  0  0  0  0  0
   -3.9316    4.0914    2.6877 H   0  0  0  0  0  0  0  0  0  0  0  0
   -2.0916    3.6359   -0.2091 C   0  0  0  0  0  0  0  0  0  0  0  0
   -2.0175    5.1093   -0.4517 C   0  0  0  0  0  0  0  0  0  0  0  0
   -1.6921    5.3395   -1.4877 H   0  0  0  0  0  0  0  0  0  0  0  0
   -1.2932    5.6019    0.2310 H   0  0  0  0  0  0  0  0  0  0  0  0
   -3.0005    5.5931   -0.2953 H   0  0  0  0  0  0  0  0  0  0  0  0
   -0.9926    2.7051   -0.4166 C   0  0  0  0  0  0  0  0  0  0  0  0
    0.2830    3.0736   -0.8150 C   0  0  0  0  0  0  0  0  0  0  0  0
    0.4681    4.1189   -1.0958 H   0  0  0  0  0  0  0  0  0  0  0  0
  1 14  1  0  0  0  0
  4  1  1  0  0  0  0
  5 18  2  0  0  0  0
  7 15  2  0  0  0  0
  8  4  1  0  0  0  0
  8 12  2  0  0  0  0
  9  8  1  0  0  0  0
 10 40  1  0  0  0  0
 11 17  1  0  0  0  0
 12 14  1  0  0  0  0
 13 43  1  0  0  0  0
 14 16  2  0  0  0  0
 15  3  2  0  0  0  0
 15 12  1  0  0  0  0
 16 17  1  0  0  0  0
 17  2  1  0  0  0  0
 17  6  1  0  0  0  0
 18 19  1  0  0  0  0
 18 16  1  0  0  0  0
 19 20  1  0  0  0  0
 21 19  2  0  0  0  0
 22 21  1  0  0  0  0
 23 21  1  0  0  0  0
 23  5  1  0  0  0  0
 24 26  1  0  0  0  0
 24 23  2  0  0  0  0
 25 24  1  0  0  0  0
 26 27  1  0  0  0  0
 26 10  2  0  0  0  0
 27 32  2  0  0  0  0
 28 31  1  0  0  0  0
 28 27  1  0  0  0  0
 28 29  1  0  0  0  0
 30 28  1  0  0  0  0
 32 40  1  0  0  0  0
 32 33  1  0  0  0  0
 33 35  1  0  0  0  0
 33 34  1  0  0  0  0
 36 38  1  0  0  0  0
 36 33  1  0  0  0  0
 37 36  1  0  0  0  0
 39 36  1  0  0  0  0
 40 41  1  0  0  0  0
 41 42  1  0  0  0  0
 43 41  2  0  0  0  0
 44 43  1  0  0  0  0
 44 45  1  0  0  0  0
 45 48  1  0  0  0  0
 46 45  1  0  0  0  0
 47 45  1  0  0  0  0
 48 50  1  0  0  0  0
 48 51  1  0  0  0  0
 48 49  1  0  0  0  0
 52 44  2  0  0  0  0
 53 56  1  0  0  0  0
 53 52  1  0  0  0  0
 53 55  1  0  0  0  0
 54 53  1  0  0  0  0
 57 52  1  0  0  0  0
 57 13  2  0  0  0  0
 58  4  2  0  0  0  0
 58 57  1  0  0  0  0
 59 58  1  0  0  0  0
M  END
