2,4,29,37
 OpenBabel05122313063D

 56 58  0  0  1  0  0  0  0  0999 V2000
    3.9378   -1.9069   -0.5846 S   0  0  0  0  0  0  0  0  0  0  0  0
    0.1451   -1.8299    0.1903 N   0  0  0  0  0  2  0  0  0  0  0  0
    1.4092   -2.3532    0.0695 N   0  0  0  0  0  0  0  0  0  0  0  0
    1.8694   -0.0765   -0.1183 N   0  0  0  0  0  2  0  0  0  0  0  0
    2.2911   -1.4084   -0.1390 C   0  0  0  0  0  0  0  0  0  0  0  0
   -0.8364   -2.7056    0.4321 C   0  0  2  0  0  3  0  0  0  0  0  0
   -0.4920   -4.1586    0.6195 C   0  0  0  0  0  0  0  0  0  0  0  0
   -1.3986   -4.7552    0.8273 H   0  0  0  0  0  0  0  0  0  0  0  0
    0.0136   -4.5559   -0.2839 H   0  0  0  0  0  0  0  0  0  0  0  0
    0.2321   -4.2827    1.4492 H   0  0  0  0  0  0  0  0  0  0  0  0
   -2.1967   -2.3000    0.4345 C   0  0  0  0  0  0  0  0  0  0  0  0
   -2.9440   -3.1013    0.4983 H   0  0  0  0  0  0  0  0  0  0  0  0
    2.6879    1.0111   -0.2119 C   0  0  2  0  0  3  0  0  0  0  0  0
    4.1524    0.9075    0.0564 C   0  0  0  0  0  0  0  0  0  0  0  0
    4.6042    0.4335    1.3086 C   0  0  0  0  0  0  0  0  0  0  0  0
    3.8674    0.0973    2.0534 H   0  0  0  0  0  0  0  0  0  0  0  0
    5.9732    0.4022    1.6016 C   0  0  0  0  0  0  0  0  0  0  0  0
    6.3126    0.0373    2.5828 H   0  0  0  0  0  0  0  0  0  0  0  0
    6.9092    0.8321    0.6471 C   0  0  0  0  0  0  0  0  0  0  0  0
    7.9854    0.7985    0.8754 H   0  0  0  0  0  0  0  0  0  0  0  0
    6.4683    1.3095   -0.5980 C   0  0  0  0  0  0  0  0  0  0  0  0
    7.1983    1.6464   -1.3497 H   0  0  0  0  0  0  0  0  0  0  0  0
    5.0983    1.3554   -0.8895 C   0  0  0  0  0  0  0  0  0  0  0  0
    4.7471    1.7181   -1.8671 H   0  0  0  0  0  0  0  0  0  0  0  0
    3.6481   -3.6809   -0.8706 C   0  0  0  0  0  0  0  0  0  0  0  0
    4.6257   -4.0816   -1.2021 H   0  0  0  0  0  0  0  0  0  0  0  0
    3.3247   -4.1788    0.0615 H   0  0  0  0  0  0  0  0  0  0  0  0
    2.8808   -3.8358   -1.6519 H   0  0  0  0  0  0  0  0  0  0  0  0
   -0.1451    1.8299   -0.1903 N   0  0  0  0  0  2  0  0  0  0  0  0
   -1.4092    2.3532   -0.0695 N   0  0  0  0  0  0  0  0  0  0  0  0
   -2.2911    1.4084    0.1390 C   0  0  0  0  0  0  0  0  0  0  0  0
   -3.9378    1.9069    0.5846 S   0  0  0  0  0  0  0  0  0  0  0  0
   -3.6481    3.6809    0.8706 C   0  0  0  0  0  0  0  0  0  0  0  0
   -4.6257    4.0817    1.2020 H   0  0  0  0  0  0  0  0  0  0  0  0
   -3.3247    4.1788   -0.0616 H   0  0  0  0  0  0  0  0  0  0  0  0
   -2.8808    3.8358    1.6519 H   0  0  0  0  0  0  0  0  0  0  0  0
   -1.8694    0.0765    0.1183 N   0  0  0  0  0  2  0  0  0  0  0  0
   -2.6879   -1.0111    0.2119 C   0  0  0  0  0  0  0  0  0  0  0  0
   -4.1524   -0.9075   -0.0564 C   0  0  0  0  0  0  0  0  0  0  0  0
   -4.6042   -0.4336   -1.3086 C   0  0  0  0  0  0  0  0  0  0  0  0
   -3.8674   -0.0973   -2.0534 H   0  0  0  0  0  0  0  0  0  0  0  0
   -5.9732   -0.4022   -1.6016 C   0  0  0  0  0  0  0  0  0  0  0  0
   -6.3126   -0.0373   -2.5828 H   0  0  0  0  0  0  0  0  0  0  0  0
   -6.9092   -0.8321   -0.6470 C   0  0  0  0  0  0  0  0  0  0  0  0
   -7.9854   -0.7986   -0.8754 H   0  0  0  0  0  0  0  0  0  0  0  0
   -6.4683   -1.3095    0.5980 C   0  0  0  0  0  0  0  0  0  0  0  0
   -7.1983   -1.6464    1.3497 H   0  0  0  0  0  0  0  0  0  0  0  0
   -5.0983   -1.3554    0.8896 C   0  0  0  0  0  0  0  0  0  0  0  0
   -4.7471   -1.7181    1.8671 H   0  0  0  0  0  0  0  0  0  0  0  0
    0.8364    2.7056   -0.4321 C   0  0  0  0  0  0  0  0  0  0  0  0
    0.4920    4.1586   -0.6195 C   0  0  0  0  0  0  0  0  0  0  0  0
    1.3986    4.7552   -0.8273 H   0  0  0  0  0  0  0  0  0  0  0  0
   -0.0136    4.5559    0.2838 H   0  0  0  0  0  0  0  0  0  0  0  0
   -0.2321    4.2827   -1.4492 H   0  0  0  0  0  0  0  0  0  0  0  0
    2.1967    2.3000   -0.4345 C   0  0  0  0  0  0  0  0  0  0  0  0
    2.9440    3.1013   -0.4983 H   0  0  0  0  0  0  0  0  0  0  0  0
  1  5  1  0  0  0  0
  2  6  1  0  0  0  0
  3  2  1  0  0  0  0
  5  4  1  0  0  0  0
  5  3  2  0  0  0  0
  6 11  1  0  0  0  0
  6  7  1  6  0  0  0
  7  8  1  0  0  0  0
  7 10  1  0  0  0  0
  9  7  1  0  0  0  0
 11 12  1  0  0  0  0
 13  4  1  0  0  0  0
 13 14  1  1  0  0  0
 14 15  1  0  0  0  0
 15 17  2  0  0  0  0
 15 16  1  0  0  0  0
 17 18  1  0  0  0  0
 19 20  1  0  0  0  0
 19 17  1  0  0  0  0
 21 19  2  0  0  0  0
 22 21  1  0  0  0  0
 23 21  1  0  0  0  0
 23 14  2  0  0  0  0
 24 23  1  0  0  0  0
 25  1  1  0  0  0  0
 25 27  1  0  0  0  0
 26 25  1  0  0  0  0
 28 25  1  0  0  0  0
 29 30  1  0  0  0  0
 30 31  2  0  0  0  0
 31 32  1  0  0  0  0
 32 33  1  0  0  0  0
 33 34  1  0  0  0  0
 33 36  1  0  0  0  0
 35 33  1  0  0  0  0
 37 31  1  0  0  0  0
 37 38  1  0  0  0  0
 38 11  2  0  0  0  0
 39 38  1  0  0  0  0
 39 48  1  0  0  0  0
 40 39  2  0  0  0  0
 41 40  1  0  0  0  0
 42 40  1  0  0  0  0
 42 44  2  0  0  0  0
 43 42  1  0  0  0  0
 44 46  1  0  0  0  0
 45 44  1  0  0  0  0
 46 48  2  0  0  0  0
 46 47  1  0  0  0  0
 48 49  1  0  0  0  0
 50 29  1  0  0  0  0
 51 50  1  0  0  0  0
 51 53  1  0  0  0  0
 52 51  1  0  0  0  0
 54 51  1  0  0  0  0
 55 50  2  0  0  0  0
 55 13  1  0  0  0  0
 56 55  1  0  0  0  0
M  END
