1,2,23,24
 OpenBabel05122313063D

 41 42  0  0  1  0  0  0  0  0999 V2000
   -0.8281    1.3507   -0.9278 N   0  0  0  0  0  2  0  0  0  0  0  0
    1.8693    0.9707   -0.8042 N   0  0  0  0  0  2  0  0  0  0  0  0
   -2.1465    1.5662   -0.8525 C   0  0  0  0  0  3  0  0  0  0  0  0
   -2.7700    0.7175   -0.5300 H   0  0  0  0  0  0  0  0  0  0  0  0
   -2.7364    2.8118   -1.1243 C   0  0  0  0  0  0  0  0  0  0  0  0
   -3.8223    2.9381   -1.0183 H   0  0  0  0  0  0  0  0  0  0  0  0
   -1.8998    3.8711   -1.4934 C   0  0  0  0  0  0  0  0  0  0  0  0
   -2.3134    4.8697   -1.6990 H   0  0  0  0  0  0  0  0  0  0  0  0
   -0.5180    3.6466   -1.5858 C   0  0  0  0  0  0  0  0  0  0  0  0
    0.1561    4.4680   -1.8639 H   0  0  0  0  0  0  0  0  0  0  0  0
   -0.0106    2.3656   -1.2910 C   0  0  0  0  0  0  0  0  0  0  0  0
    1.4500    2.0451   -1.3912 C   0  0  2  0  0  3  0  0  0  0  0  0
    2.3104    3.0051   -2.1754 C   0  0  0  0  0  0  0  0  0  0  0  0
    2.4773    3.9265   -1.5782 H   0  0  0  0  0  0  0  0  0  0  0  0
    1.8187    3.3114   -3.1189 H   0  0  0  0  0  0  0  0  0  0  0  0
    3.3049    2.5874   -2.4097 H   0  0  0  0  0  0  0  0  0  0  0  0
    3.2067    0.4360   -0.9409 C   0  0  0  0  0  0  0  0  0  0  0  0
    3.7463    0.8909   -1.8011 H   0  0  0  0  0  0  0  0  0  0  0  0
    3.7971    0.6756   -0.0234 H   0  0  0  0  0  0  0  0  0  0  0  0
    3.1966   -1.1009   -1.0903 C   0  0  0  0  0  0  0  0  0  0  0  0
    4.1677   -1.3951   -1.5368 H   0  0  0  0  0  0  0  0  0  0  0  0
    3.1582   -1.5764   -0.0917 H   0  0  0  0  0  0  0  0  0  0  0  0
   -1.4491   -1.6981    0.3071 N   0  0  0  0  0  2  0  0  0  0  0  0
    0.8017   -1.7333   -1.2097 N   0  0  0  0  0  2  0  0  0  0  0  0
   -2.5083   -1.7308    1.1263 C   0  0  0  0  0  3  0  0  0  0  0  0
   -2.4212   -1.1559    2.0611 H   0  0  0  0  0  0  0  0  0  0  0  0
   -3.6837   -2.4338    0.8112 C   0  0  0  0  0  0  0  0  0  0  0  0
   -4.5322   -2.4183    1.5092 H   0  0  0  0  0  0  0  0  0  0  0  0
   -3.7338   -3.1262   -0.4022 C   0  0  0  0  0  0  0  0  0  0  0  0
   -4.6311   -3.6940   -0.6907 H   0  0  0  0  0  0  0  0  0  0  0  0
   -2.6208   -3.0888   -1.2567 C   0  0  0  0  0  0  0  0  0  0  0  0
   -2.6461   -3.6380   -2.2065 H   0  0  0  0  0  0  0  0  0  0  0  0
   -1.4796   -2.3558   -0.8760 C   0  0  0  0  0  0  0  0  0  0  0  0
   -0.2439   -2.2854   -1.7273 C   0  0  2  0  0  3  0  0  0  0  0  0
   -0.2463   -2.8691   -3.1177 C   0  0  0  0  0  0  0  0  0  0  0  0
    0.4053   -3.7680   -3.1604 H   0  0  0  0  0  0  0  0  0  0  0  0
   -1.2468   -3.1516   -3.4840 H   0  0  0  0  0  0  0  0  0  0  0  0
    0.1835   -2.1372   -3.8313 H   0  0  0  0  0  0  0  0  0  0  0  0
    2.0607   -1.6755   -1.9385 C   0  0  0  0  0  0  0  0  0  0  0  0
    1.9254   -1.0924   -2.8823 H   0  0  0  0  0  0  0  0  0  0  0  0
    2.3388   -2.7035   -2.2676 H   0  0  0  0  0  0  0  0  0  0  0  0
  1  3  1  0  0  0  0
  3  4  1  0  0  0  0
  5  6  1  0  0  0  0
  5  3  1  0  0  0  0
  7  5  2  0  0  0  0
  8  7  1  0  0  0  0
  9  7  1  0  0  0  0
  9 11  2  0  0  0  0
 10  9  1  0  0  0  0
 11  1  1  0  0  0  0
 12 11  1  0  0  0  0
 12  2  1  6  0  0  0
 13 14  1  0  0  0  0
 13 12  1  0  0  0  0
 15 13  1  0  0  0  0
 16 13  1  0  0  0  0
 17  2  1  0  0  0  0
 17 19  1  0  0  0  0
 18 17  1  0  0  0  0
 20 17  1  0  0  0  0
 20 22  1  0  0  0  0
 21 20  1  0  0  0  0
 23 25  1  0  0  0  0
 25 26  1  0  0  0  0
 27 25  1  0  0  0  0
 27 28  1  0  0  0  0
 29 27  2  0  0  0  0
 30 29  1  0  0  0  0
 31 33  2  0  0  0  0
 31 29  1  0  0  0  0
 32 31  1  0  0  0  0
 33 23  1  0  0  0  0
 34 24  1  1  0  0  0
 34 33  1  0  0  0  0
 35 34  1  0  0  0  0
 36 35  1  0  0  0  0
 37 35  1  0  0  0  0
 38 35  1  0  0  0  0
 39 24  1  0  0  0  0
 39 20  1  0  0  0  0
 40 39  1  0  0  0  0
 41 39  1  0  0  0  0
M  END
