1,2,20,21
 OpenBabel05122313063D

 38 39  0  0  0  0  0  0  0  0999 V2000
    2.3028   -1.1222   -0.7573 N   0  0  0  0  0  2  0  0  0  0  0  0
    1.2472    1.3680   -0.6573 N   0  0  0  0  0  2  0  0  0  0  0  0
    3.1454   -0.0656   -0.7304 C   0  0  0  0  0  0  0  0  0  0  0  0
    4.5426   -0.2538   -0.7421 C   0  0  0  0  0  0  0  0  0  0  0  0
    5.2224    0.6064   -0.7021 H   0  0  0  0  0  0  0  0  0  0  0  0
    5.0600   -1.5537   -0.7927 C   0  0  0  0  0  0  0  0  0  0  0  0
    6.1480   -1.7167   -0.7979 H   0  0  0  0  0  0  0  0  0  0  0  0
    4.1730   -2.6374   -0.8306 C   0  0  0  0  0  0  0  0  0  0  0  0
    4.5326   -3.6754   -0.8737 H   0  0  0  0  0  0  0  0  0  0  0  0
    2.7973   -2.3651   -0.8045 C   0  0  0  0  0  0  0  0  0  0  0  0
    2.0588   -3.1840   -0.8188 H   0  0  0  0  0  0  0  0  0  0  0  0
    2.5333    1.3089   -0.7118 C   0  0  0  0  0  0  0  0  0  0  0  0
    3.4720    2.4848   -0.7824 C   0  0  0  0  0  0  0  0  0  0  0  0
    2.9359    3.4490   -0.7870 H   0  0  0  0  0  0  0  0  0  0  0  0
    4.1018    2.4341   -1.6934 H   0  0  0  0  0  0  0  0  0  0  0  0
    4.1408    2.4705    0.1008 H   0  0  0  0  0  0  0  0  0  0  0  0
    0.4561    2.5699   -0.6252 C   0  0  0  0  0  0  0  0  0  0  0  0
   -0.1996    2.5632   -1.5256 H   0  0  0  0  0  0  0  0  0  0  0  0
    1.0440    3.5139   -0.6290 H   0  0  0  0  0  0  0  0  0  0  0  0
   -2.3025   -1.1219    0.7581 N   0  0  0  0  0  2  0  0  0  0  0  0
   -1.2470    1.3682    0.6564 N   0  0  0  0  0  2  0  0  0  0  0  0
   -3.1451   -0.0653    0.7307 C   0  0  0  0  0  0  0  0  0  0  0  0
   -4.5423   -0.2536    0.7425 C   0  0  0  0  0  0  0  0  0  0  0  0
   -5.2221    0.6066    0.7022 H   0  0  0  0  0  0  0  0  0  0  0  0
   -5.0596   -1.5535    0.7937 C   0  0  0  0  0  0  0  0  0  0  0  0
   -6.1476   -1.7165    0.7989 H   0  0  0  0  0  0  0  0  0  0  0  0
   -4.1726   -2.6371    0.8320 C   0  0  0  0  0  0  0  0  0  0  0  0
   -4.5321   -3.6751    0.8755 H   0  0  0  0  0  0  0  0  0  0  0  0
   -2.7969   -2.3648    0.8059 C   0  0  0  0  0  0  0  0  0  0  0  0
   -2.0584   -3.1836    0.8206 H   0  0  0  0  0  0  0  0  0  0  0  0
   -2.5331    1.3092    0.7114 C   0  0  0  0  0  0  0  0  0  0  0  0
   -3.4717    2.4851    0.7823 C   0  0  0  0  0  0  0  0  0  0  0  0
   -2.9357    3.4493    0.7858 H   0  0  0  0  0  0  0  0  0  0  0  0
   -4.1006    2.4348    1.6939 H   0  0  0  0  0  0  0  0  0  0  0  0
   -4.1414    2.4704   -0.1003 H   0  0  0  0  0  0  0  0  0  0  0  0
   -0.4558    2.5702    0.6239 C   0  0  0  0  0  0  0  0  0  0  0  0
    0.1998    2.5637    1.5243 H   0  0  0  0  0  0  0  0  0  0  0  0
   -1.0438    3.5141    0.6273 H   0  0  0  0  0  0  0  0  0  0  0  0
  1  3  1  0  0  0  0
  2 17  1  0  0  0  0
  3 12  2  0  0  0  0
  4  3  1  0  0  0  0
  4  5  1  0  0  0  0
  6  4  2  0  0  0  0
  7  6  1  0  0  0  0
  8 10  2  0  0  0  0
  8  6  1  0  0  0  0
  9  8  1  0  0  0  0
 10  1  1  0  0  0  0
 11 10  1  0  0  0  0
 12  2  1  0  0  0  0
 13 12  1  0  0  0  0
 13 16  1  0  0  0  0
 14 13  1  0  0  0  0
 15 13  1  0  0  0  0
 17 36  1  0  0  0  0
 18 17  1  0  0  0  0
 19 17  1  0  0  0  0
 20 29  1  0  0  0  0
 21 31  1  0  0  0  0
 22 23  1  0  0  0  0
 22 20  1  0  0  0  0
 23 25  2  0  0  0  0
 24 23  1  0  0  0  0
 25 26  1  0  0  0  0
 25 27  1  0  0  0  0
 27 28  1  0  0  0  0
 29 30  1  0  0  0  0
 29 27  2  0  0  0  0
 31 22  2  0  0  0  0
 31 32  1  0  0  0  0
 32 33  1  0  0  0  0
 32 34  1  0  0  0  0
 35 32  1  0  0  0  0
 36 38  1  0  0  0  0
 36 21  1  0  0  0  0
 36 37  1  0  0  0  0
M  END
