1,2,3,4
 OpenBabel05122313063D

 31 33  0  0  0  0  0  0  0  0999 V2000
    0.5490    1.6041    0.1177 N   0  0  0  0  0  2  0  0  0  0  0  0
    1.4363   -0.9272    0.0162 N   0  0  0  0  0  0  0  0  0  0  0  0
   -0.8097   -1.8890    0.2036 N   0  0  0  0  0  2  0  0  0  0  0  0
   -2.0683    0.2858   -0.0935 N   0  0  0  0  0  0  0  0  0  0  0  0
   -0.0600    2.7645    0.4372 C   0  0  0  0  0  3  0  0  0  0  0  0
    0.8457    3.8621    0.3706 C   0  0  0  0  0  0  0  0  0  0  0  0
    2.0778    3.3298    0.0011 C   0  0  0  0  0  0  0  0  0  0  0  0
    1.8984    1.9120   -0.1306 C   0  0  0  0  0  0  0  0  0  0  0  0
    2.9087    0.9558   -0.3056 C   0  0  0  0  0  0  0  0  0  0  0  0
    2.7071   -0.4271   -0.2185 C   0  0  0  0  0  0  0  0  0  0  0  0
    3.6090   -1.5403   -0.3012 C   0  0  0  0  0  0  0  0  0  0  0  0
    2.8505   -2.7018   -0.1157 C   0  0  0  0  0  0  0  0  0  0  0  0
    1.5023   -2.2757    0.0727 C   0  0  0  0  0  3  0  0  0  0  0  0
    0.1847   -2.9552    0.2915 C   0  0  0  0  0  0  0  0  0  0  0  0
   -2.1179   -2.0469    0.2432 C   0  0  0  0  0  3  0  0  0  0  0  0
   -2.8618   -0.8521    0.0810 C   0  0  0  0  0  3  0  0  0  0  0  0
   -4.2268   -0.5213   -0.1097 C   0  0  0  0  0  0  0  0  0  0  0  0
   -4.2514    0.8479   -0.4273 C   0  0  0  0  0  0  0  0  0  0  0  0
   -2.9061    1.2984   -0.4182 C   0  0  0  0  0  0  0  0  0  0  0  0
   -1.1171    2.7818    0.7243 H   0  0  0  0  0  0  0  0  0  0  0  0
    0.6016    4.9090    0.5848 H   0  0  0  0  0  0  0  0  0  0  0  0
    3.0300    3.8571   -0.1327 H   0  0  0  0  0  0  0  0  0  0  0  0
    3.9314    1.3258   -0.4742 H   0  0  0  0  0  0  0  0  0  0  0  0
    4.6893   -1.4716   -0.4757 H   0  0  0  0  0  0  0  0  0  0  0  0
    3.2113   -3.7368   -0.1142 H   0  0  0  0  0  0  0  0  0  0  0  0
    0.1482   -3.4598    1.2868 H   0  0  0  0  0  0  0  0  0  0  0  0
    0.0007   -3.7452   -0.4730 H   0  0  0  0  0  0  0  0  0  0  0  0
   -2.5823   -3.0428    0.3619 H   0  0  0  0  0  0  0  0  0  0  0  0
   -5.0786   -1.2085   -0.0420 H   0  0  0  0  0  0  0  0  0  0  0  0
   -5.1311    1.4620   -0.6533 H   0  0  0  0  0  0  0  0  0  0  0  0
   -2.5326    2.3006   -0.6593 H   0  0  0  0  0  0  0  0  0  0  0  0
  1  5  1  0  0  0  0
  2 13  1  0  0  0  0
  3 15  1  0  0  0  0
  3 14  1  0  0  0  0
  4 16  1  0  0  0  0
  5 20  1  0  0  0  0
  6  5  1  0  0  0  0
  6 21  1  0  0  0  0
  7  6  2  0  0  0  0
  8  7  1  0  0  0  0
  8  1  1  0  0  0  0
  9 10  1  0  0  0  0
  9  8  2  0  0  0  0
 10  2  2  0  0  0  0
 11 10  1  0  0  0  0
 11 12  2  0  0  0  0
 12 25  1  0  0  0  0
 12 13  1  0  0  0  0
 13 14  1  0  0  0  0
 14 26  1  0  0  0  0
 15 28  1  0  0  0  0
 16 15  1  0  0  0  0
 17 29  1  0  0  0  0
 17 16  1  0  0  0  0
 18 19  1  0  0  0  0
 18 17  2  0  0  0  0
 19  4  2  0  0  0  0
 22  7  1  0  0  0  0
 23  9  1  0  0  0  0
 24 11  1  0  0  0  0
 27 14  1  0  0  0  0
 30 18  1  0  0  0  0
 31 19  1  0  0  0  0
M  END
