15,16,53,54
 OpenBabel05122313063D

 76 84  0  0  0  0  0  0  0  0999 V2000
    1.1085   -2.8847   -0.0075 C   0  0  0  0  0  0  0  0  0  0  0  0
    0.6874   -4.2737   -0.0125 C   0  0  0  0  0  0  0  0  0  0  0  0
    1.3566   -5.1397   -0.0347 H   0  0  0  0  0  0  0  0  0  0  0  0
   -0.6854   -4.2740    0.0118 C   0  0  0  0  0  0  0  0  0  0  0  0
   -1.3541   -5.1404    0.0339 H   0  0  0  0  0  0  0  0  0  0  0  0
   -1.1071   -2.8852    0.0070 C   0  0  0  0  0  0  0  0  0  0  0  0
   -2.4567   -2.4582    0.0181 C   0  0  0  0  0  0  0  0  0  0  0  0
   -2.8829   -1.1082    0.0274 C   0  0  0  0  0  0  0  0  0  0  0  0
   -4.2699   -0.6875   -0.0531 C   0  0  0  0  0  0  0  0  0  0  0  0
   -5.1323   -1.3576   -0.1279 H   0  0  0  0  0  0  0  0  0  0  0  0
   -4.2702    0.6854   -0.0531 C   0  0  0  0  0  0  0  0  0  0  0  0
   -5.1330    1.3551   -0.1278 H   0  0  0  0  0  0  0  0  0  0  0  0
   -2.8835    1.1069    0.0275 C   0  0  0  0  0  0  0  0  0  0  0  0
    2.4579   -2.4570   -0.0185 C   0  0  0  0  0  0  0  0  0  0  0  0
    0.0005   -2.0622   -0.0002 N   0  0  0  0  0  2  0  0  0  0  0  0
   -2.0613   -0.0005    0.0693 N   0  0  0  0  0  0  0  0  0  0  0  0
   -3.5156   -3.5117    0.0056 C   0  0  0  0  0  0  0  0  0  0  0  0
   -3.6758   -4.3660   -1.1060 C   0  0  0  0  0  0  0  0  0  0  0  0
   -3.0142   -4.2458   -1.9771 H   0  0  0  0  0  0  0  0  0  0  0  0
   -4.6706   -5.3542   -1.1258 C   0  0  0  0  0  0  0  0  0  0  0  0
   -4.7849   -6.0052   -2.0041 H   0  0  0  0  0  0  0  0  0  0  0  0
   -5.5204   -5.4951   -0.0169 C   0  0  0  0  0  0  0  0  0  0  0  0
   -5.3837   -4.6588    1.1028 C   0  0  0  0  0  0  0  0  0  0  0  0
   -6.0468   -4.7751    1.9717 H   0  0  0  0  0  0  0  0  0  0  0  0
   -4.3850   -3.6743    1.1051 C   0  0  0  0  0  0  0  0  0  0  0  0
   -4.2695   -3.0214    1.9833 H   0  0  0  0  0  0  0  0  0  0  0  0
   -7.0287   -6.9876   -0.0338 I   0  0  0  0  0  0  0  0  0  0  0  0
    3.5173   -3.5101   -0.0059 C   0  0  0  0  0  0  0  0  0  0  0  0
    4.3871   -3.6721   -1.1052 C   0  0  0  0  0  0  0  0  0  0  0  0
    4.2714   -3.0191   -1.9834 H   0  0  0  0  0  0  0  0  0  0  0  0
    5.3863   -4.6560   -1.1027 C   0  0  0  0  0  0  0  0  0  0  0  0
    6.0496   -4.7719   -1.9716 H   0  0  0  0  0  0  0  0  0  0  0  0
    5.5231   -5.4924    0.0168 C   0  0  0  0  0  0  0  0  0  0  0  0
    4.6730   -5.3521    1.1256 C   0  0  0  0  0  0  0  0  0  0  0  0
    4.7875   -6.0031    2.0038 H   0  0  0  0  0  0  0  0  0  0  0  0
    3.6777   -4.3644    1.1057 C   0  0  0  0  0  0  0  0  0  0  0  0
    3.0158   -4.2446    1.9766 H   0  0  0  0  0  0  0  0  0  0  0  0
    7.0324   -6.9840    0.0340 I   0  0  0  0  0  0  0  0  0  0  0  0
   -1.1085    2.8847    0.0076 C   0  0  0  0  0  0  0  0  0  0  0  0
   -0.6874    4.2737    0.0125 C   0  0  0  0  0  3  0  0  0  0  0  0
   -1.3566    5.1397    0.0348 H   0  0  0  0  0  0  0  0  0  0  0  0
    0.6854    4.2740   -0.0118 C   0  0  0  0  0  0  0  0  0  0  0  0
    1.3541    5.1404   -0.0340 H   0  0  0  0  0  0  0  0  0  0  0  0
    1.1071    2.8852   -0.0071 C   0  0  0  0  0  0  0  0  0  0  0  0
    2.4567    2.4582   -0.0182 C   0  0  0  0  0  0  0  0  0  0  0  0
    2.8829    1.1082   -0.0274 C   0  0  0  0  0  0  0  0  0  0  0  0
    4.2699    0.6875    0.0531 C   0  0  0  0  0  0  0  0  0  0  0  0
    5.1323    1.3576    0.1278 H   0  0  0  0  0  0  0  0  0  0  0  0
    4.2702   -0.6854    0.0531 C   0  0  0  0  0  0  0  0  0  0  0  0
    5.1330   -1.3551    0.1279 H   0  0  0  0  0  0  0  0  0  0  0  0
    2.8835   -1.1069   -0.0275 C   0  0  0  0  0  0  0  0  0  0  0  0
   -2.4579    2.4570    0.0185 C   0  0  0  0  0  0  0  0  0  0  0  0
   -0.0005    2.0622    0.0002 N   0  0  0  0  0  0  0  0  0  0  0  0
    2.0613    0.0005   -0.0693 N   0  0  0  0  0  0  0  0  0  0  0  0
    3.5156    3.5117   -0.0058 C   0  0  0  0  0  0  0  0  0  0  0  0
    3.6758    4.3661    1.1058 C   0  0  0  0  0  0  0  0  0  0  0  0
    3.0142    4.2459    1.9769 H   0  0  0  0  0  0  0  0  0  0  0  0
    4.6706    5.3543    1.1256 C   0  0  0  0  0  0  0  0  0  0  0  0
    4.7850    6.0053    2.0038 H   0  0  0  0  0  0  0  0  0  0  0  0
    5.5204    5.4951    0.0166 C   0  0  0  0  0  0  0  0  0  0  0  0
    5.3837    4.6588   -1.1030 C   0  0  0  0  0  0  0  0  0  0  0  0
    6.0467    4.7750   -1.9720 H   0  0  0  0  0  0  0  0  0  0  0  0
    4.3850    3.6743   -1.1052 C   0  0  0  0  0  0  0  0  0  0  0  0
    4.2695    3.0213   -1.9835 H   0  0  0  0  0  0  0  0  0  0  0  0
    7.0288    6.9876    0.0334 I   0  0  0  0  0  0  0  0  0  0  0  0
   -3.5173    3.5101    0.0061 C   0  0  0  0  0  0  0  0  0  0  0  0
   -4.3870    3.6720    1.1054 C   0  0  0  0  0  0  0  0  0  0  0  0
   -4.2713    3.0191    1.9836 H   0  0  0  0  0  0  0  0  0  0  0  0
   -5.3862    4.6560    1.1030 C   0  0  0  0  0  0  0  0  0  0  0  0
   -6.0495    4.7718    1.9719 H   0  0  0  0  0  0  0  0  0  0  0  0
   -5.5232    5.4924   -0.0165 C   0  0  0  0  0  0  0  0  0  0  0  0
   -4.6731    5.3521   -1.1253 C   0  0  0  0  0  0  0  0  0  0  0  0
   -4.7876    6.0032   -2.0035 H   0  0  0  0  0  0  0  0  0  0  0  0
   -3.6778    4.3644   -1.1055 C   0  0  0  0  0  0  0  0  0  0  0  0
   -3.0159    4.2447   -1.9764 H   0  0  0  0  0  0  0  0  0  0  0  0
   -7.0324    6.9840   -0.0336 I   0  0  0  0  0  0  0  0  0  0  0  0
  1 15  1  0  0  0  0
  2  1  1  0  0  0  0
  2  4  2  0  0  0  0
  3  2  1  0  0  0  0
  4  5  1  0  0  0  0
  6  4  1  0  0  0  0
  6  7  2  0  0  0  0
  7  8  1  0  0  0  0
  8 16  2  0  0  0  0
  9 11  2  0  0  0  0
  9  8  1  0  0  0  0
 10  9  1  0  0  0  0
 11 13  1  0  0  0  0
 12 11  1  0  0  0  0
 13 16  1  0  0  0  0
 14  1  2  0  0  0  0
 14 28  1  0  0  0  0
 15  6  1  0  0  0  0
 17  7  1  0  0  0  0
 17 25  1  0  0  0  0
 18 17  2  0  0  0  0
 19 18  1  0  0  0  0
 20 18  1  0  0  0  0
 20 22  2  0  0  0  0
 21 20  1  0  0  0  0
 22 23  1  0  0  0  0
 23 25  2  0  0  0  0
 23 24  1  0  0  0  0
 25 26  1  0  0  0  0
 27 22  1  0  0  0  0
 28 36  1  0  0  0  0
 29 31  1  0  0  0  0
 29 28  2  0  0  0  0
 30 29  1  0  0  0  0
 31 33  2  0  0  0  0
 32 31  1  0  0  0  0
 33 38  1  0  0  0  0
 33 34  1  0  0  0  0
 34 35  1  0  0  0  0
 36 34  2  0  0  0  0
 36 37  1  0  0  0  0
 39 40  1  0  0  0  0
 39 52  1  0  0  0  0
 40 41  1  0  0  0  0
 42 44  2  0  0  0  0
 42 40  1  0  0  0  0
 43 42  1  0  0  0  0
 44 53  1  0  0  0  0
 45 44  1  0  0  0  0
 45 55  1  0  0  0  0
 46 45  2  0  0  0  0
 46 47  1  0  0  0  0
 47 49  2  0  0  0  0
 47 48  1  0  0  0  0
 49 50  1  0  0  0  0
 51 14  1  0  0  0  0
 51 49  1  0  0  0  0
 52 13  2  0  0  0  0
 53 39  2  0  0  0  0
 54 51  2  0  0  0  0
 54 46  1  0  0  0  0
 55 56  1  0  0  0  0
 56 58  2  0  0  0  0
 56 57  1  0  0  0  0
 58 59  1  0  0  0  0
 60 65  1  0  0  0  0
 60 58  1  0  0  0  0
 61 60  2  0  0  0  0
 62 61  1  0  0  0  0
 63 61  1  0  0  0  0
 63 55  2  0  0  0  0
 64 63  1  0  0  0  0
 66 52  1  0  0  0  0
 66 67  1  0  0  0  0
 67 68  1  0  0  0  0
 69 67  2  0  0  0  0
 69 70  1  0  0  0  0
 71 69  1  0  0  0  0
 72 74  1  0  0  0  0
 72 71  2  0  0  0  0
 73 72  1  0  0  0  0
 74 66  2  0  0  0  0
 75 74  1  0  0  0  0
 76 71  1  0  0  0  0
M  END
