1,2,3,4
 OpenBabel05122313063D

 70 74  0  0  1  0  0  0  0  0999 V2000
   -1.7794    1.2394   -0.0590 N   0  0  0  0  0  2  0  0  0  0  0  0
    0.9359    1.4022    0.2982 N   0  0  0  0  0  2  0  0  0  0  0  0
    0.9354   -1.4025   -0.2982 N   0  0  0  0  0  0  0  0  0  0  0  0
   -1.7799   -1.2388    0.0590 N   0  0  0  0  0  2  0  0  0  0  0  0
   -3.0399    0.7137    0.0642 C   0  0  0  0  0  0  0  0  0  0  0  0
   -3.9619    1.7912    0.3460 C   0  0  2  0  0  3  0  0  0  0  0  0
   -3.1928    2.9610    0.4446 C   0  0  0  0  0  0  0  0  0  0  0  0
   -1.8082    2.5828    0.2397 C   0  0  0  0  0  0  0  0  0  0  0  0
   -0.6296    3.3224    0.3843 C   0  0  0  0  0  0  0  0  0  0  0  0
    0.6639    2.7573    0.3245 C   0  0  0  0  0  0  0  0  0  0  0  0
    1.9178    3.4880    0.2723 C   0  0  0  0  0  0  0  0  0  0  0  0
    2.9376    2.5450    0.1718 C   0  0  0  0  0  0  0  0  0  0  0  0
    2.3018    1.2412    0.1573 C   0  0  0  0  0  0  0  0  0  0  0  0
    2.9383   -0.0005   -0.0000 C   0  0  0  0  0  0  0  0  0  0  0  0
    2.3013   -1.2420   -0.1573 C   0  0  0  0  0  3  0  0  0  0  0  0
    2.9366   -2.5460   -0.1718 C   0  0  0  0  0  0  0  0  0  0  0  0
    1.9165   -3.4887   -0.2723 C   0  0  0  0  0  0  0  0  0  0  0  0
    0.6629   -2.7575   -0.3245 C   0  0  0  0  0  0  0  0  0  0  0  0
   -0.6308   -3.3222   -0.3844 C   0  0  0  0  0  0  0  0  0  0  0  0
   -1.8092   -2.5821   -0.2398 C   0  0  0  0  0  0  0  0  0  0  0  0
   -3.1939   -2.9598   -0.4446 C   0  0  0  0  0  0  0  0  0  0  0  0
   -3.9626   -1.7897   -0.3459 C   0  0  0  0  0  0  0  0  0  0  0  0
   -3.0402   -0.7125   -0.0641 C   0  0  0  0  0  0  0  0  0  0  0  0
   -5.4432    1.6611    0.5200 C   0  0  0  0  0  0  0  0  0  0  0  0
   -3.6484    4.3480    0.7743 C   0  0  0  0  0  0  0  0  0  0  0  0
    2.0394    4.9839    0.2568 C   0  0  0  0  0  0  0  0  0  0  0  0
    1.7935    5.6051   -1.1287 C   0  0  0  0  0  0  0  0  0  0  0  0
    4.4098    2.7865    0.0088 C   0  0  0  0  0  0  0  0  0  0  0  0
    4.8810    2.7553   -1.4552 C   0  0  0  0  0  0  0  0  0  0  0  0
    4.4088   -2.7881   -0.0087 C   0  0  0  0  0  0  0  0  0  0  0  0
    4.8798   -2.7575    1.4553 C   0  0  0  0  0  0  0  0  0  0  0  0
    2.0376   -4.9846   -0.2567 C   0  0  0  0  0  0  0  0  0  0  0  0
    1.7910   -5.6058    1.1287 C   0  0  0  0  0  0  0  0  0  0  0  0
   -3.6501   -4.3466   -0.7745 C   0  0  0  0  0  0  0  0  0  0  0  0
   -5.4438   -1.6591   -0.5199 C   0  0  0  0  0  0  0  0  0  0  0  0
   -0.7076    4.4076    0.5425 H   0  0  0  0  0  0  0  0  0  0  0  0
    4.0378   -0.0007    0.0000 H   0  0  0  0  0  0  0  0  0  0  0  0
   -0.7092   -4.4073   -0.5426 H   0  0  0  0  0  0  0  0  0  0  0  0
   -5.6976    0.8785    1.2637 H   0  0  0  0  0  0  0  0  0  0  0  0
   -5.9528    1.3828   -0.4261 H   0  0  0  0  0  0  0  0  0  0  0  0
   -5.8928    2.6110    0.8672 H   0  0  0  0  0  0  0  0  0  0  0  0
   -3.3967    5.0652   -0.0359 H   0  0  0  0  0  0  0  0  0  0  0  0
   -3.1685    4.7293    1.7006 H   0  0  0  0  0  0  0  0  0  0  0  0
   -4.7439    4.3944    0.9264 H   0  0  0  0  0  0  0  0  0  0  0  0
    3.0508    5.2706    0.6148 H   0  0  0  0  0  0  0  0  0  0  0  0
    1.3270    5.4242    0.9881 H   0  0  0  0  0  0  0  0  0  0  0  0
    1.8832    6.7101   -1.0976 H   0  0  0  0  0  0  0  0  0  0  0  0
    0.7812    5.3525   -1.5043 H   0  0  0  0  0  0  0  0  0  0  0  0
    2.5235    5.2220   -1.8700 H   0  0  0  0  0  0  0  0  0  0  0  0
    4.6687    3.7689    0.4575 H   0  0  0  0  0  0  0  0  0  0  0  0
    4.9788    2.0315    0.5939 H   0  0  0  0  0  0  0  0  0  0  0  0
    5.9736    2.9295   -1.5319 H   0  0  0  0  0  0  0  0  0  0  0  0
    4.3663    3.5338   -2.0538 H   0  0  0  0  0  0  0  0  0  0  0  0
    4.6548    1.7769   -1.9255 H   0  0  0  0  0  0  0  0  0  0  0  0
    4.9780   -2.0331   -0.5936 H   0  0  0  0  0  0  0  0  0  0  0  0
    4.6674   -3.7705   -0.4577 H   0  0  0  0  0  0  0  0  0  0  0  0
    5.9724   -2.9320    1.5321 H   0  0  0  0  0  0  0  0  0  0  0  0
    4.3648   -3.5360    2.0536 H   0  0  0  0  0  0  0  0  0  0  0  0
    4.6539   -1.7792    1.9258 H   0  0  0  0  0  0  0  0  0  0  0  0
    3.0489   -5.2716   -0.6145 H   0  0  0  0  0  0  0  0  0  0  0  0
    1.3252   -5.4246   -0.9882 H   0  0  0  0  0  0  0  0  0  0  0  0
    1.8803   -6.7108    1.0975 H   0  0  0  0  0  0  0  0  0  0  0  0
    0.7788   -5.3528    1.5040 H   0  0  0  0  0  0  0  0  0  0  0  0
    2.5211   -5.2230    1.8702 H   0  0  0  0  0  0  0  0  0  0  0  0
   -3.3980   -5.0642    0.0353 H   0  0  0  0  0  0  0  0  0  0  0  0
   -3.1709   -4.7277   -1.7012 H   0  0  0  0  0  0  0  0  0  0  0  0
   -4.7457   -4.3926   -0.9258 H   0  0  0  0  0  0  0  0  0  0  0  0
   -5.6980   -0.8769   -1.2641 H   0  0  0  0  0  0  0  0  0  0  0  0
   -5.9533   -1.3800    0.4261 H   0  0  0  0  0  0  0  0  0  0  0  0
   -5.8939   -2.6091   -0.8664 H   0  0  0  0  0  0  0  0  0  0  0  0
  1  5  1  0  0  0  0
  1  8  1  0  0  0  0
  2 10  1  0  0  0  0
  3 15  1  0  0  0  0
  5  6  1  0  0  0  0
  6  7  1  0  0  0  0
  6 24  1  1  0  0  0
  7 25  1  0  0  0  0
  8  9  1  0  0  0  0
  8  7  2  0  0  0  0
  9 36  1  0  0  0  0
 10  9  2  0  0  0  0
 11 10  1  0  0  0  0
 12 11  2  0  0  0  0
 13 12  1  0  0  0  0
 13  2  1  0  0  0  0
 14 37  1  0  0  0  0
 14 13  2  0  0  0  0
 15 14  1  0  0  0  0
 16 15  1  0  0  0  0
 16 30  1  0  0  0  0
 17 32  1  0  0  0  0
 17 16  2  0  0  0  0
 18  3  2  0  0  0  0
 18 17  1  0  0  0  0
 19 18  1  0  0  0  0
 19 20  2  0  0  0  0
 20  4  1  0  0  0  0
 21 22  2  0  0  0  0
 21 20  1  0  0  0  0
 22 23  1  0  0  0  0
 23  4  1  0  0  0  0
 23  5  2  0  0  0  0
 24 41  1  0  0  0  0
 24 39  1  0  0  0  0
 25 44  1  0  0  0  0
 25 43  1  0  0  0  0
 26 11  1  0  0  0  0
 26 45  1  0  0  0  0
 26 46  1  0  0  0  0
 27 47  1  0  0  0  0
 27 26  1  0  0  0  0
 28 12  1  0  0  0  0
 28 50  1  0  0  0  0
 28 51  1  0  0  0  0
 29 28  1  0  0  0  0
 30 31  1  0  0  0  0
 31 57  1  0  0  0  0
 31 59  1  0  0  0  0
 31 58  1  0  0  0  0
 32 33  1  0  0  0  0
 33 63  1  0  0  0  0
 33 64  1  0  0  0  0
 34 21  1  0  0  0  0
 34 65  1  0  0  0  0
 35 22  1  0  0  0  0
 35 69  1  0  0  0  0
 38 19  1  0  0  0  0
 40 24  1  0  0  0  0
 42 25  1  0  0  0  0
 48 27  1  0  0  0  0
 49 27  1  0  0  0  0
 52 29  1  0  0  0  0
 53 29  1  0  0  0  0
 54 29  1  0  0  0  0
 55 30  1  0  0  0  0
 56 30  1  0  0  0  0
 60 32  1  0  0  0  0
 61 32  1  0  0  0  0
 62 33  1  0  0  0  0
 66 34  1  0  0  0  0
 67 34  1  0  0  0  0
 68 35  1  0  0  0  0
 70 35  1  0  0  0  0
M  END
