1,18,30,35
 OpenBabel05122313063D

 51 53  0  0  1  0  0  0  0  0999 V2000
    2.2722    0.2311    0.0195 N   0  0  0  0  0  2  0  0  0  0  0  0
    3.1503   -0.6563   -0.4885 C   0  0  2  0  0  3  0  0  0  0  0  0
    4.5352   -0.4116   -0.5106 C   0  0  0  0  0  0  0  0  0  0  0  0
    5.2103   -1.1784   -0.9194 H   0  0  0  0  0  0  0  0  0  0  0  0
    5.0257    0.8014   -0.0170 C   0  0  0  0  0  0  0  0  0  0  0  0
    6.1044    1.0192   -0.0249 H   0  0  0  0  0  0  0  0  0  0  0  0
    4.1099    1.7360    0.4805 C   0  0  0  0  0  0  0  0  0  0  0  0
    4.4383    2.7119    0.8674 H   0  0  0  0  0  0  0  0  0  0  0  0
    2.7446    1.4074    0.4827 C   0  0  0  0  0  0  0  0  0  0  0  0
    2.5733   -1.9168   -1.0898 C   0  0  0  0  0  0  0  0  0  0  0  0
    2.2144   -1.6367   -2.1049 H   0  0  0  0  0  0  0  0  0  0  0  0
    3.3897   -2.6761   -1.2158 H   0  0  0  0  0  0  0  0  0  0  0  0
    1.4466   -2.3833   -0.3375 N   0  0  0  0  0  0  0  0  0  0  0  0
    0.3636   -2.9665   -1.0824 C   0  0  0  0  0  0  0  0  0  0  0  0
    0.4923   -4.0616   -1.2916 H   0  0  0  0  0  0  0  0  0  0  0  0
    0.2956   -2.4344   -2.0554 H   0  0  0  0  0  0  0  0  0  0  0  0
   -0.9369   -2.7688   -0.3511 C   0  0  2  0  0  3  0  0  0  0  0  0
   -1.1891   -1.5465    0.2056 N   0  0  0  0  0  2  0  0  0  0  0  0
   -2.3042   -1.4565    0.9895 C   0  0  0  0  0  0  0  0  0  0  0  0
   -2.4499   -0.4979    1.4991 H   0  0  0  0  0  0  0  0  0  0  0  0
   -3.2193   -2.4929    1.1753 C   0  0  0  0  0  0  0  0  0  0  0  0
   -4.0933   -2.3216    1.8196 H   0  0  0  0  0  0  0  0  0  0  0  0
   -2.9947   -3.7222    0.5435 C   0  0  0  0  0  0  0  0  0  0  0  0
   -3.6931   -4.5646    0.6577 H   0  0  0  0  0  0  0  0  0  0  0  0
   -1.8221   -3.8507   -0.2072 C   0  0  0  0  0  0  0  0  0  0  0  0
   -1.5528   -4.8057   -0.6823 H   0  0  0  0  0  0  0  0  0  0  0  0
    1.7065    2.3388    1.0323 C   0  0  0  0  0  0  0  0  0  0  0  0
    1.4487    1.9957    2.0587 H   0  0  0  0  0  0  0  0  0  0  0  0
    2.0874    3.3846    1.0787 H   0  0  0  0  0  0  0  0  0  0  0  0
    0.4777    2.2566    0.2233 N   0  0  0  0  0  0  0  0  0  0  0  0
   -0.6719    2.8506    0.9496 C   0  0  0  0  0  0  0  0  0  0  0  0
   -0.6068    3.9618    0.9868 H   0  0  0  0  0  0  0  0  0  0  0  0
   -0.6443    2.4442    1.9834 H   0  0  0  0  0  0  0  0  0  0  0  0
   -1.9180    2.3909    0.2653 C   0  0  2  0  0  3  0  0  0  0  0  0
   -1.8251    1.1014   -0.1961 N   0  0  0  0  0  2  0  0  0  0  0  0
   -2.8699    0.6223   -0.9378 C   0  0  0  0  0  0  0  0  0  0  0  0
   -2.7303   -0.3731   -1.3746 H   0  0  0  0  0  0  0  0  0  0  0  0
   -4.0344    1.3579   -1.1581 C   0  0  0  0  0  0  0  0  0  0  0  0
   -4.8402    0.9061   -1.7545 H   0  0  0  0  0  0  0  0  0  0  0  0
   -4.1518    2.6552   -0.6364 C   0  0  0  0  0  0  0  0  0  0  0  0
   -5.0593    3.2548   -0.7958 H   0  0  0  0  0  0  0  0  0  0  0  0
   -3.0530    3.1787    0.0652 C   0  0  0  0  0  0  0  0  0  0  0  0
   -3.0607    4.2072    0.4551 H   0  0  0  0  0  0  0  0  0  0  0  0
    1.7591   -2.9970    0.9332 C   0  0  0  0  0  0  0  0  0  0  0  0
    2.2479   -4.0023    0.8286 H   0  0  0  0  0  0  0  0  0  0  0  0
    0.8392   -3.1132    1.5393 H   0  0  0  0  0  0  0  0  0  0  0  0
    2.4345   -2.3376    1.5140 H   0  0  0  0  0  0  0  0  0  0  0  0
    0.6804    2.9439   -1.0665 C   0  0  0  0  0  0  0  0  0  0  0  0
    0.9432    4.0136   -0.8948 H   0  0  0  0  0  0  0  0  0  0  0  0
   -0.2369    2.8765   -1.6777 H   0  0  0  0  0  0  0  0  0  0  0  0
    1.4854    2.4424   -1.6318 H   0  0  0  0  0  0  0  0  0  0  0  0
  1  9  1  0  0  0  0
  2 10  1  6  0  0  0
  2  1  1  0  0  0  0
  3  2  1  0  0  0  0
  3  5  2  0  0  0  0
  4  3  1  0  0  0  0
  5  7  1  0  0  0  0
  6  5  1  0  0  0  0
  7  9  2  0  0  0  0
  7  8  1  0  0  0  0
  9 27  1  0  0  0  0
 10 13  1  0  0  0  0
 11 10  1  0  0  0  0
 12 10  1  0  0  0  0
 13 44  1  0  0  0  0
 14 13  1  0  0  0  0
 15 14  1  0  0  0  0
 16 14  1  0  0  0  0
 17 14  1  1  0  0  0
 17 25  1  0  0  0  0
 17 18  1  0  0  0  0
 18 19  1  0  0  0  0
 19 21  2  0  0  0  0
 19 20  1  0  0  0  0
 21 22  1  0  0  0  0
 23 24  1  0  0  0  0
 23 21  1  0  0  0  0
 25 23  2  0  0  0  0
 26 25  1  0  0  0  0
 27 29  1  0  0  0  0
 27 28  1  0  0  0  0
 30 31  1  0  0  0  0
 30 27  1  0  0  0  0
 31 32  1  0  0  0  0
 31 33  1  0  0  0  0
 34 31  1  6  0  0  0
 35 34  1  0  0  0  0
 36 35  1  0  0  0  0
 37 36  1  0  0  0  0
 38 36  2  0  0  0  0
 38 40  1  0  0  0  0
 39 38  1  0  0  0  0
 40 42  2  0  0  0  0
 41 40  1  0  0  0  0
 42 34  1  0  0  0  0
 42 43  1  0  0  0  0
 44 47  1  0  0  0  0
 44 46  1  0  0  0  0
 45 44  1  0  0  0  0
 48 49  1  0  0  0  0
 48 30  1  0  0  0  0
 50 48  1  0  0  0  0
 51 48  1  0  0  0  0
M  END
