1,2,34,36
 OpenBabel05122313063D

 56 58  0  0  1  0  0  0  0  0999 V2000
    1.5161   -1.0303    0.8136 N   0  0  0  0  0  2  0  0  0  0  0  0
   -1.5162   -1.0303   -0.8136 N   0  0  0  0  0  2  0  0  0  0  0  0
    5.9067   -0.0000    0.0000 C   0  0  0  0  0  0  0  0  0  0  0  0
    5.2666   -0.7846    0.9694 C   0  0  0  0  0  3  0  0  0  0  0  0
    3.9035   -1.0240    1.1727 C   0  0  0  0  0  0  0  0  0  0  0  0
    2.7309   -0.5517    0.5106 C   0  0  0  0  0  0  0  0  0  0  0  0
    1.3324   -2.1981    1.6419 C   0  0  0  0  0  0  0  0  0  0  0  0
    0.0116   -2.9621    1.3023 C   0  0  0  0  0  0  0  0  0  0  0  0
    0.0001   -3.6685   -0.0000 C   0  0  0  0  0  3  0  0  0  0  0  0
   -0.0115   -2.9620   -1.3023 C   0  0  0  0  0  0  0  0  0  0  0  0
   -1.3324   -2.1981   -1.6418 C   0  0  0  0  0  0  0  0  0  0  0  0
   -2.7310   -0.5517   -0.5106 C   0  0  0  0  0  0  0  0  0  0  0  0
   -3.9036   -1.0242   -1.1725 C   0  0  0  0  0  0  0  0  0  0  0  0
   -5.2666   -0.7848   -0.9693 C   0  0  0  0  0  0  0  0  0  0  0  0
   -5.9067   -0.0000    0.0000 C   0  0  0  0  0  0  0  0  0  0  0  0
    7.0077   -0.0000    0.0000 H   0  0  0  0  0  0  0  0  0  0  0  0
    5.9324   -1.3078    1.6767 H   0  0  0  0  0  0  0  0  0  0  0  0
    3.6920   -1.6950    2.0179 H   0  0  0  0  0  0  0  0  0  0  0  0
    1.2836   -1.9098    2.7197 H   0  0  0  0  0  0  0  0  0  0  0  0
    2.1820   -2.9097    1.5358 H   0  0  0  0  0  0  0  0  0  0  0  0
   -0.8043   -2.1954    1.3518 H   0  0  0  0  0  0  0  0  0  0  0  0
   -0.1699   -3.6784    2.1294 H   0  0  0  0  0  0  0  0  0  0  0  0
    0.0002   -4.7696   -0.0001 H   0  0  0  0  0  0  0  0  0  0  0  0
    0.1700   -3.6783   -2.1294 H   0  0  0  0  0  0  0  0  0  0  0  0
    0.8043   -2.1953   -1.3517 H   0  0  0  0  0  0  0  0  0  0  0  0
   -1.2836   -1.9098   -2.7197 H   0  0  0  0  0  0  0  0  0  0  0  0
   -2.1819   -2.9098   -1.5358 H   0  0  0  0  0  0  0  0  0  0  0  0
   -3.6921   -1.6954   -2.0176 H   0  0  0  0  0  0  0  0  0  0  0  0
   -5.9325   -1.3081   -1.6764 H   0  0  0  0  0  0  0  0  0  0  0  0
   -7.0077   -0.0000    0.0000 H   0  0  0  0  0  0  0  0  0  0  0  0
    5.2666    0.7846   -0.9694 C   0  0  0  0  0  0  0  0  0  0  0  0
    3.9035    1.0240   -1.1726 C   0  0  0  0  0  0  0  0  0  0  0  0
    2.7309    0.5517   -0.5106 C   0  0  0  0  0  0  0  0  0  0  0  0
    1.5161    1.0304   -0.8136 N   0  0  0  0  0  2  0  0  0  0  0  0
   -2.7310    0.5517    0.5106 C   0  0  2  0  0  3  0  0  0  0  0  0
   -1.5162    1.0303    0.8136 N   0  0  0  0  0  2  0  0  0  0  0  0
   -1.3324    2.1981    1.6418 C   0  0  0  0  0  0  0  0  0  0  0  0
   -0.0115    2.9620    1.3023 C   0  0  0  0  0  0  0  0  0  0  0  0
    0.0001    3.6685    0.0000 C   0  0  0  0  0  3  0  0  0  0  0  0
    0.0116    2.9621   -1.3023 C   0  0  0  0  0  0  0  0  0  0  0  0
    1.3324    2.1981   -1.6419 C   0  0  0  0  0  0  0  0  0  0  0  0
    1.2836    1.9098   -2.7197 H   0  0  0  0  0  0  0  0  0  0  0  0
    2.1820    2.9097   -1.5358 H   0  0  0  0  0  0  0  0  0  0  0  0
   -0.8043    2.1954   -1.3518 H   0  0  0  0  0  0  0  0  0  0  0  0
   -0.1699    3.6785   -2.1294 H   0  0  0  0  0  0  0  0  0  0  0  0
    0.0002    4.7696    0.0001 H   0  0  0  0  0  0  0  0  0  0  0  0
    0.1700    3.6783    2.1294 H   0  0  0  0  0  0  0  0  0  0  0  0
    0.8043    2.1953    1.3517 H   0  0  0  0  0  0  0  0  0  0  0  0
   -1.2836    1.9098    2.7197 H   0  0  0  0  0  0  0  0  0  0  0  0
   -2.1819    2.9098    1.5358 H   0  0  0  0  0  0  0  0  0  0  0  0
   -3.9036    1.0242    1.1725 C   0  0  0  0  0  0  0  0  0  0  0  0
   -5.2666    0.7848    0.9693 C   0  0  0  0  0  0  0  0  0  0  0  0
   -5.9325    1.3081    1.6764 H   0  0  0  0  0  0  0  0  0  0  0  0
   -3.6921    1.6954    2.0176 H   0  0  0  0  0  0  0  0  0  0  0  0
    3.6920    1.6950   -2.0179 H   0  0  0  0  0  0  0  0  0  0  0  0
    5.9324    1.3078   -1.6767 H   0  0  0  0  0  0  0  0  0  0  0  0
  1  7  1  0  0  0  0
  2 12  1  0  0  0  0
  3  4  1  0  0  0  0
  4  5  1  0  0  0  0
  4 17  1  0  0  0  0
  5 18  1  0  0  0  0
  6  1  1  0  0  0  0
  6  5  2  0  0  0  0
  7 19  1  0  0  0  0
  8 21  1  0  0  0  0
  8  7  1  0  0  0  0
  8 22  1  0  0  0  0
  9  8  1  0  0  0  0
 10  9  1  0  0  0  0
 11 27  1  0  0  0  0
 11 10  1  0  0  0  0
 11  2  1  0  0  0  0
 13 14  1  0  0  0  0
 13 12  2  0  0  0  0
 14 15  2  0  0  0  0
 15 30  1  0  0  0  0
 15 52  1  0  0  0  0
 16  3  1  0  0  0  0
 20  7  1  0  0  0  0
 23  9  1  0  0  0  0
 24 10  1  0  0  0  0
 25 10  1  0  0  0  0
 26 11  1  0  0  0  0
 28 13  1  0  0  0  0
 29 14  1  0  0  0  0
 31  3  2  0  0  0  0
 32 31  1  0  0  0  0
 32 33  2  0  0  0  0
 33  6  1  0  0  0  0
 34 33  1  0  0  0  0
 35 12  1  1  0  0  0
 35 36  1  0  0  0  0
 35 51  1  0  0  0  0
 36 37  1  0  0  0  0
 37 49  1  0  0  0  0
 38 48  1  0  0  0  0
 38 37  1  0  0  0  0
 38 47  1  0  0  0  0
 39 46  1  0  0  0  0
 39 38  1  0  0  0  0
 40 39  1  0  0  0  0
 41 43  1  0  0  0  0
 41 40  1  0  0  0  0
 41 34  1  0  0  0  0
 42 41  1  0  0  0  0
 44 40  1  0  0  0  0
 45 40  1  0  0  0  0
 50 37  1  0  0  0  0
 51 54  1  0  0  0  0
 52 51  2  0  0  0  0
 52 53  1  0  0  0  0
 55 32  1  0  0  0  0
 56 31  1  0  0  0  0
M  END
