3,5,7,9
 OpenBabel05122313063D

 43 43  0  0  0  0  0  0  0  0999 V2000
   -2.9351   -0.0755    0.1487 N   0  0  0  0  0  0  0  0  0  0  0  0
   -3.4361    0.3103    0.9542 H   0  0  0  0  0  0  0  0  0  0  0  0
   -0.8377    0.4955   -1.7840 N   0  0  0  0  0  0  0  0  0  0  0  0
   -0.3198   -0.2605   -2.2588 H   0  0  0  0  0  0  0  0  0  0  0  0
    0.2268    1.9389    0.2379 N   0  0  0  0  0  0  0  0  0  0  0  0
    1.2289    1.6693    0.0603 H   0  0  0  0  0  0  0  0  0  0  0  0
    0.1502   -0.3045    1.9303 N   0  0  0  0  0  0  0  0  0  0  0  0
    1.1554   -0.4767    1.6762 H   0  0  0  0  0  0  0  0  0  0  0  0
   -0.6912   -1.8516   -0.0972 N   0  0  0  0  0  0  0  0  0  0  0  0
    0.0493   -1.9991   -0.8111 H   0  0  0  0  0  0  0  0  0  0  0  0
   -3.2480    0.7209   -1.0383 C   0  0  0  0  0  0  0  0  0  0  0  0
   -3.2117    1.7871   -0.7358 H   0  0  0  0  0  0  0  0  0  0  0  0
   -4.2783    0.5347   -1.4292 H   0  0  0  0  0  0  0  0  0  0  0  0
   -2.2718    0.4762   -2.1949 C   0  0  0  0  0  0  0  0  0  0  0  0
   -2.4831   -0.5001   -2.6693 H   0  0  0  0  0  0  0  0  0  0  0  0
   -2.4490    1.2376   -2.9827 H   0  0  0  0  0  0  0  0  0  0  0  0
   -0.1057    1.7480   -2.1252 C   0  0  0  0  0  0  0  0  0  0  0  0
   -0.4890    2.1953   -3.0654 H   0  0  0  0  0  0  0  0  0  0  0  0
    0.9573    1.4722   -2.2705 H   0  0  0  0  0  0  0  0  0  0  0  0
   -0.2187    2.6970   -0.9526 C   0  0  0  0  0  0  0  0  0  0  0  0
    0.4076    3.6035   -1.1017 H   0  0  0  0  0  0  0  0  0  0  0  0
   -1.2626    3.0381   -0.7914 H   0  0  0  0  0  0  0  0  0  0  0  0
    0.1400    2.7231    1.4830 C   0  0  0  0  0  0  0  0  0  0  0  0
   -0.9313    2.9372    1.6873 H   0  0  0  0  0  0  0  0  0  0  0  0
    0.6451    3.7022    1.3288 H   0  0  0  0  0  0  0  0  0  0  0  0
    0.7777    1.9916    2.6548 C   0  0  0  0  0  0  0  0  0  0  0  0
    0.7671    2.6576    3.5402 H   0  0  0  0  0  0  0  0  0  0  0  0
    1.8487    1.7864    2.4341 H   0  0  0  0  0  0  0  0  0  0  0  0
    0.0642    0.6961    3.0107 C   0  0  0  0  0  0  0  0  0  0  0  0
    0.5049    0.2628    3.9355 H   0  0  0  0  0  0  0  0  0  0  0  0
   -1.0106    0.8855    3.2206 H   0  0  0  0  0  0  0  0  0  0  0  0
   -0.4382   -1.6052    2.3192 C   0  0  0  0  0  0  0  0  0  0  0  0
   -1.5115   -1.4468    2.5506 H   0  0  0  0  0  0  0  0  0  0  0  0
    0.0467   -1.9997    3.2392 H   0  0  0  0  0  0  0  0  0  0  0  0
   -0.2449   -2.5433    1.1450 C   0  0  0  0  0  0  0  0  0  0  0  0
    0.8333   -2.7679    1.0283 H   0  0  0  0  0  0  0  0  0  0  0  0
   -0.7892   -3.4986    1.2890 H   0  0  0  0  0  0  0  0  0  0  0  0
   -2.0127   -2.2726   -0.6072 C   0  0  0  0  0  0  0  0  0  0  0  0
   -2.1560   -3.3648   -0.4601 H   0  0  0  0  0  0  0  0  0  0  0  0
   -2.0182   -2.1140   -1.7012 H   0  0  0  0  0  0  0  0  0  0  0  0
   -3.1727   -1.5181    0.0642 C   0  0  0  0  0  0  0  0  0  0  0  0
   -3.3004   -1.8967    1.0986 H   0  0  0  0  0  0  0  0  0  0  0  0
   -4.1141   -1.7732   -0.4792 H   0  0  0  0  0  0  0  0  0  0  0  0
  1  2  1  0  0  0  0
  4  3  1  0  0  0  0
  5 23  1  0  0  0  0
  6  5  1  0  0  0  0
  7 32  1  0  0  0  0
  7 29  1  0  0  0  0
  8  7  1  0  0  0  0
  9 35  1  0  0  0  0
 10  9  1  0  0  0  0
 11 12  1  0  0  0  0
 11  1  1  0  0  0  0
 13 11  1  0  0  0  0
 14  3  1  0  0  0  0
 14 11  1  0  0  0  0
 15 14  1  0  0  0  0
 16 14  1  0  0  0  0
 17  3  1  0  0  0  0
 17 20  1  0  0  0  0
 18 17  1  0  0  0  0
 19 17  1  0  0  0  0
 20 22  1  0  0  0  0
 20  5  1  0  0  0  0
 21 20  1  0  0  0  0
 23 24  1  0  0  0  0
 23 26  1  0  0  0  0
 25 23  1  0  0  0  0
 26 29  1  0  0  0  0
 26 27  1  0  0  0  0
 28 26  1  0  0  0  0
 29 31  1  0  0  0  0
 29 30  1  0  0  0  0
 32 33  1  0  0  0  0
 32 34  1  0  0  0  0
 35 37  1  0  0  0  0
 35 32  1  0  0  0  0
 36 35  1  0  0  0  0
 38 39  1  0  0  0  0
 38  9  1  0  0  0  0
 38 41  1  0  0  0  0
 40 38  1  0  0  0  0
 41  1  1  0  0  0  0
 41 42  1  0  0  0  0
 43 41  1  0  0  0  0
M  END
