3,4,5,6
 OpenBabel05122313063D

 79 82  0  0  1  0  0  0  0  0999 V2000
    4.5441    1.8963   -0.7486 O   0  0  0  0  0  0  0  0  0  0  0  0
    0.8575   -4.5256   -1.1041 O   0  0  0  0  0  0  0  0  0  0  0  0
    0.9680    1.2427   -0.6837 N   0  0  0  0  0  0  0  0  0  0  0  0
    3.2139    0.0224   -1.1434 N   0  0  0  0  0  2  0  0  0  0  0  0
    1.8947   -2.4505   -0.9118 N   0  0  0  0  0  2  0  0  0  0  0  0
   -0.2048   -1.2502   -0.1047 N   0  0  0  0  0  0  0  0  0  0  0  0
    2.1582    2.1409   -0.6283 C   0  0  2  0  0  0  0  0  0  0  0  0
    2.1099    2.8559   -1.4757 H   0  0  0  0  0  0  0  0  0  0  0  0
    3.4455    1.3252   -0.8445 C   0  0  0  0  0  0  0  0  0  0  0  0
    4.3767   -0.8162   -1.3960 C   0  0  0  0  0  0  0  0  0  0  0  0
    5.2812   -0.2333   -1.1239 H   0  0  0  0  0  0  0  0  0  0  0  0
    4.4496   -1.0429   -2.4858 H   0  0  0  0  0  0  0  0  0  0  0  0
    4.3238   -2.1295   -0.6182 C   0  0  0  0  0  0  0  0  0  0  0  0
    4.1948   -1.9085    0.4645 H   0  0  0  0  0  0  0  0  0  0  0  0
    5.2944   -2.6570   -0.7324 H   0  0  0  0  0  0  0  0  0  0  0  0
    3.2062   -3.0496   -1.0945 C   0  0  0  0  0  0  0  0  0  0  0  0
    3.3704   -3.3007   -2.1705 H   0  0  0  0  0  0  0  0  0  0  0  0
    3.2326   -4.0218   -0.5556 H   0  0  0  0  0  0  0  0  0  0  0  0
    0.8344   -3.2996   -0.9294 C   0  0  0  0  0  0  0  0  0  0  0  0
   -0.4988   -2.5546   -0.7463 C   0  0  2  0  0  0  0  0  0  0  0  0
   -1.1454   -3.1730   -0.0886 H   0  0  0  0  0  0  0  0  0  0  0  0
    2.2219    2.9658    0.6725 C   0  0  0  0  0  0  0  0  0  0  0  0
    3.2441    3.3982    0.6857 H   0  0  0  0  0  0  0  0  0  0  0  0
    1.4897    3.7968    0.6254 H   0  0  0  0  0  0  0  0  0  0  0  0
    1.9683    2.1313    1.9052 C   0  0  0  0  0  0  0  0  0  0  0  0
    0.7523    2.2450    2.6129 C   0  0  0  0  0  0  0  0  0  0  0  0
    0.0099    2.9936    2.2893 H   0  0  0  0  0  0  0  0  0  0  0  0
    0.4876    1.4332    3.7302 C   0  0  0  0  0  0  0  0  0  0  0  0
   -0.4635    1.5392    4.2735 H   0  0  0  0  0  0  0  0  0  0  0  0
    1.4331    0.4838    4.1453 C   0  0  0  0  0  0  0  0  0  0  0  0
    1.2266   -0.1580    5.0149 H   0  0  0  0  0  0  0  0  0  0  0  0
    2.6442    0.3556    3.4425 C   0  0  0  0  0  0  0  0  0  0  0  0
    3.3902   -0.3872    3.7640 H   0  0  0  0  0  0  0  0  0  0  0  0
    2.9120    1.1706    2.3335 C   0  0  0  0  0  0  0  0  0  0  0  0
    3.8667    1.0820    1.7930 H   0  0  0  0  0  0  0  0  0  0  0  0
   -1.1981   -2.3607   -2.0989 C   0  0  0  0  0  0  0  0  0  0  0  0
   -0.4725   -1.9207   -2.8151 H   0  0  0  0  0  0  0  0  0  0  0  0
   -1.4282   -3.3793   -2.4773 H   0  0  0  0  0  0  0  0  0  0  0  0
   -2.4456   -1.5019   -2.0516 C   0  0  0  0  0  0  0  0  0  0  0  0
   -3.3764   -1.5954   -0.9932 C   0  0  0  0  0  0  0  0  0  0  0  0
   -3.2137   -2.3158   -0.1771 H   0  0  0  0  0  0  0  0  0  0  0  0
   -4.5122   -0.7709   -0.9573 C   0  0  0  0  0  0  0  0  0  0  0  0
   -5.2154   -0.8604   -0.1155 H   0  0  0  0  0  0  0  0  0  0  0  0
   -4.7451    0.1613   -1.9806 C   0  0  0  0  0  0  0  0  0  0  0  0
   -5.6330    0.8107   -1.9496 H   0  0  0  0  0  0  0  0  0  0  0  0
   -3.8309    0.2641   -3.0411 C   0  0  0  0  0  0  0  0  0  0  0  0
   -3.9988    0.9950   -3.8464 H   0  0  0  0  0  0  0  0  0  0  0  0
   -2.6936   -0.5566   -3.0706 C   0  0  0  0  0  0  0  0  0  0  0  0
   -1.9760   -0.4673   -3.9020 H   0  0  0  0  0  0  0  0  0  0  0  0
   -0.0239    1.5908   -1.7480 C   0  0  0  0  0  0  0  0  0  0  0  0
   -0.6241    0.6891   -1.9738 H   0  0  0  0  0  0  0  0  0  0  0  0
    0.5452    1.8359   -2.6648 H   0  0  0  0  0  0  0  0  0  0  0  0
   -0.9422    2.7087   -1.3142 C   0  0  0  0  0  0  0  0  0  0  0  0
   -2.1331    2.3899   -0.6282 C   0  0  0  0  0  0  0  0  0  0  0  0
   -2.4353    1.3357   -0.5177 H   0  0  0  0  0  0  0  0  0  0  0  0
   -2.9560    3.4012   -0.1115 C   0  0  0  0  0  0  0  0  0  0  0  0
   -3.8861    3.1327    0.4124 H   0  0  0  0  0  0  0  0  0  0  0  0
   -2.5996    4.7493   -0.2770 C   0  0  0  0  0  0  0  0  0  0  0  0
   -3.2433    5.5454    0.1268 H   0  0  0  0  0  0  0  0  0  0  0  0
   -1.4258    5.0790   -0.9741 C   0  0  0  0  0  0  0  0  0  0  0  0
   -1.1496    6.1343   -1.1200 H   0  0  0  0  0  0  0  0  0  0  0  0
   -0.6044    4.0654   -1.4912 C   0  0  0  0  0  0  0  0  0  0  0  0
    0.3103    4.3315   -2.0437 H   0  0  0  0  0  0  0  0  0  0  0  0
   -0.0895   -1.3380    1.3858 C   0  0  0  0  0  0  0  0  0  0  0  0
    0.3913   -0.4075    1.7436 H   0  0  0  0  0  0  0  0  0  0  0  0
    0.6087   -2.1668    1.6071 H   0  0  0  0  0  0  0  0  0  0  0  0
   -1.4319   -1.5222    2.0509 C   0  0  0  0  0  0  0  0  0  0  0  0
   -1.9005   -2.7963    2.4278 C   0  0  0  0  0  0  0  0  0  0  0  0
   -1.2395   -3.6703    2.3165 H   0  0  0  0  0  0  0  0  0  0  0  0
   -3.1976   -2.9576    2.9408 C   0  0  0  0  0  0  0  0  0  0  0  0
   -3.5516   -3.9593    3.2281 H   0  0  0  0  0  0  0  0  0  0  0  0
   -4.0407   -1.8444    3.0877 C   0  0  0  0  0  0  0  0  0  0  0  0
   -5.0573   -1.9714    3.4897 H   0  0  0  0  0  0  0  0  0  0  0  0
   -3.5774   -0.5668    2.7314 C   0  0  0  0  0  0  0  0  0  0  0  0
   -4.2288    0.3118    2.8561 H   0  0  0  0  0  0  0  0  0  0  0  0
   -2.2824   -0.4093    2.2185 C   0  0  0  0  0  0  0  0  0  0  0  0
   -1.9202    0.5946    1.9443 H   0  0  0  0  0  0  0  0  0  0  0  0
    0.4840    1.3360    0.2263 H   0  0  0  0  0  0  0  0  0  0  0  0
   -0.9921   -0.6116   -0.3127 H   0  0  0  0  0  0  0  0  0  0  0  0
  2 19  2  0  0  0  0
  3  7  1  0  0  0  0
  3 78  1  0  0  0  0
  4  9  1  0  0  0  0
  6 64  1  0  0  0  0
  7  8  1  6  0  0  0
  7 22  1  0  0  0  0
  9  1  2  0  0  0  0
  9  7  1  0  0  0  0
 10  4  1  0  0  0  0
 10 11  1  0  0  0  0
 10 13  1  0  0  0  0
 12 10  1  0  0  0  0
 13 14  1  0  0  0  0
 15 13  1  0  0  0  0
 16  5  1  0  0  0  0
 16 13  1  0  0  0  0
 16 18  1  0  0  0  0
 17 16  1  0  0  0  0
 19  5  1  0  0  0  0
 19 20  1  0  0  0  0
 20  6  1  0  0  0  0
 20 21  1  1  0  0  0
 22 23  1  0  0  0  0
 22 25  1  0  0  0  0
 24 22  1  0  0  0  0
 25 34  2  0  0  0  0
 25 26  1  0  0  0  0
 26 28  2  0  0  0  0
 27 26  1  0  0  0  0
 28 30  1  0  0  0  0
 28 29  1  0  0  0  0
 30 31  1  0  0  0  0
 32 33  1  0  0  0  0
 32 30  2  0  0  0  0
 34 32  1  0  0  0  0
 35 34  1  0  0  0  0
 36 39  1  0  0  0  0
 36 20  1  0  0  0  0
 37 36  1  0  0  0  0
 38 36  1  0  0  0  0
 39 40  1  0  0  0  0
 40 42  2  0  0  0  0
 40 41  1  0  0  0  0
 42 43  1  0  0  0  0
 44 45  1  0  0  0  0
 44 42  1  0  0  0  0
 46 44  2  0  0  0  0
 47 46  1  0  0  0  0
 48 46  1  0  0  0  0
 48 39  2  0  0  0  0
 49 48  1  0  0  0  0
 50 53  1  0  0  0  0
 50  3  1  0  0  0  0
 51 50  1  0  0  0  0
 52 50  1  0  0  0  0
 53 54  1  0  0  0  0
 54 55  1  0  0  0  0
 54 56  2  0  0  0  0
 56 57  1  0  0  0  0
 58 56  1  0  0  0  0
 58 59  1  0  0  0  0
 60 58  2  0  0  0  0
 61 60  1  0  0  0  0
 62 53  2  0  0  0  0
 62 60  1  0  0  0  0
 63 62  1  0  0  0  0
 64 66  1  0  0  0  0
 64 65  1  0  0  0  0
 64 67  1  0  0  0  0
 67 76  2  0  0  0  0
 67 68  1  0  0  0  0
 68 70  2  0  0  0  0
 69 68  1  0  0  0  0
 70 72  1  0  0  0  0
 70 71  1  0  0  0  0
 72 73  1  0  0  0  0
 74 75  1  0  0  0  0
 74 72  2  0  0  0  0
 76 74  1  0  0  0  0
 77 76  1  0  0  0  0
 79  6  1  0  0  0  0
M  END
