1,3,4,8
 OpenBabel05122313063D

 71 72  0  0  1  0  0  0  0  0999 V2000
   -1.4231   -0.0373   -0.0490 N   0  0  0  0  0  0  0  0  0  0  0  0
   -3.5694   -2.8899   -0.6073 O   0  0  0  0  0  0  0  0  0  0  0  0
   -1.3375   -2.6071    0.0111 N   0  0  0  0  0  2  0  0  0  0  0  0
    1.4544   -2.5469    0.1546 N   0  0  0  0  0  2  0  0  0  0  0  0
    0.1132   -4.4945   -0.6079 C   0  0  0  0  0  0  0  0  0  0  0  0
    0.1420   -5.6042   -0.6398 H   0  0  0  0  0  0  0  0  0  0  0  0
    0.0359   -4.1404   -1.6594 H   0  0  0  0  0  0  0  0  0  0  0  0
    1.4174    0.0315    0.0979 N   0  0  0  0  0  0  0  0  0  0  0  0
   -2.5668   -2.1923   -0.3951 C   0  0  0  0  0  0  0  0  0  0  0  0
    2.5422    1.7599   -1.3243 C   0  0  0  0  0  0  0  0  0  0  0  0
    3.6817   -2.6926    0.7920 O   0  0  0  0  0  0  0  0  0  0  0  0
    2.6355   -0.5257    0.7531 C   0  0  2  0  0  0  0  0  0  0  0  0
    3.5420   -0.1131    0.2628 H   0  0  0  0  0  0  0  0  0  0  0  0
    2.6524   -2.0450    0.5512 C   0  0  0  0  0  0  0  0  0  0  0  0
    2.7454   -0.1629    2.2496 C   0  0  0  0  0  0  0  0  0  0  0  0
    3.6896   -0.6654    2.5515 H   0  0  0  0  0  0  0  0  0  0  0  0
    4.7140    2.8614   -1.5178 C   0  0  0  0  0  0  0  0  0  0  0  0
    5.7936    2.8001   -1.7220 H   0  0  0  0  0  0  0  0  0  0  0  0
    1.9631    3.0087   -1.0165 C   0  0  0  0  0  0  0  0  0  0  0  0
    0.8756    3.0746   -0.8402 H   0  0  0  0  0  0  0  0  0  0  0  0
   -2.6262   -0.6819   -0.6529 C   0  0  2  0  0  0  0  0  0  0  0  0
   -3.5404   -0.2947   -0.1563 H   0  0  0  0  0  0  0  0  0  0  0  0
    1.6876    0.5149   -1.2918 C   0  0  0  0  0  0  0  0  0  0  0  0
    0.7115    0.7172   -1.7771 H   0  0  0  0  0  0  0  0  0  0  0  0
    2.1509   -0.3274   -1.8401 H   0  0  0  0  0  0  0  0  0  0  0  0
    1.6162   -0.7425    3.1086 C   0  0  0  0  0  0  0  0  0  0  0  0
    0.6376   -0.2687    2.8861 H   0  0  0  0  0  0  0  0  0  0  0  0
    1.8217   -0.5718    4.1848 H   0  0  0  0  0  0  0  0  0  0  0  0
    1.4961   -1.8306    2.9450 H   0  0  0  0  0  0  0  0  0  0  0  0
    1.4071   -3.9972    0.0226 C   0  0  0  0  0  0  0  0  0  0  0  0
    1.5333   -4.4695    1.0268 H   0  0  0  0  0  0  0  0  0  0  0  0
    2.2874   -4.3350   -0.5672 H   0  0  0  0  0  0  0  0  0  0  0  0
   -2.6024    1.7314    1.2760 C   0  0  0  0  0  0  0  0  0  0  0  0
   -1.6987    0.5216    1.3111 C   0  0  0  0  0  0  0  0  0  0  0  0
   -0.7271    0.7935    1.7703 H   0  0  0  0  0  0  0  0  0  0  0  0
   -2.1223   -0.3015    1.9177 H   0  0  0  0  0  0  0  0  0  0  0  0
    3.9258    1.7017   -1.5825 C   0  0  0  0  0  0  0  0  0  0  0  0
    4.3883    0.7363   -1.8413 H   0  0  0  0  0  0  0  0  0  0  0  0
   -2.9081    4.1004    0.7471 C   0  0  0  0  0  0  0  0  0  0  0  0
   -2.4823    5.0675    0.4394 H   0  0  0  0  0  0  0  0  0  0  0  0
   -2.7877   -0.3808   -2.1585 C   0  0  0  0  0  0  0  0  0  0  0  0
   -3.7095   -0.9434   -2.4212 H   0  0  0  0  0  0  0  0  0  0  0  0
   -3.9793    1.6359    1.5573 C   0  0  0  0  0  0  0  0  0  0  0  0
   -4.3998    0.6722    1.8850 H   0  0  0  0  0  0  0  0  0  0  0  0
   -4.8142    2.7569    1.4283 C   0  0  0  0  0  0  0  0  0  0  0  0
   -5.8881    2.6667    1.6513 H   0  0  0  0  0  0  0  0  0  0  0  0
   -2.0774    2.9793    0.8800 C   0  0  0  0  0  0  0  0  0  0  0  0
   -0.9956    3.0762    0.6841 H   0  0  0  0  0  0  0  0  0  0  0  0
    4.1280    4.0950   -1.1941 C   0  0  0  0  0  0  0  0  0  0  0  0
    4.7467    5.0035   -1.1418 H   0  0  0  0  0  0  0  0  0  0  0  0
   -1.1257   -4.0368    0.1601 C   0  0  0  0  0  0  0  0  0  0  0  0
   -2.0357   -4.5531   -0.2103 H   0  0  0  0  0  0  0  0  0  0  0  0
   -1.0098   -4.3025    1.2372 H   0  0  0  0  0  0  0  0  0  0  0  0
    2.7471    4.1687   -0.9479 C   0  0  0  0  0  0  0  0  0  0  0  0
    2.2793    5.1358   -0.7092 H   0  0  0  0  0  0  0  0  0  0  0  0
    2.9108    1.3475    2.4590 C   0  0  0  0  0  0  0  0  0  0  0  0
    3.7341    1.7617    1.8424 H   0  0  0  0  0  0  0  0  0  0  0  0
    3.1229    1.5789    3.5221 H   0  0  0  0  0  0  0  0  0  0  0  0
    1.9877    1.9121    2.1954 H   0  0  0  0  0  0  0  0  0  0  0  0
   -4.2821    3.9887    1.0165 C   0  0  0  0  0  0  0  0  0  0  0  0
   -4.9374    4.8666    0.9137 H   0  0  0  0  0  0  0  0  0  0  0  0
   -1.6466   -0.9300   -3.0215 C   0  0  0  0  0  0  0  0  0  0  0  0
   -0.6858   -0.4102   -2.8235 H   0  0  0  0  0  0  0  0  0  0  0  0
   -1.8743   -0.7923   -4.0978 H   0  0  0  0  0  0  0  0  0  0  0  0
   -1.4789   -2.0083   -2.8367 H   0  0  0  0  0  0  0  0  0  0  0  0
   -3.0376    1.1103   -2.4173 C   0  0  0  0  0  0  0  0  0  0  0  0
   -3.8690    1.5032   -1.7976 H   0  0  0  0  0  0  0  0  0  0  0  0
   -3.2834    1.2906   -3.4830 H   0  0  0  0  0  0  0  0  0  0  0  0
   -2.1411    1.7321   -2.1942 H   0  0  0  0  0  0  0  0  0  0  0  0
   -1.1587    0.7613   -0.6487 H   0  0  0  0  0  0  0  0  0  0  0  0
    1.1112    0.8536    0.6435 H   0  0  0  0  0  0  0  0  0  0  0  0
  1 34  1  0  0  0  0
  2  9  2  0  0  0  0
  3 51  1  0  0  0  0
  4 14  1  0  0  0  0
  5 30  1  0  0  0  0
  5 51  1  0  0  0  0
  6  5  1  0  0  0  0
  7  5  1  0  0  0  0
  8 71  1  0  0  0  0
  8 12  1  0  0  0  0
  9  3  1  0  0  0  0
 10 23  1  0  0  0  0
 10 19  1  0  0  0  0
 12 13  1  6  0  0  0
 12 15  1  0  0  0  0
 14 12  1  0  0  0  0
 14 11  2  0  0  0  0
 15 56  1  0  0  0  0
 15 16  1  0  0  0  0
 15 26  1  0  0  0  0
 17 49  2  0  0  0  0
 18 17  1  0  0  0  0
 19 54  2  0  0  0  0
 19 20  1  0  0  0  0
 21  9  1  0  0  0  0
 21 22  1  1  0  0  0
 21  1  1  0  0  0  0
 23  8  1  0  0  0  0
 24 23  1  0  0  0  0
 25 23  1  0  0  0  0
 26 28  1  0  0  0  0
 27 26  1  0  0  0  0
 29 26  1  0  0  0  0
 30  4  1  0  0  0  0
 30 31  1  0  0  0  0
 32 30  1  0  0  0  0
 33 34  1  0  0  0  0
 33 43  1  0  0  0  0
 34 35  1  0  0  0  0
 34 36  1  0  0  0  0
 37 17  1  0  0  0  0
 37 10  2  0  0  0  0
 38 37  1  0  0  0  0
 39 47  1  0  0  0  0
 39 60  2  0  0  0  0
 40 39  1  0  0  0  0
 41 21  1  0  0  0  0
 42 41  1  0  0  0  0
 43 44  1  0  0  0  0
 45 43  2  0  0  0  0
 45 46  1  0  0  0  0
 47 33  2  0  0  0  0
 48 47  1  0  0  0  0
 49 50  1  0  0  0  0
 49 54  1  0  0  0  0
 51 53  1  0  0  0  0
 52 51  1  0  0  0  0
 54 55  1  0  0  0  0
 56 58  1  0  0  0  0
 57 56  1  0  0  0  0
 59 56  1  0  0  0  0
 60 45  1  0  0  0  0
 61 60  1  0  0  0  0
 62 65  1  0  0  0  0
 62 63  1  0  0  0  0
 62 41  1  0  0  0  0
 64 62  1  0  0  0  0
 66 69  1  0  0  0  0
 66 41  1  0  0  0  0
 66 67  1  0  0  0  0
 68 66  1  0  0  0  0
 70  1  1  0  0  0  0
M  END
