1,2,3,4
 OpenBabel05122313063D

 66 71  0  0  1  0  0  0  0  0999 V2000
   -0.6523   -2.3278   -0.8315 N   0  0  0  0  0  2  0  0  0  0  0  0
    0.3085   -0.0222   -1.7943 N   0  0  0  0  0  2  0  0  0  0  0  0
   -0.4571   -0.1107    1.1340 N   0  0  0  0  0  2  0  0  0  0  0  0
   -3.1099    0.4577    1.1187 N   0  0  0  0  0  2  0  0  0  0  0  0
    0.8334   -0.6842    1.2107 C   0  0  0  0  0  0  0  0  0  0  0  0
    1.0182   -1.8966    1.9582 C   0  0  0  0  0  0  0  0  0  0  0  0
    2.2252   -2.5618    1.9985 C   0  0  0  0  0  0  0  0  0  0  0  0
    3.3529   -2.0626    1.2867 C   0  0  0  0  0  0  0  0  0  0  0  0
    4.6008   -2.7486    1.2789 C   0  0  0  0  0  0  0  0  0  0  0  0
    5.6788   -2.2656    0.5514 C   0  0  0  0  0  0  0  0  0  0  0  0
    5.5361   -1.0708   -0.2015 C   0  0  0  0  0  0  0  0  0  0  0  0
    4.3339   -0.3764   -0.2077 C   0  0  0  0  0  0  0  0  0  0  0  0
    3.2047   -0.8385    0.5380 C   0  0  0  0  0  0  0  0  0  0  0  0
    1.9438   -0.1365    0.5328 C   0  0  0  0  0  0  0  0  0  0  0  0
    1.0864    1.1132   -1.4568 C   0  0  0  0  0  0  0  0  0  0  0  0
    1.8347    1.1205   -0.2638 C   0  0  0  0  0  0  0  0  0  0  0  0
    2.5149    2.3180    0.1466 C   0  0  0  0  0  0  0  0  0  0  0  0
    3.2253    2.4047    1.3825 C   0  0  0  0  0  0  0  0  0  0  0  0
    3.8608    3.5780    1.7631 C   0  0  0  0  0  0  0  0  0  0  0  0
    3.8226    4.7240    0.9251 C   0  0  0  0  0  0  0  0  0  0  0  0
    3.1370    4.6749   -0.2800 C   0  0  0  0  0  0  0  0  0  0  0  0
    2.4674    3.4886   -0.6978 C   0  0  0  0  0  0  0  0  0  0  0  0
    1.7474    3.4227   -1.9276 C   0  0  0  0  0  0  0  0  0  0  0  0
    1.0761    2.2708   -2.2931 C   0  0  0  0  0  0  0  0  0  0  0  0
    1.0315   -1.2172   -2.1840 C   0  0  0  0  0  0  0  0  0  0  0  0
    0.5257   -2.4508   -1.4789 C   0  0  1  0  0  3  0  0  0  0  0  0
    1.2424   -3.6598   -1.4906 C   0  0  0  0  0  0  0  0  0  0  0  0
    0.7192   -4.7578   -0.8045 C   0  0  0  0  0  0  0  0  0  0  0  0
   -0.5056   -4.6213   -0.1351 C   0  0  0  0  0  0  0  0  0  0  0  0
   -1.1745   -3.3875   -0.1623 C   0  0  0  0  0  0  0  0  0  0  0  0
   -2.4800   -3.1755    0.5488 C   0  0  0  0  0  0  0  0  0  0  0  0
   -1.0816    0.0673    2.4228 C   0  0  0  0  0  0  0  0  0  0  0  0
   -2.5359    0.4286    2.3447 C   0  0  1  0  0  3  0  0  0  0  0  0
   -3.2429    0.7347    3.5210 C   0  0  0  0  0  0  0  0  0  0  0  0
   -4.5892    1.0863    3.4265 C   0  0  0  0  0  0  0  0  0  0  0  0
   -5.1750    1.1502    2.1557 C   0  0  0  0  0  0  0  0  0  0  0  0
   -4.4189    0.8463    1.0109 C   0  0  0  0  0  0  0  0  0  0  0  0
   -5.0241    0.9804   -0.3497 C   0  0  0  0  0  0  0  0  0  0  0  0
    0.1516   -2.3317    2.4775 H   0  0  0  0  0  0  0  0  0  0  0  0
    2.3224   -3.5044    2.5601 H   0  0  0  0  0  0  0  0  0  0  0  0
    4.6903   -3.6793    1.8616 H   0  0  0  0  0  0  0  0  0  0  0  0
    6.6375   -2.8059    0.5516 H   0  0  0  0  0  0  0  0  0  0  0  0
    6.3863   -0.6899   -0.7879 H   0  0  0  0  0  0  0  0  0  0  0  0
    4.2389    0.5460   -0.7973 H   0  0  0  0  0  0  0  0  0  0  0  0
    3.2571    1.5200    2.0347 H   0  0  0  0  0  0  0  0  0  0  0  0
    4.3996    3.6211    2.7222 H   0  0  0  0  0  0  0  0  0  0  0  0
    4.3338    5.6482    1.2346 H   0  0  0  0  0  0  0  0  0  0  0  0
    3.0953    5.5592   -0.9357 H   0  0  0  0  0  0  0  0  0  0  0  0
    1.7322    4.3089   -2.5816 H   0  0  0  0  0  0  0  0  0  0  0  0
    0.5120    2.2126   -3.2343 H   0  0  0  0  0  0  0  0  0  0  0  0
    2.1240   -1.1253   -1.9940 H   0  0  0  0  0  0  0  0  0  0  0  0
    0.9368   -1.3991   -3.2856 H   0  0  0  0  0  0  0  0  0  0  0  0
    2.2078   -3.7163   -2.0139 H   0  0  0  0  0  0  0  0  0  0  0  0
    1.2657   -5.7127   -0.7775 H   0  0  0  0  0  0  0  0  0  0  0  0
   -0.9444   -5.4628    0.4201 H   0  0  0  0  0  0  0  0  0  0  0  0
   -2.3993   -2.3293    1.2630 H   0  0  0  0  0  0  0  0  0  0  0  0
   -2.7929   -4.0776    1.1058 H   0  0  0  0  0  0  0  0  0  0  0  0
   -3.2689   -2.9013   -0.1823 H   0  0  0  0  0  0  0  0  0  0  0  0
   -0.5686    0.8733    3.0082 H   0  0  0  0  0  0  0  0  0  0  0  0
   -1.0036   -0.8335    3.0830 H   0  0  0  0  0  0  0  0  0  0  0  0
   -2.7237    0.6956    4.4898 H   0  0  0  0  0  0  0  0  0  0  0  0
   -5.1749    1.3247    4.3271 H   0  0  0  0  0  0  0  0  0  0  0  0
   -6.2255    1.4501    2.0339 H   0  0  0  0  0  0  0  0  0  0  0  0
   -4.4081    1.6714   -0.9596 H   0  0  0  0  0  0  0  0  0  0  0  0
   -6.0608    1.3579   -0.2872 H   0  0  0  0  0  0  0  0  0  0  0  0
   -5.0071    0.0177   -0.8987 H   0  0  0  0  0  0  0  0  0  0  0  0
  1 30  1  0  0  0  0
  2 15  1  0  0  0  0
  3  5  1  0  0  0  0
  3 32  1  0  0  0  0
  4 33  1  0  0  0  0
  5  6  1  0  0  0  0
  6  7  2  0  0  0  0
  6 39  1  0  0  0  0
  7 40  1  0  0  0  0
  8  7  1  0  0  0  0
  9  8  1  0  0  0  0
  9 41  1  0  0  0  0
 10 42  1  0  0  0  0
 10  9  2  0  0  0  0
 11 10  1  0  0  0  0
 12 11  2  0  0  0  0
 12 13  1  0  0  0  0
 13  8  2  0  0  0  0
 14 13  1  0  0  0  0
 14  5  2  0  0  0  0
 15 16  1  0  0  0  0
 16 17  2  0  0  0  0
 16 14  1  0  0  0  0
 17 18  1  0  0  0  0
 18 19  2  0  0  0  0
 18 45  1  0  0  0  0
 19 46  1  0  0  0  0
 20 47  1  0  0  0  0
 20 19  1  0  0  0  0
 21 20  2  0  0  0  0
 22 21  1  0  0  0  0
 22 17  1  0  0  0  0
 23 22  2  0  0  0  0
 24 23  1  0  0  0  0
 24 15  2  0  0  0  0
 25 51  1  0  0  0  0
 25  2  1  0  0  0  0
 26 25  1  1  0  0  0
 26  1  1  0  0  0  0
 27 26  1  0  0  0  0
 27 28  2  0  0  0  0
 28 54  1  0  0  0  0
 28 29  1  0  0  0  0
 29 55  1  0  0  0  0
 30 29  2  0  0  0  0
 30 31  1  0  0  0  0
 31 57  1  0  0  0  0
 31 56  1  0  0  0  0
 32 59  1  0  0  0  0
 32 60  1  0  0  0  0
 33 32  1  6  0  0  0
 33 34  1  0  0  0  0
 34 61  1  0  0  0  0
 35 34  2  0  0  0  0
 35 62  1  0  0  0  0
 36 35  1  0  0  0  0
 37  4  1  0  0  0  0
 37 36  2  0  0  0  0
 38 65  1  0  0  0  0
 38 37  1  0  0  0  0
 43 11  1  0  0  0  0
 44 12  1  0  0  0  0
 48 21  1  0  0  0  0
 49 23  1  0  0  0  0
 50 24  1  0  0  0  0
 52 25  1  0  0  0  0
 53 27  1  0  0  0  0
 58 31  1  0  0  0  0
 63 36  1  0  0  0  0
 64 38  1  0  0  0  0
 66 38  1  0  0  0  0
M  END
