1,7,11,17
 OpenBabel05122313063D

 31 32  0  0  0  0  0  0  0  0999 V2000
   -1.4447   -1.0345   -0.1150 N   0  0  0  0  0  2  0  0  0  0  0  0
   -1.7012   -2.3368   -0.3786 C   0  0  0  0  0  3  0  0  0  0  0  0
   -3.0899   -2.5972   -0.2487 C   0  0  0  0  0  0  0  0  0  0  0  0
   -3.7061   -1.3813    0.0995 C   0  0  0  0  0  0  0  0  0  0  0  0
   -2.6629   -0.4236    0.1626 C   0  0  0  0  0  0  0  0  0  0  0  0
   -2.5632    0.9816    0.2712 C   0  0  0  0  0  0  0  0  0  0  0  0
   -1.3577    1.4990    0.0968 N   0  0  0  0  0  2  0  0  0  0  0  0
   -1.1941    2.9426    0.0651 C   0  0  0  0  0  0  0  0  0  0  0  0
    0.1924    3.3953    0.5130 C   0  0  0  0  0  0  0  0  0  0  0  0
    1.2932    2.8451   -0.3934 C   0  0  0  0  0  0  0  0  0  0  0  0
    1.4343    1.4102   -0.2469 N   0  0  0  0  0  2  0  0  0  0  0  0
    2.6285    0.8429   -0.2704 C   0  0  0  0  0  3  0  0  0  0  0  0
    2.6498   -0.5607   -0.1107 C   0  0  0  0  0  0  0  0  0  0  0  0
    3.6323   -1.5626    0.0865 C   0  0  0  0  0  3  0  0  0  0  0  0
    2.9243   -2.7406    0.3869 C   0  0  0  0  0  0  0  0  0  0  0  0
    1.5442   -2.4133    0.3631 C   0  0  0  0  0  0  0  0  0  0  0  0
    1.3796   -1.1078    0.0450 N   0  0  0  0  0  0  0  0  0  0  0  0
   -0.9064   -3.0314   -0.6728 H   0  0  0  0  0  0  0  0  0  0  0  0
   -3.5765   -3.5673   -0.4045 H   0  0  0  0  0  0  0  0  0  0  0  0
   -4.7737   -1.1949    0.2657 H   0  0  0  0  0  0  0  0  0  0  0  0
   -3.4377    1.6326    0.4558 H   0  0  0  0  0  0  0  0  0  0  0  0
   -1.3589    3.3064   -0.9778 H   0  0  0  0  0  0  0  0  0  0  0  0
   -1.9746    3.4236    0.6960 H   0  0  0  0  0  0  0  0  0  0  0  0
    0.2246    4.5041    0.4895 H   0  0  0  0  0  0  0  0  0  0  0  0
    0.3814    3.0794    1.5610 H   0  0  0  0  0  0  0  0  0  0  0  0
    1.0432    3.0951   -1.4524 H   0  0  0  0  0  0  0  0  0  0  0  0
    2.2628    3.3414   -0.1671 H   0  0  0  0  0  0  0  0  0  0  0  0
    3.5437    1.4527   -0.3831 H   0  0  0  0  0  0  0  0  0  0  0  0
    4.7193   -1.4293    0.0329 H   0  0  0  0  0  0  0  0  0  0  0  0
    3.3436   -3.7290    0.6088 H   0  0  0  0  0  0  0  0  0  0  0  0
    0.6913   -3.0634    0.5864 H   0  0  0  0  0  0  0  0  0  0  0  0
  1  5  1  0  0  0  0
  2  3  1  0  0  0  0
  2  1  1  0  0  0  0
  3  4  2  0  0  0  0
  4  5  1  0  0  0  0
  4 20  1  0  0  0  0
  5  6  2  0  0  0  0
  6 21  1  0  0  0  0
  7  6  1  0  0  0  0
  8  7  1  0  0  0  0
  8  9  1  0  0  0  0
  8 23  1  0  0  0  0
  9 25  1  0  0  0  0
 10 11  1  0  0  0  0
 10 27  1  0  0  0  0
 10  9  1  0  0  0  0
 12 11  1  0  0  0  0
 12 13  1  0  0  0  0
 13 17  2  0  0  0  0
 13 14  1  0  0  0  0
 14 15  1  0  0  0  0
 15 30  1  0  0  0  0
 16 15  2  0  0  0  0
 16 31  1  0  0  0  0
 17 16  1  0  0  0  0
 18  2  1  0  0  0  0
 19  3  1  0  0  0  0
 22  8  1  0  0  0  0
 24  9  1  0  0  0  0
 26 10  1  0  0  0  0
 28 12  1  0  0  0  0
 29 14  1  0  0  0  0
M  END
