5,6,7,8
 OpenBabel05122313063D

 38 40  0  0  1  0  0  0  0  0999 V2000
   -1.8688    3.0850    0.2239 O   0  0  0  0  0  0  0  0  0  0  0  0
   -0.1729   -3.8383   -0.2498 O   0  0  0  0  0  0  0  0  0  0  0  0
   -6.0193    1.1187    0.0532 O   0  0  0  0  0  0  0  0  0  0  0  0
   -6.6107   -0.9841   -0.0034 O   0  0  0  0  0  0  0  0  0  0  0  0
   -0.9017    0.9599   -0.0008 N   0  0  0  0  0  2  0  0  0  0  0  0
   -0.3047   -1.5047   -0.0203 N   0  0  0  0  0  2  0  0  0  0  0  0
    2.2360   -1.2161    0.1221 N   0  0  0  0  0  2  0  0  0  0  0  0
    1.4844    1.8707   -0.1114 N   0  0  0  0  0  2  0  0  0  0  0  0
   -5.7517   -0.0888    0.0176 N   0  0  0  0  0  0  0  0  0  0  0  0
   -2.0078    0.1233   -0.0001 C   0  0  0  0  0  0  0  0  0  0  0  0
   -3.3556    0.5180    0.0199 C   0  0  0  0  0  0  0  0  0  0  0  0
   -3.6230    1.5793    0.0529 H   0  0  0  0  0  0  0  0  0  0  0  0
   -4.3410   -0.4850   -0.0014 C   0  0  0  0  0  0  0  0  0  0  0  0
   -4.0240   -1.8559   -0.0417 C   0  0  0  0  0  0  0  0  0  0  0  0
   -4.8450   -2.5841   -0.0602 H   0  0  0  0  0  0  0  0  0  0  0  0
   -2.6853   -2.2538   -0.0559 C   0  0  0  0  0  0  0  0  0  0  0  0
   -2.3906   -3.3095   -0.0898 H   0  0  0  0  0  0  0  0  0  0  0  0
   -1.6653   -1.2731   -0.0285 C   0  0  0  0  0  0  0  0  0  0  0  0
   -0.9018    2.3118    0.1178 C   0  0  0  0  0  0  0  0  0  0  0  0
    0.5124    2.8114    0.0377 C   0  0  2  0  0  3  0  0  0  0  0  0
    0.7975    4.1833    0.0234 C   0  0  0  0  0  0  0  0  0  0  0  0
   -0.0535    4.8674    0.1548 H   0  0  0  0  0  0  0  0  0  0  0  0
    2.1160    4.6039   -0.1777 C   0  0  0  0  0  0  0  0  0  0  0  0
    2.3722    5.6746   -0.1887 H   0  0  0  0  0  0  0  0  0  0  0  0
    3.1033    3.6291   -0.3958 C   0  0  0  0  0  0  0  0  0  0  0  0
    4.1486    3.9040   -0.5984 H   0  0  0  0  0  0  0  0  0  0  0  0
    2.7413    2.2766   -0.3656 C   0  0  0  0  0  0  0  0  0  0  0  0
    3.4748    1.4883   -0.5815 H   0  0  0  0  0  0  0  0  0  0  0  0
    0.3250   -2.7061   -0.1344 C   0  0  0  0  0  0  0  0  0  0  0  0
    1.8093   -2.4982   -0.0365 C   0  0  2  0  0  3  0  0  0  0  0  0
    2.6931   -3.5850   -0.0145 C   0  0  0  0  0  0  0  0  0  0  0  0
    2.2560   -4.5844   -0.1543 H   0  0  0  0  0  0  0  0  0  0  0  0
    4.0550   -3.3520    0.2041 C   0  0  0  0  0  0  0  0  0  0  0  0
    4.7753   -4.1844    0.2209 H   0  0  0  0  0  0  0  0  0  0  0  0
    4.4790   -2.0329    0.4319 C   0  0  0  0  0  0  0  0  0  0  0  0
    5.5309   -1.7962    0.6479 H   0  0  0  0  0  0  0  0  0  0  0  0
    3.5353   -0.9987    0.3938 C   0  0  0  0  0  0  0  0  0  0  0  0
    3.8201    0.0382    0.6164 H   0  0  0  0  0  0  0  0  0  0  0  0
  2 29  2  0  0  0  0
  4  9  2  0  0  0  0
  5 10  1  0  0  0  0
  5 19  1  0  0  0  0
  7 37  1  0  0  0  0
  8 20  1  0  0  0  0
  9  3  2  0  0  0  0
 10 11  1  0  0  0  0
 11 12  1  0  0  0  0
 13  9  1  0  0  0  0
 13 11  2  0  0  0  0
 14 13  1  0  0  0  0
 15 14  1  0  0  0  0
 16 14  2  0  0  0  0
 16 18  1  0  0  0  0
 17 16  1  0  0  0  0
 18  6  1  0  0  0  0
 18 10  2  0  0  0  0
 19  1  2  0  0  0  0
 20 19  1  6  0  0  0
 21 20  1  0  0  0  0
 21 22  1  0  0  0  0
 23 21  2  0  0  0  0
 24 23  1  0  0  0  0
 25 27  2  0  0  0  0
 25 23  1  0  0  0  0
 26 25  1  0  0  0  0
 27  8  1  0  0  0  0
 28 27  1  0  0  0  0
 29  6  1  0  0  0  0
 30 29  1  1  0  0  0
 30 31  1  0  0  0  0
 30  7  1  0  0  0  0
 31 33  2  0  0  0  0
 32 31  1  0  0  0  0
 33 34  1  0  0  0  0
 33 35  1  0  0  0  0
 35 36  1  0  0  0  0
 37 35  2  0  0  0  0
 37 38  1  0  0  0  0
M  END
