1,2,3,4
 OpenBabel05122313063D

 60 64  0  0  1  0  0  0  0  0999 V2000
   -2.3089   -0.1414    0.0000 N   0  0  0  0  0  0  0  0  0  0  0  0
   -0.0000    0.8355   -1.2778 N   0  0  0  0  0  2  0  0  0  0  0  0
    2.3089   -0.1414   -0.0001 N   0  0  0  0  0  0  0  0  0  0  0  0
    0.0000    0.8355    1.2777 N   0  0  0  0  0  2  0  0  0  0  0  0
   -2.4131    0.6219   -1.2424 C   0  0  0  0  0  0  0  0  0  0  0  0
   -3.3315    1.2515   -1.3143 H   0  0  0  0  0  0  0  0  0  0  0  0
   -2.4560   -0.1329   -2.0581 H   0  0  0  0  0  0  0  0  0  0  0  0
   -1.1812    1.4607   -1.5058 C   0  0  2  0  0  3  0  0  0  0  0  0
   -1.2108    2.7647   -2.0138 C   0  0  0  0  0  0  0  0  0  0  0  0
   -2.1802    3.2530   -2.1923 H   0  0  0  0  0  0  0  0  0  0  0  0
    0.0000    3.4294   -2.2705 C   0  0  0  0  0  0  0  0  0  0  0  0
    0.0000    4.4632   -2.6459 H   0  0  0  0  0  0  0  0  0  0  0  0
    1.2109    2.7646   -2.0140 C   0  0  0  0  0  0  0  0  0  0  0  0
    2.1803    3.2528   -2.1927 H   0  0  0  0  0  0  0  0  0  0  0  0
    1.1812    1.4606   -1.5060 C   0  0  0  0  0  0  0  0  0  0  0  0
    2.4130    0.6216   -1.2427 C   0  0  0  0  0  0  0  0  0  0  0  0
    2.4554   -0.1335   -2.0583 H   0  0  0  0  0  0  0  0  0  0  0  0
    3.3315    1.2510   -1.3151 H   0  0  0  0  0  0  0  0  0  0  0  0
    2.4131    0.6220    1.2423 C   0  0  0  0  0  0  0  0  0  0  0  0
    3.3315    1.2516    1.3142 H   0  0  0  0  0  0  0  0  0  0  0  0
    2.4560   -0.1328    2.0581 H   0  0  0  0  0  0  0  0  0  0  0  0
    1.1812    1.4608    1.5057 C   0  0  2  0  0  3  0  0  0  0  0  0
    1.2108    2.7647    2.0138 C   0  0  0  0  0  0  0  0  0  0  0  0
    2.1802    3.2531    2.1924 H   0  0  0  0  0  0  0  0  0  0  0  0
   -0.0001    3.4294    2.2706 C   0  0  0  0  0  0  0  0  0  0  0  0
   -0.0001    4.4631    2.6460 H   0  0  0  0  0  0  0  0  0  0  0  0
   -1.2109    2.7645    2.0140 C   0  0  0  0  0  0  0  0  0  0  0  0
   -2.1803    3.2527    2.1928 H   0  0  0  0  0  0  0  0  0  0  0  0
   -1.1812    1.4606    1.5059 C   0  0  0  0  0  0  0  0  0  0  0  0
   -2.4130    0.6216    1.2426 C   0  0  0  0  0  0  0  0  0  0  0  0
   -2.4555   -0.1335    2.0582 H   0  0  0  0  0  0  0  0  0  0  0  0
   -3.3315    1.2509    1.3149 H   0  0  0  0  0  0  0  0  0  0  0  0
   -3.0602   -1.4118   -0.0001 C   0  0  0  0  0  0  0  0  0  0  0  0
   -2.7115   -1.9790    0.8874 H   0  0  0  0  0  0  0  0  0  0  0  0
   -2.7116   -1.9788   -0.8877 H   0  0  0  0  0  0  0  0  0  0  0  0
   -4.5641   -1.2362   -0.0001 C   0  0  0  0  0  0  0  0  0  0  0  0
   -5.2795   -1.1221    1.2108 C   0  0  0  0  0  0  0  0  0  0  0  0
   -4.7416   -1.2357    2.1656 H   0  0  0  0  0  0  0  0  0  0  0  0
   -6.6624   -0.8865    1.2135 C   0  0  0  0  0  0  0  0  0  0  0  0
   -7.2032   -0.8079    2.1693 H   0  0  0  0  0  0  0  0  0  0  0  0
   -7.3581   -0.7630   -0.0000 C   0  0  0  0  0  0  0  0  0  0  0  0
   -8.4437   -0.5817   -0.0000 H   0  0  0  0  0  0  0  0  0  0  0  0
   -6.6625   -0.8867   -1.2136 C   0  0  0  0  0  0  0  0  0  0  0  0
   -7.2033   -0.8083   -2.1693 H   0  0  0  0  0  0  0  0  0  0  0  0
   -5.2796   -1.1223   -1.2109 C   0  0  0  0  0  0  0  0  0  0  0  0
   -4.7417   -1.2360   -2.1657 H   0  0  0  0  0  0  0  0  0  0  0  0
    3.0602   -1.4118    0.0001 C   0  0  0  0  0  0  0  0  0  0  0  0
    2.7115   -1.9790   -0.8874 H   0  0  0  0  0  0  0  0  0  0  0  0
    2.7115   -1.9787    0.8877 H   0  0  0  0  0  0  0  0  0  0  0  0
    4.5641   -1.2362    0.0001 C   0  0  0  0  0  0  0  0  0  0  0  0
    5.2795   -1.1221   -1.2108 C   0  0  0  0  0  0  0  0  0  0  0  0
    4.7416   -1.2356   -2.1656 H   0  0  0  0  0  0  0  0  0  0  0  0
    6.6624   -0.8864   -1.2135 C   0  0  0  0  0  0  0  0  0  0  0  0
    7.2032   -0.8078   -2.1692 H   0  0  0  0  0  0  0  0  0  0  0  0
    7.3581   -0.7630    0.0001 C   0  0  0  0  0  0  0  0  0  0  0  0
    8.4437   -0.5817    0.0001 H   0  0  0  0  0  0  0  0  0  0  0  0
    6.6625   -0.8867    1.2136 C   0  0  0  0  0  0  0  0  0  0  0  0
    7.2033   -0.8083    2.1694 H   0  0  0  0  0  0  0  0  0  0  0  0
    5.2795   -1.1223    1.2109 C   0  0  0  0  0  0  0  0  0  0  0  0
    4.7416   -1.2360    2.1657 H   0  0  0  0  0  0  0  0  0  0  0  0
  1 30  1  0  0  0  0
  3 47  1  0  0  0  0
  3 19  1  0  0  0  0
  4 29  1  0  0  0  0
  5  1  1  0  0  0  0
  6  5  1  0  0  0  0
  7  5  1  0  0  0  0
  8  9  1  6  0  0  0
  8  2  1  0  0  0  0
  8  5  1  0  0  0  0
 10  9  1  0  0  0  0
 11 13  1  0  0  0  0
 11  9  2  0  0  0  0
 12 11  1  0  0  0  0
 13 15  2  0  0  0  0
 14 13  1  0  0  0  0
 15  2  1  0  0  0  0
 15 16  1  0  0  0  0
 16  3  1  0  0  0  0
 17 16  1  0  0  0  0
 18 16  1  0  0  0  0
 19 20  1  0  0  0  0
 19 22  1  0  0  0  0
 19 21  1  0  0  0  0
 22  4  1  1  0  0  0
 22 23  1  0  0  0  0
 23 24  1  0  0  0  0
 23 25  2  0  0  0  0
 25 26  1  0  0  0  0
 27 28  1  0  0  0  0
 27 25  1  0  0  0  0
 29 27  2  0  0  0  0
 30 32  1  0  0  0  0
 30 29  1  0  0  0  0
 30 31  1  0  0  0  0
 33 36  1  0  0  0  0
 33  1  1  0  0  0  0
 33 34  1  0  0  0  0
 35 33  1  0  0  0  0
 36 37  1  0  0  0  0
 37 39  2  0  0  0  0
 37 38  1  0  0  0  0
 39 40  1  0  0  0  0
 41 42  1  0  0  0  0
 41 39  1  0  0  0  0
 43 45  1  0  0  0  0
 43 41  2  0  0  0  0
 44 43  1  0  0  0  0
 45 36  2  0  0  0  0
 46 45  1  0  0  0  0
 47 49  1  0  0  0  0
 48 47  1  0  0  0  0
 50 47  1  0  0  0  0
 50 59  1  0  0  0  0
 51 50  2  0  0  0  0
 52 51  1  0  0  0  0
 53 51  1  0  0  0  0
 53 55  2  0  0  0  0
 54 53  1  0  0  0  0
 55 56  1  0  0  0  0
 55 57  1  0  0  0  0
 57 58  1  0  0  0  0
 59 57  2  0  0  0  0
 59 60  1  0  0  0  0
M  END
