1,2,3,4
 OpenBabel05122313063D

 54 56  0  0  1  0  0  0  0  0999 V2000
   -2.3743    1.1761   -0.6941 N   0  0  0  0  0  2  0  0  0  0  0  0
   -2.1808   -1.1177    0.0543 N   0  0  0  0  0  2  0  0  0  0  0  0
    0.1513   -0.9804    0.8114 N   0  0  0  0  0  2  0  0  0  0  0  0
   -0.0256    1.8175    0.6358 N   0  0  0  0  0  2  0  0  0  0  0  0
    4.0948    0.1105   -0.7244 N   0  0  0  0  0  0  0  0  0  0  0  0
   -4.6888    1.0428   -1.6909 C   0  0  0  0  0  0  0  0  0  0  0  0
   -5.0653    1.9773   -1.2229 H   0  0  0  0  0  0  0  0  0  0  0  0
   -5.5257    0.3202   -1.7042 H   0  0  0  0  0  0  0  0  0  0  0  0
   -4.4539    1.2876   -2.7515 H   0  0  0  0  0  0  0  0  0  0  0  0
   -3.5096    0.4782   -0.9579 C   0  0  0  0  0  0  0  0  0  0  0  0
   -3.4211   -0.8780   -0.5107 C   0  0  0  0  0  0  0  0  0  0  0  0
   -4.3442   -1.9486   -0.5971 C   0  0  0  0  0  0  0  0  0  0  0  0
   -5.3342   -1.7873   -1.0472 H   0  0  0  0  0  0  0  0  0  0  0  0
   -3.9808   -3.2055   -0.1092 C   0  0  0  0  0  0  0  0  0  0  0  0
   -4.6912   -4.0432   -0.1754 H   0  0  0  0  0  0  0  0  0  0  0  0
   -2.7008   -3.4112    0.4644 C   0  0  0  0  0  0  0  0  0  0  0  0
   -2.4021   -4.3963    0.8494 H   0  0  0  0  0  0  0  0  0  0  0  0
   -1.8133   -2.3335    0.5154 C   0  0  0  0  0  0  0  0  0  0  0  0
   -0.3912   -2.3251    1.0253 C   0  0  2  0  0  0  0  0  0  0  0  0
    0.1763   -3.0832    0.4248 H   0  0  0  0  0  0  0  0  0  0  0  0
   -0.3103   -2.7551    2.5046 C   0  0  0  0  0  0  0  0  0  0  0  0
    0.7391   -2.7104    2.8589 H   0  0  0  0  0  0  0  0  0  0  0  0
   -0.6733   -3.7924    2.6545 H   0  0  0  0  0  0  0  0  0  0  0  0
   -0.9187   -2.0684    3.1262 H   0  0  0  0  0  0  0  0  0  0  0  0
   -2.2314    2.5226   -1.2245 C   0  0  0  0  0  0  0  0  0  0  0  0
   -2.6921    3.2638   -0.5296 H   0  0  0  0  0  0  0  0  0  0  0  0
   -2.7607    2.6263   -2.1961 H   0  0  0  0  0  0  0  0  0  0  0  0
   -0.7504    2.8676   -1.4372 C   0  0  0  0  0  0  0  0  0  0  0  0
   -0.3036    2.0770   -2.0796 H   0  0  0  0  0  0  0  0  0  0  0  0
   -0.6693    3.8334   -1.9740 H   0  0  0  0  0  0  0  0  0  0  0  0
    0.0000    2.9460   -0.1406 C   0  0  1  0  0  3  0  0  0  0  0  0
    0.6447    4.1142    0.2862 C   0  0  0  0  0  0  0  0  0  0  0  0
    0.6445    4.9903   -0.3794 H   0  0  0  0  0  0  0  0  0  0  0  0
    1.2811    4.1596    1.5359 C   0  0  0  0  0  0  0  0  0  0  0  0
    1.7945    5.0703    1.8767 H   0  0  0  0  0  0  0  0  0  0  0  0
    1.2298    3.0071    2.3385 C   0  0  0  0  0  0  0  0  0  0  0  0
    1.6953    2.9803    3.3344 H   0  0  0  0  0  0  0  0  0  0  0  0
    0.5747    1.8733    1.8644 C   0  0  0  0  0  0  0  0  0  0  0  0
    0.5018    0.9483    2.4540 H   0  0  0  0  0  0  0  0  0  0  0  0
    1.5884   -0.9379    0.6800 C   0  0  0  0  0  0  0  0  0  0  0  0
    2.0843   -1.6462    1.3884 H   0  0  0  0  0  0  0  0  0  0  0  0
    1.9755    0.0704    0.9305 H   0  0  0  0  0  0  0  0  0  0  0  0
    2.0875   -1.2497   -0.7582 C   0  0  0  0  0  0  0  0  0  0  0  0
    1.7506   -2.2582   -1.0744 H   0  0  0  0  0  0  0  0  0  0  0  0
    1.6108   -0.5054   -1.4289 H   0  0  0  0  0  0  0  0  0  0  0  0
    3.5837   -1.1335   -0.8609 C   0  0  0  0  0  0  0  0  0  0  0  0
    4.4137   -2.2623   -1.0333 C   0  0  0  0  0  0  0  0  0  0  0  0
    3.9646   -3.2620   -1.1367 H   0  0  0  0  0  0  0  0  0  0  0  0
    5.8034   -2.0913   -1.0785 C   0  0  0  0  0  0  0  0  0  0  0  0
    6.4690   -2.9573   -1.2191 H   0  0  0  0  0  0  0  0  0  0  0  0
    6.3286   -0.7982   -0.9425 C   0  0  0  0  0  0  0  0  0  0  0  0
    7.4126   -0.6119   -0.9722 H   0  0  0  0  0  0  0  0  0  0  0  0
    5.4251    0.2630   -0.7657 C   0  0  0  0  0  0  0  0  0  0  0  0
    5.8015    1.2965   -0.6530 H   0  0  0  0  0  0  0  0  0  0  0  0
  2 18  1  0  0  0  0
  3 19  1  0  0  0  0
  4 38  1  0  0  0  0
  6  7  1  0  0  0  0
  6 10  1  0  0  0  0
  8  6  1  0  0  0  0
  9  6  1  0  0  0  0
 10  1  1  0  0  0  0
 10 11  2  0  0  0  0
 11  2  1  0  0  0  0
 12 11  1  0  0  0  0
 12 14  2  0  0  0  0
 13 12  1  0  0  0  0
 14 16  1  0  0  0  0
 15 14  1  0  0  0  0
 16 18  2  0  0  0  0
 16 17  1  0  0  0  0
 18 19  1  0  0  0  0
 19 20  1  6  0  0  0
 19 21  1  0  0  0  0
 21 23  1  0  0  0  0
 21 22  1  0  0  0  0
 21 24  1  0  0  0  0
 25  1  1  0  0  0  0
 25 26  1  0  0  0  0
 27 25  1  0  0  0  0
 28 25  1  0  0  0  0
 29 28  1  0  0  0  0
 30 28  1  0  0  0  0
 31 28  1  1  0  0  0
 31 32  1  0  0  0  0
 31  4  1  0  0  0  0
 32 34  2  0  0  0  0
 33 32  1  0  0  0  0
 34 35  1  0  0  0  0
 34 36  1  0  0  0  0
 36 37  1  0  0  0  0
 38 36  2  0  0  0  0
 38 39  1  0  0  0  0
 40  3  1  0  0  0  0
 40 42  1  0  0  0  0
 40 41  1  0  0  0  0
 43 40  1  0  0  0  0
 44 43  1  0  0  0  0
 45 43  1  0  0  0  0
 46 43  1  0  0  0  0
 46  5  2  0  0  0  0
 47 46  1  0  0  0  0
 48 47  1  0  0  0  0
 49 47  2  0  0  0  0
 49 51  1  0  0  0  0
 50 49  1  0  0  0  0
 51 53  2  0  0  0  0
 52 51  1  0  0  0  0
 53  5  1  0  0  0  0
 53 54  1  0  0  0  0
M  END
