6,7,8,9
 OpenBabel05122313063D

 65 68  0  0  1  0  0  0  0  0999 V2000
   -5.1449    0.3502   -1.6346 O   0  0  0  0  0  0  0  0  0  0  0  0
   -0.8386   -0.4191   -1.5144 O   0  0  0  0  0  0  0  0  0  0  0  0
   -2.9688    0.2788    1.9477 N   0  0  0  0  0  0  0  0  0  0  0  0
   -4.8620    0.4899    0.6476 N   0  0  0  0  0  0  0  0  0  0  0  0
   -2.8097    0.0241   -0.4169 N   0  0  0  0  0  0  0  0  0  0  0  0
    3.3207    0.0064    1.3637 N   0  0  0  0  0  0  0  0  0  0  0  0
    0.5130   -0.4019    0.9749 N   0  0  0  0  0  2  0  0  0  0  0  0
    2.3836   -1.9472   -0.7446 N   0  0  0  0  0  2  0  0  0  0  0  0
    1.5726    2.0339   -0.5309 N   0  0  0  0  0  2  0  0  0  0  0  0
   -1.0639    0.0380    3.2764 N   0  0  0  0  0  0  0  0  0  0  0  0
   -3.4951    0.2552    0.7490 C   0  0  1  0  0  3  0  0  0  0  0  0
   -1.4321   -0.2084   -0.4573 C   0  0  0  0  0  0  0  0  0  0  0  0
   -0.8112   -0.1738    0.8816 C   0  0  1  0  0  3  0  0  0  0  0  0
    1.0531   -0.4512    2.2045 C   0  0  1  0  0  3  0  0  0  0  0  0
    0.2400   -0.2137    3.3421 C   0  0  0  0  0  0  0  0  0  0  0  0
   -1.6223    0.0498    2.0405 C   0  0  0  0  0  0  0  0  0  0  0  0
    4.6367   -0.6164    1.0953 C   0  0  0  0  0  0  0  0  0  0  0  0
    4.7145   -1.4562   -0.1941 C   0  0  0  0  0  0  0  0  0  0  0  0
    3.6110   -2.4444   -0.4439 C   0  0  2  0  0  3  0  0  0  0  0  0
    3.8243   -3.8360   -0.4418 C   0  0  0  0  0  0  0  0  0  0  0  0
    2.7788   -4.7028   -0.7822 C   0  0  0  0  0  0  0  0  0  0  0  0
    1.5306   -4.1612   -1.1217 C   0  0  0  0  0  0  0  0  0  0  0  0
    1.3734   -2.7723   -1.0824 C   0  0  0  0  0  0  0  0  0  0  0  0
    3.4370    1.4050    1.8130 C   0  0  0  0  0  0  0  0  0  0  0  0
    3.6986    2.3884    0.6583 C   0  0  0  0  0  0  0  0  0  0  0  0
    2.4588    2.9199   -0.0107 C   0  0  1  0  0  3  0  0  0  0  0  0
    2.2372    4.3033   -0.1380 C   0  0  0  0  0  0  0  0  0  0  0  0
    1.1182    4.7730   -0.8347 C   0  0  0  0  0  0  0  0  0  0  0  0
    0.2397    3.8407   -1.4029 C   0  0  0  0  0  0  0  0  0  0  0  0
    0.5060    2.4802   -1.2292 C   0  0  0  0  0  0  0  0  0  0  0  0
    2.5194   -0.7952    2.2939 C   0  0  0  0  0  0  0  0  0  0  0  0
   -5.6258    0.5419   -0.5150 C   0  0  0  0  0  0  0  0  0  0  0  0
   -7.6782   -0.6613   -0.2668 C   0  0  0  0  0  3  0  0  0  0  0  0
   -7.8552   -1.3902    1.0116 C   0  0  0  0  0  0  0  0  0  0  0  0
   -7.8941   -1.3369   -1.5654 C   0  0  0  0  0  0  0  0  0  0  0  0
   -7.1328    0.7278   -0.2901 C   0  0  0  0  0  0  0  0  0  0  0  0
   -3.3702    0.0359   -1.2952 H   0  0  0  0  0  0  0  0  0  0  0  0
   -5.2972    0.6759    1.5562 H   0  0  0  0  0  0  0  0  0  0  0  0
    5.3890    0.1906    0.9986 H   0  0  0  0  0  0  0  0  0  0  0  0
    4.9486   -1.2199    1.9790 H   0  0  0  0  0  0  0  0  0  0  0  0
    4.6951   -0.7609   -1.0648 H   0  0  0  0  0  0  0  0  0  0  0  0
    5.6872   -1.9853   -0.1942 H   0  0  0  0  0  0  0  0  0  0  0  0
    4.8213   -4.2257   -0.1898 H   0  0  0  0  0  0  0  0  0  0  0  0
    2.9410   -5.7911   -0.7947 H   0  0  0  0  0  0  0  0  0  0  0  0
    0.6868   -4.8007   -1.4171 H   0  0  0  0  0  0  0  0  0  0  0  0
    0.4206   -2.2802   -1.3372 H   0  0  0  0  0  0  0  0  0  0  0  0
    2.4919    1.6831    2.3234 H   0  0  0  0  0  0  0  0  0  0  0  0
    4.2428    1.4978    2.5797 H   0  0  0  0  0  0  0  0  0  0  0  0
    4.2914    3.2447    1.0315 H   0  0  0  0  0  0  0  0  0  0  0  0
    4.3036    1.8908   -0.1336 H   0  0  0  0  0  0  0  0  0  0  0  0
    2.9616    5.0040    0.3015 H   0  0  0  0  0  0  0  0  0  0  0  0
    0.9445    5.8536   -0.9468 H   0  0  0  0  0  0  0  0  0  0  0  0
   -0.6366    4.1552   -1.9870 H   0  0  0  0  0  0  0  0  0  0  0  0
   -0.1270    1.7074   -1.6881 H   0  0  0  0  0  0  0  0  0  0  0  0
    2.6400   -1.8644    2.0196 H   0  0  0  0  0  0  0  0  0  0  0  0
    2.8710   -0.6952    3.3492 H   0  0  0  0  0  0  0  0  0  0  0  0
    0.6972   -0.2400    4.3484 H   0  0  0  0  0  0  0  0  0  0  0  0
   -7.5096    1.3121   -1.1543 H   0  0  0  0  0  0  0  0  0  0  0  0
   -7.3339    1.2774    0.6517 H   0  0  0  0  0  0  0  0  0  0  0  0
   -8.8572   -1.8770    1.0504 H   0  0  0  0  0  0  0  0  0  0  0  0
   -7.1342   -2.2392    1.1060 H   0  0  0  0  0  0  0  0  0  0  0  0
   -7.7476   -0.7451    1.9050 H   0  0  0  0  0  0  0  0  0  0  0  0
   -6.9986   -1.2150   -2.2214 H   0  0  0  0  0  0  0  0  0  0  0  0
   -8.1321   -2.4119   -1.4611 H   0  0  0  0  0  0  0  0  0  0  0  0
   -8.7214   -0.8477   -2.1343 H   0  0  0  0  0  0  0  0  0  0  0  0
  1 32  2  0  0  0  0
  2 12  2  0  0  0  0
  3 16  2  0  0  0  0
  4 38  1  0  0  0  0
  5 11  1  0  0  0  0
  6 24  1  0  0  0  0
  6 31  1  0  0  0  0
  7 14  1  0  0  0  0
  8 19  1  0  0  0  0
  9 26  1  0  0  0  0
 10 15  2  0  0  0  0
 11  4  1  6  0  0  0
 11  3  1  0  0  0  0
 12  5  1  0  0  0  0
 13 12  1  1  0  0  0
 13  7  1  0  0  0  0
 13 16  1  0  0  0  0
 14 31  1  1  0  0  0
 14 15  1  0  0  0  0
 15 57  1  0  0  0  0
 16 10  1  0  0  0  0
 17  6  1  0  0  0  0
 17 40  1  0  0  0  0
 18 17  1  0  0  0  0
 19 20  1  0  0  0  0
 19 18  1  6  0  0  0
 20 43  1  0  0  0  0
 21 20  2  0  0  0  0
 22 23  2  0  0  0  0
 22 21  1  0  0  0  0
 23  8  1  0  0  0  0
 24 47  1  0  0  0  0
 24 48  1  0  0  0  0
 25 49  1  0  0  0  0
 25 24  1  0  0  0  0
 26 25  1  6  0  0  0
 27 26  1  0  0  0  0
 27 51  1  0  0  0  0
 28 27  2  0  0  0  0
 29 30  2  0  0  0  0
 29 28  1  0  0  0  0
 30  9  1  0  0  0  0
 31 56  1  0  0  0  0
 32 36  1  0  0  0  0
 32  4  1  0  0  0  0
 33 34  1  0  0  0  0
 34 60  1  0  0  0  0
 34 61  1  0  0  0  0
 34 62  1  0  0  0  0
 35 64  1  0  0  0  0
 35 33  1  0  0  0  0
 36 33  1  0  0  0  0
 36 59  1  0  0  0  0
 37  5  1  0  0  0  0
 39 17  1  0  0  0  0
 41 18  1  0  0  0  0
 42 18  1  0  0  0  0
 44 21  1  0  0  0  0
 45 22  1  0  0  0  0
 46 23  1  0  0  0  0
 50 25  1  0  0  0  0
 52 28  1  0  0  0  0
 53 29  1  0  0  0  0
 54 30  1  0  0  0  0
 55 31  1  0  0  0  0
 58 36  1  0  0  0  0
 63 35  1  0  0  0  0
 65 35  1  0  0  0  0
M  END
