1,4,6,8
 OpenBabel05122313063D

 32 31  0  0  0  0  0  0  0  0999 V2000
    1.9427   -1.4306    0.1771 N   0  0  0  0  0  0  0  0  0  0  0  0
    2.8031   -1.2427   -0.3577 H   0  0  0  0  0  0  0  0  0  0  0  0
    2.1786   -1.4700    1.1842 H   0  0  0  0  0  0  0  0  0  0  0  0
   -0.7390   -1.4568   -0.1994 N   0  0  0  0  0  0  0  0  0  0  0  0
   -0.8288   -1.4630   -1.2328 H   0  0  0  0  0  0  0  0  0  0  0  0
   -0.7389    1.4568   -0.1994 N   0  0  0  0  0  0  0  0  0  0  0  0
   -0.8287    1.4630   -1.2328 H   0  0  0  0  0  0  0  0  0  0  0  0
    1.9428    1.4305    0.1771 N   0  0  0  0  0  0  0  0  0  0  0  0
    2.1786    1.4699    1.1842 H   0  0  0  0  0  0  0  0  0  0  0  0
    2.8032    1.2426   -0.3577 H   0  0  0  0  0  0  0  0  0  0  0  0
    1.3364   -2.7080   -0.2725 C   0  0  0  0  0  0  0  0  0  0  0  0
    1.9056   -3.5876    0.0922 H   0  0  0  0  0  0  0  0  0  0  0  0
    1.3571   -2.7107   -1.3804 H   0  0  0  0  0  0  0  0  0  0  0  0
   -0.0919   -2.7194    0.2377 C   0  0  0  0  0  0  0  0  0  0  0  0
   -0.6529   -3.6048   -0.1294 H   0  0  0  0  0  0  0  0  0  0  0  0
   -0.1121   -2.7306    1.3466 H   0  0  0  0  0  0  0  0  0  0  0  0
   -2.0843   -1.2744    0.4017 C   0  0  0  0  0  0  0  0  0  0  0  0
   -1.9378   -1.2536    1.5018 H   0  0  0  0  0  0  0  0  0  0  0  0
   -2.7162   -2.1514    0.1468 H   0  0  0  0  0  0  0  0  0  0  0  0
   -2.7393    0.0000   -0.0601 C   0  0  0  0  0  0  0  0  0  0  0  0
   -2.0843    1.2745    0.4016 C   0  0  0  0  0  0  0  0  0  0  0  0
   -2.7162    2.1515    0.1466 H   0  0  0  0  0  0  0  0  0  0  0  0
   -1.9378    1.2537    1.5018 H   0  0  0  0  0  0  0  0  0  0  0  0
   -0.0918    2.7194    0.2376 C   0  0  0  0  0  0  0  0  0  0  0  0
   -0.1120    2.7306    1.3466 H   0  0  0  0  0  0  0  0  0  0  0  0
   -0.6528    3.6048   -0.1294 H   0  0  0  0  0  0  0  0  0  0  0  0
    1.3365    2.7080   -0.2725 C   0  0  0  0  0  0  0  0  0  0  0  0
    1.3572    2.7107   -1.3805 H   0  0  0  0  0  0  0  0  0  0  0  0
    1.9058    3.5875    0.0922 H   0  0  0  0  0  0  0  0  0  0  0  0
   -3.8652    0.0000   -0.8002 C   0  0  0  0  0  0  0  0  0  0  0  0
   -4.3529   -0.9390   -1.1057 H   0  0  0  0  0  0  0  0  0  0  0  0
   -4.3529    0.9390   -1.1058 H   0  0  0  0  0  0  0  0  0  0  0  0
  1  3  1  0  0  0  0
  2  1  1  0  0  0  0
  4 14  1  0  0  0  0
  4 17  1  0  0  0  0
  5  4  1  0  0  0  0
  6 24  1  0  0  0  0
  6 21  1  0  0  0  0
  7  6  1  0  0  0  0
  8  9  1  0  0  0  0
 10  8  1  0  0  0  0
 11 12  1  0  0  0  0
 11  1  1  0  0  0  0
 11 14  1  0  0  0  0
 13 11  1  0  0  0  0
 14 16  1  0  0  0  0
 15 14  1  0  0  0  0
 17 18  1  0  0  0  0
 19 17  1  0  0  0  0
 20 21  1  0  0  0  0
 20 17  1  0  0  0  0
 21 23  1  0  0  0  0
 22 21  1  0  0  0  0
 24 25  1  0  0  0  0
 26 24  1  0  0  0  0
 27 29  1  0  0  0  0
 27  8  1  0  0  0  0
 27 24  1  0  0  0  0
 28 27  1  0  0  0  0
 30 20  2  0  0  0  0
 31 30  1  0  0  0  0
 32 30  1  0  0  0  0
M  END
