1,2,27,28
 OpenBabel05122313063D

 48 52  0  0  0  0  0  0  0  0999 V2000
   -1.3866    1.2697   -0.2965 N   0  0  0  0  0  2  0  0  0  0  0  0
   -1.3866   -1.2698   -0.2962 N   0  0  0  0  0  2  0  0  0  0  0  0
   -2.6671    0.7177   -0.1036 C   0  0  0  0  0  0  0  0  0  0  0  0
   -3.8573    1.4133    0.0904 C   0  0  0  0  0  0  0  0  0  0  0  0
   -5.0872    0.7224    0.2737 C   0  0  0  0  0  0  0  0  0  0  0  0
   -6.3206    1.4094    0.4736 C   0  0  0  0  0  0  0  0  0  0  0  0
   -7.5048    0.7107    0.6609 C   0  0  0  0  0  0  0  0  0  0  0  0
   -7.5048   -0.7106    0.6610 C   0  0  0  0  0  0  0  0  0  0  0  0
   -6.3206   -1.4093    0.4736 C   0  0  0  0  0  0  0  0  0  0  0  0
   -5.0873   -0.7224    0.2737 C   0  0  0  0  0  0  0  0  0  0  0  0
   -3.8574   -1.4133    0.0904 C   0  0  0  0  0  0  0  0  0  0  0  0
   -2.6671   -0.7177   -0.1035 C   0  0  0  0  0  0  0  0  0  0  0  0
   -1.2316    2.5815   -0.4907 C   0  0  0  0  0  3  0  0  0  0  0  0
    0.0000    3.2339   -0.6113 C   0  0  0  0  0  0  0  0  0  0  0  0
   -1.2316   -2.5816   -0.4907 C   0  0  0  0  0  3  0  0  0  0  0  0
    0.0000   -3.2339   -0.6114 C   0  0  0  0  0  0  0  0  0  0  0  0
   -3.8732    2.5117    0.1262 H   0  0  0  0  0  0  0  0  0  0  0  0
   -6.3173    2.5108    0.4753 H   0  0  0  0  0  0  0  0  0  0  0  0
   -8.4484    1.2567    0.8109 H   0  0  0  0  0  0  0  0  0  0  0  0
   -8.4484   -1.2566    0.8110 H   0  0  0  0  0  0  0  0  0  0  0  0
   -6.3174   -2.5107    0.4753 H   0  0  0  0  0  0  0  0  0  0  0  0
   -3.8733   -2.5117    0.1261 H   0  0  0  0  0  0  0  0  0  0  0  0
   -2.1446    3.1971   -0.5662 H   0  0  0  0  0  0  0  0  0  0  0  0
    0.0000    4.3161   -0.7936 H   0  0  0  0  0  0  0  0  0  0  0  0
   -2.1446   -3.1972   -0.5662 H   0  0  0  0  0  0  0  0  0  0  0  0
    0.0000   -4.3161   -0.7937 H   0  0  0  0  0  0  0  0  0  0  0  0
    1.3866    1.2697   -0.2965 N   0  0  0  0  0  2  0  0  0  0  0  0
    1.3866   -1.2698   -0.2962 N   0  0  0  0  0  2  0  0  0  0  0  0
    2.6671    0.7177   -0.1035 C   0  0  0  0  0  0  0  0  0  0  0  0
    3.8573    1.4133    0.0904 C   0  0  0  0  0  0  0  0  0  0  0  0
    5.0872    0.7224    0.2737 C   0  0  0  0  0  0  0  0  0  0  0  0
    6.3206    1.4094    0.4735 C   0  0  0  0  0  0  0  0  0  0  0  0
    7.5048    0.7107    0.6609 C   0  0  0  0  0  0  0  0  0  0  0  0
    7.5048   -0.7106    0.6610 C   0  0  0  0  0  0  0  0  0  0  0  0
    6.3206   -1.4093    0.4736 C   0  0  0  0  0  0  0  0  0  0  0  0
    5.0873   -0.7224    0.2737 C   0  0  0  0  0  0  0  0  0  0  0  0
    3.8574   -1.4133    0.0904 C   0  0  0  0  0  0  0  0  0  0  0  0
    2.6671   -0.7177   -0.1035 C   0  0  0  0  0  0  0  0  0  0  0  0
    1.2316    2.5815   -0.4907 C   0  0  0  0  0  0  0  0  0  0  0  0
    1.2316   -2.5816   -0.4907 C   0  0  0  0  0  0  0  0  0  0  0  0
    3.8732    2.5117    0.1262 H   0  0  0  0  0  0  0  0  0  0  0  0
    6.3173    2.5108    0.4752 H   0  0  0  0  0  0  0  0  0  0  0  0
    8.4484    1.2567    0.8109 H   0  0  0  0  0  0  0  0  0  0  0  0
    8.4484   -1.2566    0.8110 H   0  0  0  0  0  0  0  0  0  0  0  0
    6.3174   -2.5107    0.4753 H   0  0  0  0  0  0  0  0  0  0  0  0
    3.8733   -2.5117    0.1261 H   0  0  0  0  0  0  0  0  0  0  0  0
    2.1446    3.1971   -0.5662 H   0  0  0  0  0  0  0  0  0  0  0  0
    2.1446   -3.1972   -0.5661 H   0  0  0  0  0  0  0  0  0  0  0  0
  1  3  1  0  0  0  0
  2 12  1  0  0  0  0
  3 12  2  0  0  0  0
  3  4  1  0  0  0  0
  4 17  1  0  0  0  0
  4  5  2  0  0  0  0
  5  6  1  0  0  0  0
  6 18  1  0  0  0  0
  6  7  2  0  0  0  0
  7  8  1  0  0  0  0
  7 19  1  0  0  0  0
  8 20  1  0  0  0  0
  9 21  1  0  0  0  0
  9  8  2  0  0  0  0
 10  5  1  0  0  0  0
 10  9  1  0  0  0  0
 11 22  1  0  0  0  0
 11 10  2  0  0  0  0
 12 11  1  0  0  0  0
 13  1  1  0  0  0  0
 14 13  1  0  0  0  0
 14 39  2  0  0  0  0
 15  2  1  0  0  0  0
 16 15  1  0  0  0  0
 16 40  2  0  0  0  0
 23 13  1  0  0  0  0
 24 14  1  0  0  0  0
 25 15  1  0  0  0  0
 26 16  1  0  0  0  0
 27 29  1  0  0  0  0
 28 38  1  0  0  0  0
 29 38  2  0  0  0  0
 29 30  1  0  0  0  0
 30 41  1  0  0  0  0
 30 31  2  0  0  0  0
 31 32  1  0  0  0  0
 32 42  1  0  0  0  0
 32 33  2  0  0  0  0
 33 34  1  0  0  0  0
 33 43  1  0  0  0  0
 34 44  1  0  0  0  0
 35 45  1  0  0  0  0
 35 34  2  0  0  0  0
 36 31  1  0  0  0  0
 36 35  1  0  0  0  0
 37 46  1  0  0  0  0
 37 36  2  0  0  0  0
 38 37  1  0  0  0  0
 39 27  1  0  0  0  0
 40 28  1  0  0  0  0
 47 39  1  0  0  0  0
 48 40  1  0  0  0  0
M  END
