1,2,3,4
 OpenBabel05122313063D

 81 89  0  0  1  0  0  0  0  0999 V2000
    0.4242   -1.9702   -0.1665 N   0  0  0  0  0  0  0  0  0  0  0  0
    2.4658   -0.0302   -0.0604 N   0  0  0  0  0  2  0  0  0  0  0  0
    0.4809    1.9682   -0.1412 N   0  0  0  0  0  0  0  0  0  0  0  0
   -1.2482    0.0268   -0.4882 N   0  0  0  0  0  2  0  0  0  0  0  0
   -0.7106   -2.7665   -0.1966 C   0  0  0  0  0  0  0  0  0  0  0  0
   -0.3488   -4.1574   -0.1131 C   0  0  0  0  0  0  0  0  0  0  0  0
   -1.0604   -4.9889   -0.1376 H   0  0  0  0  0  0  0  0  0  0  0  0
    1.0220   -4.2116   -0.0237 C   0  0  0  0  0  0  0  0  0  0  0  0
    1.6620   -5.0952    0.0623 H   0  0  0  0  0  0  0  0  0  0  0  0
    1.4979   -2.8512   -0.0651 C   0  0  0  0  0  3  0  0  0  0  0  0
    2.8489   -2.4868    0.0090 C   0  0  0  0  0  0  0  0  0  0  0  0
    3.2844   -1.1486    0.0040 C   0  0  0  0  0  0  0  0  0  0  0  0
    4.6699   -0.7492    0.0625 C   0  0  0  0  0  0  0  0  0  0  0  0
    5.5177   -1.4398    0.1068 H   0  0  0  0  0  0  0  0  0  0  0  0
    4.6905    0.6235    0.0539 C   0  0  0  0  0  0  0  0  0  0  0  0
    5.5580    1.2889    0.1040 H   0  0  0  0  0  0  0  0  0  0  0  0
    3.3188    1.0636   -0.0293 C   0  0  0  0  0  0  0  0  0  0  0  0
    2.9238    2.4145   -0.0407 C   0  0  0  0  0  0  0  0  0  0  0  0
    1.5830    2.8183   -0.0893 C   0  0  0  0  0  3  0  0  0  0  0  0
    1.1509    4.1936   -0.1133 C   0  0  0  0  0  0  0  0  0  0  0  0
    1.8207    5.0591   -0.1129 H   0  0  0  0  0  0  0  0  0  0  0  0
   -0.2229    4.1791   -0.1613 C   0  0  0  0  0  0  0  0  0  0  0  0
   -0.9086    5.0306   -0.2175 H   0  0  0  0  0  0  0  0  0  0  0  0
   -0.6292    2.7978   -0.1805 C   0  0  0  0  0  0  0  0  0  0  0  0
   -1.9846    2.3711   -0.3123 C   0  0  0  0  0  0  0  0  0  0  0  0
   -2.1900    1.0287   -0.5062 C   0  0  0  0  0  0  0  0  0  0  0  0
   -3.3557    0.0565   -0.6237 C   0  0  1  0  0  0  0  0  0  0  0  0
   -3.8859    0.0727   -1.5952 H   0  0  0  0  0  0  0  0  0  0  0  0
   -2.2143   -0.9501   -0.5326 C   0  0  0  0  0  0  0  0  0  0  0  0
   -2.0503   -2.2992   -0.3467 C   0  0  0  0  0  0  0  0  0  0  0  0
   -5.6103   -0.0561    0.0596 O   0  0  0  0  0  0  0  0  0  0  0  0
   -4.0490    0.0783    1.7063 O   0  0  0  0  0  0  0  0  0  0  0  0
   -4.3443    0.0353    0.5304 C   0  0  0  0  0  0  0  0  0  0  0  0
   -6.6265   -0.1305    1.0681 C   0  0  0  0  0  0  0  0  0  0  0  0
   -7.5891   -0.1820    0.5294 H   0  0  0  0  0  0  0  0  0  0  0  0
   -6.5932    0.7628    1.7233 H   0  0  0  0  0  0  0  0  0  0  0  0
   -6.4849   -1.0336    1.6955 H   0  0  0  0  0  0  0  0  0  0  0  0
    3.8751   -3.5679    0.1020 C   0  0  0  0  0  0  0  0  0  0  0  0
    4.1042   -4.4370   -0.9859 C   0  0  0  0  0  0  0  0  0  0  0  0
    3.5209   -4.3024   -1.9092 H   0  0  0  0  0  0  0  0  0  0  0  0
    5.0675   -5.4529   -0.8979 C   0  0  0  0  0  0  0  0  0  0  0  0
    5.2378   -6.1192   -1.7574 H   0  0  0  0  0  0  0  0  0  0  0  0
    5.8154   -5.6165    0.2788 C   0  0  0  0  0  0  0  0  0  0  0  0
    6.5708   -6.4140    0.3478 H   0  0  0  0  0  0  0  0  0  0  0  0
    5.5950   -4.7574    1.3673 C   0  0  0  0  0  0  0  0  0  0  0  0
    6.1737   -4.8826    2.2953 H   0  0  0  0  0  0  0  0  0  0  0  0
    4.6333   -3.7403    1.2797 C   0  0  0  0  0  0  0  0  0  0  0  0
    4.4541   -3.0700    2.1338 H   0  0  0  0  0  0  0  0  0  0  0  0
    3.9842    3.4649    0.0096 C   0  0  0  0  0  0  0  0  0  0  0  0
    4.8643    3.6500   -1.0780 C   0  0  0  0  0  0  0  0  0  0  0  0
    4.7546    3.0134   -1.9688 H   0  0  0  0  0  0  0  0  0  0  0  0
    5.8592    4.6375   -1.0314 C   0  0  0  0  0  0  0  0  0  0  0  0
    6.5337    4.7732   -1.8906 H   0  0  0  0  0  0  0  0  0  0  0  0
    5.9914    5.4537    0.1034 C   0  0  0  0  0  0  0  0  0  0  0  0
    6.7728    6.2279    0.1398 H   0  0  0  0  0  0  0  0  0  0  0  0
    5.1220    5.2770    1.1914 C   0  0  0  0  0  0  0  0  0  0  0  0
    5.2223    5.9095    2.0867 H   0  0  0  0  0  0  0  0  0  0  0  0
    4.1256    4.2907    1.1451 C   0  0  0  0  0  0  0  0  0  0  0  0
    3.4472    4.1452    1.9992 H   0  0  0  0  0  0  0  0  0  0  0  0
   -3.1462    3.2851   -0.1966 C   0  0  0  0  0  0  0  0  0  0  0  0
   -3.2576    4.1848    0.8885 C   0  0  0  0  0  0  0  0  0  0  0  0
   -2.4552    4.2196    1.6399 H   0  0  0  0  0  0  0  0  0  0  0  0
   -4.3891    4.9993    1.0294 C   0  0  0  0  0  0  0  0  0  0  0  0
   -4.4593    5.6892    1.8842 H   0  0  0  0  0  0  0  0  0  0  0  0
   -5.4368    4.9256    0.0970 C   0  0  0  0  0  0  0  0  0  0  0  0
   -6.3262    5.5637    0.2113 H   0  0  0  0  0  0  0  0  0  0  0  0
   -5.3420    4.0316   -0.9810 C   0  0  0  0  0  0  0  0  0  0  0  0
   -6.1547    3.9700   -1.7208 H   0  0  0  0  0  0  0  0  0  0  0  0
   -4.2074    3.2214   -1.1278 C   0  0  0  0  0  0  0  0  0  0  0  0
   -4.1270    2.5418   -1.9890 H   0  0  0  0  0  0  0  0  0  0  0  0
   -3.2450   -3.1710   -0.2343 C   0  0  0  0  0  0  0  0  0  0  0  0
   -4.2885   -3.0845   -1.1831 C   0  0  0  0  0  0  0  0  0  0  0  0
   -4.1678   -2.4254   -2.0555 H   0  0  0  0  0  0  0  0  0  0  0  0
   -5.4588   -3.8421   -1.0356 C   0  0  0  0  0  0  0  0  0  0  0  0
   -6.2577   -3.7624   -1.7885 H   0  0  0  0  0  0  0  0  0  0  0  0
   -5.6075   -4.7055    0.0611 C   0  0  0  0  0  0  0  0  0  0  0  0
   -6.5249   -5.3025    0.1762 H   0  0  0  0  0  0  0  0  0  0  0  0
   -4.5776   -4.8017    1.0113 C   0  0  0  0  0  0  0  0  0  0  0  0
   -4.6897   -5.4675    1.8806 H   0  0  0  0  0  0  0  0  0  0  0  0
   -3.4103   -4.0393    0.8694 C   0  0  0  0  0  0  0  0  0  0  0  0
   -2.6220   -4.0893    1.6349 H   0  0  0  0  0  0  0  0  0  0  0  0
  1 10  1  0  0  0  0
  2 17  1  0  0  0  0
  2 12  1  0  0  0  0
  3 19  1  0  0  0  0
  5  1  2  0  0  0  0
  5  6  1  0  0  0  0
  6  8  2  0  0  0  0
  7  6  1  0  0  0  0
  8  9  1  0  0  0  0
 10  8  1  0  0  0  0
 10 11  1  0  0  0  0
 11 38  1  0  0  0  0
 12 11  2  0  0  0  0
 12 13  1  0  0  0  0
 13 14  1  0  0  0  0
 15 13  2  0  0  0  0
 15 16  1  0  0  0  0
 17 15  1  0  0  0  0
 18 17  2  0  0  0  0
 18 49  1  0  0  0  0
 19 18  1  0  0  0  0
 20 21  1  0  0  0  0
 20 19  1  0  0  0  0
 22 20  2  0  0  0  0
 23 22  1  0  0  0  0
 24 22  1  0  0  0  0
 24  3  2  0  0  0  0
 25 60  1  0  0  0  0
 25 24  1  0  0  0  0
 26  4  1  0  0  0  0
 26 25  2  0  0  0  0
 27 28  1  6  0  0  0
 27 29  1  0  0  0  0
 27 26  1  0  0  0  0
 27 33  1  0  0  0  0
 29  4  1  0  0  0  0
 29 30  2  0  0  0  0
 30 71  1  0  0  0  0
 30  5  1  0  0  0  0
 31 33  1  0  0  0  0
 31 34  1  0  0  0  0
 33 32  2  0  0  0  0
 34 37  1  0  0  0  0
 34 36  1  0  0  0  0
 35 34  1  0  0  0  0
 38 47  1  0  0  0  0
 39 41  1  0  0  0  0
 39 38  2  0  0  0  0
 40 39  1  0  0  0  0
 41 43  2  0  0  0  0
 42 41  1  0  0  0  0
 43 44  1  0  0  0  0
 43 45  1  0  0  0  0
 45 46  1  0  0  0  0
 47 45  2  0  0  0  0
 47 48  1  0  0  0  0
 49 58  1  0  0  0  0
 50 52  1  0  0  0  0
 50 49  2  0  0  0  0
 51 50  1  0  0  0  0
 52 54  2  0  0  0  0
 53 52  1  0  0  0  0
 54 55  1  0  0  0  0
 54 56  1  0  0  0  0
 56 57  1  0  0  0  0
 58 56  2  0  0  0  0
 58 59  1  0  0  0  0
 60 61  1  0  0  0  0
 61 63  2  0  0  0  0
 61 62  1  0  0  0  0
 63 64  1  0  0  0  0
 65 66  1  0  0  0  0
 65 63  1  0  0  0  0
 67 65  2  0  0  0  0
 68 67  1  0  0  0  0
 69 67  1  0  0  0  0
 69 60  2  0  0  0  0
 70 69  1  0  0  0  0
 71 80  1  0  0  0  0
 72 74  1  0  0  0  0
 72 71  2  0  0  0  0
 73 72  1  0  0  0  0
 74 76  2  0  0  0  0
 75 74  1  0  0  0  0
 76 77  1  0  0  0  0
 76 78  1  0  0  0  0
 78 79  1  0  0  0  0
 80 78  2  0  0  0  0
 80 81  1  0  0  0  0
M  END
