1,2,21,22
 OpenBabel05122313063D

 40 40  0  0  1  0  0  0  0  0999 V2000
   -1.3639    1.4850   -0.0430 N   0  0  0  0  0  2  0  0  0  0  0  0
   -1.3639   -1.4851    0.0426 N   0  0  0  0  0  2  0  0  0  0  0  0
   -0.6922    2.7635   -0.3199 C   0  0  0  0  0  0  0  0  0  0  0  0
   -1.2688    3.6121    0.0958 H   0  0  0  0  0  0  0  0  0  0  0  0
   -0.6029    2.9159   -1.4194 H   0  0  0  0  0  0  0  0  0  0  0  0
   -0.6922   -2.7635    0.3193 C   0  0  0  0  0  0  0  0  0  0  0  0
   -1.2687   -3.6121   -0.0967 H   0  0  0  0  0  0  0  0  0  0  0  0
   -0.6029   -2.9162    1.4188 H   0  0  0  0  0  0  0  0  0  0  0  0
   -2.6821    1.2782   -0.1873 C   0  0  1  0  0  3  0  0  0  0  0  0
   -3.2933   -0.0000    0.0000 C   0  0  0  0  0  0  0  0  0  0  0  0
   -2.6820   -1.2782    0.1872 C   0  0  0  0  0  0  0  0  0  0  0  0
   -3.5569    2.4597   -0.5316 C   0  0  0  0  0  0  0  0  0  0  0  0
   -2.9839    3.3263   -0.8984 H   0  0  0  0  0  0  0  0  0  0  0  0
   -4.1467    2.7727    0.3551 H   0  0  0  0  0  0  0  0  0  0  0  0
   -4.2912    2.1715   -1.3067 H   0  0  0  0  0  0  0  0  0  0  0  0
   -3.5568   -2.4598    0.5315 C   0  0  0  0  0  0  0  0  0  0  0  0
   -2.9837   -3.3265    0.8977 H   0  0  0  0  0  0  0  0  0  0  0  0
   -4.1471   -2.7724   -0.3550 H   0  0  0  0  0  0  0  0  0  0  0  0
   -4.2906   -2.1718    1.3071 H   0  0  0  0  0  0  0  0  0  0  0  0
   -5.2144    0.0000    0.0005 Br  0  0  0  0  0  0  0  0  0  0  0  0
    1.3639   -1.4850   -0.0430 N   0  0  0  0  0  2  0  0  0  0  0  0
    1.3639    1.4851    0.0426 N   0  0  0  0  0  2  0  0  0  0  0  0
    0.6923   -2.7635   -0.3199 C   0  0  0  0  0  0  0  0  0  0  0  0
    1.2688   -3.6121    0.0958 H   0  0  0  0  0  0  0  0  0  0  0  0
    0.6029   -2.9159   -1.4194 H   0  0  0  0  0  0  0  0  0  0  0  0
    0.6922    2.7635    0.3193 C   0  0  0  0  0  0  0  0  0  0  0  0
    1.2687    3.6121   -0.0966 H   0  0  0  0  0  0  0  0  0  0  0  0
    0.6028    2.9161    1.4188 H   0  0  0  0  0  0  0  0  0  0  0  0
    2.6821   -1.2782   -0.1873 C   0  0  1  0  0  3  0  0  0  0  0  0
    3.2933    0.0000    0.0001 C   0  0  0  0  0  0  0  0  0  0  0  0
    2.6820    1.2782    0.1872 C   0  0  0  0  0  0  0  0  0  0  0  0
    3.5570   -2.4598   -0.5314 C   0  0  0  0  0  0  0  0  0  0  0  0
    2.9839   -3.3264   -0.8979 H   0  0  0  0  0  0  0  0  0  0  0  0
    4.1470   -2.7724    0.3552 H   0  0  0  0  0  0  0  0  0  0  0  0
    4.2910   -2.1717   -1.3069 H   0  0  0  0  0  0  0  0  0  0  0  0
    3.5567    2.4599    0.5316 C   0  0  0  0  0  0  0  0  0  0  0  0
    2.9836    3.3265    0.8980 H   0  0  0  0  0  0  0  0  0  0  0  0
    4.1469    2.7726   -0.3550 H   0  0  0  0  0  0  0  0  0  0  0  0
    4.2907    2.1718    1.3071 H   0  0  0  0  0  0  0  0  0  0  0  0
    5.2144    0.0000    0.0004 Br  0  0  0  0  0  0  0  0  0  0  0  0
  2 11  1  0  0  0  0
  2  6  1  0  0  0  0
  3  1  1  0  0  0  0
  3  4  1  0  0  0  0
  3 26  1  0  0  0  0
  5  3  1  0  0  0  0
  6  8  1  0  0  0  0
  7  6  1  0  0  0  0
  9 12  1  1  0  0  0
  9  1  1  0  0  0  0
  9 10  1  0  0  0  0
 10 20  1  0  0  0  0
 10 11  2  0  0  0  0
 11 16  1  0  0  0  0
 12 14  1  0  0  0  0
 13 12  1  0  0  0  0
 15 12  1  0  0  0  0
 16 17  1  0  0  0  0
 16 19  1  0  0  0  0
 18 16  1  0  0  0  0
 22 31  1  0  0  0  0
 22 26  1  0  0  0  0
 23 21  1  0  0  0  0
 23 24  1  0  0  0  0
 23  6  1  0  0  0  0
 25 23  1  0  0  0  0
 26 28  1  0  0  0  0
 27 26  1  0  0  0  0
 29 32  1  1  0  0  0
 29 21  1  0  0  0  0
 29 30  1  0  0  0  0
 30 40  1  0  0  0  0
 30 31  2  0  0  0  0
 31 36  1  0  0  0  0
 32 34  1  0  0  0  0
 33 32  1  0  0  0  0
 35 32  1  0  0  0  0
 36 37  1  0  0  0  0
 36 39  1  0  0  0  0
 38 36  1  0  0  0  0
M  END
