1,2,21,26
 OpenBabel05122313063D

 40 42  0  0  0  0  0  0  0  0999 V2000
   -1.5528   -0.9492    0.1019 N   0  0  0  0  0  2  0  0  0  0  0  0
    0.8807   -1.6229    0.4212 N   0  0  0  0  0  2  0  0  0  0  0  0
   -1.3408   -2.4029    0.0383 C   0  0  0  0  0  0  0  0  0  0  0  0
   -1.2793   -2.7305   -1.0238 H   0  0  0  0  0  0  0  0  0  0  0  0
   -2.1793   -2.9537    0.5101 H   0  0  0  0  0  0  0  0  0  0  0  0
   -0.0425   -2.7025    0.7643 C   0  0  0  0  0  0  0  0  0  0  0  0
   -0.2128   -2.6849    1.8625 H   0  0  0  0  0  0  0  0  0  0  0  0
    0.3685   -3.6984    0.4972 H   0  0  0  0  0  0  0  0  0  0  0  0
    2.1568   -1.8844    0.2897 C   0  0  0  0  0  0  0  0  0  0  0  0
    2.4961   -2.9295    0.4225 H   0  0  0  0  0  0  0  0  0  0  0  0
    3.1487   -0.9052   -0.0298 C   0  0  0  0  0  0  0  0  0  0  0  0
   -2.8271   -0.4978   -0.1521 C   0  0  0  0  0  0  0  0  0  0  0  0
   -3.8862   -1.3762   -0.5414 C   0  0  0  0  0  0  0  0  0  0  0  0
   -3.6902   -2.4440   -0.6927 H   0  0  0  0  0  0  0  0  0  0  0  0
   -5.1792   -0.9078   -0.7540 C   0  0  0  0  0  0  0  0  0  0  0  0
   -5.9644   -1.6171   -1.0552 H   0  0  0  0  0  0  0  0  0  0  0  0
   -5.4909    0.4599   -0.5928 C   0  0  0  0  0  0  0  0  0  0  0  0
   -6.5165    0.8203   -0.7558 H   0  0  0  0  0  0  0  0  0  0  0  0
    4.4790   -1.3474   -0.2385 C   0  0  0  0  0  3  0  0  0  0  0  0
    4.6992   -2.4198   -0.1245 H   0  0  0  0  0  0  0  0  0  0  0  0
    1.5528    0.9492    0.1019 N   0  0  0  0  0  2  0  0  0  0  0  0
    1.3408    2.4029    0.0383 C   0  0  0  0  0  0  0  0  0  0  0  0
    1.2793    2.7305   -1.0238 H   0  0  0  0  0  0  0  0  0  0  0  0
    2.1793    2.9537    0.5101 H   0  0  0  0  0  0  0  0  0  0  0  0
    0.0425    2.7025    0.7643 C   0  0  0  0  0  0  0  0  0  0  0  0
   -0.8807    1.6229    0.4212 N   0  0  0  0  0  2  0  0  0  0  0  0
   -2.1568    1.8844    0.2897 C   0  0  0  0  0  0  0  0  0  0  0  0
   -2.4961    2.9295    0.4225 H   0  0  0  0  0  0  0  0  0  0  0  0
   -3.1487    0.9052   -0.0298 C   0  0  0  0  0  0  0  0  0  0  0  0
   -4.4790    1.3474   -0.2385 C   0  0  0  0  0  3  0  0  0  0  0  0
   -4.6992    2.4198   -0.1245 H   0  0  0  0  0  0  0  0  0  0  0  0
    0.2128    2.6849    1.8625 H   0  0  0  0  0  0  0  0  0  0  0  0
   -0.3685    3.6984    0.4972 H   0  0  0  0  0  0  0  0  0  0  0  0
    2.8271    0.4978   -0.1521 C   0  0  0  0  0  0  0  0  0  0  0  0
    5.4909   -0.4599   -0.5928 C   0  0  0  0  0  0  0  0  0  0  0  0
    5.1792    0.9078   -0.7540 C   0  0  0  0  0  0  0  0  0  0  0  0
    3.8862    1.3762   -0.5414 C   0  0  0  0  0  0  0  0  0  0  0  0
    3.6902    2.4440   -0.6927 H   0  0  0  0  0  0  0  0  0  0  0  0
    5.9644    1.6171   -1.0552 H   0  0  0  0  0  0  0  0  0  0  0  0
    6.5165   -0.8203   -0.7558 H   0  0  0  0  0  0  0  0  0  0  0  0
  2  6  1  0  0  0  0
  3  1  1  0  0  0  0
  3  5  1  0  0  0  0
  3  6  1  0  0  0  0
  4  3  1  0  0  0  0
  6  7  1  0  0  0  0
  8  6  1  0  0  0  0
  9  2  1  0  0  0  0
  9 10  1  0  0  0  0
 11  9  2  0  0  0  0
 12 29  1  0  0  0  0
 12  1  1  0  0  0  0
 13 12  2  0  0  0  0
 14 13  1  0  0  0  0
 15 17  2  0  0  0  0
 15 13  1  0  0  0  0
 16 15  1  0  0  0  0
 17 30  1  0  0  0  0
 18 17  1  0  0  0  0
 19 20  1  0  0  0  0
 19 11  1  0  0  0  0
 22 21  1  0  0  0  0
 22 24  1  0  0  0  0
 22 25  1  0  0  0  0
 23 22  1  0  0  0  0
 25 32  1  0  0  0  0
 26 25  1  0  0  0  0
 27 26  1  0  0  0  0
 27 28  1  0  0  0  0
 29 27  2  0  0  0  0
 30 31  1  0  0  0  0
 30 29  1  0  0  0  0
 33 25  1  0  0  0  0
 34 11  1  0  0  0  0
 34 21  1  0  0  0  0
 35 19  1  0  0  0  0
 36 35  2  0  0  0  0
 36 37  1  0  0  0  0
 37 34  2  0  0  0  0
 38 37  1  0  0  0  0
 39 36  1  0  0  0  0
 40 35  1  0  0  0  0
M  END
