1,3,4,6
 OpenBabel05122313063D

 50 53  0  0  0  0  0  0  0  0999 V2000
    1.6978    1.8119   -0.1072 N   0  0  0  0  0  2  0  0  0  0  0  0
    2.5363   -0.2752    0.5015 N   0  0  0  0  0  0  0  0  0  0  0  0
    1.2026   -0.4989    0.7487 N   0  0  0  0  0  2  0  0  0  0  0  0
   -1.2030   -0.4980    0.7469 N   0  0  0  0  0  2  0  0  0  0  0  0
   -2.5363   -0.2729    0.4991 N   0  0  0  0  0  0  0  0  0  0  0  0
   -1.6951    1.8121   -0.1130 N   0  0  0  0  0  2  0  0  0  0  0  0
    1.8827    3.0875   -0.4916 C   0  0  0  0  0  3  0  0  0  0  0  0
    0.9746    3.7007   -0.5668 H   0  0  0  0  0  0  0  0  0  0  0  0
    3.1399    3.6193   -0.7934 C   0  0  0  0  0  0  0  0  0  0  0  0
    3.2292    4.6656   -1.1149 H   0  0  0  0  0  0  0  0  0  0  0  0
    4.2616    2.7828   -0.6795 C   0  0  0  0  0  0  0  0  0  0  0  0
    5.2686    3.1585   -0.9135 H   0  0  0  0  0  0  0  0  0  0  0  0
    4.0939    1.4632   -0.2524 C   0  0  0  0  0  0  0  0  0  0  0  0
    4.9446    0.7800   -0.1322 H   0  0  0  0  0  0  0  0  0  0  0  0
    2.7910    1.0130    0.0378 C   0  0  0  0  0  0  0  0  0  0  0  0
   -1.8781    3.0864   -0.5022 C   0  0  0  0  0  3  0  0  0  0  0  0
   -0.9691    3.6981   -0.5794 H   0  0  0  0  0  0  0  0  0  0  0  0
   -3.1344    3.6188   -0.8069 C   0  0  0  0  0  0  0  0  0  0  0  0
   -3.2221    4.6641   -1.1321 H   0  0  0  0  0  0  0  0  0  0  0  0
   -4.2572    2.7841   -0.6910 C   0  0  0  0  0  0  0  0  0  0  0  0
   -5.2636    3.1603   -0.9268 H   0  0  0  0  0  0  0  0  0  0  0  0
   -4.0914    1.4656   -0.2598 C   0  0  0  0  0  0  0  0  0  0  0  0
   -4.9430    0.7837   -0.1384 H   0  0  0  0  0  0  0  0  0  0  0  0
   -2.7892    1.0147    0.0328 C   0  0  0  0  0  0  0  0  0  0  0  0
   -0.7128   -1.6702    1.1555 C   0  0  0  0  0  0  0  0  0  0  0  0
    0.7110   -1.6708    1.1562 C   0  0  0  0  0  0  0  0  0  0  0  0
    5.1836   -2.9058    0.7441 C   0  0  0  0  0  0  0  0  0  0  0  0
    5.9538   -3.2531    1.4490 H   0  0  0  0  0  0  0  0  0  0  0  0
    4.3643   -1.8177    1.0861 C   0  0  0  0  0  0  0  0  0  0  0  0
    4.4695   -1.3001    2.0508 H   0  0  0  0  0  0  0  0  0  0  0  0
    3.3906   -1.3809    0.1742 C   0  0  0  0  0  0  0  0  0  0  0  0
    3.2097   -2.0223   -1.0670 C   0  0  0  0  0  0  0  0  0  0  0  0
    2.4231   -1.6596   -1.7495 H   0  0  0  0  0  0  0  0  0  0  0  0
    4.0290   -3.1113   -1.3928 C   0  0  0  0  0  0  0  0  0  0  0  0
    3.8990   -3.6192   -2.3602 H   0  0  0  0  0  0  0  0  0  0  0  0
   -3.2140   -2.0231   -1.0640 C   0  0  0  0  0  0  0  0  0  0  0  0
   -2.4273   -1.6634   -1.7481 H   0  0  0  0  0  0  0  0  0  0  0  0
   -3.3928   -1.3779    0.1756 C   0  0  0  0  0  0  0  0  0  0  0  0
   -4.3664   -1.8107    1.0894 C   0  0  0  0  0  0  0  0  0  0  0  0
   -4.4700   -1.2902    2.0528 H   0  0  0  0  0  0  0  0  0  0  0  0
   -5.1877   -2.8983    0.7510 C   0  0  0  0  0  0  0  0  0  0  0  0
   -5.9579   -3.2424    1.4575 H   0  0  0  0  0  0  0  0  0  0  0  0
   -5.0216   -3.5465   -0.4831 C   0  0  0  0  0  0  0  0  0  0  0  0
   -5.6654   -4.4001   -0.7439 H   0  0  0  0  0  0  0  0  0  0  0  0
   -4.0353   -3.1116   -1.3863 C   0  0  0  0  0  0  0  0  0  0  0  0
   -3.9070   -3.6223   -2.3524 H   0  0  0  0  0  0  0  0  0  0  0  0
    5.0154   -3.5504   -0.4916 C   0  0  0  0  0  0  0  0  0  0  0  0
    5.6575   -4.4043   -0.7553 H   0  0  0  0  0  0  0  0  0  0  0  0
   -1.3471   -2.5356    1.3905 H   0  0  0  0  0  0  0  0  0  0  0  0
    1.3443   -2.5370    1.3911 H   0  0  0  0  0  0  0  0  0  0  0  0
  1 15  1  0  0  0  0
  2  3  1  0  0  0  0
  3 26  1  0  0  0  0
  4 25  1  0  0  0  0
  5  4  1  0  0  0  0
  6 24  1  0  0  0  0
  7  1  1  0  0  0  0
  8  7  1  0  0  0  0
  9 11  2  0  0  0  0
  9  7  1  0  0  0  0
 10  9  1  0  0  0  0
 11 13  1  0  0  0  0
 12 11  1  0  0  0  0
 13 14  1  0  0  0  0
 13 15  2  0  0  0  0
 15  2  1  0  0  0  0
 16  6  1  0  0  0  0
 17 16  1  0  0  0  0
 18 20  2  0  0  0  0
 18 16  1  0  0  0  0
 19 18  1  0  0  0  0
 20 22  1  0  0  0  0
 21 20  1  0  0  0  0
 22 23  1  0  0  0  0
 22 24  2  0  0  0  0
 24  5  1  0  0  0  0
 25 26  2  0  0  0  0
 25 49  1  0  0  0  0
 26 50  1  0  0  0  0
 27 29  1  0  0  0  0
 27 28  1  0  0  0  0
 29 30  1  0  0  0  0
 31  2  1  0  0  0  0
 31 29  2  0  0  0  0
 32 31  1  0  0  0  0
 33 32  1  0  0  0  0
 34 32  2  0  0  0  0
 34 47  1  0  0  0  0
 35 34  1  0  0  0  0
 36 38  1  0  0  0  0
 37 36  1  0  0  0  0
 38  5  1  0  0  0  0
 38 39  2  0  0  0  0
 39 40  1  0  0  0  0
 41 39  1  0  0  0  0
 41 42  1  0  0  0  0
 43 41  2  0  0  0  0
 44 43  1  0  0  0  0
 45 36  2  0  0  0  0
 45 43  1  0  0  0  0
 46 45  1  0  0  0  0
 47 27  2  0  0  0  0
 48 47  1  0  0  0  0
M  END
