1,3,4,6
 OpenBabel05122313063D

 51 52  0  0  1  0  0  0  0  0999 V2000
    0.0000    1.9846   -0.4010 N   0  0  0  0  0  0  0  0  0  0  0  0
    0.0000    1.8790   -1.4260 H   0  0  0  0  0  0  0  0  0  0  0  0
    1.6483   -0.3299   -1.0071 N   0  0  2  0  0  0  0  0  0  0  0  0
   -0.0000   -1.8597    0.7916 N   0  0  0  0  0  0  0  0  0  0  0  0
   -0.0000   -2.3980   -0.0892 H   0  0  0  0  0  0  0  0  0  0  0  0
   -1.6483   -0.3299   -1.0071 N   0  0  2  0  0  0  0  0  0  0  0  0
    1.2220    2.7634   -0.0776 C   0  0  0  0  0  0  0  0  0  0  0  0
    1.2309    2.9451    1.0120 H   0  0  0  0  0  0  0  0  0  0  0  0
    1.1330    3.7503   -0.5831 H   0  0  0  0  0  0  0  0  0  0  0  0
    2.4968    2.0349   -0.5213 C   0  0  0  0  0  0  0  0  0  0  0  0
    3.1960    2.7637   -0.9763 H   0  0  0  0  0  0  0  0  0  0  0  0
    3.0136    1.6259    0.3652 H   0  0  0  0  0  0  0  0  0  0  0  0
    2.2647    0.9299   -1.5484 C   0  0  0  0  0  0  0  0  0  0  0  0
    3.2337    0.6496   -2.0175 H   0  0  0  0  0  0  0  0  0  0  0  0
    1.6318    1.2942   -2.3846 H   0  0  0  0  0  0  0  0  0  0  0  0
    2.7221   -0.9852   -0.1774 C   0  0  0  0  0  0  0  0  0  0  0  0
    3.6093   -1.1264   -0.8352 H   0  0  0  0  0  0  0  0  0  0  0  0
    2.9918   -0.2599    0.6092 H   0  0  0  0  0  0  0  0  0  0  0  0
    2.3928   -2.3114    0.4982 C   0  0  0  0  0  0  0  0  0  0  0  0
    2.2148   -3.1191   -0.2473 H   0  0  0  0  0  0  0  0  0  0  0  0
    3.3118   -2.6209    1.0360 H   0  0  0  0  0  0  0  0  0  0  0  0
    1.2437   -2.2660    1.4931 C   0  0  0  0  0  0  0  0  0  0  0  0
    1.0948   -3.2722    1.9408 H   0  0  0  0  0  0  0  0  0  0  0  0
    1.4385   -1.5430    2.3066 H   0  0  0  0  0  0  0  0  0  0  0  0
   -1.2437   -2.2660    1.4931 C   0  0  0  0  0  0  0  0  0  0  0  0
   -1.4385   -1.5430    2.3065 H   0  0  0  0  0  0  0  0  0  0  0  0
   -1.0948   -3.2722    1.9408 H   0  0  0  0  0  0  0  0  0  0  0  0
   -2.3928   -2.3114    0.4982 C   0  0  0  0  0  0  0  0  0  0  0  0
   -2.2149   -3.1191   -0.2474 H   0  0  0  0  0  0  0  0  0  0  0  0
   -3.3119   -2.6208    1.0360 H   0  0  0  0  0  0  0  0  0  0  0  0
   -2.7221   -0.9852   -0.1774 C   0  0  0  0  0  0  0  0  0  0  0  0
   -3.6093   -1.1263   -0.8353 H   0  0  0  0  0  0  0  0  0  0  0  0
   -2.9918   -0.2599    0.6092 H   0  0  0  0  0  0  0  0  0  0  0  0
   -2.2647    0.9300   -1.5484 C   0  0  0  0  0  0  0  0  0  0  0  0
   -3.2337    0.6496   -2.0175 H   0  0  0  0  0  0  0  0  0  0  0  0
   -1.6317    1.2942   -2.3846 H   0  0  0  0  0  0  0  0  0  0  0  0
   -2.4968    2.0349   -0.5213 C   0  0  0  0  0  0  0  0  0  0  0  0
   -3.1960    2.7638   -0.9763 H   0  0  0  0  0  0  0  0  0  0  0  0
   -3.0136    1.6259    0.3652 H   0  0  0  0  0  0  0  0  0  0  0  0
   -1.2219    2.7634   -0.0776 C   0  0  0  0  0  0  0  0  0  0  0  0
   -1.1330    3.7503   -0.5831 H   0  0  0  0  0  0  0  0  0  0  0  0
   -1.2309    2.9451    1.0120 H   0  0  0  0  0  0  0  0  0  0  0  0
    1.2929   -1.1970   -2.1659 C   0  0  0  0  0  0  0  0  0  0  0  0
    1.2088   -2.2419   -1.8071 H   0  0  0  0  0  0  0  0  0  0  0  0
    2.1440   -1.1961   -2.8844 H   0  0  0  0  0  0  0  0  0  0  0  0
    0.0000   -0.8242   -2.8908 C   0  0  0  0  0  0  0  0  0  0  0  0
    0.0000   -1.3793   -3.8514 H   0  0  0  0  0  0  0  0  0  0  0  0
    0.0000    0.2445   -3.1940 H   0  0  0  0  0  0  0  0  0  0  0  0
   -1.2929   -1.1970   -2.1659 C   0  0  0  0  0  0  0  0  0  0  0  0
   -2.1440   -1.1961   -2.8844 H   0  0  0  0  0  0  0  0  0  0  0  0
   -1.2088   -2.2419   -1.8071 H   0  0  0  0  0  0  0  0  0  0  0  0
  1 40  1  0  0  0  0
  1  7  1  0  0  0  0
  2  1  1  0  0  0  0
  3 43  1  6  0  0  0
  3 16  1  0  0  0  0
  4 25  1  0  0  0  0
  4 22  1  0  0  0  0
  5  4  1  0  0  0  0
  6 49  1  6  0  0  0
  6 31  1  0  0  0  0
  7  8  1  0  0  0  0
  9  7  1  0  0  0  0
 10  7  1  0  0  0  0
 10 12  1  0  0  0  0
 11 10  1  0  0  0  0
 13  3  1  0  0  0  0
 13 10  1  0  0  0  0
 14 13  1  0  0  0  0
 15 13  1  0  0  0  0
 16 19  1  0  0  0  0
 16 18  1  0  0  0  0
 17 16  1  0  0  0  0
 19 21  1  0  0  0  0
 19 22  1  0  0  0  0
 20 19  1  0  0  0  0
 22 23  1  0  0  0  0
 22 24  1  0  0  0  0
 25 27  1  0  0  0  0
 25 26  1  0  0  0  0
 28 30  1  0  0  0  0
 28 25  1  0  0  0  0
 29 28  1  0  0  0  0
 31 28  1  0  0  0  0
 31 33  1  0  0  0  0
 32 31  1  0  0  0  0
 34  6  1  0  0  0  0
 34 37  1  0  0  0  0
 35 34  1  0  0  0  0
 36 34  1  0  0  0  0
 37 40  1  0  0  0  0
 37 39  1  0  0  0  0
 38 37  1  0  0  0  0
 40 42  1  0  0  0  0
 41 40  1  0  0  0  0
 43 44  1  0  0  0  0
 45 43  1  0  0  0  0
 46 49  1  0  0  0  0
 46 43  1  0  0  0  0
 47 46  1  0  0  0  0
 48 46  1  0  0  0  0
 49 51  1  0  0  0  0
 50 49  1  0  0  0  0
M  END
