1,2,3,4
 OpenBabel05122313063D

 58 60  0  0  1  0  0  0  0  0999 V2000
    1.0071    1.6523    1.0916 N   0  0  0  0  0  0  0  0  0  0  0  0
   -0.1458    1.4293   -1.4609 N   0  0  0  0  0  0  0  0  0  0  0  0
   -1.7919    0.8791    0.6930 N   0  0  0  0  0  2  0  0  0  0  0  0
    0.3844   -0.7774    1.8805 N   0  0  0  0  0  2  0  0  0  0  0  0
    0.5985    2.9173    0.4071 C   0  0  1  0  0  0  0  0  0  0  0  0
   -0.4559    3.1002    0.7016 H   0  0  0  0  0  0  0  0  0  0  0  0
    1.4181    4.1564    0.8060 C   0  0  0  0  0  0  0  0  0  0  0  0
    1.3275    4.3309    1.8987 H   0  0  0  0  0  0  0  0  0  0  0  0
    2.4917    3.9720    0.5965 H   0  0  0  0  0  0  0  0  0  0  0  0
    0.9831    5.3952    0.0169 C   0  0  0  0  0  0  0  0  0  0  0  0
   -0.0720    5.6509    0.2623 H   0  0  0  0  0  0  0  0  0  0  0  0
    1.5968    6.2679    0.3202 H   0  0  0  0  0  0  0  0  0  0  0  0
    1.1090    5.1346   -1.4866 C   0  0  0  0  0  0  0  0  0  0  0  0
    2.1748    4.9456   -1.7422 H   0  0  0  0  0  0  0  0  0  0  0  0
    0.7989    6.0266   -2.0683 H   0  0  0  0  0  0  0  0  0  0  0  0
    0.2558    3.9283   -1.8930 C   0  0  0  0  0  0  0  0  0  0  0  0
    0.3440    3.7342   -2.9808 H   0  0  0  0  0  0  0  0  0  0  0  0
   -0.8079    4.1802   -1.6940 H   0  0  0  0  0  0  0  0  0  0  0  0
    0.6456    2.6665   -1.1060 C   0  0  2  0  0  0  0  0  0  0  0  0
    1.6921    2.4048   -1.3678 H   0  0  0  0  0  0  0  0  0  0  0  0
    2.4816    1.4547    1.0947 C   0  0  0  0  0  0  0  0  0  0  0  0
    2.9650    2.2012    1.7583 H   0  0  0  0  0  0  0  0  0  0  0  0
    2.8963    1.5163    0.0740 H   0  0  0  0  0  0  0  0  0  0  0  0
    2.7071    0.4439    1.4685 H   0  0  0  0  0  0  0  0  0  0  0  0
    0.3234    0.8999   -2.7700 C   0  0  0  0  0  0  0  0  0  0  0  0
   -0.0253    1.5582   -3.5952 H   0  0  0  0  0  0  0  0  0  0  0  0
   -0.1006   -0.1047   -2.9304 H   0  0  0  0  0  0  0  0  0  0  0  0
    1.4235    0.8633   -2.7919 H   0  0  0  0  0  0  0  0  0  0  0  0
    0.5324    1.5499    2.4918 C   0  0  0  0  0  0  0  0  0  0  0  0
   -0.5255    1.8793    2.5305 H   0  0  0  0  0  0  0  0  0  0  0  0
    1.1158    2.2027    3.1788 H   0  0  0  0  0  0  0  0  0  0  0  0
    0.6747    0.1062    2.8868 C   0  0  2  0  0  3  0  0  0  0  0  0
    1.1033   -0.2835    4.1558 C   0  0  0  0  0  0  0  0  0  0  0  0
    1.3294    0.4825    4.9113 H   0  0  0  0  0  0  0  0  0  0  0  0
    1.2472   -1.6515    4.4251 C   0  0  0  0  0  0  0  0  0  0  0  0
    1.5749   -2.0047    5.4137 H   0  0  0  0  0  0  0  0  0  0  0  0
    0.9944   -2.5521    3.3882 C   0  0  0  0  0  0  0  0  0  0  0  0
    1.1238   -3.6324    3.5442 H   0  0  0  0  0  0  0  0  0  0  0  0
    0.5753   -2.1158    2.1129 C   0  0  0  0  0  0  0  0  0  0  0  0
    0.3298   -3.1349    1.0436 C   0  0  0  0  0  0  0  0  0  0  0  0
    0.7951   -2.8300    0.0909 H   0  0  0  0  0  0  0  0  0  0  0  0
   -0.7485   -3.2492    0.8225 H   0  0  0  0  0  0  0  0  0  0  0  0
    0.7318   -4.1135    1.3635 H   0  0  0  0  0  0  0  0  0  0  0  0
   -1.5996    1.6578   -1.5787 C   0  0  0  0  0  0  0  0  0  0  0  0
   -2.0109    0.7514   -2.0813 H   0  0  0  0  0  0  0  0  0  0  0  0
   -1.8447    2.5214   -2.2307 H   0  0  0  0  0  0  0  0  0  0  0  0
   -2.2746    1.7498   -0.2540 C   0  0  1  0  0  3  0  0  0  0  0  0
   -3.4017    2.5504   -0.0604 C   0  0  0  0  0  0  0  0  0  0  0  0
   -3.7008    3.2523   -0.8519 H   0  0  0  0  0  0  0  0  0  0  0  0
   -4.1436    2.4099    1.1193 C   0  0  0  0  0  0  0  0  0  0  0  0
   -5.0277    3.0326    1.3177 H   0  0  0  0  0  0  0  0  0  0  0  0
   -3.7623    1.3932    1.9981 C   0  0  0  0  0  0  0  0  0  0  0  0
   -4.3716    1.1621    2.8837 H   0  0  0  0  0  0  0  0  0  0  0  0
   -2.6167    0.6091    1.7624 C   0  0  0  0  0  0  0  0  0  0  0  0
   -2.3822   -0.5851    2.6431 C   0  0  0  0  0  0  0  0  0  0  0  0
   -2.0234   -1.4357    2.0400 H   0  0  0  0  0  0  0  0  0  0  0  0
   -3.3393   -0.8702    3.1179 H   0  0  0  0  0  0  0  0  0  0  0  0
   -1.6500   -0.4050    3.4543 H   0  0  0  0  0  0  0  0  0  0  0  0
  1 21  1  0  0  0  0
  1 29  1  0  0  0  0
  2 19  1  0  0  0  0
  3 54  1  0  0  0  0
  4 39  1  0  0  0  0
  4 32  1  0  0  0  0
  5  6  1  1  0  0  0
  5  7  1  0  0  0  0
  5  1  1  0  0  0  0
  7  8  1  0  0  0  0
  9  7  1  0  0  0  0
 10 11  1  0  0  0  0
 10 12  1  0  0  0  0
 10  7  1  0  0  0  0
 13 10  1  0  0  0  0
 14 13  1  0  0  0  0
 15 13  1  0  0  0  0
 16 18  1  0  0  0  0
 16 13  1  0  0  0  0
 16 19  1  0  0  0  0
 17 16  1  0  0  0  0
 19 20  1  6  0  0  0
 19  5  1  0  0  0  0
 21 24  1  0  0  0  0
 21 22  1  0  0  0  0
 23 21  1  0  0  0  0
 25  2  1  0  0  0  0
 26 25  1  0  0  0  0
 27 25  1  0  0  0  0
 28 25  1  0  0  0  0
 29 30  1  0  0  0  0
 29 31  1  0  0  0  0
 32 29  1  6  0  0  0
 32 33  1  0  0  0  0
 33 35  2  0  0  0  0
 33 34  1  0  0  0  0
 35 36  1  0  0  0  0
 37 38  1  0  0  0  0
 37 35  1  0  0  0  0
 39 37  2  0  0  0  0
 40 43  1  0  0  0  0
 40 39  1  0  0  0  0
 41 40  1  0  0  0  0
 42 40  1  0  0  0  0
 44  2  1  0  0  0  0
 45 44  1  0  0  0  0
 46 44  1  0  0  0  0
 47 44  1  6  0  0  0
 47 48  1  0  0  0  0
 47  3  1  0  0  0  0
 48 50  2  0  0  0  0
 49 48  1  0  0  0  0
 50 51  1  0  0  0  0
 50 52  1  0  0  0  0
 52 53  1  0  0  0  0
 54 52  2  0  0  0  0
 54 55  1  0  0  0  0
 55 57  1  0  0  0  0
 55 58  1  0  0  0  0
 56 55  1  0  0  0  0
M  END
