1,21,29
 OpenBabel05122313063D

 42 42  0  0  0  0  0  0  0  0999 V2000
   -1.2285    0.4896   -1.7955 N   0  0  0  0  0  0  0  0  0  0  0  0
   -2.6788    0.6833   -1.5178 C   0  0  0  0  0  0  0  0  0  0  0  0
   -3.2457    0.4953   -2.4537 H   0  0  0  0  0  0  0  0  0  0  0  0
   -2.8315    1.7415   -1.2414 H   0  0  0  0  0  0  0  0  0  0  0  0
   -3.1616   -0.2307   -0.3840 C   0  0  0  0  0  0  0  0  0  0  0  0
   -4.2100   -0.5300   -0.5803 H   0  0  0  0  0  0  0  0  0  0  0  0
   -3.1738    0.3417    0.5616 H   0  0  0  0  0  0  0  0  0  0  0  0
   -2.3404   -1.5059   -0.2142 C   0  0  0  0  0  0  0  0  0  0  0  0
   -2.9279   -2.2532    0.3640 H   0  0  0  0  0  0  0  0  0  0  0  0
   -2.1421   -1.9749   -1.1994 H   0  0  0  0  0  0  0  0  0  0  0  0
   -1.0206   -1.3431    0.4894 N   0  0  0  0  0  0  0  0  0  0  0  0
   -1.3183   -1.0922    1.9409 C   0  0  0  0  0  0  0  0  0  0  0  0
   -1.9127   -1.9563    2.3155 H   0  0  0  0  0  0  0  0  0  0  0  0
   -1.9606   -0.1947    1.9854 H   0  0  0  0  0  0  0  0  0  0  0  0
   -0.1178   -0.8762    2.8562 C   0  0  0  0  0  0  0  0  0  0  0  0
   -0.5232   -0.7607    3.8821 H   0  0  0  0  0  0  0  0  0  0  0  0
    0.5384   -1.7712    2.8994 H   0  0  0  0  0  0  0  0  0  0  0  0
    0.7100    0.3666    2.5430 C   0  0  0  0  0  0  0  0  0  0  0  0
    0.0644    1.2658    2.5833 H   0  0  0  0  0  0  0  0  0  0  0  0
    1.5299    0.4794    3.2824 H   0  0  0  0  0  0  0  0  0  0  0  0
    1.2724    0.3030    1.1882 N   0  0  0  0  0  2  0  0  0  0  0  0
    2.5528    0.3934    1.0501 C   0  0  0  0  0  3  0  0  0  0  0  0
    3.3322    0.3224   -0.2203 C   0  0  0  0  0  0  0  0  0  0  0  0
    4.0431   -0.5276   -0.0994 H   0  0  0  0  0  0  0  0  0  0  0  0
    3.9969    1.2135   -0.2535 H   0  0  0  0  0  0  0  0  0  0  0  0
    2.5685    0.2384   -1.5395 C   0  0  0  0  0  0  0  0  0  0  0  0
    2.2235    1.2468   -1.8306 H   0  0  0  0  0  0  0  0  0  0  0  0
    3.2495   -0.1502   -2.3276 H   0  0  0  0  0  0  0  0  0  0  0  0
    1.3551   -0.6190   -1.4564 N   0  0  0  0  0  0  0  0  0  0  0  0
   -0.2791   -2.6315    0.3623 C   0  0  0  0  0  0  0  0  0  0  0  0
   -0.9854   -3.4618    0.5891 H   0  0  0  0  0  0  0  0  0  0  0  0
    0.4964   -2.6550    1.1504 H   0  0  0  0  0  0  0  0  0  0  0  0
    0.4048   -2.8775   -0.9801 C   0  0  0  0  0  0  0  0  0  0  0  0
   -0.2982   -2.7541   -1.8334 H   0  0  0  0  0  0  0  0  0  0  0  0
    0.6983   -3.9465   -1.0076 H   0  0  0  0  0  0  0  0  0  0  0  0
    1.6617   -2.0438   -1.1917 C   0  0  0  0  0  0  0  0  0  0  0  0
    2.2917   -2.0964   -0.2815 H   0  0  0  0  0  0  0  0  0  0  0  0
    2.2714   -2.4524   -2.0278 H   0  0  0  0  0  0  0  0  0  0  0  0
   -1.1233   -0.2625   -2.4922 H   0  0  0  0  0  0  0  0  0  0  0  0
   -0.8325    1.3472   -2.2189 H   0  0  0  0  0  0  0  0  0  0  0  0
    0.9303   -0.5856   -2.3951 H   0  0  0  0  0  0  0  0  0  0  0  0
    3.1631    0.4988    1.9708 H   0  0  0  0  0  0  0  0  0  0  0  0
  1  2  1  0  0  0  0
  2  4  1  0  0  0  0
  2  5  1  0  0  0  0
  3  2  1  0  0  0  0
  5  8  1  0  0  0  0
  5  7  1  0  0  0  0
  6  5  1  0  0  0  0
  8  9  1  0  0  0  0
  8 11  1  0  0  0  0
 10  8  1  0  0  0  0
 11 12  1  0  0  0  0
 12 14  1  0  0  0  0
 12 13  1  0  0  0  0
 12 15  1  0  0  0  0
 15 17  1  0  0  0  0
 15 16  1  0  0  0  0
 18 19  1  0  0  0  0
 18 15  1  0  0  0  0
 18 20  1  0  0  0  0
 21 18  1  0  0  0  0
 22 21  1  0  0  0  0
 22 42  1  0  0  0  0
 23 24  1  0  0  0  0
 23 22  1  0  0  0  0
 25 23  1  0  0  0  0
 26 29  1  0  0  0  0
 26 23  1  0  0  0  0
 27 26  1  0  0  0  0
 28 26  1  0  0  0  0
 29 36  1  0  0  0  0
 30 11  1  0  0  0  0
 30 31  1  0  0  0  0
 30 32  1  0  0  0  0
 33 30  1  0  0  0  0
 34 33  1  0  0  0  0
 35 33  1  0  0  0  0
 36 33  1  0  0  0  0
 36 37  1  0  0  0  0
 38 36  1  0  0  0  0
 39  1  1  0  0  0  0
 40  1  1  0  0  0  0
 41 29  1  0  0  0  0
M  END
