3,5,6,8
 OpenBabel05122313063D

 38 39  0  0  1  0  0  0  0  0999 V2000
   -1.3752    3.9926    0.4026 O   0  0  0  0  0  0  0  0  0  0  0  0
    1.3751    3.9927   -0.4023 O   0  0  0  0  0  0  0  0  0  0  0  0
   -1.3589   -0.9819   -0.4208 N   0  0  0  0  0  2  0  0  0  0  0  0
   -2.4975    1.5255    0.5777 N   0  0  0  0  0  0  0  0  0  0  0  0
   -1.2447    1.6569    0.2197 N   0  0  0  0  0  2  0  0  0  0  0  0
    1.3590   -0.9818    0.4210 N   0  0  0  0  0  2  0  0  0  0  0  0
    2.4973    1.5255   -0.5779 N   0  0  0  0  0  0  0  0  0  0  0  0
    1.2446    1.6570   -0.2198 N   0  0  0  0  0  2  0  0  0  0  0  0
   -0.9726   -2.0555   -1.1603 C   0  0  0  0  0  3  0  0  0  0  0  0
    0.0946   -2.0991   -1.4176 H   0  0  0  0  0  0  0  0  0  0  0  0
   -1.8455   -3.0581   -1.5759 C   0  0  0  0  0  0  0  0  0  0  0  0
   -1.4661   -3.8965   -2.1758 H   0  0  0  0  0  0  0  0  0  0  0  0
   -3.1963   -2.9636   -1.1952 C   0  0  0  0  0  0  0  0  0  0  0  0
   -3.9194   -3.7424   -1.4799 H   0  0  0  0  0  0  0  0  0  0  0  0
   -3.6091   -1.8541   -0.4627 C   0  0  0  0  0  0  0  0  0  0  0  0
   -4.6618   -1.7433   -0.1763 H   0  0  0  0  0  0  0  0  0  0  0  0
   -2.6864   -0.8334   -0.1021 C   0  0  0  0  0  0  0  0  0  0  0  0
   -3.1681    0.3962    0.5251 C   0  0  0  0  0  0  0  0  0  0  0  0
   -4.5884    0.4635    1.0316 C   0  0  0  0  0  0  0  0  0  0  0  0
   -4.8035   -0.3293    1.7784 H   0  0  0  0  0  0  0  0  0  0  0  0
   -5.3351    0.3616    0.2147 H   0  0  0  0  0  0  0  0  0  0  0  0
   -4.7396    1.4494    1.5059 H   0  0  0  0  0  0  0  0  0  0  0  0
   -0.7447    2.9775    0.1853 C   0  0  0  0  0  0  0  0  0  0  0  0
    0.7446    2.9775   -0.1850 C   0  0  0  0  0  0  0  0  0  0  0  0
    3.1680    0.3963   -0.5254 C   0  0  0  0  0  0  0  0  0  0  0  0
    4.5881    0.4636   -1.0323 C   0  0  0  0  0  0  0  0  0  0  0  0
    4.7392    1.4494   -1.5067 H   0  0  0  0  0  0  0  0  0  0  0  0
    5.3350    0.3617   -0.2156 H   0  0  0  0  0  0  0  0  0  0  0  0
    4.8030   -0.3292   -1.7791 H   0  0  0  0  0  0  0  0  0  0  0  0
    2.6864   -0.8332    0.1019 C   0  0  1  0  0  3  0  0  0  0  0  0
    3.6092   -1.8539    0.4626 C   0  0  0  0  0  0  0  0  0  0  0  0
    4.6619   -1.7432    0.1758 H   0  0  0  0  0  0  0  0  0  0  0  0
    3.1966   -2.9632    1.1953 C   0  0  0  0  0  0  0  0  0  0  0  0
    3.9197   -3.7420    1.4800 H   0  0  0  0  0  0  0  0  0  0  0  0
    1.8459   -3.0577    1.5763 C   0  0  0  0  0  0  0  0  0  0  0  0
    1.4666   -3.8960    2.1765 H   0  0  0  0  0  0  0  0  0  0  0  0
    0.9729   -2.0551    1.1607 C   0  0  0  0  0  0  0  0  0  0  0  0
   -0.0943   -2.0988    1.4183 H   0  0  0  0  0  0  0  0  0  0  0  0
  2 24  2  0  0  0  0
  3 17  1  0  0  0  0
  5  4  1  0  0  0  0
  6 37  1  0  0  0  0
  7 25  2  0  0  0  0
  7  8  1  0  0  0  0
  8 24  1  0  0  0  0
  9  3  1  0  0  0  0
 10  9  1  0  0  0  0
 11 13  2  0  0  0  0
 11  9  1  0  0  0  0
 12 11  1  0  0  0  0
 13 15  1  0  0  0  0
 14 13  1  0  0  0  0
 15 16  1  0  0  0  0
 15 17  2  0  0  0  0
 17 18  1  0  0  0  0
 18  4  2  0  0  0  0
 18 19  1  0  0  0  0
 19 22  1  0  0  0  0
 19 20  1  0  0  0  0
 21 19  1  0  0  0  0
 23  5  1  0  0  0  0
 23  1  2  0  0  0  0
 24 23  1  0  0  0  0
 26 25  1  0  0  0  0
 26 28  1  0  0  0  0
 27 26  1  0  0  0  0
 29 26  1  0  0  0  0
 30 25  1  1  0  0  0
 30  6  1  0  0  0  0
 30 31  1  0  0  0  0
 31 33  2  0  0  0  0
 32 31  1  0  0  0  0
 33 34  1  0  0  0  0
 33 35  1  0  0  0  0
 35 36  1  0  0  0  0
 37 38  1  0  0  0  0
 37 35  2  0  0  0  0
M  END
