1,2,3,4
 OpenBabel05122313063D

 48 54  0  0  0  0  0  0  0  0999 V2000
    1.4850    0.7080   -0.4926 N   0  0  0  0  0  2  0  0  0  0  0  0
   -1.4850    0.7081   -0.4927 N   0  0  0  0  0  0  0  0  0  0  0  0
   -1.4686   -2.2145   -0.7860 N   0  0  0  0  0  0  0  0  0  0  0  0
    1.4685   -2.2145   -0.7860 N   0  0  0  0  0  0  0  0  0  0  0  0
    2.8445    0.4891   -0.5532 C   0  0  0  0  0  0  0  0  0  0  0  0
    3.5475    1.7694   -0.4472 C   0  0  0  0  0  0  0  0  0  0  0  0
    2.5398    2.7640   -0.3195 C   0  0  0  0  0  0  0  0  0  0  0  0
    1.2593    2.0534   -0.3552 C   0  0  0  0  0  0  0  0  0  0  0  0
    0.0000    2.6670   -0.2783 C   0  0  0  0  0  0  0  0  0  0  0  0
    0.0001    3.7611   -0.1680 H   0  0  0  0  0  0  0  0  0  0  0  0
   -1.2593    2.0534   -0.3552 C   0  0  0  0  0  0  0  0  0  0  0  0
   -2.5397    2.7641   -0.3195 C   0  0  0  0  0  0  0  0  0  0  0  0
   -3.5474    1.7695   -0.4472 C   0  0  0  0  0  0  0  0  0  0  0  0
   -2.8445    0.4892   -0.5532 C   0  0  0  0  0  0  0  0  0  0  0  0
   -3.4594   -0.7597   -0.6916 C   0  0  0  0  0  0  0  0  0  0  0  0
   -4.5589   -0.7655   -0.7253 H   0  0  0  0  0  0  0  0  0  0  0  0
   -2.8253   -2.0146   -0.8093 C   0  0  0  0  0  3  0  0  0  0  0  0
   -3.5104   -3.2838   -0.9745 C   0  0  0  0  0  0  0  0  0  0  0  0
   -4.5984   -3.4118   -1.0332 H   0  0  0  0  0  0  0  0  0  0  0  0
   -2.5338   -4.2514   -1.0510 C   0  0  0  0  0  0  0  0  0  0  0  0
   -2.6598   -5.3329   -1.1851 H   0  0  0  0  0  0  0  0  0  0  0  0
   -1.2591   -3.5674   -0.9336 C   0  0  0  0  0  0  0  0  0  0  0  0
   -0.0001   -4.1897   -0.9880 C   0  0  0  0  0  0  0  0  0  0  0  0
   -0.0001   -5.2833   -1.1100 H   0  0  0  0  0  0  0  0  0  0  0  0
    1.2590   -3.5674   -0.9336 C   0  0  0  0  0  0  0  0  0  0  0  0
    2.5336   -4.2515   -1.0510 C   0  0  0  0  0  0  0  0  0  0  0  0
    2.6596   -5.3330   -1.1850 H   0  0  0  0  0  0  0  0  0  0  0  0
    3.5103   -3.2839   -0.9745 C   0  0  0  0  0  0  0  0  0  0  0  0
    4.5983   -3.4120   -1.0332 H   0  0  0  0  0  0  0  0  0  0  0  0
    2.8252   -2.0146   -0.8093 C   0  0  0  0  0  0  0  0  0  0  0  0
    3.4594   -0.7598   -0.6915 C   0  0  0  0  0  0  0  0  0  0  0  0
    4.5589   -0.7657   -0.7253 H   0  0  0  0  0  0  0  0  0  0  0  0
    4.9075    2.1242   -0.4540 C   0  0  0  0  0  0  0  0  0  0  0  0
    5.6948    1.3614   -0.5560 H   0  0  0  0  0  0  0  0  0  0  0  0
    5.2435    3.4789   -0.3292 C   0  0  0  0  0  0  0  0  0  0  0  0
    6.3021    3.7802   -0.3320 H   0  0  0  0  0  0  0  0  0  0  0  0
    4.2411    4.4683   -0.2018 C   0  0  0  0  0  0  0  0  0  0  0  0
    4.5342    5.5249   -0.1067 H   0  0  0  0  0  0  0  0  0  0  0  0
    2.8834    4.1214   -0.1972 C   0  0  0  0  0  0  0  0  0  0  0  0
    2.1097    4.8985   -0.1004 H   0  0  0  0  0  0  0  0  0  0  0  0
   -2.8833    4.1215   -0.1972 C   0  0  0  0  0  0  0  0  0  0  0  0
   -2.1095    4.8985   -0.1004 H   0  0  0  0  0  0  0  0  0  0  0  0
   -4.2410    4.4684   -0.2018 C   0  0  0  0  0  0  0  0  0  0  0  0
   -4.5340    5.5250   -0.1067 H   0  0  0  0  0  0  0  0  0  0  0  0
   -5.2434    3.4791   -0.3292 C   0  0  0  0  0  0  0  0  0  0  0  0
   -6.3020    3.7804   -0.3319 H   0  0  0  0  0  0  0  0  0  0  0  0
   -4.9075    2.1243   -0.4540 C   0  0  0  0  0  0  0  0  0  0  0  0
   -5.6947    1.3616   -0.5560 H   0  0  0  0  0  0  0  0  0  0  0  0
  1  8  1  0  0  0  0
  2 11  2  0  0  0  0
  5  1  1  0  0  0  0
  5  6  1  0  0  0  0
  6  7  1  0  0  0  0
  7 39  2  0  0  0  0
  8  7  1  0  0  0  0
  8  9  2  0  0  0  0
  9 10  1  0  0  0  0
 11 12  1  0  0  0  0
 11  9  1  0  0  0  0
 12 41  1  0  0  0  0
 13 12  2  0  0  0  0
 14  2  1  0  0  0  0
 14 13  1  0  0  0  0
 15 14  2  0  0  0  0
 16 15  1  0  0  0  0
 17  3  1  0  0  0  0
 17 15  1  0  0  0  0
 18 17  1  0  0  0  0
 19 18  1  0  0  0  0
 20 18  2  0  0  0  0
 20 22  1  0  0  0  0
 21 20  1  0  0  0  0
 22  3  2  0  0  0  0
 23 22  1  0  0  0  0
 23 25  2  0  0  0  0
 24 23  1  0  0  0  0
 25  4  1  0  0  0  0
 26 28  2  0  0  0  0
 26 25  1  0  0  0  0
 27 26  1  0  0  0  0
 28 30  1  0  0  0  0
 29 28  1  0  0  0  0
 30  4  2  0  0  0  0
 30 31  1  0  0  0  0
 31  5  2  0  0  0  0
 32 31  1  0  0  0  0
 33  6  2  0  0  0  0
 33 35  1  0  0  0  0
 34 33  1  0  0  0  0
 35 37  2  0  0  0  0
 36 35  1  0  0  0  0
 37 39  1  0  0  0  0
 37 38  1  0  0  0  0
 39 40  1  0  0  0  0
 41 42  1  0  0  0  0
 43 41  2  0  0  0  0
 43 44  1  0  0  0  0
 45 43  1  0  0  0  0
 46 45  1  0  0  0  0
 47 13  1  0  0  0  0
 47 45  2  0  0  0  0
 48 47  1  0  0  0  0
M  END
