1,2,3,4
 OpenBabel05122313063D

 48 54  0  0  1  0  0  0  0  0999 V2000
   -0.9364   -0.0000   -0.0639 N   0  0  0  0  0  2  0  0  0  0  0  0
    1.1286   -2.0642   -0.0174 N   0  0  0  0  0  0  0  0  0  0  0  0
    3.1866    0.0000    0.0150 N   0  0  0  0  0  0  0  0  0  0  0  0
    1.1286    2.0642   -0.0174 N   0  0  0  0  0  0  0  0  0  0  0  0
   -1.7549    1.1159   -0.0761 C   0  0  0  0  0  0  0  0  0  0  0  0
   -3.1386    0.6881   -0.1073 C   0  0  0  0  0  0  0  0  0  0  0  0
   -3.1386   -0.6882   -0.1072 C   0  0  0  0  0  0  0  0  0  0  0  0
   -1.7549   -1.1159   -0.0760 C   0  0  0  0  0  0  0  0  0  0  0  0
   -1.3091   -2.4452   -0.0627 C   0  0  0  0  0  0  0  0  0  0  0  0
   -2.0851   -3.2249   -0.0773 H   0  0  0  0  0  0  0  0  0  0  0  0
    0.0245   -2.8859   -0.0351 C   0  0  0  0  0  0  0  0  0  0  0  0
    0.4443   -4.2752   -0.0240 C   0  0  0  0  0  0  0  0  0  0  0  0
   -0.2334   -5.1377   -0.0341 H   0  0  0  0  0  0  0  0  0  0  0  0
    1.8193   -4.2737    0.0001 C   0  0  0  0  0  0  0  0  0  0  0  0
    2.4991   -5.1344    0.0141 H   0  0  0  0  0  0  0  0  0  0  0  0
    2.2360   -2.8833    0.0038 C   0  0  0  0  0  0  0  0  0  0  0  0
    3.5674   -2.4395    0.0249 C   0  0  0  0  0  0  0  0  0  0  0  0
    4.3464   -3.2159    0.0395 H   0  0  0  0  0  0  0  0  0  0  0  0
    4.0075   -1.1059    0.0300 C   0  0  0  0  0  0  0  0  0  0  0  0
    5.3971   -0.6876    0.0544 C   0  0  0  0  0  0  0  0  0  0  0  0
    6.2584   -1.3665    0.0699 H   0  0  0  0  0  0  0  0  0  0  0  0
    5.3970    0.6876    0.0545 C   0  0  0  0  0  0  0  0  0  0  0  0
    6.2584    1.3666    0.0701 H   0  0  0  0  0  0  0  0  0  0  0  0
    4.0075    1.1059    0.0301 C   0  0  0  0  0  3  0  0  0  0  0  0
    3.5674    2.4395    0.0251 C   0  0  0  0  0  0  0  0  0  0  0  0
    4.3464    3.2160    0.0397 H   0  0  0  0  0  0  0  0  0  0  0  0
    2.2360    2.8833    0.0039 C   0  0  0  0  0  0  0  0  0  0  0  0
    1.8193    4.2737    0.0001 C   0  0  0  0  0  0  0  0  0  0  0  0
    2.4990    5.1344    0.0142 H   0  0  0  0  0  0  0  0  0  0  0  0
    0.4443    4.2752   -0.0240 C   0  0  0  0  0  0  0  0  0  0  0  0
   -0.2334    5.1377   -0.0341 H   0  0  0  0  0  0  0  0  0  0  0  0
    0.0245    2.8859   -0.0352 C   0  0  0  0  0  0  0  0  0  0  0  0
   -1.3091    2.4452   -0.0629 C   0  0  0  0  0  0  0  0  0  0  0  0
   -2.0851    3.2249   -0.0776 H   0  0  0  0  0  0  0  0  0  0  0  0
   -4.5080    1.3088   -0.0625 C   0  0  1  0  0  0  0  0  0  0  0  0
   -4.5104    2.4144   -0.0939 H   0  0  0  0  0  0  0  0  0  0  0  0
   -5.3398    0.6742   -1.1728 C   0  0  0  0  0  0  0  0  0  0  0  0
   -5.9218    1.2903   -1.8742 H   0  0  0  0  0  0  0  0  0  0  0  0
   -5.3398   -0.6743   -1.1727 C   0  0  0  0  0  0  0  0  0  0  0  0
   -5.9218   -1.2905   -1.8741 H   0  0  0  0  0  0  0  0  0  0  0  0
   -4.5080   -1.3088   -0.0623 C   0  0  2  0  0  0  0  0  0  0  0  0
   -4.5104   -2.4144   -0.0936 H   0  0  0  0  0  0  0  0  0  0  0  0
   -5.1459   -0.7757    1.2810 C   0  0  0  0  0  0  0  0  0  0  0  0
   -6.1764   -1.1732    1.3681 H   0  0  0  0  0  0  0  0  0  0  0  0
   -4.5615   -1.1733    2.1340 H   0  0  0  0  0  0  0  0  0  0  0  0
   -5.1459    0.7758    1.2809 C   0  0  0  0  0  0  0  0  0  0  0  0
   -4.5615    1.1736    2.1338 H   0  0  0  0  0  0  0  0  0  0  0  0
   -6.1764    1.1734    1.3679 H   0  0  0  0  0  0  0  0  0  0  0  0
  2 16  1  0  0  0  0
  3 19  2  0  0  0  0
  3 24  1  0  0  0  0
  4 27  1  0  0  0  0
  5  1  1  0  0  0  0
  5 33  2  0  0  0  0
  6  7  2  0  0  0  0
  6  5  1  0  0  0  0
  6 35  1  0  0  0  0
  7  8  1  0  0  0  0
  7 41  1  0  0  0  0
  8  1  1  0  0  0  0
  8  9  2  0  0  0  0
  9 11  1  0  0  0  0
 10  9  1  0  0  0  0
 11 12  1  0  0  0  0
 11  2  2  0  0  0  0
 12 14  2  0  0  0  0
 13 12  1  0  0  0  0
 14 16  1  0  0  0  0
 14 15  1  0  0  0  0
 16 17  2  0  0  0  0
 17 19  1  0  0  0  0
 17 18  1  0  0  0  0
 19 20  1  0  0  0  0
 20 22  2  0  0  0  0
 20 21  1  0  0  0  0
 22 23  1  0  0  0  0
 24 22  1  0  0  0  0
 25 24  1  0  0  0  0
 25 26  1  0  0  0  0
 27 25  2  0  0  0  0
 28 27  1  0  0  0  0
 28 29  1  0  0  0  0
 30 28  2  0  0  0  0
 31 30  1  0  0  0  0
 32 30  1  0  0  0  0
 32  4  2  0  0  0  0
 33 32  1  0  0  0  0
 34 33  1  0  0  0  0
 35 36  1  6  0  0  0
 35 46  1  0  0  0  0
 37 39  2  0  0  0  0
 37 35  1  0  0  0  0
 38 37  1  0  0  0  0
 39 41  1  0  0  0  0
 40 39  1  0  0  0  0
 41 42  1  6  0  0  0
 41 43  1  0  0  0  0
 43 44  1  0  0  0  0
 43 45  1  0  0  0  0
 46 43  1  0  0  0  0
 46 48  1  0  0  0  0
 46 47  1  0  0  0  0
M  END
