1,3,5,14
 OpenBabel05122313063D

 45 46  0  0  0  0  0  0  0  0999 V2000
    0.5594   -1.6678   -0.4765 N   0  0  0  0  0  0  0  0  0  0  0  0
    0.8341   -1.8156    0.5101 H   0  0  0  0  0  0  0  0  0  0  0  0
    0.5593    1.6677   -0.4767 N   0  0  0  0  0  0  0  0  0  0  0  0
    0.8339    1.8155    0.5099 H   0  0  0  0  0  0  0  0  0  0  0  0
   -2.3019    1.5112   -0.4647 N   0  0  0  0  0  0  0  0  0  0  0  0
   -2.5925    1.5082   -1.4546 H   0  0  0  0  0  0  0  0  0  0  0  0
    1.8061   -1.5192   -1.2730 C   0  0  0  0  0  0  0  0  0  0  0  0
    1.5400   -1.0672   -2.2506 H   0  0  0  0  0  0  0  0  0  0  0  0
    2.2291   -2.5248   -1.4908 H   0  0  0  0  0  0  0  0  0  0  0  0
   -0.2717   -2.8084   -0.9075 C   0  0  0  0  0  0  0  0  0  0  0  0
    0.2409   -3.7808   -0.7349 H   0  0  0  0  0  0  0  0  0  0  0  0
   -0.4265   -2.7226   -2.0053 H   0  0  0  0  0  0  0  0  0  0  0  0
    2.8417   -0.7087   -0.5325 C   0  0  0  0  0  0  0  0  0  0  0  0
   -2.3018   -1.5114   -0.4643 N   0  0  0  0  0  0  0  0  0  0  0  0
   -2.5924   -1.5085   -1.4543 H   0  0  0  0  0  0  0  0  0  0  0  0
   -1.6110   -2.7828   -0.1813 C   0  0  0  0  0  0  0  0  0  0  0  0
   -2.2235   -3.6682   -0.4618 H   0  0  0  0  0  0  0  0  0  0  0  0
   -1.4463   -2.8274    0.9162 H   0  0  0  0  0  0  0  0  0  0  0  0
    3.8189   -1.3931    0.2174 C   0  0  0  0  0  0  0  0  0  0  0  0
    3.8302   -2.4947    0.2048 H   0  0  0  0  0  0  0  0  0  0  0  0
   -3.5002    1.2930    0.3790 C   0  0  0  0  0  0  0  0  0  0  0  0
   -3.1451    1.2527    1.4301 H   0  0  0  0  0  0  0  0  0  0  0  0
   -4.1958    2.1578    0.2878 H   0  0  0  0  0  0  0  0  0  0  0  0
    2.8416    0.7087   -0.5325 C   0  0  0  0  0  0  0  0  0  0  0  0
    1.8061    1.5192   -1.2730 C   0  0  0  0  0  0  0  0  0  0  0  0
    1.5402    1.0672   -2.2507 H   0  0  0  0  0  0  0  0  0  0  0  0
    2.2291    2.5248   -1.4907 H   0  0  0  0  0  0  0  0  0  0  0  0
   -0.2718    2.8082   -0.9078 C   0  0  0  0  0  0  0  0  0  0  0  0
    0.2408    3.7806   -0.7352 H   0  0  0  0  0  0  0  0  0  0  0  0
   -0.4265    2.7223   -2.0056 H   0  0  0  0  0  0  0  0  0  0  0  0
    4.7809   -0.7009    0.9650 C   0  0  0  0  0  0  0  0  0  0  0  0
    5.5360   -1.2572    1.5394 H   0  0  0  0  0  0  0  0  0  0  0  0
   -3.5000   -1.2931    0.3794 C   0  0  0  0  0  0  0  0  0  0  0  0
   -4.1955   -2.1580    0.2884 H   0  0  0  0  0  0  0  0  0  0  0  0
   -3.1449   -1.2525    1.4304 H   0  0  0  0  0  0  0  0  0  0  0  0
    3.8189    1.3931    0.2174 C   0  0  0  0  0  0  0  0  0  0  0  0
    3.8302    2.4947    0.2048 H   0  0  0  0  0  0  0  0  0  0  0  0
   -1.6111    2.7826   -0.1817 C   0  0  0  0  0  0  0  0  0  0  0  0
   -2.2237    3.6679   -0.4623 H   0  0  0  0  0  0  0  0  0  0  0  0
   -1.4464    2.8273    0.9158 H   0  0  0  0  0  0  0  0  0  0  0  0
    4.7809    0.7009    0.9650 C   0  0  0  0  0  0  0  0  0  0  0  0
    5.5360    1.2572    1.5394 H   0  0  0  0  0  0  0  0  0  0  0  0
   -4.2359   -0.0001    0.0305 C   0  0  0  0  0  0  0  0  0  0  0  0
   -5.1942   -0.0001    0.5883 H   0  0  0  0  0  0  0  0  0  0  0  0
   -4.5282   -0.0003   -1.0458 H   0  0  0  0  0  0  0  0  0  0  0  0
  1  2  1  0  0  0  0
  3  4  1  0  0  0  0
  5 38  1  0  0  0  0
  5 21  1  0  0  0  0
  6  5  1  0  0  0  0
  7 13  1  0  0  0  0
  7  1  1  0  0  0  0
  8  7  1  0  0  0  0
  9  7  1  0  0  0  0
 10 11  1  0  0  0  0
 10  1  1  0  0  0  0
 10 16  1  0  0  0  0
 12 10  1  0  0  0  0
 13 19  1  0  0  0  0
 14 16  1  0  0  0  0
 14 33  1  0  0  0  0
 15 14  1  0  0  0  0
 16 18  1  0  0  0  0
 17 16  1  0  0  0  0
 19 31  2  0  0  0  0
 20 19  1  0  0  0  0
 21 22  1  0  0  0  0
 23 21  1  0  0  0  0
 24 13  2  0  0  0  0
 24 36  1  0  0  0  0
 25 24  1  0  0  0  0
 25  3  1  0  0  0  0
 26 25  1  0  0  0  0
 27 25  1  0  0  0  0
 28 29  1  0  0  0  0
 28  3  1  0  0  0  0
 28 38  1  0  0  0  0
 30 28  1  0  0  0  0
 31 32  1  0  0  0  0
 33 35  1  0  0  0  0
 34 33  1  0  0  0  0
 36 41  2  0  0  0  0
 37 36  1  0  0  0  0
 38 40  1  0  0  0  0
 39 38  1  0  0  0  0
 41 31  1  0  0  0  0
 41 42  1  0  0  0  0
 43 21  1  0  0  0  0
 43 33  1  0  0  0  0
 43 44  1  0  0  0  0
 45 43  1  0  0  0  0
M  END
