1,2,3,4
 OpenBabel05122313063D

 40 42  0  0  1  0  0  0  0  0999 V2000
    1.7302   -1.8739   -0.8662 N   0  0  0  0  0  2  0  0  0  0  0  0
   -0.8676   -1.2803   -0.4817 N   0  0  0  0  0  2  0  0  0  0  0  0
   -0.7350    1.3585   -0.4695 N   0  0  0  0  0  2  0  0  0  0  0  0
    1.9086    1.6949   -0.8719 N   0  0  0  0  0  2  0  0  0  0  0  0
    2.5462   -4.5283   -1.2733 N   0  0  0  0  0  0  0  0  0  0  0  0
    2.9691    4.2587   -1.2973 N   0  0  0  0  0  0  0  0  0  0  0  0
   -1.4595   -3.5531   -0.7112 O   0  0  0  0  0  0  0  0  0  0  0  0
   -1.0879    3.6883   -0.5985 O   0  0  0  0  0  0  0  0  0  0  0  0
    3.0235   -2.1850   -1.0606 C   0  0  0  0  0  3  0  0  0  0  0  0
    3.7533   -1.3586   -1.0527 H   0  0  0  0  0  0  0  0  0  0  0  0
    3.4269   -3.5120   -1.2676 C   0  0  0  0  0  0  0  0  0  0  0  0
    4.4906   -3.7551   -1.4332 H   0  0  0  0  0  0  0  0  0  0  0  0
    1.2616   -4.2119   -1.0759 C   0  0  0  0  0  0  0  0  0  0  0  0
    0.5035   -5.0121   -1.0741 H   0  0  0  0  0  0  0  0  0  0  0  0
    0.8222   -2.8829   -0.8678 C   0  0  0  0  0  0  0  0  0  0  0  0
   -0.6595   -2.5998   -0.6689 C   0  0  0  0  0  0  0  0  0  0  0  0
   -2.0834   -0.6205   -0.3619 C   0  0  0  0  0  0  0  0  0  0  0  0
   -3.3485   -1.2398   -0.2686 C   0  0  0  0  0  0  0  0  0  0  0  0
   -3.3818   -2.3376   -0.3009 H   0  0  0  0  0  0  0  0  0  0  0  0
   -4.5280   -0.4855   -0.1522 C   0  0  0  0  0  0  0  0  0  0  0  0
   -4.4537    0.9373   -0.1322 C   0  0  0  0  0  0  0  0  0  0  0  0
   -3.2029    1.5686   -0.2304 C   0  0  0  0  0  0  0  0  0  0  0  0
   -3.1224    2.6643   -0.2319 H   0  0  0  0  0  0  0  0  0  0  0  0
   -2.0077    0.8254   -0.3447 C   0  0  0  0  0  0  0  0  0  0  0  0
   -0.3935    2.6544   -0.6060 C   0  0  0  0  0  0  0  0  0  0  0  0
    1.1040    2.7886   -0.8396 C   0  0  2  0  0  3  0  0  0  0  0  0
    1.6679    4.0698   -1.0538 C   0  0  0  0  0  0  0  0  0  0  0  0
    0.9936    4.9410   -1.0167 H   0  0  0  0  0  0  0  0  0  0  0  0
    3.7437    3.1594   -1.3371 C   0  0  0  0  0  0  0  0  0  0  0  0
    4.8183    3.2971   -1.5470 H   0  0  0  0  0  0  0  0  0  0  0  0
    3.2185    1.8773   -1.1207 C   0  0  0  0  0  0  0  0  0  0  0  0
    3.8601    0.9811   -1.1521 H   0  0  0  0  0  0  0  0  0  0  0  0
   -5.8617   -1.1815   -0.0564 C   0  0  0  0  0  0  0  0  0  0  0  0
   -5.7442   -2.2816   -0.0875 H   0  0  0  0  0  0  0  0  0  0  0  0
   -6.5394   -0.8886   -0.8873 H   0  0  0  0  0  0  0  0  0  0  0  0
   -6.3974   -0.9217    0.8824 H   0  0  0  0  0  0  0  0  0  0  0  0
   -5.7083    1.7646   -0.0134 C   0  0  0  0  0  0  0  0  0  0  0  0
   -5.4774    2.8469   -0.0133 H   0  0  0  0  0  0  0  0  0  0  0  0
   -6.2678    1.5348    0.9192 H   0  0  0  0  0  0  0  0  0  0  0  0
   -6.4124    1.5670   -0.8505 H   0  0  0  0  0  0  0  0  0  0  0  0
  2 17  1  0  0  0  0
  3 24  1  0  0  0  0
  4 26  1  0  0  0  0
  5 11  2  0  0  0  0
  5 13  1  0  0  0  0
  6 27  2  0  0  0  0
  7 16  2  0  0  0  0
  9 10  1  0  0  0  0
  9  1  1  0  0  0  0
 11  9  1  0  0  0  0
 12 11  1  0  0  0  0
 13 14  1  0  0  0  0
 13 15  2  0  0  0  0
 15  1  1  0  0  0  0
 15 16  1  0  0  0  0
 16  2  1  0  0  0  0
 17 24  2  0  0  0  0
 17 18  1  0  0  0  0
 18 20  2  0  0  0  0
 19 18  1  0  0  0  0
 20 21  1  0  0  0  0
 20 33  1  0  0  0  0
 21 37  1  0  0  0  0
 22 21  2  0  0  0  0
 23 22  1  0  0  0  0
 24 22  1  0  0  0  0
 25  8  2  0  0  0  0
 25  3  1  0  0  0  0
 26 25  1  6  0  0  0
 27 28  1  0  0  0  0
 27 26  1  0  0  0  0
 29  6  1  0  0  0  0
 29 31  2  0  0  0  0
 30 29  1  0  0  0  0
 31  4  1  0  0  0  0
 32 31  1  0  0  0  0
 33 36  1  0  0  0  0
 34 33  1  0  0  0  0
 35 33  1  0  0  0  0
 37 38  1  0  0  0  0
 37 39  1  0  0  0  0
 40 37  1  0  0  0  0
M  END
