1,8,16,24
 OpenBabel05122313063D

 51 52  0  0  0  0  0  0  0  0999 V2000
   -0.2840   -0.0500   -0.2527 N   0  0  0  0  0  0  0  0  0  0  0  0
   -0.0826    0.9910   -1.3262 C   0  0  0  0  0  0  0  0  0  0  0  0
    0.9147    1.4606   -1.2167 H   0  0  0  0  0  0  0  0  0  0  0  0
   -0.0730    0.4830   -2.3116 H   0  0  0  0  0  0  0  0  0  0  0  0
   -1.1962    2.0203   -1.2891 C   0  0  0  0  0  0  0  0  0  0  0  0
   -1.1591    2.6215   -0.3599 H   0  0  0  0  0  0  0  0  0  0  0  0
   -1.1488    2.7005   -2.1668 H   0  0  0  0  0  0  0  0  0  0  0  0
   -2.4683    1.2592   -1.2516 N   0  0  0  0  0  0  0  0  0  0  0  0
   -2.5749    0.7557   -2.1474 H   0  0  0  0  0  0  0  0  0  0  0  0
   -3.7049    2.0375   -0.9905 C   0  0  0  0  0  0  0  0  0  0  0  0
   -3.9879    2.6604   -1.8657 H   0  0  0  0  0  0  0  0  0  0  0  0
   -3.4893    2.6918   -0.1254 H   0  0  0  0  0  0  0  0  0  0  0  0
   -4.7983    1.0353   -0.6403 C   0  0  0  0  0  0  0  0  0  0  0  0
   -5.6559    1.5378   -0.1508 H   0  0  0  0  0  0  0  0  0  0  0  0
   -5.1922    0.5559   -1.5596 H   0  0  0  0  0  0  0  0  0  0  0  0
   -4.2511   -0.0500    0.2442 N   0  0  0  0  0  0  0  0  0  0  0  0
   -4.5022    0.1253    1.2296 H   0  0  0  0  0  0  0  0  0  0  0  0
   -4.6839   -1.4127   -0.1795 C   0  0  0  0  0  0  0  0  0  0  0  0
   -5.7572   -1.4319   -0.4624 H   0  0  0  0  0  0  0  0  0  0  0  0
   -4.5370   -2.0843    0.6894 H   0  0  0  0  0  0  0  0  0  0  0  0
   -3.7797   -1.8582   -1.3318 C   0  0  0  0  0  0  0  0  0  0  0  0
   -3.9952   -2.9069   -1.6295 H   0  0  0  0  0  0  0  0  0  0  0  0
   -3.9220   -1.2300   -2.2377 H   0  0  0  0  0  0  0  0  0  0  0  0
   -2.4051   -1.6947   -0.8316 N   0  0  0  0  0  0  0  0  0  0  0  0
   -2.2864   -2.3141    0.0039 H   0  0  0  0  0  0  0  0  0  0  0  0
   -1.2219   -1.8411   -1.6890 C   0  0  0  0  0  0  0  0  0  0  0  0
   -1.3344   -1.2065   -2.5937 H   0  0  0  0  0  0  0  0  0  0  0  0
   -1.0895   -2.8857   -2.0457 H   0  0  0  0  0  0  0  0  0  0  0  0
   -0.0403   -1.4158   -0.8194 C   0  0  0  0  0  0  0  0  0  0  0  0
    0.0408   -2.1102    0.0404 H   0  0  0  0  0  0  0  0  0  0  0  0
    0.9195   -1.4508   -1.3754 H   0  0  0  0  0  0  0  0  0  0  0  0
    0.5889    0.2141    0.9589 C   0  0  0  0  0  0  0  0  0  0  0  0
    0.2978   -0.5519    1.7028 H   0  0  0  0  0  0  0  0  0  0  0  0
    0.2554    1.1877    1.3633 H   0  0  0  0  0  0  0  0  0  0  0  0
    2.0726    0.2070    0.6854 C   0  0  0  0  0  0  0  0  0  0  0  0
    2.8101   -0.9971    0.6767 C   0  0  0  0  0  0  0  0  0  0  0  0
    2.3089   -1.9476    0.9169 H   0  0  0  0  0  0  0  0  0  0  0  0
    4.1830   -0.9976    0.4016 C   0  0  0  0  0  0  0  0  0  0  0  0
    4.7563   -1.9348    0.4039 H   0  0  0  0  0  0  0  0  0  0  0  0
    4.8480    0.2149    0.1334 C   0  0  0  0  0  0  0  0  0  0  0  0
    4.1294    1.4246    0.1658 C   0  0  0  0  0  0  0  0  0  0  0  0
    4.6771    2.3601   -0.0203 H   0  0  0  0  0  0  0  0  0  0  0  0
    2.7584    1.4185    0.4441 C   0  0  0  0  0  0  0  0  0  0  0  0
    2.2125    2.3741    0.5053 H   0  0  0  0  0  0  0  0  0  0  0  0
    6.3149    0.2856   -0.1723 C   0  0  0  0  0  0  0  0  0  0  0  0
    6.9086    1.3205   -0.4178 O   0  0  0  0  0  0  0  0  0  0  0  0
    6.8961   -0.9339   -0.1447 O   0  0  0  0  0  0  0  0  0  0  0  0
    8.3060   -0.9498   -0.4180 C   0  0  0  0  0  0  0  0  0  0  0  0
    8.6172   -2.0070   -0.3572 H   0  0  0  0  0  0  0  0  0  0  0  0
    8.8541   -0.3390    0.3267 H   0  0  0  0  0  0  0  0  0  0  0  0
    8.5131   -0.5387   -1.4261 H   0  0  0  0  0  0  0  0  0  0  0  0
  1 32  1  0  0  0  0
  2  5  1  0  0  0  0
  2  3  1  0  0  0  0
  2  1  1  0  0  0  0
  4  2  1  0  0  0  0
  5  8  1  0  0  0  0
  5  6  1  0  0  0  0
  7  5  1  0  0  0  0
  8 10  1  0  0  0  0
  9  8  1  0  0  0  0
 10 13  1  0  0  0  0
 10 12  1  0  0  0  0
 11 10  1  0  0  0  0
 13 14  1  0  0  0  0
 13 16  1  0  0  0  0
 15 13  1  0  0  0  0
 16 17  1  0  0  0  0
 18 16  1  0  0  0  0
 18 20  1  0  0  0  0
 19 18  1  0  0  0  0
 21 24  1  0  0  0  0
 21 18  1  0  0  0  0
 22 21  1  0  0  0  0
 23 21  1  0  0  0  0
 24 25  1  0  0  0  0
 26 24  1  0  0  0  0
 26 29  1  0  0  0  0
 27 26  1  0  0  0  0
 28 26  1  0  0  0  0
 29  1  1  0  0  0  0
 29 30  1  0  0  0  0
 31 29  1  0  0  0  0
 32 34  1  0  0  0  0
 32 33  1  0  0  0  0
 35 32  1  0  0  0  0
 36 35  1  0  0  0  0
 36 37  1  0  0  0  0
 38 39  1  0  0  0  0
 38 36  2  0  0  0  0
 40 41  2  0  0  0  0
 40 38  1  0  0  0  0
 41 43  1  0  0  0  0
 42 41  1  0  0  0  0
 43 44  1  0  0  0  0
 43 35  2  0  0  0  0
 45 47  1  0  0  0  0
 45 40  1  0  0  0  0
 46 45  2  0  0  0  0
 48 49  1  0  0  0  0
 48 47  1  0  0  0  0
 48 50  1  0  0  0  0
 51 48  1  0  0  0  0
M  END
