27,28,29,30
 OpenBabel05122313063D

 34 34  0  0  1  0  0  0  0  0999 V2000
   -1.5339    1.5289    0.0000 C   0  0  0  0  0  0  0  0  0  0  0  0
   -2.5879    2.4690    0.0003 C   0  0  0  0  0  0  0  0  0  0  0  0
   -3.6171    2.0895    0.0002 H   0  0  0  0  0  0  0  0  0  0  0  0
   -2.2836    3.8418    0.0004 C   0  0  0  0  0  0  0  0  0  0  0  0
   -3.1083    4.5735    0.0006 H   0  0  0  0  0  0  0  0  0  0  0  0
   -0.9514    4.2908    0.0003 C   0  0  0  0  0  0  0  0  0  0  0  0
   -0.7316    5.3706    0.0004 H   0  0  0  0  0  0  0  0  0  0  0  0
    0.1106    3.3674    0.0001 C   0  0  0  0  0  0  0  0  0  0  0  0
    1.1619    3.6813   -0.0001 H   0  0  0  0  0  0  0  0  0  0  0  0
   -0.1778    1.9892   -0.0000 C   0  0  0  0  0  0  0  0  0  0  0  0
    2.0864    1.0414   -0.0004 C   0  0  0  0  0  0  0  0  0  0  0  0
    2.6570   -0.3576    0.0000 C   0  0  2  0  0  3  0  0  0  0  0  0
   -2.7976   -0.5918   -0.0001 C   0  0  0  0  0  0  0  0  0  0  0  0
   -2.4607   -2.0975   -0.0001 C   0  0  0  0  0  0  0  0  0  0  0  0
    4.9606    0.4289   -0.0002 C   0  0  0  0  0  0  0  0  0  0  0  0
    4.8690    1.0765   -0.8925 H   0  0  0  0  0  0  0  0  0  0  0  0
    5.9340   -0.1016    0.0003 H   0  0  0  0  0  0  0  0  0  0  0  0
    4.8686    1.0775    0.8913 H   0  0  0  0  0  0  0  0  0  0  0  0
    2.3082   -2.7200    0.0011 C   0  0  0  0  0  0  0  0  0  0  0  0
    3.4144   -2.7620    0.0021 H   0  0  0  0  0  0  0  0  0  0  0  0
    1.9213   -3.2600   -0.8869 H   0  0  0  0  0  0  0  0  0  0  0  0
    1.9195   -3.2597    0.8884 H   0  0  0  0  0  0  0  0  0  0  0  0
   -0.7067   -3.7089   -0.0004 C   0  0  0  0  0  0  0  0  0  0  0  0
   -1.6191   -4.3427   -0.0012 H   0  0  0  0  0  0  0  0  0  0  0  0
   -0.0981   -3.9741    0.8954 H   0  0  0  0  0  0  0  0  0  0  0  0
   -0.0968   -3.9734   -0.8956 H   0  0  0  0  0  0  0  0  0  0  0  0
   -1.6446    0.1415   -0.0001 N   0  0  0  0  0  2  0  0  0  0  0  0
    0.7399    0.9303   -0.0001 N   0  0  0  0  0  2  0  0  0  0  0  0
    1.8079   -1.3589    0.0004 N   0  0  0  0  0  2  0  0  0  0  0  0
   -1.1078   -2.3220   -0.0002 N   0  0  0  0  0  2  0  0  0  0  0  0
   -3.9570   -0.1622   -0.0002 O   0  0  0  0  0  0  0  0  0  0  0  0
    2.8021    2.0699   -0.0009 O   0  0  0  0  0  0  0  0  0  0  0  0
    3.9789   -0.6120    0.0002 O   0  0  0  0  0  0  0  0  0  0  0  0
   -3.3534   -2.9568    0.0000 O   0  0  0  0  0  0  0  0  0  0  0  0
  1  2  1  0  0  0  0
  2  4  2  0  0  0  0
  3  2  1  0  0  0  0
  4  5  1  0  0  0  0
  6  4  1  0  0  0  0
  6  7  1  0  0  0  0
  8  6  2  0  0  0  0
  9  8  1  0  0  0  0
 10  1  2  0  0  0  0
 10  8  1  0  0  0  0
 11 28  1  0  0  0  0
 12 11  1  1  0  0  0
 12 33  1  0  0  0  0
 12 29  1  0  0  0  0
 13 27  1  0  0  0  0
 13 14  1  0  0  0  0
 14 34  2  0  0  0  0
 15 33  1  0  0  0  0
 15 17  1  0  0  0  0
 15 18  1  0  0  0  0
 16 15  1  0  0  0  0
 19 20  1  0  0  0  0
 19 22  1  0  0  0  0
 21 19  1  0  0  0  0
 23 30  1  0  0  0  0
 23 25  1  0  0  0  0
 24 23  1  0  0  0  0
 26 23  1  0  0  0  0
 27  1  1  0  0  0  0
 28 10  1  0  0  0  0
 29 19  1  0  0  0  0
 30 14  1  0  0  0  0
 31 13  2  0  0  0  0
 32 11  2  0  0  0  0
M  END
