1,3,4,7
 OpenBabel05122313063D

 52 54  0  0  1  0  0  0  0  0999 V2000
   -0.1993   -1.5900   -0.6608 N   0  0  0  0  0  0  0  0  0  0  0  0
    0.9011   -0.1382   -2.2102 N   0  0  0  0  0  0  0  0  0  0  0  0
    0.5900    0.8913   -1.3602 N   0  0  0  0  0  2  0  0  0  0  0  0
    1.6432   -0.2996    0.8053 N   0  0  0  0  0  2  0  0  0  0  0  0
   -2.4630   -0.9364   -0.6886 N   0  0  0  0  0  0  0  0  0  0  0  0
    1.1892    1.9906   -1.8717 C   0  0  1  0  0  3  0  0  0  0  0  0
   -2.0056    0.2959   -0.3025 N   0  0  0  0  0  2  0  0  0  0  0  0
   -3.0200    1.1591   -0.5021 C   0  0  2  0  0  3  0  0  0  0  0  0
    1.9154   -1.5825    0.4123 N   0  0  0  0  0  0  0  0  0  0  0  0
    0.7962   -2.4239    0.0457 C   0  0  0  0  0  0  0  0  0  0  0  0
    0.3072   -2.8545    0.9494 H   0  0  0  0  0  0  0  0  0  0  0  0
    1.1726   -3.2540   -0.5906 H   0  0  0  0  0  0  0  0  0  0  0  0
   -3.7659   -0.8883   -1.1174 C   0  0  0  0  0  0  0  0  0  0  0  0
   -1.5917   -2.0761   -0.5001 C   0  0  0  0  0  0  0  0  0  0  0  0
   -1.8560   -2.8519   -1.2528 H   0  0  0  0  0  0  0  0  0  0  0  0
   -1.6939   -2.5172    0.5148 H   0  0  0  0  0  0  0  0  0  0  0  0
    0.1129   -1.3369   -2.0869 C   0  0  0  0  0  0  0  0  0  0  0  0
    0.6633   -2.1850   -2.5458 H   0  0  0  0  0  0  0  0  0  0  0  0
   -0.8559   -1.2111   -2.6186 H   0  0  0  0  0  0  0  0  0  0  0  0
    1.8695    1.6369   -3.0718 C   0  0  0  0  0  0  0  0  0  0  0  0
    2.4556    2.3093   -3.7070 H   0  0  0  0  0  0  0  0  0  0  0  0
    2.7790    0.1853    1.3408 C   0  0  1  0  0  3  0  0  0  0  0  0
    1.6634    0.2770   -3.2758 C   0  0  0  0  0  0  0  0  0  0  0  0
    3.2038   -1.9478    0.7142 C   0  0  0  0  0  0  0  0  0  0  0  0
   -4.1431    0.4486   -1.0104 C   0  0  0  0  0  0  0  0  0  0  0  0
   -5.1206    0.8701   -1.2665 H   0  0  0  0  0  0  0  0  0  0  0  0
    2.8956    1.5696    1.8851 C   0  0  0  0  0  0  0  0  0  0  0  0
    2.1227    1.7662    2.6522 H   0  0  0  0  0  0  0  0  0  0  0  0
    2.7450    2.3322    1.0965 H   0  0  0  0  0  0  0  0  0  0  0  0
    3.8970    1.7179    2.3296 H   0  0  0  0  0  0  0  0  0  0  0  0
    2.1022   -0.6424   -4.3662 C   0  0  0  0  0  0  0  0  0  0  0  0
    2.6646   -1.5159   -3.9726 H   0  0  0  0  0  0  0  0  0  0  0  0
    2.7702   -0.1028   -5.0623 H   0  0  0  0  0  0  0  0  0  0  0  0
    1.2491   -1.0346   -4.9607 H   0  0  0  0  0  0  0  0  0  0  0  0
    3.7422   -3.3145    0.4503 C   0  0  0  0  0  0  0  0  0  0  0  0
    3.6539   -3.6030   -0.6191 H   0  0  0  0  0  0  0  0  0  0  0  0
    3.2204   -4.0903    1.0502 H   0  0  0  0  0  0  0  0  0  0  0  0
    4.8140   -3.3509    0.7177 H   0  0  0  0  0  0  0  0  0  0  0  0
    1.1243    3.3495   -1.2592 C   0  0  0  0  0  0  0  0  0  0  0  0
    1.6357    3.4010   -0.2786 H   0  0  0  0  0  0  0  0  0  0  0  0
    0.0830    3.6656   -1.0568 H   0  0  0  0  0  0  0  0  0  0  0  0
    1.5927    4.0842   -1.9402 H   0  0  0  0  0  0  0  0  0  0  0  0
    3.7815   -0.8239    1.2989 C   0  0  0  0  0  0  0  0  0  0  0  0
    4.8115   -0.7350    1.6594 H   0  0  0  0  0  0  0  0  0  0  0  0
   -4.5208   -2.1006   -1.5507 C   0  0  0  0  0  0  0  0  0  0  0  0
   -4.6253   -2.8386   -0.7274 H   0  0  0  0  0  0  0  0  0  0  0  0
   -4.0345   -2.6201   -2.4042 H   0  0  0  0  0  0  0  0  0  0  0  0
   -5.5374   -1.8110   -1.8737 H   0  0  0  0  0  0  0  0  0  0  0  0
   -2.9048    2.6185   -0.2149 C   0  0  0  0  0  0  0  0  0  0  0  0
   -1.9841    3.0401   -0.6611 H   0  0  0  0  0  0  0  0  0  0  0  0
   -2.8308    2.8185    0.8724 H   0  0  0  0  0  0  0  0  0  0  0  0
   -3.7828    3.1566   -0.6176 H   0  0  0  0  0  0  0  0  0  0  0  0
  1 14  1  0  0  0  0
  1 10  1  0  0  0  0
  2 17  1  0  0  0  0
  2  3  1  0  0  0  0
  4 22  1  0  0  0  0
  5 14  1  0  0  0  0
  5  7  1  0  0  0  0
  6  3  1  0  0  0  0
  6 39  1  6  0  0  0
  8  7  1  0  0  0  0
  8 49  1  6  0  0  0
  9 24  1  0  0  0  0
  9  4  1  0  0  0  0
 10  9  1  0  0  0  0
 10 11  1  0  0  0  0
 12 10  1  0  0  0  0
 13 25  2  0  0  0  0
 13  5  1  0  0  0  0
 14 16  1  0  0  0  0
 15 14  1  0  0  0  0
 17  1  1  0  0  0  0
 18 17  1  0  0  0  0
 19 17  1  0  0  0  0
 20  6  1  0  0  0  0
 21 20  1  0  0  0  0
 22 27  1  1  0  0  0
 23 20  2  0  0  0  0
 23  2  1  0  0  0  0
 24 43  2  0  0  0  0
 25  8  1  0  0  0  0
 26 25  1  0  0  0  0
 27 30  1  0  0  0  0
 27 28  1  0  0  0  0
 29 27  1  0  0  0  0
 31 32  1  0  0  0  0
 31 23  1  0  0  0  0
 33 31  1  0  0  0  0
 34 31  1  0  0  0  0
 35 24  1  0  0  0  0
 35 38  1  0  0  0  0
 35 37  1  0  0  0  0
 36 35  1  0  0  0  0
 39 41  1  0  0  0  0
 39 40  1  0  0  0  0
 42 39  1  0  0  0  0
 43 22  1  0  0  0  0
 43 44  1  0  0  0  0
 45 13  1  0  0  0  0
 45 46  1  0  0  0  0
 47 45  1  0  0  0  0
 48 45  1  0  0  0  0
 49 51  1  0  0  0  0
 50 49  1  0  0  0  0
 52 49  1  0  0  0  0
M  END
