1,2,3,4
 OpenBabel05122313063D

 48 52  0  0  0  0  0  0  0  0999 V2000
   -0.5947   -1.3356   -0.3701 N   0  0  0  0  0  0  0  0  0  0  0  0
   -0.5947    1.3356   -0.3700 N   0  0  0  0  0  2  0  0  0  0  0  0
    2.1214    1.3643    0.0896 N   0  0  0  0  0  0  0  0  0  0  0  0
    2.1214   -1.3643    0.0895 N   0  0  0  0  0  0  0  0  0  0  0  0
   -0.3725   -2.6336   -0.7980 C   0  0  0  0  0  0  0  0  0  0  0  0
   -1.6293   -3.3074   -1.0062 C   0  0  0  0  0  0  0  0  0  0  0  0
   -2.6124   -2.4448   -0.5925 C   0  0  0  0  0  0  0  0  0  0  0  0
   -1.9651   -1.2052   -0.1995 C   0  0  0  0  0  0  0  0  0  0  0  0
   -2.6297    0.0000    0.1282 C   0  0  0  0  0  0  0  0  0  0  0  0
   -4.0472   -0.0000    0.7604 C   0  0  0  0  0  0  0  0  0  0  0  0
   -4.2322   -1.2219    1.6980 C   0  0  0  0  0  0  0  0  0  0  0  0
   -5.1514   -0.0008   -0.3213 C   0  0  0  0  0  0  0  0  0  0  0  0
   -4.2332    1.2227    1.6967 C   0  0  0  0  0  0  0  0  0  0  0  0
   -1.9651    1.2052   -0.1997 C   0  0  0  0  0  0  0  0  0  0  0  0
   -2.6124    2.4446   -0.5931 C   0  0  0  0  0  0  0  0  0  0  0  0
   -1.6293    3.3073   -1.0067 C   0  0  0  0  0  0  0  0  0  0  0  0
   -0.3725    2.6335   -0.7981 C   0  0  0  0  0  0  0  0  0  0  0  0
    0.8676    3.2705   -0.8126 C   0  0  0  0  0  0  0  0  0  0  0  0
    2.0244    2.6870   -0.2983 C   0  0  0  0  0  0  0  0  0  0  0  0
    3.2476    3.3929    0.0110 C   0  0  0  0  0  0  0  0  0  0  0  0
    4.0782    2.4907    0.6296 C   0  0  0  0  0  0  0  0  0  0  0  0
    3.3836    1.2219    0.6368 C   0  0  0  0  0  0  0  0  0  0  0  0
    3.9634    0.0000    0.9770 C   0  0  0  0  0  0  0  0  0  0  0  0
    3.3837   -1.2219    0.6366 C   0  0  0  0  0  3  0  0  0  0  0  0
    4.0784   -2.4906    0.6292 C   0  0  0  0  0  0  0  0  0  0  0  0
    3.2477   -3.3928    0.0106 C   0  0  0  0  0  0  0  0  0  0  0  0
    2.0244   -2.6870   -0.2985 C   0  0  0  0  0  0  0  0  0  0  0  0
    0.8676   -3.2705   -0.8127 C   0  0  0  0  0  0  0  0  0  0  0  0
   -1.7381   -4.3277   -1.3924 H   0  0  0  0  0  0  0  0  0  0  0  0
   -3.6912   -2.6151   -0.6315 H   0  0  0  0  0  0  0  0  0  0  0  0
   -3.4137   -1.2713    2.4436 H   0  0  0  0  0  0  0  0  0  0  0  0
   -4.2633   -2.1918    1.1753 H   0  0  0  0  0  0  0  0  0  0  0  0
   -5.1883   -1.1122    2.2485 H   0  0  0  0  0  0  0  0  0  0  0  0
   -5.0814    0.8906   -0.9751 H   0  0  0  0  0  0  0  0  0  0  0  0
   -6.1553   -0.0007    0.1517 H   0  0  0  0  0  0  0  0  0  0  0  0
   -5.0812   -0.8928   -0.9742 H   0  0  0  0  0  0  0  0  0  0  0  0
   -4.2664    2.1920    1.1729 H   0  0  0  0  0  0  0  0  0  0  0  0
   -3.4141    1.2743    2.4415 H   0  0  0  0  0  0  0  0  0  0  0  0
   -5.1886    1.1121    2.2483 H   0  0  0  0  0  0  0  0  0  0  0  0
   -3.6912    2.6149   -0.6323 H   0  0  0  0  0  0  0  0  0  0  0  0
   -1.7381    4.3275   -1.3931 H   0  0  0  0  0  0  0  0  0  0  0  0
    0.9059    4.3241   -1.1218 H   0  0  0  0  0  0  0  0  0  0  0  0
    3.4250    4.4539   -0.2014 H   0  0  0  0  0  0  0  0  0  0  0  0
    5.0925    2.6465    1.0161 H   0  0  0  0  0  0  0  0  0  0  0  0
    4.9782   -0.0000    1.3979 H   0  0  0  0  0  0  0  0  0  0  0  0
    5.0926   -2.6464    1.0157 H   0  0  0  0  0  0  0  0  0  0  0  0
    3.4251   -4.4537   -0.2020 H   0  0  0  0  0  0  0  0  0  0  0  0
    0.9059   -4.3241   -1.1219 H   0  0  0  0  0  0  0  0  0  0  0  0
  1  8  2  0  0  0  0
  2 14  1  0  0  0  0
  3 22  1  0  0  0  0
  4 24  1  0  0  0  0
  5  1  1  0  0  0  0
  6  5  1  0  0  0  0
  6  7  2  0  0  0  0
  7  8  1  0  0  0  0
  8  9  1  0  0  0  0
  9 10  1  0  0  0  0
 10 13  1  0  0  0  0
 10 11  1  0  0  0  0
 11 33  1  0  0  0  0
 11 31  1  0  0  0  0
 12 35  1  0  0  0  0
 12 10  1  0  0  0  0
 13 39  1  0  0  0  0
 13 38  1  0  0  0  0
 14  9  2  0  0  0  0
 15 14  1  0  0  0  0
 16 17  1  0  0  0  0
 16 15  2  0  0  0  0
 17  2  1  0  0  0  0
 18 17  2  0  0  0  0
 18 19  1  0  0  0  0
 19 20  1  0  0  0  0
 19  3  2  0  0  0  0
 20 21  2  0  0  0  0
 21 22  1  0  0  0  0
 21 44  1  0  0  0  0
 22 23  2  0  0  0  0
 23 45  1  0  0  0  0
 24 23  1  0  0  0  0
 25 24  1  0  0  0  0
 25 46  1  0  0  0  0
 26 25  2  0  0  0  0
 27 26  1  0  0  0  0
 27  4  2  0  0  0  0
 28  5  2  0  0  0  0
 28 27  1  0  0  0  0
 29  6  1  0  0  0  0
 30  7  1  0  0  0  0
 32 11  1  0  0  0  0
 34 12  1  0  0  0  0
 36 12  1  0  0  0  0
 37 13  1  0  0  0  0
 40 15  1  0  0  0  0
 41 16  1  0  0  0  0
 42 18  1  0  0  0  0
 43 20  1  0  0  0  0
 47 26  1  0  0  0  0
 48 28  1  0  0  0  0
M  END
