1,2,3,4
 OpenBabel05122313063D

 62 65  0  0  1  0  0  0  0  0999 V2000
   -1.2472   -0.8736    0.8933 N   0  0  0  0  0  2  0  0  0  0  0  0
   -1.2246    1.5380   -0.3591 N   0  0  0  0  0  2  0  0  0  0  0  0
    1.4106    1.4804   -0.2049 N   0  0  0  0  0  2  0  0  0  0  0  0
    1.1743   -1.2689   -0.2156 N   0  0  0  0  0  2  0  0  0  0  0  0
   -3.2680   -1.5661    1.5904 O   0  0  0  0  0  0  0  0  0  0  0  0
   -1.1851    3.8243   -0.8798 O   0  0  0  0  0  0  0  0  0  0  0  0
    1.4876    3.8311   -0.3018 O   0  0  0  0  0  0  0  0  0  0  0  0
    3.0375   -2.3624   -0.8340 O   0  0  0  0  0  0  0  0  0  0  0  0
   -0.9599   -1.6849    2.0946 C   0  0  2  0  0  0  0  0  0  0  0  0
   -2.3151   -2.3920    2.3022 C   0  0  0  0  0  0  0  0  0  0  0  0
   -2.5475   -0.7666    0.7681 C   0  0  1  0  0  3  0  0  0  0  0  0
   -3.2407    0.1379   -0.1139 C   0  0  0  0  0  0  0  0  0  0  0  0
   -4.6097   -0.1034   -0.3885 C   0  0  0  0  0  0  0  0  0  0  0  0
   -5.3424    0.7640   -1.1917 C   0  0  0  0  0  0  0  0  0  0  0  0
   -4.6942    1.9002   -1.7172 C   0  0  0  0  0  0  0  0  0  0  0  0
   -3.3541    2.1719   -1.4438 C   0  0  0  0  0  0  0  0  0  0  0  0
   -2.5663    1.2977   -0.6361 C   0  0  0  0  0  0  0  0  0  0  0  0
   -0.6372    2.7753   -0.5578 C   0  0  0  0  0  0  0  0  0  0  0  0
    0.8877    2.7605   -0.3274 C   0  0  0  0  0  0  0  0  0  0  0  0
    2.7736    1.2469   -0.0276 C   0  0  0  0  0  0  0  0  0  0  0  0
    3.7147    2.2928    0.2193 C   0  0  0  0  0  0  0  0  0  0  0  0
    5.0773    2.0337    0.3655 C   0  0  0  0  0  0  0  0  0  0  0  0
    5.5980    0.7292    0.2645 C   0  0  0  0  0  0  0  0  0  0  0  0
    4.7128   -0.3161    0.0244 C   0  0  0  0  0  0  0  0  0  0  0  0
    3.3208   -0.0838   -0.1075 C   0  0  0  0  0  0  0  0  0  0  0  0
    2.4748   -1.2219   -0.3668 C   0  0  1  0  0  3  0  0  0  0  0  0
    1.9813   -3.3473   -0.9181 C   0  0  0  0  0  0  0  0  0  0  0  0
    0.6782   -2.5283   -0.8034 C   0  0  2  0  0  0  0  0  0  0  0  0
   -0.4963   -0.8183    3.2951 C   0  0  0  0  0  0  0  0  0  0  0  0
    0.9371   -0.3098    3.1127 C   0  0  0  0  0  0  0  0  0  0  0  0
   -1.4631    0.3350    3.5900 C   0  0  0  0  0  0  0  0  0  0  0  0
   -0.0815   -2.2685   -2.1275 C   0  0  0  0  0  0  0  0  0  0  0  0
   -0.7043   -3.5655   -2.6532 C   0  0  0  0  0  0  0  0  0  0  0  0
    0.7800   -1.5657   -3.1806 C   0  0  0  0  0  0  0  0  0  0  0  0
   -0.1580   -2.4173    1.8705 H   0  0  0  0  0  0  0  0  0  0  0  0
   -2.3387   -3.4100    1.8573 H   0  0  0  0  0  0  0  0  0  0  0  0
   -2.6314   -2.4499    3.3614 H   0  0  0  0  0  0  0  0  0  0  0  0
   -5.0751   -0.9979    0.0494 H   0  0  0  0  0  0  0  0  0  0  0  0
   -6.4020    0.5671   -1.4089 H   0  0  0  0  0  0  0  0  0  0  0  0
   -5.2519    2.6001   -2.3590 H   0  0  0  0  0  0  0  0  0  0  0  0
   -2.8818    3.0795   -1.8319 H   0  0  0  0  0  0  0  0  0  0  0  0
    3.3332    3.3166    0.2743 H   0  0  0  0  0  0  0  0  0  0  0  0
    5.7537    2.8804    0.5616 H   0  0  0  0  0  0  0  0  0  0  0  0
    6.6752    0.5381    0.3748 H   0  0  0  0  0  0  0  0  0  0  0  0
    5.0721   -1.3512   -0.0609 H   0  0  0  0  0  0  0  0  0  0  0  0
    2.0926   -3.8897   -1.8767 H   0  0  0  0  0  0  0  0  0  0  0  0
    2.1084   -4.0655   -0.0806 H   0  0  0  0  0  0  0  0  0  0  0  0
   -0.0293   -3.0167   -0.1032 H   0  0  0  0  0  0  0  0  0  0  0  0
   -0.5035   -1.5193    4.1621 H   0  0  0  0  0  0  0  0  0  0  0  0
    1.2813    0.2292    4.0176 H   0  0  0  0  0  0  0  0  0  0  0  0
    1.6475   -1.1371    2.9115 H   0  0  0  0  0  0  0  0  0  0  0  0
    1.0002    0.3938    2.2549 H   0  0  0  0  0  0  0  0  0  0  0  0
   -1.1576    0.8718    4.5095 H   0  0  0  0  0  0  0  0  0  0  0  0
   -2.5077   -0.0081    3.7321 H   0  0  0  0  0  0  0  0  0  0  0  0
   -1.4570    1.0679    2.7573 H   0  0  0  0  0  0  0  0  0  0  0  0
   -0.9061   -1.5761   -1.8467 H   0  0  0  0  0  0  0  0  0  0  0  0
   -1.3266   -3.3670   -3.5481 H   0  0  0  0  0  0  0  0  0  0  0  0
    0.0708   -4.3031   -2.9528 H   0  0  0  0  0  0  0  0  0  0  0  0
   -1.3531   -4.0470   -1.8922 H   0  0  0  0  0  0  0  0  0  0  0  0
    0.1832   -1.3576   -4.0907 H   0  0  0  0  0  0  0  0  0  0  0  0
    1.6485   -2.1844   -3.4900 H   0  0  0  0  0  0  0  0  0  0  0  0
    1.1626   -0.5953   -2.8062 H   0  0  0  0  0  0  0  0  0  0  0  0
  1  9  1  0  0  0  0
  3 20  1  0  0  0  0
  5 10  1  0  0  0  0
  6 18  2  0  0  0  0
  8 26  1  0  0  0  0
  9 35  1  6  0  0  0
  9 10  1  0  0  0  0
  9 29  1  0  0  0  0
 10 37  1  0  0  0  0
 11 12  1  1  0  0  0
 11  1  1  0  0  0  0
 11  5  1  0  0  0  0
 13 12  1  0  0  0  0
 13 38  1  0  0  0  0
 14 13  2  0  0  0  0
 15 16  2  0  0  0  0
 15 14  1  0  0  0  0
 16 17  1  0  0  0  0
 17  2  1  0  0  0  0
 17 12  2  0  0  0  0
 18  2  1  0  0  0  0
 18 19  1  0  0  0  0
 19  7  2  0  0  0  0
 19  3  1  0  0  0  0
 20 21  1  0  0  0  0
 21 42  1  0  0  0  0
 21 22  2  0  0  0  0
 22 43  1  0  0  0  0
 23 22  1  0  0  0  0
 23 44  1  0  0  0  0
 24 23  2  0  0  0  0
 25 20  2  0  0  0  0
 25 24  1  0  0  0  0
 26  4  1  0  0  0  0
 26 25  1  6  0  0  0
 27  8  1  0  0  0  0
 27 28  1  0  0  0  0
 27 47  1  0  0  0  0
 28  4  1  0  0  0  0
 28 48  1  1  0  0  0
 29 31  1  0  0  0  0
 29 49  1  0  0  0  0
 30 29  1  0  0  0  0
 30 50  1  0  0  0  0
 31 54  1  0  0  0  0
 31 53  1  0  0  0  0
 32 56  1  0  0  0  0
 32 28  1  0  0  0  0
 33 32  1  0  0  0  0
 33 59  1  0  0  0  0
 34 62  1  0  0  0  0
 34 32  1  0  0  0  0
 36 10  1  0  0  0  0
 39 14  1  0  0  0  0
 40 15  1  0  0  0  0
 41 16  1  0  0  0  0
 45 24  1  0  0  0  0
 46 27  1  0  0  0  0
 51 30  1  0  0  0  0
 52 30  1  0  0  0  0
 55 31  1  0  0  0  0
 57 33  1  0  0  0  0
 58 33  1  0  0  0  0
 60 34  1  0  0  0  0
 61 34  1  0  0  0  0
M  END
