21,24,45,48
 OpenBabel05122313063D

 48 51  0  0  1  0  0  0  0  0999 V2000
   -0.7127    2.2682   -1.2886 C   0  0  0  0  0  3  0  0  0  0  0  0
    0.3823    2.3082   -1.3401 H   0  0  0  0  0  0  0  0  0  0  0  0
   -1.4978    3.3168   -1.7517 C   0  0  0  0  0  0  0  0  0  0  0  0
   -1.0109    4.2148   -2.1582 H   0  0  0  0  0  0  0  0  0  0  0  0
   -2.9069    3.2159   -1.6871 C   0  0  0  0  0  0  0  0  0  0  0  0
   -3.4273    2.0052   -1.2227 C   0  0  0  0  0  0  0  0  0  0  0  0
   -4.5146    1.8335   -1.2119 H   0  0  0  0  0  0  0  0  0  0  0  0
   -2.5658    0.9637   -0.8024 C   0  0  0  0  0  0  0  0  0  0  0  0
   -2.5780   -1.5148   -0.3761 C   0  0  1  0  0  3  0  0  0  0  0  0
   -3.4505   -2.6207   -0.2935 C   0  0  0  0  0  0  0  0  0  0  0  0
   -4.5361   -2.4549   -0.3452 H   0  0  0  0  0  0  0  0  0  0  0  0
   -2.9228   -3.9030   -0.1333 C   0  0  0  0  0  0  0  0  0  0  0  0
   -3.5912   -4.7725   -0.0615 H   0  0  0  0  0  0  0  0  0  0  0  0
   -1.5352   -4.0553   -0.0291 C   0  0  0  0  0  0  0  0  0  0  0  0
   -1.0857   -5.0386    0.1599 H   0  0  0  0  0  0  0  0  0  0  0  0
   -0.7222   -2.9158   -0.1075 C   0  0  0  0  0  0  0  0  0  0  0  0
   -3.7946    4.3474   -2.1253 C   0  0  0  0  0  0  0  0  0  0  0  0
   -4.8617    4.0550   -2.1405 H   0  0  0  0  0  0  0  0  0  0  0  0
   -3.5158    4.7040   -3.1379 H   0  0  0  0  0  0  0  0  0  0  0  0
   -3.6895    5.2152   -1.4405 H   0  0  0  0  0  0  0  0  0  0  0  0
   -1.2218    1.1244   -0.7536 N   0  0  0  0  0  2  0  0  0  0  0  0
   -3.1334   -0.2545   -0.4833 N   0  0  0  0  0  0  0  0  0  0  0  0
   -4.1438   -0.2322   -0.3513 H   0  0  0  0  0  0  0  0  0  0  0  0
   -1.2316   -1.6615   -0.3283 N   0  0  0  0  0  2  0  0  0  0  0  0
    0.7132    2.2680    1.2887 C   0  0  0  0  0  3  0  0  0  0  0  0
   -0.3818    2.3082    1.3402 H   0  0  0  0  0  0  0  0  0  0  0  0
    1.4985    3.3164    1.7518 C   0  0  0  0  0  0  0  0  0  0  0  0
    1.0118    4.2145    2.1584 H   0  0  0  0  0  0  0  0  0  0  0  0
    2.9075    3.2152    1.6873 C   0  0  0  0  0  0  0  0  0  0  0  0
    3.4277    2.0045    1.2227 C   0  0  0  0  0  0  0  0  0  0  0  0
    4.5150    1.8325    1.2119 H   0  0  0  0  0  0  0  0  0  0  0  0
    2.5660    0.9632    0.8024 C   0  0  0  0  0  0  0  0  0  0  0  0
    2.5776   -1.5153    0.3760 C   0  0  1  0  0  3  0  0  0  0  0  0
    3.4499   -2.6214    0.2934 C   0  0  0  0  0  0  0  0  0  0  0  0
    4.5355   -2.4558    0.3451 H   0  0  0  0  0  0  0  0  0  0  0  0
    2.9220   -3.9036    0.1332 C   0  0  0  0  0  0  0  0  0  0  0  0
    3.5902   -4.7732    0.0613 H   0  0  0  0  0  0  0  0  0  0  0  0
    1.5343   -4.0557    0.0290 C   0  0  0  0  0  0  0  0  0  0  0  0
    1.0846   -5.0388   -0.1601 H   0  0  0  0  0  0  0  0  0  0  0  0
    0.7216   -2.9160    0.1074 C   0  0  0  0  0  0  0  0  0  0  0  0
    3.7955    4.3466    2.1254 C   0  0  0  0  0  0  0  0  0  0  0  0
    4.8626    4.0538    2.1409 H   0  0  0  0  0  0  0  0  0  0  0  0
    3.5166    4.7034    3.1379 H   0  0  0  0  0  0  0  0  0  0  0  0
    3.6908    5.2143    1.4405 H   0  0  0  0  0  0  0  0  0  0  0  0
    1.2220    1.1241    0.7536 N   0  0  0  0  0  2  0  0  0  0  0  0
    3.1333   -0.2551    0.4832 N   0  0  0  0  0  0  0  0  0  0  0  0
    4.1437   -0.2331    0.3512 H   0  0  0  0  0  0  0  0  0  0  0  0
    1.2312   -1.6618    0.3282 N   0  0  0  0  0  2  0  0  0  0  0  0
  1 21  1  0  0  0  0
  2  1  1  0  0  0  0
  3  5  2  0  0  0  0
  3  1  1  0  0  0  0
  4  3  1  0  0  0  0
  5  6  1  0  0  0  0
  6  7  1  0  0  0  0
  6  8  2  0  0  0  0
  8 21  1  0  0  0  0
  8 22  1  0  0  0  0
  9 22  1  1  0  0  0
  9 24  1  0  0  0  0
  9 10  1  0  0  0  0
 10 12  2  0  0  0  0
 11 10  1  0  0  0  0
 12 13  1  0  0  0  0
 12 14  1  0  0  0  0
 14 15  1  0  0  0  0
 16 14  2  0  0  0  0
 16 40  1  0  0  0  0
 17  5  1  0  0  0  0
 17 20  1  0  0  0  0
 18 17  1  0  0  0  0
 19 17  1  0  0  0  0
 22 23  1  0  0  0  0
 24 16  1  0  0  0  0
 25 26  1  0  0  0  0
 25 27  1  0  0  0  0
 27 28  1  0  0  0  0
 29 27  2  0  0  0  0
 29 41  1  0  0  0  0
 30 29  1  0  0  0  0
 31 30  1  0  0  0  0
 32 30  2  0  0  0  0
 33 46  1  6  0  0  0
 34 35  1  0  0  0  0
 34 33  1  0  0  0  0
 36 34  2  0  0  0  0
 37 36  1  0  0  0  0
 38 40  2  0  0  0  0
 38 36  1  0  0  0  0
 39 38  1  0  0  0  0
 40 48  1  0  0  0  0
 41 42  1  0  0  0  0
 41 43  1  0  0  0  0
 44 41  1  0  0  0  0
 45 32  1  0  0  0  0
 45 25  1  0  0  0  0
 46 32  1  0  0  0  0
 47 46  1  0  0  0  0
 48 33  1  0  0  0  0
M  END
