1,2,5,6
 OpenBabel05122313063D

 72 77  0  0  0  0  0  0  0  0999 V2000
   -1.8324   -2.3315   -1.1806 N   0  0  0  0  0  2  0  0  0  0  0  0
   -1.2744   -0.4010    0.5533 N   0  0  0  0  0  2  0  0  0  0  0  0
   -0.7965    0.5840    1.3123 N   0  0  0  0  0  0  0  0  0  0  0  0
    0.7969    0.5837   -1.3127 N   0  0  0  0  0  0  0  0  0  0  0  0
    1.2743   -0.4015   -0.5536 N   0  0  0  0  0  2  0  0  0  0  0  0
    1.8314   -2.3321    1.1806 N   0  0  0  0  0  2  0  0  0  0  0  0
   -2.5045   -0.4254    0.1203 C   0  0  0  0  0  0  0  0  0  0  0  0
   -0.1022    1.5334    0.7476 C   0  0  0  0  0  0  0  0  0  0  0  0
    0.1030    1.5334   -0.7479 C   0  0  0  0  0  0  0  0  0  0  0  0
    2.5044   -0.4263   -0.1204 C   0  0  0  0  0  0  0  0  0  0  0  0
   -2.8613   -1.5602   -0.7611 C   0  0  0  0  0  0  0  0  0  0  0  0
   -4.1846   -1.8196   -1.1647 C   0  0  0  0  0  0  0  0  0  0  0  0
   -5.0035   -1.1956   -0.7832 H   0  0  0  0  0  0  0  0  0  0  0  0
   -4.4244   -2.8886   -2.0363 C   0  0  0  0  0  0  0  0  0  0  0  0
   -5.4501   -3.1146   -2.3640 H   0  0  0  0  0  0  0  0  0  0  0  0
   -3.3457   -3.6728   -2.4720 C   0  0  0  0  0  0  0  0  0  0  0  0
   -3.4925   -4.5185   -3.1587 H   0  0  0  0  0  0  0  0  0  0  0  0
   -2.0596   -3.3628   -2.0064 C   0  0  0  0  0  0  0  0  0  0  0  0
   -1.1622   -3.9394   -2.2882 H   0  0  0  0  0  0  0  0  0  0  0  0
    0.5094    2.5820    1.5850 C   0  0  0  0  0  0  0  0  0  0  0  0
    0.2127    2.6565    2.9662 C   0  0  0  0  0  0  0  0  0  0  0  0
   -0.4966    1.9311    3.3907 H   0  0  0  0  0  0  0  0  0  0  0  0
    0.8151    3.6326    3.7652 C   0  0  0  0  0  0  0  0  0  0  0  0
    0.5776    3.6820    4.8387 H   0  0  0  0  0  0  0  0  0  0  0  0
    1.7189    4.5522    3.2011 C   0  0  0  0  0  0  0  0  0  0  0  0
    2.1889    5.3215    3.8325 H   0  0  0  0  0  0  0  0  0  0  0  0
    2.0179    4.4858    1.8317 C   0  0  0  0  0  0  0  0  0  0  0  0
    2.7298    5.1953    1.3840 H   0  0  0  0  0  0  0  0  0  0  0  0
    1.4184    3.5083    1.0261 C   0  0  0  0  0  0  0  0  0  0  0  0
    1.6720    3.4520   -0.0424 H   0  0  0  0  0  0  0  0  0  0  0  0
   -0.5082    2.5822   -1.5853 C   0  0  0  0  0  0  0  0  0  0  0  0
   -1.4168    3.5088   -1.0264 C   0  0  0  0  0  0  0  0  0  0  0  0
   -1.6706    3.4526    0.0420 H   0  0  0  0  0  0  0  0  0  0  0  0
   -2.0160    4.4866   -1.8320 C   0  0  0  0  0  0  0  0  0  0  0  0
   -2.7276    5.1964   -1.3843 H   0  0  0  0  0  0  0  0  0  0  0  0
   -1.7168    4.5530   -3.2013 C   0  0  0  0  0  0  0  0  0  0  0  0
   -2.1865    5.3225   -3.8327 H   0  0  0  0  0  0  0  0  0  0  0  0
   -0.8134    3.6330   -3.7655 C   0  0  0  0  0  0  0  0  0  0  0  0
   -0.5759    3.6824   -4.8390 H   0  0  0  0  0  0  0  0  0  0  0  0
   -0.2114    2.6566   -2.9665 C   0  0  0  0  0  0  0  0  0  0  0  0
    0.4976    1.9310   -3.3910 H   0  0  0  0  0  0  0  0  0  0  0  0
    2.8607   -1.5613    0.7610 C   0  0  0  0  0  0  0  0  0  0  0  0
    4.1839   -1.8213    1.1645 C   0  0  0  0  0  0  0  0  0  0  0  0
    5.0031   -1.1977    0.7829 H   0  0  0  0  0  0  0  0  0  0  0  0
    4.4233   -2.8905    2.0361 C   0  0  0  0  0  0  0  0  0  0  0  0
    5.4489   -3.1170    2.3637 H   0  0  0  0  0  0  0  0  0  0  0  0
    3.3442   -3.6741    2.4719 C   0  0  0  0  0  0  0  0  0  0  0  0
    3.4906   -4.5200    3.1585 H   0  0  0  0  0  0  0  0  0  0  0  0
    2.0582   -3.3635    2.0063 C   0  0  0  0  0  0  0  0  0  0  0  0
    1.1605   -3.9396    2.2882 H   0  0  0  0  0  0  0  0  0  0  0  0
   -3.4766    0.6635    0.4078 C   0  0  0  0  0  0  0  0  0  0  0  0
   -4.0233    1.4251   -0.6450 C   0  0  0  0  0  0  0  0  0  0  0  0
   -3.7411    1.2003   -1.6846 H   0  0  0  0  0  0  0  0  0  0  0  0
   -4.8977    2.4864   -0.3666 C   0  0  0  0  0  0  0  0  0  0  0  0
   -5.3092    3.0840   -1.1940 H   0  0  0  0  0  0  0  0  0  0  0  0
   -5.2347    2.7889    0.9614 C   0  0  0  0  0  0  0  0  0  0  0  0
   -5.9224    3.6200    1.1800 H   0  0  0  0  0  0  0  0  0  0  0  0
   -4.6976    2.0251    2.0127 C   0  0  0  0  0  0  0  0  0  0  0  0
   -4.9716    2.2515    3.0542 H   0  0  0  0  0  0  0  0  0  0  0  0
   -3.8195    0.9680    1.7425 C   0  0  0  0  0  0  0  0  0  0  0  0
   -3.4100    0.3463    2.5523 H   0  0  0  0  0  0  0  0  0  0  0  0
    3.4768    0.6624   -0.4075 C   0  0  0  0  0  0  0  0  0  0  0  0
    4.0238    1.4234    0.6455 C   0  0  0  0  0  0  0  0  0  0  0  0
    3.7416    1.1983    1.6851 H   0  0  0  0  0  0  0  0  0  0  0  0
    4.8985    2.4847    0.3674 C   0  0  0  0  0  0  0  0  0  0  0  0
    5.3103    3.0817    1.1950 H   0  0  0  0  0  0  0  0  0  0  0  0
    5.2354    2.7875   -0.9605 C   0  0  0  0  0  0  0  0  0  0  0  0
    5.9234    3.6185   -1.1788 H   0  0  0  0  0  0  0  0  0  0  0  0
    4.6980    2.0243   -2.0120 C   0  0  0  0  0  0  0  0  0  0  0  0
    4.9719    2.2511   -3.0535 H   0  0  0  0  0  0  0  0  0  0  0  0
    3.8196    0.9674   -1.7421 C   0  0  0  0  0  0  0  0  0  0  0  0
    3.4098    0.3461   -2.5522 H   0  0  0  0  0  0  0  0  0  0  0  0
  1 11  1  0  0  0  0
  2  3  1  0  0  0  0
  4  9  2  0  0  0  0
  4  5  1  0  0  0  0
  5 10  1  0  0  0  0
  6 49  1  0  0  0  0
  7 51  1  0  0  0  0
  7  2  1  0  0  0  0
  8  3  2  0  0  0  0
  8 20  1  0  0  0  0
  9  8  1  0  0  0  0
 10 42  2  0  0  0  0
 11  7  2  0  0  0  0
 12 13  1  0  0  0  0
 12 11  1  0  0  0  0
 14 12  2  0  0  0  0
 15 14  1  0  0  0  0
 16 14  1  0  0  0  0
 16 18  2  0  0  0  0
 17 16  1  0  0  0  0
 18  1  1  0  0  0  0
 19 18  1  0  0  0  0
 20 21  1  0  0  0  0
 21 22  1  0  0  0  0
 21 23  2  0  0  0  0
 23 24  1  0  0  0  0
 25 23  1  0  0  0  0
 25 26  1  0  0  0  0
 27 25  2  0  0  0  0
 28 27  1  0  0  0  0
 29 20  2  0  0  0  0
 29 27  1  0  0  0  0
 30 29  1  0  0  0  0
 31 32  1  0  0  0  0
 31  9  1  0  0  0  0
 32 33  1  0  0  0  0
 34 35  1  0  0  0  0
 34 32  2  0  0  0  0
 36 34  1  0  0  0  0
 37 36  1  0  0  0  0
 38 36  2  0  0  0  0
 38 40  1  0  0  0  0
 39 38  1  0  0  0  0
 40 31  2  0  0  0  0
 41 40  1  0  0  0  0
 42 43  1  0  0  0  0
 42  6  1  0  0  0  0
 43 45  2  0  0  0  0
 44 43  1  0  0  0  0
 45 46  1  0  0  0  0
 45 47  1  0  0  0  0
 47 48  1  0  0  0  0
 49 50  1  0  0  0  0
 49 47  2  0  0  0  0
 51 60  1  0  0  0  0
 52 54  1  0  0  0  0
 52 51  2  0  0  0  0
 53 52  1  0  0  0  0
 54 56  2  0  0  0  0
 55 54  1  0  0  0  0
 56 57  1  0  0  0  0
 56 58  1  0  0  0  0
 58 59  1  0  0  0  0
 60 58  2  0  0  0  0
 60 61  1  0  0  0  0
 62 10  1  0  0  0  0
 62 63  1  0  0  0  0
 63 64  1  0  0  0  0
 65 63  2  0  0  0  0
 65 66  1  0  0  0  0
 67 65  1  0  0  0  0
 68 67  1  0  0  0  0
 69 71  1  0  0  0  0
 69 67  2  0  0  0  0
 70 69  1  0  0  0  0
 71 62  2  0  0  0  0
 72 71  1  0  0  0  0
M  END
