2,3,4,5
 OpenBabel05122313063D

 74 81  0  0  1  0  0  0  0  0999 V2000
    1.5615   -0.0001   -0.1350 O   0  0  0  0  0  0  0  0  0  0  0  0
   -3.2373    1.3275    0.0219 N   0  0  0  0  0  0  0  0  0  0  0  0
   -0.6690    1.9781   -0.4709 N   0  0  0  0  0  0  0  0  0  0  0  0
   -0.6692   -1.9780   -0.4710 N   0  0  0  0  0  0  0  0  0  0  0  0
   -3.2374   -1.3271    0.0217 N   0  0  0  0  0  0  0  0  0  0  0  0
   -4.5504    1.2322    0.3374 C   0  0  0  0  0  3  0  0  0  0  0  0
   -5.1902    2.4580   -0.0099 C   0  0  0  0  0  0  0  0  0  0  0  0
   -6.2493    2.6885    0.1460 H   0  0  0  0  0  0  0  0  0  0  0  0
   -4.2178    3.2986   -0.5741 C   0  0  0  0  0  0  0  0  0  0  0  0
   -4.3517    4.3181   -0.9526 H   0  0  0  0  0  0  0  0  0  0  0  0
   -3.0019    2.5675   -0.5416 C   0  0  0  0  0  0  0  0  0  0  0  0
   -1.6543    2.8703   -0.8159 C   0  0  0  0  0  0  0  0  0  0  0  0
   -1.1206    4.1262   -1.2860 C   0  0  0  0  0  0  0  0  0  0  0  0
   -1.7106    4.9696   -1.6611 H   0  0  0  0  0  0  0  0  0  0  0  0
    0.2355    4.0279   -1.1336 C   0  0  0  0  0  0  0  0  0  0  0  0
    0.9975    4.7760   -1.3752 H   0  0  0  0  0  0  0  0  0  0  0  0
    0.5225    2.7042   -0.5807 C   0  0  0  0  0  3  0  0  0  0  0  0
    1.8156    2.3928   -0.1292 C   0  0  1  0  0  3  0  0  0  0  0  0
    2.8217    3.4833    0.0135 C   0  0  0  0  0  0  0  0  0  0  0  0
    2.5494    4.6266    0.7961 C   0  0  0  0  0  0  0  0  0  0  0  0
    1.5787    4.7045    1.3078 H   0  0  0  0  0  0  0  0  0  0  0  0
    3.5021    5.6447    0.9377 C   0  0  0  0  0  0  0  0  0  0  0  0
    3.2660    6.5234    1.5587 H   0  0  0  0  0  0  0  0  0  0  0  0
    4.7595    5.5629    0.3082 C   0  0  0  0  0  0  0  0  0  0  0  0
    5.0311    4.4170   -0.4709 C   0  0  0  0  0  0  0  0  0  0  0  0
    6.0021    4.3306   -0.9844 H   0  0  0  0  0  0  0  0  0  0  0  0
    4.0870    3.3947   -0.6116 C   0  0  0  0  0  0  0  0  0  0  0  0
    4.3165    2.5165   -1.2338 H   0  0  0  0  0  0  0  0  0  0  0  0
    5.7917    6.6503    0.4645 C   0  0  0  0  0  0  0  0  0  0  0  0
    6.6763    6.2857    1.0286 H   0  0  0  0  0  0  0  0  0  0  0  0
    5.3855    7.5259    1.0064 H   0  0  0  0  0  0  0  0  0  0  0  0
    6.1638    6.9990   -0.5209 H   0  0  0  0  0  0  0  0  0  0  0  0
    2.2679    1.1041    0.2499 C   0  0  0  0  0  0  0  0  0  0  0  0
    3.4303    0.7012    0.9347 C   0  0  0  0  0  0  0  0  0  0  0  0
    4.1675    1.3764    1.3796 H   0  0  0  0  0  0  0  0  0  0  0  0
    3.4302   -0.7016    0.9347 C   0  0  0  0  0  0  0  0  0  0  0  0
    4.1673   -1.3769    1.3796 H   0  0  0  0  0  0  0  0  0  0  0  0
    2.2678   -1.1043    0.2499 C   0  0  0  0  0  0  0  0  0  0  0  0
    1.8153   -2.3930   -0.1292 C   0  0  1  0  0  3  0  0  0  0  0  0
    2.8212   -3.4836    0.0135 C   0  0  0  0  0  0  0  0  0  0  0  0
    4.0866   -3.3952   -0.6115 C   0  0  0  0  0  0  0  0  0  0  0  0
    4.3163   -2.5171   -1.2337 H   0  0  0  0  0  0  0  0  0  0  0  0
    5.0305   -4.4177   -0.4709 C   0  0  0  0  0  0  0  0  0  0  0  0
    6.0016   -4.3314   -0.9844 H   0  0  0  0  0  0  0  0  0  0  0  0
    4.7588   -5.5636    0.3082 C   0  0  0  0  0  0  0  0  0  0  0  0
    3.5013   -5.6452    0.9376 C   0  0  0  0  0  0  0  0  0  0  0  0
    3.2650   -6.5238    1.5586 H   0  0  0  0  0  0  0  0  0  0  0  0
    2.5488   -4.6269    0.7961 C   0  0  0  0  0  0  0  0  0  0  0  0
    1.5780   -4.7047    1.3078 H   0  0  0  0  0  0  0  0  0  0  0  0
    5.7908   -6.6509    0.4648 C   0  0  0  0  0  0  0  0  0  0  0  0
    6.1663   -6.9968   -0.5204 H   0  0  0  0  0  0  0  0  0  0  0  0
    6.6735   -6.2875    1.0328 H   0  0  0  0  0  0  0  0  0  0  0  0
    5.3833   -7.5282    1.0031 H   0  0  0  0  0  0  0  0  0  0  0  0
    0.5221   -2.7042   -0.5808 C   0  0  0  0  0  3  0  0  0  0  0  0
    0.2351   -4.0279   -1.1338 C   0  0  0  0  0  0  0  0  0  0  0  0
    0.9970   -4.7760   -1.3753 H   0  0  0  0  0  0  0  0  0  0  0  0
   -1.1210   -4.1260   -1.2862 C   0  0  0  0  0  0  0  0  0  0  0  0
   -1.7112   -4.9693   -1.6614 H   0  0  0  0  0  0  0  0  0  0  0  0
   -1.6546   -2.8701   -0.8161 C   0  0  0  0  0  0  0  0  0  0  0  0
   -3.0022   -2.5671   -0.5418 C   0  0  0  0  0  0  0  0  0  0  0  0
   -4.2182   -3.2981   -0.5743 C   0  0  0  0  0  0  0  0  0  0  0  0
   -4.3522   -4.3175   -0.9529 H   0  0  0  0  0  0  0  0  0  0  0  0
   -5.1904   -2.4574   -0.0100 C   0  0  0  0  0  0  0  0  0  0  0  0
   -6.2496   -2.6879    0.1459 H   0  0  0  0  0  0  0  0  0  0  0  0
   -4.5505   -1.2317    0.3373 C   0  0  0  0  0  3  0  0  0  0  0  0
   -5.1300    0.0003    0.9952 C   0  0  0  0  0  0  0  0  0  0  0  0
   -4.7032    0.0002    2.4961 C   0  0  0  0  0  0  0  0  0  0  0  0
   -5.0969    0.9025    3.0052 H   0  0  0  0  0  0  0  0  0  0  0  0
   -5.0970   -0.9021    3.0051 H   0  0  0  0  0  0  0  0  0  0  0  0
   -3.5995    0.0001    2.5820 H   0  0  0  0  0  0  0  0  0  0  0  0
   -6.6634    0.0003    0.8996 C   0  0  0  0  0  0  0  0  0  0  0  0
   -7.0029    0.0004   -0.1543 H   0  0  0  0  0  0  0  0  0  0  0  0
   -7.0829   -0.8915    1.4044 H   0  0  0  0  0  0  0  0  0  0  0  0
   -7.0828    0.8922    1.4044 H   0  0  0  0  0  0  0  0  0  0  0  0
  1 33  1  0  0  0  0
  1 38  1  0  0  0  0
  2  6  1  0  0  0  0
  5 65  1  0  0  0  0
  6 66  1  0  0  0  0
  7  8  1  0  0  0  0
  7  6  1  0  0  0  0
  9 11  1  0  0  0  0
  9  7  2  0  0  0  0
 10  9  1  0  0  0  0
 11  2  2  0  0  0  0
 12 11  1  0  0  0  0
 12  3  2  0  0  0  0
 13 15  2  0  0  0  0
 13 12  1  0  0  0  0
 14 13  1  0  0  0  0
 15 17  1  0  0  0  0
 16 15  1  0  0  0  0
 17  3  1  0  0  0  0
 17 18  1  0  0  0  0
 18 19  1  1  0  0  0
 18 33  1  0  0  0  0
 19 20  1  0  0  0  0
 20 22  2  0  0  0  0
 20 21  1  0  0  0  0
 22 23  1  0  0  0  0
 24 29  1  0  0  0  0
 24 22  1  0  0  0  0
 25 24  2  0  0  0  0
 26 25  1  0  0  0  0
 27 25  1  0  0  0  0
 27 19  2  0  0  0  0
 28 27  1  0  0  0  0
 29 31  1  0  0  0  0
 29 30  1  0  0  0  0
 32 29  1  0  0  0  0
 33 34  2  0  0  0  0
 34 36  1  0  0  0  0
 34 35  1  0  0  0  0
 36 37  1  0  0  0  0
 38 36  2  0  0  0  0
 39 40  1  1  0  0  0
 39 38  1  0  0  0  0
 40 48  1  0  0  0  0
 41 43  1  0  0  0  0
 41 40  2  0  0  0  0
 42 41  1  0  0  0  0
 43 45  2  0  0  0  0
 44 43  1  0  0  0  0
 45 50  1  0  0  0  0
 45 46  1  0  0  0  0
 46 47  1  0  0  0  0
 48 46  2  0  0  0  0
 48 49  1  0  0  0  0
 50 53  1  0  0  0  0
 50 52  1  0  0  0  0
 51 50  1  0  0  0  0
 54  4  1  0  0  0  0
 54 39  1  0  0  0  0
 55 54  1  0  0  0  0
 56 55  1  0  0  0  0
 57 55  2  0  0  0  0
 57 59  1  0  0  0  0
 58 57  1  0  0  0  0
 59 60  1  0  0  0  0
 59  4  2  0  0  0  0
 60  5  2  0  0  0  0
 61 60  1  0  0  0  0
 61 63  2  0  0  0  0
 62 61  1  0  0  0  0
 63 64  1  0  0  0  0
 63 65  1  0  0  0  0
 65 66  1  0  0  0  0
 66 67  1  0  0  0  0
 67 70  1  0  0  0  0
 67 69  1  0  0  0  0
 67 68  1  0  0  0  0
 71 66  1  0  0  0  0
 71 73  1  0  0  0  0
 71 74  1  0  0  0  0
 72 71  1  0  0  0  0
M  END
