1,2,27,28
 OpenBabel05122313063D

 52 53  0  0  0  0  0  0  0  0999 V2000
   -0.5881   -1.4019    1.7734 N   0  0  0  0  0  0  0  0  0  0  0  0
   -1.8814    1.5960    0.1129 N   0  0  0  0  0  2  0  0  0  0  0  0
   -3.7770   -0.4939   -1.0927 N   0  0  0  0  0  0  0  0  0  0  0  0
   -0.5959   -0.4791    2.9134 C   0  0  0  0  0  0  0  0  0  0  0  0
   -1.9126   -1.9825    1.5313 C   0  0  0  0  0  0  0  0  0  0  0  0
    0.4420   -2.4506    1.9128 C   0  0  0  0  0  0  0  0  0  0  0  0
   -1.1744    2.7661    0.6075 C   0  0  0  0  0  0  0  0  0  0  0  0
   -3.1721    1.6923   -0.0108 C   0  0  0  0  0  3  0  0  0  0  0  0
   -4.0976    0.7152   -0.5059 C   0  0  0  0  0  0  0  0  0  0  0  0
   -5.5089    0.8078   -0.4808 C   0  0  0  0  0  0  0  0  0  0  0  0
   -6.0230   -0.3729   -1.0595 C   0  0  0  0  0  0  0  0  0  0  0  0
   -4.9163   -1.1509   -1.4349 C   0  0  0  0  0  0  0  0  0  0  0  0
   -0.6196   -1.0306    3.8863 H   0  0  0  0  0  0  0  0  0  0  0  0
   -1.5396    0.1013    2.8641 H   0  0  0  0  0  0  0  0  0  0  0  0
   -1.8875   -2.5848    0.6033 H   0  0  0  0  0  0  0  0  0  0  0  0
   -2.6511   -1.1729    1.3748 H   0  0  0  0  0  0  0  0  0  0  0  0
   -2.2501   -2.6181    2.3861 H   0  0  0  0  0  0  0  0  0  0  0  0
    1.1944   -2.1207    2.6576 H   0  0  0  0  0  0  0  0  0  0  0  0
   -0.0145   -3.3845    2.3180 H   0  0  0  0  0  0  0  0  0  0  0  0
   -0.4385    3.0746   -0.1680 H   0  0  0  0  0  0  0  0  0  0  0  0
   -1.8669    3.6217    0.7882 H   0  0  0  0  0  0  0  0  0  0  0  0
   -3.6697    2.6425    0.2949 H   0  0  0  0  0  0  0  0  0  0  0  0
   -6.0770    1.6520   -0.0721 H   0  0  0  0  0  0  0  0  0  0  0  0
   -7.0759   -0.6396   -1.2016 H   0  0  0  0  0  0  0  0  0  0  0  0
   -4.8650   -2.1238   -1.9376 H   0  0  0  0  0  0  0  0  0  0  0  0
   -2.8153   -0.8430   -1.3302 H   0  0  0  0  0  0  0  0  0  0  0  0
    0.5884    1.4012    1.7738 N   0  0  0  0  0  0  0  0  0  0  0  0
    1.8814   -1.5960    0.1119 N   0  0  0  0  0  2  0  0  0  0  0  0
    0.5965    0.4780    2.9134 C   0  0  0  0  0  0  0  0  0  0  0  0
    1.1746   -2.7663    0.6063 C   0  0  0  0  0  0  0  0  0  0  0  0
   -0.4416    2.4499    1.9137 C   0  0  0  0  0  0  0  0  0  0  0  0
    1.9129    1.9819    1.5315 C   0  0  0  0  0  0  0  0  0  0  0  0
    3.1721   -1.6922   -0.0119 C   0  0  0  0  0  3  0  0  0  0  0  0
    0.6205    1.0292    3.8865 H   0  0  0  0  0  0  0  0  0  0  0  0
    1.5402   -0.1023    2.8637 H   0  0  0  0  0  0  0  0  0  0  0  0
    0.4385   -3.0745   -0.1691 H   0  0  0  0  0  0  0  0  0  0  0  0
    1.8671   -3.6220    0.7865 H   0  0  0  0  0  0  0  0  0  0  0  0
   -1.1939    2.1197    2.6586 H   0  0  0  0  0  0  0  0  0  0  0  0
    0.0149    3.3836    2.3192 H   0  0  0  0  0  0  0  0  0  0  0  0
    1.8876    2.5845    0.6037 H   0  0  0  0  0  0  0  0  0  0  0  0
    2.6514    1.1724    1.3746 H   0  0  0  0  0  0  0  0  0  0  0  0
    2.2507    2.6173    2.3864 H   0  0  0  0  0  0  0  0  0  0  0  0
    4.0975   -0.7150   -0.5067 C   0  0  0  0  0  0  0  0  0  0  0  0
    3.6698   -2.6424    0.2936 H   0  0  0  0  0  0  0  0  0  0  0  0
    3.7768    0.4944   -1.0931 N   0  0  0  0  0  0  0  0  0  0  0  0
    5.5089   -0.8075   -0.4817 C   0  0  0  0  0  0  0  0  0  0  0  0
    4.9160    1.1515   -1.4353 C   0  0  0  0  0  0  0  0  0  0  0  0
    2.8151    0.8435   -1.3303 H   0  0  0  0  0  0  0  0  0  0  0  0
    6.0228    0.3734   -1.0602 C   0  0  0  0  0  0  0  0  0  0  0  0
    6.0770   -1.6517   -0.0732 H   0  0  0  0  0  0  0  0  0  0  0  0
    4.8647    2.1244   -1.9378 H   0  0  0  0  0  0  0  0  0  0  0  0
    7.0757    0.6402   -1.2022 H   0  0  0  0  0  0  0  0  0  0  0  0
  1  6  1  0  0  0  0
  1  4  1  0  0  0  0
  2  7  1  0  0  0  0
  3  9  1  0  0  0  0
  4 29  1  0  0  0  0
  4 13  1  0  0  0  0
  5  1  1  0  0  0  0
  5 17  1  0  0  0  0
  6 19  1  0  0  0  0
  6 18  1  0  0  0  0
  7 21  1  0  0  0  0
  7 31  1  0  0  0  0
  8  2  1  0  0  0  0
  8 22  1  0  0  0  0
  9 10  2  0  0  0  0
  9  8  1  0  0  0  0
 10 23  1  0  0  0  0
 11 10  1  0  0  0  0
 12  3  1  0  0  0  0
 12 11  2  0  0  0  0
 14  4  1  0  0  0  0
 15  5  1  0  0  0  0
 16  5  1  0  0  0  0
 20  7  1  0  0  0  0
 24 11  1  0  0  0  0
 25 12  1  0  0  0  0
 26  3  1  0  0  0  0
 27 31  1  0  0  0  0
 27 29  1  0  0  0  0
 28 30  1  0  0  0  0
 29 34  1  0  0  0  0
 30 37  1  0  0  0  0
 30  6  1  0  0  0  0
 31 39  1  0  0  0  0
 31 38  1  0  0  0  0
 32 27  1  0  0  0  0
 32 42  1  0  0  0  0
 33 28  1  0  0  0  0
 33 44  1  0  0  0  0
 35 29  1  0  0  0  0
 36 30  1  0  0  0  0
 40 32  1  0  0  0  0
 41 32  1  0  0  0  0
 43 46  2  0  0  0  0
 43 33  1  0  0  0  0
 45 43  1  0  0  0  0
 46 50  1  0  0  0  0
 47 45  1  0  0  0  0
 47 49  2  0  0  0  0
 48 45  1  0  0  0  0
 49 46  1  0  0  0  0
 51 47  1  0  0  0  0
 52 49  1  0  0  0  0
M  END
