2,3,4,5
 OpenBabel05122313063D

 53 55  0  0  0  0  0  0  0  0999 V2000
    1.2447   -1.3007    1.8718 O   0  0  0  0  0  0  0  0  0  0  0  0
    1.1762    1.4605    1.8569 N   0  0  0  0  0  0  0  0  0  0  0  0
    0.0984   -1.6555   -0.6245 N   0  0  0  0  0  0  0  0  0  0  0  0
    1.0134    1.8090   -1.2220 N   0  0  0  0  0  0  0  0  0  0  0  0
    2.8556   -0.2825   -0.6555 N   0  0  0  0  0  0  0  0  0  0  0  0
    2.3332    1.7804   -1.8878 C   0  0  0  0  0  0  0  0  0  0  0  0
    0.6269    3.1028   -0.6999 C   0  0  0  0  0  0  0  0  0  0  0  0
   -0.2450    3.9041   -1.4531 C   0  0  0  0  0  0  0  0  0  0  0  0
   -0.6389    5.1645   -0.9863 C   0  0  0  0  0  0  0  0  0  0  0  0
   -0.1501    5.6362    0.2386 C   0  0  0  0  0  0  0  0  0  0  0  0
    0.7042    4.8279    1.0015 C   0  0  0  0  0  0  0  0  0  0  0  0
    1.1014    3.5517    0.5586 C   0  0  0  0  0  0  0  0  0  0  0  0
    1.9250    2.6806    1.4831 C   0  0  0  0  0  0  0  0  0  0  0  0
    1.6968    0.7159    3.0116 C   0  0  0  0  0  0  0  0  0  0  0  0
    0.9977   -0.6342    3.1088 C   0  0  0  0  0  0  0  0  0  0  0  0
    2.8461    0.3483   -1.9983 C   0  0  0  0  0  0  0  0  0  0  0  0
    3.2235   -1.6751   -0.6014 C   0  0  0  0  0  0  0  0  0  0  0  0
    4.4726   -2.0215   -0.0557 C   0  0  0  0  0  0  0  0  0  0  0  0
    4.8770   -3.3598    0.0316 C   0  0  0  0  0  0  0  0  0  0  0  0
    4.0327   -4.3701   -0.4501 C   0  0  0  0  0  0  0  0  0  0  0  0
    2.7827   -4.0266   -0.9827 C   0  0  0  0  0  0  0  0  0  0  0  0
    2.3439   -2.6899   -1.0573 C   0  0  0  0  0  0  0  0  0  0  0  0
    0.9493   -2.4013   -1.5721 C   0  0  0  0  0  0  0  0  0  0  0  0
   -0.4309   -2.4235    0.5184 C   0  0  0  0  0  0  0  0  0  0  0  0
    0.6008   -2.5633    1.6437 C   0  0  0  0  0  0  0  0  0  0  0  0
    0.1859    1.7157    2.0140 H   0  0  0  0  0  0  0  0  0  0  0  0
   -0.6841   -1.2261   -1.1587 H   0  0  0  0  0  0  0  0  0  0  0  0
    0.2605    1.4852   -1.8641 H   0  0  0  0  0  0  0  0  0  0  0  0
    3.5272    0.2365   -0.0725 H   0  0  0  0  0  0  0  0  0  0  0  0
    2.2977    2.2507   -2.8942 H   0  0  0  0  0  0  0  0  0  0  0  0
    3.0359    2.3925   -1.2845 H   0  0  0  0  0  0  0  0  0  0  0  0
   -0.6395    3.5188   -2.4050 H   0  0  0  0  0  0  0  0  0  0  0  0
   -1.3339    5.7735   -1.5821 H   0  0  0  0  0  0  0  0  0  0  0  0
   -0.4480    6.6263    0.6130 H   0  0  0  0  0  0  0  0  0  0  0  0
    1.0643    5.1859    1.9788 H   0  0  0  0  0  0  0  0  0  0  0  0
    2.1934    3.2715    2.3865 H   0  0  0  0  0  0  0  0  0  0  0  0
    2.8893    2.3644    1.0247 H   0  0  0  0  0  0  0  0  0  0  0  0
    1.5790    1.2761    3.9666 H   0  0  0  0  0  0  0  0  0  0  0  0
    2.7841    0.5497    2.8590 H   0  0  0  0  0  0  0  0  0  0  0  0
   -0.0975   -0.5012    3.2705 H   0  0  0  0  0  0  0  0  0  0  0  0
    1.4107   -1.2185    3.9602 H   0  0  0  0  0  0  0  0  0  0  0  0
    3.8558    0.3348   -2.4629 H   0  0  0  0  0  0  0  0  0  0  0  0
    2.1837   -0.2439   -2.6596 H   0  0  0  0  0  0  0  0  0  0  0  0
    5.1429   -1.2218    0.3000 H   0  0  0  0  0  0  0  0  0  0  0  0
    5.8576   -3.6086    0.4629 H   0  0  0  0  0  0  0  0  0  0  0  0
    4.3419   -5.4242   -0.4041 H   0  0  0  0  0  0  0  0  0  0  0  0
    2.1080   -4.8200   -1.3414 H   0  0  0  0  0  0  0  0  0  0  0  0
    0.4669   -3.3659   -1.8454 H   0  0  0  0  0  0  0  0  0  0  0  0
    0.9809   -1.8031   -2.5071 H   0  0  0  0  0  0  0  0  0  0  0  0
   -0.7743   -3.4367    0.2089 H   0  0  0  0  0  0  0  0  0  0  0  0
   -1.3129   -1.8656    0.8887 H   0  0  0  0  0  0  0  0  0  0  0  0
    1.3978   -3.2869    1.3802 H   0  0  0  0  0  0  0  0  0  0  0  0
    0.1015   -2.9226    2.5674 H   0  0  0  0  0  0  0  0  0  0  0  0
  1 15  1  0  0  0  0
  2 26  1  0  0  0  0
  2 14  1  0  0  0  0
  3 24  1  0  0  0  0
  4  7  1  0  0  0  0
  5 17  1  0  0  0  0
  5 29  1  0  0  0  0
  6 31  1  0  0  0  0
  6  4  1  0  0  0  0
  7 12  1  0  0  0  0
  8  9  1  0  0  0  0
  8  7  2  0  0  0  0
  9 10  2  0  0  0  0
 10 34  1  0  0  0  0
 10 11  1  0  0  0  0
 11 35  1  0  0  0  0
 12 11  2  0  0  0  0
 12 13  1  0  0  0  0
 13  2  1  0  0  0  0
 13 36  1  0  0  0  0
 14 15  1  0  0  0  0
 14 38  1  0  0  0  0
 15 40  1  0  0  0  0
 15 41  1  0  0  0  0
 16  6  1  0  0  0  0
 16  5  1  0  0  0  0
 17 18  1  0  0  0  0
 18 19  2  0  0  0  0
 18 44  1  0  0  0  0
 19 45  1  0  0  0  0
 20 46  1  0  0  0  0
 20 19  1  0  0  0  0
 21 20  2  0  0  0  0
 22 21  1  0  0  0  0
 22 17  2  0  0  0  0
 23 22  1  0  0  0  0
 23  3  1  0  0  0  0
 24 51  1  0  0  0  0
 24 25  1  0  0  0  0
 25  1  1  0  0  0  0
 25 53  1  0  0  0  0
 27  3  1  0  0  0  0
 28  4  1  0  0  0  0
 30  6  1  0  0  0  0
 32  8  1  0  0  0  0
 33  9  1  0  0  0  0
 37 13  1  0  0  0  0
 39 14  1  0  0  0  0
 42 16  1  0  0  0  0
 43 16  1  0  0  0  0
 47 21  1  0  0  0  0
 48 23  1  0  0  0  0
 49 23  1  0  0  0  0
 50 24  1  0  0  0  0
 52 25  1  0  0  0  0
M  END
