1,12,21,32
 OpenBabel05122313063D

 40 43  0  0  1  0  0  0  0  0999 V2000
    0.2865    1.7647   -1.4736 N   0  0  0  0  0  2  0  0  0  0  0  0
    0.6620    2.9848   -1.0213 N   0  0  0  0  0  0  0  0  0  0  0  0
    0.7270    3.8932   -2.0355 C   0  0  0  0  0  3  0  0  0  0  0  0
    1.0352    4.9264   -1.8437 H   0  0  0  0  0  0  0  0  0  0  0  0
    0.3695    3.2310   -3.2058 C   0  0  0  0  0  0  0  0  0  0  0  0
    0.3002    3.6492   -4.2143 H   0  0  0  0  0  0  0  0  0  0  0  0
    0.1134    1.9045   -2.8027 C   0  0  0  0  0  0  0  0  0  0  0  0
   -0.1778    1.0458   -3.4115 H   0  0  0  0  0  0  0  0  0  0  0  0
    1.2300    3.1608    0.3078 C   0  0  0  0  0  0  0  0  0  0  0  0
    1.3382    4.2473    0.4728 H   0  0  0  0  0  0  0  0  0  0  0  0
    2.2397    2.6862    0.3330 H   0  0  0  0  0  0  0  0  0  0  0  0
    0.2066    1.2107    1.3311 N   0  0  0  0  0  2  0  0  0  0  0  0
   -0.2985    0.5434    2.4174 C   0  0  2  0  0  3  0  0  0  0  0  0
   -0.6598    1.2182    3.5921 C   0  0  0  0  0  0  0  0  0  0  0  0
   -1.1001    0.6580    4.4270 H   0  0  0  0  0  0  0  0  0  0  0  0
   -0.4748    2.6000    3.6691 C   0  0  0  0  0  0  0  0  0  0  0  0
   -0.7688    3.1557    4.5708 H   0  0  0  0  0  0  0  0  0  0  0  0
    0.1059    3.2640    2.5761 C   0  0  0  0  0  0  0  0  0  0  0  0
    0.3048    4.3447    2.6108 H   0  0  0  0  0  0  0  0  0  0  0  0
    0.4460    2.5406    1.4275 C   0  0  0  0  0  0  0  0  0  0  0  0
   -0.4315   -1.0312   -1.7555 N   0  0  0  0  0  2  0  0  0  0  0  0
   -0.0896   -2.3399   -1.7582 N   0  0  0  0  0  0  0  0  0  0  0  0
   -0.8248   -3.0439   -2.6633 C   0  0  0  0  0  3  0  0  0  0  0  0
   -0.6807   -4.1224   -2.7852 H   0  0  0  0  0  0  0  0  0  0  0  0
   -1.6756   -2.1408   -3.2932 C   0  0  0  0  0  0  0  0  0  0  0  0
   -2.4107   -2.3521   -4.0750 H   0  0  0  0  0  0  0  0  0  0  0  0
   -1.4065   -0.9020   -2.6793 C   0  0  0  0  0  0  0  0  0  0  0  0
   -1.9157    0.0564   -2.8041 H   0  0  0  0  0  0  0  0  0  0  0  0
    0.7665   -2.8669   -0.7089 C   0  0  0  0  0  0  0  0  0  0  0  0
    1.7693   -2.4033   -0.7852 H   0  0  0  0  0  0  0  0  0  0  0  0
    0.8591   -3.9553   -0.8677 H   0  0  0  0  0  0  0  0  0  0  0  0
   -0.0030   -1.2653    0.9488 N   0  0  0  0  0  2  0  0  0  0  0  0
    0.2041   -2.5732    0.6600 C   0  0  2  0  0  3  0  0  0  0  0  0
   -0.0429   -3.5706    1.6047 C   0  0  0  0  0  0  0  0  0  0  0  0
    0.1207   -4.6233    1.3342 H   0  0  0  0  0  0  0  0  0  0  0  0
   -0.4940   -3.2147    2.8872 C   0  0  0  0  0  0  0  0  0  0  0  0
   -0.7150   -3.9882    3.6362 H   0  0  0  0  0  0  0  0  0  0  0  0
   -0.6307   -1.8619    3.2028 C   0  0  0  0  0  0  0  0  0  0  0  0
   -0.9430   -1.5431    4.2056 H   0  0  0  0  0  0  0  0  0  0  0  0
   -0.3503   -0.9021    2.2191 C   0  0  0  0  0  0  0  0  0  0  0  0
  1  2  1  0  0  0  0
  2  9  1  0  0  0  0
  3  4  1  0  0  0  0
  3  2  1  0  0  0  0
  5  7  2  0  0  0  0
  5  3  1  0  0  0  0
  6  5  1  0  0  0  0
  7  1  1  0  0  0  0
  8  7  1  0  0  0  0
  9 11  1  0  0  0  0
  9 10  1  0  0  0  0
  9 20  1  0  0  0  0
 12 20  1  0  0  0  0
 12 13  1  0  0  0  0
 13 40  1  1  0  0  0
 13 14  1  0  0  0  0
 14 16  2  0  0  0  0
 14 15  1  0  0  0  0
 16 17  1  0  0  0  0
 18 19  1  0  0  0  0
 18 16  1  0  0  0  0
 20 18  2  0  0  0  0
 22 21  1  0  0  0  0
 22 29  1  0  0  0  0
 23 22  1  0  0  0  0
 24 23  1  0  0  0  0
 25 27  2  0  0  0  0
 25 23  1  0  0  0  0
 26 25  1  0  0  0  0
 27 21  1  0  0  0  0
 28 27  1  0  0  0  0
 30 29  1  0  0  0  0
 31 29  1  0  0  0  0
 32 40  1  0  0  0  0
 33 29  1  1  0  0  0
 33 32  1  0  0  0  0
 33 34  1  0  0  0  0
 34 36  2  0  0  0  0
 35 34  1  0  0  0  0
 36 38  1  0  0  0  0
 36 37  1  0  0  0  0
 38 39  1  0  0  0  0
 40 38  2  0  0  0  0
M  END
