1,2,4,5
 OpenBabel05122313063D

 36 38  0  0  1  0  0  0  0  0999 V2000
   -1.7016    0.0987    0.5707 N   0  0  0  0  0  2  0  0  0  0  0  0
   -1.3419   -1.9691   -1.2212 N   0  0  0  0  0  0  0  0  0  0  0  0
   -1.7130   -1.6304   -2.1136 H   0  0  0  0  0  0  0  0  0  0  0  0
    0.8379   -1.2180    0.8726 N   0  0  0  0  0  2  0  0  0  0  0  0
    1.0673    1.5034    0.6574 N   0  0  0  0  0  2  0  0  0  0  0  0
   -1.6117   -2.9653    0.8058 O   0  0  0  0  0  0  0  0  0  0  0  0
   -1.9548    1.2771    1.1644 C   0  0  0  0  0  3  0  0  0  0  0  0
   -1.1064    1.9771    1.1963 H   0  0  0  0  0  0  0  0  0  0  0  0
   -3.2128    1.5855    1.6978 C   0  0  0  0  0  0  0  0  0  0  0  0
   -3.3781    2.5685    2.1607 H   0  0  0  0  0  0  0  0  0  0  0  0
   -4.2368    0.6351    1.6082 C   0  0  0  0  0  0  0  0  0  0  0  0
   -5.2403    0.8485    2.0055 H   0  0  0  0  0  0  0  0  0  0  0  0
   -3.9602   -0.5942    0.9907 C   0  0  0  0  0  0  0  0  0  0  0  0
   -4.7295   -1.3751    0.8956 H   0  0  0  0  0  0  0  0  0  0  0  0
   -2.6794   -0.8279    0.4797 C   0  0  0  0  0  0  0  0  0  0  0  0
   -2.2978   -2.1586   -0.1526 C   0  0  1  0  0  0  0  0  0  0  0  0
   -3.2344   -2.6954   -0.4568 H   0  0  0  0  0  0  0  0  0  0  0  0
   -0.4798   -3.1374   -1.2423 C   0  0  0  0  0  0  0  0  0  0  0  0
    0.4824   -2.8992   -1.7366 H   0  0  0  0  0  0  0  0  0  0  0  0
   -0.9401   -4.0263   -1.7367 H   0  0  0  0  0  0  0  0  0  0  0  0
   -0.3448   -3.3827    0.2670 C   0  0  1  0  0  0  0  0  0  0  0  0
   -0.2277   -4.4673    0.4786 H   0  0  0  0  0  0  0  0  0  0  0  0
    0.8146   -2.6769    0.9693 C   0  0  0  0  0  0  0  0  0  0  0  0
    0.7956   -2.9730    2.0417 H   0  0  0  0  0  0  0  0  0  0  0  0
    1.7713   -3.0576    0.5386 H   0  0  0  0  0  0  0  0  0  0  0  0
    1.6465   -0.5767    1.6773 C   0  0  0  0  0  3  0  0  0  0  0  0
    2.2075   -1.1318    2.4522 H   0  0  0  0  0  0  0  0  0  0  0  0
    1.9505    0.8222    1.4462 C   0  0  1  0  0  3  0  0  0  0  0  0
    3.1699    1.3826    1.8834 C   0  0  0  0  0  0  0  0  0  0  0  0
    3.8518    0.7894    2.5104 H   0  0  0  0  0  0  0  0  0  0  0  0
    3.5104    2.6689    1.4576 C   0  0  0  0  0  0  0  0  0  0  0  0
    4.4586    3.1301    1.7703 H   0  0  0  0  0  0  0  0  0  0  0  0
    2.6263    3.3479    0.5957 C   0  0  0  0  0  0  0  0  0  0  0  0
    2.8520    4.3611    0.2325 H   0  0  0  0  0  0  0  0  0  0  0  0
    1.4263    2.7293    0.2247 C   0  0  0  0  0  0  0  0  0  0  0  0
    0.6965    3.2463   -0.4237 H   0  0  0  0  0  0  0  0  0  0  0  0
  1  7  1  0  0  0  0
  2 16  1  0  0  0  0
  3  2  1  0  0  0  0
  4 23  1  0  0  0  0
  4 26  1  0  0  0  0
  5 28  1  0  0  0  0
  7  8  1  0  0  0  0
  7  9  1  0  0  0  0
  9 10  1  0  0  0  0
 11  9  2  0  0  0  0
 11 12  1  0  0  0  0
 13 11  1  0  0  0  0
 14 13  1  0  0  0  0
 15  1  1  0  0  0  0
 15 13  2  0  0  0  0
 16 17  1  6  0  0  0
 16 15  1  0  0  0  0
 16  6  1  0  0  0  0
 18  2  1  0  0  0  0
 18 21  1  0  0  0  0
 19 18  1  0  0  0  0
 20 18  1  0  0  0  0
 21 22  1  1  0  0  0
 21  6  1  0  0  0  0
 21 23  1  0  0  0  0
 23 24  1  0  0  0  0
 25 23  1  0  0  0  0
 26 27  1  0  0  0  0
 28 26  1  6  0  0  0
 28 29  1  0  0  0  0
 29 30  1  0  0  0  0
 31 32  1  0  0  0  0
 31 29  2  0  0  0  0
 33 31  1  0  0  0  0
 34 33  1  0  0  0  0
 35 33  2  0  0  0  0
 35  5  1  0  0  0  0
 36 35  1  0  0  0  0
M  END
