1,2,43,44
 OpenBabel05122313063D

 84 88  0  0  0  0  0  0  0  0999 V2000
   -1.7026    0.9058    0.6698 N   0  0  0  0  0  0  0  0  0  0  0  0
    0.9827    1.7839    0.1006 N   0  0  0  0  0  2  0  0  0  0  0  0
   -2.9285    0.2927    0.8881 C   0  0  0  0  0  0  0  0  0  0  0  0
   -3.8830    1.2813    1.3380 C   0  0  0  0  0  0  0  0  0  0  0  0
   -4.9318    1.0900    1.5833 H   0  0  0  0  0  0  0  0  0  0  0  0
   -3.2304    2.4828    1.3910 C   0  0  0  0  0  0  0  0  0  0  0  0
   -3.6527    3.4457    1.6904 H   0  0  0  0  0  0  0  0  0  0  0  0
   -1.8630    2.2510    0.9778 C   0  0  0  0  0  0  0  0  0  0  0  0
   -0.8718    3.2475    0.9185 C   0  0  0  0  0  0  0  0  0  0  0  0
    0.4543    2.9966    0.5195 C   0  0  0  0  0  0  0  0  0  0  0  0
    1.4880    4.0080    0.4717 C   0  0  0  0  0  0  0  0  0  0  0  0
    1.3675    5.0571    0.7572 H   0  0  0  0  0  0  0  0  0  0  0  0
    2.6271    3.4055    0.0100 C   0  0  0  0  0  0  0  0  0  0  0  0
    3.6037    3.8732   -0.1459 H   0  0  0  0  0  0  0  0  0  0  0  0
    2.3116    2.0138   -0.2262 C   0  0  0  0  0  0  0  0  0  0  0  0
   -3.2342   -1.0677    0.7061 C   0  0  0  0  0  0  0  0  0  0  0  0
   -1.2457    4.6845    1.2404 C   0  0  0  0  0  0  0  0  0  0  0  0
   -0.4406    5.1449    1.8466 H   0  0  0  0  0  0  0  0  0  0  0  0
   -2.1418    4.7089    1.8880 H   0  0  0  0  0  0  0  0  0  0  0  0
   -1.4970    5.5642   -0.0035 C   0  0  0  0  0  0  0  0  0  0  0  0
   -1.6664    6.6102    0.3365 H   0  0  0  0  0  0  0  0  0  0  0  0
   -0.5728    5.5889   -0.6215 H   0  0  0  0  0  0  0  0  0  0  0  0
   -2.6693    5.1213   -0.8832 C   0  0  0  0  0  0  0  0  0  0  0  0
   -3.6037    5.1154   -0.2790 H   0  0  0  0  0  0  0  0  0  0  0  0
   -2.5139    4.0676   -1.2009 H   0  0  0  0  0  0  0  0  0  0  0  0
   -2.8574    6.0087   -2.1140 C   0  0  0  0  0  0  0  0  0  0  0  0
   -3.7116    5.6719   -2.7351 H   0  0  0  0  0  0  0  0  0  0  0  0
   -1.9527    5.9989   -2.7572 H   0  0  0  0  0  0  0  0  0  0  0  0
   -3.0466    7.0652   -1.8288 H   0  0  0  0  0  0  0  0  0  0  0  0
   -4.6562   -1.5245    0.9721 C   0  0  0  0  0  0  0  0  0  0  0  0
   -4.6543   -2.5720    1.3324 H   0  0  0  0  0  0  0  0  0  0  0  0
   -5.0912   -0.9385    1.8053 H   0  0  0  0  0  0  0  0  0  0  0  0
   -5.5738   -1.4138   -0.2584 C   0  0  0  0  0  0  0  0  0  0  0  0
   -5.5769   -0.3600   -0.6142 H   0  0  0  0  0  0  0  0  0  0  0  0
   -5.1367   -2.0081   -1.0907 H   0  0  0  0  0  0  0  0  0  0  0  0
   -7.0084   -1.8750    0.0115 C   0  0  0  0  0  0  0  0  0  0  0  0
   -7.4317   -1.2787    0.8507 H   0  0  0  0  0  0  0  0  0  0  0  0
   -6.9913   -2.9271    0.3746 H   0  0  0  0  0  0  0  0  0  0  0  0
   -7.9196   -1.7653   -1.2114 C   0  0  0  0  0  0  0  0  0  0  0  0
   -8.9508   -2.1054   -0.9880 H   0  0  0  0  0  0  0  0  0  0  0  0
   -7.9830   -0.7178   -1.5732 H   0  0  0  0  0  0  0  0  0  0  0  0
   -7.5388   -2.3803   -2.0533 H   0  0  0  0  0  0  0  0  0  0  0  0
    1.7025   -0.9059   -0.6698 N   0  0  0  0  0  0  0  0  0  0  0  0
   -0.9827   -1.7840   -0.1005 N   0  0  0  0  0  0  0  0  0  0  0  0
    2.9283   -0.2927   -0.8883 C   0  0  0  0  0  0  0  0  0  0  0  0
    3.8828   -1.2813   -1.3383 C   0  0  0  0  0  0  0  0  0  0  0  0
    4.9316   -1.0900   -1.5838 H   0  0  0  0  0  0  0  0  0  0  0  0
    3.2303   -2.4828   -1.3912 C   0  0  0  0  0  0  0  0  0  0  0  0
    3.6526   -3.4457   -1.6906 H   0  0  0  0  0  0  0  0  0  0  0  0
    1.8629   -2.2511   -0.9778 C   0  0  0  0  0  0  0  0  0  0  0  0
    0.8718   -3.2476   -0.9182 C   0  0  0  0  0  0  0  0  0  0  0  0
   -0.4543   -2.9967   -0.5192 C   0  0  0  0  0  0  0  0  0  0  0  0
   -1.4879   -4.0081   -0.4713 C   0  0  0  0  0  0  0  0  0  0  0  0
   -1.3674   -5.0573   -0.7565 H   0  0  0  0  0  0  0  0  0  0  0  0
   -2.6271   -3.4056   -0.0098 C   0  0  0  0  0  0  0  0  0  0  0  0
   -3.6037   -3.8733    0.1462 H   0  0  0  0  0  0  0  0  0  0  0  0
   -2.3117   -2.0139    0.2263 C   0  0  0  0  0  3  0  0  0  0  0  0
    3.2341    1.0677   -0.7063 C   0  0  0  0  0  0  0  0  0  0  0  0
    1.2457   -4.6847   -1.2399 C   0  0  0  0  0  0  0  0  0  0  0  0
    0.4406   -5.1451   -1.8460 H   0  0  0  0  0  0  0  0  0  0  0  0
    2.1418   -4.7091   -1.8876 H   0  0  0  0  0  0  0  0  0  0  0  0
    1.4972   -5.5641    0.0041 C   0  0  0  0  0  0  0  0  0  0  0  0
    1.6666   -6.6102   -0.3357 H   0  0  0  0  0  0  0  0  0  0  0  0
    0.5730   -5.5888    0.6222 H   0  0  0  0  0  0  0  0  0  0  0  0
    2.6695   -5.1209    0.8837 C   0  0  0  0  0  0  0  0  0  0  0  0
    3.6039   -5.1151    0.2794 H   0  0  0  0  0  0  0  0  0  0  0  0
    2.5141   -4.0673    1.2012 H   0  0  0  0  0  0  0  0  0  0  0  0
    2.8578   -6.0082    2.1145 C   0  0  0  0  0  0  0  0  0  0  0  0
    3.7120   -5.6712    2.7356 H   0  0  0  0  0  0  0  0  0  0  0  0
    1.9531   -5.9983    2.7579 H   0  0  0  0  0  0  0  0  0  0  0  0
    3.0470   -7.0646    1.8295 H   0  0  0  0  0  0  0  0  0  0  0  0
    4.6560    1.5246   -0.9725 C   0  0  0  0  0  0  0  0  0  0  0  0
    4.6540    2.5720   -1.3327 H   0  0  0  0  0  0  0  0  0  0  0  0
    5.0909    0.9386   -1.8059 H   0  0  0  0  0  0  0  0  0  0  0  0
    5.5738    1.4137    0.2578 C   0  0  0  0  0  0  0  0  0  0  0  0
    5.5770    0.3599    0.6135 H   0  0  0  0  0  0  0  0  0  0  0  0
    5.1368    2.0080    1.0903 H   0  0  0  0  0  0  0  0  0  0  0  0
    7.0084    1.8750   -0.0122 C   0  0  0  0  0  0  0  0  0  0  0  0
    7.4316    1.2788   -0.8517 H   0  0  0  0  0  0  0  0  0  0  0  0
    6.9912    2.9271   -0.3753 H   0  0  0  0  0  0  0  0  0  0  0  0
    7.9198    1.7652    1.2104 C   0  0  0  0  0  0  0  0  0  0  0  0
    8.9510    2.1053    0.9868 H   0  0  0  0  0  0  0  0  0  0  0  0
    7.9833    0.7176    1.5721 H   0  0  0  0  0  0  0  0  0  0  0  0
    7.5391    2.3801    2.0525 H   0  0  0  0  0  0  0  0  0  0  0  0
  1  3  1  0  0  0  0
  1  8  2  0  0  0  0
  2 10  1  0  0  0  0
  3  4  1  0  0  0  0
  4  6  2  0  0  0  0
  4  5  1  0  0  0  0
  6  7  1  0  0  0  0
  8  6  1  0  0  0  0
  9  8  1  0  0  0  0
  9 17  1  0  0  0  0
 10  9  2  0  0  0  0
 11 10  1  0  0  0  0
 11 12  1  0  0  0  0
 13 11  2  0  0  0  0
 14 13  1  0  0  0  0
 15 13  1  0  0  0  0
 15  2  1  0  0  0  0
 16  3  2  0  0  0  0
 16 30  1  0  0  0  0
 17 18  1  0  0  0  0
 17 19  1  0  0  0  0
 20 21  1  0  0  0  0
 20 17  1  0  0  0  0
 22 20  1  0  0  0  0
 23 24  1  0  0  0  0
 23 20  1  0  0  0  0
 25 23  1  0  0  0  0
 26 29  1  0  0  0  0
 26 23  1  0  0  0  0
 27 26  1  0  0  0  0
 28 26  1  0  0  0  0
 30 31  1  0  0  0  0
 30 32  1  0  0  0  0
 33 36  1  0  0  0  0
 33 30  1  0  0  0  0
 34 33  1  0  0  0  0
 35 33  1  0  0  0  0
 36 38  1  0  0  0  0
 36 37  1  0  0  0  0
 39 40  1  0  0  0  0
 39 36  1  0  0  0  0
 41 39  1  0  0  0  0
 42 39  1  0  0  0  0
 44 57  1  0  0  0  0
 45 58  1  0  0  0  0
 45 43  2  0  0  0  0
 46 45  1  0  0  0  0
 47 46  1  0  0  0  0
 48 46  2  0  0  0  0
 48 50  1  0  0  0  0
 49 48  1  0  0  0  0
 50 51  2  0  0  0  0
 50 43  1  0  0  0  0
 51 52  1  0  0  0  0
 52 53  1  0  0  0  0
 52 44  2  0  0  0  0
 53 55  2  0  0  0  0
 54 53  1  0  0  0  0
 55 56  1  0  0  0  0
 55 57  1  0  0  0  0
 57 16  1  0  0  0  0
 58 15  2  0  0  0  0
 59 51  1  0  0  0  0
 59 62  1  0  0  0  0
 60 59  1  0  0  0  0
 61 59  1  0  0  0  0
 62 64  1  0  0  0  0
 62 65  1  0  0  0  0
 63 62  1  0  0  0  0
 65 67  1  0  0  0  0
 65 68  1  0  0  0  0
 66 65  1  0  0  0  0
 68 69  1  0  0  0  0
 68 70  1  0  0  0  0
 71 68  1  0  0  0  0
 72 58  1  0  0  0  0
 72 75  1  0  0  0  0
 73 72  1  0  0  0  0
 74 72  1  0  0  0  0
 75 76  1  0  0  0  0
 75 77  1  0  0  0  0
 78 75  1  0  0  0  0
 78 81  1  0  0  0  0
 79 78  1  0  0  0  0
 80 78  1  0  0  0  0
 81 83  1  0  0  0  0
 81 84  1  0  0  0  0
 82 81  1  0  0  0  0
M  END
