1,2,3,4
 OpenBabel05122313063D

 52 54  0  0  1  0  0  0  0  0999 V2000
   -1.9171   -1.8902   -0.4460 N   0  0  0  0  0  2  0  0  0  0  0  0
   -1.2916    0.5447   -0.1244 N   0  0  0  0  0  2  0  0  0  0  0  0
    1.9171   -1.8904    0.4457 N   0  0  0  0  0  2  0  0  0  0  0  0
    1.2916    0.5447    0.1244 N   0  0  0  0  0  2  0  0  0  0  0  0
   -2.9768   -1.0943   -0.3491 C   0  0  0  0  0  0  0  0  0  0  0  0
   -4.3044   -1.5210   -0.6658 C   0  0  0  0  0  0  0  0  0  0  0  0
   -5.5389   -0.9288   -0.4069 C   0  0  0  0  0  0  0  0  0  0  0  0
   -5.8309    0.2519    0.3034 C   0  0  0  0  0  0  0  0  0  0  0  0
   -4.8994    1.1500    0.8322 C   0  0  0  0  0  0  0  0  0  0  0  0
   -3.5011    1.1790    0.6983 C   0  0  0  0  0  0  0  0  0  0  0  0
   -2.6063    0.2872    0.0525 C   0  0  1  0  0  3  0  0  0  0  0  0
   -2.0723   -3.2955   -0.7494 C   0  0  0  0  0  0  0  0  0  0  0  0
    2.6063    0.2872   -0.0524 C   0  0  0  0  0  0  0  0  0  0  0  0
    3.5012    1.1789   -0.6983 C   0  0  0  0  0  0  0  0  0  0  0  0
    4.8995    1.1499   -0.8319 C   0  0  0  0  0  0  0  0  0  0  0  0
    5.8309    0.2519   -0.3028 C   0  0  0  0  0  0  0  0  0  0  0  0
    5.5388   -0.9287    0.4077 C   0  0  0  0  0  0  0  0  0  0  0  0
    4.3043   -1.5210    0.6663 C   0  0  0  0  0  0  0  0  0  0  0  0
    2.9767   -1.0943    0.3491 C   0  0  1  0  0  3  0  0  0  0  0  0
    2.0723   -3.2957    0.7490 C   0  0  0  0  0  0  0  0  0  0  0  0
    0.7529    1.8655   -0.1608 C   0  0  2  0  0  0  0  0  0  0  0  0
    1.3694    3.0755    0.5726 C   0  0  0  0  0  0  0  0  0  0  0  0
    0.7686    4.3670   -0.0058 C   0  0  0  0  0  0  0  0  0  0  0  0
   -0.7686    4.3670    0.0056 C   0  0  0  0  0  0  0  0  0  0  0  0
   -1.3694    3.0755   -0.5727 C   0  0  0  0  0  0  0  0  0  0  0  0
   -0.7529    1.8656    0.1608 C   0  0  1  0  0  0  0  0  0  0  0  0
   -4.3549   -2.4876   -1.1891 H   0  0  0  0  0  0  0  0  0  0  0  0
   -6.4119   -1.4941   -0.7743 H   0  0  0  0  0  0  0  0  0  0  0  0
   -6.8950    0.4821    0.4683 H   0  0  0  0  0  0  0  0  0  0  0  0
   -5.3201    1.9867    1.4152 H   0  0  0  0  0  0  0  0  0  0  0  0
   -3.0175    2.0337    1.1923 H   0  0  0  0  0  0  0  0  0  0  0  0
   -2.3650   -3.4647   -1.8106 H   0  0  0  0  0  0  0  0  0  0  0  0
   -2.8343   -3.7806   -0.1002 H   0  0  0  0  0  0  0  0  0  0  0  0
   -1.1083   -3.8158   -0.5946 H   0  0  0  0  0  0  0  0  0  0  0  0
    3.0176    2.0335   -1.1924 H   0  0  0  0  0  0  0  0  0  0  0  0
    5.3203    1.9865   -1.4150 H   0  0  0  0  0  0  0  0  0  0  0  0
    6.4117   -1.4939    0.7754 H   0  0  0  0  0  0  0  0  0  0  0  0
    4.3547   -2.4875    1.1899 H   0  0  0  0  0  0  0  0  0  0  0  0
    2.8350   -3.7805    0.1004 H   0  0  0  0  0  0  0  0  0  0  0  0
    2.3640   -3.4650    1.8104 H   0  0  0  0  0  0  0  0  0  0  0  0
    1.1086   -3.8161    0.5931 H   0  0  0  0  0  0  0  0  0  0  0  0
    0.8527    2.0514   -1.2610 H   0  0  0  0  0  0  0  0  0  0  0  0
    2.4720    3.0949    0.4874 H   0  0  0  0  0  0  0  0  0  0  0  0
    1.1425    2.9833    1.6567 H   0  0  0  0  0  0  0  0  0  0  0  0
    1.1227    4.4793   -1.0551 H   0  0  0  0  0  0  0  0  0  0  0  0
    1.1541    5.2499    0.5452 H   0  0  0  0  0  0  0  0  0  0  0  0
   -1.1227    4.4794    1.0548 H   0  0  0  0  0  0  0  0  0  0  0  0
   -1.1541    5.2499   -0.5455 H   0  0  0  0  0  0  0  0  0  0  0  0
   -2.4720    3.0949   -0.4876 H   0  0  0  0  0  0  0  0  0  0  0  0
   -1.1425    2.9832   -1.6568 H   0  0  0  0  0  0  0  0  0  0  0  0
   -0.8526    2.0514    1.2609 H   0  0  0  0  0  0  0  0  0  0  0  0
    6.8950    0.4821   -0.4675 H   0  0  0  0  0  0  0  0  0  0  0  0
  1  5  1  0  0  0  0
  2 26  1  0  0  0  0
  3 20  1  0  0  0  0
  5 11  1  0  0  0  0
  6  7  1  0  0  0  0
  6  5  2  0  0  0  0
  7  8  2  0  0  0  0
  8 29  1  0  0  0  0
  8  9  1  0  0  0  0
  9 30  1  0  0  0  0
 10  9  2  0  0  0  0
 10 31  1  0  0  0  0
 11  2  1  1  0  0  0
 11 10  1  0  0  0  0
 12 34  1  0  0  0  0
 12  1  1  0  0  0  0
 12 33  1  0  0  0  0
 13  4  1  0  0  0  0
 13 19  1  0  0  0  0
 14 13  2  0  0  0  0
 15 14  1  0  0  0  0
 15 16  2  0  0  0  0
 16 17  1  0  0  0  0
 17 18  2  0  0  0  0
 17 37  1  0  0  0  0
 18 38  1  0  0  0  0
 19  3  1  1  0  0  0
 19 18  1  0  0  0  0
 20 40  1  0  0  0  0
 21 42  1  6  0  0  0
 21  4  1  0  0  0  0
 21 26  1  0  0  0  0
 21 22  1  0  0  0  0
 22 44  1  0  0  0  0
 23 24  1  0  0  0  0
 23 46  1  0  0  0  0
 23 22  1  0  0  0  0
 24 47  1  0  0  0  0
 25 49  1  0  0  0  0
 25 24  1  0  0  0  0
 25 26  1  0  0  0  0
 26 51  1  1  0  0  0
 27  6  1  0  0  0  0
 28  7  1  0  0  0  0
 32 12  1  0  0  0  0
 35 14  1  0  0  0  0
 36 15  1  0  0  0  0
 39 20  1  0  0  0  0
 41 20  1  0  0  0  0
 43 22  1  0  0  0  0
 45 23  1  0  0  0  0
 48 24  1  0  0  0  0
 50 25  1  0  0  0  0
 52 16  1  0  0  0  0
M  END
