1,2,3,4
 OpenBabel05122313063D

 72 76  0  0  1  0  0  0  0  0999 V2000
   -0.5168   -1.7685   -1.7805 N   0  0  0  0  0  2  0  0  0  0  0  0
    0.5169   -1.7689    1.7803 N   0  0  0  0  0  2  0  0  0  0  0  0
    1.7504   -1.8108   -0.6365 N   0  0  0  0  0  2  0  0  0  0  0  0
   -1.7503   -1.8111    0.6363 N   0  0  0  0  0  2  0  0  0  0  0  0
   -6.5476    1.4198   -1.4602 Cl  0  0  0  0  0  0  0  0  0  0  0  0
    6.5476    1.4199    1.4604 Cl  0  0  0  0  0  0  0  0  0  0  0  0
    4.4915    4.9642   -2.0570 Cl  0  0  0  0  0  0  0  0  0  0  0  0
   -4.4920    4.9638    2.0576 Cl  0  0  0  0  0  0  0  0  0  0  0  0
    4.0497    0.4482    2.9176 O   0  0  0  0  0  0  0  0  0  0  0  0
   -4.0498    0.4484   -2.9175 O   0  0  0  0  0  0  0  0  0  0  0  0
   -2.8279    1.9193    0.0289 C   0  0  0  0  0  0  0  0  0  0  0  0
   -1.8417    1.4374   -0.0555 H   0  0  0  0  0  0  0  0  0  0  0  0
   -2.9895    3.0106    0.8901 C   0  0  0  0  0  0  0  0  0  0  0  0
   -2.1495    3.3983    1.4824 H   0  0  0  0  0  0  0  0  0  0  0  0
   -4.2556    3.6092    0.9891 C   0  0  0  0  0  0  0  0  0  0  0  0
   -5.3438    3.1250    0.2456 C   0  0  0  0  0  0  0  0  0  0  0  0
   -6.3375    3.5802    0.3468 H   0  0  0  0  0  0  0  0  0  0  0  0
   -5.1500    2.0411   -0.6230 C   0  0  0  0  0  0  0  0  0  0  0  0
   -3.8885    1.4152   -0.7544 C   0  0  0  0  0  0  0  0  0  0  0  0
   -3.5988    0.3276   -1.7770 C   0  0  0  0  0  0  0  0  0  0  0  0
   -2.6333   -0.7166   -1.3424 C   0  0  0  0  0  0  0  0  0  0  0  0
   -1.5869   -1.1072   -2.2438 C   0  0  1  0  0  3  0  0  0  0  0  0
   -1.6454   -0.7068   -3.6979 C   0  0  0  0  0  0  0  0  0  0  0  0
   -0.6494   -0.7790   -4.1689 H   0  0  0  0  0  0  0  0  0  0  0  0
   -2.0311    0.3240   -3.7926 H   0  0  0  0  0  0  0  0  0  0  0  0
   -2.3651   -1.3292   -4.2663 H   0  0  0  0  0  0  0  0  0  0  0  0
    0.4774   -2.4111   -2.5416 C   0  0  0  0  0  0  0  0  0  0  0  0
    0.2821   -3.0788   -3.7637 C   0  0  0  0  0  0  0  0  0  0  0  0
   -0.7147   -3.1004   -4.2217 H   0  0  0  0  0  0  0  0  0  0  0  0
    1.3448   -3.7708   -4.3669 C   0  0  0  0  0  0  0  0  0  0  0  0
    1.1771   -4.3025   -5.3152 H   0  0  0  0  0  0  0  0  0  0  0  0
    2.5975   -3.8159   -3.7425 C   0  0  0  0  0  0  0  0  0  0  0  0
    3.4234   -4.3833   -4.1962 H   0  0  0  0  0  0  0  0  0  0  0  0
    2.8035   -3.1703   -2.5107 C   0  0  0  0  0  0  0  0  0  0  0  0
    3.7742   -3.2752   -2.0176 H   0  0  0  0  0  0  0  0  0  0  0  0
    1.7558   -2.4580   -1.8974 C   0  0  0  0  0  0  0  0  0  0  0  0
    2.7800   -1.2653    0.0136 C   0  0  2  0  0  3  0  0  0  0  0  0
    4.1656   -1.2795   -0.5902 C   0  0  0  0  0  0  0  0  0  0  0  0
    4.1538   -1.0291   -1.6685 H   0  0  0  0  0  0  0  0  0  0  0  0
    4.6078   -2.2909   -0.4779 H   0  0  0  0  0  0  0  0  0  0  0  0
    4.8484   -0.5910   -0.0675 H   0  0  0  0  0  0  0  0  0  0  0  0
    2.6334   -0.7167    1.3424 C   0  0  0  0  0  0  0  0  0  0  0  0
    3.5988    0.3275    1.7772 C   0  0  0  0  0  0  0  0  0  0  0  0
    3.8884    1.4152    0.7547 C   0  0  0  0  0  0  0  0  0  0  0  0
    5.1499    2.0412    0.6233 C   0  0  0  0  0  0  0  0  0  0  0  0
    5.3435    3.1252   -0.2451 C   0  0  0  0  0  0  0  0  0  0  0  0
    6.3372    3.5805   -0.3464 H   0  0  0  0  0  0  0  0  0  0  0  0
    4.2552    3.6094   -0.9886 C   0  0  0  0  0  0  0  0  0  0  0  0
    2.9893    3.0107   -0.8897 C   0  0  0  0  0  0  0  0  0  0  0  0
    2.1492    3.3984   -1.4819 H   0  0  0  0  0  0  0  0  0  0  0  0
    2.8277    1.9193   -0.0286 C   0  0  0  0  0  0  0  0  0  0  0  0
    1.8416    1.4373    0.0558 H   0  0  0  0  0  0  0  0  0  0  0  0
    1.5871   -1.1076    2.2437 C   0  0  0  0  0  0  0  0  0  0  0  0
    1.6456   -0.7076    3.6980 C   0  0  0  0  0  0  0  0  0  0  0  0
    0.6496   -0.7798    4.1690 H   0  0  0  0  0  0  0  0  0  0  0  0
    2.0316    0.3230    3.7929 H   0  0  0  0  0  0  0  0  0  0  0  0
    2.3652   -1.3304    4.2661 H   0  0  0  0  0  0  0  0  0  0  0  0
   -0.4772   -2.4117    2.5413 C   0  0  0  0  0  0  0  0  0  0  0  0
   -0.2818   -3.0798    3.7631 C   0  0  0  0  0  0  0  0  0  0  0  0
    0.7150   -3.1014    4.2211 H   0  0  0  0  0  0  0  0  0  0  0  0
   -1.3444   -3.7720    4.3662 C   0  0  0  0  0  0  0  0  0  0  0  0
   -1.1767   -4.3040    5.3143 H   0  0  0  0  0  0  0  0  0  0  0  0
   -2.5972   -3.8171    3.7418 C   0  0  0  0  0  0  0  0  0  0  0  0
   -3.4230   -4.3846    4.1954 H   0  0  0  0  0  0  0  0  0  0  0  0
   -2.8032   -3.1711    2.5102 C   0  0  0  0  0  0  0  0  0  0  0  0
   -3.7740   -3.2760    2.0171 H   0  0  0  0  0  0  0  0  0  0  0  0
   -1.7556   -2.4586    1.8970 C   0  0  0  0  0  0  0  0  0  0  0  0
   -2.7799   -1.2655   -0.0137 C   0  0  0  0  0  0  0  0  0  0  0  0
   -4.1655   -1.2799    0.5899 C   0  0  0  0  0  0  0  0  0  0  0  0
   -4.1538   -1.0296    1.6683 H   0  0  0  0  0  0  0  0  0  0  0  0
   -4.6077   -2.2913    0.4775 H   0  0  0  0  0  0  0  0  0  0  0  0
   -4.8484   -0.5914    0.0673 H   0  0  0  0  0  0  0  0  0  0  0  0
  2 53  1  0  0  0  0
  2 58  1  0  0  0  0
  3 37  1  0  0  0  0
  4 67  1  0  0  0  0
  5 18  1  0  0  0  0
  7 48  1  0  0  0  0
 10 20  2  0  0  0  0
 11 13  1  0  0  0  0
 12 11  1  0  0  0  0
 13 15  2  0  0  0  0
 13 14  1  0  0  0  0
 15  8  1  0  0  0  0
 16 17  1  0  0  0  0
 16 15  1  0  0  0  0
 18 16  2  0  0  0  0
 19 18  1  0  0  0  0
 19 11  2  0  0  0  0
 20 21  1  0  0  0  0
 20 19  1  0  0  0  0
 21 68  2  0  0  0  0
 22 23  1  1  0  0  0
 22  1  1  0  0  0  0
 22 21  1  0  0  0  0
 24 23  1  0  0  0  0
 25 23  1  0  0  0  0
 26 23  1  0  0  0  0
 27 36  1  0  0  0  0
 27  1  1  0  0  0  0
 28 27  2  0  0  0  0
 29 28  1  0  0  0  0
 30 28  1  0  0  0  0
 30 32  2  0  0  0  0
 31 30  1  0  0  0  0
 32 34  1  0  0  0  0
 33 32  1  0  0  0  0
 34 35  1  0  0  0  0
 34 36  2  0  0  0  0
 36  3  1  0  0  0  0
 37 38  1  1  0  0  0
 37 42  1  0  0  0  0
 38 40  1  0  0  0  0
 38 41  1  0  0  0  0
 39 38  1  0  0  0  0
 42 43  1  0  0  0  0
 42 53  2  0  0  0  0
 43  9  2  0  0  0  0
 44 43  1  0  0  0  0
 45 44  1  0  0  0  0
 45  6  1  0  0  0  0
 46 45  2  0  0  0  0
 47 46  1  0  0  0  0
 48 49  2  0  0  0  0
 48 46  1  0  0  0  0
 49 51  1  0  0  0  0
 50 49  1  0  0  0  0
 51 52  1  0  0  0  0
 51 44  2  0  0  0  0
 53 54  1  0  0  0  0
 54 56  1  0  0  0  0
 54 55  1  0  0  0  0
 54 57  1  0  0  0  0
 58 59  1  0  0  0  0
 59 60  1  0  0  0  0
 59 61  2  0  0  0  0
 61 62  1  0  0  0  0
 63 64  1  0  0  0  0
 63 61  1  0  0  0  0
 65 63  2  0  0  0  0
 66 65  1  0  0  0  0
 67 65  1  0  0  0  0
 67 58  2  0  0  0  0
 68 69  1  0  0  0  0
 68  4  1  0  0  0  0
 69 70  1  0  0  0  0
 71 69  1  0  0  0  0
 72 69  1  0  0  0  0
M  END
