4,5,6,7
 OpenBabel05122313063D

 59 61  0  0  0  0  0  0  0  0999 V2000
    0.1255   -0.8391    1.1596 S   0  0  0  0  0  0  0  0  0  0  0  0
   -0.5401   -2.1412    1.3519 O   0  0  0  0  0  0  0  0  0  0  0  0
   -0.0766    0.2771    2.1013 O   0  0  0  0  0  0  0  0  0  0  0  0
   -0.6407   -0.2470   -0.3728 N   0  0  0  0  0  0  0  0  0  0  0  0
   -3.0454   -1.5371   -1.1389 N   0  0  0  0  0  0  0  0  0  0  0  0
   -4.6351    0.7654   -0.6584 N   0  0  0  0  0  0  0  0  0  0  0  0
   -2.2528    2.0954    0.1268 N   0  0  0  0  0  0  0  0  0  0  0  0
    6.2903    0.3473   -0.7536 N   0  0  0  0  0  0  0  0  0  0  0  0
   -0.6296   -1.2900   -1.4230 C   0  0  0  0  0  0  0  0  0  0  0  0
   -1.9814   -1.3728   -2.1352 C   0  0  0  0  0  0  0  0  0  0  0  0
   -4.4333   -1.4672   -1.6329 C   0  0  0  0  0  0  0  0  0  0  0  0
   -4.8631   -0.0145   -1.8750 C   0  0  0  0  0  0  0  0  0  0  0  0
   -4.5444    2.2252   -0.7659 C   0  0  0  0  0  0  0  0  0  0  0  0
   -3.0853    2.6579   -0.9524 C   0  0  0  0  0  0  0  0  0  0  0  0
   -0.7954    2.2404   -0.0358 C   0  0  0  0  0  0  0  0  0  0  0  0
   -0.2045    1.0850   -0.8505 C   0  0  0  0  0  0  0  0  0  0  0  0
    1.8448   -1.1090    0.7495 C   0  0  0  0  0  0  0  0  0  0  0  0
    2.1600   -2.4349    0.4462 C   0  0  0  0  0  0  0  0  0  0  0  0
    3.4682   -2.7647    0.0385 C   0  0  0  0  0  0  0  0  0  0  0  0
    4.4068   -1.7558   -0.1425 C   0  0  0  0  0  0  0  0  0  0  0  0
    5.1063    0.6456   -0.0847 C   0  0  0  0  0  0  0  0  0  0  0  0
    4.8702    1.9107    0.4758 C   0  0  0  0  0  0  0  0  0  0  0  0
    3.6526    2.1981    1.1243 C   0  0  0  0  0  0  0  0  0  0  0  0
    2.6231    1.2671    1.2033 C   0  0  0  0  0  0  0  0  0  0  0  0
    4.1047   -0.3905    0.1103 C   0  0  0  0  0  0  0  0  0  0  0  0
    2.8166   -0.0435    0.6834 C   0  0  0  0  0  0  0  0  0  0  0  0
    6.2526   -0.2245   -2.0981 C   0  0  0  0  0  0  0  0  0  0  0  0
    7.4531    1.1880   -0.5269 C   0  0  0  0  0  0  0  0  0  0  0  0
    0.1893   -1.1184   -2.1528 H   0  0  0  0  0  0  0  0  0  0  0  0
   -0.4340   -2.2618   -0.9298 H   0  0  0  0  0  0  0  0  0  0  0  0
   -2.1791   -0.4417   -2.7079 H   0  0  0  0  0  0  0  0  0  0  0  0
   -1.9546   -2.2027   -2.8772 H   0  0  0  0  0  0  0  0  0  0  0  0
   -2.9044   -2.4087   -0.6086 H   0  0  0  0  0  0  0  0  0  0  0  0
   -4.5812   -2.0688   -2.5567 H   0  0  0  0  0  0  0  0  0  0  0  0
   -5.0737   -1.9061   -0.8407 H   0  0  0  0  0  0  0  0  0  0  0  0
   -4.2670    0.4359   -2.6971 H   0  0  0  0  0  0  0  0  0  0  0  0
   -5.9235    0.0026   -2.2136 H   0  0  0  0  0  0  0  0  0  0  0  0
   -5.2740    0.4810    0.0978 H   0  0  0  0  0  0  0  0  0  0  0  0
   -4.9343    2.6600    0.1775 H   0  0  0  0  0  0  0  0  0  0  0  0
   -5.1702    2.6372   -1.5876 H   0  0  0  0  0  0  0  0  0  0  0  0
   -3.0161    3.7675   -0.9974 H   0  0  0  0  0  0  0  0  0  0  0  0
   -2.6960    2.2746   -1.9202 H   0  0  0  0  0  0  0  0  0  0  0  0
   -2.5385    2.4997    1.0296 H   0  0  0  0  0  0  0  0  0  0  0  0
   -0.5274    3.1995   -0.5310 H   0  0  0  0  0  0  0  0  0  0  0  0
   -0.3469    2.2471    0.9723 H   0  0  0  0  0  0  0  0  0  0  0  0
   -0.5438    1.1586   -1.9055 H   0  0  0  0  0  0  0  0  0  0  0  0
    0.9043    1.1694   -0.8711 H   0  0  0  0  0  0  0  0  0  0  0  0
    1.3956   -3.2140    0.5737 H   0  0  0  0  0  0  0  0  0  0  0  0
    3.7407   -3.8172   -0.1235 H   0  0  0  0  0  0  0  0  0  0  0  0
    5.4306   -2.0174   -0.4418 H   0  0  0  0  0  0  0  0  0  0  0  0
    5.6257    2.7016    0.3847 H   0  0  0  0  0  0  0  0  0  0  0  0
    3.5072    3.1981    1.5607 H   0  0  0  0  0  0  0  0  0  0  0  0
    1.6935    1.5112    1.7280 H   0  0  0  0  0  0  0  0  0  0  0  0
    5.2757   -0.6962   -2.3016 H   0  0  0  0  0  0  0  0  0  0  0  0
    6.4117    0.5692   -2.8659 H   0  0  0  0  0  0  0  0  0  0  0  0
    7.0478   -0.9881   -2.2311 H   0  0  0  0  0  0  0  0  0  0  0  0
    7.4143    2.1527   -1.0889 H   0  0  0  0  0  0  0  0  0  0  0  0
    7.5652    1.4094    0.5513 H   0  0  0  0  0  0  0  0  0  0  0  0
    8.3591    0.6445   -0.8614 H   0  0  0  0  0  0  0  0  0  0  0  0
  1  2  2  0  0  0  0
  1  3  2  0  0  0  0
  4  1  1  0  0  0  0
  5 33  1  0  0  0  0
  6 38  1  0  0  0  0
  7 43  1  0  0  0  0
  8 28  1  0  0  0  0
  8 21  1  0  0  0  0
  9 30  1  0  0  0  0
  9  4  1  0  0  0  0
 10  9  1  0  0  0  0
 10  5  1  0  0  0  0
 11  5  1  0  0  0  0
 11 35  1  0  0  0  0
 12 11  1  0  0  0  0
 12  6  1  0  0  0  0
 13  6  1  0  0  0  0
 13 39  1  0  0  0  0
 14 13  1  0  0  0  0
 14  7  1  0  0  0  0
 15  7  1  0  0  0  0
 15 45  1  0  0  0  0
 16  4  1  0  0  0  0
 16 15  1  0  0  0  0
 17  1  1  0  0  0  0
 18 48  1  0  0  0  0
 18 17  2  0  0  0  0
 19 18  1  0  0  0  0
 20 19  2  0  0  0  0
 20 25  1  0  0  0  0
 21 25  2  0  0  0  0
 21 22  1  0  0  0  0
 22 23  2  0  0  0  0
 23 24  1  0  0  0  0
 23 52  1  0  0  0  0
 24 53  1  0  0  0  0
 25 26  1  0  0  0  0
 26 17  1  0  0  0  0
 26 24  2  0  0  0  0
 27  8  1  0  0  0  0
 28 58  1  0  0  0  0
 29  9  1  0  0  0  0
 31 10  1  0  0  0  0
 32 10  1  0  0  0  0
 34 11  1  0  0  0  0
 36 12  1  0  0  0  0
 37 12  1  0  0  0  0
 40 13  1  0  0  0  0
 41 14  1  0  0  0  0
 42 14  1  0  0  0  0
 44 15  1  0  0  0  0
 46 16  1  0  0  0  0
 47 16  1  0  0  0  0
 49 19  1  0  0  0  0
 50 20  1  0  0  0  0
 51 22  1  0  0  0  0
 54 27  1  0  0  0  0
 55 27  1  0  0  0  0
 56 27  1  0  0  0  0
 57 28  1  0  0  0  0
 59 28  1  0  0  0  0
M  END
