1,2,3,4
 OpenBabel05122313063D

 39 40  0  0  1  0  0  0  0  0999 V2000
   -1.4015   -1.3207    0.0567 N   0  0  0  0  0  2  0  0  0  0  0  0
   -1.5454    1.2588    0.0725 N   0  0  0  0  0  2  0  0  0  0  0  0
    1.2999    1.4748   -0.2203 N   0  0  0  0  0  2  0  0  0  0  0  0
    1.5738   -1.1196    0.0992 N   0  0  0  0  0  2  0  0  0  0  0  0
   -1.2884   -2.6326   -0.3079 C   0  0  0  0  0  3  0  0  0  0  0  0
   -0.2810   -2.9670   -0.5830 H   0  0  0  0  0  0  0  0  0  0  0  0
   -2.3679   -3.5146   -0.3508 C   0  0  0  0  0  0  0  0  0  0  0  0
   -2.1917   -4.5587   -0.6480 H   0  0  0  0  0  0  0  0  0  0  0  0
   -3.6541   -3.0524   -0.0243 C   0  0  0  0  0  0  0  0  0  0  0  0
   -4.5253   -3.7226   -0.0420 H   0  0  0  0  0  0  0  0  0  0  0  0
   -3.7912   -1.6911    0.2890 C   0  0  0  0  0  0  0  0  0  0  0  0
   -4.7784   -1.2554    0.5050 H   0  0  0  0  0  0  0  0  0  0  0  0
   -2.6686   -0.8569    0.3040 C   0  0  0  0  0  0  0  0  0  0  0  0
   -2.7522    0.6210    0.5425 C   0  0  0  0  0  0  0  0  0  0  0  0
   -3.6821    1.0033    0.0613 H   0  0  0  0  0  0  0  0  0  0  0  0
   -2.9146    0.7888    1.6440 H   0  0  0  0  0  0  0  0  0  0  0  0
   -1.4979    2.6086    0.0056 C   0  0  2  0  0  3  0  0  0  0  0  0
   -0.2978    3.3128   -0.1873 C   0  0  0  0  0  0  0  0  0  0  0  0
   -0.3833    4.4055   -0.2648 H   0  0  0  0  0  0  0  0  0  0  0  0
    1.0221    2.7860   -0.3011 C   0  0  0  0  0  0  0  0  0  0  0  0
    2.5593    0.9583   -0.4689 C   0  0  0  0  0  0  0  0  0  0  0  0
    3.4030    1.6053   -0.7435 H   0  0  0  0  0  0  0  0  0  0  0  0
    2.7340   -0.4117   -0.2684 C   0  0  0  0  0  0  0  0  0  0  0  0
    3.9861   -1.1104   -0.3532 C   0  0  0  0  0  0  0  0  0  0  0  0
    4.8662   -0.5591   -0.7176 H   0  0  0  0  0  0  0  0  0  0  0  0
    4.0876   -2.4241    0.0635 C   0  0  0  0  0  0  0  0  0  0  0  0
    5.0518   -2.9527    0.0107 H   0  0  0  0  0  0  0  0  0  0  0  0
    2.9352   -3.0721    0.5987 C   0  0  0  0  0  0  0  0  0  0  0  0
    2.9752   -4.0934    1.0005 H   0  0  0  0  0  0  0  0  0  0  0  0
    1.7314   -2.3733    0.5903 C   0  0  0  0  0  0  0  0  0  0  0  0
    0.8275   -2.8448    1.0049 H   0  0  0  0  0  0  0  0  0  0  0  0
   -2.7726    3.4065    0.1793 C   0  0  0  0  0  0  0  0  0  0  0  0
   -3.5623    3.1007   -0.5414 H   0  0  0  0  0  0  0  0  0  0  0  0
   -2.5813    4.4852    0.0325 H   0  0  0  0  0  0  0  0  0  0  0  0
   -3.2085    3.2790    1.1953 H   0  0  0  0  0  0  0  0  0  0  0  0
    2.1482    3.7507   -0.5838 C   0  0  0  0  0  0  0  0  0  0  0  0
    2.9776    3.6401    0.1485 H   0  0  0  0  0  0  0  0  0  0  0  0
    1.7925    4.7969   -0.5492 H   0  0  0  0  0  0  0  0  0  0  0  0
    2.5962    3.5773   -1.5889 H   0  0  0  0  0  0  0  0  0  0  0  0
  1 13  1  0  0  0  0
  2 14  1  0  0  0  0
  4 30  1  0  0  0  0
  5  1  1  0  0  0  0
  6  5  1  0  0  0  0
  7  5  1  0  0  0  0
  7  9  2  0  0  0  0
  8  7  1  0  0  0  0
  9 11  1  0  0  0  0
 10  9  1  0  0  0  0
 11 13  2  0  0  0  0
 11 12  1  0  0  0  0
 13 14  1  0  0  0  0
 14 16  1  0  0  0  0
 15 14  1  0  0  0  0
 17 18  1  1  0  0  0
 17  2  1  0  0  0  0
 17 32  1  0  0  0  0
 19 18  1  0  0  0  0
 20  3  1  0  0  0  0
 20 18  2  0  0  0  0
 21 23  2  0  0  0  0
 21  3  1  0  0  0  0
 22 21  1  0  0  0  0
 23  4  1  0  0  0  0
 24 23  1  0  0  0  0
 24 26  2  0  0  0  0
 25 24  1  0  0  0  0
 26 28  1  0  0  0  0
 27 26  1  0  0  0  0
 28 29  1  0  0  0  0
 30 28  2  0  0  0  0
 30 31  1  0  0  0  0
 32 35  1  0  0  0  0
 33 32  1  0  0  0  0
 34 32  1  0  0  0  0
 36 38  1  0  0  0  0
 36 20  1  0  0  0  0
 36 37  1  0  0  0  0
 39 36  1  0  0  0  0
M  END
