1,2,33,34
 OpenBabel05122313063D

 64 70  0  0  0  0  0  0  0  0999 V2000
   -1.4317    1.4012   -0.5119 N   0  0  0  0  0  2  0  0  0  0  0  0
   -1.4440   -1.5049    0.0126 N   0  0  0  0  0  0  0  0  0  0  0  0
   -1.2332    2.7419   -0.7472 C   0  0  0  0  0  0  0  0  0  0  0  0
   -2.5075    3.3794   -1.0309 C   0  0  0  0  0  0  0  0  0  0  0  0
   -3.4689    2.4029   -0.9573 C   0  0  0  0  0  0  0  0  0  0  0  0
   -2.7857    1.1689   -0.6127 C   0  0  0  0  0  0  0  0  0  0  0  0
   -3.4396   -0.0680   -0.3976 C   0  0  0  0  0  0  0  0  0  0  0  0
   -2.8051   -1.2910   -0.0694 C   0  0  0  0  0  0  0  0  0  0  0  0
   -3.5134   -2.4937    0.3223 C   0  0  0  0  0  0  0  0  0  0  0  0
   -2.5600   -3.4335    0.6337 C   0  0  0  0  0  0  0  0  0  0  0  0
   -1.2649   -2.8075    0.4277 C   0  0  0  0  0  0  0  0  0  0  0  0
    0.0104    3.4308   -0.6865 C   0  0  0  0  0  0  0  0  0  0  0  0
   -0.0300    4.8887   -0.9184 C   0  0  0  0  0  0  0  0  0  0  0  0
    0.6562    5.8285   -0.2309 C   0  0  0  0  0  0  0  0  0  0  0  0
   -4.9327   -0.0715   -0.4458 C   0  0  0  0  0  0  0  0  0  0  0  0
   -5.6277   -0.8128   -1.4250 C   0  0  0  0  0  0  0  0  0  0  0  0
   -7.0302   -0.8192   -1.4550 C   0  0  0  0  0  0  0  0  0  0  0  0
   -7.7601   -0.0883   -0.5040 C   0  0  0  0  0  0  0  0  0  0  0  0
   -7.0790    0.6492    0.4780 C   0  0  0  0  0  0  0  0  0  0  0  0
   -5.6769    0.6583    0.5072 C   0  0  0  0  0  0  0  0  0  0  0  0
   -2.6632    4.4402   -1.2516 H   0  0  0  0  0  0  0  0  0  0  0  0
   -4.5451    2.5063   -1.1283 H   0  0  0  0  0  0  0  0  0  0  0  0
   -4.6015   -2.5956    0.3881 H   0  0  0  0  0  0  0  0  0  0  0  0
   -2.7217   -4.4463    1.0140 H   0  0  0  0  0  0  0  0  0  0  0  0
   -0.7200    5.2341   -1.7067 H   0  0  0  0  0  0  0  0  0  0  0  0
    0.5535    6.8957   -0.4807 H   0  0  0  0  0  0  0  0  0  0  0  0
    1.3181    5.5672    0.6094 H   0  0  0  0  0  0  0  0  0  0  0  0
   -5.0532   -1.3809   -2.1722 H   0  0  0  0  0  0  0  0  0  0  0  0
   -7.5570   -1.3966   -2.2302 H   0  0  0  0  0  0  0  0  0  0  0  0
   -8.8605   -0.0943   -0.5275 H   0  0  0  0  0  0  0  0  0  0  0  0
   -7.6446    1.2184    1.2316 H   0  0  0  0  0  0  0  0  0  0  0  0
   -5.1363    1.2239    1.2814 H   0  0  0  0  0  0  0  0  0  0  0  0
    1.4317   -1.4012    0.5114 N   0  0  0  0  0  0  0  0  0  0  0  0
    1.4440    1.5049   -0.0130 N   0  0  0  0  0  0  0  0  0  0  0  0
   -0.0104   -3.4309    0.6855 C   0  0  0  0  0  0  0  0  0  0  0  0
    1.2649    2.8074   -0.4284 C   0  0  0  0  0  0  0  0  0  0  0  0
    1.2332   -2.7420    0.7464 C   0  0  0  0  0  3  0  0  0  0  0  0
    2.7856   -1.1688    0.6126 C   0  0  0  0  0  0  0  0  0  0  0  0
    2.8050    1.2910    0.0694 C   0  0  0  0  0  0  0  0  0  0  0  0
    0.0300   -4.8888    0.9169 C   0  0  0  0  0  0  0  0  0  0  0  0
    2.5601    3.4334   -0.6343 C   0  0  0  0  0  0  0  0  0  0  0  0
    2.5075   -3.3795    1.0303 C   0  0  0  0  0  0  0  0  0  0  0  0
    3.4688   -2.4029    0.9571 C   0  0  0  0  0  0  0  0  0  0  0  0
    3.4395    0.0681    0.3978 C   0  0  0  0  0  0  0  0  0  0  0  0
    3.5133    2.4937   -0.3225 C   0  0  0  0  0  0  0  0  0  0  0  0
   -0.6562   -5.8284    0.2293 C   0  0  0  0  0  0  0  0  0  0  0  0
    0.7201   -5.2345    1.7051 H   0  0  0  0  0  0  0  0  0  0  0  0
    2.7218    4.4461   -1.0148 H   0  0  0  0  0  0  0  0  0  0  0  0
    2.6632   -4.4402    1.2509 H   0  0  0  0  0  0  0  0  0  0  0  0
    4.5450   -2.5062    1.1284 H   0  0  0  0  0  0  0  0  0  0  0  0
    4.9326    0.0718    0.4464 C   0  0  0  0  0  0  0  0  0  0  0  0
    4.6014    2.5956   -0.3881 H   0  0  0  0  0  0  0  0  0  0  0  0
   -0.5535   -6.8958    0.4787 H   0  0  0  0  0  0  0  0  0  0  0  0
   -1.3183   -5.5668   -0.6108 H   0  0  0  0  0  0  0  0  0  0  0  0
    5.6272    0.8133    1.4258 C   0  0  0  0  0  0  0  0  0  0  0  0
    5.6772   -0.6580   -0.5061 C   0  0  0  0  0  0  0  0  0  0  0  0
    7.0296    0.8199    1.4564 C   0  0  0  0  0  0  0  0  0  0  0  0
    5.0523    1.3813    2.1728 H   0  0  0  0  0  0  0  0  0  0  0  0
    7.0793   -0.6487   -0.4765 C   0  0  0  0  0  0  0  0  0  0  0  0
    5.1370   -1.2238   -1.2805 H   0  0  0  0  0  0  0  0  0  0  0  0
    7.7600    0.0889    0.5057 C   0  0  0  0  0  0  0  0  0  0  0  0
    7.5561    1.3973    2.2317 H   0  0  0  0  0  0  0  0  0  0  0  0
    7.6453   -1.2179   -1.2299 H   0  0  0  0  0  0  0  0  0  0  0  0
    8.8603    0.0950    0.5296 H   0  0  0  0  0  0  0  0  0  0  0  0
  2 11  1  0  0  0  0
  3 12  2  0  0  0  0
  3  1  1  0  0  0  0
  4  5  2  0  0  0  0
  4  3  1  0  0  0  0
  5  6  1  0  0  0  0
  6  1  1  0  0  0  0
  6  7  2  0  0  0  0
  7  8  1  0  0  0  0
  8  2  2  0  0  0  0
  8  9  1  0  0  0  0
  9 23  1  0  0  0  0
  9 10  2  0  0  0  0
 10 24  1  0  0  0  0
 11 10  1  0  0  0  0
 11 35  2  0  0  0  0
 12 36  1  0  0  0  0
 13 12  1  0  0  0  0
 13 14  2  0  0  0  0
 14 27  1  0  0  0  0
 15  7  1  0  0  0  0
 15 20  1  0  0  0  0
 16 15  2  0  0  0  0
 17 16  1  0  0  0  0
 17 18  2  0  0  0  0
 18 19  1  0  0  0  0
 19 20  2  0  0  0  0
 19 31  1  0  0  0  0
 20 32  1  0  0  0  0
 21  4  1  0  0  0  0
 22  5  1  0  0  0  0
 25 13  1  0  0  0  0
 26 14  1  0  0  0  0
 28 16  1  0  0  0  0
 29 17  1  0  0  0  0
 30 18  1  0  0  0  0
 33 38  2  0  0  0  0
 33 37  1  0  0  0  0
 34 39  1  0  0  0  0
 35 37  1  0  0  0  0
 35 40  1  0  0  0  0
 36 34  2  0  0  0  0
 37 42  1  0  0  0  0
 38 43  1  0  0  0  0
 39 44  2  0  0  0  0
 40 47  1  0  0  0  0
 41 36  1  0  0  0  0
 41 45  2  0  0  0  0
 42 49  1  0  0  0  0
 43 42  2  0  0  0  0
 43 50  1  0  0  0  0
 44 51  1  0  0  0  0
 44 38  1  0  0  0  0
 45 39  1  0  0  0  0
 46 53  1  0  0  0  0
 46 40  2  0  0  0  0
 48 41  1  0  0  0  0
 51 55  1  0  0  0  0
 52 45  1  0  0  0  0
 54 46  1  0  0  0  0
 55 57  2  0  0  0  0
 55 58  1  0  0  0  0
 56 59  1  0  0  0  0
 56 51  2  0  0  0  0
 57 62  1  0  0  0  0
 59 61  2  0  0  0  0
 60 56  1  0  0  0  0
 61 64  1  0  0  0  0
 61 57  1  0  0  0  0
 63 59  1  0  0  0  0
M  END
