1,2,3,4
 OpenBabel05122313063D

 40 41  0  0  0  0  0  0  0  0999 V2000
    0.0545    1.5387   -0.6473 N   0  0  0  0  0  2  0  0  0  0  0  0
   -1.9318    1.1133    0.8112 N   0  0  0  0  0  2  0  0  0  0  0  0
   -1.7954   -1.4793    0.7401 N   0  0  0  0  0  0  0  0  0  0  0  0
    0.3246   -1.2513   -0.9877 N   0  0  0  0  0  2  0  0  0  0  0  0
    3.8041   -1.4264    0.2037 N   0  0  0  0  0  0  0  0  0  0  0  0
    1.0769    1.9324   -1.4383 C   0  0  0  0  0  3  0  0  0  0  0  0
    1.1309    3.3495   -1.4867 C   0  0  0  0  0  0  0  0  0  0  0  0
    0.0839    3.8344   -0.6848 C   0  0  0  0  0  0  0  0  0  0  0  0
   -0.5811    2.6918   -0.1713 C   0  0  0  0  0  0  0  0  0  0  0  0
   -1.7122    2.4063    0.6244 C   0  0  0  0  0  0  0  0  0  0  0  0
   -3.1017    0.4952    1.4041 C   0  0  0  0  0  0  0  0  0  0  0  0
   -2.6566   -0.9035    1.8232 C   0  0  0  0  0  0  0  0  0  0  0  0
   -2.5185   -2.1344   -0.3846 C   0  0  0  0  0  0  0  0  0  0  0  0
   -1.5473   -2.8454   -1.3282 C   0  0  0  0  0  0  0  0  0  0  0  0
   -0.4891   -1.9442   -1.9860 C   0  0  0  0  0  0  0  0  0  0  0  0
    1.5890   -1.5594   -0.8395 C   0  0  0  0  0  3  0  0  0  0  0  0
    2.4709   -1.0253    0.1456 C   0  0  0  0  0  0  0  0  0  0  0  0
    2.2834   -0.0949    1.1947 C   0  0  0  0  0  0  0  0  0  0  0  0
    3.5132    0.0462    1.8661 C   0  0  0  0  0  0  0  0  0  0  0  0
    4.4387   -0.7937    1.2265 C   0  0  0  0  0  0  0  0  0  0  0  0
   -1.1791   -2.1888    1.1657 H   0  0  0  0  0  0  0  0  0  0  0  0
    4.2429   -2.0966   -0.4291 H   0  0  0  0  0  0  0  0  0  0  0  0
    1.7367    1.2074   -1.9308 H   0  0  0  0  0  0  0  0  0  0  0  0
    1.8613    3.9422   -2.0493 H   0  0  0  0  0  0  0  0  0  0  0  0
   -0.1800    4.8813   -0.4958 H   0  0  0  0  0  0  0  0  0  0  0  0
   -2.3832    3.1757    1.0457 H   0  0  0  0  0  0  0  0  0  0  0  0
   -3.9305    0.4379    0.6605 H   0  0  0  0  0  0  0  0  0  0  0  0
   -3.4908    1.0645    2.2761 H   0  0  0  0  0  0  0  0  0  0  0  0
   -2.0225   -0.8360    2.7288 H   0  0  0  0  0  0  0  0  0  0  0  0
   -3.5126   -1.5754    2.0453 H   0  0  0  0  0  0  0  0  0  0  0  0
   -3.0981   -1.3564   -0.9225 H   0  0  0  0  0  0  0  0  0  0  0  0
   -3.2510   -2.8673    0.0217 H   0  0  0  0  0  0  0  0  0  0  0  0
   -2.1393   -3.3367   -2.1268 H   0  0  0  0  0  0  0  0  0  0  0  0
   -1.0331   -3.6637   -0.7767 H   0  0  0  0  0  0  0  0  0  0  0  0
    0.1561   -2.5601   -2.6504 H   0  0  0  0  0  0  0  0  0  0  0  0
   -0.9845   -1.1819   -2.6257 H   0  0  0  0  0  0  0  0  0  0  0  0
    2.0151   -2.3077   -1.5406 H   0  0  0  0  0  0  0  0  0  0  0  0
    1.3484    0.4374    1.4041 H   0  0  0  0  0  0  0  0  0  0  0  0
    3.7266    0.6929    2.7238 H   0  0  0  0  0  0  0  0  0  0  0  0
    5.4988   -0.9736    1.4383 H   0  0  0  0  0  0  0  0  0  0  0  0
  1  9  1  0  0  0  0
  2 11  1  0  0  0  0
  3 21  1  0  0  0  0
  3 12  1  0  0  0  0
  4 16  1  0  0  0  0
  5 20  1  0  0  0  0
  6  1  1  0  0  0  0
  7  6  1  0  0  0  0
  7  8  2  0  0  0  0
  8 25  1  0  0  0  0
  8  9  1  0  0  0  0
  9 10  2  0  0  0  0
 10  2  1  0  0  0  0
 10 26  1  0  0  0  0
 11 12  1  0  0  0  0
 11 28  1  0  0  0  0
 12 30  1  0  0  0  0
 12 29  1  0  0  0  0
 13 32  1  0  0  0  0
 13  3  1  0  0  0  0
 14 34  1  0  0  0  0
 14 13  1  0  0  0  0
 15 14  1  0  0  0  0
 15  4  1  0  0  0  0
 16 17  1  0  0  0  0
 17  5  1  0  0  0  0
 17 18  2  0  0  0  0
 18 38  1  0  0  0  0
 18 19  1  0  0  0  0
 19 39  1  0  0  0  0
 20 40  1  0  0  0  0
 20 19  2  0  0  0  0
 22  5  1  0  0  0  0
 23  6  1  0  0  0  0
 24  7  1  0  0  0  0
 27 11  1  0  0  0  0
 31 13  1  0  0  0  0
 33 14  1  0  0  0  0
 35 15  1  0  0  0  0
 36 15  1  0  0  0  0
 37 16  1  0  0  0  0
M  END
