1,11,40,47
 OpenBabel05122313063D

 56 61  0  0  1  0  0  0  0  0999 V2000
   -2.7886    1.6294   -0.5756 N   0  0  0  0  0  2  0  0  0  0  0  0
   -2.2109    2.8249   -0.2426 C   0  0  2  0  0  3  0  0  0  0  0  0
   -2.8824    4.0464   -0.4280 C   0  0  0  0  0  0  0  0  0  0  0  0
   -2.3938    4.9878   -0.1393 H   0  0  0  0  0  0  0  0  0  0  0  0
   -4.1735    4.0389   -0.9674 C   0  0  0  0  0  0  0  0  0  0  0  0
   -4.7167    4.9826   -1.1226 H   0  0  0  0  0  0  0  0  0  0  0  0
   -4.7656    2.8088   -1.3002 C   0  0  0  0  0  0  0  0  0  0  0  0
   -5.7756    2.7580   -1.7308 H   0  0  0  0  0  0  0  0  0  0  0  0
   -4.0388    1.6335   -1.0824 C   0  0  0  0  0  0  0  0  0  0  0  0
   -4.4617    0.6477   -1.3346 H   0  0  0  0  0  0  0  0  0  0  0  0
   -0.4676    1.4661    0.6754 N   0  0  0  0  0  2  0  0  0  0  0  0
    0.8289    1.5574    1.0182 N   0  0  0  0  0  0  0  0  0  0  0  0
    1.2857    2.8414    0.9074 C   0  0  0  0  0  3  0  0  0  0  0  0
    2.3249    3.0934    1.1438 H   0  0  0  0  0  0  0  0  0  0  0  0
    0.2223    3.6190    0.4510 C   0  0  0  0  0  0  0  0  0  0  0  0
    0.2441    4.6888    0.2219 H   0  0  0  0  0  0  0  0  0  0  0  0
   -0.8571    2.7100    0.3014 C   0  0  0  0  0  0  0  0  0  0  0  0
    1.5236    0.3581    1.5037 C   0  0  0  0  0  0  0  0  0  0  0  0
    0.9982   -0.5005    1.0516 H   0  0  0  0  0  0  0  0  0  0  0  0
    1.3512    0.2852    2.5970 H   0  0  0  0  0  0  0  0  0  0  0  0
    3.0153    0.3595    1.2475 C   0  0  0  0  0  0  0  0  0  0  0  0
    3.7913    0.7169    2.3533 C   0  0  0  0  0  0  0  0  0  0  0  0
    3.2745    0.9753    3.2911 H   0  0  0  0  0  0  0  0  0  0  0  0
    5.2031    0.7415    2.3264 C   0  0  0  0  0  0  0  0  0  0  0  0
    5.7686    1.0305    3.2238 H   0  0  0  0  0  0  0  0  0  0  0  0
    5.8495    0.3771    1.1623 C   0  0  0  0  0  0  0  0  0  0  0  0
    6.9487    0.3660    1.1098 H   0  0  0  0  0  0  0  0  0  0  0  0
    5.1154   -0.0000    0.0000 C   0  0  0  0  0  0  0  0  0  0  0  0
    5.8495   -0.3772   -1.1622 C   0  0  0  0  0  0  0  0  0  0  0  0
    6.9487   -0.3661   -1.1098 H   0  0  0  0  0  0  0  0  0  0  0  0
    5.2031   -0.7416   -2.3264 C   0  0  0  0  0  0  0  0  0  0  0  0
    5.7686   -1.0306   -3.2238 H   0  0  0  0  0  0  0  0  0  0  0  0
    3.7913   -0.7170   -2.3533 C   0  0  0  0  0  0  0  0  0  0  0  0
    3.2745   -0.9753   -3.2911 H   0  0  0  0  0  0  0  0  0  0  0  0
    3.0153   -0.3595   -1.2475 C   0  0  0  0  0  0  0  0  0  0  0  0
    3.6598   -0.0000    0.0000 C   0  0  0  0  0  0  0  0  0  0  0  0
    1.5236   -0.3581   -1.5037 C   0  0  0  0  0  0  0  0  0  0  0  0
    0.9982    0.5005   -1.0516 H   0  0  0  0  0  0  0  0  0  0  0  0
    1.3512   -0.2851   -2.5969 H   0  0  0  0  0  0  0  0  0  0  0  0
   -0.4677   -1.4660   -0.6754 N   0  0  0  0  0  2  0  0  0  0  0  0
    0.8289   -1.5574   -1.0182 N   0  0  0  0  0  0  0  0  0  0  0  0
    1.2856   -2.8415   -0.9075 C   0  0  0  0  0  3  0  0  0  0  0  0
    2.3248   -3.0935   -1.1439 H   0  0  0  0  0  0  0  0  0  0  0  0
    0.2222   -3.6190   -0.4512 C   0  0  0  0  0  0  0  0  0  0  0  0
    0.2439   -4.6888   -0.2221 H   0  0  0  0  0  0  0  0  0  0  0  0
   -0.8572   -2.7100   -0.3015 C   0  0  0  0  0  0  0  0  0  0  0  0
   -2.7886   -1.6294    0.5757 N   0  0  0  0  0  2  0  0  0  0  0  0
   -2.2109   -2.8249    0.2425 C   0  0  2  0  0  3  0  0  0  0  0  0
   -2.8824   -4.0464    0.4279 C   0  0  0  0  0  0  0  0  0  0  0  0
   -2.3939   -4.9878    0.1391 H   0  0  0  0  0  0  0  0  0  0  0  0
   -4.1736   -4.0388    0.9674 C   0  0  0  0  0  0  0  0  0  0  0  0
   -4.7168   -4.9825    1.1224 H   0  0  0  0  0  0  0  0  0  0  0  0
   -4.7656   -2.8088    1.3002 C   0  0  0  0  0  0  0  0  0  0  0  0
   -5.7756   -2.7580    1.7308 H   0  0  0  0  0  0  0  0  0  0  0  0
   -4.0388   -1.6335    1.0825 C   0  0  0  0  0  0  0  0  0  0  0  0
   -4.4617   -0.6477    1.3348 H   0  0  0  0  0  0  0  0  0  0  0  0
  1  2  1  0  0  0  0
  2 17  1  6  0  0  0
  3  2  1  0  0  0  0
  3  4  1  0  0  0  0
  5  3  2  0  0  0  0
  6  5  1  0  0  0  0
  7  9  2  0  0  0  0
  7  5  1  0  0  0  0
  8  7  1  0  0  0  0
  9  1  1  0  0  0  0
 10  9  1  0  0  0  0
 11 12  1  0  0  0  0
 12 18  1  0  0  0  0
 13 12  1  0  0  0  0
 13 14  1  0  0  0  0
 15 13  1  0  0  0  0
 16 15  1  0  0  0  0
 17 15  2  0  0  0  0
 17 11  1  0  0  0  0
 18 20  1  0  0  0  0
 19 18  1  0  0  0  0
 21 18  1  0  0  0  0
 21 22  1  0  0  0  0
 22 23  1  0  0  0  0
 24 22  2  0  0  0  0
 24 25  1  0  0  0  0
 26 24  1  0  0  0  0
 27 26  1  0  0  0  0
 28 36  1  0  0  0  0
 28 26  2  0  0  0  0
 29 30  1  0  0  0  0
 29 28  1  0  0  0  0
 31 29  2  0  0  0  0
 32 31  1  0  0  0  0
 33 31  1  0  0  0  0
 33 35  2  0  0  0  0
 34 33  1  0  0  0  0
 35 36  1  0  0  0  0
 36 21  2  0  0  0  0
 37 35  1  0  0  0  0
 37 38  1  0  0  0  0
 37 41  1  0  0  0  0
 39 37  1  0  0  0  0
 40 46  1  0  0  0  0
 41 42  1  0  0  0  0
 41 40  1  0  0  0  0
 42 44  1  0  0  0  0
 43 42  1  0  0  0  0
 44 46  2  0  0  0  0
 44 45  1  0  0  0  0
 47 55  1  0  0  0  0
 48 46  1  1  0  0  0
 48 49  1  0  0  0  0
 48 47  1  0  0  0  0
 49 51  2  0  0  0  0
 50 49  1  0  0  0  0
 51 52  1  0  0  0  0
 51 53  1  0  0  0  0
 53 54  1  0  0  0  0
 55 53  2  0  0  0  0
 55 56  1  0  0  0  0
M  END
