1,2,3,4
 OpenBabel05122313063D

 64 70  0  0  0  0  0  0  0  0999 V2000
    1.3916    0.0128    1.5553 N   0  0  0  0  0  0  0  0  0  0  0  0
   -1.5189    0.4916    1.3629 N   0  0  0  0  0  2  0  0  0  0  0  0
   -1.5613   -0.8102   -1.2258 N   0  0  0  0  0  0  0  0  0  0  0  0
    1.3497   -1.2915   -1.0312 N   0  0  0  0  0  0  0  0  0  0  0  0
    2.7231   -0.3184    1.4867 C   0  0  0  0  0  0  0  0  0  0  0  0
    3.3976    0.0972    2.7090 C   0  0  0  0  0  0  0  0  0  0  0  0
    2.4434    0.6834    3.5049 C   0  0  0  0  0  0  0  0  0  0  0  0
    1.1910    0.6242    2.7693 C   0  0  0  0  0  0  0  0  0  0  0  0
   -0.0416    1.1059    3.2437 C   0  0  0  0  0  0  0  0  0  0  0  0
   -1.2917    1.0357    2.6041 C   0  0  0  0  0  0  0  0  0  0  0  0
   -2.5436    1.5080    3.1718 C   0  0  0  0  0  0  0  0  0  0  0  0
   -3.5251    1.2348    2.2491 C   0  0  0  0  0  0  0  0  0  0  0  0
   -2.8675    0.5951    1.1186 C   0  0  0  0  0  0  0  0  0  0  0  0
   -3.5276    0.1391   -0.0495 C   0  0  0  0  0  0  0  0  0  0  0  0
   -2.9023   -0.5285   -1.1318 C   0  0  0  0  0  0  0  0  0  0  0  0
   -3.5951   -1.0280   -2.3114 C   0  0  0  0  0  0  0  0  0  0  0  0
   -2.6404   -1.6098   -3.1107 C   0  0  0  0  0  0  0  0  0  0  0  0
   -1.3703   -1.4653   -2.4182 C   0  0  0  0  0  0  0  0  0  0  0  0
   -0.1357   -1.9374   -2.8967 C   0  0  0  0  0  0  0  0  0  0  0  0
    1.1158   -1.8617   -2.2597 C   0  0  0  0  0  0  0  0  0  0  0  0
    2.3562   -2.3869   -2.8033 C   0  0  0  0  0  0  0  0  0  0  0  0
    3.3389   -2.1183   -1.8798 C   0  0  0  0  0  0  0  0  0  0  0  0
    2.6917   -1.4342   -0.7691 C   0  0  0  0  0  3  0  0  0  0  0  0
    3.3521   -0.9758    0.3994 C   0  0  0  0  0  0  0  0  0  0  0  0
    5.0674    1.4174   -0.1578 S   0  0  0  0  0  0  0  0  0  0  0  0
    4.8264   -1.2209    0.4944 C   0  0  0  0  0  0  0  0  0  0  0  0
    5.3172   -2.4989    0.8162 C   0  0  0  0  0  0  0  0  0  0  0  0
    6.6948   -2.7571    0.8886 C   0  0  0  0  0  0  0  0  0  0  0  0
    7.6014   -1.7185    0.6353 C   0  0  0  0  0  0  0  0  0  0  0  0
    7.1389   -0.4335    0.3134 C   0  0  0  0  0  0  0  0  0  0  0  0
    5.7550   -0.1735    0.2394 C   0  0  0  0  0  0  0  0  0  0  0  0
    6.5356    2.4014   -0.5688 C   0  0  0  0  0  0  0  0  0  0  0  0
   -5.1731   -2.0646    1.0746 S   0  0  0  0  0  0  0  0  0  0  0  0
   -5.0068    0.3620   -0.1374 C   0  0  0  0  0  0  0  0  0  0  0  0
   -5.5223    1.5349   -0.7139 C   0  0  0  0  0  0  0  0  0  0  0  0
   -6.9055    1.7592   -0.8034 C   0  0  0  0  0  0  0  0  0  0  0  0
   -7.7886    0.7906   -0.3062 C   0  0  0  0  0  0  0  0  0  0  0  0
   -7.2998   -0.3896    0.2740 C   0  0  0  0  0  0  0  0  0  0  0  0
   -5.9102   -0.6164    0.3646 C   0  0  0  0  0  0  0  0  0  0  0  0
   -6.6179   -3.0388    1.5800 C   0  0  0  0  0  0  0  0  0  0  0  0
    4.4618   -0.0526    2.9225 H   0  0  0  0  0  0  0  0  0  0  0  0
    2.5682    1.1131    4.5065 H   0  0  0  0  0  0  0  0  0  0  0  0
   -0.0303    1.5735    4.2397 H   0  0  0  0  0  0  0  0  0  0  0  0
   -2.6528    1.9776    4.1572 H   0  0  0  0  0  0  0  0  0  0  0  0
   -4.6006    1.4315    2.3214 H   0  0  0  0  0  0  0  0  0  0  0  0
   -4.6733   -0.9466   -2.4885 H   0  0  0  0  0  0  0  0  0  0  0  0
   -2.7786   -2.1033   -4.0807 H   0  0  0  0  0  0  0  0  0  0  0  0
   -0.1522   -2.4349   -3.8781 H   0  0  0  0  0  0  0  0  0  0  0  0
    2.4568   -2.8981   -3.7688 H   0  0  0  0  0  0  0  0  0  0  0  0
    4.4058   -2.3610   -1.9354 H   0  0  0  0  0  0  0  0  0  0  0  0
    4.5885   -3.3007    1.0092 H   0  0  0  0  0  0  0  0  0  0  0  0
    7.0561   -3.7648    1.1418 H   0  0  0  0  0  0  0  0  0  0  0  0
    8.6854   -1.9027    0.6870 H   0  0  0  0  0  0  0  0  0  0  0  0
    7.8687    0.3634    0.1180 H   0  0  0  0  0  0  0  0  0  0  0  0
   -4.8112    2.2820   -1.0990 H   0  0  0  0  0  0  0  0  0  0  0  0
   -7.2888    2.6843   -1.2587 H   0  0  0  0  0  0  0  0  0  0  0  0
   -8.8763    0.9490   -0.3676 H   0  0  0  0  0  0  0  0  0  0  0  0
   -8.0123   -1.1330    0.6560 H   0  0  0  0  0  0  0  0  0  0  0  0
    7.0994    1.9678   -1.4189 H   0  0  0  0  0  0  0  0  0  0  0  0
   -7.2279   -2.5115    2.3406 H   0  0  0  0  0  0  0  0  0  0  0  0
   -7.2517   -3.3189    0.7148 H   0  0  0  0  0  0  0  0  0  0  0  0
    6.1498    3.3960   -0.8637 H   0  0  0  0  0  0  0  0  0  0  0  0
    7.2061    2.5286    0.3043 H   0  0  0  0  0  0  0  0  0  0  0  0
   -6.2058   -3.9610    2.0320 H   0  0  0  0  0  0  0  0  0  0  0  0
  1  8  2  0  0  0  0
  2 10  1  0  0  0  0
  3 15  2  0  0  0  0
  4 23  1  0  0  0  0
  5  1  1  0  0  0  0
  5  6  1  0  0  0  0
  6 41  1  0  0  0  0
  6  7  2  0  0  0  0
  7 42  1  0  0  0  0
  8  9  1  0  0  0  0
  8  7  1  0  0  0  0
  9 43  1  0  0  0  0
 10 11  1  0  0  0  0
 10  9  2  0  0  0  0
 11 44  1  0  0  0  0
 12 45  1  0  0  0  0
 12 11  2  0  0  0  0
 13  2  1  0  0  0  0
 13 12  1  0  0  0  0
 14 13  2  0  0  0  0
 15 14  1  0  0  0  0
 16 15  1  0  0  0  0
 17 18  1  0  0  0  0
 17 16  2  0  0  0  0
 18  3  1  0  0  0  0
 19 18  2  0  0  0  0
 19 20  1  0  0  0  0
 20  4  2  0  0  0  0
 21 20  1  0  0  0  0
 21 22  2  0  0  0  0
 22 23  1  0  0  0  0
 23 24  1  0  0  0  0
 24 26  1  0  0  0  0
 24  5  2  0  0  0  0
 25 31  1  0  0  0  0
 26 27  1  0  0  0  0
 27 28  2  0  0  0  0
 27 51  1  0  0  0  0
 28 52  1  0  0  0  0
 29 53  1  0  0  0  0
 29 28  1  0  0  0  0
 30 29  2  0  0  0  0
 31 30  1  0  0  0  0
 31 26  2  0  0  0  0
 32 25  1  0  0  0  0
 32 63  1  0  0  0  0
 33 40  1  0  0  0  0
 34 14  1  0  0  0  0
 34 39  1  0  0  0  0
 35 34  2  0  0  0  0
 36 35  1  0  0  0  0
 36 37  2  0  0  0  0
 37 38  1  0  0  0  0
 38 39  2  0  0  0  0
 38 58  1  0  0  0  0
 39 33  1  0  0  0  0
 40 64  1  0  0  0  0
 40 60  1  0  0  0  0
 46 16  1  0  0  0  0
 47 17  1  0  0  0  0
 48 19  1  0  0  0  0
 49 21  1  0  0  0  0
 50 22  1  0  0  0  0
 54 30  1  0  0  0  0
 55 35  1  0  0  0  0
 56 36  1  0  0  0  0
 57 37  1  0  0  0  0
 59 32  1  0  0  0  0
 61 40  1  0  0  0  0
 62 32  1  0  0  0  0
M  END
