1,2,4,6
 OpenBabel05122313063D

 63 66  0  0  0  0  0  0  0  0999 V2000
   -0.0289   -0.6824    0.3257 N   0  0  0  0  0  0  0  0  0  0  0  0
    1.6446    1.4172    1.2231 N   0  0  0  0  0  0  0  0  0  0  0  0
    2.0384    1.0536    2.1114 H   0  0  0  0  0  0  0  0  0  0  0  0
    3.9622    0.2973   -0.0924 N   0  0  0  0  0  0  0  0  0  0  0  0
    4.2995   -0.0920    0.8084 H   0  0  0  0  0  0  0  0  0  0  0  0
    2.4391   -1.8133   -0.9697 N   0  0  0  0  0  0  0  0  0  0  0  0
    2.0560   -1.5537   -1.8962 H   0  0  0  0  0  0  0  0  0  0  0  0
   -0.3851    0.1348    1.5250 C   0  0  0  0  0  0  0  0  0  0  0  0
    0.0666   -0.3664    2.4031 H   0  0  0  0  0  0  0  0  0  0  0  0
   -1.4840    0.1599    1.6696 H   0  0  0  0  0  0  0  0  0  0  0  0
    0.1804    1.5301    1.3877 C   0  0  0  0  0  0  0  0  0  0  0  0
   -0.2331    2.0536    0.5061 H   0  0  0  0  0  0  0  0  0  0  0  0
   -0.0693    2.1452    2.2794 H   0  0  0  0  0  0  0  0  0  0  0  0
    2.2972    2.7027    0.9051 C   0  0  0  0  0  0  0  0  0  0  0  0
    1.9669    3.4609    1.6488 H   0  0  0  0  0  0  0  0  0  0  0  0
    1.9371    3.0225   -0.0931 H   0  0  0  0  0  0  0  0  0  0  0  0
    3.8159    2.5823    0.9221 C   0  0  0  0  0  0  0  0  0  0  0  0
    4.2481    3.5972    0.8145 H   0  0  0  0  0  0  0  0  0  0  0  0
    4.1612    2.2111    1.9135 H   0  0  0  0  0  0  0  0  0  0  0  0
    4.3738    1.7153   -0.1984 C   0  0  0  0  0  0  0  0  0  0  0  0
    4.0192    2.0831   -1.1810 H   0  0  0  0  0  0  0  0  0  0  0  0
    5.4852    1.7569   -0.1961 H   0  0  0  0  0  0  0  0  0  0  0  0
    4.5034   -0.5230   -1.1996 C   0  0  0  0  0  0  0  0  0  0  0  0
    4.1940   -0.0428   -2.1489 H   0  0  0  0  0  0  0  0  0  0  0  0
    5.6138   -0.5523   -1.1673 H   0  0  0  0  0  0  0  0  0  0  0  0
    3.9185   -1.9125   -1.0735 C   0  0  0  0  0  0  0  0  0  0  0  0
    4.2742   -2.3957   -0.1410 H   0  0  0  0  0  0  0  0  0  0  0  0
    4.2163   -2.5588   -1.9259 H   0  0  0  0  0  0  0  0  0  0  0  0
    1.8713   -3.1080   -0.5218 C   0  0  0  0  0  0  0  0  0  0  0  0
    2.3514   -3.3406    0.4488 H   0  0  0  0  0  0  0  0  0  0  0  0
    2.1721   -3.8954   -1.2475 H   0  0  0  0  0  0  0  0  0  0  0  0
    0.3601   -3.0993   -0.3628 C   0  0  0  0  0  0  0  0  0  0  0  0
    0.0559   -4.1180   -0.0474 H   0  0  0  0  0  0  0  0  0  0  0  0
   -0.1263   -2.9463   -1.3497 H   0  0  0  0  0  0  0  0  0  0  0  0
   -0.1601   -2.1266    0.6898 C   0  0  0  0  0  0  0  0  0  0  0  0
   -1.2291   -2.3339    0.9039 H   0  0  0  0  0  0  0  0  0  0  0  0
    0.4055   -2.2766    1.6283 H   0  0  0  0  0  0  0  0  0  0  0  0
   -0.9383   -0.3560   -0.8771 C   0  0  0  0  0  0  0  0  0  0  0  0
   -0.4514    0.4647   -1.4195 H   0  0  0  0  0  0  0  0  0  0  0  0
   -0.8704   -1.2238   -1.5545 H   0  0  0  0  0  0  0  0  0  0  0  0
   -2.3735   -0.0093   -0.5569 C   0  0  0  0  0  0  0  0  0  0  0  0
   -2.7591    1.3681   -0.5077 C   0  0  0  0  0  0  0  0  0  0  0  0
   -1.9343    2.4438   -0.9880 C   0  0  0  0  0  0  0  0  0  0  0  0
   -0.9714    2.2257   -1.4723 H   0  0  0  0  0  0  0  0  0  0  0  0
   -2.3453    3.7631   -0.9127 C   0  0  0  0  0  0  0  0  0  0  0  0
   -1.6986    4.5558   -1.3184 H   0  0  0  0  0  0  0  0  0  0  0  0
   -3.6031    4.1080   -0.3377 C   0  0  0  0  0  0  0  0  0  0  0  0
   -3.9085    5.1628   -0.2765 H   0  0  0  0  0  0  0  0  0  0  0  0
   -4.4425    3.1086    0.1096 C   0  0  0  0  0  0  0  0  0  0  0  0
   -5.4315    3.3518    0.5273 H   0  0  0  0  0  0  0  0  0  0  0  0
   -4.0668    1.7283    0.0186 C   0  0  0  0  0  0  0  0  0  0  0  0
   -4.9527    0.7141    0.4208 C   0  0  0  0  0  0  0  0  0  0  0  0
   -5.9284    0.9927    0.8490 H   0  0  0  0  0  0  0  0  0  0  0  0
   -4.6474   -0.6455    0.2408 C   0  0  0  0  0  0  0  0  0  0  0  0
   -5.6054   -1.6632    0.5592 C   0  0  0  0  0  0  0  0  0  0  0  0
   -6.5731   -1.3527    0.9820 H   0  0  0  0  0  0  0  0  0  0  0  0
   -5.3388   -2.9953    0.3185 C   0  0  0  0  0  0  0  0  0  0  0  0
   -6.0863   -3.7663    0.5557 H   0  0  0  0  0  0  0  0  0  0  0  0
   -4.0982   -3.3670   -0.2772 C   0  0  0  0  0  0  0  0  0  0  0  0
   -3.9111   -4.4222   -0.5271 H   0  0  0  0  0  0  0  0  0  0  0  0
   -3.1371   -2.4147   -0.5646 C   0  0  0  0  0  0  0  0  0  0  0  0
   -2.2153   -2.7358   -1.0657 H   0  0  0  0  0  0  0  0  0  0  0  0
   -3.3469   -1.0207   -0.2927 C   0  0  0  0  0  0  0  0  0  0  0  0
  1 35  1  0  0  0  0
  1  8  1  0  0  0  0
  2 11  1  0  0  0  0
  2  3  1  0  0  0  0
  4  5  1  0  0  0  0
  6 29  1  0  0  0  0
  7  6  1  0  0  0  0
  8 10  1  0  0  0  0
  8  9  1  0  0  0  0
 11  8  1  0  0  0  0
 11 13  1  0  0  0  0
 12 11  1  0  0  0  0
 14 17  1  0  0  0  0
 14  2  1  0  0  0  0
 14 15  1  0  0  0  0
 16 14  1  0  0  0  0
 17 19  1  0  0  0  0
 18 17  1  0  0  0  0
 20 22  1  0  0  0  0
 20  4  1  0  0  0  0
 20 17  1  0  0  0  0
 21 20  1  0  0  0  0
 23 25  1  0  0  0  0
 23 26  1  0  0  0  0
 23  4  1  0  0  0  0
 24 23  1  0  0  0  0
 26  6  1  0  0  0  0
 26 27  1  0  0  0  0
 28 26  1  0  0  0  0
 29 32  1  0  0  0  0
 29 30  1  0  0  0  0
 31 29  1  0  0  0  0
 32 33  1  0  0  0  0
 32 35  1  0  0  0  0
 34 32  1  0  0  0  0
 35 36  1  0  0  0  0
 35 37  1  0  0  0  0
 38 41  1  0  0  0  0
 38  1  1  0  0  0  0
 39 38  1  0  0  0  0
 40 38  1  0  0  0  0
 41 42  2  0  0  0  0
 41 63  1  0  0  0  0
 42 51  1  0  0  0  0
 43 45  2  0  0  0  0
 43 42  1  0  0  0  0
 44 43  1  0  0  0  0
 45 47  1  0  0  0  0
 46 45  1  0  0  0  0
 47 48  1  0  0  0  0
 47 49  2  0  0  0  0
 49 50  1  0  0  0  0
 51 49  1  0  0  0  0
 51 52  2  0  0  0  0
 52 53  1  0  0  0  0
 54 52  1  0  0  0  0
 54 55  1  0  0  0  0
 55 56  1  0  0  0  0
 57 58  1  0  0  0  0
 57 55  2  0  0  0  0
 59 57  1  0  0  0  0
 60 59  1  0  0  0  0
 61 63  1  0  0  0  0
 61 59  2  0  0  0  0
 62 61  1  0  0  0  0
 63 54  2  0  0  0  0
M  END
