1,2,3,4
 OpenBabel05122313063D

 70 76  0  0  1  0  0  0  0  0999 V2000
   -1.4325    1.4460   -0.3851 N   0  0  0  0  0  0  0  0  0  0  0  0
   -1.4181   -1.4006   -0.4508 N   0  0  0  0  0  2  0  0  0  0  0  0
    1.4181   -1.4006   -0.4508 N   0  0  0  0  0  2  0  0  0  0  0  0
    1.4325    1.4460   -0.3851 N   0  0  0  0  0  0  0  0  0  0  0  0
   -2.6900    1.2578    0.1949 C   0  0  0  0  0  3  0  0  0  0  0  0
   -3.2771   -0.0049    0.4369 C   0  0  0  0  0  0  0  0  0  0  0  0
   -2.6941   -1.2462    0.0934 C   0  0  0  0  0  0  0  0  0  0  0  0
   -3.3303   -2.5328    0.1076 C   0  0  0  0  0  0  0  0  0  0  0  0
   -4.3489   -2.7307    0.4573 H   0  0  0  0  0  0  0  0  0  0  0  0
   -2.4260   -3.4394   -0.4376 C   0  0  0  0  0  0  0  0  0  0  0  0
   -2.5812   -4.5110   -0.5975 H   0  0  0  0  0  0  0  0  0  0  0  0
   -1.2486   -2.7006   -0.7737 C   0  0  1  0  0  3  0  0  0  0  0  0
    0.0000   -3.2017   -1.4774 C   0  0  0  0  0  0  0  0  0  0  0  0
    1.2486   -2.7006   -0.7737 C   0  0  1  0  0  3  0  0  0  0  0  0
    2.4260   -3.4394   -0.4376 C   0  0  0  0  0  0  0  0  0  0  0  0
    2.5812   -4.5110   -0.5976 H   0  0  0  0  0  0  0  0  0  0  0  0
    3.3303   -2.5328    0.1076 C   0  0  0  0  0  0  0  0  0  0  0  0
    4.3489   -2.7307    0.4573 H   0  0  0  0  0  0  0  0  0  0  0  0
    2.6941   -1.2462    0.0934 C   0  0  0  0  0  0  0  0  0  0  0  0
    3.2771   -0.0049    0.4369 C   0  0  0  0  0  0  0  0  0  0  0  0
    2.6900    1.2578    0.1949 C   0  0  0  0  0  3  0  0  0  0  0  0
    3.2779    2.5490    0.4122 C   0  0  0  0  0  0  0  0  0  0  0  0
    4.2537    2.7329    0.8731 H   0  0  0  0  0  0  0  0  0  0  0  0
    2.3787    3.4926   -0.0763 C   0  0  0  0  0  0  0  0  0  0  0  0
    2.5051    4.5798   -0.0891 H   0  0  0  0  0  0  0  0  0  0  0  0
    1.2432    2.7714   -0.5601 C   0  0  0  0  0  0  0  0  0  0  0  0
   -0.0000    3.3223   -1.2358 C   0  0  0  0  0  0  0  0  0  0  0  0
   -1.2432    2.7714   -0.5601 C   0  0  0  0  0  0  0  0  0  0  0  0
   -2.3787    3.4926   -0.0763 C   0  0  0  0  0  0  0  0  0  0  0  0
   -2.5051    4.5798   -0.0892 H   0  0  0  0  0  0  0  0  0  0  0  0
   -3.2779    2.5490    0.4122 C   0  0  0  0  0  0  0  0  0  0  0  0
   -4.2537    2.7329    0.8731 H   0  0  0  0  0  0  0  0  0  0  0  0
    0.0000   -4.7376   -1.5411 C   0  0  0  0  0  0  0  0  0  0  0  0
   -0.8916   -5.1017   -2.0868 H   0  0  0  0  0  0  0  0  0  0  0  0
    0.0000   -5.1884   -0.5296 H   0  0  0  0  0  0  0  0  0  0  0  0
    0.8916   -5.1017   -2.0868 H   0  0  0  0  0  0  0  0  0  0  0  0
   -0.0000   -2.6359   -2.9292 C   0  0  0  0  0  0  0  0  0  0  0  0
   -0.9024   -2.9808   -3.4726 H   0  0  0  0  0  0  0  0  0  0  0  0
    0.9024   -2.9808   -3.4726 H   0  0  0  0  0  0  0  0  0  0  0  0
   -0.0000   -1.5284   -2.9120 H   0  0  0  0  0  0  0  0  0  0  0  0
    0.0000    2.8607   -2.7222 C   0  0  0  0  0  0  0  0  0  0  0  0
   -0.9021    3.2435   -3.2401 H   0  0  0  0  0  0  0  0  0  0  0  0
    0.0000    1.7550   -2.7847 H   0  0  0  0  0  0  0  0  0  0  0  0
    0.9022    3.2435   -3.2401 H   0  0  0  0  0  0  0  0  0  0  0  0
   -0.0000    4.8585   -1.1896 C   0  0  0  0  0  0  0  0  0  0  0  0
    0.8927    5.2598   -1.7069 H   0  0  0  0  0  0  0  0  0  0  0  0
   -0.0000    5.2370   -0.1489 H   0  0  0  0  0  0  0  0  0  0  0  0
   -0.8927    5.2598   -1.7069 H   0  0  0  0  0  0  0  0  0  0  0  0
   -4.6402   -0.0411    1.0408 C   0  0  0  0  0  0  0  0  0  0  0  0
   -5.7437    0.5467    0.3852 C   0  0  0  0  0  0  0  0  0  0  0  0
   -5.5913    1.0295   -0.5913 H   0  0  0  0  0  0  0  0  0  0  0  0
   -7.0221    0.4957    0.9591 C   0  0  0  0  0  0  0  0  0  0  0  0
   -7.8748    0.9494    0.4313 H   0  0  0  0  0  0  0  0  0  0  0  0
   -7.2162   -0.1366    2.1975 C   0  0  0  0  0  0  0  0  0  0  0  0
   -8.2196   -0.1732    2.6483 H   0  0  0  0  0  0  0  0  0  0  0  0
   -6.1251   -0.7251    2.8565 C   0  0  0  0  0  0  0  0  0  0  0  0
   -6.2688   -1.2201    3.8290 H   0  0  0  0  0  0  0  0  0  0  0  0
   -4.8473   -0.6835    2.2809 C   0  0  0  0  0  0  0  0  0  0  0  0
   -3.9891   -1.1407    2.7955 H   0  0  0  0  0  0  0  0  0  0  0  0
    4.6402   -0.0411    1.0408 C   0  0  0  0  0  0  0  0  0  0  0  0
    4.8473   -0.6836    2.2809 C   0  0  0  0  0  0  0  0  0  0  0  0
    3.9891   -1.1407    2.7955 H   0  0  0  0  0  0  0  0  0  0  0  0
    6.1251   -0.7252    2.8565 C   0  0  0  0  0  0  0  0  0  0  0  0
    6.2688   -1.2201    3.8290 H   0  0  0  0  0  0  0  0  0  0  0  0
    7.2162   -0.1366    2.1975 C   0  0  0  0  0  0  0  0  0  0  0  0
    8.2196   -0.1732    2.6483 H   0  0  0  0  0  0  0  0  0  0  0  0
    7.0221    0.4957    0.9591 C   0  0  0  0  0  0  0  0  0  0  0  0
    7.8748    0.9494    0.4313 H   0  0  0  0  0  0  0  0  0  0  0  0
    5.7437    0.5467    0.3853 C   0  0  0  0  0  0  0  0  0  0  0  0
    5.5913    1.0295   -0.5913 H   0  0  0  0  0  0  0  0  0  0  0  0
  1  5  1  0  0  0  0
  2  7  1  0  0  0  0
  3 19  1  0  0  0  0
  4 21  1  0  0  0  0
  5 31  1  0  0  0  0
  5  6  1  0  0  0  0
  6 49  1  0  0  0  0
  7  8  1  0  0  0  0
  7  6  2  0  0  0  0
  8  9  1  0  0  0  0
 10  8  2  0  0  0  0
 11 10  1  0  0  0  0
 12  2  1  6  0  0  0
 12 10  1  0  0  0  0
 13 14  1  0  0  0  0
 13 12  1  0  0  0  0
 14  3  1  6  0  0  0
 14 15  1  0  0  0  0
 15 17  2  0  0  0  0
 16 15  1  0  0  0  0
 17 18  1  0  0  0  0
 19 17  1  0  0  0  0
 19 20  2  0  0  0  0
 20 60  1  0  0  0  0
 21 22  1  0  0  0  0
 21 20  1  0  0  0  0
 22 23  1  0  0  0  0
 24 22  2  0  0  0  0
 25 24  1  0  0  0  0
 26  4  2  0  0  0  0
 26 24  1  0  0  0  0
 27 45  1  0  0  0  0
 27 28  1  0  0  0  0
 27 26  1  0  0  0  0
 28  1  2  0  0  0  0
 28 29  1  0  0  0  0
 29 31  2  0  0  0  0
 30 29  1  0  0  0  0
 31 32  1  0  0  0  0
 33 13  1  0  0  0  0
 33 35  1  0  0  0  0
 34 33  1  0  0  0  0
 36 33  1  0  0  0  0
 37 40  1  0  0  0  0
 37 13  1  0  0  0  0
 38 37  1  0  0  0  0
 39 37  1  0  0  0  0
 41 27  1  0  0  0  0
 42 41  1  0  0  0  0
 43 41  1  0  0  0  0
 44 41  1  0  0  0  0
 45 47  1  0  0  0  0
 46 45  1  0  0  0  0
 48 45  1  0  0  0  0
 49 58  1  0  0  0  0
 50 52  1  0  0  0  0
 50 49  2  0  0  0  0
 51 50  1  0  0  0  0
 52 54  2  0  0  0  0
 53 52  1  0  0  0  0
 54 55  1  0  0  0  0
 54 56  1  0  0  0  0
 56 57  1  0  0  0  0
 58 59  1  0  0  0  0
 58 56  2  0  0  0  0
 60 61  1  0  0  0  0
 61 62  1  0  0  0  0
 61 63  2  0  0  0  0
 63 64  1  0  0  0  0
 65 66  1  0  0  0  0
 65 63  1  0  0  0  0
 67 65  2  0  0  0  0
 68 67  1  0  0  0  0
 69 67  1  0  0  0  0
 69 60  2  0  0  0  0
 70 69  1  0  0  0  0
M  END
