5,6,19,20
 OpenBabel05122313063D

 34 36  0  0  0  0  0  0  0  0999 V2000
    0.0009    2.9339   -1.4964 F   0  0  0  0  0  0  0  0  0  0  0  0
    0.0006    4.4756    0.2537 F   0  0  0  0  0  0  0  0  0  0  0  0
    1.2490    2.5285    0.4724 O   0  0  0  0  0  0  0  0  0  0  0  0
    1.2486   -2.5288   -0.4719 O   0  0  0  0  0  0  0  0  0  0  0  0
    1.3943    1.2443    0.2037 N   0  0  0  0  0  2  0  0  0  0  0  0
    1.3941   -1.2446   -0.2033 N   0  0  0  0  0  2  0  0  0  0  0  0
    2.6157    0.7226    0.1238 C   0  0  0  0  0  0  0  0  0  0  0  0
    3.8606    1.4267    0.2443 C   0  0  0  0  0  0  0  0  0  0  0  0
    5.0292    0.7132    0.1207 C   0  0  0  0  0  0  0  0  0  0  0  0
    5.0291   -0.7142   -0.1201 C   0  0  0  0  0  0  0  0  0  0  0  0
    3.8603   -1.4275   -0.2437 C   0  0  0  0  0  0  0  0  0  0  0  0
    2.6156   -0.7231   -0.1234 C   0  0  0  0  0  0  0  0  0  0  0  0
    0.0006    3.1799   -0.1431 B   0  0  0  0  0  0  0  0  0  0  0  0
    3.8375    2.5094    0.4230 H   0  0  0  0  0  0  0  0  0  0  0  0
    5.9947    1.2341    0.2037 H   0  0  0  0  0  0  0  0  0  0  0  0
    5.9945   -1.2353   -0.2030 H   0  0  0  0  0  0  0  0  0  0  0  0
    3.8371   -2.5102   -0.4225 H   0  0  0  0  0  0  0  0  0  0  0  0
   -1.2486    2.5289    0.4716 O   0  0  0  0  0  0  0  0  0  0  0  0
   -1.3941    1.2447    0.2032 N   0  0  0  0  0  2  0  0  0  0  0  0
   -1.3943   -1.2442   -0.2038 N   0  0  0  0  0  2  0  0  0  0  0  0
   -1.2490   -2.5284   -0.4726 O   0  0  0  0  0  0  0  0  0  0  0  0
   -0.0006   -3.1799    0.1428 B   0  0  0  0  0  0  0  0  0  0  0  0
   -0.0009   -2.9341    1.4961 F   0  0  0  0  0  0  0  0  0  0  0  0
   -0.0006   -4.4755   -0.2543 F   0  0  0  0  0  0  0  0  0  0  0  0
   -2.6157   -0.7226   -0.1236 C   0  0  0  0  0  0  0  0  0  0  0  0
   -3.8606   -1.4268   -0.2437 C   0  0  0  0  0  0  0  0  0  0  0  0
   -5.0292   -0.7133   -0.1199 C   0  0  0  0  0  0  0  0  0  0  0  0
   -5.0291    0.7141    0.1209 C   0  0  0  0  0  0  0  0  0  0  0  0
   -3.8603    1.4275    0.2442 C   0  0  0  0  0  0  0  0  0  0  0  0
   -2.6156    0.7232    0.1236 C   0  0  0  0  0  0  0  0  0  0  0  0
   -3.8371    2.5102    0.4230 H   0  0  0  0  0  0  0  0  0  0  0  0
   -5.9945    1.2352    0.2041 H   0  0  0  0  0  0  0  0  0  0  0  0
   -5.9947   -1.2343   -0.2026 H   0  0  0  0  0  0  0  0  0  0  0  0
   -3.8375   -2.5095   -0.4225 H   0  0  0  0  0  0  0  0  0  0  0  0
  1 13  1  0  0  0  0
  4  6  1  0  0  0  0
  4 22  1  0  0  0  0
  5  3  1  0  0  0  0
  6 12  1  0  0  0  0
  7  5  1  0  0  0  0
  7  8  1  0  0  0  0
  8 14  1  0  0  0  0
  9 15  1  0  0  0  0
  9  8  2  0  0  0  0
 10  9  1  0  0  0  0
 11 12  1  0  0  0  0
 11 10  2  0  0  0  0
 12  7  2  0  0  0  0
 13  2  1  0  0  0  0
 13 18  1  0  0  0  0
 13  3  1  0  0  0  0
 16 10  1  0  0  0  0
 17 11  1  0  0  0  0
 19 18  1  0  0  0  0
 20 25  1  0  0  0  0
 21 20  1  0  0  0  0
 21 22  1  0  0  0  0
 22 23  1  0  0  0  0
 24 22  1  0  0  0  0
 25 30  1  0  0  0  0
 26 25  2  0  0  0  0
 26 27  1  0  0  0  0
 27 28  2  0  0  0  0
 28 32  1  0  0  0  0
 28 29  1  0  0  0  0
 29 31  1  0  0  0  0
 30 19  1  0  0  0  0
 30 29  2  0  0  0  0
 33 27  1  0  0  0  0
 34 26  1  0  0  0  0
M  END
