1,4,7,10
 OpenBabel05122313063D

 34 33  0  0  0  0  0  0  0  0999 V2000
    1.8996    0.2280   -0.0922 N   0  0  0  0  0  0  0  0  0  0  0  0
    2.1035    1.4626   -0.8588 C   0  0  0  0  0  0  0  0  0  0  0  0
    1.1346    2.5249   -0.3500 C   0  0  0  0  0  0  0  0  0  0  0  0
   -0.1235    1.9037   -0.0084 N   0  0  0  0  0  2  0  0  0  0  0  0
    2.3694   -0.9774   -0.7905 C   0  0  0  0  0  0  0  0  0  0  0  0
    1.4100   -1.3138   -1.9318 C   0  0  0  0  0  0  0  0  0  0  0  0
    0.0425   -1.1593   -1.4871 N   0  0  0  0  0  2  0  0  0  0  0  0
    2.3261    0.3303    1.3148 C   0  0  0  0  0  0  0  0  0  0  0  0
    1.6360   -0.7617    2.1382 C   0  0  0  0  0  0  0  0  0  0  0  0
    0.2801   -0.9190    1.6742 N   0  0  0  0  0  2  0  0  0  0  0  0
   -1.1158    2.8958    0.3456 C   0  0  0  0  0  0  0  0  0  0  0  0
   -0.8982   -1.8229   -2.3605 C   0  0  0  0  0  0  0  0  0  0  0  0
   -0.3144   -2.1959    1.9950 C   0  0  0  0  0  0  0  0  0  0  0  0
    3.1644    1.8107   -0.8153 H   0  0  0  0  0  0  0  0  0  0  0  0
    1.8703    1.2318   -1.9168 H   0  0  0  0  0  0  0  0  0  0  0  0
    1.0147    3.3116   -1.1386 H   0  0  0  0  0  0  0  0  0  0  0  0
    1.5702    3.0735    0.5290 H   0  0  0  0  0  0  0  0  0  0  0  0
    3.4200   -0.8602   -1.1527 H   0  0  0  0  0  0  0  0  0  0  0  0
    2.3569   -1.8105   -0.0619 H   0  0  0  0  0  0  0  0  0  0  0  0
    1.6171   -2.3646   -2.2579 H   0  0  0  0  0  0  0  0  0  0  0  0
    1.6343   -0.6886   -2.8390 H   0  0  0  0  0  0  0  0  0  0  0  0
    3.4369    0.2794    1.4189 H   0  0  0  0  0  0  0  0  0  0  0  0
    2.0011    1.3236    1.6792 H   0  0  0  0  0  0  0  0  0  0  0  0
    1.7120   -0.5010    3.2244 H   0  0  0  0  0  0  0  0  0  0  0  0
    2.1951   -1.7300    2.0352 H   0  0  0  0  0  0  0  0  0  0  0  0
   -2.0522    2.4156    0.6847 H   0  0  0  0  0  0  0  0  0  0  0  0
   -1.3645    3.5813   -0.5050 H   0  0  0  0  0  0  0  0  0  0  0  0
   -0.7581    3.5539    1.1780 H   0  0  0  0  0  0  0  0  0  0  0  0
   -1.9251   -1.7628   -1.9531 H   0  0  0  0  0  0  0  0  0  0  0  0
   -0.6556   -2.9089   -2.4871 H   0  0  0  0  0  0  0  0  0  0  0  0
   -0.9169   -1.3872   -3.3937 H   0  0  0  0  0  0  0  0  0  0  0  0
   -1.2452   -2.3532    1.4090 H   0  0  0  0  0  0  0  0  0  0  0  0
   -0.5934   -2.2906    3.0743 H   0  0  0  0  0  0  0  0  0  0  0  0
    0.3698   -3.0517    1.7591 H   0  0  0  0  0  0  0  0  0  0  0  0
  1  8  1  0  0  0  0
  2 14  1  0  0  0  0
  2  3  1  0  0  0  0
  2  1  1  0  0  0  0
  3  4  1  0  0  0  0
  3 17  1  0  0  0  0
  4 11  1  0  0  0  0
  5  1  1  0  0  0  0
  5 19  1  0  0  0  0
  6  7  1  0  0  0  0
  6  5  1  0  0  0  0
  8 22  1  0  0  0  0
  8 23  1  0  0  0  0
  8  9  1  0  0  0  0
  9 24  1  0  0  0  0
 10 13  1  0  0  0  0
 10  9  1  0  0  0  0
 11 26  1  0  0  0  0
 11 28  1  0  0  0  0
 12 29  1  0  0  0  0
 12  7  1  0  0  0  0
 13 33  1  0  0  0  0
 15  2  1  0  0  0  0
 16  3  1  0  0  0  0
 18  5  1  0  0  0  0
 20  6  1  0  0  0  0
 21  6  1  0  0  0  0
 25  9  1  0  0  0  0
 27 11  1  0  0  0  0
 30 12  1  0  0  0  0
 31 12  1  0  0  0  0
 32 13  1  0  0  0  0
 34 13  1  0  0  0  0
M  END
