1,2,3,4
 OpenBabel05122313063D

 40 40  0  0  1  0  0  0  0  0999 V2000
   -1.0936    1.4314   -0.8249 N   0  0  0  0  0  2  0  0  0  0  0  0
   -1.0935   -1.4315   -0.8251 N   0  0  0  0  0  2  0  0  0  0  0  0
    1.5754   -1.3904   -0.6481 N   0  0  0  0  0  2  0  0  0  0  0  0
    1.5754    1.3905   -0.6483 N   0  0  0  0  0  2  0  0  0  0  0  0
   -2.3028    1.2670   -1.3699 C   0  0  2  0  0  3  0  0  0  0  0  0
   -2.9084   -0.0000   -1.5357 C   0  0  0  0  0  0  0  0  0  0  0  0
   -2.3027   -1.2671   -1.3700 C   0  0  0  0  0  0  0  0  0  0  0  0
   -0.4643   -2.7522   -0.8038 C   0  0  0  0  0  0  0  0  0  0  0  0
    1.0073   -2.6179   -1.1954 C   0  0  0  0  0  0  0  0  0  0  0  0
    2.9058   -1.2544   -0.5752 C   0  0  2  0  0  3  0  0  0  0  0  0
    3.5245    0.0001   -0.3697 C   0  0  0  0  0  3  0  0  0  0  0  0
    2.9058    1.2545   -0.5756 C   0  0  1  0  0  3  0  0  0  0  0  0
    1.0071    2.6179   -1.1956 C   0  0  0  0  0  0  0  0  0  0  0  0
   -0.4643    2.7521   -0.8035 C   0  0  0  0  0  0  0  0  0  0  0  0
   -3.0950    2.4622   -1.8640 C   0  0  0  0  0  0  0  0  0  0  0  0
   -3.0949   -2.4623   -1.8642 C   0  0  0  0  0  0  0  0  0  0  0  0
    3.8064   -2.4526   -0.7752 C   0  0  0  0  0  0  0  0  0  0  0  0
    3.8064    2.4526   -0.7761 C   0  0  0  0  0  0  0  0  0  0  0  0
   -3.9173   -0.0000   -1.9677 H   0  0  0  0  0  0  0  0  0  0  0  0
   -0.5232   -3.1630    0.2286 H   0  0  0  0  0  0  0  0  0  0  0  0
   -0.9513   -3.4758   -1.4869 H   0  0  0  0  0  0  0  0  0  0  0  0
    1.5489   -3.5241   -0.8497 H   0  0  0  0  0  0  0  0  0  0  0  0
    1.0970   -2.5907   -2.3079 H   0  0  0  0  0  0  0  0  0  0  0  0
    4.6150    0.0001   -0.2462 H   0  0  0  0  0  0  0  0  0  0  0  0
    1.5488    3.5241   -0.8500 H   0  0  0  0  0  0  0  0  0  0  0  0
    1.0965    2.5906   -2.3081 H   0  0  0  0  0  0  0  0  0  0  0  0
   -0.9515    3.4759   -1.4862 H   0  0  0  0  0  0  0  0  0  0  0  0
   -0.5229    3.1627    0.2290 H   0  0  0  0  0  0  0  0  0  0  0  0
   -3.1953    3.2351   -1.0745 H   0  0  0  0  0  0  0  0  0  0  0  0
   -4.1071    2.1556   -2.1830 H   0  0  0  0  0  0  0  0  0  0  0  0
   -2.6024    2.9465   -2.7329 H   0  0  0  0  0  0  0  0  0  0  0  0
   -3.1952   -3.2352   -1.0748 H   0  0  0  0  0  0  0  0  0  0  0  0
   -2.6023   -2.9465   -2.7331 H   0  0  0  0  0  0  0  0  0  0  0  0
   -4.1071   -2.1556   -2.1831 H   0  0  0  0  0  0  0  0  0  0  0  0
    4.8641   -2.1835   -0.6041 H   0  0  0  0  0  0  0  0  0  0  0  0
    3.7192   -2.8561   -1.8057 H   0  0  0  0  0  0  0  0  0  0  0  0
    3.5345   -3.2725   -0.0779 H   0  0  0  0  0  0  0  0  0  0  0  0
    4.8641    2.1835   -0.6053 H   0  0  0  0  0  0  0  0  0  0  0  0
    3.5346    3.2727   -0.0790 H   0  0  0  0  0  0  0  0  0  0  0  0
    3.7188    2.8558   -1.8067 H   0  0  0  0  0  0  0  0  0  0  0  0
  1 14  1  0  0  0  0
  2  8  1  0  0  0  0
  3 10  1  0  0  0  0
  4 12  1  0  0  0  0
  5 15  1  6  0  0  0
  5  1  1  0  0  0  0
  6  7  2  0  0  0  0
  6  5  1  0  0  0  0
  7  2  1  0  0  0  0
  8 20  1  0  0  0  0
  9 22  1  0  0  0  0
  9  8  1  0  0  0  0
  9  3  1  0  0  0  0
 10 17  1  6  0  0  0
 10 11  1  0  0  0  0
 11 24  1  0  0  0  0
 12 18  1  6  0  0  0
 12 11  1  0  0  0  0
 13 25  1  0  0  0  0
 13 14  1  0  0  0  0
 13  4  1  0  0  0  0
 14 28  1  0  0  0  0
 15 29  1  0  0  0  0
 16  7  1  0  0  0  0
 16 32  1  0  0  0  0
 17 35  1  0  0  0  0
 17 37  1  0  0  0  0
 18 38  1  0  0  0  0
 18 39  1  0  0  0  0
 19  6  1  0  0  0  0
 21  8  1  0  0  0  0
 23  9  1  0  0  0  0
 26 13  1  0  0  0  0
 27 14  1  0  0  0  0
 30 15  1  0  0  0  0
 31 15  1  0  0  0  0
 33 16  1  0  0  0  0
 34 16  1  0  0  0  0
 36 17  1  0  0  0  0
 40 18  1  0  0  0  0
M  END
