1,2,3,4
q = -2.0, confidence = 0.658

 54 58  0  0  0  0  0  0  0  0999 V2000
    1.2925   -1.4334   -0.2573 N   0  0  0  0  0  0  0  0  0  0  0  0
   -1.4753   -1.2521   -0.2664 N   0  0  0  0  0  2  0  0  0  0  0  0
   -1.2925    1.4334   -0.2573 N   0  0  0  0  0  0  0  0  0  0  0  0
    1.4753    1.2521   -0.2664 N   0  0  0  0  0  0  0  0  0  0  0  0
    2.6260   -1.3864    0.1196 C   0  0  0  0  0  0  0  0  0  0  0  0
    3.2170   -2.7045   -0.0186 C   0  0  0  0  0  0  0  0  0  0  0  0
    2.2495   -3.5282   -0.5357 C   0  0  0  0  0  0  0  0  0  0  0  0
    1.0466   -2.7397   -0.6375 C   0  0  0  0  0  0  0  0  0  0  0  0
   -0.2132   -3.2666   -0.9116 C   0  0  0  0  0  0  0  0  0  0  0  0
   -1.3959   -2.5755   -0.6591 C   0  0  0  0  0  0  0  0  0  0  0  0
   -2.6932   -3.2002   -0.5888 C   0  0  0  0  0  0  0  0  0  0  0  0
   -3.5533   -2.2622   -0.0777 C   0  0  0  0  0  0  0  0  0  0  0  0
   -2.7991   -1.0350    0.0934 C   0  0  0  0  0  0  0  0  0  0  0  0
   -3.3522    0.2178    0.4196 C   0  0  0  0  0  0  0  0  0  0  0  0
   -4.7700    0.3604    0.9730 C   0  0  0  0  0  0  0  0  0  0  0  0
   -5.8648    0.1975   -0.0991 C   0  0  0  0  0  0  0  0  0  0  0  0
   -5.0261   -0.5044    2.2212 C   0  0  0  0  0  0  0  0  0  0  0  0
   -2.6260    1.3864    0.1196 C   0  0  0  0  0  0  0  0  0  0  0  0
   -3.2170    2.7045   -0.0186 C   0  0  0  0  0  0  0  0  0  0  0  0
   -2.2495    3.5282   -0.5358 C   0  0  0  0  0  0  0  0  0  0  0  0
   -1.0465    2.7397   -0.6375 C   0  0  0  0  0  0  0  0  0  0  0  0
    0.2132    3.2666   -0.9116 C   0  0  0  0  0  0  0  0  0  0  0  0
    1.3959    2.5755   -0.6591 C   0  0  0  0  0  0  0  0  0  0  0  0
    2.6932    3.2002   -0.5888 C   0  0  0  0  0  0  0  0  0  0  0  0
    3.5533    2.2622   -0.0777 C   0  0  0  0  0  0  0  0  0  0  0  0
    2.7991    1.0350    0.0934 C   0  0  0  0  0  3  0  0  0  0  0  0
    3.3522   -0.2178    0.4196 C   0  0  0  0  0  0  0  0  0  0  0  0
    4.7700   -0.3604    0.9730 C   0  0  0  0  0  0  0  0  0  0  0  0
    5.0261    0.5045    2.2211 C   0  0  0  0  0  0  0  0  0  0  0  0
    5.8648   -0.1975   -0.0991 C   0  0  0  0  0  0  0  0  0  0  0  0
    4.2585   -2.9622    0.1989 H   0  0  0  0  0  0  0  0  0  0  0  0
    2.3245   -4.5907   -0.7959 H   0  0  0  0  0  0  0  0  0  0  0  0
   -0.2820   -4.3235   -1.2033 H   0  0  0  0  0  0  0  0  0  0  0  0
   -2.9024   -4.2408   -0.8631 H   0  0  0  0  0  0  0  0  0  0  0  0
   -4.6209   -2.3852    0.1210 H   0  0  0  0  0  0  0  0  0  0  0  0
   -4.8420    1.4061    1.3313 H   0  0  0  0  0  0  0  0  0  0  0  0
   -6.8629    0.4234    0.3297 H   0  0  0  0  0  0  0  0  0  0  0  0
   -5.9004   -0.8296   -0.5119 H   0  0  0  0  0  0  0  0  0  0  0  0
   -5.6908    0.8876   -0.9486 H   0  0  0  0  0  0  0  0  0  0  0  0
   -6.0016   -0.2335    2.6745 H   0  0  0  0  0  0  0  0  0  0  0  0
   -4.2383   -0.3417    2.9834 H   0  0  0  0  0  0  0  0  0  0  0  0
   -5.0518   -1.5882    1.9990 H   0  0  0  0  0  0  0  0  0  0  0  0
   -4.2585    2.9622    0.1989 H   0  0  0  0  0  0  0  0  0  0  0  0
   -2.3245    4.5907   -0.7959 H   0  0  0  0  0  0  0  0  0  0  0  0
    0.2820    4.3235   -1.2034 H   0  0  0  0  0  0  0  0  0  0  0  0
    2.9024    4.2408   -0.8631 H   0  0  0  0  0  0  0  0  0  0  0  0
    4.6209    2.3852    0.1210 H   0  0  0  0  0  0  0  0  0  0  0  0
    4.8420   -1.4060    1.3314 H   0  0  0  0  0  0  0  0  0  0  0  0
    4.2384    0.3418    2.9834 H   0  0  0  0  0  0  0  0  0  0  0  0
    5.0518    1.5882    1.9989 H   0  0  0  0  0  0  0  0  0  0  0  0
    6.0016    0.2336    2.6744 H   0  0  0  0  0  0  0  0  0  0  0  0
    5.6908   -0.8877   -0.9486 H   0  0  0  0  0  0  0  0  0  0  0  0
    6.8629   -0.4234    0.3297 H   0  0  0  0  0  0  0  0  0  0  0  0
    5.9004    0.8296   -0.5119 H   0  0  0  0  0  0  0  0  0  0  0  0
  1  5  1  0  0  0  0
  2 13  1  0  0  0  0
  3 18  2  0  0  0  0
  4 26  1  0  0  0  0
  5 27  2  0  0  0  0
  6  5  1  0  0  0  0
  6 31  1  0  0  0  0
  7  6  2  0  0  0  0
  8  7  1  0  0  0  0
  8  1  2  0  0  0  0
  9 10  2  0  0  0  0
  9  8  1  0  0  0  0
 10 11  1  0  0  0  0
 10  2  1  0  0  0  0
 11 12  2  0  0  0  0
 12 13  1  0  0  0  0
 12 35  1  0  0  0  0
 13 14  2  0  0  0  0
 14 15  1  0  0  0  0
 15 36  1  0  0  0  0
 15 17  1  0  0  0  0
 16 37  1  0  0  0  0
 16 15  1  0  0  0  0
 17 40  1  0  0  0  0
 17 41  1  0  0  0  0
 18 14  1  0  0  0  0
 19 18  1  0  0  0  0
 19 43  1  0  0  0  0
 20 19  2  0  0  0  0
 21 20  1  0  0  0  0
 21  3  1  0  0  0  0
 22 23  1  0  0  0  0
 22 21  2  0  0  0  0
 23 24  1  0  0  0  0
 23  4  2  0  0  0  0
 24 25  2  0  0  0  0
 25 26  1  0  0  0  0
 25 47  1  0  0  0  0
 26 27  1  0  0  0  0
 27 28  1  0  0  0  0
 28 48  1  0  0  0  0
 28 29  1  0  0  0  0
 29 51  1  0  0  0  0
 29 49  1  0  0  0  0
 30 53  1  0  0  0  0
 30 28  1  0  0  0  0
 32  7  1  0  0  0  0
 33  9  1  0  0  0  0
 34 11  1  0  0  0  0
 38 16  1  0  0  0  0
 39 16  1  0  0  0  0
 42 17  1  0  0  0  0
 44 20  1  0  0  0  0
 45 22  1  0  0  0  0
 46 24  1  0  0  0  0
 50 29  1  0  0  0  0
 52 30  1  0  0  0  0
 54 30  1  0  0  0  0
M  END
