1,11,17,23
q = -2.0, confidence = 0.966

 78 89  0  0  0  0  0  0  0  0999 V2000
   -0.2477    0.0001   -0.0004 N   0  0  0  0  0  0  0  0  0  0  0  0
   -1.0755    1.0433    0.3580 C   0  0  0  0  0  3  0  0  0  0  0  0
   -2.4420    0.6499    0.2529 C   0  0  0  0  0  0  0  0  0  0  0  0
   -2.4421   -0.6497   -0.2530 C   0  0  0  0  0  0  0  0  0  0  0  0
   -1.0756   -1.0430   -0.3586 C   0  0  0  0  0  0  0  0  0  0  0  0
   -0.7749   -2.3813   -0.5993 C   0  0  0  0  0  0  0  0  0  0  0  0
    0.5246   -2.8293   -0.2205 C   0  0  0  0  0  0  0  0  0  0  0  0
    0.8765   -4.1720    0.1732 C   0  0  0  0  0  0  0  0  0  0  0  0
    2.1590   -4.1246    0.6669 C   0  0  0  0  0  0  0  0  0  0  0  0
    2.6132   -2.7635    0.5241 C   0  0  0  0  0  0  0  0  0  0  0  0
    1.5827   -1.9707    0.0278 N   0  0  0  0  0  0  0  0  0  0  0  0
    3.9342   -2.3355    0.7322 C   0  0  0  0  0  0  0  0  0  0  0  0
    4.3590   -1.0357    0.3894 C   0  0  0  0  0  0  0  0  0  0  0  0
    5.7411   -0.6385    0.2551 C   0  0  0  0  0  3  0  0  0  0  0  0
    5.7413    0.6387   -0.2521 C   0  0  0  0  0  0  0  0  0  0  0  0
    4.3593    1.0357   -0.3880 C   0  0  0  0  0  0  0  0  0  0  0  0
    3.5280   -0.0000    0.0002 N   0  0  0  0  0  0  0  0  0  0  0  0
    3.9347    2.3353   -0.7319 C   0  0  0  0  0  0  0  0  0  0  0  0
    2.6135    2.7633   -0.5250 C   0  0  0  0  0  0  0  0  0  0  0  0
    2.1591    4.1242   -0.6691 C   0  0  0  0  0  0  0  0  0  0  0  0
    0.8765    4.1718   -0.1757 C   0  0  0  0  0  0  0  0  0  0  0  0
    0.5246    2.8295    0.2191 C   0  0  0  0  0  0  0  0  0  0  0  0
    1.5829    1.9707   -0.0284 N   0  0  0  0  0  0  0  0  0  0  0  0
   -0.7748    2.3816    0.5982 C   0  0  0  0  0  0  0  0  0  0  0  0
   -1.8910    3.2063    1.0874 C   0  0  0  0  0  0  0  0  0  0  0  0
   -1.6044    4.4508    1.7051 C   0  0  0  0  0  0  0  0  0  0  0  0
   -2.6018    5.2762    2.2211 C   0  0  0  0  0  0  0  0  0  0  0  0
   -3.9422    4.8622    2.1547 C   0  0  0  0  0  0  0  0  0  0  0  0
   -4.2607    3.6257    1.5930 C   0  0  0  0  0  0  0  0  0  0  0  0
   -3.2804    2.7597    1.0478 C   0  0  0  0  0  0  0  0  0  0  0  0
   -3.5840    1.4153    0.5140 C   0  0  0  0  0  0  0  0  0  0  0  0
   -4.7909    0.6840    0.2232 C   0  0  0  0  0  0  0  0  0  0  0  0
   -4.7910   -0.6839   -0.2228 C   0  0  0  0  0  0  0  0  0  0  0  0
   -3.5841   -1.4151   -0.5142 C   0  0  0  0  0  0  0  0  0  0  0  0
   -3.2806   -2.7591   -1.0486 C   0  0  0  0  0  0  0  0  0  0  0  0
   -4.2610   -3.6248   -1.5941 C   0  0  0  0  0  0  0  0  0  0  0  0
   -3.9425   -4.8612   -2.1565 C   0  0  0  0  0  0  0  0  0  0  0  0
   -2.6022   -5.2752   -2.2231 C   0  0  0  0  0  0  0  0  0  0  0  0
   -1.6047   -4.4501   -1.7068 C   0  0  0  0  0  0  0  0  0  0  0  0
   -1.8912   -3.2058   -1.0886 C   0  0  0  0  0  0  0  0  0  0  0  0
    4.9558   -3.2973    1.2345 C   0  0  0  0  0  0  0  0  0  0  0  0
    5.6227   -3.0427    2.4531 C   0  0  0  0  0  0  0  0  0  0  0  0
    6.5934   -3.9318    2.9359 C   0  0  0  0  0  0  0  0  0  0  0  0
    6.9194   -5.0857    2.2055 C   0  0  0  0  0  0  0  0  0  0  0  0
    6.2704   -5.3438    0.9876 C   0  0  0  0  0  0  0  0  0  0  0  0
    5.2964   -4.4574    0.5052 C   0  0  0  0  0  0  0  0  0  0  0  0
    4.9567    3.2968   -1.2339 C   0  0  0  0  0  0  0  0  0  0  0  0
    5.6250    3.0412   -2.4515 C   0  0  0  0  0  0  0  0  0  0  0  0
    6.5961    3.9300   -2.9340 C   0  0  0  0  0  0  0  0  0  0  0  0
    6.9210    5.0847   -2.2043 C   0  0  0  0  0  0  0  0  0  0  0  0
    6.2705    5.3438   -0.9875 C   0  0  0  0  0  0  0  0  0  0  0  0
   -6.4874    1.5447    0.3743 Br  0  0  0  0  0  0  0  0  0  0  0  0
    5.2962    4.4578   -0.5053 C   0  0  0  0  0  0  0  0  0  0  0  0
   -6.4874   -1.5449   -0.3726 Br  0  0  0  0  0  0  0  0  0  0  0  0
    0.2030   -5.0336    0.1520 H   0  0  0  0  0  0  0  0  0  0  0  0
    2.7475   -4.9430    1.0930 H   0  0  0  0  0  0  0  0  0  0  0  0
    6.5994   -1.2747    0.4933 H   0  0  0  0  0  0  0  0  0  0  0  0
    6.5998    1.2751   -0.4893 H   0  0  0  0  0  0  0  0  0  0  0  0
    2.7476    4.9423   -1.0957 H   0  0  0  0  0  0  0  0  0  0  0  0
    0.2029    5.0334   -0.1554 H   0  0  0  0  0  0  0  0  0  0  0  0
   -0.5536    4.7456    1.8219 H   0  0  0  0  0  0  0  0  0  0  0  0
   -2.3319    6.2297    2.6995 H   0  0  0  0  0  0  0  0  0  0  0  0
   -4.7435    5.4925    2.5684 H   0  0  0  0  0  0  0  0  0  0  0  0
   -5.3064    3.3039    1.5927 H   0  0  0  0  0  0  0  0  0  0  0  0
   -5.3067   -3.3030   -1.5937 H   0  0  0  0  0  0  0  0  0  0  0  0
   -4.7439   -5.4912   -2.5705 H   0  0  0  0  0  0  0  0  0  0  0  0
   -2.3323   -6.2285   -2.7020 H   0  0  0  0  0  0  0  0  0  0  0  0
   -0.5539   -4.7448   -1.8238 H   0  0  0  0  0  0  0  0  0  0  0  0
    5.3629   -2.1395    3.0256 H   0  0  0  0  0  0  0  0  0  0  0  0
    7.0969   -3.7229    3.8921 H   0  0  0  0  0  0  0  0  0  0  0  0
    7.6828   -5.7825    2.5837 H   0  0  0  0  0  0  0  0  0  0  0  0
    6.5295   -6.2397    0.4031 H   0  0  0  0  0  0  0  0  0  0  0  0
    4.8011   -4.6493   -0.4582 H   0  0  0  0  0  0  0  0  0  0  0  0
    5.3661    2.1374   -3.0233 H   0  0  0  0  0  0  0  0  0  0  0  0
    7.1008    3.7203   -3.8894 H   0  0  0  0  0  0  0  0  0  0  0  0
    7.6846    5.7813   -2.5824 H   0  0  0  0  0  0  0  0  0  0  0  0
    6.5288    6.2404   -0.4035 H   0  0  0  0  0  0  0  0  0  0  0  0
    4.7997    4.6505    0.4574 H   0  0  0  0  0  0  0  0  0  0  0  0
  1  2  1  0  0  0  0
  2 24  1  0  0  0  0
  3  2  1  0  0  0  0
  3 31  1  0  0  0  0
  4  3  2  0  0  0  0
  5  4  1  0  0  0  0
  5  1  2  0  0  0  0
  6  5  1  0  0  0  0
  6  7  1  0  0  0  0
  7 11  2  0  0  0  0
  7  8  1  0  0  0  0
  8  9  2  0  0  0  0
  9 56  1  0  0  0  0
 10  9  1  0  0  0  0
 10 12  2  0  0  0  0
 11 10  1  0  0  0  0
 12 41  1  0  0  0  0
 13 12  1  0  0  0  0
 14 13  1  0  0  0  0
 14 57  1  0  0  0  0
 15 14  1  0  0  0  0
 16 15  2  0  0  0  0
 16 17  1  0  0  0  0
 17 13  2  0  0  0  0
 18 19  2  0  0  0  0
 18 16  1  0  0  0  0
 19 23  1  0  0  0  0
 20 19  1  0  0  0  0
 20 21  2  0  0  0  0
 21 60  1  0  0  0  0
 21 22  1  0  0  0  0
 22 24  1  0  0  0  0
 23 22  2  0  0  0  0
 24 25  2  0  0  0  0
 25 26  1  0  0  0  0
 26 61  1  0  0  0  0
 26 27  2  0  0  0  0
 27 62  1  0  0  0  0
 28 27  1  0  0  0  0
 28 63  1  0  0  0  0
 29 28  2  0  0  0  0
 30 25  1  0  0  0  0
 30 29  1  0  0  0  0
 31 30  2  0  0  0  0
 32 52  1  0  0  0  0
 32 31  1  0  0  0  0
 33 32  2  0  0  0  0
 34  4  1  0  0  0  0
 34 33  1  0  0  0  0
 35 34  2  0  0  0  0
 36 65  1  0  0  0  0
 36 35  1  0  0  0  0
 37 36  2  0  0  0  0
 38 37  1  0  0  0  0
 38 39  2  0  0  0  0
 39 40  1  0  0  0  0
 40 35  1  0  0  0  0
 40  6  2  0  0  0  0
 41 42  1  0  0  0  0
 42 43  2  0  0  0  0
 42 69  1  0  0  0  0
 43 70  1  0  0  0  0
 44 71  1  0  0  0  0
 44 43  1  0  0  0  0
 45 44  2  0  0  0  0
 46 45  1  0  0  0  0
 46 41  2  0  0  0  0
 47 18  1  0  0  0  0
 47 53  1  0  0  0  0
 48 47  2  0  0  0  0
 49 48  1  0  0  0  0
 49 50  2  0  0  0  0
 50 51  1  0  0  0  0
 51 53  2  0  0  0  0
 51 77  1  0  0  0  0
 53 78  1  0  0  0  0
 54 33  1  0  0  0  0
 55  8  1  0  0  0  0
 58 15  1  0  0  0  0
 59 20  1  0  0  0  0
 64 29  1  0  0  0  0
 66 37  1  0  0  0  0
 67 38  1  0  0  0  0
 68 39  1  0  0  0  0
 72 45  1  0  0  0  0
 73 46  1  0  0  0  0
 74 48  1  0  0  0  0
 75 49  1  0  0  0  0
 76 50  1  0  0  0  0
M  END
