1,3,5,7
q = 0.0, confidence = 0.938

 63 66  0  0  0  0  0  0  0  0999 V2000
    1.6832    1.0508    1.4547 N   0  0  0  0  0  0  0  0  0  0  0  0
    1.5466    1.9429    0.9431 H   0  0  0  0  0  0  0  0  0  0  0  0
    4.2378    0.3723    0.7645 N   0  0  0  0  0  0  0  0  0  0  0  0
    4.3864   -0.5028    1.3017 H   0  0  0  0  0  0  0  0  0  0  0  0
    3.2083   -1.1372   -1.5113 N   0  0  0  0  0  0  0  0  0  0  0  0
    3.3442   -2.0318   -1.0037 H   0  0  0  0  0  0  0  0  0  0  0  0
    0.6657   -0.4525   -0.8012 N   0  0  0  0  0  0  0  0  0  0  0  0
    0.5036    0.4222   -1.3345 H   0  0  0  0  0  0  0  0  0  0  0  0
    0.4023    0.6415    2.0675 C   0  0  0  0  0  0  0  0  0  0  0  0
    0.1206    1.3998    2.8319 H   0  0  0  0  0  0  0  0  0  0  0  0
    0.5780   -0.3194    2.5928 H   0  0  0  0  0  0  0  0  0  0  0  0
    2.7517    1.2426    2.4622 C   0  0  0  0  0  0  0  0  0  0  0  0
    2.8109    0.3121    3.0628 H   0  0  0  0  0  0  0  0  0  0  0  0
    2.5096    2.0819    3.1485 H   0  0  0  0  0  0  0  0  0  0  0  0
    4.0487    1.4873    1.7198 C   0  0  0  0  0  0  0  0  0  0  0  0
    3.9929    2.4242    1.1287 H   0  0  0  0  0  0  0  0  0  0  0  0
    4.9092    1.5697    2.4176 H   0  0  0  0  0  0  0  0  0  0  0  0
    5.3864    0.5937   -0.1392 C   0  0  0  0  0  0  0  0  0  0  0  0
    6.2980    0.7569    0.4767 H   0  0  0  0  0  0  0  0  0  0  0  0
    5.1836    1.5273   -0.7015 H   0  0  0  0  0  0  0  0  0  0  0  0
    5.6026   -0.5679   -1.0998 C   0  0  0  0  0  0  0  0  0  0  0  0
    5.7519   -1.5173   -0.5377 H   0  0  0  0  0  0  0  0  0  0  0  0
    6.5503   -0.3904   -1.6463 H   0  0  0  0  0  0  0  0  0  0  0  0
    4.4878   -0.7233   -2.1253 C   0  0  0  0  0  0  0  0  0  0  0  0
    4.3043    0.2384   -2.6453 H   0  0  0  0  0  0  0  0  0  0  0  0
    4.7742   -1.4767   -2.8916 H   0  0  0  0  0  0  0  0  0  0  0  0
    2.1348   -1.3218   -2.5148 C   0  0  0  0  0  0  0  0  0  0  0  0
    2.0751   -0.3886   -3.1113 H   0  0  0  0  0  0  0  0  0  0  0  0
    2.3706   -2.1595   -3.2052 H   0  0  0  0  0  0  0  0  0  0  0  0
    0.8425   -1.5639   -1.7643 C   0  0  0  0  0  0  0  0  0  0  0  0
   -0.0258   -1.6364   -2.4529 H   0  0  0  0  0  0  0  0  0  0  0  0
    0.8957   -2.5044   -1.1788 H   0  0  0  0  0  0  0  0  0  0  0  0
   -0.4768   -0.6832    0.1060 C   0  0  0  0  0  0  0  0  0  0  0  0
   -0.2650   -1.6088    0.6781 H   0  0  0  0  0  0  0  0  0  0  0  0
   -1.3852   -0.8634   -0.5079 H   0  0  0  0  0  0  0  0  0  0  0  0
   -0.7269    0.4881    1.0516 C   0  0  0  0  0  0  0  0  0  0  0  0
   -0.7913    1.4193    0.4412 H   0  0  0  0  0  0  0  0  0  0  0  0
   -2.0808    0.3289    1.7911 C   0  0  0  0  0  0  0  0  0  0  0  0
   -2.2190    1.2141    2.4446 H   0  0  0  0  0  0  0  0  0  0  0  0
   -2.0097   -0.5339    2.4813 H   0  0  0  0  0  0  0  0  0  0  0  0
   -3.2659    0.1822    0.8620 C   0  0  0  0  0  0  0  0  0  0  0  0
   -3.7875    1.3407    0.2168 C   0  0  0  0  0  0  0  0  0  0  0  0
   -3.2860    2.6651    0.4591 C   0  0  0  0  0  0  0  0  0  0  0  0
   -2.4815    2.8190    1.1922 H   0  0  0  0  0  0  0  0  0  0  0  0
   -3.8089    3.7684   -0.1901 C   0  0  0  0  0  0  0  0  0  0  0  0
   -3.4083    4.7701    0.0269 H   0  0  0  0  0  0  0  0  0  0  0  0
   -4.8721    3.6255   -1.1297 C   0  0  0  0  0  0  0  0  0  0  0  0
   -5.2773    4.5136   -1.6367 H   0  0  0  0  0  0  0  0  0  0  0  0
   -5.3944    2.3743   -1.3869 C   0  0  0  0  0  0  0  0  0  0  0  0
   -6.2235    2.2490   -2.1002 H   0  0  0  0  0  0  0  0  0  0  0  0
   -4.8805    1.2073   -0.7327 C   0  0  0  0  0  0  0  0  0  0  0  0
   -5.4149   -0.0662   -0.9939 C   0  0  0  0  0  0  0  0  0  0  0  0
   -6.2412   -0.1636   -1.7155 H   0  0  0  0  0  0  0  0  0  0  0  0
   -4.9218   -1.2187   -0.3590 C   0  0  0  0  0  0  0  0  0  0  0  0
   -5.4788   -2.5094   -0.6399 C   0  0  0  0  0  0  0  0  0  0  0  0
   -6.3122   -2.5711   -1.3565 H   0  0  0  0  0  0  0  0  0  0  0  0
   -4.9909   -3.6469   -0.0304 C   0  0  0  0  0  0  0  0  0  0  0  0
   -5.4299   -4.6307   -0.2525 H   0  0  0  0  0  0  0  0  0  0  0  0
   -3.9153   -3.5427    0.9005 C   0  0  0  0  0  0  0  0  0  0  0  0
   -3.5355   -4.4498    1.3946 H   0  0  0  0  0  0  0  0  0  0  0  0
   -3.3533   -2.3154    1.1985 C   0  0  0  0  0  0  0  0  0  0  0  0
   -2.5349   -2.2794    1.9306 H   0  0  0  0  0  0  0  0  0  0  0  0
   -3.8234   -1.1012    0.5897 C   0  0  0  0  0  0  0  0  0  0  0  0
  1  9  1  0  0  0  0
  1 12  1  0  0  0  0
  2  1  1  0  0  0  0
  3  4  1  0  0  0  0
  3 15  1  0  0  0  0
  5  6  1  0  0  0  0
  7 33  1  0  0  0  0
  8  7  1  0  0  0  0
  9 11  1  0  0  0  0
  9 10  1  0  0  0  0
 12 13  1  0  0  0  0
 12 14  1  0  0  0  0
 15 17  1  0  0  0  0
 15 12  1  0  0  0  0
 16 15  1  0  0  0  0
 18 19  1  0  0  0  0
 18  3  1  0  0  0  0
 20 18  1  0  0  0  0
 21 22  1  0  0  0  0
 21 18  1  0  0  0  0
 23 21  1  0  0  0  0
 24  5  1  0  0  0  0
 24 21  1  0  0  0  0
 25 24  1  0  0  0  0
 26 24  1  0  0  0  0
 27 30  1  0  0  0  0
 27  5  1  0  0  0  0
 28 27  1  0  0  0  0
 29 27  1  0  0  0  0
 30 32  1  0  0  0  0
 30  7  1  0  0  0  0
 31 30  1  0  0  0  0
 33 34  1  0  0  0  0
 33 36  1  0  0  0  0
 35 33  1  0  0  0  0
 36 38  1  0  0  0  0
 36  9  1  0  0  0  0
 37 36  1  0  0  0  0
 38 39  1  0  0  0  0
 38 40  1  0  0  0  0
 41 38  1  0  0  0  0
 42 43  1  0  0  0  0
 42 41  2  0  0  0  0
 43 44  1  0  0  0  0
 45 46  1  0  0  0  0
 45 43  2  0  0  0  0
 47 45  1  0  0  0  0
 48 47  1  0  0  0  0
 49 47  2  0  0  0  0
 49 51  1  0  0  0  0
 50 49  1  0  0  0  0
 51 42  1  0  0  0  0
 52 51  2  0  0  0  0
 52 54  1  0  0  0  0
 53 52  1  0  0  0  0
 54 63  1  0  0  0  0
 55 54  2  0  0  0  0
 55 57  1  0  0  0  0
 56 55  1  0  0  0  0
 57 59  2  0  0  0  0
 58 57  1  0  0  0  0
 59 61  1  0  0  0  0
 59 60  1  0  0  0  0
 61 62  1  0  0  0  0
 63 41  1  0  0  0  0
 63 61  2  0  0  0  0
M  END
