1,2,3,4
q = -2.0, confidence = 0.722

 60 66  0  0  0  0  0  0  0  0999 V2000
    1.2871    1.3925   -0.1869 N   0  0  0  0  0  0  0  0  0  0  0  0
   -1.4566    1.3892   -0.1941 N   0  0  0  0  0  2  0  0  0  0  0  0
   -1.4522   -1.3350   -0.2291 N   0  0  0  0  0  0  0  0  0  0  0  0
    1.2722   -1.3490   -0.2330 N   0  0  0  0  0  0  0  0  0  0  0  0
   -0.1920    4.6789   -1.2312 N   0  0  0  0  0  0  0  0  0  0  0  0
    0.7233    5.3343   -1.7284 N   0  0  0  0  0  4  0  0  0  0  0  0
    1.4548    6.0827   -2.2136 N   0  0  0  0  0  2  0  0  0  0  0  0
   -0.2185   -4.5647   -1.4692 N   0  0  0  0  0  0  0  0  0  0  0  0
    0.6861   -5.2027   -2.0063 N   0  0  0  0  0  4  0  0  0  0  0  0
    1.4047   -5.9336   -2.5359 N   0  0  0  0  0  2  0  0  0  0  0  0
    2.5952    1.2358    0.2502 C   0  0  0  0  0  0  0  0  0  0  0  0
    3.2669    2.5119    0.2711 C   0  0  0  0  0  0  0  0  0  0  0  0
    4.2910    2.6787    0.6185 H   0  0  0  0  0  0  0  0  0  0  0  0
    2.3880    3.4373   -0.2371 C   0  0  0  0  0  0  0  0  0  0  0  0
    2.5697    4.5087   -0.3633 H   0  0  0  0  0  0  0  0  0  0  0  0
    1.1535    2.7353   -0.4916 C   0  0  0  0  0  0  0  0  0  0  0  0
   -0.0781    3.3486   -0.8044 C   0  0  0  0  0  0  0  0  0  0  0  0
   -1.3063    2.7191   -0.5249 C   0  0  0  0  0  0  0  0  0  0  0  0
   -2.5498    3.4316   -0.3759 C   0  0  0  0  0  0  0  0  0  0  0  0
   -2.6781    4.5009   -0.5712 H   0  0  0  0  0  0  0  0  0  0  0  0
   -3.4579    2.5269    0.1162 C   0  0  0  0  0  0  0  0  0  0  0  0
   -4.5008    2.7011    0.3987 H   0  0  0  0  0  0  0  0  0  0  0  0
   -2.7887    1.2467    0.1728 C   0  0  0  0  0  0  0  0  0  0  0  0
   -3.4292    0.0200    0.4110 C   0  0  0  0  0  0  0  0  0  0  0  0
   -2.7848   -1.1965    0.1273 C   0  0  0  0  0  0  0  0  0  0  0  0
   -3.4798   -2.4522   -0.0469 C   0  0  0  0  0  0  0  0  0  0  0  0
   -4.5421   -2.6094    0.1661 H   0  0  0  0  0  0  0  0  0  0  0  0
   -2.5737   -3.3410   -0.5710 C   0  0  0  0  0  0  0  0  0  0  0  0
   -2.7188   -4.3881   -0.8552 H   0  0  0  0  0  0  0  0  0  0  0  0
   -1.3155   -2.6432   -0.6455 C   0  0  0  0  0  0  0  0  0  0  0  0
   -0.0925   -3.2628   -0.9667 C   0  0  0  0  0  0  0  0  0  0  0  0
    1.1435   -2.6673   -0.6380 C   0  0  0  0  0  0  0  0  0  0  0  0
    2.3967   -3.3657   -0.4866 C   0  0  0  0  0  0  0  0  0  0  0  0
    2.5942   -4.4158   -0.7210 H   0  0  0  0  0  0  0  0  0  0  0  0
    3.2830   -2.4672    0.0562 C   0  0  0  0  0  0  0  0  0  0  0  0
    4.3336   -2.6289    0.3177 H   0  0  0  0  0  0  0  0  0  0  0  0
    2.5865   -1.2106    0.1817 C   0  0  0  0  0  3  0  0  0  0  0  0
    3.2201    0.0032    0.5014 C   0  0  0  0  0  0  0  0  0  0  0  0
   -4.8573   -0.0163    0.8371 C   0  0  0  0  0  0  0  0  0  0  0  0
   -5.8889    0.4699    0.0048 C   0  0  0  0  0  0  0  0  0  0  0  0
   -5.6327    0.8809   -0.9832 H   0  0  0  0  0  0  0  0  0  0  0  0
   -7.2278    0.4086    0.4180 C   0  0  0  0  0  0  0  0  0  0  0  0
   -8.0208    0.7858   -0.2457 H   0  0  0  0  0  0  0  0  0  0  0  0
   -7.5575   -0.1411    1.6671 C   0  0  0  0  0  0  0  0  0  0  0  0
   -8.6084   -0.1885    1.9903 H   0  0  0  0  0  0  0  0  0  0  0  0
   -6.5404   -0.6354    2.4990 C   0  0  0  0  0  0  0  0  0  0  0  0
   -6.7907   -1.0690    3.4792 H   0  0  0  0  0  0  0  0  0  0  0  0
   -5.2013   -0.5764    2.0865 C   0  0  0  0  0  0  0  0  0  0  0  0
   -4.4019   -0.9610    2.7378 H   0  0  0  0  0  0  0  0  0  0  0  0
    4.6248   -0.0399    0.9983 C   0  0  0  0  0  0  0  0  0  0  0  0
    5.6960    0.4613    0.2269 C   0  0  0  0  0  0  0  0  0  0  0  0
    5.4888    0.8881   -0.7659 H   0  0  0  0  0  0  0  0  0  0  0  0
    7.0126    0.3951    0.7057 C   0  0  0  0  0  0  0  0  0  0  0  0
    7.8369    0.7841    0.0888 H   0  0  0  0  0  0  0  0  0  0  0  0
    7.2804   -0.1743    1.9607 C   0  0  0  0  0  0  0  0  0  0  0  0
    8.3139   -0.2256    2.3354 H   0  0  0  0  0  0  0  0  0  0  0  0
    6.2239   -0.6831    2.7326 C   0  0  0  0  0  0  0  0  0  0  0  0
    6.4255   -1.1315    3.7173 H   0  0  0  0  0  0  0  0  0  0  0  0
    4.9071   -0.6192    2.2546 C   0  0  0  0  0  0  0  0  0  0  0  0
    4.0768   -1.0145    2.8592 H   0  0  0  0  0  0  0  0  0  0  0  0
  1 11  1  0  0  0  0
  2 23  1  0  0  0  0
  3 25  2  0  0  0  0
  4 37  1  0  0  0  0
  5 17  1  0  0  0  0
  6  5  2  0  0  0  0
  7  6  2  0  0  0  0
  8 31  1  0  0  0  0
  9  8  2  0  0  0  0
 10  9  2  0  0  0  0
 11 12  1  0  0  0  0
 11 38  2  0  0  0  0
 12 13  1  0  0  0  0
 14 12  2  0  0  0  0
 15 14  1  0  0  0  0
 16 14  1  0  0  0  0
 16  1  2  0  0  0  0
 17 18  2  0  0  0  0
 17 16  1  0  0  0  0
 18 19  1  0  0  0  0
 18  2  1  0  0  0  0
 19 21  2  0  0  0  0
 20 19  1  0  0  0  0
 21 23  1  0  0  0  0
 21 22  1  0  0  0  0
 23 24  2  0  0  0  0
 24 39  1  0  0  0  0
 25 24  1  0  0  0  0
 26 25  1  0  0  0  0
 26 27  1  0  0  0  0
 28 26  2  0  0  0  0
 29 28  1  0  0  0  0
 30 28  1  0  0  0  0
 30  3  1  0  0  0  0
 31 30  2  0  0  0  0
 31 32  1  0  0  0  0
 32 33  1  0  0  0  0
 32  4  2  0  0  0  0
 33 35  2  0  0  0  0
 34 33  1  0  0  0  0
 35 37  1  0  0  0  0
 35 36  1  0  0  0  0
 37 38  1  0  0  0  0
 38 50  1  0  0  0  0
 39 48  1  0  0  0  0
 40 42  1  0  0  0  0
 40 39  2  0  0  0  0
 41 40  1  0  0  0  0
 42 44  2  0  0  0  0
 43 42  1  0  0  0  0
 44 45  1  0  0  0  0
 44 46  1  0  0  0  0
 46 47  1  0  0  0  0
 48 46  2  0  0  0  0
 48 49  1  0  0  0  0
 50 59  1  0  0  0  0
 51 53  1  0  0  0  0
 51 50  2  0  0  0  0
 52 51  1  0  0  0  0
 53 55  2  0  0  0  0
 54 53  1  0  0  0  0
 55 56  1  0  0  0  0
 55 57  1  0  0  0  0
 57 58  1  0  0  0  0
 59 57  2  0  0  0  0
 59 60  1  0  0  0  0
M  END
