1,2,3,4
q = -2.0, confidence = 0.822

 58 64  0  0  0  0  0  0  0  0999 V2000
   -1.3676    0.9765   -0.1367 N   0  0  0  0  0  0  0  0  0  0  0  0
   -1.2606   -1.7154   -0.6019 N   0  0  0  0  0  2  0  0  0  0  0  0
    1.4953   -1.5964   -0.5853 N   0  0  0  0  0  0  0  0  0  0  0  0
    1.3759    1.0852   -0.1237 N   0  0  0  0  0  0  0  0  0  0  0  0
   -0.0151    4.4444   -0.6393 N   0  0  0  0  0  0  0  0  0  0  0  0
   -0.9356    5.1430   -1.0600 N   0  0  0  0  0  4  0  0  0  0  0  0
   -1.6751    5.9393   -1.4477 N   0  0  0  0  0  2  0  0  0  0  0  0
   -1.2936    2.3551   -0.2664 C   0  0  0  0  0  0  0  0  0  0  0  0
   -2.5805    2.9575   -0.0200 C   0  0  0  0  0  0  0  0  0  0  0  0
   -2.8214    4.0241   -0.0445 H   0  0  0  0  0  0  0  0  0  0  0  0
   -3.4365    1.9326    0.3006 C   0  0  0  0  0  0  0  0  0  0  0  0
   -4.4998    1.9944    0.5531 H   0  0  0  0  0  0  0  0  0  0  0  0
   -2.6855    0.7063    0.1943 C   0  0  0  0  0  0  0  0  0  0  0  0
   -3.2810   -0.5680    0.2391 C   0  0  0  0  0  0  0  0  0  0  0  0
   -2.5943   -1.6991   -0.2214 C   0  0  0  0  0  0  0  0  0  0  0  0
   -3.2071   -2.9848   -0.4843 C   0  0  0  0  0  0  0  0  0  0  0  0
   -4.2424   -3.2444   -0.2422 H   0  0  0  0  0  0  0  0  0  0  0  0
   -2.2548   -3.7576   -1.0978 C   0  0  0  0  0  0  0  0  0  0  0  0
   -2.3382   -4.7901   -1.4571 H   0  0  0  0  0  0  0  0  0  0  0  0
   -1.0420   -2.9748   -1.1293 C   0  0  0  0  0  0  0  0  0  0  0  0
    0.2030   -3.4895   -1.4806 C   0  0  0  0  0  0  0  0  0  0  0  0
    0.2489   -4.5018   -1.9043 H   0  0  0  0  0  0  0  0  0  0  0  0
    1.3971   -2.8556   -1.1516 C   0  0  0  0  0  0  0  0  0  0  0  0
    2.6902   -3.4970   -1.1923 C   0  0  0  0  0  0  0  0  0  0  0  0
    2.8765   -4.4951   -1.6060 H   0  0  0  0  0  0  0  0  0  0  0  0
    3.5744   -2.6394   -0.5898 C   0  0  0  0  0  0  0  0  0  0  0  0
    4.6488   -2.7689   -0.4232 H   0  0  0  0  0  0  0  0  0  0  0  0
    2.8277   -1.4493   -0.2381 C   0  0  0  0  0  0  0  0  0  0  0  0
    3.4211   -0.2680    0.2330 C   0  0  0  0  0  0  0  0  0  0  0  0
    2.7161    0.9466    0.2143 C   0  0  0  0  0  3  0  0  0  0  0  0
    3.3250    2.2464    0.3823 C   0  0  0  0  0  0  0  0  0  0  0  0
    4.3607    2.4168    0.6921 H   0  0  0  0  0  0  0  0  0  0  0  0
    2.3731    3.1786    0.0519 C   0  0  0  0  0  0  0  0  0  0  0  0
    2.4501    4.2704    0.0420 H   0  0  0  0  0  0  0  0  0  0  0  0
    1.1653    2.4447   -0.2254 C   0  0  0  0  0  0  0  0  0  0  0  0
   -0.0842    3.0594   -0.4309 C   0  0  0  0  0  0  0  0  0  0  0  0
   -4.7034   -0.6740    0.6734 C   0  0  0  0  0  0  0  0  0  0  0  0
   -5.7249   -1.0337   -0.2323 C   0  0  0  0  0  0  0  0  0  0  0  0
   -5.4643   -1.2335   -1.2825 H   0  0  0  0  0  0  0  0  0  0  0  0
   -7.0595   -1.1140    0.1916 C   0  0  0  0  0  0  0  0  0  0  0  0
   -7.8447   -1.3897   -0.5288 H   0  0  0  0  0  0  0  0  0  0  0  0
   -7.3952   -0.8335    1.5257 C   0  0  0  0  0  0  0  0  0  0  0  0
   -8.4427   -0.8965    1.8573 H   0  0  0  0  0  0  0  0  0  0  0  0
   -6.3886   -0.4669    2.4330 C   0  0  0  0  0  0  0  0  0  0  0  0
   -6.6435   -0.2450    3.4805 H   0  0  0  0  0  0  0  0  0  0  0  0
   -5.0539   -0.3855    2.0103 C   0  0  0  0  0  0  0  0  0  0  0  0
   -4.2626   -0.1015    2.7204 H   0  0  0  0  0  0  0  0  0  0  0  0
    4.8569   -0.3007    0.6338 C   0  0  0  0  0  0  0  0  0  0  0  0
    5.8476    0.3669   -0.1187 C   0  0  0  0  0  0  0  0  0  0  0  0
    5.5523    0.9205   -1.0225 H   0  0  0  0  0  0  0  0  0  0  0  0
    7.1956    0.3084    0.2645 C   0  0  0  0  0  0  0  0  0  0  0  0
    7.9563    0.8293   -0.3369 H   0  0  0  0  0  0  0  0  0  0  0  0
    7.5756   -0.4193    1.4035 C   0  0  0  0  0  0  0  0  0  0  0  0
    8.6335   -0.4642    1.7034 H   0  0  0  0  0  0  0  0  0  0  0  0
    6.5998   -1.0934    2.1546 C   0  0  0  0  0  0  0  0  0  0  0  0
    6.8895   -1.6666    3.0485 H   0  0  0  0  0  0  0  0  0  0  0  0
    5.2517   -1.0369    1.7718 C   0  0  0  0  0  0  0  0  0  0  0  0
    4.4845   -1.5621    2.3604 H   0  0  0  0  0  0  0  0  0  0  0  0
  1 13  2  0  0  0  0
  2 15  1  0  0  0  0
  3 28  1  0  0  0  0
  4 30  1  0  0  0  0
  5 36  1  0  0  0  0
  6  5  2  0  0  0  0
  7  6  2  0  0  0  0
  8  1  1  0  0  0  0
  8  9  1  0  0  0  0
  9 11  2  0  0  0  0
 10  9  1  0  0  0  0
 11 12  1  0  0  0  0
 13 14  1  0  0  0  0
 13 11  1  0  0  0  0
 14 37  1  0  0  0  0
 15 14  2  0  0  0  0
 16 17  1  0  0  0  0
 16 15  1  0  0  0  0
 18 16  2  0  0  0  0
 19 18  1  0  0  0  0
 20 18  1  0  0  0  0
 20  2  1  0  0  0  0
 21 23  1  0  0  0  0
 21 20  2  0  0  0  0
 22 21  1  0  0  0  0
 23  3  2  0  0  0  0
 24 23  1  0  0  0  0
 24 26  2  0  0  0  0
 25 24  1  0  0  0  0
 26 27  1  0  0  0  0
 26 28  1  0  0  0  0
 28 29  2  0  0  0  0
 29 48  1  0  0  0  0
 30 29  1  0  0  0  0
 30 31  1  0  0  0  0
 31 32  1  0  0  0  0
 33 31  2  0  0  0  0
 34 33  1  0  0  0  0
 35  4  2  0  0  0  0
 35 33  1  0  0  0  0
 36  8  2  0  0  0  0
 36 35  1  0  0  0  0
 37 46  1  0  0  0  0
 38 40  1  0  0  0  0
 38 37  2  0  0  0  0
 39 38  1  0  0  0  0
 40 42  2  0  0  0  0
 41 40  1  0  0  0  0
 42 43  1  0  0  0  0
 42 44  1  0  0  0  0
 44 45  1  0  0  0  0
 46 44  2  0  0  0  0
 46 47  1  0  0  0  0
 48 57  1  0  0  0  0
 49 51  1  0  0  0  0
 49 48  2  0  0  0  0
 50 49  1  0  0  0  0
 51 53  2  0  0  0  0
 52 51  1  0  0  0  0
 53 54  1  0  0  0  0
 53 55  1  0  0  0  0
 55 56  1  0  0  0  0
 57 55  2  0  0  0  0
 57 58  1  0  0  0  0
M  END
