3,4,5,6
q = 0.0, confidence = 0.996

 52 55  0  0  1  0  0  0  0  0999 V2000
    3.8633   -2.4019    0.7959 C   0  0  0  0  0  0  0  0  0  0  0  0
    3.2128   -2.4850    1.6802 H   0  0  0  0  0  0  0  0  0  0  0  0
   -1.2767   -0.7316   -0.0717 N   0  0  0  0  0  2  0  0  0  0  0  0
    1.2671   -0.7427   -0.0066 N   0  0  0  0  0  2  0  0  0  0  0  0
   -1.5709    1.7658   -0.2451 N   0  0  0  0  0  2  0  0  0  0  0  0
    1.5686    1.7376    0.3543 N   0  0  0  0  0  2  0  0  0  0  0  0
    5.7668   -3.1708   -0.5076 C   0  0  0  0  0  0  0  0  0  0  0  0
    6.5976   -3.8774   -0.6516 H   0  0  0  0  0  0  0  0  0  0  0  0
    0.7046   -2.0311   -0.4023 C   0  0  0  0  0  0  0  0  0  0  0  0
    1.3143   -2.8860   -0.0534 H   0  0  0  0  0  0  0  0  0  0  0  0
    0.6927   -2.0282   -1.5149 H   0  0  0  0  0  0  0  0  0  0  0  0
   -2.8231    3.7687   -0.6807 C   0  0  0  0  0  0  0  0  0  0  0  0
   -2.8058    4.8495   -0.8785 H   0  0  0  0  0  0  0  0  0  0  0  0
    2.5272   -0.4150    0.0392 C   0  0  2  0  0  3  0  0  0  0  0  0
   -3.6479   -1.3671    0.0303 C   0  0  0  0  0  0  0  0  0  0  0  0
    5.5533   -2.1413   -1.4386 C   0  0  0  0  0  0  0  0  0  0  0  0
    6.2102   -2.0443   -2.3155 H   0  0  0  0  0  0  0  0  0  0  0  0
    1.6179    3.0229    0.7320 C   0  0  0  0  0  3  0  0  0  0  0  0
    0.6559    3.5344    0.8690 H   0  0  0  0  0  0  0  0  0  0  0  0
    2.7312    1.0193    0.2863 C   0  0  0  0  0  0  0  0  0  0  0  0
   -4.0284    3.0576   -0.6103 C   0  0  0  0  0  0  0  0  0  0  0  0
   -4.9925    3.5716   -0.7343 H   0  0  0  0  0  0  0  0  0  0  0  0
    3.6472   -1.3658   -0.1384 C   0  0  0  0  0  0  0  0  0  0  0  0
   -1.6147    3.0819   -0.4964 C   0  0  0  0  0  3  0  0  0  0  0  0
   -0.6504    3.6005   -0.5800 H   0  0  0  0  0  0  0  0  0  0  0  0
    2.8294    3.6837    0.9811 C   0  0  0  0  0  0  0  0  0  0  0  0
    2.8165    4.7411    1.2803 H   0  0  0  0  0  0  0  0  0  0  0  0
   -2.5363   -0.4007   -0.1096 C   0  0  1  0  0  3  0  0  0  0  0  0
    4.5000   -1.2343   -1.2563 C   0  0  0  0  0  0  0  0  0  0  0  0
    4.3183   -0.4339   -1.9898 H   0  0  0  0  0  0  0  0  0  0  0  0
    4.0312    2.9741    0.8574 C   0  0  0  0  0  0  0  0  0  0  0  0
    4.9965    3.4660    1.0455 H   0  0  0  0  0  0  0  0  0  0  0  0
   -3.9834    1.6733   -0.3994 C   0  0  0  0  0  0  0  0  0  0  0  0
   -4.8978    1.0656   -0.3587 H   0  0  0  0  0  0  0  0  0  0  0  0
   -2.7363    1.0488   -0.2462 C   0  0  0  0  0  0  0  0  0  0  0  0
    3.9796    1.6147    0.5221 C   0  0  0  0  0  0  0  0  0  0  0  0
    4.8884    1.0004    0.4571 H   0  0  0  0  0  0  0  0  0  0  0  0
   -0.7224   -2.0646    0.1427 C   0  0  0  0  0  0  0  0  0  0  0  0
   -1.3474   -2.8494   -0.3284 H   0  0  0  0  0  0  0  0  0  0  0  0
   -0.7030   -2.2349    1.2407 H   0  0  0  0  0  0  0  0  0  0  0  0
   -3.7969   -2.0633    1.2501 C   0  0  0  0  0  0  0  0  0  0  0  0
   -3.1015   -1.8590    2.0788 H   0  0  0  0  0  0  0  0  0  0  0  0
   -4.8506   -2.9733    1.4079 C   0  0  0  0  0  0  0  0  0  0  0  0
   -4.9735   -3.5058    2.3626 H   0  0  0  0  0  0  0  0  0  0  0  0
   -5.7499   -3.1996    0.3529 C   0  0  0  0  0  0  0  0  0  0  0  0
   -6.5736   -3.9180    0.4787 H   0  0  0  0  0  0  0  0  0  0  0  0
    4.9245   -3.2982    0.6092 C   0  0  0  0  0  0  0  0  0  0  0  0
    5.0991   -4.0978    1.3441 H   0  0  0  0  0  0  0  0  0  0  0  0
   -4.5585   -1.5882   -1.0258 C   0  0  0  0  0  0  0  0  0  0  0  0
   -4.4333   -1.0551   -1.9806 H   0  0  0  0  0  0  0  0  0  0  0  0
   -5.6024   -2.5096   -0.8615 C   0  0  0  0  0  0  0  0  0  0  0  0
   -6.3042   -2.6918   -1.6887 H   0  0  0  0  0  0  0  0  0  0  0  0
  1  2  1  0  0  0  0
  3 38  1  0  0  0  0
  6 18  1  0  0  0  0
  7 47  2  0  0  0  0
  8  7  1  0  0  0  0
  9 10  1  0  0  0  0
  9  4  1  0  0  0  0
  9 38  1  0  0  0  0
 11  9  1  0  0  0  0
 12 21  2  0  0  0  0
 12 24  1  0  0  0  0
 13 12  1  0  0  0  0
 14  4  1  6  0  0  0
 14 20  1  0  0  0  0
 15 41  1  0  0  0  0
 16 29  2  0  0  0  0
 16  7  1  0  0  0  0
 17 16  1  0  0  0  0
 18 19  1  0  0  0  0
 18 26  1  0  0  0  0
 20  6  1  0  0  0  0
 20 36  2  0  0  0  0
 21 33  1  0  0  0  0
 22 21  1  0  0  0  0
 23 14  1  0  0  0  0
 23  1  2  0  0  0  0
 24  5  1  0  0  0  0
 25 24  1  0  0  0  0
 26 27  1  0  0  0  0
 28  3  1  1  0  0  0
 28 15  1  0  0  0  0
 29 23  1  0  0  0  0
 30 29  1  0  0  0  0
 31 26  2  0  0  0  0
 31 32  1  0  0  0  0
 33 34  1  0  0  0  0
 33 35  2  0  0  0  0
 35  5  1  0  0  0  0
 35 28  1  0  0  0  0
 36 31  1  0  0  0  0
 37 36  1  0  0  0  0
 38 40  1  0  0  0  0
 39 38  1  0  0  0  0
 41 43  2  0  0  0  0
 41 42  1  0  0  0  0
 43 44  1  0  0  0  0
 45 46  1  0  0  0  0
 45 43  1  0  0  0  0
 47  1  1  0  0  0  0
 47 48  1  0  0  0  0
 49 51  1  0  0  0  0
 49 15  2  0  0  0  0
 50 49  1  0  0  0  0
 51 45  2  0  0  0  0
 52 51  1  0  0  0  0
M  END
