2,3,38,39
q = -2.0, confidence = 0.644

 72 78  0  0  0  0  0  0  0  0999 V2000
   -0.0003   -3.5096   -1.7467 S   0  0  0  0  0  3  0  0  0  0  0  0
   -1.4627   -1.4228   -0.6586 N   0  0  0  0  0  2  0  0  0  0  0  0
   -1.4624    1.4230   -0.6584 N   0  0  0  0  0  0  0  0  0  0  0  0
   -1.3637   -2.7382   -0.9662 C   0  0  0  0  0  0  0  0  0  0  0  0
   -2.5571   -3.4467   -0.6305 C   0  0  0  0  0  0  0  0  0  0  0  0
   -2.7190   -4.5195   -0.7810 H   0  0  0  0  0  0  0  0  0  0  0  0
   -3.4175   -2.5076   -0.0769 C   0  0  0  0  0  0  0  0  0  0  0  0
   -4.4343   -2.6595    0.3018 H   0  0  0  0  0  0  0  0  0  0  0  0
   -2.7425   -1.2446   -0.1093 C   0  0  0  0  0  0  0  0  0  0  0  0
   -3.3247    0.0003    0.1893 C   0  0  0  0  0  0  0  0  0  0  0  0
   -2.7421    1.2451   -0.1089 C   0  0  0  0  0  0  0  0  0  0  0  0
   -3.4167    2.5083   -0.0759 C   0  0  0  0  0  0  0  0  0  0  0  0
   -4.4333    2.6605    0.3031 H   0  0  0  0  0  0  0  0  0  0  0  0
   -2.5560    3.4473   -0.6293 C   0  0  0  0  0  0  0  0  0  0  0  0
   -2.7177    4.5203   -0.7794 H   0  0  0  0  0  0  0  0  0  0  0  0
    1.3631   -2.7386   -0.9656 C   0  0  0  0  0  0  0  0  0  0  0  0
   -4.7092    0.0005    0.7601 C   0  0  0  0  0  0  0  0  0  0  0  0
   -4.8710    0.0044    2.1687 C   0  0  0  0  0  0  0  0  0  0  0  0
   -6.1730    0.0080    2.6977 C   0  0  0  0  0  0  0  0  0  0  0  0
   -6.2989    0.0136    3.7929 H   0  0  0  0  0  0  0  0  0  0  0  0
   -7.3128    0.0063    1.8717 C   0  0  0  0  0  0  0  0  0  0  0  0
   -7.1204    0.0048    0.4791 C   0  0  0  0  0  0  0  0  0  0  0  0
   -7.9991    0.0080   -0.1864 H   0  0  0  0  0  0  0  0  0  0  0  0
   -5.8363    0.0013   -0.0978 C   0  0  0  0  0  0  0  0  0  0  0  0
   -3.6656    0.0078    3.0751 C   0  0  0  0  0  0  0  0  0  0  0  0
   -3.0261    0.8955    2.8904 H   0  0  0  0  0  0  0  0  0  0  0  0
   -3.0238   -0.8788    2.8935 H   0  0  0  0  0  0  0  0  0  0  0  0
   -3.9618    0.0093    4.1414 H   0  0  0  0  0  0  0  0  0  0  0  0
   -8.6972   -0.0143    2.4704 C   0  0  0  0  0  0  0  0  0  0  0  0
   -9.4723    0.2293    1.7181 H   0  0  0  0  0  0  0  0  0  0  0  0
   -8.7893    0.7080    3.3068 H   0  0  0  0  0  0  0  0  0  0  0  0
   -8.9386   -1.0167    2.8844 H   0  0  0  0  0  0  0  0  0  0  0  0
   -5.6653    0.0016   -1.5964 C   0  0  0  0  0  0  0  0  0  0  0  0
   -5.0936   -0.8862   -1.9367 H   0  0  0  0  0  0  0  0  0  0  0  0
   -5.0932    0.8892   -1.9366 H   0  0  0  0  0  0  0  0  0  0  0  0
   -6.6440    0.0018   -2.1128 H   0  0  0  0  0  0  0  0  0  0  0  0
    0.0003    3.5096   -1.7467 S   0  0  0  0  0  3  0  0  0  0  0  0
    1.4627    1.4228   -0.6586 N   0  0  0  0  0  0  0  0  0  0  0  0
    1.4624   -1.4230   -0.6584 N   0  0  0  0  0  0  0  0  0  0  0  0
    1.3637    2.7382   -0.9662 C   0  0  0  0  0  0  0  0  0  0  0  0
    2.5571    3.4467   -0.6305 C   0  0  0  0  0  0  0  0  0  0  0  0
    2.7190    4.5195   -0.7810 H   0  0  0  0  0  0  0  0  0  0  0  0
    3.4175    2.5076   -0.0769 C   0  0  0  0  0  0  0  0  0  0  0  0
    4.4343    2.6595    0.3018 H   0  0  0  0  0  0  0  0  0  0  0  0
    2.7425    1.2446   -0.1093 C   0  0  0  0  0  3  0  0  0  0  0  0
    3.3247   -0.0003    0.1893 C   0  0  0  0  0  0  0  0  0  0  0  0
    2.7421   -1.2451   -0.1089 C   0  0  0  0  0  0  0  0  0  0  0  0
    3.4167   -2.5083   -0.0759 C   0  0  0  0  0  0  0  0  0  0  0  0
    4.4333   -2.6605    0.3031 H   0  0  0  0  0  0  0  0  0  0  0  0
    2.5560   -3.4473   -0.6293 C   0  0  0  0  0  0  0  0  0  0  0  0
    2.7177   -4.5203   -0.7794 H   0  0  0  0  0  0  0  0  0  0  0  0
   -1.3631    2.7386   -0.9656 C   0  0  0  0  0  0  0  0  0  0  0  0
    4.7092   -0.0005    0.7601 C   0  0  0  0  0  0  0  0  0  0  0  0
    4.8710   -0.0044    2.1687 C   0  0  0  0  0  0  0  0  0  0  0  0
    6.1730   -0.0080    2.6977 C   0  0  0  0  0  0  0  0  0  0  0  0
    6.2989   -0.0136    3.7929 H   0  0  0  0  0  0  0  0  0  0  0  0
    7.3128   -0.0063    1.8717 C   0  0  0  0  0  0  0  0  0  0  0  0
    7.1204   -0.0048    0.4791 C   0  0  0  0  0  0  0  0  0  0  0  0
    7.9991   -0.0080   -0.1864 H   0  0  0  0  0  0  0  0  0  0  0  0
    5.8363   -0.0013   -0.0978 C   0  0  0  0  0  0  0  0  0  0  0  0
    3.6656   -0.0078    3.0751 C   0  0  0  0  0  0  0  0  0  0  0  0
    3.0261   -0.8955    2.8904 H   0  0  0  0  0  0  0  0  0  0  0  0
    3.0238    0.8788    2.8935 H   0  0  0  0  0  0  0  0  0  0  0  0
    3.9618   -0.0093    4.1414 H   0  0  0  0  0  0  0  0  0  0  0  0
    8.6972    0.0143    2.4704 C   0  0  0  0  0  0  0  0  0  0  0  0
    9.4723   -0.2293    1.7181 H   0  0  0  0  0  0  0  0  0  0  0  0
    8.7893   -0.7080    3.3067 H   0  0  0  0  0  0  0  0  0  0  0  0
    8.9386    1.0167    2.8845 H   0  0  0  0  0  0  0  0  0  0  0  0
    5.6653   -0.0016   -1.5964 C   0  0  0  0  0  0  0  0  0  0  0  0
    5.0936    0.8862   -1.9367 H   0  0  0  0  0  0  0  0  0  0  0  0
    5.0932   -0.8892   -1.9366 H   0  0  0  0  0  0  0  0  0  0  0  0
    6.6440   -0.0018   -2.1128 H   0  0  0  0  0  0  0  0  0  0  0  0
  1  4  2  3  0  0  0
  1 16  1  0  0  0  0
  2  9  1  0  0  0  0
  3 11  2  0  0  0  0
  4  2  1  0  0  0  0
  4  5  1  0  0  0  0
  5  7  2  0  0  0  0
  6  5  1  0  0  0  0
  7  8  1  0  0  0  0
  9  7  1  0  0  0  0
  9 10  2  0  0  0  0
 10 17  1  0  0  0  0
 11 12  1  0  0  0  0
 11 10  1  0  0  0  0
 12 13  1  0  0  0  0
 14 12  2  0  0  0  0
 15 14  1  0  0  0  0
 16 39  2  0  0  0  0
 16 50  1  0  0  0  0
 17 18  1  0  0  0  0
 18 19  2  0  0  0  0
 18 25  1  0  0  0  0
 19 20  1  0  0  0  0
 21 29  1  0  0  0  0
 21 19  1  0  0  0  0
 22 21  2  0  0  0  0
 23 22  1  0  0  0  0
 24 22  1  0  0  0  0
 24 17  2  0  0  0  0
 25 28  1  0  0  0  0
 26 25  1  0  0  0  0
 27 25  1  0  0  0  0
 29 32  1  0  0  0  0
 29 31  1  0  0  0  0
 30 29  1  0  0  0  0
 33 24  1  0  0  0  0
 34 33  1  0  0  0  0
 35 33  1  0  0  0  0
 36 33  1  0  0  0  0
 37 40  1  0  0  0  0
 37 52  2  3  0  0  0
 38 45  1  0  0  0  0
 39 47  1  0  0  0  0
 40 38  2  0  0  0  0
 40 41  1  0  0  0  0
 41 43  2  0  0  0  0
 42 41  1  0  0  0  0
 43 44  1  0  0  0  0
 45 43  1  0  0  0  0
 45 46  1  0  0  0  0
 46 53  1  0  0  0  0
 47 48  1  0  0  0  0
 47 46  2  0  0  0  0
 48 49  1  0  0  0  0
 50 48  2  0  0  0  0
 51 50  1  0  0  0  0
 52  3  1  0  0  0  0
 52 14  1  0  0  0  0
 53 54  1  0  0  0  0
 54 55  2  0  0  0  0
 54 61  1  0  0  0  0
 55 56  1  0  0  0  0
 57 65  1  0  0  0  0
 57 55  1  0  0  0  0
 58 57  2  0  0  0  0
 59 58  1  0  0  0  0
 60 58  1  0  0  0  0
 60 53  2  0  0  0  0
 61 64  1  0  0  0  0
 62 61  1  0  0  0  0
 63 61  1  0  0  0  0
 65 68  1  0  0  0  0
 65 67  1  0  0  0  0
 66 65  1  0  0  0  0
 69 60  1  0  0  0  0
 70 69  1  0  0  0  0
 71 69  1  0  0  0  0
 72 69  1  0  0  0  0
M  END
