3,4,5,6
q = -2.0, confidence = 0.84

 51 50  0  0  1  0  0  0  0  0999 V2000
    1.1760   -3.0613   -0.4912 O   0  0  0  0  0  1  0  0  0  0  0  0
   -1.2672   -3.0437   -0.4160 O   0  0  0  0  0  0  0  0  0  0  0  0
    1.4518   -1.8126   -0.2752 N   0  0  0  0  0  2  0  0  0  0  0  0
    1.5345    0.8300   -0.2703 N   0  0  0  0  0  0  0  0  0  0  0  0
   -1.5323    0.8621   -0.3216 N   0  0  0  0  0  0  0  0  0  0  0  0
   -1.4970   -1.7357   -0.3319 N   0  0  0  0  0  2  0  0  0  0  0  0
    2.6771   -1.3423   -0.2741 C   0  0  2  0  0  3  0  0  0  0  0  0
    3.8586   -2.2310   -0.4964 C   0  0  0  0  0  0  0  0  0  0  0  0
    2.8315    0.1312    0.1093 C   0  0  0  0  0  0  0  0  0  0  0  0
    4.0001    0.7832   -0.6482 C   0  0  0  0  0  0  0  0  0  0  0  0
    3.0490    0.2139    1.6310 C   0  0  0  0  0  0  0  0  0  0  0  0
    1.3027    2.1699    0.3070 C   0  0  0  0  0  0  0  0  0  0  0  0
    0.0284    2.8731   -0.2145 C   0  0  0  0  0  0  0  0  0  0  0  0
    0.0303    4.2903    0.3949 C   0  0  0  0  0  0  0  0  0  0  0  0
    0.0375    2.9863   -1.7503 C   0  0  0  0  0  0  0  0  0  0  0  0
   -1.2619    2.1818    0.2972 C   0  0  0  0  0  0  0  0  0  0  0  0
   -2.9106    0.2084   -0.0336 C   0  0  1  0  0  0  0  0  0  0  0  0
   -3.3145    0.4246    1.4341 C   0  0  0  0  0  0  0  0  0  0  0  0
   -3.8228    0.8452   -0.9954 C   0  0  0  0  0  3  0  0  0  0  0  0
   -2.7152   -1.2986   -0.2540 C   0  0  2  0  0  3  0  0  0  0  0  0
   -3.8924   -2.2086   -0.3029 C   0  0  0  0  0  0  0  0  0  0  0  0
   -0.1699   -3.1415   -0.4909 H   0  0  0  0  0  0  0  0  0  0  0  0
    1.5716    0.9326   -1.2970 H   0  0  0  0  0  0  0  0  0  0  0  0
   -1.5290    0.9845   -1.3489 H   0  0  0  0  0  0  0  0  0  0  0  0
    3.5240   -3.2841   -0.5046 H   0  0  0  0  0  0  0  0  0  0  0  0
    4.3521   -2.0161   -1.4677 H   0  0  0  0  0  0  0  0  0  0  0  0
    4.6271   -2.0991    0.2932 H   0  0  0  0  0  0  0  0  0  0  0  0
    4.9590    0.3012   -0.3805 H   0  0  0  0  0  0  0  0  0  0  0  0
    4.0941    1.8561   -0.3894 H   0  0  0  0  0  0  0  0  0  0  0  0
    3.8727    0.6903   -1.7463 H   0  0  0  0  0  0  0  0  0  0  0  0
    2.1507   -0.1627    2.1563 H   0  0  0  0  0  0  0  0  0  0  0  0
    3.2827    1.2418    1.9712 H   0  0  0  0  0  0  0  0  0  0  0  0
    3.9039   -0.4289    1.9135 H   0  0  0  0  0  0  0  0  0  0  0  0
    2.1755    2.8295    0.1024 H   0  0  0  0  0  0  0  0  0  0  0  0
    1.2259    2.0645    1.4062 H   0  0  0  0  0  0  0  0  0  0  0  0
    0.0117    4.2549    1.5034 H   0  0  0  0  0  0  0  0  0  0  0  0
   -0.8548    4.8652    0.0587 H   0  0  0  0  0  0  0  0  0  0  0  0
    0.9332    4.8539    0.0879 H   0  0  0  0  0  0  0  0  0  0  0  0
    0.0509    2.0042   -2.2708 H   0  0  0  0  0  0  0  0  0  0  0  0
    0.9268    3.5508   -2.0960 H   0  0  0  0  0  0  0  0  0  0  0  0
   -0.8590    3.5294   -2.1105 H   0  0  0  0  0  0  0  0  0  0  0  0
   -2.1129    2.8678    0.1139 H   0  0  0  0  0  0  0  0  0  0  0  0
   -1.1835    2.0315    1.3912 H   0  0  0  0  0  0  0  0  0  0  0  0
   -2.5098    0.0791    2.1109 H   0  0  0  0  0  0  0  0  0  0  0  0
   -3.5533    1.4864    1.6373 H   0  0  0  0  0  0  0  0  0  0  0  0
   -4.2274   -0.1630    1.6461 H   0  0  0  0  0  0  0  0  0  0  0  0
   -3.8310    0.5221   -2.0478 H   0  0  0  0  0  0  0  0  0  0  0  0
   -4.4552    1.6936   -0.6986 H   0  0  0  0  0  0  0  0  0  0  0  0
   -3.8112   -2.8921   -1.1726 H   0  0  0  0  0  0  0  0  0  0  0  0
   -4.8286   -1.6224   -0.3793 H   0  0  0  0  0  0  0  0  0  0  0  0
   -3.9304   -2.8607    0.5956 H   0  0  0  0  0  0  0  0  0  0  0  0
  1  3  1  0  0  0  0
  2  6  1  0  0  0  0
  4  9  1  0  0  0  0
  4 12  1  0  0  0  0
  5 17  1  0  0  0  0
  5 16  1  0  0  0  0
  7  3  1  1  0  0  0
  7  9  1  0  0  0  0
  8  7  1  0  0  0  0
  8 27  1  0  0  0  0
  9 11  1  0  0  0  0
 10 29  1  0  0  0  0
 10 28  1  0  0  0  0
 10  9  1  0  0  0  0
 11 33  1  0  0  0  0
 11 32  1  0  0  0  0
 11 31  1  0  0  0  0
 12 35  1  0  0  0  0
 13 16  1  0  0  0  0
 13 12  1  0  0  0  0
 13 14  1  0  0  0  0
 14 36  1  0  0  0  0
 15 13  1  0  0  0  0
 16 43  1  0  0  0  0
 17 19  1  6  0  0  0
 17 18  1  0  0  0  0
 18 45  1  0  0  0  0
 18 46  1  0  0  0  0
 18 44  1  0  0  0  0
 19 48  1  0  0  0  0
 20  6  1  1  0  0  0
 20 17  1  0  0  0  0
 21 20  1  0  0  0  0
 21 51  1  0  0  0  0
 22  2  1  0  0  0  0
 23  4  1  0  0  0  0
 24  5  1  0  0  0  0
 25  8  1  0  0  0  0
 26  8  1  0  0  0  0
 30 10  1  0  0  0  0
 34 12  1  0  0  0  0
 37 14  1  0  0  0  0
 38 14  1  0  0  0  0
 39 15  1  0  0  0  0
 40 15  1  0  0  0  0
 41 15  1  0  0  0  0
 42 16  1  0  0  0  0
 47 19  1  0  0  0  0
 49 21  1  0  0  0  0
 50 21  1  0  0  0  0
M  END
