1,5,6,13
q = 0.0, confidence = 0.992

 68 71  0  0  1  0  0  0  0  0999 V2000
    0.9755   -1.6242   -0.5736 N   0  0  0  0  0  2  0  0  0  0  0  0
    0.0100    0.7649    2.7025 C   0  0  0  0  0  0  0  0  0  0  0  0
   -1.0239    1.1480    2.5816 H   0  0  0  0  0  0  0  0  0  0  0  0
    0.3725    1.1466    3.6866 H   0  0  0  0  0  0  0  0  0  0  0  0
   -0.9752    1.6243   -0.5734 N   0  0  0  0  0  2  0  0  0  0  0  0
   -0.8321   -1.2878    1.5922 N   0  0  0  0  0  0  0  0  0  0  0  0
    0.8087   -2.6676    0.2794 C   0  0  2  0  0  3  0  0  0  0  0  0
    1.6538   -3.7840    0.2499 C   0  0  0  0  0  0  0  0  0  0  0  0
    1.5087   -4.6019    0.9706 H   0  0  0  0  0  0  0  0  0  0  0  0
   -0.0101   -0.7655    2.7022 C   0  0  0  0  0  0  0  0  0  0  0  0
    1.0237   -1.1486    2.5810 H   0  0  0  0  0  0  0  0  0  0  0  0
   -0.3725   -1.1476    3.6862 H   0  0  0  0  0  0  0  0  0  0  0  0
    0.8317    1.2877    1.5926 N   0  0  0  0  0  0  0  0  0  0  0  0
   -0.8091    2.6675    0.2798 C   0  0  1  0  0  3  0  0  0  0  0  0
    1.9414   -1.6717   -1.5314 C   0  0  0  0  0  0  0  0  0  0  0  0
   -0.4196   -2.6306    1.1643 C   0  0  0  0  0  0  0  0  0  0  0  0
   -1.2460   -3.0423    0.5483 H   0  0  0  0  0  0  0  0  0  0  0  0
   -0.2954   -3.3265    2.0281 H   0  0  0  0  0  0  0  0  0  0  0  0
    0.4189    2.6306    1.1653 C   0  0  0  0  0  0  0  0  0  0  0  0
    1.2454    3.0432    0.5499 H   0  0  0  0  0  0  0  0  0  0  0  0
    0.2939    3.3259    2.0295 H   0  0  0  0  0  0  0  0  0  0  0  0
   -3.2607   -1.1970    0.8392 C   0  0  0  0  0  0  0  0  0  0  0  0
    3.2604    1.1970    0.8393 C   0  0  0  0  0  0  0  0  0  0  0  0
    2.7889   -2.7882   -1.6348 C   0  0  0  0  0  0  0  0  0  0  0  0
    3.5536   -2.8131   -2.4239 H   0  0  0  0  0  0  0  0  0  0  0  0
    2.0357   -0.4969   -2.4576 C   0  0  0  0  0  0  0  0  0  0  0  0
    2.1709    0.4404   -1.8806 H   0  0  0  0  0  0  0  0  0  0  0  0
    1.0940   -0.3952   -3.0366 H   0  0  0  0  0  0  0  0  0  0  0  0
    2.8777   -0.5994   -3.1656 H   0  0  0  0  0  0  0  0  0  0  0  0
    3.6800    2.3465    0.1365 C   0  0  0  0  0  0  0  0  0  0  0  0
    3.2990    3.3389    0.4251 H   0  0  0  0  0  0  0  0  0  0  0  0
   -1.9408    1.6718   -1.5317 C   0  0  0  0  0  0  0  0  0  0  0  0
   -2.0347    0.4971   -2.4579 C   0  0  0  0  0  0  0  0  0  0  0  0
   -2.1710   -0.4401   -1.8808 H   0  0  0  0  0  0  0  0  0  0  0  0
   -1.0924    0.3946   -3.0358 H   0  0  0  0  0  0  0  0  0  0  0  0
   -2.8760    0.5998   -3.1667 H   0  0  0  0  0  0  0  0  0  0  0  0
   -2.7884    2.7881   -1.6352 C   0  0  0  0  0  0  0  0  0  0  0  0
   -3.5528    2.8131   -2.4246 H   0  0  0  0  0  0  0  0  0  0  0  0
    2.6606   -3.8447   -0.7248 C   0  0  0  0  0  0  0  0  0  0  0  0
    3.3329   -4.7137   -0.7789 H   0  0  0  0  0  0  0  0  0  0  0  0
   -3.8382    0.0434    0.5003 C   0  0  0  0  0  0  0  0  0  0  0  0
   -3.5419    0.9490    1.0534 H   0  0  0  0  0  0  0  0  0  0  0  0
    2.2714    1.2722    1.9795 C   0  0  0  0  0  0  0  0  0  0  0  0
    2.4264    0.3852    2.6221 H   0  0  0  0  0  0  0  0  0  0  0  0
    2.4877    2.1611    2.6199 H   0  0  0  0  0  0  0  0  0  0  0  0
   -2.2717   -1.2723    1.9793 C   0  0  0  0  0  0  0  0  0  0  0  0
   -2.4267   -0.3853    2.6220 H   0  0  0  0  0  0  0  0  0  0  0  0
   -2.4879   -2.1612    2.6197 H   0  0  0  0  0  0  0  0  0  0  0  0
   -1.6544    3.7838    0.2503 C   0  0  0  0  0  0  0  0  0  0  0  0
   -1.5097    4.6016    0.9711 H   0  0  0  0  0  0  0  0  0  0  0  0
   -3.6809   -2.3466    0.1368 C   0  0  0  0  0  0  0  0  0  0  0  0
   -3.3003   -3.3390    0.4257 H   0  0  0  0  0  0  0  0  0  0  0  0
    3.8384   -0.0433    0.5009 C   0  0  0  0  0  0  0  0  0  0  0  0
    3.5425   -0.9488    1.0543 H   0  0  0  0  0  0  0  0  0  0  0  0
   -4.6225   -2.2528   -0.8995 C   0  0  0  0  0  0  0  0  0  0  0  0
   -4.9383   -3.1603   -1.4352 H   0  0  0  0  0  0  0  0  0  0  0  0
    4.7996   -0.1369   -0.5156 C   0  0  0  0  0  0  0  0  0  0  0  0
    5.2532   -1.1117   -0.7491 H   0  0  0  0  0  0  0  0  0  0  0  0
    4.6216    2.2527   -0.8998 C   0  0  0  0  0  0  0  0  0  0  0  0
    4.9370    3.1603   -1.4359 H   0  0  0  0  0  0  0  0  0  0  0  0
   -4.7993    0.1371   -0.5163 C   0  0  0  0  0  0  0  0  0  0  0  0
   -5.2524    1.1120   -0.7501 H   0  0  0  0  0  0  0  0  0  0  0  0
    5.1854    1.0096   -1.2272 C   0  0  0  0  0  0  0  0  0  0  0  0
    5.9408    0.9390   -2.0240 H   0  0  0  0  0  0  0  0  0  0  0  0
   -5.1857   -1.0095   -1.2274 C   0  0  0  0  0  0  0  0  0  0  0  0
   -5.9410   -0.9388   -2.0243 H   0  0  0  0  0  0  0  0  0  0  0  0
   -2.6608    3.8445   -0.7249 C   0  0  0  0  0  0  0  0  0  0  0  0
   -3.3332    4.7134   -0.7791 H   0  0  0  0  0  0  0  0  0  0  0  0
  1  7  1  0  0  0  0
  2  4  1  0  0  0  0
  3  2  1  0  0  0  0
  5 14  1  0  0  0  0
  6 46  1  0  0  0  0
  6 10  1  0  0  0  0
  7 16  1  6  0  0  0
  8  7  1  0  0  0  0
  8  9  1  0  0  0  0
 10  2  1  0  0  0  0
 10 12  1  0  0  0  0
 11 10  1  0  0  0  0
 13 43  1  0  0  0  0
 13  2  1  0  0  0  0
 14 19  1  6  0  0  0
 15  1  1  0  0  0  0
 16  6  1  0  0  0  0
 16 18  1  0  0  0  0
 17 16  1  0  0  0  0
 19 13  1  0  0  0  0
 19 21  1  0  0  0  0
 20 19  1  0  0  0  0
 22 46  1  0  0  0  0
 23 43  1  0  0  0  0
 24 15  2  0  0  0  0
 24 39  1  0  0  0  0
 25 24  1  0  0  0  0
 26 27  1  0  0  0  0
 26 15  1  0  0  0  0
 28 26  1  0  0  0  0
 29 26  1  0  0  0  0
 30 31  1  0  0  0  0
 30 23  2  0  0  0  0
 32  5  1  0  0  0  0
 33 34  1  0  0  0  0
 33 32  1  0  0  0  0
 35 33  1  0  0  0  0
 36 33  1  0  0  0  0
 37 32  2  0  0  0  0
 37 67  1  0  0  0  0
 38 37  1  0  0  0  0
 39  8  2  0  0  0  0
 40 39  1  0  0  0  0
 41 22  1  0  0  0  0
 41 42  1  0  0  0  0
 43 45  1  0  0  0  0
 43 44  1  0  0  0  0
 46 48  1  0  0  0  0
 46 47  1  0  0  0  0
 49 14  1  0  0  0  0
 49 50  1  0  0  0  0
 51 52  1  0  0  0  0
 51 22  2  0  0  0  0
 53 23  1  0  0  0  0
 53 54  1  0  0  0  0
 55 51  1  0  0  0  0
 56 55  1  0  0  0  0
 57 53  2  0  0  0  0
 58 57  1  0  0  0  0
 59 30  1  0  0  0  0
 60 59  1  0  0  0  0
 61 41  2  0  0  0  0
 62 61  1  0  0  0  0
 63 59  2  0  0  0  0
 63 57  1  0  0  0  0
 64 63  1  0  0  0  0
 65 55  2  0  0  0  0
 65 61  1  0  0  0  0
 66 65  1  0  0  0  0
 67 49  2  0  0  0  0
 68 67  1  0  0  0  0
M  END
