1,10,23,41
q = 0.0, confidence = 0.97

 50 53  0  0  1  0  0  0  0  0999 V2000
   -0.6393    1.0949   -0.7247 N   0  0  0  0  0  2  0  0  0  0  0  0
   -1.6689    1.6416   -0.1203 N   0  0  0  0  0  2  0  0  0  0  0  0
   -1.2688   -3.0053    0.3453 C   0  0  0  0  0  0  0  0  0  0  0  0
   -1.6159   -3.7654   -0.3698 H   0  0  0  0  0  0  0  0  0  0  0  0
   -0.9998    0.6140   -1.9684 C   0  0  0  0  0  0  0  0  0  0  0  0
    4.3386   -2.1853   -1.2407 C   0  0  0  0  0  0  0  0  0  0  0  0
    4.5733   -2.6809   -2.1938 H   0  0  0  0  0  0  0  0  0  0  0  0
   -2.7007    1.5406   -0.9712 N   0  0  0  0  0  0  0  0  0  0  0  0
   -4.8686    0.7174   -0.1268 C   0  0  0  0  0  0  0  0  0  0  0  0
    0.1221   -1.0792    0.7832 N   0  0  0  0  0  2  0  0  0  0  0  0
    5.1232   -2.4102   -0.0978 C   0  0  0  0  0  0  0  0  0  0  0  0
    5.9947   -3.0793   -0.1431 H   0  0  0  0  0  0  0  0  0  0  0  0
   -5.1224   -1.3235    1.1781 C   0  0  0  0  0  0  0  0  0  0  0  0
   -4.7167   -2.0434    1.9046 H   0  0  0  0  0  0  0  0  0  0  0  0
   -1.2563   -2.0007    2.5341 C   0  0  0  0  0  0  0  0  0  0  0  0
   -1.5841   -1.9464    3.5819 H   0  0  0  0  0  0  0  0  0  0  0  0
    4.7587   -1.7852    1.1023 C   0  0  0  0  0  0  0  0  0  0  0  0
    5.3242   -1.9505    2.0301 H   0  0  0  0  0  0  0  0  0  0  0  0
   -0.3281   -1.0664    2.0649 C   0  0  0  0  0  3  0  0  0  0  0  0
    0.1098   -0.2829    2.7084 H   0  0  0  0  0  0  0  0  0  0  0  0
   -2.3463    0.8986   -2.1242 C   0  0  0  0  0  0  0  0  0  0  0  0
   -3.0610    0.6966   -2.9275 H   0  0  0  0  0  0  0  0  0  0  0  0
    2.9161   -0.6876    0.0055 N   0  0  0  0  0  2  0  0  0  0  0  0
    3.2420   -1.3208   -1.1659 C   0  0  1  0  0  3  0  0  0  0  0  0
   -1.7496   -2.9814    1.6621 C   0  0  0  0  0  0  0  0  0  0  0  0
   -2.4888   -3.7224    1.9996 H   0  0  0  0  0  0  0  0  0  0  0  0
    0.0659   -0.0507   -2.7818 C   0  0  0  0  0  0  0  0  0  0  0  0
   -0.3522   -0.6873   -3.5900 H   0  0  0  0  0  0  0  0  0  0  0  0
    0.7104    0.7363   -3.2259 H   0  0  0  0  0  0  0  0  0  0  0  0
   -4.0442    1.9239   -0.5304 C   0  0  0  0  0  0  0  0  0  0  0  0
   -4.5313    2.4874   -1.3492 H   0  0  0  0  0  0  0  0  0  0  0  0
   -3.8881    2.6201    0.3170 H   0  0  0  0  0  0  0  0  0  0  0  0
    0.3291   -2.1231   -1.4206 C   0  0  0  0  0  0  0  0  0  0  0  0
   -0.3840   -2.4926   -2.1866 H   0  0  0  0  0  0  0  0  0  0  0  0
    1.1421   -2.8770   -1.3613 H   0  0  0  0  0  0  0  0  0  0  0  0
   -6.1541    0.5230   -0.6630 C   0  0  0  0  0  0  0  0  0  0  0  0
   -6.5617    1.2473   -1.3862 H   0  0  0  0  0  0  0  0  0  0  0  0
   -4.3546   -0.2152    0.7971 C   0  0  0  0  0  0  0  0  0  0  0  0
   -3.3474   -0.0727    1.2210 H   0  0  0  0  0  0  0  0  0  0  0  0
   -0.3245   -2.0562   -0.0617 C   0  0  0  0  0  0  0  0  0  0  0  0
    0.9408   -0.8307   -1.8498 N   0  0  0  0  0  0  0  0  0  0  0  0
    2.3411   -1.0127   -2.3403 C   0  0  0  0  0  0  0  0  0  0  0  0
    2.6502   -0.0357   -2.7692 H   0  0  0  0  0  0  0  0  0  0  0  0
    2.4091   -1.7994   -3.1224 H   0  0  0  0  0  0  0  0  0  0  0  0
   -6.9240   -0.5853   -0.2750 C   0  0  0  0  0  0  0  0  0  0  0  0
   -7.9305   -0.7258   -0.6962 H   0  0  0  0  0  0  0  0  0  0  0  0
   -6.4091   -1.5104    0.6450 C   0  0  0  0  0  0  0  0  0  0  0  0
   -7.0125   -2.3784    0.9498 H   0  0  0  0  0  0  0  0  0  0  0  0
    3.6447   -0.9400    1.1200 C   0  0  0  0  0  0  0  0  0  0  0  0
    3.2872   -0.4542    2.0427 H   0  0  0  0  0  0  0  0  0  0  0  0
  1  2  1  0  0  0  0
  3 25  1  0  0  0  0
  4  3  1  0  0  0  0
  5  1  1  0  0  0  0
  6 24  1  0  0  0  0
  6 11  2  0  0  0  0
  7  6  1  0  0  0  0
  8 30  1  0  0  0  0
  8  2  1  0  0  0  0
  9 38  1  0  0  0  0
 10 19  1  0  0  0  0
 11 17  1  0  0  0  0
 12 11  1  0  0  0  0
 13 14  1  0  0  0  0
 15 16  1  0  0  0  0
 17 49  2  0  0  0  0
 17 18  1  0  0  0  0
 19 15  1  0  0  0  0
 19 20  1  0  0  0  0
 21  5  2  0  0  0  0
 21  8  1  0  0  0  0
 22 21  1  0  0  0  0
 23 49  1  0  0  0  0
 24 42  1  6  0  0  0
 24 23  1  0  0  0  0
 25 26  1  0  0  0  0
 25 15  2  0  0  0  0
 27  5  1  0  0  0  0
 27 41  1  0  0  0  0
 28 27  1  0  0  0  0
 29 27  1  0  0  0  0
 30  9  1  0  0  0  0
 30 32  1  0  0  0  0
 31 30  1  0  0  0  0
 33 35  1  0  0  0  0
 33 40  1  0  0  0  0
 34 33  1  0  0  0  0
 36 45  1  0  0  0  0
 36  9  2  0  0  0  0
 37 36  1  0  0  0  0
 38 13  2  0  0  0  0
 38 39  1  0  0  0  0
 40  3  2  0  0  0  0
 40 10  1  0  0  0  0
 41 33  1  0  0  0  0
 42 41  1  0  0  0  0
 43 42  1  0  0  0  0
 44 42  1  0  0  0  0
 45 47  2  0  0  0  0
 46 45  1  0  0  0  0
 47 48  1  0  0  0  0
 47 13  1  0  0  0  0
 49 50  1  0  0  0  0
M  END
