1,2,3,5
q = 0.0, confidence = 0.918

 42 44  0  0  1  0  0  0  0  0999 V2000
    0.2247   -1.6062    1.0964 N   0  0  0  0  0  0  0  0  0  0  0  0
   -0.2046    1.0482    0.8932 N   0  0  0  0  0  2  0  0  0  0  0  0
   -1.7967   -0.6168   -0.3991 N   0  0  0  0  0  2  0  0  0  0  0  0
   -2.8916    2.3410   -2.2295 N   0  0  0  0  0  0  0  0  0  0  0  0
    2.0392   -0.2236   -0.1649 N   0  0  0  0  0  2  0  0  0  0  0  0
    2.3701    3.2651   -0.9538 N   0  0  0  0  0  0  0  0  0  0  0  0
    0.2202   -0.8293    2.3677 C   0  0  0  0  0  0  0  0  0  0  0  0
    1.2699   -0.7692    2.7254 H   0  0  0  0  0  0  0  0  0  0  0  0
   -0.3534   -1.3583    3.1590 H   0  0  0  0  0  0  0  0  0  0  0  0
   -0.2836    0.5800    2.1711 C   0  0  1  0  0  3  0  0  0  0  0  0
   -0.7277    1.3862    3.2244 C   0  0  0  0  0  0  0  0  0  0  0  0
   -0.7912    0.9692    4.2406 H   0  0  0  0  0  0  0  0  0  0  0  0
   -1.0820    2.7194    2.9639 C   0  0  0  0  0  0  0  0  0  0  0  0
   -1.4360    3.3715    3.7758 H   0  0  0  0  0  0  0  0  0  0  0  0
   -0.9780    3.1963    1.6484 C   0  0  0  0  0  0  0  0  0  0  0  0
   -1.2390    4.2324    1.3906 H   0  0  0  0  0  0  0  0  0  0  0  0
   -0.5433    2.3358    0.6365 C   0  0  0  0  0  0  0  0  0  0  0  0
   -0.4470    2.6373   -0.4198 H   0  0  0  0  0  0  0  0  0  0  0  0
   -0.9585   -2.4731    0.9020 C   0  0  0  0  0  0  0  0  0  0  0  0
   -1.2105   -3.0660    1.8092 H   0  0  0  0  0  0  0  0  0  0  0  0
   -0.6909   -3.1506    0.0595 H   0  0  0  0  0  0  0  0  0  0  0  0
   -2.1264   -1.6662    0.4149 C   0  0  2  0  0  3  0  0  0  0  0  0
   -3.4452   -2.0261    0.7032 C   0  0  0  0  0  0  0  0  0  0  0  0
   -3.6367   -2.8764    1.3735 H   0  0  0  0  0  0  0  0  0  0  0  0
   -4.4976   -1.3040    0.1210 C   0  0  0  0  0  0  0  0  0  0  0  0
   -5.5463   -1.5707    0.3150 H   0  0  0  0  0  0  0  0  0  0  0  0
   -4.1759   -0.2222   -0.6971 C   0  0  0  0  0  0  0  0  0  0  0  0
   -4.9517    0.4006   -1.1623 H   0  0  0  0  0  0  0  0  0  0  0  0
   -2.8208    0.1159   -0.9271 C   0  0  0  0  0  0  0  0  0  0  0  0
   -2.6352    1.3248   -1.6929 C   0  0  0  0  0  0  0  0  0  0  0  0
    1.5089   -2.3287    0.8843 C   0  0  0  0  0  0  0  0  0  0  0  0
    1.3366   -3.0116    0.0233 H   0  0  0  0  0  0  0  0  0  0  0  0
    1.8299   -2.9035    1.7818 H   0  0  0  0  0  0  0  0  0  0  0  0
    2.5484   -1.3336    0.4510 C   0  0  1  0  0  3  0  0  0  0  0  0
    3.9174   -1.5310    0.6420 C   0  0  0  0  0  0  0  0  0  0  0  0
    4.2663   -2.4471    1.1403 H   0  0  0  0  0  0  0  0  0  0  0  0
    4.8218   -0.5561    0.1893 C   0  0  0  0  0  0  0  0  0  0  0  0
    5.9066   -0.6951    0.3004 H   0  0  0  0  0  0  0  0  0  0  0  0
    4.3065    0.6192   -0.3592 C   0  0  0  0  0  0  0  0  0  0  0  0
    4.9588    1.4476   -0.6665 H   0  0  0  0  0  0  0  0  0  0  0  0
    2.9093    0.7780   -0.4940 C   0  0  0  0  0  0  0  0  0  0  0  0
    2.4490    2.0949   -0.8519 C   0  0  0  0  0  0  0  0  0  0  0  0
  1  7  1  0  0  0  0
  2 10  1  0  0  0  0
  3 22  1  0  0  0  0
  4 30  3  0  0  0  0
  5 34  1  0  0  0  0
  6 42  3  0  0  0  0
  7  8  1  0  0  0  0
  7  9  1  0  0  0  0
 10  7  1  1  0  0  0
 10 11  1  0  0  0  0
 11 12  1  0  0  0  0
 13 11  2  0  0  0  0
 13 14  1  0  0  0  0
 15 13  1  0  0  0  0
 16 15  1  0  0  0  0
 17  2  1  0  0  0  0
 17 15  2  0  0  0  0
 18 17  1  0  0  0  0
 19  1  1  0  0  0  0
 19 20  1  0  0  0  0
 21 19  1  0  0  0  0
 22 23  1  0  0  0  0
 22 19  1  6  0  0  0
 23 24  1  0  0  0  0
 25 26  1  0  0  0  0
 25 23  2  0  0  0  0
 27 25  1  0  0  0  0
 28 27  1  0  0  0  0
 29 27  2  0  0  0  0
 29  3  1  0  0  0  0
 30 29  1  0  0  0  0
 31  1  1  0  0  0  0
 31 33  1  0  0  0  0
 32 31  1  0  0  0  0
 34 35  1  0  0  0  0
 34 31  1  6  0  0  0
 35 36  1  0  0  0  0
 37 38  1  0  0  0  0
 37 35  2  0  0  0  0
 39 37  1  0  0  0  0
 40 39  1  0  0  0  0
 41 39  2  0  0  0  0
 41  5  1  0  0  0  0
 42 41  1  0  0  0  0
M  END
