4,5,6,7
q = -2.0, confidence = 0.878

 46 45  0  0  1  0  0  0  0  0999 V2000
    1.9101   -2.9405   -0.0011 O   0  0  0  0  0  0  0  0  0  0  0  0
   -0.4215   -3.4718    0.0003 O   0  0  0  0  0  1  0  0  0  0  0  0
    0.1336    4.7298    0.0001 O   0  0  0  0  0  0  0  0  0  0  0  0
    1.8049   -1.6270   -0.0001 N   0  0  0  0  0  2  0  0  0  0  0  0
   -0.8978   -2.2466    0.0002 N   0  0  0  0  0  2  0  0  0  0  0  0
   -1.4565    0.1974   -0.0001 N   0  0  0  0  0  2  0  0  0  0  0  0
    1.2458    0.8138    0.0002 N   0  0  0  0  0  2  0  0  0  0  0  0
    2.9066   -0.9169    0.0006 C   0  0  1  0  0  3  0  0  0  0  0  0
   -2.1991   -2.0842    0.0002 C   0  0  2  0  0  3  0  0  0  0  0  0
    4.2359   -1.5960    0.0000 C   0  0  0  0  0  0  0  0  0  0  0  0
   -3.1009   -3.2740    0.0003 C   0  0  0  0  0  0  0  0  0  0  0  0
    2.7174    0.5826    0.0003 C   0  0  0  0  0  0  0  0  0  0  0  0
   -2.6798   -0.6509    0.0000 C   0  0  0  0  0  0  0  0  0  0  0  0
    3.3482    1.1872    1.2731 C   0  0  0  0  0  0  0  0  0  0  0  0
    3.3483    1.1860   -1.2730 C   0  0  0  0  0  0  0  0  0  0  0  0
   -3.5121   -0.3859    1.2736 C   0  0  0  0  0  0  0  0  0  0  0  0
   -3.5122   -0.3862   -1.2736 C   0  0  0  0  0  0  0  0  0  0  0  0
    0.8064    2.0556    0.0001 C   0  0  0  0  0  3  0  0  0  0  0  0
   -0.5526    2.4585   -0.0002 C   0  0  0  0  0  0  0  0  0  0  0  0
   -1.6034    1.5125   -0.0002 C   0  0  0  0  0  0  0  0  0  0  0  0
   -0.7973    3.9188   -0.0002 C   0  0  0  0  0  0  0  0  0  0  0  0
   -2.2386    4.4209   -0.0005 C   0  0  0  0  0  0  0  0  0  0  0  0
    0.7820   -3.3145   -0.0003 H   0  0  0  0  0  0  0  0  0  0  0  0
    5.0741   -0.8758    0.0080 H   0  0  0  0  0  0  0  0  0  0  0  0
    4.3298   -2.2552   -0.8888 H   0  0  0  0  0  0  0  0  0  0  0  0
    4.3231   -2.2682    0.8797 H   0  0  0  0  0  0  0  0  0  0  0  0
   -2.8925   -3.9135   -0.8836 H   0  0  0  0  0  0  0  0  0  0  0  0
   -4.1693   -2.9913    0.0000 H   0  0  0  0  0  0  0  0  0  0  0  0
   -2.8929   -3.9130    0.8846 H   0  0  0  0  0  0  0  0  0  0  0  0
    2.8528    0.7767    2.1745 H   0  0  0  0  0  0  0  0  0  0  0  0
    3.2392    2.2895    1.2812 H   0  0  0  0  0  0  0  0  0  0  0  0
    4.4298    0.9546    1.3267 H   0  0  0  0  0  0  0  0  0  0  0  0
    2.8526    0.7749   -2.1740 H   0  0  0  0  0  0  0  0  0  0  0  0
    4.4298    0.9529   -1.3265 H   0  0  0  0  0  0  0  0  0  0  0  0
    3.2395    2.2884   -1.2820 H   0  0  0  0  0  0  0  0  0  0  0  0
   -4.3791   -1.0729    1.3301 H   0  0  0  0  0  0  0  0  0  0  0  0
   -3.9055    0.6502    1.2842 H   0  0  0  0  0  0  0  0  0  0  0  0
   -2.8840   -0.5336    2.1737 H   0  0  0  0  0  0  0  0  0  0  0  0
   -2.8842   -0.5340   -2.1737 H   0  0  0  0  0  0  0  0  0  0  0  0
   -3.9055    0.6499   -1.2843 H   0  0  0  0  0  0  0  0  0  0  0  0
   -4.3792   -1.0731   -1.3299 H   0  0  0  0  0  0  0  0  0  0  0  0
    1.5247    2.8980    0.0002 H   0  0  0  0  0  0  0  0  0  0  0  0
   -2.6359    1.9054   -0.0003 H   0  0  0  0  0  0  0  0  0  0  0  0
   -2.7928    4.0681    0.8938 H   0  0  0  0  0  0  0  0  0  0  0  0
   -2.7932    4.0667   -0.8940 H   0  0  0  0  0  0  0  0  0  0  0  0
   -2.2202    5.5252   -0.0013 H   0  0  0  0  0  0  0  0  0  0  0  0
  1 23  1  0  0  0  0
  1  4  1  0  0  0  0
  5  2  1  0  0  0  0
  6 13  1  0  0  0  0
  7 12  1  0  0  0  0
  8  4  1  6  0  0  0
  9  5  1  6  0  0  0
  9 11  1  0  0  0  0
 10  8  1  0  0  0  0
 10 24  1  0  0  0  0
 10 26  1  0  0  0  0
 11 29  1  0  0  0  0
 12  8  1  0  0  0  0
 12 14  1  0  0  0  0
 13  9  1  0  0  0  0
 13 16  1  0  0  0  0
 14 31  1  0  0  0  0
 14 32  1  0  0  0  0
 14 30  1  0  0  0  0
 15 12  1  0  0  0  0
 16 37  1  0  0  0  0
 16 36  1  0  0  0  0
 16 38  1  0  0  0  0
 17 13  1  0  0  0  0
 18 42  1  0  0  0  0
 18  7  1  0  0  0  0
 19 18  1  0  0  0  0
 20 19  2  0  0  0  0
 20  6  1  0  0  0  0
 21 19  1  0  0  0  0
 21  3  2  0  0  0  0
 22 21  1  0  0  0  0
 22 44  1  0  0  0  0
 25 10  1  0  0  0  0
 27 11  1  0  0  0  0
 28 11  1  0  0  0  0
 33 15  1  0  0  0  0
 34 15  1  0  0  0  0
 35 15  1  0  0  0  0
 39 17  1  0  0  0  0
 40 17  1  0  0  0  0
 41 17  1  0  0  0  0
 43 20  1  0  0  0  0
 45 22  1  0  0  0  0
 46 22  1  0  0  0  0
M  END
