1,2,3,4
q = -2.0, confidence = 0.932

 28 29  0  0  0  0  0  0  0  0999 V2000
    0.9611   -1.4334   -0.7357 N   0  0  0  0  0  0  0  0  0  0  0  0
    2.0162    0.2724    0.9309 N   0  0  0  0  0  2  0  0  0  0  0  0
   -0.1614   -0.4356    2.0104 N   0  0  0  0  0  2  0  0  0  0  0  0
   -1.7193   -0.7708   -0.0706 N   0  0  0  0  0  0  0  0  0  0  0  0
    0.6132   -2.3928   -1.6111 C   0  0  0  0  0  0  0  0  0  0  0  0
   -0.4293   -2.5146   -1.9323 H   0  0  0  0  0  0  0  0  0  0  0  0
    1.7546   -3.1761   -1.9581 C   0  0  0  0  0  0  0  0  0  0  0  0
    1.7553   -4.0373   -2.6370 H   0  0  0  0  0  0  0  0  0  0  0  0
    2.8458   -2.6547   -1.2516 C   0  0  0  0  0  0  0  0  0  0  0  0
    3.8837   -3.0075   -1.2636 H   0  0  0  0  0  0  0  0  0  0  0  0
    2.3335   -1.5635   -0.4928 C   0  0  0  0  0  3  0  0  0  0  0  0
    2.8172   -0.7035    0.5079 C   0  0  0  0  0  3  0  0  0  0  0  0
    3.7828   -0.8801    1.0206 H   0  0  0  0  0  0  0  0  0  0  0  0
    2.0278    0.6074    2.3455 C   0  0  0  0  0  0  0  0  0  0  0  0
    1.8433    1.6892    2.4887 H   0  0  0  0  0  0  0  0  0  0  0  0
    3.0079    0.3659    2.8135 H   0  0  0  0  0  0  0  0  0  0  0  0
    0.9029   -0.2394    2.9947 C   0  0  0  0  0  0  0  0  0  0  0  0
    1.3192   -1.2302    3.2846 H   0  0  0  0  0  0  0  0  0  0  0  0
    0.5167    0.2429    3.9204 H   0  0  0  0  0  0  0  0  0  0  0  0
   -1.2534   -1.1363    2.2413 C   0  0  0  0  0  3  0  0  0  0  0  0
   -1.4626   -1.5640    3.2390 H   0  0  0  0  0  0  0  0  0  0  0  0
   -2.1264   -1.3372    1.1404 C   0  0  0  0  0  3  0  0  0  0  0  0
   -3.3344   -2.0542    0.9404 C   0  0  0  0  0  0  0  0  0  0  0  0
   -3.8899   -2.6124    1.7031 H   0  0  0  0  0  0  0  0  0  0  0  0
   -3.6494   -1.9174   -0.4226 C   0  0  0  0  0  0  0  0  0  0  0  0
   -4.5122   -2.3413   -0.9498 H   0  0  0  0  0  0  0  0  0  0  0  0
   -2.6300   -1.1203   -1.0067 C   0  0  0  0  0  0  0  0  0  0  0  0
   -2.5356   -0.7898   -2.0483 H   0  0  0  0  0  0  0  0  0  0  0  0
  1 11  1  0  0  0  0
  2 14  1  0  0  0  0
  3 20  1  0  0  0  0
  3 17  1  0  0  0  0
  4 22  1  0  0  0  0
  5  1  2  0  0  0  0
  6  5  1  0  0  0  0
  7  5  1  0  0  0  0
  7  9  2  0  0  0  0
  8  7  1  0  0  0  0
  9 11  1  0  0  0  0
 10  9  1  0  0  0  0
 11 12  1  0  0  0  0
 12  2  1  0  0  0  0
 12 13  1  0  0  0  0
 14 15  1  0  0  0  0
 14 16  1  0  0  0  0
 14 17  1  0  0  0  0
 17 18  1  0  0  0  0
 17 19  1  0  0  0  0
 20 21  1  0  0  0  0
 22 20  1  0  0  0  0
 23 22  1  0  0  0  0
 23 24  1  0  0  0  0
 25 23  2  0  0  0  0
 26 25  1  0  0  0  0
 27 25  1  0  0  0  0
 27  4  2  0  0  0  0
 28 27  1  0  0  0  0
M  END
