1,2,3,4
q = -2.0, confidence = 0.704

 67 70  0  0  1  0  0  0  0  0999 V2000
    0.2856    1.2501    0.1958 N   0  0  0  0  0  2  0  0  0  0  0  0
    0.2864   -1.2499    0.1958 N   0  0  0  0  0  2  0  0  0  0  0  0
    2.9976   -1.4093    0.1519 N   0  0  0  0  0  2  0  0  0  0  0  0
    2.9967    1.4112    0.1516 N   0  0  0  0  0  2  0  0  0  0  0  0
   -0.8402    0.7082    0.8389 C   0  0  0  0  0  0  0  0  0  0  0  0
   -1.8830    1.4023    1.4756 C   0  0  0  0  0  0  0  0  0  0  0  0
   -1.8717    2.5006    1.4996 H   0  0  0  0  0  0  0  0  0  0  0  0
   -2.9369    0.7102    2.1006 C   0  0  0  0  0  0  0  0  0  0  0  0
   -2.9365   -0.7121    2.1006 C   0  0  0  0  0  0  0  0  0  0  0  0
   -1.8821   -1.4035    1.4757 C   0  0  0  0  0  0  0  0  0  0  0  0
   -1.8700   -2.5018    1.4997 H   0  0  0  0  0  0  0  0  0  0  0  0
   -0.8397   -0.7088    0.8389 C   0  0  0  0  0  0  0  0  0  0  0  0
   -4.0425    1.4748    2.7830 C   0  0  0  0  0  0  0  0  0  0  0  0
   -5.0371    1.2287    2.3525 H   0  0  0  0  0  0  0  0  0  0  0  0
   -3.8964    2.5678    2.6863 H   0  0  0  0  0  0  0  0  0  0  0  0
   -4.1068    1.2345    3.8663 H   0  0  0  0  0  0  0  0  0  0  0  0
   -4.0415   -1.4773    2.7830 C   0  0  0  0  0  0  0  0  0  0  0  0
   -5.0361   -1.2338    2.3509 H   0  0  0  0  0  0  0  0  0  0  0  0
   -4.1077   -1.2353    3.8658 H   0  0  0  0  0  0  0  0  0  0  0  0
   -3.8935   -2.5702    2.6884 H   0  0  0  0  0  0  0  0  0  0  0  0
    0.2954   -2.4151   -0.4761 C   0  0  1  0  0  3  0  0  0  0  0  0
   -0.9807   -3.0791   -0.8833 C   0  0  0  0  0  0  0  0  0  0  0  0
   -1.9877   -2.3379   -1.5401 C   0  0  0  0  0  0  0  0  0  0  0  0
   -1.8300   -1.2646   -1.7214 H   0  0  0  0  0  0  0  0  0  0  0  0
   -3.1696   -2.9587   -1.9605 C   0  0  0  0  0  0  0  0  0  0  0  0
   -3.9424   -2.3683   -2.4762 H   0  0  0  0  0  0  0  0  0  0  0  0
   -3.3705   -4.3300   -1.7266 C   0  0  0  0  0  0  0  0  0  0  0  0
   -4.3037   -4.8153   -2.0509 H   0  0  0  0  0  0  0  0  0  0  0  0
   -2.3738   -5.0775   -1.0808 C   0  0  0  0  0  0  0  0  0  0  0  0
   -2.5235   -6.1520   -0.8939 H   0  0  0  0  0  0  0  0  0  0  0  0
   -1.1850   -4.4571   -0.6665 C   0  0  0  0  0  0  0  0  0  0  0  0
   -0.4066   -5.0374   -0.1482 H   0  0  0  0  0  0  0  0  0  0  0  0
    1.4991   -3.0174   -0.8737 C   0  0  0  0  0  0  0  0  0  0  0  0
    1.4363   -3.9326   -1.4750 H   0  0  0  0  0  0  0  0  0  0  0  0
    2.7784   -2.5861   -0.4489 C   0  0  0  0  0  0  0  0  0  0  0  0
    3.9239   -3.5559   -0.6473 C   0  0  0  0  0  0  0  0  0  0  0  0
    4.8017   -3.0683   -1.1192 H   0  0  0  0  0  0  0  0  0  0  0  0
    3.6093   -4.4041   -1.2812 H   0  0  0  0  0  0  0  0  0  0  0  0
    4.2748   -3.9724    0.3211 H   0  0  0  0  0  0  0  0  0  0  0  0
    4.2833   -1.2542    0.8268 C   0  0  0  0  0  0  0  0  0  0  0  0
    5.1195   -1.2191    0.0864 H   0  0  0  0  0  0  0  0  0  0  0  0
    4.4829   -2.1383    1.4735 H   0  0  0  0  0  0  0  0  0  0  0  0
    4.3411    0.0015    1.6754 C   0  0  0  0  0  0  0  0  0  0  0  0
    3.5116    0.0015    2.4151 H   0  0  0  0  0  0  0  0  0  0  0  0
    5.2928    0.0019    2.2468 H   0  0  0  0  0  0  0  0  0  0  0  0
    4.2827    1.2568    0.8261 C   0  0  0  0  0  0  0  0  0  0  0  0
    4.4823    2.1412    1.4723 H   0  0  0  0  0  0  0  0  0  0  0  0
    5.1187    1.2215    0.0854 H   0  0  0  0  0  0  0  0  0  0  0  0
    2.7767    2.5877   -0.4493 C   0  0  2  0  0  3  0  0  0  0  0  0
    3.9217    3.5582   -0.6480 C   0  0  0  0  0  0  0  0  0  0  0  0
    4.7996    3.0711   -1.1200 H   0  0  0  0  0  0  0  0  0  0  0  0
    4.2725    3.9750    0.3203 H   0  0  0  0  0  0  0  0  0  0  0  0
    3.6065    4.4061   -1.2819 H   0  0  0  0  0  0  0  0  0  0  0  0
    1.4972    3.0184   -0.8738 C   0  0  0  0  0  0  0  0  0  0  0  0
    1.4337    3.9335   -1.4751 H   0  0  0  0  0  0  0  0  0  0  0  0
    0.2939    2.4153   -0.4761 C   0  0  0  0  0  0  0  0  0  0  0  0
   -0.9827    3.0786   -0.8832 C   0  0  0  0  0  0  0  0  0  0  0  0
   -1.9893    2.3368   -1.5399 C   0  0  0  0  0  0  0  0  0  0  0  0
   -1.8310    1.2635   -1.7212 H   0  0  0  0  0  0  0  0  0  0  0  0
   -3.1717    2.9568   -1.9602 C   0  0  0  0  0  0  0  0  0  0  0  0
   -3.9441    2.3660   -2.4758 H   0  0  0  0  0  0  0  0  0  0  0  0
   -3.3734    4.3280   -1.7261 C   0  0  0  0  0  0  0  0  0  0  0  0
   -4.3069    4.8128   -2.0503 H   0  0  0  0  0  0  0  0  0  0  0  0
   -2.3771    5.0761   -1.0804 C   0  0  0  0  0  0  0  0  0  0  0  0
   -2.5274    6.1505   -0.8935 H   0  0  0  0  0  0  0  0  0  0  0  0
   -1.1879    4.4565   -0.6663 C   0  0  0  0  0  0  0  0  0  0  0  0
   -0.4097    5.0371   -0.1480 H   0  0  0  0  0  0  0  0  0  0  0  0
  1  5  1  0  0  0  0
  2 12  1  0  0  0  0
  3 40  1  0  0  0  0
  4 46  1  0  0  0  0
  5 12  2  0  0  0  0
  5  6  1  0  0  0  0
  6  7  1  0  0  0  0
  6  8  2  0  0  0  0
  8  9  1  0  0  0  0
  8 13  1  0  0  0  0
  9 17  1  0  0  0  0
 10 11  1  0  0  0  0
 10  9  2  0  0  0  0
 12 10  1  0  0  0  0
 13 16  1  0  0  0  0
 14 13  1  0  0  0  0
 15 13  1  0  0  0  0
 17 19  1  0  0  0  0
 18 17  1  0  0  0  0
 20 17  1  0  0  0  0
 21 22  1  6  0  0  0
 21  2  1  0  0  0  0
 22 31  1  0  0  0  0
 23 22  2  0  0  0  0
 24 23  1  0  0  0  0
 25 27  2  0  0  0  0
 25 23  1  0  0  0  0
 26 25  1  0  0  0  0
 27 29  1  0  0  0  0
 28 27  1  0  0  0  0
 29 30  1  0  0  0  0
 29 31  2  0  0  0  0
 31 32  1  0  0  0  0
 33 21  1  0  0  0  0
 33 35  2  0  0  0  0
 34 33  1  0  0  0  0
 35  3  1  0  0  0  0
 36 35  1  0  0  0  0
 36 39  1  0  0  0  0
 37 36  1  0  0  0  0
 38 36  1  0  0  0  0
 40 42  1  0  0  0  0
 40 43  1  0  0  0  0
 41 40  1  0  0  0  0
 43 45  1  0  0  0  0
 43 44  1  0  0  0  0
 46 47  1  0  0  0  0
 46 43  1  0  0  0  0
 48 46  1  0  0  0  0
 49 50  1  1  0  0  0
 49  4  1  0  0  0  0
 50 52  1  0  0  0  0
 51 50  1  0  0  0  0
 53 50  1  0  0  0  0
 54 56  2  0  0  0  0
 54 49  1  0  0  0  0
 55 54  1  0  0  0  0
 56  1  1  0  0  0  0
 57 66  1  0  0  0  0
 57 56  1  0  0  0  0
 58 57  2  0  0  0  0
 59 58  1  0  0  0  0
 60 62  2  0  0  0  0
 60 58  1  0  0  0  0
 61 60  1  0  0  0  0
 62 64  1  0  0  0  0
 63 62  1  0  0  0  0
 64 65  1  0  0  0  0
 64 66  2  0  0  0  0
 66 67  1  0  0  0  0
M  END
