1,4,7,10
q = 0.0, confidence = 0.988

 46 47  0  0  1  0  0  0  0  0999 V2000
   -1.0402    1.9056   -0.5481 N   0  0  0  0  0  2  0  0  0  0  0  0
   -2.3684    1.9526   -0.5052 N   0  0  0  0  0  0  0  0  0  0  0  0
   -2.9213    2.7068   -0.9317 H   0  0  0  0  0  0  0  0  0  0  0  0
   -2.4243   -0.0184    0.7555 N   0  0  0  0  0  2  0  0  0  0  0  0
    2.8315    1.1467   -0.8488 N   0  0  0  0  0  0  0  0  0  0  0  0
    3.5477    1.8691   -0.6938 H   0  0  0  0  0  0  0  0  0  0  0  0
    1.5386    1.4405   -0.9429 N   0  0  0  0  0  2  0  0  0  0  0  0
   -3.1536   -0.9696    1.3757 C   0  0  2  0  0  3  0  0  0  0  0  0
   -4.4307    1.1136    0.0693 N   0  0  0  0  0  0  0  0  0  0  0  0
    2.3373   -1.1096   -0.4356 N   0  0  0  0  0  2  0  0  0  0  0  0
    1.1365    2.6839   -1.0308 C   0  0  2  0  0  3  0  0  0  0  0  0
    4.5944   -0.2918   -0.5458 N   0  0  0  0  0  0  0  0  0  0  0  0
   -2.3975   -2.0920    2.0176 C   0  0  0  0  0  0  0  0  0  0  0  0
   -2.0682   -2.7951    1.2227 H   0  0  0  0  0  0  0  0  0  0  0  0
   -3.0236   -2.6538    2.7346 H   0  0  0  0  0  0  0  0  0  0  0  0
   -1.4929   -1.7039    2.5268 H   0  0  0  0  0  0  0  0  0  0  0  0
   -3.1039    0.9579    0.1377 C   0  0  0  0  0  0  0  0  0  0  0  0
    2.1087    3.8309   -1.0368 C   0  0  0  0  0  0  0  0  0  0  0  0
    2.6842    3.8150   -0.0843 H   0  0  0  0  0  0  0  0  0  0  0  0
    1.6119    4.8136   -1.1022 H   0  0  0  0  0  0  0  0  0  0  0  0
    2.8302    3.7524   -1.8789 H   0  0  0  0  0  0  0  0  0  0  0  0
    3.2638   -0.1525   -0.5992 C   0  0  2  0  0  3  0  0  0  0  0  0
    2.7843   -2.3608   -0.1955 C   0  0  0  0  0  0  0  0  0  0  0  0
   -6.6614    0.2890    0.5668 C   0  0  0  0  0  0  0  0  0  0  0  0
   -7.1871   -0.2521    1.3756 H   0  0  0  0  0  0  0  0  0  0  0  0
   -6.9838   -0.1496   -0.4019 H   0  0  0  0  0  0  0  0  0  0  0  0
   -6.9654    1.3528    0.5613 H   0  0  0  0  0  0  0  0  0  0  0  0
    5.0540   -1.5320   -0.3026 C   0  0  0  0  0  0  0  0  0  0  0  0
   -5.1696    0.1717    0.6859 C   0  0  0  0  0  0  0  0  0  0  0  0
   -0.3255    2.8895   -1.0318 C   0  0  2  0  0  3  0  0  0  0  0  0
    4.1663   -2.6138   -0.1332 C   0  0  0  0  0  0  0  0  0  0  0  0
    4.5403   -3.6284    0.0608 H   0  0  0  0  0  0  0  0  0  0  0  0
   -4.5568   -0.8943    1.3722 C   0  0  0  0  0  0  0  0  0  0  0  0
   -5.1584   -1.6644    1.8735 H   0  0  0  0  0  0  0  0  0  0  0  0
   -0.9641    4.1520   -1.5424 C   0  0  0  0  0  0  0  0  0  0  0  0
   -1.7084    3.9173   -2.3350 H   0  0  0  0  0  0  0  0  0  0  0  0
   -0.2323    4.8484   -1.9857 H   0  0  0  0  0  0  0  0  0  0  0  0
   -1.5027    4.6898   -0.7316 H   0  0  0  0  0  0  0  0  0  0  0  0
    1.7510   -3.4208    0.0344 C   0  0  0  0  0  0  0  0  0  0  0  0
    1.2788   -3.2571    1.0273 H   0  0  0  0  0  0  0  0  0  0  0  0
    2.1898   -4.4351    0.0219 H   0  0  0  0  0  0  0  0  0  0  0  0
    0.9401   -3.3362   -0.7174 H   0  0  0  0  0  0  0  0  0  0  0  0
    6.5443   -1.6955   -0.2094 C   0  0  0  0  0  0  0  0  0  0  0  0
    7.0320   -1.2492   -1.0988 H   0  0  0  0  0  0  0  0  0  0  0  0
    6.8436   -2.7556   -0.1175 H   0  0  0  0  0  0  0  0  0  0  0  0
    6.9242   -1.1388    0.6722 H   0  0  0  0  0  0  0  0  0  0  0  0
  1  2  1  0  0  0  0
  2 17  1  0  0  0  0
  3  2  1  0  0  0  0
  4  8  1  0  0  0  0
  5  6  1  0  0  0  0
  7  5  1  0  0  0  0
  8 13  1  6  0  0  0
  9 17  2  0  0  0  0
  9 29  1  0  0  0  0
 10 23  1  0  0  0  0
 11  7  1  1  0  0  0
 12 28  2  0  0  0  0
 13 16  1  0  0  0  0
 13 15  1  0  0  0  0
 14 13  1  0  0  0  0
 17  4  1  0  0  0  0
 18 11  1  0  0  0  0
 18 19  1  0  0  0  0
 20 18  1  0  0  0  0
 21 18  1  0  0  0  0
 22  5  1  1  0  0  0
 22 12  1  0  0  0  0
 22 10  1  0  0  0  0
 23 31  2  0  0  0  0
 23 39  1  0  0  0  0
 24 29  1  0  0  0  0
 24 25  1  0  0  0  0
 26 24  1  0  0  0  0
 27 24  1  0  0  0  0
 28 43  1  0  0  0  0
 28 31  1  0  0  0  0
 29 33  2  0  0  0  0
 30 11  1  0  0  0  0
 30  1  1  1  0  0  0
 31 32  1  0  0  0  0
 33  8  1  0  0  0  0
 33 34  1  0  0  0  0
 35 30  1  0  0  0  0
 35 38  1  0  0  0  0
 36 35  1  0  0  0  0
 37 35  1  0  0  0  0
 39 40  1  0  0  0  0
 41 39  1  0  0  0  0
 42 39  1  0  0  0  0
 43 45  1  0  0  0  0
 43 46  1  0  0  0  0
 44 43  1  0  0  0  0
M  END
