7,8,9,10
q = -1.0, confidence = 0.302

 64 71  0  0  1  0  0  0  0  0999 V2000
    4.7653   -1.9259    2.0925 Cl  0  0  0  0  0  0  0  0  0  0  0  0
    4.5779   -0.6323   -3.2121 Cl  0  0  0  0  0  0  0  0  0  0  0  0
   -0.0823    3.6147    2.5314 Cl  0  0  0  0  0  0  0  0  0  0  0  0
    0.0294    4.0809   -2.9013 Cl  0  0  0  0  0  0  0  0  0  0  0  0
   -4.8621   -1.9987    2.2049 Cl  0  0  0  0  0  0  0  0  0  0  0  0
   -4.7135   -0.4679   -3.0395 Cl  0  0  0  0  0  0  0  0  0  0  0  0
    1.1458   -2.2542   -0.3617 N   0  0  0  0  0  0  0  0  0  0  0  0
    1.3542    0.4332   -0.3727 N   0  0  0  0  0  0  0  0  0  0  0  0
   -1.4279    0.4326   -0.3171 N   0  0  0  0  0  0  0  0  0  0  0  0
   -1.2741   -2.2522   -0.2816 N   0  0  0  0  0  0  0  0  0  0  0  0
    0.6295   -3.5527   -0.4904 C   0  0  0  0  0  3  0  0  0  0  0  0
    1.7194   -4.4617   -0.6831 C   0  0  0  0  0  0  0  0  0  0  0  0
    1.6395   -5.5461   -0.8198 H   0  0  0  0  0  0  0  0  0  0  0  0
    2.8831   -3.6975   -0.6915 C   0  0  0  0  0  0  0  0  0  0  0  0
    3.9113   -4.0603   -0.8101 H   0  0  0  0  0  0  0  0  0  0  0  0
    2.5104   -2.3114   -0.5029 C   0  0  0  0  0  0  0  0  0  0  0  0
    3.2909   -1.1388   -0.4780 C   0  0  2  0  0  3  0  0  0  0  0  0
    2.7222    0.1569   -0.4164 C   0  0  0  0  0  0  0  0  0  0  0  0
    3.4481    1.4028   -0.4368 C   0  0  0  0  0  0  0  0  0  0  0  0
    4.5397    1.4909   -0.4825 H   0  0  0  0  0  0  0  0  0  0  0  0
    2.5206    2.4274   -0.4066 C   0  0  0  0  0  0  0  0  0  0  0  0
    2.7106    3.5065   -0.4210 H   0  0  0  0  0  0  0  0  0  0  0  0
    1.2162    1.8142   -0.3674 C   0  0  0  0  0  3  0  0  0  0  0  0
   -0.0274    2.4723   -0.2992 C   0  0  1  0  0  3  0  0  0  0  0  0
   -1.2751    1.8155   -0.3010 C   0  0  0  0  0  0  0  0  0  0  0  0
   -2.5722    2.4366   -0.2463 C   0  0  0  0  0  0  0  0  0  0  0  0
   -2.7518    3.5175   -0.2218 H   0  0  0  0  0  0  0  0  0  0  0  0
   -3.5140    1.4216   -0.2455 C   0  0  0  0  0  0  0  0  0  0  0  0
   -4.6050    1.5239   -0.2240 H   0  0  0  0  0  0  0  0  0  0  0  0
   -2.8080    0.1708   -0.2931 C   0  0  0  0  0  3  0  0  0  0  0  0
   -3.4011   -1.1138   -0.3465 C   0  0  2  0  0  3  0  0  0  0  0  0
   -2.6393   -2.2991   -0.3855 C   0  0  0  0  0  3  0  0  0  0  0  0
   -3.0345   -3.6797   -0.5917 C   0  0  0  0  0  0  0  0  0  0  0  0
   -4.0680   -4.0285   -0.7029 H   0  0  0  0  0  0  0  0  0  0  0  0
   -1.8782   -4.4491   -0.6325 C   0  0  0  0  0  0  0  0  0  0  0  0
   -1.8080   -5.5302   -0.7982 H   0  0  0  0  0  0  0  0  0  0  0  0
   -0.7750   -3.5482   -0.4569 C   0  0  0  0  0  0  0  0  0  0  0  0
    4.7712   -1.2705   -0.5654 C   0  0  0  0  0  0  0  0  0  0  0  0
    5.5521   -1.6320    0.5573 C   0  0  0  0  0  0  0  0  0  0  0  0
    6.9476   -1.7658    0.4931 C   0  0  0  0  0  0  0  0  0  0  0  0
    7.5061   -2.0454    1.3966 H   0  0  0  0  0  0  0  0  0  0  0  0
    7.5984   -1.5360   -0.7262 C   0  0  0  0  0  0  0  0  0  0  0  0
    8.6922   -1.6373   -0.7882 H   0  0  0  0  0  0  0  0  0  0  0  0
    6.8671   -1.1814   -1.8671 C   0  0  0  0  0  0  0  0  0  0  0  0
    7.3620   -1.0043   -2.8315 H   0  0  0  0  0  0  0  0  0  0  0  0
    5.4714   -1.0552   -1.7774 C   0  0  0  0  0  0  0  0  0  0  0  0
   -0.0248    3.9578   -0.1809 C   0  0  0  0  0  0  0  0  0  0  0  0
   -0.0480    4.5943    1.0811 C   0  0  0  0  0  0  0  0  0  0  0  0
   -0.0442    5.9907    1.2198 C   0  0  0  0  0  0  0  0  0  0  0  0
   -0.0626    6.4359    2.2236 H   0  0  0  0  0  0  0  0  0  0  0  0
   -0.0156    6.7877    0.0672 C   0  0  0  0  0  0  0  0  0  0  0  0
   -0.0120    7.8837    0.1630 H   0  0  0  0  0  0  0  0  0  0  0  0
    0.0077    6.2016   -1.2050 C   0  0  0  0  0  0  0  0  0  0  0  0
    0.0292    6.8138   -2.1167 H   0  0  0  0  0  0  0  0  0  0  0  0
    0.0024    4.8014   -1.3156 C   0  0  0  0  0  0  0  0  0  0  0  0
   -4.8844   -1.2193   -0.4187 C   0  0  0  0  0  0  0  0  0  0  0  0
   -5.6589   -1.6255    0.6933 C   0  0  0  0  0  0  0  0  0  0  0  0
   -7.0566   -1.7395    0.6376 C   0  0  0  0  0  0  0  0  0  0  0  0
   -7.6092   -2.0543    1.5330 H   0  0  0  0  0  0  0  0  0  0  0  0
   -7.7169   -1.4446   -0.5622 C   0  0  0  0  0  0  0  0  0  0  0  0
   -8.8124   -1.5297   -0.6173 H   0  0  0  0  0  0  0  0  0  0  0  0
   -6.9926   -1.0453   -1.6927 C   0  0  0  0  0  0  0  0  0  0  0  0
   -7.4946   -0.8186   -2.6430 H   0  0  0  0  0  0  0  0  0  0  0  0
   -5.5947   -0.9402   -1.6125 C   0  0  0  0  0  0  0  0  0  0  0  0
  2 46  1  0  0  0  0
  4 55  1  0  0  0  0
  6 64  1  0  0  0  0
  8 23  1  0  0  0  0
  9 25  2  0  0  0  0
  9 30  1  0  0  0  0
 11 37  1  0  0  0  0
 11  7  1  0  0  0  0
 12 11  1  0  0  0  0
 13 12  1  0  0  0  0
 14 12  2  0  0  0  0
 14 16  1  0  0  0  0
 15 14  1  0  0  0  0
 16 17  1  0  0  0  0
 16  7  2  0  0  0  0
 17 38  1  6  0  0  0
 17 18  1  0  0  0  0
 18  8  2  0  0  0  0
 19 18  1  0  0  0  0
 19 21  2  0  0  0  0
 20 19  1  0  0  0  0
 21 23  1  0  0  0  0
 22 21  1  0  0  0  0
 23 24  1  0  0  0  0
 24 47  1  1  0  0  0
 25 24  1  0  0  0  0
 25 26  1  0  0  0  0
 26 28  2  0  0  0  0
 26 27  1  0  0  0  0
 28 29  1  0  0  0  0
 30 28  1  0  0  0  0
 31 56  1  6  0  0  0
 31 30  1  0  0  0  0
 32 31  1  0  0  0  0
 32 10  1  0  0  0  0
 33 32  1  0  0  0  0
 34 33  1  0  0  0  0
 35 33  2  0  0  0  0
 35 37  1  0  0  0  0
 36 35  1  0  0  0  0
 37 10  2  0  0  0  0
 38 39  1  0  0  0  0
 39  1  1  0  0  0  0
 40 39  2  0  0  0  0
 40 41  1  0  0  0  0
 42 40  1  0  0  0  0
 43 42  1  0  0  0  0
 44 46  1  0  0  0  0
 44 42  2  0  0  0  0
 45 44  1  0  0  0  0
 46 38  2  0  0  0  0
 47 48  1  0  0  0  0
 48 49  2  0  0  0  0
 48  3  1  0  0  0  0
 49 50  1  0  0  0  0
 51 52  1  0  0  0  0
 51 49  1  0  0  0  0
 53 51  2  0  0  0  0
 54 53  1  0  0  0  0
 55 53  1  0  0  0  0
 55 47  2  0  0  0  0
 56 57  1  0  0  0  0
 57  5  1  0  0  0  0
 58 57  2  0  0  0  0
 58 59  1  0  0  0  0
 60 58  1  0  0  0  0
 61 60  1  0  0  0  0
 62 64  1  0  0  0  0
 62 60  2  0  0  0  0
 63 62  1  0  0  0  0
 64 56  2  0  0  0  0
M  END
