5,8,9,10
q = -2.0, confidence = 0.85

 79 82  0  0  1  0  0  0  0  0999 V2000
    2.4822   -2.9636   -0.0821 O   0  0  0  0  0  0  0  0  0  0  0  0
   -2.2121   -2.7062    0.7770 O   0  0  0  0  0  0  0  0  0  0  0  0
    3.7400   -1.0245   -0.0695 N   0  0  0  0  0  0  0  0  0  0  0  0
    3.7935    0.3443   -0.0712 N   0  0  0  0  0  2  0  0  0  0  0  0
    1.3892    0.4542    0.0103 N   0  0  0  0  0  2  0  0  0  0  0  0
   -3.6219   -0.9678    0.1008 N   0  0  0  0  0  0  0  0  0  0  0  0
   -3.7267    0.3649   -0.2081 N   0  0  0  0  0  2  0  0  0  0  0  0
   -1.3929    0.5837    0.2507 N   0  0  0  0  0  2  0  0  0  0  0  0
    1.4717    2.9843   -0.1109 N   0  0  0  0  0  2  0  0  0  0  0  0
   -1.3543    2.9598   -0.5241 N   0  0  0  0  0  2  0  0  0  0  0  0
    2.6385    0.9811   -0.0197 C   0  0  0  0  0  0  0  0  0  0  0  0
    1.2649   -0.9251   -0.4373 C   0  0  2  0  0  0  0  0  0  0  0  0
    2.5350   -1.7418   -0.1677 C   0  0  0  0  0  0  0  0  0  0  0  0
   -2.5926    1.0426   -0.1945 C   0  0  0  0  0  0  0  0  0  0  0  0
   -1.5356   -0.4303    1.2784 C   0  0  2  0  0  0  0  0  0  0  0  0
   -2.4591   -1.5071    0.7005 C   0  0  0  0  0  0  0  0  0  0  0  0
    5.0080   -1.6682    0.1053 C   0  0  0  0  0  0  0  0  0  0  0  0
    5.2728   -2.9534   -0.4127 C   0  0  0  0  0  0  0  0  0  0  0  0
    6.5398   -3.5246   -0.2296 C   0  0  0  0  0  0  0  0  0  0  0  0
    7.5512   -2.8366    0.4583 C   0  0  0  0  0  0  0  0  0  0  0  0
    7.2838   -1.5559    0.9672 C   0  0  0  0  0  0  0  0  0  0  0  0
    6.0229   -0.9724    0.7945 C   0  0  0  0  0  0  0  0  0  0  0  0
    2.6716    2.4426   -0.0383 C   0  0  0  0  0  0  0  0  0  0  0  0
    3.9576    3.2008   -0.0037 C   0  0  0  0  0  0  0  0  0  0  0  0
    1.3541    4.4364   -0.1873 C   0  0  0  0  0  0  0  0  0  0  0  0
   -0.0564    4.9453    0.0820 C   0  0  0  0  0  0  0  0  0  0  0  0
   -1.1065    4.3523   -0.8560 C   0  0  0  0  0  0  0  0  0  0  0  0
    0.8073   -1.0353   -1.9254 C   0  0  0  0  0  0  0  0  0  0  0  0
    0.3180   -2.4439   -2.2735 C   0  0  0  0  0  0  0  0  0  0  0  0
    1.8684   -0.5222   -2.9026 C   0  0  0  0  0  0  0  0  0  0  0  0
   -4.8104   -1.7333   -0.1452 C   0  0  0  0  0  0  0  0  0  0  0  0
   -6.0358   -1.0439   -0.2800 C   0  0  0  0  0  0  0  0  0  0  0  0
   -7.2197   -1.7523   -0.5140 C   0  0  0  0  0  0  0  0  0  0  0  0
   -7.2070   -3.1522   -0.6216 C   0  0  0  0  0  0  0  0  0  0  0  0
   -5.9879   -3.8325   -0.4923 C   0  0  0  0  0  0  0  0  0  0  0  0
   -4.7902   -3.1406   -0.2577 C   0  0  0  0  0  0  0  0  0  0  0  0
   -2.5551    2.4277   -0.6532 C   0  0  0  0  0  0  0  0  0  0  0  0
   -3.7670    3.1140   -1.1950 C   0  0  0  0  0  0  0  0  0  0  0  0
   -2.0482    0.1237    2.6384 C   0  0  0  0  0  0  0  0  0  0  0  0
   -1.1337    1.2481    3.1328 C   0  0  0  0  0  0  0  0  0  0  0  0
   -2.1698   -1.0033    3.6694 C   0  0  0  0  0  0  0  0  0  0  0  0
    0.4981   -1.4582    0.1587 H   0  0  0  0  0  0  0  0  0  0  0  0
   -0.5647   -0.9269    1.4625 H   0  0  0  0  0  0  0  0  0  0  0  0
    4.4888   -3.5047   -0.9417 H   0  0  0  0  0  0  0  0  0  0  0  0
    6.7356   -4.5274   -0.6388 H   0  0  0  0  0  0  0  0  0  0  0  0
    8.5415   -3.2955    0.5971 H   0  0  0  0  0  0  0  0  0  0  0  0
    8.0645   -1.0023    1.5112 H   0  0  0  0  0  0  0  0  0  0  0  0
    5.8021    0.0287    1.1859 H   0  0  0  0  0  0  0  0  0  0  0  0
    4.7956    2.4813   -0.0183 H   0  0  0  0  0  0  0  0  0  0  0  0
    4.0489    3.8846   -0.8733 H   0  0  0  0  0  0  0  0  0  0  0  0
    4.0324    3.8287    0.9103 H   0  0  0  0  0  0  0  0  0  0  0  0
    1.6748    4.7659   -1.2038 H   0  0  0  0  0  0  0  0  0  0  0  0
    2.0582    4.9127    0.5289 H   0  0  0  0  0  0  0  0  0  0  0  0
   -0.0505    6.0489   -0.0308 H   0  0  0  0  0  0  0  0  0  0  0  0
   -0.3487    4.7280    1.1314 H   0  0  0  0  0  0  0  0  0  0  0  0
   -2.0455    4.9396   -0.7857 H   0  0  0  0  0  0  0  0  0  0  0  0
   -0.7587    4.4292   -1.9129 H   0  0  0  0  0  0  0  0  0  0  0  0
   -0.0668   -0.3468   -1.9649 H   0  0  0  0  0  0  0  0  0  0  0  0
    1.1431   -3.1820   -2.2209 H   0  0  0  0  0  0  0  0  0  0  0  0
   -0.4687   -2.7808   -1.5680 H   0  0  0  0  0  0  0  0  0  0  0  0
   -0.1045   -2.4662   -3.2988 H   0  0  0  0  0  0  0  0  0  0  0  0
    1.4809   -0.5295   -3.9416 H   0  0  0  0  0  0  0  0  0  0  0  0
    2.1737    0.5174   -2.6667 H   0  0  0  0  0  0  0  0  0  0  0  0
    2.7792   -1.1577   -2.8865 H   0  0  0  0  0  0  0  0  0  0  0  0
   -6.0365    0.0493   -0.1952 H   0  0  0  0  0  0  0  0  0  0  0  0
   -8.1664   -1.1985   -0.6107 H   0  0  0  0  0  0  0  0  0  0  0  0
   -8.1393   -3.7063   -0.8072 H   0  0  0  0  0  0  0  0  0  0  0  0
   -5.9560   -4.9294   -0.5804 H   0  0  0  0  0  0  0  0  0  0  0  0
   -3.8420   -3.6769   -0.1550 H   0  0  0  0  0  0  0  0  0  0  0  0
   -4.6004    2.3891   -1.2247 H   0  0  0  0  0  0  0  0  0  0  0  0
   -4.0676    3.9750   -0.5608 H   0  0  0  0  0  0  0  0  0  0  0  0
   -3.5914    3.5055   -2.2185 H   0  0  0  0  0  0  0  0  0  0  0  0
   -3.0616    0.5496    2.4589 H   0  0  0  0  0  0  0  0  0  0  0  0
   -1.0776    2.0758    2.3969 H   0  0  0  0  0  0  0  0  0  0  0  0
   -1.4992    1.6624    4.0944 H   0  0  0  0  0  0  0  0  0  0  0  0
   -0.0995    0.8745    3.2906 H   0  0  0  0  0  0  0  0  0  0  0  0
   -2.8403   -1.8152    3.3250 H   0  0  0  0  0  0  0  0  0  0  0  0
   -2.5667   -0.6175    4.6301 H   0  0  0  0  0  0  0  0  0  0  0  0
   -1.1780   -1.4596    3.8724 H   0  0  0  0  0  0  0  0  0  0  0  0
  3 17  1  0  0  0  0
  4  3  1  0  0  0  0
  4 11  1  0  0  0  0
  6 16  1  0  0  0  0
  7 14  1  0  0  0  0
  7  6  1  0  0  0  0
  8 15  1  0  0  0  0
  9 23  1  0  0  0  0
 11  5  1  0  0  0  0
 12 13  1  0  0  0  0
 12  5  1  0  0  0  0
 12 42  1  1  0  0  0
 13  1  2  0  0  0  0
 13  3  1  0  0  0  0
 14  8  1  0  0  0  0
 15 43  1  1  0  0  0
 15 39  1  0  0  0  0
 16  2  2  0  0  0  0
 16 15  1  0  0  0  0
 17 22  1  0  0  0  0
 18 19  1  0  0  0  0
 18 17  2  0  0  0  0
 19 20  2  0  0  0  0
 20 46  1  0  0  0  0
 20 21  1  0  0  0  0
 21 47  1  0  0  0  0
 22 21  2  0  0  0  0
 22 48  1  0  0  0  0
 23 11  2  0  0  0  0
 23 24  1  0  0  0  0
 24 51  1  0  0  0  0
 25  9  1  0  0  0  0
 25 26  1  0  0  0  0
 25 53  1  0  0  0  0
 26 55  1  0  0  0  0
 27 56  1  0  0  0  0
 27 10  1  0  0  0  0
 27 26  1  0  0  0  0
 28 12  1  0  0  0  0
 29 59  1  0  0  0  0
 29 28  1  0  0  0  0
 29 60  1  0  0  0  0
 30 64  1  0  0  0  0
 30 63  1  0  0  0  0
 30 28  1  0  0  0  0
 31  6  1  0  0  0  0
 32 65  1  0  0  0  0
 32 31  2  0  0  0  0
 33 32  1  0  0  0  0
 34 33  2  0  0  0  0
 34 35  1  0  0  0  0
 35 36  2  0  0  0  0
 36 69  1  0  0  0  0
 36 31  1  0  0  0  0
 37 10  1  0  0  0  0
 37 14  2  0  0  0  0
 38 37  1  0  0  0  0
 38 71  1  0  0  0  0
 39 40  1  0  0  0  0
 39 41  1  0  0  0  0
 40 76  1  0  0  0  0
 40 75  1  0  0  0  0
 41 79  1  0  0  0  0
 41 78  1  0  0  0  0
 44 18  1  0  0  0  0
 45 19  1  0  0  0  0
 49 24  1  0  0  0  0
 50 24  1  0  0  0  0
 52 25  1  0  0  0  0
 54 26  1  0  0  0  0
 57 27  1  0  0  0  0
 58 28  1  0  0  0  0
 61 29  1  0  0  0  0
 62 30  1  0  0  0  0
 66 33  1  0  0  0  0
 67 34  1  0  0  0  0
 68 35  1  0  0  0  0
 70 38  1  0  0  0  0
 72 38  1  0  0  0  0
 73 39  1  0  0  0  0
 74 40  1  0  0  0  0
 77 41  1  0  0  0  0
M  END
