1,17,25,40
q = 0.0, confidence = 1.0

 42 43  0  0  0  0  0  0  0  0999 V2000
   -0.8969   -2.1879    0.7191 N   0  0  0  0  0  0  0  0  0  0  0  0
   -1.4714   -2.4138   -0.1142 H   0  0  0  0  0  0  0  0  0  0  0  0
   -1.3949   -2.3799    1.5929 H   0  0  0  0  0  0  0  0  0  0  0  0
    0.4728   -2.4953    0.7241 C   0  0  0  0  0  0  0  0  0  0  0  0
    1.1336   -2.7677    1.9412 C   0  0  0  0  0  0  0  0  0  0  0  0
    0.5466   -2.7999    2.8730 H   0  0  0  0  0  0  0  0  0  0  0  0
    2.5120   -3.0235    1.9657 C   0  0  0  0  0  0  0  0  0  0  0  0
    3.0021   -3.2531    2.9241 H   0  0  0  0  0  0  0  0  0  0  0  0
    3.2566   -2.9999    0.7765 C   0  0  0  0  0  0  0  0  0  0  0  0
    4.3365   -3.2071    0.7877 H   0  0  0  0  0  0  0  0  0  0  0  0
    2.6048   -2.7012   -0.4302 C   0  0  0  0  0  0  0  0  0  0  0  0
    3.1799   -2.6658   -1.3691 H   0  0  0  0  0  0  0  0  0  0  0  0
    1.2258   -2.4417   -0.4830 C   0  0  0  0  0  0  0  0  0  0  0  0
    0.5310   -2.1335   -1.7894 C   0  0  0  0  0  0  0  0  0  0  0  0
    1.2403   -2.2915   -2.6325 H   0  0  0  0  0  0  0  0  0  0  0  0
   -0.3024   -2.8520   -1.9443 H   0  0  0  0  0  0  0  0  0  0  0  0
   -0.0670   -0.7845   -1.8530 N   0  0  0  0  0  0  0  0  0  0  0  0
   -0.9890   -0.8840   -2.3039 H   0  0  0  0  0  0  0  0  0  0  0  0
    0.7356    0.2516   -2.4981 C   0  0  0  0  0  0  0  0  0  0  0  0
    0.9731   -0.0047   -3.5595 H   0  0  0  0  0  0  0  0  0  0  0  0
    1.7033    0.3374   -1.9650 H   0  0  0  0  0  0  0  0  0  0  0  0
   -0.0083    1.5950   -2.4928 C   0  0  0  0  0  0  0  0  0  0  0  0
    0.6011    2.3445   -3.0480 H   0  0  0  0  0  0  0  0  0  0  0  0
   -0.9596    1.4706   -3.0513 H   0  0  0  0  0  0  0  0  0  0  0  0
   -0.3558    2.0797   -1.1453 N   0  0  0  0  0  0  0  0  0  0  0  0
   -1.2616    2.5632   -1.1759 H   0  0  0  0  0  0  0  0  0  0  0  0
    0.6330    2.9794   -0.5077 C   0  0  0  0  0  0  0  0  0  0  0  0
    0.1790    3.3176    0.4473 H   0  0  0  0  0  0  0  0  0  0  0  0
    0.7931    3.8871   -1.1342 H   0  0  0  0  0  0  0  0  0  0  0  0
    1.9689    2.3079   -0.2860 C   0  0  0  0  0  0  0  0  0  0  0  0
    3.0832    2.6769   -1.0609 C   0  0  0  0  0  0  0  0  0  0  0  0
    2.9741    3.5138   -1.7693 H   0  0  0  0  0  0  0  0  0  0  0  0
    4.3072    1.9984   -0.9666 C   0  0  0  0  0  0  0  0  0  0  0  0
    5.1618    2.3067   -1.5861 H   0  0  0  0  0  0  0  0  0  0  0  0
    4.4209    0.9192   -0.0770 C   0  0  0  0  0  0  0  0  0  0  0  0
    5.3671    0.3633    0.0055 H   0  0  0  0  0  0  0  0  0  0  0  0
    3.3336    0.5475    0.7231 C   0  0  0  0  0  0  0  0  0  0  0  0
    3.4216   -0.2996    1.4196 H   0  0  0  0  0  0  0  0  0  0  0  0
    2.1084    1.2373    0.6385 C   0  0  0  0  0  0  0  0  0  0  0  0
    1.0061    0.8222    1.4121 N   0  0  0  0  0  0  0  0  0  0  0  0
    0.4151    1.5828    1.7932 H   0  0  0  0  0  0  0  0  0  0  0  0
    1.2452    0.1371    2.1358 H   0  0  0  0  0  0  0  0  0  0  0  0
  1  4  1  0  0  0  0
  1  3  1  0  0  0  0
  2  1  1  0  0  0  0
  4  5  1  0  0  0  0
  5  7  2  0  0  0  0
  5  6  1  0  0  0  0
  7  8  1  0  0  0  0
  9 10  1  0  0  0  0
  9  7  1  0  0  0  0
 11  9  2  0  0  0  0
 12 11  1  0  0  0  0
 13 11  1  0  0  0  0
 13  4  2  0  0  0  0
 14 13  1  0  0  0  0
 15 14  1  0  0  0  0
 16 14  1  0  0  0  0
 17 14  1  0  0  0  0
 18 17  1  0  0  0  0
 19 22  1  0  0  0  0
 19 21  1  0  0  0  0
 19 17  1  0  0  0  0
 20 19  1  0  0  0  0
 22 25  1  0  0  0  0
 23 22  1  0  0  0  0
 24 22  1  0  0  0  0
 25 27  1  0  0  0  0
 26 25  1  0  0  0  0
 27 30  1  0  0  0  0
 27 28  1  0  0  0  0
 29 27  1  0  0  0  0
 30 39  1  0  0  0  0
 31 33  1  0  0  0  0
 31 30  2  0  0  0  0
 32 31  1  0  0  0  0
 33 35  2  0  0  0  0
 34 33  1  0  0  0  0
 35 36  1  0  0  0  0
 35 37  1  0  0  0  0
 37 38  1  0  0  0  0
 39 37  2  0  0  0  0
 39 40  1  0  0  0  0
 40 41  1  0  0  0  0
 40 42  1  0  0  0  0
M  END
