1,2,3,4
q = -2.0, confidence = 0.66

 67 74  0  0  0  0  0  0  0  0999 V2000
    1.4474   -1.9392   -0.4677 N   0  0  0  0  0  2  0  0  0  0  0  0
   -1.3021   -2.0387   -0.4596 N   0  0  0  0  0  0  0  0  0  0  0  0
   -1.3866    0.6641   -0.0766 N   0  0  0  0  0  0  0  0  0  0  0  0
    1.3554    0.7632   -0.0336 N   0  0  0  0  0  0  0  0  0  0  0  0
    2.7845   -1.7962   -0.1443 C   0  0  0  0  0  0  0  0  0  0  0  0
    3.5238   -2.9818   -0.5114 C   0  0  0  0  0  0  0  0  0  0  0  0
    4.6002   -3.1140   -0.3613 H   0  0  0  0  0  0  0  0  0  0  0  0
    2.6318   -3.8409   -1.1077 C   0  0  0  0  0  0  0  0  0  0  0  0
    2.8057   -4.8376   -1.5258 H   0  0  0  0  0  0  0  0  0  0  0  0
    1.3496   -3.1959   -1.0416 C   0  0  0  0  0  0  0  0  0  0  0  0
    0.1427   -3.8362   -1.3455 C   0  0  0  0  0  0  0  0  0  0  0  0
   -1.0969   -3.3227   -0.9309 C   0  0  0  0  0  0  0  0  0  0  0  0
   -2.2903   -4.1137   -0.8026 C   0  0  0  0  0  0  0  0  0  0  0  0
   -2.4007   -5.1785   -1.0467 H   0  0  0  0  0  0  0  0  0  0  0  0
   -3.2358   -3.3007   -0.2197 C   0  0  0  0  0  0  0  0  0  0  0  0
   -4.2587   -3.5572    0.0724 H   0  0  0  0  0  0  0  0  0  0  0  0
   -2.6280   -2.0042   -0.0568 C   0  0  0  0  0  0  0  0  0  0  0  0
   -3.3229   -0.8393    0.3219 C   0  0  0  0  0  0  0  0  0  0  0  0
   -2.7229    0.4213    0.2116 C   0  0  0  0  0  3  0  0  0  0  0  0
   -3.4645    1.6636    0.2338 C   0  0  0  0  0  0  0  0  0  0  0  0
   -4.5383    1.7425    0.4322 H   0  0  0  0  0  0  0  0  0  0  0  0
   -2.5785    2.6610   -0.0779 C   0  0  0  0  0  0  0  0  0  0  0  0
   -2.7632    3.7368   -0.1627 H   0  0  0  0  0  0  0  0  0  0  0  0
   -1.2828    2.0357   -0.2335 C   0  0  0  0  0  0  0  0  0  0  0  0
   -0.0842    2.7592   -0.3287 C   0  0  0  0  0  0  0  0  0  0  0  0
    1.1547    2.1306   -0.1308 C   0  0  0  0  0  0  0  0  0  0  0  0
    2.3890    2.8397    0.1251 C   0  0  0  0  0  0  0  0  0  0  0  0
    2.5037    3.9275    0.0887 H   0  0  0  0  0  0  0  0  0  0  0  0
    3.3279    1.8970    0.4523 C   0  0  0  0  0  0  0  0  0  0  0  0
    4.3721    2.0520    0.7406 H   0  0  0  0  0  0  0  0  0  0  0  0
    2.6965    0.6050    0.2963 C   0  0  0  0  0  0  0  0  0  0  0  0
    3.3890   -0.6117    0.3174 C   0  0  0  0  0  0  0  0  0  0  0  0
    0.2290   -5.0588   -1.9300 O   0  0  0  0  0  0  0  0  0  0  0  0
   -0.6749   -5.3616   -2.1364 H   0  0  0  0  0  0  0  0  0  0  0  0
   -4.7523   -0.9202    0.7355 C   0  0  0  0  0  0  0  0  0  0  0  0
   -5.7533   -1.3716   -0.1527 C   0  0  0  0  0  0  0  0  0  0  0  0
   -5.4701   -1.6631   -1.1751 H   0  0  0  0  0  0  0  0  0  0  0  0
   -7.0957   -1.4251    0.2499 C   0  0  0  0  0  0  0  0  0  0  0  0
   -7.8639   -1.7721   -0.4581 H   0  0  0  0  0  0  0  0  0  0  0  0
   -7.4615   -1.0269    1.5457 C   0  0  0  0  0  0  0  0  0  0  0  0
   -8.5152   -1.0691    1.8607 H   0  0  0  0  0  0  0  0  0  0  0  0
   -6.4764   -0.5695    2.4352 C   0  0  0  0  0  0  0  0  0  0  0  0
   -6.7544   -0.2549    3.4527 H   0  0  0  0  0  0  0  0  0  0  0  0
   -5.1339   -0.5148    2.0333 C   0  0  0  0  0  0  0  0  0  0  0  0
   -4.3593   -0.1599    2.7297 H   0  0  0  0  0  0  0  0  0  0  0  0
   -0.1567    4.2388   -0.5098 C   0  0  0  0  0  0  0  0  0  0  0  0
   -0.5869    4.7770   -1.7415 C   0  0  0  0  0  0  0  0  0  0  0  0
   -0.8458    4.0908   -2.5620 H   0  0  0  0  0  0  0  0  0  0  0  0
   -0.6796    6.1649   -1.9228 C   0  0  0  0  0  0  0  0  0  0  0  0
   -1.0126    6.5677   -2.8916 H   0  0  0  0  0  0  0  0  0  0  0  0
   -0.3457    7.0374   -0.8750 C   0  0  0  0  0  0  0  0  0  0  0  0
   -0.4183    8.1263   -1.0171 H   0  0  0  0  0  0  0  0  0  0  0  0
    0.0769    6.5132    0.3571 C   0  0  0  0  0  0  0  0  0  0  0  0
    0.3298    7.1903    1.1873 H   0  0  0  0  0  0  0  0  0  0  0  0
    0.1686    5.1253    0.5395 C   0  0  0  0  0  0  0  0  0  0  0  0
    0.4817    4.7134    1.5106 H   0  0  0  0  0  0  0  0  0  0  0  0
    4.8278   -0.6583    0.7067 C   0  0  0  0  0  0  0  0  0  0  0  0
    5.8216   -0.0128   -0.0608 C   0  0  0  0  0  0  0  0  0  0  0  0
    5.5259    0.5351   -0.9680 H   0  0  0  0  0  0  0  0  0  0  0  0
    7.1719   -0.0850    0.3120 C   0  0  0  0  0  0  0  0  0  0  0  0
    7.9345    0.4195   -0.3009 H   0  0  0  0  0  0  0  0  0  0  0  0
    7.5518   -0.8060    1.4553 C   0  0  0  0  0  0  0  0  0  0  0  0
    8.6115   -0.8621    1.7471 H   0  0  0  0  0  0  0  0  0  0  0  0
    6.5732   -1.4596    2.2208 C   0  0  0  0  0  0  0  0  0  0  0  0
    6.8626   -2.0280    3.1180 H   0  0  0  0  0  0  0  0  0  0  0  0
    5.2229   -1.3890    1.8482 C   0  0  0  0  0  0  0  0  0  0  0  0
    4.4537   -1.8992    2.4475 H   0  0  0  0  0  0  0  0  0  0  0  0
  1  5  1  0  0  0  0
  2 17  1  0  0  0  0
  3 19  1  0  0  0  0
  4 31  2  0  0  0  0
  5 32  2  0  0  0  0
  6  7  1  0  0  0  0
  6  5  1  0  0  0  0
  8 10  1  0  0  0  0
  8  6  2  0  0  0  0
  9  8  1  0  0  0  0
 10  1  1  0  0  0  0
 11 10  2  0  0  0  0
 11 12  1  0  0  0  0
 12 13  1  0  0  0  0
 12  2  2  0  0  0  0
 13 15  2  0  0  0  0
 14 13  1  0  0  0  0
 15 17  1  0  0  0  0
 15 16  1  0  0  0  0
 17 18  2  0  0  0  0
 18 35  1  0  0  0  0
 19 20  1  0  0  0  0
 19 18  1  0  0  0  0
 20 21  1  0  0  0  0
 22 20  2  0  0  0  0
 23 22  1  0  0  0  0
 24 22  1  0  0  0  0
 24  3  2  0  0  0  0
 25 24  1  0  0  0  0
 25 26  2  0  0  0  0
 26  4  1  0  0  0  0
 26 27  1  0  0  0  0
 27 29  2  0  0  0  0
 28 27  1  0  0  0  0
 29 30  1  0  0  0  0
 31 32  1  0  0  0  0
 31 29  1  0  0  0  0
 32 57  1  0  0  0  0
 33 11  1  0  0  0  0
 34 33  1  0  0  0  0
 35 44  1  0  0  0  0
 36 38  1  0  0  0  0
 36 35  2  0  0  0  0
 37 36  1  0  0  0  0
 38 40  2  0  0  0  0
 39 38  1  0  0  0  0
 40 41  1  0  0  0  0
 40 42  1  0  0  0  0
 42 43  1  0  0  0  0
 44 42  2  0  0  0  0
 44 45  1  0  0  0  0
 46 25  1  0  0  0  0
 46 55  1  0  0  0  0
 47 46  2  0  0  0  0
 48 47  1  0  0  0  0
 49 47  1  0  0  0  0
 49 51  2  0  0  0  0
 50 49  1  0  0  0  0
 51 53  1  0  0  0  0
 52 51  1  0  0  0  0
 53 55  2  0  0  0  0
 53 54  1  0  0  0  0
 55 56  1  0  0  0  0
 57 66  1  0  0  0  0
 58 60  1  0  0  0  0
 58 57  2  0  0  0  0
 59 58  1  0  0  0  0
 60 62  2  0  0  0  0
 61 60  1  0  0  0  0
 62 63  1  0  0  0  0
 62 64  1  0  0  0  0
 64 65  1  0  0  0  0
 66 64  2  0  0  0  0
 66 67  1  0  0  0  0
M  END
