1,2,3,4
q = -2.0, confidence = 0.786

 68 75  0  0  0  0  0  0  0  0999 V2000
    1.3979   -1.9968   -0.4689 N   0  0  0  0  0  0  0  0  0  0  0  0
   -1.3466   -2.0188   -0.4772 N   0  0  0  0  0  2  0  0  0  0  0  0
   -1.3610    0.6827   -0.0625 N   0  0  0  0  0  0  0  0  0  0  0  0
    1.3671    0.7149   -0.0676 N   0  0  0  0  0  0  0  0  0  0  0  0
    2.7170   -1.9069   -0.0511 C   0  0  0  0  0  0  0  0  0  0  0  0
    3.3854   -3.1695   -0.2356 C   0  0  0  0  0  0  0  0  0  0  0  0
    4.4138   -3.3877    0.0679 H   0  0  0  0  0  0  0  0  0  0  0  0
    2.4875   -4.0076   -0.8586 C   0  0  0  0  0  0  0  0  0  0  0  0
    2.6378   -5.0592   -1.1294 H   0  0  0  0  0  0  0  0  0  0  0  0
    1.2583   -3.2747   -0.9789 C   0  0  0  0  0  0  0  0  0  0  0  0
    0.0423   -3.8457   -1.4145 C   0  0  0  0  0  0  0  0  0  0  0  0
   -1.1904   -3.2825   -1.0179 C   0  0  0  0  0  0  0  0  0  0  0  0
   -2.4199   -4.0216   -0.9453 C   0  0  0  0  0  0  0  0  0  0  0  0
   -2.5637   -5.0648   -1.2504 H   0  0  0  0  0  0  0  0  0  0  0  0
   -3.3318   -3.2062   -0.3128 C   0  0  0  0  0  0  0  0  0  0  0  0
   -4.3650   -3.4366   -0.0355 H   0  0  0  0  0  0  0  0  0  0  0  0
   -2.6711   -1.9488   -0.0748 C   0  0  0  0  0  0  0  0  0  0  0  0
   -3.3176   -0.7785    0.3730 C   0  0  0  0  0  0  0  0  0  0  0  0
   -2.6862    0.4684    0.2939 C   0  0  0  0  0  0  0  0  0  0  0  0
   -3.3871    1.7308    0.3866 C   0  0  0  0  0  0  0  0  0  0  0  0
   -4.4443    1.8370    0.6506 H   0  0  0  0  0  0  0  0  0  0  0  0
   -2.4923    2.7087    0.0377 C   0  0  0  0  0  0  0  0  0  0  0  0
   -2.6515    3.7906   -0.0173 H   0  0  0  0  0  0  0  0  0  0  0  0
   -1.2272    2.0514   -0.2112 C   0  0  0  0  0  0  0  0  0  0  0  0
   -0.0173    2.7403   -0.4027 C   0  0  0  0  0  0  0  0  0  0  0  0
    1.2131    2.0791   -0.2589 C   0  0  0  0  0  0  0  0  0  0  0  0
    2.4922    2.7462   -0.1452 C   0  0  0  0  0  0  0  0  0  0  0  0
    2.6550    3.8173   -0.3002 H   0  0  0  0  0  0  0  0  0  0  0  0
    3.4098    1.7897    0.2038 C   0  0  0  0  0  0  0  0  0  0  0  0
    4.4835    1.9092    0.3819 H   0  0  0  0  0  0  0  0  0  0  0  0
    2.7103    0.5236    0.2233 C   0  0  0  0  0  3  0  0  0  0  0  0
    3.3567   -0.7136    0.3416 C   0  0  0  0  0  0  0  0  0  0  0  0
    0.0590   -5.0611   -2.0663 N   0  0  0  0  0  0  0  0  0  0  0  0
    0.9199   -5.3118   -2.5497 H   0  0  0  0  0  0  0  0  0  0  0  0
   -0.7896   -5.3309   -2.5608 H   0  0  0  0  0  0  0  0  0  0  0  0
   -4.7380   -0.8334    0.8222 C   0  0  0  0  0  0  0  0  0  0  0  0
   -5.0684   -0.4948    2.1525 C   0  0  0  0  0  0  0  0  0  0  0  0
   -4.2620   -0.2124    2.8460 H   0  0  0  0  0  0  0  0  0  0  0  0
   -6.4010   -0.5231    2.5893 C   0  0  0  0  0  0  0  0  0  0  0  0
   -6.6390   -0.2610    3.6316 H   0  0  0  0  0  0  0  0  0  0  0  0
   -7.4268   -0.8877    1.7031 C   0  0  0  0  0  0  0  0  0  0  0  0
   -8.4725   -0.9095    2.0455 H   0  0  0  0  0  0  0  0  0  0  0  0
   -7.1116   -1.2190    0.3755 C   0  0  0  0  0  0  0  0  0  0  0  0
   -7.9115   -1.4928   -0.3295 H   0  0  0  0  0  0  0  0  0  0  0  0
   -5.7794   -1.1909   -0.0621 C   0  0  0  0  0  0  0  0  0  0  0  0
   -5.5350   -1.4296   -1.1080 H   0  0  0  0  0  0  0  0  0  0  0  0
   -0.0634    4.2136   -0.6253 C   0  0  0  0  0  0  0  0  0  0  0  0
   -0.6451    4.7294   -1.8042 C   0  0  0  0  0  0  0  0  0  0  0  0
   -1.0397    4.0274   -2.5542 H   0  0  0  0  0  0  0  0  0  0  0  0
   -0.7145    6.1129   -2.0239 C   0  0  0  0  0  0  0  0  0  0  0  0
   -1.1663    6.4961   -2.9516 H   0  0  0  0  0  0  0  0  0  0  0  0
   -0.2062    7.0059   -1.0673 C   0  0  0  0  0  0  0  0  0  0  0  0
   -0.2605    8.0916   -1.2393 H   0  0  0  0  0  0  0  0  0  0  0  0
    0.3669    6.5059    0.1129 C   0  0  0  0  0  0  0  0  0  0  0  0
    0.7560    7.1994    0.8741 H   0  0  0  0  0  0  0  0  0  0  0  0
    0.4358    5.1224    0.3335 C   0  0  0  0  0  0  0  0  0  0  0  0
    0.8651    4.7318    1.2682 H   0  0  0  0  0  0  0  0  0  0  0  0
    4.7851   -0.7322    0.7656 C   0  0  0  0  0  0  0  0  0  0  0  0
    5.1386   -0.2979    2.0621 C   0  0  0  0  0  0  0  0  0  0  0  0
    4.3434    0.0290    2.7488 H   0  0  0  0  0  0  0  0  0  0  0  0
    6.4789   -0.2895    2.4750 C   0  0  0  0  0  0  0  0  0  0  0  0
    6.7345    0.0465    3.4916 H   0  0  0  0  0  0  0  0  0  0  0  0
    7.4905   -0.7109    1.5976 C   0  0  0  0  0  0  0  0  0  0  0  0
    8.5425   -0.7035    1.9209 H   0  0  0  0  0  0  0  0  0  0  0  0
    7.1529   -1.1361    0.3026 C   0  0  0  0  0  0  0  0  0  0  0  0
    7.9414   -1.4541   -0.3966 H   0  0  0  0  0  0  0  0  0  0  0  0
    5.8128   -1.1459   -0.1106 C   0  0  0  0  0  0  0  0  0  0  0  0
    5.5513   -1.4576   -1.1328 H   0  0  0  0  0  0  0  0  0  0  0  0
  1  5  1  0  0  0  0
  2 17  1  0  0  0  0
  3 19  2  0  0  0  0
  4 31  1  0  0  0  0
  5 32  2  0  0  0  0
  6  5  1  0  0  0  0
  6  7  1  0  0  0  0
  8  6  2  0  0  0  0
  9  8  1  0  0  0  0
 10  8  1  0  0  0  0
 10  1  2  0  0  0  0
 11 12  2  0  0  0  0
 11 10  1  0  0  0  0
 12 13  1  0  0  0  0
 12  2  1  0  0  0  0
 13 15  2  0  0  0  0
 14 13  1  0  0  0  0
 15 17  1  0  0  0  0
 15 16  1  0  0  0  0
 17 18  2  0  0  0  0
 18 36  1  0  0  0  0
 19 18  1  0  0  0  0
 19 20  1  0  0  0  0
 20 21  1  0  0  0  0
 22 20  2  0  0  0  0
 23 22  1  0  0  0  0
 24  3  1  0  0  0  0
 24 22  1  0  0  0  0
 25 26  1  0  0  0  0
 25 24  2  0  0  0  0
 26 27  1  0  0  0  0
 26  4  2  0  0  0  0
 27 29  2  0  0  0  0
 28 27  1  0  0  0  0
 29 31  1  0  0  0  0
 29 30  1  0  0  0  0
 31 32  1  0  0  0  0
 32 58  1  0  0  0  0
 33 11  1  0  0  0  0
 34 33  1  0  0  0  0
 35 33  1  0  0  0  0
 36 37  1  0  0  0  0
 37 39  2  0  0  0  0
 37 38  1  0  0  0  0
 39 40  1  0  0  0  0
 41 42  1  0  0  0  0
 41 39  1  0  0  0  0
 43 41  2  0  0  0  0
 44 43  1  0  0  0  0
 45 43  1  0  0  0  0
 45 36  2  0  0  0  0
 46 45  1  0  0  0  0
 47 25  1  0  0  0  0
 47 56  1  0  0  0  0
 48 47  2  0  0  0  0
 49 48  1  0  0  0  0
 50 48  1  0  0  0  0
 50 52  2  0  0  0  0
 51 50  1  0  0  0  0
 52 54  1  0  0  0  0
 53 52  1  0  0  0  0
 54 56  2  0  0  0  0
 54 55  1  0  0  0  0
 56 57  1  0  0  0  0
 58 59  1  0  0  0  0
 59 61  2  0  0  0  0
 59 60  1  0  0  0  0
 61 62  1  0  0  0  0
 63 64  1  0  0  0  0
 63 61  1  0  0  0  0
 65 63  2  0  0  0  0
 66 65  1  0  0  0  0
 67 65  1  0  0  0  0
 67 58  2  0  0  0  0
 68 67  1  0  0  0  0
M  END
