1,4,6,7
q = 0.0, confidence = 0.982

 38 37  0  0  1  0  0  0  0  0999 V2000
    0.6546   -2.4843   -0.0312 N   0  0  0  0  0  0  0  0  0  0  0  0
    1.3005   -2.8779   -0.7311 H   0  0  0  0  0  0  0  0  0  0  0  0
    0.9814   -2.7317    0.9185 H   0  0  0  0  0  0  0  0  0  0  0  0
   -1.3315   -0.6887   -0.2449 N   0  0  0  0  0  0  0  0  0  0  0  0
   -1.3174   -0.8030   -1.2778 H   0  0  0  0  0  0  0  0  0  0  0  0
    0.6462    1.4203    0.0692 N   0  0  0  0  0  2  0  0  0  0  0  0
    2.6017   -0.4006    0.0483 N   0  0  0  0  0  0  0  0  0  0  0  0
    2.8589   -0.7084    1.0020 H   0  0  0  0  0  0  0  0  0  0  0  0
    3.0566   -1.0126   -0.6447 H   0  0  0  0  0  0  0  0  0  0  0  0
   -0.7196   -3.0023   -0.2550 C   0  0  0  0  0  0  0  0  0  0  0  0
   -0.8534   -4.0132    0.1802 H   0  0  0  0  0  0  0  0  0  0  0  0
   -0.8721   -3.0780   -1.3508 H   0  0  0  0  0  0  0  0  0  0  0  0
   -1.6953   -1.9997    0.3415 C   0  0  0  0  0  0  0  0  0  0  0  0
   -2.7410   -2.2831    0.1034 H   0  0  0  0  0  0  0  0  0  0  0  0
   -1.5788   -1.9378    1.4409 H   0  0  0  0  0  0  0  0  0  0  0  0
   -2.2414    0.4799    0.0139 C   0  0  0  0  0  0  0  0  0  0  0  0
   -1.6227    1.6714   -0.7514 C   0  0  0  0  0  0  0  0  0  0  0  0
   -1.4286    1.3684   -1.8062 H   0  0  0  0  0  0  0  0  0  0  0  0
   -2.3723    2.4835   -0.7903 H   0  0  0  0  0  0  0  0  0  0  0  0
   -0.3263    2.2273   -0.2180 C   0  0  2  0  0  3  0  0  0  0  0  0
    1.9641    1.8737    0.5331 C   0  0  0  0  0  0  0  0  0  0  0  0
    2.0048    1.7130    1.6320 H   0  0  0  0  0  0  0  0  0  0  0  0
    2.1484    2.9440    0.3263 H   0  0  0  0  0  0  0  0  0  0  0  0
    2.9957    1.0098   -0.1737 C   0  0  0  0  0  0  0  0  0  0  0  0
    2.9597    1.1946   -1.2651 H   0  0  0  0  0  0  0  0  0  0  0  0
    4.0222    1.2151    0.1937 H   0  0  0  0  0  0  0  0  0  0  0  0
   -3.6217    0.1896   -0.6062 C   0  0  0  0  0  0  0  0  0  0  0  0
   -4.1313   -0.6517   -0.0988 H   0  0  0  0  0  0  0  0  0  0  0  0
   -3.5440   -0.0418   -1.6886 H   0  0  0  0  0  0  0  0  0  0  0  0
   -4.2764    1.0756   -0.4975 H   0  0  0  0  0  0  0  0  0  0  0  0
   -2.3757    0.7797    1.5086 C   0  0  0  0  0  0  0  0  0  0  0  0
   -2.9050   -0.0367    2.0374 H   0  0  0  0  0  0  0  0  0  0  0  0
   -2.9787    1.6987    1.6441 H   0  0  0  0  0  0  0  0  0  0  0  0
   -1.3904    0.9108    1.9933 H   0  0  0  0  0  0  0  0  0  0  0  0
   -0.2777    3.7202   -0.0807 C   0  0  0  0  0  0  0  0  0  0  0  0
   -1.0087    4.0239    0.6994 H   0  0  0  0  0  0  0  0  0  0  0  0
   -0.6210    4.1911   -1.0249 H   0  0  0  0  0  0  0  0  0  0  0  0
    0.7057    4.1378    0.1902 H   0  0  0  0  0  0  0  0  0  0  0  0
  1  3  1  0  0  0  0
  2  1  1  0  0  0  0
  4 16  1  0  0  0  0
  4 13  1  0  0  0  0
  5  4  1  0  0  0  0
  6 21  1  0  0  0  0
  7  8  1  0  0  0  0
  9  7  1  0  0  0  0
 10  1  1  0  0  0  0
 10 11  1  0  0  0  0
 10 13  1  0  0  0  0
 12 10  1  0  0  0  0
 13 15  1  0  0  0  0
 14 13  1  0  0  0  0
 16 31  1  0  0  0  0
 17 20  1  0  0  0  0
 17 16  1  0  0  0  0
 18 17  1  0  0  0  0
 19 17  1  0  0  0  0
 20 35  1  0  0  0  0
 20  6  1  6  0  0  0
 21 22  1  0  0  0  0
 23 21  1  0  0  0  0
 24  7  1  0  0  0  0
 24 26  1  0  0  0  0
 24 21  1  0  0  0  0
 25 24  1  0  0  0  0
 27 30  1  0  0  0  0
 27 28  1  0  0  0  0
 27 16  1  0  0  0  0
 29 27  1  0  0  0  0
 31 33  1  0  0  0  0
 31 34  1  0  0  0  0
 31 32  1  0  0  0  0
 35 38  1  0  0  0  0
 35 36  1  0  0  0  0
 37 35  1  0  0  0  0
M  END
