73,74,75,76
q = 0.0, confidence = 0.986

 77 80  0  0  1  0  0  0  0  0999 V2000
   -2.2464    0.2963   -2.8057 C   0  0  0  0  0  0  0  0  0  0  0  0
   -2.7268    1.2432   -2.4939 H   0  0  0  0  0  0  0  0  0  0  0  0
   -2.7569   -0.0063   -3.7548 H   0  0  0  0  0  0  0  0  0  0  0  0
   -0.7761    0.5719   -3.1237 C   0  0  0  0  0  0  0  0  0  0  0  0
   -0.2744   -0.3779   -3.3975 H   0  0  0  0  0  0  0  0  0  0  0  0
   -0.7400    1.2148   -4.0413 H   0  0  0  0  0  0  0  0  0  0  0  0
    1.4375    1.0497   -2.2551 C   0  0  0  0  0  0  0  0  0  0  0  0
    1.9424    1.7653   -1.5808 H   0  0  0  0  0  0  0  0  0  0  0  0
    1.7131    1.3600   -3.2948 H   0  0  0  0  0  0  0  0  0  0  0  0
    2.0046   -0.3489   -2.0029 C   0  0  0  0  0  0  0  0  0  0  0  0
    1.5537   -1.0716   -2.7127 H   0  0  0  0  0  0  0  0  0  0  0  0
    3.0944   -0.3160   -2.2552 H   0  0  0  0  0  0  0  0  0  0  0  0
    1.8798   -2.3039   -0.5562 C   0  0  0  0  0  0  0  0  0  0  0  0
    1.9132   -2.5626    0.5214 H   0  0  0  0  0  0  0  0  0  0  0  0
    2.8232   -2.6856   -1.0196 H   0  0  0  0  0  0  0  0  0  0  0  0
    0.6960   -3.0812   -1.1732 C   0  0  1  0  0  0  0  0  0  0  0  0
    0.5985   -2.7987   -2.2463 H   0  0  0  0  0  0  0  0  0  0  0  0
   -1.8123   -3.1125   -1.1470 C   0  0  2  0  0  0  0  0  0  0  0  0
   -1.6607   -4.0394   -1.7549 H   0  0  0  0  0  0  0  0  0  0  0  0
   -2.2772   -2.0703   -2.2016 C   0  0  0  0  0  0  0  0  0  0  0  0
   -1.4891   -2.0377   -2.9810 H   0  0  0  0  0  0  0  0  0  0  0  0
   -3.1921   -2.4646   -2.7108 H   0  0  0  0  0  0  0  0  0  0  0  0
    0.9892   -4.5874   -1.0986 C   0  0  0  0  0  0  0  0  0  0  0  0
    1.1363   -4.8975   -0.0432 H   0  0  0  0  0  0  0  0  0  0  0  0
    1.9060   -4.8511   -1.6643 H   0  0  0  0  0  0  0  0  0  0  0  0
    0.1547   -5.1849   -1.5166 H   0  0  0  0  0  0  0  0  0  0  0  0
   -2.8377   -3.4609   -0.0658 C   0  0  0  0  0  0  0  0  0  0  0  0
   -2.5140   -4.3704    0.4788 H   0  0  0  0  0  0  0  0  0  0  0  0
   -3.8351   -3.6639   -0.5036 H   0  0  0  0  0  0  0  0  0  0  0  0
   -2.9225   -2.6579    0.6930 H   0  0  0  0  0  0  0  0  0  0  0  0
   -3.8322   -0.4779   -1.1474 C   0  0  0  0  0  0  0  0  0  0  0  0
   -4.0701   -1.3639   -0.5350 H   0  0  0  0  0  0  0  0  0  0  0  0
   -4.6057   -0.4201   -1.9538 H   0  0  0  0  0  0  0  0  0  0  0  0
   -3.8872    0.7556   -0.2744 C   0  0  0  0  0  0  0  0  0  0  0  0
   -3.3700    0.7001    1.0370 C   0  0  0  0  0  0  0  0  0  0  0  0
   -2.9951   -0.2479    1.4552 H   0  0  0  0  0  0  0  0  0  0  0  0
   -3.3446    1.8493    1.8414 C   0  0  0  0  0  0  0  0  0  0  0  0
   -2.9288    1.7801    2.8576 H   0  0  0  0  0  0  0  0  0  0  0  0
   -3.8312    3.0701    1.3467 C   0  0  0  0  0  0  0  0  0  0  0  0
   -3.8015    3.9731    1.9750 H   0  0  0  0  0  0  0  0  0  0  0  0
   -4.3642    3.1326    0.0496 C   0  0  0  0  0  0  0  0  0  0  0  0
   -4.7612    4.0825   -0.3400 H   0  0  0  0  0  0  0  0  0  0  0  0
   -4.3956    1.9794   -0.7527 C   0  0  0  0  0  0  0  0  0  0  0  0
   -4.8314    2.0285   -1.7643 H   0  0  0  0  0  0  0  0  0  0  0  0
   -0.4004    2.5894   -1.7906 C   0  0  0  0  0  0  0  0  0  0  0  0
   -1.4965    2.6110   -1.6244 H   0  0  0  0  0  0  0  0  0  0  0  0
   -0.1872    3.2144   -2.6951 H   0  0  0  0  0  0  0  0  0  0  0  0
    0.2965    3.1750   -0.5835 C   0  0  0  0  0  0  0  0  0  0  0  0
   -0.0551    2.7357    0.7074 C   0  0  0  0  0  0  0  0  0  0  0  0
   -0.8932    2.0330    0.8355 H   0  0  0  0  0  0  0  0  0  0  0  0
    0.6582    3.1697    1.8336 C   0  0  0  0  0  0  0  0  0  0  0  0
    0.3812    2.7840    2.8256 H   0  0  0  0  0  0  0  0  0  0  0  0
    1.7229    4.0731    1.6837 C   0  0  0  0  0  0  0  0  0  0  0  0
    2.2885    4.4119    2.5650 H   0  0  0  0  0  0  0  0  0  0  0  0
    2.0633    4.5444    0.4052 C   0  0  0  0  0  0  0  0  0  0  0  0
    2.8909    5.2597    0.2822 H   0  0  0  0  0  0  0  0  0  0  0  0
    1.3548    4.0945   -0.7211 C   0  0  0  0  0  0  0  0  0  0  0  0
    1.6346    4.4510   -1.7259 H   0  0  0  0  0  0  0  0  0  0  0  0
    2.4888   -0.1120    0.4162 C   0  0  0  0  0  0  0  0  0  0  0  0
    2.2061   -0.5931    1.3725 H   0  0  0  0  0  0  0  0  0  0  0  0
    2.0786    0.9165    0.4646 H   0  0  0  0  0  0  0  0  0  0  0  0
    3.9954   -0.0483    0.2540 C   0  0  0  0  0  0  0  0  0  0  0  0
    4.8134   -1.1580    0.5555 C   0  0  0  0  0  0  0  0  0  0  0  0
    4.3581   -2.0676    0.9759 H   0  0  0  0  0  0  0  0  0  0  0  0
    6.2000   -1.1067    0.3503 C   0  0  0  0  0  0  0  0  0  0  0  0
    6.8227   -1.9801    0.5982 H   0  0  0  0  0  0  0  0  0  0  0  0
    6.7962    0.0599   -0.1562 C   0  0  0  0  0  0  0  0  0  0  0  0
    7.8848    0.1011   -0.3140 H   0  0  0  0  0  0  0  0  0  0  0  0
    5.9977    1.1771   -0.4452 C   0  0  0  0  0  0  0  0  0  0  0  0
    6.4588    2.1014   -0.8262 H   0  0  0  0  0  0  0  0  0  0  0  0
    4.6104    1.1206   -0.2396 C   0  0  0  0  0  0  0  0  0  0  0  0
    3.9889    2.0083   -0.4438 H   0  0  0  0  0  0  0  0  0  0  0  0
   -2.4897   -0.6902   -1.7430 N   0  0  0  0  0  0  0  0  0  0  0  0
   -0.0094    1.1819   -2.0335 N   0  0  0  0  0  0  0  0  0  0  0  0
    1.7729   -0.8492   -0.6515 N   0  0  0  0  0  0  0  0  0  0  0  0
   -0.5569   -2.7066   -0.5124 N   0  0  0  0  0  0  0  0  0  0  0  0
   -0.5124   -2.9716    0.4848 H   0  0  0  0  0  0  0  0  0  0  0  0
  1  2  1  0  0  0  0
  1 73  1  0  0  0  0
  3  1  1  0  0  0  0
  4  1  1  0  0  0  0
  4 74  1  0  0  0  0
  5  4  1  0  0  0  0
  6  4  1  0  0  0  0
  7 74  1  0  0  0  0
  7 10  1  0  0  0  0
  7  8  1  0  0  0  0
  9  7  1  0  0  0  0
 10 75  1  0  0  0  0
 11 10  1  0  0  0  0
 12 10  1  0  0  0  0
 13 14  1  0  0  0  0
 15 13  1  0  0  0  0
 16 17  1  6  0  0  0
 16 23  1  0  0  0  0
 16 13  1  0  0  0  0
 16 76  1  0  0  0  0
 18 19  1  6  0  0  0
 18 76  1  0  0  0  0
 18 27  1  0  0  0  0
 20 73  1  0  0  0  0
 20 18  1  0  0  0  0
 21 20  1  0  0  0  0
 22 20  1  0  0  0  0
 23 24  1  0  0  0  0
 25 23  1  0  0  0  0
 26 23  1  0  0  0  0
 27 28  1  0  0  0  0
 27 30  1  0  0  0  0
 29 27  1  0  0  0  0
 31 32  1  0  0  0  0
 31 34  1  0  0  0  0
 33 31  1  0  0  0  0
 34 35  1  0  0  0  0
 35 36  1  0  0  0  0
 35 37  2  0  0  0  0
 37 38  1  0  0  0  0
 39 37  1  0  0  0  0
 39 40  1  0  0  0  0
 41 39  2  0  0  0  0
 42 41  1  0  0  0  0
 43 34  2  0  0  0  0
 43 41  1  0  0  0  0
 44 43  1  0  0  0  0
 45 46  1  0  0  0  0
 45 48  1  0  0  0  0
 47 45  1  0  0  0  0
 48 49  1  0  0  0  0
 49 50  1  0  0  0  0
 49 51  2  0  0  0  0
 51 52  1  0  0  0  0
 53 51  1  0  0  0  0
 53 54  1  0  0  0  0
 55 53  2  0  0  0  0
 56 55  1  0  0  0  0
 57 48  2  0  0  0  0
 57 55  1  0  0  0  0
 58 57  1  0  0  0  0
 59 61  1  0  0  0  0
 59 60  1  0  0  0  0
 62 59  1  0  0  0  0
 62 63  1  0  0  0  0
 63 64  1  0  0  0  0
 65 63  2  0  0  0  0
 65 66  1  0  0  0  0
 67 65  1  0  0  0  0
 68 67  1  0  0  0  0
 69 71  1  0  0  0  0
 69 67  2  0  0  0  0
 70 69  1  0  0  0  0
 71 62  2  0  0  0  0
 72 71  1  0  0  0  0
 73 31  1  0  0  0  0
 74 45  1  0  0  0  0
 75 13  1  0  0  0  0
 75 59  1  0  0  0  0
 76 77  1  0  0  0  0
M  END
