3,5,7,9
q = -2.0, confidence = 0.818

 30 29  0  0  0  0  0  0  0  0999 V2000
    3.3366   -2.4317   -0.3644 O   0  0  0  0  0  0  0  0  0  0  0  0
   -3.3370   -2.4322    0.3602 O   0  0  0  0  0  0  0  0  0  0  0  0
    1.2968   -1.4052   -0.1771 N   0  0  0  0  0  2  0  0  0  0  0  0
    0.9601   -2.3650   -0.3391 H   0  0  0  0  0  0  0  0  0  0  0  0
   -1.2971   -1.4048    0.1794 N   0  0  0  0  0  2  0  0  0  0  0  0
   -0.9605   -2.3651    0.3390 H   0  0  0  0  0  0  0  0  0  0  0  0
   -1.3609    1.3595    0.1008 N   0  0  0  0  0  0  0  0  0  0  0  0
   -1.6193    1.4266    1.0992 H   0  0  0  0  0  0  0  0  0  0  0  0
    1.3613    1.3588   -0.1012 N   0  0  0  0  0  0  0  0  0  0  0  0
    1.6208    1.4242   -1.0995 H   0  0  0  0  0  0  0  0  0  0  0  0
    2.6528   -1.4140   -0.1837 C   0  0  0  0  0  0  0  0  0  0  0  0
    3.3736   -0.0666   -0.0047 C   0  0  0  0  0  0  0  0  0  0  0  0
    4.2971   -0.2758    0.5695 H   0  0  0  0  0  0  0  0  0  0  0  0
    3.7204    0.2613   -1.0117 H   0  0  0  0  0  0  0  0  0  0  0  0
    2.5955    1.0537    0.6629 C   0  0  0  0  0  0  0  0  0  0  0  0
    2.2860    0.7641    1.6881 H   0  0  0  0  0  0  0  0  0  0  0  0
    3.2210    1.9738    0.7467 H   0  0  0  0  0  0  0  0  0  0  0  0
    0.6980    2.6180    0.2993 C   0  0  0  0  0  0  0  0  0  0  0  0
    1.2820    3.5155   -0.0052 H   0  0  0  0  0  0  0  0  0  0  0  0
    0.6382    2.6285    1.4079 H   0  0  0  0  0  0  0  0  0  0  0  0
   -0.6972    2.6176   -0.3023 C   0  0  0  0  0  0  0  0  0  0  0  0
   -0.6374    2.6259   -1.4109 H   0  0  0  0  0  0  0  0  0  0  0  0
   -1.2809    3.5159    0.0005 H   0  0  0  0  0  0  0  0  0  0  0  0
   -2.5960    1.0542   -0.6616 C   0  0  0  0  0  0  0  0  0  0  0  0
   -2.2878    0.7643   -1.6871 H   0  0  0  0  0  0  0  0  0  0  0  0
   -3.2215    1.9744   -0.7449 H   0  0  0  0  0  0  0  0  0  0  0  0
   -3.3734   -0.0659    0.0072 C   0  0  0  0  0  0  0  0  0  0  0  0
   -4.2985   -0.2740   -0.5648 H   0  0  0  0  0  0  0  0  0  0  0  0
   -3.7173    0.2618    1.0153 H   0  0  0  0  0  0  0  0  0  0  0  0
   -2.6530   -1.4139    0.1833 C   0  0  0  0  0  0  0  0  0  0  0  0
  1 11  2  0  0  0  0
  4  3  1  0  0  0  0
  5 30  1  0  0  0  0
  5  6  1  0  0  0  0
  7  8  1  0  0  0  0
  9 18  1  0  0  0  0
  9 15  1  0  0  0  0
 10  9  1  0  0  0  0
 11  3  1  0  0  0  0
 11 12  1  0  0  0  0
 12 13  1  0  0  0  0
 12 15  1  0  0  0  0
 14 12  1  0  0  0  0
 15 17  1  0  0  0  0
 15 16  1  0  0  0  0
 18 20  1  0  0  0  0
 19 18  1  0  0  0  0
 21 23  1  0  0  0  0
 21  7  1  0  0  0  0
 21 18  1  0  0  0  0
 22 21  1  0  0  0  0
 24 27  1  0  0  0  0
 24  7  1  0  0  0  0
 25 24  1  0  0  0  0
 26 24  1  0  0  0  0
 27 30  1  0  0  0  0
 27 29  1  0  0  0  0
 28 27  1  0  0  0  0
 30  2  2  0  0  0  0
M  END
