1,2,3,4
q = 0.0, confidence = 0.998

 62 65  0  0  1  0  0  0  0  0999 V2000
    0.1750    0.0677   -1.4691 N   0  0  0  0  0  0  0  0  0  0  0  0
   -0.0366    0.0301    1.5588 N   0  0  0  0  0  0  0  0  0  0  0  0
   -1.9080   -1.4796   -0.6171 N   0  0  0  0  0  2  0  0  0  0  0  0
   -0.7489    2.4699   -0.5402 N   0  0  0  0  0  2  0  0  0  0  0  0
    3.6152   -0.9506    0.0953 O   0  0  0  0  0  0  0  0  0  0  0  0
    3.7112    2.2099   -0.7632 O   0  0  0  0  0  0  0  0  0  0  0  0
    3.6802    1.8349    1.4677 O   0  0  0  0  0  0  0  0  0  0  0  0
    1.7992   -3.7259    1.1617 O   0  0  0  0  0  0  0  0  0  0  0  0
    2.3440   -3.4030   -1.0153 O   0  0  0  0  0  0  0  0  0  0  0  0
   -1.9543   -1.8661    2.9475 O   0  0  0  0  0  0  0  0  0  0  0  0
    1.1766    1.0902   -1.1484 C   0  0  2  0  0  0  0  0  0  0  0  0
    1.9721    1.1457   -1.9274 H   0  0  0  0  0  0  0  0  0  0  0  0
    1.9452    0.8196    0.1897 C   0  0  1  0  0  0  0  0  0  0  0  0
    1.1015    0.9699    1.4816 C   0  0  0  0  0  0  0  0  0  0  0  0
    1.7886    0.8105    2.3434 H   0  0  0  0  0  0  0  0  0  0  0  0
    0.7155    2.0054    1.5574 H   0  0  0  0  0  0  0  0  0  0  0  0
    0.4624   -1.3559    1.4126 C   0  0  0  0  0  0  0  0  0  0  0  0
   -0.3882   -2.0551    1.4793 H   0  0  0  0  0  0  0  0  0  0  0  0
    1.1344   -1.6108    2.2646 H   0  0  0  0  0  0  0  0  0  0  0  0
    1.2633   -1.5963    0.1117 C   0  0  1  0  0  0  0  0  0  0  0  0
    0.4628   -1.3459   -1.2116 C   0  0  1  0  0  0  0  0  0  0  0  0
    1.0880   -1.7801   -2.0252 H   0  0  0  0  0  0  0  0  0  0  0  0
    2.4442   -0.6294    0.1204 C   0  0  0  0  0  0  0  0  0  0  0  0
   -0.3146    0.2410   -2.8404 C   0  0  0  0  0  0  0  0  0  0  0  0
   -0.6766    1.2755   -2.9872 H   0  0  0  0  0  0  0  0  0  0  0  0
   -1.1622   -0.4445   -3.0270 H   0  0  0  0  0  0  0  0  0  0  0  0
    0.4822    0.0340   -3.5950 H   0  0  0  0  0  0  0  0  0  0  0  0
    0.4884    2.4540   -1.0846 C   0  0  2  0  0  3  0  0  0  0  0  0
   -1.3877    3.6477   -0.4107 C   0  0  0  0  0  0  0  0  0  0  0  0
   -2.3905    3.6052    0.0452 H   0  0  0  0  0  0  0  0  0  0  0  0
   -0.8328    4.8632   -0.8281 C   0  0  0  0  0  0  0  0  0  0  0  0
   -1.3969    5.7993   -0.7076 H   0  0  0  0  0  0  0  0  0  0  0  0
    0.4457    4.8491   -1.4056 C   0  0  0  0  0  0  0  0  0  0  0  0
    0.9149    5.7806   -1.7553 H   0  0  0  0  0  0  0  0  0  0  0  0
    1.1179    3.6258   -1.5347 C   0  0  0  0  0  0  0  0  0  0  0  0
    2.1270    3.5640   -1.9646 H   0  0  0  0  0  0  0  0  0  0  0  0
    3.1985    1.7167    0.2228 C   0  0  0  0  0  0  0  0  0  0  0  0
    4.9331    2.5371    1.5901 C   0  0  0  0  0  0  0  0  0  0  0  0
    5.7258    1.9903    1.0436 H   0  0  0  0  0  0  0  0  0  0  0  0
    5.1562    2.5705    2.6700 H   0  0  0  0  0  0  0  0  0  0  0  0
    4.8475    3.5588    1.1723 H   0  0  0  0  0  0  0  0  0  0  0  0
   -0.6800    0.1923    2.8886 C   0  0  0  0  0  0  0  0  0  0  0  0
    0.0071   -0.1860    3.6841 H   0  0  0  0  0  0  0  0  0  0  0  0
   -0.8149    1.2801    3.0568 H   0  0  0  0  0  0  0  0  0  0  0  0
   -2.0471   -0.4561    3.0475 C   0  0  0  0  0  0  0  0  0  0  0  0
   -2.4293   -0.1376    4.0475 H   0  0  0  0  0  0  0  0  0  0  0  0
   -2.7305   -0.0289    2.2751 H   0  0  0  0  0  0  0  0  0  0  0  0
    1.8119   -3.0340    0.1656 C   0  0  0  0  0  0  0  0  0  0  0  0
    3.0213   -4.6746   -1.0196 C   0  0  0  0  0  0  0  0  0  0  0  0
    3.8860   -4.6439   -0.3288 H   0  0  0  0  0  0  0  0  0  0  0  0
    3.3602   -4.8340   -2.0575 H   0  0  0  0  0  0  0  0  0  0  0  0
    2.3357   -5.4826   -0.6972 H   0  0  0  0  0  0  0  0  0  0  0  0
   -0.8475   -2.1302   -1.1398 C   0  0  1  0  0  3  0  0  0  0  0  0
   -3.0606   -2.1493   -0.4387 C   0  0  0  0  0  0  0  0  0  0  0  0
   -3.8924   -1.5671   -0.0074 H   0  0  0  0  0  0  0  0  0  0  0  0
   -3.2164   -3.4973   -0.7826 C   0  0  0  0  0  0  0  0  0  0  0  0
   -4.1797   -4.0028   -0.6234 H   0  0  0  0  0  0  0  0  0  0  0  0
   -2.1227   -4.1731   -1.3444 C   0  0  0  0  0  0  0  0  0  0  0  0
   -2.2063   -5.2293   -1.6403 H   0  0  0  0  0  0  0  0  0  0  0  0
   -0.9194   -3.4776   -1.5271 C   0  0  0  0  0  0  0  0  0  0  0  0
   -0.0380   -3.9651   -1.9673 H   0  0  0  0  0  0  0  0  0  0  0  0
   -2.8265   -2.2457    3.1537 H   0  0  0  0  0  0  0  0  0  0  0  0
  1 21  1  0  0  0  0
  1 11  1  0  0  0  0
  2 42  1  0  0  0  0
  3 54  1  0  0  0  0
  4 29  1  0  0  0  0
  5 23  2  0  0  0  0
  6 37  2  0  0  0  0
  7 38  1  0  0  0  0
  9 48  1  0  0  0  0
 10 45  1  0  0  0  0
 10 62  1  0  0  0  0
 11 12  1  6  0  0  0
 11 28  1  0  0  0  0
 11 13  1  0  0  0  0
 13 37  1  1  0  0  0
 13 14  1  0  0  0  0
 14 16  1  0  0  0  0
 14  2  1  0  0  0  0
 14 15  1  0  0  0  0
 17 18  1  0  0  0  0
 17  2  1  0  0  0  0
 17 19  1  0  0  0  0
 20 23  1  0  0  0  0
 20 48  1  6  0  0  0
 20 17  1  0  0  0  0
 21 22  1  6  0  0  0
 21 53  1  0  0  0  0
 21 20  1  0  0  0  0
 23 13  1  0  0  0  0
 24  1  1  0  0  0  0
 25 24  1  0  0  0  0
 26 24  1  0  0  0  0
 27 24  1  0  0  0  0
 28 35  1  1  0  0  0
 28  4  1  0  0  0  0
 29 30  1  0  0  0  0
 31 32  1  0  0  0  0
 31 29  2  0  0  0  0
 33 31  1  0  0  0  0
 34 33  1  0  0  0  0
 35 33  2  0  0  0  0
 36 35  1  0  0  0  0
 37  7  1  0  0  0  0
 38 40  1  0  0  0  0
 39 38  1  0  0  0  0
 41 38  1  0  0  0  0
 42 45  1  0  0  0  0
 42 44  1  0  0  0  0
 42 43  1  0  0  0  0
 45 46  1  0  0  0  0
 47 45  1  0  0  0  0
 48  8  2  0  0  0  0
 49  9  1  0  0  0  0
 49 52  1  0  0  0  0
 49 50  1  0  0  0  0
 51 49  1  0  0  0  0
 53 60  1  1  0  0  0
 53  3  1  0  0  0  0
 54 55  1  0  0  0  0
 56 57  1  0  0  0  0
 56 54  2  0  0  0  0
 58 56  1  0  0  0  0
 59 58  1  0  0  0  0
 60 58  2  0  0  0  0
 61 60  1  0  0  0  0
M  END
