1,2,3,4
q = 0.0, confidence = 0.986

 55 58  0  0  1  0  0  0  0  0999 V2000
    1.4926    1.9185   -0.2581 N   0  0  0  0  0  2  0  0  0  0  0  0
    1.4450   -0.8445   -0.2324 N   0  0  0  0  0  2  0  0  0  0  0  0
   -1.5445   -1.1409    0.5463 N   0  0  0  0  0  2  0  0  0  0  0  0
   -1.9147    1.1773   -0.8654 N   0  0  0  0  0  2  0  0  0  0  0  0
    1.4723    3.2591   -0.3172 C   0  0  0  0  0  3  0  0  0  0  0  0
    0.6121    3.7653    0.1536 H   0  0  0  0  0  0  0  0  0  0  0  0
    2.4918    3.9992   -0.9373 C   0  0  0  0  0  0  0  0  0  0  0  0
    2.4294    5.0963   -0.9648 H   0  0  0  0  0  0  0  0  0  0  0  0
    3.5763    3.3057   -1.4881 C   0  0  0  0  0  0  0  0  0  0  0  0
    4.4059    3.8469   -1.9674 H   0  0  0  0  0  0  0  0  0  0  0  0
    3.6003    1.9069   -1.4121 C   0  0  0  0  0  0  0  0  0  0  0  0
    4.4447    1.3339   -1.8171 H   0  0  0  0  0  0  0  0  0  0  0  0
    2.5252    1.2298   -0.7995 C   0  0  0  0  0  0  0  0  0  0  0  0
    2.5057   -0.2637   -0.6938 C   0  0  1  0  0  3  0  0  0  0  0  0
    3.7449   -1.0069   -1.0894 C   0  0  0  0  0  0  0  0  0  0  0  0
    4.5871   -1.5473   -0.0941 C   0  0  0  0  0  0  0  0  0  0  0  0
    4.3276   -1.4241    0.9712 H   0  0  0  0  0  0  0  0  0  0  0  0
    5.7364   -2.2606   -0.4660 C   0  0  0  0  0  0  0  0  0  0  0  0
    6.3873   -2.6797    0.3162 H   0  0  0  0  0  0  0  0  0  0  0  0
    6.0529   -2.4449   -1.8213 C   0  0  0  0  0  0  0  0  0  0  0  0
    6.9557   -3.0062   -2.1063 H   0  0  0  0  0  0  0  0  0  0  0  0
    5.2122   -1.9161   -2.8139 C   0  0  0  0  0  0  0  0  0  0  0  0
    5.4506   -2.0649   -3.8781 H   0  0  0  0  0  0  0  0  0  0  0  0
    4.0634   -1.1972   -2.4510 C   0  0  0  0  0  0  0  0  0  0  0  0
    3.4010   -0.7849   -3.2283 H   0  0  0  0  0  0  0  0  0  0  0  0
    1.4177   -2.2801   -0.0244 C   0  0  0  0  0  0  0  0  0  0  0  0
    1.8709   -2.4753    0.9816 H   0  0  0  0  0  0  0  0  0  0  0  0
    2.0814   -2.8029   -0.7492 H   0  0  0  0  0  0  0  0  0  0  0  0
    0.0275   -2.9177   -0.0769 C   0  0  0  0  0  0  0  0  0  0  0  0
    0.1752   -4.0041    0.0962 H   0  0  0  0  0  0  0  0  0  0  0  0
   -0.4082   -2.8218   -1.0951 H   0  0  0  0  0  0  0  0  0  0  0  0
   -1.0182   -2.4336    0.9523 C   0  0  0  0  0  0  0  0  0  0  0  0
   -1.8155   -3.2006    1.0357 H   0  0  0  0  0  0  0  0  0  0  0  0
   -0.5375   -2.3145    1.9450 H   0  0  0  0  0  0  0  0  0  0  0  0
   -2.6448   -1.0084   -0.1226 C   0  0  2  0  0  3  0  0  0  0  0  0
   -3.6131   -2.1216   -0.3680 C   0  0  0  0  0  0  0  0  0  0  0  0
   -3.8264   -2.6024   -1.6766 C   0  0  0  0  0  0  0  0  0  0  0  0
   -3.2808   -2.1468   -2.5172 H   0  0  0  0  0  0  0  0  0  0  0  0
   -4.7226   -3.6567   -1.9045 C   0  0  0  0  0  0  0  0  0  0  0  0
   -4.8760   -4.0319   -2.9276 H   0  0  0  0  0  0  0  0  0  0  0  0
   -5.4256   -4.2281   -0.8317 C   0  0  0  0  0  0  0  0  0  0  0  0
   -6.1334   -5.0510   -1.0125 H   0  0  0  0  0  0  0  0  0  0  0  0
   -5.2281   -3.7445    0.4716 C   0  0  0  0  0  0  0  0  0  0  0  0
   -5.7835   -4.1835    1.3140 H   0  0  0  0  0  0  0  0  0  0  0  0
   -4.3231   -2.6991    0.7058 C   0  0  0  0  0  0  0  0  0  0  0  0
   -4.1698   -2.3143    1.7255 H   0  0  0  0  0  0  0  0  0  0  0  0
   -2.9556    0.3251   -0.7189 C   0  0  2  0  0  3  0  0  0  0  0  0
   -4.2626    0.6696   -1.1125 C   0  0  0  0  0  0  0  0  0  0  0  0
   -5.0848   -0.0469   -0.9763 H   0  0  0  0  0  0  0  0  0  0  0  0
   -4.4907    1.9422   -1.6579 C   0  0  0  0  0  0  0  0  0  0  0  0
   -5.5057    2.2451   -1.9554 H   0  0  0  0  0  0  0  0  0  0  0  0
   -3.4100    2.8193   -1.8042 C   0  0  0  0  0  0  0  0  0  0  0  0
   -3.5371    3.8320   -2.2106 H   0  0  0  0  0  0  0  0  0  0  0  0
   -2.1361    2.3848   -1.3972 C   0  0  0  0  0  0  0  0  0  0  0  0
   -1.2663    3.0535   -1.4887 H   0  0  0  0  0  0  0  0  0  0  0  0
  2 26  1  0  0  0  0
  3 32  1  0  0  0  0
  4 47  1  0  0  0  0
  5  1  1  0  0  0  0
  5  6  1  0  0  0  0
  7  5  1  0  0  0  0
  8  7  1  0  0  0  0
  9 11  1  0  0  0  0
  9  7  2  0  0  0  0
 10  9  1  0  0  0  0
 11 13  2  0  0  0  0
 12 11  1  0  0  0  0
 13 14  1  0  0  0  0
 13  1  1  0  0  0  0
 14  2  1  1  0  0  0
 15 14  1  0  0  0  0
 15 16  1  0  0  0  0
 16 17  1  0  0  0  0
 18 16  2  0  0  0  0
 18 19  1  0  0  0  0
 20 18  1  0  0  0  0
 21 20  1  0  0  0  0
 22 24  1  0  0  0  0
 22 20  2  0  0  0  0
 23 22  1  0  0  0  0
 24 15  2  0  0  0  0
 25 24  1  0  0  0  0
 26 27  1  0  0  0  0
 28 26  1  0  0  0  0
 29 26  1  0  0  0  0
 29 30  1  0  0  0  0
 29 32  1  0  0  0  0
 31 29  1  0  0  0  0
 32 33  1  0  0  0  0
 32 34  1  0  0  0  0
 35  3  1  6  0  0  0
 36 35  1  0  0  0  0
 36 45  1  0  0  0  0
 37 36  2  0  0  0  0
 38 37  1  0  0  0  0
 39 37  1  0  0  0  0
 39 41  2  0  0  0  0
 40 39  1  0  0  0  0
 41 43  1  0  0  0  0
 42 41  1  0  0  0  0
 43 45  2  0  0  0  0
 43 44  1  0  0  0  0
 45 46  1  0  0  0  0
 47 35  1  6  0  0  0
 48 49  1  0  0  0  0
 48 47  1  0  0  0  0
 50 48  2  0  0  0  0
 51 50  1  0  0  0  0
 52 50  1  0  0  0  0
 52 54  2  0  0  0  0
 53 52  1  0  0  0  0
 54  4  1  0  0  0  0
 55 54  1  0  0  0  0
M  END
