1,2,3,4
q = -2.0, confidence = 0.83

 72 82  0  0  0  0  0  0  0  0999 V2000
   -0.0000   -2.4140   -0.0517 N   0  0  0  0  0  0  0  0  0  0  0  0
    1.9643   -0.1963   -0.0799 N   0  0  0  0  0  2  0  0  0  0  0  0
    0.0000    1.8505    0.0463 N   0  0  0  0  0  0  0  0  0  0  0  0
   -1.9643   -0.1963   -0.0798 N   0  0  0  0  0  0  0  0  0  0  0  0
   -1.1108   -3.2366   -0.0318 C   0  0  0  0  0  0  0  0  0  0  0  0
   -0.6868   -4.6268   -0.0001 C   0  0  0  0  0  0  0  0  0  0  0  0
   -1.3443   -5.5013    0.0217 H   0  0  0  0  0  0  0  0  0  0  0  0
    0.6868   -4.6268    0.0000 C   0  0  0  0  0  0  0  0  0  0  0  0
    1.3443   -5.5014    0.0218 H   0  0  0  0  0  0  0  0  0  0  0  0
    1.1108   -3.2366   -0.0318 C   0  0  0  0  0  0  0  0  0  0  0  0
    2.4211   -2.7149   -0.0312 C   0  0  0  0  0  0  0  0  0  0  0  0
    2.7015   -1.3260   -0.0463 C   0  0  0  0  0  0  0  0  0  0  0  0
    4.1144   -1.0508    0.0187 C   0  0  0  0  0  0  0  0  0  0  0  0
    4.2328    0.3283    0.0364 C   0  0  0  0  0  0  0  0  0  0  0  0
    5.1351    0.9449    0.1096 H   0  0  0  0  0  0  0  0  0  0  0  0
    2.8652    0.8595   -0.0326 C   0  0  0  0  0  0  0  0  0  0  0  0
    2.4699    2.2157   -0.0193 C   0  0  0  0  0  0  0  0  0  0  0  0
    1.1100    2.6635   -0.0187 C   0  0  0  0  0  0  0  0  0  0  0  0
    0.6893    4.0460   -0.1383 C   0  0  0  0  0  0  0  0  0  0  0  0
    1.3559    4.9087   -0.2412 H   0  0  0  0  0  0  0  0  0  0  0  0
   -0.6893    4.0460   -0.1383 C   0  0  0  0  0  0  0  0  0  0  0  0
   -1.3559    4.9086   -0.2411 H   0  0  0  0  0  0  0  0  0  0  0  0
   -1.1100    2.6635   -0.0187 C   0  0  0  0  0  0  0  0  0  0  0  0
   -2.4699    2.2157   -0.0191 C   0  0  0  0  0  0  0  0  0  0  0  0
   -2.8652    0.8596   -0.0325 C   0  0  0  0  0  3  0  0  0  0  0  0
   -4.2328    0.3283    0.0365 C   0  0  0  0  0  0  0  0  0  0  0  0
   -5.1351    0.9449    0.1098 H   0  0  0  0  0  0  0  0  0  0  0  0
   -4.1144   -1.0508    0.0187 C   0  0  0  0  0  0  0  0  0  0  0  0
   -2.7015   -1.3260   -0.0464 C   0  0  0  0  0  0  0  0  0  0  0  0
   -2.4211   -2.7149   -0.0313 C   0  0  0  0  0  0  0  0  0  0  0  0
    3.7615   -3.3682    0.0225 C   0  0  0  0  0  0  0  0  0  0  0  0
    4.7893   -2.3514    0.0577 C   0  0  0  0  0  0  0  0  0  0  0  0
    6.1397   -2.7027    0.1154 C   0  0  0  0  0  0  0  0  0  0  0  0
    6.9146   -1.9220    0.1430 H   0  0  0  0  0  0  0  0  0  0  0  0
    6.4968   -4.0671    0.1371 C   0  0  0  0  0  0  0  0  0  0  0  0
    7.5582   -4.3537    0.1822 H   0  0  0  0  0  0  0  0  0  0  0  0
    5.5061   -5.0583    0.1007 C   0  0  0  0  0  0  0  0  0  0  0  0
    5.7946   -6.1201    0.1164 H   0  0  0  0  0  0  0  0  0  0  0  0
    4.1379   -4.7160    0.0435 C   0  0  0  0  0  0  0  0  0  0  0  0
    3.3864   -5.5163    0.0143 H   0  0  0  0  0  0  0  0  0  0  0  0
    3.5421    3.2514   -0.0153 C   0  0  0  0  0  0  0  0  0  0  0  0
    3.6381    4.1869    1.0390 C   0  0  0  0  0  0  0  0  0  0  0  0
    2.9135    4.1373    1.8655 H   0  0  0  0  0  0  0  0  0  0  0  0
    4.6522    5.1548    1.0460 C   0  0  0  0  0  0  0  0  0  0  0  0
    4.7176    5.8698    1.8803 H   0  0  0  0  0  0  0  0  0  0  0  0
    5.5851    5.2087   -0.0021 C   0  0  0  0  0  0  0  0  0  0  0  0
    6.3797    5.9702    0.0031 H   0  0  0  0  0  0  0  0  0  0  0  0
    5.4981    4.2868   -1.0573 C   0  0  0  0  0  0  0  0  0  0  0  0
    6.2202    4.3275   -1.8871 H   0  0  0  0  0  0  0  0  0  0  0  0
    4.4868    3.3154   -1.0638 C   0  0  0  0  0  0  0  0  0  0  0  0
    4.4092    2.6017   -1.8975 H   0  0  0  0  0  0  0  0  0  0  0  0
   -3.5421    3.2514   -0.0152 C   0  0  0  0  0  0  0  0  0  0  0  0
   -4.4868    3.3155   -1.0636 C   0  0  0  0  0  0  0  0  0  0  0  0
   -4.4092    2.6017   -1.8974 H   0  0  0  0  0  0  0  0  0  0  0  0
   -5.4981    4.2869   -1.0571 C   0  0  0  0  0  0  0  0  0  0  0  0
   -6.2202    4.3276   -1.8868 H   0  0  0  0  0  0  0  0  0  0  0  0
   -5.5851    5.2088   -0.0019 C   0  0  0  0  0  0  0  0  0  0  0  0
   -6.3797    5.9702    0.0034 H   0  0  0  0  0  0  0  0  0  0  0  0
   -4.6522    5.1548    1.0462 C   0  0  0  0  0  0  0  0  0  0  0  0
   -4.7176    5.8698    1.8805 H   0  0  0  0  0  0  0  0  0  0  0  0
   -3.6380    4.1869    1.0392 C   0  0  0  0  0  0  0  0  0  0  0  0
   -2.9135    4.1372    1.8657 H   0  0  0  0  0  0  0  0  0  0  0  0
   -3.7615   -3.3682    0.0223 C   0  0  0  0  0  0  0  0  0  0  0  0
   -4.7893   -2.3514    0.0575 C   0  0  0  0  0  0  0  0  0  0  0  0
   -6.1397   -2.7027    0.1153 C   0  0  0  0  0  0  0  0  0  0  0  0
   -6.9146   -1.9220    0.1430 H   0  0  0  0  0  0  0  0  0  0  0  0
   -6.4968   -4.0671    0.1369 C   0  0  0  0  0  0  0  0  0  0  0  0
   -7.5582   -4.3537    0.1821 H   0  0  0  0  0  0  0  0  0  0  0  0
   -5.5061   -5.0583    0.1004 C   0  0  0  0  0  0  0  0  0  0  0  0
   -5.7946   -6.1201    0.1160 H   0  0  0  0  0  0  0  0  0  0  0  0
   -4.1380   -4.7160    0.0432 C   0  0  0  0  0  0  0  0  0  0  0  0
   -3.3864   -5.5163    0.0138 H   0  0  0  0  0  0  0  0  0  0  0  0
  1  5  1  0  0  0  0
  1 10  2  0  0  0  0
  2 12  1  0  0  0  0
  2 16  1  0  0  0  0
  4 29  2  0  0  0  0
  4 25  1  0  0  0  0
  5 30  2  0  0  0  0
  5  6  1  0  0  0  0
  6  8  2  0  0  0  0
  6  7  1  0  0  0  0
  8  9  1  0  0  0  0
 10 11  1  0  0  0  0
 10  8  1  0  0  0  0
 11 31  1  0  0  0  0
 12 11  2  0  0  0  0
 12 13  1  0  0  0  0
 13 14  2  0  0  0  0
 13 32  1  0  0  0  0
 14 15  1  0  0  0  0
 16 17  2  0  0  0  0
 16 14  1  0  0  0  0
 17 18  1  0  0  0  0
 17 41  1  0  0  0  0
 18  3  2  0  0  0  0
 19 21  2  0  0  0  0
 19 18  1  0  0  0  0
 20 19  1  0  0  0  0
 21 23  1  0  0  0  0
 22 21  1  0  0  0  0
 23  3  1  0  0  0  0
 24 23  2  0  0  0  0
 24 52  1  0  0  0  0
 25 24  1  0  0  0  0
 25 26  1  0  0  0  0
 26 27  1  0  0  0  0
 28 26  2  0  0  0  0
 28 64  1  0  0  0  0
 29 30  1  0  0  0  0
 29 28  1  0  0  0  0
 30 63  1  0  0  0  0
 31 39  2  0  0  0  0
 31 32  1  0  0  0  0
 32 33  2  0  0  0  0
 33 35  1  0  0  0  0
 33 34  1  0  0  0  0
 35 36  1  0  0  0  0
 37 38  1  0  0  0  0
 37 35  2  0  0  0  0
 39 37  1  0  0  0  0
 40 39  1  0  0  0  0
 41 42  1  0  0  0  0
 42 44  2  0  0  0  0
 42 43  1  0  0  0  0
 44 45  1  0  0  0  0
 46 47  1  0  0  0  0
 46 44  1  0  0  0  0
 48 46  2  0  0  0  0
 49 48  1  0  0  0  0
 50 48  1  0  0  0  0
 50 41  2  0  0  0  0
 51 50  1  0  0  0  0
 52 61  1  0  0  0  0
 53 55  1  0  0  0  0
 53 52  2  0  0  0  0
 54 53  1  0  0  0  0
 55 57  2  0  0  0  0
 56 55  1  0  0  0  0
 57 58  1  0  0  0  0
 57 59  1  0  0  0  0
 59 60  1  0  0  0  0
 61 59  2  0  0  0  0
 61 62  1  0  0  0  0
 63 71  2  0  0  0  0
 63 64  1  0  0  0  0
 64 65  2  0  0  0  0
 65 67  1  0  0  0  0
 65 66  1  0  0  0  0
 67 68  1  0  0  0  0
 69 70  1  0  0  0  0
 69 67  2  0  0  0  0
 71 69  1  0  0  0  0
 72 71  1  0  0  0  0
M  END
