4,5,6,7
q = -1.0, confidence = 0.0

 30 29  0  0  0  0  0  0  0  0999 V2000
   -1.2239   -2.8578    0.0423 O   0  0  0  0  0  0  0  0  0  0  0  0
   -0.0951   -2.9783    0.0422 H   0  0  0  0  0  0  0  0  0  0  0  0
    1.2024   -2.8495    0.0393 O   0  0  0  0  0  1  0  0  0  0  0  0
   -1.3976   -1.5701    0.0130 N   0  0  0  0  0  2  0  0  0  0  0  0
   -1.4717    0.9497   -0.0264 N   0  0  0  0  0  2  0  0  0  0  0  0
    1.4700    0.9446   -0.0247 N   0  0  0  0  0  2  0  0  0  0  0  0
    1.3951   -1.5845    0.0128 N   0  0  0  0  0  2  0  0  0  0  0  0
   -2.6143   -1.0668    0.0128 C   0  0  0  0  0  0  0  0  0  0  0  0
   -3.4982   -1.7209    0.0340 H   0  0  0  0  0  0  0  0  0  0  0  0
   -2.6488    0.3768   -0.0249 C   0  0  0  0  0  0  0  0  0  0  0  0
   -3.9530    1.1182   -0.0914 C   0  0  0  0  0  0  0  0  0  0  0  0
   -4.0425    1.6724   -1.0487 H   0  0  0  0  0  0  0  0  0  0  0  0
   -4.0346    1.8610    0.7286 H   0  0  0  0  0  0  0  0  0  0  0  0
   -4.8086    0.4233   -0.0139 H   0  0  0  0  0  0  0  0  0  0  0  0
   -1.2830    2.3784   -0.1486 C   0  0  0  0  0  0  0  0  0  0  0  0
   -1.2408    2.6197   -1.2369 H   0  0  0  0  0  0  0  0  0  0  0  0
   -2.1527    2.9245    0.2756 H   0  0  0  0  0  0  0  0  0  0  0  0
    0.0012    2.8511    0.5349 C   0  0  0  0  0  0  0  0  0  0  0  0
    0.0030    3.9601    0.5367 H   0  0  0  0  0  0  0  0  0  0  0  0
    0.0022    2.4995    1.5878 H   0  0  0  0  0  0  0  0  0  0  0  0
    1.2811    2.3724   -0.1529 C   0  0  0  0  0  0  0  0  0  0  0  0
    1.2359    2.6142   -1.2411 H   0  0  0  0  0  0  0  0  0  0  0  0
    2.1521    2.9180    0.2688 H   0  0  0  0  0  0  0  0  0  0  0  0
    3.9497    1.1119   -0.0899 C   0  0  0  0  0  0  0  0  0  0  0  0
    4.0367    1.6696   -1.0453 H   0  0  0  0  0  0  0  0  0  0  0  0
    4.0310    1.8513    0.7331 H   0  0  0  0  0  0  0  0  0  0  0  0
    4.8063    0.4179   -0.0162 H   0  0  0  0  0  0  0  0  0  0  0  0
    2.6471    0.3667   -0.0241 C   0  0  0  0  0  0  0  0  0  0  0  0
    2.6158   -1.0712    0.0128 C   0  0  0  0  0  0  0  0  0  0  0  0
    3.4985   -1.7264    0.0334 H   0  0  0  0  0  0  0  0  0  0  0  0
  2  1  1  0  0  0  0
  4  1  1  0  0  0  0
  5 10  1  0  0  0  0
  6 28  1  0  0  0  0
  7 29  1  0  0  0  0
  7  3  1  0  0  0  0
  8  4  1  0  0  0  0
  8  9  1  0  0  0  0
 10  8  2  0  0  0  0
 11 10  1  0  0  0  0
 11 14  1  0  0  0  0
 11 13  1  0  0  0  0
 12 11  1  0  0  0  0
 15  5  1  0  0  0  0
 15 17  1  0  0  0  0
 15 18  1  0  0  0  0
 16 15  1  0  0  0  0
 18 19  1  0  0  0  0
 18 20  1  0  0  0  0
 21  6  1  0  0  0  0
 21 23  1  0  0  0  0
 21 18  1  0  0  0  0
 22 21  1  0  0  0  0
 24 28  1  0  0  0  0
 24 27  1  0  0  0  0
 24 26  1  0  0  0  0
 25 24  1  0  0  0  0
 28 29  2  0  0  0  0
 29 30  1  0  0  0  0
M  END
