1,2,3,4
q = 0.0, confidence = 0.994

 55 59  0  0  1  0  0  0  0  0999 V2000
   -0.1849    1.4145   -1.3911 N   0  0  0  0  0  0  0  0  0  0  0  0
   -1.0285    2.0218    1.1099 N   0  0  0  0  0  2  0  0  0  0  0  0
   -1.2677   -1.0248   -0.6393 N   0  0  0  0  0  2  0  0  0  0  0  0
    1.9686    0.1925   -0.2799 N   0  0  0  0  0  2  0  0  0  0  0  0
   -1.3947    2.2610   -1.2893 C   0  0  2  0  0  0  0  0  0  0  0  0
   -0.2956    0.3625   -2.4012 C   0  0  0  0  0  0  0  0  0  0  0  0
    1.0771    2.1509   -1.4257 C   0  0  0  0  0  0  0  0  0  0  0  0
   -1.5270    3.3113   -2.3963 C   0  0  0  0  0  0  0  0  0  0  0  0
   -1.4969    2.8232    0.1269 C   0  0  1  0  0  3  0  0  0  0  0  0
   -2.0882    4.0603    0.4244 C   0  0  0  0  0  0  0  0  0  0  0  0
   -2.2080    4.4549    1.7658 C   0  0  0  0  0  0  0  0  0  0  0  0
   -1.7323    3.6062    2.7730 C   0  0  0  0  0  0  0  0  0  0  0  0
   -1.1416    2.3928    2.4003 C   0  0  0  0  0  0  0  0  0  0  0  0
   -1.2118   -0.7591   -1.9495 C   0  0  0  0  0  0  0  0  0  0  0  0
   -1.9430   -1.5048   -2.9083 C   0  0  0  0  0  0  0  0  0  0  0  0
   -2.7434   -2.5520   -2.4832 C   0  0  0  0  0  0  0  0  0  0  0  0
   -3.6599   -3.8988   -0.5925 C   0  0  0  0  0  3  0  0  0  0  0  0
   -3.7263   -4.1382    0.7711 C   0  0  0  0  0  0  0  0  0  0  0  0
   -2.9739   -3.3383    1.6723 C   0  0  0  0  0  0  0  0  0  0  0  0
   -2.1606   -2.3099    1.2156 C   0  0  0  0  0  0  0  0  0  0  0  0
   -2.0725   -2.0459   -0.1776 C   0  0  0  0  0  0  0  0  0  0  0  0
   -2.8380   -2.8518   -1.0987 C   0  0  0  0  0  0  0  0  0  0  0  0
    2.2419    1.2608   -1.0333 C   0  0  0  0  0  0  0  0  0  0  0  0
    3.5537    1.5719   -1.4725 C   0  0  0  0  0  0  0  0  0  0  0  0
    4.5974    0.7367   -1.1110 C   0  0  0  0  0  0  0  0  0  0  0  0
    5.3554   -1.3640    0.0029 C   0  0  0  0  0  3  0  0  0  0  0  0
    5.0379   -2.5120    0.7116 C   0  0  0  0  0  0  0  0  0  0  0  0
    3.6924   -2.7684    1.0880 C   0  0  0  0  0  0  0  0  0  0  0  0
    2.6756   -1.8793    0.7694 C   0  0  0  0  0  0  0  0  0  0  0  0
    2.9739   -0.6894    0.0523 C   0  0  0  0  0  0  0  0  0  0  0  0
    4.3363   -0.4341   -0.3501 C   0  0  0  0  0  0  0  0  0  0  0  0
   -2.2473    1.5505   -1.3863 H   0  0  0  0  0  0  0  0  0  0  0  0
   -0.6351    0.7480   -3.3896 H   0  0  0  0  0  0  0  0  0  0  0  0
    0.7156   -0.0654   -2.5675 H   0  0  0  0  0  0  0  0  0  0  0  0
    1.2887    2.6096   -2.4191 H   0  0  0  0  0  0  0  0  0  0  0  0
    1.0019    2.9934   -0.7027 H   0  0  0  0  0  0  0  0  0  0  0  0
   -1.3719    2.8529   -3.3926 H   0  0  0  0  0  0  0  0  0  0  0  0
   -2.5419    3.7519   -2.4065 H   0  0  0  0  0  0  0  0  0  0  0  0
   -0.7982    4.1370   -2.2767 H   0  0  0  0  0  0  0  0  0  0  0  0
   -2.4585    4.7102   -0.3789 H   0  0  0  0  0  0  0  0  0  0  0  0
   -2.6700    5.4213    2.0174 H   0  0  0  0  0  0  0  0  0  0  0  0
   -1.8078    3.8760    3.8358 H   0  0  0  0  0  0  0  0  0  0  0  0
   -0.7325    1.6709    3.1282 H   0  0  0  0  0  0  0  0  0  0  0  0
   -1.8652   -1.2415   -3.9730 H   0  0  0  0  0  0  0  0  0  0  0  0
   -3.3198   -3.1491   -3.2066 H   0  0  0  0  0  0  0  0  0  0  0  0
   -4.2392   -4.5084   -1.3024 H   0  0  0  0  0  0  0  0  0  0  0  0
   -4.3619   -4.9476    1.1592 H   0  0  0  0  0  0  0  0  0  0  0  0
   -3.0330   -3.5368    2.7530 H   0  0  0  0  0  0  0  0  0  0  0  0
   -1.5634   -1.7032    1.9156 H   0  0  0  0  0  0  0  0  0  0  0  0
    3.7235    2.4652   -2.0909 H   0  0  0  0  0  0  0  0  0  0  0  0
    5.6288    0.9561   -1.4276 H   0  0  0  0  0  0  0  0  0  0  0  0
    6.3918   -1.1574   -0.3039 H   0  0  0  0  0  0  0  0  0  0  0  0
    5.8261   -3.2298    0.9820 H   0  0  0  0  0  0  0  0  0  0  0  0
    3.4516   -3.6847    1.6472 H   0  0  0  0  0  0  0  0  0  0  0  0
    1.6432   -2.0616    1.0947 H   0  0  0  0  0  0  0  0  0  0  0  0
  1  5  1  0  0  0  0
  2 13  1  0  0  0  0
  3 21  1  0  0  0  0
  4 30  1  0  0  0  0
  5 32  1  6  0  0  0
  6 14  1  0  0  0  0
  6  1  1  0  0  0  0
  7  1  1  0  0  0  0
  7 23  1  0  0  0  0
  7 36  1  0  0  0  0
  8 39  1  0  0  0  0
  8  5  1  0  0  0  0
  9  5  1  1  0  0  0
  9 10  1  0  0  0  0
  9  2  1  0  0  0  0
 10 11  2  0  0  0  0
 11 41  1  0  0  0  0
 11 12  1  0  0  0  0
 12 42  1  0  0  0  0
 13 12  2  0  0  0  0
 13 43  1  0  0  0  0
 14  3  1  0  0  0  0
 15 16  1  0  0  0  0
 15 14  2  0  0  0  0
 16 22  2  0  0  0  0
 17 18  1  0  0  0  0
 18 47  1  0  0  0  0
 18 19  2  0  0  0  0
 19 48  1  0  0  0  0
 20 19  1  0  0  0  0
 20 49  1  0  0  0  0
 21 20  2  0  0  0  0
 22 17  1  0  0  0  0
 22 21  1  0  0  0  0
 23  4  1  0  0  0  0
 24 25  1  0  0  0  0
 24 23  2  0  0  0  0
 25 31  2  0  0  0  0
 26 27  1  0  0  0  0
 27 53  1  0  0  0  0
 27 28  2  0  0  0  0
 28 54  1  0  0  0  0
 29 28  1  0  0  0  0
 29 55  1  0  0  0  0
 30 29  2  0  0  0  0
 31 26  1  0  0  0  0
 31 30  1  0  0  0  0
 33  6  1  0  0  0  0
 34  6  1  0  0  0  0
 35  7  1  0  0  0  0
 37  8  1  0  0  0  0
 38  8  1  0  0  0  0
 40 10  1  0  0  0  0
 44 15  1  0  0  0  0
 45 16  1  0  0  0  0
 46 17  1  0  0  0  0
 50 24  1  0  0  0  0
 51 25  1  0  0  0  0
 52 26  1  0  0  0  0
M  END
