3,5,27,28
q = -2.0, confidence = 0.954

 50 49  0  0  0  0  0  0  0  0999 V2000
    3.3226    2.9658   -0.0414 O   0  0  0  0  0  0  0  0  0  0  0  0
    1.1270   -0.1408   -3.9286 O   0  0  0  0  0  0  0  0  0  0  0  0
    1.3857    0.7539   -0.4216 N   0  0  0  0  0  0  0  0  0  0  0  0
    4.7975    1.3199    0.5600 N   0  0  0  0  0  0  0  0  0  0  0  0
   -0.1355   -0.7245   -2.0670 N   0  0  0  0  0  2  0  0  0  0  0  0
    0.5449    2.0012   -0.5202 C   0  0  0  0  0  0  0  0  0  0  0  0
    2.4247    0.8100    0.6381 C   0  0  0  0  0  0  0  0  0  0  0  0
    3.5457    1.8130    0.3385 C   0  0  0  0  0  0  0  0  0  0  0  0
    5.9926    2.1249    0.4050 C   0  0  0  0  0  0  0  0  0  0  0  0
    1.9681    0.4447   -1.7588 C   0  0  0  0  0  0  0  0  0  0  0  0
    0.9297   -0.1653   -2.7121 C   0  0  0  0  0  0  0  0  0  0  0  0
   -1.0271   -1.5716   -2.8379 C   0  0  0  0  0  0  0  0  0  0  0  0
    4.8919    0.3427    0.8396 H   0  0  0  0  0  0  0  0  0  0  0  0
    1.2175    2.8759   -0.4123 H   0  0  0  0  0  0  0  0  0  0  0  0
    0.1167    2.0115   -1.5408 H   0  0  0  0  0  0  0  0  0  0  0  0
    1.9279    1.0715    1.5938 H   0  0  0  0  0  0  0  0  0  0  0  0
    2.8096   -0.2239    0.7394 H   0  0  0  0  0  0  0  0  0  0  0  0
    5.6703    3.1377    0.0991 H   0  0  0  0  0  0  0  0  0  0  0  0
    6.6609    1.7092   -0.3774 H   0  0  0  0  0  0  0  0  0  0  0  0
    6.5598    2.1957    1.3563 H   0  0  0  0  0  0  0  0  0  0  0  0
    2.7652   -0.3107   -1.6155 H   0  0  0  0  0  0  0  0  0  0  0  0
    2.4057    1.3603   -2.2023 H   0  0  0  0  0  0  0  0  0  0  0  0
   -2.0915   -1.3674   -2.6016 H   0  0  0  0  0  0  0  0  0  0  0  0
   -0.8444   -1.3817   -3.9140 H   0  0  0  0  0  0  0  0  0  0  0  0
   -0.8403   -2.6443   -2.6209 H   0  0  0  0  0  0  0  0  0  0  0  0
   -0.5452    2.0014    0.5192 C   0  0  0  0  0  0  0  0  0  0  0  0
   -1.3858    0.7539    0.4212 N   0  0  0  0  0  0  0  0  0  0  0  0
    0.1356   -0.7235    2.0673 N   0  0  0  0  0  2  0  0  0  0  0  0
   -0.9297   -0.1641    2.7122 C   0  0  0  0  0  0  0  0  0  0  0  0
   -1.1270   -0.1391    3.9287 O   0  0  0  0  0  0  0  0  0  0  0  0
   -1.9682    0.4453    1.7585 C   0  0  0  0  0  0  0  0  0  0  0  0
   -2.4249    0.8095   -0.6385 C   0  0  0  0  0  0  0  0  0  0  0  0
   -3.5458    1.8127   -0.3394 C   0  0  0  0  0  0  0  0  0  0  0  0
   -3.3225    2.9655    0.0403 O   0  0  0  0  0  0  0  0  0  0  0  0
   -4.7976    1.3197   -0.5605 N   0  0  0  0  0  0  0  0  0  0  0  0
   -5.9926    2.1248   -0.4056 C   0  0  0  0  0  0  0  0  0  0  0  0
   -5.6701    3.1377   -0.1000 H   0  0  0  0  0  0  0  0  0  0  0  0
   -6.6608    1.7094    0.3770 H   0  0  0  0  0  0  0  0  0  0  0  0
   -6.5599    2.1954   -1.3568 H   0  0  0  0  0  0  0  0  0  0  0  0
   -4.8922    0.3424   -0.8398 H   0  0  0  0  0  0  0  0  0  0  0  0
   -1.9281    1.0705   -1.5943 H   0  0  0  0  0  0  0  0  0  0  0  0
   -2.8099   -0.2245   -0.7392 H   0  0  0  0  0  0  0  0  0  0  0  0
   -2.7652   -0.3103    1.6156 H   0  0  0  0  0  0  0  0  0  0  0  0
   -2.4059    1.3610    2.2016 H   0  0  0  0  0  0  0  0  0  0  0  0
    1.0272   -1.5701    2.8386 C   0  0  0  0  0  0  0  0  0  0  0  0
    2.0916   -1.3659    2.6023 H   0  0  0  0  0  0  0  0  0  0  0  0
    0.8445   -1.3798    3.9146 H   0  0  0  0  0  0  0  0  0  0  0  0
    0.8407   -2.6430    2.6219 H   0  0  0  0  0  0  0  0  0  0  0  0
   -1.2180    2.8760    0.4108 H   0  0  0  0  0  0  0  0  0  0  0  0
   -0.1170    2.0123    1.5398 H   0  0  0  0  0  0  0  0  0  0  0  0
  1  8  2  0  0  0  0
  2 11  2  0  0  0  0
  3  7  1  0  0  0  0
  4 13  1  0  0  0  0
  6  3  1  0  0  0  0
  6 14  1  0  0  0  0
  6 26  1  0  0  0  0
  7 17  1  0  0  0  0
  7 16  1  0  0  0  0
  8  4  1  0  0  0  0
  8  7  1  0  0  0  0
  9  4  1  0  0  0  0
  9 20  1  0  0  0  0
 10 21  1  0  0  0  0
 10  3  1  0  0  0  0
 11  5  1  0  0  0  0
 11 10  1  0  0  0  0
 12 25  1  0  0  0  0
 12 23  1  0  0  0  0
 12  5  1  0  0  0  0
 15  6  1  0  0  0  0
 18  9  1  0  0  0  0
 19  9  1  0  0  0  0
 22 10  1  0  0  0  0
 24 12  1  0  0  0  0
 26 50  1  0  0  0  0
 27 26  1  0  0  0  0
 27 31  1  0  0  0  0
 28 29  1  0  0  0  0
 28 45  1  0  0  0  0
 29 30  2  0  0  0  0
 31 44  1  0  0  0  0
 31 29  1  0  0  0  0
 32 33  1  0  0  0  0
 32 27  1  0  0  0  0
 33 34  2  0  0  0  0
 35 36  1  0  0  0  0
 35 33  1  0  0  0  0
 36 37  1  0  0  0  0
 36 38  1  0  0  0  0
 39 36  1  0  0  0  0
 40 35  1  0  0  0  0
 41 32  1  0  0  0  0
 42 32  1  0  0  0  0
 43 31  1  0  0  0  0
 45 47  1  0  0  0  0
 46 45  1  0  0  0  0
 48 45  1  0  0  0  0
 49 26  1  0  0  0  0
M  END
