2,3,4,6
q = 0.0, confidence = 0.974

 64 67  0  0  1  0  0  0  0  0999 V2000
   -1.8853    1.3368   -0.1694 N   0  0  0  0  0  2  0  0  0  0  0  0
   -0.9304    0.7598    0.5094 N   0  0  0  0  0  2  0  0  0  0  0  0
    1.0572   -0.0946    2.0155 N   0  0  0  0  0  0  0  0  0  0  0  0
    1.4850    1.5630   -0.5375 N   0  0  0  0  0  2  0  0  0  0  0  0
   -2.8783    1.5342    0.7015 N   0  0  0  0  0  0  0  0  0  0  0  0
    2.1872   -1.2148   -0.4471 N   0  0  0  0  0  2  0  0  0  0  0  0
    2.5541   -2.2489    0.3639 N   0  0  0  0  0  0  0  0  0  0  0  0
    2.9085    3.3089   -0.3261 C   0  0  2  0  0  3  0  0  0  0  0  0
    3.8463   -2.3776   -1.4232 C   0  0  0  0  0  0  0  0  0  0  0  0
    4.5970   -2.7012   -2.1509 H   0  0  0  0  0  0  0  0  0  0  0  0
    1.2389    2.4188   -1.5587 C   0  0  0  0  0  0  0  0  0  0  0  0
    2.4884    2.1154    0.2041 N   0  0  0  0  0  0  0  0  0  0  0  0
    3.5667   -2.9795   -0.1951 C   0  0  2  0  0  3  0  0  0  0  0  0
   -2.5580    1.0836    1.9546 C   0  0  0  0  0  0  0  0  0  0  0  0
   -3.2613    1.1238    2.7914 H   0  0  0  0  0  0  0  0  0  0  0  0
    1.6953    1.2022    2.3627 C   0  0  0  0  0  0  0  0  0  0  0  0
    2.0197    1.1813    3.4276 H   0  0  0  0  0  0  0  0  0  0  0  0
    0.9377    2.0040    2.2618 H   0  0  0  0  0  0  0  0  0  0  0  0
    2.9620   -1.2835   -1.5567 C   0  0  0  0  0  0  0  0  0  0  0  0
   -1.2735    0.5795    1.8199 C   0  0  0  0  0  0  0  0  0  0  0  0
    0.1952    2.2179   -2.6063 C   0  0  0  0  0  0  0  0  0  0  0  0
    0.6596    2.2473   -3.6128 H   0  0  0  0  0  0  0  0  0  0  0  0
   -0.5412    3.0454   -2.5641 H   0  0  0  0  0  0  0  0  0  0  0  0
   -0.3361    1.2600   -2.4845 H   0  0  0  0  0  0  0  0  0  0  0  0
    2.8373   -0.3452   -2.7097 C   0  0  0  0  0  0  0  0  0  0  0  0
    1.7756   -0.2448   -3.0031 H   0  0  0  0  0  0  0  0  0  0  0  0
    3.4151   -0.7329   -3.5682 H   0  0  0  0  0  0  0  0  0  0  0  0
    3.2263    0.6637   -2.4647 H   0  0  0  0  0  0  0  0  0  0  0  0
   -4.2087    1.8822    0.1798 C   0  0  0  0  0  0  0  0  0  0  0  0
   -4.0210    2.4731   -0.7380 H   0  0  0  0  0  0  0  0  0  0  0  0
   -4.7115    2.5338    0.9193 H   0  0  0  0  0  0  0  0  0  0  0  0
    3.9939    4.1382    0.2756 C   0  0  0  0  0  0  0  0  0  0  0  0
    3.7354    4.4961    1.2946 H   0  0  0  0  0  0  0  0  0  0  0  0
    4.1653    5.0313   -0.3519 H   0  0  0  0  0  0  0  0  0  0  0  0
    4.9543    3.5869    0.3433 H   0  0  0  0  0  0  0  0  0  0  0  0
    1.8778   -2.4677    1.6303 C   0  0  0  0  0  0  0  0  0  0  0  0
    2.4151   -3.2790    2.1544 H   0  0  0  0  0  0  0  0  0  0  0  0
    0.8385   -2.7957    1.4289 H   0  0  0  0  0  0  0  0  0  0  0  0
   -0.3023   -0.2040    2.6380 C   0  0  0  0  0  0  0  0  0  0  0  0
   -0.5982   -1.2712    2.5874 H   0  0  0  0  0  0  0  0  0  0  0  0
   -0.2750    0.1059    3.7053 H   0  0  0  0  0  0  0  0  0  0  0  0
    1.9175   -1.2184    2.5020 C   0  0  0  0  0  0  0  0  0  0  0  0
    1.6181   -1.4759    3.5410 H   0  0  0  0  0  0  0  0  0  0  0  0
    2.9640   -0.8627    2.5542 H   0  0  0  0  0  0  0  0  0  0  0  0
    2.8892    1.5188    1.4593 C   0  0  0  0  0  0  0  0  0  0  0  0
    3.5482    2.2454    1.9684 H   0  0  0  0  0  0  0  0  0  0  0  0
    3.4978    0.6087    1.2705 H   0  0  0  0  0  0  0  0  0  0  0  0
    4.1669   -4.1808    0.4559 C   0  0  0  0  0  0  0  0  0  0  0  0
    3.4190   -4.9868    0.6059 H   0  0  0  0  0  0  0  0  0  0  0  0
    4.6175   -3.9469    1.4429 H   0  0  0  0  0  0  0  0  0  0  0  0
    4.9688   -4.5862   -0.1870 H   0  0  0  0  0  0  0  0  0  0  0  0
    2.1284    3.5178   -1.4595 C   0  0  0  0  0  0  0  0  0  0  0  0
    2.1880    4.3706   -2.1433 H   0  0  0  0  0  0  0  0  0  0  0  0
   -6.2983    0.4668    0.4459 C   0  0  0  0  0  0  0  0  0  0  0  0
   -6.7392    1.2692    1.0592 H   0  0  0  0  0  0  0  0  0  0  0  0
   -4.4531   -0.4108   -0.8772 C   0  0  0  0  0  0  0  0  0  0  0  0
   -3.4470   -0.3121   -1.3126 H   0  0  0  0  0  0  0  0  0  0  0  0
   -7.0274   -0.7082    0.2018 C   0  0  0  0  0  0  0  0  0  0  0  0
   -8.0378   -0.8203    0.6227 H   0  0  0  0  0  0  0  0  0  0  0  0
   -5.0095    0.6227   -0.0959 C   0  0  0  0  0  0  0  0  0  0  0  0
   -5.1737   -1.5908   -1.1014 C   0  0  0  0  0  0  0  0  0  0  0  0
   -4.7076   -2.3927   -1.6927 H   0  0  0  0  0  0  0  0  0  0  0  0
   -6.4641   -1.7394   -0.5655 C   0  0  0  0  0  0  0  0  0  0  0  0
   -7.0320   -2.6647   -0.7441 H   0  0  0  0  0  0  0  0  0  0  0  0
  1  2  1  0  0  0  0
  1  5  1  0  0  0  0
  2 20  1  0  0  0  0
  3 16  1  0  0  0  0
  3 42  1  0  0  0  0
  3 39  1  0  0  0  0
  4 12  1  0  0  0  0
  5 14  1  0  0  0  0
  6  7  1  0  0  0  0
  7 36  1  0  0  0  0
  8 12  1  0  0  0  0
  8 32  1  1  0  0  0
  9 13  1  0  0  0  0
 10  9  1  0  0  0  0
 11 52  2  0  0  0  0
 11  4  1  0  0  0  0
 12 45  1  0  0  0  0
 13  7  1  0  0  0  0
 13 48  1  6  0  0  0
 14 15  1  0  0  0  0
 16 17  1  0  0  0  0
 18 16  1  0  0  0  0
 19  9  2  0  0  0  0
 19  6  1  0  0  0  0
 20 14  2  0  0  0  0
 20 39  1  0  0  0  0
 21 23  1  0  0  0  0
 21 24  1  0  0  0  0
 21 11  1  0  0  0  0
 22 21  1  0  0  0  0
 25 28  1  0  0  0  0
 25 19  1  0  0  0  0
 26 25  1  0  0  0  0
 27 25  1  0  0  0  0
 29  5  1  0  0  0  0
 29 31  1  0  0  0  0
 30 29  1  0  0  0  0
 32 35  1  0  0  0  0
 32 33  1  0  0  0  0
 34 32  1  0  0  0  0
 36 37  1  0  0  0  0
 36 42  1  0  0  0  0
 38 36  1  0  0  0  0
 39 41  1  0  0  0  0
 40 39  1  0  0  0  0
 42 44  1  0  0  0  0
 42 43  1  0  0  0  0
 45 46  1  0  0  0  0
 45 16  1  0  0  0  0
 47 45  1  0  0  0  0
 48 49  1  0  0  0  0
 48 50  1  0  0  0  0
 51 48  1  0  0  0  0
 52  8  1  0  0  0  0
 53 52  1  0  0  0  0
 54 55  1  0  0  0  0
 56 60  1  0  0  0  0
 57 56  1  0  0  0  0
 58 54  1  0  0  0  0
 58 59  1  0  0  0  0
 60 29  1  0  0  0  0
 60 54  2  0  0  0  0
 61 56  2  0  0  0  0
 61 63  1  0  0  0  0
 62 61  1  0  0  0  0
 63 58  2  0  0  0  0
 64 63  1  0  0  0  0
M  END
