1,2,5,64
 OpenBabel05122313063D

 79 78  0  0  0  0  0  0  0  0999 V2000
   -2.3357   -0.0483    0.2795 P   0  0  0  0  0  0  0  0  0  0  0  0
    2.4206   -0.1157    0.3870 P   0  0  2  0  0  0  0  0  0  0  0  0
   -1.4208    2.9277   -0.3835 Si  0  0  0  0  0  0  0  0  0  0  0  0
    1.6083    2.9103    0.5428 Si  0  0  0  0  0  0  0  0  0  0  0  0
    0.1691    2.0543   -0.1533 N   0  0  0  0  0  0  0  0  0  0  0  0
    0.4451    1.8771   -1.1572 H   0  0  0  0  0  0  0  0  0  0  0  0
   -1.7013    4.2510    0.9350 C   0  0  0  0  0  0  0  0  0  0  0  0
   -1.0358    5.1190    0.7524 H   0  0  0  0  0  0  0  0  0  0  0  0
   -1.5508    3.9060    1.9733 H   0  0  0  0  0  0  0  0  0  0  0  0
   -2.7455    4.6168    0.8441 H   0  0  0  0  0  0  0  0  0  0  0  0
   -1.3542    3.7908   -2.0583 C   0  0  0  0  0  0  0  0  0  0  0  0
   -0.5789    4.5818   -2.0907 H   0  0  0  0  0  0  0  0  0  0  0  0
   -2.3332    4.2637   -2.2820 H   0  0  0  0  0  0  0  0  0  0  0  0
   -1.1323    3.0489   -2.8529 H   0  0  0  0  0  0  0  0  0  0  0  0
   -2.7595    1.6010   -0.4637 C   0  0  0  0  0  0  0  0  0  0  0  0
   -3.7464    1.9724   -0.1197 H   0  0  0  0  0  0  0  0  0  0  0  0
   -2.8520    1.3916   -1.5505 H   0  0  0  0  0  0  0  0  0  0  0  0
   -3.0322    0.0679    2.0719 C   0  0  0  0  0  0  0  0  0  0  0  0
   -4.5533    0.2703    2.1767 C   0  0  0  0  0  0  0  0  0  0  0  0
   -4.8115    0.4427    3.2440 H   0  0  0  0  0  0  0  0  0  0  0  0
   -5.1297   -0.6112    1.8416 H   0  0  0  0  0  0  0  0  0  0  0  0
   -4.9050    1.1575    1.6122 H   0  0  0  0  0  0  0  0  0  0  0  0
   -2.3702    1.3076    2.6992 C   0  0  0  0  0  0  0  0  0  0  0  0
   -2.5176    1.2908    3.7997 H   0  0  0  0  0  0  0  0  0  0  0  0
   -2.8344    2.2371    2.3203 H   0  0  0  0  0  0  0  0  0  0  0  0
   -1.2845    1.3490    2.5004 H   0  0  0  0  0  0  0  0  0  0  0  0
   -2.6353   -1.2048    2.8464 C   0  0  0  0  0  0  0  0  0  0  0  0
   -2.7079   -1.0108    3.9376 H   0  0  0  0  0  0  0  0  0  0  0  0
   -1.6057   -1.5336    2.6162 H   0  0  0  0  0  0  0  0  0  0  0  0
   -3.3034   -2.0525    2.6134 H   0  0  0  0  0  0  0  0  0  0  0  0
   -3.5393   -1.2107   -0.7227 C   0  0  0  0  0  0  0  0  0  0  0  0
   -4.8653   -0.4994   -1.0628 C   0  0  0  0  0  0  0  0  0  0  0  0
   -5.5202   -1.2344   -1.5773 H   0  0  0  0  0  0  0  0  0  0  0  0
   -4.7242    0.3451   -1.7637 H   0  0  0  0  0  0  0  0  0  0  0  0
   -5.4163   -0.1319   -0.1796 H   0  0  0  0  0  0  0  0  0  0  0  0
   -3.8491   -2.5031    0.0540 C   0  0  0  0  0  0  0  0  0  0  0  0
   -4.3924   -3.1942   -0.6250 H   0  0  0  0  0  0  0  0  0  0  0  0
   -4.5028   -2.3285    0.9294 H   0  0  0  0  0  0  0  0  0  0  0  0
   -2.9261   -3.0144    0.3869 H   0  0  0  0  0  0  0  0  0  0  0  0
   -2.8611   -1.5800   -2.0501 C   0  0  0  0  0  0  0  0  0  0  0  0
   -3.5618   -2.2115   -2.6377 H   0  0  0  0  0  0  0  0  0  0  0  0
   -1.9247   -2.1475   -1.8960 H   0  0  0  0  0  0  0  0  0  0  0  0
   -2.6135   -0.6902   -2.6602 H   0  0  0  0  0  0  0  0  0  0  0  0
    1.3504    3.4998    2.3143 C   0  0  0  0  0  0  0  0  0  0  0  0
    0.7353    4.4198    2.3252 H   0  0  0  0  0  0  0  0  0  0  0  0
    2.3359    3.7569    2.7552 H   0  0  0  0  0  0  0  0  0  0  0  0
    0.8690    2.7506    2.9695 H   0  0  0  0  0  0  0  0  0  0  0  0
    1.9974    4.4210   -0.5244 C   0  0  0  0  0  0  0  0  0  0  0  0
    2.0819    4.1423   -1.5944 H   0  0  0  0  0  0  0  0  0  0  0  0
    2.9633    4.8697   -0.2115 H   0  0  0  0  0  0  0  0  0  0  0  0
    1.2211    5.2073   -0.4317 H   0  0  0  0  0  0  0  0  0  0  0  0
    2.9892    1.6472    0.2849 C   0  0  0  0  0  0  0  0  0  0  0  0
    3.2986    1.7979   -0.7705 H   0  0  0  0  0  0  0  0  0  0  0  0
    3.8810    1.8321    0.9167 H   0  0  0  0  0  0  0  0  0  0  0  0
    2.2159   -0.4792    2.2321 C   0  0  0  0  0  0  0  0  0  0  0  0
    2.4864   -1.9389    2.6214 C   0  0  0  0  0  0  0  0  0  0  0  0
    2.1489   -2.0855    3.6695 H   0  0  0  0  0  0  0  0  0  0  0  0
    3.5653   -2.1893    2.5832 H   0  0  0  0  0  0  0  0  0  0  0  0
    1.9215   -2.6522    1.9920 H   0  0  0  0  0  0  0  0  0  0  0  0
    3.0133    0.4258    3.1781 C   0  0  0  0  0  0  0  0  0  0  0  0
    2.6836    0.2377    4.2223 H   0  0  0  0  0  0  0  0  0  0  0  0
    2.8684    1.5020    2.9790 H   0  0  0  0  0  0  0  0  0  0  0  0
    4.1004    0.2084    3.1291 H   0  0  0  0  0  0  0  0  0  0  0  0
    0.6796   -0.1751    2.1955 C   0  0  0  0  0  3  0  0  0  0  0  0
    0.4883    0.8170    2.6508 H   0  0  0  0  0  0  0  0  0  0  0  0
    0.1302   -0.9263    2.7949 H   0  0  0  0  0  0  0  0  0  0  0  0
    3.8337   -1.0572   -0.4895 C   0  0  0  0  0  0  0  0  0  0  0  0
    3.4447   -2.5297   -0.6834 C   0  0  0  0  0  0  0  0  0  0  0  0
    4.2755   -3.0510   -1.2054 H   0  0  0  0  0  0  0  0  0  0  0  0
    2.5301   -2.6231   -1.2993 H   0  0  0  0  0  0  0  0  0  0  0  0
    3.2601   -3.0537    0.2715 H   0  0  0  0  0  0  0  0  0  0  0  0
    5.1166   -0.9334    0.3506 C   0  0  0  0  0  0  0  0  0  0  0  0
    5.9518   -1.4278   -0.1905 H   0  0  0  0  0  0  0  0  0  0  0  0
    5.0223   -1.4262    1.3373 H   0  0  0  0  0  0  0  0  0  0  0  0
    5.4122    0.1227    0.5140 H   0  0  0  0  0  0  0  0  0  0  0  0
    4.0511   -0.4273   -1.8786 C   0  0  0  0  0  0  0  0  0  0  0  0
    4.7533   -1.0697   -2.4507 H   0  0  0  0  0  0  0  0  0  0  0  0
    4.5081    0.5808   -1.8233 H   0  0  0  0  0  0  0  0  0  0  0  0
    3.1025   -0.3591   -2.4499 H   0  0  0  0  0  0  0  0  0  0  0  0
  1 18  1  0  0  0  0
  2 67  1  1  0  0  0
  2 55  1  0  0  0  0
  3  5  1  0  0  0  0
  3  7  1  0  0  0  0
  4 44  1  0  0  0  0
  5  4  1  0  0  0  0
  6  5  1  0  0  0  0
  7  9  1  0  0  0  0
  8  7  1  0  0  0  0
 10  7  1  0  0  0  0
 11  3  1  0  0  0  0
 12 11  1  0  0  0  0
 13 11  1  0  0  0  0
 14 11  1  0  0  0  0
 15  3  1  0  0  0  0
 15 16  1  0  0  0  0
 15  1  1  0  0  0  0
 17 15  1  0  0  0  0
 18 19  1  0  0  0  0
 18 23  1  0  0  0  0
 18 27  1  0  0  0  0
 19 20  1  0  0  0  0
 21 19  1  0  0  0  0
 22 19  1  0  0  0  0
 23 24  1  0  0  0  0
 25 23  1  0  0  0  0
 26 23  1  0  0  0  0
 27 28  1  0  0  0  0
 29 27  1  0  0  0  0
 30 27  1  0  0  0  0
 31 36  1  0  0  0  0
 31  1  1  0  0  0  0
 32 31  1  0  0  0  0
 32 35  1  0  0  0  0
 33 32  1  0  0  0  0
 34 32  1  0  0  0  0
 36 39  1  0  0  0  0
 36 38  1  0  0  0  0
 37 36  1  0  0  0  0
 40 42  1  0  0  0  0
 40 31  1  0  0  0  0
 41 40  1  0  0  0  0
 43 40  1  0  0  0  0
 44 45  1  0  0  0  0
 44 46  1  0  0  0  0
 44 47  1  0  0  0  0
 48 51  1  0  0  0  0
 48 50  1  0  0  0  0
 48  4  1  0  0  0  0
 49 48  1  0  0  0  0
 52  2  1  0  0  0  0
 52  4  1  0  0  0  0
 52 54  1  0  0  0  0
 53 52  1  0  0  0  0
 55 56  1  0  0  0  0
 55 60  1  0  0  0  0
 56 57  1  0  0  0  0
 58 56  1  0  0  0  0
 59 56  1  0  0  0  0
 60 61  1  0  0  0  0
 62 60  1  0  0  0  0
 63 60  1  0  0  0  0
 64 55  1  0  0  0  0
 64 65  1  0  0  0  0
 64 66  1  0  0  0  0
 67 72  1  0  0  0  0
 68 67  1  0  0  0  0
 68 71  1  0  0  0  0
 69 68  1  0  0  0  0
 70 68  1  0  0  0  0
 72 75  1  0  0  0  0
 72 74  1  0  0  0  0
 73 72  1  0  0  0  0
 76 78  1  0  0  0  0
 76 67  1  0  0  0  0
 77 76  1  0  0  0  0
 79 76  1  0  0  0  0
M  END
