1,2,4,5
 OpenBabel05122313063D

 82 84  0  0  0  0  0  0  0  0999 V2000
    0.1101    1.2180   -0.0294 N   0  0  0  0  0  0  0  0  0  0  0  0
    2.2641   -1.0568    0.1590 P   0  0  0  0  0  0  0  0  0  0  0  0
   -0.3813   -1.2094   -2.9336 H   0  0  0  0  0  0  0  0  0  0  0  0
    0.2521   -0.5878   -2.2617 C   0  0  0  0  0  3  0  0  0  0  0  0
   -2.2850   -0.6256   -0.1760 P   0  0  0  0  0  0  0  0  0  0  0  0
   -0.3166    1.7089   -1.3616 C   0  0  0  0  0  0  0  0  0  0  0  0
    1.2860   -0.7463   -2.6356 H   0  0  0  0  0  0  0  0  0  0  0  0
   -0.1365    0.8546   -2.4723 C   0  0  0  0  0  0  0  0  0  0  0  0
   -0.4820    1.3664   -3.7433 C   0  0  0  0  0  0  0  0  0  0  0  0
   -0.3507    0.7123   -4.6202 H   0  0  0  0  0  0  0  0  0  0  0  0
   -1.0410    2.6418   -3.8992 C   0  0  0  0  0  0  0  0  0  0  0  0
   -1.3229    3.0011   -4.9008 H   0  0  0  0  0  0  0  0  0  0  0  0
   -1.2808    3.4422   -2.7696 C   0  0  0  0  0  0  0  0  0  0  0  0
   -1.7606    4.4269   -2.8733 H   0  0  0  0  0  0  0  0  0  0  0  0
   -0.9140    2.9745   -1.5007 C   0  0  0  0  0  0  0  0  0  0  0  0
   -1.1242    3.5792   -0.6063 H   0  0  0  0  0  0  0  0  0  0  0  0
   -0.6329    2.4016    2.0640 C   0  0  0  0  0  0  0  0  0  0  0  0
    0.3582    2.8569    2.1803 H   0  0  0  0  0  0  0  0  0  0  0  0
    1.4965    1.6751    0.2165 C   0  0  0  0  0  0  0  0  0  0  0  0
    2.5688    0.7625    0.3497 C   0  0  0  0  0  0  0  0  0  0  0  0
    3.8730    1.2731    0.5372 C   0  0  0  0  0  0  0  0  0  0  0  0
    4.7127    0.5681    0.6175 H   0  0  0  0  0  0  0  0  0  0  0  0
    4.1535    2.6476    0.5966 C   0  0  0  0  0  0  0  0  0  0  0  0
    3.0721    3.5368    0.4347 C   0  0  0  0  0  0  0  0  0  0  0  0
    3.2493    4.6238    0.4482 H   0  0  0  0  0  0  0  0  0  0  0  0
    5.5560    3.1570    0.8069 C   0  0  0  0  0  0  0  0  0  0  0  0
    5.8467    3.8792    0.0164 H   0  0  0  0  0  0  0  0  0  0  0  0
    6.2947    2.3326    0.8065 H   0  0  0  0  0  0  0  0  0  0  0  0
    5.6461    3.6900    1.7769 H   0  0  0  0  0  0  0  0  0  0  0  0
    1.7752    3.0579    0.2371 C   0  0  0  0  0  0  0  0  0  0  0  0
    0.9609    3.7762    0.0800 H   0  0  0  0  0  0  0  0  0  0  0  0
   -0.8823    1.5210    1.0058 C   0  0  0  0  0  0  0  0  0  0  0  0
   -2.1489    0.8697    0.9267 C   0  0  0  0  0  0  0  0  0  0  0  0
   -3.1419    1.2179    1.8514 C   0  0  0  0  0  0  0  0  0  0  0  0
   -4.1191    0.7170    1.8008 H   0  0  0  0  0  0  0  0  0  0  0  0
   -1.6379    2.7002    3.0001 C   0  0  0  0  0  0  0  0  0  0  0  0
   -1.4090    3.3895    3.8280 H   0  0  0  0  0  0  0  0  0  0  0  0
   -2.9191    2.1416    2.8963 C   0  0  0  0  0  0  0  0  0  0  0  0
   -4.0139    2.4622    3.8815 C   0  0  0  0  0  0  0  0  0  0  0  0
   -4.8999    2.8991    3.3748 H   0  0  0  0  0  0  0  0  0  0  0  0
   -3.6733    3.1831    4.6496 H   0  0  0  0  0  0  0  0  0  0  0  0
   -4.3627    1.5483    4.4063 H   0  0  0  0  0  0  0  0  0  0  0  0
    3.0497   -2.9448   -1.7440 C   0  0  0  0  0  0  0  0  0  0  0  0
    2.1597   -2.7417   -2.3711 H   0  0  0  0  0  0  0  0  0  0  0  0
    2.7508   -3.7062   -1.0005 H   0  0  0  0  0  0  0  0  0  0  0  0
    3.8407   -3.3823   -2.3886 H   0  0  0  0  0  0  0  0  0  0  0  0
    3.9855   -0.6260   -2.1481 C   0  0  0  0  0  0  0  0  0  0  0  0
    3.1301   -0.3041   -2.7740 H   0  0  0  0  0  0  0  0  0  0  0  0
    4.7379   -1.0838   -2.8245 H   0  0  0  0  0  0  0  0  0  0  0  0
    4.4335    0.2856   -1.7116 H   0  0  0  0  0  0  0  0  0  0  0  0
    2.7992   -1.8341    1.7848 C   0  0  0  0  0  0  0  0  0  0  0  0
    2.0027   -1.4428    2.4558 H   0  0  0  0  0  0  0  0  0  0  0  0
    2.6056   -3.3545    1.7178 C   0  0  0  0  0  0  0  0  0  0  0  0
    1.6032   -3.6073    1.3213 H   0  0  0  0  0  0  0  0  0  0  0  0
    2.6779   -3.7775    2.7412 H   0  0  0  0  0  0  0  0  0  0  0  0
    3.3838   -3.8496    1.1000 H   0  0  0  0  0  0  0  0  0  0  0  0
    4.1753   -1.4510    2.3284 C   0  0  0  0  0  0  0  0  0  0  0  0
    4.3607   -2.0104    3.2695 H   0  0  0  0  0  0  0  0  0  0  0  0
    4.2520   -0.3739    2.5697 H   0  0  0  0  0  0  0  0  0  0  0  0
    5.0027   -1.7149    1.6342 H   0  0  0  0  0  0  0  0  0  0  0  0
   -3.2152   -0.0783   -1.7182 C   0  0  0  0  0  0  0  0  0  0  0  0
   -2.4391    0.5204   -2.2330 H   0  0  0  0  0  0  0  0  0  0  0  0
   -3.5219   -1.2863   -2.6128 C   0  0  0  0  0  0  0  0  0  0  0  0
   -4.3387   -1.9143   -2.2039 H   0  0  0  0  0  0  0  0  0  0  0  0
   -2.6305   -1.9323   -2.7431 H   0  0  0  0  0  0  0  0  0  0  0  0
   -3.8421   -0.9411   -3.6181 H   0  0  0  0  0  0  0  0  0  0  0  0
   -4.4177    0.8448   -1.5007 C   0  0  0  0  0  0  0  0  0  0  0  0
   -4.7557    1.2468   -2.4795 H   0  0  0  0  0  0  0  0  0  0  0  0
   -4.1537    1.7099   -0.8610 H   0  0  0  0  0  0  0  0  0  0  0  0
   -5.2807    0.3256   -1.0420 H   0  0  0  0  0  0  0  0  0  0  0  0
   -3.3553   -1.8522    0.7788 C   0  0  0  0  0  0  0  0  0  0  0  0
   -2.9833   -1.6754    1.8107 H   0  0  0  0  0  0  0  0  0  0  0  0
   -2.9507   -3.2835    0.3988 C   0  0  0  0  0  0  0  0  0  0  0  0
   -3.5042   -4.0039    1.0371 H   0  0  0  0  0  0  0  0  0  0  0  0
   -1.8670   -3.4316    0.5616 H   0  0  0  0  0  0  0  0  0  0  0  0
   -3.1871   -3.5198   -0.6587 H   0  0  0  0  0  0  0  0  0  0  0  0
   -4.8765   -1.6737    0.7248 C   0  0  0  0  0  0  0  0  0  0  0  0
   -5.2865   -1.8901   -0.2818 H   0  0  0  0  0  0  0  0  0  0  0  0
   -5.2210   -0.6628    1.0149 H   0  0  0  0  0  0  0  0  0  0  0  0
   -5.3486   -2.3937    1.4260 H   0  0  0  0  0  0  0  0  0  0  0  0
    3.5630   -1.6521   -1.0889 C   0  0  0  0  0  0  0  0  0  0  0  0
    4.4548   -1.8996   -0.4707 H   0  0  0  0  0  0  0  0  0  0  0  0
  1 19  1  0  0  0  0
  1 32  1  0  0  0  0
  2 20  1  0  0  0  0
  2 51  1  0  0  0  0
  3  4  1  0  0  0  0
  5 71  1  0  0  0  0
  5 33  1  0  0  0  0
  6  1  1  0  0  0  0
  7  4  1  0  0  0  0
  8  4  1  0  0  0  0
  8  6  2  0  0  0  0
  9  8  1  0  0  0  0
 10  9  1  0  0  0  0
 11  9  2  0  0  0  0
 11 13  1  0  0  0  0
 12 11  1  0  0  0  0
 13 15  2  0  0  0  0
 14 13  1  0  0  0  0
 15  6  1  0  0  0  0
 15 16  1  0  0  0  0
 17 18  1  0  0  0  0
 17 36  1  0  0  0  0
 19 30  2  0  0  0  0
 19 20  1  0  0  0  0
 20 21  2  0  0  0  0
 21 23  1  0  0  0  0
 21 22  1  0  0  0  0
 23 26  1  0  0  0  0
 24 25  1  0  0  0  0
 24 23  2  0  0  0  0
 26 29  1  0  0  0  0
 27 26  1  0  0  0  0
 28 26  1  0  0  0  0
 30 24  1  0  0  0  0
 31 30  1  0  0  0  0
 32 17  2  0  0  0  0
 33 32  1  0  0  0  0
 33 34  2  0  0  0  0
 34 38  1  0  0  0  0
 35 34  1  0  0  0  0
 36 37  1  0  0  0  0
 38 36  2  0  0  0  0
 38 39  1  0  0  0  0
 39 42  1  0  0  0  0
 39 41  1  0  0  0  0
 40 39  1  0  0  0  0
 43 81  1  0  0  0  0
 43 45  1  0  0  0  0
 44 43  1  0  0  0  0
 46 43  1  0  0  0  0
 47 50  1  0  0  0  0
 47 81  1  0  0  0  0
 48 47  1  0  0  0  0
 49 47  1  0  0  0  0
 51 57  1  0  0  0  0
 51 52  1  0  0  0  0
 53 51  1  0  0  0  0
 53 55  1  0  0  0  0
 54 53  1  0  0  0  0
 56 53  1  0  0  0  0
 57 59  1  0  0  0  0
 57 58  1  0  0  0  0
 60 57  1  0  0  0  0
 61 67  1  0  0  0  0
 61  5  1  0  0  0  0
 62 61  1  0  0  0  0
 63 64  1  0  0  0  0
 63 61  1  0  0  0  0
 65 63  1  0  0  0  0
 66 63  1  0  0  0  0
 67 70  1  0  0  0  0
 67 69  1  0  0  0  0
 68 67  1  0  0  0  0
 71 72  1  0  0  0  0
 73 75  1  0  0  0  0
 73 71  1  0  0  0  0
 73 74  1  0  0  0  0
 76 73  1  0  0  0  0
 77 71  1  0  0  0  0
 77 79  1  0  0  0  0
 77 80  1  0  0  0  0
 78 77  1  0  0  0  0
 81 82  1  0  0  0  0
 81  2  1  0  0  0  0
M  END
