1,2
q = 0.0, confidence = 0.996

 47 50  0  0  0  0  0  0  0  0999 V2000
   -1.3384    0.2455    0.0541 P   0  0  0  0  0  0  0  0  0  0  0  0
    1.6811    0.8813   -0.5038 N   0  0  0  0  0  2  0  0  0  0  0  0
   -1.3328    1.4285   -1.3590 C   0  0  0  0  0  0  0  0  0  0  0  0
   -2.5453    1.7682   -1.9797 C   0  0  0  0  0  0  0  0  0  0  0  0
   -2.5940    2.7074   -3.0230 C   0  0  0  0  0  0  0  0  0  0  0  0
   -1.4170    3.3407   -3.4445 C   0  0  0  0  0  0  0  0  0  0  0  0
   -0.2052    3.0217   -2.8235 C   0  0  0  0  0  0  0  0  0  0  0  0
   -0.1272    2.0516   -1.7935 C   0  0  0  0  0  0  0  0  0  0  0  0
    1.2212    1.8297   -1.2695 C   0  0  0  0  0  3  0  0  0  0  0  0
    3.0912    0.9432   -0.2333 C   0  0  0  0  0  0  0  0  0  0  0  0
    3.5524    1.1875    1.0728 C   0  0  0  0  0  0  0  0  0  0  0  0
    4.9315    1.2167    1.3195 C   0  0  0  0  0  0  0  0  0  0  0  0
    5.8474    0.9912    0.2783 C   0  0  0  0  0  0  0  0  0  0  0  0
    5.3787    0.7410   -1.0204 C   0  0  0  0  0  0  0  0  0  0  0  0
    4.0013    0.7211   -1.2839 C   0  0  0  0  0  0  0  0  0  0  0  0
   -1.6702    1.3260    1.5071 C   0  0  0  0  0  0  0  0  0  0  0  0
   -1.8022    2.7246    1.4053 C   0  0  0  0  0  0  0  0  0  0  0  0
   -2.0080    3.4980    2.5592 C   0  0  0  0  0  0  0  0  0  0  0  0
   -2.0911    2.8829    3.8172 C   0  0  0  0  0  0  0  0  0  0  0  0
   -1.9644    1.4876    3.9227 C   0  0  0  0  0  0  0  0  0  0  0  0
   -1.7480    0.7122    2.7764 C   0  0  0  0  0  0  0  0  0  0  0  0
   -2.8984   -0.7016   -0.1789 C   0  0  0  0  0  0  0  0  0  0  0  0
   -4.0657   -0.4238    0.5601 C   0  0  0  0  0  0  0  0  0  0  0  0
   -5.2284   -1.1795    0.3403 C   0  0  0  0  0  0  0  0  0  0  0  0
   -5.2318   -2.2065   -0.6161 C   0  0  0  0  0  0  0  0  0  0  0  0
   -4.0692   -2.4785   -1.3563 C   0  0  0  0  0  0  0  0  0  0  0  0
   -2.9012   -1.7341   -1.1416 C   0  0  0  0  0  0  0  0  0  0  0  0
   -3.4723    1.2801   -1.6444 H   0  0  0  0  0  0  0  0  0  0  0  0
   -3.5568    2.9446   -3.5000 H   0  0  0  0  0  0  0  0  0  0  0  0
   -1.4411    4.0836   -4.2553 H   0  0  0  0  0  0  0  0  0  0  0  0
    0.7216    3.5186   -3.1500 H   0  0  0  0  0  0  0  0  0  0  0  0
    1.9555    2.5923   -1.5992 H   0  0  0  0  0  0  0  0  0  0  0  0
    2.8285    1.3500    1.8830 H   0  0  0  0  0  0  0  0  0  0  0  0
    5.2926    1.4135    2.3401 H   0  0  0  0  0  0  0  0  0  0  0  0
    6.9284    1.0028    0.4824 H   0  0  0  0  0  0  0  0  0  0  0  0
    6.0891    0.5495   -1.8386 H   0  0  0  0  0  0  0  0  0  0  0  0
    3.6128    0.4903   -2.2868 H   0  0  0  0  0  0  0  0  0  0  0  0
   -1.7454    3.2139    0.4219 H   0  0  0  0  0  0  0  0  0  0  0  0
   -2.1057    4.5908    2.4708 H   0  0  0  0  0  0  0  0  0  0  0  0
   -2.2517    3.4917    4.7198 H   0  0  0  0  0  0  0  0  0  0  0  0
   -2.0227    0.9986    4.9066 H   0  0  0  0  0  0  0  0  0  0  0  0
   -1.6366   -0.3790    2.8663 H   0  0  0  0  0  0  0  0  0  0  0  0
   -4.0671    0.3806    1.3104 H   0  0  0  0  0  0  0  0  0  0  0  0
   -6.1365   -0.9627    0.9232 H   0  0  0  0  0  0  0  0  0  0  0  0
   -6.1439   -2.7994   -0.7836 H   0  0  0  0  0  0  0  0  0  0  0  0
   -4.0667   -3.2841   -2.1060 H   0  0  0  0  0  0  0  0  0  0  0  0
   -1.9852   -1.9353   -1.7233 H   0  0  0  0  0  0  0  0  0  0  0  0
  1 16  1  0  0  0  0
  2 10  1  0  0  0  0
  3  1  1  0  0  0  0
  4 28  1  0  0  0  0
  4  3  2  0  0  0  0
  5  4  1  0  0  0  0
  6  5  2  0  0  0  0
  6  7  1  0  0  0  0
  7  8  2  0  0  0  0
  8  3  1  0  0  0  0
  8  9  1  0  0  0  0
  9  2  1  0  0  0  0
 10 11  1  0  0  0  0
 11 12  2  0  0  0  0
 11 33  1  0  0  0  0
 12 34  1  0  0  0  0
 13 35  1  0  0  0  0
 13 12  1  0  0  0  0
 14 13  2  0  0  0  0
 15 14  1  0  0  0  0
 15 10  2  0  0  0  0
 16 21  1  0  0  0  0
 17 16  2  0  0  0  0
 17 18  1  0  0  0  0
 18 19  2  0  0  0  0
 19 20  1  0  0  0  0
 19 40  1  0  0  0  0
 20 41  1  0  0  0  0
 21 42  1  0  0  0  0
 21 20  2  0  0  0  0
 22  1  1  0  0  0  0
 22 23  1  0  0  0  0
 23 43  1  0  0  0  0
 24 23  2  0  0  0  0
 24 44  1  0  0  0  0
 25 24  1  0  0  0  0
 26 27  1  0  0  0  0
 26 25  2  0  0  0  0
 27 22  2  0  0  0  0
 29  5  1  0  0  0  0
 30  6  1  0  0  0  0
 31  7  1  0  0  0  0
 32  9  1  0  0  0  0
 36 14  1  0  0  0  0
 37 15  1  0  0  0  0
 38 17  1  0  0  0  0
 39 18  1  0  0  0  0
 45 25  1  0  0  0  0
 46 26  1  0  0  0  0
 47 27  1  0  0  0  0
M  END
