1,2
q = 0.0, confidence = 0.998

 50 51  0  0  1  0  0  0  0  0999 V2000
    0.5709    1.7978   -0.0365 P   0  0  0  0  0  0  0  0  0  0  0  0
   -1.9787    0.3194   -0.1975 N   0  0  0  0  0  2  0  0  0  0  0  0
   -1.2493   -2.2675   -0.1725 O   0  0  0  0  0  0  0  0  0  0  0  0
   -0.7827   -3.6284   -0.1777 C   0  0  0  0  0  0  0  0  0  0  0  0
   -1.0910   -4.1438    0.7543 H   0  0  0  0  0  0  0  0  0  0  0  0
    0.3185   -3.5663   -0.2263 H   0  0  0  0  0  0  0  0  0  0  0  0
   -1.1767   -4.1638   -1.0648 H   0  0  0  0  0  0  0  0  0  0  0  0
   -2.9649   -0.6252   -0.1097 C   0  0  1  0  0  3  0  0  0  0  0  0
   -2.5986   -2.0110   -0.1004 C   0  0  0  0  0  0  0  0  0  0  0  0
   -3.5871   -2.9859   -0.0230 C   0  0  0  0  0  0  0  0  0  0  0  0
   -3.3262   -4.0520   -0.0197 H   0  0  0  0  0  0  0  0  0  0  0  0
   -4.9537   -2.6049    0.0550 C   0  0  0  0  0  0  0  0  0  0  0  0
   -5.7156   -3.3955    0.1165 H   0  0  0  0  0  0  0  0  0  0  0  0
   -5.3371   -1.2723    0.0565 C   0  0  0  0  0  0  0  0  0  0  0  0
   -6.3976   -0.9894    0.1203 H   0  0  0  0  0  0  0  0  0  0  0  0
   -4.3468   -0.2533   -0.0264 C   0  0  0  0  0  0  0  0  0  0  0  0
   -4.6340    1.1423   -0.0275 C   0  0  0  0  0  0  0  0  0  0  0  0
   -5.6814    1.4728    0.0430 H   0  0  0  0  0  0  0  0  0  0  0  0
   -3.6101    2.0730   -0.1188 C   0  0  0  0  0  0  0  0  0  0  0  0
   -3.8278    3.1503   -0.1269 H   0  0  0  0  0  0  0  0  0  0  0  0
   -2.2630    1.6286   -0.2135 C   0  0  0  0  0  0  0  0  0  0  0  0
   -1.1084    2.5797   -0.3925 C   0  0  0  0  0  0  0  0  0  0  0  0
   -1.2468    3.5040    0.2037 H   0  0  0  0  0  0  0  0  0  0  0  0
   -1.0864    2.9051   -1.4546 H   0  0  0  0  0  0  0  0  0  0  0  0
    0.9924    2.3593    1.7305 C   0  0  0  0  0  0  0  0  0  0  0  0
    1.0708    3.8894    1.8596 C   0  0  0  0  0  0  0  0  0  0  0  0
    0.1632    4.4092    1.4930 H   0  0  0  0  0  0  0  0  0  0  0  0
    1.9508    4.3081    1.3366 H   0  0  0  0  0  0  0  0  0  0  0  0
    1.1784    4.1463    2.9338 H   0  0  0  0  0  0  0  0  0  0  0  0
   -0.1534    1.8133    2.6075 C   0  0  0  0  0  0  0  0  0  0  0  0
    0.0568    2.0682    3.6666 H   0  0  0  0  0  0  0  0  0  0  0  0
   -0.2367    0.7098    2.5313 H   0  0  0  0  0  0  0  0  0  0  0  0
   -1.1384    2.2537    2.3533 H   0  0  0  0  0  0  0  0  0  0  0  0
    2.3214    1.7255    2.1769 C   0  0  0  0  0  0  0  0  0  0  0  0
    3.1925    2.1700    1.6625 H   0  0  0  0  0  0  0  0  0  0  0  0
    2.3433    0.6335    2.0047 H   0  0  0  0  0  0  0  0  0  0  0  0
    2.4521    1.9055    3.2639 H   0  0  0  0  0  0  0  0  0  0  0  0
    1.6885    2.4859   -1.4068 C   0  0  0  0  0  0  0  0  0  0  0  0
    1.2163    1.7956   -2.7026 C   0  0  0  0  0  0  0  0  0  0  0  0
    1.8629    2.1274   -3.5408 H   0  0  0  0  0  0  0  0  0  0  0  0
    0.1733    2.0581   -2.9722 H   0  0  0  0  0  0  0  0  0  0  0  0
    1.2814    0.6929   -2.6305 H   0  0  0  0  0  0  0  0  0  0  0  0
    1.5560    4.0119   -1.5608 C   0  0  0  0  0  0  0  0  0  0  0  0
    1.9127    4.5638   -0.6726 H   0  0  0  0  0  0  0  0  0  0  0  0
    0.5204    4.3372   -1.7824 H   0  0  0  0  0  0  0  0  0  0  0  0
    2.1830    4.3307   -2.4192 H   0  0  0  0  0  0  0  0  0  0  0  0
    3.1505    2.1050   -1.1154 C   0  0  0  0  0  0  0  0  0  0  0  0
    3.7609    2.3203   -2.0163 H   0  0  0  0  0  0  0  0  0  0  0  0
    3.2657    1.0301   -0.8764 H   0  0  0  0  0  0  0  0  0  0  0  0
    3.5741    2.6998   -0.2843 H   0  0  0  0  0  0  0  0  0  0  0  0
  1 25  1  0  0  0  0
  3  9  1  0  0  0  0
  4  3  1  0  0  0  0
  4  5  1  0  0  0  0
  6  4  1  0  0  0  0
  7  4  1  0  0  0  0
  8  2  1  1  0  0  0
  8  9  1  0  0  0  0
  8 16  1  0  0  0  0
  9 10  2  0  0  0  0
 10 11  1  0  0  0  0
 10 12  1  0  0  0  0
 12 14  2  0  0  0  0
 12 13  1  0  0  0  0
 14 15  1  0  0  0  0
 16 14  1  0  0  0  0
 17 16  2  0  0  0  0
 17 18  1  0  0  0  0
 19 17  1  0  0  0  0
 20 19  1  0  0  0  0
 21  2  1  0  0  0  0
 21 19  2  0  0  0  0
 22 21  1  0  0  0  0
 22  1  1  0  0  0  0
 22 23  1  0  0  0  0
 24 22  1  0  0  0  0
 25 26  1  0  0  0  0
 25 34  1  0  0  0  0
 25 30  1  0  0  0  0
 26 29  1  0  0  0  0
 27 26  1  0  0  0  0
 28 26  1  0  0  0  0
 30 31  1  0  0  0  0
 32 30  1  0  0  0  0
 33 30  1  0  0  0  0
 34 37  1  0  0  0  0
 35 34  1  0  0  0  0
 36 34  1  0  0  0  0
 38 47  1  0  0  0  0
 38  1  1  0  0  0  0
 39 42  1  0  0  0  0
 39 38  1  0  0  0  0
 40 39  1  0  0  0  0
 41 39  1  0  0  0  0
 43 38  1  0  0  0  0
 43 44  1  0  0  0  0
 45 43  1  0  0  0  0
 46 43  1  0  0  0  0
 47 49  1  0  0  0  0
 47 50  1  0  0  0  0
 48 47  1  0  0  0  0
M  END
