1,2
q = 0.0, confidence = 0.996

 42 44  0  0  0  0  0  0  0  0999 V2000
    2.0480    0.7053    1.0904 N   0  0  0  0  0  0  0  0  0  0  0  0
   -0.7620    0.0905    0.1279 P   0  0  0  0  0  0  0  0  0  0  0  0
    2.2250   -0.1310    2.3150 C   0  0  0  0  0  0  0  0  0  0  0  0
    2.6001    0.5044    3.1459 H   0  0  0  0  0  0  0  0  0  0  0  0
    2.9334   -0.9489    2.0958 H   0  0  0  0  0  0  0  0  0  0  0  0
    1.2618   -0.5935    2.5918 H   0  0  0  0  0  0  0  0  0  0  0  0
    3.3623    1.2913    0.7069 C   0  0  0  0  0  0  0  0  0  0  0  0
    3.8018    1.8801    1.5380 H   0  0  0  0  0  0  0  0  0  0  0  0
    3.2174    1.9206   -0.1903 H   0  0  0  0  0  0  0  0  0  0  0  0
    4.0601    0.4666    0.4812 H   0  0  0  0  0  0  0  0  0  0  0  0
   -1.6312   -1.0942    1.2168 C   0  0  0  0  0  0  0  0  0  0  0  0
   -2.0757   -0.7419    2.5054 C   0  0  0  0  0  0  0  0  0  0  0  0
   -1.8940    0.2688    2.8993 H   0  0  0  0  0  0  0  0  0  0  0  0
   -2.7493   -1.6874    3.2949 C   0  0  0  0  0  0  0  0  0  0  0  0
   -3.0936   -1.4088    4.3024 H   0  0  0  0  0  0  0  0  0  0  0  0
   -2.9823   -2.9797    2.8007 C   0  0  0  0  0  0  0  0  0  0  0  0
   -3.5124   -3.7183    3.4211 H   0  0  0  0  0  0  0  0  0  0  0  0
   -2.5281   -3.3344    1.5199 C   0  0  0  0  0  0  0  0  0  0  0  0
   -2.6913   -4.3531    1.1373 H   0  0  0  0  0  0  0  0  0  0  0  0
   -1.8409   -2.4036    0.7293 C   0  0  0  0  0  0  0  0  0  0  0  0
   -1.4418   -2.6882   -0.2567 H   0  0  0  0  0  0  0  0  0  0  0  0
   -2.0316    0.6930   -1.0488 C   0  0  0  0  0  0  0  0  0  0  0  0
   -3.0731   -0.1617   -1.4612 C   0  0  0  0  0  0  0  0  0  0  0  0
   -3.1567   -1.1759   -1.0477 H   0  0  0  0  0  0  0  0  0  0  0  0
   -4.0164    0.2837   -2.3978 C   0  0  0  0  0  0  0  0  0  0  0  0
   -4.8255   -0.3915   -2.7140 H   0  0  0  0  0  0  0  0  0  0  0  0
   -3.9286    1.5796   -2.9283 C   0  0  0  0  0  0  0  0  0  0  0  0
   -4.6703    1.9264   -3.6638 H   0  0  0  0  0  0  0  0  0  0  0  0
   -2.8905    2.4315   -2.5200 C   0  0  0  0  0  0  0  0  0  0  0  0
   -2.8110    3.4470   -2.9365 H   0  0  0  0  0  0  0  0  0  0  0  0
   -1.9388    1.9934   -1.5891 C   0  0  0  0  0  0  0  0  0  0  0  0
   -1.1116    2.6518   -1.2936 H   0  0  0  0  0  0  0  0  0  0  0  0
   -0.3139    1.5435    1.1421 C   0  0  0  0  0  0  0  0  0  0  0  0
   -1.2704    2.4904    1.5563 C   0  0  0  0  0  0  0  0  0  0  0  0
   -2.3289    2.3278    1.3043 H   0  0  0  0  0  0  0  0  0  0  0  0
   -0.8788    3.6453    2.2457 C   0  0  0  0  0  0  0  0  0  0  0  0
   -1.6312    4.3839    2.5588 H   0  0  0  0  0  0  0  0  0  0  0  0
    0.4807    3.8564    2.5133 C   0  0  0  0  0  0  0  0  0  0  0  0
    0.8075    4.7645    3.0417 H   0  0  0  0  0  0  0  0  0  0  0  0
    1.4394    2.9160    2.1082 C   0  0  0  0  0  0  0  0  0  0  0  0
    2.4958    3.1056    2.3372 H   0  0  0  0  0  0  0  0  0  0  0  0
    1.0541    1.7517    1.4212 C   0  0  0  0  0  0  0  0  0  0  0  0
  1 42  1  0  0  0  0
  1  3  1  0  0  0  0
  2 33  1  0  0  0  0
  2 11  1  0  0  0  0
  3  6  1  0  0  0  0
  3  4  1  0  0  0  0
  5  3  1  0  0  0  0
  7  1  1  0  0  0  0
  7  8  1  0  0  0  0
  9  7  1  0  0  0  0
 10  7  1  0  0  0  0
 11 12  1  0  0  0  0
 12 13  1  0  0  0  0
 12 14  2  0  0  0  0
 14 15  1  0  0  0  0
 16 14  1  0  0  0  0
 16 17  1  0  0  0  0
 18 16  2  0  0  0  0
 19 18  1  0  0  0  0
 20 11  2  0  0  0  0
 20 18  1  0  0  0  0
 21 20  1  0  0  0  0
 22  2  1  0  0  0  0
 23 22  1  0  0  0  0
 23 24  1  0  0  0  0
 25 23  2  0  0  0  0
 26 25  1  0  0  0  0
 27 29  2  0  0  0  0
 27 25  1  0  0  0  0
 28 27  1  0  0  0  0
 29 31  1  0  0  0  0
 30 29  1  0  0  0  0
 31 32  1  0  0  0  0
 31 22  2  0  0  0  0
 33 42  2  0  0  0  0
 33 34  1  0  0  0  0
 34 36  2  0  0  0  0
 35 34  1  0  0  0  0
 36 38  1  0  0  0  0
 36 37  1  0  0  0  0
 38 39  1  0  0  0  0
 40 41  1  0  0  0  0
 40 38  2  0  0  0  0
 42 40  1  0  0  0  0
M  END
