1,2
q = 0.0, confidence = 0.994

 50 53  0  0  1  0  0  0  0  0999 V2000
   -0.3404    1.5524   -0.1944 P   0  0  0  0  0  0  0  0  0  0  0  0
   -1.8316   -0.8464   -0.3723 N   0  0  0  0  0  2  0  0  0  0  0  0
   -2.5200    0.1197   -0.9302 C   0  0  2  0  0  3  0  0  0  0  0  0
   -1.7206    1.3008   -1.4313 C   0  0  0  0  0  0  0  0  0  0  0  0
   -3.9958    0.1848   -1.0262 C   0  0  0  0  0  0  0  0  0  0  0  0
   -4.5931    0.7008   -2.2005 C   0  0  0  0  0  0  0  0  0  0  0  0
   -5.9866    0.7883   -2.3085 C   0  0  0  0  0  0  0  0  0  0  0  0
   -6.8001    0.3973   -1.2329 C   0  0  0  0  0  0  0  0  0  0  0  0
   -6.2150   -0.0862   -0.0504 C   0  0  0  0  0  0  0  0  0  0  0  0
   -4.8247   -0.2037    0.0531 C   0  0  0  0  0  0  0  0  0  0  0  0
   -2.4342   -2.0423    0.1026 C   0  0  0  0  0  0  0  0  0  0  0  0
   -3.1356   -2.9011   -0.7666 C   0  0  0  0  0  0  0  0  0  0  0  0
   -3.6500   -4.1106   -0.2801 C   0  0  0  0  0  0  0  0  0  0  0  0
   -3.4791   -4.4657    1.0685 C   0  0  0  0  0  0  0  0  0  0  0  0
   -2.7853   -3.6036    1.9344 C   0  0  0  0  0  0  0  0  0  0  0  0
   -2.2534   -2.3982    1.4545 C   0  0  0  0  0  0  0  0  0  0  0  0
   -1.1671    2.2170    1.2923 C   0  0  0  0  0  0  0  0  0  0  0  0
   -0.7768    1.7136    2.5514 C   0  0  0  0  0  0  0  0  0  0  0  0
   -1.3955    2.1858    3.7183 C   0  0  0  0  0  0  0  0  0  0  0  0
   -2.4096    3.1531    3.6341 C   0  0  0  0  0  0  0  0  0  0  0  0
   -2.8059    3.6518    2.3822 C   0  0  0  0  0  0  0  0  0  0  0  0
   -2.1875    3.1887    1.2117 C   0  0  0  0  0  0  0  0  0  0  0  0
    0.7362    2.8464   -0.8888 C   0  0  0  0  0  0  0  0  0  0  0  0
    1.6184    2.4729   -1.9258 C   0  0  0  0  0  0  0  0  0  0  0  0
    2.4704    3.4273   -2.4942 C   0  0  0  0  0  0  0  0  0  0  0  0
    2.4590    4.7508   -2.0211 C   0  0  0  0  0  0  0  0  0  0  0  0
    1.5946    5.1191   -0.9788 C   0  0  0  0  0  0  0  0  0  0  0  0
    0.7313    4.1711   -0.4082 C   0  0  0  0  0  0  0  0  0  0  0  0
   -2.3404    2.2056   -1.5730 H   0  0  0  0  0  0  0  0  0  0  0  0
   -1.2211    1.0715   -2.3966 H   0  0  0  0  0  0  0  0  0  0  0  0
   -3.9620    1.0118   -3.0468 H   0  0  0  0  0  0  0  0  0  0  0  0
   -6.4402    1.1699   -3.2351 H   0  0  0  0  0  0  0  0  0  0  0  0
   -7.8945    0.4770   -1.3130 H   0  0  0  0  0  0  0  0  0  0  0  0
   -6.8493   -0.3744    0.8008 H   0  0  0  0  0  0  0  0  0  0  0  0
   -4.3756   -0.5758    0.9837 H   0  0  0  0  0  0  0  0  0  0  0  0
   -3.2628   -2.6193   -1.8218 H   0  0  0  0  0  0  0  0  0  0  0  0
   -4.1897   -4.7834   -0.9630 H   0  0  0  0  0  0  0  0  0  0  0  0
   -3.8870   -5.4151    1.4450 H   0  0  0  0  0  0  0  0  0  0  0  0
   -2.6552   -3.8723    2.9934 H   0  0  0  0  0  0  0  0  0  0  0  0
   -1.7098   -1.7088    2.1187 H   0  0  0  0  0  0  0  0  0  0  0  0
    0.0102    0.9445    2.6068 H   0  0  0  0  0  0  0  0  0  0  0  0
   -1.0866    1.7926    4.6983 H   0  0  0  0  0  0  0  0  0  0  0  0
   -2.8975    3.5196    4.5497 H   0  0  0  0  0  0  0  0  0  0  0  0
   -3.6034    4.4067    2.3156 H   0  0  0  0  0  0  0  0  0  0  0  0
   -2.5068    3.5894    0.2375 H   0  0  0  0  0  0  0  0  0  0  0  0
    1.6564    1.4249   -2.2635 H   0  0  0  0  0  0  0  0  0  0  0  0
    3.1596    3.1340   -3.2998 H   0  0  0  0  0  0  0  0  0  0  0  0
    3.1367    5.4969   -2.4621 H   0  0  0  0  0  0  0  0  0  0  0  0
    1.5935    6.1524   -0.6011 H   0  0  0  0  0  0  0  0  0  0  0  0
    0.0635    4.4616    0.4162 H   0  0  0  0  0  0  0  0  0  0  0  0
  1 17  1  0  0  0  0
  2 11  1  0  0  0  0
  3  2  1  1  0  0  0
  4  3  1  0  0  0  0
  4  1  1  0  0  0  0
  5  3  1  0  0  0  0
  5 10  1  0  0  0  0
  6  5  2  0  0  0  0
  7  6  1  0  0  0  0
  7  8  2  0  0  0  0
  8  9  1  0  0  0  0
  9 10  2  0  0  0  0
  9 34  1  0  0  0  0
 10 35  1  0  0  0  0
 11 16  1  0  0  0  0
 12 13  1  0  0  0  0
 12 11  2  0  0  0  0
 13 14  2  0  0  0  0
 14 38  1  0  0  0  0
 14 15  1  0  0  0  0
 15 39  1  0  0  0  0
 16 15  2  0  0  0  0
 16 40  1  0  0  0  0
 17 18  1  0  0  0  0
 18 41  1  0  0  0  0
 18 19  2  0  0  0  0
 19 42  1  0  0  0  0
 20 19  1  0  0  0  0
 20 43  1  0  0  0  0
 21 20  2  0  0  0  0
 22 17  2  0  0  0  0
 22 21  1  0  0  0  0
 23 28  1  0  0  0  0
 23  1  1  0  0  0  0
 24 23  2  0  0  0  0
 25 26  2  0  0  0  0
 25 24  1  0  0  0  0
 26 27  1  0  0  0  0
 27 49  1  0  0  0  0
 27 28  2  0  0  0  0
 28 50  1  0  0  0  0
 29  4  1  0  0  0  0
 30  4  1  0  0  0  0
 31  6  1  0  0  0  0
 32  7  1  0  0  0  0
 33  8  1  0  0  0  0
 36 12  1  0  0  0  0
 37 13  1  0  0  0  0
 44 21  1  0  0  0  0
 45 22  1  0  0  0  0
 46 24  1  0  0  0  0
 47 25  1  0  0  0  0
 48 26  1  0  0  0  0
M  END
