1,36
q = 0.0, confidence = 1.0

 47 50  0  0  0  0  0  0  0  0999 V2000
   -1.0765    0.0785   -0.0922 P   0  0  0  0  0  0  0  0  0  0  0  0
   -0.3286    1.4323   -1.0728 C   0  0  0  0  0  0  0  0  0  0  0  0
   -0.5275    2.7944   -0.7761 C   0  0  0  0  0  0  0  0  0  0  0  0
   -1.1675    3.0881    0.0698 H   0  0  0  0  0  0  0  0  0  0  0  0
    0.0950    3.7756   -1.5642 C   0  0  0  0  0  0  0  0  0  0  0  0
   -0.0570    4.8405   -1.3308 H   0  0  0  0  0  0  0  0  0  0  0  0
    0.9058    3.3998   -2.6463 C   0  0  0  0  0  0  0  0  0  0  0  0
    1.3939    4.1716   -3.2607 H   0  0  0  0  0  0  0  0  0  0  0  0
    1.1036    2.0401   -2.9400 C   0  0  0  0  0  0  0  0  0  0  0  0
    1.7509    1.7436   -3.7782 H   0  0  0  0  0  0  0  0  0  0  0  0
    0.4962    1.0533   -2.1534 C   0  0  0  0  0  0  0  0  0  0  0  0
    0.6661   -0.0158   -2.3591 H   0  0  0  0  0  0  0  0  0  0  0  0
   -2.5775   -0.4342   -0.9969 C   0  0  0  0  0  0  0  0  0  0  0  0
   -3.1104    0.3567   -2.0326 C   0  0  0  0  0  0  0  0  0  0  0  0
   -2.5931    1.2756   -2.3465 H   0  0  0  0  0  0  0  0  0  0  0  0
   -4.3014   -0.0343   -2.6654 C   0  0  0  0  0  0  0  0  0  0  0  0
   -4.7141    0.5821   -3.4783 H   0  0  0  0  0  0  0  0  0  0  0  0
   -4.9588   -1.2071   -2.2645 C   0  0  0  0  0  0  0  0  0  0  0  0
   -5.8905   -1.5133   -2.7641 H   0  0  0  0  0  0  0  0  0  0  0  0
   -4.4232   -1.9975   -1.2330 C   0  0  0  0  0  0  0  0  0  0  0  0
   -4.9296   -2.9255   -0.9279 H   0  0  0  0  0  0  0  0  0  0  0  0
   -3.2302   -1.6212   -0.6029 C   0  0  0  0  0  0  0  0  0  0  0  0
   -2.7874   -2.2535    0.1802 H   0  0  0  0  0  0  0  0  0  0  0  0
   -1.7238    0.8815    1.4305 C   0  0  0  0  0  0  0  0  0  0  0  0
   -3.0880    1.1983    1.5579 C   0  0  0  0  0  0  0  0  0  0  0  0
   -3.7777    0.9425    0.7404 H   0  0  0  0  0  0  0  0  0  0  0  0
   -3.5761    1.8384    2.7086 C   0  0  0  0  0  0  0  0  0  0  0  0
   -4.6489    2.0694    2.7896 H   0  0  0  0  0  0  0  0  0  0  0  0
   -2.6953    2.1932    3.7409 C   0  0  0  0  0  0  0  0  0  0  0  0
   -3.0688    2.7036    4.6409 H   0  0  0  0  0  0  0  0  0  0  0  0
   -1.3329    1.8969    3.6194 C   0  0  0  0  0  0  0  0  0  0  0  0
   -0.6355    2.1781    4.4240 H   0  0  0  0  0  0  0  0  0  0  0  0
   -0.8288    1.2170    2.4869 C   0  0  0  0  0  0  0  0  0  0  0  0
    0.6114    0.9563    2.4589 C   0  0  0  0  0  3  0  0  0  0  0  0
    1.2203    1.6259    3.1008 H   0  0  0  0  0  0  0  0  0  0  0  0
    1.2431    0.0458    1.7849 N   0  0  0  0  0  2  0  0  0  0  0  0
    2.7224    0.0751    1.8270 C   0  0  0  0  0  0  0  0  0  0  0  0
    3.0438   -0.9587    2.0754 H   0  0  0  0  0  0  0  0  0  0  0  0
    3.0531    0.7849    2.6147 H   0  0  0  0  0  0  0  0  0  0  0  0
    3.2850    0.5041    0.5043 C   0  0  0  0  0  0  0  0  0  0  0  0
    3.5705    1.7979    0.0927 C   0  0  0  0  0  0  0  0  0  0  0  0
    3.4182    2.6743    0.7392 H   0  0  0  0  0  0  0  0  0  0  0  0
    4.0865    1.8617   -1.2348 C   0  0  0  0  0  0  0  0  0  0  0  0
    4.3811    2.7920   -1.7393 H   0  0  0  0  0  0  0  0  0  0  0  0
    4.1746    0.6108   -1.8194 C   0  0  0  0  0  0  0  0  0  0  0  0
    4.5349    0.3563   -2.8241 H   0  0  0  0  0  0  0  0  0  0  0  0
    3.6240   -0.6452   -0.7657 S   0  0  0  0  0  0  0  0  0  0  0  0
  1 24  1  0  0  0  0
  2  3  1  0  0  0  0
  2  1  1  0  0  0  0
  3  4  1  0  0  0  0
  5  6  1  0  0  0  0
  5  3  2  0  0  0  0
  7  5  1  0  0  0  0
  8  7  1  0  0  0  0
  9  7  2  0  0  0  0
  9 11  1  0  0  0  0
 10  9  1  0  0  0  0
 11  2  2  0  0  0  0
 12 11  1  0  0  0  0
 13 22  1  0  0  0  0
 13  1  1  0  0  0  0
 14 13  2  0  0  0  0
 15 14  1  0  0  0  0
 16 18  2  0  0  0  0
 16 14  1  0  0  0  0
 17 16  1  0  0  0  0
 18 20  1  0  0  0  0
 19 18  1  0  0  0  0
 20 21  1  0  0  0  0
 20 22  2  0  0  0  0
 22 23  1  0  0  0  0
 24 25  2  0  0  0  0
 24 33  1  0  0  0  0
 25 27  1  0  0  0  0
 26 25  1  0  0  0  0
 27 28  1  0  0  0  0
 27 29  2  0  0  0  0
 29 30  1  0  0  0  0
 31 29  1  0  0  0  0
 31 32  1  0  0  0  0
 33 31  2  0  0  0  0
 34 33  1  0  0  0  0
 34 35  1  0  0  0  0
 36 37  1  0  0  0  0
 36 34  1  0  0  0  0
 37 38  1  0  0  0  0
 37 39  1  0  0  0  0
 40 37  1  0  0  0  0
 41 40  2  0  0  0  0
 41 42  1  0  0  0  0
 43 41  1  0  0  0  0
 44 43  1  0  0  0  0
 45 43  2  0  0  0  0
 45 47  1  0  0  0  0
 46 45  1  0  0  0  0
 47 40  1  0  0  0  0
M  END
