1,5
q = 0.0, confidence = 1.0

 78 80  0  0  1  0  0  0  0  0999 V2000
    1.3171    0.9740    0.4240 P   0  0  0  0  0  0  0  0  0  0  0  0
    1.9308    0.3093    1.8020 O   0  0  0  0  0  0  0  0  0  0  0  0
    2.7279    1.5298   -0.2190 O   0  0  0  0  0  0  0  0  0  0  0  0
    0.7410    2.4231    0.9628 O   0  0  0  0  0  0  0  0  0  0  0  0
   -0.1960   -1.6616    0.8519 N   0  0  0  0  0  2  0  0  0  0  0  0
   -6.6757   -0.6509   -0.0944 N   0  0  0  0  0  0  0  0  0  0  0  0
    1.3981   -0.8256    2.4931 C   0  0  0  0  0  0  0  0  0  0  0  0
    0.5134   -0.5168    3.0893 H   0  0  0  0  0  0  0  0  0  0  0  0
    2.1964   -1.1339    3.1951 H   0  0  0  0  0  0  0  0  0  0  0  0
    1.0129   -2.0195    1.6011 C   0  0  2  0  0  0  0  0  0  0  0  0
    2.1400   -2.5342    0.6802 C   0  0  2  0  0  0  0  0  0  0  0  0
    1.6757   -3.8040   -0.0569 C   0  0  0  0  0  0  0  0  0  0  0  0
    2.5931   -4.2336   -1.2013 C   0  0  0  0  0  0  0  0  0  0  0  0
    2.1955   -5.1357   -1.7071 H   0  0  0  0  0  0  0  0  0  0  0  0
    3.6227   -4.4699   -0.8624 H   0  0  0  0  0  0  0  0  0  0  0  0
    2.6617   -3.4337   -1.9667 H   0  0  0  0  0  0  0  0  0  0  0  0
    3.4567   -2.7191    1.4408 C   0  0  0  0  0  0  0  0  0  0  0  0
    4.2220   -3.1692    0.7807 H   0  0  0  0  0  0  0  0  0  0  0  0
    3.3311   -3.3933    2.3157 H   0  0  0  0  0  0  0  0  0  0  0  0
    3.8760   -1.7549    1.7899 H   0  0  0  0  0  0  0  0  0  0  0  0
   -1.3534   -2.1060    1.2692 C   0  0  0  0  0  3  0  0  0  0  0  0
   -2.6795   -1.6998    0.8714 C   0  0  0  0  0  0  0  0  0  0  0  0
   -2.9768   -0.5526    0.0878 C   0  0  0  0  0  0  0  0  0  0  0  0
   -2.1624    0.0921   -0.2815 H   0  0  0  0  0  0  0  0  0  0  0  0
   -4.2810   -0.1991   -0.2177 C   0  0  0  0  0  0  0  0  0  0  0  0
   -4.4423    0.7058   -0.8160 H   0  0  0  0  0  0  0  0  0  0  0  0
   -5.3847   -0.9890    0.2291 C   0  0  0  0  0  0  0  0  0  0  0  0
   -5.0933   -2.1337    1.0324 C   0  0  0  0  0  0  0  0  0  0  0  0
   -5.9035   -2.7672    1.4138 H   0  0  0  0  0  0  0  0  0  0  0  0
   -3.7796   -2.4619    1.3450 C   0  0  0  0  0  0  0  0  0  0  0  0
   -3.5870   -3.3494    1.9690 H   0  0  0  0  0  0  0  0  0  0  0  0
   -6.9379    0.5181   -0.9166 C   0  0  0  0  0  0  0  0  0  0  0  0
   -6.5755    1.4536   -0.4359 H   0  0  0  0  0  0  0  0  0  0  0  0
   -8.0266    0.6159   -1.0746 H   0  0  0  0  0  0  0  0  0  0  0  0
   -6.4508    0.4411   -1.9131 H   0  0  0  0  0  0  0  0  0  0  0  0
   -7.7818   -1.4689    0.3675 C   0  0  0  0  0  0  0  0  0  0  0  0
   -7.7078   -2.5150   -0.0038 H   0  0  0  0  0  0  0  0  0  0  0  0
   -8.7312   -1.0437   -0.0033 H   0  0  0  0  0  0  0  0  0  0  0  0
   -7.8358   -1.5076    1.4784 H   0  0  0  0  0  0  0  0  0  0  0  0
    3.9476    0.8427   -0.1355 C   0  0  0  0  0  0  0  0  0  0  0  0
    4.8068    1.1731    0.9364 C   0  0  0  0  0  0  0  0  0  0  0  0
    6.0406    0.4991    1.0097 C   0  0  0  0  0  0  0  0  0  0  0  0
    6.7279    0.7389    1.8361 H   0  0  0  0  0  0  0  0  0  0  0  0
    6.4015   -0.4525    0.0453 C   0  0  0  0  0  0  0  0  0  0  0  0
    7.3691   -0.9713    0.1194 H   0  0  0  0  0  0  0  0  0  0  0  0
    5.5425   -0.7219   -1.0278 C   0  0  0  0  0  0  0  0  0  0  0  0
    5.8375   -1.4445   -1.8046 H   0  0  0  0  0  0  0  0  0  0  0  0
    4.2970   -0.0722   -1.1526 C   0  0  0  0  0  0  0  0  0  0  0  0
    3.3963   -0.3310   -2.3281 C   0  0  0  0  0  0  0  0  0  0  0  0
    2.9219    0.5966   -2.7007 H   0  0  0  0  0  0  0  0  0  0  0  0
    2.5436   -0.9963   -2.0701 H   0  0  0  0  0  0  0  0  0  0  0  0
    3.9549   -0.8166   -3.1504 H   0  0  0  0  0  0  0  0  0  0  0  0
    4.4146    2.2220    1.9424 C   0  0  0  0  0  0  0  0  0  0  0  0
    5.2825    2.5241    2.5585 H   0  0  0  0  0  0  0  0  0  0  0  0
    3.6166    1.8498    2.6164 H   0  0  0  0  0  0  0  0  0  0  0  0
    4.0016    3.1201    1.4407 H   0  0  0  0  0  0  0  0  0  0  0  0
   -0.5154    2.9347    0.6089 C   0  0  0  0  0  0  0  0  0  0  0  0
   -0.5721    3.8853   -0.4310 C   0  0  0  0  0  0  0  0  0  0  0  0
   -1.8393    4.4095   -0.7491 C   0  0  0  0  0  0  0  0  0  0  0  0
   -1.9163    5.1468   -1.5629 H   0  0  0  0  0  0  0  0  0  0  0  0
   -2.9878    4.0062   -0.0534 C   0  0  0  0  0  0  0  0  0  0  0  0
   -3.9682    4.4277   -0.3225 H   0  0  0  0  0  0  0  0  0  0  0  0
   -2.8871    3.0835    0.9970 C   0  0  0  0  0  0  0  0  0  0  0  0
   -3.7830    2.7796    1.5603 H   0  0  0  0  0  0  0  0  0  0  0  0
   -1.6412    2.5344    1.3568 C   0  0  0  0  0  0  0  0  0  0  0  0
    0.6743    4.2915   -1.1636 C   0  0  0  0  0  0  0  0  0  0  0  0
    1.5051    4.5041   -0.4619 H   0  0  0  0  0  0  0  0  0  0  0  0
    0.4929    5.1831   -1.7926 H   0  0  0  0  0  0  0  0  0  0  0  0
    1.0078    3.4597   -1.8207 H   0  0  0  0  0  0  0  0  0  0  0  0
   -1.4998    1.5667    2.5002 C   0  0  0  0  0  0  0  0  0  0  0  0
   -2.4263    1.5258    3.1028 H   0  0  0  0  0  0  0  0  0  0  0  0
   -0.6541    1.8471    3.1605 H   0  0  0  0  0  0  0  0  0  0  0  0
   -1.3040    0.5375    2.1347 H   0  0  0  0  0  0  0  0  0  0  0  0
    0.7512   -2.8331    2.3196 H   0  0  0  0  0  0  0  0  0  0  0  0
    2.3025   -1.7471   -0.0896 H   0  0  0  0  0  0  0  0  0  0  0  0
    0.6673   -3.6134   -0.4815 H   0  0  0  0  0  0  0  0  0  0  0  0
    1.5685   -4.6293    0.6846 H   0  0  0  0  0  0  0  0  0  0  0  0
   -1.3192   -2.8844    2.0610 H   0  0  0  0  0  0  0  0  0  0  0  0
  1  4  1  0  0  0  0
  1  2  1  0  0  0  0
  2  7  1  0  0  0  0
  3 40  1  0  0  0  0
  3  1  1  0  0  0  0
  5 21  1  0  0  0  0
  5 10  1  0  0  0  0
  6 27  1  0  0  0  0
  6 36  1  0  0  0  0
  7  8  1  0  0  0  0
  7  9  1  0  0  0  0
 10 74  1  1  0  0  0
 10  7  1  0  0  0  0
 11 75  1  6  0  0  0
 11 17  1  0  0  0  0
 11 10  1  0  0  0  0
 12 11  1  0  0  0  0
 12 77  1  0  0  0  0
 13 15  1  0  0  0  0
 13 12  1  0  0  0  0
 14 13  1  0  0  0  0
 16 13  1  0  0  0  0
 17 20  1  0  0  0  0
 17 19  1  0  0  0  0
 18 17  1  0  0  0  0
 21 78  1  0  0  0  0
 22 21  1  0  0  0  0
 22 30  1  0  0  0  0
 23 22  2  0  0  0  0
 24 23  1  0  0  0  0
 25 23  1  0  0  0  0
 25 27  2  0  0  0  0
 26 25  1  0  0  0  0
 27 28  1  0  0  0  0
 28 30  2  0  0  0  0
 28 29  1  0  0  0  0
 30 31  1  0  0  0  0
 32 33  1  0  0  0  0
 32  6  1  0  0  0  0
 34 32  1  0  0  0  0
 35 32  1  0  0  0  0
 36 39  1  0  0  0  0
 37 36  1  0  0  0  0
 38 36  1  0  0  0  0
 40 41  1  0  0  0  0
 41 42  2  0  0  0  0
 41 53  1  0  0  0  0
 42 43  1  0  0  0  0
 44 45  1  0  0  0  0
 44 42  1  0  0  0  0
 46 44  2  0  0  0  0
 47 46  1  0  0  0  0
 48 46  1  0  0  0  0
 48 40  2  0  0  0  0
 49 51  1  0  0  0  0
 49 48  1  0  0  0  0
 50 49  1  0  0  0  0
 52 49  1  0  0  0  0
 53 54  1  0  0  0  0
 53 55  1  0  0  0  0
 56 53  1  0  0  0  0
 57  4  1  0  0  0  0
 57 65  1  0  0  0  0
 58 57  2  0  0  0  0
 59 58  1  0  0  0  0
 59 61  2  0  0  0  0
 60 59  1  0  0  0  0
 61 63  1  0  0  0  0
 62 61  1  0  0  0  0
 63 65  2  0  0  0  0
 63 64  1  0  0  0  0
 65 70  1  0  0  0  0
 66 67  1  0  0  0  0
 66 58  1  0  0  0  0
 68 66  1  0  0  0  0
 69 66  1  0  0  0  0
 70 71  1  0  0  0  0
 70 72  1  0  0  0  0
 73 70  1  0  0  0  0
 76 12  1  0  0  0  0
M  END
