1,2
q = 0.0, confidence = 0.992

 43 45  0  0  0  0  0  0  0  0999 V2000
   -0.6011    0.0160   -0.0579 P   0  0  0  0  0  0  0  0  0  0  0  0
    2.3149    1.0994    0.4040 N   0  0  0  0  0  2  0  0  0  0  0  0
    3.4674    1.6039    0.1007 C   0  0  0  0  0  3  0  0  0  0  0  0
    3.6711    2.6482    0.4257 H   0  0  0  0  0  0  0  0  0  0  0  0
    4.5568    0.9101   -0.6415 C   0  0  0  0  0  0  0  0  0  0  0  0
    5.3151    1.6391   -0.9837 H   0  0  0  0  0  0  0  0  0  0  0  0
    4.1653    0.3481   -1.5103 H   0  0  0  0  0  0  0  0  0  0  0  0
    5.0634    0.1686    0.0115 H   0  0  0  0  0  0  0  0  0  0  0  0
    1.3913    2.0329    1.0871 C   0  0  0  0  0  0  0  0  0  0  0  0
    0.8747    1.4771    1.8950 H   0  0  0  0  0  0  0  0  0  0  0  0
    1.9607    2.8614    1.5602 H   0  0  0  0  0  0  0  0  0  0  0  0
    0.3978    2.6193    0.1044 C   0  0  0  0  0  0  0  0  0  0  0  0
    0.4682    3.9814   -0.2369 C   0  0  0  0  0  0  0  0  0  0  0  0
    1.2268    4.6171    0.2471 H   0  0  0  0  0  0  0  0  0  0  0  0
   -0.4078    4.5354   -1.1833 C   0  0  0  0  0  0  0  0  0  0  0  0
   -0.3368    5.6036   -1.4377 H   0  0  0  0  0  0  0  0  0  0  0  0
   -1.3634    3.7210   -1.8072 C   0  0  0  0  0  0  0  0  0  0  0  0
   -2.0496    4.1447   -2.5561 H   0  0  0  0  0  0  0  0  0  0  0  0
   -1.4497    2.3603   -1.4743 C   0  0  0  0  0  0  0  0  0  0  0  0
   -2.2016    1.7225   -1.9617 H   0  0  0  0  0  0  0  0  0  0  0  0
   -0.5827    1.8030   -0.5163 C   0  0  0  0  0  0  0  0  0  0  0  0
   -1.5497    0.0075    1.5290 C   0  0  0  0  0  0  0  0  0  0  0  0
   -2.0390    1.1775    2.1410 C   0  0  0  0  0  0  0  0  0  0  0  0
   -1.8901    2.1545    1.6569 H   0  0  0  0  0  0  0  0  0  0  0  0
   -2.7243    1.1000    3.3652 C   0  0  0  0  0  0  0  0  0  0  0  0
   -3.0994    2.0206    3.8379 H   0  0  0  0  0  0  0  0  0  0  0  0
   -2.9354   -0.1433    3.9788 C   0  0  0  0  0  0  0  0  0  0  0  0
   -3.4734   -0.2022    4.9370 H   0  0  0  0  0  0  0  0  0  0  0  0
   -2.4557   -1.3140    3.3668 C   0  0  0  0  0  0  0  0  0  0  0  0
   -2.6166   -2.2928    3.8433 H   0  0  0  0  0  0  0  0  0  0  0  0
   -1.7610   -1.2413    2.1529 C   0  0  0  0  0  0  0  0  0  0  0  0
   -1.3807   -2.1616    1.6831 H   0  0  0  0  0  0  0  0  0  0  0  0
   -1.8411   -0.7089   -1.2201 C   0  0  0  0  0  0  0  0  0  0  0  0
   -3.2229   -0.6140   -0.9470 C   0  0  0  0  0  0  0  0  0  0  0  0
   -3.5661   -0.1346   -0.0182 H   0  0  0  0  0  0  0  0  0  0  0  0
   -4.1608   -1.1336   -1.8510 C   0  0  0  0  0  0  0  0  0  0  0  0
   -5.2353   -1.0562   -1.6252 H   0  0  0  0  0  0  0  0  0  0  0  0
   -3.7309   -1.7547   -3.0344 C   0  0  0  0  0  0  0  0  0  0  0  0
   -4.4674   -2.1676   -3.7404 H   0  0  0  0  0  0  0  0  0  0  0  0
   -2.3586   -1.8545   -3.3095 C   0  0  0  0  0  0  0  0  0  0  0  0
   -2.0126   -2.3465   -4.2309 H   0  0  0  0  0  0  0  0  0  0  0  0
   -1.4169   -1.3379   -2.4070 C   0  0  0  0  0  0  0  0  0  0  0  0
   -0.3464   -1.4286   -2.6308 H   0  0  0  0  0  0  0  0  0  0  0  0
  1 22  1  0  0  0  0
  2  9  1  0  0  0  0
  3  2  1  0  0  0  0
  3  4  1  0  0  0  0
  5  8  1  0  0  0  0
  5  3  1  0  0  0  0
  6  5  1  0  0  0  0
  7  5  1  0  0  0  0
  9 11  1  0  0  0  0
  9 10  1  0  0  0  0
 12  9  1  0  0  0  0
 13 12  1  0  0  0  0
 13 14  1  0  0  0  0
 15 13  2  0  0  0  0
 16 15  1  0  0  0  0
 17 19  2  0  0  0  0
 17 15  1  0  0  0  0
 18 17  1  0  0  0  0
 19 21  1  0  0  0  0
 20 19  1  0  0  0  0
 21  1  1  0  0  0  0
 21 12  2  0  0  0  0
 22 23  2  0  0  0  0
 22 31  1  0  0  0  0
 23 25  1  0  0  0  0
 24 23  1  0  0  0  0
 25 26  1  0  0  0  0
 25 27  2  0  0  0  0
 27 28  1  0  0  0  0
 29 30  1  0  0  0  0
 29 27  1  0  0  0  0
 31 29  2  0  0  0  0
 32 31  1  0  0  0  0
 33 34  1  0  0  0  0
 33  1  1  0  0  0  0
 34 35  1  0  0  0  0
 36 37  1  0  0  0  0
 36 34  2  0  0  0  0
 38 36  1  0  0  0  0
 39 38  1  0  0  0  0
 40 38  2  0  0  0  0
 40 42  1  0  0  0  0
 41 40  1  0  0  0  0
 42 33  2  0  0  0  0
 43 42  1  0  0  0  0
M  END
