1,2
q = 0.0, confidence = 0.988

 43 45  0  0  1  0  0  0  0  0999 V2000
    0.6813    0.0509    0.1874 P   0  0  0  0  0  0  0  0  0  0  0  0
   -2.1654   -0.2694   -0.0020 N   0  0  0  0  0  2  0  0  0  0  0  0
    0.1554    0.0758    1.7785 O   0  0  0  0  0  0  0  0  0  0  0  0
    0.7461    1.8270   -0.2458 C   0  0  0  0  0  0  0  0  0  0  0  0
   -2.2307   -0.0859    1.3466 C   0  0  2  0  0  3  0  0  0  0  0  0
   -4.2829    0.8591   -0.2650 C   0  0  0  0  0  0  0  0  0  0  0  0
   -5.0695    1.2117   -0.9468 H   0  0  0  0  0  0  0  0  0  0  0  0
    3.3909   -0.1479   -0.5372 C   0  0  0  0  0  0  0  0  0  0  0  0
    3.0937    0.3644   -1.4623 H   0  0  0  0  0  0  0  0  0  0  0  0
    0.8071    4.5407   -0.9491 C   0  0  0  0  0  0  0  0  0  0  0  0
    0.8319    5.6062   -1.2243 H   0  0  0  0  0  0  0  0  0  0  0  0
    0.8953    2.8068    0.7558 C   0  0  0  0  0  0  0  0  0  0  0  0
    0.9795    2.5000    1.8089 H   0  0  0  0  0  0  0  0  0  0  0  0
    2.4235   -0.4383    0.4475 C   0  0  0  0  0  0  0  0  0  0  0  0
    0.6156    2.2031   -1.5979 C   0  0  0  0  0  0  0  0  0  0  0  0
    0.4924    1.4204   -2.3642 H   0  0  0  0  0  0  0  0  0  0  0  0
    2.8037   -1.1039    1.6284 C   0  0  0  0  0  0  0  0  0  0  0  0
    2.0524   -1.3079    2.4035 H   0  0  0  0  0  0  0  0  0  0  0  0
   -1.1816   -0.3173    3.6634 C   0  0  0  0  0  0  0  0  0  0  0  0
   -1.2467    0.7735    3.8381 H   0  0  0  0  0  0  0  0  0  0  0  0
   -0.2763   -0.6922    4.1767 H   0  0  0  0  0  0  0  0  0  0  0  0
   -2.0627   -0.8160    4.1102 H   0  0  0  0  0  0  0  0  0  0  0  0
    0.6555    3.5621   -1.9446 C   0  0  0  0  0  0  0  0  0  0  0  0
    0.5596    3.8577   -3.0005 H   0  0  0  0  0  0  0  0  0  0  0  0
    0.9226    4.1625    0.3994 C   0  0  0  0  0  0  0  0  0  0  0  0
    1.0362    4.9307    1.1796 H   0  0  0  0  0  0  0  0  0  0  0  0
   -1.0613   -0.6316    2.1732 C   0  0  0  0  0  0  0  0  0  0  0  0
   -3.1753    0.1918   -0.7889 C   0  0  0  0  0  0  0  0  0  0  0  0
   -3.0768   -0.0387   -1.8588 H   0  0  0  0  0  0  0  0  0  0  0  0
   -0.9193   -2.1448    1.9539 C   0  0  0  0  0  0  0  0  0  0  0  0
   -0.0275   -2.5261    2.4874 H   0  0  0  0  0  0  0  0  0  0  0  0
   -0.8273   -2.3842    0.8721 H   0  0  0  0  0  0  0  0  0  0  0  0
   -1.8174   -2.6704    2.3338 H   0  0  0  0  0  0  0  0  0  0  0  0
    5.1015   -1.1997    0.8378 C   0  0  0  0  0  0  0  0  0  0  0  0
    6.1497   -1.4992    0.9889 H   0  0  0  0  0  0  0  0  0  0  0  0
    4.1407   -1.4846    1.8195 C   0  0  0  0  0  0  0  0  0  0  0  0
    4.4317   -2.0049    2.7447 H   0  0  0  0  0  0  0  0  0  0  0  0
    4.7240   -0.5282   -0.3370 C   0  0  0  0  0  0  0  0  0  0  0  0
    5.4747   -0.3007   -1.1087 H   0  0  0  0  0  0  0  0  0  0  0  0
   -4.3651    1.0548    1.1188 C   0  0  0  0  0  0  0  0  0  0  0  0
   -5.2252    1.5727    1.5685 H   0  0  0  0  0  0  0  0  0  0  0  0
   -3.3278    0.5709    1.9256 C   0  0  0  0  0  0  0  0  0  0  0  0
   -3.3700    0.7011    3.0135 H   0  0  0  0  0  0  0  0  0  0  0  0
  1 14  1  0  0  0  0
  1  3  1  0  0  0  0
  2  5  1  0  0  0  0
  3 27  1  0  0  0  0
  4  1  1  0  0  0  0
  4 12  1  0  0  0  0
  5 42  1  0  0  0  0
  5 27  1  1  0  0  0
  6 40  1  0  0  0  0
  7  6  1  0  0  0  0
  8 38  2  0  0  0  0
  8 14  1  0  0  0  0
  9  8  1  0  0  0  0
 10 25  1  0  0  0  0
 11 10  1  0  0  0  0
 12 13  1  0  0  0  0
 14 17  2  0  0  0  0
 15  4  2  0  0  0  0
 16 15  1  0  0  0  0
 17 36  1  0  0  0  0
 17 18  1  0  0  0  0
 19 20  1  0  0  0  0
 19 22  1  0  0  0  0
 19 21  1  0  0  0  0
 23 15  1  0  0  0  0
 23 10  2  0  0  0  0
 24 23  1  0  0  0  0
 25 12  2  0  0  0  0
 25 26  1  0  0  0  0
 27 19  1  0  0  0  0
 28  6  2  0  0  0  0
 28  2  1  0  0  0  0
 29 28  1  0  0  0  0
 30 27  1  0  0  0  0
 30 33  1  0  0  0  0
 30 31  1  0  0  0  0
 32 30  1  0  0  0  0
 34 35  1  0  0  0  0
 34 36  2  0  0  0  0
 36 37  1  0  0  0  0
 38 34  1  0  0  0  0
 39 38  1  0  0  0  0
 40 41  1  0  0  0  0
 40 42  2  0  0  0  0
 42 43  1  0  0  0  0
M  END
