1,3
q = 0.0, confidence = 0.998

 51 54  0  0  0  0  0  0  0  0999 V2000
   -1.5669    0.1909   -0.1409 P   0  0  0  0  0  0  0  0  0  0  0  0
    6.9082    0.4483   -0.2669 O   0  0  0  0  0  0  0  0  0  0  0  0
    1.3754    0.8061    0.5714 N   0  0  0  0  0  2  0  0  0  0  0  0
    0.9441    2.0213    0.8189 C   0  0  0  0  0  3  0  0  0  0  0  0
    1.7192    2.8092    0.8443 H   0  0  0  0  0  0  0  0  0  0  0  0
   -0.4112    2.5069    1.0377 C   0  0  0  0  0  0  0  0  0  0  0  0
   -0.5108    3.8028    1.6093 C   0  0  0  0  0  0  0  0  0  0  0  0
    0.4167    4.3348    1.8730 H   0  0  0  0  0  0  0  0  0  0  0  0
   -1.7480    4.4012    1.8580 C   0  0  0  0  0  0  0  0  0  0  0  0
   -1.7923    5.3990    2.3192 H   0  0  0  0  0  0  0  0  0  0  0  0
   -2.9291    3.7229    1.5164 C   0  0  0  0  0  0  0  0  0  0  0  0
   -3.9108    4.1813    1.7075 H   0  0  0  0  0  0  0  0  0  0  0  0
   -2.8545    2.4541    0.9234 C   0  0  0  0  0  0  0  0  0  0  0  0
   -3.7799    1.9252    0.6508 H   0  0  0  0  0  0  0  0  0  0  0  0
   -1.6148    1.8348    0.6754 C   0  0  0  0  0  0  0  0  0  0  0  0
    2.7907    0.6849    0.3586 C   0  0  0  0  0  0  0  0  0  0  0  0
    3.7091    1.2384    1.2730 C   0  0  0  0  0  0  0  0  0  0  0  0
    3.3424    1.7023    2.2004 H   0  0  0  0  0  0  0  0  0  0  0  0
    5.0799    1.1401    1.0373 C   0  0  0  0  0  0  0  0  0  0  0  0
    5.8122    1.5363    1.7549 H   0  0  0  0  0  0  0  0  0  0  0  0
    5.5585    0.4955   -0.1245 C   0  0  0  0  0  0  0  0  0  0  0  0
    4.6376   -0.0582   -1.0408 C   0  0  0  0  0  0  0  0  0  0  0  0
    4.9798   -0.5735   -1.9473 H   0  0  0  0  0  0  0  0  0  0  0  0
    3.2653    0.0228   -0.7860 C   0  0  0  0  0  0  0  0  0  0  0  0
    2.5420   -0.4270   -1.4805 H   0  0  0  0  0  0  0  0  0  0  0  0
    7.4457   -0.2375   -1.3833 C   0  0  0  0  0  0  0  0  0  0  0  0
    8.5455   -0.1722   -1.2901 H   0  0  0  0  0  0  0  0  0  0  0  0
    7.1366    0.2296   -2.3453 H   0  0  0  0  0  0  0  0  0  0  0  0
    7.1453   -1.3089   -1.3936 H   0  0  0  0  0  0  0  0  0  0  0  0
   -1.7486    0.5157   -1.9367 C   0  0  0  0  0  0  0  0  0  0  0  0
   -2.0001    1.7948   -2.4678 C   0  0  0  0  0  0  0  0  0  0  0  0
   -2.1113    2.6600   -1.7970 H   0  0  0  0  0  0  0  0  0  0  0  0
   -2.1064    1.9635   -3.8580 C   0  0  0  0  0  0  0  0  0  0  0  0
   -2.2988    2.9648   -4.2726 H   0  0  0  0  0  0  0  0  0  0  0  0
   -1.9679    0.8607   -4.7146 C   0  0  0  0  0  0  0  0  0  0  0  0
   -2.0521    0.9966   -5.8036 H   0  0  0  0  0  0  0  0  0  0  0  0
   -1.7158   -0.4161   -4.1828 C   0  0  0  0  0  0  0  0  0  0  0  0
   -1.6022   -1.2815   -4.8533 H   0  0  0  0  0  0  0  0  0  0  0  0
   -1.5972   -0.5937   -2.7981 C   0  0  0  0  0  0  0  0  0  0  0  0
   -1.3859   -1.5868   -2.3665 H   0  0  0  0  0  0  0  0  0  0  0  0
   -3.1541   -0.5675    0.3751 C   0  0  0  0  0  0  0  0  0  0  0  0
   -3.2362   -1.1125    1.6729 C   0  0  0  0  0  0  0  0  0  0  0  0
   -2.3385   -1.1379    2.3093 H   0  0  0  0  0  0  0  0  0  0  0  0
   -4.4501   -1.6387    2.1308 C   0  0  0  0  0  0  0  0  0  0  0  0
   -4.5100   -2.0693    3.1416 H   0  0  0  0  0  0  0  0  0  0  0  0
   -5.5817   -1.6351    1.2966 C   0  0  0  0  0  0  0  0  0  0  0  0
   -6.5317   -2.0586    1.6566 H   0  0  0  0  0  0  0  0  0  0  0  0
   -5.4973   -1.1025    0.0018 C   0  0  0  0  0  0  0  0  0  0  0  0
   -6.3787   -1.1069   -0.6571 H   0  0  0  0  0  0  0  0  0  0  0  0
   -4.2848   -0.5659   -0.4623 C   0  0  0  0  0  0  0  0  0  0  0  0
   -4.2168   -0.1533   -1.4801 H   0  0  0  0  0  0  0  0  0  0  0  0
  1 41  1  0  0  0  0
  1 15  1  0  0  0  0
  2 21  1  0  0  0  0
  3  4  1  0  0  0  0
  4  5  1  0  0  0  0
  4  6  1  0  0  0  0
  6  7  1  0  0  0  0
  7  9  2  0  0  0  0
  7  8  1  0  0  0  0
  9 10  1  0  0  0  0
 11 12  1  0  0  0  0
 11  9  1  0  0  0  0
 13 11  2  0  0  0  0
 14 13  1  0  0  0  0
 15 13  1  0  0  0  0
 15  6  2  0  0  0  0
 16  3  1  0  0  0  0
 16 17  1  0  0  0  0
 17 18  1  0  0  0  0
 19 17  2  0  0  0  0
 19 20  1  0  0  0  0
 21 19  1  0  0  0  0
 22 24  1  0  0  0  0
 22 21  2  0  0  0  0
 23 22  1  0  0  0  0
 24 16  2  0  0  0  0
 25 24  1  0  0  0  0
 26 27  1  0  0  0  0
 26  2  1  0  0  0  0
 28 26  1  0  0  0  0
 29 26  1  0  0  0  0
 30  1  1  0  0  0  0
 31 30  1  0  0  0  0
 31 32  1  0  0  0  0
 33 31  2  0  0  0  0
 34 33  1  0  0  0  0
 35 37  2  0  0  0  0
 35 33  1  0  0  0  0
 36 35  1  0  0  0  0
 37 39  1  0  0  0  0
 38 37  1  0  0  0  0
 39 40  1  0  0  0  0
 39 30  2  0  0  0  0
 41 42  1  0  0  0  0
 42 44  2  0  0  0  0
 42 43  1  0  0  0  0
 44 45  1  0  0  0  0
 46 47  1  0  0  0  0
 46 44  1  0  0  0  0
 48 46  2  0  0  0  0
 49 48  1  0  0  0  0
 50 48  1  0  0  0  0
 50 41  2  0  0  0  0
 51 50  1  0  0  0  0
M  END
