2,3
q = 0.0, confidence = 0.996

 67 71  0  0  1  0  0  0  0  0999 V2000
   -1.6086    0.0128   -0.3158 P   0  0  0  0  0  4  0  0  0  0  0  0
    1.2698    0.1752   -0.4519 P   0  0  0  0  0  0  0  0  0  0  0  0
   -1.3117   -0.4743    1.2178 N   0  0  0  0  0  2  0  0  0  0  0  0
   -0.2119   -0.4309   -1.4311 C   0  0  0  0  0  0  0  0  0  0  0  0
   -0.2660    0.0069   -2.4463 H   0  0  0  0  0  0  0  0  0  0  0  0
   -0.1862   -1.5387   -1.4814 H   0  0  0  0  0  0  0  0  0  0  0  0
   -3.1487   -0.6819   -0.9928 C   0  0  0  0  0  0  0  0  0  0  0  0
   -3.1824   -1.4833   -2.1503 C   0  0  0  0  0  0  0  0  0  0  0  0
   -2.2573   -1.7038   -2.7023 H   0  0  0  0  0  0  0  0  0  0  0  0
   -4.4023   -2.0156   -2.5952 C   0  0  0  0  0  0  0  0  0  0  0  0
   -4.4277   -2.6400   -3.5008 H   0  0  0  0  0  0  0  0  0  0  0  0
   -5.5847   -1.7560   -1.8846 C   0  0  0  0  0  0  0  0  0  0  0  0
   -6.5391   -2.1776   -2.2344 H   0  0  0  0  0  0  0  0  0  0  0  0
   -5.5522   -0.9585   -0.7280 C   0  0  0  0  0  0  0  0  0  0  0  0
   -6.4788   -0.7556   -0.1705 H   0  0  0  0  0  0  0  0  0  0  0  0
   -4.3393   -0.4174   -0.2822 C   0  0  0  0  0  0  0  0  0  0  0  0
   -4.3068    0.2093    0.6228 H   0  0  0  0  0  0  0  0  0  0  0  0
   -1.7692    1.8185   -0.3395 C   0  0  0  0  0  0  0  0  0  0  0  0
   -1.8364    2.5317    0.8743 C   0  0  0  0  0  0  0  0  0  0  0  0
   -1.7638    1.9983    1.8379 H   0  0  0  0  0  0  0  0  0  0  0  0
   -1.9381    3.9307    0.8352 C   0  0  0  0  0  0  0  0  0  0  0  0
   -1.9703    4.4918    1.7810 H   0  0  0  0  0  0  0  0  0  0  0  0
   -1.9801    4.6077   -0.3940 C   0  0  0  0  0  0  0  0  0  0  0  0
   -2.0499    5.7061   -0.4146 H   0  0  0  0  0  0  0  0  0  0  0  0
   -1.9278    3.8890   -1.6002 C   0  0  0  0  0  0  0  0  0  0  0  0
   -1.9555    4.4189   -2.5638 H   0  0  0  0  0  0  0  0  0  0  0  0
   -1.8247    2.4923   -1.5761 C   0  0  0  0  0  0  0  0  0  0  0  0
   -1.7766    1.9333   -2.5237 H   0  0  0  0  0  0  0  0  0  0  0  0
    1.6224    1.7923   -1.2595 C   0  0  0  0  0  0  0  0  0  0  0  0
    1.4728    2.9856   -0.5284 C   0  0  0  0  0  0  0  0  0  0  0  0
    1.2242    2.9369    0.5418 H   0  0  0  0  0  0  0  0  0  0  0  0
    1.6504    4.2207   -1.1696 C   0  0  0  0  0  0  0  0  0  0  0  0
    1.5273    5.1499   -0.5935 H   0  0  0  0  0  0  0  0  0  0  0  0
    1.9818    4.2714   -2.5319 C   0  0  0  0  0  0  0  0  0  0  0  0
    2.1212    5.2428   -3.0306 H   0  0  0  0  0  0  0  0  0  0  0  0
    2.1474    3.0802   -3.2588 C   0  0  0  0  0  0  0  0  0  0  0  0
    2.4229    3.1150   -4.3239 H   0  0  0  0  0  0  0  0  0  0  0  0
    1.9722    1.8421   -2.6246 C   0  0  0  0  0  0  0  0  0  0  0  0
    2.1211    0.9111   -3.1943 H   0  0  0  0  0  0  0  0  0  0  0  0
    2.6358   -0.9392   -0.9585 C   0  0  0  0  0  0  0  0  0  0  0  0
    3.7677   -1.0208   -0.1205 C   0  0  0  0  0  0  0  0  0  0  0  0
    3.7961   -0.4142    0.8009 H   0  0  0  0  0  0  0  0  0  0  0  0
    4.8246   -1.8764   -0.4625 C   0  0  0  0  0  0  0  0  0  0  0  0
    5.7027   -1.9413    0.1979 H   0  0  0  0  0  0  0  0  0  0  0  0
    4.7639   -2.6505   -1.6332 C   0  0  0  0  0  0  0  0  0  0  0  0
    5.5945   -3.3239   -1.8944 H   0  0  0  0  0  0  0  0  0  0  0  0
    3.6398   -2.5659   -2.4693 C   0  0  0  0  0  0  0  0  0  0  0  0
    3.5839   -3.1725   -3.3860 H   0  0  0  0  0  0  0  0  0  0  0  0
    2.5765   -1.7142   -2.1344 C   0  0  0  0  0  0  0  0  0  0  0  0
    1.6941   -1.6763   -2.7899 H   0  0  0  0  0  0  0  0  0  0  0  0
   -1.6012   -1.8773    1.6056 C   0  0  2  0  0  0  0  0  0  0  0  0
   -2.6458   -2.0893    1.2799 H   0  0  0  0  0  0  0  0  0  0  0  0
   -1.5541   -2.0461    3.1229 C   0  0  0  0  0  0  0  0  0  0  0  0
   -0.5433   -1.8379    3.5223 H   0  0  0  0  0  0  0  0  0  0  0  0
   -1.8453   -3.0816    3.3900 H   0  0  0  0  0  0  0  0  0  0  0  0
   -2.2369   -1.3249    3.6093 H   0  0  0  0  0  0  0  0  0  0  0  0
   -0.7067   -2.8696    0.8682 C   0  0  0  0  0  0  0  0  0  0  0  0
    0.6751   -2.9497    1.1436 C   0  0  0  0  0  0  0  0  0  0  0  0
    1.1069   -2.3300    1.9462 H   0  0  0  0  0  0  0  0  0  0  0  0
    1.5060   -3.7938    0.3932 C   0  0  0  0  0  0  0  0  0  0  0  0
    2.5847   -3.8276    0.6079 H   0  0  0  0  0  0  0  0  0  0  0  0
    0.9716   -4.5759   -0.6440 C   0  0  0  0  0  0  0  0  0  0  0  0
    1.6297   -5.2283   -1.2377 H   0  0  0  0  0  0  0  0  0  0  0  0
   -0.4047   -4.5212   -0.9150 C   0  0  0  0  0  0  0  0  0  0  0  0
   -0.8368   -5.1424   -1.7150 H   0  0  0  0  0  0  0  0  0  0  0  0
   -1.2355   -3.6762   -0.1593 C   0  0  0  0  0  0  0  0  0  0  0  0
   -2.3156   -3.6340   -0.3729 H   0  0  0  0  0  0  0  0  0  0  0  0
  1  3  1  0  0  0  0
  3 51  1  0  0  0  0
  4  2  1  0  0  0  0
  4  1  1  0  0  0  0
  5  4  1  0  0  0  0
  6  4  1  0  0  0  0
  7  1  1  0  0  0  0
  7 16  1  0  0  0  0
  8  7  2  0  0  0  0
  9  8  1  0  0  0  0
 10  8  1  0  0  0  0
 10 12  2  0  0  0  0
 11 10  1  0  0  0  0
 12 14  1  0  0  0  0
 13 12  1  0  0  0  0
 14 16  2  0  0  0  0
 14 15  1  0  0  0  0
 16 17  1  0  0  0  0
 18  1  1  0  0  0  0
 18 19  1  0  0  0  0
 19 20  1  0  0  0  0
 21 19  2  0  0  0  0
 21 22  1  0  0  0  0
 23 21  1  0  0  0  0
 24 23  1  0  0  0  0
 25 27  1  0  0  0  0
 25 23  2  0  0  0  0
 26 25  1  0  0  0  0
 27 18  2  0  0  0  0
 28 27  1  0  0  0  0
 29 30  1  0  0  0  0
 29  2  1  0  0  0  0
 30 31  1  0  0  0  0
 32 33  1  0  0  0  0
 32 30  2  0  0  0  0
 34 32  1  0  0  0  0
 35 34  1  0  0  0  0
 36 38  1  0  0  0  0
 36 34  2  0  0  0  0
 37 36  1  0  0  0  0
 38 29  2  0  0  0  0
 39 38  1  0  0  0  0
 40  2  1  0  0  0  0
 40 41  1  0  0  0  0
 41 42  1  0  0  0  0
 43 41  2  0  0  0  0
 43 44  1  0  0  0  0
 45 43  1  0  0  0  0
 46 45  1  0  0  0  0
 47 49  1  0  0  0  0
 47 45  2  0  0  0  0
 48 47  1  0  0  0  0
 49 40  2  0  0  0  0
 50 49  1  0  0  0  0
 51 52  1  6  0  0  0
 51 53  1  0  0  0  0
 53 55  1  0  0  0  0
 53 54  1  0  0  0  0
 53 56  1  0  0  0  0
 57 58  1  0  0  0  0
 57 51  1  0  0  0  0
 58 59  1  0  0  0  0
 60 61  1  0  0  0  0
 60 58  2  0  0  0  0
 62 60  1  0  0  0  0
 63 62  1  0  0  0  0
 64 62  2  0  0  0  0
 64 66  1  0  0  0  0
 65 64  1  0  0  0  0
 66 57  2  0  0  0  0
 67 66  1  0  0  0  0
M  END
