1,4
q = 0.0, confidence = 0.99

 50 52  0  0  0  0  0  0  0  0999 V2000
    0.8926    0.0157   -0.0292 P   0  0  0  0  0  0  0  0  0  0  0  0
   -0.4250    0.4442    2.4058 C   0  0  0  0  0  0  0  0  0  0  0  0
    0.7697    0.2030    1.7857 C   0  0  0  0  0  0  0  0  0  0  0  0
   -2.0614    0.1739    0.6024 N   0  0  0  0  0  2  0  0  0  0  0  0
    2.6617   -0.3941   -0.2970 C   0  0  0  0  0  0  0  0  0  0  0  0
    1.9092    0.1942    2.7779 C   0  0  0  0  0  0  0  0  0  0  0  0
    2.4960    1.1378    2.6757 H   0  0  0  0  0  0  0  0  0  0  0  0
    2.6352   -0.6238    2.5950 H   0  0  0  0  0  0  0  0  0  0  0  0
   -1.7102    0.6599    1.7492 C   0  0  0  0  0  3  0  0  0  0  0  0
   -2.4036    1.3274    2.3027 H   0  0  0  0  0  0  0  0  0  0  0  0
   -3.3688    0.6122    0.0126 C   0  0  0  0  0  0  0  0  0  0  0  0
   -4.4614   -0.3308    0.5524 C   0  0  0  0  0  0  0  0  0  0  0  0
   -4.2067   -1.3800    0.3023 H   0  0  0  0  0  0  0  0  0  0  0  0
   -5.4371   -0.0718    0.0938 H   0  0  0  0  0  0  0  0  0  0  0  0
   -4.5548   -0.2293    1.6533 H   0  0  0  0  0  0  0  0  0  0  0  0
   -3.2571    0.4818   -1.5158 C   0  0  0  0  0  0  0  0  0  0  0  0
   -3.0734   -0.5729   -1.8006 H   0  0  0  0  0  0  0  0  0  0  0  0
   -2.4335    1.1143   -1.9036 H   0  0  0  0  0  0  0  0  0  0  0  0
   -4.2039    0.8156   -1.9857 H   0  0  0  0  0  0  0  0  0  0  0  0
   -0.2243    0.6648    3.8937 C   0  0  0  0  0  0  0  0  0  0  0  0
   -1.0088    0.1790    4.5102 H   0  0  0  0  0  0  0  0  0  0  0  0
   -0.2760    1.7551    4.1234 H   0  0  0  0  0  0  0  0  0  0  0  0
    3.5775    0.5219   -0.8501 C   0  0  0  0  0  0  0  0  0  0  0  0
    3.2392    1.5264   -1.1453 H   0  0  0  0  0  0  0  0  0  0  0  0
    1.1876    0.0885    4.1408 C   0  0  0  0  0  0  0  0  0  0  0  0
    1.0973   -0.9822    4.4164 H   0  0  0  0  0  0  0  0  0  0  0  0
    1.7302    0.5962    4.9616 H   0  0  0  0  0  0  0  0  0  0  0  0
    3.1015   -1.6850    0.0682 C   0  0  0  0  0  0  0  0  0  0  0  0
    2.3799   -2.4107    0.4743 H   0  0  0  0  0  0  0  0  0  0  0  0
   -3.6974    2.0783    0.3589 C   0  0  0  0  0  0  0  0  0  0  0  0
   -2.8591    2.7502    0.0814 H   0  0  0  0  0  0  0  0  0  0  0  0
   -3.9366    2.2317    1.4304 H   0  0  0  0  0  0  0  0  0  0  0  0
   -4.5924    2.3908   -0.2131 H   0  0  0  0  0  0  0  0  0  0  0  0
    4.9211    0.1536   -1.0232 C   0  0  0  0  0  0  0  0  0  0  0  0
    5.6313    0.8740   -1.4569 H   0  0  0  0  0  0  0  0  0  0  0  0
    4.4464   -2.0431   -0.0971 C   0  0  0  0  0  0  0  0  0  0  0  0
    4.7820   -3.0506    0.1916 H   0  0  0  0  0  0  0  0  0  0  0  0
    5.3582   -1.1249   -0.6443 C   0  0  0  0  0  0  0  0  0  0  0  0
    6.4121   -1.4108   -0.7822 H   0  0  0  0  0  0  0  0  0  0  0  0
    0.7048    1.7265   -0.6874 C   0  0  0  0  0  0  0  0  0  0  0  0
    0.8397    2.8754    0.1157 C   0  0  0  0  0  0  0  0  0  0  0  0
    1.0909    2.7738    1.1824 H   0  0  0  0  0  0  0  0  0  0  0  0
    0.3688    1.8654   -2.0503 C   0  0  0  0  0  0  0  0  0  0  0  0
    0.2364    0.9627   -2.6679 H   0  0  0  0  0  0  0  0  0  0  0  0
    0.3136    4.2838   -1.7980 C   0  0  0  0  0  0  0  0  0  0  0  0
    0.1548    5.2835   -2.2300 H   0  0  0  0  0  0  0  0  0  0  0  0
    0.1825    3.1403   -2.6038 C   0  0  0  0  0  0  0  0  0  0  0  0
   -0.0814    3.2407   -3.6674 H   0  0  0  0  0  0  0  0  0  0  0  0
    0.6406    4.1495   -0.4391 C   0  0  0  0  0  0  0  0  0  0  0  0
    0.7413    5.0436    0.1950 H   0  0  0  0  0  0  0  0  0  0  0  0
  1  3  1  0  0  0  0
  2 20  1  0  0  0  0
  3  2  2  0  0  0  0
  3  6  1  0  0  0  0
  4  9  1  0  0  0  0
  5  1  1  0  0  0  0
  5 28  1  0  0  0  0
  6 25  1  0  0  0  0
  7  6  1  0  0  0  0
  8  6  1  0  0  0  0
  9 10  1  0  0  0  0
  9  2  1  0  0  0  0
 11 30  1  0  0  0  0
 11 12  1  0  0  0  0
 11  4  1  0  0  0  0
 12 15  1  0  0  0  0
 13 12  1  0  0  0  0
 14 12  1  0  0  0  0
 16 11  1  0  0  0  0
 17 16  1  0  0  0  0
 18 16  1  0  0  0  0
 19 16  1  0  0  0  0
 20 22  1  0  0  0  0
 20 25  1  0  0  0  0
 20 21  1  0  0  0  0
 23  5  2  0  0  0  0
 24 23  1  0  0  0  0
 25 26  1  0  0  0  0
 25 27  1  0  0  0  0
 28 29  1  0  0  0  0
 30 32  1  0  0  0  0
 31 30  1  0  0  0  0
 33 30  1  0  0  0  0
 34 23  1  0  0  0  0
 34 38  2  0  0  0  0
 35 34  1  0  0  0  0
 36 28  2  0  0  0  0
 36 37  1  0  0  0  0
 38 36  1  0  0  0  0
 39 38  1  0  0  0  0
 40  1  1  0  0  0  0
 40 41  1  0  0  0  0
 41 42  1  0  0  0  0
 43 40  2  0  0  0  0
 44 43  1  0  0  0  0
 45 49  1  0  0  0  0
 46 45  1  0  0  0  0
 47 43  1  0  0  0  0
 47 45  2  0  0  0  0
 48 47  1  0  0  0  0
 49 41  2  0  0  0  0
 49 50  1  0  0  0  0
M  END
