1,5
q = 0.0, confidence = 0.998

 35 36  0  0  0  0  0  0  0  0999 V2000
   -0.6360    0.1118   -0.2133 P   0  0  0  0  0  0  0  0  0  0  0  0
   -0.0176    1.6223   -0.7247 O   0  0  0  0  0  0  0  0  0  0  0  0
   -1.8522    0.0560   -1.3341 O   0  0  0  0  0  0  0  0  0  0  0  0
   -1.6296    0.4324    1.0670 O   0  0  0  0  0  0  0  0  0  0  0  0
    2.2440    0.0058   -1.1312 N   0  0  0  0  0  0  0  0  0  0  0  0
    3.1187   -0.5516   -1.1306 H   0  0  0  0  0  0  0  0  0  0  0  0
    1.8893    0.0761   -2.0972 H   0  0  0  0  0  0  0  0  0  0  0  0
    1.2124    2.0642   -0.2885 C   0  0  0  0  0  0  0  0  0  0  0  0
    2.3776    1.2886   -0.5028 C   0  0  0  0  0  0  0  0  0  0  0  0
    3.6182    1.7629   -0.0487 C   0  0  0  0  0  0  0  0  0  0  0  0
    4.5153    1.1444   -0.2038 H   0  0  0  0  0  0  0  0  0  0  0  0
    3.7075    3.0040    0.5976 C   0  0  0  0  0  0  0  0  0  0  0  0
    4.6851    3.3657    0.9479 H   0  0  0  0  0  0  0  0  0  0  0  0
    2.5531    3.7786    0.7923 C   0  0  0  0  0  0  0  0  0  0  0  0
    2.6194    4.7546    1.2950 H   0  0  0  0  0  0  0  0  0  0  0  0
    1.3066    3.3047    0.3585 C   0  0  0  0  0  0  0  0  0  0  0  0
    0.3834    3.8804    0.5158 H   0  0  0  0  0  0  0  0  0  0  0  0
   -3.1756    0.0489   -0.7088 C   0  0  0  0  0  0  0  0  0  0  0  0
   -2.9644    0.8573    0.6296 C   0  0  0  0  0  0  0  0  0  0  0  0
   -4.1349    0.7162   -1.6881 C   0  0  0  0  0  0  0  0  0  0  0  0
   -4.2449    0.0865   -2.5919 H   0  0  0  0  0  0  0  0  0  0  0  0
   -3.7659    1.7089   -2.0030 H   0  0  0  0  0  0  0  0  0  0  0  0
   -5.1360    0.8339   -1.2274 H   0  0  0  0  0  0  0  0  0  0  0  0
   -3.5673   -1.4125   -0.4687 C   0  0  0  0  0  0  0  0  0  0  0  0
   -3.4624   -1.9695   -1.4192 H   0  0  0  0  0  0  0  0  0  0  0  0
   -4.6171   -1.4990   -0.1277 H   0  0  0  0  0  0  0  0  0  0  0  0
   -2.9141   -1.8946    0.2839 H   0  0  0  0  0  0  0  0  0  0  0  0
   -2.9411    2.3747    0.4195 C   0  0  0  0  0  0  0  0  0  0  0  0
   -2.5435    2.8526    1.3359 H   0  0  0  0  0  0  0  0  0  0  0  0
   -3.9603    2.7680    0.2387 H   0  0  0  0  0  0  0  0  0  0  0  0
   -2.2899    2.6578   -0.4282 H   0  0  0  0  0  0  0  0  0  0  0  0
   -3.9315    0.4757    1.7443 C   0  0  0  0  0  0  0  0  0  0  0  0
   -3.7383    1.0994    2.6383 H   0  0  0  0  0  0  0  0  0  0  0  0
   -3.8153   -0.5842    2.0338 H   0  0  0  0  0  0  0  0  0  0  0  0
   -4.9781    0.6487    1.4234 H   0  0  0  0  0  0  0  0  0  0  0  0
  1  4  1  0  0  0  0
  2  8  1  0  0  0  0
  2  1  1  0  0  0  0
  3 18  1  0  0  0  0
  3  1  1  0  0  0  0
  5  6  1  0  0  0  0
  5  9  1  0  0  0  0
  7  5  1  0  0  0  0
  8 16  1  0  0  0  0
  9  8  2  0  0  0  0
  9 10  1  0  0  0  0
 10 12  2  0  0  0  0
 11 10  1  0  0  0  0
 12 14  1  0  0  0  0
 12 13  1  0  0  0  0
 14 15  1  0  0  0  0
 16 17  1  0  0  0  0
 16 14  2  0  0  0  0
 18 24  1  0  0  0  0
 18 19  1  0  0  0  0
 19  4  1  0  0  0  0
 19 32  1  0  0  0  0
 20 23  1  0  0  0  0
 20 18  1  0  0  0  0
 21 20  1  0  0  0  0
 22 20  1  0  0  0  0
 24 26  1  0  0  0  0
 24 27  1  0  0  0  0
 25 24  1  0  0  0  0
 28 19  1  0  0  0  0
 28 29  1  0  0  0  0
 30 28  1  0  0  0  0
 31 28  1  0  0  0  0
 32 34  1  0  0  0  0
 32 33  1  0  0  0  0
 35 32  1  0  0  0  0
M  END
