1,33
q = 0.0, confidence = 0.99

 41 40  0  0  0  0  0  0  0  0999 V2000
    1.3806    0.0747    0.0152 P   0  0  0  0  0  0  0  0  0  0  0  0
    1.7193    1.7250   -0.3862 N   0  0  0  0  0  0  0  0  0  0  0  0
    2.4129   -0.9058   -1.1893 C   0  0  0  0  0  0  0  0  0  0  0  0
    2.2270   -1.9557   -0.8787 H   0  0  0  0  0  0  0  0  0  0  0  0
    3.9031   -0.5651   -1.1160 C   0  0  0  0  0  0  0  0  0  0  0  0
    4.3345   -0.7242   -0.1072 H   0  0  0  0  0  0  0  0  0  0  0  0
    4.0867    0.4879   -1.4137 H   0  0  0  0  0  0  0  0  0  0  0  0
    4.4708   -1.2080   -1.8203 H   0  0  0  0  0  0  0  0  0  0  0  0
    1.8421   -0.7115   -2.5981 C   0  0  0  0  0  0  0  0  0  0  0  0
    0.7757   -1.0088   -2.6383 H   0  0  0  0  0  0  0  0  0  0  0  0
    2.4039   -1.3320   -3.3263 H   0  0  0  0  0  0  0  0  0  0  0  0
    1.9313    0.3476   -2.9200 H   0  0  0  0  0  0  0  0  0  0  0  0
    2.1342   -0.1846    1.7114 C   0  0  0  0  0  0  0  0  0  0  0  0
    3.1319    0.3037    1.6821 H   0  0  0  0  0  0  0  0  0  0  0  0
    1.2645    0.5153    2.7634 C   0  0  0  0  0  0  0  0  0  0  0  0
    1.1316    1.5954    2.5513 H   0  0  0  0  0  0  0  0  0  0  0  0
    1.7299    0.4253    3.7665 H   0  0  0  0  0  0  0  0  0  0  0  0
    0.2595    0.0468    2.8009 H   0  0  0  0  0  0  0  0  0  0  0  0
    2.3274   -1.6709    2.0367 C   0  0  0  0  0  0  0  0  0  0  0  0
    3.0538   -2.1577    1.3570 H   0  0  0  0  0  0  0  0  0  0  0  0
    1.3725   -2.2267    1.9548 H   0  0  0  0  0  0  0  0  0  0  0  0
    2.7154   -1.7721    3.0714 H   0  0  0  0  0  0  0  0  0  0  0  0
    2.7598    2.5217    0.2422 C   0  0  0  0  0  0  0  0  0  0  0  0
    3.6299    1.8961    0.5118 H   0  0  0  0  0  0  0  0  0  0  0  0
    2.4284    3.0556    1.1671 H   0  0  0  0  0  0  0  0  0  0  0  0
    3.1259    3.2896   -0.4731 H   0  0  0  0  0  0  0  0  0  0  0  0
    0.6167    2.4829   -0.9633 C   0  0  0  0  0  0  0  0  0  0  0  0
    1.0190    3.4583   -1.3074 H   0  0  0  0  0  0  0  0  0  0  0  0
    0.2364    1.9669   -1.8701 H   0  0  0  0  0  0  0  0  0  0  0  0
   -0.5408    2.7306    0.0078 C   0  0  0  0  0  0  0  0  0  0  0  0
   -1.0567    3.6910   -0.2190 H   0  0  0  0  0  0  0  0  0  0  0  0
   -0.1362    2.8111    1.0361 H   0  0  0  0  0  0  0  0  0  0  0  0
   -1.5755    1.6559    0.0045 N   0  0  0  0  0  0  0  0  0  0  0  0
   -2.4448    1.8305   -1.1939 C   0  0  0  0  0  0  0  0  0  0  0  0
   -3.2044    1.0274   -1.1881 H   0  0  0  0  0  0  0  0  0  0  0  0
   -1.8370    1.7367   -2.1120 H   0  0  0  0  0  0  0  0  0  0  0  0
   -2.9236    2.8347   -1.1632 H   0  0  0  0  0  0  0  0  0  0  0  0
   -2.4068    1.8052    1.2307 C   0  0  0  0  0  0  0  0  0  0  0  0
   -1.7665    1.6549    2.1191 H   0  0  0  0  0  0  0  0  0  0  0  0
   -3.1920    1.0273    1.2130 H   0  0  0  0  0  0  0  0  0  0  0  0
   -2.8566    2.8227    1.2591 H   0  0  0  0  0  0  0  0  0  0  0  0
  1 13  1  0  0  0  0
  2  1  1  0  0  0  0
  2 23  1  0  0  0  0
  3  5  1  0  0  0  0
  3  4  1  0  0  0  0
  3  1  1  0  0  0  0
  5  6  1  0  0  0  0
  7  5  1  0  0  0  0
  8  5  1  0  0  0  0
  9  3  1  0  0  0  0
 10  9  1  0  0  0  0
 11  9  1  0  0  0  0
 12  9  1  0  0  0  0
 13 19  1  0  0  0  0
 13 15  1  0  0  0  0
 14 13  1  0  0  0  0
 15 18  1  0  0  0  0
 15 17  1  0  0  0  0
 16 15  1  0  0  0  0
 19 22  1  0  0  0  0
 20 19  1  0  0  0  0
 21 19  1  0  0  0  0
 23 24  1  0  0  0  0
 23 25  1  0  0  0  0
 26 23  1  0  0  0  0
 27  2  1  0  0  0  0
 27 30  1  0  0  0  0
 28 27  1  0  0  0  0
 29 27  1  0  0  0  0
 30 32  1  0  0  0  0
 31 30  1  0  0  0  0
 33 30  1  0  0  0  0
 33 38  1  0  0  0  0
 34 35  1  0  0  0  0
 34 37  1  0  0  0  0
 34 33  1  0  0  0  0
 36 34  1  0  0  0  0
 38 41  1  0  0  0  0
 38 39  1  0  0  0  0
 40 38  1  0  0  0  0
M  END
