1,2
q = 0.0, confidence = 0.992

 59 63  0  0  1  0  0  0  0  0999 V2000
    1.3186   -0.0297    0.2273 P   0  0  0  0  0  0  0  0  0  0  0  0
   -1.3863    0.8918   -0.4924 N   0  0  0  0  0  2  0  0  0  0  0  0
   -0.9729    2.1585   -0.1880 C   0  0  1  0  0  3  0  0  0  0  0  0
   -1.8616    3.0744    0.4120 C   0  0  0  0  0  0  0  0  0  0  0  0
   -3.1830    2.7111    0.7005 C   0  0  0  0  0  0  0  0  0  0  0  0
   -3.5860    1.4118    0.3892 C   0  0  0  0  0  0  0  0  0  0  0  0
   -2.6543    0.5278   -0.1956 C   0  0  0  0  0  0  0  0  0  0  0  0
   -3.2525   -0.8395   -0.4176 C   0  0  2  0  0  0  0  0  0  0  0  0
   -4.7736   -0.5639   -0.2738 C   0  0  0  0  0  0  0  0  0  0  0  0
   -4.9113    0.7208    0.5814 C   0  0  0  0  0  0  0  0  0  0  0  0
   -2.6630   -1.9092    0.5471 C   0  0  0  0  0  0  0  0  0  0  0  0
   -3.0412   -1.6838    2.0137 C   0  0  0  0  0  0  0  0  0  0  0  0
   -3.0239   -3.3155    0.0621 C   0  0  0  0  0  0  0  0  0  0  0  0
    0.4300    2.5856   -0.4395 C   0  0  0  0  0  0  0  0  0  0  0  0
    1.5563    1.7571   -0.1627 C   0  0  0  0  0  0  0  0  0  0  0  0
    2.8550    2.2800   -0.3143 C   0  0  0  0  0  0  0  0  0  0  0  0
    3.0583    3.5943   -0.7590 C   0  0  0  0  0  0  0  0  0  0  0  0
    1.9559    4.4039   -1.0619 C   0  0  0  0  0  0  0  0  0  0  0  0
    0.6589    3.9030   -0.8914 C   0  0  0  0  0  0  0  0  0  0  0  0
    3.0168   -0.7043    0.3279 C   0  0  0  0  0  0  0  0  0  0  0  0
    3.6917   -1.0355   -0.8667 C   0  0  0  0  0  0  0  0  0  0  0  0
    5.0218   -1.4761   -0.8119 C   0  0  0  0  0  0  0  0  0  0  0  0
    5.6804   -1.5966    0.4223 C   0  0  0  0  0  0  0  0  0  0  0  0
    5.0084   -1.2695    1.6108 C   0  0  0  0  0  0  0  0  0  0  0  0
    3.6795   -0.8216    1.5675 C   0  0  0  0  0  0  0  0  0  0  0  0
    0.6824   -0.1262    1.9428 C   0  0  0  0  0  0  0  0  0  0  0  0
    0.3899    1.0120    2.7178 C   0  0  0  0  0  0  0  0  0  0  0  0
   -0.1225    0.8620    4.0168 C   0  0  0  0  0  0  0  0  0  0  0  0
   -0.3268   -0.4188    4.5520 C   0  0  0  0  0  0  0  0  0  0  0  0
   -0.0277   -1.5562    3.7824 C   0  0  0  0  0  0  0  0  0  0  0  0
    0.4615   -1.4142    2.4777 C   0  0  0  0  0  0  0  0  0  0  0  0
   -1.4907    4.0741    0.6737 H   0  0  0  0  0  0  0  0  0  0  0  0
   -3.8717    3.4314    1.1680 H   0  0  0  0  0  0  0  0  0  0  0  0
   -2.9966   -1.1586   -1.4502 H   0  0  0  0  0  0  0  0  0  0  0  0
   -5.1983   -0.3804   -1.2810 H   0  0  0  0  0  0  0  0  0  0  0  0
   -5.3232   -1.4234    0.1565 H   0  0  0  0  0  0  0  0  0  0  0  0
   -5.0581    0.4886    1.6592 H   0  0  0  0  0  0  0  0  0  0  0  0
   -5.7662    1.3590    0.2779 H   0  0  0  0  0  0  0  0  0  0  0  0
   -1.5556   -1.8065    0.4561 H   0  0  0  0  0  0  0  0  0  0  0  0
   -4.1366   -1.7761    2.1719 H   0  0  0  0  0  0  0  0  0  0  0  0
   -2.5559   -2.4395    2.6625 H   0  0  0  0  0  0  0  0  0  0  0  0
   -2.7190   -0.6867    2.3785 H   0  0  0  0  0  0  0  0  0  0  0  0
   -2.6521   -3.4796   -0.9690 H   0  0  0  0  0  0  0  0  0  0  0  0
   -2.5717   -4.0881    0.7169 H   0  0  0  0  0  0  0  0  0  0  0  0
   -4.1226   -3.4791    0.0640 H   0  0  0  0  0  0  0  0  0  0  0  0
    3.7212    1.6416   -0.0901 H   0  0  0  0  0  0  0  0  0  0  0  0
    4.0827    3.9774   -0.8787 H   0  0  0  0  0  0  0  0  0  0  0  0
    2.1014    5.4271   -1.4389 H   0  0  0  0  0  0  0  0  0  0  0  0
   -0.2044    4.5355   -1.1447 H   0  0  0  0  0  0  0  0  0  0  0  0
    3.1588   -0.9761   -1.8265 H   0  0  0  0  0  0  0  0  0  0  0  0
    5.5424   -1.7396   -1.7449 H   0  0  0  0  0  0  0  0  0  0  0  0
    6.7219   -1.9509    0.4591 H   0  0  0  0  0  0  0  0  0  0  0  0
    5.5205   -1.3616    2.5806 H   0  0  0  0  0  0  0  0  0  0  0  0
    3.1589   -0.5595    2.5001 H   0  0  0  0  0  0  0  0  0  0  0  0
    0.5719    2.0170    2.3094 H   0  0  0  0  0  0  0  0  0  0  0  0
   -0.3534    1.7550    4.6172 H   0  0  0  0  0  0  0  0  0  0  0  0
   -0.7221   -0.5331    5.5726 H   0  0  0  0  0  0  0  0  0  0  0  0
   -0.1874   -2.5624    4.1983 H   0  0  0  0  0  0  0  0  0  0  0  0
    0.6792   -2.3041    1.8660 H   0  0  0  0  0  0  0  0  0  0  0  0
  1 20  1  0  0  0  0
  1 26  1  0  0  0  0
  2  7  1  0  0  0  0
  2  3  1  0  0  0  0
  3 14  1  1  0  0  0
  3  4  1  0  0  0  0
  4 32  1  0  0  0  0
  4  5  2  0  0  0  0
  5 33  1  0  0  0  0
  6 10  1  0  0  0  0
  6  5  1  0  0  0  0
  7  6  2  0  0  0  0
  8 34  1  6  0  0  0
  8  9  1  0  0  0  0
  8  7  1  0  0  0  0
  8 11  1  0  0  0  0
  9 36  1  0  0  0  0
  9 10  1  0  0  0  0
 10 37  1  0  0  0  0
 11 12  1  0  0  0  0
 12 40  1  0  0  0  0
 12 42  1  0  0  0  0
 12 41  1  0  0  0  0
 13 45  1  0  0  0  0
 13 11  1  0  0  0  0
 13 44  1  0  0  0  0
 14 15  1  0  0  0  0
 15  1  1  0  0  0  0
 16 15  2  0  0  0  0
 16 46  1  0  0  0  0
 17 16  1  0  0  0  0
 18 19  1  0  0  0  0
 18 17  2  0  0  0  0
 19 14  2  0  0  0  0
 20 25  1  0  0  0  0
 21 22  1  0  0  0  0
 21 20  2  0  0  0  0
 22 23  2  0  0  0  0
 23 52  1  0  0  0  0
 23 24  1  0  0  0  0
 24 53  1  0  0  0  0
 25 24  2  0  0  0  0
 25 54  1  0  0  0  0
 26 31  2  0  0  0  0
 26 27  1  0  0  0  0
 27 28  2  0  0  0  0
 28 29  1  0  0  0  0
 28 56  1  0  0  0  0
 29 57  1  0  0  0  0
 30 58  1  0  0  0  0
 30 29  2  0  0  0  0
 31 30  1  0  0  0  0
 35  9  1  0  0  0  0
 38 10  1  0  0  0  0
 39 11  1  0  0  0  0
 43 13  1  0  0  0  0
 47 17  1  0  0  0  0
 48 18  1  0  0  0  0
 49 19  1  0  0  0  0
 50 21  1  0  0  0  0
 51 22  1  0  0  0  0
 55 27  1  0  0  0  0
 59 31  1  0  0  0  0
M  END
