1,2
q = 0.0, confidence = 1.0

 45 46  0  0  0  0  0  0  0  0999 V2000
   -0.0455    1.0389    0.0400 P   0  0  0  0  0  0  0  0  0  0  0  0
   -0.4760   -1.9646    0.0204 N   0  0  0  0  0  0  0  0  0  0  0  0
    2.0981   -2.4522    0.0256 C   0  0  0  0  0  0  0  0  0  0  0  0
    2.1325   -3.0979    0.9312 H   0  0  0  0  0  0  0  0  0  0  0  0
    2.0860   -3.1456   -0.8437 H   0  0  0  0  0  0  0  0  0  0  0  0
    0.9028   -1.5255    0.0365 C   0  0  0  0  0  0  0  0  0  0  0  0
    1.2907   -0.2140    0.0255 C   0  0  0  0  0  0  0  0  0  0  0  0
    2.7637   -0.1542   -0.0422 C   0  0  0  0  0  0  0  0  0  0  0  0
    3.6619    0.9229   -0.1376 C   0  0  0  0  0  0  0  0  0  0  0  0
    3.3021    1.9602   -0.1617 H   0  0  0  0  0  0  0  0  0  0  0  0
    5.0401    0.6569   -0.2057 C   0  0  0  0  0  0  0  0  0  0  0  0
    5.7494    1.4948   -0.2815 H   0  0  0  0  0  0  0  0  0  0  0  0
    5.5229   -0.6626   -0.1793 C   0  0  0  0  0  0  0  0  0  0  0  0
    6.6060   -0.8496   -0.2312 H   0  0  0  0  0  0  0  0  0  0  0  0
    4.6296   -1.7475   -0.0954 C   0  0  0  0  0  0  0  0  0  0  0  0
    5.0082   -2.7814   -0.0853 H   0  0  0  0  0  0  0  0  0  0  0  0
    3.2587   -1.4899   -0.0343 C   0  0  0  0  0  0  0  0  0  0  0  0
    0.3837    2.1801   -1.3829 C   0  0  0  0  0  0  0  0  0  0  0  0
    1.4239    2.5291   -1.2042 H   0  0  0  0  0  0  0  0  0  0  0  0
   -0.5554    3.3899   -1.4230 C   0  0  0  0  0  0  0  0  0  0  0  0
   -0.2832    4.0501   -2.2722 H   0  0  0  0  0  0  0  0  0  0  0  0
   -0.5056    3.9996   -0.4988 H   0  0  0  0  0  0  0  0  0  0  0  0
   -1.6087    3.0767   -1.5663 H   0  0  0  0  0  0  0  0  0  0  0  0
    0.3423    1.3715   -2.6842 C   0  0  0  0  0  0  0  0  0  0  0  0
   -0.6701    0.9432   -2.8393 H   0  0  0  0  0  0  0  0  0  0  0  0
    1.0689    0.5343   -2.6719 H   0  0  0  0  0  0  0  0  0  0  0  0
    0.5853    2.0215   -3.5499 H   0  0  0  0  0  0  0  0  0  0  0  0
    0.1434    2.0491    1.6125 C   0  0  0  0  0  0  0  0  0  0  0  0
   -0.7315    2.7337    1.5366 H   0  0  0  0  0  0  0  0  0  0  0  0
    1.4204    2.8804    1.7454 C   0  0  0  0  0  0  0  0  0  0  0  0
    1.3531    3.5315    2.6420 H   0  0  0  0  0  0  0  0  0  0  0  0
    1.5959    3.5416    0.8733 H   0  0  0  0  0  0  0  0  0  0  0  0
    2.3101    2.2332    1.8767 H   0  0  0  0  0  0  0  0  0  0  0  0
   -0.0799    1.1249    2.8151 C   0  0  0  0  0  0  0  0  0  0  0  0
    0.7434    0.3855    2.9062 H   0  0  0  0  0  0  0  0  0  0  0  0
   -1.0344    0.5687    2.7120 H   0  0  0  0  0  0  0  0  0  0  0  0
   -0.1111    1.7136    3.7549 H   0  0  0  0  0  0  0  0  0  0  0  0
   -0.7529   -2.7697   -1.2025 C   0  0  0  0  0  0  0  0  0  0  0  0
   -0.4896   -2.1712   -2.0944 H   0  0  0  0  0  0  0  0  0  0  0  0
   -1.8390   -2.9846   -1.2178 H   0  0  0  0  0  0  0  0  0  0  0  0
   -0.1718   -3.7191   -1.1975 H   0  0  0  0  0  0  0  0  0  0  0  0
   -0.7948   -2.7623    1.2362 C   0  0  0  0  0  0  0  0  0  0  0  0
   -0.2066   -3.7072    1.2600 H   0  0  0  0  0  0  0  0  0  0  0  0
   -1.8792   -2.9854    1.2117 H   0  0  0  0  0  0  0  0  0  0  0  0
   -0.5693   -2.1565    2.1332 H   0  0  0  0  0  0  0  0  0  0  0  0
  1 28  1  0  0  0  0
  2  6  1  0  0  0  0
  2 42  1  0  0  0  0
  3  6  1  0  0  0  0
  3  4  1  0  0  0  0
  5  3  1  0  0  0  0
  7  6  2  0  0  0  0
  7  1  1  0  0  0  0
  8 17  1  0  0  0  0
  8  7  1  0  0  0  0
  9  8  2  0  0  0  0
 10  9  1  0  0  0  0
 11 13  2  0  0  0  0
 11  9  1  0  0  0  0
 12 11  1  0  0  0  0
 13 15  1  0  0  0  0
 14 13  1  0  0  0  0
 15 16  1  0  0  0  0
 15 17  2  0  0  0  0
 17  3  1  0  0  0  0
 18 19  1  0  0  0  0
 18  1  1  0  0  0  0
 20 18  1  0  0  0  0
 20 22  1  0  0  0  0
 21 20  1  0  0  0  0
 23 20  1  0  0  0  0
 24 26  1  0  0  0  0
 24 18  1  0  0  0  0
 25 24  1  0  0  0  0
 27 24  1  0  0  0  0
 28 30  1  0  0  0  0
 28 34  1  0  0  0  0
 29 28  1  0  0  0  0
 30 33  1  0  0  0  0
 30 31  1  0  0  0  0
 32 30  1  0  0  0  0
 34 35  1  0  0  0  0
 34 37  1  0  0  0  0
 36 34  1  0  0  0  0
 38 41  1  0  0  0  0
 38  2  1  0  0  0  0
 39 38  1  0  0  0  0
 40 38  1  0  0  0  0
 42 43  1  0  0  0  0
 42 45  1  0  0  0  0
 44 42  1  0  0  0  0
M  END
