1,2
q = -1.0, confidence = 0.008

 40 41  0  0  0  0  0  0  0  0999 V2000
    0.4818    1.3961   -1.1498 P   0  0  0  0  0  0  0  0  0  0  0  0
   -2.2075    1.4781   -0.5959 N   0  0  0  0  0  2  0  0  0  0  0  0
   -5.8488    2.0928    0.4409 C   0  0  0  0  0  0  0  0  0  0  0  0
   -5.8452    1.4192    1.3230 H   0  0  0  0  0  0  0  0  0  0  0  0
   -6.8248    1.9722   -0.0708 H   0  0  0  0  0  0  0  0  0  0  0  0
   -5.7967    3.1336    0.8233 H   0  0  0  0  0  0  0  0  0  0  0  0
   -4.6830    1.7840   -0.4971 C   0  0  0  0  0  0  0  0  0  0  0  0
   -4.7471    2.4276   -1.4000 H   0  0  0  0  0  0  0  0  0  0  0  0
   -4.7457    0.7369   -0.8612 H   0  0  0  0  0  0  0  0  0  0  0  0
   -3.3196    1.9763    0.1968 C   0  0  0  0  0  0  0  0  0  0  0  0
   -3.1852    3.0662    0.4178 H   0  0  0  0  0  0  0  0  0  0  0  0
   -3.3080    1.4553    1.1725 H   0  0  0  0  0  0  0  0  0  0  0  0
   -2.0532    2.2055   -1.8586 C   0  0  0  0  0  0  0  0  0  0  0  0
   -2.3234    3.2736   -1.6828 H   0  0  0  0  0  0  0  0  0  0  0  0
   -2.7862    1.8138   -2.6019 H   0  0  0  0  0  0  0  0  0  0  0  0
   -0.6425    2.1108   -2.4477 C   0  0  0  0  0  0  0  0  0  0  0  0
   -0.2680    3.0895   -2.8056 H   0  0  0  0  0  0  0  0  0  0  0  0
   -0.5979    1.3743   -3.2710 H   0  0  0  0  0  0  0  0  0  0  0  0
    1.9103    0.7988   -2.1333 C   0  0  0  0  0  0  0  0  0  0  0  0
    2.5801    1.6645   -3.0258 C   0  0  0  0  0  0  0  0  0  0  0  0
    2.2669    2.7158   -3.1191 H   0  0  0  0  0  0  0  0  0  0  0  0
    3.6534    1.1911   -3.7944 C   0  0  0  0  0  0  0  0  0  0  0  0
    4.1701    1.8722   -4.4878 H   0  0  0  0  0  0  0  0  0  0  0  0
    4.0661   -0.1473   -3.6807 C   0  0  0  0  0  0  0  0  0  0  0  0
    4.9096   -0.5157   -4.2846 H   0  0  0  0  0  0  0  0  0  0  0  0
    3.3941   -1.0132   -2.8049 C   0  0  0  0  0  0  0  0  0  0  0  0
    3.6957   -2.0680   -2.7163 H   0  0  0  0  0  0  0  0  0  0  0  0
    2.3159   -0.5433   -2.0408 C   0  0  0  0  0  0  0  0  0  0  0  0
    1.7637   -1.2302   -1.3900 H   0  0  0  0  0  0  0  0  0  0  0  0
    1.1353    2.8743   -0.2527 C   0  0  0  0  0  0  0  0  0  0  0  0
    2.5062    3.2016   -0.1865 C   0  0  0  0  0  0  0  0  0  0  0  0
    3.2471    2.5788   -0.7078 H   0  0  0  0  0  0  0  0  0  0  0  0
    2.9352    4.3111    0.5589 C   0  0  0  0  0  0  0  0  0  0  0  0
    4.0081    4.5546    0.6010 H   0  0  0  0  0  0  0  0  0  0  0  0
    2.0036    5.1045    1.2465 C   0  0  0  0  0  0  0  0  0  0  0  0
    2.3419    5.9736    1.8312 H   0  0  0  0  0  0  0  0  0  0  0  0
    0.6397    4.7752    1.1967 C   0  0  0  0  0  0  0  0  0  0  0  0
   -0.0956    5.3775    1.7512 H   0  0  0  0  0  0  0  0  0  0  0  0
    0.2075    3.6621    0.4630 C   0  0  0  0  0  0  0  0  0  0  0  0
   -0.8527    3.3748    0.4741 H   0  0  0  0  0  0  0  0  0  0  0  0
  1 30  1  0  0  0  0
  2 10  1  0  0  0  0
  3  6  1  0  0  0  0
  3  4  1  0  0  0  0
  5  3  1  0  0  0  0
  7 10  1  0  0  0  0
  7  3  1  0  0  0  0
  8  7  1  0  0  0  0
  9  7  1  0  0  0  0
 10 11  1  0  0  0  0
 10 12  1  0  0  0  0
 13 14  1  0  0  0  0
 13  2  1  0  0  0  0
 15 13  1  0  0  0  0
 16 13  1  0  0  0  0
 16  1  1  0  0  0  0
 17 16  1  0  0  0  0
 18 16  1  0  0  0  0
 19 28  1  0  0  0  0
 19  1  1  0  0  0  0
 20 19  2  0  0  0  0
 21 20  1  0  0  0  0
 22 24  2  0  0  0  0
 22 20  1  0  0  0  0
 23 22  1  0  0  0  0
 24 26  1  0  0  0  0
 25 24  1  0  0  0  0
 26 27  1  0  0  0  0
 26 28  2  0  0  0  0
 28 29  1  0  0  0  0
 30 31  2  0  0  0  0
 30 39  1  0  0  0  0
 31 33  1  0  0  0  0
 32 31  1  0  0  0  0
 33 34  1  0  0  0  0
 33 35  2  0  0  0  0
 35 36  1  0  0  0  0
 37 35  1  0  0  0  0
 37 38  1  0  0  0  0
 39 40  1  0  0  0  0
 39 37  2  0  0  0  0
M  END
