1,15
q = 0.0, confidence = 0.996

 39 41  0  0  0  0  0  0  0  0999 V2000
    0.9826    0.3430   -0.3666 P   0  0  0  0  0  0  0  0  0  0  0  0
    0.4105    1.2295   -1.9285 C   0  0  0  0  0  0  0  0  0  0  0  0
    1.1573    1.9886   -2.2350 H   0  0  0  0  0  0  0  0  0  0  0  0
    0.4527    0.4188   -2.6883 H   0  0  0  0  0  0  0  0  0  0  0  0
   -0.9643    1.8352   -1.8042 C   0  0  0  0  0  0  0  0  0  0  0  0
   -1.1317    3.2331   -1.8710 C   0  0  0  0  0  0  0  0  0  0  0  0
   -0.2471    3.8602   -2.0619 H   0  0  0  0  0  0  0  0  0  0  0  0
   -2.3835    3.8404   -1.7058 C   0  0  0  0  0  0  0  0  0  0  0  0
   -2.4741    4.9350   -1.7628 H   0  0  0  0  0  0  0  0  0  0  0  0
   -3.5139    3.0456   -1.4673 C   0  0  0  0  0  0  0  0  0  0  0  0
   -4.5036    3.5060   -1.3317 H   0  0  0  0  0  0  0  0  0  0  0  0
   -3.3796    1.6526   -1.4119 C   0  0  0  0  0  0  0  0  0  0  0  0
   -4.2589    1.0147   -1.2322 H   0  0  0  0  0  0  0  0  0  0  0  0
   -2.1240    1.0459   -1.5842 C   0  0  0  0  0  0  0  0  0  0  0  0
   -2.0190   -0.3834   -1.4879 N   0  0  0  0  0  0  0  0  0  0  0  0
   -1.6266   -0.8106   -2.3407 H   0  0  0  0  0  0  0  0  0  0  0  0
   -2.9319   -0.8427   -1.3083 H   0  0  0  0  0  0  0  0  0  0  0  0
    2.6832   -0.1908   -0.8129 C   0  0  0  0  0  0  0  0  0  0  0  0
    2.8759   -1.4588   -1.3996 C   0  0  0  0  0  0  0  0  0  0  0  0
    2.0146   -2.1260   -1.5553 H   0  0  0  0  0  0  0  0  0  0  0  0
    4.1667   -1.8672   -1.7666 C   0  0  0  0  0  0  0  0  0  0  0  0
    4.3125   -2.8594   -2.2195 H   0  0  0  0  0  0  0  0  0  0  0  0
    5.2674   -1.0249   -1.5439 C   0  0  0  0  0  0  0  0  0  0  0  0
    6.2794   -1.3537   -1.8254 H   0  0  0  0  0  0  0  0  0  0  0  0
    5.0777    0.2332   -0.9501 C   0  0  0  0  0  0  0  0  0  0  0  0
    5.9390    0.8926   -0.7634 H   0  0  0  0  0  0  0  0  0  0  0  0
    3.7906    0.6523   -0.5834 C   0  0  0  0  0  0  0  0  0  0  0  0
    3.6485    1.6328   -0.1044 H   0  0  0  0  0  0  0  0  0  0  0  0
    1.1981    1.6195    0.9226 C   0  0  0  0  0  0  0  0  0  0  0  0
    1.2478    1.1768    2.2626 C   0  0  0  0  0  0  0  0  0  0  0  0
    1.1348    0.1024    2.4865 H   0  0  0  0  0  0  0  0  0  0  0  0
    1.4385    2.1062    3.2944 C   0  0  0  0  0  0  0  0  0  0  0  0
    1.4767    1.7565    4.3372 H   0  0  0  0  0  0  0  0  0  0  0  0
    1.5744    3.4738    3.0033 C   0  0  0  0  0  0  0  0  0  0  0  0
    1.7173    4.1999    3.8180 H   0  0  0  0  0  0  0  0  0  0  0  0
    1.5283    3.9143    1.6718 C   0  0  0  0  0  0  0  0  0  0  0  0
    1.6363    4.9844    1.4382 H   0  0  0  0  0  0  0  0  0  0  0  0
    1.3431    2.9902    0.6317 C   0  0  0  0  0  0  0  0  0  0  0  0
    1.3145    3.3481   -0.4066 H   0  0  0  0  0  0  0  0  0  0  0  0
  1 29  1  0  0  0  0
  2  5  1  0  0  0  0
  2  1  1  0  0  0  0
  3  2  1  0  0  0  0
  4  2  1  0  0  0  0
  5 14  1  0  0  0  0
  6  5  2  0  0  0  0
  6  8  1  0  0  0  0
  7  6  1  0  0  0  0
  8 10  2  0  0  0  0
  9  8  1  0  0  0  0
 10 12  1  0  0  0  0
 10 11  1  0  0  0  0
 12 13  1  0  0  0  0
 14 15  1  0  0  0  0
 14 12  2  0  0  0  0
 15 17  1  0  0  0  0
 16 15  1  0  0  0  0
 18 27  1  0  0  0  0
 18  1  1  0  0  0  0
 19 18  2  0  0  0  0
 20 19  1  0  0  0  0
 21 23  2  0  0  0  0
 21 19  1  0  0  0  0
 22 21  1  0  0  0  0
 23 25  1  0  0  0  0
 24 23  1  0  0  0  0
 25 26  1  0  0  0  0
 25 27  2  0  0  0  0
 27 28  1  0  0  0  0
 29 30  1  0  0  0  0
 30 31  1  0  0  0  0
 30 32  2  0  0  0  0
 32 33  1  0  0  0  0
 34 32  1  0  0  0  0
 34 35  1  0  0  0  0
 36 34  2  0  0  0  0
 37 36  1  0  0  0  0
 38 29  2  0  0  0  0
 38 36  1  0  0  0  0
 39 38  1  0  0  0  0
M  END
