1,2
q = 0.0, confidence = 1.0

 33 36  0  0  0  0  0  0  0  0999 V2000
   -0.8133    0.1649   -0.0013 P   0  0  0  0  0  0  0  0  0  0  0  0
    2.1067    0.3874    0.0015 N   0  0  0  0  0  2  0  0  0  0  0  0
    0.0791    1.6790    0.0879 N   0  0  0  0  0  0  0  0  0  0  0  0
    3.4551    0.4393    0.0162 C   0  0  0  0  0  3  0  0  0  0  0  0
    3.9526   -0.5421   -0.0532 H   0  0  0  0  0  0  0  0  0  0  0  0
    4.1438    1.6654    0.1175 C   0  0  0  0  0  0  0  0  0  0  0  0
    5.2426    1.6443    0.1239 H   0  0  0  0  0  0  0  0  0  0  0  0
    3.4564    2.8848    0.2110 C   0  0  0  0  0  0  0  0  0  0  0  0
    4.0034    3.8358    0.2926 H   0  0  0  0  0  0  0  0  0  0  0  0
    2.0468    2.8480    0.1994 C   0  0  0  0  0  0  0  0  0  0  0  0
    0.9429    3.7775    0.2736 C   0  0  0  0  0  0  0  0  0  0  0  0
    1.0041    4.8672    0.3689 H   0  0  0  0  0  0  0  0  0  0  0  0
   -0.2250    3.0421    0.2072 C   0  0  0  0  0  0  0  0  0  0  0  0
   -1.2688    3.3713    0.2355 H   0  0  0  0  0  0  0  0  0  0  0  0
    1.4570    1.5613    0.0891 C   0  0  0  0  0  0  0  0  0  0  0  0
   -1.8884    0.1401    1.3322 N   0  0  0  0  0  0  0  0  0  0  0  0
   -2.9387    1.0337    1.5901 C   0  0  0  0  0  0  0  0  0  0  0  0
   -3.2727    1.7419    0.8254 H   0  0  0  0  0  0  0  0  0  0  0  0
   -3.3999    0.7758    2.8653 C   0  0  0  0  0  0  0  0  0  0  0  0
   -4.2311    1.2954    3.3562 H   0  0  0  0  0  0  0  0  0  0  0  0
   -2.6168   -0.2994    3.4093 C   0  0  0  0  0  0  0  0  0  0  0  0
   -2.7373   -0.7652    4.3936 H   0  0  0  0  0  0  0  0  0  0  0  0
   -1.6923   -0.6738    2.4568 C   0  0  0  0  0  0  0  0  0  0  0  0
   -0.9420   -1.4717    2.4281 H   0  0  0  0  0  0  0  0  0  0  0  0
   -1.9282    0.5330   -1.2641 N   0  0  0  0  0  0  0  0  0  0  0  0
   -3.0974   -0.2033   -1.4970 C   0  0  0  0  0  0  0  0  0  0  0  0
   -3.4657   -0.9099   -0.7467 H   0  0  0  0  0  0  0  0  0  0  0  0
   -3.5597    0.1292   -2.7547 C   0  0  0  0  0  0  0  0  0  0  0  0
   -4.4711   -0.2632   -3.2195 H   0  0  0  0  0  0  0  0  0  0  0  0
   -2.6403    1.0722   -3.3257 C   0  0  0  0  0  0  0  0  0  0  0  0
   -2.7163    1.5509   -4.3086 H   0  0  0  0  0  0  0  0  0  0  0  0
   -1.6343    1.2920   -2.4054 C   0  0  0  0  0  0  0  0  0  0  0  0
   -0.7430    1.9258   -2.4451 H   0  0  0  0  0  0  0  0  0  0  0  0
  1  3  1  0  0  0  0
  1 16  1  0  0  0  0
  2  4  1  0  0  0  0
  2 15  1  0  0  0  0
  3 15  1  0  0  0  0
  3 13  1  0  0  0  0
  4  6  1  0  0  0  0
  5  4  1  0  0  0  0
  6  7  1  0  0  0  0
  6  8  2  0  0  0  0
  8  9  1  0  0  0  0
 10  8  1  0  0  0  0
 10 11  1  0  0  0  0
 11 12  1  0  0  0  0
 13 14  1  0  0  0  0
 13 11  2  0  0  0  0
 15 10  2  0  0  0  0
 16 17  1  0  0  0  0
 16 23  1  0  0  0  0
 17 19  2  0  0  0  0
 18 17  1  0  0  0  0
 19 20  1  0  0  0  0
 19 21  1  0  0  0  0
 21 22  1  0  0  0  0
 23 21  2  0  0  0  0
 24 23  1  0  0  0  0
 25  1  1  0  0  0  0
 26 25  1  0  0  0  0
 26 27  1  0  0  0  0
 28 26  2  0  0  0  0
 29 28  1  0  0  0  0
 30 28  1  0  0  0  0
 30 32  2  0  0  0  0
 31 30  1  0  0  0  0
 32 25  1  0  0  0  0
 33 32  1  0  0  0  0
M  END
