1,3
q = 0.0, confidence = 0.992

 37 39  0  0  1  0  0  0  0  0999 V2000
    1.5520   -0.7263    0.2796 P   0  0  0  0  0  0  0  0  0  0  0  0
    1.3165   -2.2050    1.0375 O   0  0  0  0  0  0  0  0  0  0  0  0
   -1.4020   -1.6677    0.0648 N   0  0  0  0  0  2  0  0  0  0  0  0
    0.1370   -2.3681    1.8321 C   0  0  0  0  0  0  0  0  0  0  0  0
   -0.0465   -1.4727    2.4692 H   0  0  0  0  0  0  0  0  0  0  0  0
    0.3246   -3.2303    2.4990 H   0  0  0  0  0  0  0  0  0  0  0  0
   -1.0525   -2.6431    0.9404 C   0  0  2  0  0  3  0  0  0  0  0  0
    2.4872   -1.2514   -1.1822 C   0  0  0  0  0  0  0  0  0  0  0  0
    2.6956    0.1207    1.4181 C   0  0  0  0  0  0  0  0  0  0  0  0
   -2.3823   -1.9058   -0.8345 C   0  0  0  0  0  0  0  0  0  0  0  0
   -2.6166   -1.0892   -1.5331 H   0  0  0  0  0  0  0  0  0  0  0  0
   -3.0826   -3.1155   -0.8802 C   0  0  0  0  0  0  0  0  0  0  0  0
   -3.8732   -3.2578   -1.6298 H   0  0  0  0  0  0  0  0  0  0  0  0
   -1.7223   -3.8752    0.9599 C   0  0  0  0  0  0  0  0  0  0  0  0
   -1.4184   -4.6440    1.6850 H   0  0  0  0  0  0  0  0  0  0  0  0
    3.2658   -2.4292   -1.1491 C   0  0  0  0  0  0  0  0  0  0  0  0
    3.2822   -3.0525   -0.2434 H   0  0  0  0  0  0  0  0  0  0  0  0
    2.4329   -0.4671   -2.3537 C   0  0  0  0  0  0  0  0  0  0  0  0
    1.8055    0.4368   -2.3856 H   0  0  0  0  0  0  0  0  0  0  0  0
   -2.7584   -4.1144    0.0464 C   0  0  0  0  0  0  0  0  0  0  0  0
   -3.2943   -5.0751    0.0493 H   0  0  0  0  0  0  0  0  0  0  0  0
    2.1478    0.9459    2.4246 C   0  0  0  0  0  0  0  0  0  0  0  0
    1.0627    1.1379    2.4437 H   0  0  0  0  0  0  0  0  0  0  0  0
    4.0897   -0.0850    1.3531 C   0  0  0  0  0  0  0  0  0  0  0  0
    4.5222   -0.7133    0.5601 H   0  0  0  0  0  0  0  0  0  0  0  0
    2.9896    1.5461    3.3701 C   0  0  0  0  0  0  0  0  0  0  0  0
    2.5626    2.1909    4.1525 H   0  0  0  0  0  0  0  0  0  0  0  0
    4.3773    1.3365    3.3072 C   0  0  0  0  0  0  0  0  0  0  0  0
    5.0383    1.8162    4.0445 H   0  0  0  0  0  0  0  0  0  0  0  0
    3.9990   -2.8041   -2.2836 C   0  0  0  0  0  0  0  0  0  0  0  0
    4.6046   -3.7224   -2.2612 H   0  0  0  0  0  0  0  0  0  0  0  0
    4.9252    0.5263    2.2990 C   0  0  0  0  0  0  0  0  0  0  0  0
    6.0131    0.3717    2.2454 H   0  0  0  0  0  0  0  0  0  0  0  0
    3.9587   -2.0147   -3.4450 C   0  0  0  0  0  0  0  0  0  0  0  0
    4.5364   -2.3147   -4.3321 H   0  0  0  0  0  0  0  0  0  0  0  0
    3.1746   -0.8505   -3.4803 C   0  0  0  0  0  0  0  0  0  0  0  0
    3.1324   -0.2397   -4.3942 H   0  0  0  0  0  0  0  0  0  0  0  0
  1  2  1  0  0  0  0
  1  9  1  0  0  0  0
  2  4  1  0  0  0  0
  3  7  1  0  0  0  0
  4  5  1  0  0  0  0
  4  6  1  0  0  0  0
  7 14  1  0  0  0  0
  7  4  1  6  0  0  0
  8 16  1  0  0  0  0
  8  1  1  0  0  0  0
  9 22  1  0  0  0  0
 10  3  1  0  0  0  0
 11 10  1  0  0  0  0
 12 10  2  0  0  0  0
 12 20  1  0  0  0  0
 13 12  1  0  0  0  0
 14 15  1  0  0  0  0
 16 17  1  0  0  0  0
 18  8  2  0  0  0  0
 19 18  1  0  0  0  0
 20 21  1  0  0  0  0
 20 14  2  0  0  0  0
 22 23  1  0  0  0  0
 22 26  2  0  0  0  0
 24  9  2  0  0  0  0
 24 32  1  0  0  0  0
 25 24  1  0  0  0  0
 26 27  1  0  0  0  0
 28 26  1  0  0  0  0
 28 29  1  0  0  0  0
 30 31  1  0  0  0  0
 30 16  2  0  0  0  0
 32 28  2  0  0  0  0
 33 32  1  0  0  0  0
 34 30  1  0  0  0  0
 35 34  1  0  0  0  0
 36 34  2  0  0  0  0
 36 18  1  0  0  0  0
 37 36  1  0  0  0  0
M  END
