2,9
q = 0.0, confidence = 0.998

 72 78  0  0  0  0  0  0  0  0999 V2000
    2.7487    1.5039    0.3906 P   0  0  0  0  0  0  0  0  0  0  0  0
   -2.2291    0.4486    0.8081 P   0  0  0  0  0  0  0  0  0  0  0  0
    0.4306    0.4542   -0.7237 N   0  0  0  0  0  0  0  0  0  0  0  0
    1.8932   -1.1853   -0.6807 C   0  0  0  0  0  0  0  0  0  0  0  0
    0.6678   -1.6821   -1.0201 N   0  0  0  0  0  2  0  0  0  0  0  0
    3.0315   -2.1036   -0.5354 C   0  0  0  0  0  0  0  0  0  0  0  0
    1.7683    0.2053   -0.4618 C   0  0  0  0  0  0  0  0  0  0  0  0
   -1.0654    0.0662    2.1897 C   0  0  0  0  0  0  0  0  0  0  0  0
   -0.2088   -0.7117   -1.0474 N   0  0  0  0  0  2  0  0  0  0  0  0
   -1.0714   -1.2316    2.7387 C   0  0  0  0  0  0  0  0  0  0  0  0
   -1.7310   -2.0024    2.3147 H   0  0  0  0  0  0  0  0  0  0  0  0
   -0.1973    1.0424    2.7240 C   0  0  0  0  0  0  0  0  0  0  0  0
   -0.1708    2.0536    2.2910 H   0  0  0  0  0  0  0  0  0  0  0  0
    0.6410    0.7251    3.8036 C   0  0  0  0  0  0  0  0  0  0  0  0
    1.3246    1.4882    4.2049 H   0  0  0  0  0  0  0  0  0  0  0  0
   -3.6961    1.1771    1.6470 C   0  0  0  0  0  0  0  0  0  0  0  0
   -0.2492    4.0388   -1.4468 C   0  0  0  0  0  0  0  0  0  0  0  0
    0.2021    4.8564   -2.0273 H   0  0  0  0  0  0  0  0  0  0  0  0
   -1.4249    4.2476   -0.7134 C   0  0  0  0  0  0  0  0  0  0  0  0
   -1.9051    5.2374   -0.7076 H   0  0  0  0  0  0  0  0  0  0  0  0
    0.6199   -0.5654    4.3571 C   0  0  0  0  0  0  0  0  0  0  0  0
    1.2835   -0.8130    5.1995 H   0  0  0  0  0  0  0  0  0  0  0  0
    0.3506    2.7717   -1.4540 C   0  0  0  0  0  0  0  0  0  0  0  0
    1.2581    2.5853   -2.0447 H   0  0  0  0  0  0  0  0  0  0  0  0
   -3.6667    1.6054    2.9894 C   0  0  0  0  0  0  0  0  0  0  0  0
   -2.7463    1.4978    3.5822 H   0  0  0  0  0  0  0  0  0  0  0  0
   -1.4150    1.9162    0.0254 C   0  0  0  0  0  0  0  0  0  0  0  0
    4.3610   -1.7041   -0.7864 C   0  0  0  0  0  0  0  0  0  0  0  0
    4.5688   -0.6861   -1.1408 H   0  0  0  0  0  0  0  0  0  0  0  0
    3.9682    0.4816    1.3315 C   0  0  0  0  0  0  0  0  0  0  0  0
   -0.2240    1.7228   -0.7190 C   0  0  0  0  0  0  0  0  0  0  0  0
   -2.0028    3.1930    0.0116 C   0  0  0  0  0  0  0  0  0  0  0  0
   -2.9313    3.3593    0.5769 H   0  0  0  0  0  0  0  0  0  0  0  0
   -0.2332   -1.5432    3.8203 C   0  0  0  0  0  0  0  0  0  0  0  0
   -0.2457   -2.5596    4.2420 H   0  0  0  0  0  0  0  0  0  0  0  0
    5.4190   -2.5987   -0.5838 C   0  0  0  0  0  0  0  0  0  0  0  0
    6.4516   -2.2688   -0.7716 H   0  0  0  0  0  0  0  0  0  0  0  0
    5.3539    0.7327    1.2934 C   0  0  0  0  0  0  0  0  0  0  0  0
    5.7564    1.5126    0.6300 H   0  0  0  0  0  0  0  0  0  0  0  0
    3.7694    2.2211   -0.9726 C   0  0  0  0  0  0  0  0  0  0  0  0
   -4.8845    1.3061    0.8981 C   0  0  0  0  0  0  0  0  0  0  0  0
   -4.9107    0.9535   -0.1437 H   0  0  0  0  0  0  0  0  0  0  0  0
   -5.9930    2.3011    2.8206 C   0  0  0  0  0  0  0  0  0  0  0  0
   -6.8926    2.7364    3.2818 H   0  0  0  0  0  0  0  0  0  0  0  0
    5.7405   -1.0577    2.8980 C   0  0  0  0  0  0  0  0  0  0  0  0
    6.4331   -1.6677    3.4972 H   0  0  0  0  0  0  0  0  0  0  0  0
    3.4760   -0.5306    2.1831 C   0  0  0  0  0  0  0  0  0  0  0  0
    2.3972   -0.7395    2.2258 H   0  0  0  0  0  0  0  0  0  0  0  0
    4.4559    3.4235   -0.6946 C   0  0  0  0  0  0  0  0  0  0  0  0
    4.3751    3.8779    0.3061 H   0  0  0  0  0  0  0  0  0  0  0  0
    3.8463    1.6746   -2.2710 C   0  0  0  0  0  0  0  0  0  0  0  0
    3.3008    0.7483   -2.5088 H   0  0  0  0  0  0  0  0  0  0  0  0
   -6.0252    1.8737    1.4833 C   0  0  0  0  0  0  0  0  0  0  0  0
   -6.9483    1.9698    0.8921 H   0  0  0  0  0  0  0  0  0  0  0  0
   -4.8150    2.1634    3.5719 C   0  0  0  0  0  0  0  0  0  0  0  0
   -4.7884    2.4903    4.6226 H   0  0  0  0  0  0  0  0  0  0  0  0
    2.7802   -3.4294   -0.1143 C   0  0  0  0  0  0  0  0  0  0  0  0
    1.7405   -3.7385    0.0677 H   0  0  0  0  0  0  0  0  0  0  0  0
    4.3585   -1.3022    2.9491 C   0  0  0  0  0  0  0  0  0  0  0  0
    3.9598   -2.1073    3.5850 H   0  0  0  0  0  0  0  0  0  0  0  0
    5.1641   -3.9073   -0.1439 C   0  0  0  0  0  0  0  0  0  0  0  0
    5.9978   -4.6073    0.0183 H   0  0  0  0  0  0  0  0  0  0  0  0
    4.6079    2.3099   -3.2643 C   0  0  0  0  0  0  0  0  0  0  0  0
    4.6563    1.8744   -4.2740 H   0  0  0  0  0  0  0  0  0  0  0  0
    5.3074    3.4915   -2.9719 C   0  0  0  0  0  0  0  0  0  0  0  0
    5.9061    3.9859   -3.7517 H   0  0  0  0  0  0  0  0  0  0  0  0
    3.8409   -4.3218    0.0811 C   0  0  0  0  0  0  0  0  0  0  0  0
    3.6335   -5.3491    0.4171 H   0  0  0  0  0  0  0  0  0  0  0  0
    6.2323   -0.0325    2.0762 C   0  0  0  0  0  0  0  0  0  0  0  0
    7.3139    0.1669    2.0291 H   0  0  0  0  0  0  0  0  0  0  0  0
    5.2314    4.0462   -1.6840 C   0  0  0  0  0  0  0  0  0  0  0  0
    5.7679    4.9787   -1.4514 H   0  0  0  0  0  0  0  0  0  0  0  0
  1 30  1  0  0  0  0
  2 16  1  0  0  0  0
  2  8  1  0  0  0  0
  3 31  1  0  0  0  0
  3  7  1  0  0  0  0
  4  6  1  0  0  0  0
  4  7  2  0  0  0  0
  5  4  1  0  0  0  0
  6 57  1  0  0  0  0
  7  1  1  0  0  0  0
  8 12  2  0  0  0  0
  8 10  1  0  0  0  0
  9  5  1  0  0  0  0
  9  3  1  0  0  0  0
 10 34  2  0  0  0  0
 11 10  1  0  0  0  0
 12 14  1  0  0  0  0
 13 12  1  0  0  0  0
 14 15  1  0  0  0  0
 14 21  2  0  0  0  0
 16 25  1  0  0  0  0
 17 19  1  0  0  0  0
 18 17  1  0  0  0  0
 19 20  1  0  0  0  0
 19 32  2  0  0  0  0
 21 22  1  0  0  0  0
 23 17  2  0  0  0  0
 23 31  1  0  0  0  0
 24 23  1  0  0  0  0
 25 55  2  0  0  0  0
 25 26  1  0  0  0  0
 27  2  1  0  0  0  0
 28 36  1  0  0  0  0
 28  6  2  0  0  0  0
 29 28  1  0  0  0  0
 30 47  1  0  0  0  0
 31 27  2  0  0  0  0
 32 27  1  0  0  0  0
 32 33  1  0  0  0  0
 34 35  1  0  0  0  0
 34 21  1  0  0  0  0
 36 61  2  0  0  0  0
 37 36  1  0  0  0  0
 38 30  2  0  0  0  0
 38 69  1  0  0  0  0
 39 38  1  0  0  0  0
 40 49  1  0  0  0  0
 40  1  1  0  0  0  0
 41 53  1  0  0  0  0
 41 16  2  0  0  0  0
 42 41  1  0  0  0  0
 43 44  1  0  0  0  0
 43 55  1  0  0  0  0
 45 59  1  0  0  0  0
 45 46  1  0  0  0  0
 47 48  1  0  0  0  0
 47 59  2  0  0  0  0
 49 50  1  0  0  0  0
 51 40  2  0  0  0  0
 52 51  1  0  0  0  0
 53 43  2  0  0  0  0
 54 53  1  0  0  0  0
 55 56  1  0  0  0  0
 57 58  1  0  0  0  0
 57 67  2  0  0  0  0
 59 60  1  0  0  0  0
 61 62  1  0  0  0  0
 61 67  1  0  0  0  0
 63 65  2  0  0  0  0
 63 51  1  0  0  0  0
 64 63  1  0  0  0  0
 65 71  1  0  0  0  0
 66 65  1  0  0  0  0
 67 68  1  0  0  0  0
 69 45  2  0  0  0  0
 70 69  1  0  0  0  0
 71 72  1  0  0  0  0
 71 49  2  0  0  0  0
M  END
