1,3
q = 0.0, confidence = 1.0

 54 57  0  0  1  0  0  0  0  0999 V2000
    1.0236    0.0328    0.0608 P   0  0  0  0  0  0  0  0  0  0  0  0
   -3.1012    2.0585   -1.3876 O   0  0  0  0  0  0  0  0  0  0  0  0
   -2.1098    0.1391   -0.7810 N   0  0  0  0  0  2  0  0  0  0  0  0
   -3.4953   -0.0198   -0.2852 C   0  0  2  0  0  0  0  0  0  0  0  0
   -3.8943   -0.9504   -0.7375 H   0  0  0  0  0  0  0  0  0  0  0  0
   -4.1854    1.2488   -0.8386 C   0  0  0  0  0  0  0  0  0  0  0  0
   -4.8923    1.0367   -1.6649 H   0  0  0  0  0  0  0  0  0  0  0  0
   -4.6996    1.8560   -0.0678 H   0  0  0  0  0  0  0  0  0  0  0  0
   -1.9908    1.3058   -1.3288 C   0  0  2  0  0  3  0  0  0  0  0  0
   -0.7090    1.9498   -1.7547 C   0  0  0  0  0  0  0  0  0  0  0  0
   -0.9235    2.7202   -2.5178 H   0  0  0  0  0  0  0  0  0  0  0  0
   -0.0443    1.1840   -2.1984 H   0  0  0  0  0  0  0  0  0  0  0  0
   -0.1156    2.5775   -0.5037 C   0  0  0  0  0  0  0  0  0  0  0  0
   -0.4067    3.9212   -0.2087 C   0  0  0  0  0  0  0  0  0  0  0  0
   -0.9844    4.5131   -0.9354 H   0  0  0  0  0  0  0  0  0  0  0  0
    0.0155    4.5063    0.9937 C   0  0  0  0  0  0  0  0  0  0  0  0
   -0.2186    5.5608    1.2032 H   0  0  0  0  0  0  0  0  0  0  0  0
    0.7285    3.7392    1.9252 C   0  0  0  0  0  0  0  0  0  0  0  0
    1.0620    4.1848    2.8744 H   0  0  0  0  0  0  0  0  0  0  0  0
    1.0246    2.3964    1.6466 C   0  0  0  0  0  0  0  0  0  0  0  0
    1.5898    1.8010    2.3774 H   0  0  0  0  0  0  0  0  0  0  0  0
    0.6121    1.8007    0.4372 C   0  0  0  0  0  0  0  0  0  0  0  0
   -3.5132   -0.1911    1.2497 C   0  0  0  0  0  0  0  0  0  0  0  0
   -2.9147   -1.1119    1.4290 H   0  0  0  0  0  0  0  0  0  0  0  0
   -2.8430    0.9699    1.9905 C   0  0  0  0  0  0  0  0  0  0  0  0
   -3.3768    1.9319    1.8338 H   0  0  0  0  0  0  0  0  0  0  0  0
   -1.7930    1.1082    1.6645 H   0  0  0  0  0  0  0  0  0  0  0  0
   -2.8317    0.7807    3.0827 H   0  0  0  0  0  0  0  0  0  0  0  0
   -4.9414   -0.4536    1.7370 C   0  0  0  0  0  0  0  0  0  0  0  0
   -4.9518   -0.6672    2.8245 H   0  0  0  0  0  0  0  0  0  0  0  0
   -5.3911   -1.3233    1.2166 H   0  0  0  0  0  0  0  0  0  0  0  0
   -5.6027    0.4246    1.5723 H   0  0  0  0  0  0  0  0  0  0  0  0
    1.9137   -0.5056    1.5699 C   0  0  0  0  0  0  0  0  0  0  0  0
    3.3074   -0.3702    1.7051 C   0  0  0  0  0  0  0  0  0  0  0  0
    3.9070    0.0217    0.8700 H   0  0  0  0  0  0  0  0  0  0  0  0
    3.9315   -0.7483    2.9046 C   0  0  0  0  0  0  0  0  0  0  0  0
    5.0231   -0.6506    3.0046 H   0  0  0  0  0  0  0  0  0  0  0  0
    3.1688   -1.2550    3.9680 C   0  0  0  0  0  0  0  0  0  0  0  0
    3.6616   -1.5538    4.9056 H   0  0  0  0  0  0  0  0  0  0  0  0
    1.7772   -1.3944    3.8302 C   0  0  0  0  0  0  0  0  0  0  0  0
    1.1783   -1.8073    4.6559 H   0  0  0  0  0  0  0  0  0  0  0  0
    1.1495   -1.0291    2.6326 C   0  0  0  0  0  0  0  0  0  0  0  0
    0.0646   -1.1671    2.5040 H   0  0  0  0  0  0  0  0  0  0  0  0
    2.2981    0.2241   -1.2601 C   0  0  0  0  0  0  0  0  0  0  0  0
    3.0520    1.4133   -1.3692 C   0  0  0  0  0  0  0  0  0  0  0  0
    2.8790    2.2441   -0.6689 H   0  0  0  0  0  0  0  0  0  0  0  0
    4.0218    1.5402   -2.3751 C   0  0  0  0  0  0  0  0  0  0  0  0
    4.6062    2.4695   -2.4539 H   0  0  0  0  0  0  0  0  0  0  0  0
    4.2429    0.4875   -3.2774 C   0  0  0  0  0  0  0  0  0  0  0  0
    5.0011    0.5910   -4.0687 H   0  0  0  0  0  0  0  0  0  0  0  0
    3.4938   -0.6951   -3.1698 C   0  0  0  0  0  0  0  0  0  0  0  0
    3.6629   -1.5232   -3.8746 H   0  0  0  0  0  0  0  0  0  0  0  0
    2.5224   -0.8327   -2.1673 C   0  0  0  0  0  0  0  0  0  0  0  0
    1.9424   -1.7635   -2.0627 H   0  0  0  0  0  0  0  0  0  0  0  0
  1 22  1  0  0  0  0
  1 33  1  0  0  0  0
  2  9  1  0  0  0  0
  2  6  1  0  0  0  0
  3  4  1  0  0  0  0
  4  5  1  6  0  0  0
  4 23  1  0  0  0  0
  6  4  1  0  0  0  0
  6  8  1  0  0  0  0
  7  6  1  0  0  0  0
  9 10  1  1  0  0  0
  9  3  1  0  0  0  0
 10 13  1  0  0  0  0
 11 10  1  0  0  0  0
 12 10  1  0  0  0  0
 13 14  2  0  0  0  0
 13 22  1  0  0  0  0
 14 16  1  0  0  0  0
 15 14  1  0  0  0  0
 16 17  1  0  0  0  0
 16 18  2  0  0  0  0
 18 19  1  0  0  0  0
 20 18  1  0  0  0  0
 20 21  1  0  0  0  0
 22 20  2  0  0  0  0
 23 24  1  0  0  0  0
 23 29  1  0  0  0  0
 23 25  1  0  0  0  0
 25 28  1  0  0  0  0
 26 25  1  0  0  0  0
 27 25  1  0  0  0  0
 29 30  1  0  0  0  0
 31 29  1  0  0  0  0
 32 29  1  0  0  0  0
 33 34  2  0  0  0  0
 33 42  1  0  0  0  0
 34 36  1  0  0  0  0
 35 34  1  0  0  0  0
 36 37  1  0  0  0  0
 36 38  2  0  0  0  0
 38 39  1  0  0  0  0
 40 38  1  0  0  0  0
 40 41  1  0  0  0  0
 42 40  2  0  0  0  0
 43 42  1  0  0  0  0
 44  1  1  0  0  0  0
 45 44  1  0  0  0  0
 45 46  1  0  0  0  0
 47 45  2  0  0  0  0
 48 47  1  0  0  0  0
 49 51  2  0  0  0  0
 49 47  1  0  0  0  0
 50 49  1  0  0  0  0
 51 53  1  0  0  0  0
 52 51  1  0  0  0  0
 53 54  1  0  0  0  0
 53 44  2  0  0  0  0
M  END
