1,3
q = 0.0, confidence = 0.996

 76 82  0  0  1  0  0  0  0  0999 V2000
   -0.2179   -1.1349    0.7439 P   0  0  0  0  0  0  0  0  0  0  0  0
   -0.4877    3.1434   -0.8981 O   0  0  0  0  0  0  0  0  0  0  0  0
   -1.5946    1.1873   -0.8762 N   0  0  0  0  0  2  0  0  0  0  0  0
    1.3697    1.2374    0.7319 C   0  0  0  0  0  0  0  0  0  0  0  0
    0.4942    0.4248    1.4807 C   0  0  0  0  0  0  0  0  0  0  0  0
    0.1592    0.7926    2.8177 C   0  0  0  0  0  0  0  0  0  0  0  0
   -0.5151    0.1476    3.3984 H   0  0  0  0  0  0  0  0  0  0  0  0
    0.6823    1.9359    3.3976 C   0  0  0  0  0  0  0  0  0  0  0  0
    0.4200    2.1983    4.4345 H   0  0  0  0  0  0  0  0  0  0  0  0
    2.1031    3.9761    3.2445 C   0  0  0  0  0  0  0  0  0  0  0  0
    1.8356    4.2304    4.2819 H   0  0  0  0  0  0  0  0  0  0  0  0
    2.9434    4.7979    2.5102 C   0  0  0  0  0  0  0  0  0  0  0  0
    3.3536    5.7140    2.9613 H   0  0  0  0  0  0  0  0  0  0  0  0
    3.2730    4.4623    1.1691 C   0  0  0  0  0  0  0  0  0  0  0  0
    3.9331    5.1239    0.5882 H   0  0  0  0  0  0  0  0  0  0  0  0
    2.7670    3.3111    0.5859 C   0  0  0  0  0  0  0  0  0  0  0  0
    3.0187    3.0611   -0.4541 H   0  0  0  0  0  0  0  0  0  0  0  0
    1.9078    2.4356    1.3172 C   0  0  0  0  0  0  0  0  0  0  0  0
    1.5630    2.7862    2.6732 C   0  0  0  0  0  0  0  0  0  0  0  0
    1.6935    0.9223   -0.6982 C   0  0  0  0  0  0  0  0  0  0  0  0
    0.7222    1.1876   -1.6709 C   0  0  0  0  0  0  0  0  0  0  0  0
    0.8965    0.8123   -3.0312 C   0  0  0  0  0  0  0  0  0  0  0  0
    0.0695    0.9625   -3.7393 H   0  0  0  0  0  0  0  0  0  0  0  0
    2.0870    0.2272   -3.4227 C   0  0  0  0  0  0  0  0  0  0  0  0
    2.2346   -0.0751   -4.4705 H   0  0  0  0  0  0  0  0  0  0  0  0
    4.3861   -0.5630   -2.8863 C   0  0  0  0  0  0  0  0  0  0  0  0
    4.5297   -0.8240   -3.9462 H   0  0  0  0  0  0  0  0  0  0  0  0
    5.3966   -0.7826   -1.9625 C   0  0  0  0  0  0  0  0  0  0  0  0
    6.3537   -1.2193   -2.2853 H   0  0  0  0  0  0  0  0  0  0  0  0
    5.1987   -0.4496   -0.5966 C   0  0  0  0  0  0  0  0  0  0  0  0
    6.0018   -0.6355    0.1323 H   0  0  0  0  0  0  0  0  0  0  0  0
    3.9969    0.0962   -0.1725 C   0  0  0  0  0  0  0  0  0  0  0  0
    3.8409    0.3435    0.8870 H   0  0  0  0  0  0  0  0  0  0  0  0
    2.9429    0.3443   -1.0987 C   0  0  0  0  0  0  0  0  0  0  0  0
    3.1410    0.0043   -2.4878 C   0  0  0  0  0  0  0  0  0  0  0  0
   -1.1304   -1.9345    2.1235 C   0  0  0  0  0  0  0  0  0  0  0  0
   -0.6798   -3.0910    2.7859 C   0  0  0  0  0  0  0  0  0  0  0  0
    0.2780   -3.5503    2.5046 H   0  0  0  0  0  0  0  0  0  0  0  0
   -1.4676   -3.6756    3.7904 C   0  0  0  0  0  0  0  0  0  0  0  0
   -1.1121   -4.5860    4.2963 H   0  0  0  0  0  0  0  0  0  0  0  0
   -2.7043   -3.1139    4.1401 C   0  0  0  0  0  0  0  0  0  0  0  0
   -3.3194   -3.5782    4.9258 H   0  0  0  0  0  0  0  0  0  0  0  0
   -3.1664   -1.9699    3.4680 C   0  0  0  0  0  0  0  0  0  0  0  0
   -4.1471   -1.5378    3.7181 H   0  0  0  0  0  0  0  0  0  0  0  0
   -2.3902   -1.3914    2.4561 C   0  0  0  0  0  0  0  0  0  0  0  0
   -2.7741   -0.5253    1.8952 H   0  0  0  0  0  0  0  0  0  0  0  0
    1.3142   -2.1129    0.4807 C   0  0  0  0  0  0  0  0  0  0  0  0
    2.2374   -2.2404    1.5410 C   0  0  0  0  0  0  0  0  0  0  0  0
    2.0372   -1.7573    2.5099 H   0  0  0  0  0  0  0  0  0  0  0  0
    3.4176   -2.9747    1.3591 C   0  0  0  0  0  0  0  0  0  0  0  0
    4.1293   -3.0804    2.1920 H   0  0  0  0  0  0  0  0  0  0  0  0
    3.6973   -3.5542    0.1112 C   0  0  0  0  0  0  0  0  0  0  0  0
    4.6310   -4.1179   -0.0365 H   0  0  0  0  0  0  0  0  0  0  0  0
    2.7943   -3.4005   -0.9515 C   0  0  0  0  0  0  0  0  0  0  0  0
    3.0188   -3.8388   -1.9353 H   0  0  0  0  0  0  0  0  0  0  0  0
    1.5982   -2.6903   -0.7704 C   0  0  0  0  0  0  0  0  0  0  0  0
    0.8726   -2.5870   -1.5899 H   0  0  0  0  0  0  0  0  0  0  0  0
   -0.5177    1.8340   -1.1871 C   0  0  2  0  0  3  0  0  0  0  0  0
   -2.5104    2.1003   -0.1557 C   0  0  1  0  0  0  0  0  0  0  0  0
   -2.5027    1.7686    0.9083 H   0  0  0  0  0  0  0  0  0  0  0  0
   -1.7713    3.4611   -0.2911 C   0  0  0  0  0  0  0  0  0  0  0  0
   -2.2925    4.1676   -0.9668 H   0  0  0  0  0  0  0  0  0  0  0  0
   -1.5700    3.9577    0.6763 H   0  0  0  0  0  0  0  0  0  0  0  0
   -3.9927    2.1121   -0.6226 C   0  0  0  0  0  0  0  0  0  0  0  0
   -4.6358    0.7435   -0.3360 C   0  0  0  0  0  0  0  0  0  0  0  0
   -5.7147    0.7732   -0.5903 H   0  0  0  0  0  0  0  0  0  0  0  0
   -4.5534    0.4761    0.7387 H   0  0  0  0  0  0  0  0  0  0  0  0
   -4.1710   -0.0594   -0.9418 H   0  0  0  0  0  0  0  0  0  0  0  0
   -4.0988    2.4293   -2.1231 C   0  0  0  0  0  0  0  0  0  0  0  0
   -5.1653    2.4614   -2.4243 H   0  0  0  0  0  0  0  0  0  0  0  0
   -3.5974    1.6418   -2.7225 H   0  0  0  0  0  0  0  0  0  0  0  0
   -3.6604    3.4171   -2.3779 H   0  0  0  0  0  0  0  0  0  0  0  0
   -4.7206    3.1869    0.2109 C   0  0  0  0  0  0  0  0  0  0  0  0
   -4.6293    2.9885    1.2999 H   0  0  0  0  0  0  0  0  0  0  0  0
   -5.8003    3.1897   -0.0390 H   0  0  0  0  0  0  0  0  0  0  0  0
   -4.3378    4.2099    0.0141 H   0  0  0  0  0  0  0  0  0  0  0  0
  1  5  1  0  0  0  0
  1 36  1  0  0  0  0
  2 61  1  0  0  0  0
  3 59  1  0  0  0  0
  4 18  2  0  0  0  0
  4  5  1  0  0  0  0
  5  6  2  0  0  0  0
  6  8  1  0  0  0  0
  6  7  1  0  0  0  0
  8  9  1  0  0  0  0
 10 11  1  0  0  0  0
 12 13  1  0  0  0  0
 12 10  2  0  0  0  0
 14 12  1  0  0  0  0
 15 14  1  0  0  0  0
 16 14  2  0  0  0  0
 16 18  1  0  0  0  0
 17 16  1  0  0  0  0
 18 19  1  0  0  0  0
 19 10  1  0  0  0  0
 19  8  2  0  0  0  0
 20  4  1  0  0  0  0
 21 20  2  0  0  0  0
 22 21  1  0  0  0  0
 23 22  1  0  0  0  0
 24 22  2  0  0  0  0
 24 35  1  0  0  0  0
 25 24  1  0  0  0  0
 26 35  2  0  0  0  0
 26 28  1  0  0  0  0
 27 26  1  0  0  0  0
 28 30  2  0  0  0  0
 29 28  1  0  0  0  0
 30 32  1  0  0  0  0
 30 31  1  0  0  0  0
 32 33  1  0  0  0  0
 34 20  1  0  0  0  0
 34 32  2  0  0  0  0
 35 34  1  0  0  0  0
 36 45  2  0  0  0  0
 36 37  1  0  0  0  0
 37 39  2  0  0  0  0
 38 37  1  0  0  0  0
 39 41  1  0  0  0  0
 39 40  1  0  0  0  0
 41 42  1  0  0  0  0
 43 44  1  0  0  0  0
 43 41  2  0  0  0  0
 45 43  1  0  0  0  0
 46 45  1  0  0  0  0
 47  1  1  0  0  0  0
 47 48  1  0  0  0  0
 48 49  1  0  0  0  0
 50 48  2  0  0  0  0
 50 51  1  0  0  0  0
 52 50  1  0  0  0  0
 53 52  1  0  0  0  0
 54 56  1  0  0  0  0
 54 52  2  0  0  0  0
 55 54  1  0  0  0  0
 56 47  2  0  0  0  0
 57 56  1  0  0  0  0
 58 21  1  1  0  0  0
 58  2  1  0  0  0  0
 58  3  1  0  0  0  0
 59 60  1  1  0  0  0
 61 59  1  0  0  0  0
 61 63  1  0  0  0  0
 62 61  1  0  0  0  0
 64 65  1  0  0  0  0
 64 59  1  0  0  0  0
 64 73  1  0  0  0  0
 65 67  1  0  0  0  0
 66 65  1  0  0  0  0
 68 65  1  0  0  0  0
 69 64  1  0  0  0  0
 70 69  1  0  0  0  0
 71 69  1  0  0  0  0
 72 69  1  0  0  0  0
 73 74  1  0  0  0  0
 75 73  1  0  0  0  0
 76 73  1  0  0  0  0
M  END
