1,2
q = 0.0, confidence = 0.994

 68 71  0  0  1  0  0  0  0  0999 V2000
   -1.0384    0.1033   -0.2823 N   0  0  0  0  0  2  0  0  0  0  0  0
    1.7181    0.7864   -0.2951 P   0  0  0  0  0  0  0  0  0  0  0  0
    0.4359    1.7418   -1.2497 C   0  0  0  0  0  0  0  0  0  0  0  0
   -0.9239    1.3307   -0.7330 C   0  0  1  0  0  3  0  0  0  0  0  0
   -2.2814   -0.4083    0.2138 C   0  0  0  0  0  0  0  0  0  0  0  0
   -3.3377   -0.6932   -0.6881 C   0  0  0  0  0  0  0  0  0  0  0  0
   -4.5407   -1.1782   -0.1431 C   0  0  0  0  0  0  0  0  0  0  0  0
   -4.6929   -1.3747    1.2336 C   0  0  0  0  0  0  0  0  0  0  0  0
   -3.6221   -1.1127    2.0977 C   0  0  0  0  0  0  0  0  0  0  0  0
   -2.3926   -0.6392    1.6105 C   0  0  0  0  0  0  0  0  0  0  0  0
   -1.2379   -0.3760    2.5712 C   0  0  0  0  0  0  0  0  0  0  0  0
   -0.8428   -1.6500    3.3348 C   0  0  0  0  0  0  0  0  0  0  0  0
   -1.5349    0.7929    3.5258 C   0  0  0  0  0  0  0  0  0  0  0  0
   -3.2009   -0.5444   -2.1985 C   0  0  0  0  0  0  0  0  0  0  0  0
   -4.2872    0.3704   -2.7894 C   0  0  0  0  0  0  0  0  0  0  0  0
   -3.1895   -1.9264   -2.8776 C   0  0  0  0  0  0  0  0  0  0  0  0
   -2.0116    2.3385   -0.7935 C   0  0  0  0  0  0  0  0  0  0  0  0
   -2.0527    3.2150   -1.9054 C   0  0  0  0  0  0  0  0  0  0  0  0
   -3.0694    4.1699   -2.0307 C   0  0  0  0  0  0  0  0  0  0  0  0
   -4.0484    4.2889   -1.0321 C   0  0  0  0  0  0  0  0  0  0  0  0
   -4.0027    3.4446    0.0894 C   0  0  0  0  0  0  0  0  0  0  0  0
   -3.0032    2.4717    0.2076 C   0  0  0  0  0  0  0  0  0  0  0  0
    3.2817    1.0760   -1.1852 C   0  0  0  0  0  0  0  0  0  0  0  0
    3.6415    0.1929   -2.2238 C   0  0  0  0  0  0  0  0  0  0  0  0
    4.8042    0.4369   -2.9678 C   0  0  0  0  0  0  0  0  0  0  0  0
    5.6129    1.5466   -2.6710 C   0  0  0  0  0  0  0  0  0  0  0  0
    5.2605    2.4178   -1.6276 C   0  0  0  0  0  0  0  0  0  0  0  0
    4.0955    2.1858   -0.8813 C   0  0  0  0  0  0  0  0  0  0  0  0
    1.8665    1.6065    1.3292 C   0  0  0  0  0  0  0  0  0  0  0  0
    1.1557    2.7735    1.6744 C   0  0  0  0  0  0  0  0  0  0  0  0
    1.2513    3.2915    2.9760 C   0  0  0  0  0  0  0  0  0  0  0  0
    2.0530    2.6513    3.9327 C   0  0  0  0  0  0  0  0  0  0  0  0
    2.7585    1.4839    3.5911 C   0  0  0  0  0  0  0  0  0  0  0  0
    2.6635    0.9551    2.2978 C   0  0  0  0  0  0  0  0  0  0  0  0
    0.5703    1.4015   -2.2995 H   0  0  0  0  0  0  0  0  0  0  0  0
    0.5909    2.8378   -1.2314 H   0  0  0  0  0  0  0  0  0  0  0  0
   -5.3754   -1.4142   -0.8207 H   0  0  0  0  0  0  0  0  0  0  0  0
   -5.6463   -1.7507    1.6346 H   0  0  0  0  0  0  0  0  0  0  0  0
   -3.7368   -1.2887    3.1781 H   0  0  0  0  0  0  0  0  0  0  0  0
   -0.3567   -0.0846    1.9632 H   0  0  0  0  0  0  0  0  0  0  0  0
    0.0631   -1.4625    3.9469 H   0  0  0  0  0  0  0  0  0  0  0  0
   -1.6504   -1.9831    4.0194 H   0  0  0  0  0  0  0  0  0  0  0  0
   -0.6229   -2.4740    2.6271 H   0  0  0  0  0  0  0  0  0  0  0  0
   -0.6611    0.9868    4.1807 H   0  0  0  0  0  0  0  0  0  0  0  0
   -1.7494    1.7321    2.9761 H   0  0  0  0  0  0  0  0  0  0  0  0
   -2.4072    0.5738    4.1767 H   0  0  0  0  0  0  0  0  0  0  0  0
   -2.2195   -0.0751   -2.4107 H   0  0  0  0  0  0  0  0  0  0  0  0
   -4.1185    0.5198   -3.8756 H   0  0  0  0  0  0  0  0  0  0  0  0
   -5.2967   -0.0751   -2.6732 H   0  0  0  0  0  0  0  0  0  0  0  0
   -4.2991    1.3654   -2.3022 H   0  0  0  0  0  0  0  0  0  0  0  0
   -3.0251   -1.8209   -3.9700 H   0  0  0  0  0  0  0  0  0  0  0  0
   -4.1578   -2.4484   -2.7305 H   0  0  0  0  0  0  0  0  0  0  0  0
   -2.3892   -2.5643   -2.4521 H   0  0  0  0  0  0  0  0  0  0  0  0
   -1.2993    3.1250   -2.7015 H   0  0  0  0  0  0  0  0  0  0  0  0
   -3.0965    4.8242   -2.9147 H   0  0  0  0  0  0  0  0  0  0  0  0
   -4.8456    5.0416   -1.1261 H   0  0  0  0  0  0  0  0  0  0  0  0
   -4.7592    3.5377    0.8826 H   0  0  0  0  0  0  0  0  0  0  0  0
   -2.9895    1.8139    1.0847 H   0  0  0  0  0  0  0  0  0  0  0  0
    3.0232   -0.6965   -2.4198 H   0  0  0  0  0  0  0  0  0  0  0  0
    5.0893   -0.2555   -3.7740 H   0  0  0  0  0  0  0  0  0  0  0  0
    6.5306    1.7281   -3.2509 H   0  0  0  0  0  0  0  0  0  0  0  0
    5.8990    3.2817   -1.3888 H   0  0  0  0  0  0  0  0  0  0  0  0
    3.8215    2.8618   -0.0566 H   0  0  0  0  0  0  0  0  0  0  0  0
    0.5152    3.2832    0.9395 H   0  0  0  0  0  0  0  0  0  0  0  0
    0.6897    4.1995    3.2424 H   0  0  0  0  0  0  0  0  0  0  0  0
    2.1230    3.0586    4.9526 H   0  0  0  0  0  0  0  0  0  0  0  0
    3.3786    0.9729    4.3428 H   0  0  0  0  0  0  0  0  0  0  0  0
    3.1827    0.0190    2.0322 H   0  0  0  0  0  0  0  0  0  0  0  0
  1  5  1  0  0  0  0
  2 29  1  0  0  0  0
  3 36  1  0  0  0  0
  3  4  1  0  0  0  0
  3  2  1  0  0  0  0
  4  1  1  6  0  0  0
  5 10  1  0  0  0  0
  6  7  1  0  0  0  0
  6  5  2  0  0  0  0
  7  8  2  0  0  0  0
  8 38  1  0  0  0  0
  8  9  1  0  0  0  0
  9 39  1  0  0  0  0
 10  9  2  0  0  0  0
 10 11  1  0  0  0  0
 11 12  1  0  0  0  0
 11 13  1  0  0  0  0
 12 41  1  0  0  0  0
 12 42  1  0  0  0  0
 13 46  1  0  0  0  0
 13 44  1  0  0  0  0
 14  6  1  0  0  0  0
 15 49  1  0  0  0  0
 15 50  1  0  0  0  0
 15 14  1  0  0  0  0
 16 52  1  0  0  0  0
 16 53  1  0  0  0  0
 16 14  1  0  0  0  0
 17  4  1  0  0  0  0
 17 22  1  0  0  0  0
 18 17  2  0  0  0  0
 19 18  1  0  0  0  0
 19 20  2  0  0  0  0
 20 21  1  0  0  0  0
 21 22  2  0  0  0  0
 21 57  1  0  0  0  0
 22 58  1  0  0  0  0
 23 28  1  0  0  0  0
 23  2  1  0  0  0  0
 24 23  2  0  0  0  0
 25 26  2  0  0  0  0
 25 24  1  0  0  0  0
 26 27  1  0  0  0  0
 27 62  1  0  0  0  0
 27 28  2  0  0  0  0
 28 63  1  0  0  0  0
 29 30  2  0  0  0  0
 29 34  1  0  0  0  0
 30 31  1  0  0  0  0
 31 65  1  0  0  0  0
 31 32  2  0  0  0  0
 32 66  1  0  0  0  0
 33 32  1  0  0  0  0
 33 67  1  0  0  0  0
 34 33  2  0  0  0  0
 35  3  1  0  0  0  0
 37  7  1  0  0  0  0
 40 11  1  0  0  0  0
 43 12  1  0  0  0  0
 45 13  1  0  0  0  0
 47 14  1  0  0  0  0
 48 15  1  0  0  0  0
 51 16  1  0  0  0  0
 54 18  1  0  0  0  0
 55 19  1  0  0  0  0
 56 20  1  0  0  0  0
 59 24  1  0  0  0  0
 60 25  1  0  0  0  0
 61 26  1  0  0  0  0
 64 30  1  0  0  0  0
 68 34  1  0  0  0  0
M  END
