1,2
q = 0.0, confidence = 0.994

 52 54  0  0  0  0  0  0  0  0999 V2000
    0.2859    0.4292    0.4250 P   0  0  0  0  0  0  0  0  0  0  0  0
   -0.2171   -0.9290   -2.0277 N   0  0  0  0  0  2  0  0  0  0  0  0
   -2.3722   -0.5968    0.5079 N   0  0  0  0  0  0  0  0  0  0  0  0
   -1.3932   -0.3559   -1.6393 N   0  0  0  0  0  0  0  0  0  0  0  0
   -2.1728    1.5631   -0.4734 N   0  0  0  0  0  0  0  0  0  0  0  0
   -1.8531   -1.7941    0.8539 N   0  0  0  0  0  0  0  0  0  0  0  0
   -1.5377    0.2586   -0.3274 C   0  0  0  0  0  0  0  0  0  0  0  0
   -2.5586    2.2232    0.6444 N   0  0  0  0  0  0  0  0  0  0  0  0
   -0.4632   -1.5641   -3.1790 C   0  0  0  0  0  3  0  0  0  0  0  0
    0.3767   -2.0947   -3.6501 H   0  0  0  0  0  0  0  0  0  0  0  0
   -2.3975   -0.6674   -2.5208 C   0  0  0  0  0  0  0  0  0  0  0  0
   -3.4238   -0.3275   -2.3466 H   0  0  0  0  0  0  0  0  0  0  0  0
   -1.8277   -1.4256   -3.5344 C   0  0  0  0  0  0  0  0  0  0  0  0
   -2.3332   -1.8358   -4.4142 H   0  0  0  0  0  0  0  0  0  0  0  0
   -2.2517    2.3461   -1.6021 C   0  0  0  0  0  0  0  0  0  0  0  0
   -1.9440    1.9805   -2.5861 H   0  0  0  0  0  0  0  0  0  0  0  0
    0.5038   -0.9767    2.8975 C   0  0  0  0  0  0  0  0  0  0  0  0
    0.1717   -1.8336    2.2766 H   0  0  0  0  0  0  0  0  0  0  0  0
    1.6145   -0.9957    2.8780 H   0  0  0  0  0  0  0  0  0  0  0  0
    0.6113    2.2393    0.1689 C   0  0  0  0  0  0  0  0  0  0  0  0
    0.4080    2.4618   -0.8987 H   0  0  0  0  0  0  0  0  0  0  0  0
   -0.1003    2.8296    0.7832 H   0  0  0  0  0  0  0  0  0  0  0  0
    0.0038   -1.1516    4.3343 C   0  0  0  0  0  0  0  0  0  0  0  0
    0.3045   -0.2712    4.9459 H   0  0  0  0  0  0  0  0  0  0  0  0
   -1.1096   -1.1475    4.3282 H   0  0  0  0  0  0  0  0  0  0  0  0
    0.0081    0.3227    2.2567 C   0  0  0  0  0  0  0  0  0  0  0  0
    0.5231    1.2066    2.6898 H   0  0  0  0  0  0  0  0  0  0  0  0
   -1.0768    0.4873    2.4300 H   0  0  0  0  0  0  0  0  0  0  0  0
   -3.7059   -0.4812    0.8304 C   0  0  0  0  0  0  0  0  0  0  0  0
   -4.2700    0.4351    0.6397 H   0  0  0  0  0  0  0  0  0  0  0  0
    0.5132   -2.4360    4.9886 C   0  0  0  0  0  0  0  0  0  0  0  0
    0.1988   -3.3301    4.4110 H   0  0  0  0  0  0  0  0  0  0  0  0
    0.1308   -2.5509    6.0228 H   0  0  0  0  0  0  0  0  0  0  0  0
    1.6219   -2.4512    5.0362 H   0  0  0  0  0  0  0  0  0  0  0  0
   -2.8606   -2.4509    1.4363 C   0  0  0  0  0  0  0  0  0  0  0  0
   -2.6907   -3.4610    1.8300 H   0  0  0  0  0  0  0  0  0  0  0  0
    2.0662    2.5914    0.5011 C   0  0  0  0  0  0  0  0  0  0  0  0
    2.7382    1.9998   -0.1573 H   0  0  0  0  0  0  0  0  0  0  0  0
    2.3113    2.2769    1.5408 H   0  0  0  0  0  0  0  0  0  0  0  0
   -2.7573    3.5724   -1.1877 C   0  0  0  0  0  0  0  0  0  0  0  0
   -2.9713    4.4411   -1.8181 H   0  0  0  0  0  0  0  0  0  0  0  0
    2.3643    4.0868    0.3448 C   0  0  0  0  0  0  0  0  0  0  0  0
    2.1158    4.3969   -0.6945 H   0  0  0  0  0  0  0  0  0  0  0  0
    1.6815    4.6687    1.0033 H   0  0  0  0  0  0  0  0  0  0  0  0
   -4.0515   -1.6748    1.4508 C   0  0  0  0  0  0  0  0  0  0  0  0
   -5.0285   -1.9379    1.8691 H   0  0  0  0  0  0  0  0  0  0  0  0
   -2.9311    3.4355    0.2142 C   0  0  0  0  0  0  0  0  0  0  0  0
   -3.3117    4.1701    0.9351 H   0  0  0  0  0  0  0  0  0  0  0  0
    3.8181    4.4405    0.6586 C   0  0  0  0  0  0  0  0  0  0  0  0
    4.5170    3.8957   -0.0092 H   0  0  0  0  0  0  0  0  0  0  0  0
    4.0824    4.1693    1.7020 H   0  0  0  0  0  0  0  0  0  0  0  0
    4.0112    5.5250    0.5352 H   0  0  0  0  0  0  0  0  0  0  0  0
  1 26  1  0  0  0  0
  2  4  1  0  0  0  0
  3 29  1  0  0  0  0
  3  6  1  0  0  0  0
  4  7  1  0  0  0  0
  5  7  1  0  0  0  0
  5  8  1  0  0  0  0
  6 35  2  0  0  0  0
  7  1  1  0  0  0  0
  7  3  1  0  0  0  0
  9  2  1  0  0  0  0
 10  9  1  0  0  0  0
 11 12  1  0  0  0  0
 11  4  1  0  0  0  0
 13  9  1  0  0  0  0
 13 11  2  0  0  0  0
 14 13  1  0  0  0  0
 15 40  2  0  0  0  0
 15  5  1  0  0  0  0
 16 15  1  0  0  0  0
 17 23  1  0  0  0  0
 18 17  1  0  0  0  0
 19 17  1  0  0  0  0
 20  1  1  0  0  0  0
 20 37  1  0  0  0  0
 20 22  1  0  0  0  0
 21 20  1  0  0  0  0
 23 24  1  0  0  0  0
 23 31  1  0  0  0  0
 25 23  1  0  0  0  0
 26 28  1  0  0  0  0
 26 27  1  0  0  0  0
 26 17  1  0  0  0  0
 29 45  2  0  0  0  0
 30 29  1  0  0  0  0
 31 34  1  0  0  0  0
 31 33  1  0  0  0  0
 32 31  1  0  0  0  0
 35 45  1  0  0  0  0
 35 36  1  0  0  0  0
 37 39  1  0  0  0  0
 38 37  1  0  0  0  0
 40 47  1  0  0  0  0
 41 40  1  0  0  0  0
 42 37  1  0  0  0  0
 42 49  1  0  0  0  0
 42 44  1  0  0  0  0
 43 42  1  0  0  0  0
 45 46  1  0  0  0  0
 47  8  2  0  0  0  0
 47 48  1  0  0  0  0
 49 51  1  0  0  0  0
 50 49  1  0  0  0  0
 52 49  1  0  0  0  0
M  END
