1,2
q = 0.0, confidence = 0.998

 57 61  0  0  0  0  0  0  0  0999 V2000
    1.1535   -0.0136    0.4176 P   0  0  0  0  0  0  0  0  0  0  0  0
   -1.2901    1.3317   -0.5244 N   0  0  0  0  0  2  0  0  0  0  0  0
    2.8278   -0.4992    0.9651 C   0  0  0  0  0  0  0  0  0  0  0  0
    3.9162   -0.3221    0.0837 C   0  0  0  0  0  0  0  0  0  0  0  0
    5.2041   -0.6920    0.4904 C   0  0  0  0  0  0  0  0  0  0  0  0
    5.4203   -1.2201    1.7750 C   0  0  0  0  0  0  0  0  0  0  0  0
    4.3415   -1.3757    2.6579 C   0  0  0  0  0  0  0  0  0  0  0  0
    3.0454   -1.0145    2.2571 C   0  0  0  0  0  0  0  0  0  0  0  0
    0.0904   -0.1430    1.9141 C   0  0  0  0  0  0  0  0  0  0  0  0
   -0.4504   -1.3779    2.3262 C   0  0  0  0  0  0  0  0  0  0  0  0
   -1.3164   -1.4324    3.4274 C   0  0  0  0  0  0  0  0  0  0  0  0
   -1.6442   -0.2573    4.1233 C   0  0  0  0  0  0  0  0  0  0  0  0
   -1.0951    0.9719    3.7245 C   0  0  0  0  0  0  0  0  0  0  0  0
   -0.2299    1.0326    2.6220 C   0  0  0  0  0  0  0  0  0  0  0  0
    0.4131   -1.2799   -0.7125 C   0  0  0  0  0  0  0  0  0  0  0  0
    1.1220   -2.3681   -1.2887 C   0  0  0  0  0  0  0  0  0  0  0  0
    2.3596   -2.6275   -0.7986 O   0  0  0  0  0  0  0  0  0  0  0  0
    3.1637   -3.6145   -1.4121 C   0  0  0  0  0  0  0  0  0  0  0  0
    0.5170   -3.1244   -2.3098 C   0  0  0  0  0  0  0  0  0  0  0  0
   -0.7740   -2.8209   -2.7614 C   0  0  0  0  0  0  0  0  0  0  0  0
   -1.5010   -1.7702   -2.1762 C   0  0  0  0  0  0  0  0  0  0  0  0
   -2.7522   -1.3972   -2.5601 O   0  0  0  0  0  0  0  0  0  0  0  0
   -3.3898   -2.1193   -3.5959 C   0  0  0  0  0  0  0  0  0  0  0  0
   -0.9137   -1.0093   -1.1289 C   0  0  0  0  0  0  0  0  0  0  0  0
   -1.7342    0.0638   -0.4938 C   0  0  0  0  0  0  0  0  0  0  0  0
   -2.9580   -0.2725    0.1827 C   0  0  0  0  0  0  0  0  0  0  0  0
   -3.3848   -1.6187    0.3755 C   0  0  0  0  0  3  0  0  0  0  0  0
   -4.5421   -1.8975    1.0861 C   0  0  0  0  0  0  0  0  0  0  0  0
   -5.3280   -0.8455    1.6285 C   0  0  0  0  0  0  0  0  0  0  0  0
   -4.9336    0.4737    1.4667 C   0  0  0  0  0  0  0  0  0  0  0  0
   -3.7426    0.7892    0.7526 C   0  0  0  0  0  0  0  0  0  0  0  0
   -3.2768    2.1218    0.5828 C   0  0  0  0  0  0  0  0  0  0  0  0
   -2.0675    2.3524   -0.0372 C   0  0  0  0  0  0  0  0  0  0  0  0
    3.7497    0.1245   -0.9057 H   0  0  0  0  0  0  0  0  0  0  0  0
    6.0509   -0.5488   -0.1979 H   0  0  0  0  0  0  0  0  0  0  0  0
    6.4367   -1.4994    2.0925 H   0  0  0  0  0  0  0  0  0  0  0  0
    4.5054   -1.7782    3.6690 H   0  0  0  0  0  0  0  0  0  0  0  0
    2.2039   -1.1372    2.9541 H   0  0  0  0  0  0  0  0  0  0  0  0
   -0.2089   -2.2939    1.7651 H   0  0  0  0  0  0  0  0  0  0  0  0
   -1.7489   -2.3961    3.7360 H   0  0  0  0  0  0  0  0  0  0  0  0
   -2.3350   -0.3000    4.9790 H   0  0  0  0  0  0  0  0  0  0  0  0
   -1.3516    1.8943    4.2669 H   0  0  0  0  0  0  0  0  0  0  0  0
    0.1853    1.9964    2.2864 H   0  0  0  0  0  0  0  0  0  0  0  0
    4.1388   -3.5766   -0.8919 H   0  0  0  0  0  0  0  0  0  0  0  0
    2.7285   -4.6332   -1.2999 H   0  0  0  0  0  0  0  0  0  0  0  0
    3.3199   -3.4062   -2.4940 H   0  0  0  0  0  0  0  0  0  0  0  0
    1.0574   -3.9613   -2.7711 H   0  0  0  0  0  0  0  0  0  0  0  0
   -1.2046   -3.4117   -3.5800 H   0  0  0  0  0  0  0  0  0  0  0  0
   -4.3823   -1.6527   -3.7330 H   0  0  0  0  0  0  0  0  0  0  0  0
   -2.8246   -2.0546   -4.5522 H   0  0  0  0  0  0  0  0  0  0  0  0
   -3.5265   -3.1918   -3.3299 H   0  0  0  0  0  0  0  0  0  0  0  0
   -2.7700   -2.4371   -0.0232 H   0  0  0  0  0  0  0  0  0  0  0  0
   -4.8525   -2.9423    1.2373 H   0  0  0  0  0  0  0  0  0  0  0  0
   -6.2469   -1.0823    2.1859 H   0  0  0  0  0  0  0  0  0  0  0  0
   -5.5281    1.2962    1.8927 H   0  0  0  0  0  0  0  0  0  0  0  0
   -3.8650    2.9694    0.9637 H   0  0  0  0  0  0  0  0  0  0  0  0
   -1.6504    3.3569   -0.2064 H   0  0  0  0  0  0  0  0  0  0  0  0
  1  3  1  0  0  0  0
  1  9  1  0  0  0  0
  2 25  1  0  0  0  0
  2 33  1  0  0  0  0
  3  8  1  0  0  0  0
  4  5  1  0  0  0  0
  4  3  2  0  0  0  0
  5  6  2  0  0  0  0
  6 36  1  0  0  0  0
  6  7  1  0  0  0  0
  7 37  1  0  0  0  0
  8  7  2  0  0  0  0
  8 38  1  0  0  0  0
  9 10  2  0  0  0  0
  9 14  1  0  0  0  0
 10 11  1  0  0  0  0
 11 40  1  0  0  0  0
 11 12  2  0  0  0  0
 12 41  1  0  0  0  0
 13 12  1  0  0  0  0
 13 42  1  0  0  0  0
 14 13  2  0  0  0  0
 15  1  1  0  0  0  0
 16 17  1  0  0  0  0
 16 15  2  0  0  0  0
 18 45  1  0  0  0  0
 18 44  1  0  0  0  0
 18 17  1  0  0  0  0
 19 16  1  0  0  0  0
 20 19  2  0  0  0  0
 20 21  1  0  0  0  0
 21 24  2  0  0  0  0
 22 21  1  0  0  0  0
 23 51  1  0  0  0  0
 23 22  1  0  0  0  0
 24 15  1  0  0  0  0
 24 25  1  0  0  0  0
 25 26  2  0  0  0  0
 26 27  1  0  0  0  0
 26 31  1  0  0  0  0
 27 28  1  0  0  0  0
 28 53  1  0  0  0  0
 28 29  2  0  0  0  0
 29 54  1  0  0  0  0
 30 29  1  0  0  0  0
 30 55  1  0  0  0  0
 31 30  2  0  0  0  0
 32 31  1  0  0  0  0
 32 56  1  0  0  0  0
 33 32  2  0  0  0  0
 34  4  1  0  0  0  0
 35  5  1  0  0  0  0
 39 10  1  0  0  0  0
 43 14  1  0  0  0  0
 46 18  1  0  0  0  0
 47 19  1  0  0  0  0
 48 20  1  0  0  0  0
 49 23  1  0  0  0  0
 50 23  1  0  0  0  0
 52 27  1  0  0  0  0
 57 33  1  0  0  0  0
M  END
