1,2
q = 0.0, confidence = 1.0

 57 60  0  0  0  0  0  0  0  0999 V2000
   -1.7446    0.1529    0.0276 P   0  0  0  0  0  0  0  0  0  0  0  0
    0.7200   -0.6490    1.4661 N   0  0  0  0  0  2  0  0  0  0  0  0
    2.7328   -1.0626   -1.1815 Se  0  0  0  0  0  0  0  0  0  0  0  0
   -2.9149    0.7106   -1.2411 C   0  0  0  0  0  0  0  0  0  0  0  0
   -4.2455    0.2452   -1.2453 C   0  0  0  0  0  0  0  0  0  0  0  0
   -4.5871   -0.4698   -0.4826 H   0  0  0  0  0  0  0  0  0  0  0  0
   -5.1341    0.6998   -2.2311 C   0  0  0  0  0  0  0  0  0  0  0  0
   -6.1723    0.3362   -2.2366 H   0  0  0  0  0  0  0  0  0  0  0  0
   -4.6999    1.6117   -3.2054 C   0  0  0  0  0  0  0  0  0  0  0  0
   -5.3996    1.9633   -3.9783 H   0  0  0  0  0  0  0  0  0  0  0  0
   -3.3717    2.0711   -3.2021 C   0  0  0  0  0  0  0  0  0  0  0  0
   -3.0289    2.7767   -3.9731 H   0  0  0  0  0  0  0  0  0  0  0  0
   -2.4724    1.6182   -2.2292 C   0  0  0  0  0  0  0  0  0  0  0  0
   -1.4267    1.9577   -2.2422 H   0  0  0  0  0  0  0  0  0  0  0  0
   -2.6108   -1.0343    1.1089 C   0  0  0  0  0  0  0  0  0  0  0  0
   -2.5185   -2.4079    0.7985 C   0  0  0  0  0  0  0  0  0  0  0  0
   -1.9149   -2.7328   -0.0643 H   0  0  0  0  0  0  0  0  0  0  0  0
   -3.1977   -3.3458    1.5892 C   0  0  0  0  0  0  0  0  0  0  0  0
   -3.1317   -4.4166    1.3453 H   0  0  0  0  0  0  0  0  0  0  0  0
   -3.9597   -2.9184    2.6895 C   0  0  0  0  0  0  0  0  0  0  0  0
   -4.4892   -3.6567    3.3102 H   0  0  0  0  0  0  0  0  0  0  0  0
   -4.0479   -1.5514    3.0002 C   0  0  0  0  0  0  0  0  0  0  0  0
   -4.6459   -1.2187    3.8617 H   0  0  0  0  0  0  0  0  0  0  0  0
   -3.3767   -0.6048    2.2117 C   0  0  0  0  0  0  0  0  0  0  0  0
   -3.4489    0.4665    2.4541 H   0  0  0  0  0  0  0  0  0  0  0  0
   -1.3701    1.6057    1.0896 C   0  0  0  0  0  0  0  0  0  0  0  0
   -2.0807    2.8091    0.9602 C   0  0  0  0  0  0  0  0  0  0  0  0
   -2.8613    2.8969    0.1901 H   0  0  0  0  0  0  0  0  0  0  0  0
   -1.8057    3.8972    1.8077 C   0  0  0  0  0  0  0  0  0  0  0  0
   -2.3653    4.8364    1.6850 H   0  0  0  0  0  0  0  0  0  0  0  0
   -0.8385    3.7787    2.8163 C   0  0  0  0  0  0  0  0  0  0  0  0
   -0.6325    4.6229    3.4902 H   0  0  0  0  0  0  0  0  0  0  0  0
   -0.1425    2.5730    2.9727 C   0  0  0  0  0  0  0  0  0  0  0  0
    0.6057    2.4706    3.7739 H   0  0  0  0  0  0  0  0  0  0  0  0
   -0.3697    1.4851    2.0998 C   0  0  0  0  0  0  0  0  0  0  0  0
    0.3955    0.2625    2.3395 C   0  0  0  0  0  3  0  0  0  0  0  0
    0.7265    0.0998    3.3840 H   0  0  0  0  0  0  0  0  0  0  0  0
    1.3849   -1.8641    1.9733 C   0  0  0  0  0  0  0  0  0  0  0  0
    0.8298   -2.7330    1.5612 H   0  0  0  0  0  0  0  0  0  0  0  0
    1.2642   -1.8917    3.0758 H   0  0  0  0  0  0  0  0  0  0  0  0
    2.8777   -1.9718    1.6397 C   0  0  0  0  0  0  0  0  0  0  0  0
    3.3895   -1.0243    1.9116 H   0  0  0  0  0  0  0  0  0  0  0  0
    3.2958   -2.7496    2.3147 H   0  0  0  0  0  0  0  0  0  0  0  0
    3.2322   -2.3764    0.2168 C   0  0  0  0  0  0  0  0  0  0  0  0
    2.7140   -3.3049   -0.0998 H   0  0  0  0  0  0  0  0  0  0  0  0
    4.3212   -2.5431    0.1039 H   0  0  0  0  0  0  0  0  0  0  0  0
    3.6448    0.4750   -0.4135 C   0  0  0  0  0  0  0  0  0  0  0  0
    5.0428    0.4240   -0.2684 C   0  0  0  0  0  0  0  0  0  0  0  0
    5.6115   -0.4680   -0.5732 H   0  0  0  0  0  0  0  0  0  0  0  0
    5.7185    1.5332    0.2635 C   0  0  0  0  0  0  0  0  0  0  0  0
    6.8116    1.4962    0.3824 H   0  0  0  0  0  0  0  0  0  0  0  0
    5.0066    2.6881    0.6272 C   0  0  0  0  0  0  0  0  0  0  0  0
    5.5430    3.5569    1.0366 H   0  0  0  0  0  0  0  0  0  0  0  0
    3.6144    2.7373    0.4565 C   0  0  0  0  0  0  0  0  0  0  0  0
    3.0537    3.6444    0.7282 H   0  0  0  0  0  0  0  0  0  0  0  0
    2.9254    1.6304   -0.0638 C   0  0  0  0  0  0  0  0  0  0  0  0
    1.8331    1.6596   -0.2035 H   0  0  0  0  0  0  0  0  0  0  0  0
  1 26  1  0  0  0  0
  1 15  1  0  0  0  0
  2 38  1  0  0  0  0
  2 36  1  0  0  0  0
  3 47  1  0  0  0  0
  3 44  1  0  0  0  0
  4  1  1  0  0  0  0
  5  4  1  0  0  0  0
  5  6  1  0  0  0  0
  7  5  2  0  0  0  0
  8  7  1  0  0  0  0
  9 11  2  0  0  0  0
  9  7  1  0  0  0  0
 10  9  1  0  0  0  0
 11 13  1  0  0  0  0
 12 11  1  0  0  0  0
 13  4  2  0  0  0  0
 14 13  1  0  0  0  0
 15 24  1  0  0  0  0
 16 15  2  0  0  0  0
 16 18  1  0  0  0  0
 17 16  1  0  0  0  0
 18 20  2  0  0  0  0
 19 18  1  0  0  0  0
 20 22  1  0  0  0  0
 20 21  1  0  0  0  0
 22 23  1  0  0  0  0
 24 25  1  0  0  0  0
 24 22  2  0  0  0  0
 26 35  1  0  0  0  0
 27 26  2  0  0  0  0
 27 29  1  0  0  0  0
 28 27  1  0  0  0  0
 29 31  2  0  0  0  0
 30 29  1  0  0  0  0
 31 33  1  0  0  0  0
 31 32  1  0  0  0  0
 33 34  1  0  0  0  0
 35 36  1  0  0  0  0
 35 33  2  0  0  0  0
 36 37  1  0  0  0  0
 38 40  1  0  0  0  0
 39 38  1  0  0  0  0
 41 42  1  0  0  0  0
 41 38  1  0  0  0  0
 41 43  1  0  0  0  0
 44 41  1  0  0  0  0
 45 44  1  0  0  0  0
 46 44  1  0  0  0  0
 47 48  2  0  0  0  0
 47 56  1  0  0  0  0
 48 50  1  0  0  0  0
 49 48  1  0  0  0  0
 50 51  1  0  0  0  0
 50 52  2  0  0  0  0
 52 53  1  0  0  0  0
 54 52  1  0  0  0  0
 54 55  1  0  0  0  0
 56 54  2  0  0  0  0
 57 56  1  0  0  0  0
M  END
