1,2
q = 0.0, confidence = 1.0

 53 56  0  0  1  0  0  0  0  0999 V2000
   -1.2513    0.3230    0.0126 P   0  0  0  0  0  0  0  0  0  0  0  0
    1.4594   -0.7786    0.7981 N   0  0  0  0  0  2  0  0  0  0  0  0
   -0.9959    0.9143    1.7397 C   0  0  0  0  0  0  0  0  0  0  0  0
    0.2756    0.7498    2.3613 C   0  0  0  0  0  0  0  0  0  0  0  0
    0.4724    1.2914    3.6531 C   0  0  0  0  0  0  0  0  0  0  0  0
    1.4638    1.1894    4.1219 H   0  0  0  0  0  0  0  0  0  0  0  0
   -0.5635    1.9297    4.3446 C   0  0  0  0  0  0  0  0  0  0  0  0
   -0.3885    2.3237    5.3567 H   0  0  0  0  0  0  0  0  0  0  0  0
   -1.8188    2.0682    3.7353 C   0  0  0  0  0  0  0  0  0  0  0  0
   -2.6416    2.5727    4.2638 H   0  0  0  0  0  0  0  0  0  0  0  0
   -2.0235    1.5748    2.4364 C   0  0  0  0  0  0  0  0  0  0  0  0
   -3.0017    1.7079    1.9517 H   0  0  0  0  0  0  0  0  0  0  0  0
    1.4412    0.1004    1.7500 C   0  0  0  0  0  3  0  0  0  0  0  0
    2.4112    0.4248    2.1815 H   0  0  0  0  0  0  0  0  0  0  0  0
    2.8268   -1.2279    0.3649 C   0  0  2  0  0  0  0  0  0  0  0  0
    2.6408   -1.8463   -0.5357 H   0  0  0  0  0  0  0  0  0  0  0  0
    3.4275   -2.1603    1.4148 C   0  0  0  0  0  0  0  0  0  0  0  0
    4.4027   -2.5492    1.0619 H   0  0  0  0  0  0  0  0  0  0  0  0
    2.7448   -3.0202    1.5521 H   0  0  0  0  0  0  0  0  0  0  0  0
    3.5831   -1.6566    2.3911 H   0  0  0  0  0  0  0  0  0  0  0  0
    3.6642   -0.0211   -0.0334 C   0  0  0  0  0  0  0  0  0  0  0  0
    3.1910    0.8049   -1.0773 C   0  0  0  0  0  0  0  0  0  0  0  0
    2.2441    0.5482   -1.5772 H   0  0  0  0  0  0  0  0  0  0  0  0
    3.8993    1.9472   -1.4668 C   0  0  0  0  0  0  0  0  0  0  0  0
    3.5052    2.5792   -2.2772 H   0  0  0  0  0  0  0  0  0  0  0  0
    5.1051    2.2821   -0.8255 C   0  0  0  0  0  0  0  0  0  0  0  0
    5.6660    3.1783   -1.1316 H   0  0  0  0  0  0  0  0  0  0  0  0
    5.5903    1.4643    0.2044 C   0  0  0  0  0  0  0  0  0  0  0  0
    6.5362    1.7149    0.7088 H   0  0  0  0  0  0  0  0  0  0  0  0
    4.8731    0.3211    0.5998 C   0  0  0  0  0  0  0  0  0  0  0  0
    5.2684   -0.3103    1.4090 H   0  0  0  0  0  0  0  0  0  0  0  0
   -0.5524    1.6807   -1.0191 C   0  0  0  0  0  0  0  0  0  0  0  0
   -0.2472    2.9548   -0.5034 C   0  0  0  0  0  0  0  0  0  0  0  0
   -0.4479    3.1836    0.5540 H   0  0  0  0  0  0  0  0  0  0  0  0
    0.3260    3.9300   -1.3353 C   0  0  0  0  0  0  0  0  0  0  0  0
    0.5743    4.9201   -0.9239 H   0  0  0  0  0  0  0  0  0  0  0  0
    0.5864    3.6427   -2.6841 C   0  0  0  0  0  0  0  0  0  0  0  0
    1.0375    4.4088   -3.3331 H   0  0  0  0  0  0  0  0  0  0  0  0
    0.2785    2.3733   -3.2035 C   0  0  0  0  0  0  0  0  0  0  0  0
    0.4887    2.1412   -4.2585 H   0  0  0  0  0  0  0  0  0  0  0  0
   -0.2799    1.3911   -2.3737 C   0  0  0  0  0  0  0  0  0  0  0  0
   -0.4872    0.3808   -2.7609 H   0  0  0  0  0  0  0  0  0  0  0  0
   -3.0670    0.4435   -0.2218 C   0  0  0  0  0  0  0  0  0  0  0  0
   -3.6652    1.4714   -0.9752 C   0  0  0  0  0  0  0  0  0  0  0  0
   -3.0376    2.2388   -1.4524 H   0  0  0  0  0  0  0  0  0  0  0  0
   -5.0617    1.5135   -1.1179 C   0  0  0  0  0  0  0  0  0  0  0  0
   -5.5247    2.3164   -1.7114 H   0  0  0  0  0  0  0  0  0  0  0  0
   -5.8630    0.5367   -0.5077 C   0  0  0  0  0  0  0  0  0  0  0  0
   -6.9570    0.5711   -0.6229 H   0  0  0  0  0  0  0  0  0  0  0  0
   -5.2675   -0.4907    0.2442 C   0  0  0  0  0  0  0  0  0  0  0  0
   -5.8926   -1.2631    0.7171 H   0  0  0  0  0  0  0  0  0  0  0  0
   -3.8745   -0.5437    0.3822 C   0  0  0  0  0  0  0  0  0  0  0  0
   -3.4005   -1.3560    0.9546 H   0  0  0  0  0  0  0  0  0  0  0  0
  1  3  1  0  0  0  0
  2 13  1  0  0  0  0
  3  4  2  0  0  0  0
  3 11  1  0  0  0  0
  4  5  1  0  0  0  0
  5  6  1  0  0  0  0
  5  7  2  0  0  0  0
  7  8  1  0  0  0  0
  9 10  1  0  0  0  0
  9  7  1  0  0  0  0
 11  9  2  0  0  0  0
 12 11  1  0  0  0  0
 13 14  1  0  0  0  0
 13  4  1  0  0  0  0
 15 16  1  6  0  0  0
 15  2  1  0  0  0  0
 15 17  1  0  0  0  0
 17 19  1  0  0  0  0
 17 20  1  0  0  0  0
 18 17  1  0  0  0  0
 21 15  1  0  0  0  0
 21 30  1  0  0  0  0
 22 21  2  0  0  0  0
 23 22  1  0  0  0  0
 24 22  1  0  0  0  0
 24 26  2  0  0  0  0
 25 24  1  0  0  0  0
 26 28  1  0  0  0  0
 27 26  1  0  0  0  0
 28 30  2  0  0  0  0
 28 29  1  0  0  0  0
 30 31  1  0  0  0  0
 32 33  1  0  0  0  0
 32  1  1  0  0  0  0
 33 34  1  0  0  0  0
 35 36  1  0  0  0  0
 35 33  2  0  0  0  0
 37 35  1  0  0  0  0
 38 37  1  0  0  0  0
 39 37  2  0  0  0  0
 39 41  1  0  0  0  0
 40 39  1  0  0  0  0
 41 32  2  0  0  0  0
 42 41  1  0  0  0  0
 43  1  1  0  0  0  0
 43 52  1  0  0  0  0
 44 43  2  0  0  0  0
 45 44  1  0  0  0  0
 46 44  1  0  0  0  0
 46 48  2  0  0  0  0
 47 46  1  0  0  0  0
 48 50  1  0  0  0  0
 49 48  1  0  0  0  0
 50 52  2  0  0  0  0
 50 51  1  0  0  0  0
 52 53  1  0  0  0  0
M  END
