1,2
q = 0.0, confidence = 0.998

 64 67  0  0  1  0  0  0  0  0999 V2000
    0.7410   -0.6153    0.0833 P   0  0  0  0  0  0  0  0  0  0  0  0
   -1.6197    0.9620    0.0632 N   0  0  0  0  0  2  0  0  0  0  0  0
    0.7129    1.1558    0.1656 N   0  0  0  0  0  0  0  0  0  0  0  0
   -0.5494    1.7302    0.0986 C   0  0  2  0  0  3  0  0  0  0  0  0
   -2.9611    1.5599    0.1882 C   0  0  0  0  0  0  0  0  0  0  0  0
   -2.8505    2.6283    0.4723 H   0  0  0  0  0  0  0  0  0  0  0  0
   -3.7415    0.9030    1.3407 C   0  0  0  0  0  0  0  0  0  0  0  0
   -3.1735    1.0403    2.2856 H   0  0  0  0  0  0  0  0  0  0  0  0
   -3.8077   -0.1864    1.1426 H   0  0  0  0  0  0  0  0  0  0  0  0
   -5.1523    1.4940    1.4504 C   0  0  0  0  0  0  0  0  0  0  0  0
   -5.7089    0.9746    2.2580 H   0  0  0  0  0  0  0  0  0  0  0  0
   -5.0966    2.5670    1.7492 H   0  0  0  0  0  0  0  0  0  0  0  0
   -5.9029    1.3799    0.1172 C   0  0  0  0  0  0  0  0  0  0  0  0
   -6.0115    0.3048   -0.1433 H   0  0  0  0  0  0  0  0  0  0  0  0
   -6.9263    1.8003    0.2099 H   0  0  0  0  0  0  0  0  0  0  0  0
   -5.1322    2.0880   -1.0046 C   0  0  0  0  0  0  0  0  0  0  0  0
   -5.0807    3.1792   -0.7799 H   0  0  0  0  0  0  0  0  0  0  0  0
   -5.6722    1.9945   -1.9698 H   0  0  0  0  0  0  0  0  0  0  0  0
   -3.7170    1.5154   -1.1497 C   0  0  0  0  0  0  0  0  0  0  0  0
   -3.7680    0.4556   -1.4754 H   0  0  0  0  0  0  0  0  0  0  0  0
   -3.1365    2.0749   -1.9156 H   0  0  0  0  0  0  0  0  0  0  0  0
    2.0184    1.8570    0.1180 C   0  0  0  0  0  0  0  0  0  0  0  0
    2.7479    1.0381    0.2932 H   0  0  0  0  0  0  0  0  0  0  0  0
    2.3761    2.4305   -1.2669 C   0  0  0  0  0  0  0  0  0  0  0  0
    1.7180    3.2911   -1.5144 H   0  0  0  0  0  0  0  0  0  0  0  0
    2.1912    1.6571   -2.0390 H   0  0  0  0  0  0  0  0  0  0  0  0
    3.8418    2.8846   -1.2924 C   0  0  0  0  0  0  0  0  0  0  0  0
    4.4946    1.9886   -1.1914 H   0  0  0  0  0  0  0  0  0  0  0  0
    4.0819    3.3319   -2.2789 H   0  0  0  0  0  0  0  0  0  0  0  0
    4.1512    3.8708   -0.1589 C   0  0  0  0  0  0  0  0  0  0  0  0
    3.5777    4.8109   -0.3242 H   0  0  0  0  0  0  0  0  0  0  0  0
    5.2238    4.1549   -0.1753 H   0  0  0  0  0  0  0  0  0  0  0  0
    3.7753    3.2876    1.2097 C   0  0  0  0  0  0  0  0  0  0  0  0
    3.9776    4.0216    2.0168 H   0  0  0  0  0  0  0  0  0  0  0  0
    4.4193    2.4049    1.4232 H   0  0  0  0  0  0  0  0  0  0  0  0
    2.3013    2.8572    1.2558 C   0  0  0  0  0  0  0  0  0  0  0  0
    1.6627    3.7591    1.1699 H   0  0  0  0  0  0  0  0  0  0  0  0
    2.0645    2.3871    2.2310 H   0  0  0  0  0  0  0  0  0  0  0  0
   -0.6524    3.2379    0.0790 C   0  0  0  0  0  0  0  0  0  0  0  0
   -1.4634    3.5561   -0.5997 H   0  0  0  0  0  0  0  0  0  0  0  0
    0.2801    3.7036   -0.2705 H   0  0  0  0  0  0  0  0  0  0  0  0
   -0.8765    3.6369    1.0893 H   0  0  0  0  0  0  0  0  0  0  0  0
    1.8589   -0.9779   -1.3192 C   0  0  0  0  0  0  0  0  0  0  0  0
    1.2688   -1.1261   -2.5921 C   0  0  0  0  0  0  0  0  0  0  0  0
    0.1711   -1.1213   -2.6801 H   0  0  0  0  0  0  0  0  0  0  0  0
    2.0792   -1.2982   -3.7219 C   0  0  0  0  0  0  0  0  0  0  0  0
    1.6140   -1.4173   -4.7118 H   0  0  0  0  0  0  0  0  0  0  0  0
    3.4777   -1.3346   -3.5894 C   0  0  0  0  0  0  0  0  0  0  0  0
    4.1113   -1.4746   -4.4784 H   0  0  0  0  0  0  0  0  0  0  0  0
    4.0667   -1.2092   -2.3215 C   0  0  0  0  0  0  0  0  0  0  0  0
    5.1610   -1.2535   -2.2126 H   0  0  0  0  0  0  0  0  0  0  0  0
    3.2615   -1.0336   -1.1857 C   0  0  0  0  0  0  0  0  0  0  0  0
    3.7290   -0.9489   -0.1930 H   0  0  0  0  0  0  0  0  0  0  0  0
    1.6060   -1.1339    1.6000 C   0  0  0  0  0  0  0  0  0  0  0  0
    1.4852   -0.3681    2.7773 C   0  0  0  0  0  0  0  0  0  0  0  0
    0.9309    0.5817    2.7545 H   0  0  0  0  0  0  0  0  0  0  0  0
    2.0523   -0.8263    3.9744 C   0  0  0  0  0  0  0  0  0  0  0  0
    1.9590   -0.2222    4.8894 H   0  0  0  0  0  0  0  0  0  0  0  0
    2.7243   -2.0590    4.0071 C   0  0  0  0  0  0  0  0  0  0  0  0
    3.1658   -2.4203    4.9482 H   0  0  0  0  0  0  0  0  0  0  0  0
    2.8163   -2.8391    2.8431 C   0  0  0  0  0  0  0  0  0  0  0  0
    3.3211   -3.8164    2.8718 H   0  0  0  0  0  0  0  0  0  0  0  0
    2.2552   -2.3869    1.6404 C   0  0  0  0  0  0  0  0  0  0  0  0
    2.2918   -3.0129    0.7374 H   0  0  0  0  0  0  0  0  0  0  0  0
  1  3  1  0  0  0  0
  1 54  1  0  0  0  0
  2  5  1  0  0  0  0
  4  2  1  1  0  0  0
  4  3  1  0  0  0  0
  5  6  1  0  0  0  0
  5  7  1  0  0  0  0
  7 10  1  0  0  0  0
  7  8  1  0  0  0  0
  9  7  1  0  0  0  0
 10 12  1  0  0  0  0
 10 11  1  0  0  0  0
 13 15  1  0  0  0  0
 13 10  1  0  0  0  0
 14 13  1  0  0  0  0
 16 17  1  0  0  0  0
 16 13  1  0  0  0  0
 18 16  1  0  0  0  0
 19 16  1  0  0  0  0
 19  5  1  0  0  0  0
 20 19  1  0  0  0  0
 21 19  1  0  0  0  0
 22  3  1  0  0  0  0
 22 23  1  0  0  0  0
 22 36  1  0  0  0  0
 24 22  1  0  0  0  0
 25 24  1  0  0  0  0
 26 24  1  0  0  0  0
 27 24  1  0  0  0  0
 27 28  1  0  0  0  0
 27 30  1  0  0  0  0
 29 27  1  0  0  0  0
 30 33  1  0  0  0  0
 31 30  1  0  0  0  0
 32 30  1  0  0  0  0
 33 36  1  0  0  0  0
 33 35  1  0  0  0  0
 33 34  1  0  0  0  0
 36 38  1  0  0  0  0
 37 36  1  0  0  0  0
 39  4  1  0  0  0  0
 39 42  1  0  0  0  0
 40 39  1  0  0  0  0
 41 39  1  0  0  0  0
 43 52  1  0  0  0  0
 43  1  1  0  0  0  0
 44 43  2  0  0  0  0
 45 44  1  0  0  0  0
 46 48  2  0  0  0  0
 46 44  1  0  0  0  0
 47 46  1  0  0  0  0
 48 50  1  0  0  0  0
 49 48  1  0  0  0  0
 50 51  1  0  0  0  0
 50 52  2  0  0  0  0
 52 53  1  0  0  0  0
 54 63  2  0  0  0  0
 54 55  1  0  0  0  0
 55 57  2  0  0  0  0
 56 55  1  0  0  0  0
 57 59  1  0  0  0  0
 57 58  1  0  0  0  0
 59 60  1  0  0  0  0
 61 62  1  0  0  0  0
 61 59  2  0  0  0  0
 63 61  1  0  0  0  0
 64 63  1  0  0  0  0
M  END
