1,2
q = -1.0, confidence = 0.0

 37 39  0  0  1  0  0  0  0  0999 V2000
    1.8201   -0.6549    0.0270 P   0  0  0  0  0  0  0  0  0  0  0  0
    1.5469    2.2076    0.0519 N   0  0  0  0  0  1  0  0  0  0  0  0
    3.1378    0.4430    0.1243 N   0  0  0  0  0  0  0  0  0  0  0  0
    5.9762    4.7137    0.0975 N   0  0  0  0  0  0  0  0  0  0  0  0
    2.7748    1.8065    0.0869 C   0  0  1  0  0  3  0  0  0  0  0  0
    3.9019    2.7876    0.0893 C   0  0  0  0  0  0  0  0  0  0  0  0
    3.6691    4.1090    0.5190 C   0  0  0  0  0  0  0  0  0  0  0  0
    4.7327    5.0208    0.5058 C   0  0  0  0  0  0  0  0  0  0  0  0
    6.1928    3.4599   -0.3233 C   0  0  0  0  0  0  0  0  0  0  0  0
    5.2025    2.4635   -0.3464 C   0  0  0  0  0  0  0  0  0  0  0  0
    2.0192   -1.7035   -1.4485 C   0  0  0  0  0  0  0  0  0  0  0  0
    1.3058   -1.3556   -2.6153 C   0  0  0  0  0  0  0  0  0  0  0  0
    1.4629   -2.1133   -3.7834 C   0  0  0  0  0  0  0  0  0  0  0  0
    2.3314   -3.2166   -3.7928 C   0  0  0  0  0  0  0  0  0  0  0  0
    3.0490   -3.5617   -2.6349 C   0  0  0  0  0  0  0  0  0  0  0  0
    2.8965   -2.8100   -1.4614 C   0  0  0  0  0  0  0  0  0  0  0  0
    1.9471   -1.7511    1.4760 C   0  0  0  0  0  0  0  0  0  0  0  0
    1.3733   -3.0406    1.4523 C   0  0  0  0  0  0  0  0  0  0  0  0
    1.3483   -3.8158    2.6199 C   0  0  0  0  0  0  0  0  0  0  0  0
    1.8863   -3.3091    3.8140 C   0  0  0  0  0  0  0  0  0  0  0  0
    2.4525   -2.0235    3.8415 C   0  0  0  0  0  0  0  0  0  0  0  0
    2.4810   -1.2410    2.6782 C   0  0  0  0  0  0  0  0  0  0  0  0
    4.1174    0.1516    0.1893 H   0  0  0  0  0  0  0  0  0  0  0  0
    5.4542    1.4645   -0.7354 H   0  0  0  0  0  0  0  0  0  0  0  0
    7.2157    3.2250   -0.6679 H   0  0  0  0  0  0  0  0  0  0  0  0
    4.5727    6.0589    0.8475 H   0  0  0  0  0  0  0  0  0  0  0  0
    2.6637    4.3968    0.8570 H   0  0  0  0  0  0  0  0  0  0  0  0
    3.4557   -3.0889   -0.5551 H   0  0  0  0  0  0  0  0  0  0  0  0
    3.7334   -4.4231   -2.6460 H   0  0  0  0  0  0  0  0  0  0  0  0
    2.4530   -3.8127   -4.7098 H   0  0  0  0  0  0  0  0  0  0  0  0
    0.8994   -1.8429   -4.6884 H   0  0  0  0  0  0  0  0  0  0  0  0
    0.6237   -0.4911   -2.5981 H   0  0  0  0  0  0  0  0  0  0  0  0
    0.9523   -3.4416    0.5180 H   0  0  0  0  0  0  0  0  0  0  0  0
    0.9057   -4.8227    2.5971 H   0  0  0  0  0  0  0  0  0  0  0  0
    1.8683   -3.9212    4.7281 H   0  0  0  0  0  0  0  0  0  0  0  0
    2.8790   -1.6273    4.7751 H   0  0  0  0  0  0  0  0  0  0  0  0
    2.9182   -0.2309    2.6962 H   0  0  0  0  0  0  0  0  0  0  0  0
  1  3  1  0  0  0  0
  1 17  1  0  0  0  0
  3 23  1  0  0  0  0
  4  8  1  0  0  0  0
  5  2  1  6  0  0  0
  5  6  1  0  0  0  0
  5  3  1  0  0  0  0
  6  7  1  0  0  0  0
  7 27  1  0  0  0  0
  8  7  2  0  0  0  0
  8 26  1  0  0  0  0
  9  4  2  0  0  0  0
 10  9  1  0  0  0  0
 10  6  2  0  0  0  0
 11  1  1  0  0  0  0
 12 32  1  0  0  0  0
 12 11  2  0  0  0  0
 13 12  1  0  0  0  0
 14 13  2  0  0  0  0
 14 15  1  0  0  0  0
 15 16  2  0  0  0  0
 16 11  1  0  0  0  0
 16 28  1  0  0  0  0
 17 22  1  0  0  0  0
 18 17  2  0  0  0  0
 18 19  1  0  0  0  0
 19 20  2  0  0  0  0
 20 21  1  0  0  0  0
 20 35  1  0  0  0  0
 21 36  1  0  0  0  0
 22 37  1  0  0  0  0
 22 21  2  0  0  0  0
 24 10  1  0  0  0  0
 25  9  1  0  0  0  0
 29 15  1  0  0  0  0
 30 14  1  0  0  0  0
 31 13  1  0  0  0  0
 33 18  1  0  0  0  0
 34 19  1  0  0  0  0
M  END
