1,6
q = 0.0, confidence = 0.98

 63 66  0  0  1  0  0  0  0  0999 V2000
    1.1795    0.1513   -0.4235 P   0  0  0  0  0  0  0  0  0  0  0  0
    0.0516   -0.9763   -0.9404 O   0  0  0  0  0  0  0  0  0  0  0  0
    1.4842   -0.5559    1.0651 O   0  0  0  0  0  0  0  0  0  0  0  0
    2.6002   -0.2642   -1.1426 O   0  0  0  0  0  0  0  0  0  0  0  0
   -3.2047    0.7075    0.8505 O   0  0  0  0  0  0  0  0  0  0  0  0
   -1.4680    1.4566   -0.3556 N   0  0  0  0  0  2  0  0  0  0  0  0
   -2.2557    1.6476    0.6664 C   0  0  1  0  0  3  0  0  0  0  0  0
   -2.8435   -0.4106   -0.0304 C   0  0  2  0  0  0  0  0  0  0  0  0
   -2.1790   -1.0727    0.5675 H   0  0  0  0  0  0  0  0  0  0  0  0
   -2.0198    0.3143   -1.1110 C   0  0  2  0  0  0  0  0  0  0  0  0
   -2.7040    0.7203   -1.8934 H   0  0  0  0  0  0  0  0  0  0  0  0
   -2.2343    2.7792    1.6220 C   0  0  0  0  0  0  0  0  0  0  0  0
   -1.9087    2.4184    2.6175 H   0  0  0  0  0  0  0  0  0  0  0  0
   -1.5659    3.5741    1.2415 H   0  0  0  0  0  0  0  0  0  0  0  0
   -3.2656    3.1686    1.7344 H   0  0  0  0  0  0  0  0  0  0  0  0
   -4.0446   -1.1647   -0.5153 C   0  0  0  0  0  0  0  0  0  0  0  0
   -5.2244   -0.4972   -0.8986 C   0  0  0  0  0  0  0  0  0  0  0  0
   -5.2944    0.5938   -0.7739 H   0  0  0  0  0  0  0  0  0  0  0  0
   -6.3079   -1.2222   -1.4134 C   0  0  0  0  0  0  0  0  0  0  0  0
   -7.2298   -0.6950   -1.7019 H   0  0  0  0  0  0  0  0  0  0  0  0
   -6.2202   -2.6168   -1.5601 C   0  0  0  0  0  0  0  0  0  0  0  0
   -7.0719   -3.1830   -1.9663 H   0  0  0  0  0  0  0  0  0  0  0  0
   -5.0475   -3.2868   -1.1792 C   0  0  0  0  0  0  0  0  0  0  0  0
   -4.9768   -4.3800   -1.2828 H   0  0  0  0  0  0  0  0  0  0  0  0
   -3.9669   -2.5641   -0.6515 C   0  0  0  0  0  0  0  0  0  0  0  0
   -3.0517   -3.0886   -0.3328 H   0  0  0  0  0  0  0  0  0  0  0  0
   -0.9618   -0.5063   -1.8323 C   0  0  0  0  0  0  0  0  0  0  0  0
   -0.5190    0.1109   -2.6439 H   0  0  0  0  0  0  0  0  0  0  0  0
   -1.4297   -1.4027   -2.2877 H   0  0  0  0  0  0  0  0  0  0  0  0
    0.4651   -0.7634    1.9930 C   0  0  0  0  0  0  0  0  0  0  0  0
    0.1331    0.2866    2.8809 C   0  0  0  0  0  0  0  0  0  0  0  0
   -0.9073    0.0526    3.8012 C   0  0  0  0  0  0  0  0  0  0  0  0
   -1.1834    0.8536    4.5053 H   0  0  0  0  0  0  0  0  0  0  0  0
   -1.5719   -1.1811    3.8470 C   0  0  0  0  0  0  0  0  0  0  0  0
   -2.3862   -1.3412    4.5692 H   0  0  0  0  0  0  0  0  0  0  0  0
   -1.1720   -2.2217    2.9984 C   0  0  0  0  0  0  0  0  0  0  0  0
   -1.6604   -3.2066    3.0660 H   0  0  0  0  0  0  0  0  0  0  0  0
   -0.1337   -2.0421    2.0613 C   0  0  0  0  0  0  0  0  0  0  0  0
    0.8915    1.5851    2.8504 C   0  0  0  0  0  0  0  0  0  0  0  0
    1.9806    1.4111    2.9729 H   0  0  0  0  0  0  0  0  0  0  0  0
    0.7756    2.1106    1.8711 H   0  0  0  0  0  0  0  0  0  0  0  0
    0.5547    2.2653    3.6552 H   0  0  0  0  0  0  0  0  0  0  0  0
    0.3278   -3.1740    1.1809 C   0  0  0  0  0  0  0  0  0  0  0  0
    1.4125   -3.1048    0.9695 H   0  0  0  0  0  0  0  0  0  0  0  0
   -0.1822   -3.1504    0.1957 H   0  0  0  0  0  0  0  0  0  0  0  0
    0.1156   -4.1506    1.6567 H   0  0  0  0  0  0  0  0  0  0  0  0
    3.4175   -1.3549   -0.8116 C   0  0  0  0  0  0  0  0  0  0  0  0
    3.2446   -2.5721   -1.5023 C   0  0  0  0  0  0  0  0  0  0  0  0
    4.1186   -3.6282   -1.1754 C   0  0  0  0  0  0  0  0  0  0  0  0
    4.0071   -4.5893   -1.7014 H   0  0  0  0  0  0  0  0  0  0  0  0
    5.1222   -3.4664   -0.2113 C   0  0  0  0  0  0  0  0  0  0  0  0
    5.7942   -4.3038    0.0291 H   0  0  0  0  0  0  0  0  0  0  0  0
    5.2843   -2.2308    0.4308 C   0  0  0  0  0  0  0  0  0  0  0  0
    6.0867   -2.0937    1.1723 H   0  0  0  0  0  0  0  0  0  0  0  0
    4.4391   -1.1437    0.1393 C   0  0  0  0  0  0  0  0  0  0  0  0
    2.1814   -2.7318   -2.5568 C   0  0  0  0  0  0  0  0  0  0  0  0
    2.3841   -3.6179   -3.1878 H   0  0  0  0  0  0  0  0  0  0  0  0
    1.1780   -2.8518   -2.1004 H   0  0  0  0  0  0  0  0  0  0  0  0
    2.1271   -1.8370   -3.2087 H   0  0  0  0  0  0  0  0  0  0  0  0
    4.6112    0.1975    0.7991 C   0  0  0  0  0  0  0  0  0  0  0  0
    5.5362    0.2248    1.4049 H   0  0  0  0  0  0  0  0  0  0  0  0
    3.7536    0.4234    1.4657 H   0  0  0  0  0  0  0  0  0  0  0  0
    4.6558    1.0145    0.0509 H   0  0  0  0  0  0  0  0  0  0  0  0
  1  3  1  0  0  0  0
  2  1  1  0  0  0  0
  3 30  1  0  0  0  0
  4 47  1  0  0  0  0
  4  1  1  0  0  0  0
  6  7  1  0  0  0  0
  7  5  1  0  0  0  0
  7 12  1  6  0  0  0
  8  9  1  1  0  0  0
  8  5  1  0  0  0  0
 10 11  1  6  0  0  0
 10  6  1  0  0  0  0
 10  8  1  0  0  0  0
 12 15  1  0  0  0  0
 12 13  1  0  0  0  0
 14 12  1  0  0  0  0
 16  8  1  0  0  0  0
 17 18  1  0  0  0  0
 17 16  2  0  0  0  0
 19 17  1  0  0  0  0
 20 19  1  0  0  0  0
 21 19  2  0  0  0  0
 21 23  1  0  0  0  0
 22 21  1  0  0  0  0
 23 25  2  0  0  0  0
 24 23  1  0  0  0  0
 25 16  1  0  0  0  0
 25 26  1  0  0  0  0
 27 10  1  0  0  0  0
 27  2  1  0  0  0  0
 28 27  1  0  0  0  0
 29 27  1  0  0  0  0
 30 38  2  0  0  0  0
 30 31  1  0  0  0  0
 31 32  2  0  0  0  0
 32 34  1  0  0  0  0
 32 33  1  0  0  0  0
 34 35  1  0  0  0  0
 36 37  1  0  0  0  0
 36 34  2  0  0  0  0
 38 36  1  0  0  0  0
 39 31  1  0  0  0  0
 39 40  1  0  0  0  0
 39 42  1  0  0  0  0
 41 39  1  0  0  0  0
 43 46  1  0  0  0  0
 43 38  1  0  0  0  0
 44 43  1  0  0  0  0
 45 43  1  0  0  0  0
 47 55  1  0  0  0  0
 48 49  1  0  0  0  0
 48 47  2  0  0  0  0
 49 51  2  0  0  0  0
 50 49  1  0  0  0  0
 51 52  1  0  0  0  0
 51 53  1  0  0  0  0
 53 54  1  0  0  0  0
 55 53  2  0  0  0  0
 55 60  1  0  0  0  0
 56 58  1  0  0  0  0
 56 48  1  0  0  0  0
 57 56  1  0  0  0  0
 59 56  1  0  0  0  0
 60 61  1  0  0  0  0
 60 62  1  0  0  0  0
 63 60  1  0  0  0  0
M  END
