1,2
q = 0.0, confidence = 1.0

 36 36  0  0  1  0  0  0  0  0999 V2000
    0.9947    0.5412   -0.6307 P   0  0  0  0  0  0  0  0  0  0  0  0
   -1.5886   -0.0975   -0.1476 N   0  0  0  0  0  2  0  0  0  0  0  0
   -0.3398    1.4153   -1.3995 N   0  0  0  0  0  0  0  0  0  0  0  0
   -1.5850    0.9037   -1.0963 C   0  0  1  0  0  3  0  0  0  0  0  0
   -2.7865    1.3160   -1.7061 C   0  0  0  0  0  0  0  0  0  0  0  0
   -2.7686    2.1128   -2.4602 H   0  0  0  0  0  0  0  0  0  0  0  0
   -3.9932    0.7066   -1.3396 C   0  0  0  0  0  0  0  0  0  0  0  0
   -4.9341    1.0269   -1.8100 H   0  0  0  0  0  0  0  0  0  0  0  0
   -3.9826   -0.3160   -0.3762 C   0  0  0  0  0  0  0  0  0  0  0  0
   -4.9029   -0.8275   -0.0639 H   0  0  0  0  0  0  0  0  0  0  0  0
   -2.7657   -0.6871    0.1924 C   0  0  0  0  0  0  0  0  0  0  0  0
   -2.6927   -1.4857    0.9457 H   0  0  0  0  0  0  0  0  0  0  0  0
    2.2180    1.8599   -0.0858 C   0  0  0  0  0  0  0  0  0  0  0  0
    2.8443    2.0692   -0.9830 H   0  0  0  0  0  0  0  0  0  0  0  0
    1.5340    3.1487    0.3816 C   0  0  0  0  0  0  0  0  0  0  0  0
    0.8358    2.9384    1.2166 H   0  0  0  0  0  0  0  0  0  0  0  0
    0.9696    3.6548   -0.4239 H   0  0  0  0  0  0  0  0  0  0  0  0
    2.3032    3.8586    0.7507 H   0  0  0  0  0  0  0  0  0  0  0  0
    3.1087    1.2733    1.0227 C   0  0  0  0  0  0  0  0  0  0  0  0
    3.9109    1.9955    1.2799 H   0  0  0  0  0  0  0  0  0  0  0  0
    3.5921    0.3210    0.7299 H   0  0  0  0  0  0  0  0  0  0  0  0
    2.5061    1.0832    1.9334 H   0  0  0  0  0  0  0  0  0  0  0  0
    1.8245   -0.2303   -2.1334 C   0  0  0  0  0  0  0  0  0  0  0  0
    2.1418    0.6438   -2.7482 H   0  0  0  0  0  0  0  0  0  0  0  0
    0.8208   -1.0675   -2.9323 C   0  0  0  0  0  0  0  0  0  0  0  0
    1.3088   -1.4670   -3.8453 H   0  0  0  0  0  0  0  0  0  0  0  0
   -0.0609   -0.4772   -3.2510 H   0  0  0  0  0  0  0  0  0  0  0  0
    0.4600   -1.9249   -2.3301 H   0  0  0  0  0  0  0  0  0  0  0  0
    3.0673   -1.0374   -1.7399 C   0  0  0  0  0  0  0  0  0  0  0  0
    2.7984   -1.8424   -1.0257 H   0  0  0  0  0  0  0  0  0  0  0  0
    3.8558   -0.4073   -1.2841 H   0  0  0  0  0  0  0  0  0  0  0  0
    3.5051   -1.5151   -2.6406 H   0  0  0  0  0  0  0  0  0  0  0  0
   -0.1850    2.3749   -2.4753 C   0  0  0  0  0  0  0  0  0  0  0  0
   -0.5226    1.9653   -3.4544 H   0  0  0  0  0  0  0  0  0  0  0  0
    0.8803    2.6531   -2.5718 H   0  0  0  0  0  0  0  0  0  0  0  0
   -0.7568    3.3055   -2.2709 H   0  0  0  0  0  0  0  0  0  0  0  0
  1 13  1  0  0  0  0
  2 11  1  0  0  0  0
  3  1  1  0  0  0  0
  4  3  1  6  0  0  0
  4  2  1  0  0  0  0
  5  7  2  0  0  0  0
  5  4  1  0  0  0  0
  6  5  1  0  0  0  0
  7  9  1  0  0  0  0
  8  7  1  0  0  0  0
  9 10  1  0  0  0  0
  9 11  2  0  0  0  0
 11 12  1  0  0  0  0
 13 15  1  0  0  0  0
 13 19  1  0  0  0  0
 14 13  1  0  0  0  0
 15 18  1  0  0  0  0
 15 16  1  0  0  0  0
 17 15  1  0  0  0  0
 19 20  1  0  0  0  0
 19 22  1  0  0  0  0
 21 19  1  0  0  0  0
 23 29  1  0  0  0  0
 23  1  1  0  0  0  0
 24 23  1  0  0  0  0
 25 28  1  0  0  0  0
 25 23  1  0  0  0  0
 26 25  1  0  0  0  0
 27 25  1  0  0  0  0
 29 31  1  0  0  0  0
 29 30  1  0  0  0  0
 32 29  1  0  0  0  0
 33 36  1  0  0  0  0
 33  3  1  0  0  0  0
 34 33  1  0  0  0  0
 35 33  1  0  0  0  0
M  END
