1,2
q = 0.0, confidence = 0.998

 50 50  0  0  1  0  0  0  0  0999 V2000
    1.4736    0.4695   -0.1162 P   0  0  0  0  0  0  0  0  0  0  0  0
   -1.1899   -0.3947   -1.2789 N   0  0  0  0  0  2  0  0  0  0  0  0
    1.7862    0.1829   -1.7451 O   0  0  0  0  0  0  0  0  0  0  0  0
    2.9841    0.1740    0.4506 O   0  0  0  0  0  0  0  0  0  0  0  0
    1.4439    2.0998   -0.0186 O   0  0  0  0  0  0  0  0  0  0  0  0
    0.7193    0.2233   -2.6888 C   0  0  0  0  0  0  0  0  0  0  0  0
   -0.4064   -0.8051   -2.4512 C   0  0  1  0  0  0  0  0  0  0  0  0
    0.0994   -2.2484   -2.3260 C   0  0  0  0  0  0  0  0  0  0  0  0
   -1.0284   -3.2727   -2.2273 C   0  0  0  0  0  0  0  0  0  0  0  0
   -2.3927    0.0530   -1.4767 C   0  0  0  0  0  3  0  0  0  0  0  0
   -3.2816    0.6729   -0.5003 C   0  0  0  0  0  0  0  0  0  0  0  0
   -2.8302    1.1805    0.7406 C   0  0  0  0  0  0  0  0  0  0  0  0
   -3.7308    1.7816    1.6234 C   0  0  0  0  0  0  0  0  0  0  0  0
   -5.0920    1.8851    1.2854 C   0  0  0  0  0  0  0  0  0  0  0  0
   -5.5492    1.4021    0.0480 C   0  0  0  0  0  0  0  0  0  0  0  0
   -4.6473    0.8119   -0.8443 C   0  0  0  0  0  0  0  0  0  0  0  0
    3.4644   -1.1978    0.5909 C   0  0  0  0  0  0  0  0  0  0  0  0
    4.2219   -1.2705    1.9075 C   0  0  0  0  0  0  0  0  0  0  0  0
    3.5606   -1.0122    2.7564 H   0  0  0  0  0  0  0  0  0  0  0  0
    5.0799   -0.5676    1.8988 H   0  0  0  0  0  0  0  0  0  0  0  0
    4.6125   -2.2949    2.0686 H   0  0  0  0  0  0  0  0  0  0  0  0
    4.3056   -1.5582   -0.6273 C   0  0  0  0  0  0  0  0  0  0  0  0
    3.7085   -1.4608   -1.5536 H   0  0  0  0  0  0  0  0  0  0  0  0
    4.6728   -2.6009   -0.5464 H   0  0  0  0  0  0  0  0  0  0  0  0
    5.1831   -0.8841   -0.7034 H   0  0  0  0  0  0  0  0  0  0  0  0
    2.5486    2.9272   -0.5088 C   0  0  0  0  0  0  0  0  0  0  0  0
    1.9339    4.0341   -1.3526 C   0  0  0  0  0  0  0  0  0  0  0  0
    3.3386    3.4314    0.6906 C   0  0  0  0  0  0  0  0  0  0  0  0
    1.1821    0.0111   -3.6742 H   0  0  0  0  0  0  0  0  0  0  0  0
    0.2741    1.2437   -2.7282 H   0  0  0  0  0  0  0  0  0  0  0  0
   -1.0603   -0.7328   -3.3531 H   0  0  0  0  0  0  0  0  0  0  0  0
    0.7503   -2.4500   -3.2044 H   0  0  0  0  0  0  0  0  0  0  0  0
    0.7482   -2.3102   -1.4250 H   0  0  0  0  0  0  0  0  0  0  0  0
   -0.6222   -4.3031   -2.2028 H   0  0  0  0  0  0  0  0  0  0  0  0
   -1.7176   -3.2044   -3.0957 H   0  0  0  0  0  0  0  0  0  0  0  0
   -1.6129   -3.1209   -1.2959 H   0  0  0  0  0  0  0  0  0  0  0  0
   -2.8000   -0.0194   -2.5083 H   0  0  0  0  0  0  0  0  0  0  0  0
   -1.7573    1.0883    1.0013 H   0  0  0  0  0  0  0  0  0  0  0  0
   -3.3694    2.1703    2.5871 H   0  0  0  0  0  0  0  0  0  0  0  0
   -5.7992    2.3520    1.9880 H   0  0  0  0  0  0  0  0  0  0  0  0
   -6.6124    1.4886   -0.2212 H   0  0  0  0  0  0  0  0  0  0  0  0
   -5.0006    0.4348   -1.8172 H   0  0  0  0  0  0  0  0  0  0  0  0
    2.5712   -1.8646    0.6404 H   0  0  0  0  0  0  0  0  0  0  0  0
    3.1996    2.2897   -1.1448 H   0  0  0  0  0  0  0  0  0  0  0  0
    1.2341    4.6419   -0.7443 H   0  0  0  0  0  0  0  0  0  0  0  0
    2.7241    4.7026   -1.7493 H   0  0  0  0  0  0  0  0  0  0  0  0
    1.3732    3.6124   -2.2100 H   0  0  0  0  0  0  0  0  0  0  0  0
    4.1844    4.0666    0.3580 H   0  0  0  0  0  0  0  0  0  0  0  0
    3.7428    2.5772    1.2656 H   0  0  0  0  0  0  0  0  0  0  0  0
    2.6887    4.0340    1.3568 H   0  0  0  0  0  0  0  0  0  0  0  0
  1  5  1  0  0  0  0
  1  4  1  0  0  0  0
  3  1  1  0  0  0  0
  4 17  1  0  0  0  0
  6  7  1  0  0  0  0
  6  3  1  0  0  0  0
  7 31  1  6  0  0  0
  7  8  1  0  0  0  0
  7  2  1  0  0  0  0
  8  9  1  0  0  0  0
  8 33  1  0  0  0  0
  9 34  1  0  0  0  0
  9 36  1  0  0  0  0
 10  2  1  0  0  0  0
 10 11  1  0  0  0  0
 11 12  1  0  0  0  0
 12 38  1  0  0  0  0
 12 13  2  0  0  0  0
 13 39  1  0  0  0  0
 14 13  1  0  0  0  0
 14 40  1  0  0  0  0
 15 14  2  0  0  0  0
 16 11  2  0  0  0  0
 16 15  1  0  0  0  0
 17 43  1  0  0  0  0
 17 18  1  0  0  0  0
 18 21  1  0  0  0  0
 18 19  1  0  0  0  0
 20 18  1  0  0  0  0
 22 24  1  0  0  0  0
 22 17  1  0  0  0  0
 23 22  1  0  0  0  0
 25 22  1  0  0  0  0
 26  5  1  0  0  0  0
 26 28  1  0  0  0  0
 27 45  1  0  0  0  0
 27 26  1  0  0  0  0
 28 49  1  0  0  0  0
 28 50  1  0  0  0  0
 29  6  1  0  0  0  0
 30  6  1  0  0  0  0
 32  8  1  0  0  0  0
 35  9  1  0  0  0  0
 37 10  1  0  0  0  0
 41 15  1  0  0  0  0
 42 16  1  0  0  0  0
 44 26  1  0  0  0  0
 46 27  1  0  0  0  0
 47 27  1  0  0  0  0
 48 28  1  0  0  0  0
M  END
