1,5
q = 0.0, confidence = 1.0

 28 28  0  0  0  0  0  0  0  0999 V2000
    1.1911    0.2884   -0.0804 P   0  0  0  0  0  0  0  0  0  0  0  0
    2.0538   -0.0423    1.2749 O   0  0  0  0  0  0  0  0  0  0  0  0
    2.1673   -0.0858   -1.3275 O   0  0  0  0  0  0  0  0  0  0  0  0
    1.2875    1.9545   -0.1633 O   0  0  0  0  0  0  0  0  0  0  0  0
   -1.9078    1.3687   -0.0942 N   0  0  0  0  0  0  0  0  0  0  0  0
    3.4778    0.1972    1.2851 C   0  0  0  0  0  0  0  0  0  0  0  0
    3.8456   -0.2360    2.2353 H   0  0  0  0  0  0  0  0  0  0  0  0
    3.6667    1.2949    1.3045 H   0  0  0  0  0  0  0  0  0  0  0  0
    4.1434   -0.4500    0.0752 C   0  0  0  0  0  0  0  0  0  0  0  0
    5.2403   -0.2863    0.1185 H   0  0  0  0  0  0  0  0  0  0  0  0
    3.9597   -1.5444    0.1016 H   0  0  0  0  0  0  0  0  0  0  0  0
    3.5947    0.1218   -1.2275 C   0  0  0  0  0  0  0  0  0  0  0  0
    3.8078    1.2115   -1.3091 H   0  0  0  0  0  0  0  0  0  0  0  0
    4.0287   -0.3849   -2.1110 H   0  0  0  0  0  0  0  0  0  0  0  0
    0.2256    2.6841    0.4573 C   0  0  0  0  0  0  0  0  0  0  0  0
    0.5500    3.7435    0.4595 H   0  0  0  0  0  0  0  0  0  0  0  0
    0.0945    2.3767    1.5192 H   0  0  0  0  0  0  0  0  0  0  0  0
   -1.0762    2.5799   -0.3292 C   0  0  0  0  0  0  0  0  0  0  0  0
   -1.7072    3.4729   -0.1120 H   0  0  0  0  0  0  0  0  0  0  0  0
   -0.8163    2.6137   -1.4059 H   0  0  0  0  0  0  0  0  0  0  0  0
   -2.9076    1.2818   -1.1907 C   0  0  0  0  0  0  0  0  0  0  0  0
   -3.5238    2.2092   -1.2155 H   0  0  0  0  0  0  0  0  0  0  0  0
   -3.5393    0.3914   -1.0173 H   0  0  0  0  0  0  0  0  0  0  0  0
   -2.3790    1.1635   -2.1550 H   0  0  0  0  0  0  0  0  0  0  0  0
   -2.6094    1.4729    1.2104 C   0  0  0  0  0  0  0  0  0  0  0  0
   -3.2602    2.3771    1.2217 H   0  0  0  0  0  0  0  0  0  0  0  0
   -1.8719    1.5396    2.0316 H   0  0  0  0  0  0  0  0  0  0  0  0
   -3.2099    0.5544    1.3503 H   0  0  0  0  0  0  0  0  0  0  0  0
  1  2  1  0  0  0  0
  2  6  1  0  0  0  0
  3 12  1  0  0  0  0
  3  1  1  0  0  0  0
  4  1  1  0  0  0  0
  4 15  1  0  0  0  0
  5 25  1  0  0  0  0
  6  8  1  0  0  0  0
  6  7  1  0  0  0  0
  9 11  1  0  0  0  0
  9 10  1  0  0  0  0
  9  6  1  0  0  0  0
 12  9  1  0  0  0  0
 13 12  1  0  0  0  0
 14 12  1  0  0  0  0
 15 16  1  0  0  0  0
 15 17  1  0  0  0  0
 18 19  1  0  0  0  0
 18  5  1  0  0  0  0
 18 15  1  0  0  0  0
 20 18  1  0  0  0  0
 21 23  1  0  0  0  0
 21  5  1  0  0  0  0
 22 21  1  0  0  0  0
 24 21  1  0  0  0  0
 25 26  1  0  0  0  0
 25 28  1  0  0  0  0
 25 27  1  0  0  0  0
M  END
