1,4
q = 0.0, confidence = 0.998

 72 78  0  0  1  0  0  0  0  0999 V2000
    2.0940    0.0059    0.2830 P   0  0  0  0  0  0  0  0  0  0  0  0
   -2.1440   -0.0914    1.4574 O   0  0  0  0  0  0  0  0  0  0  0  0
   -2.0152   -4.5756   -0.1970 O   0  0  0  0  0  0  0  0  0  0  0  0
   -0.8246   -1.1462   -0.1433 N   0  0  1  0  0  0  0  0  0  0  0  0
   -0.8076   -0.2134    1.0639 C   0  0  2  0  0  0  0  0  0  0  0  0
   -0.7402   -2.5979    0.2144 C   0  0  0  0  0  0  0  0  0  0  0  0
   -1.7407   -3.2862   -0.7077 C   0  0  2  0  0  0  0  0  0  0  0  0
   -2.9154   -2.2983   -0.6447 C   0  0  0  0  0  0  0  0  0  0  0  0
   -2.2377   -0.9314   -0.7113 C   0  0  1  0  0  0  0  0  0  0  0  0
   -2.8244    0.1834    0.1971 C   0  0  0  0  0  0  0  0  0  0  0  0
    0.1115   -0.6750    2.1551 C   0  0  0  0  0  0  0  0  0  0  0  0
   -0.3768   -1.1362    3.3860 C   0  0  0  0  0  0  0  0  0  0  0  0
    0.5142   -1.5898    4.3715 C   0  0  0  0  0  0  0  0  0  0  0  0
    1.8945   -1.5905    4.1224 C   0  0  0  0  0  0  0  0  0  0  0  0
    2.3910   -1.1223    2.8950 C   0  0  0  0  0  0  0  0  0  0  0  0
    1.5074   -0.6485    1.9077 C   0  0  0  0  0  0  0  0  0  0  0  0
   -4.3225    0.0612    0.3951 C   0  0  0  0  0  0  0  0  0  0  0  0
   -4.8713   -0.4167    1.5978 C   0  0  0  0  0  0  0  0  0  0  0  0
   -6.2628   -0.5475    1.7358 C   0  0  0  0  0  0  0  0  0  0  0  0
   -7.1141   -0.2126    0.6727 C   0  0  0  0  0  0  0  0  0  0  0  0
   -6.5683    0.2634   -0.5312 C   0  0  0  0  0  0  0  0  0  0  0  0
   -5.1811    0.4059   -0.6673 C   0  0  0  0  0  0  0  0  0  0  0  0
   -2.4347    1.6025   -0.2537 C   0  0  0  0  0  0  0  0  0  0  0  0
   -1.7464    1.8862   -1.4488 C   0  0  0  0  0  0  0  0  0  0  0  0
   -1.3366    3.2007   -1.7330 C   0  0  0  0  0  0  0  0  0  0  0  0
   -1.6112    4.2400   -0.8352 C   0  0  0  0  0  0  0  0  0  0  0  0
   -2.3091    3.9650    0.3537 C   0  0  0  0  0  0  0  0  0  0  0  0
   -2.7184    2.6576    0.6395 C   0  0  0  0  0  0  0  0  0  0  0  0
    3.8676   -0.4333    0.2619 C   0  0  0  0  0  0  0  0  0  0  0  0
    4.2435   -1.6917   -0.2490 C   0  0  0  0  0  0  0  0  0  0  0  0
    5.5865   -2.0873   -0.2046 C   0  0  0  0  0  0  0  0  0  0  0  0
    6.5581   -1.2274    0.3355 C   0  0  0  0  0  0  0  0  0  0  0  0
    6.1851    0.0306    0.8334 C   0  0  0  0  0  0  0  0  0  0  0  0
    4.8398    0.4309    0.7999 C   0  0  0  0  0  0  0  0  0  0  0  0
    2.0105    1.8330    0.4867 C   0  0  0  0  0  0  0  0  0  0  0  0
    2.2459    2.6357   -0.6511 C   0  0  0  0  0  0  0  0  0  0  0  0
    2.1600    4.0299   -0.5458 C   0  0  0  0  0  0  0  0  0  0  0  0
    1.8231    4.6312    0.6784 C   0  0  0  0  0  0  0  0  0  0  0  0
    1.5821    3.8336    1.8070 C   0  0  0  0  0  0  0  0  0  0  0  0
    1.6802    2.4362    1.7174 C   0  0  0  0  0  0  0  0  0  0  0  0
   -2.4528   -5.0799   -0.9048 H   0  0  0  0  0  0  0  0  0  0  0  0
   -0.4554    0.7652    0.6681 H   0  0  0  0  0  0  0  0  0  0  0  0
   -1.0795   -2.7659    1.2587 H   0  0  0  0  0  0  0  0  0  0  0  0
    0.2984   -2.9616    0.1160 H   0  0  0  0  0  0  0  0  0  0  0  0
   -1.3288   -3.3139   -1.7426 H   0  0  0  0  0  0  0  0  0  0  0  0
   -3.4374   -2.4539    0.3214 H   0  0  0  0  0  0  0  0  0  0  0  0
   -3.6497   -2.4257   -1.4629 H   0  0  0  0  0  0  0  0  0  0  0  0
   -2.1356   -0.6247   -1.7658 H   0  0  0  0  0  0  0  0  0  0  0  0
   -1.4623   -1.1348    3.5590 H   0  0  0  0  0  0  0  0  0  0  0  0
    0.1264   -1.9501    5.3361 H   0  0  0  0  0  0  0  0  0  0  0  0
    2.5952   -1.9529    4.8895 H   0  0  0  0  0  0  0  0  0  0  0  0
    3.4740   -1.1176    2.7039 H   0  0  0  0  0  0  0  0  0  0  0  0
   -4.1992   -0.6814    2.4253 H   0  0  0  0  0  0  0  0  0  0  0  0
   -6.6832   -0.9165    2.6839 H   0  0  0  0  0  0  0  0  0  0  0  0
   -8.2041   -0.3181    0.7819 H   0  0  0  0  0  0  0  0  0  0  0  0
   -7.2290    0.5333   -1.3690 H   0  0  0  0  0  0  0  0  0  0  0  0
   -4.7549    0.7966   -1.6042 H   0  0  0  0  0  0  0  0  0  0  0  0
   -1.4890    1.0924   -2.1672 H   0  0  0  0  0  0  0  0  0  0  0  0
   -0.7817    3.3978   -2.6624 H   0  0  0  0  0  0  0  0  0  0  0  0
   -1.2779    5.2652   -1.0563 H   0  0  0  0  0  0  0  0  0  0  0  0
   -2.5321    4.7759    1.0639 H   0  0  0  0  0  0  0  0  0  0  0  0
   -3.2531    2.4362    1.5756 H   0  0  0  0  0  0  0  0  0  0  0  0
    3.4811   -2.3448   -0.7000 H   0  0  0  0  0  0  0  0  0  0  0  0
    5.8795   -3.0676   -0.6095 H   0  0  0  0  0  0  0  0  0  0  0  0
    7.6140   -1.5370    0.3592 H   0  0  0  0  0  0  0  0  0  0  0  0
    6.9458    0.7095    1.2477 H   0  0  0  0  0  0  0  0  0  0  0  0
    4.5447    1.4185    1.1855 H   0  0  0  0  0  0  0  0  0  0  0  0
    2.4826    2.1497   -1.6124 H   0  0  0  0  0  0  0  0  0  0  0  0
    2.3440    4.6517   -1.4351 H   0  0  0  0  0  0  0  0  0  0  0  0
    1.7427    5.7265    0.7517 H   0  0  0  0  0  0  0  0  0  0  0  0
    1.3140    4.2992    2.7675 H   0  0  0  0  0  0  0  0  0  0  0  0
    1.4933    1.8154    2.6063 H   0  0  0  0  0  0  0  0  0  0  0  0
  1 35  1  0  0  0  0
  1 16  1  0  0  0  0
  4  6  1  1  0  0  0
  4  5  1  0  0  0  0
  5 42  1  6  0  0  0
  5  2  1  0  0  0  0
  5 11  1  0  0  0  0
  6 43  1  0  0  0  0
  7 45  1  6  0  0  0
  7  8  1  0  0  0  0
  7  3  1  0  0  0  0
  7  6  1  0  0  0  0
  8 46  1  0  0  0  0
  9 48  1  6  0  0  0
  9  8  1  0  0  0  0
  9  4  1  0  0  0  0
  9 10  1  0  0  0  0
 10 17  1  0  0  0  0
 10  2  1  0  0  0  0
 11 12  1  0  0  0  0
 12 49  1  0  0  0  0
 12 13  2  0  0  0  0
 13 50  1  0  0  0  0
 14 13  1  0  0  0  0
 14 51  1  0  0  0  0
 15 14  2  0  0  0  0
 16 11  2  0  0  0  0
 16 15  1  0  0  0  0
 17 18  1  0  0  0  0
 18 19  2  0  0  0  0
 18 53  1  0  0  0  0
 19 54  1  0  0  0  0
 20 55  1  0  0  0  0
 20 19  1  0  0  0  0
 21 20  2  0  0  0  0
 22 21  1  0  0  0  0
 22 17  2  0  0  0  0
 23 10  1  0  0  0  0
 23 28  1  0  0  0  0
 24 23  2  0  0  0  0
 25 24  1  0  0  0  0
 25 26  2  0  0  0  0
 26 27  1  0  0  0  0
 27 28  2  0  0  0  0
 27 61  1  0  0  0  0
 28 62  1  0  0  0  0
 29  1  1  0  0  0  0
 29 34  1  0  0  0  0
 30 31  1  0  0  0  0
 30 29  2  0  0  0  0
 31 32  2  0  0  0  0
 32 65  1  0  0  0  0
 32 33  1  0  0  0  0
 33 66  1  0  0  0  0
 34 33  2  0  0  0  0
 34 67  1  0  0  0  0
 35 40  1  0  0  0  0
 36 37  1  0  0  0  0
 36 35  2  0  0  0  0
 37 38  2  0  0  0  0
 38 70  1  0  0  0  0
 38 39  1  0  0  0  0
 39 71  1  0  0  0  0
 40 39  2  0  0  0  0
 40 72  1  0  0  0  0
 41  3  1  0  0  0  0
 44  6  1  0  0  0  0
 47  8  1  0  0  0  0
 52 15  1  0  0  0  0
 56 21  1  0  0  0  0
 57 22  1  0  0  0  0
 58 24  1  0  0  0  0
 59 25  1  0  0  0  0
 60 26  1  0  0  0  0
 63 30  1  0  0  0  0
 64 31  1  0  0  0  0
 68 36  1  0  0  0  0
 69 37  1  0  0  0  0
M  END
