1,3
q = 0.0, confidence = 1.0

 46 49  0  0  1  0  0  0  0  0999 V2000
   -1.9143   -0.7949   -0.2995 P   0  0  0  0  0  0  0  0  0  0  0  0
   -0.3197   -2.6813   -1.6266 N   0  0  0  0  0  0  0  0  0  0  0  0
    0.9698   -1.4049   -0.1136 N   0  0  0  0  0  2  0  0  0  0  0  0
    2.0943   -0.2386    1.5346 N   0  0  0  0  0  0  0  0  0  0  0  0
   -3.5366   -0.1415   -0.8283 C   0  0  0  0  0  0  0  0  0  0  0  0
   -4.7434   -0.5142   -0.2032 C   0  0  0  0  0  0  0  0  0  0  0  0
   -4.7376   -1.2192    0.6409 H   0  0  0  0  0  0  0  0  0  0  0  0
   -5.9563    0.0314   -0.6526 C   0  0  0  0  0  0  0  0  0  0  0  0
   -6.8970   -0.2552   -0.1593 H   0  0  0  0  0  0  0  0  0  0  0  0
   -5.9699    0.9404   -1.7218 C   0  0  0  0  0  0  0  0  0  0  0  0
   -6.9232    1.3658   -2.0693 H   0  0  0  0  0  0  0  0  0  0  0  0
   -4.7660    1.3189   -2.3398 C   0  0  0  0  0  0  0  0  0  0  0  0
   -4.7734    2.0445   -3.1666 H   0  0  0  0  0  0  0  0  0  0  0  0
   -3.5497    0.7895   -1.8904 C   0  0  0  0  0  0  0  0  0  0  0  0
   -2.6006    1.1262   -2.3370 H   0  0  0  0  0  0  0  0  0  0  0  0
   -2.1904   -2.0397    1.0051 C   0  0  0  0  0  0  0  0  0  0  0  0
   -2.9384   -3.2147    0.7750 C   0  0  0  0  0  0  0  0  0  0  0  0
   -3.4134   -3.3944   -0.2022 H   0  0  0  0  0  0  0  0  0  0  0  0
   -3.0883   -4.1591    1.8001 C   0  0  0  0  0  0  0  0  0  0  0  0
   -3.6729   -5.0738    1.6206 H   0  0  0  0  0  0  0  0  0  0  0  0
   -2.4948   -3.9368    3.0545 C   0  0  0  0  0  0  0  0  0  0  0  0
   -2.6160   -4.6801    3.8568 H   0  0  0  0  0  0  0  0  0  0  0  0
   -1.7479   -2.7709    3.2851 C   0  0  0  0  0  0  0  0  0  0  0  0
   -1.2821   -2.5980    4.2666 H   0  0  0  0  0  0  0  0  0  0  0  0
   -1.5906   -1.8233    2.2627 C   0  0  0  0  0  0  0  0  0  0  0  0
   -0.9934   -0.9111    2.4232 H   0  0  0  0  0  0  0  0  0  0  0  0
   -1.4451   -1.7975   -1.8168 C   0  0  0  0  0  0  0  0  0  0  0  0
   -2.3210   -2.4039   -2.1224 H   0  0  0  0  0  0  0  0  0  0  0  0
   -1.2671   -1.0443   -2.6171 H   0  0  0  0  0  0  0  0  0  0  0  0
    0.7561   -2.5399   -0.8003 C   0  0  0  0  0  0  0  0  0  0  0  0
    1.6378   -3.6748   -0.6817 C   0  0  0  0  0  0  0  0  0  0  0  0
    1.4363   -4.5683   -1.2905 H   0  0  0  0  0  0  0  0  0  0  0  0
    2.6950   -3.6341    0.1904 C   0  0  0  0  0  0  0  0  0  0  0  0
    3.3745   -4.4938    0.2924 H   0  0  0  0  0  0  0  0  0  0  0  0
    2.9029   -2.4651    0.9817 C   0  0  0  0  0  0  0  0  0  0  0  0
    1.9968   -1.3695    0.8109 C   0  0  2  0  0  3  0  0  0  0  0  0
    3.0852   -0.0922    2.4208 C   0  0  0  0  0  0  0  0  0  0  0  0
    4.0440   -1.1204    2.6456 C   0  0  0  0  0  0  0  0  0  0  0  0
    4.8434   -0.9730    3.3857 H   0  0  0  0  0  0  0  0  0  0  0  0
    3.9436   -2.3060    1.9291 C   0  0  0  0  0  0  0  0  0  0  0  0
    4.6602   -3.1268    2.0877 H   0  0  0  0  0  0  0  0  0  0  0  0
    3.1530    1.2222    3.1461 C   0  0  0  0  0  0  0  0  0  0  0  0
    2.1355    1.5619    3.4197 H   0  0  0  0  0  0  0  0  0  0  0  0
    3.5764    1.9969    2.4711 H   0  0  0  0  0  0  0  0  0  0  0  0
    3.7872    1.1707    4.0503 H   0  0  0  0  0  0  0  0  0  0  0  0
   -0.3672   -3.5739   -2.1157 H   0  0  0  0  0  0  0  0  0  0  0  0
  1 16  1  0  0  0  0
  2 30  1  0  0  0  0
  4 37  2  0  0  0  0
  5  1  1  0  0  0  0
  5  6  1  0  0  0  0
  6  7  1  0  0  0  0
  8  6  2  0  0  0  0
  8  9  1  0  0  0  0
 10  8  1  0  0  0  0
 11 10  1  0  0  0  0
 12 14  1  0  0  0  0
 12 10  2  0  0  0  0
 13 12  1  0  0  0  0
 14  5  2  0  0  0  0
 15 14  1  0  0  0  0
 16 25  1  0  0  0  0
 17 16  2  0  0  0  0
 17 19  1  0  0  0  0
 18 17  1  0  0  0  0
 19 21  2  0  0  0  0
 20 19  1  0  0  0  0
 21 23  1  0  0  0  0
 21 22  1  0  0  0  0
 23 24  1  0  0  0  0
 25 26  1  0  0  0  0
 25 23  2  0  0  0  0
 27  2  1  0  0  0  0
 27  1  1  0  0  0  0
 28 27  1  0  0  0  0
 29 27  1  0  0  0  0
 30 31  2  0  0  0  0
 30  3  1  0  0  0  0
 31 33  1  0  0  0  0
 32 31  1  0  0  0  0
 33 34  1  0  0  0  0
 33 35  2  0  0  0  0
 35 40  1  0  0  0  0
 36  3  1  6  0  0  0
 36 35  1  0  0  0  0
 36  4  1  0  0  0  0
 37 38  1  0  0  0  0
 37 42  1  0  0  0  0
 38 39  1  0  0  0  0
 40 41  1  0  0  0  0
 40 38  2  0  0  0  0
 42 43  1  0  0  0  0
 42 45  1  0  0  0  0
 44 42  1  0  0  0  0
 46  2  1  0  0  0  0
M  END
