1,2
q = 0.0, confidence = 0.998

 56 59  0  0  1  0  0  0  0  0999 V2000
   -1.3997    1.1078    0.3083 P   0  0  0  0  0  0  0  0  0  0  0  0
    1.6036    0.7220    0.2307 N   0  0  0  0  0  0  0  0  0  0  0  0
    3.2058   -1.2364    1.9958 O   0  0  0  0  0  0  0  0  0  0  0  0
    1.0820    2.0971    0.0159 C   0  0  0  0  0  0  0  0  0  0  0  0
    0.7644    2.2332   -1.0368 H   0  0  0  0  0  0  0  0  0  0  0  0
    1.8729    2.8473    0.2433 H   0  0  0  0  0  0  0  0  0  0  0  0
   -0.0480    2.1709    1.0435 C   0  0  2  0  0  0  0  0  0  0  0  0
   -0.3869    3.1999    1.2658 H   0  0  0  0  0  0  0  0  0  0  0  0
    0.5614    1.4516    2.2722 C   0  0  0  0  0  0  0  0  0  0  0  0
   -0.1671    0.7697    2.7564 H   0  0  0  0  0  0  0  0  0  0  0  0
    0.8749    2.1811    3.0433 H   0  0  0  0  0  0  0  0  0  0  0  0
    1.7868    0.6816    1.7220 C   0  0  1  0  0  0  0  0  0  0  0  0
    2.7110    1.2559    1.9547 H   0  0  0  0  0  0  0  0  0  0  0  0
    2.8279    0.4273   -0.5816 C   0  0  0  0  0  0  0  0  0  0  0  0
    3.1271   -0.6056   -0.3301 H   0  0  0  0  0  0  0  0  0  0  0  0
    2.4973    0.4211   -1.6383 H   0  0  0  0  0  0  0  0  0  0  0  0
    4.1216    2.5125   -1.2394 C   0  0  0  0  0  0  0  0  0  0  0  0
    3.4044    2.6614   -2.0628 H   0  0  0  0  0  0  0  0  0  0  0  0
    5.1768    3.4199   -1.0626 C   0  0  0  0  0  0  0  0  0  0  0  0
    5.2799    4.2806   -1.7411 H   0  0  0  0  0  0  0  0  0  0  0  0
    6.1050    3.2232   -0.0278 C   0  0  0  0  0  0  0  0  0  0  0  0
    6.9356    3.9319    0.1113 H   0  0  0  0  0  0  0  0  0  0  0  0
    5.9760    2.1111    0.8196 C   0  0  0  0  0  0  0  0  0  0  0  0
    6.7094    1.9437    1.6234 H   0  0  0  0  0  0  0  0  0  0  0  0
    4.9213    1.2029    0.6405 C   0  0  0  0  0  0  0  0  0  0  0  0
    4.8181    0.3239    1.2956 H   0  0  0  0  0  0  0  0  0  0  0  0
    3.9731    1.3975   -0.3877 C   0  0  0  0  0  0  0  0  0  0  0  0
    1.9374   -0.7110    2.3098 C   0  0  0  0  0  0  0  0  0  0  0  0
    1.8026   -0.6397    3.4201 H   0  0  0  0  0  0  0  0  0  0  0  0
    1.1174   -1.3626    1.9109 H   0  0  0  0  0  0  0  0  0  0  0  0
    3.3549   -2.5878    2.3893 C   0  0  0  0  0  0  0  0  0  0  0  0
    4.3787   -2.9014    2.1099 H   0  0  0  0  0  0  0  0  0  0  0  0
    2.6231   -3.2434    1.8647 H   0  0  0  0  0  0  0  0  0  0  0  0
    3.2294   -2.7078    3.4927 H   0  0  0  0  0  0  0  0  0  0  0  0
   -2.1335    3.5404   -0.9766 C   0  0  0  0  0  0  0  0  0  0  0  0
   -1.7428    4.0671   -0.0931 H   0  0  0  0  0  0  0  0  0  0  0  0
   -2.6675    4.2904   -2.0354 C   0  0  0  0  0  0  0  0  0  0  0  0
   -2.6895    5.3887   -1.9685 H   0  0  0  0  0  0  0  0  0  0  0  0
   -3.1693    3.6417   -3.1747 C   0  0  0  0  0  0  0  0  0  0  0  0
   -3.5862    4.2318   -4.0049 H   0  0  0  0  0  0  0  0  0  0  0  0
   -3.1312    2.2407   -3.2545 C   0  0  0  0  0  0  0  0  0  0  0  0
   -3.5169    1.7263   -4.1476 H   0  0  0  0  0  0  0  0  0  0  0  0
   -2.5945    1.4851   -2.2022 C   0  0  0  0  0  0  0  0  0  0  0  0
   -2.5583    0.3854   -2.2626 H   0  0  0  0  0  0  0  0  0  0  0  0
   -2.0972    2.1301   -1.0503 C   0  0  0  0  0  0  0  0  0  0  0  0
   -2.6909   -0.1300    2.4565 C   0  0  0  0  0  0  0  0  0  0  0  0
   -1.9745   -0.9466    2.2771 H   0  0  0  0  0  0  0  0  0  0  0  0
   -3.6204   -0.2141    3.5033 C   0  0  0  0  0  0  0  0  0  0  0  0
   -3.6134   -1.0911    4.1678 H   0  0  0  0  0  0  0  0  0  0  0  0
   -4.5692    0.8042    3.6866 C   0  0  0  0  0  0  0  0  0  0  0  0
   -5.3049    0.7312    4.5019 H   0  0  0  0  0  0  0  0  0  0  0  0
   -4.5903    1.9082    2.8192 C   0  0  0  0  0  0  0  0  0  0  0  0
   -5.3428    2.7004    2.9510 H   0  0  0  0  0  0  0  0  0  0  0  0
   -3.6585    2.0027    1.7748 C   0  0  0  0  0  0  0  0  0  0  0  0
   -3.6910    2.8622    1.0887 H   0  0  0  0  0  0  0  0  0  0  0  0
   -2.6968    0.9878    1.5959 C   0  0  0  0  0  0  0  0  0  0  0  0
  1  7  1  0  0  0  0
  1 56  1  0  0  0  0
  2 12  1  0  0  0  0
  3 28  1  0  0  0  0
  3 31  1  0  0  0  0
  4  2  1  0  0  0  0
  4  6  1  0  0  0  0
  4  7  1  0  0  0  0
  5  4  1  0  0  0  0
  7  8  1  1  0  0  0
  7  9  1  0  0  0  0
  9 10  1  0  0  0  0
  9 11  1  0  0  0  0
 12 13  1  1  0  0  0
 12  9  1  0  0  0  0
 12 28  1  0  0  0  0
 14 27  1  0  0  0  0
 14 15  1  0  0  0  0
 14  2  1  0  0  0  0
 16 14  1  0  0  0  0
 17 19  2  0  0  0  0
 17 27  1  0  0  0  0
 18 17  1  0  0  0  0
 19 21  1  0  0  0  0
 20 19  1  0  0  0  0
 21 22  1  0  0  0  0
 21 23  2  0  0  0  0
 23 24  1  0  0  0  0
 25 23  1  0  0  0  0
 25 26  1  0  0  0  0
 27 25  2  0  0  0  0
 28 29  1  0  0  0  0
 30 28  1  0  0  0  0
 31 34  1  0  0  0  0
 32 31  1  0  0  0  0
 33 31  1  0  0  0  0
 35 36  1  0  0  0  0
 37 38  1  0  0  0  0
 37 35  2  0  0  0  0
 39 37  1  0  0  0  0
 40 39  1  0  0  0  0
 41 39  2  0  0  0  0
 41 43  1  0  0  0  0
 42 41  1  0  0  0  0
 43 45  2  0  0  0  0
 44 43  1  0  0  0  0
 45 35  1  0  0  0  0
 45  1  1  0  0  0  0
 46 48  1  0  0  0  0
 47 46  1  0  0  0  0
 48 50  2  0  0  0  0
 48 49  1  0  0  0  0
 50 51  1  0  0  0  0
 52 53  1  0  0  0  0
 52 50  1  0  0  0  0
 54 52  2  0  0  0  0
 55 54  1  0  0  0  0
 56 54  1  0  0  0  0
 56 46  2  0  0  0  0
M  END
