1,2
q = 0.0, confidence = 1.0

 50 53  0  0  1  0  0  0  0  0999 V2000
   -1.6033    0.3543    0.5448 P   0  0  0  0  0  0  0  0  0  0  0  0
    0.9970    0.6692    2.0355 N   0  0  0  0  0  0  0  0  0  0  0  0
    2.0338    2.1328   -0.1590 O   0  0  0  0  0  0  0  0  0  0  0  0
   -0.0219    1.7278    2.2515 C   0  0  0  0  0  0  0  0  0  0  0  0
    0.1744    2.2475    3.2206 H   0  0  0  0  0  0  0  0  0  0  0  0
   -0.0012    2.4755    1.4384 H   0  0  0  0  0  0  0  0  0  0  0  0
   -1.3041    0.9044    2.3191 C   0  0  2  0  0  0  0  0  0  0  0  0
   -2.1620    1.4634    2.7385 H   0  0  0  0  0  0  0  0  0  0  0  0
   -0.8695   -0.3342    3.1577 C   0  0  0  0  0  0  0  0  0  0  0  0
   -1.2885   -1.2754    2.7508 H   0  0  0  0  0  0  0  0  0  0  0  0
   -1.2299   -0.2425    4.2009 H   0  0  0  0  0  0  0  0  0  0  0  0
    0.6777   -0.3184    3.1034 C   0  0  0  0  0  0  0  0  0  0  0  0
    1.1027    0.0483    4.0676 H   0  0  0  0  0  0  0  0  0  0  0  0
    1.1448   -1.2910    2.8587 H   0  0  0  0  0  0  0  0  0  0  0  0
    2.3858    1.1637    2.0704 C   0  0  0  0  0  0  0  0  0  0  0  0
    3.0389    0.3048    1.8124 H   0  0  0  0  0  0  0  0  0  0  0  0
    2.6284    1.4932    3.1101 H   0  0  0  0  0  0  0  0  0  0  0  0
    2.6375    2.3488    1.1196 C   0  0  1  0  0  0  0  0  0  0  0  0
    2.1791    3.2648    1.5569 H   0  0  0  0  0  0  0  0  0  0  0  0
    4.1373    2.5608    0.8472 C   0  0  0  0  0  0  0  0  0  0  0  0
    4.3375    3.6367    0.6661 H   0  0  0  0  0  0  0  0  0  0  0  0
    4.7754    2.2365    1.6933 H   0  0  0  0  0  0  0  0  0  0  0  0
    4.3529    1.7388   -0.4322 C   0  0  0  0  0  0  0  0  0  0  0  0
    4.4708    0.6618   -0.1932 H   0  0  0  0  0  0  0  0  0  0  0  0
    5.2356    2.0662   -1.0149 H   0  0  0  0  0  0  0  0  0  0  0  0
    3.0372    1.9511   -1.1791 C   0  0  0  0  0  0  0  0  0  0  0  0
    3.0649    2.8614   -1.8224 H   0  0  0  0  0  0  0  0  0  0  0  0
    2.7424    1.0803   -1.8004 H   0  0  0  0  0  0  0  0  0  0  0  0
   -3.5971    2.1231   -0.4883 C   0  0  0  0  0  0  0  0  0  0  0  0
   -4.3551    1.4437   -0.0717 H   0  0  0  0  0  0  0  0  0  0  0  0
   -3.9993    3.2787   -1.1746 C   0  0  0  0  0  0  0  0  0  0  0  0
   -5.0716    3.5024   -1.2819 H   0  0  0  0  0  0  0  0  0  0  0  0
   -3.0402    4.1399   -1.7314 C   0  0  0  0  0  0  0  0  0  0  0  0
   -3.3604    5.0429   -2.2732 H   0  0  0  0  0  0  0  0  0  0  0  0
   -1.6743    3.8378   -1.6119 C   0  0  0  0  0  0  0  0  0  0  0  0
   -0.9193    4.4993   -2.0631 H   0  0  0  0  0  0  0  0  0  0  0  0
   -1.2623    2.6790   -0.9381 C   0  0  0  0  0  0  0  0  0  0  0  0
   -0.1912    2.4238   -0.8712 H   0  0  0  0  0  0  0  0  0  0  0  0
   -2.2258    1.8252   -0.3561 C   0  0  0  0  0  0  0  0  0  0  0  0
   -4.0683   -0.5425    1.5890 C   0  0  0  0  0  0  0  0  0  0  0  0
   -4.0690    0.3802    2.1889 H   0  0  0  0  0  0  0  0  0  0  0  0
   -5.1324   -1.4461    1.7235 C   0  0  0  0  0  0  0  0  0  0  0  0
   -5.9540   -1.2213    2.4204 H   0  0  0  0  0  0  0  0  0  0  0  0
   -5.1454   -2.6339    0.9746 C   0  0  0  0  0  0  0  0  0  0  0  0
   -5.9799   -3.3434    1.0830 H   0  0  0  0  0  0  0  0  0  0  0  0
   -4.0892   -2.9165    0.0952 C   0  0  0  0  0  0  0  0  0  0  0  0
   -4.0892   -3.8492   -0.4888 H   0  0  0  0  0  0  0  0  0  0  0  0
   -3.0209   -2.0175   -0.0437 C   0  0  0  0  0  0  0  0  0  0  0  0
   -2.1898   -2.2359   -0.7330 H   0  0  0  0  0  0  0  0  0  0  0  0
   -3.0068   -0.8192    0.6971 C   0  0  0  0  0  0  0  0  0  0  0  0
  1 50  1  0  0  0  0
  1  7  1  0  0  0  0
  2 15  1  0  0  0  0
  2  4  1  0  0  0  0
  2 12  1  0  0  0  0
  3 18  1  0  0  0  0
  4  7  1  0  0  0  0
  4  5  1  0  0  0  0
  6  4  1  0  0  0  0
  7  8  1  1  0  0  0
  7  9  1  0  0  0  0
  9 11  1  0  0  0  0
 10  9  1  0  0  0  0
 12  9  1  0  0  0  0
 12 13  1  0  0  0  0
 14 12  1  0  0  0  0
 15 17  1  0  0  0  0
 16 15  1  0  0  0  0
 18 19  1  1  0  0  0
 18 15  1  0  0  0  0
 20 18  1  0  0  0  0
 20 22  1  0  0  0  0
 21 20  1  0  0  0  0
 23 24  1  0  0  0  0
 23 20  1  0  0  0  0
 25 23  1  0  0  0  0
 26 23  1  0  0  0  0
 26  3  1  0  0  0  0
 27 26  1  0  0  0  0
 28 26  1  0  0  0  0
 29 39  1  0  0  0  0
 29 30  1  0  0  0  0
 31 29  2  0  0  0  0
 32 31  1  0  0  0  0
 33 35  2  0  0  0  0
 33 31  1  0  0  0  0
 34 33  1  0  0  0  0
 35 37  1  0  0  0  0
 36 35  1  0  0  0  0
 37 38  1  0  0  0  0
 37 39  2  0  0  0  0
 39  1  1  0  0  0  0
 40 42  1  0  0  0  0
 40 41  1  0  0  0  0
 42 43  1  0  0  0  0
 44 45  1  0  0  0  0
 44 42  2  0  0  0  0
 46 44  1  0  0  0  0
 47 46  1  0  0  0  0
 48 46  2  0  0  0  0
 48 50  1  0  0  0  0
 49 48  1  0  0  0  0
 50 40  2  0  0  0  0
M  END
