1,2
q = 0.0, confidence = 0.982

 66 67  0  0  1  0  0  0  0  0999 V2000
   -0.8078   -0.4314   -0.0433 P   0  0  0  0  0  0  0  0  0  0  0  0
    0.9788    1.9191    0.2123 N   0  0  0  0  0  2  0  0  0  0  0  0
    0.8017   -1.0326   -0.3342 N   0  0  0  0  0  0  0  0  0  0  0  0
   -1.6783   -1.8216   -0.5622 N   0  0  0  0  0  0  0  0  0  0  0  0
   -1.0166   -0.4352    1.6612 N   0  0  0  0  0  0  0  0  0  0  0  0
    1.8833   -0.3642   -0.0997 C   0  0  0  0  0  0  0  0  0  0  0  0
    1.9338    1.0027    0.5227 C   0  0  2  0  0  3  0  0  0  0  0  0
    2.9446    1.2966    1.4604 C   0  0  0  0  0  0  0  0  0  0  0  0
    3.6927    0.5278    1.6964 H   0  0  0  0  0  0  0  0  0  0  0  0
    2.9758    2.5491    2.0841 C   0  0  0  0  0  0  0  0  0  0  0  0
    3.7486    2.7812    2.8320 H   0  0  0  0  0  0  0  0  0  0  0  0
    2.0112    3.4976    1.7220 C   0  0  0  0  0  0  0  0  0  0  0  0
    2.0010    4.5065    2.1581 H   0  0  0  0  0  0  0  0  0  0  0  0
    1.0381    3.1477    0.7790 C   0  0  0  0  0  0  0  0  0  0  0  0
    0.2841    3.8628    0.4154 H   0  0  0  0  0  0  0  0  0  0  0  0
   -1.3416   -2.5597   -1.8089 C   0  0  0  0  0  0  0  0  0  0  0  0
   -2.2931   -3.0519   -2.1017 H   0  0  0  0  0  0  0  0  0  0  0  0
   -0.3161   -3.6793   -1.5777 C   0  0  0  0  0  0  0  0  0  0  0  0
   -0.6145   -4.3190   -0.7240 H   0  0  0  0  0  0  0  0  0  0  0  0
    0.6791   -3.2499   -1.3625 H   0  0  0  0  0  0  0  0  0  0  0  0
   -0.2401   -4.3213   -2.4797 H   0  0  0  0  0  0  0  0  0  0  0  0
   -0.9521   -1.6586   -2.9878 C   0  0  0  0  0  0  0  0  0  0  0  0
   -1.7436   -0.9178   -3.2101 H   0  0  0  0  0  0  0  0  0  0  0  0
   -0.7932   -2.2777   -3.8937 H   0  0  0  0  0  0  0  0  0  0  0  0
   -0.0145   -1.1028   -2.7896 H   0  0  0  0  0  0  0  0  0  0  0  0
   -3.0252   -2.0659   -0.0037 C   0  0  0  0  0  0  0  0  0  0  0  0
   -3.0764   -1.4425    0.9110 H   0  0  0  0  0  0  0  0  0  0  0  0
    3.1893   -1.0069   -0.4234 C   0  0  0  0  0  0  0  0  0  0  0  0
    3.3243   -2.4072   -0.2973 C   0  0  0  0  0  0  0  0  0  0  0  0
    2.4673   -2.9832    0.0810 H   0  0  0  0  0  0  0  0  0  0  0  0
    4.5259   -3.0379   -0.6387 C   0  0  0  0  0  0  0  0  0  0  0  0
    4.6237   -4.1280   -0.5242 H   0  0  0  0  0  0  0  0  0  0  0  0
    5.6058   -2.2814   -1.1265 C   0  0  0  0  0  0  0  0  0  0  0  0
    6.5489   -2.7786   -1.3997 H   0  0  0  0  0  0  0  0  0  0  0  0
    5.4784   -0.8903   -1.2662 C   0  0  0  0  0  0  0  0  0  0  0  0
    6.3157   -0.2960   -1.6620 H   0  0  0  0  0  0  0  0  0  0  0  0
    4.2817   -0.2533   -0.9090 C   0  0  0  0  0  0  0  0  0  0  0  0
    4.1812    0.8352   -1.0360 H   0  0  0  0  0  0  0  0  0  0  0  0
   -4.1806   -1.6337   -0.9186 C   0  0  0  0  0  0  0  0  0  0  0  0
   -4.1244   -0.5617   -1.1781 H   0  0  0  0  0  0  0  0  0  0  0  0
   -5.1517   -1.8150   -0.4149 H   0  0  0  0  0  0  0  0  0  0  0  0
   -4.1929   -2.2112   -1.8663 H   0  0  0  0  0  0  0  0  0  0  0  0
   -3.1927   -3.5303    0.4325 C   0  0  0  0  0  0  0  0  0  0  0  0
   -2.3759   -3.8493    1.1083 H   0  0  0  0  0  0  0  0  0  0  0  0
   -3.2033   -4.2170   -0.4388 H   0  0  0  0  0  0  0  0  0  0  0  0
   -4.1560   -3.6630    0.9652 H   0  0  0  0  0  0  0  0  0  0  0  0
   -0.6490   -1.6555    2.4146 C   0  0  0  0  0  0  0  0  0  0  0  0
   -0.5990   -2.4443    1.6322 H   0  0  0  0  0  0  0  0  0  0  0  0
    0.7443   -1.6007    3.0688 C   0  0  0  0  0  0  0  0  0  0  0  0
    1.5131   -1.2584    2.3521 H   0  0  0  0  0  0  0  0  0  0  0  0
    1.0340   -2.6148    3.4129 H   0  0  0  0  0  0  0  0  0  0  0  0
    0.7707   -0.9311    3.9492 H   0  0  0  0  0  0  0  0  0  0  0  0
   -1.7012   -2.1056    3.4372 C   0  0  0  0  0  0  0  0  0  0  0  0
   -2.7076   -2.1953    2.9873 H   0  0  0  0  0  0  0  0  0  0  0  0
   -1.7659   -1.4096    4.2971 H   0  0  0  0  0  0  0  0  0  0  0  0
   -1.4207   -3.0991    3.8418 H   0  0  0  0  0  0  0  0  0  0  0  0
   -1.5134    0.8132    2.2834 C   0  0  0  0  0  0  0  0  0  0  0  0
   -1.4134    1.5617    1.4601 H   0  0  0  0  0  0  0  0  0  0  0  0
   -0.6585    1.3106    3.4528 C   0  0  0  0  0  0  0  0  0  0  0  0
    0.4135    1.3538    3.1797 H   0  0  0  0  0  0  0  0  0  0  0  0
   -0.7611    0.6741    4.3553 H   0  0  0  0  0  0  0  0  0  0  0  0
   -0.9799    2.3328    3.7371 H   0  0  0  0  0  0  0  0  0  0  0  0
   -3.0107    0.7922    2.6279 C   0  0  0  0  0  0  0  0  0  0  0  0
   -3.6103    0.5234    1.7354 H   0  0  0  0  0  0  0  0  0  0  0  0
   -3.3338    1.8040    2.9480 H   0  0  0  0  0  0  0  0  0  0  0  0
   -3.2608    0.0872    3.4435 H   0  0  0  0  0  0  0  0  0  0  0  0
  1  5  1  0  0  0  0
  2  7  1  0  0  0  0
  2 14  1  0  0  0  0
  3  6  2  0  0  0  0
  3  1  1  0  0  0  0
  4  1  1  0  0  0  0
  4 26  1  0  0  0  0
  5 57  1  0  0  0  0
  5 47  1  0  0  0  0
  7  6  1  1  0  0  0
  7  8  1  0  0  0  0
  8  9  1  0  0  0  0
  8 10  2  0  0  0  0
 10 11  1  0  0  0  0
 12 10  1  0  0  0  0
 12 13  1  0  0  0  0
 14 12  2  0  0  0  0
 15 14  1  0  0  0  0
 16 18  1  0  0  0  0
 16  4  1  0  0  0  0
 17 16  1  0  0  0  0
 18 20  1  0  0  0  0
 18 19  1  0  0  0  0
 21 18  1  0  0  0  0
 22 25  1  0  0  0  0
 22 16  1  0  0  0  0
 23 22  1  0  0  0  0
 24 22  1  0  0  0  0
 26 43  1  0  0  0  0
 26 27  1  0  0  0  0
 28 29  1  0  0  0  0
 28  6  1  0  0  0  0
 29 30  1  0  0  0  0
 31 32  1  0  0  0  0
 31 29  2  0  0  0  0
 33 31  1  0  0  0  0
 34 33  1  0  0  0  0
 35 33  2  0  0  0  0
 35 37  1  0  0  0  0
 36 35  1  0  0  0  0
 37 28  2  0  0  0  0
 38 37  1  0  0  0  0
 39 41  1  0  0  0  0
 39 26  1  0  0  0  0
 40 39  1  0  0  0  0
 42 39  1  0  0  0  0
 43 46  1  0  0  0  0
 43 44  1  0  0  0  0
 45 43  1  0  0  0  0
 47 49  1  0  0  0  0
 47 53  1  0  0  0  0
 48 47  1  0  0  0  0
 49 51  1  0  0  0  0
 49 52  1  0  0  0  0
 50 49  1  0  0  0  0
 53 56  1  0  0  0  0
 53 55  1  0  0  0  0
 54 53  1  0  0  0  0
 57 63  1  0  0  0  0
 57 59  1  0  0  0  0
 58 57  1  0  0  0  0
 59 62  1  0  0  0  0
 59 61  1  0  0  0  0
 60 59  1  0  0  0  0
 63 65  1  0  0  0  0
 63 66  1  0  0  0  0
 64 63  1  0  0  0  0
M  END
