1,2
q = 0.0, confidence = 1.0

 35 35  0  0  1  0  0  0  0  0999 V2000
    0.8594   -0.8983    0.0176 P   0  0  0  0  0  0  0  0  0  0  0  0
   -1.7197    0.3322   -0.0638 N   0  0  0  0  0  2  0  0  0  0  0  0
   -3.1810   -1.3281   -0.1010 N   0  0  0  0  0  0  0  0  0  0  0  0
   -2.9778    0.8793    0.0499 C   0  0  0  0  0  0  0  0  0  0  0  0
   -3.0886    1.9681    0.1223 H   0  0  0  0  0  0  0  0  0  0  0  0
   -3.9015   -0.1459    0.0321 C   0  0  0  0  0  0  0  0  0  0  0  0
   -4.9939   -0.1465    0.0993 H   0  0  0  0  0  0  0  0  0  0  0  0
   -1.8551   -0.9998   -0.1530 C   0  0  1  0  0  3  0  0  0  0  0  0
   -0.6961   -1.9224   -0.3147 C   0  0  0  0  0  0  0  0  0  0  0  0
   -0.6357   -2.3089   -1.3561 H   0  0  0  0  0  0  0  0  0  0  0  0
   -0.7515   -2.8035    0.3586 H   0  0  0  0  0  0  0  0  0  0  0  0
   -3.7275   -2.6723   -0.1376 C   0  0  0  0  0  0  0  0  0  0  0  0
   -3.2287   -3.2691   -0.9256 H   0  0  0  0  0  0  0  0  0  0  0  0
   -4.8067   -2.6208   -0.3693 H   0  0  0  0  0  0  0  0  0  0  0  0
   -3.5977   -3.1886    0.8361 H   0  0  0  0  0  0  0  0  0  0  0  0
    2.1130   -1.5584   -1.2069 C   0  0  0  0  0  0  0  0  0  0  0  0
    3.0318   -0.9960   -0.9274 H   0  0  0  0  0  0  0  0  0  0  0  0
    1.7163   -1.1318   -2.6251 C   0  0  0  0  0  0  0  0  0  0  0  0
    2.5325   -1.3629   -3.3401 H   0  0  0  0  0  0  0  0  0  0  0  0
    1.4981   -0.0459   -2.6691 H   0  0  0  0  0  0  0  0  0  0  0  0
    0.8108   -1.6713   -2.9758 H   0  0  0  0  0  0  0  0  0  0  0  0
    2.3854   -3.0609   -1.0914 C   0  0  0  0  0  0  0  0  0  0  0  0
    1.4727   -3.6582   -1.2994 H   0  0  0  0  0  0  0  0  0  0  0  0
    2.7615   -3.3503   -0.0903 H   0  0  0  0  0  0  0  0  0  0  0  0
    3.1500   -3.3707   -1.8340 H   0  0  0  0  0  0  0  0  0  0  0  0
    1.4136   -1.5392    1.6923 C   0  0  0  0  0  0  0  0  0  0  0  0
    1.4729   -2.6480    1.6128 H   0  0  0  0  0  0  0  0  0  0  0  0
    0.3619   -1.1547    2.7400 C   0  0  0  0  0  0  0  0  0  0  0  0
    0.6707   -1.5110    3.7445 H   0  0  0  0  0  0  0  0  0  0  0  0
   -0.6347   -1.5901    2.5216 H   0  0  0  0  0  0  0  0  0  0  0  0
    0.2403   -0.0521    2.7756 H   0  0  0  0  0  0  0  0  0  0  0  0
    2.7942   -0.9751    2.0449 C   0  0  0  0  0  0  0  0  0  0  0  0
    2.7768    0.1340    2.0490 H   0  0  0  0  0  0  0  0  0  0  0  0
    3.5816   -1.3015    1.3364 H   0  0  0  0  0  0  0  0  0  0  0  0
    3.0971   -1.3119    3.0578 H   0  0  0  0  0  0  0  0  0  0  0  0
  1 26  1  0  0  0  0
  2  4  1  0  0  0  0
  3  6  1  0  0  0  0
  4  5  1  0  0  0  0
  6  4  2  0  0  0  0
  6  7  1  0  0  0  0
  8  9  1  6  0  0  0
  8  3  1  0  0  0  0
  8  2  1  0  0  0  0
  9  1  1  0  0  0  0
  9 11  1  0  0  0  0
 10  9  1  0  0  0  0
 12  3  1  0  0  0  0
 12 15  1  0  0  0  0
 13 12  1  0  0  0  0
 14 12  1  0  0  0  0
 16 22  1  0  0  0  0
 16 17  1  0  0  0  0
 16  1  1  0  0  0  0
 18 16  1  0  0  0  0
 19 18  1  0  0  0  0
 20 18  1  0  0  0  0
 21 18  1  0  0  0  0
 22 24  1  0  0  0  0
 23 22  1  0  0  0  0
 25 22  1  0  0  0  0
 26 32  1  0  0  0  0
 26 28  1  0  0  0  0
 27 26  1  0  0  0  0
 28 31  1  0  0  0  0
 28 29  1  0  0  0  0
 30 28  1  0  0  0  0
 32 33  1  0  0  0  0
 32 35  1  0  0  0  0
 34 32  1  0  0  0  0
M  END
