1,2
q = 0.0, confidence = 0.998

 38 39  0  0  0  0  0  0  0  0999 V2000
   -1.5379   -0.0164   -0.8000 P   0  0  0  0  0  0  0  0  0  0  0  0
   -1.4313   -2.9586   -0.6759 N   0  0  0  0  0  0  0  0  0  0  0  0
   -0.9374   -3.3137   -1.5148 H   0  0  0  0  0  0  0  0  0  0  0  0
   -1.5232   -3.7293    0.0022 H   0  0  0  0  0  0  0  0  0  0  0  0
   -2.8085   -2.4934   -1.0728 C   0  0  0  0  0  0  0  0  0  0  0  0
   -3.6561   -2.3459    0.1964 C   0  0  0  0  0  0  0  0  0  0  0  0
   -3.8351   -3.3371    0.6626 H   0  0  0  0  0  0  0  0  0  0  0  0
   -4.6385   -1.8973   -0.0481 H   0  0  0  0  0  0  0  0  0  0  0  0
   -3.1447   -1.7136    0.9469 H   0  0  0  0  0  0  0  0  0  0  0  0
   -3.4396   -3.5265   -2.0214 C   0  0  0  0  0  0  0  0  0  0  0  0
   -2.8330   -3.6459   -2.9430 H   0  0  0  0  0  0  0  0  0  0  0  0
   -4.4594   -3.2141   -2.3228 H   0  0  0  0  0  0  0  0  0  0  0  0
   -3.5230   -4.5162   -1.5259 H   0  0  0  0  0  0  0  0  0  0  0  0
   -2.6444   -1.1444   -1.8017 C   0  0  0  0  0  0  0  0  0  0  0  0
   -3.6303   -0.6900   -2.0224 H   0  0  0  0  0  0  0  0  0  0  0  0
   -2.1164   -1.3102   -2.7627 H   0  0  0  0  0  0  0  0  0  0  0  0
   -1.0182    1.2903   -2.0054 C   0  0  0  0  0  0  0  0  0  0  0  0
   -0.8624    2.6187   -1.5535 C   0  0  0  0  0  0  0  0  0  0  0  0
   -1.1584    2.8822   -0.5275 H   0  0  0  0  0  0  0  0  0  0  0  0
   -0.3354    3.6050   -2.3995 C   0  0  0  0  0  0  0  0  0  0  0  0
   -0.2149    4.6341   -2.0273 H   0  0  0  0  0  0  0  0  0  0  0  0
    0.0333    3.2832   -3.7152 C   0  0  0  0  0  0  0  0  0  0  0  0
    0.4455    4.0574   -4.3802 H   0  0  0  0  0  0  0  0  0  0  0  0
   -0.1278    1.9673   -4.1766 C   0  0  0  0  0  0  0  0  0  0  0  0
    0.1599    1.7039   -5.2061 H   0  0  0  0  0  0  0  0  0  0  0  0
   -0.6432    0.9746   -3.3289 C   0  0  0  0  0  0  0  0  0  0  0  0
   -0.7077   -0.0611   -3.6889 H   0  0  0  0  0  0  0  0  0  0  0  0
   -2.7140    0.9630    0.2431 C   0  0  0  0  0  0  0  0  0  0  0  0
   -3.8068    1.6348   -0.3467 C   0  0  0  0  0  0  0  0  0  0  0  0
   -3.9683    1.5763   -1.4350 H   0  0  0  0  0  0  0  0  0  0  0  0
   -4.6746    2.4027    0.4414 C   0  0  0  0  0  0  0  0  0  0  0  0
   -5.5244    2.9233   -0.0268 H   0  0  0  0  0  0  0  0  0  0  0  0
   -4.4526    2.5163    1.8254 C   0  0  0  0  0  0  0  0  0  0  0  0
   -5.1311    3.1252    2.4428 H   0  0  0  0  0  0  0  0  0  0  0  0
   -3.3651    1.8550    2.4139 C   0  0  0  0  0  0  0  0  0  0  0  0
   -3.1794    1.9415    3.4953 H   0  0  0  0  0  0  0  0  0  0  0  0
   -2.4993    1.0763    1.6282 C   0  0  0  0  0  0  0  0  0  0  0  0
   -1.6643    0.5314    2.0894 H   0  0  0  0  0  0  0  0  0  0  0  0
  1 28  1  0  0  0  0
  2  4  1  0  0  0  0
  3  2  1  0  0  0  0
  5  2  1  0  0  0  0
  5  6  1  0  0  0  0
  6  7  1  0  0  0  0
  6  9  1  0  0  0  0
  8  6  1  0  0  0  0
 10 13  1  0  0  0  0
 10  5  1  0  0  0  0
 11 10  1  0  0  0  0
 12 10  1  0  0  0  0
 14  5  1  0  0  0  0
 14  1  1  0  0  0  0
 15 14  1  0  0  0  0
 16 14  1  0  0  0  0
 17 18  1  0  0  0  0
 17  1  1  0  0  0  0
 18 19  1  0  0  0  0
 20 21  1  0  0  0  0
 20 18  2  0  0  0  0
 22 20  1  0  0  0  0
 23 22  1  0  0  0  0
 24 22  2  0  0  0  0
 24 26  1  0  0  0  0
 25 24  1  0  0  0  0
 26 17  2  0  0  0  0
 27 26  1  0  0  0  0
 28 37  1  0  0  0  0
 29 28  2  0  0  0  0
 29 31  1  0  0  0  0
 30 29  1  0  0  0  0
 31 33  2  0  0  0  0
 32 31  1  0  0  0  0
 33 35  1  0  0  0  0
 33 34  1  0  0  0  0
 35 36  1  0  0  0  0
 37 38  1  0  0  0  0
 37 35  2  0  0  0  0
M  END
