1,3
q = 0.0, confidence = 0.996

 63 63  0  0  1  0  0  0  0  0999 V2000
    1.9308    0.4928    0.4426 P   0  0  0  0  0  0  0  0  0  0  0  0
    0.9921    1.4649    1.5861 O   0  0  0  0  0  0  0  0  0  0  0  0
   -0.8281    0.4835    0.5926 N   0  0  0  0  0  2  0  0  0  0  0  0
   -2.2551    0.3182    0.5402 C   0  0  0  0  0  0  0  0  0  0  0  0
   -3.0539    1.2848   -0.1153 C   0  0  0  0  0  0  0  0  0  0  0  0
   -4.4478    1.0870   -0.1127 C   0  0  0  0  0  0  0  0  0  0  0  0
   -5.0955    1.8211   -0.6158 H   0  0  0  0  0  0  0  0  0  0  0  0
   -5.0204   -0.0309    0.5048 C   0  0  0  0  0  0  0  0  0  0  0  0
   -6.1129   -0.1636    0.4969 H   0  0  0  0  0  0  0  0  0  0  0  0
   -4.2025   -0.9943    1.1114 C   0  0  0  0  0  0  0  0  0  0  0  0
   -4.6570   -1.8873    1.5650 H   0  0  0  0  0  0  0  0  0  0  0  0
   -2.8061   -0.8471    1.1295 C   0  0  0  0  0  0  0  0  0  0  0  0
   -2.4415    2.4569   -0.8713 C   0  0  0  0  0  0  0  0  0  0  0  0
   -1.3670    2.5045   -0.6031 H   0  0  0  0  0  0  0  0  0  0  0  0
   -2.5055    2.1991   -2.3882 C   0  0  0  0  0  0  0  0  0  0  0  0
   -2.0338    1.2278   -2.6395 H   0  0  0  0  0  0  0  0  0  0  0  0
   -1.9876    3.0074   -2.9452 H   0  0  0  0  0  0  0  0  0  0  0  0
   -3.5583    2.1641   -2.7377 H   0  0  0  0  0  0  0  0  0  0  0  0
   -3.0736    3.8057   -0.4953 C   0  0  0  0  0  0  0  0  0  0  0  0
   -4.1393    3.8572   -0.7996 H   0  0  0  0  0  0  0  0  0  0  0  0
   -2.5483    4.6377   -1.0074 H   0  0  0  0  0  0  0  0  0  0  0  0
   -3.0317    3.9919    0.5975 H   0  0  0  0  0  0  0  0  0  0  0  0
   -1.8909   -1.8945    1.7475 C   0  0  0  0  0  0  0  0  0  0  0  0
   -0.9053   -1.7578    1.2508 H   0  0  0  0  0  0  0  0  0  0  0  0
   -1.6985   -1.6551    3.2547 C   0  0  0  0  0  0  0  0  0  0  0  0
   -1.2989   -0.6419    3.4657 H   0  0  0  0  0  0  0  0  0  0  0  0
   -0.9917   -2.3944    3.6852 H   0  0  0  0  0  0  0  0  0  0  0  0
   -2.6618   -1.7496    3.7983 H   0  0  0  0  0  0  0  0  0  0  0  0
   -2.3379   -3.3289    1.4476 C   0  0  0  0  0  0  0  0  0  0  0  0
   -3.2978   -3.5835    1.9434 H   0  0  0  0  0  0  0  0  0  0  0  0
   -1.5786   -4.0493    1.8143 H   0  0  0  0  0  0  0  0  0  0  0  0
   -2.4514   -3.4726    0.3552 H   0  0  0  0  0  0  0  0  0  0  0  0
   -0.3306    1.2951    1.4953 C   0  0  2  0  0  3  0  0  0  0  0  0
   -1.1097    2.1153    2.4739 C   0  0  0  0  0  0  0  0  0  0  0  0
   -1.1658    3.1637    2.1123 H   0  0  0  0  0  0  0  0  0  0  0  0
   -0.5848    2.1278    3.4479 H   0  0  0  0  0  0  0  0  0  0  0  0
   -2.1385    1.7321    2.5874 H   0  0  0  0  0  0  0  0  0  0  0  0
    3.0106   -0.4356    1.7058 C   0  0  0  0  0  0  0  0  0  0  0  0
    2.1977   -1.7000    2.0494 C   0  0  0  0  0  0  0  0  0  0  0  0
    2.7545   -2.2915    2.8066 H   0  0  0  0  0  0  0  0  0  0  0  0
    2.0360   -2.3339    1.1559 H   0  0  0  0  0  0  0  0  0  0  0  0
    1.2087   -1.4474    2.4822 H   0  0  0  0  0  0  0  0  0  0  0  0
    3.2353    0.3927    2.9833 C   0  0  0  0  0  0  0  0  0  0  0  0
    2.2841    0.6645    3.4767 H   0  0  0  0  0  0  0  0  0  0  0  0
    3.8063    1.3208    2.7966 H   0  0  0  0  0  0  0  0  0  0  0  0
    3.8248   -0.2262    3.6919 H   0  0  0  0  0  0  0  0  0  0  0  0
    4.3630   -0.8284    1.0875 C   0  0  0  0  0  0  0  0  0  0  0  0
    5.0131    0.0528    0.9211 H   0  0  0  0  0  0  0  0  0  0  0  0
    4.2333   -1.3675    0.1298 H   0  0  0  0  0  0  0  0  0  0  0  0
    4.8911   -1.4997    1.7972 H   0  0  0  0  0  0  0  0  0  0  0  0
    2.7814    1.9487   -0.4342 C   0  0  0  0  0  0  0  0  0  0  0  0
    3.4347    2.9006    0.5810 C   0  0  0  0  0  0  0  0  0  0  0  0
    4.3317    2.4518    1.0504 H   0  0  0  0  0  0  0  0  0  0  0  0
    2.7318    3.2111    1.3775 H   0  0  0  0  0  0  0  0  0  0  0  0
    3.7684    3.8136    0.0443 H   0  0  0  0  0  0  0  0  0  0  0  0
    3.8188    1.4764   -1.4659 C   0  0  0  0  0  0  0  0  0  0  0  0
    3.3756    0.7862   -2.2076 H   0  0  0  0  0  0  0  0  0  0  0  0
    4.6806    0.9665   -0.9974 H   0  0  0  0  0  0  0  0  0  0  0  0
    4.2049    2.3715   -1.9982 H   0  0  0  0  0  0  0  0  0  0  0  0
    1.6288    2.6595   -1.1737 C   0  0  0  0  0  0  0  0  0  0  0  0
    2.0443    3.5066   -1.7583 H   0  0  0  0  0  0  0  0  0  0  0  0
    0.8748    3.0716   -0.4746 H   0  0  0  0  0  0  0  0  0  0  0  0
    1.1174    1.9706   -1.8759 H   0  0  0  0  0  0  0  0  0  0  0  0
  1  2  1  0  0  0  0
  1 38  1  0  0  0  0
  4  3  1  0  0  0  0
  4 12  1  0  0  0  0
  5  6  1  0  0  0  0
  5  4  2  0  0  0  0
  6  8  2  0  0  0  0
  7  6  1  0  0  0  0
  8 10  1  0  0  0  0
  9  8  1  0  0  0  0
 10 12  2  0  0  0  0
 10 11  1  0  0  0  0
 12 23  1  0  0  0  0
 13 14  1  0  0  0  0
 13 19  1  0  0  0  0
 13  5  1  0  0  0  0
 15 13  1  0  0  0  0
 16 15  1  0  0  0  0
 17 15  1  0  0  0  0
 18 15  1  0  0  0  0
 19 22  1  0  0  0  0
 20 19  1  0  0  0  0
 21 19  1  0  0  0  0
 23 25  1  0  0  0  0
 24 23  1  0  0  0  0
 25 26  1  0  0  0  0
 25 27  1  0  0  0  0
 25 28  1  0  0  0  0
 29 23  1  0  0  0  0
 29 31  1  0  0  0  0
 29 30  1  0  0  0  0
 32 29  1  0  0  0  0
 33  3  1  6  0  0  0
 33  2  1  0  0  0  0
 33 34  1  0  0  0  0
 34 37  1  0  0  0  0
 34 36  1  0  0  0  0
 35 34  1  0  0  0  0
 38 39  1  0  0  0  0
 38 43  1  0  0  0  0
 39 42  1  0  0  0  0
 39 40  1  0  0  0  0
 41 39  1  0  0  0  0
 43 44  1  0  0  0  0
 43 46  1  0  0  0  0
 45 43  1  0  0  0  0
 47 38  1  0  0  0  0
 47 50  1  0  0  0  0
 48 47  1  0  0  0  0
 49 47  1  0  0  0  0
 51  1  1  0  0  0  0
 51 52  1  0  0  0  0
 52 53  1  0  0  0  0
 52 54  1  0  0  0  0
 55 52  1  0  0  0  0
 56 58  1  0  0  0  0
 56 51  1  0  0  0  0
 57 56  1  0  0  0  0
 59 56  1  0  0  0  0
 60 62  1  0  0  0  0
 60 51  1  0  0  0  0
 61 60  1  0  0  0  0
 63 60  1  0  0  0  0
M  END
