1,3
q = 0.0, confidence = 0.992

 66 66  0  0  1  0  0  0  0  0999 V2000
   -2.0575    0.7232   -0.1012 P   0  0  0  0  0  0  0  0  0  0  0  0
   -0.9468    2.0470   -0.4553 O   0  0  0  0  0  0  0  0  0  0  0  0
    0.6831    0.4792   -0.1659 N   0  0  0  0  0  2  0  0  0  0  0  0
    2.0411    0.0269   -0.1014 C   0  0  0  0  0  0  0  0  0  0  0  0
    2.7798    0.1957    1.0957 C   0  0  0  0  0  0  0  0  0  0  0  0
    4.1096   -0.2626    1.1092 C   0  0  0  0  0  0  0  0  0  0  0  0
    4.7126   -0.1369    2.0209 H   0  0  0  0  0  0  0  0  0  0  0  0
    4.6753   -0.8803   -0.0129 C   0  0  0  0  0  0  0  0  0  0  0  0
    5.7213   -1.2212    0.0162 H   0  0  0  0  0  0  0  0  0  0  0  0
    3.8979   -1.1020   -1.1572 C   0  0  0  0  0  0  0  0  0  0  0  0
    4.3321   -1.6375   -2.0141 H   0  0  0  0  0  0  0  0  0  0  0  0
    2.5595   -0.6800   -1.2157 C   0  0  0  0  0  0  0  0  0  0  0  0
    2.1513    0.7880    2.3517 C   0  0  0  0  0  0  0  0  0  0  0  0
    1.2206    1.3077    2.0455 H   0  0  0  0  0  0  0  0  0  0  0  0
    1.7335   -0.3355    3.3191 C   0  0  0  0  0  0  0  0  0  0  0  0
    1.2008    0.0833    4.1982 H   0  0  0  0  0  0  0  0  0  0  0  0
    2.6246   -0.8853    3.6867 H   0  0  0  0  0  0  0  0  0  0  0  0
    1.0773   -1.0717    2.8135 H   0  0  0  0  0  0  0  0  0  0  0  0
    3.0491    1.8200    3.0507 C   0  0  0  0  0  0  0  0  0  0  0  0
    3.3827    2.6207    2.3593 H   0  0  0  0  0  0  0  0  0  0  0  0
    3.9582    1.3494    3.4777 H   0  0  0  0  0  0  0  0  0  0  0  0
    2.5067    2.2973    3.8923 H   0  0  0  0  0  0  0  0  0  0  0  0
    1.6715   -0.9998   -2.4128 C   0  0  0  0  0  0  0  0  0  0  0  0
    0.6298   -0.9692   -2.0239 H   0  0  0  0  0  0  0  0  0  0  0  0
    1.7904    0.0471   -3.5319 C   0  0  0  0  0  0  0  0  0  0  0  0
    2.8282    0.0986   -3.9228 H   0  0  0  0  0  0  0  0  0  0  0  0
    1.5164    1.0616   -3.1813 H   0  0  0  0  0  0  0  0  0  0  0  0
    1.1213   -0.2075   -4.3797 H   0  0  0  0  0  0  0  0  0  0  0  0
    1.8998   -2.4179   -2.9500 C   0  0  0  0  0  0  0  0  0  0  0  0
    1.7998   -3.1572   -2.1315 H   0  0  0  0  0  0  0  0  0  0  0  0
    2.8992   -2.5324   -3.4190 H   0  0  0  0  0  0  0  0  0  0  0  0
    1.1448   -2.6553   -3.7270 H   0  0  0  0  0  0  0  0  0  0  0  0
    0.3546    1.7232   -0.4408 C   0  0  2  0  0  3  0  0  0  0  0  0
    1.2065    2.9750   -0.7332 C   0  0  0  0  0  0  0  0  0  0  0  0
    2.7149    2.7534   -0.9339 C   0  0  0  0  0  0  0  0  0  0  0  0
    2.9350    2.0323   -1.7411 H   0  0  0  0  0  0  0  0  0  0  0  0
    3.2222    2.3956   -0.0219 H   0  0  0  0  0  0  0  0  0  0  0  0
    3.1632    3.7278   -1.2150 H   0  0  0  0  0  0  0  0  0  0  0  0
    0.6380    3.6367   -2.0147 C   0  0  0  0  0  0  0  0  0  0  0  0
   -0.4334    3.8851   -1.9045 H   0  0  0  0  0  0  0  0  0  0  0  0
    0.7536    2.9742   -2.8956 H   0  0  0  0  0  0  0  0  0  0  0  0
    1.1983    4.5706   -2.2179 H   0  0  0  0  0  0  0  0  0  0  0  0
    0.9928    3.9417    0.4607 C   0  0  0  0  0  0  0  0  0  0  0  0
    1.3683    3.5054    1.4065 H   0  0  0  0  0  0  0  0  0  0  0  0
   -0.0772    4.1941    0.5888 H   0  0  0  0  0  0  0  0  0  0  0  0
    1.5521    4.8801    0.2733 H   0  0  0  0  0  0  0  0  0  0  0  0
   -3.0771    0.8855   -1.6497 C   0  0  0  0  0  0  0  0  0  0  0  0
   -3.0849    1.9858   -1.8165 H   0  0  0  0  0  0  0  0  0  0  0  0
   -2.3166    0.2049   -2.7954 C   0  0  0  0  0  0  0  0  0  0  0  0
   -2.8530    0.3617   -3.7536 H   0  0  0  0  0  0  0  0  0  0  0  0
   -2.2367   -0.8863   -2.6154 H   0  0  0  0  0  0  0  0  0  0  0  0
   -1.2906    0.6075   -2.9114 H   0  0  0  0  0  0  0  0  0  0  0  0
   -4.5149    0.3776   -1.5119 C   0  0  0  0  0  0  0  0  0  0  0  0
   -4.5314   -0.7107   -1.3114 H   0  0  0  0  0  0  0  0  0  0  0  0
   -5.0635    0.5705   -2.4570 H   0  0  0  0  0  0  0  0  0  0  0  0
   -5.0667    0.8836   -0.6951 H   0  0  0  0  0  0  0  0  0  0  0  0
   -2.9627    1.5045    1.3200 C   0  0  0  0  0  0  0  0  0  0  0  0
   -3.8230    0.8188    1.4735 H   0  0  0  0  0  0  0  0  0  0  0  0
   -3.4583    2.9195    1.0064 C   0  0  0  0  0  0  0  0  0  0  0  0
   -2.6132    3.5991    0.7786 H   0  0  0  0  0  0  0  0  0  0  0  0
   -3.9935    3.3285    1.8878 H   0  0  0  0  0  0  0  0  0  0  0  0
   -4.1613    2.9448    0.1504 H   0  0  0  0  0  0  0  0  0  0  0  0
   -2.0563    1.4416    2.5560 C   0  0  0  0  0  0  0  0  0  0  0  0
   -2.5944    1.8316    3.4438 H   0  0  0  0  0  0  0  0  0  0  0  0
   -1.1443    2.0582    2.4159 H   0  0  0  0  0  0  0  0  0  0  0  0
   -1.7413    0.4005    2.7670 H   0  0  0  0  0  0  0  0  0  0  0  0
  1 57  1  0  0  0  0
  2  1  1  0  0  0  0
  3  4  1  0  0  0  0
  4  5  1  0  0  0  0
  5  6  2  0  0  0  0
  5 13  1  0  0  0  0
  6  7  1  0  0  0  0
  8  9  1  0  0  0  0
  8  6  1  0  0  0  0
 10  8  2  0  0  0  0
 11 10  1  0  0  0  0
 12 10  1  0  0  0  0
 12  4  2  0  0  0  0
 13 19  1  0  0  0  0
 13 15  1  0  0  0  0
 14 13  1  0  0  0  0
 15 17  1  0  0  0  0
 15 16  1  0  0  0  0
 18 15  1  0  0  0  0
 19 21  1  0  0  0  0
 19 22  1  0  0  0  0
 20 19  1  0  0  0  0
 23 24  1  0  0  0  0
 23 12  1  0  0  0  0
 25 27  1  0  0  0  0
 25 23  1  0  0  0  0
 26 25  1  0  0  0  0
 28 25  1  0  0  0  0
 29 23  1  0  0  0  0
 29 30  1  0  0  0  0
 31 29  1  0  0  0  0
 32 29  1  0  0  0  0
 33  2  1  1  0  0  0
 33  3  1  0  0  0  0
 34 33  1  0  0  0  0
 34 43  1  0  0  0  0
 35 34  1  0  0  0  0
 35 37  1  0  0  0  0
 36 35  1  0  0  0  0
 38 35  1  0  0  0  0
 39 40  1  0  0  0  0
 39 34  1  0  0  0  0
 41 39  1  0  0  0  0
 42 39  1  0  0  0  0
 43 45  1  0  0  0  0
 43 44  1  0  0  0  0
 46 43  1  0  0  0  0
 47 53  1  0  0  0  0
 47  1  1  0  0  0  0
 48 47  1  0  0  0  0
 49 51  1  0  0  0  0
 49 47  1  0  0  0  0
 50 49  1  0  0  0  0
 52 49  1  0  0  0  0
 53 54  1  0  0  0  0
 53 56  1  0  0  0  0
 55 53  1  0  0  0  0
 57 58  1  0  0  0  0
 57 63  1  0  0  0  0
 59 57  1  0  0  0  0
 59 61  1  0  0  0  0
 60 59  1  0  0  0  0
 62 59  1  0  0  0  0
 63 66  1  0  0  0  0
 63 64  1  0  0  0  0
 65 63  1  0  0  0  0
M  END
