1,5
q = 0.0, confidence = 0.998

 41 44  0  0  1  0  0  0  0  0999 V2000
    0.6163    0.0215   -0.1387 P   0  0  1  0  0  0  0  0  0  0  0  0
   -2.5105    2.5847    1.8739 O   0  0  0  0  0  0  0  0  0  0  0  0
    0.5694    1.2603    0.9941 O   0  0  0  0  0  0  0  0  0  0  0  0
    1.6764    0.6525   -1.2830 O   0  0  0  0  0  0  0  0  0  0  0  0
   -2.3675    0.8171    0.4724 N   0  0  0  0  0  2  0  0  0  0  0  0
   -4.6992    1.2102   -0.2112 C   0  0  0  0  0  0  0  0  0  0  0  0
   -4.4289    2.2224   -0.5747 H   0  0  0  0  0  0  0  0  0  0  0  0
   -5.7549    1.2286    0.1290 H   0  0  0  0  0  0  0  0  0  0  0  0
   -4.5952    0.4857   -1.0425 H   0  0  0  0  0  0  0  0  0  0  0  0
   -4.1519   -0.5957    1.4857 C   0  0  0  0  0  0  0  0  0  0  0  0
   -3.4447   -0.9087    2.2799 H   0  0  0  0  0  0  0  0  0  0  0  0
   -4.1147   -1.3307    0.6575 H   0  0  0  0  0  0  0  0  0  0  0  0
   -5.1763   -0.5809    1.9106 H   0  0  0  0  0  0  0  0  0  0  0  0
   -3.7872    0.7891    0.9501 C   0  0  0  0  0  0  0  0  0  0  0  0
   -3.7606    1.8693    2.0713 C   0  0  0  0  0  0  0  0  0  0  0  0
   -4.5914    2.5972    2.0038 H   0  0  0  0  0  0  0  0  0  0  0  0
   -3.7346    1.4313    3.0916 H   0  0  0  0  0  0  0  0  0  0  0  0
   -1.7952    1.8419    1.0080 C   0  0  2  0  0  3  0  0  0  0  0  0
   -0.3781    2.3023    0.7678 C   0  0  0  0  0  0  0  0  0  0  0  0
   -0.2936    2.7099   -0.2646 H   0  0  0  0  0  0  0  0  0  0  0  0
   -0.1456    3.1131    1.4832 H   0  0  0  0  0  0  0  0  0  0  0  0
    2.9699    0.9929   -0.9463 C   0  0  0  0  0  0  0  0  0  0  0  0
    3.5454    2.0424   -1.6804 C   0  0  0  0  0  0  0  0  0  0  0  0
    2.9365    2.5222   -2.4598 H   0  0  0  0  0  0  0  0  0  0  0  0
    4.8541    2.4530   -1.4078 C   0  0  0  0  0  0  0  0  0  0  0  0
    5.2981    3.2800   -1.9817 H   0  0  0  0  0  0  0  0  0  0  0  0
    5.5876    1.8173   -0.3905 C   0  0  0  0  0  0  0  0  0  0  0  0
    6.6095    2.1472   -0.1534 H   0  0  0  0  0  0  0  0  0  0  0  0
    5.0134    0.7632    0.3250 C   0  0  0  0  0  0  0  0  0  0  0  0
    5.5933    0.2834    1.1262 H   0  0  0  0  0  0  0  0  0  0  0  0
    3.6990    0.3071    0.0628 C   0  0  0  0  0  0  0  0  0  0  0  0
    3.1191   -0.8577    0.7621 C   0  0  0  0  0  0  0  0  0  0  0  0
    3.9258   -1.7921    1.4540 C   0  0  0  0  0  0  0  0  0  0  0  0
    5.0167   -1.6597    1.4723 H   0  0  0  0  0  0  0  0  0  0  0  0
    3.3668   -2.9054    2.0910 C   0  0  0  0  0  0  0  0  0  0  0  0
    4.0256   -3.6129    2.6170 H   0  0  0  0  0  0  0  0  0  0  0  0
    1.9813   -3.1391    2.0445 C   0  0  0  0  0  0  0  0  0  0  0  0
    1.5473   -4.0230    2.5342 H   0  0  0  0  0  0  0  0  0  0  0  0
    1.1613   -2.2419    1.3514 C   0  0  0  0  0  0  0  0  0  0  0  0
    0.0747   -2.4105    1.2739 H   0  0  0  0  0  0  0  0  0  0  0  0
    1.7202   -1.1113    0.7283 C   0  0  0  0  0  0  0  0  0  0  0  0
  1 41  1  0  0  0  0
  1  3  1  1  0  0  0
  2 15  1  0  0  0  0
  4 22  1  0  0  0  0
  4  1  1  0  0  0  0
  5 14  1  0  0  0  0
  5 18  1  0  0  0  0
  6  8  1  0  0  0  0
  6 14  1  0  0  0  0
  7  6  1  0  0  0  0
  9  6  1  0  0  0  0
 10 13  1  0  0  0  0
 10 11  1  0  0  0  0
 12 10  1  0  0  0  0
 14 10  1  0  0  0  0
 14 15  1  0  0  0  0
 15 17  1  0  0  0  0
 16 15  1  0  0  0  0
 18 19  1  1  0  0  0
 18  2  1  0  0  0  0
 19  3  1  0  0  0  0
 19 21  1  0  0  0  0
 20 19  1  0  0  0  0
 22 31  1  0  0  0  0
 23 25  1  0  0  0  0
 23 22  2  0  0  0  0
 24 23  1  0  0  0  0
 25 27  2  0  0  0  0
 26 25  1  0  0  0  0
 27 28  1  0  0  0  0
 27 29  1  0  0  0  0
 29 30  1  0  0  0  0
 31 29  2  0  0  0  0
 31 32  1  0  0  0  0
 32 33  1  0  0  0  0
 33 34  1  0  0  0  0
 33 35  2  0  0  0  0
 35 36  1  0  0  0  0
 37 35  1  0  0  0  0
 37 38  1  0  0  0  0
 39 37  2  0  0  0  0
 40 39  1  0  0  0  0
 41 32  2  0  0  0  0
 41 39  1  0  0  0  0
M  END
