1,3
q = 0.0, confidence = 1.0

 42 43  0  0  1  0  0  0  0  0999 V2000
   -0.8100    0.9245    0.3731 P   0  0  2  0  0  0  0  0  0  0  0  0
    0.6816    0.6036    2.7011 O   0  0  0  0  0  0  0  0  0  0  0  0
    1.2737   -1.2882    0.1214 N   0  0  0  0  0  2  0  0  0  0  0  0
    1.8460   -1.0442    1.3278 C   0  0  1  0  0  3  0  0  0  0  0  0
    3.2437   -0.9994    1.4566 C   0  0  0  0  0  0  0  0  0  0  0  0
    3.6801   -0.7968    2.4452 H   0  0  0  0  0  0  0  0  0  0  0  0
    4.0566   -1.2085    0.3366 C   0  0  0  0  0  0  0  0  0  0  0  0
    5.1524   -1.1672    0.4247 H   0  0  0  0  0  0  0  0  0  0  0  0
    3.4452   -1.4873   -0.8926 C   0  0  0  0  0  0  0  0  0  0  0  0
    4.0346   -1.6799   -1.7998 H   0  0  0  0  0  0  0  0  0  0  0  0
    2.0498   -1.5279   -0.9587 C   0  0  0  0  0  0  0  0  0  0  0  0
    1.5126   -1.7780   -1.8839 H   0  0  0  0  0  0  0  0  0  0  0  0
    0.9544   -0.7878    2.5239 C   0  0  0  0  0  0  0  0  0  0  0  0
    0.0171   -1.3801    2.4205 H   0  0  0  0  0  0  0  0  0  0  0  0
    1.4859   -1.1187    3.4395 H   0  0  0  0  0  0  0  0  0  0  0  0
   -0.5650    1.0669    2.2350 C   0  0  0  0  0  0  0  0  0  0  0  0
   -0.6433    2.1268    2.5523 H   0  0  0  0  0  0  0  0  0  0  0  0
   -1.4141    0.5053    2.6893 H   0  0  0  0  0  0  0  0  0  0  0  0
    0.6659    1.7372   -0.3610 C   0  0  0  0  0  0  0  0  0  0  0  0
    1.5637    2.5331    0.3798 C   0  0  0  0  0  0  0  0  0  0  0  0
    1.4184    2.6795    1.4586 H   0  0  0  0  0  0  0  0  0  0  0  0
    2.6738    3.1158   -0.2516 C   0  0  0  0  0  0  0  0  0  0  0  0
    3.3730    3.7289    0.3372 H   0  0  0  0  0  0  0  0  0  0  0  0
    2.8948    2.9189   -1.6235 C   0  0  0  0  0  0  0  0  0  0  0  0
    3.7652    3.3805   -2.1139 H   0  0  0  0  0  0  0  0  0  0  0  0
    2.0079    2.1227   -2.3659 C   0  0  0  0  0  0  0  0  0  0  0  0
    2.1798    1.9555   -3.4400 H   0  0  0  0  0  0  0  0  0  0  0  0
    0.9061    1.5259   -1.7371 C   0  0  0  0  0  0  0  0  0  0  0  0
    0.2311    0.8704   -2.3102 H   0  0  0  0  0  0  0  0  0  0  0  0
   -2.2531    2.1106    0.0098 C   0  0  0  0  0  0  0  0  0  0  0  0
   -2.6458    1.9328   -1.4661 C   0  0  0  0  0  0  0  0  0  0  0  0
   -1.8165    2.2139   -2.1460 H   0  0  0  0  0  0  0  0  0  0  0  0
   -3.5022    2.6028   -1.6923 H   0  0  0  0  0  0  0  0  0  0  0  0
   -2.9499    0.8870   -1.6690 H   0  0  0  0  0  0  0  0  0  0  0  0
   -1.8065    3.5590    0.2677 C   0  0  0  0  0  0  0  0  0  0  0  0
   -1.4819    3.7305    1.3144 H   0  0  0  0  0  0  0  0  0  0  0  0
   -2.6697    4.2319    0.0802 H   0  0  0  0  0  0  0  0  0  0  0  0
   -0.9831    3.8688   -0.4049 H   0  0  0  0  0  0  0  0  0  0  0  0
   -3.4279    1.7332    0.9310 C   0  0  0  0  0  0  0  0  0  0  0  0
   -3.7046    0.6682    0.8011 H   0  0  0  0  0  0  0  0  0  0  0  0
   -4.3053    2.3573    0.6592 H   0  0  0  0  0  0  0  0  0  0  0  0
   -3.2049    1.9317    1.9989 H   0  0  0  0  0  0  0  0  0  0  0  0
  1 30  1  6  0  0  0
  1 16  1  0  0  0  0
  3  4  1  0  0  0  0
  4  5  1  0  0  0  0
  4 13  1  6  0  0  0
  5  6  1  0  0  0  0
  7  8  1  0  0  0  0
  7  5  2  0  0  0  0
  9  7  1  0  0  0  0
 10  9  1  0  0  0  0
 11  9  2  0  0  0  0
 11  3  1  0  0  0  0
 12 11  1  0  0  0  0
 13  2  1  0  0  0  0
 13 15  1  0  0  0  0
 14 13  1  0  0  0  0
 16 17  1  0  0  0  0
 16 18  1  0  0  0  0
 16  2  1  0  0  0  0
 19  1  1  0  0  0  0
 19 20  1  0  0  0  0
 20 21  1  0  0  0  0
 22 23  1  0  0  0  0
 22 20  2  0  0  0  0
 24 22  1  0  0  0  0
 25 24  1  0  0  0  0
 26 28  1  0  0  0  0
 26 24  2  0  0  0  0
 27 26  1  0  0  0  0
 28 19  2  0  0  0  0
 29 28  1  0  0  0  0
 30 35  1  0  0  0  0
 30 39  1  0  0  0  0
 31 30  1  0  0  0  0
 32 31  1  0  0  0  0
 33 31  1  0  0  0  0
 34 31  1  0  0  0  0
 35 36  1  0  0  0  0
 37 35  1  0  0  0  0
 38 35  1  0  0  0  0
 39 42  1  0  0  0  0
 40 39  1  0  0  0  0
 41 39  1  0  0  0  0
M  END
