1,3
q = 0.0, confidence = 1.0

 46 47  0  0  1  0  0  0  0  0999 V2000
   -1.2407   -0.0988    0.6169 P   0  0  2  0  0  0  0  0  0  0  0  0
    1.8421    1.4770    2.5456 O   0  0  0  0  0  0  0  0  0  0  0  0
    1.5836   -0.0418    0.9103 N   0  0  0  0  0  2  0  0  0  0  0  0
    1.0358    0.6615    1.8564 C   0  0  2  0  0  3  0  0  0  0  0  0
    3.1966    1.2134    2.0484 C   0  0  0  0  0  0  0  0  0  0  0  0
    3.7411    0.6769    2.8513 H   0  0  0  0  0  0  0  0  0  0  0  0
    3.6811    2.1915    1.8676 H   0  0  0  0  0  0  0  0  0  0  0  0
    2.9957    0.3615    0.7705 C   0  0  2  0  0  0  0  0  0  0  0  0
    3.6156   -0.5571    0.7665 H   0  0  0  0  0  0  0  0  0  0  0  0
    3.2273    1.0969   -0.5708 C   0  0  0  0  0  0  0  0  0  0  0  0
    2.9662    0.3371   -1.3388 H   0  0  0  0  0  0  0  0  0  0  0  0
    2.3176    2.3153   -0.7515 C   0  0  0  0  0  0  0  0  0  0  0  0
    1.2454    2.0344   -0.7178 H   0  0  0  0  0  0  0  0  0  0  0  0
    2.4984    2.7866   -1.7380 H   0  0  0  0  0  0  0  0  0  0  0  0
    2.4970    3.0965    0.0190 H   0  0  0  0  0  0  0  0  0  0  0  0
    4.7109    1.4427   -0.7319 C   0  0  0  0  0  0  0  0  0  0  0  0
    5.0546    2.1843    0.0220 H   0  0  0  0  0  0  0  0  0  0  0  0
    4.8999    1.8853   -1.7300 H   0  0  0  0  0  0  0  0  0  0  0  0
    5.3475    0.5393   -0.6398 H   0  0  0  0  0  0  0  0  0  0  0  0
   -0.4220    0.5965    2.1598 C   0  0  0  0  0  0  0  0  0  0  0  0
   -0.8041    1.5793    2.4962 H   0  0  0  0  0  0  0  0  0  0  0  0
   -0.5965   -0.1255    2.9856 H   0  0  0  0  0  0  0  0  0  0  0  0
   -1.7068    1.3588   -0.3902 C   0  0  0  0  0  0  0  0  0  0  0  0
   -2.0181    2.6217    0.1546 C   0  0  0  0  0  0  0  0  0  0  0  0
   -1.9924    2.7881    1.2421 H   0  0  0  0  0  0  0  0  0  0  0  0
   -2.3593    3.6881   -0.6915 C   0  0  0  0  0  0  0  0  0  0  0  0
   -2.5936    4.6730   -0.2601 H   0  0  0  0  0  0  0  0  0  0  0  0
   -2.3986    3.4989   -2.0819 C   0  0  0  0  0  0  0  0  0  0  0  0
   -2.6631    4.3381   -2.7430 H   0  0  0  0  0  0  0  0  0  0  0  0
   -2.0947    2.2410   -2.6279 C   0  0  0  0  0  0  0  0  0  0  0  0
   -2.1203    2.0898   -3.7175 H   0  0  0  0  0  0  0  0  0  0  0  0
   -1.7436    1.1728   -1.7909 C   0  0  0  0  0  0  0  0  0  0  0  0
   -1.4906    0.1837   -2.2095 H   0  0  0  0  0  0  0  0  0  0  0  0
   -2.8387   -0.9104    1.2143 C   0  0  0  0  0  0  0  0  0  0  0  0
   -2.4372   -2.2676    1.8162 C   0  0  0  0  0  0  0  0  0  0  0  0
   -1.9529   -2.9049    1.0499 H   0  0  0  0  0  0  0  0  0  0  0  0
   -3.3449   -2.7862    2.1898 H   0  0  0  0  0  0  0  0  0  0  0  0
   -1.7394   -2.1612    2.6730 H   0  0  0  0  0  0  0  0  0  0  0  0
   -3.5367   -0.0111    2.2461 C   0  0  0  0  0  0  0  0  0  0  0  0
   -2.9471    0.1145    3.1765 H   0  0  0  0  0  0  0  0  0  0  0  0
   -4.5030   -0.4770    2.5331 H   0  0  0  0  0  0  0  0  0  0  0  0
   -3.7655    0.9917    1.8315 H   0  0  0  0  0  0  0  0  0  0  0  0
   -3.7448   -1.1170   -0.0121 C   0  0  0  0  0  0  0  0  0  0  0  0
   -4.0785   -0.1517   -0.4418 H   0  0  0  0  0  0  0  0  0  0  0  0
   -4.6474   -1.6807    0.3042 H   0  0  0  0  0  0  0  0  0  0  0  0
   -3.2201   -1.6979   -0.7970 H   0  0  0  0  0  0  0  0  0  0  0  0
  1 34  1  1  0  0  0
  1 20  1  0  0  0  0
  3  4  1  0  0  0  0
  4 20  1  6  0  0  0
  4  2  1  0  0  0  0
  5  2  1  0  0  0  0
  5  6  1  0  0  0  0
  7  5  1  0  0  0  0
  8  9  1  1  0  0  0
  8  3  1  0  0  0  0
  8  5  1  0  0  0  0
 10  8  1  0  0  0  0
 11 10  1  0  0  0  0
 12 13  1  0  0  0  0
 12 10  1  0  0  0  0
 12 15  1  0  0  0  0
 14 12  1  0  0  0  0
 16 19  1  0  0  0  0
 16 10  1  0  0  0  0
 16 17  1  0  0  0  0
 18 16  1  0  0  0  0
 20 21  1  0  0  0  0
 20 22  1  0  0  0  0
 23 24  1  0  0  0  0
 23  1  1  0  0  0  0
 24 25  1  0  0  0  0
 26 27  1  0  0  0  0
 26 24  2  0  0  0  0
 28 26  1  0  0  0  0
 29 28  1  0  0  0  0
 30 28  2  0  0  0  0
 30 32  1  0  0  0  0
 31 30  1  0  0  0  0
 32 23  2  0  0  0  0
 33 32  1  0  0  0  0
 34 35  1  0  0  0  0
 34 39  1  0  0  0  0
 35 37  1  0  0  0  0
 35 38  1  0  0  0  0
 36 35  1  0  0  0  0
 39 41  1  0  0  0  0
 39 40  1  0  0  0  0
 42 39  1  0  0  0  0
 43 45  1  0  0  0  0
 43 34  1  0  0  0  0
 44 43  1  0  0  0  0
 46 43  1  0  0  0  0
M  END
