1,2
q = 0.0, confidence = 0.998

 39 38  0  0  0  0  0  0  0  0999 V2000
   -1.0434    0.1121    0.0643 P   0  0  0  0  0  0  0  0  0  0  0  0
    1.0052    1.6077    0.9076 N   0  0  0  0  0  0  0  0  0  0  0  0
    1.6121    2.7048    0.1432 C   0  0  0  0  0  0  0  0  0  0  0  0
    2.7011    2.5271    0.0599 H   0  0  0  0  0  0  0  0  0  0  0  0
    1.4414    3.6951    0.6311 H   0  0  0  0  0  0  0  0  0  0  0  0
    1.1953    2.7204   -0.8807 H   0  0  0  0  0  0  0  0  0  0  0  0
    1.5967    1.5192    2.2481 C   0  0  0  0  0  0  0  0  0  0  0  0
    1.1625    0.6620    2.7927 H   0  0  0  0  0  0  0  0  0  0  0  0
    1.4316    2.4547    2.8360 H   0  0  0  0  0  0  0  0  0  0  0  0
    2.6847    1.3426    2.1512 H   0  0  0  0  0  0  0  0  0  0  0  0
   -0.4915    1.6879    0.9376 C   0  0  0  0  0  0  0  0  0  0  0  0
   -0.8402    2.5934    0.4016 H   0  0  0  0  0  0  0  0  0  0  0  0
   -0.8672    1.7701    1.9779 H   0  0  0  0  0  0  0  0  0  0  0  0
   -2.1419    0.7460   -1.3712 C   0  0  0  0  0  0  0  0  0  0  0  0
   -3.2345    1.7477   -0.9665 C   0  0  0  0  0  0  0  0  0  0  0  0
   -4.0196    1.2932   -0.3358 H   0  0  0  0  0  0  0  0  0  0  0  0
   -3.7305    2.1408   -1.8805 H   0  0  0  0  0  0  0  0  0  0  0  0
   -2.8225    2.6226   -0.4233 H   0  0  0  0  0  0  0  0  0  0  0  0
   -2.7631   -0.4672   -2.0845 C   0  0  0  0  0  0  0  0  0  0  0  0
   -2.0005   -1.2383   -2.3164 H   0  0  0  0  0  0  0  0  0  0  0  0
   -3.2179   -0.1405   -3.0440 H   0  0  0  0  0  0  0  0  0  0  0  0
   -3.5655   -0.9381   -1.4841 H   0  0  0  0  0  0  0  0  0  0  0  0
   -1.1581    1.4330   -2.3396 C   0  0  0  0  0  0  0  0  0  0  0  0
   -0.7330    2.3628   -1.9100 H   0  0  0  0  0  0  0  0  0  0  0  0
   -1.6961    1.7186   -3.2688 H   0  0  0  0  0  0  0  0  0  0  0  0
   -0.3114    0.7664   -2.5997 H   0  0  0  0  0  0  0  0  0  0  0  0
   -2.0533   -0.8883    1.3459 C   0  0  0  0  0  0  0  0  0  0  0  0
   -2.2403   -2.3050    0.7684 C   0  0  0  0  0  0  0  0  0  0  0  0
   -2.9193   -2.3228   -0.1041 H   0  0  0  0  0  0  0  0  0  0  0  0
   -2.6792   -2.9653    1.5467 H   0  0  0  0  0  0  0  0  0  0  0  0
   -1.2691   -2.7383    0.4569 H   0  0  0  0  0  0  0  0  0  0  0  0
   -3.4030   -0.2784    1.7441 C   0  0  0  0  0  0  0  0  0  0  0  0
   -3.3052    0.7737    2.0818 H   0  0  0  0  0  0  0  0  0  0  0  0
   -3.8401   -0.8575    2.5865 H   0  0  0  0  0  0  0  0  0  0  0  0
   -4.1359   -0.3090    0.9148 H   0  0  0  0  0  0  0  0  0  0  0  0
   -1.1480   -1.0050    2.5875 C   0  0  0  0  0  0  0  0  0  0  0  0
   -0.1304   -1.3492    2.3062 H   0  0  0  0  0  0  0  0  0  0  0  0
   -1.5870   -1.7445    3.2903 H   0  0  0  0  0  0  0  0  0  0  0  0
   -1.0586   -0.0467    3.1371 H   0  0  0  0  0  0  0  0  0  0  0  0
  1 11  1  0  0  0  0
  1 27  1  0  0  0  0
  2 11  1  0  0  0  0
  2  7  1  0  0  0  0
  3  5  1  0  0  0  0
  3  2  1  0  0  0  0
  4  3  1  0  0  0  0
  6  3  1  0  0  0  0
  7  8  1  0  0  0  0
  7  9  1  0  0  0  0
 10  7  1  0  0  0  0
 11 13  1  0  0  0  0
 12 11  1  0  0  0  0
 14 15  1  0  0  0  0
 14  1  1  0  0  0  0
 15 18  1  0  0  0  0
 15 16  1  0  0  0  0
 17 15  1  0  0  0  0
 19 22  1  0  0  0  0
 19 14  1  0  0  0  0
 20 19  1  0  0  0  0
 21 19  1  0  0  0  0
 23 24  1  0  0  0  0
 23 14  1  0  0  0  0
 25 23  1  0  0  0  0
 26 23  1  0  0  0  0
 27 32  1  0  0  0  0
 27 36  1  0  0  0  0
 28 27  1  0  0  0  0
 28 30  1  0  0  0  0
 29 28  1  0  0  0  0
 31 28  1  0  0  0  0
 32 33  1  0  0  0  0
 32 34  1  0  0  0  0
 35 32  1  0  0  0  0
 36 39  1  0  0  0  0
 36 38  1  0  0  0  0
 37 36  1  0  0  0  0
M  END
