1,2
q = 0.0, confidence = 1.0

 40 43  0  0  1  0  0  0  0  0999 V2000
   -0.0422    0.2124    0.0494 P   0  0  0  0  0  0  0  0  0  0  0  0
   -1.4840   -2.2604   -0.0412 N   0  0  0  0  0  2  0  0  0  0  0  0
    1.2539    1.3946    0.0956 C   0  0  0  0  0  0  0  0  0  0  0  0
    2.5959    0.9806    0.0812 C   0  0  0  0  0  0  0  0  0  0  0  0
    3.3542    1.7771    0.1555 H   0  0  0  0  0  0  0  0  0  0  0  0
    3.0684   -0.3526    0.0405 C   0  0  0  0  0  0  0  0  0  0  0  0
    2.1775   -1.4467    0.0153 C   0  0  0  0  0  0  0  0  0  0  0  0
    2.6337   -2.4470   -0.0453 H   0  0  0  0  0  0  0  0  0  0  0  0
    0.7782   -1.3421    0.0262 C   0  0  0  0  0  0  0  0  0  0  0  0
   -0.1289   -2.5031   -0.0128 C   0  0  1  0  0  3  0  0  0  0  0  0
    0.3601   -3.8295   -0.0150 C   0  0  0  0  0  0  0  0  0  0  0  0
    1.4432   -4.0051    0.0103 H   0  0  0  0  0  0  0  0  0  0  0  0
   -0.5176   -4.9121   -0.0459 C   0  0  0  0  0  0  0  0  0  0  0  0
   -0.1327   -5.9427   -0.0473 H   0  0  0  0  0  0  0  0  0  0  0  0
   -1.8961   -4.6527   -0.0736 C   0  0  0  0  0  0  0  0  0  0  0  0
   -2.6395   -5.4615   -0.0977 H   0  0  0  0  0  0  0  0  0  0  0  0
   -2.3240   -3.3243   -0.0698 C   0  0  0  0  0  0  0  0  0  0  0  0
   -3.3960   -3.0884   -0.0916 H   0  0  0  0  0  0  0  0  0  0  0  0
    0.8947    2.8325    0.1299 C   0  0  0  0  0  0  0  0  0  0  0  0
   -0.2117    3.2861    0.8834 C   0  0  0  0  0  0  0  0  0  0  0  0
   -0.7935    2.5645    1.4756 H   0  0  0  0  0  0  0  0  0  0  0  0
   -0.5669    4.6406    0.8912 C   0  0  0  0  0  0  0  0  0  0  0  0
   -1.4402    4.9675    1.4746 H   0  0  0  0  0  0  0  0  0  0  0  0
    0.1837    5.5709    0.1556 C   0  0  0  0  0  0  0  0  0  0  0  0
   -0.0972    6.6349    0.1591 H   0  0  0  0  0  0  0  0  0  0  0  0
    1.2910    5.1360   -0.5912 C   0  0  0  0  0  0  0  0  0  0  0  0
    1.8778    5.8577   -1.1796 H   0  0  0  0  0  0  0  0  0  0  0  0
    1.6418    3.7800   -0.6084 C   0  0  0  0  0  0  0  0  0  0  0  0
    2.4866    3.4418   -1.2275 H   0  0  0  0  0  0  0  0  0  0  0  0
    4.5332   -0.6050    0.0332 C   0  0  0  0  0  0  0  0  0  0  0  0
    5.0890   -1.6898    0.7500 C   0  0  0  0  0  0  0  0  0  0  0  0
    4.4308   -2.3352    1.3515 H   0  0  0  0  0  0  0  0  0  0  0  0
    6.4697   -1.9291    0.7393 C   0  0  0  0  0  0  0  0  0  0  0  0
    6.8808   -2.7727    1.3144 H   0  0  0  0  0  0  0  0  0  0  0  0
    7.3275   -1.0888    0.0118 C   0  0  0  0  0  0  0  0  0  0  0  0
    8.4117   -1.2762    0.0038 H   0  0  0  0  0  0  0  0  0  0  0  0
    6.7913   -0.0066   -0.7039 C   0  0  0  0  0  0  0  0  0  0  0  0
    7.4535    0.6530   -1.2851 H   0  0  0  0  0  0  0  0  0  0  0  0
    5.4107    0.2329   -0.6930 C   0  0  0  0  0  0  0  0  0  0  0  0
    4.9994    1.0669   -1.2816 H   0  0  0  0  0  0  0  0  0  0  0  0
  1  3  2  0  0  0  0
  2 10  1  0  0  0  0
  3 19  1  0  0  0  0
  4  3  1  0  0  0  0
  4  5  1  0  0  0  0
  6  4  2  0  0  0  0
  7  9  2  0  0  0  0
  7  6  1  0  0  0  0
  8  7  1  0  0  0  0
  9  1  1  0  0  0  0
 10  9  1  1  0  0  0
 11 10  1  0  0  0  0
 11 12  1  0  0  0  0
 13 11  2  0  0  0  0
 14 13  1  0  0  0  0
 15 17  2  0  0  0  0
 15 13  1  0  0  0  0
 16 15  1  0  0  0  0
 17  2  1  0  0  0  0
 18 17  1  0  0  0  0
 19 20  1  0  0  0  0
 20 22  2  0  0  0  0
 20 21  1  0  0  0  0
 22 23  1  0  0  0  0
 24 25  1  0  0  0  0
 24 22  1  0  0  0  0
 26 24  2  0  0  0  0
 27 26  1  0  0  0  0
 28 26  1  0  0  0  0
 28 19  2  0  0  0  0
 29 28  1  0  0  0  0
 30  6  1  0  0  0  0
 30 31  1  0  0  0  0
 31 32  1  0  0  0  0
 33 31  2  0  0  0  0
 33 34  1  0  0  0  0
 35 33  1  0  0  0  0
 36 35  1  0  0  0  0
 37 39  1  0  0  0  0
 37 35  2  0  0  0  0
 38 37  1  0  0  0  0
 39 30  2  0  0  0  0
 40 39  1  0  0  0  0
M  END
