1,71
 OpenBabel05122313063D

 71 74  0  0  1  0  0  0  0  0999 V2000
    1.3464    0.4650    0.1003 P   0  0  0  0  0  0  0  0  0  0  0  0
    1.4620    0.2716   -1.5546 O   0  0  0  0  0  0  0  0  0  0  0  0
   -0.1628   -1.4629   -2.1528 C   0  0  0  0  0  0  0  0  0  0  0  0
   -0.5815   -0.9254   -3.0306 H   0  0  0  0  0  0  0  0  0  0  0  0
   -0.2296   -2.5525   -2.3686 H   0  0  0  0  0  0  0  0  0  0  0  0
   -3.2906   -0.7024   -0.0678 C   0  0  2  0  0  0  0  0  0  0  0  0
    1.0941    2.1074    0.1481 O   0  0  0  0  0  0  0  0  0  0  0  0
   -2.2454   -1.0772   -1.1053 C   0  0  2  0  0  3  0  0  0  0  0  0
    1.3095   -1.0888   -2.0010 C   0  0  0  0  0  0  0  0  0  0  0  0
    1.8161   -1.7874   -1.3013 H   0  0  0  0  0  0  0  0  0  0  0  0
    1.8174   -1.1557   -2.9834 H   0  0  0  0  0  0  0  0  0  0  0  0
    2.9420    0.5321    0.5663 O   0  0  0  0  0  0  0  0  0  0  0  0
   -2.9912   -1.4217   -2.3853 C   0  0  0  0  0  0  0  0  0  0  0  0
   -2.7353   -2.4447   -2.7330 H   0  0  0  0  0  0  0  0  0  0  0  0
   -2.7097   -0.7305   -3.2080 H   0  0  0  0  0  0  0  0  0  0  0  0
   -4.4616   -1.2632   -1.9593 C   0  0  1  0  0  0  0  0  0  0  0  0
   -5.1610   -1.1545   -2.8114 H   0  0  0  0  0  0  0  0  0  0  0  0
   -4.7818   -2.4347   -1.0038 C   0  0  0  0  0  0  0  0  0  0  0  0
   -5.8690   -2.5035   -0.8045 H   0  0  0  0  0  0  0  0  0  0  0  0
   -4.4749   -3.4065   -1.4393 H   0  0  0  0  0  0  0  0  0  0  0  0
   -3.9773   -2.0720    0.2748 C   0  0  0  0  0  0  0  0  0  0  0  0
   -3.2183   -2.8218    0.5672 H   0  0  0  0  0  0  0  0  0  0  0  0
   -4.6353   -1.9168    1.1529 H   0  0  0  0  0  0  0  0  0  0  0  0
   -4.3830   -0.0355   -1.0049 C   0  0  0  0  0  0  0  0  0  0  0  0
   -3.9012    1.2565   -1.6806 C   0  0  0  0  0  0  0  0  0  0  0  0
   -4.6018    1.5589   -2.4862 H   0  0  0  0  0  0  0  0  0  0  0  0
   -2.8884    1.1794   -2.1216 H   0  0  0  0  0  0  0  0  0  0  0  0
   -3.8583    2.0821   -0.9447 H   0  0  0  0  0  0  0  0  0  0  0  0
   -5.7007    0.2793   -0.2861 C   0  0  0  0  0  0  0  0  0  0  0  0
   -6.4579    0.6206   -1.0218 H   0  0  0  0  0  0  0  0  0  0  0  0
   -5.5582    1.1007    0.4445 H   0  0  0  0  0  0  0  0  0  0  0  0
   -6.1285   -0.5825    0.2582 H   0  0  0  0  0  0  0  0  0  0  0  0
   -2.8331    0.1144    1.1242 C   0  0  0  0  0  0  0  0  0  0  0  0
   -2.0383   -0.4134    1.6973 H   0  0  0  0  0  0  0  0  0  0  0  0
   -3.6808    0.2919    1.8155 H   0  0  0  0  0  0  0  0  0  0  0  0
   -2.4231    1.0947    0.8154 H   0  0  0  0  0  0  0  0  0  0  0  0
   -0.1064    2.7176    0.5047 C   0  0  0  0  0  0  0  0  0  0  0  0
   -0.9052    3.2396   -0.5366 C   0  0  0  0  0  0  0  0  0  0  0  0
   -2.0649    3.9506   -0.1760 C   0  0  0  0  0  0  0  0  0  0  0  0
   -2.6954    4.3768   -0.9717 H   0  0  0  0  0  0  0  0  0  0  0  0
   -2.4171    4.1215    1.1709 C   0  0  0  0  0  0  0  0  0  0  0  0
   -3.3286    4.6781    1.4352 H   0  0  0  0  0  0  0  0  0  0  0  0
   -1.6004    3.5943    2.1795 C   0  0  0  0  0  0  0  0  0  0  0  0
   -1.8690    3.7374    3.2377 H   0  0  0  0  0  0  0  0  0  0  0  0
   -0.4209    2.8875    1.8706 C   0  0  0  0  0  0  0  0  0  0  0  0
   -0.5003    3.0454   -1.9730 C   0  0  0  0  0  0  0  0  0  0  0  0
   -1.2577    3.4673   -2.6602 H   0  0  0  0  0  0  0  0  0  0  0  0
   -0.3562    1.9725   -2.2110 H   0  0  0  0  0  0  0  0  0  0  0  0
    0.4743    3.5337   -2.1831 H   0  0  0  0  0  0  0  0  0  0  0  0
    0.4619    2.3299    2.9542 C   0  0  0  0  0  0  0  0  0  0  0  0
    1.5258    2.3121    2.6483 H   0  0  0  0  0  0  0  0  0  0  0  0
    0.1761    1.2850    3.1957 H   0  0  0  0  0  0  0  0  0  0  0  0
    0.3693    2.9227    3.8844 H   0  0  0  0  0  0  0  0  0  0  0  0
    4.0151    0.1358   -0.2374 C   0  0  0  0  0  0  0  0  0  0  0  0
    4.5562    1.0575   -1.1605 C   0  0  0  0  0  0  0  0  0  0  0  0
    5.6703    0.6419   -1.9158 C   0  0  0  0  0  0  0  0  0  0  0  0
    6.1112    1.3459   -2.6390 H   0  0  0  0  0  0  0  0  0  0  0  0
    6.2182   -0.6376   -1.7561 C   0  0  0  0  0  0  0  0  0  0  0  0
    7.0893   -0.9426   -2.3553 H   0  0  0  0  0  0  0  0  0  0  0  0
    5.6630   -1.5248   -0.8240 C   0  0  0  0  0  0  0  0  0  0  0  0
    6.0978   -2.5271   -0.6862 H   0  0  0  0  0  0  0  0  0  0  0  0
    4.5504   -1.1573   -0.0422 C   0  0  0  0  0  0  0  0  0  0  0  0
    3.9556    2.4259   -1.3311 C   0  0  0  0  0  0  0  0  0  0  0  0
    4.6470    3.0971   -1.8751 H   0  0  0  0  0  0  0  0  0  0  0  0
    3.6996    2.8809   -0.3545 H   0  0  0  0  0  0  0  0  0  0  0  0
    3.0054    2.3680   -1.9020 H   0  0  0  0  0  0  0  0  0  0  0  0
    3.9582   -2.0946    0.9745 C   0  0  0  0  0  0  0  0  0  0  0  0
    2.8967   -2.3382    0.7500 H   0  0  0  0  0  0  0  0  0  0  0  0
    3.9541   -1.6413    1.9865 H   0  0  0  0  0  0  0  0  0  0  0  0
    4.5264   -3.0427    1.0182 H   0  0  0  0  0  0  0  0  0  0  0  0
   -0.9586   -1.1443   -0.9593 N   0  0  0  0  0  2  0  0  0  0  0  0
  1  7  1  0  0  0  0
  1 12  1  0  0  0  0
  2  1  1  0  0  0  0
  3  9  1  0  0  0  0
  3 71  1  0  0  0  0
  4  3  1  0  0  0  0
  5  3  1  0  0  0  0
  6 21  1  0  0  0  0
  6 33  1  1  0  0  0
  7 37  1  0  0  0  0
  8 71  1  1  0  0  0
  8  6  1  0  0  0  0
  9  2  1  0  0  0  0
  9 10  1  0  0  0  0
 11  9  1  0  0  0  0
 13 16  1  0  0  0  0
 13  8  1  0  0  0  0
 14 13  1  0  0  0  0
 15 13  1  0  0  0  0
 16 17  1  6  0  0  0
 16 24  1  0  0  0  0
 16 18  1  0  0  0  0
 18 19  1  0  0  0  0
 18 21  1  0  0  0  0
 20 18  1  0  0  0  0
 21 22  1  0  0  0  0
 21 23  1  0  0  0  0
 24 29  1  0  0  0  0
 24  6  1  0  0  0  0
 25 24  1  0  0  0  0
 25 28  1  0  0  0  0
 26 25  1  0  0  0  0
 27 25  1  0  0  0  0
 29 32  1  0  0  0  0
 29 31  1  0  0  0  0
 30 29  1  0  0  0  0
 33 34  1  0  0  0  0
 33 35  1  0  0  0  0
 36 33  1  0  0  0  0
 37 45  1  0  0  0  0
 38 39  1  0  0  0  0
 38 37  2  0  0  0  0
 39 41  2  0  0  0  0
 40 39  1  0  0  0  0
 41 42  1  0  0  0  0
 41 43  1  0  0  0  0
 43 44  1  0  0  0  0
 45 43  2  0  0  0  0
 45 50  1  0  0  0  0
 46 38  1  0  0  0  0
 47 46  1  0  0  0  0
 48 46  1  0  0  0  0
 49 46  1  0  0  0  0
 50 52  1  0  0  0  0
 50 53  1  0  0  0  0
 51 50  1  0  0  0  0
 54 62  1  0  0  0  0
 54 12  1  0  0  0  0
 55 54  2  0  0  0  0
 56 58  2  0  0  0  0
 56 55  1  0  0  0  0
 57 56  1  0  0  0  0
 58 60  1  0  0  0  0
 59 58  1  0  0  0  0
 60 61  1  0  0  0  0
 60 62  2  0  0  0  0
 62 67  1  0  0  0  0
 63 55  1  0  0  0  0
 63 65  1  0  0  0  0
 64 63  1  0  0  0  0
 66 63  1  0  0  0  0
 67 70  1  0  0  0  0
 67 69  1  0  0  0  0
 68 67  1  0  0  0  0
M  END
