1,4
 OpenBabel05122313063D

 36 38  0  0  0  0  0  0  0  0999 V2000
    2.2138    1.2610   -0.7509 N   0  0  0  0  0  0  0  0  0  0  0  0
    3.1248    1.5229   -0.3466 H   0  0  0  0  0  0  0  0  0  0  0  0
    2.3711    1.1173   -1.7590 H   0  0  0  0  0  0  0  0  0  0  0  0
   -0.3297   -0.0749   -0.0153 P   0  0  0  0  0  0  0  0  0  0  0  0
   -0.1251    1.7570   -0.1862 C   0  0  0  0  0  0  0  0  0  0  0  0
   -1.1580    2.6797    0.0659 C   0  0  0  0  0  0  0  0  0  0  0  0
   -2.1599    2.3103    0.3333 H   0  0  0  0  0  0  0  0  0  0  0  0
   -0.9070    4.0581    0.0132 C   0  0  0  0  0  0  0  0  0  0  0  0
   -1.7171    4.7725    0.2224 H   0  0  0  0  0  0  0  0  0  0  0  0
    0.3844    4.5227   -0.2855 C   0  0  0  0  0  0  0  0  0  0  0  0
    0.5902    5.6032   -0.3142 H   0  0  0  0  0  0  0  0  0  0  0  0
    1.4188    3.6119   -0.5454 C   0  0  0  0  0  0  0  0  0  0  0  0
    2.4321    3.9714   -0.7823 H   0  0  0  0  0  0  0  0  0  0  0  0
    1.1708    2.2289   -0.5024 C   0  0  0  0  0  0  0  0  0  0  0  0
   -1.4402   -0.5732   -1.3906 C   0  0  0  0  0  0  0  0  0  0  0  0
   -1.8441    0.3119   -2.4091 C   0  0  0  0  0  0  0  0  0  0  0  0
   -1.5318    1.3665   -2.3775 H   0  0  0  0  0  0  0  0  0  0  0  0
   -2.6469   -0.1497   -3.4651 C   0  0  0  0  0  0  0  0  0  0  0  0
   -2.9583    0.5483   -4.2571 H   0  0  0  0  0  0  0  0  0  0  0  0
   -3.0520   -1.4919   -3.5105 C   0  0  0  0  0  0  0  0  0  0  0  0
   -3.6817   -1.8506   -4.3386 H   0  0  0  0  0  0  0  0  0  0  0  0
   -2.6468   -2.3795   -2.4984 C   0  0  0  0  0  0  0  0  0  0  0  0
   -2.9561   -3.4351   -2.5329 H   0  0  0  0  0  0  0  0  0  0  0  0
   -1.8396   -1.9272   -1.4469 C   0  0  0  0  0  0  0  0  0  0  0  0
   -1.5114   -2.6275   -0.6631 H   0  0  0  0  0  0  0  0  0  0  0  0
   -1.3783   -0.2515    1.4846 C   0  0  0  0  0  0  0  0  0  0  0  0
   -2.7866   -0.2774    1.4333 C   0  0  0  0  0  0  0  0  0  0  0  0
   -3.3028   -0.2359    0.4619 H   0  0  0  0  0  0  0  0  0  0  0  0
   -3.5286   -0.3695    2.6212 C   0  0  0  0  0  0  0  0  0  0  0  0
   -4.6282   -0.3924    2.5776 H   0  0  0  0  0  0  0  0  0  0  0  0
   -2.8713   -0.4372    3.8601 C   0  0  0  0  0  0  0  0  0  0  0  0
   -3.4562   -0.5138    4.7894 H   0  0  0  0  0  0  0  0  0  0  0  0
   -1.4677   -0.4186    3.9128 C   0  0  0  0  0  0  0  0  0  0  0  0
   -0.9499   -0.4834    4.8817 H   0  0  0  0  0  0  0  0  0  0  0  0
   -0.7207   -0.3317    2.7296 C   0  0  0  0  0  0  0  0  0  0  0  0
    0.3813   -0.3360    2.7550 H   0  0  0  0  0  0  0  0  0  0  0  0
  1 14  1  0  0  0  0
  1  2  1  0  0  0  0
  3  1  1  0  0  0  0
  4 26  1  0  0  0  0
  5  4  1  0  0  0  0
  5  6  1  0  0  0  0
  6  7  1  0  0  0  0
  8  6  2  0  0  0  0
  8  9  1  0  0  0  0
 10  8  1  0  0  0  0
 11 10  1  0  0  0  0
 12 14  1  0  0  0  0
 12 10  2  0  0  0  0
 13 12  1  0  0  0  0
 14  5  2  0  0  0  0
 15  4  1  0  0  0  0
 16 17  1  0  0  0  0
 16 15  2  0  0  0  0
 18 16  1  0  0  0  0
 19 18  1  0  0  0  0
 20 18  2  0  0  0  0
 20 22  1  0  0  0  0
 21 20  1  0  0  0  0
 22 24  2  0  0  0  0
 23 22  1  0  0  0  0
 24 15  1  0  0  0  0
 24 25  1  0  0  0  0
 26 35  1  0  0  0  0
 27 26  2  0  0  0  0
 27 29  1  0  0  0  0
 28 27  1  0  0  0  0
 29 31  2  0  0  0  0
 30 29  1  0  0  0  0
 31 33  1  0  0  0  0
 31 32  1  0  0  0  0
 33 34  1  0  0  0  0
 35 36  1  0  0  0  0
 35 33  2  0  0  0  0
M  END
