1,2
 OpenBabel05122313063D

 42 44  0  0  1  0  0  0  0  0999 V2000
    0.5166    0.0823    0.1503 P   0  0  0  0  0  0  0  0  0  0  0  0
   -2.1995   -0.3245    0.3735 N   0  0  0  0  0  2  0  0  0  0  0  0
    0.7217    1.7178   -0.6292 C   0  0  0  0  0  0  0  0  0  0  0  0
    1.7286    1.8594   -1.6103 C   0  0  0  0  0  0  0  0  0  0  0  0
    1.8403    3.0541   -2.3343 C   0  0  0  0  0  0  0  0  0  0  0  0
    0.9475    4.1119   -2.0991 C   0  0  0  0  0  0  0  0  0  0  0  0
   -0.0717    3.9656   -1.1445 C   0  0  0  0  0  0  0  0  0  0  0  0
   -0.1929    2.7722   -0.4184 C   0  0  0  0  0  0  0  0  0  0  0  0
    2.1989   -0.5045    0.5443 C   0  0  0  0  0  0  0  0  0  0  0  0
    3.1863    0.3873    1.0132 C   0  0  0  0  0  0  0  0  0  0  0  0
    4.4429   -0.1014    1.4024 C   0  0  0  0  0  0  0  0  0  0  0  0
    4.7179   -1.4758    1.3233 C   0  0  0  0  0  0  0  0  0  0  0  0
    3.7389   -2.3628    0.8457 C   0  0  0  0  0  0  0  0  0  0  0  0
    2.4824   -1.8823    0.4522 C   0  0  0  0  0  0  0  0  0  0  0  0
   -0.3372    0.2821    1.8437 C   0  0  0  0  0  0  0  0  0  0  0  0
    0.2164    1.4090    2.7163 C   0  0  0  0  0  0  0  0  0  0  0  0
   -0.1689   -1.0786    2.5657 C   0  0  0  0  0  0  0  0  0  0  0  0
   -1.8006    0.4169    1.4589 C   0  0  2  0  0  3  0  0  0  0  0  0
   -2.7176    1.1942    2.1779 C   0  0  0  0  0  0  0  0  0  0  0  0
   -4.0680    1.2154    1.7971 C   0  0  0  0  0  0  0  0  0  0  0  0
   -4.4651    0.4406    0.6998 C   0  0  0  0  0  0  0  0  0  0  0  0
   -3.5100   -0.3138    0.0137 C   0  0  0  0  0  0  0  0  0  0  0  0
    2.4076    1.0193   -1.8170 H   0  0  0  0  0  0  0  0  0  0  0  0
    2.6282    3.1549   -3.0959 H   0  0  0  0  0  0  0  0  0  0  0  0
    1.0387    5.0488   -2.6690 H   0  0  0  0  0  0  0  0  0  0  0  0
   -0.7849    4.7846   -0.9667 H   0  0  0  0  0  0  0  0  0  0  0  0
   -1.0151    2.6626    0.3039 H   0  0  0  0  0  0  0  0  0  0  0  0
    2.9789    1.4674    1.0571 H   0  0  0  0  0  0  0  0  0  0  0  0
    5.2126    0.5975    1.7633 H   0  0  0  0  0  0  0  0  0  0  0  0
    5.7055   -1.8566    1.6252 H   0  0  0  0  0  0  0  0  0  0  0  0
    3.9586   -3.4381    0.7663 H   0  0  0  0  0  0  0  0  0  0  0  0
    1.7208   -2.5572    0.0346 H   0  0  0  0  0  0  0  0  0  0  0  0
    0.0885    2.4090    2.2605 H   0  0  0  0  0  0  0  0  0  0  0  0
   -0.2744    1.4122    3.7123 H   0  0  0  0  0  0  0  0  0  0  0  0
    1.2975    1.2473    2.8940 H   0  0  0  0  0  0  0  0  0  0  0  0
   -0.5208   -1.9129    1.9260 H   0  0  0  0  0  0  0  0  0  0  0  0
    0.8909   -1.2580    2.8315 H   0  0  0  0  0  0  0  0  0  0  0  0
   -0.7727   -1.0735    3.4962 H   0  0  0  0  0  0  0  0  0  0  0  0
   -2.3692    1.7772    3.0410 H   0  0  0  0  0  0  0  0  0  0  0  0
   -4.7943    1.8264    2.3534 H   0  0  0  0  0  0  0  0  0  0  0  0
   -5.5105    0.4158    0.3608 H   0  0  0  0  0  0  0  0  0  0  0  0
   -3.7486   -0.9681   -0.8414 H   0  0  0  0  0  0  0  0  0  0  0  0
  1  9  1  0  0  0  0
  1 15  1  0  0  0  0
  2 18  1  0  0  0  0
  3  8  1  0  0  0  0
  3  1  1  0  0  0  0
  4  3  2  0  0  0  0
  5  6  2  0  0  0  0
  5  4  1  0  0  0  0
  6  7  1  0  0  0  0
  7 26  1  0  0  0  0
  7  8  2  0  0  0  0
  8 27  1  0  0  0  0
  9 10  1  0  0  0  0
 10 28  1  0  0  0  0
 10 11  2  0  0  0  0
 11 29  1  0  0  0  0
 12 11  1  0  0  0  0
 12 30  1  0  0  0  0
 13 12  2  0  0  0  0
 14  9  2  0  0  0  0
 14 13  1  0  0  0  0
 15 17  1  0  0  0  0
 15 16  1  0  0  0  0
 16 35  1  0  0  0  0
 16 34  1  0  0  0  0
 17 37  1  0  0  0  0
 17 38  1  0  0  0  0
 18 15  1  1  0  0  0
 18 19  1  0  0  0  0
 19 39  1  0  0  0  0
 20 19  2  0  0  0  0
 20 40  1  0  0  0  0
 21 20  1  0  0  0  0
 22  2  1  0  0  0  0
 22 21  2  0  0  0  0
 23  4  1  0  0  0  0
 24  5  1  0  0  0  0
 25  6  1  0  0  0  0
 31 13  1  0  0  0  0
 32 14  1  0  0  0  0
 33 16  1  0  0  0  0
 36 17  1  0  0  0  0
 41 21  1  0  0  0  0
 42 22  1  0  0  0  0
M  END
