1,2
 OpenBabel05122313063D

 45 48  0  0  1  0  0  0  0  0999 V2000
    1.2533    0.2143    0.3979 P   0  0  0  0  0  0  0  0  0  0  0  0
   -1.0665   -1.0004    1.3565 N   0  0  0  0  0  2  0  0  0  0  0  0
   -1.3938    0.1216    3.2755 O   0  0  0  0  0  0  0  0  0  0  0  0
   -3.1294   -0.0524    0.4941 C   0  0  0  0  0  0  0  0  0  0  0  0
    3.0708    0.2945    0.2948 C   0  0  0  0  0  0  0  0  0  0  0  0
   -2.5428   -1.0106    1.5219 C   0  0  2  0  0  0  0  0  0  0  0  0
   -2.9058   -2.0404    1.3421 H   0  0  0  0  0  0  0  0  0  0  0  0
    0.5797    1.7938   -0.2345 C   0  0  0  0  0  0  0  0  0  0  0  0
   -0.5564   -0.2699    2.3042 C   0  0  2  0  0  3  0  0  0  0  0  0
    0.2217    1.8140   -1.6008 C   0  0  0  0  0  0  0  0  0  0  0  0
    0.3755    0.9089   -2.2123 H   0  0  0  0  0  0  0  0  0  0  0  0
    0.8579    0.2012    2.2426 C   0  0  0  0  0  0  0  0  0  0  0  0
    1.5440   -0.5434    2.6978 H   0  0  0  0  0  0  0  0  0  0  0  0
    0.9985    1.1622    2.7732 H   0  0  0  0  0  0  0  0  0  0  0  0
    5.1831   -0.8760    0.0377 C   0  0  0  0  0  0  0  0  0  0  0  0
    5.7396   -1.8076   -0.1442 H   0  0  0  0  0  0  0  0  0  0  0  0
   -0.3410    2.9712   -2.1548 C   0  0  0  0  0  0  0  0  0  0  0  0
   -0.6264    2.9796   -3.2172 H   0  0  0  0  0  0  0  0  0  0  0  0
   -3.0962    1.3416    0.7057 C   0  0  0  0  0  0  0  0  0  0  0  0
   -2.6972    1.7549    1.6455 H   0  0  0  0  0  0  0  0  0  0  0  0
    0.3645    2.9343    0.5650 C   0  0  0  0  0  0  0  0  0  0  0  0
    0.6302    2.9330    1.6329 H   0  0  0  0  0  0  0  0  0  0  0  0
   -3.6053   -0.5504   -0.7333 C   0  0  0  0  0  0  0  0  0  0  0  0
   -3.5623   -1.6337   -0.9240 H   0  0  0  0  0  0  0  0  0  0  0  0
    5.8721    0.3345    0.2150 C   0  0  0  0  0  0  0  0  0  0  0  0
    6.9721    0.3508    0.1799 H   0  0  0  0  0  0  0  0  0  0  0  0
   -4.0276    1.7191   -1.5066 C   0  0  0  0  0  0  0  0  0  0  0  0
   -4.3747    2.4104   -2.2897 H   0  0  0  0  0  0  0  0  0  0  0  0
    5.1613    1.5286    0.4214 C   0  0  0  0  0  0  0  0  0  0  0  0
    5.7012    2.4793    0.5467 H   0  0  0  0  0  0  0  0  0  0  0  0
   -2.6608   -0.5691    2.9957 C   0  0  0  0  0  0  0  0  0  0  0  0
   -3.4837    0.1404    3.1941 H   0  0  0  0  0  0  0  0  0  0  0  0
   -2.7247   -1.4300    3.6918 H   0  0  0  0  0  0  0  0  0  0  0  0
    3.7597    1.5136    0.4583 C   0  0  0  0  0  0  0  0  0  0  0  0
    3.2008    2.4514    0.6012 H   0  0  0  0  0  0  0  0  0  0  0  0
   -0.2034    4.0879    0.0018 C   0  0  0  0  0  0  0  0  0  0  0  0
   -0.3740    4.9748    0.6308 H   0  0  0  0  0  0  0  0  0  0  0  0
    3.7812   -0.9025    0.0714 C   0  0  0  0  0  0  0  0  0  0  0  0
    3.2264   -1.8352   -0.1119 H   0  0  0  0  0  0  0  0  0  0  0  0
   -0.5565    4.1066   -1.3563 C   0  0  0  0  0  0  0  0  0  0  0  0
   -1.0085    5.0099   -1.7935 H   0  0  0  0  0  0  0  0  0  0  0  0
   -4.0555    0.3334   -1.7257 C   0  0  0  0  0  0  0  0  0  0  0  0
   -4.4185   -0.0677   -2.6840 H   0  0  0  0  0  0  0  0  0  0  0  0
   -3.5438    2.2224   -0.2885 C   0  0  0  0  0  0  0  0  0  0  0  0
   -3.5028    3.3079   -0.1141 H   0  0  0  0  0  0  0  0  0  0  0  0
  1 12  1  0  0  0  0
  2  6  1  0  0  0  0
  2  9  1  0  0  0  0
  4 19  1  0  0  0  0
  4  6  1  0  0  0  0
  5  1  1  0  0  0  0
  5 34  1  0  0  0  0
  6  7  1  6  0  0  0
  6 31  1  0  0  0  0
  8  1  1  0  0  0  0
  8 21  1  0  0  0  0
  9 12  1  6  0  0  0
  9  3  1  0  0  0  0
 10  8  2  0  0  0  0
 11 10  1  0  0  0  0
 12 13  1  0  0  0  0
 12 14  1  0  0  0  0
 15 38  1  0  0  0  0
 15 25  2  0  0  0  0
 16 15  1  0  0  0  0
 17 10  1  0  0  0  0
 17 40  2  0  0  0  0
 18 17  1  0  0  0  0
 19 20  1  0  0  0  0
 21 22  1  0  0  0  0
 23  4  2  0  0  0  0
 24 23  1  0  0  0  0
 25 29  1  0  0  0  0
 26 25  1  0  0  0  0
 27 44  1  0  0  0  0
 28 27  1  0  0  0  0
 29 34  2  0  0  0  0
 29 30  1  0  0  0  0
 31 32  1  0  0  0  0
 31  3  1  0  0  0  0
 31 33  1  0  0  0  0
 34 35  1  0  0  0  0
 36 21  2  0  0  0  0
 36 37  1  0  0  0  0
 38  5  2  0  0  0  0
 39 38  1  0  0  0  0
 40 36  1  0  0  0  0
 41 40  1  0  0  0  0
 42 27  2  0  0  0  0
 42 23  1  0  0  0  0
 43 42  1  0  0  0  0
 44 45  1  0  0  0  0
 44 19  2  0  0  0  0
M  END
