1,52
q = 0.0, confidence = 0.986

 52 55  0  0  0  0  0  0  0  0999 V2000
   -0.9117   -0.0784    0.0141 P   0  0  0  0  0  0  0  0  0  0  0  0
   -0.2502   -0.9560   -1.2790 O   0  0  0  0  0  0  0  0  0  0  0  0
    1.1912   -2.6478   -1.9622 C   0  0  0  0  0  0  0  0  0  0  0  0
    0.2717   -3.2150   -2.1650 H   0  0  0  0  0  0  0  0  0  0  0  0
   -1.6212   -4.1991    2.1778 C   0  0  0  0  0  0  0  0  0  0  0  0
   -1.9487   -4.9543    2.9223 H   0  0  0  0  0  0  0  0  0  0  0  0
   -1.0374   -4.7515    1.4067 H   0  0  0  0  0  0  0  0  0  0  0  0
   -2.8377   -3.5425    1.5154 C   0  0  0  0  0  0  0  0  0  0  0  0
   -3.4717   -3.0737    2.3007 H   0  0  0  0  0  0  0  0  0  0  0  0
   -3.4718   -4.3033    1.0139 H   0  0  0  0  0  0  0  0  0  0  0  0
   -3.7846    2.0946   -3.0486 C   0  0  0  0  0  0  0  0  0  0  0  0
   -3.0137    2.1334   -3.8510 H   0  0  0  0  0  0  0  0  0  0  0  0
   -4.6918    2.5824   -3.4624 H   0  0  0  0  0  0  0  0  0  0  0  0
   -3.2736    2.8577   -1.8212 C   0  0  0  0  0  0  0  0  0  0  0  0
   -4.0847    2.9188   -1.0612 H   0  0  0  0  0  0  0  0  0  0  0  0
   -3.0188    3.9045   -2.0870 H   0  0  0  0  0  0  0  0  0  0  0  0
   -4.0747    0.6292   -2.7047 C   0  0  0  0  0  0  0  0  0  0  0  0
   -4.4002    0.0714   -3.6078 H   0  0  0  0  0  0  0  0  0  0  0  0
   -4.9222    0.5805   -1.9843 H   0  0  0  0  0  0  0  0  0  0  0  0
   -0.7202   -3.1484    2.8366 C   0  0  0  0  0  0  0  0  0  0  0  0
    0.1738   -3.6247    3.2895 H   0  0  0  0  0  0  0  0  0  0  0  0
   -1.2715   -2.6590    3.6701 H   0  0  0  0  0  0  0  0  0  0  0  0
   -2.0540    2.1765   -1.1884 C   0  0  0  0  0  0  0  0  0  0  0  0
   -1.1938    2.2101   -1.8942 H   0  0  0  0  0  0  0  0  0  0  0  0
   -1.7390    2.7108   -0.2704 H   0  0  0  0  0  0  0  0  0  0  0  0
   -2.4261   -2.4644    0.5001 C   0  0  0  0  0  0  0  0  0  0  0  0
   -1.8993   -2.9399   -0.3564 H   0  0  0  0  0  0  0  0  0  0  0  0
   -3.3324   -1.9766    0.0873 H   0  0  0  0  0  0  0  0  0  0  0  0
   -0.2817   -2.0749    1.8325 C   0  0  0  0  0  0  0  0  0  0  0  0
    0.3705   -2.5411    1.0604 H   0  0  0  0  0  0  0  0  0  0  0  0
    0.3245   -1.2915    2.3334 H   0  0  0  0  0  0  0  0  0  0  0  0
   -2.8496   -0.0633   -2.0894 C   0  0  0  0  0  0  0  0  0  0  0  0
   -2.0256   -0.0942   -2.8331 H   0  0  0  0  0  0  0  0  0  0  0  0
   -3.0854   -1.1176   -1.8463 H   0  0  0  0  0  0  0  0  0  0  0  0
    4.6224   -0.2607   -1.4190 C   0  0  0  0  0  0  0  0  0  0  0  0
    5.5954   -0.6413   -1.7660 H   0  0  0  0  0  0  0  0  0  0  0  0
    3.5865   -2.3882   -2.1225 C   0  0  0  0  0  3  0  0  0  0  0  0
    4.5807   -2.7412   -2.4335 H   0  0  0  0  0  0  0  0  0  0  0  0
    2.4557   -3.1633   -2.3144 C   0  0  0  0  0  0  0  0  0  0  0  0
    2.5287   -4.1637   -2.7656 H   0  0  0  0  0  0  0  0  0  0  0  0
    4.4893    1.0106   -0.8986 C   0  0  0  0  0  0  0  0  0  0  0  0
    5.3391    1.7029   -0.8212 H   0  0  0  0  0  0  0  0  0  0  0  0
   -1.5008   -1.4222    1.1487 C   0  0  0  0  0  0  0  0  0  0  0  0
   -2.0599   -0.8434    1.9172 H   0  0  0  0  0  0  0  0  0  0  0  0
   -2.3596    0.7035   -0.8450 C   0  0  0  0  0  0  0  0  0  0  0  0
   -3.1484    0.6889   -0.0590 H   0  0  0  0  0  0  0  0  0  0  0  0
    3.2349    1.4120   -0.3900 C   0  0  0  0  0  0  0  0  0  0  0  0
    3.1183    2.3615    0.1594 H   0  0  0  0  0  0  0  0  0  0  0  0
    3.4776   -1.0969   -1.5357 C   0  0  0  0  0  0  0  0  0  0  0  0
    1.0397   -1.3837   -1.3877 C   0  0  0  0  0  0  0  0  0  0  0  0
    2.2009   -0.5838   -1.0806 C   0  0  0  0  0  0  0  0  0  0  0  0
    2.1424    0.6346   -0.4252 N   0  0  0  0  0  2  0  0  0  0  0  0
  1 43  1  0  0  0  0
  2  1  1  0  0  0  0
  3 50  1  0  0  0  0
  4  3  1  0  0  0  0
  5 20  1  0  0  0  0
  5  6  1  0  0  0  0
  7  5  1  0  0  0  0
  8  5  1  0  0  0  0
  8  9  1  0  0  0  0
 10  8  1  0  0  0  0
 11 17  1  0  0  0  0
 11 14  1  0  0  0  0
 12 11  1  0  0  0  0
 13 11  1  0  0  0  0
 14 23  1  0  0  0  0
 14 15  1  0  0  0  0
 16 14  1  0  0  0  0
 17 32  1  0  0  0  0
 17 19  1  0  0  0  0
 18 17  1  0  0  0  0
 20 21  1  0  0  0  0
 20 22  1  0  0  0  0
 23 45  1  0  0  0  0
 23 25  1  0  0  0  0
 24 23  1  0  0  0  0
 26 43  1  0  0  0  0
 26  8  1  0  0  0  0
 27 26  1  0  0  0  0
 28 26  1  0  0  0  0
 29 31  1  0  0  0  0
 29 20  1  0  0  0  0
 30 29  1  0  0  0  0
 32 34  1  0  0  0  0
 32 45  1  0  0  0  0
 33 32  1  0  0  0  0
 35 41  1  0  0  0  0
 36 35  1  0  0  0  0
 37 49  1  0  0  0  0
 38 37  1  0  0  0  0
 39 37  1  0  0  0  0
 39  3  2  0  0  0  0
 40 39  1  0  0  0  0
 41 42  1  0  0  0  0
 41 47  2  0  0  0  0
 43 29  1  0  0  0  0
 43 44  1  0  0  0  0
 45 46  1  0  0  0  0
 45  1  1  0  0  0  0
 47 48  1  0  0  0  0
 49 35  2  0  0  0  0
 49 51  1  0  0  0  0
 50  2  1  0  0  0  0
 50 51  2  0  0  0  0
 51 52  1  0  0  0  0
 52 47  1  0  0  0  0
M  END
