1,8
 OpenBabel05122313063D

 38 39  0  0  0  0  0  0  0  0999 V2000
    0.1984    0.7180   -0.3399 P   0  0  1  0  0  0  0  0  0  0  0  0
   -0.4221    2.3840    0.0858 C   0  0  0  0  0  0  0  0  0  0  0  0
   -0.6043    3.3938   -0.8808 C   0  0  0  0  0  0  0  0  0  0  0  0
   -1.0589    4.6622   -0.4911 C   0  0  0  0  0  0  0  0  0  0  0  0
   -1.3258    4.9284    0.8617 C   0  0  0  0  0  0  0  0  0  0  0  0
   -1.1359    3.9262    1.8266 C   0  0  0  0  0  0  0  0  0  0  0  0
   -0.6882    2.6531    1.4456 C   0  0  0  0  0  0  0  0  0  0  0  0
   -1.9656   -1.1553   -0.7705 N   0  0  0  0  0  2  0  0  0  0  0  0
   -3.1026   -1.8779   -0.6367 C   0  0  0  0  0  3  0  0  0  0  0  0
   -4.0838   -1.9054   -1.6317 C   0  0  0  0  0  0  0  0  0  0  0  0
   -3.8897   -1.1589   -2.8011 C   0  0  0  0  0  0  0  0  0  0  0  0
   -2.7066   -0.4216   -2.9396 C   0  0  0  0  0  0  0  0  0  0  0  0
   -1.7478   -0.4398   -1.9150 C   0  0  0  0  0  0  0  0  0  0  0  0
   -0.4366    0.2911   -2.0379 C   0  0  0  0  0  0  0  0  0  0  0  0
    6.2674   -1.4083   -1.0957 C   0  0  0  0  0  0  0  0  0  0  0  0
    4.8427   -1.4572   -0.9495 O   0  0  0  0  0  0  0  0  0  0  0  0
    4.2339   -0.2582   -0.7968 C   0  0  0  0  0  0  0  0  0  0  0  0
    4.8227    0.8070   -0.8034 O   0  0  0  0  0  0  0  0  0  0  0  0
    2.7394   -0.4364   -0.6142 C   0  0  0  0  0  0  0  0  0  0  0  0
    2.0211    0.9044   -0.5020 C   0  0  0  0  0  0  0  0  0  0  0  0
   -0.3896    3.2009   -1.9435 H   0  0  0  0  0  0  0  0  0  0  0  0
   -1.2039    5.4473   -1.2485 H   0  0  0  0  0  0  0  0  0  0  0  0
   -1.6839    5.9241    1.1643 H   0  0  0  0  0  0  0  0  0  0  0  0
   -1.3425    4.1334    2.8873 H   0  0  0  0  0  0  0  0  0  0  0  0
   -0.5291    1.8582    2.1929 H   0  0  0  0  0  0  0  0  0  0  0  0
   -3.1713   -2.4412    0.3120 H   0  0  0  0  0  0  0  0  0  0  0  0
   -4.9915   -2.5051   -1.4749 H   0  0  0  0  0  0  0  0  0  0  0  0
   -4.6480   -1.1486   -3.5982 H   0  0  0  0  0  0  0  0  0  0  0  0
   -2.5119    0.1696   -3.8459 H   0  0  0  0  0  0  0  0  0  0  0  0
   -0.5085    1.1552   -2.7271 H   0  0  0  0  0  0  0  0  0  0  0  0
    0.3244   -0.4017   -2.4616 H   0  0  0  0  0  0  0  0  0  0  0  0
    6.7395   -0.9486   -0.2040 H   0  0  0  0  0  0  0  0  0  0  0  0
    6.5540   -0.8110   -1.9849 H   0  0  0  0  0  0  0  0  0  0  0  0
    6.6000   -2.4551   -1.2099 H   0  0  0  0  0  0  0  0  0  0  0  0
    2.5590   -1.0281    0.3103 H   0  0  0  0  0  0  0  0  0  0  0  0
    2.3609   -1.0661   -1.4478 H   0  0  0  0  0  0  0  0  0  0  0  0
    2.2442    1.5804   -1.3542 H   0  0  0  0  0  0  0  0  0  0  0  0
    2.3420    1.4272    0.4208 H   0  0  0  0  0  0  0  0  0  0  0  0
  1 14  1  6  0  0  0
  1  2  1  0  0  0  0
  2  7  1  0  0  0  0
  3  4  1  0  0  0  0
  3  2  2  0  0  0  0
  4  5  2  0  0  0  0
  5 23  1  0  0  0  0
  5  6  1  0  0  0  0
  6 24  1  0  0  0  0
  7  6  2  0  0  0  0
  7 25  1  0  0  0  0
  8  9  1  0  0  0  0
  9 26  1  0  0  0  0
 10 27  1  0  0  0  0
 10  9  1  0  0  0  0
 11 10  2  0  0  0  0
 12 11  1  0  0  0  0
 12 13  2  0  0  0  0
 13  8  1  0  0  0  0
 14 13  1  0  0  0  0
 15 16  1  0  0  0  0
 15 32  1  0  0  0  0
 16 17  1  0  0  0  0
 17 19  1  0  0  0  0
 18 17  2  0  0  0  0
 19 20  1  0  0  0  0
 19 35  1  0  0  0  0
 20  1  1  0  0  0  0
 20 38  1  0  0  0  0
 21  3  1  0  0  0  0
 22  4  1  0  0  0  0
 28 11  1  0  0  0  0
 29 12  1  0  0  0  0
 30 14  1  0  0  0  0
 31 14  1  0  0  0  0
 33 15  1  0  0  0  0
 34 15  1  0  0  0  0
 36 19  1  0  0  0  0
 37 20  1  0  0  0  0
M  END
