2,3
 OpenBabel05122313063D

 76 83  0  0  1  0  0  0  0  0999 V2000
   -0.3745    1.3463    0.6098 P   0  0  0  0  0  4  0  0  0  0  0  0
    1.6273   -0.7564    0.5674 P   0  0  0  0  0  0  0  0  0  0  0  0
   -1.1035    0.3576   -0.4611 N   0  0  0  0  0  2  0  0  0  0  0  0
   -2.2987   -0.4296   -0.1715 B   0  0  0  0  0  2  0  0  0  0  0  0
   -3.8400    0.1720    0.5254 B   0  0  1  0  0  0  0  0  0  0  0  0
   -3.8994    1.3286    0.8529 H   0  0  0  0  0  0  0  0  0  0  0  0
   -5.2150   -0.5372   -0.3413 B   0  0  2  0  0  0  0  0  0  0  0  0
   -6.1769    0.1444   -0.5979 H   0  0  0  0  0  0  0  0  0  0  0  0
   -4.5717   -1.6044   -1.6027 B   0  0  0  0  0  2  0  0  0  0  0  0
   -4.9969   -1.6587   -2.7271 H   0  0  0  0  0  0  0  0  0  0  0  0
   -2.3094   -2.2088    0.0629 B   0  0  1  0  0  0  0  0  0  0  0  0
   -1.2299   -2.7452    0.0429 H   0  0  0  0  0  0  0  0  0  0  0  0
   -2.9432   -1.1418    1.3323 B   0  0  2  0  0  0  0  0  0  0  0  0
   -2.3387   -0.9600    2.3680 H   0  0  0  0  0  0  0  0  0  0  0  0
   -4.7243   -1.1934    1.2430 B   0  0  2  0  0  0  0  0  0  0  0  0
   -5.4195   -1.0307    2.2194 H   0  0  0  0  0  0  0  0  0  0  0  0
   -5.1852   -2.2999   -0.0898 B   0  0  0  0  0  2  0  0  0  0  0  0
   -6.2031   -2.9500   -0.0937 H   0  0  0  0  0  0  0  0  0  0  0  0
   -3.6755   -2.9182   -0.8121 B   0  0  1  0  0  0  0  0  0  0  0  0
   -3.5291   -3.9479   -1.4203 H   0  0  0  0  0  0  0  0  0  0  0  0
   -3.7775   -2.6773    0.9503 B   0  0  1  0  0  0  0  0  0  0  0  0
   -3.7656   -3.6166    1.7119 H   0  0  0  0  0  0  0  0  0  0  0  0
   -3.7549   -0.1628   -1.1420 C   0  0  2  0  0  0  0  0  0  0  0  0
   -2.8819   -1.5282   -1.3782 C   0  0  1  0  0  0  0  0  0  0  0  0
   -3.6369    0.9457   -2.1702 C   0  0  0  0  0  0  0  0  0  0  0  0
   -3.4474    1.9063   -1.6571 H   0  0  0  0  0  0  0  0  0  0  0  0
   -4.5703    1.0296   -2.7555 H   0  0  0  0  0  0  0  0  0  0  0  0
   -2.7858    0.7429   -2.8506 H   0  0  0  0  0  0  0  0  0  0  0  0
    0.6416    0.3175    1.7464 C   0  0  0  0  0  0  0  0  0  0  0  0
   -0.0653   -0.3120    2.3225 H   0  0  0  0  0  0  0  0  0  0  0  0
    1.2857    0.8899    2.4408 H   0  0  0  0  0  0  0  0  0  0  0  0
   -1.4857    2.3938    1.5910 C   0  0  0  0  0  0  0  0  0  0  0  0
   -1.8854    2.0460    2.8958 C   0  0  0  0  0  0  0  0  0  0  0  0
   -1.4741    1.1546    3.3892 H   0  0  0  0  0  0  0  0  0  0  0  0
   -2.8383    2.8284    3.5632 C   0  0  0  0  0  0  0  0  0  0  0  0
   -3.1568    2.5504    4.5787 H   0  0  0  0  0  0  0  0  0  0  0  0
   -3.3917    3.9542    2.9335 C   0  0  0  0  0  0  0  0  0  0  0  0
   -4.1454    4.5607    3.4578 H   0  0  0  0  0  0  0  0  0  0  0  0
   -2.9840    4.3100    1.6368 C   0  0  0  0  0  0  0  0  0  0  0  0
   -3.4134    5.1959    1.1459 H   0  0  0  0  0  0  0  0  0  0  0  0
   -2.0303    3.5353    0.9650 C   0  0  0  0  0  0  0  0  0  0  0  0
   -1.7092    3.8099   -0.0517 H   0  0  0  0  0  0  0  0  0  0  0  0
    0.7546    2.4624   -0.2672 C   0  0  0  0  0  0  0  0  0  0  0  0
    0.7367    2.5191   -1.6752 C   0  0  0  0  0  0  0  0  0  0  0  0
    0.0463    1.8788   -2.2489 H   0  0  0  0  0  0  0  0  0  0  0  0
    1.6414    3.3644   -2.3361 C   0  0  0  0  0  0  0  0  0  0  0  0
    1.6395    3.3985   -3.4356 H   0  0  0  0  0  0  0  0  0  0  0  0
    2.5489    4.1449   -1.6028 C   0  0  0  0  0  0  0  0  0  0  0  0
    3.2629    4.7969   -2.1288 H   0  0  0  0  0  0  0  0  0  0  0  0
    2.5530    4.0948   -0.1984 C   0  0  0  0  0  0  0  0  0  0  0  0
    3.2671    4.7028    0.3763 H   0  0  0  0  0  0  0  0  0  0  0  0
    1.6532    3.2572    0.4729 C   0  0  0  0  0  0  0  0  0  0  0  0
    1.6616    3.2174    1.5734 H   0  0  0  0  0  0  0  0  0  0  0  0
    1.8903   -2.3351    1.4395 C   0  0  0  0  0  0  0  0  0  0  0  0
    0.8556   -2.9243    2.1958 C   0  0  0  0  0  0  0  0  0  0  0  0
   -0.1128   -2.4175    2.3220 H   0  0  0  0  0  0  0  0  0  0  0  0
    1.0446   -4.1872    2.7737 C   0  0  0  0  0  0  0  0  0  0  0  0
    0.2330   -4.6411    3.3617 H   0  0  0  0  0  0  0  0  0  0  0  0
    2.2563   -4.8724    2.5903 C   0  0  0  0  0  0  0  0  0  0  0  0
    2.4000   -5.8658    3.0415 H   0  0  0  0  0  0  0  0  0  0  0  0
    3.2791   -4.2956    1.8206 C   0  0  0  0  0  0  0  0  0  0  0  0
    4.2243   -4.8362    1.6628 H   0  0  0  0  0  0  0  0  0  0  0  0
    3.1002   -3.0326    1.2395 C   0  0  0  0  0  0  0  0  0  0  0  0
    3.8916   -2.5892    0.6183 H   0  0  0  0  0  0  0  0  0  0  0  0
    3.2470    0.1020    0.5253 C   0  0  0  0  0  0  0  0  0  0  0  0
    3.7282    0.6409   -0.6822 C   0  0  0  0  0  0  0  0  0  0  0  0
    3.1689    0.4628   -1.6123 H   0  0  0  0  0  0  0  0  0  0  0  0
    4.9189    1.3829   -0.6853 C   0  0  0  0  0  0  0  0  0  0  0  0
    5.2891    1.8063   -1.6308 H   0  0  0  0  0  0  0  0  0  0  0  0
    5.6321    1.5832    0.5063 C   0  0  0  0  0  0  0  0  0  0  0  0
    6.5665    2.1650    0.4988 H   0  0  0  0  0  0  0  0  0  0  0  0
    5.1596    1.0333    1.7103 C   0  0  0  0  0  0  0  0  0  0  0  0
    5.7236    1.1778    2.6443 H   0  0  0  0  0  0  0  0  0  0  0  0
    3.9693    0.2929    1.7224 C   0  0  0  0  0  0  0  0  0  0  0  0
    3.6068   -0.1468    2.6655 H   0  0  0  0  0  0  0  0  0  0  0  0
   -2.2534   -1.5175   -2.2892 H   0  0  0  0  0  0  0  0  0  0  0  0
  1 32  1  0  0  0  0
  1 29  1  0  0  0  0
  2 54  1  0  0  0  0
  2 29  1  0  0  0  0
  3  4  1  0  0  0  0
  3  1  1  0  0  0  0
  4 13  1  0  0  0  0
  5  6  1  1  0  0  0
  5 15  1  0  0  0  0
  7  8  1  6  0  0  0
  7  5  1  0  0  0  0
  9  7  1  0  0  0  0
 10  9  1  0  0  0  0
 11 12  1  1  0  0  0
 11 13  1  0  0  0  0
 13 14  1  1  0  0  0
 15 13  1  0  0  0  0
 15 16  1  1  0  0  0
 17 21  1  0  0  0  0
 18 17  1  0  0  0  0
 19 20  1  6  0  0  0
 19 11  1  0  0  0  0
 19 21  1  0  0  0  0
 21 15  1  0  0  0  0
 21 22  1  1  0  0  0
 23 25  1  6  0  0  0
 23  7  1  0  0  0  0
 23  5  1  0  0  0  0
 24 76  1  6  0  0  0
 24 23  1  0  0  0  0
 24 19  1  0  0  0  0
 24 11  1  0  0  0  0
 25 26  1  0  0  0  0
 27 25  1  0  0  0  0
 28 25  1  0  0  0  0
 29 30  1  0  0  0  0
 29 31  1  0  0  0  0
 32 33  1  0  0  0  0
 33 34  1  0  0  0  0
 33 35  2  0  0  0  0
 35 36  1  0  0  0  0
 37 38  1  0  0  0  0
 37 35  1  0  0  0  0
 39 37  2  0  0  0  0
 40 39  1  0  0  0  0
 41 32  2  0  0  0  0
 41 39  1  0  0  0  0
 42 41  1  0  0  0  0
 43 52  1  0  0  0  0
 43  1  1  0  0  0  0
 44 43  2  0  0  0  0
 45 44  1  0  0  0  0
 46 44  1  0  0  0  0
 46 48  2  0  0  0  0
 47 46  1  0  0  0  0
 48 50  1  0  0  0  0
 49 48  1  0  0  0  0
 50 51  1  0  0  0  0
 50 52  2  0  0  0  0
 52 53  1  0  0  0  0
 54 55  1  0  0  0  0
 55 56  1  0  0  0  0
 55 57  2  0  0  0  0
 57 58  1  0  0  0  0
 59 57  1  0  0  0  0
 59 60  1  0  0  0  0
 61 59  2  0  0  0  0
 62 61  1  0  0  0  0
 63 54  2  0  0  0  0
 63 61  1  0  0  0  0
 64 63  1  0  0  0  0
 65  2  1  0  0  0  0
 65 74  1  0  0  0  0
 66 65  2  0  0  0  0
 67 66  1  0  0  0  0
 68 66  1  0  0  0  0
 68 70  2  0  0  0  0
 69 68  1  0  0  0  0
 70 72  1  0  0  0  0
 71 70  1  0  0  0  0
 72 74  2  0  0  0  0
 72 73  1  0  0  0  0
 74 75  1  0  0  0  0
M  END
