1,3
 OpenBabel05122313063D

 47 51  0  0  1  0  0  0  0  0999 V2000
   -0.9550   -0.0478    0.2038 P   0  0  1  0  0  0  0  0  0  0  0  0
    2.0349    3.5279    0.3344 O   0  0  0  0  0  0  0  0  0  0  0  0
    1.9160   -0.0675   -0.1605 N   0  0  2  0  0  0  0  0  0  0  0  0
   -2.6926   -0.1119   -0.3195 C   0  0  0  0  0  0  0  0  0  0  0  0
   -3.5427   -1.0318    0.3325 C   0  0  0  0  0  0  0  0  0  0  0  0
   -4.8920   -1.1120   -0.0403 C   0  0  0  0  0  0  0  0  0  0  0  0
   -5.3947   -0.2949   -1.0652 C   0  0  0  0  0  0  0  0  0  0  0  0
   -4.5441    0.6048   -1.7278 C   0  0  0  0  0  0  0  0  0  0  0  0
   -3.1949    0.6987   -1.3588 C   0  0  0  0  0  0  0  0  0  0  0  0
   -0.0738    1.4331   -0.5790 C   0  0  1  0  0  0  0  0  0  0  0  0
   -0.8676    2.6273   -0.0800 C   0  0  0  0  0  0  0  0  0  0  0  0
   -1.0404    3.8411   -0.9351 C   0  0  0  0  0  0  0  0  0  0  0  0
   -2.1149    3.3082    2.0687 C   0  0  0  0  0  0  0  0  0  0  0  0
   -1.3129    2.4076    1.1897 C   0  0  0  0  0  0  0  0  0  0  0  0
   -0.7786    1.0856    1.7039 C   0  0  2  0  0  0  0  0  0  0  0  0
    0.7759    1.1833    1.7343 C   0  0  0  0  0  0  0  0  0  0  0  0
    1.2578    1.2365    0.2444 C   0  0  1  0  0  0  0  0  0  0  0  0
    2.2508    2.3833   -0.0244 C   0  0  0  0  0  0  0  0  0  0  0  0
    3.5002    1.9057   -0.7410 C   0  0  1  0  0  0  0  0  0  0  0  0
    4.1998    0.9003    0.2035 C   0  0  0  0  0  0  0  0  0  0  0  0
    3.2056   -0.2262    0.5859 C   0  0  0  0  0  0  0  0  0  0  0  0
    2.2476   -0.0899   -1.6232 C   0  0  0  0  0  0  0  0  0  0  0  0
    3.0733    1.1572   -2.0202 C   0  0  0  0  0  0  0  0  0  0  0  0
   -3.1301   -1.7090    1.0950 H   0  0  0  0  0  0  0  0  0  0  0  0
   -5.5520   -1.8315    0.4671 H   0  0  0  0  0  0  0  0  0  0  0  0
   -6.4533   -0.3667   -1.3576 H   0  0  0  0  0  0  0  0  0  0  0  0
   -4.9324    1.2385   -2.5393 H   0  0  0  0  0  0  0  0  0  0  0  0
   -2.5353    1.4032   -1.8847 H   0  0  0  0  0  0  0  0  0  0  0  0
    0.0801    1.4089   -1.6717 H   0  0  0  0  0  0  0  0  0  0  0  0
   -1.4358    3.5802   -1.9408 H   0  0  0  0  0  0  0  0  0  0  0  0
   -0.0646    4.3483   -1.0895 H   0  0  0  0  0  0  0  0  0  0  0  0
   -1.7319    4.5740   -0.4782 H   0  0  0  0  0  0  0  0  0  0  0  0
   -3.0264    2.7883    2.4344 H   0  0  0  0  0  0  0  0  0  0  0  0
   -2.4299    4.2324    1.5486 H   0  0  0  0  0  0  0  0  0  0  0  0
   -1.5377    3.6063    2.9712 H   0  0  0  0  0  0  0  0  0  0  0  0
   -1.2198    0.7109    2.6447 H   0  0  0  0  0  0  0  0  0  0  0  0
    1.0831    2.1093    2.2576 H   0  0  0  0  0  0  0  0  0  0  0  0
    1.2120    0.3106    2.2542 H   0  0  0  0  0  0  0  0  0  0  0  0
    4.1411    2.7797   -0.9621 H   0  0  0  0  0  0  0  0  0  0  0  0
    5.0863    0.4849   -0.3184 H   0  0  0  0  0  0  0  0  0  0  0  0
    4.5720    1.4215    1.1074 H   0  0  0  0  0  0  0  0  0  0  0  0
    3.5653   -1.2452    0.3442 H   0  0  0  0  0  0  0  0  0  0  0  0
    2.9764   -0.2231    1.6659 H   0  0  0  0  0  0  0  0  0  0  0  0
    1.3077   -0.1763   -2.1974 H   0  0  0  0  0  0  0  0  0  0  0  0
    2.7859   -1.0453   -1.7749 H   0  0  0  0  0  0  0  0  0  0  0  0
    3.9795    0.8592   -2.5853 H   0  0  0  0  0  0  0  0  0  0  0  0
    2.4915    1.8326   -2.6801 H   0  0  0  0  0  0  0  0  0  0  0  0
  1  4  1  6  0  0  0
  1 15  1  0  0  0  0
  3 22  1  6  0  0  0
  3 17  1  0  0  0  0
  3 21  1  0  0  0  0
  4  5  1  0  0  0  0
  5 24  1  0  0  0  0
  6  5  2  0  0  0  0
  6 25  1  0  0  0  0
  7  6  1  0  0  0  0
  8  9  1  0  0  0  0
  8  7  2  0  0  0  0
  9  4  2  0  0  0  0
 10 29  1  6  0  0  0
 10 11  1  0  0  0  0
 10  1  1  0  0  0  0
 10 17  1  0  0  0  0
 11 14  2  0  0  0  0
 12 32  1  0  0  0  0
 12 11  1  0  0  0  0
 13 33  1  0  0  0  0
 13 35  1  0  0  0  0
 14 15  1  0  0  0  0
 14 13  1  0  0  0  0
 15 16  1  0  0  0  0
 15 36  1  1  0  0  0
 16 38  1  0  0  0  0
 16 37  1  0  0  0  0
 17 18  1  6  0  0  0
 17 16  1  0  0  0  0
 18  2  2  0  0  0  0
 19 39  1  6  0  0  0
 19 18  1  0  0  0  0
 19 20  1  0  0  0  0
 20 21  1  0  0  0  0
 20 41  1  0  0  0  0
 21 43  1  0  0  0  0
 23 22  1  0  0  0  0
 23 19  1  0  0  0  0
 26  7  1  0  0  0  0
 27  8  1  0  0  0  0
 28  9  1  0  0  0  0
 30 12  1  0  0  0  0
 31 12  1  0  0  0  0
 34 13  1  0  0  0  0
 40 20  1  0  0  0  0
 42 21  1  0  0  0  0
 44 22  1  0  0  0  0
 45 22  1  0  0  0  0
 46 23  1  0  0  0  0
 47 23  1  0  0  0  0
M  END
