45,50
 OpenBabel05122313063D

 50 51  0  0  1  0  0  0  0  0999 V2000
   -2.9474   -0.3966   -1.4102 C   0  0  0  0  0  0  0  0  0  0  0  0
   -3.2481   -1.4488   -1.5758 H   0  0  0  0  0  0  0  0  0  0  0  0
   -2.1965   -0.1164   -2.1714 H   0  0  0  0  0  0  0  0  0  0  0  0
   -3.8331    0.2715   -1.4947 H   0  0  0  0  0  0  0  0  0  0  0  0
   -3.3806   -0.6685    0.9670 C   0  0  0  0  0  0  0  0  0  0  0  0
   -4.2113    0.0660    0.9460 H   0  0  0  0  0  0  0  0  0  0  0  0
   -2.9087   -0.6573    1.9671 H   0  0  0  0  0  0  0  0  0  0  0  0
   -3.7308   -1.6949    0.7514 H   0  0  0  0  0  0  0  0  0  0  0  0
   -3.4054    3.8523   -1.5202 C   0  0  0  0  0  0  0  0  0  0  0  0
   -4.4454    3.4773   -1.5943 H   0  0  0  0  0  0  0  0  0  0  0  0
   -3.0624    4.2459   -2.4928 H   0  0  0  0  0  0  0  0  0  0  0  0
   -3.3713    4.6427   -0.7444 H   0  0  0  0  0  0  0  0  0  0  0  0
   -2.7707    2.1503   -0.0173 C   0  0  0  0  0  0  0  0  0  0  0  0
   -1.7572    1.0250    0.2602 C   0  0  2  0  0  0  0  0  0  0  0  0
   -1.5952    1.0490    1.3555 H   0  0  0  0  0  0  0  0  0  0  0  0
   -0.4110    1.2678   -0.4271 C   0  0  1  0  0  0  0  0  0  0  0  0
   -0.5272    1.2857   -1.5280 H   0  0  0  0  0  0  0  0  0  0  0  0
    0.1741    2.5883    0.0315 C   0  0  0  0  0  0  0  0  0  0  0  0
    1.8714    4.1766   -0.3493 C   0  0  0  0  0  0  0  0  0  0  0  0
    1.1660    5.0309   -0.3680 H   0  0  0  0  0  0  0  0  0  0  0  0
    2.6881    4.3290   -1.0763 H   0  0  0  0  0  0  0  0  0  0  0  0
    2.2752    4.0774    0.6782 H   0  0  0  0  0  0  0  0  0  0  0  0
    2.0333   -0.2292   -1.2710 C   0  0  0  0  0  0  0  0  0  0  0  0
    1.9444    0.4442   -2.5055 C   0  0  0  0  0  0  0  0  0  0  0  0
    1.0796    1.0794   -2.7404 H   0  0  0  0  0  0  0  0  0  0  0  0
    2.9780    0.3277   -3.4461 C   0  0  0  0  0  0  0  0  0  0  0  0
    2.9016    0.8611   -4.4055 H   0  0  0  0  0  0  0  0  0  0  0  0
    4.1026   -0.4635   -3.1652 C   0  0  0  0  0  0  0  0  0  0  0  0
    4.9111   -0.5546   -3.9062 H   0  0  0  0  0  0  0  0  0  0  0  0
    4.1908   -1.1423   -1.9393 C   0  0  0  0  0  0  0  0  0  0  0  0
    5.0646   -1.7731   -1.7176 H   0  0  0  0  0  0  0  0  0  0  0  0
    3.1623   -1.0330   -0.9944 C   0  0  0  0  0  0  0  0  0  0  0  0
    3.2156   -1.5902   -0.0484 H   0  0  0  0  0  0  0  0  0  0  0  0
    1.4909    0.1959    1.5595 C   0  0  0  0  0  0  0  0  0  0  0  0
    2.6085    1.0538    1.6281 C   0  0  0  0  0  0  0  0  0  0  0  0
    3.0579    1.4431    0.7023 H   0  0  0  0  0  0  0  0  0  0  0  0
    3.1487    1.3940    2.8759 C   0  0  0  0  0  0  0  0  0  0  0  0
    4.0228    2.0607    2.9298 H   0  0  0  0  0  0  0  0  0  0  0  0
    2.5823    0.8786    4.0540 C   0  0  0  0  0  0  0  0  0  0  0  0
    3.0118    1.1455    5.0316 H   0  0  0  0  0  0  0  0  0  0  0  0
    1.4798    0.0128    3.9855 C   0  0  0  0  0  0  0  0  0  0  0  0
    1.0471   -0.4061    4.9063 H   0  0  0  0  0  0  0  0  0  0  0  0
    0.9351   -0.3347    2.7405 C   0  0  0  0  0  0  0  0  0  0  0  0
    0.0897   -1.0380    2.6687 H   0  0  0  0  0  0  0  0  0  0  0  0
   -2.3512   -0.3234   -0.0524 N   0  0  0  0  0  0  0  0  0  0  0  0
   -3.7192    2.4106    0.6935 O   0  0  0  0  0  0  0  0  0  0  0  0
   -2.5053    2.7850   -1.1837 O   0  0  0  0  0  0  0  0  0  0  0  0
   -0.2204    3.2202    0.9938 O   0  0  0  0  0  0  0  0  0  0  0  0
    1.2109    2.9655   -0.7480 O   0  0  0  0  0  0  0  0  0  0  0  0
    0.6924   -0.2153   -0.0339 P   0  0  0  0  0  0  0  0  0  0  0  0
  1 45  1  0  0  0  0
  2  1  1  0  0  0  0
  3  1  1  0  0  0  0
  4  1  1  0  0  0  0
  5  7  1  0  0  0  0
  6  5  1  0  0  0  0
  8  5  1  0  0  0  0
  9 47  1  0  0  0  0
  9 12  1  0  0  0  0
 10  9  1  0  0  0  0
 11  9  1  0  0  0  0
 13 14  1  0  0  0  0
 13 46  2  0  0  0  0
 14 15  1  1  0  0  0
 16 17  1  6  0  0  0
 16 50  1  0  0  0  0
 16 18  1  0  0  0  0
 16 14  1  0  0  0  0
 18 48  2  0  0  0  0
 19 22  1  0  0  0  0
 20 19  1  0  0  0  0
 21 19  1  0  0  0  0
 23 32  1  0  0  0  0
 23 50  1  0  0  0  0
 24 23  2  0  0  0  0
 25 24  1  0  0  0  0
 26 28  2  0  0  0  0
 26 24  1  0  0  0  0
 27 26  1  0  0  0  0
 28 30  1  0  0  0  0
 29 28  1  0  0  0  0
 30 31  1  0  0  0  0
 30 32  2  0  0  0  0
 32 33  1  0  0  0  0
 34 35  2  0  0  0  0
 34 43  1  0  0  0  0
 35 37  1  0  0  0  0
 36 35  1  0  0  0  0
 37 38  1  0  0  0  0
 37 39  2  0  0  0  0
 39 40  1  0  0  0  0
 41 39  1  0  0  0  0
 41 42  1  0  0  0  0
 43 41  2  0  0  0  0
 44 43  1  0  0  0  0
 45 14  1  0  0  0  0
 45  5  1  0  0  0  0
 47 13  1  0  0  0  0
 49 19  1  0  0  0  0
 49 18  1  0  0  0  0
 50 34  1  0  0  0  0
M  END
