51,57
 OpenBabel05122313063D

 57 59  0  0  1  0  0  0  0  0999 V2000
    2.5236    0.2657   -0.1084 C   0  0  0  0  0  0  0  0  0  0  0  0
    3.4834   -0.4987   -0.8045 C   0  0  0  0  0  0  0  0  0  0  0  0
    3.3692   -0.6282   -1.8931 H   0  0  0  0  0  0  0  0  0  0  0  0
    4.5289   -1.1059   -0.1078 C   0  0  0  0  0  0  0  0  0  0  0  0
    5.2645   -1.7024   -0.6703 H   0  0  0  0  0  0  0  0  0  0  0  0
    4.6570   -0.9843    1.2943 C   0  0  0  0  0  0  0  0  0  0  0  0
    5.7791   -1.6702    2.0301 C   0  0  0  0  0  0  0  0  0  0  0  0
    5.7873   -1.4045    3.1048 H   0  0  0  0  0  0  0  0  0  0  0  0
    6.7672   -1.4011    1.6028 H   0  0  0  0  0  0  0  0  0  0  0  0
    5.6896   -2.7746    1.9559 H   0  0  0  0  0  0  0  0  0  0  0  0
    3.6962   -0.2117    1.9671 C   0  0  0  0  0  0  0  0  0  0  0  0
    3.7664   -0.0872    3.0589 H   0  0  0  0  0  0  0  0  0  0  0  0
    2.6390    0.4123    1.2830 C   0  0  0  0  0  0  0  0  0  0  0  0
    1.9306    1.0163    1.8621 H   0  0  0  0  0  0  0  0  0  0  0  0
    0.5630    1.8608   -0.2422 C   0  0  2  0  0  0  0  0  0  0  0  0
   -0.0331    2.3108   -1.0655 H   0  0  0  0  0  0  0  0  0  0  0  0
    1.3469    3.0202    0.3900 C   0  0  0  0  0  0  0  0  0  0  0  0
    3.1822    4.4633    0.0590 C   0  0  0  0  0  0  0  0  0  0  0  0
    2.5763    5.3645    0.2773 H   0  0  0  0  0  0  0  0  0  0  0  0
    3.9122    4.6662   -0.7433 H   0  0  0  0  0  0  0  0  0  0  0  0
    3.7021    4.1498    0.9862 H   0  0  0  0  0  0  0  0  0  0  0  0
   -0.4513    1.2687    0.7459 C   0  0  1  0  0  0  0  0  0  0  0  0
   -0.0088    1.0838    1.7405 H   0  0  0  0  0  0  0  0  0  0  0  0
   -1.6243    2.2111    0.9205 C   0  0  0  0  0  0  0  0  0  0  0  0
   -3.4870    2.6906    2.2824 C   0  0  0  0  0  0  0  0  0  0  0  0
   -3.3079    3.7799    2.1973 H   0  0  0  0  0  0  0  0  0  0  0  0
   -3.8350    2.4287    3.2967 H   0  0  0  0  0  0  0  0  0  0  0  0
   -4.2378    2.3858    1.5258 H   0  0  0  0  0  0  0  0  0  0  0  0
   -2.8397   -0.2520   -0.1762 C   0  0  0  0  0  0  0  0  0  0  0  0
   -3.2670    0.3331   -1.3855 C   0  0  0  0  0  0  0  0  0  0  0  0
   -2.5251    0.6020   -2.1530 H   0  0  0  0  0  0  0  0  0  0  0  0
   -4.6331    0.5488   -1.6090 C   0  0  0  0  0  0  0  0  0  0  0  0
   -4.9642    1.0046   -2.5539 H   0  0  0  0  0  0  0  0  0  0  0  0
   -5.5749    0.1702   -0.6382 C   0  0  0  0  0  0  0  0  0  0  0  0
   -6.6482    0.3317   -0.8211 H   0  0  0  0  0  0  0  0  0  0  0  0
   -5.1499   -0.4286    0.5591 C   0  0  0  0  0  0  0  0  0  0  0  0
   -5.8876   -0.7402    1.3141 H   0  0  0  0  0  0  0  0  0  0  0  0
   -3.7832   -0.6412    0.7942 C   0  0  0  0  0  0  0  0  0  0  0  0
   -3.4504   -1.1140    1.7298 H   0  0  0  0  0  0  0  0  0  0  0  0
   -0.8199   -1.5845    1.4895 C   0  0  0  0  0  0  0  0  0  0  0  0
   -0.9606   -1.1875    2.8363 C   0  0  0  0  0  0  0  0  0  0  0  0
   -1.2408   -0.1520    3.0850 H   0  0  0  0  0  0  0  0  0  0  0  0
   -0.7621   -2.1261    3.8599 C   0  0  0  0  0  0  0  0  0  0  0  0
   -0.8684   -1.8172    4.9109 H   0  0  0  0  0  0  0  0  0  0  0  0
   -0.4311   -3.4542    3.5446 C   0  0  0  0  0  0  0  0  0  0  0  0
   -0.2721   -4.1859    4.3513 H   0  0  0  0  0  0  0  0  0  0  0  0
   -0.3039   -3.8494    2.2031 C   0  0  0  0  0  0  0  0  0  0  0  0
   -0.0473   -4.8903    1.9550 H   0  0  0  0  0  0  0  0  0  0  0  0
   -0.4945   -2.9198    1.1705 C   0  0  0  0  0  0  0  0  0  0  0  0
   -0.4022   -3.2137    0.1114 H   0  0  0  0  0  0  0  0  0  0  0  0
    1.4395    0.8495   -0.8820 N   0  0  0  0  0  0  0  0  0  0  0  0
    1.8203    1.2142   -1.7751 H   0  0  0  0  0  0  0  0  0  0  0  0
    1.0827    3.5374    1.4578 O   0  0  0  0  0  0  0  0  0  0  0  0
    2.3474    3.3989   -0.4254 O   0  0  0  0  0  0  0  0  0  0  0  0
   -1.9752    3.0434    0.1068 O   0  0  0  0  0  0  0  0  0  0  0  0
   -2.2649    1.9608    2.0831 O   0  0  0  0  0  0  0  0  0  0  0  0
   -1.0401   -0.4319    0.0916 P   0  0  0  0  0  0  0  0  0  0  0  0
  1 13  1  0  0  0  0
  2  1  2  0  0  0  0
  2  4  1  0  0  0  0
  3  2  1  0  0  0  0
  4  6  2  0  0  0  0
  5  4  1  0  0  0  0
  6 11  1  0  0  0  0
  6  7  1  0  0  0  0
  7  8  1  0  0  0  0
  9  7  1  0  0  0  0
 10  7  1  0  0  0  0
 11 12  1  0  0  0  0
 13 14  1  0  0  0  0
 13 11  2  0  0  0  0
 15 16  1  6  0  0  0
 15 17  1  0  0  0  0
 15 22  1  0  0  0  0
 17 53  2  0  0  0  0
 18 19  1  0  0  0  0
 18 21  1  0  0  0  0
 20 18  1  0  0  0  0
 22 24  1  0  0  0  0
 22 23  1  1  0  0  0
 24 56  1  0  0  0  0
 25 27  1  0  0  0  0
 26 25  1  0  0  0  0
 28 25  1  0  0  0  0
 29 57  1  0  0  0  0
 29 38  1  0  0  0  0
 30 29  2  0  0  0  0
 31 30  1  0  0  0  0
 32 30  1  0  0  0  0
 32 34  2  0  0  0  0
 33 32  1  0  0  0  0
 34 36  1  0  0  0  0
 35 34  1  0  0  0  0
 36 38  2  0  0  0  0
 36 37  1  0  0  0  0
 38 39  1  0  0  0  0
 40 41  1  0  0  0  0
 41 42  1  0  0  0  0
 41 43  2  0  0  0  0
 43 44  1  0  0  0  0
 45 43  1  0  0  0  0
 45 46  1  0  0  0  0
 47 45  2  0  0  0  0
 48 47  1  0  0  0  0
 49 40  2  0  0  0  0
 49 47  1  0  0  0  0
 50 49  1  0  0  0  0
 51 15  1  0  0  0  0
 51  1  1  0  0  0  0
 52 51  1  0  0  0  0
 54 18  1  0  0  0  0
 54 17  1  0  0  0  0
 55 24  2  0  0  0  0
 56 25  1  0  0  0  0
 57 22  1  0  0  0  0
 57 40  1  0  0  0  0
M  END
