1,4
 OpenBabel05122313063D

 34 35  0  0  0  0  0  0  0  0999 V2000
    0.7298   -0.4728    0.1507 P   0  0  1  0  0  0  0  0  0  0  0  0
    0.4184   -1.7674   -0.8703 O   0  0  0  0  0  0  0  0  0  0  0  0
    0.5460   -1.2432    1.6394 O   0  0  0  0  0  0  0  0  0  0  0  0
   -2.0690   -0.6730    0.4376 N   0  0  0  0  0  0  0  0  0  0  0  0
   -0.7687   -2.5215   -0.6366 C   0  0  0  0  0  0  0  0  0  0  0  0
   -2.0905   -1.7169   -0.6511 C   0  0  0  0  0  0  0  0  0  0  0  0
   -0.5536   -0.7932    2.4424 C   0  0  0  0  0  0  0  0  0  0  0  0
   -1.9160   -1.1500    1.8382 C   0  0  0  0  0  0  0  0  0  0  0  0
    2.5315   -0.3785   -0.0291 C   0  0  0  0  0  0  0  0  0  0  0  0
    3.2800   -1.4367   -0.5825 C   0  0  0  0  0  0  0  0  0  0  0  0
    4.6745   -1.3261   -0.6718 C   0  0  0  0  0  0  0  0  0  0  0  0
    5.3232   -0.1695   -0.2086 C   0  0  0  0  0  0  0  0  0  0  0  0
    4.5769    0.8841    0.3435 C   0  0  0  0  0  0  0  0  0  0  0  0
    3.1814    0.7845    0.4308 C   0  0  0  0  0  0  0  0  0  0  0  0
   -2.2656   -0.9825   -1.9867 C   0  0  0  0  0  0  0  0  0  0  0  0
   -3.2531   -2.7011   -0.4390 C   0  0  0  0  0  0  0  0  0  0  0  0
   -0.8174   -3.2712   -1.4513 H   0  0  0  0  0  0  0  0  0  0  0  0
   -0.6713   -3.0737    0.3245 H   0  0  0  0  0  0  0  0  0  0  0  0
   -0.4913    0.3097    2.5824 H   0  0  0  0  0  0  0  0  0  0  0  0
   -0.4433   -1.2877    3.4292 H   0  0  0  0  0  0  0  0  0  0  0  0
   -2.7030   -0.6771    2.4600 H   0  0  0  0  0  0  0  0  0  0  0  0
   -2.0764   -2.2459    1.8892 H   0  0  0  0  0  0  0  0  0  0  0  0
   -2.3451   -1.7144   -2.8145 H   0  0  0  0  0  0  0  0  0  0  0  0
   -1.4046   -0.3094   -2.1785 H   0  0  0  0  0  0  0  0  0  0  0  0
   -3.1778   -0.3537   -1.9738 H   0  0  0  0  0  0  0  0  0  0  0  0
   -4.2183   -2.1565   -0.4222 H   0  0  0  0  0  0  0  0  0  0  0  0
   -3.1627   -3.2771    0.5034 H   0  0  0  0  0  0  0  0  0  0  0  0
   -3.2934   -3.4315   -1.2709 H   0  0  0  0  0  0  0  0  0  0  0  0
    2.7587   -2.3328   -0.9470 H   0  0  0  0  0  0  0  0  0  0  0  0
    5.2603   -2.1492   -1.1085 H   0  0  0  0  0  0  0  0  0  0  0  0
    6.4182   -0.0866   -0.2830 H   0  0  0  0  0  0  0  0  0  0  0  0
    5.0828    1.7928    0.7023 H   0  0  0  0  0  0  0  0  0  0  0  0
    2.5944    1.6129    0.8553 H   0  0  0  0  0  0  0  0  0  0  0  0
   -2.9265   -0.0902    0.3516 H   0  0  0  0  0  0  0  0  0  0  0  0
  1  9  1  6  0  0  0
  1  3  1  0  0  0  0
  2  5  1  0  0  0  0
  2  1  1  0  0  0  0
  3  7  1  0  0  0  0
  4  8  1  0  0  0  0
  5 18  1  0  0  0  0
  6  5  1  0  0  0  0
  6 16  1  0  0  0  0
  6  4  1  0  0  0  0
  7 19  1  0  0  0  0
  7 20  1  0  0  0  0
  8 22  1  0  0  0  0
  8  7  1  0  0  0  0
  8 21  1  0  0  0  0
  9 14  1  0  0  0  0
 10  9  2  0  0  0  0
 11 10  1  0  0  0  0
 11 12  2  0  0  0  0
 12 13  1  0  0  0  0
 13 14  2  0  0  0  0
 13 32  1  0  0  0  0
 14 33  1  0  0  0  0
 15 25  1  0  0  0  0
 15  6  1  0  0  0  0
 16 26  1  0  0  0  0
 16 27  1  0  0  0  0
 17  5  1  0  0  0  0
 23 15  1  0  0  0  0
 24 15  1  0  0  0  0
 28 16  1  0  0  0  0
 29 10  1  0  0  0  0
 30 11  1  0  0  0  0
 31 12  1  0  0  0  0
 34  4  1  0  0  0  0
M  END
