1,2
 OpenBabel05122313063D

 69 74  0  0  1  0  0  0  0  0999 V2000
    1.7875   -0.5237    0.1546 P   0  0  0  0  0  0  0  0  0  0  0  0
   -1.2322   -0.2407    0.1772 N   0  0  0  0  0  2  0  0  0  0  0  0
   -2.2544    0.6000   -0.0105 N   0  0  0  0  0  0  0  0  0  0  0  0
   -1.2612   -1.0971    1.1775 C   0  0  0  0  0  3  0  0  0  0  0  0
   -2.1812   -1.1613    1.7784 H   0  0  0  0  0  0  0  0  0  0  0  0
   -0.1847   -1.9745    1.6167 C   0  0  0  0  0  0  0  0  0  0  0  0
    1.2022   -1.8302    1.3086 C   0  0  0  0  0  0  0  0  0  0  0  0
    2.1384   -2.7070    1.8899 C   0  0  0  0  0  0  0  0  0  0  0  0
    3.2043   -2.5890    1.6461 H   0  0  0  0  0  0  0  0  0  0  0  0
    1.7381   -3.7279    2.7647 C   0  0  0  0  0  0  0  0  0  0  0  0
    2.4897   -4.4033    3.1993 H   0  0  0  0  0  0  0  0  0  0  0  0
    0.3778   -3.8770    3.0742 C   0  0  0  0  0  0  0  0  0  0  0  0
    0.0454   -4.6761    3.7537 H   0  0  0  0  0  0  0  0  0  0  0  0
   -0.5614   -3.0062    2.5146 C   0  0  0  0  0  0  0  0  0  0  0  0
   -1.6287   -3.1210    2.7603 H   0  0  0  0  0  0  0  0  0  0  0  0
   -3.4878    0.5584    0.7802 C   0  0  1  0  0  0  0  0  0  0  0  0
   -3.2433    0.6234    1.8685 H   0  0  0  0  0  0  0  0  0  0  0  0
   -4.2154    1.8535    0.3354 C   0  0  0  0  0  0  0  0  0  0  0  0
   -5.3116    1.7081    0.3148 H   0  0  0  0  0  0  0  0  0  0  0  0
   -3.9902    2.6693    1.0513 H   0  0  0  0  0  0  0  0  0  0  0  0
   -3.6132    2.1694   -1.0379 C   0  0  0  0  0  0  0  0  0  0  0  0
   -3.7348    3.2271   -1.3365 H   0  0  0  0  0  0  0  0  0  0  0  0
   -4.0576    1.5255   -1.8238 H   0  0  0  0  0  0  0  0  0  0  0  0
   -2.1315    1.7789   -0.8795 C   0  0  1  0  0  0  0  0  0  0  0  0
   -1.7246    1.4554   -1.8597 H   0  0  0  0  0  0  0  0  0  0  0  0
   -4.2915   -0.7171    0.5526 C   0  0  0  0  0  0  0  0  0  0  0  0
   -4.1852   -1.4442   -0.6480 C   0  0  0  0  0  0  0  0  0  0  0  0
   -3.4627   -1.1323   -1.4236 H   0  0  0  0  0  0  0  0  0  0  0  0
   -4.9734   -2.5897   -0.8420 C   0  0  0  0  0  0  0  0  0  0  0  0
   -4.8757   -3.1552   -1.7813 H   0  0  0  0  0  0  0  0  0  0  0  0
   -5.8697   -3.0165    0.1501 C   0  0  0  0  0  0  0  0  0  0  0  0
   -6.4843   -3.9159   -0.0077 H   0  0  0  0  0  0  0  0  0  0  0  0
   -5.9729   -2.2956    1.3513 C   0  0  0  0  0  0  0  0  0  0  0  0
   -6.6684   -2.6266    2.1377 H   0  0  0  0  0  0  0  0  0  0  0  0
   -5.1829   -1.1542    1.5522 C   0  0  0  0  0  0  0  0  0  0  0  0
   -5.2597   -0.5929    2.4984 H   0  0  0  0  0  0  0  0  0  0  0  0
   -1.2684    2.8810   -0.2898 C   0  0  0  0  0  0  0  0  0  0  0  0
   -1.0939    3.0477    1.0981 C   0  0  0  0  0  0  0  0  0  0  0  0
   -1.5029    2.3012    1.7956 H   0  0  0  0  0  0  0  0  0  0  0  0
   -0.3912    4.1521    1.6021 C   0  0  0  0  0  0  0  0  0  0  0  0
   -0.2606    4.2659    2.6886 H   0  0  0  0  0  0  0  0  0  0  0  0
    0.1554    5.1001    0.7241 C   0  0  0  0  0  0  0  0  0  0  0  0
    0.7044    5.9680    1.1200 H   0  0  0  0  0  0  0  0  0  0  0  0
    0.0223    4.9207   -0.6621 C   0  0  0  0  0  0  0  0  0  0  0  0
    0.4715    5.6448   -1.3589 H   0  0  0  0  0  0  0  0  0  0  0  0
   -0.6789    3.8152   -1.1643 C   0  0  0  0  0  0  0  0  0  0  0  0
   -0.7769    3.6690   -2.2516 H   0  0  0  0  0  0  0  0  0  0  0  0
    3.4302   -1.1332   -0.3788 C   0  0  0  0  0  0  0  0  0  0  0  0
    4.6238   -0.5975    0.1396 C   0  0  0  0  0  0  0  0  0  0  0  0
    4.5910    0.2451    0.8457 H   0  0  0  0  0  0  0  0  0  0  0  0
    5.8597   -1.1418   -0.2478 C   0  0  0  0  0  0  0  0  0  0  0  0
    6.7913   -0.7174    0.1562 H   0  0  0  0  0  0  0  0  0  0  0  0
    5.9048   -2.2191   -1.1444 C   0  0  0  0  0  0  0  0  0  0  0  0
    6.8744   -2.6425   -1.4481 H   0  0  0  0  0  0  0  0  0  0  0  0
    4.7117   -2.7535   -1.6614 C   0  0  0  0  0  0  0  0  0  0  0  0
    4.7441   -3.5912   -2.3740 H   0  0  0  0  0  0  0  0  0  0  0  0
    3.4764   -2.2106   -1.2888 C   0  0  0  0  0  0  0  0  0  0  0  0
    2.5425   -2.6085   -1.7119 H   0  0  0  0  0  0  0  0  0  0  0  0
    2.1417    0.9605    1.1604 C   0  0  0  0  0  0  0  0  0  0  0  0
    2.1104    0.9536    2.5674 C   0  0  0  0  0  0  0  0  0  0  0  0
    1.8237    0.0376    3.1062 H   0  0  0  0  0  0  0  0  0  0  0  0
    2.4619    2.1145    3.2751 C   0  0  0  0  0  0  0  0  0  0  0  0
    2.4389    2.1107    4.3756 H   0  0  0  0  0  0  0  0  0  0  0  0
    2.8537    3.2702    2.5823 C   0  0  0  0  0  0  0  0  0  0  0  0
    3.1368    4.1758    3.1402 H   0  0  0  0  0  0  0  0  0  0  0  0
    2.8708    3.2782    1.1769 C   0  0  0  0  0  0  0  0  0  0  0  0
    3.1578    4.1896    0.6326 H   0  0  0  0  0  0  0  0  0  0  0  0
    2.5022    2.1326    0.4614 C   0  0  0  0  0  0  0  0  0  0  0  0
    2.4938    2.1333   -0.6405 H   0  0  0  0  0  0  0  0  0  0  0  0
  1 59  1  0  0  0  0
  1  7  1  0  0  0  0
  2  4  1  0  0  0  0
  3  2  1  0  0  0  0
  3 16  1  0  0  0  0
  4  6  1  0  0  0  0
  4  5  1  0  0  0  0
  6 14  1  0  0  0  0
  7  6  2  0  0  0  0
  7  8  1  0  0  0  0
  8 10  2  0  0  0  0
  9  8  1  0  0  0  0
 10 12  1  0  0  0  0
 10 11  1  0  0  0  0
 12 13  1  0  0  0  0
 14 15  1  0  0  0  0
 14 12  2  0  0  0  0
 16 17  1  1  0  0  0
 18 16  1  0  0  0  0
 18 20  1  0  0  0  0
 19 18  1  0  0  0  0
 21 24  1  0  0  0  0
 21 18  1  0  0  0  0
 22 21  1  0  0  0  0
 23 21  1  0  0  0  0
 24 25  1  6  0  0  0
 24 37  1  0  0  0  0
 24  3  1  0  0  0  0
 26 16  1  0  0  0  0
 26 35  1  0  0  0  0
 27 26  2  0  0  0  0
 28 27  1  0  0  0  0
 29 27  1  0  0  0  0
 29 31  2  0  0  0  0
 30 29  1  0  0  0  0
 31 33  1  0  0  0  0
 32 31  1  0  0  0  0
 33 35  2  0  0  0  0
 33 34  1  0  0  0  0
 35 36  1  0  0  0  0
 37 38  1  0  0  0  0
 38 40  2  0  0  0  0
 38 39  1  0  0  0  0
 40 41  1  0  0  0  0
 42 43  1  0  0  0  0
 42 40  1  0  0  0  0
 44 42  2  0  0  0  0
 45 44  1  0  0  0  0
 46 44  1  0  0  0  0
 46 37  2  0  0  0  0
 47 46  1  0  0  0  0
 48 49  1  0  0  0  0
 48  1  1  0  0  0  0
 49 50  1  0  0  0  0
 51 49  2  0  0  0  0
 51 52  1  0  0  0  0
 53 51  1  0  0  0  0
 54 53  1  0  0  0  0
 55 57  1  0  0  0  0
 55 53  2  0  0  0  0
 56 55  1  0  0  0  0
 57 48  2  0  0  0  0
 58 57  1  0  0  0  0
 59 60  1  0  0  0  0
 60 61  1  0  0  0  0
 60 62  2  0  0  0  0
 62 63  1  0  0  0  0
 64 65  1  0  0  0  0
 64 62  1  0  0  0  0
 66 64  2  0  0  0  0
 67 66  1  0  0  0  0
 68 59  2  0  0  0  0
 68 66  1  0  0  0  0
 69 68  1  0  0  0  0
M  END
