1,2
 OpenBabel05122313063D

 67 70  0  0  1  0  0  0  0  0999 V2000
    1.5895   -0.1693    0.1133 P   0  0  0  0  0  0  0  0  0  0  0  0
   -1.4896   -0.4967    0.2175 N   0  0  0  0  0  2  0  0  0  0  0  0
   -2.7106    0.0527    0.1661 N   0  0  0  0  0  0  0  0  0  0  0  0
    1.3099   -1.7035    1.0797 C   0  0  0  0  0  0  0  0  0  0  0  0
   -0.0103   -2.1561    1.3788 C   0  0  0  0  0  0  0  0  0  0  0  0
   -0.1400   -3.3439    2.1473 C   0  0  0  0  0  0  0  0  0  0  0  0
   -1.1528   -3.6995    2.3937 H   0  0  0  0  0  0  0  0  0  0  0  0
    0.9708   -4.0700    2.5839 C   0  0  0  0  0  0  0  0  0  0  0  0
    0.8261   -4.9940    3.1636 H   0  0  0  0  0  0  0  0  0  0  0  0
    2.2637   -3.6184    2.2780 C   0  0  0  0  0  0  0  0  0  0  0  0
    3.1487   -4.1794    2.6127 H   0  0  0  0  0  0  0  0  0  0  0  0
    2.4211   -2.4396    1.5345 C   0  0  0  0  0  0  0  0  0  0  0  0
    3.4329   -2.0825    1.2921 H   0  0  0  0  0  0  0  0  0  0  0  0
   -1.2607   -1.4745    1.0738 C   0  0  0  0  0  3  0  0  0  0  0  0
   -2.1010   -1.7884    1.7120 H   0  0  0  0  0  0  0  0  0  0  0  0
    3.2359   -0.4445   -0.6386 C   0  0  0  0  0  0  0  0  0  0  0  0
    3.3234   -1.3225   -1.7388 C   0  0  0  0  0  0  0  0  0  0  0  0
    2.4064   -1.7571   -2.1643 H   0  0  0  0  0  0  0  0  0  0  0  0
    4.5732   -1.6166   -2.2959 C   0  0  0  0  0  0  0  0  0  0  0  0
    4.6380   -2.2975   -3.1578 H   0  0  0  0  0  0  0  0  0  0  0  0
    5.7378   -1.0297   -1.7701 C   0  0  0  0  0  0  0  0  0  0  0  0
    6.7177   -1.2556   -2.2175 H   0  0  0  0  0  0  0  0  0  0  0  0
    5.6496   -0.1492   -0.6822 C   0  0  0  0  0  0  0  0  0  0  0  0
    6.5581    0.3174   -0.2723 H   0  0  0  0  0  0  0  0  0  0  0  0
    4.3997    0.1443   -0.1115 C   0  0  0  0  0  0  0  0  0  0  0  0
    4.3312    0.8356    0.7415 H   0  0  0  0  0  0  0  0  0  0  0  0
    1.8193    1.1868    1.3217 C   0  0  0  0  0  0  0  0  0  0  0  0
    1.9249    2.4950    0.7980 C   0  0  0  0  0  0  0  0  0  0  0  0
    1.8821    2.6446   -0.2942 H   0  0  0  0  0  0  0  0  0  0  0  0
    2.0719    3.5807    1.6713 C   0  0  0  0  0  0  0  0  0  0  0  0
    2.1567    4.5994    1.2634 H   0  0  0  0  0  0  0  0  0  0  0  0
    2.0998    3.3718    3.0620 C   0  0  0  0  0  0  0  0  0  0  0  0
    2.2070    4.2283    3.7448 H   0  0  0  0  0  0  0  0  0  0  0  0
    1.9853    2.0724    3.5801 C   0  0  0  0  0  0  0  0  0  0  0  0
    2.0024    1.9082    4.6682 H   0  0  0  0  0  0  0  0  0  0  0  0
    1.8462    0.9764    2.7129 C   0  0  0  0  0  0  0  0  0  0  0  0
    1.7560   -0.0435    3.1165 H   0  0  0  0  0  0  0  0  0  0  0  0
   -3.9302   -0.6102    0.6608 C   0  0  1  0  0  0  0  0  0  0  0  0
   -3.8766   -0.7089    1.7765 H   0  0  0  0  0  0  0  0  0  0  0  0
   -5.0100    0.4265    0.3087 C   0  0  0  0  0  0  0  0  0  0  0  0
   -5.3518    0.2562   -0.7311 H   0  0  0  0  0  0  0  0  0  0  0  0
   -5.8893    0.3448    0.9751 H   0  0  0  0  0  0  0  0  0  0  0  0
   -4.2948    1.7724    0.4121 C   0  0  0  0  0  0  0  0  0  0  0  0
   -4.2446    2.0976    1.4719 H   0  0  0  0  0  0  0  0  0  0  0  0
   -4.8019    2.5719   -0.1599 H   0  0  0  0  0  0  0  0  0  0  0  0
   -2.8820    1.5033   -0.1291 C   0  0  1  0  0  0  0  0  0  0  0  0
   -2.8554    1.6223   -1.2350 H   0  0  0  0  0  0  0  0  0  0  0  0
   -4.1797   -2.0218    0.0654 C   0  0  0  0  0  0  0  0  0  0  0  0
   -3.3051   -2.6546    0.3272 H   0  0  0  0  0  0  0  0  0  0  0  0
   -5.4050   -2.6540    0.7393 C   0  0  0  0  0  0  0  0  0  0  0  0
   -6.3347   -2.1028    0.4869 H   0  0  0  0  0  0  0  0  0  0  0  0
   -5.3121   -2.6703    1.8457 H   0  0  0  0  0  0  0  0  0  0  0  0
   -5.5406   -3.6993    0.3971 H   0  0  0  0  0  0  0  0  0  0  0  0
   -4.2872   -2.0307   -1.4629 C   0  0  0  0  0  0  0  0  0  0  0  0
   -4.2737   -3.0739   -1.8372 H   0  0  0  0  0  0  0  0  0  0  0  0
   -3.4510   -1.4778   -1.9399 H   0  0  0  0  0  0  0  0  0  0  0  0
   -5.2382   -1.5758   -1.8104 H   0  0  0  0  0  0  0  0  0  0  0  0
   -1.7728    2.3891    0.4768 C   0  0  0  0  0  0  0  0  0  0  0  0
   -0.8212    2.0487    0.0035 H   0  0  0  0  0  0  0  0  0  0  0  0
   -1.6120    2.2429    1.9931 C   0  0  0  0  0  0  0  0  0  0  0  0
   -2.4939    2.6289    2.5461 H   0  0  0  0  0  0  0  0  0  0  0  0
   -0.7296    2.8148    2.3418 H   0  0  0  0  0  0  0  0  0  0  0  0
   -1.4555    1.1875    2.2939 H   0  0  0  0  0  0  0  0  0  0  0  0
   -1.9726    3.8468    0.0524 C   0  0  0  0  0  0  0  0  0  0  0  0
   -2.0398    3.9359   -1.0507 H   0  0  0  0  0  0  0  0  0  0  0  0
   -1.1183    4.4673    0.3910 H   0  0  0  0  0  0  0  0  0  0  0  0
   -2.8952    4.2823    0.4914 H   0  0  0  0  0  0  0  0  0  0  0  0
  1  4  1  0  0  0  0
  1 27  1  0  0  0  0
  2 14  1  0  0  0  0
  3  2  1  0  0  0  0
  3 38  1  0  0  0  0
  4  5  2  0  0  0  0
  4 12  1  0  0  0  0
  5  6  1  0  0  0  0
  6  7  1  0  0  0  0
  6  8  2  0  0  0  0
  8  9  1  0  0  0  0
 10  8  1  0  0  0  0
 10 11  1  0  0  0  0
 12 10  2  0  0  0  0
 13 12  1  0  0  0  0
 14  5  1  0  0  0  0
 14 15  1  0  0  0  0
 16 25  1  0  0  0  0
 16  1  1  0  0  0  0
 17 16  2  0  0  0  0
 18 17  1  0  0  0  0
 19 21  2  0  0  0  0
 19 17  1  0  0  0  0
 20 19  1  0  0  0  0
 21 23  1  0  0  0  0
 22 21  1  0  0  0  0
 23 24  1  0  0  0  0
 23 25  2  0  0  0  0
 25 26  1  0  0  0  0
 27 36  1  0  0  0  0
 28 27  2  0  0  0  0
 28 30  1  0  0  0  0
 29 28  1  0  0  0  0
 30 32  2  0  0  0  0
 31 30  1  0  0  0  0
 32 34  1  0  0  0  0
 32 33  1  0  0  0  0
 34 35  1  0  0  0  0
 36 37  1  0  0  0  0
 36 34  2  0  0  0  0
 38 39  1  1  0  0  0
 40 43  1  0  0  0  0
 40 38  1  0  0  0  0
 40 42  1  0  0  0  0
 41 40  1  0  0  0  0
 43 44  1  0  0  0  0
 45 43  1  0  0  0  0
 46 47  1  6  0  0  0
 46  3  1  0  0  0  0
 46 43  1  0  0  0  0
 46 58  1  0  0  0  0
 48 49  1  0  0  0  0
 48 38  1  0  0  0  0
 48 50  1  0  0  0  0
 50 52  1  0  0  0  0
 51 50  1  0  0  0  0
 53 50  1  0  0  0  0
 54 48  1  0  0  0  0
 55 54  1  0  0  0  0
 56 54  1  0  0  0  0
 57 54  1  0  0  0  0
 58 60  1  0  0  0  0
 59 58  1  0  0  0  0
 60 63  1  0  0  0  0
 60 62  1  0  0  0  0
 60 61  1  0  0  0  0
 64 66  1  0  0  0  0
 64 58  1  0  0  0  0
 64 67  1  0  0  0  0
 65 64  1  0  0  0  0
M  END
