1,2
 OpenBabel05122313063D

 40 40  0  0  1  0  0  0  0  0999 V2000
    1.3854    0.1747   -0.0025 P   0  0  0  0  0  0  0  0  0  0  0  0
   -1.2590    1.3989   -0.3386 N   0  0  0  0  0  2  0  0  0  0  0  0
    1.9458    0.3867    1.8136 C   0  0  0  0  0  0  0  0  0  0  0  0
    1.8883   -0.9910    2.4988 C   0  0  0  0  0  0  0  0  0  0  0  0
    2.1173   -0.8711    3.5790 H   0  0  0  0  0  0  0  0  0  0  0  0
    2.6178   -1.7084    2.0783 H   0  0  0  0  0  0  0  0  0  0  0  0
    0.8772   -1.4329    2.4027 H   0  0  0  0  0  0  0  0  0  0  0  0
    3.3351    1.0158    1.9824 C   0  0  0  0  0  0  0  0  0  0  0  0
    3.5187    1.2110    3.0608 H   0  0  0  0  0  0  0  0  0  0  0  0
    3.4288    1.9868    1.4546 H   0  0  0  0  0  0  0  0  0  0  0  0
    4.1449    0.3480    1.6302 H   0  0  0  0  0  0  0  0  0  0  0  0
    0.8844    1.2922    2.4708 C   0  0  0  0  0  0  0  0  0  0  0  0
    1.0725    1.3323    3.5646 H   0  0  0  0  0  0  0  0  0  0  0  0
   -0.1370    0.8912    2.3100 H   0  0  0  0  0  0  0  0  0  0  0  0
    0.9163    2.3331    2.0918 H   0  0  0  0  0  0  0  0  0  0  0  0
    2.8021   -0.4290   -1.1329 C   0  0  0  0  0  0  0  0  0  0  0  0
    2.1381   -0.7242   -2.4927 C   0  0  0  0  0  0  0  0  0  0  0  0
    2.9083   -1.1021   -3.1982 H   0  0  0  0  0  0  0  0  0  0  0  0
    1.6888    0.1824   -2.9474 H   0  0  0  0  0  0  0  0  0  0  0  0
    1.3347   -1.4788   -2.4002 H   0  0  0  0  0  0  0  0  0  0  0  0
    3.3786   -1.7355   -0.5607 C   0  0  0  0  0  0  0  0  0  0  0  0
    4.0709   -2.1857   -1.3034 H   0  0  0  0  0  0  0  0  0  0  0  0
    2.5819   -2.4747   -0.3492 H   0  0  0  0  0  0  0  0  0  0  0  0
    3.9580   -1.5648    0.3676 H   0  0  0  0  0  0  0  0  0  0  0  0
    3.9235    0.6047   -1.3346 C   0  0  0  0  0  0  0  0  0  0  0  0
    4.6738    0.1870   -2.0397 H   0  0  0  0  0  0  0  0  0  0  0  0
    4.4547    0.8527   -0.3981 H   0  0  0  0  0  0  0  0  0  0  0  0
    3.5527    1.5477   -1.7830 H   0  0  0  0  0  0  0  0  0  0  0  0
    1.1165    1.9308   -0.6043 C   0  0  0  0  0  0  0  0  0  0  0  0
    1.8307    2.6579   -0.1686 H   0  0  0  0  0  0  0  0  0  0  0  0
    1.3224    1.8975   -1.6961 H   0  0  0  0  0  0  0  0  0  0  0  0
   -0.3107    2.3725   -0.4111 C   0  0  1  0  0  3  0  0  0  0  0  0
   -0.6697    3.7294   -0.3439 C   0  0  0  0  0  0  0  0  0  0  0  0
    0.1148    4.4987   -0.3925 H   0  0  0  0  0  0  0  0  0  0  0  0
   -2.0199    4.0850   -0.2264 C   0  0  0  0  0  0  0  0  0  0  0  0
   -2.3133    5.1442   -0.1720 H   0  0  0  0  0  0  0  0  0  0  0  0
   -2.9850    3.0678   -0.1827 C   0  0  0  0  0  0  0  0  0  0  0  0
   -4.0569    3.2971   -0.0979 H   0  0  0  0  0  0  0  0  0  0  0  0
   -2.5643    1.7360   -0.2359 C   0  0  0  0  0  0  0  0  0  0  0  0
   -3.2462    0.8652   -0.2019 H   0  0  0  0  0  0  0  0  0  0  0  0
  1  3  1  0  0  0  0
  2 39  1  0  0  0  0
  3  8  1  0  0  0  0
  3 12  1  0  0  0  0
  3  4  1  0  0  0  0
  4  5  1  0  0  0  0
  6  4  1  0  0  0  0
  7  4  1  0  0  0  0
  8  9  1  0  0  0  0
 10  8  1  0  0  0  0
 11  8  1  0  0  0  0
 12 13  1  0  0  0  0
 14 12  1  0  0  0  0
 15 12  1  0  0  0  0
 16 21  1  0  0  0  0
 16  1  1  0  0  0  0
 17 20  1  0  0  0  0
 17 16  1  0  0  0  0
 18 17  1  0  0  0  0
 19 17  1  0  0  0  0
 21 23  1  0  0  0  0
 21 24  1  0  0  0  0
 22 21  1  0  0  0  0
 25 16  1  0  0  0  0
 25 27  1  0  0  0  0
 26 25  1  0  0  0  0
 28 25  1  0  0  0  0
 29 30  1  0  0  0  0
 29  1  1  0  0  0  0
 31 29  1  0  0  0  0
 32 29  1  6  0  0  0
 32 33  1  0  0  0  0
 32  2  1  0  0  0  0
 33 35  2  0  0  0  0
 34 33  1  0  0  0  0
 35 37  1  0  0  0  0
 35 36  1  0  0  0  0
 37 38  1  0  0  0  0
 39 40  1  0  0  0  0
 39 37  2  0  0  0  0
M  END
