7,11
 OpenBabel05122313063D

 36 36  0  0  0  0  0  0  0  0999 V2000
   -2.1200   -0.9220    1.1701 O   0  0  0  0  0  0  0  0  0  0  0  0
   -1.4365   -2.1396    1.4675 C   0  0  0  0  0  0  0  0  0  0  0  0
   -0.1502   -1.9435    2.2668 C   0  0  0  0  0  0  0  0  0  0  0  0
    0.9695   -1.3512    1.5355 N   0  0  0  0  0  0  0  0  0  0  0  0
    1.5889   -2.2653    0.5788 C   0  0  0  0  0  0  0  0  0  0  0  0
    2.2143   -1.5623   -0.6267 C   0  0  0  0  0  0  0  0  0  0  0  0
    1.2446   -0.7855   -1.4425 N   0  0  0  0  0  0  0  0  0  0  0  0
    0.2798   -1.6826   -2.1279 C   0  0  0  0  0  0  0  0  0  0  0  0
   -1.0637   -1.0422   -2.4527 C   0  0  0  0  0  0  0  0  0  0  0  0
   -1.9346   -1.0518   -1.3164 O   0  0  0  0  0  0  0  0  0  0  0  0
   -1.6143    0.0417   -0.0870 P   0  0  0  0  0  0  0  0  0  0  0  0
    1.9483   -0.7625    2.4489 C   0  0  0  0  0  0  0  0  0  0  0  0
    1.9778   -0.0203   -2.4806 C   0  0  0  0  0  0  0  0  0  0  0  0
   -2.8899    1.0580   -0.1149 O   0  0  0  0  0  0  0  0  0  0  0  0
   -4.2379    0.5712   -0.0797 C   0  0  0  0  0  0  0  0  0  0  0  0
   -2.1392   -2.7372    2.0835 H   0  0  0  0  0  0  0  0  0  0  0  0
   -1.2613   -2.7140    0.5301 H   0  0  0  0  0  0  0  0  0  0  0  0
    0.1299   -2.9340    2.7154 H   0  0  0  0  0  0  0  0  0  0  0  0
   -0.3882   -1.2714    3.1153 H   0  0  0  0  0  0  0  0  0  0  0  0
    2.7173   -0.2048    1.8811 H   0  0  0  0  0  0  0  0  0  0  0  0
    2.4366   -1.5389    3.0917 H   0  0  0  0  0  0  0  0  0  0  0  0
    1.4441   -0.0214    3.0977 H   0  0  0  0  0  0  0  0  0  0  0  0
    2.3866   -2.8844    1.0641 H   0  0  0  0  0  0  0  0  0  0  0  0
    0.8232   -2.9904    0.2356 H   0  0  0  0  0  0  0  0  0  0  0  0
    2.7251   -2.3222   -1.2661 H   0  0  0  0  0  0  0  0  0  0  0  0
    2.9781   -0.8336   -0.2880 H   0  0  0  0  0  0  0  0  0  0  0  0
    2.6631    0.6929   -1.9867 H   0  0  0  0  0  0  0  0  0  0  0  0
    1.2588    0.5575   -3.0900 H   0  0  0  0  0  0  0  0  0  0  0  0
    2.5432   -0.7169   -3.1441 H   0  0  0  0  0  0  0  0  0  0  0  0
    0.0706   -2.5615   -1.4886 H   0  0  0  0  0  0  0  0  0  0  0  0
    0.7488   -2.0720   -3.0617 H   0  0  0  0  0  0  0  0  0  0  0  0
   -1.5770   -1.6417   -3.2309 H   0  0  0  0  0  0  0  0  0  0  0  0
   -0.9296   -0.0090   -2.8430 H   0  0  0  0  0  0  0  0  0  0  0  0
   -4.8921    1.4394   -0.2837 H   0  0  0  0  0  0  0  0  0  0  0  0
   -4.4776    0.1468    0.9158 H   0  0  0  0  0  0  0  0  0  0  0  0
   -4.3994   -0.2050   -0.8563 H   0  0  0  0  0  0  0  0  0  0  0  0
  1  2  1  0  0  0  0
  2 16  1  0  0  0  0
  2  3  1  0  0  0  0
  3 18  1  0  0  0  0
  3 19  1  0  0  0  0
  4  3  1  0  0  0  0
  4 12  1  0  0  0  0
  5 23  1  0  0  0  0
  5  4  1  0  0  0  0
  6 26  1  0  0  0  0
  6  5  1  0  0  0  0
  7  6  1  0  0  0  0
  8 30  1  0  0  0  0
  8  7  1  0  0  0  0
  9  8  1  0  0  0  0
  9 10  1  0  0  0  0
 10 11  1  0  0  0  0
 11  1  1  0  0  0  0
 12 21  1  0  0  0  0
 12 22  1  0  0  0  0
 13 27  1  0  0  0  0
 13  7  1  0  0  0  0
 14 11  1  0  0  0  0
 14 15  1  0  0  0  0
 15 35  1  0  0  0  0
 17  2  1  0  0  0  0
 20 12  1  0  0  0  0
 24  5  1  0  0  0  0
 25  6  1  0  0  0  0
 28 13  1  0  0  0  0
 29 13  1  0  0  0  0
 31  8  1  0  0  0  0
 32  9  1  0  0  0  0
 33  9  1  0  0  0  0
 34 15  1  0  0  0  0
 36 15  1  0  0  0  0
M  END
