1,4
 OpenBabel05122313063D

 38 38  0  0  0  0  0  0  0  0999 V2000
   -2.1757   -0.4749    0.2187 P   0  0  0  0  0  0  0  0  0  0  0  0
    1.0638    2.6504   -1.4807 O   0  0  0  0  0  0  0  0  0  0  0  0
   -2.4009    0.9710    1.0962 O   0  0  0  0  0  0  0  0  0  0  0  0
   -0.5220    1.7899   -0.0318 N   0  0  0  0  0  2  0  0  0  0  0  0
    0.1564    2.8631   -0.6191 C   0  0  0  0  0  0  0  0  0  0  0  0
   -0.2238    4.1914   -0.2225 C   0  0  0  0  0  0  0  0  0  0  0  0
    0.3561    5.0167   -0.6557 H   0  0  0  0  0  0  0  0  0  0  0  0
   -1.2857    4.4003    0.6423 C   0  0  0  0  0  0  0  0  0  0  0  0
   -1.5718    5.4235    0.9315 H   0  0  0  0  0  0  0  0  0  0  0  0
   -2.0317    3.3049    1.1254 C   0  0  0  0  0  0  0  0  0  0  0  0
   -2.9302    3.4128    1.7446 H   0  0  0  0  0  0  0  0  0  0  0  0
   -1.6186    2.0341    0.7302 C   0  0  0  0  0  0  0  0  0  0  0  0
   -2.7709   -1.6991    1.5512 C   0  0  0  0  0  0  0  0  0  0  0  0
   -1.6290   -1.9147    2.5630 C   0  0  0  0  0  0  0  0  0  0  0  0
   -2.0063   -2.5734    3.3731 H   0  0  0  0  0  0  0  0  0  0  0  0
   -1.3001   -0.9619    3.0211 H   0  0  0  0  0  0  0  0  0  0  0  0
   -0.7471   -2.4008    2.1084 H   0  0  0  0  0  0  0  0  0  0  0  0
   -3.9844   -1.1456    2.3242 C   0  0  0  0  0  0  0  0  0  0  0  0
   -4.8866   -1.0380    1.6993 H   0  0  0  0  0  0  0  0  0  0  0  0
   -3.7563   -0.1641    2.7802 H   0  0  0  0  0  0  0  0  0  0  0  0
   -4.2282   -1.8560    3.1416 H   0  0  0  0  0  0  0  0  0  0  0  0
   -3.1095   -3.0446    0.8832 C   0  0  0  0  0  0  0  0  0  0  0  0
   -2.2646   -3.4417    0.2863 H   0  0  0  0  0  0  0  0  0  0  0  0
   -4.0043   -2.9830    0.2350 H   0  0  0  0  0  0  0  0  0  0  0  0
   -3.3296   -3.7890    1.6767 H   0  0  0  0  0  0  0  0  0  0  0  0
   -3.4571   -0.3035   -1.1905 C   0  0  0  0  0  0  0  0  0  0  0  0
   -3.1920   -1.4416   -2.1942 C   0  0  0  0  0  0  0  0  0  0  0  0
   -3.4093   -2.4421   -1.7750 H   0  0  0  0  0  0  0  0  0  0  0  0
   -2.1434   -1.4367   -2.5492 H   0  0  0  0  0  0  0  0  0  0  0  0
   -3.8473   -1.3000   -3.0790 H   0  0  0  0  0  0  0  0  0  0  0  0
   -3.1692    1.0504   -1.8714 C   0  0  0  0  0  0  0  0  0  0  0  0
   -3.7918    1.1207   -2.7875 H   0  0  0  0  0  0  0  0  0  0  0  0
   -2.1116    1.1580   -2.1747 H   0  0  0  0  0  0  0  0  0  0  0  0
   -3.4311    1.9055   -1.2186 H   0  0  0  0  0  0  0  0  0  0  0  0
   -4.9224   -0.3108   -0.7317 C   0  0  0  0  0  0  0  0  0  0  0  0
   -5.1140    0.4632    0.0369 H   0  0  0  0  0  0  0  0  0  0  0  0
   -5.2447   -1.2938   -0.3389 H   0  0  0  0  0  0  0  0  0  0  0  0
   -5.5690   -0.0810   -1.6050 H   0  0  0  0  0  0  0  0  0  0  0  0
  1  3  1  0  0  0  0
  1 13  1  0  0  0  0
  2  5  2  0  0  0  0
  4 12  1  0  0  0  0
  5  6  1  0  0  0  0
  5  4  1  0  0  0  0
  6  8  2  0  0  0  0
  7  6  1  0  0  0  0
  8  9  1  0  0  0  0
  8 10  1  0  0  0  0
 10 11  1  0  0  0  0
 12  3  1  0  0  0  0
 12 10  2  0  0  0  0
 13 18  1  0  0  0  0
 13 14  1  0  0  0  0
 14 16  1  0  0  0  0
 14 15  1  0  0  0  0
 17 14  1  0  0  0  0
 18 20  1  0  0  0  0
 18 21  1  0  0  0  0
 19 18  1  0  0  0  0
 22 13  1  0  0  0  0
 22 25  1  0  0  0  0
 23 22  1  0  0  0  0
 24 22  1  0  0  0  0
 26 35  1  0  0  0  0
 26  1  1  0  0  0  0
 27 28  1  0  0  0  0
 27 26  1  0  0  0  0
 29 27  1  0  0  0  0
 30 27  1  0  0  0  0
 31 34  1  0  0  0  0
 31 26  1  0  0  0  0
 32 31  1  0  0  0  0
 33 31  1  0  0  0  0
 35 37  1  0  0  0  0
 35 36  1  0  0  0  0
 38 35  1  0  0  0  0
M  END
