1,2
 OpenBabel05122313063D

 35 37  0  0  0  0  0  0  0  0999 V2000
   -1.7791    0.1506    0.1179 P   0  0  0  0  0  0  0  0  0  0  0  0
   -0.1261   -2.1931    0.2428 N   0  0  0  0  0  2  0  0  0  0  0  0
   -1.8894   -1.0686    1.4493 C   0  0  0  0  0  0  0  0  0  0  0  0
   -2.8107   -1.0396    2.5169 C   0  0  0  0  0  0  0  0  0  0  0  0
   -2.8303   -2.0580    3.4744 C   0  0  0  0  0  0  0  0  0  0  0  0
   -1.9309   -3.1416    3.3341 C   0  0  0  0  0  0  0  0  0  0  0  0
   -1.0409   -3.2145    2.2685 C   0  0  0  0  0  0  0  0  0  0  0  0
   -0.9861   -2.1770    1.2830 C   0  0  0  0  0  0  0  0  0  0  0  0
   -3.8072    1.4724   -1.3395 C   0  0  0  0  0  0  0  0  0  0  0  0
   -5.0511    1.5400   -1.9827 C   0  0  0  0  0  0  0  0  0  0  0  0
   -5.9210    0.4386   -1.9546 C   0  0  0  0  0  0  0  0  0  0  0  0
   -5.5420   -0.7365   -1.2860 C   0  0  0  0  0  0  0  0  0  0  0  0
   -4.2975   -0.8149   -0.6466 C   0  0  0  0  0  0  0  0  0  0  0  0
   -3.4303    0.2963   -0.6625 C   0  0  0  0  0  0  0  0  0  0  0  0
   -1.7777    2.1864    2.1221 C   0  0  0  0  0  0  0  0  0  0  0  0
   -1.4876    3.4727    2.6006 C   0  0  0  0  0  0  0  0  0  0  0  0
   -0.8852    4.4220    1.7582 C   0  0  0  0  0  0  0  0  0  0  0  0
   -0.5764    4.0809    0.4334 C   0  0  0  0  0  0  0  0  0  0  0  0
   -0.8583    2.7942   -0.0512 C   0  0  0  0  0  0  0  0  0  0  0  0
   -1.4602    1.8370    0.7925 C   0  0  0  0  0  0  0  0  0  0  0  0
   -3.5458   -0.2215    2.5749 H   0  0  0  0  0  0  0  0  0  0  0  0
   -3.5507   -2.0312    4.3043 H   0  0  0  0  0  0  0  0  0  0  0  0
   -1.9427   -3.9558    4.0761 H   0  0  0  0  0  0  0  0  0  0  0  0
   -0.3585   -4.0728    2.1688 H   0  0  0  0  0  0  0  0  0  0  0  0
   -3.1297    2.3376   -1.3677 H   0  0  0  0  0  0  0  0  0  0  0  0
   -5.3413    2.4612   -2.5105 H   0  0  0  0  0  0  0  0  0  0  0  0
   -6.8976    0.4950   -2.4594 H   0  0  0  0  0  0  0  0  0  0  0  0
   -6.2171   -1.6054   -1.2689 H   0  0  0  0  0  0  0  0  0  0  0  0
   -3.9900   -1.7381   -0.1353 H   0  0  0  0  0  0  0  0  0  0  0  0
   -2.2264    1.4432    2.7957 H   0  0  0  0  0  0  0  0  0  0  0  0
   -1.7303    3.7324    3.6424 H   0  0  0  0  0  0  0  0  0  0  0  0
   -0.6514    5.4279    2.1393 H   0  0  0  0  0  0  0  0  0  0  0  0
   -0.0896    4.8119   -0.2292 H   0  0  0  0  0  0  0  0  0  0  0  0
   -0.5933    2.5155   -1.0846 H   0  0  0  0  0  0  0  0  0  0  0  0
    0.3622   -3.0736    0.0676 H   0  0  0  0  0  0  0  0  0  0  0  0
  1 20  1  0  0  0  0
  1  3  1  0  0  0  0
  2  8  1  0  0  0  0
  3  4  1  0  0  0  0
  4 21  1  0  0  0  0
  4  5  2  0  0  0  0
  5 22  1  0  0  0  0
  6  5  1  0  0  0  0
  6 23  1  0  0  0  0
  7  6  2  0  0  0  0
  8  3  2  0  0  0  0
  8  7  1  0  0  0  0
  9 14  1  0  0  0  0
 10 11  1  0  0  0  0
 10  9  2  0  0  0  0
 11 12  2  0  0  0  0
 12 28  1  0  0  0  0
 12 13  1  0  0  0  0
 13 29  1  0  0  0  0
 14 13  2  0  0  0  0
 14  1  1  0  0  0  0
 15 16  1  0  0  0  0
 15 30  1  0  0  0  0
 16 31  1  0  0  0  0
 17 32  1  0  0  0  0
 17 16  2  0  0  0  0
 18 17  1  0  0  0  0
 19 18  2  0  0  0  0
 19 20  1  0  0  0  0
 20 15  2  0  0  0  0
 24  7  1  0  0  0  0
 25  9  1  0  0  0  0
 26 10  1  0  0  0  0
 27 11  1  0  0  0  0
 33 18  1  0  0  0  0
 34 19  1  0  0  0  0
 35  2  1  0  0  0  0
M  END
