1,14
 OpenBabel05122313063D

 49 51  0  0  0  0  0  0  0  0999 V2000
   -0.8854    0.0185    0.1348 P   0  0  0  0  0  0  0  0  0  0  0  0
   -2.3796   -0.8915    0.6671 C   0  0  0  0  0  0  0  0  0  0  0  0
   -2.2075   -2.1639    1.2484 C   0  0  0  0  0  0  0  0  0  0  0  0
   -3.3239   -2.8735    1.7110 C   0  0  0  0  0  0  0  0  0  0  0  0
   -4.6106   -2.3228    1.5889 C   0  0  0  0  0  0  0  0  0  0  0  0
   -4.7837   -1.0619    0.9962 C   0  0  0  0  0  0  0  0  0  0  0  0
   -3.6711   -0.3451    0.5295 C   0  0  0  0  0  0  0  0  0  0  0  0
   -1.4677    1.1886   -1.1566 C   0  0  0  0  0  0  0  0  0  0  0  0
   -1.8010    2.5306   -0.8879 C   0  0  0  0  0  0  0  0  0  0  0  0
   -2.2494    3.3619   -1.9266 C   0  0  0  0  0  0  0  0  0  0  0  0
   -2.3596    2.8622   -3.2333 C   0  0  0  0  0  0  0  0  0  0  0  0
   -2.0165    1.5264   -3.5029 C   0  0  0  0  0  0  0  0  0  0  0  0
   -1.5699    0.6870   -2.4727 C   0  0  0  0  0  0  0  0  0  0  0  0
    1.9381    0.1866    1.1242 N   0  0  0  0  0  0  0  0  0  0  0  0
    1.7750    2.7592   -0.4124 O   0  0  0  0  0  0  0  0  0  0  0  0
    2.5163   -0.7407    2.1529 C   0  0  0  0  0  0  0  0  0  0  0  0
    3.0636    0.9118    0.4381 C   0  0  0  0  0  0  0  0  0  0  0  0
    2.6405    1.7064   -0.7784 C   0  0  0  0  0  0  0  0  0  0  0  0
    1.3784    3.5336   -1.5225 C   0  0  0  0  0  0  0  0  0  0  0  0
    0.8281    2.9265   -2.2794 H   0  0  0  0  0  0  0  0  0  0  0  0
    2.2550    4.0091   -2.0267 H   0  0  0  0  0  0  0  0  0  0  0  0
    0.7032    4.3290   -1.1544 H   0  0  0  0  0  0  0  0  0  0  0  0
    1.0050    1.1080    1.8210 C   0  0  0  0  0  0  0  0  0  0  0  0
    1.4831    1.9772    2.8159 C   0  0  0  0  0  0  0  0  0  0  0  0
    0.5885    2.7521    3.5656 C   0  0  0  0  0  0  0  0  0  0  0  0
   -0.7947    2.6537    3.3448 C   0  0  0  0  0  0  0  0  0  0  0  0
   -1.2737    1.8020    2.3416 C   0  0  0  0  0  0  0  0  0  0  0  0
   -0.3764    1.0490    1.5594 C   0  0  0  0  0  0  0  0  0  0  0  0
   -1.1953   -2.5932    1.3109 H   0  0  0  0  0  0  0  0  0  0  0  0
   -3.1896   -3.8701    2.1577 H   0  0  0  0  0  0  0  0  0  0  0  0
   -5.4859   -2.8861    1.9467 H   0  0  0  0  0  0  0  0  0  0  0  0
   -5.7929   -0.6366    0.8864 H   0  0  0  0  0  0  0  0  0  0  0  0
   -3.8074    0.6329    0.0424 H   0  0  0  0  0  0  0  0  0  0  0  0
   -1.6880    2.9387    0.1264 H   0  0  0  0  0  0  0  0  0  0  0  0
   -2.5053    4.4108   -1.7118 H   0  0  0  0  0  0  0  0  0  0  0  0
   -2.7071    3.5178   -4.0463 H   0  0  0  0  0  0  0  0  0  0  0  0
   -2.0912    1.1325   -4.5279 H   0  0  0  0  0  0  0  0  0  0  0  0
   -1.2839   -0.3595   -2.6758 H   0  0  0  0  0  0  0  0  0  0  0  0
    3.1334   -1.4884    1.6192 H   0  0  0  0  0  0  0  0  0  0  0  0
    3.1275   -0.1752    2.8869 H   0  0  0  0  0  0  0  0  0  0  0  0
    1.6851   -1.2496    2.6728 H   0  0  0  0  0  0  0  0  0  0  0  0
    3.7570    0.1159    0.1002 H   0  0  0  0  0  0  0  0  0  0  0  0
    3.5790    1.5648    1.1744 H   0  0  0  0  0  0  0  0  0  0  0  0
    2.1519    1.0168   -1.5113 H   0  0  0  0  0  0  0  0  0  0  0  0
    3.5700    2.1010   -1.2621 H   0  0  0  0  0  0  0  0  0  0  0  0
    2.5603    2.0464    3.0230 H   0  0  0  0  0  0  0  0  0  0  0  0
    0.9776    3.4260    4.3434 H   0  0  0  0  0  0  0  0  0  0  0  0
   -1.4980    3.2401    3.9544 H   0  0  0  0  0  0  0  0  0  0  0  0
   -2.3558    1.7076    2.1623 H   0  0  0  0  0  0  0  0  0  0  0  0
  1  2  1  0  0  0  0
  1 28  1  0  0  0  0
  2  3  1  0  0  0  0
  3 29  1  0  0  0  0
  3  4  2  0  0  0  0
  4 30  1  0  0  0  0
  5  4  1  0  0  0  0
  5 31  1  0  0  0  0
  6  5  2  0  0  0  0
  7  2  2  0  0  0  0
  7  6  1  0  0  0  0
  8  9  1  0  0  0  0
  8  1  1  0  0  0  0
  9 34  1  0  0  0  0
 10 35  1  0  0  0  0
 10  9  2  0  0  0  0
 11 10  1  0  0  0  0
 12 11  2  0  0  0  0
 12 13  1  0  0  0  0
 13  8  2  0  0  0  0
 14 23  1  0  0  0  0
 14 16  1  0  0  0  0
 16 41  1  0  0  0  0
 16 40  1  0  0  0  0
 17 14  1  0  0  0  0
 17 43  1  0  0  0  0
 18 15  1  0  0  0  0
 18 17  1  0  0  0  0
 19 22  1  0  0  0  0
 19 15  1  0  0  0  0
 20 19  1  0  0  0  0
 21 19  1  0  0  0  0
 23 24  1  0  0  0  0
 24 46  1  0  0  0  0
 24 25  2  0  0  0  0
 25 47  1  0  0  0  0
 26 25  1  0  0  0  0
 26 48  1  0  0  0  0
 27 26  2  0  0  0  0
 28 23  2  0  0  0  0
 28 27  1  0  0  0  0
 32  6  1  0  0  0  0
 33  7  1  0  0  0  0
 36 11  1  0  0  0  0
 37 12  1  0  0  0  0
 38 13  1  0  0  0  0
 39 16  1  0  0  0  0
 42 17  1  0  0  0  0
 44 18  1  0  0  0  0
 45 18  1  0  0  0  0
 49 27  1  0  0  0  0
M  END
