1,19
q = 0.0, confidence = 0.996

 47 50  0  0  1  0  0  0  0  0999 V2000
    1.6544    1.3422    0.3948 P   0  0  1  0  0  0  0  0  0  0  0  0
    0.1412    2.9106    2.1451 N   0  0  2  0  0  0  0  0  0  0  0  0
   -0.8263    2.5887   -0.0994 N   0  0  1  0  0  0  0  0  0  0  0  0
    1.0360    1.7548    2.1294 C   0  0  0  0  0  0  0  0  0  0  0  0
    0.5170    0.8564    2.5249 H   0  0  0  0  0  0  0  0  0  0  0  0
    1.9163    1.9371    2.7817 H   0  0  0  0  0  0  0  0  0  0  0  0
   -0.0549    1.4066   -0.4749 C   0  0  2  0  0  0  0  0  0  0  0  0
    0.2102    1.4925   -1.5563 H   0  0  0  0  0  0  0  0  0  0  0  0
   -1.0695    2.6706    1.3550 C   0  0  0  0  0  0  0  0  0  0  0  0
   -1.5574    1.7354    1.6948 H   0  0  0  0  0  0  0  0  0  0  0  0
   -1.7742    3.5101    1.5299 H   0  0  0  0  0  0  0  0  0  0  0  0
    0.8076    4.1191    1.6452 C   0  0  0  0  0  0  0  0  0  0  0  0
    0.1343    4.9841    1.8221 H   0  0  0  0  0  0  0  0  0  0  0  0
    1.7441    4.2841    2.2165 H   0  0  0  0  0  0  0  0  0  0  0  0
   -0.1250    3.8135   -0.5238 C   0  0  0  0  0  0  0  0  0  0  0  0
    0.0943    3.7476   -1.6096 H   0  0  0  0  0  0  0  0  0  0  0  0
   -0.8078    4.6722   -0.3542 H   0  0  0  0  0  0  0  0  0  0  0  0
    1.1176    4.0714    0.2089 N   0  0  2  0  0  0  0  0  0  0  0  0
    0.1566   -0.9560   -0.2591 N   0  0  0  0  0  2  0  0  0  0  0  0
   -0.3123   -1.8708   -0.2283 H   0  0  0  0  0  0  0  0  0  0  0  0
   -0.6967    0.0423   -0.2966 C   0  0  2  0  0  3  0  0  0  0  0  0
   -2.1497   -0.1624   -0.1973 C   0  0  0  0  0  0  0  0  0  0  0  0
    2.1617    3.0934   -0.0961 C   0  0  0  0  0  0  0  0  0  0  0  0
    3.0993    3.3543    0.4381 H   0  0  0  0  0  0  0  0  0  0  0  0
    2.3894    3.0927   -1.1832 H   0  0  0  0  0  0  0  0  0  0  0  0
   -4.5727   -2.6056    1.2182 O   0  0  0  0  0  0  0  0  0  0  0  0
   -5.3824    1.2960   -1.2901 O   0  0  0  0  0  0  0  0  0  0  0  0
   -3.0615    0.7452   -0.7822 C   0  0  0  0  0  0  0  0  0  0  0  0
   -2.6732    1.6461   -1.2670 H   0  0  0  0  0  0  0  0  0  0  0  0
   -2.6453   -1.3080    0.4705 C   0  0  0  0  0  0  0  0  0  0  0  0
   -1.9475   -1.9746    0.9939 H   0  0  0  0  0  0  0  0  0  0  0  0
   -4.9460   -0.6768   -0.0952 C   0  0  0  0  0  0  0  0  0  0  0  0
   -4.4403    0.4893   -0.7395 C   0  0  0  0  0  0  0  0  0  0  0  0
   -4.0248   -1.5600    0.5361 C   0  0  0  0  0  0  0  0  0  0  0  0
   -6.2908   -0.8172   -0.0745 O   0  0  0  0  0  0  0  0  0  0  0  0
   -3.7047   -3.5408    1.8318 C   0  0  0  0  0  0  0  0  0  0  0  0
   -4.3514   -4.3099    2.2926 H   0  0  0  0  0  0  0  0  0  0  0  0
   -3.0310   -4.0284    1.0922 H   0  0  0  0  0  0  0  0  0  0  0  0
   -3.0835   -3.0697    2.6259 H   0  0  0  0  0  0  0  0  0  0  0  0
   -4.9479    2.4818   -1.9278 C   0  0  0  0  0  0  0  0  0  0  0  0
   -5.8602    2.9998   -2.2768 H   0  0  0  0  0  0  0  0  0  0  0  0
   -4.3938    3.1494   -1.2302 H   0  0  0  0  0  0  0  0  0  0  0  0
   -4.2951    2.2676   -2.8040 H   0  0  0  0  0  0  0  0  0  0  0  0
   -6.8848   -2.1011   -0.2617 C   0  0  0  0  0  0  0  0  0  0  0  0
   -7.9247   -1.9082   -0.5886 H   0  0  0  0  0  0  0  0  0  0  0  0
   -6.3577   -2.6770   -1.0523 H   0  0  0  0  0  0  0  0  0  0  0  0
   -6.8905   -2.6969    0.6719 H   0  0  0  0  0  0  0  0  0  0  0  0
  1 23  1  6  0  0  0
  1  4  1  0  0  0  0
  2  9  1  6  0  0  0
  3 15  1  1  0  0  0
  3  9  1  0  0  0  0
  4  2  1  0  0  0  0
  4  5  1  0  0  0  0
  4  6  1  0  0  0  0
  7  8  1  6  0  0  0
  7 21  1  0  0  0  0
  7  3  1  0  0  0  0
  7  1  1  0  0  0  0
  9 11  1  0  0  0  0
  9 10  1  0  0  0  0
 12 13  1  0  0  0  0
 12  2  1  0  0  0  0
 12 14  1  0  0  0  0
 15 17  1  0  0  0  0
 16 15  1  0  0  0  0
 18 15  1  6  0  0  0
 18 12  1  0  0  0  0
 19 20  1  0  0  0  0
 21 19  1  6  0  0  0
 21 22  1  0  0  0  0
 22 30  1  0  0  0  0
 23 18  1  0  0  0  0
 23 24  1  0  0  0  0
 25 23  1  0  0  0  0
 26 36  1  0  0  0  0
 27 33  1  0  0  0  0
 28 33  1  0  0  0  0
 28 22  2  0  0  0  0
 29 28  1  0  0  0  0
 30 34  2  0  0  0  0
 30 31  1  0  0  0  0
 32 35  1  0  0  0  0
 32 34  1  0  0  0  0
 33 32  2  0  0  0  0
 34 26  1  0  0  0  0
 36 37  1  0  0  0  0
 36 39  1  0  0  0  0
 38 36  1  0  0  0  0
 40 27  1  0  0  0  0
 40 42  1  0  0  0  0
 41 40  1  0  0  0  0
 43 40  1  0  0  0  0
 44 35  1  0  0  0  0
 44 47  1  0  0  0  0
 45 44  1  0  0  0  0
 46 44  1  0  0  0  0
M  END
