1,3
 OpenBabel05122313063D

 65 70  0  0  1  0  0  0  0  0999 V2000
    1.1298   -0.2977    0.3142 P   0  0  0  0  0  0  0  0  0  0  0  0
   -2.2525   -0.2493    0.1935 N   0  0  0  0  0  0  0  0  0  0  0  0
   -1.0231    1.6966   -0.4651 N   0  0  0  0  0  2  0  0  0  0  0  0
   -0.1342   -1.3763    1.1210 C   0  0  0  0  0  0  0  0  0  0  0  0
    0.2615   -2.4904    1.8983 C   0  0  0  0  0  0  0  0  0  0  0  0
    1.3210   -2.6050    2.1648 H   0  0  0  0  0  0  0  0  0  0  0  0
   -0.6372   -3.4937    2.3040 C   0  0  0  0  0  0  0  0  0  0  0  0
   -0.2659   -4.3420    2.8974 H   0  0  0  0  0  0  0  0  0  0  0  0
   -1.9791   -3.4401    1.9131 C   0  0  0  0  0  0  0  0  0  0  0  0
   -2.6787   -4.2475    2.1754 H   0  0  0  0  0  0  0  0  0  0  0  0
   -2.4243   -2.3268    1.1837 C   0  0  0  0  0  0  0  0  0  0  0  0
   -3.7278   -1.9714    0.6545 C   0  0  0  0  0  0  0  0  0  0  0  0
   -4.9750   -2.6221    0.6235 C   0  0  0  0  0  0  0  0  0  0  0  0
   -5.0972   -3.6176    1.0758 H   0  0  0  0  0  0  0  0  0  0  0  0
   -6.0535   -1.9829   -0.0005 C   0  0  0  0  0  0  0  0  0  0  0  0
   -7.0343   -2.4793   -0.0389 H   0  0  0  0  0  0  0  0  0  0  0  0
   -5.8944   -0.7116   -0.5961 C   0  0  0  0  0  0  0  0  0  0  0  0
   -6.7508   -0.2373   -1.0980 H   0  0  0  0  0  0  0  0  0  0  0  0
   -4.6601   -0.0469   -0.5794 C   0  0  0  0  0  0  0  0  0  0  0  0
   -4.5325    0.9317   -1.0634 H   0  0  0  0  0  0  0  0  0  0  0  0
   -3.5885   -0.6917    0.0557 C   0  0  0  0  0  0  0  0  0  0  0  0
   -1.5176   -1.2729    0.8414 C   0  0  0  0  0  0  0  0  0  0  0  0
   -2.0070    1.1447    0.2775 C   0  0  1  0  0  3  0  0  0  0  0  0
   -2.8281    1.9382    1.1046 C   0  0  0  0  0  0  0  0  0  0  0  0
   -3.6036    1.4469    1.7074 H   0  0  0  0  0  0  0  0  0  0  0  0
   -2.6431    3.3220    1.1353 C   0  0  0  0  0  0  0  0  0  0  0  0
   -3.2684    3.9509    1.7860 H   0  0  0  0  0  0  0  0  0  0  0  0
   -1.6531    3.8888    0.3169 C   0  0  0  0  0  0  0  0  0  0  0  0
   -1.4859    4.9739    0.2783 H   0  0  0  0  0  0  0  0  0  0  0  0
   -0.8686    3.0452   -0.4696 C   0  0  0  0  0  0  0  0  0  0  0  0
   -0.1047    3.4251   -1.1614 H   0  0  0  0  0  0  0  0  0  0  0  0
    2.6704   -1.3539    0.2963 C   0  0  0  0  0  0  0  0  0  0  0  0
    2.8622   -1.6146    1.3633 H   0  0  0  0  0  0  0  0  0  0  0  0
    2.4635   -2.6536   -0.5099 C   0  0  0  0  0  0  0  0  0  0  0  0
    1.6164   -3.2385   -0.1004 H   0  0  0  0  0  0  0  0  0  0  0  0
    2.1889   -2.3703   -1.5469 H   0  0  0  0  0  0  0  0  0  0  0  0
    3.7394   -3.5045   -0.5209 C   0  0  0  0  0  0  0  0  0  0  0  0
    3.9693   -3.8535    0.5129 H   0  0  0  0  0  0  0  0  0  0  0  0
    3.5670   -4.4178   -1.1276 H   0  0  0  0  0  0  0  0  0  0  0  0
    4.9337   -2.7122   -1.0640 C   0  0  0  0  0  0  0  0  0  0  0  0
    4.7356   -2.4392   -2.1236 H   0  0  0  0  0  0  0  0  0  0  0  0
    5.8526   -3.3353   -1.0588 H   0  0  0  0  0  0  0  0  0  0  0  0
    5.1491   -1.4332   -0.2485 C   0  0  0  0  0  0  0  0  0  0  0  0
    5.9947   -0.8431   -0.6596 H   0  0  0  0  0  0  0  0  0  0  0  0
    5.4354   -1.7075    0.7932 H   0  0  0  0  0  0  0  0  0  0  0  0
    3.8880   -0.5580   -0.2183 C   0  0  0  0  0  0  0  0  0  0  0  0
    3.6559   -0.1878   -1.2392 H   0  0  0  0  0  0  0  0  0  0  0  0
    4.0702    0.3274    0.4231 H   0  0  0  0  0  0  0  0  0  0  0  0
    1.3932    1.0573    1.5909 C   0  0  0  0  0  0  0  0  0  0  0  0
    0.3436    1.3711    1.7953 H   0  0  0  0  0  0  0  0  0  0  0  0
    2.1408    2.2915    1.0550 C   0  0  0  0  0  0  0  0  0  0  0  0
    3.1980    2.0260    0.8448 H   0  0  0  0  0  0  0  0  0  0  0  0
    1.7153    2.6107    0.0825 H   0  0  0  0  0  0  0  0  0  0  0  0
    2.1015    3.4279    2.0849 C   0  0  0  0  0  0  0  0  0  0  0  0
    2.6550    4.3094    1.6996 H   0  0  0  0  0  0  0  0  0  0  0  0
    1.0456    3.7553    2.2233 H   0  0  0  0  0  0  0  0  0  0  0  0
    2.6785    2.9777    3.4340 C   0  0  0  0  0  0  0  0  0  0  0  0
    2.6095    3.7967    4.1802 H   0  0  0  0  0  0  0  0  0  0  0  0
    3.7633    2.7615    3.3081 H   0  0  0  0  0  0  0  0  0  0  0  0
    1.9743    1.7190    3.9571 C   0  0  0  0  0  0  0  0  0  0  0  0
    0.9158    1.9639    4.2003 H   0  0  0  0  0  0  0  0  0  0  0  0
    2.4406    1.3768    4.9047 H   0  0  0  0  0  0  0  0  0  0  0  0
    1.9933    0.5814    2.9232 C   0  0  0  0  0  0  0  0  0  0  0  0
    3.0432    0.2532    2.7580 H   0  0  0  0  0  0  0  0  0  0  0  0
    1.4366   -0.2972    3.3101 H   0  0  0  0  0  0  0  0  0  0  0  0
  1  4  1  0  0  0  0
  1 49  1  0  0  0  0
  2 22  1  0  0  0  0
  3 23  1  0  0  0  0
  4  5  1  0  0  0  0
  5  6  1  0  0  0  0
  5  7  2  0  0  0  0
  7  8  1  0  0  0  0
  9 10  1  0  0  0  0
  9  7  1  0  0  0  0
 11  9  2  0  0  0  0
 12 11  1  0  0  0  0
 13 12  1  0  0  0  0
 13 14  1  0  0  0  0
 15 13  2  0  0  0  0
 16 15  1  0  0  0  0
 17 19  2  0  0  0  0
 17 15  1  0  0  0  0
 18 17  1  0  0  0  0
 19 21  1  0  0  0  0
 20 19  1  0  0  0  0
 21  2  1  0  0  0  0
 21 12  2  0  0  0  0
 22  4  2  0  0  0  0
 22 11  1  0  0  0  0
 23  2  1  6  0  0  0
 23 24  1  0  0  0  0
 24 26  2  0  0  0  0
 24 25  1  0  0  0  0
 26 27  1  0  0  0  0
 28 26  1  0  0  0  0
 29 28  1  0  0  0  0
 30  3  1  0  0  0  0
 30 28  2  0  0  0  0
 31 30  1  0  0  0  0
 32  1  1  0  0  0  0
 32 33  1  0  0  0  0
 34 35  1  0  0  0  0
 34 32  1  0  0  0  0
 36 34  1  0  0  0  0
 37 34  1  0  0  0  0
 37 38  1  0  0  0  0
 39 37  1  0  0  0  0
 40 42  1  0  0  0  0
 40 37  1  0  0  0  0
 40 43  1  0  0  0  0
 41 40  1  0  0  0  0
 43 46  1  0  0  0  0
 43 45  1  0  0  0  0
 44 43  1  0  0  0  0
 46 32  1  0  0  0  0
 46 48  1  0  0  0  0
 47 46  1  0  0  0  0
 49 50  1  0  0  0  0
 49 63  1  0  0  0  0
 51 49  1  0  0  0  0
 51 54  1  0  0  0  0
 52 51  1  0  0  0  0
 53 51  1  0  0  0  0
 54 56  1  0  0  0  0
 54 57  1  0  0  0  0
 55 54  1  0  0  0  0
 57 60  1  0  0  0  0
 57 58  1  0  0  0  0
 59 57  1  0  0  0  0
 60 61  1  0  0  0  0
 60 62  1  0  0  0  0
 63 65  1  0  0  0  0
 63 60  1  0  0  0  0
 64 63  1  0  0  0  0
M  END
