1,37
 OpenBabel05122313063D

 45 47  0  0  0  0  0  0  0  0999 V2000
   -1.2043    0.1414    0.0367 P   0  0  0  0  0  0  0  0  0  0  0  0
   -2.0250   -0.3586    1.6084 C   0  0  0  0  0  0  0  0  0  0  0  0
   -1.4097    0.0017    2.8249 C   0  0  0  0  0  0  0  0  0  0  0  0
   -0.4503    0.5434    2.7975 H   0  0  0  0  0  0  0  0  0  0  0  0
   -2.0095   -0.3470    4.0442 C   0  0  0  0  0  0  0  0  0  0  0  0
   -1.5259   -0.0633    4.9912 H   0  0  0  0  0  0  0  0  0  0  0  0
   -3.2166   -1.0650    4.0558 C   0  0  0  0  0  0  0  0  0  0  0  0
   -3.6816   -1.3448    5.0133 H   0  0  0  0  0  0  0  0  0  0  0  0
   -3.8270   -1.4339    2.8455 C   0  0  0  0  0  0  0  0  0  0  0  0
   -4.7696   -2.0022    2.8534 H   0  0  0  0  0  0  0  0  0  0  0  0
   -3.2357   -1.0817    1.6226 C   0  0  0  0  0  0  0  0  0  0  0  0
   -3.7117   -1.3738    0.6737 H   0  0  0  0  0  0  0  0  0  0  0  0
   -2.1433    1.6170   -0.5289 C   0  0  0  0  0  0  0  0  0  0  0  0
   -3.3036    2.0779    0.1207 C   0  0  0  0  0  0  0  0  0  0  0  0
   -3.6771    1.5588    1.0157 H   0  0  0  0  0  0  0  0  0  0  0  0
   -3.9819    3.2052   -0.3713 C   0  0  0  0  0  0  0  0  0  0  0  0
   -4.8854    3.5647    0.1444 H   0  0  0  0  0  0  0  0  0  0  0  0
   -3.5095    3.8716   -1.5117 C   0  0  0  0  0  0  0  0  0  0  0  0
   -4.0423    4.7556   -1.8939 H   0  0  0  0  0  0  0  0  0  0  0  0
   -2.3486    3.4156   -2.1597 C   0  0  0  0  0  0  0  0  0  0  0  0
   -1.9682    3.9418   -3.0482 H   0  0  0  0  0  0  0  0  0  0  0  0
   -1.6619    2.2984   -1.6674 C   0  0  0  0  0  0  0  0  0  0  0  0
   -0.7374    1.9505   -2.1545 H   0  0  0  0  0  0  0  0  0  0  0  0
   -1.7171   -1.1703   -1.1523 C   0  0  0  0  0  0  0  0  0  0  0  0
   -2.6848   -0.9419   -2.1492 C   0  0  0  0  0  0  0  0  0  0  0  0
   -3.1821    0.0369   -2.2098 H   0  0  0  0  0  0  0  0  0  0  0  0
   -3.0190   -1.9527   -3.0639 C   0  0  0  0  0  0  0  0  0  0  0  0
   -3.7786   -1.7603   -3.8366 H   0  0  0  0  0  0  0  0  0  0  0  0
   -2.3858   -3.2006   -2.9881 C   0  0  0  0  0  0  0  0  0  0  0  0
   -2.6395   -3.9975   -3.7032 H   0  0  0  0  0  0  0  0  0  0  0  0
   -1.4216   -3.4311   -1.9949 C   0  0  0  0  0  0  0  0  0  0  0  0
   -0.9220   -4.4108   -1.9317 H   0  0  0  0  0  0  0  0  0  0  0  0
   -1.0719   -2.4313   -1.0698 C   0  0  0  0  0  0  0  0  0  0  0  0
   -0.0492   -2.7264    0.0010 C   0  0  0  0  0  0  0  0  0  0  0  0
   -0.4604   -2.4827    1.0026 H   0  0  0  0  0  0  0  0  0  0  0  0
    0.1619   -3.8220   -0.0057 H   0  0  0  0  0  0  0  0  0  0  0  0
    1.2434   -1.9962   -0.1238 N   0  0  0  0  0  0  0  0  0  0  0  0
    1.8761   -2.2890   -1.4249 C   0  0  0  0  0  0  0  0  0  0  0  0
    2.0398   -3.3861   -1.5489 H   0  0  0  0  0  0  0  0  0  0  0  0
    2.8442   -1.7560   -1.4746 H   0  0  0  0  0  0  0  0  0  0  0  0
    1.2279   -1.9235   -2.2427 H   0  0  0  0  0  0  0  0  0  0  0  0
    2.1107   -2.4592    0.9809 C   0  0  0  0  0  0  0  0  0  0  0  0
    2.2607   -3.5632    0.9223 H   0  0  0  0  0  0  0  0  0  0  0  0
    1.6354   -2.2059    1.9476 H   0  0  0  0  0  0  0  0  0  0  0  0
    3.0851   -1.9404    0.9221 H   0  0  0  0  0  0  0  0  0  0  0  0
  1  2  1  0  0  0  0
  2 11  2  0  0  0  0
  2  3  1  0  0  0  0
  3  5  2  0  0  0  0
  4  3  1  0  0  0  0
  5  7  1  0  0  0  0
  5  6  1  0  0  0  0
  7  8  1  0  0  0  0
  9 10  1  0  0  0  0
  9  7  2  0  0  0  0
 11  9  1  0  0  0  0
 12 11  1  0  0  0  0
 13  1  1  0  0  0  0
 13 14  1  0  0  0  0
 14 15  1  0  0  0  0
 16 14  2  0  0  0  0
 16 17  1  0  0  0  0
 18 16  1  0  0  0  0
 19 18  1  0  0  0  0
 20 22  1  0  0  0  0
 20 18  2  0  0  0  0
 21 20  1  0  0  0  0
 22 13  2  0  0  0  0
 23 22  1  0  0  0  0
 24 33  1  0  0  0  0
 24  1  1  0  0  0  0
 25 24  2  0  0  0  0
 26 25  1  0  0  0  0
 27 29  2  0  0  0  0
 27 25  1  0  0  0  0
 28 27  1  0  0  0  0
 29 31  1  0  0  0  0
 30 29  1  0  0  0  0
 31 32  1  0  0  0  0
 31 33  2  0  0  0  0
 33 34  1  0  0  0  0
 34 35  1  0  0  0  0
 36 34  1  0  0  0  0
 37 34  1  0  0  0  0
 37 42  1  0  0  0  0
 38 37  1  0  0  0  0
 39 38  1  0  0  0  0
 40 38  1  0  0  0  0
 41 38  1  0  0  0  0
 42 44  1  0  0  0  0
 43 42  1  0  0  0  0
 45 42  1  0  0  0  0
M  END
