1,2
 OpenBabel05122313063D

 35 36  0  0  0  0  0  0  0  0999 V2000
   -1.1949   -1.5767   -0.4994 P   0  0  0  0  0  0  0  0  0  0  0  0
    1.8424   -2.4359   -0.3419 N   0  0  0  0  0  0  0  0  0  0  0  0
    1.7365   -2.8594    0.5929 H   0  0  0  0  0  0  0  0  0  0  0  0
    2.8363   -2.1757   -0.4085 H   0  0  0  0  0  0  0  0  0  0  0  0
   -0.9842   -3.0276   -1.6372 C   0  0  0  0  0  0  0  0  0  0  0  0
   -1.9660   -3.5393   -1.7068 H   0  0  0  0  0  0  0  0  0  0  0  0
   -0.8006   -2.5842   -2.6388 H   0  0  0  0  0  0  0  0  0  0  0  0
    0.1262   -4.0129   -1.2646 C   0  0  0  0  0  0  0  0  0  0  0  0
    0.0574   -4.8877   -1.9438 H   0  0  0  0  0  0  0  0  0  0  0  0
   -0.0440   -4.4165   -0.2414 H   0  0  0  0  0  0  0  0  0  0  0  0
    1.5450   -3.4604   -1.3716 C   0  0  0  0  0  0  0  0  0  0  0  0
    2.2673   -4.3017   -1.2890 H   0  0  0  0  0  0  0  0  0  0  0  0
    1.7007   -2.9935   -2.3662 H   0  0  0  0  0  0  0  0  0  0  0  0
   -2.5933   -0.7119   -1.3157 C   0  0  0  0  0  0  0  0  0  0  0  0
   -3.9303   -0.9134   -0.9208 C   0  0  0  0  0  0  0  0  0  0  0  0
   -4.1653   -1.5670   -0.0674 H   0  0  0  0  0  0  0  0  0  0  0  0
   -4.9664   -0.2655   -1.6133 C   0  0  0  0  0  0  0  0  0  0  0  0
   -6.0101   -0.4225   -1.3025 H   0  0  0  0  0  0  0  0  0  0  0  0
   -4.6725    0.5800   -2.6948 C   0  0  0  0  0  0  0  0  0  0  0  0
   -5.4868    1.0877   -3.2331 H   0  0  0  0  0  0  0  0  0  0  0  0
   -3.3380    0.7837   -3.0863 C   0  0  0  0  0  0  0  0  0  0  0  0
   -3.1052    1.4541   -3.9269 H   0  0  0  0  0  0  0  0  0  0  0  0
   -2.2989    0.1444   -2.3975 C   0  0  0  0  0  0  0  0  0  0  0  0
   -1.2497    0.3310   -2.6774 H   0  0  0  0  0  0  0  0  0  0  0  0
   -1.8409   -2.2562    1.0739 C   0  0  0  0  0  0  0  0  0  0  0  0
   -1.5585   -1.5493    2.2638 C   0  0  0  0  0  0  0  0  0  0  0  0
   -0.9414   -0.6374    2.2185 H   0  0  0  0  0  0  0  0  0  0  0  0
   -2.0568   -2.0097    3.4913 C   0  0  0  0  0  0  0  0  0  0  0  0
   -1.8352   -1.4524    4.4137 H   0  0  0  0  0  0  0  0  0  0  0  0
   -2.8288   -3.1814    3.5433 C   0  0  0  0  0  0  0  0  0  0  0  0
   -3.2143   -3.5450    4.5076 H   0  0  0  0  0  0  0  0  0  0  0  0
   -3.1050   -3.8937    2.3649 C   0  0  0  0  0  0  0  0  0  0  0  0
   -3.7064   -4.8142    2.4042 H   0  0  0  0  0  0  0  0  0  0  0  0
   -2.6164   -3.4344    1.1324 C   0  0  0  0  0  0  0  0  0  0  0  0
   -2.8487   -4.0011    0.2182 H   0  0  0  0  0  0  0  0  0  0  0  0
  1 25  1  0  0  0  0
  2  3  1  0  0  0  0
  4  2  1  0  0  0  0
  5  8  1  0  0  0  0
  5  1  1  0  0  0  0
  6  5  1  0  0  0  0
  7  5  1  0  0  0  0
  8 10  1  0  0  0  0
  9  8  1  0  0  0  0
 11 12  1  0  0  0  0
 11  8  1  0  0  0  0
 11  2  1  0  0  0  0
 13 11  1  0  0  0  0
 14 15  1  0  0  0  0
 14  1  1  0  0  0  0
 15 16  1  0  0  0  0
 17 18  1  0  0  0  0
 17 15  2  0  0  0  0
 19 17  1  0  0  0  0
 20 19  1  0  0  0  0
 21 19  2  0  0  0  0
 21 23  1  0  0  0  0
 22 21  1  0  0  0  0
 23 14  2  0  0  0  0
 24 23  1  0  0  0  0
 25 34  2  0  0  0  0
 25 26  1  0  0  0  0
 26 28  2  0  0  0  0
 27 26  1  0  0  0  0
 28 30  1  0  0  0  0
 28 29  1  0  0  0  0
 30 31  1  0  0  0  0
 32 33  1  0  0  0  0
 32 30  2  0  0  0  0
 34 32  1  0  0  0  0
 35 34  1  0  0  0  0
M  END
