1,7
 OpenBabel05122313063D

 66 71  0  0  1  0  0  0  0  0999 V2000
   -0.9525    1.3120   -0.1916 P   0  0  0  0  0  0  0  0  0  0  0  0
    1.0187   -3.4824   -1.8805 O   0  0  0  0  0  0  0  0  0  0  0  0
   -0.8106   -3.7721   -0.4123 O   0  0  0  0  0  0  0  0  0  0  0  0
    0.2487    0.5712   -1.1309 O   0  0  0  0  0  0  0  0  0  0  0  0
    2.8412   -0.5433   -0.6694 O   0  0  0  0  0  0  0  0  0  0  0  0
    4.2984   -2.3789   -0.7285 O   0  0  0  0  0  0  0  0  0  0  0  0
   -1.7528   -1.7351   -0.4607 N   0  0  0  0  0  2  0  0  0  0  0  0
   -0.3007   -3.1635   -1.6521 C   0  0  1  0  0  0  0  0  0  0  0  0
   -0.6625   -1.6736   -1.4406 C   0  0  2  0  0  0  0  0  0  0  0  0
    0.4717   -0.8022   -0.8445 C   0  0  1  0  0  0  0  0  0  0  0  0
    1.8247   -1.2462   -1.3597 C   0  0  2  0  0  0  0  0  0  0  0  0
    1.9600   -2.7531   -1.0905 C   0  0  2  0  0  0  0  0  0  0  0  0
    3.3792   -3.1885   -1.4478 C   0  0  0  0  0  0  0  0  0  0  0  0
    4.1429   -1.0007   -1.0208 C   0  0  2  0  0  0  0  0  0  0  0  0
   -1.6988   -2.9025    0.1224 C   0  0  2  0  0  3  0  0  0  0  0  0
   -2.4428   -3.3630    1.3336 C   0  0  0  0  0  0  0  0  0  0  0  0
   -1.4403   -3.6664    2.4621 C   0  0  0  0  0  0  0  0  0  0  0  0
   -3.3406   -4.5631    0.9918 C   0  0  0  0  0  0  0  0  0  0  0  0
   -1.0932    2.8463   -1.1613 C   0  0  0  0  0  0  0  0  0  0  0  0
   -1.2743    4.0842   -0.5148 C   0  0  0  0  0  0  0  0  0  0  0  0
   -1.4215    5.2499   -1.2786 C   0  0  0  0  0  0  0  0  0  0  0  0
   -1.3931    5.1851   -2.6809 C   0  0  0  0  0  0  0  0  0  0  0  0
   -1.2165    3.9494   -3.3238 C   0  0  0  0  0  0  0  0  0  0  0  0
   -1.0702    2.7778   -2.5681 C   0  0  0  0  0  0  0  0  0  0  0  0
   -0.0411    1.7324    1.3413 C   0  0  0  0  0  0  0  0  0  0  0  0
   -0.7369    1.9533    2.5482 C   0  0  0  0  0  0  0  0  0  0  0  0
   -0.0173    2.2649    3.7116 C   0  0  0  0  0  0  0  0  0  0  0  0
    1.3851    2.3397    3.6794 C   0  0  0  0  0  0  0  0  0  0  0  0
    2.0755    2.1055    2.4788 C   0  0  0  0  0  0  0  0  0  0  0  0
    1.3685    1.8056    1.3052 C   0  0  0  0  0  0  0  0  0  0  0  0
    5.1449   -0.2127   -0.2178 C   0  0  0  0  0  0  0  0  0  0  0  0
    4.9728   -0.0912    1.1742 C   0  0  0  0  0  0  0  0  0  0  0  0
    5.9012    0.6321    1.9346 C   0  0  0  0  0  0  0  0  0  0  0  0
    7.0070    1.2356    1.3109 C   0  0  0  0  0  0  0  0  0  0  0  0
    7.1814    1.1133   -0.0759 C   0  0  0  0  0  0  0  0  0  0  0  0
    6.2507    0.3901   -0.8384 C   0  0  0  0  0  0  0  0  0  0  0  0
    4.0987   -0.5583    1.6500 H   0  0  0  0  0  0  0  0  0  0  0  0
    5.7636    0.7257    3.0228 H   0  0  0  0  0  0  0  0  0  0  0  0
    7.7348    1.8042    1.9095 H   0  0  0  0  0  0  0  0  0  0  0  0
    8.0448    1.5856   -0.5680 H   0  0  0  0  0  0  0  0  0  0  0  0
    6.3830    0.2959   -1.9278 H   0  0  0  0  0  0  0  0  0  0  0  0
   -1.8372    1.8929    2.5545 H   0  0  0  0  0  0  0  0  0  0  0  0
   -0.5593    2.4447    4.6524 H   0  0  0  0  0  0  0  0  0  0  0  0
    1.9438    2.5778    4.5976 H   0  0  0  0  0  0  0  0  0  0  0  0
    3.1750    2.1526    2.4485 H   0  0  0  0  0  0  0  0  0  0  0  0
    1.9091    1.6002    0.3698 H   0  0  0  0  0  0  0  0  0  0  0  0
   -1.3046    4.1318    0.5829 H   0  0  0  0  0  0  0  0  0  0  0  0
   -1.5630    6.2168   -0.7728 H   0  0  0  0  0  0  0  0  0  0  0  0
   -1.5119    6.1029   -3.2766 H   0  0  0  0  0  0  0  0  0  0  0  0
   -1.1955    3.8956   -4.4227 H   0  0  0  0  0  0  0  0  0  0  0  0
   -0.9305    1.8087   -3.0679 H   0  0  0  0  0  0  0  0  0  0  0  0
    1.7879   -2.9416   -0.0066 H   0  0  0  0  0  0  0  0  0  0  0  0
    4.2900   -0.8453   -2.1225 H   0  0  0  0  0  0  0  0  0  0  0  0
    1.8985   -1.0694   -2.4623 H   0  0  0  0  0  0  0  0  0  0  0  0
   -3.1004   -2.5161    1.6153 H   0  0  0  0  0  0  0  0  0  0  0  0
   -0.8793   -3.6168   -2.4834 H   0  0  0  0  0  0  0  0  0  0  0  0
   -1.0018   -1.2094   -2.3866 H   0  0  0  0  0  0  0  0  0  0  0  0
    0.4919   -0.9623    0.2589 H   0  0  0  0  0  0  0  0  0  0  0  0
    3.5234   -3.0916   -2.5522 H   0  0  0  0  0  0  0  0  0  0  0  0
    3.5644   -4.2416   -1.1615 H   0  0  0  0  0  0  0  0  0  0  0  0
   -1.9919   -3.9569    3.3776 H   0  0  0  0  0  0  0  0  0  0  0  0
   -0.7609   -4.4987    2.1883 H   0  0  0  0  0  0  0  0  0  0  0  0
   -0.8243   -2.7769    2.7063 H   0  0  0  0  0  0  0  0  0  0  0  0
   -3.8661   -4.9032    1.9058 H   0  0  0  0  0  0  0  0  0  0  0  0
   -4.1062   -4.2600    0.2518 H   0  0  0  0  0  0  0  0  0  0  0  0
   -2.7524   -5.4130    0.5907 H   0  0  0  0  0  0  0  0  0  0  0  0
  1 25  1  0  0  0  0
  2  8  1  0  0  0  0
  2 12  1  0  0  0  0
  3 15  1  0  0  0  0
  4 10  1  0  0  0  0
  4  1  1  0  0  0  0
  7 15  1  0  0  0  0
  8 56  1  6  0  0  0
  8  9  1  0  0  0  0
  8  3  1  0  0  0  0
  9 57  1  6  0  0  0
  9 10  1  0  0  0  0
  9  7  1  0  0  0  0
 10 58  1  1  0  0  0
 11 54  1  6  0  0  0
 11 12  1  0  0  0  0
 11 10  1  0  0  0  0
 11  5  1  0  0  0  0
 12 52  1  1  0  0  0
 13 60  1  0  0  0  0
 13 12  1  0  0  0  0
 13  6  1  0  0  0  0
 14 53  1  6  0  0  0
 14  6  1  0  0  0  0
 14  5  1  0  0  0  0
 14 31  1  0  0  0  0
 15 16  1  1  0  0  0
 16 55  1  0  0  0  0
 16 17  1  0  0  0  0
 17 63  1  0  0  0  0
 17 61  1  0  0  0  0
 18 16  1  0  0  0  0
 18 64  1  0  0  0  0
 19 20  1  0  0  0  0
 19  1  1  0  0  0  0
 20 47  1  0  0  0  0
 21 48  1  0  0  0  0
 21 20  2  0  0  0  0
 22 21  1  0  0  0  0
 23 22  2  0  0  0  0
 23 24  1  0  0  0  0
 24 19  2  0  0  0  0
 25 26  1  0  0  0  0
 26 42  1  0  0  0  0
 26 27  2  0  0  0  0
 27 43  1  0  0  0  0
 28 27  1  0  0  0  0
 28 44  1  0  0  0  0
 29 28  2  0  0  0  0
 30 25  2  0  0  0  0
 30 29  1  0  0  0  0
 31 32  1  0  0  0  0
 32 37  1  0  0  0  0
 32 33  2  0  0  0  0
 33 38  1  0  0  0  0
 34 39  1  0  0  0  0
 34 33  1  0  0  0  0
 35 34  2  0  0  0  0
 36 31  2  0  0  0  0
 36 35  1  0  0  0  0
 40 35  1  0  0  0  0
 41 36  1  0  0  0  0
 45 29  1  0  0  0  0
 46 30  1  0  0  0  0
 49 22  1  0  0  0  0
 50 23  1  0  0  0  0
 51 24  1  0  0  0  0
 59 13  1  0  0  0  0
 62 17  1  0  0  0  0
 65 18  1  0  0  0  0
 66 18  1  0  0  0  0
M  END
