1,2
 OpenBabel05122313063D

 32 33  0  0  0  0  0  0  0  0999 V2000
   -1.1401   -0.2697   -1.3280 P   0  0  0  0  0  0  0  0  0  0  0  0
   -1.1173   -3.2646   -1.0976 N   0  0  0  0  0  0  0  0  0  0  0  0
   -1.8785   -1.4497   -2.5668 C   0  0  0  0  0  0  0  0  0  0  0  0
   -2.2927   -2.7068   -1.8116 C   0  0  0  0  0  0  0  0  0  0  0  0
   -2.5647    0.7115   -0.7206 C   0  0  0  0  0  0  0  0  0  0  0  0
   -2.9033    0.7973    0.6414 C   0  0  0  0  0  0  0  0  0  0  0  0
   -3.9871    1.5953    1.0425 C   0  0  0  0  0  0  0  0  0  0  0  0
   -4.7362    2.3034    0.0929 C   0  0  0  0  0  0  0  0  0  0  0  0
   -4.4011    2.2190   -1.2701 C   0  0  0  0  0  0  0  0  0  0  0  0
   -3.3180    1.4315   -1.6784 C   0  0  0  0  0  0  0  0  0  0  0  0
   -0.1629    0.9569   -2.2721 C   0  0  0  0  0  0  0  0  0  0  0  0
   -0.1282    2.2929   -1.8152 C   0  0  0  0  0  0  0  0  0  0  0  0
    0.6739    3.2398   -2.4662 C   0  0  0  0  0  0  0  0  0  0  0  0
    1.4389    2.8673   -3.5827 C   0  0  0  0  0  0  0  0  0  0  0  0
    1.3975    1.5435   -4.0487 C   0  0  0  0  0  0  0  0  0  0  0  0
    0.6067    0.5867   -3.3957 C   0  0  0  0  0  0  0  0  0  0  0  0
   -1.4174   -4.0095   -0.4526 H   0  0  0  0  0  0  0  0  0  0  0  0
   -0.4289   -3.6529   -1.7650 H   0  0  0  0  0  0  0  0  0  0  0  0
   -2.7390   -0.9791   -3.0805 H   0  0  0  0  0  0  0  0  0  0  0  0
   -1.1043   -1.6814   -3.3262 H   0  0  0  0  0  0  0  0  0  0  0  0
   -3.0594   -2.4678   -1.0465 H   0  0  0  0  0  0  0  0  0  0  0  0
   -2.7256   -3.4595   -2.5046 H   0  0  0  0  0  0  0  0  0  0  0  0
   -2.3344    0.2284    1.3861 H   0  0  0  0  0  0  0  0  0  0  0  0
   -4.2422    1.6571    2.1107 H   0  0  0  0  0  0  0  0  0  0  0  0
   -5.5861    2.9258    0.4111 H   0  0  0  0  0  0  0  0  0  0  0  0
   -4.9838    2.7751   -2.0195 H   0  0  0  0  0  0  0  0  0  0  0  0
   -3.0475    1.3959   -2.7455 H   0  0  0  0  0  0  0  0  0  0  0  0
   -0.7436    2.5946   -0.9554 H   0  0  0  0  0  0  0  0  0  0  0  0
    0.6949    4.2782   -2.1031 H   0  0  0  0  0  0  0  0  0  0  0  0
    2.0638    3.6130   -4.0965 H   0  0  0  0  0  0  0  0  0  0  0  0
    1.9882    1.2482   -4.9287 H   0  0  0  0  0  0  0  0  0  0  0  0
    0.6157   -0.4520   -3.7513 H   0  0  0  0  0  0  0  0  0  0  0  0
  1  5  1  0  0  0  0
  2 17  1  0  0  0  0
  3  4  1  0  0  0  0
  3  1  1  0  0  0  0
  4  2  1  0  0  0  0
  4 21  1  0  0  0  0
  5  6  1  0  0  0  0
  6  7  2  0  0  0  0
  6 23  1  0  0  0  0
  7 24  1  0  0  0  0
  8 25  1  0  0  0  0
  8  7  1  0  0  0  0
  9  8  2  0  0  0  0
 10  9  1  0  0  0  0
 10  5  2  0  0  0  0
 11 12  1  0  0  0  0
 11  1  1  0  0  0  0
 12 28  1  0  0  0  0
 13 29  1  0  0  0  0
 13 12  2  0  0  0  0
 14 13  1  0  0  0  0
 15 14  2  0  0  0  0
 15 16  1  0  0  0  0
 16 11  2  0  0  0  0
 18  2  1  0  0  0  0
 19  3  1  0  0  0  0
 20  3  1  0  0  0  0
 22  4  1  0  0  0  0
 26  9  1  0  0  0  0
 27 10  1  0  0  0  0
 30 14  1  0  0  0  0
 31 15  1  0  0  0  0
 32 16  1  0  0  0  0
M  END
