1,2
 OpenBabel05122313063D

 63 66  0  0  0  0  0  0  0  0999 V2000
    1.4616   -0.3321    0.3407 P   0  0  0  0  0  0  0  0  0  0  0  0
   -1.2423   -0.0736    0.6654 N   0  0  0  0  0  2  0  0  0  0  0  0
    1.6921   -1.6452   -0.9331 C   0  0  0  0  0  0  0  0  0  0  0  0
    1.2595   -1.4143   -2.2541 C   0  0  0  0  0  0  0  0  0  0  0  0
    0.7953   -0.4480   -2.5085 H   0  0  0  0  0  0  0  0  0  0  0  0
    1.3806   -2.4255   -3.2198 C   0  0  0  0  0  0  0  0  0  0  0  0
    1.0287   -2.2419   -4.2461 H   0  0  0  0  0  0  0  0  0  0  0  0
    1.9291   -3.6689   -2.8709 C   0  0  0  0  0  0  0  0  0  0  0  0
    2.0175   -4.4640   -3.6268 H   0  0  0  0  0  0  0  0  0  0  0  0
    2.3534   -3.9049   -1.5515 C   0  0  0  0  0  0  0  0  0  0  0  0
    2.7711   -4.8843   -1.2729 H   0  0  0  0  0  0  0  0  0  0  0  0
    2.2330   -2.8994   -0.5823 C   0  0  0  0  0  0  0  0  0  0  0  0
    2.5441   -3.0932    0.4556 H   0  0  0  0  0  0  0  0  0  0  0  0
    3.1551    0.0792    0.8968 C   0  0  0  0  0  0  0  0  0  0  0  0
    4.2925   -0.2111    0.1166 C   0  0  0  0  0  0  0  0  0  0  0  0
    4.1804   -0.7651   -0.8277 H   0  0  0  0  0  0  0  0  0  0  0  0
    5.5640    0.2026    0.5441 C   0  0  0  0  0  0  0  0  0  0  0  0
    6.4480   -0.0299   -0.0689 H   0  0  0  0  0  0  0  0  0  0  0  0
    5.7089    0.9057    1.7505 C   0  0  0  0  0  0  0  0  0  0  0  0
    6.7067    1.2288    2.0840 H   0  0  0  0  0  0  0  0  0  0  0  0
    4.5781    1.1911    2.5351 C   0  0  0  0  0  0  0  0  0  0  0  0
    4.6888    1.7358    3.4851 H   0  0  0  0  0  0  0  0  0  0  0  0
    3.3062    0.7843    2.1105 C   0  0  0  0  0  0  0  0  0  0  0  0
    2.4177    1.0087    2.7217 H   0  0  0  0  0  0  0  0  0  0  0  0
    0.6437   -1.1075    1.7452 C   0  0  0  0  0  0  0  0  0  0  0  0
    1.2239   -1.8669    2.7749 C   0  0  0  0  0  0  0  0  0  0  0  0
    2.3203   -1.9605    2.8328 H   0  0  0  0  0  0  0  0  0  0  0  0
    0.4048   -2.5020    3.7172 C   0  0  0  0  0  0  0  0  0  0  0  0
    0.8451   -3.0979    4.5294 H   0  0  0  0  0  0  0  0  0  0  0  0
   -0.9970   -2.3738    3.5968 C   0  0  0  0  0  0  0  0  0  0  0  0
   -1.6493   -2.8766    4.3284 H   0  0  0  0  0  0  0  0  0  0  0  0
   -1.5873   -1.6190    2.5814 C   0  0  0  0  0  0  0  0  0  0  0  0
   -2.6802   -1.5269    2.5153 H   0  0  0  0  0  0  0  0  0  0  0  0
   -0.7720   -0.9248    1.6354 C   0  0  0  0  0  0  0  0  0  0  0  0
   -2.6282   -0.1147    0.3638 C   0  0  0  0  0  0  0  0  0  0  0  0
   -3.4387    0.9963    0.7271 C   0  0  0  0  0  0  0  0  0  0  0  0
   -2.7883    2.2260    1.3433 C   0  0  0  0  0  0  0  0  0  0  0  0
   -1.7465    2.2282    0.9537 H   0  0  0  0  0  0  0  0  0  0  0  0
   -3.4424    3.5391    0.9019 C   0  0  0  0  0  0  0  0  0  0  0  0
   -2.8546    4.4060    1.2692 H   0  0  0  0  0  0  0  0  0  0  0  0
   -4.4713    3.6538    1.3030 H   0  0  0  0  0  0  0  0  0  0  0  0
   -3.4931    3.5959   -0.2038 H   0  0  0  0  0  0  0  0  0  0  0  0
   -2.7051    2.1050    2.8739 C   0  0  0  0  0  0  0  0  0  0  0  0
   -2.1685    2.9718    3.3142 H   0  0  0  0  0  0  0  0  0  0  0  0
   -2.1712    1.1815    3.1741 H   0  0  0  0  0  0  0  0  0  0  0  0
   -3.7204    2.0697    3.3222 H   0  0  0  0  0  0  0  0  0  0  0  0
   -4.8225    0.9210    0.4999 C   0  0  0  0  0  0  0  0  0  0  0  0
   -5.4666    1.7655    0.7875 H   0  0  0  0  0  0  0  0  0  0  0  0
   -5.3945   -0.2109   -0.0996 C   0  0  0  0  0  0  0  0  0  0  0  0
   -6.4818   -0.2554   -0.2661 H   0  0  0  0  0  0  0  0  0  0  0  0
   -4.5768   -1.2685   -0.5158 C   0  0  0  0  0  0  0  0  0  0  0  0
   -5.0257   -2.1339   -1.0288 H   0  0  0  0  0  0  0  0  0  0  0  0
   -3.1854   -1.2356   -0.3085 C   0  0  0  0  0  0  0  0  0  0  0  0
   -2.2968   -2.3356   -0.8746 C   0  0  0  0  0  0  0  0  0  0  0  0
   -1.2575   -2.1124   -0.5639 H   0  0  0  0  0  0  0  0  0  0  0  0
   -2.6519   -3.7281   -0.3335 C   0  0  0  0  0  0  0  0  0  0  0  0
   -1.9532   -4.4910   -0.7352 H   0  0  0  0  0  0  0  0  0  0  0  0
   -3.6796   -4.0313   -0.6250 H   0  0  0  0  0  0  0  0  0  0  0  0
   -2.5881   -3.7557    0.7726 H   0  0  0  0  0  0  0  0  0  0  0  0
   -2.3182   -2.2924   -2.4134 C   0  0  0  0  0  0  0  0  0  0  0  0
   -1.6009   -3.0274   -2.8343 H   0  0  0  0  0  0  0  0  0  0  0  0
   -2.0433   -1.2810   -2.7741 H   0  0  0  0  0  0  0  0  0  0  0  0
   -3.3268   -2.5336   -2.8099 H   0  0  0  0  0  0  0  0  0  0  0  0
  1 14  1  0  0  0  0
  1 25  1  0  0  0  0
  2 34  1  0  0  0  0
  3 12  1  0  0  0  0
  3  1  1  0  0  0  0
  4  3  2  0  0  0  0
  5  4  1  0  0  0  0
  6  8  2  0  0  0  0
  6  4  1  0  0  0  0
  7  6  1  0  0  0  0
  8 10  1  0  0  0  0
  9  8  1  0  0  0  0
 10 11  1  0  0  0  0
 10 12  2  0  0  0  0
 12 13  1  0  0  0  0
 14 23  1  0  0  0  0
 15 17  1  0  0  0  0
 15 14  2  0  0  0  0
 16 15  1  0  0  0  0
 17 19  2  0  0  0  0
 18 17  1  0  0  0  0
 19 20  1  0  0  0  0
 19 21  1  0  0  0  0
 21 22  1  0  0  0  0
 23 21  2  0  0  0  0
 23 24  1  0  0  0  0
 25 26  1  0  0  0  0
 26 27  1  0  0  0  0
 26 28  2  0  0  0  0
 28 29  1  0  0  0  0
 30 28  1  0  0  0  0
 30 31  1  0  0  0  0
 32 30  2  0  0  0  0
 33 32  1  0  0  0  0
 34 25  2  0  0  0  0
 34 32  1  0  0  0  0
 35  2  1  0  0  0  0
 35 36  1  0  0  0  0
 36 37  1  0  0  0  0
 37 43  1  0  0  0  0
 38 37  1  0  0  0  0
 39 40  1  0  0  0  0
 39 41  1  0  0  0  0
 39 37  1  0  0  0  0
 42 39  1  0  0  0  0
 43 45  1  0  0  0  0
 43 44  1  0  0  0  0
 43 46  1  0  0  0  0
 47 36  2  0  0  0  0
 47 48  1  0  0  0  0
 49 47  1  0  0  0  0
 50 49  1  0  0  0  0
 51 53  1  0  0  0  0
 51 49  2  0  0  0  0
 52 51  1  0  0  0  0
 53 35  2  0  0  0  0
 54 55  1  0  0  0  0
 54 56  1  0  0  0  0
 54 53  1  0  0  0  0
 56 59  1  0  0  0  0
 57 56  1  0  0  0  0
 58 56  1  0  0  0  0
 60 54  1  0  0  0  0
 61 60  1  0  0  0  0
 62 60  1  0  0  0  0
 63 60  1  0  0  0  0
M  END
