1,2
 OpenBabel05122313063D

 46 48  0  0  0  0  0  0  0  0999 V2000
   -1.2082    0.1224    0.0382 P   0  0  0  0  0  0  0  0  0  0  0  0
    1.8282    0.9467    1.2077 N   0  0  0  0  0  0  0  0  0  0  0  0
    2.5136    0.2484    1.5534 H   0  0  0  0  0  0  0  0  0  0  0  0
   -2.1855    0.7441   -2.5366 C   0  0  0  0  0  0  0  0  0  0  0  0
   -1.1589    1.0653   -2.7575 H   0  0  0  0  0  0  0  0  0  0  0  0
    0.7727    1.0675    2.2472 C   0  0  0  0  0  0  0  0  0  0  0  0
    1.2363    1.3958    3.2042 H   0  0  0  0  0  0  0  0  0  0  0  0
    0.3739    0.0435    2.4060 H   0  0  0  0  0  0  0  0  0  0  0  0
   -2.5076    0.2249   -1.2657 C   0  0  0  0  0  0  0  0  0  0  0  0
   -2.2511    2.7216    0.5352 C   0  0  0  0  0  0  0  0  0  0  0  0
   -2.9951    2.4882   -0.2403 H   0  0  0  0  0  0  0  0  0  0  0  0
   -0.3122    2.0541    1.8744 C   0  0  0  0  0  0  0  0  0  0  0  0
   -3.8314   -0.1846   -1.0008 C   0  0  0  0  0  0  0  0  0  0  0  0
   -4.0913   -0.5956   -0.0144 H   0  0  0  0  0  0  0  0  0  0  0  0
   -1.2805    1.7617    0.8772 C   0  0  0  0  0  0  0  0  0  0  0  0
   -1.9493   -1.0352    1.2569 C   0  0  0  0  0  0  0  0  0  0  0  0
    2.5756    2.2069    1.0175 C   0  0  0  0  0  0  0  0  0  0  0  0
    2.7953    2.6485    2.0177 H   0  0  0  0  0  0  0  0  0  0  0  0
    1.9521    2.9353    0.4616 H   0  0  0  0  0  0  0  0  0  0  0  0
   -0.3650    3.3065    2.5136 C   0  0  0  0  0  0  0  0  0  0  0  0
    0.3783    3.5356    3.2936 H   0  0  0  0  0  0  0  0  0  0  0  0
   -1.3367    4.2602    2.1743 C   0  0  0  0  0  0  0  0  0  0  0  0
   -1.3535    5.2335    2.6873 H   0  0  0  0  0  0  0  0  0  0  0  0
    3.8886    1.9580    0.2844 C   0  0  0  0  0  0  0  0  0  0  0  0
    3.6799    1.7173   -0.7795 H   0  0  0  0  0  0  0  0  0  0  0  0
    4.4828    2.9018    0.2976 H   0  0  0  0  0  0  0  0  0  0  0  0
    4.5803    0.9047    0.9392 O   0  0  0  0  0  0  0  0  0  0  0  0
    4.9094    0.2866    0.2612 H   0  0  0  0  0  0  0  0  0  0  0  0
   -2.5371   -0.5974    2.4588 C   0  0  0  0  0  0  0  0  0  0  0  0
   -2.5546    0.4748    2.7055 H   0  0  0  0  0  0  0  0  0  0  0  0
   -4.4901    0.4448   -3.2571 C   0  0  0  0  0  0  0  0  0  0  0  0
   -5.2628    0.5256   -4.0367 H   0  0  0  0  0  0  0  0  0  0  0  0
   -1.9308   -2.4109    0.9447 C   0  0  0  0  0  0  0  0  0  0  0  0
   -1.4546   -2.7567    0.0156 H   0  0  0  0  0  0  0  0  0  0  0  0
   -3.1074   -1.5300    3.3403 C   0  0  0  0  0  0  0  0  0  0  0  0
   -3.5641   -1.1832    4.2797 H   0  0  0  0  0  0  0  0  0  0  0  0
   -3.1748    0.8558   -3.5242 C   0  0  0  0  0  0  0  0  0  0  0  0
   -2.9103    1.2605   -4.5126 H   0  0  0  0  0  0  0  0  0  0  0  0
   -4.8154   -0.0753   -1.9947 C   0  0  0  0  0  0  0  0  0  0  0  0
   -5.8438   -0.4029   -1.7794 H   0  0  0  0  0  0  0  0  0  0  0  0
   -3.0995   -2.8965    3.0216 C   0  0  0  0  0  0  0  0  0  0  0  0
   -3.5470   -3.6258    3.7138 H   0  0  0  0  0  0  0  0  0  0  0  0
   -2.2790    3.9683    1.1788 C   0  0  0  0  0  0  0  0  0  0  0  0
   -3.0441    4.7090    0.9021 H   0  0  0  0  0  0  0  0  0  0  0  0
   -2.5147   -3.3342    1.8218 C   0  0  0  0  0  0  0  0  0  0  0  0
   -2.4961   -4.4058    1.5734 H   0  0  0  0  0  0  0  0  0  0  0  0
  1 15  1  0  0  0  0
  1 16  1  0  0  0  0
  2  3  1  0  0  0  0
  2  6  1  0  0  0  0
  4  9  1  0  0  0  0
  5  4  1  0  0  0  0
  6  8  1  0  0  0  0
  6  7  1  0  0  0  0
  9 13  2  0  0  0  0
  9  1  1  0  0  0  0
 10 15  2  0  0  0  0
 10 43  1  0  0  0  0
 11 10  1  0  0  0  0
 12  6  1  0  0  0  0
 12 20  2  0  0  0  0
 13 14  1  0  0  0  0
 15 12  1  0  0  0  0
 16 29  1  0  0  0  0
 17  2  1  0  0  0  0
 17 18  1  0  0  0  0
 19 17  1  0  0  0  0
 20 21  1  0  0  0  0
 22 20  1  0  0  0  0
 22 23  1  0  0  0  0
 24 26  1  0  0  0  0
 24 27  1  0  0  0  0
 24 17  1  0  0  0  0
 25 24  1  0  0  0  0
 28 27  1  0  0  0  0
 29 30  1  0  0  0  0
 29 35  2  0  0  0  0
 31 39  2  0  0  0  0
 32 31  1  0  0  0  0
 33 16  2  0  0  0  0
 33 45  1  0  0  0  0
 34 33  1  0  0  0  0
 35 36  1  0  0  0  0
 37 31  1  0  0  0  0
 37  4  2  0  0  0  0
 38 37  1  0  0  0  0
 39 40  1  0  0  0  0
 39 13  1  0  0  0  0
 41 35  1  0  0  0  0
 41 42  1  0  0  0  0
 43 22  2  0  0  0  0
 44 43  1  0  0  0  0
 45 41  2  0  0  0  0
 46 45  1  0  0  0  0
M  END
