1,3
 OpenBabel05122313063D

 42 45  0  0  1  0  0  0  0  0999 V2000
    1.0564    0.1044   -0.0638 P   0  0  0  0  0  0  0  0  0  0  0  0
    1.0069    1.1837    1.4354 C   0  0  0  0  0  0  0  0  0  0  0  0
   -1.7635    1.2749   -0.0256 N   0  0  0  0  0  2  0  0  0  0  0  0
    1.7552    1.2201   -1.3523 C   0  0  0  0  0  0  0  0  0  0  0  0
   -0.0906    2.0546    1.6807 C   0  0  0  0  0  0  0  0  0  0  0  0
   -0.0604    2.9036    2.8091 C   0  0  0  0  0  0  0  0  0  0  0  0
   -0.9092    3.5781    2.9832 H   0  0  0  0  0  0  0  0  0  0  0  0
    2.4160   -1.0828    0.2872 C   0  0  0  0  0  0  0  0  0  0  0  0
    2.0907    2.0076    3.4673 C   0  0  0  0  0  0  0  0  0  0  0  0
    2.9418    1.9728    4.1640 H   0  0  0  0  0  0  0  0  0  0  0  0
    2.0847    1.1772    2.3355 C   0  0  0  0  0  0  0  0  0  0  0  0
    2.9323    0.5017    2.1507 H   0  0  0  0  0  0  0  0  0  0  0  0
    2.1015    2.5616   -1.0974 C   0  0  0  0  0  0  0  0  0  0  0  0
    1.9880    2.9779   -0.0857 H   0  0  0  0  0  0  0  0  0  0  0  0
    1.0165    2.8754    3.7025 C   0  0  0  0  0  0  0  0  0  0  0  0
    1.0117    3.5314    4.5855 H   0  0  0  0  0  0  0  0  0  0  0  0
   -1.9385    3.3289    0.8762 O   0  0  0  0  0  0  0  0  0  0  0  0
   -1.2701    2.1533    0.8031 C   0  0  2  0  0  3  0  0  0  0  0  0
    2.1247   -2.2083    1.0874 C   0  0  0  0  0  0  0  0  0  0  0  0
    1.1060   -2.3413    1.4894 H   0  0  0  0  0  0  0  0  0  0  0  0
    3.7204   -0.8936   -0.2128 C   0  0  0  0  0  0  0  0  0  0  0  0
    3.9511   -0.0173   -0.8363 H   0  0  0  0  0  0  0  0  0  0  0  0
    1.9154    0.6973   -2.6539 C   0  0  0  0  0  0  0  0  0  0  0  0
    1.6413   -0.3479   -2.8624 H   0  0  0  0  0  0  0  0  0  0  0  0
    4.4351   -2.9478    0.8779 C   0  0  0  0  0  0  0  0  0  0  0  0
    5.2242   -3.6810    1.1048 H   0  0  0  0  0  0  0  0  0  0  0  0
    2.5968    3.3697   -2.1339 C   0  0  0  0  0  0  0  0  0  0  0  0
    2.8614    4.4178   -1.9267 H   0  0  0  0  0  0  0  0  0  0  0  0
   -2.9119    1.8955   -0.7111 C   0  0  0  0  0  0  0  0  0  0  0  0
   -3.7817    1.2115   -0.6858 H   0  0  0  0  0  0  0  0  0  0  0  0
   -2.6476    2.0626   -1.7770 H   0  0  0  0  0  0  0  0  0  0  0  0
    3.1368   -3.1326    1.3810 C   0  0  0  0  0  0  0  0  0  0  0  0
    2.9040   -4.0092    2.0042 H   0  0  0  0  0  0  0  0  0  0  0  0
    4.7250   -1.8284    0.0824 C   0  0  0  0  0  0  0  0  0  0  0  0
    5.7407   -1.6793   -0.3146 H   0  0  0  0  0  0  0  0  0  0  0  0
    2.7579    2.8442   -3.4246 C   0  0  0  0  0  0  0  0  0  0  0  0
    3.1461    3.4798   -4.2348 H   0  0  0  0  0  0  0  0  0  0  0  0
    2.4201    1.5047   -3.6813 C   0  0  0  0  0  0  0  0  0  0  0  0
    2.5397    1.0868   -4.6921 H   0  0  0  0  0  0  0  0  0  0  0  0
   -3.1413    3.1956    0.0780 C   0  0  0  0  0  0  0  0  0  0  0  0
   -3.2389    4.1019   -0.5488 H   0  0  0  0  0  0  0  0  0  0  0  0
   -4.0061    3.1358    0.7711 H   0  0  0  0  0  0  0  0  0  0  0  0
  1  8  1  0  0  0  0
  1  2  1  0  0  0  0
  2  5  2  0  0  0  0
  2 11  1  0  0  0  0
  3 18  1  0  0  0  0
  4 13  1  0  0  0  0
  4  1  1  0  0  0  0
  5  6  1  0  0  0  0
  6  7  1  0  0  0  0
  6 15  2  0  0  0  0
  8 19  1  0  0  0  0
  9 15  1  0  0  0  0
  9 10  1  0  0  0  0
 11  9  2  0  0  0  0
 12 11  1  0  0  0  0
 13 14  1  0  0  0  0
 15 16  1  0  0  0  0
 18 17  1  0  0  0  0
 18  5  1  1  0  0  0
 19 32  2  0  0  0  0
 19 20  1  0  0  0  0
 21 34  1  0  0  0  0
 21  8  2  0  0  0  0
 22 21  1  0  0  0  0
 23  4  2  0  0  0  0
 24 23  1  0  0  0  0
 25 26  1  0  0  0  0
 25 32  1  0  0  0  0
 27 28  1  0  0  0  0
 27 13  2  0  0  0  0
 29 30  1  0  0  0  0
 29  3  1  0  0  0  0
 29 40  1  0  0  0  0
 31 29  1  0  0  0  0
 32 33  1  0  0  0  0
 34 25  2  0  0  0  0
 35 34  1  0  0  0  0
 36 27  1  0  0  0  0
 37 36  1  0  0  0  0
 38 36  2  0  0  0  0
 38 23  1  0  0  0  0
 39 38  1  0  0  0  0
 40 42  1  0  0  0  0
 40 17  1  0  0  0  0
 41 40  1  0  0  0  0
M  END
