1,2
 OpenBabel05122313063D

 46 48  0  0  1  0  0  0  0  0999 V2000
   -0.7722    0.0606    0.2141 P   0  0  0  0  0  0  0  0  0  0  0  0
    2.0376   -0.1790    0.0866 N   0  0  0  0  0  2  0  0  0  0  0  0
   -0.2685   -0.1744    1.7921 O   0  0  0  0  0  0  0  0  0  0  0  0
    0.8903   -1.0234    2.0942 C   0  0  0  0  0  0  0  0  0  0  0  0
    3.0037    0.5345   -0.5666 C   0  0  1  0  0  3  0  0  0  0  0  0
   -2.5134   -0.4899    0.3321 C   0  0  0  0  0  0  0  0  0  0  0  0
    2.8082    0.8245   -2.0212 C   0  0  0  0  0  0  0  0  0  0  0  0
    1.7696    1.1703   -2.2057 H   0  0  0  0  0  0  0  0  0  0  0  0
    2.9267   -0.1162   -2.6003 H   0  0  0  0  0  0  0  0  0  0  0  0
    3.5247    1.5895   -2.3745 H   0  0  0  0  0  0  0  0  0  0  0  0
   -0.8529    1.8810    0.0769 C   0  0  0  0  0  0  0  0  0  0  0  0
   -2.9541   -1.1939    1.4699 C   0  0  0  0  0  0  0  0  0  0  0  0
   -2.2501   -1.3977    2.2880 H   0  0  0  0  0  0  0  0  0  0  0  0
   -5.1912   -1.3278    0.5251 C   0  0  0  0  0  0  0  0  0  0  0  0
   -6.2388   -1.6574    0.5984 H   0  0  0  0  0  0  0  0  0  0  0  0
    4.2719    0.7122    1.4949 C   0  0  0  0  0  0  0  0  0  0  0  0
    5.1639    1.0426    2.0476 H   0  0  0  0  0  0  0  0  0  0  0  0
    2.1137   -0.3806    1.4291 C   0  0  0  0  0  0  0  0  0  0  0  0
    0.9577   -0.9846    3.6205 C   0  0  0  0  0  0  0  0  0  0  0  0
    0.0091   -1.3838    4.0262 H   0  0  0  0  0  0  0  0  0  0  0  0
    1.0838    0.0503    3.9916 H   0  0  0  0  0  0  0  0  0  0  0  0
    1.7837   -1.6152    4.0005 H   0  0  0  0  0  0  0  0  0  0  0  0
    4.1371    0.9821    0.1311 C   0  0  0  0  0  0  0  0  0  0  0  0
    4.9056    1.5458   -0.4161 H   0  0  0  0  0  0  0  0  0  0  0  0
   -0.9195    2.4504   -1.2124 C   0  0  0  0  0  0  0  0  0  0  0  0
   -0.9207    1.7890   -2.0951 H   0  0  0  0  0  0  0  0  0  0  0  0
   -4.2903   -1.6120    1.5621 C   0  0  0  0  0  0  0  0  0  0  0  0
   -4.6277   -2.1617    2.4539 H   0  0  0  0  0  0  0  0  0  0  0  0
   -0.9462    4.6694   -0.2134 C   0  0  0  0  0  0  0  0  0  0  0  0
   -0.9827    5.7636   -0.3262 H   0  0  0  0  0  0  0  0  0  0  0  0
   -3.4207   -0.2014   -0.7091 C   0  0  0  0  0  0  0  0  0  0  0  0
   -3.0755    0.3294   -1.6062 H   0  0  0  0  0  0  0  0  0  0  0  0
   -0.9747    3.8450   -1.3505 C   0  0  0  0  0  0  0  0  0  0  0  0
   -1.0305    4.2910   -2.3552 H   0  0  0  0  0  0  0  0  0  0  0  0
   -4.7535   -0.6203   -0.6066 C   0  0  0  0  0  0  0  0  0  0  0  0
   -5.4557   -0.3957   -1.4235 H   0  0  0  0  0  0  0  0  0  0  0  0
    3.2360    0.0405    2.1548 C   0  0  0  0  0  0  0  0  0  0  0  0
    3.2952   -0.1484    3.2330 H   0  0  0  0  0  0  0  0  0  0  0  0
    0.6773   -2.4606    1.6049 C   0  0  0  0  0  0  0  0  0  0  0  0
   -0.2541   -2.8758    2.0359 H   0  0  0  0  0  0  0  0  0  0  0  0
    1.5326   -3.0938    1.9122 H   0  0  0  0  0  0  0  0  0  0  0  0
    0.6233   -2.5099    0.4950 H   0  0  0  0  0  0  0  0  0  0  0  0
   -0.8210    2.7049    1.2184 C   0  0  0  0  0  0  0  0  0  0  0  0
   -0.7549    2.2462    2.2160 H   0  0  0  0  0  0  0  0  0  0  0  0
   -0.8648    4.0988    1.0675 C   0  0  0  0  0  0  0  0  0  0  0  0
   -0.8366    4.7454    1.9580 H   0  0  0  0  0  0  0  0  0  0  0  0
  1  6  1  0  0  0  0
  1  3  1  0  0  0  0
  2 18  1  0  0  0  0
  3  4  1  0  0  0  0
  4 19  1  0  0  0  0
  5  7  1  1  0  0  0
  5  2  1  0  0  0  0
  5 23  1  0  0  0  0
  6 12  1  0  0  0  0
  8  7  1  0  0  0  0
  9  7  1  0  0  0  0
 10  7  1  0  0  0  0
 11  1  1  0  0  0  0
 11 43  1  0  0  0  0
 12 27  2  0  0  0  0
 12 13  1  0  0  0  0
 14 15  1  0  0  0  0
 14 27  1  0  0  0  0
 16 17  1  0  0  0  0
 16 37  1  0  0  0  0
 18  4  1  0  0  0  0
 18 37  2  0  0  0  0
 19 21  1  0  0  0  0
 19 22  1  0  0  0  0
 19 20  1  0  0  0  0
 23 16  2  0  0  0  0
 24 23  1  0  0  0  0
 25 11  2  0  0  0  0
 26 25  1  0  0  0  0
 27 28  1  0  0  0  0
 29 45  1  0  0  0  0
 30 29  1  0  0  0  0
 31 35  1  0  0  0  0
 31  6  2  0  0  0  0
 32 31  1  0  0  0  0
 33 25  1  0  0  0  0
 33 29  2  0  0  0  0
 34 33  1  0  0  0  0
 35 14  2  0  0  0  0
 36 35  1  0  0  0  0
 37 38  1  0  0  0  0
 39 41  1  0  0  0  0
 39 40  1  0  0  0  0
 39  4  1  0  0  0  0
 42 39  1  0  0  0  0
 43 44  1  0  0  0  0
 45 43  2  0  0  0  0
 45 46  1  0  0  0  0
M  END
