1,3
 OpenBabel05122313063D

 47 50  0  0  0  0  0  0  0  0999 V2000
    1.1360   -0.5738    0.2121 P   0  0  0  0  0  0  0  0  0  0  0  0
   -2.5244   -2.8113    1.3181 O   0  0  0  0  0  0  0  0  0  0  0  0
   -1.5630   -0.8518    0.5044 N   0  0  0  0  0  2  0  0  0  0  0  0
   -1.5970   -2.1898    0.7684 C   0  0  0  0  0  0  0  0  0  0  0  0
   -0.3498   -2.9735    0.3936 C   0  0  0  0  0  0  0  0  0  0  0  0
    0.9429   -2.4067    0.2351 C   0  0  0  0  0  0  0  0  0  0  0  0
    2.0550   -3.2571    0.0664 C   0  0  0  0  0  0  0  0  0  0  0  0
    3.0625   -2.8259   -0.0196 H   0  0  0  0  0  0  0  0  0  0  0  0
    1.8926   -4.6496    0.0039 C   0  0  0  0  0  0  0  0  0  0  0  0
    2.7733   -5.2945   -0.1379 H   0  0  0  0  0  0  0  0  0  0  0  0
    0.6134   -5.2097    0.1338 C   0  0  0  0  0  0  0  0  0  0  0  0
    0.4776   -6.3011    0.0876 H   0  0  0  0  0  0  0  0  0  0  0  0
   -0.4895   -4.3734    0.3492 C   0  0  0  0  0  0  0  0  0  0  0  0
   -1.4989   -4.7764    0.5190 H   0  0  0  0  0  0  0  0  0  0  0  0
    2.8811   -0.3328   -0.3084 C   0  0  0  0  0  0  0  0  0  0  0  0
    3.2357   -0.6941   -1.6275 C   0  0  0  0  0  0  0  0  0  0  0  0
    2.4883   -1.1763   -2.2770 H   0  0  0  0  0  0  0  0  0  0  0  0
    4.5280   -0.4454   -2.1083 C   0  0  0  0  0  0  0  0  0  0  0  0
    4.7935   -0.7312   -3.1375 H   0  0  0  0  0  0  0  0  0  0  0  0
    5.4793    0.1765   -1.2809 C   0  0  0  0  0  0  0  0  0  0  0  0
    6.4910    0.3824   -1.6619 H   0  0  0  0  0  0  0  0  0  0  0  0
    5.1356    0.5299    0.0331 C   0  0  0  0  0  0  0  0  0  0  0  0
    5.8790    1.0099    0.6877 H   0  0  0  0  0  0  0  0  0  0  0  0
    3.8440    0.2742    0.5209 C   0  0  0  0  0  0  0  0  0  0  0  0
    3.5771    0.5589    1.5490 H   0  0  0  0  0  0  0  0  0  0  0  0
    1.0919   -0.0182    1.9594 C   0  0  0  0  0  0  0  0  0  0  0  0
    0.9966    1.3676    2.2092 C   0  0  0  0  0  0  0  0  0  0  0  0
    0.9864    2.0819    1.3715 H   0  0  0  0  0  0  0  0  0  0  0  0
    0.9197    1.8373    3.5277 C   0  0  0  0  0  0  0  0  0  0  0  0
    0.8445    2.9194    3.7134 H   0  0  0  0  0  0  0  0  0  0  0  0
    0.9214    0.9314    4.6008 C   0  0  0  0  0  0  0  0  0  0  0  0
    0.8470    1.3013    5.6348 H   0  0  0  0  0  0  0  0  0  0  0  0
    1.0081   -0.4477    4.3529 C   0  0  0  0  0  0  0  0  0  0  0  0
    1.0011   -1.1612    5.1909 H   0  0  0  0  0  0  0  0  0  0  0  0
    1.0963   -0.9247    3.0361 C   0  0  0  0  0  0  0  0  0  0  0  0
    1.1566   -2.0064    2.8426 H   0  0  0  0  0  0  0  0  0  0  0  0
   -2.5228    0.0453    0.9951 C   0  0  0  0  0  0  0  0  0  0  0  0
   -3.7713   -0.2978    1.5821 C   0  0  0  0  0  0  0  0  0  0  0  0
   -4.0037   -1.3580    1.7312 H   0  0  0  0  0  0  0  0  0  0  0  0
   -4.6716    0.7119    1.9555 C   0  0  0  0  0  0  0  0  0  0  0  0
   -5.6363    0.4222    2.4016 H   0  0  0  0  0  0  0  0  0  0  0  0
   -4.3720    2.0713    1.7683 C   0  0  0  0  0  0  0  0  0  0  0  0
   -5.0926    2.8491    2.0633 H   0  0  0  0  0  0  0  0  0  0  0  0
   -3.1290    2.4208    1.2134 C   0  0  0  0  0  0  0  0  0  0  0  0
   -2.8505    3.4784    1.0815 H   0  0  0  0  0  0  0  0  0  0  0  0
   -2.2208    1.4244    0.8438 C   0  0  0  0  0  0  0  0  0  0  0  0
   -1.2266    1.7032    0.4597 H   0  0  0  0  0  0  0  0  0  0  0  0
  1  6  1  0  0  0  0
  1 26  1  0  0  0  0
  3  4  1  0  0  0  0
  3 37  1  0  0  0  0
  4  2  2  0  0  0  0
  5  4  1  0  0  0  0
  6  5  2  0  0  0  0
  7  6  1  0  0  0  0
  8  7  1  0  0  0  0
  9  7  2  0  0  0  0
  9 11  1  0  0  0  0
 10  9  1  0  0  0  0
 11 13  2  0  0  0  0
 12 11  1  0  0  0  0
 13  5  1  0  0  0  0
 13 14  1  0  0  0  0
 15  1  1  0  0  0  0
 15 24  1  0  0  0  0
 16 15  2  0  0  0  0
 17 16  1  0  0  0  0
 18 16  1  0  0  0  0
 18 20  2  0  0  0  0
 19 18  1  0  0  0  0
 20 22  1  0  0  0  0
 21 20  1  0  0  0  0
 22 24  2  0  0  0  0
 22 23  1  0  0  0  0
 24 25  1  0  0  0  0
 26 27  2  0  0  0  0
 26 35  1  0  0  0  0
 27 29  1  0  0  0  0
 28 27  1  0  0  0  0
 29 30  1  0  0  0  0
 29 31  2  0  0  0  0
 31 32  1  0  0  0  0
 33 31  1  0  0  0  0
 33 34  1  0  0  0  0
 35 33  2  0  0  0  0
 36 35  1  0  0  0  0
 37 38  1  0  0  0  0
 38 39  1  0  0  0  0
 38 40  2  0  0  0  0
 40 41  1  0  0  0  0
 42 40  1  0  0  0  0
 42 43  1  0  0  0  0
 44 42  2  0  0  0  0
 45 44  1  0  0  0  0
 46 37  2  0  0  0  0
 46 44  1  0  0  0  0
 47 46  1  0  0  0  0
M  END
