1,4
 OpenBabel05122313063D

 70 76  0  0  1  0  0  0  0  0999 V2000
    0.7386    0.2810   -0.2719 P   0  0  1  0  0  0  0  0  0  0  0  0
    3.7027    0.3840    0.1093 O   0  0  0  0  0  0  0  0  0  0  0  0
    4.3226    5.0925   -0.1760 O   0  0  0  0  0  0  0  0  0  0  0  0
    1.5440   -2.2480    1.4541 N   0  0  0  0  0  2  0  0  0  0  0  0
   -0.3770    0.2038    1.2528 C   0  0  2  0  0  0  0  0  0  0  0  0
    0.2738    0.5526    2.0805 H   0  0  0  0  0  0  0  0  0  0  0  0
   -0.7270   -1.2886    1.5234 C   0  0  0  0  0  0  0  0  0  0  0  0
   -1.6148   -1.3347    2.1835 H   0  0  0  0  0  0  0  0  0  0  0  0
   -0.9874   -1.8122    0.5822 H   0  0  0  0  0  0  0  0  0  0  0  0
    0.4184   -2.0059    2.1802 C   0  0  2  0  0  3  0  0  0  0  0  0
    0.3459   -2.3829    3.5335 C   0  0  0  0  0  0  0  0  0  0  0  0
   -0.5816   -2.1815    4.0884 H   0  0  0  0  0  0  0  0  0  0  0  0
    1.4354   -3.0055    4.1520 C   0  0  0  0  0  0  0  0  0  0  0  0
    1.3837   -3.3029    5.2101 H   0  0  0  0  0  0  0  0  0  0  0  0
    2.5868   -3.2414    3.3907 C   0  0  0  0  0  0  0  0  0  0  0  0
    3.4733   -3.7305    3.8185 H   0  0  0  0  0  0  0  0  0  0  0  0
    2.6020   -2.8553    2.0482 C   0  0  0  0  0  0  0  0  0  0  0  0
    3.4503   -3.0684    1.3802 H   0  0  0  0  0  0  0  0  0  0  0  0
   -1.5488    1.1567    1.1575 C   0  0  0  0  0  0  0  0  0  0  0  0
   -1.5406    2.3116    1.9956 C   0  0  0  0  0  0  0  0  0  0  0  0
   -0.7025    2.4457    2.6971 H   0  0  0  0  0  0  0  0  0  0  0  0
   -2.5547    3.2507    1.9432 C   0  0  0  0  0  0  0  0  0  0  0  0
   -2.5355    4.1294    2.6065 H   0  0  0  0  0  0  0  0  0  0  0  0
   -3.6328    3.1021    1.0254 C   0  0  0  0  0  0  0  0  0  0  0  0
   -4.6773    4.0683    0.9300 C   0  0  0  0  0  0  0  0  0  0  0  0
   -4.6520    4.9382    1.6048 H   0  0  0  0  0  0  0  0  0  0  0  0
   -5.6983    3.9234    0.0039 C   0  0  0  0  0  0  0  0  0  0  0  0
   -6.4976    4.6770   -0.0614 H   0  0  0  0  0  0  0  0  0  0  0  0
   -5.7075    2.8047   -0.8718 C   0  0  0  0  0  0  0  0  0  0  0  0
   -6.5108    2.7019   -1.6169 H   0  0  0  0  0  0  0  0  0  0  0  0
   -4.7112    1.8430   -0.7982 C   0  0  0  0  0  0  0  0  0  0  0  0
   -4.7227    0.9834   -1.4827 H   0  0  0  0  0  0  0  0  0  0  0  0
   -3.6541    1.9497    0.1565 C   0  0  0  0  0  0  0  0  0  0  0  0
   -2.6082    0.9651    0.2522 C   0  0  0  0  0  0  0  0  0  0  0  0
   -2.6024   -0.2248   -0.6506 C   0  0  0  0  0  0  0  0  0  0  0  0
   -1.5618   -0.3565   -1.5819 C   0  0  0  0  0  0  0  0  0  0  0  0
   -1.4647   -1.5240   -2.3934 C   0  0  0  0  0  0  0  0  0  0  0  0
   -0.6051   -1.6181   -3.0746 H   0  0  0  0  0  0  0  0  0  0  0  0
   -2.4100   -2.5293   -2.2942 C   0  0  0  0  0  0  0  0  0  0  0  0
   -2.3283   -3.4299   -2.9219 H   0  0  0  0  0  0  0  0  0  0  0  0
   -3.4854   -2.4340   -1.3634 C   0  0  0  0  0  0  0  0  0  0  0  0
   -4.4510   -3.4744   -1.2256 C   0  0  0  0  0  0  0  0  0  0  0  0
   -4.3696   -4.3547   -1.8822 H   0  0  0  0  0  0  0  0  0  0  0  0
   -5.4628   -3.3904   -0.2816 C   0  0  0  0  0  0  0  0  0  0  0  0
   -6.1989   -4.2027   -0.1855 H   0  0  0  0  0  0  0  0  0  0  0  0
   -5.5426   -2.2583    0.5725 C   0  0  0  0  0  0  0  0  0  0  0  0
   -6.3382   -2.2016    1.3309 H   0  0  0  0  0  0  0  0  0  0  0  0
   -4.6242   -1.2245    0.4594 C   0  0  0  0  0  0  0  0  0  0  0  0
   -4.6920   -0.3539    1.1271 H   0  0  0  0  0  0  0  0  0  0  0  0
   -3.5817   -1.2694   -0.5153 C   0  0  0  0  0  0  0  0  0  0  0  0
   -0.4669    0.6738   -1.6290 C   0  0  0  0  0  0  0  0  0  0  0  0
   -0.8529    1.7013   -1.4846 H   0  0  0  0  0  0  0  0  0  0  0  0
    0.1331    0.6159   -2.5571 H   0  0  0  0  0  0  0  0  0  0  0  0
    1.7862    1.7620   -0.1018 C   0  0  0  0  0  0  0  0  0  0  0  0
    1.2384    3.0571   -0.1623 C   0  0  0  0  0  0  0  0  0  0  0  0
    0.1462    3.1826   -0.2127 H   0  0  0  0  0  0  0  0  0  0  0  0
    2.0399    4.2064   -0.1736 C   0  0  0  0  0  0  0  0  0  0  0  0
    1.5670    5.1950   -0.2232 H   0  0  0  0  0  0  0  0  0  0  0  0
    3.4435    4.0590   -0.1470 C   0  0  0  0  0  0  0  0  0  0  0  0
    4.0202    2.7741   -0.0778 C   0  0  0  0  0  0  0  0  0  0  0  0
    5.1145    2.6999   -0.0410 H   0  0  0  0  0  0  0  0  0  0  0  0
    3.2069    1.6328   -0.0281 C   0  0  0  0  0  0  0  0  0  0  0  0
    5.0156    0.0820   -0.3497 C   0  0  0  0  0  0  0  0  0  0  0  0
    5.0646   -1.0222   -0.4029 H   0  0  0  0  0  0  0  0  0  0  0  0
    5.7925    0.4654    0.3475 H   0  0  0  0  0  0  0  0  0  0  0  0
    5.1797    0.4965   -1.3658 H   0  0  0  0  0  0  0  0  0  0  0  0
    3.8141    6.4129   -0.2458 C   0  0  0  0  0  0  0  0  0  0  0  0
    3.1844    6.6612    0.6375 H   0  0  0  0  0  0  0  0  0  0  0  0
    3.2158    6.5771   -1.1694 H   0  0  0  0  0  0  0  0  0  0  0  0
    4.6921    7.0845   -0.2617 H   0  0  0  0  0  0  0  0  0  0  0  0
  1 54  1  1  0  0  0
  1  5  1  0  0  0  0
  3 59  1  0  0  0  0
  4 17  1  0  0  0  0
  4 10  1  0  0  0  0
  5  7  1  0  0  0  0
  5  6  1  1  0  0  0
  7  8  1  0  0  0  0
  9  7  1  0  0  0  0
 10  7  1  1  0  0  0
 10 11  1  0  0  0  0
 11 12  1  0  0  0  0
 11 13  2  0  0  0  0
 13 14  1  0  0  0  0
 15 16  1  0  0  0  0
 15 13  1  0  0  0  0
 17 15  2  0  0  0  0
 18 17  1  0  0  0  0
 19  5  1  0  0  0  0
 19 20  1  0  0  0  0
 20 21  1  0  0  0  0
 22 20  2  0  0  0  0
 22 23  1  0  0  0  0
 24 22  1  0  0  0  0
 25 24  1  0  0  0  0
 25 26  1  0  0  0  0
 27 25  2  0  0  0  0
 28 27  1  0  0  0  0
 29 31  2  0  0  0  0
 29 27  1  0  0  0  0
 30 29  1  0  0  0  0
 31 33  1  0  0  0  0
 32 31  1  0  0  0  0
 33 34  1  0  0  0  0
 33 24  2  0  0  0  0
 34 19  2  0  0  0  0
 35 50  1  0  0  0  0
 35 34  1  0  0  0  0
 36 35  2  0  0  0  0
 37 39  2  0  0  0  0
 37 36  1  0  0  0  0
 38 37  1  0  0  0  0
 39 41  1  0  0  0  0
 40 39  1  0  0  0  0
 41 42  2  0  0  0  0
 41 50  1  0  0  0  0
 42 44  1  0  0  0  0
 43 42  1  0  0  0  0
 44 45  1  0  0  0  0
 44 46  2  0  0  0  0
 46 47  1  0  0  0  0
 48 46  1  0  0  0  0
 48 49  1  0  0  0  0
 50 48  2  0  0  0  0
 51 36  1  0  0  0  0
 51 52  1  0  0  0  0
 51  1  1  0  0  0  0
 53 51  1  0  0  0  0
 54 62  1  0  0  0  0
 55 54  2  0  0  0  0
 56 55  1  0  0  0  0
 57 55  1  0  0  0  0
 57 59  2  0  0  0  0
 58 57  1  0  0  0  0
 59 60  1  0  0  0  0
 60 61  1  0  0  0  0
 60 62  2  0  0  0  0
 62  2  1  0  0  0  0
 63  2  1  0  0  0  0
 63 65  1  0  0  0  0
 64 63  1  0  0  0  0
 66 63  1  0  0  0  0
 67  3  1  0  0  0  0
 67 68  1  0  0  0  0
 69 67  1  0  0  0  0
 70 67  1  0  0  0  0
M  END
