1,9
 OpenBabel05122313063D

 35 37  0  0  1  0  0  0  0  0999 V2000
   -1.3918    0.5762    0.8863 P   0  0  0  0  0  0  0  0  0  0  0  0
   -2.9161    1.2690    0.3896 N   0  0  0  0  0  0  0  0  0  0  0  0
   -3.6768    1.3746    1.0673 H   0  0  0  0  0  0  0  0  0  0  0  0
   -3.2496    1.1979   -0.9389 C   0  0  2  0  0  3  0  0  0  0  0  0
   -4.8478    1.5344   -1.5226 S   0  0  0  0  0  0  0  0  0  0  0  0
   -4.2971    1.1744   -3.1349 C   0  0  0  0  0  0  0  0  0  0  0  0
   -4.9868    1.2405   -3.9831 H   0  0  0  0  0  0  0  0  0  0  0  0
   -2.9676    0.8278   -3.1579 C   0  0  0  0  0  0  0  0  0  0  0  0
   -2.3713    0.8529   -1.8852 N   0  0  0  0  0  2  0  0  0  0  0  0
   -2.2407    0.4506   -4.4042 C   0  0  0  0  0  0  0  0  0  0  0  0
   -2.9507    0.4237   -5.2512 H   0  0  0  0  0  0  0  0  0  0  0  0
   -1.7560   -0.5395   -4.3040 H   0  0  0  0  0  0  0  0  0  0  0  0
   -1.4281    1.1669   -4.6294 H   0  0  0  0  0  0  0  0  0  0  0  0
   -1.8995   -0.9791    1.7047 C   0  0  0  0  0  0  0  0  0  0  0  0
   -2.3277   -2.0266    0.8592 C   0  0  0  0  0  0  0  0  0  0  0  0
   -2.2765   -1.9019   -0.2334 H   0  0  0  0  0  0  0  0  0  0  0  0
   -2.8099   -3.2197    1.4132 C   0  0  0  0  0  0  0  0  0  0  0  0
   -3.1485   -4.0300    0.7514 H   0  0  0  0  0  0  0  0  0  0  0  0
   -2.8611   -3.3773    2.8090 C   0  0  0  0  0  0  0  0  0  0  0  0
   -3.2480   -4.3119    3.2427 H   0  0  0  0  0  0  0  0  0  0  0  0
   -2.4321   -2.3385    3.6508 C   0  0  0  0  0  0  0  0  0  0  0  0
   -2.4828   -2.4562    4.7437 H   0  0  0  0  0  0  0  0  0  0  0  0
   -1.9582   -1.1350    3.1044 C   0  0  0  0  0  0  0  0  0  0  0  0
   -1.6465   -0.3169    3.7694 H   0  0  0  0  0  0  0  0  0  0  0  0
   -0.8319    1.7234    2.1790 C   0  0  0  0  0  0  0  0  0  0  0  0
    0.1985    1.3321    3.0623 C   0  0  0  0  0  0  0  0  0  0  0  0
    0.6458    0.3300    2.9791 H   0  0  0  0  0  0  0  0  0  0  0  0
    0.6795    2.2424    4.0122 C   0  0  0  0  0  0  0  0  0  0  0  0
    1.4879    1.9389    4.6929 H   0  0  0  0  0  0  0  0  0  0  0  0
    0.1495    3.5409    4.0810 C   0  0  0  0  0  0  0  0  0  0  0  0
    0.5344    4.2527    4.8263 H   0  0  0  0  0  0  0  0  0  0  0  0
   -0.8619    3.9352    3.1917 C   0  0  0  0  0  0  0  0  0  0  0  0
   -1.2720    4.9550    3.2367 H   0  0  0  0  0  0  0  0  0  0  0  0
   -1.3516    3.0330    2.2368 C   0  0  0  0  0  0  0  0  0  0  0  0
   -2.1300    3.3501    1.5278 H   0  0  0  0  0  0  0  0  0  0  0  0
  1 14  1  0  0  0  0
  1 25  1  0  0  0  0
  2  1  1  0  0  0  0
  2  3  1  0  0  0  0
  4  2  1  1  0  0  0
  5  4  1  0  0  0  0
  6  5  1  0  0  0  0
  7  6  1  0  0  0  0
  8  6  2  0  0  0  0
  8  9  1  0  0  0  0
  9  4  1  0  0  0  0
 10 12  1  0  0  0  0
 10  8  1  0  0  0  0
 11 10  1  0  0  0  0
 13 10  1  0  0  0  0
 14 23  1  0  0  0  0
 15 17  1  0  0  0  0
 15 14  2  0  0  0  0
 16 15  1  0  0  0  0
 17 19  2  0  0  0  0
 18 17  1  0  0  0  0
 19 20  1  0  0  0  0
 19 21  1  0  0  0  0
 21 22  1  0  0  0  0
 23 21  2  0  0  0  0
 23 24  1  0  0  0  0
 25 34  2  0  0  0  0
 25 26  1  0  0  0  0
 26 28  2  0  0  0  0
 27 26  1  0  0  0  0
 28 30  1  0  0  0  0
 28 29  1  0  0  0  0
 30 31  1  0  0  0  0
 32 33  1  0  0  0  0
 32 30  2  0  0  0  0
 34 32  1  0  0  0  0
 35 34  1  0  0  0  0
M  END
