1,2
 OpenBabel05122313063D

 35 37  0  0  1  0  0  0  0  0999 V2000
    0.8883   -1.4907   -0.4004 P   0  0  0  0  0  0  0  0  0  0  0  0
    2.7443    0.5555   -1.3508 N   0  0  0  0  0  2  0  0  0  0  0  0
    2.4898   -1.7438   -1.0294 N   0  0  0  0  0  0  0  0  0  0  0  0
    3.2659   -0.6977   -1.4765 C   0  0  2  0  0  3  0  0  0  0  0  0
    4.5491   -0.9001   -2.0325 C   0  0  0  0  0  0  0  0  0  0  0  0
    5.2871    0.2065   -2.4479 C   0  0  0  0  0  0  0  0  0  0  0  0
    4.7434    1.4964   -2.3068 C   0  0  0  0  0  0  0  0  0  0  0  0
    3.4718    1.6266   -1.7563 C   0  0  0  0  0  0  0  0  0  0  0  0
   -0.1798   -2.4959   -1.4807 C   0  0  0  0  0  0  0  0  0  0  0  0
   -0.3617   -3.8803   -1.2806 C   0  0  0  0  0  0  0  0  0  0  0  0
   -1.1516   -4.6136   -2.1786 C   0  0  0  0  0  0  0  0  0  0  0  0
   -1.7528   -3.9751   -3.2755 C   0  0  0  0  0  0  0  0  0  0  0  0
   -1.5585   -2.5991   -3.4853 C   0  0  0  0  0  0  0  0  0  0  0  0
   -0.7737   -1.8588   -2.5919 C   0  0  0  0  0  0  0  0  0  0  0  0
    0.9617   -2.2807    1.2369 C   0  0  0  0  0  0  0  0  0  0  0  0
   -0.1755   -2.8752    1.8204 C   0  0  0  0  0  0  0  0  0  0  0  0
   -0.0954   -3.4006    3.1182 C   0  0  0  0  0  0  0  0  0  0  0  0
    1.1074   -3.3349    3.8375 C   0  0  0  0  0  0  0  0  0  0  0  0
    2.2397   -2.7363    3.2590 C   0  0  0  0  0  0  0  0  0  0  0  0
    2.1693   -2.2040    1.9649 C   0  0  0  0  0  0  0  0  0  0  0  0
    2.8526   -2.6920   -1.1532 H   0  0  0  0  0  0  0  0  0  0  0  0
    4.9455   -1.9208   -2.1278 H   0  0  0  0  0  0  0  0  0  0  0  0
    6.2877    0.0641   -2.8824 H   0  0  0  0  0  0  0  0  0  0  0  0
    5.2942    2.3929   -2.6207 H   0  0  0  0  0  0  0  0  0  0  0  0
    2.9750    2.6001   -1.6170 H   0  0  0  0  0  0  0  0  0  0  0  0
    0.1045   -4.3869   -0.4224 H   0  0  0  0  0  0  0  0  0  0  0  0
   -1.2983   -5.6923   -2.0195 H   0  0  0  0  0  0  0  0  0  0  0  0
   -2.3746   -4.5547   -3.9743 H   0  0  0  0  0  0  0  0  0  0  0  0
   -2.0254   -2.0990   -4.3468 H   0  0  0  0  0  0  0  0  0  0  0  0
   -0.6252   -0.7767   -2.7388 H   0  0  0  0  0  0  0  0  0  0  0  0
   -1.1241   -2.9297    1.2690 H   0  0  0  0  0  0  0  0  0  0  0  0
   -0.9866   -3.8632    3.5674 H   0  0  0  0  0  0  0  0  0  0  0  0
    1.1652   -3.7527    4.8536 H   0  0  0  0  0  0  0  0  0  0  0  0
    3.1851   -2.6841    3.8195 H   0  0  0  0  0  0  0  0  0  0  0  0
    3.0533   -1.7267    1.5165 H   0  0  0  0  0  0  0  0  0  0  0  0
  1 15  1  0  0  0  0
  3  1  1  0  0  0  0
  4  2  1  0  0  0  0
  4  3  1  1  0  0  0
  5  4  1  0  0  0  0
  6  7  1  0  0  0  0
  6  5  2  0  0  0  0
  7  8  2  0  0  0  0
  8 25  1  0  0  0  0
  8  2  1  0  0  0  0
  9 10  1  0  0  0  0
  9  1  1  0  0  0  0
 10 26  1  0  0  0  0
 11 27  1  0  0  0  0
 11 10  2  0  0  0  0
 12 11  1  0  0  0  0
 13 12  2  0  0  0  0
 13 14  1  0  0  0  0
 14  9  2  0  0  0  0
 15 16  2  0  0  0  0
 15 20  1  0  0  0  0
 16 17  1  0  0  0  0
 17 32  1  0  0  0  0
 17 18  2  0  0  0  0
 18 33  1  0  0  0  0
 19 34  1  0  0  0  0
 19 18  1  0  0  0  0
 20 19  2  0  0  0  0
 21  3  1  0  0  0  0
 22  5  1  0  0  0  0
 23  6  1  0  0  0  0
 24  7  1  0  0  0  0
 28 12  1  0  0  0  0
 29 13  1  0  0  0  0
 30 14  1  0  0  0  0
 31 16  1  0  0  0  0
 35 20  1  0  0  0  0
M  END
