1,2
 OpenBabel05122313063D

 55 58  0  0  0  0  0  0  0  0999 V2000
   -1.5302    0.3241   -0.0315 P   0  0  0  0  0  0  0  0  0  0  0  0
   -0.2059   -2.4481    0.0335 N   0  0  0  0  0  2  0  0  0  0  0  0
   -2.6868   -0.7505    0.9213 C   0  0  0  0  0  0  0  0  0  0  0  0
   -3.9459   -0.2596    1.3143 C   0  0  0  0  0  0  0  0  0  0  0  0
   -4.2494    0.7502    1.0019 H   0  0  0  0  0  0  0  0  0  0  0  0
   -4.8163   -1.0307    2.1013 C   0  0  0  0  0  0  0  0  0  0  0  0
   -5.7969   -0.6231    2.3897 H   0  0  0  0  0  0  0  0  0  0  0  0
   -4.4241   -2.3073    2.5272 C   0  0  0  0  0  0  0  0  0  0  0  0
   -5.0917   -2.9166    3.1542 H   0  0  0  0  0  0  0  0  0  0  0  0
   -3.1709   -2.8028    2.1515 C   0  0  0  0  0  0  0  0  0  0  0  0
   -2.8555   -3.8031    2.4871 H   0  0  0  0  0  0  0  0  0  0  0  0
   -2.2917   -2.0579    1.3299 C   0  0  0  0  0  0  0  0  0  0  0  0
   -1.0233   -2.7196    1.0013 C   0  0  0  0  0  3  0  0  0  0  0  0
   -0.7748   -3.5745    1.6656 H   0  0  0  0  0  0  0  0  0  0  0  0
    1.0320   -3.2148   -0.0034 C   0  0  0  0  0  0  0  0  0  0  0  0
    1.2580   -3.4541   -1.0624 H   0  0  0  0  0  0  0  0  0  0  0  0
    0.9623   -4.1334    0.6142 H   0  0  0  0  0  0  0  0  0  0  0  0
    2.1502   -2.3386    0.6179 C   0  0  0  0  0  0  0  0  0  0  0  0
    2.7712   -1.5428   -0.3009 N   0  0  0  0  0  0  0  0  0  0  0  0
    2.4233   -1.6355   -1.2777 H   0  0  0  0  0  0  0  0  0  0  0  0
    2.3610   -2.3645    1.8295 O   0  0  0  0  0  0  0  0  0  0  0  0
    3.6752   -0.4926   -0.0669 C   0  0  0  0  0  0  0  0  0  0  0  0
    3.9355    0.3928   -1.1358 C   0  0  0  0  0  0  0  0  0  0  0  0
    3.4382    0.2264   -2.1043 H   0  0  0  0  0  0  0  0  0  0  0  0
    4.8055    1.4755   -0.9666 C   0  0  0  0  0  0  0  0  0  0  0  0
    4.9967    2.1592   -1.8104 H   0  0  0  0  0  0  0  0  0  0  0  0
    5.4378    1.6949    0.2742 C   0  0  0  0  0  0  0  0  0  0  0  0
    6.2955    2.7335    0.4945 O   0  0  0  0  0  0  0  0  0  0  0  0
    6.3841    3.2372   -0.3355 H   0  0  0  0  0  0  0  0  0  0  0  0
    5.1792    0.8101    1.3395 C   0  0  0  0  0  0  0  0  0  0  0  0
    5.6781    0.9875    2.3034 H   0  0  0  0  0  0  0  0  0  0  0  0
    4.3072   -0.2721    1.1777 C   0  0  0  0  0  0  0  0  0  0  0  0
    4.0884   -0.9521    2.0096 H   0  0  0  0  0  0  0  0  0  0  0  0
   -0.4592    1.0721    1.2611 C   0  0  0  0  0  0  0  0  0  0  0  0
    0.8488    1.4484    0.8916 C   0  0  0  0  0  0  0  0  0  0  0  0
    1.1995    1.2595   -0.1348 H   0  0  0  0  0  0  0  0  0  0  0  0
    1.7060    2.0320    1.8352 C   0  0  0  0  0  0  0  0  0  0  0  0
    2.7307    2.3022    1.5409 H   0  0  0  0  0  0  0  0  0  0  0  0
    1.2638    2.2351    3.1519 C   0  0  0  0  0  0  0  0  0  0  0  0
    1.9418    2.6796    3.8963 H   0  0  0  0  0  0  0  0  0  0  0  0
   -0.0365    1.8565    3.5254 C   0  0  0  0  0  0  0  0  0  0  0  0
   -0.3793    2.0063    4.5605 H   0  0  0  0  0  0  0  0  0  0  0  0
   -0.8999    1.2752    2.5849 C   0  0  0  0  0  0  0  0  0  0  0  0
   -1.9143    0.9696    2.8832 H   0  0  0  0  0  0  0  0  0  0  0  0
   -2.6061    1.6897   -0.6196 C   0  0  0  0  0  0  0  0  0  0  0  0
   -3.5135    1.4105   -1.6641 C   0  0  0  0  0  0  0  0  0  0  0  0
   -3.5548    0.3966   -2.0926 H   0  0  0  0  0  0  0  0  0  0  0  0
   -4.3515    2.4196   -2.1551 C   0  0  0  0  0  0  0  0  0  0  0  0
   -5.0588    2.1949   -2.9676 H   0  0  0  0  0  0  0  0  0  0  0  0
   -4.2783    3.7180   -1.6214 C   0  0  0  0  0  0  0  0  0  0  0  0
   -4.9309    4.5122   -2.0147 H   0  0  0  0  0  0  0  0  0  0  0  0
   -3.3668    4.0022   -0.5936 C   0  0  0  0  0  0  0  0  0  0  0  0
   -3.3020    5.0192   -0.1780 H   0  0  0  0  0  0  0  0  0  0  0  0
   -2.5314    2.9916   -0.0896 C   0  0  0  0  0  0  0  0  0  0  0  0
   -1.8180    3.2153    0.7175 H   0  0  0  0  0  0  0  0  0  0  0  0
  1  3  1  0  0  0  0
  1 34  1  0  0  0  0
  2 13  1  0  0  0  0
  3  4  2  0  0  0  0
  3 12  1  0  0  0  0
  4  6  1  0  0  0  0
  5  4  1  0  0  0  0
  6  7  1  0  0  0  0
  6  8  2  0  0  0  0
  8  9  1  0  0  0  0
 10 11  1  0  0  0  0
 10  8  1  0  0  0  0
 12 10  2  0  0  0  0
 13 12  1  0  0  0  0
 13 14  1  0  0  0  0
 15  2  1  0  0  0  0
 15 17  1  0  0  0  0
 15 18  1  0  0  0  0
 16 15  1  0  0  0  0
 18 21  2  0  0  0  0
 19 22  1  0  0  0  0
 19 18  1  0  0  0  0
 20 19  1  0  0  0  0
 22 32  1  0  0  0  0
 23 25  1  0  0  0  0
 23 22  2  0  0  0  0
 24 23  1  0  0  0  0
 25 27  2  0  0  0  0
 26 25  1  0  0  0  0
 27 28  1  0  0  0  0
 27 30  1  0  0  0  0
 29 28  1  0  0  0  0
 30 31  1  0  0  0  0
 32 30  2  0  0  0  0
 32 33  1  0  0  0  0
 34 43  1  0  0  0  0
 35 34  2  0  0  0  0
 35 37  1  0  0  0  0
 36 35  1  0  0  0  0
 37 39  2  0  0  0  0
 38 37  1  0  0  0  0
 39 41  1  0  0  0  0
 39 40  1  0  0  0  0
 41 42  1  0  0  0  0
 43 44  1  0  0  0  0
 43 41  2  0  0  0  0
 45 54  1  0  0  0  0
 45  1  1  0  0  0  0
 46 45  2  0  0  0  0
 47 46  1  0  0  0  0
 48 46  1  0  0  0  0
 48 50  2  0  0  0  0
 49 48  1  0  0  0  0
 50 52  1  0  0  0  0
 51 50  1  0  0  0  0
 52 53  1  0  0  0  0
 52 54  2  0  0  0  0
 54 55  1  0  0  0  0
M  END
