1,2
 OpenBabel05122313063D

 67 70  0  0  0  0  0  0  0  0999 V2000
    0.8918   -0.8829    0.0524 P   0  0  0  0  0  0  0  0  0  0  0  0
   -1.6334    0.5218   -0.0117 N   0  0  0  0  0  2  0  0  0  0  0  0
    0.6722    0.8710   -0.3237 N   0  0  0  0  0  0  0  0  0  0  0  0
   -0.6261    1.3011   -0.2998 C   0  0  0  0  0  3  0  0  0  0  0  0
   -0.7900    2.3656   -0.5522 H   0  0  0  0  0  0  0  0  0  0  0  0
   -2.9582    1.0489   -0.1267 C   0  0  0  0  0  0  0  0  0  0  0  0
   -3.5810    1.0538   -1.3939 C   0  0  0  0  0  0  0  0  0  0  0  0
   -4.8793    1.5851   -1.4904 C   0  0  0  0  0  0  0  0  0  0  0  0
   -5.3760    1.5941   -2.4740 H   0  0  0  0  0  0  0  0  0  0  0  0
   -5.5628    2.0842   -0.3680 C   0  0  0  0  0  0  0  0  0  0  0  0
   -4.9200    2.0246    0.8838 C   0  0  0  0  0  0  0  0  0  0  0  0
   -5.4505    2.3826    1.7813 H   0  0  0  0  0  0  0  0  0  0  0  0
   -3.6272    1.4999    1.0350 C   0  0  0  0  0  0  0  0  0  0  0  0
   -2.8922    0.4383   -2.5839 C   0  0  0  0  0  0  0  0  0  0  0  0
   -1.9214    0.9242   -2.8179 H   0  0  0  0  0  0  0  0  0  0  0  0
   -3.5268    0.4971   -3.4880 H   0  0  0  0  0  0  0  0  0  0  0  0
   -2.6766   -0.6329   -2.3773 H   0  0  0  0  0  0  0  0  0  0  0  0
   -6.9584    2.6440   -0.4854 C   0  0  0  0  0  0  0  0  0  0  0  0
   -7.0115    3.6848   -0.1030 H   0  0  0  0  0  0  0  0  0  0  0  0
   -7.6804    2.0471    0.1104 H   0  0  0  0  0  0  0  0  0  0  0  0
   -7.3107    2.6490   -1.5350 H   0  0  0  0  0  0  0  0  0  0  0  0
   -2.9917    1.3435    2.3888 C   0  0  0  0  0  0  0  0  0  0  0  0
   -2.9174    0.2583    2.6204 H   0  0  0  0  0  0  0  0  0  0  0  0
   -3.5937    1.8344    3.1765 H   0  0  0  0  0  0  0  0  0  0  0  0
   -1.9623    1.7536    2.4264 H   0  0  0  0  0  0  0  0  0  0  0  0
    1.7355    1.8399   -0.3479 C   0  0  0  0  0  0  0  0  0  0  0  0
    2.4808    2.0577   -1.5301 C   0  0  0  0  0  0  0  0  0  0  0  0
    3.5678    2.9530   -1.4674 C   0  0  0  0  0  0  0  0  0  0  0  0
    4.1571    3.1287   -2.3819 H   0  0  0  0  0  0  0  0  0  0  0  0
    3.9126    3.6353   -0.2893 C   0  0  0  0  0  0  0  0  0  0  0  0
    3.1180    3.4266    0.8555 C   0  0  0  0  0  0  0  0  0  0  0  0
    3.3591    3.9649    1.7863 H   0  0  0  0  0  0  0  0  0  0  0  0
    2.0280    2.5436    0.8526 C   0  0  0  0  0  0  0  0  0  0  0  0
    2.1418    1.3878   -2.8365 C   0  0  0  0  0  0  0  0  0  0  0  0
    2.7441    0.4696   -2.9950 H   0  0  0  0  0  0  0  0  0  0  0  0
    2.3503    2.0684   -3.6848 H   0  0  0  0  0  0  0  0  0  0  0  0
    1.0806    1.0817   -2.8804 H   0  0  0  0  0  0  0  0  0  0  0  0
    5.0809    4.5872   -0.2465 C   0  0  0  0  0  0  0  0  0  0  0  0
    5.6517    4.5799   -1.1947 H   0  0  0  0  0  0  0  0  0  0  0  0
    5.7790    4.3308    0.5768 H   0  0  0  0  0  0  0  0  0  0  0  0
    4.7413    5.6283   -0.0635 H   0  0  0  0  0  0  0  0  0  0  0  0
    1.1903    2.3547    2.0907 C   0  0  0  0  0  0  0  0  0  0  0  0
    0.1969    2.8408    1.9862 H   0  0  0  0  0  0  0  0  0  0  0  0
    1.6850    2.7995    2.9740 H   0  0  0  0  0  0  0  0  0  0  0  0
    0.9983    1.2846    2.3035 H   0  0  0  0  0  0  0  0  0  0  0  0
    2.1704   -0.9155    1.3541 C   0  0  0  0  0  0  0  0  0  0  0  0
    1.8416   -1.5635    2.5648 C   0  0  0  0  0  0  0  0  0  0  0  0
    0.8760   -2.0876    2.6478 H   0  0  0  0  0  0  0  0  0  0  0  0
    2.7600   -1.5656    3.6243 C   0  0  0  0  0  0  0  0  0  0  0  0
    2.5011   -2.0763    4.5639 H   0  0  0  0  0  0  0  0  0  0  0  0
    4.0003   -0.9224    3.4873 C   0  0  0  0  0  0  0  0  0  0  0  0
    4.7156   -0.9207    4.3240 H   0  0  0  0  0  0  0  0  0  0  0  0
    4.3338   -0.2877    2.2798 C   0  0  0  0  0  0  0  0  0  0  0  0
    5.3071    0.2132    2.1667 H   0  0  0  0  0  0  0  0  0  0  0  0
    3.4284   -0.2860    1.2092 C   0  0  0  0  0  0  0  0  0  0  0  0
    3.7018    0.2196    0.2728 H   0  0  0  0  0  0  0  0  0  0  0  0
    1.6239   -1.5878   -1.4641 C   0  0  0  0  0  0  0  0  0  0  0  0
    0.7565   -1.7226   -2.5699 C   0  0  0  0  0  0  0  0  0  0  0  0
   -0.2985   -1.4219   -2.4706 H   0  0  0  0  0  0  0  0  0  0  0  0
    1.2335   -2.2498   -3.7751 C   0  0  0  0  0  0  0  0  0  0  0  0
    0.5536   -2.3512   -4.6341 H   0  0  0  0  0  0  0  0  0  0  0  0
    2.5725   -2.6651   -3.8796 C   0  0  0  0  0  0  0  0  0  0  0  0
    2.9457   -3.0859   -4.8255 H   0  0  0  0  0  0  0  0  0  0  0  0
    3.4265   -2.5673   -2.7703 C   0  0  0  0  0  0  0  0  0  0  0  0
    4.4675   -2.9169   -2.8419 H   0  0  0  0  0  0  0  0  0  0  0  0
    2.9552   -2.0351   -1.5596 C   0  0  0  0  0  0  0  0  0  0  0  0
    3.6229   -1.9805   -0.6886 H   0  0  0  0  0  0  0  0  0  0  0  0
  1 46  1  0  0  0  0
  3  4  1  0  0  0  0
  3  1  1  0  0  0  0
  4  2  1  0  0  0  0
  5  4  1  0  0  0  0
  6  2  1  0  0  0  0
  6 13  1  0  0  0  0
  7  6  2  0  0  0  0
  8  7  1  0  0  0  0
  8 10  2  0  0  0  0
  9  8  1  0  0  0  0
 10 11  1  0  0  0  0
 11 13  2  0  0  0  0
 11 12  1  0  0  0  0
 13 22  1  0  0  0  0
 14 17  1  0  0  0  0
 14  7  1  0  0  0  0
 15 14  1  0  0  0  0
 16 14  1  0  0  0  0
 18 10  1  0  0  0  0
 18 19  1  0  0  0  0
 18 20  1  0  0  0  0
 21 18  1  0  0  0  0
 22 25  1  0  0  0  0
 22 23  1  0  0  0  0
 22 24  1  0  0  0  0
 26  3  1  0  0  0  0
 26 33  1  0  0  0  0
 27 28  1  0  0  0  0
 27 26  2  0  0  0  0
 28 30  2  0  0  0  0
 29 28  1  0  0  0  0
 30 38  1  0  0  0  0
 30 31  1  0  0  0  0
 31 32  1  0  0  0  0
 33 31  2  0  0  0  0
 33 42  1  0  0  0  0
 34 27  1  0  0  0  0
 35 34  1  0  0  0  0
 36 34  1  0  0  0  0
 37 34  1  0  0  0  0
 38 41  1  0  0  0  0
 38 40  1  0  0  0  0
 39 38  1  0  0  0  0
 42 45  1  0  0  0  0
 42 44  1  0  0  0  0
 43 42  1  0  0  0  0
 46 47  1  0  0  0  0
 47 48  1  0  0  0  0
 47 49  2  0  0  0  0
 49 50  1  0  0  0  0
 51 49  1  0  0  0  0
 51 52  1  0  0  0  0
 53 51  2  0  0  0  0
 54 53  1  0  0  0  0
 55 46  2  0  0  0  0
 55 53  1  0  0  0  0
 56 55  1  0  0  0  0
 57  1  1  0  0  0  0
 58 59  1  0  0  0  0
 58 57  2  0  0  0  0
 60 58  1  0  0  0  0
 61 60  1  0  0  0  0
 62 60  2  0  0  0  0
 62 64  1  0  0  0  0
 63 62  1  0  0  0  0
 64 66  2  0  0  0  0
 65 64  1  0  0  0  0
 66 57  1  0  0  0  0
 66 67  1  0  0  0  0
M  END
