1,2
 OpenBabel05122313063D

 39 41  0  0  1  0  0  0  0  0999 V2000
   -0.4722   -1.4716   -0.8113 P   0  0  0  0  0  0  0  0  0  0  0  0
    2.5336   -1.4004   -0.5104 N   0  0  0  0  0  2  0  0  0  0  0  0
    0.1907   -2.1529   -2.4401 C   0  0  0  0  0  0  0  0  0  0  0  0
    1.6074   -1.6501   -2.7654 C   0  0  0  0  0  0  0  0  0  0  0  0
    2.6212   -2.0252   -1.7170 C   0  0  2  0  0  3  0  0  0  0  0  0
    3.6028   -3.0043   -1.9495 C   0  0  0  0  0  0  0  0  0  0  0  0
    4.5059   -3.3479   -0.9366 C   0  0  0  0  0  0  0  0  0  0  0  0
    4.4094   -2.6920    0.2992 C   0  0  0  0  0  0  0  0  0  0  0  0
    3.4153   -1.7261    0.4669 C   0  0  0  0  0  0  0  0  0  0  0  0
   -0.7057   -2.9790    0.2179 C   0  0  0  0  0  0  0  0  0  0  0  0
   -1.3947   -4.1168   -0.2551 C   0  0  0  0  0  0  0  0  0  0  0  0
   -1.5240   -5.2508    0.5598 C   0  0  0  0  0  0  0  0  0  0  0  0
   -0.9641   -5.2619    1.8487 C   0  0  0  0  0  0  0  0  0  0  0  0
   -0.2697   -4.1376    2.3216 C   0  0  0  0  0  0  0  0  0  0  0  0
   -0.1406   -3.0010    1.5087 C   0  0  0  0  0  0  0  0  0  0  0  0
   -2.1643   -0.9418   -1.3101 C   0  0  0  0  0  0  0  0  0  0  0  0
   -3.3422   -1.5202   -0.8033 C   0  0  0  0  0  0  0  0  0  0  0  0
   -4.5939   -1.0685   -1.2509 C   0  0  0  0  0  0  0  0  0  0  0  0
   -4.6808   -0.0377   -2.1980 C   0  0  0  0  0  0  0  0  0  0  0  0
   -3.5077    0.5569   -2.6915 C   0  0  0  0  0  0  0  0  0  0  0  0
   -2.2562    0.1092   -2.2485 C   0  0  0  0  0  0  0  0  0  0  0  0
   -0.5101   -1.8356   -3.2364 H   0  0  0  0  0  0  0  0  0  0  0  0
    0.1672   -3.2601   -2.3965 H   0  0  0  0  0  0  0  0  0  0  0  0
    1.5837   -0.5419   -2.8514 H   0  0  0  0  0  0  0  0  0  0  0  0
    1.9259   -2.0579   -3.7452 H   0  0  0  0  0  0  0  0  0  0  0  0
    3.6502   -3.4897   -2.9349 H   0  0  0  0  0  0  0  0  0  0  0  0
    5.2760   -4.1139   -1.1100 H   0  0  0  0  0  0  0  0  0  0  0  0
    5.0946   -2.9192    1.1277 H   0  0  0  0  0  0  0  0  0  0  0  0
    3.3029   -1.1782    1.4143 H   0  0  0  0  0  0  0  0  0  0  0  0
   -1.8409   -4.1189   -1.2620 H   0  0  0  0  0  0  0  0  0  0  0  0
   -2.0650   -6.1333    0.1863 H   0  0  0  0  0  0  0  0  0  0  0  0
   -1.0670   -6.1542    2.4843 H   0  0  0  0  0  0  0  0  0  0  0  0
    0.1762   -4.1474    3.3277 H   0  0  0  0  0  0  0  0  0  0  0  0
    0.4128   -2.1098    1.8511 H   0  0  0  0  0  0  0  0  0  0  0  0
   -3.2886   -2.3155   -0.0469 H   0  0  0  0  0  0  0  0  0  0  0  0
   -5.5094   -1.5254   -0.8465 H   0  0  0  0  0  0  0  0  0  0  0  0
   -5.6646    0.3101   -2.5472 H   0  0  0  0  0  0  0  0  0  0  0  0
   -3.5664    1.3759   -3.4242 H   0  0  0  0  0  0  0  0  0  0  0  0
   -1.3410    0.5886   -2.6297 H   0  0  0  0  0  0  0  0  0  0  0  0
  1 10  1  0  0  0  0
  2  9  1  0  0  0  0
  3 23  1  0  0  0  0
  3  1  1  0  0  0  0
  4  3  1  0  0  0  0
  5  4  1  1  0  0  0
  5  2  1  0  0  0  0
  6  5  1  0  0  0  0
  6  7  2  0  0  0  0
  7  8  1  0  0  0  0
  8  9  2  0  0  0  0
  8 28  1  0  0  0  0
  9 29  1  0  0  0  0
 10 15  1  0  0  0  0
 11 10  2  0  0  0  0
 11 12  1  0  0  0  0
 12 13  2  0  0  0  0
 13 14  1  0  0  0  0
 13 32  1  0  0  0  0
 14 33  1  0  0  0  0
 15 34  1  0  0  0  0
 15 14  2  0  0  0  0
 16  1  1  0  0  0  0
 16 17  1  0  0  0  0
 17 35  1  0  0  0  0
 18 36  1  0  0  0  0
 18 17  2  0  0  0  0
 19 18  1  0  0  0  0
 20 21  1  0  0  0  0
 20 19  2  0  0  0  0
 21 16  2  0  0  0  0
 22  3  1  0  0  0  0
 24  4  1  0  0  0  0
 25  4  1  0  0  0  0
 26  6  1  0  0  0  0
 27  7  1  0  0  0  0
 30 11  1  0  0  0  0
 31 12  1  0  0  0  0
 37 19  1  0  0  0  0
 38 20  1  0  0  0  0
 39 21  1  0  0  0  0
M  END
