1,2
 OpenBabel05122313063D

 50 53  0  0  0  0  0  0  0  0999 V2000
    1.1741    0.5020   -0.1063 P   0  0  0  0  0  0  0  0  0  0  0  0
   -1.2112   -0.4523    1.6407 N   0  0  0  0  0  2  0  0  0  0  0  0
    1.7404    0.7352    1.6302 C   0  0  0  0  0  0  0  0  0  0  0  0
    3.0509    1.1599    1.8950 C   0  0  0  0  0  0  0  0  0  0  0  0
    3.4919    1.3784    3.2111 C   0  0  0  0  0  0  0  0  0  0  0  0
    2.6056    1.1997    4.2816 C   0  0  0  0  0  0  0  0  0  0  0  0
    1.2888    0.8009    4.0262 C   0  0  0  0  0  0  0  0  0  0  0  0
    0.8369    0.5341    2.7120 C   0  0  0  0  0  0  0  0  0  0  0  0
   -0.5709    0.1407    2.6048 C   0  0  0  0  0  3  0  0  0  0  0  0
   -2.6628   -0.5888    1.8447 C   0  0  0  0  0  0  0  0  0  0  0  0
   -3.4546    0.2753    0.8839 C   0  0  0  0  0  0  0  0  0  0  0  0
   -4.5703   -0.2537    0.2104 C   0  0  0  0  0  0  0  0  0  0  0  0
   -5.3111    0.5440   -0.6738 C   0  0  0  0  0  0  0  0  0  0  0  0
   -4.9357    1.8763   -0.9024 C   0  0  0  0  0  0  0  0  0  0  0  0
   -3.8195    2.4092   -0.2382 C   0  0  0  0  0  0  0  0  0  0  0  0
   -3.0864    1.6151    0.6533 C   0  0  0  0  0  0  0  0  0  0  0  0
    2.7362    0.3597   -1.0606 C   0  0  0  0  0  0  0  0  0  0  0  0
    3.2468    1.4130   -1.8439 C   0  0  0  0  0  0  0  0  0  0  0  0
    4.4442    1.2359   -2.5556 C   0  0  0  0  0  0  0  0  0  0  0  0
    5.1345    0.0163   -2.4821 C   0  0  0  0  0  0  0  0  0  0  0  0
    4.6278   -1.0307   -1.6939 C   0  0  0  0  0  0  0  0  0  0  0  0
    3.4300   -0.8680   -0.9850 C   0  0  0  0  0  0  0  0  0  0  0  0
    0.4781    2.1476   -0.5493 C   0  0  0  0  0  0  0  0  0  0  0  0
    0.4008    3.2109    0.3720 C   0  0  0  0  0  0  0  0  0  0  0  0
   -0.2220    4.4158    0.0073 C   0  0  0  0  0  0  0  0  0  0  0  0
   -0.7607    4.5718   -1.2789 C   0  0  0  0  0  0  0  0  0  0  0  0
   -0.6759    3.5180   -2.2042 C   0  0  0  0  0  0  0  0  0  0  0  0
   -0.0657    2.3103   -1.8419 C   0  0  0  0  0  0  0  0  0  0  0  0
    3.7447    1.3132    1.0554 H   0  0  0  0  0  0  0  0  0  0  0  0
    4.5294    1.6962    3.3937 H   0  0  0  0  0  0  0  0  0  0  0  0
    2.9362    1.3754    5.3159 H   0  0  0  0  0  0  0  0  0  0  0  0
    0.5861    0.6694    4.8638 H   0  0  0  0  0  0  0  0  0  0  0  0
   -1.1638    0.3976    3.5078 H   0  0  0  0  0  0  0  0  0  0  0  0
   -2.9148   -0.3143    2.8950 H   0  0  0  0  0  0  0  0  0  0  0  0
   -2.9373   -1.6518    1.7033 H   0  0  0  0  0  0  0  0  0  0  0  0
   -4.8474   -1.3084    0.3656 H   0  0  0  0  0  0  0  0  0  0  0  0
   -6.1761    0.1152   -1.2017 H   0  0  0  0  0  0  0  0  0  0  0  0
   -5.5065    2.4968   -1.6097 H   0  0  0  0  0  0  0  0  0  0  0  0
   -3.5037    3.4467   -0.4239 H   0  0  0  0  0  0  0  0  0  0  0  0
   -2.1985    2.0376    1.1479 H   0  0  0  0  0  0  0  0  0  0  0  0
    2.7087    2.3709   -1.9006 H   0  0  0  0  0  0  0  0  0  0  0  0
    4.8381    2.0587   -3.1714 H   0  0  0  0  0  0  0  0  0  0  0  0
    6.0714   -0.1201   -3.0435 H   0  0  0  0  0  0  0  0  0  0  0  0
    5.1658   -1.9888   -1.6345 H   0  0  0  0  0  0  0  0  0  0  0  0
    3.0265   -1.6807   -0.3566 H   0  0  0  0  0  0  0  0  0  0  0  0
    0.8267    3.0984    1.3798 H   0  0  0  0  0  0  0  0  0  0  0  0
   -0.2820    5.2391    0.7354 H   0  0  0  0  0  0  0  0  0  0  0  0
   -1.2489    5.5167   -1.5621 H   0  0  0  0  0  0  0  0  0  0  0  0
   -1.1010    3.6298   -3.2128 H   0  0  0  0  0  0  0  0  0  0  0  0
   -0.0214    1.4833   -2.5657 H   0  0  0  0  0  0  0  0  0  0  0  0
  1  3  1  0  0  0  0
  2 10  1  0  0  0  0
  2  9  1  0  0  0  0
  3  4  2  0  0  0  0
  3  8  1  0  0  0  0
  4  5  1  0  0  0  0
  5 30  1  0  0  0  0
  5  6  2  0  0  0  0
  6 31  1  0  0  0  0
  7  6  1  0  0  0  0
  7 32  1  0  0  0  0
  8  7  2  0  0  0  0
  9  8  1  0  0  0  0
  9 33  1  0  0  0  0
 10 34  1  0  0  0  0
 11 10  1  0  0  0  0
 12 36  1  0  0  0  0
 12 11  2  0  0  0  0
 13 12  1  0  0  0  0
 14 13  2  0  0  0  0
 14 15  1  0  0  0  0
 15 16  2  0  0  0  0
 16 11  1  0  0  0  0
 16 40  1  0  0  0  0
 17 22  1  0  0  0  0
 17  1  1  0  0  0  0
 18 17  2  0  0  0  0
 19 20  2  0  0  0  0
 19 18  1  0  0  0  0
 20 21  1  0  0  0  0
 21 44  1  0  0  0  0
 21 22  2  0  0  0  0
 22 45  1  0  0  0  0
 23  1  1  0  0  0  0
 23 24  1  0  0  0  0
 24 46  1  0  0  0  0
 25 24  2  0  0  0  0
 25 47  1  0  0  0  0
 26 25  1  0  0  0  0
 27 28  1  0  0  0  0
 27 26  2  0  0  0  0
 28 23  2  0  0  0  0
 29  4  1  0  0  0  0
 35 10  1  0  0  0  0
 37 13  1  0  0  0  0
 38 14  1  0  0  0  0
 39 15  1  0  0  0  0
 41 18  1  0  0  0  0
 42 19  1  0  0  0  0
 43 20  1  0  0  0  0
 48 26  1  0  0  0  0
 49 27  1  0  0  0  0
 50 28  1  0  0  0  0
M  END
