1,2
 OpenBabel05122313063D

 41 44  0  0  1  0  0  0  0  0999 V2000
   -0.7345   -0.0097    0.0775 P   0  0  2  0  0  0  0  0  0  0  0  0
    2.3073    0.4803   -0.4618 N   0  0  0  0  0  2  0  0  0  0  0  0
   -2.3125   -0.5654   -0.6407 C   0  0  0  0  0  0  0  0  0  0  0  0
   -3.1827   -1.3999    0.0903 C   0  0  0  0  0  0  0  0  0  0  0  0
   -4.3906   -1.8190   -0.4850 C   0  0  0  0  0  0  0  0  0  0  0  0
   -4.7304   -1.4243   -1.7891 C   0  0  0  0  0  0  0  0  0  0  0  0
   -3.8572   -0.6072   -2.5242 C   0  0  0  0  0  0  0  0  0  0  0  0
   -2.6499   -0.1784   -1.9536 C   0  0  0  0  0  0  0  0  0  0  0  0
   -1.0200    0.7927    1.7487 C   0  0  2  0  0  0  0  0  0  0  0  0
   -2.0523    1.8583    1.4178 C   0  0  0  0  0  0  0  0  0  0  0  0
   -1.7777    2.4215    0.2055 C   0  0  0  0  0  0  0  0  0  0  0  0
   -0.5319    1.7935   -0.4011 C   0  0  1  0  0  0  0  0  0  0  0  0
    0.6988    2.1375    0.5184 C   0  0  1  0  0  0  0  0  0  0  0  0
    0.3798    1.4678    1.9022 C   0  0  0  0  0  0  0  0  0  0  0  0
   -3.1618    2.1732    2.3669 C   0  0  0  0  0  0  0  0  0  0  0  0
   -2.5063    3.5116   -0.5114 C   0  0  0  0  0  0  0  0  0  0  0  0
    2.0132    1.7735   -0.1432 C   0  0  2  0  0  3  0  0  0  0  0  0
    2.9040    2.8057   -0.4928 C   0  0  0  0  0  0  0  0  0  0  0  0
    4.0849    2.5241   -1.1878 C   0  0  0  0  0  0  0  0  0  0  0  0
    4.3542    1.1934   -1.5272 C   0  0  0  0  0  0  0  0  0  0  0  0
    3.4487    0.2018   -1.1411 C   0  0  0  0  0  0  0  0  0  0  0  0
   -2.8969   -1.7356    1.0968 H   0  0  0  0  0  0  0  0  0  0  0  0
   -5.0683   -2.4688    0.0890 H   0  0  0  0  0  0  0  0  0  0  0  0
   -5.6773   -1.7611   -2.2376 H   0  0  0  0  0  0  0  0  0  0  0  0
   -4.1152   -0.3026   -3.5498 H   0  0  0  0  0  0  0  0  0  0  0  0
   -1.9668    0.4571   -2.5379 H   0  0  0  0  0  0  0  0  0  0  0  0
   -1.2693    0.0992    2.5711 H   0  0  0  0  0  0  0  0  0  0  0  0
   -0.3500    2.0243   -1.4661 H   0  0  0  0  0  0  0  0  0  0  0  0
    0.7120    3.2373    0.6416 H   0  0  0  0  0  0  0  0  0  0  0  0
    0.3478    2.2292    2.7059 H   0  0  0  0  0  0  0  0  0  0  0  0
    1.1458    0.7132    2.1733 H   0  0  0  0  0  0  0  0  0  0  0  0
   -3.7992    1.2768    2.5292 H   0  0  0  0  0  0  0  0  0  0  0  0
   -3.8115    2.9916    2.0026 H   0  0  0  0  0  0  0  0  0  0  0  0
   -2.7700    2.4633    3.3658 H   0  0  0  0  0  0  0  0  0  0  0  0
   -2.8900    3.1476   -1.4896 H   0  0  0  0  0  0  0  0  0  0  0  0
   -1.8380    4.3717   -0.7345 H   0  0  0  0  0  0  0  0  0  0  0  0
   -3.3684    3.8920    0.0688 H   0  0  0  0  0  0  0  0  0  0  0  0
    2.6486    3.8377   -0.2118 H   0  0  0  0  0  0  0  0  0  0  0  0
    4.7796    3.3326   -1.4610 H   0  0  0  0  0  0  0  0  0  0  0  0
    5.2621    0.9068   -2.0763 H   0  0  0  0  0  0  0  0  0  0  0  0
    3.6364   -0.8690   -1.3149 H   0  0  0  0  0  0  0  0  0  0  0  0
  1  3  1  6  0  0  0
  1  9  1  0  0  0  0
  2 17  1  0  0  0  0
  3  4  1  0  0  0  0
  4 22  1  0  0  0  0
  5 23  1  0  0  0  0
  5  4  2  0  0  0  0
  6  5  1  0  0  0  0
  7  8  1  0  0  0  0
  7  6  2  0  0  0  0
  8  3  2  0  0  0  0
  9 14  1  0  0  0  0
  9 27  1  1  0  0  0
 10  9  1  0  0  0  0
 10 15  1  0  0  0  0
 11 10  2  0  0  0  0
 12 28  1  6  0  0  0
 12  1  1  0  0  0  0
 12 11  1  0  0  0  0
 12 13  1  0  0  0  0
 13 29  1  1  0  0  0
 13 14  1  0  0  0  0
 14 31  1  0  0  0  0
 14 30  1  0  0  0  0
 15 32  1  0  0  0  0
 15 34  1  0  0  0  0
 16 37  1  0  0  0  0
 16 11  1  0  0  0  0
 17 18  1  6  0  0  0
 17 13  1  0  0  0  0
 18 38  1  0  0  0  0
 19 18  2  0  0  0  0
 20 19  1  0  0  0  0
 20 21  2  0  0  0  0
 21  2  1  0  0  0  0
 24  6  1  0  0  0  0
 25  7  1  0  0  0  0
 26  8  1  0  0  0  0
 33 15  1  0  0  0  0
 35 16  1  0  0  0  0
 36 16  1  0  0  0  0
 39 19  1  0  0  0  0
 40 20  1  0  0  0  0
 41 21  1  0  0  0  0
M  END
