2,4
 OpenBabel05122313063D

 41 44  0  0  0  0  0  0  0  0999 V2000
   -4.7897    1.9137   -2.1297 N   0  0  0  0  0  2  0  0  0  0  0  0
   -1.8000   -0.5090    0.5792 P   0  0  0  0  0  0  0  0  0  0  0  0
   -3.0236    0.3970   -0.4944 C   0  0  0  0  0  0  0  0  0  0  0  0
   -1.2111    1.8750   -1.1666 N   0  0  0  0  0  2  0  0  0  0  0  0
   -4.3705    0.0758   -0.6059 C   0  0  0  0  0  0  0  0  0  0  0  0
   -4.7963   -0.7767   -0.0566 H   0  0  0  0  0  0  0  0  0  0  0  0
   -5.2106    0.8638   -1.4403 C   0  0  0  0  0  0  0  0  0  0  0  0
   -6.2809    0.6062   -1.5323 H   0  0  0  0  0  0  0  0  0  0  0  0
   -3.4769    2.2584   -2.0412 C   0  0  0  0  0  0  0  0  0  0  0  0
   -3.0139    3.4040   -2.7811 C   0  0  0  0  0  0  0  0  0  0  0  0
   -1.6638    3.7257   -2.6629 C   0  0  0  0  0  0  0  0  0  0  0  0
   -1.2486    4.5920   -3.1987 H   0  0  0  0  0  0  0  0  0  0  0  0
   -0.8065    2.9430   -1.8564 C   0  0  0  0  0  0  0  0  0  0  0  0
    0.2619    3.2012   -1.7696 H   0  0  0  0  0  0  0  0  0  0  0  0
   -2.5402    1.5219   -1.2367 C   0  0  0  0  0  0  0  0  0  0  0  0
   -3.9714    4.1843   -3.6225 C   0  0  0  0  0  0  0  0  0  0  0  0
   -3.4764    5.0346   -4.1258 H   0  0  0  0  0  0  0  0  0  0  0  0
   -4.8117    4.5599   -3.0042 H   0  0  0  0  0  0  0  0  0  0  0  0
   -4.4405    3.5280   -4.3832 H   0  0  0  0  0  0  0  0  0  0  0  0
   -2.6176   -0.5260    2.2213 C   0  0  0  0  0  0  0  0  0  0  0  0
   -2.1285    0.3844    3.1804 C   0  0  0  0  0  0  0  0  0  0  0  0
   -1.2632    1.0175    2.9270 H   0  0  0  0  0  0  0  0  0  0  0  0
   -2.7291    0.4702    4.4451 C   0  0  0  0  0  0  0  0  0  0  0  0
   -2.3423    1.1820    5.1898 H   0  0  0  0  0  0  0  0  0  0  0  0
   -3.8153   -0.3604    4.7620 C   0  0  0  0  0  0  0  0  0  0  0  0
   -4.2844   -0.2981    5.7553 H   0  0  0  0  0  0  0  0  0  0  0  0
   -4.2975   -1.2804    3.8154 C   0  0  0  0  0  0  0  0  0  0  0  0
   -5.1422   -1.9389    4.0680 H   0  0  0  0  0  0  0  0  0  0  0  0
   -3.7035   -1.3660    2.5483 C   0  0  0  0  0  0  0  0  0  0  0  0
   -4.0737   -2.1032    1.8195 H   0  0  0  0  0  0  0  0  0  0  0  0
   -1.8935   -2.2291   -0.0426 C   0  0  0  0  0  0  0  0  0  0  0  0
   -1.6642   -3.3113    0.8328 C   0  0  0  0  0  0  0  0  0  0  0  0
   -1.5061   -3.1317    1.9067 H   0  0  0  0  0  0  0  0  0  0  0  0
   -1.6402   -4.6222    0.3366 C   0  0  0  0  0  0  0  0  0  0  0  0
   -1.4691   -5.4598    1.0290 H   0  0  0  0  0  0  0  0  0  0  0  0
   -1.8261   -4.8658   -1.0333 C   0  0  0  0  0  0  0  0  0  0  0  0
   -1.8123   -5.8966   -1.4178 H   0  0  0  0  0  0  0  0  0  0  0  0
   -2.0247   -3.7893   -1.9121 C   0  0  0  0  0  0  0  0  0  0  0  0
   -2.1655   -3.9726   -2.9880 H   0  0  0  0  0  0  0  0  0  0  0  0
   -2.0564   -2.4754   -1.4224 C   0  0  0  0  0  0  0  0  0  0  0  0
   -2.2176   -1.6381   -2.1187 H   0  0  0  0  0  0  0  0  0  0  0  0
  1  9  1  0  0  0  0
  1  7  1  0  0  0  0
  2 20  1  0  0  0  0
  3  2  1  0  0  0  0
  5  3  1  0  0  0  0
  5  6  1  0  0  0  0
  7  5  2  0  0  0  0
  8  7  1  0  0  0  0
  9 15  1  0  0  0  0
 10 11  1  0  0  0  0
 10  9  2  0  0  0  0
 11 13  2  0  0  0  0
 12 11  1  0  0  0  0
 13 14  1  0  0  0  0
 13  4  1  0  0  0  0
 15  4  1  0  0  0  0
 15  3  2  0  0  0  0
 16 18  1  0  0  0  0
 16 10  1  0  0  0  0
 17 16  1  0  0  0  0
 19 16  1  0  0  0  0
 20 29  2  0  0  0  0
 20 21  1  0  0  0  0
 21 23  2  0  0  0  0
 22 21  1  0  0  0  0
 23 25  1  0  0  0  0
 23 24  1  0  0  0  0
 25 26  1  0  0  0  0
 27 28  1  0  0  0  0
 27 25  2  0  0  0  0
 29 27  1  0  0  0  0
 30 29  1  0  0  0  0
 31  2  1  0  0  0  0
 31 32  1  0  0  0  0
 32 33  1  0  0  0  0
 34 32  2  0  0  0  0
 34 35  1  0  0  0  0
 36 34  1  0  0  0  0
 37 36  1  0  0  0  0
 38 40  1  0  0  0  0
 38 36  2  0  0  0  0
 39 38  1  0  0  0  0
 40 31  2  0  0  0  0
 41 40  1  0  0  0  0
M  END
