1,7
 OpenBabel05122313063D

 45 45  0  0  1  0  0  0  0  0999 V2000
   -1.2012    0.4467    0.2069 P   0  0  0  0  0  0  0  0  0  0  0  0
   -0.2347    2.0364    0.4322 C   0  0  0  0  0  0  0  0  0  0  0  0
   -0.8892    2.9141    0.2881 H   0  0  0  0  0  0  0  0  0  0  0  0
    0.1052    2.0501    1.4899 H   0  0  0  0  0  0  0  0  0  0  0  0
    0.9066    2.1572   -0.4721 N   0  0  0  0  0  0  0  0  0  0  0  0
    2.0684    1.4899   -0.1108 C   0  0  2  0  0  3  0  0  0  0  0  0
    1.9491    0.2268    0.3956 N   0  0  0  0  0  2  0  0  0  0  0  0
    3.0340   -0.3656    0.9604 C   0  0  0  0  0  0  0  0  0  0  0  0
    2.8667   -1.3720    1.3640 H   0  0  0  0  0  0  0  0  0  0  0  0
    4.2984    0.2221    0.9663 C   0  0  0  0  0  0  0  0  0  0  0  0
    5.1406   -0.3067    1.4319 H   0  0  0  0  0  0  0  0  0  0  0  0
    4.4582    1.4610    0.3282 C   0  0  0  0  0  0  0  0  0  0  0  0
    5.4457    1.9438    0.2737 H   0  0  0  0  0  0  0  0  0  0  0  0
    3.3423    2.1053   -0.2060 C   0  0  0  0  0  0  0  0  0  0  0  0
    3.4402    3.1025   -0.6509 H   0  0  0  0  0  0  0  0  0  0  0  0
    1.0113    3.3878   -1.2353 C   0  0  0  0  0  0  0  0  0  0  0  0
    1.3589    4.2592   -0.6299 H   0  0  0  0  0  0  0  0  0  0  0  0
    0.0199    3.6371   -1.6590 H   0  0  0  0  0  0  0  0  0  0  0  0
    1.7060    3.2494   -2.0856 H   0  0  0  0  0  0  0  0  0  0  0  0
   -2.1049    0.2558    1.8770 C   0  0  0  0  0  0  0  0  0  0  0  0
   -0.9956    0.0298    2.9269 C   0  0  0  0  0  0  0  0  0  0  0  0
   -1.4726   -0.1370    3.9153 H   0  0  0  0  0  0  0  0  0  0  0  0
   -0.3078    0.8916    3.0365 H   0  0  0  0  0  0  0  0  0  0  0  0
   -0.3905   -0.8654    2.6788 H   0  0  0  0  0  0  0  0  0  0  0  0
   -2.9951   -1.0006    1.8630 C   0  0  0  0  0  0  0  0  0  0  0  0
   -3.3104   -1.2201    2.9049 H   0  0  0  0  0  0  0  0  0  0  0  0
   -2.4528   -1.8786    1.4595 H   0  0  0  0  0  0  0  0  0  0  0  0
   -3.9099   -0.8612    1.2602 H   0  0  0  0  0  0  0  0  0  0  0  0
   -2.9341    1.5013    2.2297 C   0  0  0  0  0  0  0  0  0  0  0  0
   -3.3850    1.3651    3.2358 H   0  0  0  0  0  0  0  0  0  0  0  0
   -3.7680    1.6579    1.5178 H   0  0  0  0  0  0  0  0  0  0  0  0
   -2.3260    2.4280    2.2672 H   0  0  0  0  0  0  0  0  0  0  0  0
   -2.3538    0.8200   -1.2791 C   0  0  0  0  0  0  0  0  0  0  0  0
   -3.5846   -0.1030   -1.2807 C   0  0  0  0  0  0  0  0  0  0  0  0
   -4.1006    0.0075   -2.2582 H   0  0  0  0  0  0  0  0  0  0  0  0
   -4.3116    0.1722   -0.4917 H   0  0  0  0  0  0  0  0  0  0  0  0
   -3.2894   -1.1626   -1.1610 H   0  0  0  0  0  0  0  0  0  0  0  0
   -2.8258    2.2851   -1.3009 C   0  0  0  0  0  0  0  0  0  0  0  0
   -3.5516    2.4053   -2.1323 H   0  0  0  0  0  0  0  0  0  0  0  0
   -2.0025    2.9998   -1.4958 H   0  0  0  0  0  0  0  0  0  0  0  0
   -3.3411    2.5896   -0.3690 H   0  0  0  0  0  0  0  0  0  0  0  0
   -1.4959    0.5304   -2.5289 C   0  0  0  0  0  0  0  0  0  0  0  0
   -2.0721    0.8128   -3.4359 H   0  0  0  0  0  0  0  0  0  0  0  0
   -1.2418   -0.5456   -2.5878 H   0  0  0  0  0  0  0  0  0  0  0  0
   -0.5477    1.1047   -2.5261 H   0  0  0  0  0  0  0  0  0  0  0  0
  1  2  1  0  0  0  0
  1 20  1  0  0  0  0
  2  4  1  0  0  0  0
  3  2  1  0  0  0  0
  5  2  1  0  0  0  0
  6  5  1  1  0  0  0
  6  7  1  0  0  0  0
  7  8  1  0  0  0  0
  8 10  2  0  0  0  0
  8  9  1  0  0  0  0
 10 11  1  0  0  0  0
 12 10  1  0  0  0  0
 13 12  1  0  0  0  0
 14  6  1  0  0  0  0
 14 12  2  0  0  0  0
 15 14  1  0  0  0  0
 16 17  1  0  0  0  0
 16  5  1  0  0  0  0
 18 16  1  0  0  0  0
 19 16  1  0  0  0  0
 20 29  1  0  0  0  0
 20 21  1  0  0  0  0
 21 23  1  0  0  0  0
 21 22  1  0  0  0  0
 24 21  1  0  0  0  0
 25 20  1  0  0  0  0
 25 26  1  0  0  0  0
 27 25  1  0  0  0  0
 28 25  1  0  0  0  0
 29 32  1  0  0  0  0
 29 30  1  0  0  0  0
 31 29  1  0  0  0  0
 33  1  1  0  0  0  0
 34 33  1  0  0  0  0
 34 37  1  0  0  0  0
 34 36  1  0  0  0  0
 35 34  1  0  0  0  0
 38 33  1  0  0  0  0
 38 41  1  0  0  0  0
 39 38  1  0  0  0  0
 40 38  1  0  0  0  0
 42 45  1  0  0  0  0
 42 33  1  0  0  0  0
 43 42  1  0  0  0  0
 44 42  1  0  0  0  0
M  END
