1,2
 OpenBabel05122313063D

 43 45  0  0  1  0  0  0  0  0999 V2000
   -0.7861    0.1284    0.0104 P   0  0  0  0  0  0  0  0  0  0  0  0
    2.0169    0.5904    0.6859 N   0  0  0  0  0  2  0  0  0  0  0  0
    1.8852    2.5463    1.7323 N   0  0  0  0  0  0  0  0  0  0  0  0
    3.2709    1.1605    0.7003 C   0  0  0  0  0  0  0  0  0  0  0  0
    3.2066    2.3790    1.3452 C   0  0  0  0  0  0  0  0  0  0  0  0
    1.3707    3.6966    2.4542 C   0  0  0  0  0  0  0  0  0  0  0  0
    1.1881    1.4333    1.3252 C   0  0  2  0  0  3  0  0  0  0  0  0
   -0.2666    1.1487    1.5420 C   0  0  2  0  0  0  0  0  0  0  0  0
   -0.5398    0.3462    2.8378 C   0  0  0  0  0  0  0  0  0  0  0  0
   -0.0278    1.0162    4.1127 C   0  0  0  0  0  0  0  0  0  0  0  0
   -2.4005   -0.5950    0.5074 C   0  0  0  0  0  0  0  0  0  0  0  0
   -3.5152    0.2178    0.8084 C   0  0  0  0  0  0  0  0  0  0  0  0
   -4.7198   -0.3669    1.2210 C   0  0  0  0  0  0  0  0  0  0  0  0
   -4.8226   -1.7652    1.3298 C   0  0  0  0  0  0  0  0  0  0  0  0
   -3.7200   -2.5765    1.0230 C   0  0  0  0  0  0  0  0  0  0  0  0
   -2.5098   -1.9944    0.6123 C   0  0  0  0  0  0  0  0  0  0  0  0
   -1.2746    1.4246   -1.2042 C   0  0  0  0  0  0  0  0  0  0  0  0
   -2.2784    1.1412   -2.1544 C   0  0  0  0  0  0  0  0  0  0  0  0
   -2.5777    2.0645   -3.1664 C   0  0  0  0  0  0  0  0  0  0  0  0
   -1.8778    3.2787   -3.2471 C   0  0  0  0  0  0  0  0  0  0  0  0
   -0.8693    3.5617   -2.3133 C   0  0  0  0  0  0  0  0  0  0  0  0
   -0.5647    2.6397   -1.3009 C   0  0  0  0  0  0  0  0  0  0  0  0
    4.1276    0.6652    0.2325 H   0  0  0  0  0  0  0  0  0  0  0  0
    3.9675    3.1367    1.5558 H   0  0  0  0  0  0  0  0  0  0  0  0
    1.8672    4.6143    2.0862 H   0  0  0  0  0  0  0  0  0  0  0  0
    1.5453    3.6030    3.5449 H   0  0  0  0  0  0  0  0  0  0  0  0
    0.2838    3.7924    2.2797 H   0  0  0  0  0  0  0  0  0  0  0  0
   -0.8501    2.0942    1.5607 H   0  0  0  0  0  0  0  0  0  0  0  0
   -0.0813   -0.6585    2.7349 H   0  0  0  0  0  0  0  0  0  0  0  0
   -1.6332    0.1798    2.9137 H   0  0  0  0  0  0  0  0  0  0  0  0
   -0.2747    0.3990    4.9992 H   0  0  0  0  0  0  0  0  0  0  0  0
   -0.4857    2.0153    4.2682 H   0  0  0  0  0  0  0  0  0  0  0  0
    1.0747    1.1401    4.0995 H   0  0  0  0  0  0  0  0  0  0  0  0
   -3.4403    1.3122    0.7088 H   0  0  0  0  0  0  0  0  0  0  0  0
   -5.5864    0.2700    1.4555 H   0  0  0  0  0  0  0  0  0  0  0  0
   -5.7710   -2.2226    1.6507 H   0  0  0  0  0  0  0  0  0  0  0  0
   -3.7992   -3.6713    1.0995 H   0  0  0  0  0  0  0  0  0  0  0  0
   -1.6402   -2.6213    0.3644 H   0  0  0  0  0  0  0  0  0  0  0  0
   -2.8282    0.1892   -2.1021 H   0  0  0  0  0  0  0  0  0  0  0  0
   -3.3632    1.8298   -3.9007 H   0  0  0  0  0  0  0  0  0  0  0  0
   -2.1123    4.0008   -4.0436 H   0  0  0  0  0  0  0  0  0  0  0  0
   -0.3068    4.5056   -2.3769 H   0  0  0  0  0  0  0  0  0  0  0  0
    0.2491    2.8664   -0.5956 H   0  0  0  0  0  0  0  0  0  0  0  0
  1 11  1  0  0  0  0
  1  8  1  0  0  0  0
  2  4  1  0  0  0  0
  2  7  1  0  0  0  0
  3  6  1  0  0  0  0
  4  5  2  0  0  0  0
  5 24  1  0  0  0  0
  5  3  1  0  0  0  0
  6 26  1  0  0  0  0
  7  8  1  1  0  0  0
  7  3  1  0  0  0  0
  8 28  1  1  0  0  0
  8  9  1  0  0  0  0
  9 30  1  0  0  0  0
  9 10  1  0  0  0  0
 10 32  1  0  0  0  0
 10 31  1  0  0  0  0
 11 16  2  0  0  0  0
 11 12  1  0  0  0  0
 12 13  2  0  0  0  0
 13 14  1  0  0  0  0
 13 35  1  0  0  0  0
 14 36  1  0  0  0  0
 15 37  1  0  0  0  0
 15 14  2  0  0  0  0
 16 15  1  0  0  0  0
 17  1  1  0  0  0  0
 18 39  1  0  0  0  0
 18 17  2  0  0  0  0
 19 18  1  0  0  0  0
 20 19  2  0  0  0  0
 20 21  1  0  0  0  0
 21 22  2  0  0  0  0
 22 17  1  0  0  0  0
 22 43  1  0  0  0  0
 23  4  1  0  0  0  0
 25  6  1  0  0  0  0
 27  6  1  0  0  0  0
 29  9  1  0  0  0  0
 33 10  1  0  0  0  0
 34 12  1  0  0  0  0
 38 16  1  0  0  0  0
 40 19  1  0  0  0  0
 41 20  1  0  0  0  0
 42 21  1  0  0  0  0
M  END
