1,2
 OpenBabel05122313063D

 37 39  0  0  1  0  0  0  0  0999 V2000
   -0.8149    0.1184    0.1628 P   0  0  0  0  0  0  0  0  0  0  0  0
    1.9873    0.6772    0.8990 N   0  0  0  0  0  2  0  0  0  0  0  0
    1.7669    2.3347    2.3620 N   0  0  0  0  0  0  0  0  0  0  0  0
    3.2236    1.2572    1.0882 C   0  0  0  0  0  0  0  0  0  0  0  0
    3.1035    2.2929    1.9943 C   0  0  0  0  0  0  0  0  0  0  0  0
    1.1553    3.2686    3.2904 C   0  0  0  0  0  0  0  0  0  0  0  0
    1.1178    1.3395    1.6791 C   0  0  2  0  0  3  0  0  0  0  0  0
   -0.3290    1.0012    1.7715 C   0  0  0  0  0  0  0  0  0  0  0  0
   -1.4591    1.5222   -0.8456 C   0  0  0  0  0  0  0  0  0  0  0  0
   -0.5929    2.6073   -1.1036 C   0  0  0  0  0  0  0  0  0  0  0  0
   -1.0149    3.6741   -1.9081 C   0  0  0  0  0  0  0  0  0  0  0  0
   -2.2973    3.6611   -2.4819 C   0  0  0  0  0  0  0  0  0  0  0  0
   -3.1537    2.5753   -2.2467 C   0  0  0  0  0  0  0  0  0  0  0  0
   -2.7402    1.5096   -1.4310 C   0  0  0  0  0  0  0  0  0  0  0  0
   -2.3265   -0.7924    0.6737 C   0  0  0  0  0  0  0  0  0  0  0  0
   -3.3572   -0.1684    1.4099 C   0  0  0  0  0  0  0  0  0  0  0  0
   -4.4852   -0.9014    1.8034 C   0  0  0  0  0  0  0  0  0  0  0  0
   -4.5962   -2.2597    1.4592 C   0  0  0  0  0  0  0  0  0  0  0  0
   -3.5780   -2.8823    0.7219 C   0  0  0  0  0  0  0  0  0  0  0  0
   -2.4432   -2.1534    0.3314 C   0  0  0  0  0  0  0  0  0  0  0  0
    4.1117    0.8927    0.5624 H   0  0  0  0  0  0  0  0  0  0  0  0
    3.8362    2.9941    2.4052 H   0  0  0  0  0  0  0  0  0  0  0  0
    1.9450    3.8864    3.7543 H   0  0  0  0  0  0  0  0  0  0  0  0
    0.4426    3.9395    2.7688 H   0  0  0  0  0  0  0  0  0  0  0  0
    0.6146    2.7277    4.0919 H   0  0  0  0  0  0  0  0  0  0  0  0
   -0.9626    1.8891    1.9673 H   0  0  0  0  0  0  0  0  0  0  0  0
   -0.5141    0.2594    2.5799 H   0  0  0  0  0  0  0  0  0  0  0  0
    0.4284    2.6071   -0.6905 H   0  0  0  0  0  0  0  0  0  0  0  0
   -0.3310    4.5144   -2.1022 H   0  0  0  0  0  0  0  0  0  0  0  0
   -2.6240    4.4944   -3.1221 H   0  0  0  0  0  0  0  0  0  0  0  0
   -4.1551    2.5527   -2.7031 H   0  0  0  0  0  0  0  0  0  0  0  0
   -3.4183    0.6622   -1.2515 H   0  0  0  0  0  0  0  0  0  0  0  0
   -3.2844    0.8999    1.6676 H   0  0  0  0  0  0  0  0  0  0  0  0
   -5.2842   -0.4106    2.3798 H   0  0  0  0  0  0  0  0  0  0  0  0
   -5.4830   -2.8338    1.7683 H   0  0  0  0  0  0  0  0  0  0  0  0
   -3.6616   -3.9450    0.4494 H   0  0  0  0  0  0  0  0  0  0  0  0
   -1.6385   -2.6372   -0.2419 H   0  0  0  0  0  0  0  0  0  0  0  0
  1 15  1  0  0  0  0
  1  8  1  0  0  0  0
  2  4  1  0  0  0  0
  2  7  1  0  0  0  0
  3  6  1  0  0  0  0
  4  5  2  0  0  0  0
  5  3  1  0  0  0  0
  5 22  1  0  0  0  0
  6 23  1  0  0  0  0
  6 25  1  0  0  0  0
  7  8  1  1  0  0  0
  7  3  1  0  0  0  0
  8 26  1  0  0  0  0
  8 27  1  0  0  0  0
  9  1  1  0  0  0  0
 10  9  1  0  0  0  0
 10 28  1  0  0  0  0
 11 10  2  0  0  0  0
 12 13  2  0  0  0  0
 12 11  1  0  0  0  0
 13 14  1  0  0  0  0
 14 32  1  0  0  0  0
 14  9  2  0  0  0  0
 15 16  1  0  0  0  0
 16 33  1  0  0  0  0
 16 17  2  0  0  0  0
 17 34  1  0  0  0  0
 18 35  1  0  0  0  0
 18 17  1  0  0  0  0
 19 18  2  0  0  0  0
 20 15  2  0  0  0  0
 20 19  1  0  0  0  0
 21  4  1  0  0  0  0
 24  6  1  0  0  0  0
 29 11  1  0  0  0  0
 30 12  1  0  0  0  0
 31 13  1  0  0  0  0
 36 19  1  0  0  0  0
 37 20  1  0  0  0  0
M  END
