1,2
 OpenBabel05122313063D

 34 36  0  0  0  0  0  0  0  0999 V2000
   -0.2972    0.1404   -1.8535 N   0  0  0  0  0  0  0  0  0  0  0  0
    2.0856   -0.2868   -0.5925 P   0  0  0  0  0  0  0  0  0  0  0  0
    1.8361   -1.0164   -2.2916 C   0  0  0  0  0  0  0  0  0  0  0  0
    2.7218   -0.8449   -2.9371 H   0  0  0  0  0  0  0  0  0  0  0  0
    1.7325   -2.1149   -2.1412 H   0  0  0  0  0  0  0  0  0  0  0  0
    0.5988   -0.3456   -2.7979 C   0  0  0  0  0  0  0  0  0  0  0  0
   -1.3075    0.7899   -2.5289 C   0  0  0  0  0  3  0  0  0  0  0  0
   -2.1269    1.2788   -1.9891 H   0  0  0  0  0  0  0  0  0  0  0  0
   -1.0634    0.7256   -3.9041 C   0  0  0  0  0  0  0  0  0  0  0  0
   -1.6925    1.1572   -4.6921 H   0  0  0  0  0  0  0  0  0  0  0  0
    0.1558    0.0060   -4.0782 C   0  0  0  0  0  0  0  0  0  0  0  0
    0.6607   -0.2269   -5.0236 H   0  0  0  0  0  0  0  0  0  0  0  0
    3.0719    1.2327   -0.8527 C   0  0  0  0  0  0  0  0  0  0  0  0
    4.1362    1.5760    0.0074 C   0  0  0  0  0  0  0  0  0  0  0  0
    4.4359    0.8890    0.8132 H   0  0  0  0  0  0  0  0  0  0  0  0
    4.8185    2.7895   -0.1682 C   0  0  0  0  0  0  0  0  0  0  0  0
    5.6491    3.0484    0.5060 H   0  0  0  0  0  0  0  0  0  0  0  0
    4.4451    3.6672   -1.1975 C   0  0  0  0  0  0  0  0  0  0  0  0
    4.9820    4.6183   -1.3333 H   0  0  0  0  0  0  0  0  0  0  0  0
    3.3801    3.3312   -2.0502 C   0  0  0  0  0  0  0  0  0  0  0  0
    3.0796    4.0181   -2.8558 H   0  0  0  0  0  0  0  0  0  0  0  0
    2.6850    2.1265   -1.8777 C   0  0  0  0  0  0  0  0  0  0  0  0
    1.8409    1.8751   -2.5396 H   0  0  0  0  0  0  0  0  0  0  0  0
    3.1715   -1.4522    0.3062 C   0  0  0  0  0  0  0  0  0  0  0  0
    4.4505   -1.7659   -0.2035 C   0  0  0  0  0  0  0  0  0  0  0  0
    4.8189   -1.2673   -1.1139 H   0  0  0  0  0  0  0  0  0  0  0  0
    5.2567   -2.7055    0.4537 C   0  0  0  0  0  0  0  0  0  0  0  0
    6.2532   -2.9468    0.0533 H   0  0  0  0  0  0  0  0  0  0  0  0
    4.7930   -3.3354    1.6214 C   0  0  0  0  0  0  0  0  0  0  0  0
    5.4289   -4.0706    2.1379 H   0  0  0  0  0  0  0  0  0  0  0  0
    3.5221   -3.0259    2.1291 C   0  0  0  0  0  0  0  0  0  0  0  0
    3.1580   -3.5129    3.0461 H   0  0  0  0  0  0  0  0  0  0  0  0
    2.7083   -2.0870    1.4757 C   0  0  0  0  0  0  0  0  0  0  0  0
    1.7153   -1.8300    1.8720 H   0  0  0  0  0  0  0  0  0  0  0  0
  2 24  1  0  0  0  0
  3  5  1  0  0  0  0
  3  2  1  0  0  0  0
  4  3  1  0  0  0  0
  6  3  1  0  0  0  0
  6  1  2  0  0  0  0
  7  8  1  0  0  0  0
  7  1  1  0  0  0  0
  9  7  1  0  0  0  0
 10  9  1  0  0  0  0
 11  9  2  0  0  0  0
 11  6  1  0  0  0  0
 12 11  1  0  0  0  0
 13  2  1  0  0  0  0
 13 14  1  0  0  0  0
 14 15  1  0  0  0  0
 16 14  2  0  0  0  0
 16 17  1  0  0  0  0
 18 16  1  0  0  0  0
 19 18  1  0  0  0  0
 20 22  1  0  0  0  0
 20 18  2  0  0  0  0
 21 20  1  0  0  0  0
 22 13  2  0  0  0  0
 23 22  1  0  0  0  0
 24 33  1  0  0  0  0
 25 24  2  0  0  0  0
 25 27  1  0  0  0  0
 26 25  1  0  0  0  0
 27 29  2  0  0  0  0
 28 27  1  0  0  0  0
 29 31  1  0  0  0  0
 29 30  1  0  0  0  0
 31 32  1  0  0  0  0
 33 34  1  0  0  0  0
 33 31  2  0  0  0  0
M  END
