1,2
 OpenBabel05122313063D

 56 59  0  0  1  0  0  0  0  0999 V2000
   -1.1737    0.1448   -0.2325 P   0  0  0  0  0  0  0  0  0  0  0  0
    1.5817   -0.0982    0.5096 N   0  0  0  0  0  2  0  0  0  0  0  0
    1.2952    0.7722    1.5315 N   0  0  0  0  0  0  0  0  0  0  0  0
    2.2162    2.8958    2.5791 C   0  0  0  0  0  0  0  0  0  0  0  0
    2.5753    2.6170    3.5913 H   0  0  0  0  0  0  0  0  0  0  0  0
    1.1901    3.2980    2.6947 H   0  0  0  0  0  0  0  0  0  0  0  0
    2.8708    3.7057    2.2067 H   0  0  0  0  0  0  0  0  0  0  0  0
    2.2618    1.7517    1.6218 C   0  0  2  0  0  3  0  0  0  0  0  0
    3.1886    1.4692    0.6289 C   0  0  0  0  0  0  0  0  0  0  0  0
    4.0907    2.0483    0.4155 H   0  0  0  0  0  0  0  0  0  0  0  0
    2.7362    0.3105   -0.0577 C   0  0  0  0  0  0  0  0  0  0  0  0
    3.4823   -0.3774   -1.1951 C   0  0  0  0  0  0  0  0  0  0  0  0
    4.5428   -1.3131   -0.5644 C   0  0  0  0  0  0  0  0  0  0  0  0
    5.2353   -0.7491    0.0934 H   0  0  0  0  0  0  0  0  0  0  0  0
    5.1404   -1.7930   -1.3667 H   0  0  0  0  0  0  0  0  0  0  0  0
    4.0419   -2.1036    0.0292 H   0  0  0  0  0  0  0  0  0  0  0  0
    4.1825    0.7129   -2.0380 C   0  0  0  0  0  0  0  0  0  0  0  0
    3.4497    1.4383   -2.4473 H   0  0  0  0  0  0  0  0  0  0  0  0
    4.7097    0.2365   -2.8883 H   0  0  0  0  0  0  0  0  0  0  0  0
    4.9414    1.2740   -1.4571 H   0  0  0  0  0  0  0  0  0  0  0  0
    2.5740   -1.1992   -2.1272 C   0  0  0  0  0  0  0  0  0  0  0  0
    2.1455   -2.0803   -1.6117 H   0  0  0  0  0  0  0  0  0  0  0  0
    3.1783   -1.5715   -2.9792 H   0  0  0  0  0  0  0  0  0  0  0  0
    1.7490   -0.5857   -2.5372 H   0  0  0  0  0  0  0  0  0  0  0  0
    0.0607    0.7382    2.2407 C   0  0  0  0  0  0  0  0  0  0  0  0
    0.0817    0.8730    3.6377 C   0  0  0  0  0  0  0  0  0  0  0  0
    1.0475    0.9051    4.1590 H   0  0  0  0  0  0  0  0  0  0  0  0
   -1.1191    0.9301    4.3601 C   0  0  0  0  0  0  0  0  0  0  0  0
   -1.0898    1.0264    5.4553 H   0  0  0  0  0  0  0  0  0  0  0  0
   -2.3447    0.8422    3.6867 C   0  0  0  0  0  0  0  0  0  0  0  0
   -3.2905    0.8856    4.2465 H   0  0  0  0  0  0  0  0  0  0  0  0
   -2.3688    0.6756    2.2935 C   0  0  0  0  0  0  0  0  0  0  0  0
   -3.3299    0.5772    1.7683 H   0  0  0  0  0  0  0  0  0  0  0  0
   -1.1762    0.6193    1.5493 C   0  0  0  0  0  0  0  0  0  0  0  0
   -0.4507    1.5729   -1.1298 C   0  0  0  0  0  0  0  0  0  0  0  0
   -0.1826    2.8082   -0.5101 C   0  0  0  0  0  0  0  0  0  0  0  0
   -0.4619    2.9658    0.5428 H   0  0  0  0  0  0  0  0  0  0  0  0
    0.4361    3.8382   -1.2363 C   0  0  0  0  0  0  0  0  0  0  0  0
    0.6503    4.7994   -0.7447 H   0  0  0  0  0  0  0  0  0  0  0  0
    0.7770    3.6449   -2.5837 C   0  0  0  0  0  0  0  0  0  0  0  0
    1.2648    4.4526   -3.1499 H   0  0  0  0  0  0  0  0  0  0  0  0
    0.4916    2.4198   -3.2107 C   0  0  0  0  0  0  0  0  0  0  0  0
    0.7524    2.2657   -4.2686 H   0  0  0  0  0  0  0  0  0  0  0  0
   -0.1147    1.3844   -2.4869 C   0  0  0  0  0  0  0  0  0  0  0  0
   -0.3277    0.4184   -2.9712 H   0  0  0  0  0  0  0  0  0  0  0  0
   -2.9355    0.1226   -0.7185 C   0  0  0  0  0  0  0  0  0  0  0  0
   -3.5375    1.2660   -1.2861 C   0  0  0  0  0  0  0  0  0  0  0  0
   -2.9374    2.1671   -1.4819 H   0  0  0  0  0  0  0  0  0  0  0  0
   -4.9040    1.2511   -1.6001 C   0  0  0  0  0  0  0  0  0  0  0  0
   -5.3708    2.1436   -2.0437 H   0  0  0  0  0  0  0  0  0  0  0  0
   -5.6720    0.1018   -1.3504 C   0  0  0  0  0  0  0  0  0  0  0  0
   -6.7438    0.0924   -1.6010 H   0  0  0  0  0  0  0  0  0  0  0  0
   -5.0710   -1.0364   -0.7899 C   0  0  0  0  0  0  0  0  0  0  0  0
   -5.6675   -1.9425   -0.6051 H   0  0  0  0  0  0  0  0  0  0  0  0
   -3.7040   -1.0360   -0.4743 C   0  0  0  0  0  0  0  0  0  0  0  0
   -3.2118   -1.9378   -0.0777 H   0  0  0  0  0  0  0  0  0  0  0  0
  1 34  1  0  0  0  0
  2  3  1  0  0  0  0
  3  8  1  0  0  0  0
  3 25  1  0  0  0  0
  4  6  1  0  0  0  0
  4  5  1  0  0  0  0
  7  4  1  0  0  0  0
  8  4  1  6  0  0  0
  9  8  1  0  0  0  0
 10  9  1  0  0  0  0
 11  2  1  0  0  0  0
 11  9  2  0  0  0  0
 12 13  1  0  0  0  0
 12 11  1  0  0  0  0
 13 16  1  0  0  0  0
 13 14  1  0  0  0  0
 15 13  1  0  0  0  0
 17 20  1  0  0  0  0
 17 12  1  0  0  0  0
 18 17  1  0  0  0  0
 19 17  1  0  0  0  0
 21 22  1  0  0  0  0
 21 12  1  0  0  0  0
 23 21  1  0  0  0  0
 24 21  1  0  0  0  0
 25 26  1  0  0  0  0
 26 27  1  0  0  0  0
 26 28  2  0  0  0  0
 28 29  1  0  0  0  0
 30 31  1  0  0  0  0
 30 28  1  0  0  0  0
 32 30  2  0  0  0  0
 33 32  1  0  0  0  0
 34 25  2  0  0  0  0
 34 32  1  0  0  0  0
 35 36  1  0  0  0  0
 35  1  1  0  0  0  0
 36 37  1  0  0  0  0
 38 39  1  0  0  0  0
 38 36  2  0  0  0  0
 40 38  1  0  0  0  0
 41 40  1  0  0  0  0
 42 40  2  0  0  0  0
 42 44  1  0  0  0  0
 43 42  1  0  0  0  0
 44 35  2  0  0  0  0
 45 44  1  0  0  0  0
 46 55  1  0  0  0  0
 46  1  1  0  0  0  0
 47 46  2  0  0  0  0
 48 47  1  0  0  0  0
 49 51  2  0  0  0  0
 49 47  1  0  0  0  0
 50 49  1  0  0  0  0
 51 53  1  0  0  0  0
 52 51  1  0  0  0  0
 53 54  1  0  0  0  0
 53 55  2  0  0  0  0
 55 56  1  0  0  0  0
M  END
