1,3
 OpenBabel05122313063D

 65 68  0  0  1  0  0  0  0  0999 V2000
    1.7927    0.8864    0.0205 P   0  0  0  0  0  0  0  0  0  0  0  0
   -0.7548   -0.8614   -0.1621 N   0  0  0  0  0  0  0  0  0  0  0  0
    1.3262   -1.6013   -0.0166 N   0  0  0  0  0  2  0  0  0  0  0  0
   -3.4221   -0.5419    2.9227 C   0  0  0  0  0  0  0  0  0  0  0  0
   -3.0824   -1.4085    3.5265 H   0  0  0  0  0  0  0  0  0  0  0  0
   -3.9072    0.1651    3.6249 H   0  0  0  0  0  0  0  0  0  0  0  0
   -2.1219    0.1486    2.3089 C   0  0  0  0  0  0  0  0  0  0  0  0
   -1.7973    0.9490    3.0041 H   0  0  0  0  0  0  0  0  0  0  0  0
   -1.3010   -0.5931    2.2828 H   0  0  0  0  0  0  0  0  0  0  0  0
   -2.3500    0.6897    0.9112 C   0  0  0  0  0  0  0  0  0  0  0  0
   -1.8843    0.0164   -0.2448 C   0  0  0  0  0  0  0  0  0  0  0  0
   -2.5729    0.0925   -1.4667 C   0  0  0  0  0  0  0  0  0  0  0  0
   -2.2505   -0.5592   -2.2935 H   0  0  0  0  0  0  0  0  0  0  0  0
   -3.7293    0.8850   -1.5852 C   0  0  0  0  0  0  0  0  0  0  0  0
   -3.9750    1.8042   -0.5438 C   0  0  0  0  0  0  0  0  0  0  0  0
   -4.8094    2.5162   -0.6393 H   0  0  0  0  0  0  0  0  0  0  0  0
   -3.3039    1.7009    0.6796 C   0  0  0  0  0  0  0  0  0  0  0  0
   -3.6407    2.3181    1.5272 H   0  0  0  0  0  0  0  0  0  0  0  0
   -4.7948    0.5935   -2.6168 C   0  0  0  0  0  0  0  0  0  0  0  0
   -4.3392    0.3198   -3.5895 H   0  0  0  0  0  0  0  0  0  0  0  0
   -5.3958    1.5082   -2.7893 H   0  0  0  0  0  0  0  0  0  0  0  0
   -5.7802   -0.5885   -2.1706 C   0  0  0  0  0  0  0  0  0  0  0  0
   -6.8193   -0.2668   -2.3844 H   0  0  0  0  0  0  0  0  0  0  0  0
   -5.5792   -1.4717   -2.8091 H   0  0  0  0  0  0  0  0  0  0  0  0
   -5.6160   -0.9690   -0.7164 C   0  0  0  0  0  0  0  0  0  0  0  0
   -4.6831   -1.9608   -0.3441 C   0  0  0  0  0  0  0  0  0  0  0  0
   -4.3195   -2.6685   -1.1075 H   0  0  0  0  0  0  0  0  0  0  0  0
   -4.1027   -1.9621    0.9300 C   0  0  0  0  0  0  0  0  0  0  0  0
   -3.2936   -2.6734    1.1612 H   0  0  0  0  0  0  0  0  0  0  0  0
   -4.4205   -0.9538    1.8630 C   0  0  0  0  0  0  0  0  0  0  0  0
   -5.5568   -0.1658    1.5887 C   0  0  0  0  0  0  0  0  0  0  0  0
   -5.8947    0.5714    2.3348 H   0  0  0  0  0  0  0  0  0  0  0  0
   -6.1532   -0.1779    0.3189 C   0  0  0  0  0  0  0  0  0  0  0  0
   -6.9517    0.5468    0.0918 H   0  0  0  0  0  0  0  0  0  0  0  0
    0.5589   -0.4959    0.0309 C   0  0  1  0  0  3  0  0  0  0  0  0
    0.5336   -2.6916   -0.2350 C   0  0  0  0  0  0  0  0  0  0  0  0
    0.9544   -3.6995   -0.3156 H   0  0  0  0  0  0  0  0  0  0  0  0
   -0.7756   -2.2416   -0.3335 C   0  0  0  0  0  0  0  0  0  0  0  0
   -1.7183   -2.7703   -0.4976 H   0  0  0  0  0  0  0  0  0  0  0  0
    1.5198    1.8840   -1.5638 C   0  0  0  0  0  0  0  0  0  0  0  0
    2.7509    2.7984   -1.7211 C   0  0  0  0  0  0  0  0  0  0  0  0
    2.7251    3.6484   -1.0118 H   0  0  0  0  0  0  0  0  0  0  0  0
    2.7535    3.2216   -2.7474 H   0  0  0  0  0  0  0  0  0  0  0  0
    3.6969    2.2378   -1.5649 H   0  0  0  0  0  0  0  0  0  0  0  0
    1.5214    0.8302   -2.6895 C   0  0  0  0  0  0  0  0  0  0  0  0
    1.4649    1.3538   -3.6667 H   0  0  0  0  0  0  0  0  0  0  0  0
    0.6513    0.1459   -2.6219 H   0  0  0  0  0  0  0  0  0  0  0  0
    2.4462    0.2184   -2.6723 H   0  0  0  0  0  0  0  0  0  0  0  0
    0.2128    2.6892   -1.5940 C   0  0  0  0  0  0  0  0  0  0  0  0
    0.1040    3.1520   -2.5981 H   0  0  0  0  0  0  0  0  0  0  0  0
    0.2066    3.5090   -0.8528 H   0  0  0  0  0  0  0  0  0  0  0  0
   -0.6796    2.0566   -1.4215 H   0  0  0  0  0  0  0  0  0  0  0  0
    1.7339    1.8436    1.6513 C   0  0  0  0  0  0  0  0  0  0  0  0
    0.5222    2.7735    1.7959 C   0  0  0  0  0  0  0  0  0  0  0  0
    0.4750    3.1475    2.8409 H   0  0  0  0  0  0  0  0  0  0  0  0
   -0.4341    2.2635    1.5702 H   0  0  0  0  0  0  0  0  0  0  0  0
    0.6020    3.6580    1.1359 H   0  0  0  0  0  0  0  0  0  0  0  0
    3.0557    2.6325    1.7475 C   0  0  0  0  0  0  0  0  0  0  0  0
    3.9326    1.9967    1.5033 H   0  0  0  0  0  0  0  0  0  0  0  0
    3.1663    3.0143    2.7841 H   0  0  0  0  0  0  0  0  0  0  0  0
    3.0660    3.5063    1.0682 H   0  0  0  0  0  0  0  0  0  0  0  0
    1.7234    0.7517    2.7390 C   0  0  0  0  0  0  0  0  0  0  0  0
    1.7906    1.2389    3.7341 H   0  0  0  0  0  0  0  0  0  0  0  0
    2.5871    0.0648    2.6282 H   0  0  0  0  0  0  0  0  0  0  0  0
    0.7963    0.1461    2.7160 H   0  0  0  0  0  0  0  0  0  0  0  0
  1 53  1  0  0  0  0
  2 35  1  0  0  0  0
  3 35  1  0  0  0  0
  4  5  1  0  0  0  0
  4  6  1  0  0  0  0
  7  4  1  0  0  0  0
  7  8  1  0  0  0  0
  9  7  1  0  0  0  0
 10  7  1  0  0  0  0
 11  2  1  0  0  0  0
 11 10  2  0  0  0  0
 12 11  1  0  0  0  0
 13 12  1  0  0  0  0
 14 12  2  0  0  0  0
 14 15  1  0  0  0  0
 15 17  2  0  0  0  0
 16 15  1  0  0  0  0
 17 10  1  0  0  0  0
 17 18  1  0  0  0  0
 19 22  1  0  0  0  0
 19 14  1  0  0  0  0
 20 19  1  0  0  0  0
 21 19  1  0  0  0  0
 22 25  1  0  0  0  0
 23 22  1  0  0  0  0
 24 22  1  0  0  0  0
 25 26  2  0  0  0  0
 25 33  1  0  0  0  0
 26 28  1  0  0  0  0
 27 26  1  0  0  0  0
 28 29  1  0  0  0  0
 28 30  2  0  0  0  0
 30  4  1  0  0  0  0
 31 30  1  0  0  0  0
 31 32  1  0  0  0  0
 33 31  2  0  0  0  0
 34 33  1  0  0  0  0
 35  1  1  6  0  0  0
 36  3  1  0  0  0  0
 37 36  1  0  0  0  0
 38 36  2  0  0  0  0
 38  2  1  0  0  0  0
 39 38  1  0  0  0  0
 40  1  1  0  0  0  0
 41 44  1  0  0  0  0
 41 40  1  0  0  0  0
 41 42  1  0  0  0  0
 43 41  1  0  0  0  0
 45 48  1  0  0  0  0
 45 47  1  0  0  0  0
 45 40  1  0  0  0  0
 46 45  1  0  0  0  0
 49 40  1  0  0  0  0
 49 52  1  0  0  0  0
 49 51  1  0  0  0  0
 50 49  1  0  0  0  0
 53 58  1  0  0  0  0
 53 54  1  0  0  0  0
 53 62  1  0  0  0  0
 54 55  1  0  0  0  0
 56 54  1  0  0  0  0
 57 54  1  0  0  0  0
 58 60  1  0  0  0  0
 59 58  1  0  0  0  0
 61 58  1  0  0  0  0
 62 63  1  0  0  0  0
 64 62  1  0  0  0  0
 65 62  1  0  0  0  0
M  END
