1,2
 OpenBabel05122313063D

 64 69  0  0  1  0  0  0  0  0999 V2000
    1.7738   -0.4398    0.1838 P   0  0  0  0  0  0  0  0  0  0  0  0
   -0.6994    0.9687   -0.3819 N   0  0  0  0  0  2  0  0  0  0  0  0
   -1.0670   -0.1941   -1.0158 N   0  0  0  0  0  0  0  0  0  0  0  0
   -0.6408    2.8509    1.8007 F   0  0  0  0  0  0  0  0  0  0  0  0
   -2.1760    3.7466    0.5262 F   0  0  0  0  0  0  0  0  0  0  0  0
   -2.7533    2.4175    2.1485 F   0  0  0  0  0  0  0  0  0  0  0  0
    3.4808   -1.0513    0.3937 C   0  0  0  0  0  0  0  0  0  0  0  0
    4.4697   -0.5762   -0.4975 C   0  0  0  0  0  0  0  0  0  0  0  0
    4.2042    0.1687   -1.2613 H   0  0  0  0  0  0  0  0  0  0  0  0
    5.7904   -1.0283   -0.3722 C   0  0  0  0  0  0  0  0  0  0  0  0
    6.5577   -0.6559   -1.0673 H   0  0  0  0  0  0  0  0  0  0  0  0
    6.1384   -1.9291    0.6476 C   0  0  0  0  0  0  0  0  0  0  0  0
    7.1796   -2.2716    0.7480 H   0  0  0  0  0  0  0  0  0  0  0  0
    5.1611   -2.3821    1.5473 C   0  0  0  0  0  0  0  0  0  0  0  0
    5.4318   -3.0787    2.3551 H   0  0  0  0  0  0  0  0  0  0  0  0
    3.8330   -1.9461    1.4240 C   0  0  0  0  0  0  0  0  0  0  0  0
    3.0723   -2.3013    2.1340 H   0  0  0  0  0  0  0  0  0  0  0  0
    0.7926   -1.1923    1.5397 C   0  0  0  0  0  0  0  0  0  0  0  0
    0.4780   -2.5676    1.5468 C   0  0  0  0  0  0  0  0  0  0  0  0
    0.7870   -3.2055    0.7039 H   0  0  0  0  0  0  0  0  0  0  0  0
   -0.2207   -3.1192    2.6306 C   0  0  0  0  0  0  0  0  0  0  0  0
   -0.4622   -4.1930    2.6370 H   0  0  0  0  0  0  0  0  0  0  0  0
   -0.6153   -2.3014    3.7031 C   0  0  0  0  0  0  0  0  0  0  0  0
   -1.1667   -2.7361    4.5506 H   0  0  0  0  0  0  0  0  0  0  0  0
   -0.3221   -0.9286    3.6869 C   0  0  0  0  0  0  0  0  0  0  0  0
   -0.6455   -0.2830    4.5170 H   0  0  0  0  0  0  0  0  0  0  0  0
    0.3815   -0.3707    2.6080 C   0  0  0  0  0  0  0  0  0  0  0  0
    0.6050    0.7071    2.5804 H   0  0  0  0  0  0  0  0  0  0  0  0
    1.1437   -1.2734   -1.3399 C   0  0  0  0  0  0  0  0  0  0  0  0
    1.9551   -2.0954   -2.1437 C   0  0  0  0  0  0  0  0  0  0  0  0
    2.9669   -2.3488   -1.7952 H   0  0  0  0  0  0  0  0  0  0  0  0
    1.4971   -2.5818   -3.3782 C   0  0  0  0  0  0  0  0  0  0  0  0
    2.1506   -3.2251   -3.9857 H   0  0  0  0  0  0  0  0  0  0  0  0
    0.2227   -2.2295   -3.8431 C   0  0  0  0  0  0  0  0  0  0  0  0
   -0.1296   -2.5765   -4.8254 H   0  0  0  0  0  0  0  0  0  0  0  0
   -0.6023   -1.4110   -3.0587 C   0  0  0  0  0  0  0  0  0  0  0  0
   -1.5908   -1.0954   -3.4205 H   0  0  0  0  0  0  0  0  0  0  0  0
   -0.1586   -0.9573   -1.8077 C   0  0  0  0  0  0  0  0  0  0  0  0
   -2.3742   -0.4763   -0.7421 C   0  0  2  0  0  3  0  0  0  0  0  0
   -3.4738   -1.4851   -1.0107 C   0  0  2  0  0  0  0  0  0  0  0  0
   -3.1121   -2.8961   -1.4391 C   0  0  0  0  0  0  0  0  0  0  0  0
   -2.7071   -2.9306   -2.4683 H   0  0  0  0  0  0  0  0  0  0  0  0
   -4.0122   -3.5423   -1.4166 H   0  0  0  0  0  0  0  0  0  0  0  0
   -2.3508   -3.3395   -0.7666 H   0  0  0  0  0  0  0  0  0  0  0  0
   -4.4555   -0.7013   -1.9553 C   0  0  0  0  0  0  0  0  0  0  0  0
   -5.2541   -1.3844   -2.3073 H   0  0  0  0  0  0  0  0  0  0  0  0
   -3.9289   -0.3299   -2.8563 H   0  0  0  0  0  0  0  0  0  0  0  0
   -5.0211    0.4481   -1.0673 C   0  0  0  0  0  0  0  0  0  0  0  0
   -4.7923    1.4520   -1.4714 H   0  0  0  0  0  0  0  0  0  0  0  0
   -6.1214    0.3781   -0.9635 H   0  0  0  0  0  0  0  0  0  0  0  0
   -4.3211    0.2263    0.3127 C   0  0  1  0  0  0  0  0  0  0  0  0
   -4.7981    0.7338    1.1699 H   0  0  0  0  0  0  0  0  0  0  0  0
   -4.2465   -1.3439    0.3866 C   0  0  0  0  0  0  0  0  0  0  0  0
   -5.6189   -2.0287    0.4070 C   0  0  0  0  0  0  0  0  0  0  0  0
   -5.5052   -3.1316    0.4090 H   0  0  0  0  0  0  0  0  0  0  0  0
   -6.2737   -1.7605   -0.4421 H   0  0  0  0  0  0  0  0  0  0  0  0
   -6.1545   -1.7569    1.3393 H   0  0  0  0  0  0  0  0  0  0  0  0
   -3.4400   -1.8586    1.5835 C   0  0  0  0  0  0  0  0  0  0  0  0
   -3.9705   -1.6305    2.5301 H   0  0  0  0  0  0  0  0  0  0  0  0
   -2.4328   -1.4082    1.6492 H   0  0  0  0  0  0  0  0  0  0  0  0
   -3.3164   -2.9594    1.5330 H   0  0  0  0  0  0  0  0  0  0  0  0
   -2.8687    0.5375    0.0696 C   0  0  0  0  0  0  0  0  0  0  0  0
   -1.7915    1.4126    0.2880 C   0  0  0  0  0  0  0  0  0  0  0  0
   -1.8162    2.6320    1.1779 C   0  0  0  0  0  0  0  0  0  0  0  0
  1  7  1  0  0  0  0
  1 18  1  0  0  0  0
  2 63  1  0  0  0  0
  3 39  1  0  0  0  0
  3  2  1  0  0  0  0
  5 64  1  0  0  0  0
  7 16  1  0  0  0  0
  8 10  1  0  0  0  0
  8  7  2  0  0  0  0
  9  8  1  0  0  0  0
 10 12  2  0  0  0  0
 11 10  1  0  0  0  0
 12 13  1  0  0  0  0
 12 14  1  0  0  0  0
 14 15  1  0  0  0  0
 16 14  2  0  0  0  0
 16 17  1  0  0  0  0
 18 19  2  0  0  0  0
 18 27  1  0  0  0  0
 19 21  1  0  0  0  0
 20 19  1  0  0  0  0
 21 22  1  0  0  0  0
 21 23  2  0  0  0  0
 23 24  1  0  0  0  0
 25 23  1  0  0  0  0
 25 26  1  0  0  0  0
 27 25  2  0  0  0  0
 28 27  1  0  0  0  0
 29  1  1  0  0  0  0
 30 31  1  0  0  0  0
 30 29  2  0  0  0  0
 32 30  1  0  0  0  0
 33 32  1  0  0  0  0
 34 32  2  0  0  0  0
 34 36  1  0  0  0  0
 35 34  1  0  0  0  0
 36 38  2  0  0  0  0
 37 36  1  0  0  0  0
 38 29  1  0  0  0  0
 38  3  1  0  0  0  0
 39 62  1  6  0  0  0
 40 41  1  6  0  0  0
 40 39  1  0  0  0  0
 40 53  1  0  0  0  0
 41 43  1  0  0  0  0
 41 44  1  0  0  0  0
 42 41  1  0  0  0  0
 45 48  1  0  0  0  0
 45 40  1  0  0  0  0
 46 45  1  0  0  0  0
 47 45  1  0  0  0  0
 48 50  1  0  0  0  0
 48 51  1  0  0  0  0
 49 48  1  0  0  0  0
 51 53  1  0  0  0  0
 51 52  1  1  0  0  0
 53 54  1  0  0  0  0
 53 58  1  0  0  0  0
 54 55  1  0  0  0  0
 54 57  1  0  0  0  0
 56 54  1  0  0  0  0
 58 60  1  0  0  0  0
 58 59  1  0  0  0  0
 61 58  1  0  0  0  0
 62 63  2  0  0  0  0
 62 51  1  0  0  0  0
 63 64  1  0  0  0  0
 64  4  1  0  0  0  0
 64  6  1  0  0  0  0
M  END
