1,2
 OpenBabel05122313063D

 58 62  0  0  0  0  0  0  0  0999 V2000
   -1.8838    0.2424    0.1677 P   0  0  0  0  0  0  0  0  0  0  0  0
    1.0151   -0.5697    0.8665 N   0  0  0  0  0  2  0  0  0  0  0  0
    3.6150    0.3950    1.3209 O   0  0  0  0  0  0  0  0  0  0  0  0
    0.8579    0.1811    1.9293 C   0  0  0  0  0  3  0  0  0  0  0  0
    1.5971    0.0363    2.7361 H   0  0  0  0  0  0  0  0  0  0  0  0
   -1.3952    1.3557    1.5429 C   0  0  0  0  0  0  0  0  0  0  0  0
   -2.2729    2.3768    1.9537 C   0  0  0  0  0  0  0  0  0  0  0  0
   -3.2279    2.5072    1.4233 H   0  0  0  0  0  0  0  0  0  0  0  0
   -1.9463    3.2321    3.0162 C   0  0  0  0  0  0  0  0  0  0  0  0
   -2.6462    4.0275    3.3130 H   0  0  0  0  0  0  0  0  0  0  0  0
   -0.7283    3.0670    3.6950 C   0  0  0  0  0  0  0  0  0  0  0  0
   -0.4615    3.7315    4.5301 H   0  0  0  0  0  0  0  0  0  0  0  0
    0.1483    2.0524    3.3036 C   0  0  0  0  0  0  0  0  0  0  0  0
    1.1056    1.9197    3.8308 H   0  0  0  0  0  0  0  0  0  0  0  0
   -0.1513    1.1908    2.2163 C   0  0  0  0  0  0  0  0  0  0  0  0
    3.4438   -0.9519    1.0890 C   0  0  0  0  0  0  0  0  0  0  0  0
    2.1376   -1.4635    0.9184 C   0  0  0  0  0  0  0  0  0  0  0  0
    1.9455   -2.8465    0.7542 C   0  0  0  0  0  0  0  0  0  0  0  0
    0.9223   -3.2159    0.5982 H   0  0  0  0  0  0  0  0  0  0  0  0
    3.0405   -3.7144    0.7598 C   0  0  0  0  0  0  0  0  0  0  0  0
    2.8797   -4.7945    0.6321 H   0  0  0  0  0  0  0  0  0  0  0  0
    4.3423   -3.2010    0.8961 C   0  0  0  0  0  0  0  0  0  0  0  0
    5.2089   -3.8787    0.8795 H   0  0  0  0  0  0  0  0  0  0  0  0
    4.5437   -1.8256    1.0559 C   0  0  0  0  0  0  0  0  0  0  0  0
    5.5532   -1.4026    1.1622 H   0  0  0  0  0  0  0  0  0  0  0  0
    4.3981    1.1263    0.4364 C   0  0  0  0  0  0  0  0  0  0  0  0
    5.1583    2.1755    0.9765 C   0  0  0  0  0  0  0  0  0  0  0  0
    5.1381    2.3458    2.0627 H   0  0  0  0  0  0  0  0  0  0  0  0
    5.9239    2.9773    0.1172 C   0  0  0  0  0  0  0  0  0  0  0  0
    6.5231    3.8008    0.5350 H   0  0  0  0  0  0  0  0  0  0  0  0
    5.9333    2.7274   -1.2649 C   0  0  0  0  0  0  0  0  0  0  0  0
    6.5370    3.3565   -1.9359 H   0  0  0  0  0  0  0  0  0  0  0  0
    5.1624    1.6747   -1.7860 C   0  0  0  0  0  0  0  0  0  0  0  0
    5.1497    1.4815   -2.8695 H   0  0  0  0  0  0  0  0  0  0  0  0
    4.3850    0.8658   -0.9442 C   0  0  0  0  0  0  0  0  0  0  0  0
    3.7473    0.0625   -1.3519 H   0  0  0  0  0  0  0  0  0  0  0  0
   -2.9447    1.3193   -0.8685 C   0  0  0  0  0  0  0  0  0  0  0  0
   -4.3488    1.2720   -0.7948 C   0  0  0  0  0  0  0  0  0  0  0  0
   -4.8429    0.5344   -0.1447 H   0  0  0  0  0  0  0  0  0  0  0  0
   -5.1171    2.1622   -1.5633 C   0  0  0  0  0  0  0  0  0  0  0  0
   -6.2156    2.1191   -1.5105 H   0  0  0  0  0  0  0  0  0  0  0  0
   -4.4872    3.0967   -2.3983 C   0  0  0  0  0  0  0  0  0  0  0  0
   -5.0916    3.7903   -3.0024 H   0  0  0  0  0  0  0  0  0  0  0  0
   -3.0839    3.1402   -2.4726 C   0  0  0  0  0  0  0  0  0  0  0  0
   -2.5877    3.8629   -3.1376 H   0  0  0  0  0  0  0  0  0  0  0  0
   -2.3112    2.2518   -1.7154 C   0  0  0  0  0  0  0  0  0  0  0  0
   -1.2129    2.2603   -1.7896 H   0  0  0  0  0  0  0  0  0  0  0  0
   -3.0163   -0.9960    0.9079 C   0  0  0  0  0  0  0  0  0  0  0  0
   -3.4460   -2.0489    0.0699 C   0  0  0  0  0  0  0  0  0  0  0  0
   -3.0959   -2.0844   -0.9756 H   0  0  0  0  0  0  0  0  0  0  0  0
   -4.3063   -3.0310    0.5782 C   0  0  0  0  0  0  0  0  0  0  0  0
   -4.6434   -3.8489   -0.0764 H   0  0  0  0  0  0  0  0  0  0  0  0
   -4.7286   -2.9794    1.9181 C   0  0  0  0  0  0  0  0  0  0  0  0
   -5.3982   -3.7577    2.3148 H   0  0  0  0  0  0  0  0  0  0  0  0
   -4.2915   -1.9391    2.7522 C   0  0  0  0  0  0  0  0  0  0  0  0
   -4.6165   -1.8992    3.8030 H   0  0  0  0  0  0  0  0  0  0  0  0
   -3.4371   -0.9439    2.2504 C   0  0  0  0  0  0  0  0  0  0  0  0
   -3.0974   -0.1284    2.9062 H   0  0  0  0  0  0  0  0  0  0  0  0
  1 48  1  0  0  0  0
  1  6  1  0  0  0  0
  2 17  1  0  0  0  0
  2  4  1  0  0  0  0
  4 15  1  0  0  0  0
  4  5  1  0  0  0  0
  6  7  2  0  0  0  0
  6 15  1  0  0  0  0
  7  9  1  0  0  0  0
  8  7  1  0  0  0  0
  9 10  1  0  0  0  0
  9 11  2  0  0  0  0
 11 12  1  0  0  0  0
 13 11  1  0  0  0  0
 13 14  1  0  0  0  0
 15 13  2  0  0  0  0
 16  3  1  0  0  0  0
 17 16  2  0  0  0  0
 18 20  2  0  0  0  0
 18 17  1  0  0  0  0
 19 18  1  0  0  0  0
 20 22  1  0  0  0  0
 21 20  1  0  0  0  0
 22 24  2  0  0  0  0
 23 22  1  0  0  0  0
 24 16  1  0  0  0  0
 24 25  1  0  0  0  0
 26 27  1  0  0  0  0
 26  3  1  0  0  0  0
 27 28  1  0  0  0  0
 29 30  1  0  0  0  0
 29 27  2  0  0  0  0
 31 29  1  0  0  0  0
 32 31  1  0  0  0  0
 33 31  2  0  0  0  0
 33 35  1  0  0  0  0
 34 33  1  0  0  0  0
 35 26  2  0  0  0  0
 36 35  1  0  0  0  0
 37 38  1  0  0  0  0
 37  1  1  0  0  0  0
 38 39  1  0  0  0  0
 40 41  1  0  0  0  0
 40 38  2  0  0  0  0
 42 40  1  0  0  0  0
 43 42  1  0  0  0  0
 44 42  2  0  0  0  0
 44 46  1  0  0  0  0
 45 44  1  0  0  0  0
 46 37  2  0  0  0  0
 47 46  1  0  0  0  0
 48 57  1  0  0  0  0
 49 51  1  0  0  0  0
 49 48  2  0  0  0  0
 50 49  1  0  0  0  0
 51 53  2  0  0  0  0
 52 51  1  0  0  0  0
 53 54  1  0  0  0  0
 53 55  1  0  0  0  0
 55 56  1  0  0  0  0
 57 55  2  0  0  0  0
 57 58  1  0  0  0  0
M  END
