1,2
 OpenBabel05122313063D

 48 52  0  0  1  0  0  0  0  0999 V2000
    0.3974   -0.0461    0.5007 P   0  0  2  0  0  0  0  0  0  0  0  0
   -2.5074    0.2202    0.4548 N   0  0  0  0  0  2  0  0  0  0  0  0
    5.5611   -0.2382   -1.3958 N   0  0  0  0  0  0  0  0  0  0  0  0
    1.6775    1.1219   -0.1120 C   0  0  0  0  0  0  0  0  0  0  0  0
    1.1867    2.4087   -0.0701 C   0  0  0  0  0  0  0  0  0  0  0  0
    1.8002    3.6384   -0.6874 C   0  0  0  0  0  0  0  0  0  0  0  0
    2.3077    4.2338    0.1064 H   0  0  0  0  0  0  0  0  0  0  0  0
    2.5793    3.3576   -1.4220 H   0  0  0  0  0  0  0  0  0  0  0  0
    0.7054    4.4964   -1.3451 C   0  0  0  0  0  0  0  0  0  0  0  0
    0.2549    3.9158   -2.1780 H   0  0  0  0  0  0  0  0  0  0  0  0
    1.1554    5.4049   -1.7930 H   0  0  0  0  0  0  0  0  0  0  0  0
   -0.3966    4.8780   -0.3499 C   0  0  0  0  0  0  0  0  0  0  0  0
   -1.2669    5.3165   -0.8833 H   0  0  0  0  0  0  0  0  0  0  0  0
   -0.0414    5.6871    0.3328 H   0  0  0  0  0  0  0  0  0  0  0  0
   -0.8490    3.7085    0.4789 C   0  0  0  0  0  0  0  0  0  0  0  0
   -1.8128    3.7893    1.0077 H   0  0  0  0  0  0  0  0  0  0  0  0
   -0.1162    2.5691    0.5852 C   0  0  0  0  0  0  0  0  0  0  0  0
   -0.5190    1.3292    1.3879 C   0  0  1  0  0  0  0  0  0  0  0  0
   -0.1251    1.4197    2.4234 H   0  0  0  0  0  0  0  0  0  0  0  0
   -1.9926    1.0530    1.4147 C   0  0  1  0  0  3  0  0  0  0  0  0
   -2.8252    1.6506    2.3727 C   0  0  0  0  0  0  0  0  0  0  0  0
   -2.3702    2.2891    3.1435 H   0  0  0  0  0  0  0  0  0  0  0  0
   -4.2087    1.4361    2.3359 C   0  0  0  0  0  0  0  0  0  0  0  0
   -4.8684    1.9014    3.0832 H   0  0  0  0  0  0  0  0  0  0  0  0
   -4.7236    0.6134    1.3264 C   0  0  0  0  0  0  0  0  0  0  0  0
   -5.8004    0.4096    1.2413 H   0  0  0  0  0  0  0  0  0  0  0  0
   -3.8497    0.0180    0.4145 C   0  0  0  0  0  0  0  0  0  0  0  0
   -4.1823   -0.6567   -0.3944 H   0  0  0  0  0  0  0  0  0  0  0  0
    2.9927    0.6687   -0.5762 C   0  0  0  0  0  0  0  0  0  0  0  0
    4.1579    1.4435   -0.3602 C   0  0  0  0  0  0  0  0  0  0  0  0
    4.1062    2.4062    0.1682 H   0  0  0  0  0  0  0  0  0  0  0  0
    5.3973    0.9476   -0.7875 C   0  0  0  0  0  0  0  0  0  0  0  0
    6.3124    1.5440   -0.6183 H   0  0  0  0  0  0  0  0  0  0  0  0
    4.4555   -0.9780   -1.5891 C   0  0  0  0  0  0  0  0  0  0  0  0
    4.5989   -1.9534   -2.0873 H   0  0  0  0  0  0  0  0  0  0  0  0
    3.1665   -0.5878   -1.1993 C   0  0  0  0  0  0  0  0  0  0  0  0
    2.3011   -1.2437   -1.4013 H   0  0  0  0  0  0  0  0  0  0  0  0
    1.2236   -1.1451    1.6967 C   0  0  0  0  0  0  0  0  0  0  0  0
    1.0108   -2.5349    1.6103 C   0  0  0  0  0  0  0  0  0  0  0  0
    0.3660   -2.9324    0.8107 H   0  0  0  0  0  0  0  0  0  0  0  0
    1.6534   -3.3902    2.5186 C   0  0  0  0  0  0  0  0  0  0  0  0
    1.4936   -4.4766    2.4485 H   0  0  0  0  0  0  0  0  0  0  0  0
    2.5003   -2.8641    3.5063 C   0  0  0  0  0  0  0  0  0  0  0  0
    3.0020   -3.5387    4.2166 H   0  0  0  0  0  0  0  0  0  0  0  0
    2.7205   -1.4777    3.5846 C   0  0  0  0  0  0  0  0  0  0  0  0
    3.3952   -1.0678    4.3512 H   0  0  0  0  0  0  0  0  0  0  0  0
    2.0898   -0.6169    2.6769 C   0  0  0  0  0  0  0  0  0  0  0  0
    2.2815    0.4674    2.7203 H   0  0  0  0  0  0  0  0  0  0  0  0
  1 18  1  0  0  0  0
  1 38  1  1  0  0  0
  3 32  1  0  0  0  0
  4  5  2  0  0  0  0
  4  1  1  0  0  0  0
  5 17  1  0  0  0  0
  6  5  1  0  0  0  0
  6  7  1  0  0  0  0
  8  6  1  0  0  0  0
  9  6  1  0  0  0  0
  9 12  1  0  0  0  0
 10  9  1  0  0  0  0
 11  9  1  0  0  0  0
 12 14  1  0  0  0  0
 12 15  1  0  0  0  0
 13 12  1  0  0  0  0
 15 17  2  0  0  0  0
 15 16  1  0  0  0  0
 17 18  1  0  0  0  0
 18 20  1  0  0  0  0
 18 19  1  1  0  0  0
 20  2  1  6  0  0  0
 20 21  1  0  0  0  0
 21 22  1  0  0  0  0
 23 21  2  0  0  0  0
 23 24  1  0  0  0  0
 25 23  1  0  0  0  0
 26 25  1  0  0  0  0
 27  2  1  0  0  0  0
 27 25  2  0  0  0  0
 28 27  1  0  0  0  0
 29 30  1  0  0  0  0
 29  4  1  0  0  0  0
 30 31  1  0  0  0  0
 32 33  1  0  0  0  0
 32 30  2  0  0  0  0
 34  3  2  0  0  0  0
 34 36  1  0  0  0  0
 35 34  1  0  0  0  0
 36 29  2  0  0  0  0
 37 36  1  0  0  0  0
 38 47  1  0  0  0  0
 39 38  2  0  0  0  0
 39 41  1  0  0  0  0
 40 39  1  0  0  0  0
 41 43  2  0  0  0  0
 42 41  1  0  0  0  0
 43 45  1  0  0  0  0
 43 44  1  0  0  0  0
 45 46  1  0  0  0  0
 47 48  1  0  0  0  0
 47 45  2  0  0  0  0
M  END
