1,2
 OpenBabel05122313063D

 50 50  0  0  1  0  0  0  0  0999 V2000
    0.2146   -1.6470    0.1234 P   0  0  0  0  0  0  0  0  0  0  0  0
    1.7589    0.4272   -0.0654 N   0  0  0  0  0  2  0  0  0  0  0  0
    3.2229   -1.2472   -0.0214 N   0  0  0  0  0  0  0  0  0  0  0  0
    1.8946   -0.9124    0.0295 C   0  0  2  0  0  3  0  0  0  0  0  0
    3.9319   -0.0662   -0.1542 C   0  0  0  0  0  0  0  0  0  0  0  0
    3.0152    0.9800   -0.1817 C   0  0  0  0  0  0  0  0  0  0  0  0
    3.8314   -2.5699   -0.0419 C   0  0  0  0  0  0  0  0  0  0  0  0
    3.2516    2.4685   -0.3244 C   0  0  0  0  0  0  0  0  0  0  0  0
    4.7602    2.7646   -0.3699 C   0  0  0  0  0  0  0  0  0  0  0  0
    2.6179    3.1911    0.8837 C   0  0  0  0  0  0  0  0  0  0  0  0
    2.5948    2.9479   -1.6388 C   0  0  0  0  0  0  0  0  0  0  0  0
   -0.0254   -2.8522   -1.3233 C   0  0  0  0  0  0  0  0  0  0  0  0
    0.5579   -2.1176   -2.5455 C   0  0  0  0  0  0  0  0  0  0  0  0
   -1.5402   -3.0543   -1.5251 C   0  0  0  0  0  0  0  0  0  0  0  0
    0.6620   -4.2116   -1.1312 C   0  0  0  0  0  0  0  0  0  0  0  0
    0.0082   -2.3880    1.8602 C   0  0  0  0  0  0  0  0  0  0  0  0
    1.1401   -3.3531    2.2452 C   0  0  0  0  0  0  0  0  0  0  0  0
   -1.3582   -3.0927    1.9290 C   0  0  0  0  0  0  0  0  0  0  0  0
    0.0320   -1.1796    2.8160 C   0  0  0  0  0  0  0  0  0  0  0  0
    5.0244   -0.0669   -0.2163 H   0  0  0  0  0  0  0  0  0  0  0  0
    3.1470   -3.3025    0.4156 H   0  0  0  0  0  0  0  0  0  0  0  0
    4.7704   -2.5532    0.5419 H   0  0  0  0  0  0  0  0  0  0  0  0
    4.0591   -2.8809   -1.0812 H   0  0  0  0  0  0  0  0  0  0  0  0
    4.9317    3.8542   -0.4712 H   0  0  0  0  0  0  0  0  0  0  0  0
    5.2677    2.4308    0.5575 H   0  0  0  0  0  0  0  0  0  0  0  0
    5.2471    2.2697   -1.2344 H   0  0  0  0  0  0  0  0  0  0  0  0
    3.1127    2.8945    1.8299 H   0  0  0  0  0  0  0  0  0  0  0  0
    2.7154    4.2901    0.7751 H   0  0  0  0  0  0  0  0  0  0  0  0
    1.5443    2.9381    0.9834 H   0  0  0  0  0  0  0  0  0  0  0  0
    3.0786    2.4802   -2.5194 H   0  0  0  0  0  0  0  0  0  0  0  0
    2.6848    4.0481   -1.7410 H   0  0  0  0  0  0  0  0  0  0  0  0
    1.5208    2.6749   -1.6762 H   0  0  0  0  0  0  0  0  0  0  0  0
    0.1091   -1.1097   -2.6652 H   0  0  0  0  0  0  0  0  0  0  0  0
    0.3334   -2.7039   -3.4601 H   0  0  0  0  0  0  0  0  0  0  0  0
    1.6580   -1.9982   -2.4806 H   0  0  0  0  0  0  0  0  0  0  0  0
   -2.0096   -3.6051   -0.6896 H   0  0  0  0  0  0  0  0  0  0  0  0
   -2.0761   -2.0947   -1.6480 H   0  0  0  0  0  0  0  0  0  0  0  0
   -1.6930   -3.6551   -2.4455 H   0  0  0  0  0  0  0  0  0  0  0  0
    1.7547   -4.1232   -0.9834 H   0  0  0  0  0  0  0  0  0  0  0  0
    0.5055   -4.8198   -2.0464 H   0  0  0  0  0  0  0  0  0  0  0  0
    0.2336   -4.7835   -0.2860 H   0  0  0  0  0  0  0  0  0  0  0  0
    0.9380   -3.7516    3.2613 H   0  0  0  0  0  0  0  0  0  0  0  0
    1.2195   -4.2213    1.5648 H   0  0  0  0  0  0  0  0  0  0  0  0
    2.1180   -2.8349    2.2928 H   0  0  0  0  0  0  0  0  0  0  0  0
   -2.1816   -2.4481    1.5627 H   0  0  0  0  0  0  0  0  0  0  0  0
   -1.3686   -4.0382    1.3531 H   0  0  0  0  0  0  0  0  0  0  0  0
   -1.5748   -3.3495    2.9866 H   0  0  0  0  0  0  0  0  0  0  0  0
   -0.0911   -1.5405    3.8582 H   0  0  0  0  0  0  0  0  0  0  0  0
    0.9903   -0.6249    2.7596 H   0  0  0  0  0  0  0  0  0  0  0  0
   -0.7861   -0.4663    2.5959 H   0  0  0  0  0  0  0  0  0  0  0  0
  1 16  1  0  0  0  0
  2  4  1  0  0  0  0
  3  4  1  0  0  0  0
  4  1  1  6  0  0  0
  5  3  1  0  0  0  0
  6  5  2  0  0  0  0
  6  2  1  0  0  0  0
  7  3  1  0  0  0  0
  7 21  1  0  0  0  0
  7 22  1  0  0  0  0
  8  6  1  0  0  0  0
  8 10  1  0  0  0  0
  9  8  1  0  0  0  0
  9 25  1  0  0  0  0
 10 29  1  0  0  0  0
 10 27  1  0  0  0  0
 11  8  1  0  0  0  0
 12 15  1  0  0  0  0
 12  1  1  0  0  0  0
 13 35  1  0  0  0  0
 13 12  1  0  0  0  0
 14 12  1  0  0  0  0
 14 36  1  0  0  0  0
 15 39  1  0  0  0  0
 15 41  1  0  0  0  0
 16 18  1  0  0  0  0
 16 17  1  0  0  0  0
 16 19  1  0  0  0  0
 17 44  1  0  0  0  0
 17 42  1  0  0  0  0
 18 47  1  0  0  0  0
 19 48  1  0  0  0  0
 20  5  1  0  0  0  0
 23  7  1  0  0  0  0
 24  9  1  0  0  0  0
 26  9  1  0  0  0  0
 28 10  1  0  0  0  0
 30 11  1  0  0  0  0
 31 11  1  0  0  0  0
 32 11  1  0  0  0  0
 33 13  1  0  0  0  0
 34 13  1  0  0  0  0
 37 14  1  0  0  0  0
 38 14  1  0  0  0  0
 40 15  1  0  0  0  0
 43 17  1  0  0  0  0
 45 18  1  0  0  0  0
 46 18  1  0  0  0  0
 49 19  1  0  0  0  0
 50 19  1  0  0  0  0
M  END
