1,2
 OpenBabel05122313063D

 53 57  0  0  0  0  0  0  0  0999 V2000
    1.2681    0.1176   -0.0486 P   0  0  0  0  0  0  0  0  0  0  0  0
   -1.6002   -0.0030   -0.8569 N   0  0  0  0  0  0  0  0  0  0  0  0
   -2.3071   -0.7746   -1.9787 C   0  0  0  0  0  0  0  0  0  0  0  0
   -3.7454   -1.0539   -1.4907 C   0  0  0  0  0  0  0  0  0  0  0  0
   -3.8454   -0.3141   -0.1825 C   0  0  0  0  0  0  0  0  0  0  0  0
   -4.9334   -0.1478    0.6825 C   0  0  0  0  0  0  0  0  0  0  0  0
   -4.7683    0.6088    1.8564 C   0  0  0  0  0  0  0  0  0  0  0  0
   -3.5257    1.1921    2.1642 C   0  0  0  0  0  0  0  0  0  0  0  0
   -2.4248    1.0285    1.3073 C   0  0  0  0  0  0  0  0  0  0  0  0
   -2.6174    0.2739    0.1461 C   0  0  0  0  0  0  0  0  0  0  0  0
    1.5730    1.0258    1.5169 C   0  0  0  0  0  0  0  0  0  0  0  0
    1.2880    2.3969    1.6796 C   0  0  0  0  0  0  0  0  0  0  0  0
    1.5060    3.0131    2.9228 C   0  0  0  0  0  0  0  0  0  0  0  0
    2.0069    2.2688    4.0014 C   0  0  0  0  0  0  0  0  0  0  0  0
    2.2835    0.9001    3.8405 C   0  0  0  0  0  0  0  0  0  0  0  0
    2.0633    0.2730    2.6075 C   0  0  0  0  0  0  0  0  0  0  0  0
    2.9197   -0.2251   -0.7479 C   0  0  0  0  0  0  0  0  0  0  0  0
    4.0301    0.5856   -0.4379 C   0  0  0  0  0  0  0  0  0  0  0  0
    5.2721    0.3243   -1.0370 C   0  0  0  0  0  0  0  0  0  0  0  0
    5.4084   -0.7462   -1.9349 C   0  0  0  0  0  0  0  0  0  0  0  0
    4.3044   -1.5634   -2.2304 C   0  0  0  0  0  0  0  0  0  0  0  0
    3.0609   -1.3103   -1.6360 C   0  0  0  0  0  0  0  0  0  0  0  0
    0.4733    1.3422   -1.1567 C   0  0  0  0  0  0  0  0  0  0  0  0
    1.1865    2.4226   -1.7074 C   0  0  0  0  0  0  0  0  0  0  0  0
    0.4973    3.4162   -2.4083 C   0  0  0  0  0  0  0  0  0  0  0  0
   -0.8973    3.3389   -2.5158 C   0  0  0  0  0  0  0  0  0  0  0  0
   -1.6427    2.2636   -1.9878 C   0  0  0  0  0  0  0  0  0  0  0  0
   -0.9205    1.2194   -1.3412 C   0  0  0  0  0  0  0  0  0  0  0  0
   -3.1455    2.3087   -2.1136 C   0  0  0  0  0  0  0  0  0  0  0  0
   -1.7511   -1.7121   -2.1487 H   0  0  0  0  0  0  0  0  0  0  0  0
   -2.2659   -0.1633   -2.8999 H   0  0  0  0  0  0  0  0  0  0  0  0
   -3.8705   -2.1403   -1.3137 H   0  0  0  0  0  0  0  0  0  0  0  0
   -4.5122   -0.7162   -2.2202 H   0  0  0  0  0  0  0  0  0  0  0  0
   -5.9062   -0.6046    0.4456 H   0  0  0  0  0  0  0  0  0  0  0  0
   -5.6173    0.7414    2.5433 H   0  0  0  0  0  0  0  0  0  0  0  0
   -3.4071    1.7752    3.0894 H   0  0  0  0  0  0  0  0  0  0  0  0
   -1.4444    1.4657    1.5450 H   0  0  0  0  0  0  0  0  0  0  0  0
    0.8943    2.9865    0.8387 H   0  0  0  0  0  0  0  0  0  0  0  0
    1.2815    4.0836    3.0457 H   0  0  0  0  0  0  0  0  0  0  0  0
    2.1755    2.7548    4.9744 H   0  0  0  0  0  0  0  0  0  0  0  0
    2.6632    0.3097    4.6881 H   0  0  0  0  0  0  0  0  0  0  0  0
    2.2376   -0.8086    2.4803 H   0  0  0  0  0  0  0  0  0  0  0  0
    3.9260    1.4102    0.2841 H   0  0  0  0  0  0  0  0  0  0  0  0
    6.1399    0.9557   -0.7928 H   0  0  0  0  0  0  0  0  0  0  0  0
    6.3853   -0.9536   -2.3977 H   0  0  0  0  0  0  0  0  0  0  0  0
    4.4161   -2.4153   -2.9179 H   0  0  0  0  0  0  0  0  0  0  0  0
    2.1984   -1.9655   -1.8311 H   0  0  0  0  0  0  0  0  0  0  0  0
    2.2778    2.4758   -1.5769 H   0  0  0  0  0  0  0  0  0  0  0  0
    1.0401    4.2626   -2.8546 H   0  0  0  0  0  0  0  0  0  0  0  0
   -1.4457    4.1411   -3.0336 H   0  0  0  0  0  0  0  0  0  0  0  0
   -3.5625    1.4464   -2.6687 H   0  0  0  0  0  0  0  0  0  0  0  0
   -3.4541    3.2277   -2.6462 H   0  0  0  0  0  0  0  0  0  0  0  0
   -3.6317    2.3041   -1.1178 H   0  0  0  0  0  0  0  0  0  0  0  0
  1 11  1  0  0  0  0
  2 10  1  0  0  0  0
  3  4  1  0  0  0  0
  3  2  1  0  0  0  0
  4 32  1  0  0  0  0
  4  5  1  0  0  0  0
  5 10  2  0  0  0  0
  5  6  1  0  0  0  0
  6  7  2  0  0  0  0
  7  8  1  0  0  0  0
  7 35  1  0  0  0  0
  8 36  1  0  0  0  0
  9 37  1  0  0  0  0
  9  8  2  0  0  0  0
 10  9  1  0  0  0  0
 11 12  2  0  0  0  0
 11 16  1  0  0  0  0
 12 13  1  0  0  0  0
 13 39  1  0  0  0  0
 13 14  2  0  0  0  0
 14 40  1  0  0  0  0
 15 14  1  0  0  0  0
 15 41  1  0  0  0  0
 16 15  2  0  0  0  0
 17 18  1  0  0  0  0
 17  1  1  0  0  0  0
 18 43  1  0  0  0  0
 19 44  1  0  0  0  0
 19 18  2  0  0  0  0
 20 19  1  0  0  0  0
 21 20  2  0  0  0  0
 21 22  1  0  0  0  0
 22 17  2  0  0  0  0
 23  1  1  0  0  0  0
 24 48  1  0  0  0  0
 24 23  2  0  0  0  0
 25 24  1  0  0  0  0
 26 25  2  0  0  0  0
 26 27  1  0  0  0  0
 27 28  2  0  0  0  0
 28 23  1  0  0  0  0
 28  2  1  0  0  0  0
 29 27  1  0  0  0  0
 29 53  1  0  0  0  0
 30  3  1  0  0  0  0
 31  3  1  0  0  0  0
 33  4  1  0  0  0  0
 34  6  1  0  0  0  0
 38 12  1  0  0  0  0
 42 16  1  0  0  0  0
 45 20  1  0  0  0  0
 46 21  1  0  0  0  0
 47 22  1  0  0  0  0
 49 25  1  0  0  0  0
 50 26  1  0  0  0  0
 51 29  1  0  0  0  0
 52 29  1  0  0  0  0
M  END
