1,3
 OpenBabel05122313063D

 60 63  0  0  1  0  0  0  0  0999 V2000
   -1.1246   -0.0446    0.1357 P   0  0  0  0  0  0  0  0  0  0  0  0
    2.3807    2.2384    0.3401 O   0  0  0  0  0  0  0  0  0  0  0  0
    1.7623    0.1528   -0.1874 N   0  0  0  0  0  2  0  0  0  0  0  0
    2.6572   -0.0365    0.9790 C   0  0  2  0  0  0  0  0  0  0  0  0
    2.9235    1.4246    1.4181 C   0  0  0  0  0  0  0  0  0  0  0  0
    2.3932    1.7054    2.3490 H   0  0  0  0  0  0  0  0  0  0  0  0
    3.9986    1.6697    1.5146 H   0  0  0  0  0  0  0  0  0  0  0  0
    1.7065    1.4126   -0.4820 C   0  0  1  0  0  3  0  0  0  0  0  0
    0.9544    2.0719   -1.6215 C   0  0  0  0  0  0  0  0  0  0  0  0
   -0.3997    2.5780   -1.0600 C   0  0  0  0  0  0  0  0  0  0  0  0
   -0.7586    3.9229   -1.2889 C   0  0  0  0  0  0  0  0  0  0  0  0
   -0.0615    4.5781   -1.8252 H   0  0  0  0  0  0  0  0  0  0  0  0
   -1.9767    4.4637   -0.8590 C   0  0  0  0  0  0  0  0  0  0  0  0
   -2.2086    5.5191   -1.0672 H   0  0  0  0  0  0  0  0  0  0  0  0
   -2.8845    3.6554   -0.1680 C   0  0  0  0  0  0  0  0  0  0  0  0
   -3.8474    4.0556    0.1828 H   0  0  0  0  0  0  0  0  0  0  0  0
   -2.5560    2.3167    0.0721 C   0  0  0  0  0  0  0  0  0  0  0  0
   -3.2763    1.6829    0.6087 H   0  0  0  0  0  0  0  0  0  0  0  0
   -1.3319    1.7522   -0.3584 C   0  0  0  0  0  0  0  0  0  0  0  0
    3.9148   -0.8594    0.6272 C   0  0  0  0  0  0  0  0  0  0  0  0
    4.7339   -0.2297   -0.5015 C   0  0  0  0  0  0  0  0  0  0  0  0
    5.0988    0.7903   -0.2506 H   0  0  0  0  0  0  0  0  0  0  0  0
    4.1349   -0.1859   -1.4321 H   0  0  0  0  0  0  0  0  0  0  0  0
    5.6251   -0.8513   -0.7190 H   0  0  0  0  0  0  0  0  0  0  0  0
    4.7409   -1.1111    1.8929 C   0  0  0  0  0  0  0  0  0  0  0  0
    5.1662   -0.1728    2.3117 H   0  0  0  0  0  0  0  0  0  0  0  0
    5.5944   -1.7823    1.6717 H   0  0  0  0  0  0  0  0  0  0  0  0
    4.1337   -1.5906    2.6887 H   0  0  0  0  0  0  0  0  0  0  0  0
    1.8662    3.2126   -2.1337 C   0  0  0  0  0  0  0  0  0  0  0  0
    2.0642    3.9755   -1.3591 H   0  0  0  0  0  0  0  0  0  0  0  0
    1.4185    3.6974   -3.0213 H   0  0  0  0  0  0  0  0  0  0  0  0
    2.8375    2.7827   -2.4470 H   0  0  0  0  0  0  0  0  0  0  0  0
    0.6972    1.1221   -2.8139 C   0  0  0  0  0  0  0  0  0  0  0  0
    1.6401    0.6609   -3.1663 H   0  0  0  0  0  0  0  0  0  0  0  0
    0.2499    1.7117   -3.6380 H   0  0  0  0  0  0  0  0  0  0  0  0
    0.0049    0.2939   -2.5642 H   0  0  0  0  0  0  0  0  0  0  0  0
   -0.6856    0.0503    1.9209 C   0  0  0  0  0  0  0  0  0  0  0  0
   -0.4334   -1.1774    2.5760 C   0  0  0  0  0  0  0  0  0  0  0  0
   -0.5428   -2.1215    2.0173 H   0  0  0  0  0  0  0  0  0  0  0  0
   -0.0262   -1.1865    3.9167 C   0  0  0  0  0  0  0  0  0  0  0  0
    0.1643   -2.1458    4.4211 H   0  0  0  0  0  0  0  0  0  0  0  0
    0.1546    0.0248    4.6083 C   0  0  0  0  0  0  0  0  0  0  0  0
    0.4865    0.0159    5.6576 H   0  0  0  0  0  0  0  0  0  0  0  0
   -0.0867    1.2444    3.9577 C   0  0  0  0  0  0  0  0  0  0  0  0
    0.0532    2.1945    4.4957 H   0  0  0  0  0  0  0  0  0  0  0  0
   -0.5119    1.2609    2.6179 C   0  0  0  0  0  0  0  0  0  0  0  0
   -0.7010    2.2193    2.1122 H   0  0  0  0  0  0  0  0  0  0  0  0
   -2.8513   -0.6585    0.0982 C   0  0  0  0  0  0  0  0  0  0  0  0
   -3.5923   -0.9099    1.2678 C   0  0  0  0  0  0  0  0  0  0  0  0
   -3.1385   -0.7478    2.2565 H   0  0  0  0  0  0  0  0  0  0  0  0
   -4.9173   -1.3665    1.1719 C   0  0  0  0  0  0  0  0  0  0  0  0
   -5.4923   -1.5637    2.0893 H   0  0  0  0  0  0  0  0  0  0  0  0
   -5.5036   -1.5677   -0.0861 C   0  0  0  0  0  0  0  0  0  0  0  0
   -6.5416   -1.9261   -0.1589 H   0  0  0  0  0  0  0  0  0  0  0  0
   -4.7621   -1.3199   -1.2539 C   0  0  0  0  0  0  0  0  0  0  0  0
   -5.2139   -1.4910   -2.2424 H   0  0  0  0  0  0  0  0  0  0  0  0
   -3.4368   -0.8774   -1.1665 C   0  0  0  0  0  0  0  0  0  0  0  0
   -2.8476   -0.7121   -2.0800 H   0  0  0  0  0  0  0  0  0  0  0  0
    2.0878   -0.5818    1.7585 H   0  0  0  0  0  0  0  0  0  0  0  0
    3.5324   -1.8289    0.2416 H   0  0  0  0  0  0  0  0  0  0  0  0
  1 37  1  0  0  0  0
  2  5  1  0  0  0  0
  3  4  1  0  0  0  0
  4  5  1  0  0  0  0
  4 59  1  1  0  0  0
  5  7  1  0  0  0  0
  5  6  1  0  0  0  0
  8  9  1  1  0  0  0
  8  3  1  0  0  0  0
  8  2  1  0  0  0  0
  9 10  1  0  0  0  0
 10 19  1  0  0  0  0
 11 10  2  0  0  0  0
 11 13  1  0  0  0  0
 12 11  1  0  0  0  0
 13 15  2  0  0  0  0
 14 13  1  0  0  0  0
 15 17  1  0  0  0  0
 15 16  1  0  0  0  0
 17 18  1  0  0  0  0
 19 17  2  0  0  0  0
 19  1  1  0  0  0  0
 20  4  1  0  0  0  0
 20 25  1  0  0  0  0
 21 22  1  0  0  0  0
 21 20  1  0  0  0  0
 23 21  1  0  0  0  0
 24 21  1  0  0  0  0
 25 26  1  0  0  0  0
 25 28  1  0  0  0  0
 27 25  1  0  0  0  0
 29  9  1  0  0  0  0
 29 30  1  0  0  0  0
 31 29  1  0  0  0  0
 32 29  1  0  0  0  0
 33 36  1  0  0  0  0
 33  9  1  0  0  0  0
 34 33  1  0  0  0  0
 35 33  1  0  0  0  0
 37 38  2  0  0  0  0
 37 46  1  0  0  0  0
 38 40  1  0  0  0  0
 39 38  1  0  0  0  0
 40 41  1  0  0  0  0
 40 42  2  0  0  0  0
 42 43  1  0  0  0  0
 44 45  1  0  0  0  0
 44 42  1  0  0  0  0
 46 44  2  0  0  0  0
 47 46  1  0  0  0  0
 48  1  1  0  0  0  0
 48 49  1  0  0  0  0
 49 50  1  0  0  0  0
 51 49  2  0  0  0  0
 51 52  1  0  0  0  0
 53 51  1  0  0  0  0
 54 53  1  0  0  0  0
 55 57  1  0  0  0  0
 55 53  2  0  0  0  0
 56 55  1  0  0  0  0
 57 48  2  0  0  0  0
 58 57  1  0  0  0  0
 60 20  1  0  0  0  0
M  END
