1,3
 OpenBabel05122313063D

 76 82  0  0  1  0  0  0  0  0999 V2000
   -0.4000   -1.2509    0.6064 P   0  0  0  0  0  0  0  0  0  0  0  0
   -0.2330    2.8564   -2.2660 O   0  0  0  0  0  0  0  0  0  0  0  0
   -1.3788    1.2003   -1.2748 N   0  0  0  0  0  2  0  0  0  0  0  0
    1.1988    1.1112    0.7773 C   0  0  0  0  0  0  0  0  0  0  0  0
    0.2953    0.2594    1.4386 C   0  0  0  0  0  0  0  0  0  0  0  0
   -0.1968    0.6216    2.7288 C   0  0  0  0  0  0  0  0  0  0  0  0
   -0.9019   -0.0484    3.2401 H   0  0  0  0  0  0  0  0  0  0  0  0
    0.2055    1.7933    3.3454 C   0  0  0  0  0  0  0  0  0  0  0  0
   -0.1760    2.0490    4.3460 H   0  0  0  0  0  0  0  0  0  0  0  0
    1.4921    3.9262    3.2925 C   0  0  0  0  0  0  0  0  0  0  0  0
    1.1058    4.1751    4.2931 H   0  0  0  0  0  0  0  0  0  0  0  0
    2.3358    4.7995    2.6240 C   0  0  0  0  0  0  0  0  0  0  0  0
    2.6301    5.7509    3.0923 H   0  0  0  0  0  0  0  0  0  0  0  0
    2.8180    4.4716    1.3281 C   0  0  0  0  0  0  0  0  0  0  0  0
    3.4794    5.1737    0.7986 H   0  0  0  0  0  0  0  0  0  0  0  0
    2.4593    3.2760    0.7247 C   0  0  0  0  0  0  0  0  0  0  0  0
    2.8283    3.0314   -0.2814 H   0  0  0  0  0  0  0  0  0  0  0  0
    1.5955    2.3516    1.3872 C   0  0  0  0  0  0  0  0  0  0  0  0
    1.0972    2.6926    2.6973 C   0  0  0  0  0  0  0  0  0  0  0  0
    1.7845    0.7373   -0.5477 C   0  0  0  0  0  0  0  0  0  0  0  0
    1.0529    0.9037   -1.7282 C   0  0  0  0  0  0  0  0  0  0  0  0
    1.5707    0.4698   -2.9826 C   0  0  0  0  0  0  0  0  0  0  0  0
    0.9543    0.5930   -3.8845 H   0  0  0  0  0  0  0  0  0  0  0  0
    2.8190   -0.1192   -3.0515 C   0  0  0  0  0  0  0  0  0  0  0  0
    3.2081   -0.4837   -4.0143 H   0  0  0  0  0  0  0  0  0  0  0  0
    4.9651   -0.7457   -1.9568 C   0  0  0  0  0  0  0  0  0  0  0  0
    5.3418   -1.1025   -2.9278 H   0  0  0  0  0  0  0  0  0  0  0  0
    5.7728   -0.7822   -0.8303 C   0  0  0  0  0  0  0  0  0  0  0  0
    6.7996   -1.1718   -0.8995 H   0  0  0  0  0  0  0  0  0  0  0  0
    5.2776   -0.3125    0.4139 C   0  0  0  0  0  0  0  0  0  0  0  0
    5.9250   -0.3361    1.3035 H   0  0  0  0  0  0  0  0  0  0  0  0
    3.9798    0.1648    0.5191 C   0  0  0  0  0  0  0  0  0  0  0  0
    3.5976    0.5142    1.4883 H   0  0  0  0  0  0  0  0  0  0  0  0
    3.1257    0.2236   -0.6216 C   0  0  0  0  0  0  0  0  0  0  0  0
    3.6394   -0.2267   -1.8910 C   0  0  0  0  0  0  0  0  0  0  0  0
    1.0697   -2.2385    0.1260 C   0  0  0  0  0  0  0  0  0  0  0  0
    2.1673   -2.3821    1.0002 C   0  0  0  0  0  0  0  0  0  0  0  0
    2.1706   -1.8681    1.9733 H   0  0  0  0  0  0  0  0  0  0  0  0
    3.2801   -3.1411    0.6128 C   0  0  0  0  0  0  0  0  0  0  0  0
    4.1369   -3.2399    1.2957 H   0  0  0  0  0  0  0  0  0  0  0  0
    3.3138   -3.7434   -0.6545 C   0  0  0  0  0  0  0  0  0  0  0  0
    4.1948   -4.3270   -0.9617 H   0  0  0  0  0  0  0  0  0  0  0  0
    2.2277   -3.5917   -1.5305 C   0  0  0  0  0  0  0  0  0  0  0  0
    2.2509   -4.0576   -2.5272 H   0  0  0  0  0  0  0  0  0  0  0  0
    1.1043   -2.8468   -1.1451 C   0  0  0  0  0  0  0  0  0  0  0  0
    0.2402   -2.7406   -1.8174 H   0  0  0  0  0  0  0  0  0  0  0  0
   -1.2356   -2.1433    1.9848 C   0  0  0  0  0  0  0  0  0  0  0  0
   -2.6225   -1.9449    2.1493 C   0  0  0  0  0  0  0  0  0  0  0  0
   -3.1743   -1.3414    1.4131 H   0  0  0  0  0  0  0  0  0  0  0  0
   -3.2978   -2.5436    3.2214 C   0  0  0  0  0  0  0  0  0  0  0  0
   -4.3806   -2.3855    3.3371 H   0  0  0  0  0  0  0  0  0  0  0  0
   -2.6011   -3.3599    4.1270 C   0  0  0  0  0  0  0  0  0  0  0  0
   -3.1345   -3.8384    4.9624 H   0  0  0  0  0  0  0  0  0  0  0  0
   -1.2262   -3.5792    3.9525 C   0  0  0  0  0  0  0  0  0  0  0  0
   -0.6778   -4.2341    4.6466 H   0  0  0  0  0  0  0  0  0  0  0  0
   -0.5430   -2.9733    2.8866 C   0  0  0  0  0  0  0  0  0  0  0  0
    0.5299   -3.1678    2.7512 H   0  0  0  0  0  0  0  0  0  0  0  0
   -0.2380    1.6296   -1.7167 C   0  0  1  0  0  3  0  0  0  0  0  0
   -2.3942    2.2666   -1.4529 C   0  0  2  0  0  0  0  0  0  0  0  0
   -3.2281    1.8010   -2.0183 H   0  0  0  0  0  0  0  0  0  0  0  0
   -1.6299    3.2794   -2.3342 C   0  0  0  0  0  0  0  0  0  0  0  0
   -1.9336    3.2344   -3.3993 H   0  0  0  0  0  0  0  0  0  0  0  0
   -1.6794    4.3252   -1.9788 H   0  0  0  0  0  0  0  0  0  0  0  0
   -2.9477    2.8224   -0.1085 C   0  0  0  0  0  0  0  0  0  0  0  0
   -1.8480    3.5209    0.7059 C   0  0  0  0  0  0  0  0  0  0  0  0
   -2.2485    3.8677    1.6798 H   0  0  0  0  0  0  0  0  0  0  0  0
   -1.4322    4.4098    0.1886 H   0  0  0  0  0  0  0  0  0  0  0  0
   -1.0132    2.8283    0.9197 H   0  0  0  0  0  0  0  0  0  0  0  0
   -3.5326    1.6611    0.7144 C   0  0  0  0  0  0  0  0  0  0  0  0
   -4.0491    2.0504    1.6155 H   0  0  0  0  0  0  0  0  0  0  0  0
   -2.7325    0.9739    1.0514 H   0  0  0  0  0  0  0  0  0  0  0  0
   -4.2579    1.0676    0.1214 H   0  0  0  0  0  0  0  0  0  0  0  0
   -4.0736    3.8158   -0.4506 C   0  0  0  0  0  0  0  0  0  0  0  0
   -4.5128    4.2332    0.4780 H   0  0  0  0  0  0  0  0  0  0  0  0
   -4.8862    3.3199   -1.0198 H   0  0  0  0  0  0  0  0  0  0  0  0
   -3.7071    4.6725   -1.0538 H   0  0  0  0  0  0  0  0  0  0  0  0
  1  5  1  0  0  0  0
  1 47  1  0  0  0  0
  2 58  1  0  0  0  0
  4 18  2  0  0  0  0
  4  5  1  0  0  0  0
  5  6  2  0  0  0  0
  6  7  1  0  0  0  0
  6  8  1  0  0  0  0
  8  9  1  0  0  0  0
 10 11  1  0  0  0  0
 12 13  1  0  0  0  0
 12 10  2  0  0  0  0
 14 12  1  0  0  0  0
 15 14  1  0  0  0  0
 16 14  2  0  0  0  0
 16 18  1  0  0  0  0
 17 16  1  0  0  0  0
 18 19  1  0  0  0  0
 19 10  1  0  0  0  0
 19  8  2  0  0  0  0
 20  4  1  0  0  0  0
 21 20  2  0  0  0  0
 22 21  1  0  0  0  0
 23 22  1  0  0  0  0
 24 22  2  0  0  0  0
 24 35  1  0  0  0  0
 25 24  1  0  0  0  0
 26 35  2  0  0  0  0
 26 28  1  0  0  0  0
 27 26  1  0  0  0  0
 28 30  2  0  0  0  0
 29 28  1  0  0  0  0
 30 32  1  0  0  0  0
 30 31  1  0  0  0  0
 32 33  1  0  0  0  0
 34 20  1  0  0  0  0
 34 32  2  0  0  0  0
 35 34  1  0  0  0  0
 36  1  1  0  0  0  0
 36 37  1  0  0  0  0
 37 38  1  0  0  0  0
 39 37  2  0  0  0  0
 39 40  1  0  0  0  0
 41 39  1  0  0  0  0
 42 41  1  0  0  0  0
 43 45  1  0  0  0  0
 43 41  2  0  0  0  0
 44 43  1  0  0  0  0
 45 36  2  0  0  0  0
 46 45  1  0  0  0  0
 47 48  2  0  0  0  0
 47 56  1  0  0  0  0
 48 50  1  0  0  0  0
 49 48  1  0  0  0  0
 50 51  1  0  0  0  0
 50 52  2  0  0  0  0
 52 53  1  0  0  0  0
 54 52  1  0  0  0  0
 54 55  1  0  0  0  0
 56 54  2  0  0  0  0
 57 56  1  0  0  0  0
 58 21  1  6  0  0  0
 58  3  1  0  0  0  0
 59 60  1  6  0  0  0
 59  3  1  0  0  0  0
 59 64  1  0  0  0  0
 61  2  1  0  0  0  0
 61 63  1  0  0  0  0
 61 59  1  0  0  0  0
 62 61  1  0  0  0  0
 64 65  1  0  0  0  0
 64 69  1  0  0  0  0
 65 68  1  0  0  0  0
 65 66  1  0  0  0  0
 67 65  1  0  0  0  0
 69 71  1  0  0  0  0
 69 70  1  0  0  0  0
 72 69  1  0  0  0  0
 73 64  1  0  0  0  0
 73 74  1  0  0  0  0
 75 73  1  0  0  0  0
 76 73  1  0  0  0  0
M  END
