1,2
 OpenBabel05122313063D

 46 49  0  0  0  0  0  0  0  0999 V2000
    1.0651    0.2005   -0.0361 P   0  0  0  0  0  0  0  0  0  0  0  0
   -1.2221   -1.6826   -0.4417 N   0  0  0  0  0  2  0  0  0  0  0  0
   -0.3461    1.2041   -0.1407 N   0  0  0  0  0  0  0  0  0  0  0  0
   -1.5302   -2.9691   -0.1705 C   0  0  0  0  0  3  0  0  0  0  0  0
   -1.0013   -3.7195   -0.7769 H   0  0  0  0  0  0  0  0  0  0  0  0
   -2.4473   -3.3451    0.8186 C   0  0  0  0  0  0  0  0  0  0  0  0
   -2.6404   -4.4113    1.0047 H   0  0  0  0  0  0  0  0  0  0  0  0
   -3.0933   -2.3425    1.5539 C   0  0  0  0  0  0  0  0  0  0  0  0
   -3.8073   -2.5949    2.3520 H   0  0  0  0  0  0  0  0  0  0  0  0
   -2.8189   -1.0063    1.2409 C   0  0  0  0  0  0  0  0  0  0  0  0
   -3.3157   -0.1839    1.7745 H   0  0  0  0  0  0  0  0  0  0  0  0
   -1.8792   -0.7040    0.2358 C   0  0  0  0  0  0  0  0  0  0  0  0
   -1.5511    0.7374   -0.0585 C   0  0  0  0  0  0  0  0  0  0  0  0
   -2.6898    1.6805   -0.2346 C   0  0  0  0  0  0  0  0  0  0  0  0
   -3.9619    1.2402   -0.6660 C   0  0  0  0  0  0  0  0  0  0  0  0
   -4.1319    0.1725   -0.8691 H   0  0  0  0  0  0  0  0  0  0  0  0
   -5.0007    2.1593   -0.8702 C   0  0  0  0  0  0  0  0  0  0  0  0
   -5.9820    1.8045   -1.2199 H   0  0  0  0  0  0  0  0  0  0  0  0
   -4.7883    3.5269   -0.6371 C   0  0  0  0  0  0  0  0  0  0  0  0
   -5.6069    4.2464   -0.7910 H   0  0  0  0  0  0  0  0  0  0  0  0
   -3.5261    3.9748   -0.2081 C   0  0  0  0  0  0  0  0  0  0  0  0
   -3.3563    5.0463   -0.0223 H   0  0  0  0  0  0  0  0  0  0  0  0
   -2.4853    3.0616   -0.0129 C   0  0  0  0  0  0  0  0  0  0  0  0
   -1.4900    3.3909    0.3191 H   0  0  0  0  0  0  0  0  0  0  0  0
    2.3883    1.4635   -0.0672 C   0  0  0  0  0  0  0  0  0  0  0  0
    2.1585    2.7687   -0.5431 C   0  0  0  0  0  0  0  0  0  0  0  0
    1.1382    3.0567   -0.8361 H   0  0  0  0  0  0  0  0  0  0  0  0
    3.2238    3.6783   -0.6322 C   0  0  0  0  0  0  0  0  0  0  0  0
    3.0387    4.6995   -0.9997 H   0  0  0  0  0  0  0  0  0  0  0  0
    4.5199    3.2913   -0.2565 C   0  0  0  0  0  0  0  0  0  0  0  0
    5.3531    4.0067   -0.3300 H   0  0  0  0  0  0  0  0  0  0  0  0
    4.7524    1.9864    0.2097 C   0  0  0  0  0  0  0  0  0  0  0  0
    5.7673    1.6770    0.5026 H   0  0  0  0  0  0  0  0  0  0  0  0
    3.6930    1.0731    0.3011 C   0  0  0  0  0  0  0  0  0  0  0  0
    3.8775    0.0508    0.6685 H   0  0  0  0  0  0  0  0  0  0  0  0
    1.0572   -0.3366    1.7322 C   0  0  0  0  0  0  0  0  0  0  0  0
    0.9917    0.6074    2.7786 C   0  0  0  0  0  0  0  0  0  0  0  0
    1.0014    1.6832    2.5439 H   0  0  0  0  0  0  0  0  0  0  0  0
    0.9176    0.1741    4.1095 C   0  0  0  0  0  0  0  0  0  0  0  0
    0.8658    0.9126    4.9244 H   0  0  0  0  0  0  0  0  0  0  0  0
    0.9142   -1.2008    4.4047 C   0  0  0  0  0  0  0  0  0  0  0  0
    0.8582   -1.5375    5.4513 H   0  0  0  0  0  0  0  0  0  0  0  0
    0.9895   -2.1425    3.3669 C   0  0  0  0  0  0  0  0  0  0  0  0
    0.9952   -3.2192    3.5963 H   0  0  0  0  0  0  0  0  0  0  0  0
    1.0605   -1.7124    2.0322 C   0  0  0  0  0  0  0  0  0  0  0  0
    1.1211   -2.4373    1.2042 H   0  0  0  0  0  0  0  0  0  0  0  0
  1 36  1  0  0  0  0
  2  4  1  0  0  0  0
  2 12  1  0  0  0  0
  3 13  2  0  0  0  0
  3  1  1  0  0  0  0
  4  6  1  0  0  0  0
  5  4  1  0  0  0  0
  6  7  1  0  0  0  0
  6  8  2  0  0  0  0
  8  9  1  0  0  0  0
 10  8  1  0  0  0  0
 10 11  1  0  0  0  0
 12 10  2  0  0  0  0
 13 12  1  0  0  0  0
 14 13  1  0  0  0  0
 14 23  1  0  0  0  0
 15 14  2  0  0  0  0
 16 15  1  0  0  0  0
 17 15  1  0  0  0  0
 17 19  2  0  0  0  0
 18 17  1  0  0  0  0
 19 21  1  0  0  0  0
 20 19  1  0  0  0  0
 21 22  1  0  0  0  0
 21 23  2  0  0  0  0
 23 24  1  0  0  0  0
 25  1  1  0  0  0  0
 25 34  1  0  0  0  0
 26 25  2  0  0  0  0
 27 26  1  0  0  0  0
 28 26  1  0  0  0  0
 28 30  2  0  0  0  0
 29 28  1  0  0  0  0
 30 32  1  0  0  0  0
 31 30  1  0  0  0  0
 32 34  2  0  0  0  0
 32 33  1  0  0  0  0
 34 35  1  0  0  0  0
 36 45  2  0  0  0  0
 36 37  1  0  0  0  0
 37 39  2  0  0  0  0
 38 37  1  0  0  0  0
 39 41  1  0  0  0  0
 39 40  1  0  0  0  0
 41 42  1  0  0  0  0
 43 44  1  0  0  0  0
 43 41  2  0  0  0  0
 45 43  1  0  0  0  0
 46 45  1  0  0  0  0
M  END
