1,3
 OpenBabel05122313063D

 52 55  0  0  1  0  0  0  0  0999 V2000
   -1.4409    0.0307   -0.5441 N   0  0  0  0  0  0  0  0  0  0  0  0
   -1.7868    0.3952   -1.4457 H   0  0  0  0  0  0  0  0  0  0  0  0
    1.4081    0.3434    0.1862 P   0  0  0  0  0  0  0  0  0  0  0  0
   -1.2062    1.1959    0.4075 C   0  0  1  0  0  0  0  0  0  0  0  0
   -1.2706    0.7529    1.4200 H   0  0  0  0  0  0  0  0  0  0  0  0
    0.2047    1.7614    0.2360 C   0  0  0  0  0  0  0  0  0  0  0  0
    0.4314    2.5071    1.0248 H   0  0  0  0  0  0  0  0  0  0  0  0
    0.3315    2.2700   -0.7418 H   0  0  0  0  0  0  0  0  0  0  0  0
   -2.4216   -0.9084   -0.0353 C   0  0  0  0  0  0  0  0  0  0  0  0
   -3.6484   -1.0726   -0.6947 C   0  0  0  0  0  0  0  0  0  0  0  0
   -3.8545   -0.5029   -1.6122 H   0  0  0  0  0  0  0  0  0  0  0  0
   -4.5918   -1.9790   -0.1893 C   0  0  0  0  0  0  0  0  0  0  0  0
   -5.5493   -2.1121   -0.7144 H   0  0  0  0  0  0  0  0  0  0  0  0
   -4.3153   -2.7141    0.9727 C   0  0  0  0  0  0  0  0  0  0  0  0
   -5.0561   -3.4265    1.3650 H   0  0  0  0  0  0  0  0  0  0  0  0
   -3.0819   -2.5486    1.6252 C   0  0  0  0  0  0  0  0  0  0  0  0
   -2.8477   -3.1368    2.5250 H   0  0  0  0  0  0  0  0  0  0  0  0
   -2.1306   -1.6520    1.1224 C   0  0  0  0  0  0  0  0  0  0  0  0
   -1.1469   -1.5524    1.6063 H   0  0  0  0  0  0  0  0  0  0  0  0
   -2.3277    2.2055    0.2596 C   0  0  0  0  0  0  0  0  0  0  0  0
   -2.3687    3.0936   -0.8349 C   0  0  0  0  0  0  0  0  0  0  0  0
   -1.5491    3.1049   -1.5712 H   0  0  0  0  0  0  0  0  0  0  0  0
   -3.4510    3.9694   -1.0007 C   0  0  0  0  0  0  0  0  0  0  0  0
   -3.4695    4.6584   -1.8585 H   0  0  0  0  0  0  0  0  0  0  0  0
   -4.5065    3.9685   -0.0743 C   0  0  0  0  0  0  0  0  0  0  0  0
   -5.3548    4.6573   -0.2042 H   0  0  0  0  0  0  0  0  0  0  0  0
   -4.4766    3.0847    1.0152 C   0  0  0  0  0  0  0  0  0  0  0  0
   -5.3032    3.0746    1.7415 H   0  0  0  0  0  0  0  0  0  0  0  0
   -3.3951    2.2063    1.1783 C   0  0  0  0  0  0  0  0  0  0  0  0
   -3.3783    1.5015    2.0242 H   0  0  0  0  0  0  0  0  0  0  0  0
    3.0145    1.0983   -0.2425 C   0  0  0  0  0  0  0  0  0  0  0  0
    3.8137    1.7113    0.7438 C   0  0  0  0  0  0  0  0  0  0  0  0
    3.5060    1.6854    1.8007 H   0  0  0  0  0  0  0  0  0  0  0  0
    5.0108    2.3425    0.3760 C   0  0  0  0  0  0  0  0  0  0  0  0
    5.6365    2.8186    1.1461 H   0  0  0  0  0  0  0  0  0  0  0  0
    5.4128    2.3584   -0.9697 C   0  0  0  0  0  0  0  0  0  0  0  0
    6.3559    2.8491   -1.2547 H   0  0  0  0  0  0  0  0  0  0  0  0
    4.6216    1.7366   -1.9491 C   0  0  0  0  0  0  0  0  0  0  0  0
    4.9455    1.7322   -3.0007 H   0  0  0  0  0  0  0  0  0  0  0  0
    3.4240    1.1004   -1.5913 C   0  0  0  0  0  0  0  0  0  0  0  0
    2.8179    0.5706   -2.3417 H   0  0  0  0  0  0  0  0  0  0  0  0
    1.5645   -0.2945    1.8933 C   0  0  0  0  0  0  0  0  0  0  0  0
    2.0318   -1.6217    2.0252 C   0  0  0  0  0  0  0  0  0  0  0  0
    2.2867   -2.1938    1.1166 H   0  0  0  0  0  0  0  0  0  0  0  0
    2.1491   -2.1941    3.2990 C   0  0  0  0  0  0  0  0  0  0  0  0
    2.5144   -3.2273    3.3985 H   0  0  0  0  0  0  0  0  0  0  0  0
    1.7898   -1.4592    4.4421 C   0  0  0  0  0  0  0  0  0  0  0  0
    1.8737   -1.9164    5.4397 H   0  0  0  0  0  0  0  0  0  0  0  0
    1.3175   -0.1439    4.3125 C   0  0  0  0  0  0  0  0  0  0  0  0
    1.0328    0.4322    5.2060 H   0  0  0  0  0  0  0  0  0  0  0  0
    1.2068    0.4421    3.0411 C   0  0  0  0  0  0  0  0  0  0  0  0
    0.8390    1.4759    2.9523 H   0  0  0  0  0  0  0  0  0  0  0  0
  1  9  1  0  0  0  0
  1  4  1  0  0  0  0
  2  1  1  0  0  0  0
  3  6  1  0  0  0  0
  3 42  1  0  0  0  0
  4  5  1  1  0  0  0
  6  4  1  0  0  0  0
  6  7  1  0  0  0  0
  8  6  1  0  0  0  0
  9 18  1  0  0  0  0
 10 12  1  0  0  0  0
 10  9  2  0  0  0  0
 11 10  1  0  0  0  0
 12 14  2  0  0  0  0
 13 12  1  0  0  0  0
 14 15  1  0  0  0  0
 14 16  1  0  0  0  0
 16 17  1  0  0  0  0
 18 19  1  0  0  0  0
 18 16  2  0  0  0  0
 20  4  1  0  0  0  0
 20 29  1  0  0  0  0
 21 20  2  0  0  0  0
 22 21  1  0  0  0  0
 23 21  1  0  0  0  0
 23 25  2  0  0  0  0
 24 23  1  0  0  0  0
 25 27  1  0  0  0  0
 26 25  1  0  0  0  0
 27 29  2  0  0  0  0
 27 28  1  0  0  0  0
 29 30  1  0  0  0  0
 31  3  1  0  0  0  0
 31 32  1  0  0  0  0
 32 33  1  0  0  0  0
 34 32  2  0  0  0  0
 34 35  1  0  0  0  0
 36 34  1  0  0  0  0
 37 36  1  0  0  0  0
 38 40  1  0  0  0  0
 38 36  2  0  0  0  0
 39 38  1  0  0  0  0
 40 31  2  0  0  0  0
 41 40  1  0  0  0  0
 42 43  2  0  0  0  0
 42 51  1  0  0  0  0
 43 45  1  0  0  0  0
 44 43  1  0  0  0  0
 45 46  1  0  0  0  0
 45 47  2  0  0  0  0
 47 48  1  0  0  0  0
 49 47  1  0  0  0  0
 49 50  1  0  0  0  0
 51 49  2  0  0  0  0
 52 51  1  0  0  0  0
M  END
