40,41
 OpenBabel05122313063D

 63 68  0  0  1  0  0  0  0  0999 V2000
    0.0886   -2.3625   -2.3933 C   0  0  0  0  0  0  0  0  0  0  0  0
    0.6043   -1.4402   -2.7300 H   0  0  0  0  0  0  0  0  0  0  0  0
    0.0733   -3.0556   -3.2600 H   0  0  0  0  0  0  0  0  0  0  0  0
    0.9449   -3.0463   -1.2425 C   0  0  0  0  0  0  0  0  0  0  0  0
    0.9518   -4.1427   -1.4046 H   0  0  0  0  0  0  0  0  0  0  0  0
    1.9919   -2.7050   -1.3516 H   0  0  0  0  0  0  0  0  0  0  0  0
    0.3809   -2.7891    0.1441 C   0  0  0  0  0  0  0  0  0  0  0  0
    0.2913   -1.4947    0.7292 C   0  0  0  0  0  0  0  0  0  0  0  0
   -0.7678   -1.2179    1.6229 C   0  0  0  0  0  0  0  0  0  0  0  0
   -0.9342   -0.1726    1.9326 H   0  0  0  0  0  0  0  0  0  0  0  0
   -1.7012   -2.1969    2.0005 C   0  0  0  0  0  0  0  0  0  0  0  0
   -1.3816   -3.5336    1.6883 C   0  0  0  0  0  0  0  0  0  0  0  0
   -2.0308   -4.3498    2.0437 H   0  0  0  0  0  0  0  0  0  0  0  0
   -0.3576   -3.8140    0.7739 C   0  0  0  0  0  0  0  0  0  0  0  0
   -0.2305   -4.8484    0.4152 H   0  0  0  0  0  0  0  0  0  0  0  0
   -3.0869   -1.7954    2.4547 C   0  0  0  0  0  0  0  0  0  0  0  0
   -3.0368   -1.0823    3.3034 H   0  0  0  0  0  0  0  0  0  0  0  0
   -3.6201   -2.6928    2.8270 H   0  0  0  0  0  0  0  0  0  0  0  0
   -3.9525   -1.1098    1.3014 C   0  0  0  0  0  0  0  0  0  0  0  0
   -4.9812   -1.5230    1.3578 H   0  0  0  0  0  0  0  0  0  0  0  0
   -4.0365   -0.0312    1.5267 H   0  0  0  0  0  0  0  0  0  0  0  0
   -3.3679   -1.3071   -0.0874 C   0  0  0  0  0  0  0  0  0  0  0  0
   -3.2234   -2.6247   -0.5650 C   0  0  0  0  0  0  0  0  0  0  0  0
   -3.8074   -3.4287   -0.0901 H   0  0  0  0  0  0  0  0  0  0  0  0
   -2.2112   -2.9708   -1.4692 C   0  0  0  0  0  0  0  0  0  0  0  0
   -2.0373   -4.0334   -1.7007 H   0  0  0  0  0  0  0  0  0  0  0  0
   -1.3079   -1.9978   -1.9352 C   0  0  0  0  0  0  0  0  0  0  0  0
   -1.6710   -0.6543   -1.7248 C   0  0  0  0  0  0  0  0  0  0  0  0
   -1.1334    0.1367   -2.2841 H   0  0  0  0  0  0  0  0  0  0  0  0
   -2.6844   -0.2830   -0.8085 C   0  0  0  0  0  0  0  0  0  0  0  0
   -2.9175    1.1603   -0.5844 C   0  0  2  0  0  3  0  0  0  0  0  0
   -4.2028    1.6831   -0.3170 C   0  0  0  0  0  0  0  0  0  0  0  0
   -5.0633    1.0007   -0.2818 H   0  0  0  0  0  0  0  0  0  0  0  0
   -4.3714    3.0607   -0.1437 C   0  0  0  0  0  0  0  0  0  0  0  0
   -5.3694    3.4747    0.0660 H   0  0  0  0  0  0  0  0  0  0  0  0
   -3.2574    3.9059   -0.2732 C   0  0  0  0  0  0  0  0  0  0  0  0
   -3.3455    4.9959   -0.1619 H   0  0  0  0  0  0  0  0  0  0  0  0
   -2.0200    3.3322   -0.5791 C   0  0  0  0  0  0  0  0  0  0  0  0
   -1.1106    3.9333   -0.7570 H   0  0  0  0  0  0  0  0  0  0  0  0
   -1.8504    1.9991   -0.7125 N   0  0  0  0  0  2  0  0  0  0  0  0
    1.1958   -0.0115    0.1464 P   0  0  0  0  0  0  0  0  0  0  0  0
    2.8575   -0.5392   -0.4364 C   0  0  0  0  0  0  0  0  0  0  0  0
    3.6295   -1.5090    0.2361 C   0  0  0  0  0  0  0  0  0  0  0  0
    3.2210   -2.0199    1.1220 H   0  0  0  0  0  0  0  0  0  0  0  0
    4.9090   -1.8310   -0.2357 C   0  0  0  0  0  0  0  0  0  0  0  0
    5.5090   -2.5937    0.2840 H   0  0  0  0  0  0  0  0  0  0  0  0
    5.4273   -1.1778   -1.3686 C   0  0  0  0  0  0  0  0  0  0  0  0
    6.4335   -1.4323   -1.7357 H   0  0  0  0  0  0  0  0  0  0  0  0
    4.6671   -0.1975   -2.0244 C   0  0  0  0  0  0  0  0  0  0  0  0
    5.0763    0.3246   -2.9027 H   0  0  0  0  0  0  0  0  0  0  0  0
    3.3806    0.1267   -1.5626 C   0  0  0  0  0  0  0  0  0  0  0  0
    2.7820    0.9184   -2.0483 H   0  0  0  0  0  0  0  0  0  0  0  0
    1.6339    0.9017    1.6908 C   0  0  0  0  0  0  0  0  0  0  0  0
    1.8744    2.2860    1.5533 C   0  0  0  0  0  0  0  0  0  0  0  0
    1.7531    2.7638    0.5638 H   0  0  0  0  0  0  0  0  0  0  0  0
    2.2748    3.0383    2.6677 C   0  0  0  0  0  0  0  0  0  0  0  0
    2.4633    4.1169    2.5545 H   0  0  0  0  0  0  0  0  0  0  0  0
    2.4295    2.4222    3.9199 C   0  0  0  0  0  0  0  0  0  0  0  0
    2.7378    3.0167    4.7937 H   0  0  0  0  0  0  0  0  0  0  0  0
    2.1905    1.0448    4.0567 C   0  0  0  0  0  0  0  0  0  0  0  0
    2.3133    0.5576    5.0363 H   0  0  0  0  0  0  0  0  0  0  0  0
    1.7988    0.2825    2.9459 C   0  0  0  0  0  0  0  0  0  0  0  0
    1.6104   -0.7960    3.0580 H   0  0  0  0  0  0  0  0  0  0  0  0
  1 27  1  0  0  0  0
  1  4  1  0  0  0  0
  2  1  1  0  0  0  0
  3  1  1  0  0  0  0
  4  7  1  0  0  0  0
  5  4  1  0  0  0  0
  6  4  1  0  0  0  0
  7  8  2  0  0  0  0
  7 14  1  0  0  0  0
  8  9  1  0  0  0  0
  9 10  1  0  0  0  0
  9 11  2  0  0  0  0
 11 16  1  0  0  0  0
 12 11  1  0  0  0  0
 12 13  1  0  0  0  0
 14 12  2  0  0  0  0
 15 14  1  0  0  0  0
 16 18  1  0  0  0  0
 16 17  1  0  0  0  0
 19 20  1  0  0  0  0
 19 21  1  0  0  0  0
 19 16  1  0  0  0  0
 22 19  1  0  0  0  0
 23 24  1  0  0  0  0
 23 22  1  0  0  0  0
 25 23  2  0  0  0  0
 26 25  1  0  0  0  0
 27 28  2  0  0  0  0
 27 25  1  0  0  0  0
 28 30  1  0  0  0  0
 29 28  1  0  0  0  0
 30 22  2  0  0  0  0
 31 30  1  6  0  0  0
 31 32  1  0  0  0  0
 32 33  1  0  0  0  0
 32 34  2  0  0  0  0
 34 35  1  0  0  0  0
 36 37  1  0  0  0  0
 36 34  1  0  0  0  0
 38 36  2  0  0  0  0
 39 38  1  0  0  0  0
 40 31  1  0  0  0  0
 40 38  1  0  0  0  0
 41  8  1  0  0  0  0
 41 53  1  0  0  0  0
 42 41  1  0  0  0  0
 42 43  1  0  0  0  0
 43 44  1  0  0  0  0
 45 43  2  0  0  0  0
 45 46  1  0  0  0  0
 47 45  1  0  0  0  0
 48 47  1  0  0  0  0
 49 51  1  0  0  0  0
 49 47  2  0  0  0  0
 50 49  1  0  0  0  0
 51 42  2  0  0  0  0
 52 51  1  0  0  0  0
 53 62  1  0  0  0  0
 54 53  2  0  0  0  0
 54 56  1  0  0  0  0
 55 54  1  0  0  0  0
 56 58  2  0  0  0  0
 57 56  1  0  0  0  0
 58 60  1  0  0  0  0
 58 59  1  0  0  0  0
 60 61  1  0  0  0  0
 62 63  1  0  0  0  0
 62 60  2  0  0  0  0
M  END
