1,5
 OpenBabel05122313063D

 46 48  0  0  0  0  0  0  0  0999 V2000
    0.0072    0.9989   -0.3800 P   0  0  0  0  0  0  0  0  0  0  0  0
    2.6318   -0.2743   -0.3617 N   0  0  0  0  0  0  0  0  0  0  0  0
    2.9524    0.6767   -1.2701 N   0  0  0  0  0  0  0  0  0  0  0  0
    0.6731   -1.6531   -0.4774 N   0  0  0  0  0  0  0  0  0  0  0  0
   -0.6846   -1.7541   -0.5008 N   0  0  0  0  0  2  0  0  0  0  0  0
    1.2724   -0.4415    0.0903 C   0  0  0  0  0  0  0  0  0  0  0  0
    1.2985   -0.5756    1.5576 N   0  0  0  0  0  0  0  0  0  0  0  0
    3.7330   -0.9864    0.0615 C   0  0  0  0  0  0  0  0  0  0  0  0
    3.6572   -1.7517    0.8398 H   0  0  0  0  0  0  0  0  0  0  0  0
    2.2055    0.1342    2.2748 N   0  0  0  0  0  0  0  0  0  0  0  0
    1.2550   -2.8023   -0.9366 C   0  0  0  0  0  3  0  0  0  0  0  0
    2.3424   -2.9037   -1.0021 H   0  0  0  0  0  0  0  0  0  0  0  0
    0.2207   -3.6703   -1.2751 C   0  0  0  0  0  0  0  0  0  0  0  0
    0.3209   -4.6773   -1.6918 H   0  0  0  0  0  0  0  0  0  0  0  0
    0.2832    0.1769   -3.0775 C   0  0  0  0  0  0  0  0  0  0  0  0
    1.2064   -0.4033   -2.8918 H   0  0  0  0  0  0  0  0  0  0  0  0
    0.2903    0.4810   -4.1446 H   0  0  0  0  0  0  0  0  0  0  0  0
   -0.5984   -0.4783   -2.9225 H   0  0  0  0  0  0  0  0  0  0  0  0
    0.2042    1.4299   -2.2003 C   0  0  0  0  0  0  0  0  0  0  0  0
    1.1487    1.9980   -2.2922 H   0  0  0  0  0  0  0  0  0  0  0  0
    0.7137    2.3994    0.6638 C   0  0  0  0  0  0  0  0  0  0  0  0
    1.7330    2.0357    0.9158 H   0  0  0  0  0  0  0  0  0  0  0  0
    0.3826   -1.2245    2.3539 C   0  0  0  0  0  0  0  0  0  0  0  0
   -0.4490   -1.8029    1.9398 H   0  0  0  0  0  0  0  0  0  0  0  0
    4.8170   -0.4788   -0.6366 C   0  0  0  0  0  0  0  0  0  0  0  0
    5.8615   -0.7961   -0.5549 H   0  0  0  0  0  0  0  0  0  0  0  0
    0.7438   -0.9383    3.6645 C   0  0  0  0  0  0  0  0  0  0  0  0
    0.2469   -1.2966    4.5716 H   0  0  0  0  0  0  0  0  0  0  0  0
   -0.9737   -2.9728   -0.9800 C   0  0  0  0  0  0  0  0  0  0  0  0
   -2.0330   -3.2496   -1.0631 H   0  0  0  0  0  0  0  0  0  0  0  0
    1.8791   -0.0926    3.5519 C   0  0  0  0  0  0  0  0  0  0  0  0
    2.4801    0.3630    4.3492 H   0  0  0  0  0  0  0  0  0  0  0  0
   -1.0068    2.2908   -2.5948 C   0  0  0  0  0  0  0  0  0  0  0  0
   -1.9438    1.7018   -2.5225 H   0  0  0  0  0  0  0  0  0  0  0  0
   -0.8854    2.6336   -3.6434 H   0  0  0  0  0  0  0  0  0  0  0  0
   -1.1276    3.1900   -1.9605 H   0  0  0  0  0  0  0  0  0  0  0  0
    0.8505    3.7375   -0.0684 C   0  0  0  0  0  0  0  0  0  0  0  0
    1.4660    3.6607   -0.9848 H   0  0  0  0  0  0  0  0  0  0  0  0
    1.3502    4.4627    0.6063 H   0  0  0  0  0  0  0  0  0  0  0  0
   -0.1344    4.1698   -0.3359 H   0  0  0  0  0  0  0  0  0  0  0  0
   -0.0846    2.5376    1.9662 C   0  0  0  0  0  0  0  0  0  0  0  0
   -1.0794    2.9885    1.7798 H   0  0  0  0  0  0  0  0  0  0  0  0
    0.4650    3.1963    2.6696 H   0  0  0  0  0  0  0  0  0  0  0  0
   -0.2519    1.5643    2.4658 H   0  0  0  0  0  0  0  0  0  0  0  0
    4.2699    0.5555   -1.4453 C   0  0  0  0  0  0  0  0  0  0  0  0
    4.7858    1.2252   -2.1450 H   0  0  0  0  0  0  0  0  0  0  0  0
  1  6  1  0  0  0  0
  1 21  1  0  0  0  0
  2  8  1  0  0  0  0
  2  6  1  0  0  0  0
  3  2  1  0  0  0  0
  4  6  1  0  0  0  0
  5  4  1  0  0  0  0
  6  7  1  0  0  0  0
  7 10  1  0  0  0  0
  7 23  1  0  0  0  0
  8  9  1  0  0  0  0
 10 31  2  0  0  0  0
 11  4  1  0  0  0  0
 12 11  1  0  0  0  0
 13 29  2  0  0  0  0
 13 11  1  0  0  0  0
 14 13  1  0  0  0  0
 15 18  1  0  0  0  0
 15 16  1  0  0  0  0
 15 19  1  0  0  0  0
 17 15  1  0  0  0  0
 19  1  1  0  0  0  0
 20 19  1  0  0  0  0
 21 22  1  0  0  0  0
 21 41  1  0  0  0  0
 23 27  2  0  0  0  0
 24 23  1  0  0  0  0
 25 26  1  0  0  0  0
 25  8  2  0  0  0  0
 27 28  1  0  0  0  0
 29  5  1  0  0  0  0
 30 29  1  0  0  0  0
 31 27  1  0  0  0  0
 31 32  1  0  0  0  0
 33 34  1  0  0  0  0
 33 19  1  0  0  0  0
 33 36  1  0  0  0  0
 35 33  1  0  0  0  0
 37 39  1  0  0  0  0
 37 21  1  0  0  0  0
 38 37  1  0  0  0  0
 40 37  1  0  0  0  0
 41 44  1  0  0  0  0
 41 43  1  0  0  0  0
 42 41  1  0  0  0  0
 45  3  2  0  0  0  0
 45 25  1  0  0  0  0
 46 45  1  0  0  0  0
M  END
