46,49
 OpenBabel05122313063D

 49 51  0  0  1  0  0  0  0  0999 V2000
    2.1570   -3.2026    0.5081 C   0  0  0  0  0  3  0  0  0  0  0  0
    1.3725   -3.5533    1.1975 H   0  0  0  0  0  0  0  0  0  0  0  0
    3.4435   -3.7462    0.5440 C   0  0  0  0  0  0  0  0  0  0  0  0
    3.6820   -4.5459    1.2588 H   0  0  0  0  0  0  0  0  0  0  0  0
    4.4049   -3.2419   -0.3441 C   0  0  0  0  0  0  0  0  0  0  0  0
    5.4312   -3.6380   -0.3446 H   0  0  0  0  0  0  0  0  0  0  0  0
    4.0356   -2.2255   -1.2327 C   0  0  0  0  0  0  0  0  0  0  0  0
    4.7608   -1.8097   -1.9468 H   0  0  0  0  0  0  0  0  0  0  0  0
    2.7203   -1.7283   -1.2203 C   0  0  0  0  0  0  0  0  0  0  0  0
    2.2583   -0.6446   -2.1535 C   0  0  0  0  0  0  0  0  0  0  0  0
    1.2805   -0.9362   -2.5909 H   0  0  0  0  0  0  0  0  0  0  0  0
    2.9776   -0.5431   -2.9900 H   0  0  0  0  0  0  0  0  0  0  0  0
    2.0496    0.7556   -1.5266 C   0  0  1  0  0  0  0  0  0  0  0  0
    3.0239    1.2490   -1.3624 H   0  0  0  0  0  0  0  0  0  0  0  0
    1.1275    1.5643   -2.4570 C   0  0  0  0  0  0  0  0  0  0  0  0
    2.5517    3.5770   -2.0514 C   0  0  0  0  0  0  0  0  0  0  0  0
    2.3924    3.7406   -0.9635 H   0  0  0  0  0  0  0  0  0  0  0  0
    2.6574    4.5674   -2.5303 H   0  0  0  0  0  0  0  0  0  0  0  0
    3.5093    3.0402   -2.2031 H   0  0  0  0  0  0  0  0  0  0  0  0
    0.4978    3.6892   -3.4483 C   0  0  0  0  0  0  0  0  0  0  0  0
   -0.2702    3.0211   -3.8749 H   0  0  0  0  0  0  0  0  0  0  0  0
    1.0306    4.2142   -4.2670 H   0  0  0  0  0  0  0  0  0  0  0  0
    0.0052    4.4444   -2.7986 H   0  0  0  0  0  0  0  0  0  0  0  0
    0.5057    2.3131    0.4732 C   0  0  0  0  0  0  0  0  0  0  0  0
    1.0520    3.1896    1.4339 C   0  0  0  0  0  0  0  0  0  0  0  0
    1.9340    2.8923    2.0195 H   0  0  0  0  0  0  0  0  0  0  0  0
    0.4617    4.4448    1.6518 C   0  0  0  0  0  0  0  0  0  0  0  0
    0.8894    5.1228    2.4053 H   0  0  0  0  0  0  0  0  0  0  0  0
   -0.6696    4.8300    0.9165 C   0  0  0  0  0  0  0  0  0  0  0  0
   -1.1312    5.8133    1.0921 H   0  0  0  0  0  0  0  0  0  0  0  0
   -1.2227    3.9524   -0.0316 C   0  0  0  0  0  0  0  0  0  0  0  0
   -2.1230    4.2410   -0.5944 H   0  0  0  0  0  0  0  0  0  0  0  0
   -0.6490    2.6930   -0.2473 C   0  0  0  0  0  0  0  0  0  0  0  0
   -1.1027    1.9973   -0.9679 H   0  0  0  0  0  0  0  0  0  0  0  0
    2.5993    0.4747    1.3626 C   0  0  0  0  0  0  0  0  0  0  0  0
    3.8274    1.1545    1.2186 C   0  0  0  0  0  0  0  0  0  0  0  0
    3.9974    1.8328    0.3684 H   0  0  0  0  0  0  0  0  0  0  0  0
    4.8432    0.9841    2.1705 C   0  0  0  0  0  0  0  0  0  0  0  0
    5.7984    1.5167    2.0509 H   0  0  0  0  0  0  0  0  0  0  0  0
    4.6402    0.1403    3.2750 C   0  0  0  0  0  0  0  0  0  0  0  0
    5.4393    0.0091    4.0199 H   0  0  0  0  0  0  0  0  0  0  0  0
    3.4173   -0.5309    3.4300 C   0  0  0  0  0  0  0  0  0  0  0  0
    3.2530   -1.1873    4.2976 H   0  0  0  0  0  0  0  0  0  0  0  0
    2.4011   -0.3671    2.4773 C   0  0  0  0  0  0  0  0  0  0  0  0
    1.4392   -0.8939    2.5875 H   0  0  0  0  0  0  0  0  0  0  0  0
    1.8016   -2.2215   -0.3498 N   0  0  0  0  0  2  0  0  0  0  0  0
    1.4310    2.8802   -2.6720 N   0  0  0  0  0  0  0  0  0  0  0  0
    0.1396    1.0084   -2.9542 O   0  0  0  0  0  0  0  0  0  0  0  0
    1.2119    0.6499    0.1763 P   0  0  0  0  0  0  0  0  0  0  0  0
  1  3  1  0  0  0  0
  1  2  1  0  0  0  0
  3  4  1  0  0  0  0
  5  3  2  0  0  0  0
  6  5  1  0  0  0  0
  7  9  2  0  0  0  0
  7  5  1  0  0  0  0
  8  7  1  0  0  0  0
  9 46  1  0  0  0  0
 10 13  1  0  0  0  0
 10  9  1  0  0  0  0
 11 10  1  0  0  0  0
 12 10  1  0  0  0  0
 13 14  1  1  0  0  0
 13 49  1  0  0  0  0
 15 13  1  0  0  0  0
 16 17  1  0  0  0  0
 18 16  1  0  0  0  0
 19 16  1  0  0  0  0
 20 23  1  0  0  0  0
 20 47  1  0  0  0  0
 21 20  1  0  0  0  0
 22 20  1  0  0  0  0
 24 25  1  0  0  0  0
 25 27  2  0  0  0  0
 25 26  1  0  0  0  0
 27 28  1  0  0  0  0
 29 30  1  0  0  0  0
 29 27  1  0  0  0  0
 31 29  2  0  0  0  0
 32 31  1  0  0  0  0
 33 31  1  0  0  0  0
 33 24  2  0  0  0  0
 34 33  1  0  0  0  0
 35 44  1  0  0  0  0
 36 35  2  0  0  0  0
 36 38  1  0  0  0  0
 37 36  1  0  0  0  0
 38 40  2  0  0  0  0
 39 38  1  0  0  0  0
 40 42  1  0  0  0  0
 40 41  1  0  0  0  0
 42 43  1  0  0  0  0
 44 45  1  0  0  0  0
 44 42  2  0  0  0  0
 46  1  1  0  0  0  0
 47 15  1  0  0  0  0
 47 16  1  0  0  0  0
 48 15  2  0  0  0  0
 49 24  1  0  0  0  0
 49 35  1  0  0  0  0
M  END
