1,2
 OpenBabel05122313063D

 57 59  0  0  0  0  0  0  0  0999 V2000
    0.6246    0.4281    0.1096 P   0  0  0  0  0  0  0  0  0  0  0  0
    0.0388   -2.4757   -0.3344 N   0  0  0  0  0  0  0  0  0  0  0  0
    1.9333   -0.8773   -0.0325 C   0  0  0  0  0  0  0  0  0  0  0  0
    1.4830   -2.1904   -0.2554 C   0  0  0  0  0  0  0  0  0  0  0  0
    2.4200   -3.2359   -0.3619 C   0  0  0  0  0  0  0  0  0  0  0  0
    2.0800   -4.2673   -0.5357 H   0  0  0  0  0  0  0  0  0  0  0  0
    3.7894   -2.9811   -0.2366 C   0  0  0  0  0  0  0  0  0  0  0  0
    4.5043   -3.8146   -0.3239 H   0  0  0  0  0  0  0  0  0  0  0  0
    4.2648   -1.6779    0.0186 C   0  0  0  0  0  0  0  0  0  0  0  0
    3.3159   -0.6459    0.1250 C   0  0  0  0  0  0  0  0  0  0  0  0
    3.6709    0.3697    0.3526 H   0  0  0  0  0  0  0  0  0  0  0  0
    5.7406   -1.4056    0.1636 C   0  0  0  0  0  0  0  0  0  0  0  0
    5.9325   -0.3732    0.5143 H   0  0  0  0  0  0  0  0  0  0  0  0
    6.2684   -1.5341   -0.8052 H   0  0  0  0  0  0  0  0  0  0  0  0
    6.2142   -2.1059    0.8817 H   0  0  0  0  0  0  0  0  0  0  0  0
    1.1226    1.7932   -1.0829 C   0  0  0  0  0  0  0  0  0  0  0  0
    0.3290    2.5485   -0.8895 H   0  0  0  0  0  0  0  0  0  0  0  0
    2.4752    2.5000   -0.9083 C   0  0  0  0  0  0  0  0  0  0  0  0
    3.2970    1.7795   -1.1064 H   0  0  0  0  0  0  0  0  0  0  0  0
    2.6073    2.8643    0.1322 H   0  0  0  0  0  0  0  0  0  0  0  0
    2.6043    3.6685   -1.8997 C   0  0  0  0  0  0  0  0  0  0  0  0
    1.8331    4.4352   -1.6602 H   0  0  0  0  0  0  0  0  0  0  0  0
    3.5891    4.1669   -1.7760 H   0  0  0  0  0  0  0  0  0  0  0  0
    2.4190    3.1966   -3.3478 C   0  0  0  0  0  0  0  0  0  0  0  0
    2.4845    4.0567   -4.0472 H   0  0  0  0  0  0  0  0  0  0  0  0
    3.2567    2.5130   -3.6142 H   0  0  0  0  0  0  0  0  0  0  0  0
    1.0897    2.4520   -3.5304 C   0  0  0  0  0  0  0  0  0  0  0  0
    0.9967    2.0715   -4.5694 H   0  0  0  0  0  0  0  0  0  0  0  0
    0.2480    3.1673   -3.3849 H   0  0  0  0  0  0  0  0  0  0  0  0
    0.9419    1.2995   -2.5286 C   0  0  0  0  0  0  0  0  0  0  0  0
    1.7084    0.5191   -2.7387 H   0  0  0  0  0  0  0  0  0  0  0  0
   -0.0451    0.7956   -2.6182 H   0  0  0  0  0  0  0  0  0  0  0  0
    1.0380    1.1150    1.8159 C   0  0  0  0  0  0  0  0  0  0  0  0
    2.1176    1.3903    1.8047 H   0  0  0  0  0  0  0  0  0  0  0  0
    0.2161    2.3643    2.1641 C   0  0  0  0  0  0  0  0  0  0  0  0
    0.4054    3.1773    1.4314 H   0  0  0  0  0  0  0  0  0  0  0  0
   -0.8615    2.1002    2.0842 H   0  0  0  0  0  0  0  0  0  0  0  0
    0.5074    2.8627    3.5869 C   0  0  0  0  0  0  0  0  0  0  0  0
    1.5660    3.2031    3.6456 H   0  0  0  0  0  0  0  0  0  0  0  0
   -0.1194    3.7513    3.8125 H   0  0  0  0  0  0  0  0  0  0  0  0
    0.2727    1.7581    4.6238 C   0  0  0  0  0  0  0  0  0  0  0  0
   -0.8082    1.4911    4.6312 H   0  0  0  0  0  0  0  0  0  0  0  0
    0.5125    2.1244    5.6441 H   0  0  0  0  0  0  0  0  0  0  0  0
    1.0954    0.5080    4.2905 C   0  0  0  0  0  0  0  0  0  0  0  0
    0.8858   -0.3020    5.0205 H   0  0  0  0  0  0  0  0  0  0  0  0
    2.1786    0.7467    4.3919 H   0  0  0  0  0  0  0  0  0  0  0  0
    0.8173    0.0112    2.8658 C   0  0  0  0  0  0  0  0  0  0  0  0
   -0.2370   -0.3368    2.7721 H   0  0  0  0  0  0  0  0  0  0  0  0
    1.4567   -0.8659    2.6337 H   0  0  0  0  0  0  0  0  0  0  0  0
   -0.2874   -3.1089   -1.6432 C   0  0  0  0  0  0  0  0  0  0  0  0
    0.0096   -2.4183   -2.4531 H   0  0  0  0  0  0  0  0  0  0  0  0
   -1.3819   -3.2645   -1.6803 H   0  0  0  0  0  0  0  0  0  0  0  0
    0.2401   -4.0816   -1.7619 H   0  0  0  0  0  0  0  0  0  0  0  0
   -0.3536   -3.3790    0.7845 C   0  0  0  0  0  0  0  0  0  0  0  0
    0.1651   -4.3608    0.7107 H   0  0  0  0  0  0  0  0  0  0  0  0
   -1.4498   -3.5210    0.7340 H   0  0  0  0  0  0  0  0  0  0  0  0
   -0.0935   -2.8918    1.7416 H   0  0  0  0  0  0  0  0  0  0  0  0
  1 33  1  0  0  0  0
  2  4  1  0  0  0  0
  2 54  1  0  0  0  0
  3  1  1  0  0  0  0
  3 10  1  0  0  0  0
  4  3  2  0  0  0  0
  5  4  1  0  0  0  0
  5  7  2  0  0  0  0
  6  5  1  0  0  0  0
  7  9  1  0  0  0  0
  8  7  1  0  0  0  0
  9 10  2  0  0  0  0
  9 12  1  0  0  0  0
 10 11  1  0  0  0  0
 12 13  1  0  0  0  0
 12 15  1  0  0  0  0
 14 12  1  0  0  0  0
 16 18  1  0  0  0  0
 16 17  1  0  0  0  0
 16  1  1  0  0  0  0
 18 20  1  0  0  0  0
 19 18  1  0  0  0  0
 21 23  1  0  0  0  0
 21 22  1  0  0  0  0
 21 18  1  0  0  0  0
 24 21  1  0  0  0  0
 25 24  1  0  0  0  0
 26 24  1  0  0  0  0
 27 29  1  0  0  0  0
 27 24  1  0  0  0  0
 27 30  1  0  0  0  0
 28 27  1  0  0  0  0
 30 16  1  0  0  0  0
 31 30  1  0  0  0  0
 32 30  1  0  0  0  0
 33 35  1  0  0  0  0
 33 47  1  0  0  0  0
 34 33  1  0  0  0  0
 35 38  1  0  0  0  0
 36 35  1  0  0  0  0
 37 35  1  0  0  0  0
 38 39  1  0  0  0  0
 38 40  1  0  0  0  0
 38 41  1  0  0  0  0
 41 42  1  0  0  0  0
 41 43  1  0  0  0  0
 44 46  1  0  0  0  0
 44 41  1  0  0  0  0
 44 45  1  0  0  0  0
 47 44  1  0  0  0  0
 48 47  1  0  0  0  0
 49 47  1  0  0  0  0
 50  2  1  0  0  0  0
 51 50  1  0  0  0  0
 52 50  1  0  0  0  0
 53 50  1  0  0  0  0
 54 57  1  0  0  0  0
 55 54  1  0  0  0  0
 56 54  1  0  0  0  0
M  END
