1,7
 OpenBabel05122313063D

 62 66  0  0  0  0  0  0  0  0999 V2000
    2.1251   -0.6494    0.3736 P   0  0  0  0  0  0  0  0  0  0  0  0
   -0.1985    1.0820    0.8127 P   0  0  0  0  0  4  0  0  0  0  0  0
   -1.8982   -2.7110    0.3529 F   0  0  0  0  0  0  0  0  0  0  0  0
   -4.5283   -3.2441   -0.0182 F   0  0  0  0  0  0  0  0  0  0  0  0
   -5.3188    1.3357   -1.0186 F   0  0  0  0  0  0  0  0  0  0  0  0
   -2.6735    1.8579   -0.7090 F   0  0  0  0  0  0  0  0  0  0  0  0
   -0.8535   -0.1954    0.0173 N   0  0  0  0  0  2  0  0  0  0  0  0
   -7.5306   -1.4660   -0.8020 N   0  0  0  0  0  0  0  0  0  0  0  0
    3.4906    0.5235   -0.0193 C   0  0  0  0  0  0  0  0  0  0  0  0
    3.6187    0.9865   -1.3426 C   0  0  0  0  0  0  0  0  0  0  0  0
    4.5867    1.9512   -1.6610 C   0  0  0  0  0  0  0  0  0  0  0  0
    5.4294    2.4613   -0.6624 C   0  0  0  0  0  0  0  0  0  0  0  0
    5.3050    2.0053    0.6613 C   0  0  0  0  0  0  0  0  0  0  0  0
    4.3391    1.0417    0.9836 C   0  0  0  0  0  0  0  0  0  0  0  0
    2.8707   -2.0300    1.3333 C   0  0  0  0  0  0  0  0  0  0  0  0
    1.9646   -2.9712    1.8709 C   0  0  0  0  0  0  0  0  0  0  0  0
    2.4424   -4.0881    2.5670 C   0  0  0  0  0  0  0  0  0  0  0  0
    3.8265   -4.2918    2.7073 C   0  0  0  0  0  0  0  0  0  0  0  0
    4.7285   -3.3766    2.1453 C   0  0  0  0  0  0  0  0  0  0  0  0
    4.2560   -2.2454    1.4591 C   0  0  0  0  0  0  0  0  0  0  0  0
    1.2050    0.3213    1.7025 C   0  0  0  0  0  0  0  0  0  0  0  0
    0.5014    2.3736   -0.2541 C   0  0  0  0  0  0  0  0  0  0  0  0
    0.2544    2.3142   -1.6407 C   0  0  0  0  0  0  0  0  0  0  0  0
    0.8636    3.2551   -2.4839 C   0  0  0  0  0  0  0  0  0  0  0  0
    1.7153    4.2371   -1.9532 C   0  0  0  0  0  0  0  0  0  0  0  0
    1.9619    4.2905   -0.5712 C   0  0  0  0  0  0  0  0  0  0  0  0
    1.3552    3.3593    0.2828 C   0  0  0  0  0  0  0  0  0  0  0  0
   -1.3565    1.7938    2.0144 C   0  0  0  0  0  0  0  0  0  0  0  0
   -1.9834    0.9102    2.9199 C   0  0  0  0  0  0  0  0  0  0  0  0
   -2.9329    1.4013    3.8252 C   0  0  0  0  0  0  0  0  0  0  0  0
   -3.2608    2.7675    3.8271 C   0  0  0  0  0  0  0  0  0  0  0  0
   -2.6446    3.6434    2.9193 C   0  0  0  0  0  0  0  0  0  0  0  0
   -1.6958    3.1604    2.0067 C   0  0  0  0  0  0  0  0  0  0  0  0
   -2.2125   -0.4099   -0.1600 C   0  0  0  0  0  0  0  0  0  0  0  0
   -2.7275   -1.7198    0.0075 C   0  0  0  0  0  0  0  0  0  0  0  0
   -4.0818   -1.9978   -0.1861 C   0  0  0  0  0  0  0  0  0  0  0  0
   -4.9956   -0.9694   -0.5250 C   0  0  0  0  0  0  0  0  0  0  0  0
   -4.4909    0.3417   -0.6872 C   0  0  0  0  0  0  0  0  0  0  0  0
   -3.1307    0.6043   -0.5142 C   0  0  0  0  0  0  0  0  0  0  0  0
   -6.3839   -1.2433   -0.6808 C   0  0  0  0  0  0  0  0  0  0  0  0
    2.9285    0.6018   -2.1095 H   0  0  0  0  0  0  0  0  0  0  0  0
    4.6738    2.3118   -2.6969 H   0  0  0  0  0  0  0  0  0  0  0  0
    6.1864    3.2200   -0.9130 H   0  0  0  0  0  0  0  0  0  0  0  0
    5.9646    2.4035    1.4473 H   0  0  0  0  0  0  0  0  0  0  0  0
    4.2480    0.6912    2.0241 H   0  0  0  0  0  0  0  0  0  0  0  0
    0.8817   -2.8375    1.7088 H   0  0  0  0  0  0  0  0  0  0  0  0
    1.7309   -4.8161    2.9853 H   0  0  0  0  0  0  0  0  0  0  0  0
    4.2013   -5.1764    3.2439 H   0  0  0  0  0  0  0  0  0  0  0  0
    5.8126   -3.5433    2.2360 H   0  0  0  0  0  0  0  0  0  0  0  0
    4.9698   -1.5378    1.0125 H   0  0  0  0  0  0  0  0  0  0  0  0
    1.8484    1.0659    2.2085 H   0  0  0  0  0  0  0  0  0  0  0  0
    0.7829   -0.3773    2.4513 H   0  0  0  0  0  0  0  0  0  0  0  0
   -0.3821    1.5172   -2.0567 H   0  0  0  0  0  0  0  0  0  0  0  0
    0.6777    3.2079   -3.5671 H   0  0  0  0  0  0  0  0  0  0  0  0
    2.1989    4.9645   -2.6228 H   0  0  0  0  0  0  0  0  0  0  0  0
    2.6389    5.0523   -0.1574 H   0  0  0  0  0  0  0  0  0  0  0  0
    1.5606    3.3977    1.3642 H   0  0  0  0  0  0  0  0  0  0  0  0
   -1.7424   -0.1643    2.9015 H   0  0  0  0  0  0  0  0  0  0  0  0
   -3.4265    0.7125    4.5268 H   0  0  0  0  0  0  0  0  0  0  0  0
   -4.0101    3.1500    4.5364 H   0  0  0  0  0  0  0  0  0  0  0  0
   -2.9122    4.7104    2.9135 H   0  0  0  0  0  0  0  0  0  0  0  0
   -1.2294    3.8394    1.2778 H   0  0  0  0  0  0  0  0  0  0  0  0
  1 15  1  0  0  0  0
  1 21  1  0  0  0  0
  2 21  1  0  0  0  0
  2 28  1  0  0  0  0
  5 38  1  0  0  0  0
  6 39  1  0  0  0  0
  7  2  1  0  0  0  0
  8 40  3  0  0  0  0
  9  1  1  0  0  0  0
  9 14  1  0  0  0  0
 10  9  2  0  0  0  0
 11 10  1  0  0  0  0
 11 12  2  0  0  0  0
 12 13  1  0  0  0  0
 13 14  2  0  0  0  0
 13 44  1  0  0  0  0
 14 45  1  0  0  0  0
 15 20  2  0  0  0  0
 15 16  1  0  0  0  0
 16 17  2  0  0  0  0
 17 18  1  0  0  0  0
 17 47  1  0  0  0  0
 18 48  1  0  0  0  0
 19 49  1  0  0  0  0
 19 18  2  0  0  0  0
 20 19  1  0  0  0  0
 21 51  1  0  0  0  0
 21 52  1  0  0  0  0
 22 27  1  0  0  0  0
 22  2  1  0  0  0  0
 23 22  2  0  0  0  0
 24 25  2  0  0  0  0
 24 23  1  0  0  0  0
 25 26  1  0  0  0  0
 26 56  1  0  0  0  0
 26 27  2  0  0  0  0
 27 57  1  0  0  0  0
 28 29  1  0  0  0  0
 29 30  2  0  0  0  0
 30 31  1  0  0  0  0
 30 59  1  0  0  0  0
 31 60  1  0  0  0  0
 32 31  2  0  0  0  0
 33 28  2  0  0  0  0
 33 32  1  0  0  0  0
 34 35  1  0  0  0  0
 34  7  1  0  0  0  0
 35  3  1  0  0  0  0
 36  4  1  0  0  0  0
 36 35  2  0  0  0  0
 37 36  1  0  0  0  0
 38 37  2  0  0  0  0
 38 39  1  0  0  0  0
 39 34  2  0  0  0  0
 40 37  1  0  0  0  0
 41 10  1  0  0  0  0
 42 11  1  0  0  0  0
 43 12  1  0  0  0  0
 46 16  1  0  0  0  0
 50 20  1  0  0  0  0
 53 23  1  0  0  0  0
 54 24  1  0  0  0  0
 55 25  1  0  0  0  0
 58 29  1  0  0  0  0
 61 32  1  0  0  0  0
 62 33  1  0  0  0  0
M  END
