1,2
 OpenBabel05122313063D

 18 17  0  0  0  0  0  0  0  0999 V2000
   -0.8332   -2.4111    0.2169 P   0  0  0  0  0  0  0  0  0  0  0  0
    0.1969   -0.7891   -2.1477 N   0  0  0  0  0  0  0  0  0  0  0  0
   -0.5996   -0.1590   -2.3733 H   0  0  0  0  0  0  0  0  0  0  0  0
    0.9731   -0.4908   -2.7545 H   0  0  0  0  0  0  0  0  0  0  0  0
   -1.3228   -2.6527   -1.5694 C   0  0  0  0  0  0  0  0  0  0  0  0
   -1.5939   -3.7076   -1.7781 H   0  0  0  0  0  0  0  0  0  0  0  0
   -2.2244   -2.0273   -1.7391 H   0  0  0  0  0  0  0  0  0  0  0  0
   -0.1891   -2.1896   -2.4797 C   0  0  0  0  0  0  0  0  0  0  0  0
    0.7046   -2.8359   -2.3438 H   0  0  0  0  0  0  0  0  0  0  0  0
   -0.4866   -2.2750   -3.5474 H   0  0  0  0  0  0  0  0  0  0  0  0
   -0.0102   -4.0189    0.6432 C   0  0  0  0  0  0  0  0  0  0  0  0
   -0.6960   -4.8824    0.5272 H   0  0  0  0  0  0  0  0  0  0  0  0
    0.3370   -3.9791    1.6952 H   0  0  0  0  0  0  0  0  0  0  0  0
    0.8727   -4.1780   -0.0084 H   0  0  0  0  0  0  0  0  0  0  0  0
   -2.4275   -2.5432    1.1253 C   0  0  0  0  0  0  0  0  0  0  0  0
   -3.0596   -1.6798    0.8419 H   0  0  0  0  0  0  0  0  0  0  0  0
   -2.2257   -2.4877    2.2129 H   0  0  0  0  0  0  0  0  0  0  0  0
   -2.9491   -3.4948    0.9002 H   0  0  0  0  0  0  0  0  0  0  0  0
  1 11  1  0  0  0  0
  1 15  1  0  0  0  0
  3  2  1  0  0  0  0
  4  2  1  0  0  0  0
  5  1  1  0  0  0  0
  6  5  1  0  0  0  0
  7  5  1  0  0  0  0
  8  9  1  0  0  0  0
  8  2  1  0  0  0  0
  8  5  1  0  0  0  0
 10  8  1  0  0  0  0
 11 13  1  0  0  0  0
 12 11  1  0  0  0  0
 14 11  1  0  0  0  0
 15 17  1  0  0  0  0
 16 15  1  0  0  0  0
 18 15  1  0  0  0  0
M  END
