1,3
 OpenBabel05122313063D

 62 67  0  0  1  0  0  0  0  0999 V2000
   -0.4810    0.9879    0.0152 P   0  0  0  0  0  0  0  0  0  0  0  0
    0.3353   -3.7566    0.9024 O   0  0  0  0  0  0  0  0  0  0  0  0
    0.7117   -1.9474   -0.3685 N   0  0  0  0  0  2  0  0  0  0  0  0
   -0.1491   -2.6786    0.2606 C   0  0  2  0  0  3  0  0  0  0  0  0
    1.7808   -3.7574    0.6949 C   0  0  0  0  0  0  0  0  0  0  0  0
    2.0517   -4.7217    0.2245 H   0  0  0  0  0  0  0  0  0  0  0  0
    2.2643   -3.6879    1.6892 H   0  0  0  0  0  0  0  0  0  0  0  0
    2.0633   -2.5353   -0.2166 C   0  0  2  0  0  0  0  0  0  0  0  0
    2.3698   -2.8357   -1.2402 H   0  0  0  0  0  0  0  0  0  0  0  0
   -1.6028   -2.4062    0.3173 C   0  0  0  0  0  0  0  0  0  0  0  0
   -2.4839   -3.0615   -0.5617 C   0  0  0  0  0  0  0  0  0  0  0  0
   -2.0830   -3.7688   -1.3021 H   0  0  0  0  0  0  0  0  0  0  0  0
   -3.8571   -2.7921   -0.4988 C   0  0  0  0  0  0  0  0  0  0  0  0
   -4.5444   -3.2917   -1.1973 H   0  0  0  0  0  0  0  0  0  0  0  0
   -4.3498   -1.8873    0.4549 C   0  0  0  0  0  0  0  0  0  0  0  0
   -5.4278   -1.6747    0.5098 H   0  0  0  0  0  0  0  0  0  0  0  0
   -3.4710   -1.2377    1.3317 C   0  0  0  0  0  0  0  0  0  0  0  0
   -3.8541   -0.5141    2.0650 H   0  0  0  0  0  0  0  0  0  0  0  0
   -2.0846   -1.4709    1.2622 C   0  0  0  0  0  0  0  0  0  0  0  0
   -1.1319   -0.7689    2.1771 C   0  0  0  0  0  0  0  0  0  0  0  0
   -0.9972   -1.2417    3.4974 C   0  0  0  0  0  0  0  0  0  0  0  0
   -1.5929   -2.1138    3.8068 H   0  0  0  0  0  0  0  0  0  0  0  0
   -0.1220   -0.6249    4.4039 C   0  0  0  0  0  0  0  0  0  0  0  0
   -0.0322   -1.0113    5.4304 H   0  0  0  0  0  0  0  0  0  0  0  0
    0.6279    0.4855    3.9938 C   0  0  0  0  0  0  0  0  0  0  0  0
    1.3127    0.9853    4.6957 H   0  0  0  0  0  0  0  0  0  0  0  0
    0.5081    0.9670    2.6818 C   0  0  0  0  0  0  0  0  0  0  0  0
    1.1039    1.8351    2.3671 H   0  0  0  0  0  0  0  0  0  0  0  0
   -0.3626    0.3533    1.7590 C   0  0  0  0  0  0  0  0  0  0  0  0
    3.0374   -1.4960    0.3033 C   0  0  0  0  0  0  0  0  0  0  0  0
    3.9202   -0.8736   -0.6010 C   0  0  0  0  0  0  0  0  0  0  0  0
    3.8858   -1.1623   -1.6631 H   0  0  0  0  0  0  0  0  0  0  0  0
    4.7968    0.1287   -0.1580 C   0  0  0  0  0  0  0  0  0  0  0  0
    5.4818    0.6082   -0.8734 H   0  0  0  0  0  0  0  0  0  0  0  0
    4.7896    0.5268    1.1890 C   0  0  0  0  0  0  0  0  0  0  0  0
    5.4751    1.3146    1.5367 H   0  0  0  0  0  0  0  0  0  0  0  0
    3.8947   -0.0741    2.0889 C   0  0  0  0  0  0  0  0  0  0  0  0
    3.8679    0.2475    3.1411 H   0  0  0  0  0  0  0  0  0  0  0  0
    3.0217   -1.0797    1.6478 C   0  0  0  0  0  0  0  0  0  0  0  0
    2.3066   -1.5223    2.3594 H   0  0  0  0  0  0  0  0  0  0  0  0
   -2.2580    1.4362   -0.1054 C   0  0  0  0  0  0  0  0  0  0  0  0
   -2.9784    1.1362   -1.2769 C   0  0  0  0  0  0  0  0  0  0  0  0
   -2.4503    0.6897   -2.1329 H   0  0  0  0  0  0  0  0  0  0  0  0
   -4.3505    1.4214   -1.3405 C   0  0  0  0  0  0  0  0  0  0  0  0
   -4.9118    1.1781   -2.2553 H   0  0  0  0  0  0  0  0  0  0  0  0
   -5.0046    2.0128   -0.2482 C   0  0  0  0  0  0  0  0  0  0  0  0
   -6.0814    2.2351   -0.3041 H   0  0  0  0  0  0  0  0  0  0  0  0
   -4.2840    2.3236    0.9172 C   0  0  0  0  0  0  0  0  0  0  0  0
   -4.7924    2.7899    1.7751 H   0  0  0  0  0  0  0  0  0  0  0  0
   -2.9147    2.0309    0.9933 C   0  0  0  0  0  0  0  0  0  0  0  0
   -2.3580    2.2456    1.9187 H   0  0  0  0  0  0  0  0  0  0  0  0
    0.4789    2.5510    0.0738 C   0  0  0  0  0  0  0  0  0  0  0  0
   -0.1119    3.8139    0.2585 C   0  0  0  0  0  0  0  0  0  0  0  0
   -1.2041    3.9077    0.3424 H   0  0  0  0  0  0  0  0  0  0  0  0
    0.6964    4.9607    0.3133 C   0  0  0  0  0  0  0  0  0  0  0  0
    0.2294    5.9484    0.4460 H   0  0  0  0  0  0  0  0  0  0  0  0
    2.0902    4.8514    0.1910 C   0  0  0  0  0  0  0  0  0  0  0  0
    2.7190    5.7538    0.2326 H   0  0  0  0  0  0  0  0  0  0  0  0
    2.6791    3.5903   -0.0006 C   0  0  0  0  0  0  0  0  0  0  0  0
    3.7698    3.4945   -0.1118 H   0  0  0  0  0  0  0  0  0  0  0  0
    1.8780    2.4439   -0.0708 C   0  0  0  0  0  0  0  0  0  0  0  0
    2.3366    1.4595   -0.2509 H   0  0  0  0  0  0  0  0  0  0  0  0
  1 52  1  0  0  0  0
  1 29  1  0  0  0  0
  3  8  1  0  0  0  0
  3  4  1  0  0  0  0
  4 10  1  1  0  0  0
  4  2  1  0  0  0  0
  5  2  1  0  0  0  0
  5  7  1  0  0  0  0
  6  5  1  0  0  0  0
  8  9  1  6  0  0  0
  8 30  1  0  0  0  0
  8  5  1  0  0  0  0
 10 19  1  0  0  0  0
 11 13  1  0  0  0  0
 11 10  2  0  0  0  0
 12 11  1  0  0  0  0
 13 15  2  0  0  0  0
 14 13  1  0  0  0  0
 15 16  1  0  0  0  0
 15 17  1  0  0  0  0
 17 18  1  0  0  0  0
 19 17  2  0  0  0  0
 19 20  1  0  0  0  0
 20 21  1  0  0  0  0
 21 22  1  0  0  0  0
 21 23  2  0  0  0  0
 23 24  1  0  0  0  0
 25 23  1  0  0  0  0
 25 26  1  0  0  0  0
 27 25  2  0  0  0  0
 28 27  1  0  0  0  0
 29 20  2  0  0  0  0
 29 27  1  0  0  0  0
 30 39  1  0  0  0  0
 31 33  1  0  0  0  0
 31 30  2  0  0  0  0
 32 31  1  0  0  0  0
 33 35  2  0  0  0  0
 34 33  1  0  0  0  0
 35 36  1  0  0  0  0
 35 37  1  0  0  0  0
 37 38  1  0  0  0  0
 39 37  2  0  0  0  0
 39 40  1  0  0  0  0
 41  1  1  0  0  0  0
 41 50  1  0  0  0  0
 42 41  2  0  0  0  0
 43 42  1  0  0  0  0
 44 42  1  0  0  0  0
 44 46  2  0  0  0  0
 45 44  1  0  0  0  0
 46 48  1  0  0  0  0
 47 46  1  0  0  0  0
 48 50  2  0  0  0  0
 48 49  1  0  0  0  0
 50 51  1  0  0  0  0
 52 53  1  0  0  0  0
 53 55  2  0  0  0  0
 53 54  1  0  0  0  0
 55 56  1  0  0  0  0
 57 58  1  0  0  0  0
 57 55  1  0  0  0  0
 59 57  2  0  0  0  0
 60 59  1  0  0  0  0
 61 59  1  0  0  0  0
 61 52  2  0  0  0  0
 62 61  1  0  0  0  0
M  END
