1,2
 OpenBabel05122313063D

 61 62  0  0  0  0  0  0  0  0999 V2000
    2.3087   -0.1072   -0.3050 P   0  0  0  0  0  0  0  0  0  0  0  0
   -0.6191    0.0093    0.1328 N   0  0  0  0  0  2  0  0  0  0  0  0
   -2.0355    0.0442    0.0944 C   0  0  0  0  0  0  0  0  0  0  0  0
   -2.7625   -1.1751    0.2074 C   0  0  0  0  0  0  0  0  0  0  0  0
   -2.0083   -2.4786    0.4377 C   0  0  0  0  0  0  0  0  0  0  0  0
   -1.0462   -2.3748   -0.1118 H   0  0  0  0  0  0  0  0  0  0  0  0
   -2.7235   -3.7174   -0.1114 C   0  0  0  0  0  0  0  0  0  0  0  0
   -3.0004   -3.5895   -1.1771 H   0  0  0  0  0  0  0  0  0  0  0  0
   -3.6493   -3.9479    0.4560 H   0  0  0  0  0  0  0  0  0  0  0  0
   -2.0667   -4.6074   -0.0312 H   0  0  0  0  0  0  0  0  0  0  0  0
   -1.6496   -2.6532    1.9246 C   0  0  0  0  0  0  0  0  0  0  0  0
   -1.0812   -1.7843    2.3099 H   0  0  0  0  0  0  0  0  0  0  0  0
   -1.0358   -3.5652    2.0806 H   0  0  0  0  0  0  0  0  0  0  0  0
   -2.5701   -2.7522    2.5372 H   0  0  0  0  0  0  0  0  0  0  0  0
   -4.1662   -1.1370    0.1164 C   0  0  0  0  0  0  0  0  0  0  0  0
   -4.7416   -2.0705    0.2024 H   0  0  0  0  0  0  0  0  0  0  0  0
   -4.8438    0.0728   -0.0796 C   0  0  0  0  0  0  0  0  0  0  0  0
   -5.9428    0.0857   -0.1401 H   0  0  0  0  0  0  0  0  0  0  0  0
   -4.1199    1.2657   -0.2130 C   0  0  0  0  0  0  0  0  0  0  0  0
   -4.6614    2.2073   -0.3864 H   0  0  0  0  0  0  0  0  0  0  0  0
   -2.7154    1.2746   -0.1423 C   0  0  0  0  0  0  0  0  0  0  0  0
   -1.9093    2.5470   -0.3853 C   0  0  0  0  0  0  0  0  0  0  0  0
   -1.0219    2.5054    0.2793 H   0  0  0  0  0  0  0  0  0  0  0  0
   -1.3919    2.5766   -1.8361 C   0  0  0  0  0  0  0  0  0  0  0  0
   -0.8124    1.6598   -2.0732 H   0  0  0  0  0  0  0  0  0  0  0  0
   -0.7303    3.4509   -2.0094 H   0  0  0  0  0  0  0  0  0  0  0  0
   -2.2339    2.6285   -2.5568 H   0  0  0  0  0  0  0  0  0  0  0  0
   -2.6624    3.8391   -0.0496 C   0  0  0  0  0  0  0  0  0  0  0  0
   -3.0604    3.8204    0.9848 H   0  0  0  0  0  0  0  0  0  0  0  0
   -3.5141    4.0168   -0.7388 H   0  0  0  0  0  0  0  0  0  0  0  0
   -1.9855    4.7128   -0.1399 H   0  0  0  0  0  0  0  0  0  0  0  0
    0.0727    0.4810    1.2164 C   0  0  0  0  0  0  0  0  0  0  0  0
   -0.5676    0.9505    2.4068 C   0  0  0  0  0  0  0  0  0  0  0  0
   -1.6657    0.9163    2.4571 H   0  0  0  0  0  0  0  0  0  0  0  0
    0.1690    1.4527    3.4796 C   0  0  0  0  0  0  0  0  0  0  0  0
   -0.3680    1.8060    4.3743 H   0  0  0  0  0  0  0  0  0  0  0  0
    1.5761    1.5232    3.4375 C   0  0  0  0  0  0  0  0  0  0  0  0
    2.1474    1.9348    4.2816 H   0  0  0  0  0  0  0  0  0  0  0  0
    2.2316    1.0539    2.2925 C   0  0  0  0  0  0  0  0  0  0  0  0
    3.3306    1.1082    2.2414 H   0  0  0  0  0  0  0  0  0  0  0  0
    1.5152    0.5245    1.2000 C   0  0  0  0  0  0  0  0  0  0  0  0
    3.5876    1.1533   -0.8067 C   0  0  0  0  0  0  0  0  0  0  0  0
    4.2463    1.3212    0.0741 H   0  0  0  0  0  0  0  0  0  0  0  0
    2.8614    2.4625   -1.1419 C   0  0  0  0  0  0  0  0  0  0  0  0
    2.2611    2.8260   -0.2844 H   0  0  0  0  0  0  0  0  0  0  0  0
    2.1755    2.3278   -2.0045 H   0  0  0  0  0  0  0  0  0  0  0  0
    3.5932    3.2517   -1.4115 H   0  0  0  0  0  0  0  0  0  0  0  0
    4.4276    0.6322   -1.9777 C   0  0  0  0  0  0  0  0  0  0  0  0
    5.0144   -0.2688   -1.7088 H   0  0  0  0  0  0  0  0  0  0  0  0
    5.1461    1.4096   -2.3104 H   0  0  0  0  0  0  0  0  0  0  0  0
    3.7851    0.3746   -2.8457 H   0  0  0  0  0  0  0  0  0  0  0  0
    4.2741   -1.5315    1.2320 C   0  0  0  0  0  0  0  0  0  0  0  0
    5.0413   -0.7798    0.9567 H   0  0  0  0  0  0  0  0  0  0  0  0
    4.7978   -2.4970    1.3938 H   0  0  0  0  0  0  0  0  0  0  0  0
    3.8252   -1.2290    2.1992 H   0  0  0  0  0  0  0  0  0  0  0  0
    3.1990   -1.6908    0.1557 C   0  0  0  0  0  0  0  0  0  0  0  0
    3.6760   -2.0099   -0.7979 H   0  0  0  0  0  0  0  0  0  0  0  0
    2.1368   -2.7297    0.5414 C   0  0  0  0  0  0  0  0  0  0  0  0
    1.4095   -2.8988   -0.2796 H   0  0  0  0  0  0  0  0  0  0  0  0
    1.5660   -2.4040    1.4353 H   0  0  0  0  0  0  0  0  0  0  0  0
    2.6131   -3.7037    0.7763 H   0  0  0  0  0  0  0  0  0  0  0  0
  1 56  1  0  0  0  0
  1 41  1  0  0  0  0
  2 32  1  0  0  0  0
  3  2  1  0  0  0  0
  3  4  1  0  0  0  0
  4  5  1  0  0  0  0
  5 11  1  0  0  0  0
  6  5  1  0  0  0  0
  7 10  1  0  0  0  0
  7  5  1  0  0  0  0
  7  9  1  0  0  0  0
  8  7  1  0  0  0  0
 11 13  1  0  0  0  0
 11 12  1  0  0  0  0
 11 14  1  0  0  0  0
 15 16  1  0  0  0  0
 15  4  2  0  0  0  0
 17 15  1  0  0  0  0
 18 17  1  0  0  0  0
 19 21  1  0  0  0  0
 19 17  2  0  0  0  0
 20 19  1  0  0  0  0
 21  3  2  0  0  0  0
 22 21  1  0  0  0  0
 22 28  1  0  0  0  0
 22 23  1  0  0  0  0
 24 22  1  0  0  0  0
 25 24  1  0  0  0  0
 26 24  1  0  0  0  0
 27 24  1  0  0  0  0
 28 29  1  0  0  0  0
 30 28  1  0  0  0  0
 31 28  1  0  0  0  0
 32 33  1  0  0  0  0
 33 34  1  0  0  0  0
 33 35  2  0  0  0  0
 35 36  1  0  0  0  0
 37 35  1  0  0  0  0
 37 38  1  0  0  0  0
 39 37  2  0  0  0  0
 40 39  1  0  0  0  0
 41 32  2  0  0  0  0
 41 39  1  0  0  0  0
 42  1  1  0  0  0  0
 42 43  1  0  0  0  0
 44 42  1  0  0  0  0
 44 45  1  0  0  0  0
 46 44  1  0  0  0  0
 47 44  1  0  0  0  0
 48 49  1  0  0  0  0
 48 42  1  0  0  0  0
 50 48  1  0  0  0  0
 51 48  1  0  0  0  0
 52 54  1  0  0  0  0
 52 55  1  0  0  0  0
 53 52  1  0  0  0  0
 56 58  1  0  0  0  0
 56 52  1  0  0  0  0
 57 56  1  0  0  0  0
 58 61  1  0  0  0  0
 58 60  1  0  0  0  0
 59 58  1  0  0  0  0
M  END
