1,2
 OpenBabel05122313063D

 49 50  0  0  0  0  0  0  0  0999 V2000
    1.9890   -0.2883    0.1091 P   0  0  0  0  0  0  0  0  0  0  0  0
   -0.9553    0.0674   -0.0733 N   0  0  0  0  0  2  0  0  0  0  0  0
   -0.2791    1.2078   -0.4312 C   0  0  0  0  0  0  0  0  0  0  0  0
    1.8604    2.3937   -0.8344 C   0  0  0  0  0  0  0  0  0  0  0  0
    2.9620    2.3848   -0.8417 H   0  0  0  0  0  0  0  0  0  0  0  0
   -0.9419    2.3979   -0.8643 C   0  0  0  0  0  0  0  0  0  0  0  0
   -2.0412    2.3996   -0.8999 H   0  0  0  0  0  0  0  0  0  0  0  0
   -0.2259    3.5289   -1.2573 C   0  0  0  0  0  0  0  0  0  0  0  0
   -0.7808    4.4214   -1.5881 H   0  0  0  0  0  0  0  0  0  0  0  0
    2.7821    0.0450    1.7750 C   0  0  0  0  0  0  0  0  0  0  0  0
    3.2755   -0.9196    2.0290 H   0  0  0  0  0  0  0  0  0  0  0  0
   -2.3708    0.0591   -0.0132 C   0  0  0  0  0  0  0  0  0  0  0  0
    1.1636    1.2422   -0.4152 C   0  0  0  0  0  0  0  0  0  0  0  0
   -3.0481    0.6791    1.0733 C   0  0  0  0  0  0  0  0  0  0  0  0
    1.6630    0.3039    2.7920 C   0  0  0  0  0  0  0  0  0  0  0  0
    0.9508   -0.5450    2.8466 H   0  0  0  0  0  0  0  0  0  0  0  0
    1.0874    1.2136    2.5241 H   0  0  0  0  0  0  0  0  0  0  0  0
    2.0877    0.4549    3.8058 H   0  0  0  0  0  0  0  0  0  0  0  0
    1.1831    3.5453   -1.2536 C   0  0  0  0  0  0  0  0  0  0  0  0
    1.7396    4.4367   -1.5765 H   0  0  0  0  0  0  0  0  0  0  0  0
   -3.1040   -0.6295   -1.0175 C   0  0  0  0  0  0  0  0  0  0  0  0
   -4.4526    0.6124    1.1251 C   0  0  0  0  0  0  0  0  0  0  0  0
   -4.9780    1.0904    1.9675 H   0  0  0  0  0  0  0  0  0  0  0  0
   -2.3715   -1.2961   -2.1532 C   0  0  0  0  0  0  0  0  0  0  0  0
   -1.6672   -0.5968   -2.6487 H   0  0  0  0  0  0  0  0  0  0  0  0
   -3.0762   -1.6862   -2.9128 H   0  0  0  0  0  0  0  0  0  0  0  0
   -1.7622   -2.1546   -1.7915 H   0  0  0  0  0  0  0  0  0  0  0  0
   -4.5070   -0.6791   -0.9254 C   0  0  0  0  0  0  0  0  0  0  0  0
   -5.0753   -1.2096   -1.7060 H   0  0  0  0  0  0  0  0  0  0  0  0
   -2.2600    1.3717    2.1529 C   0  0  0  0  0  0  0  0  0  0  0  0
   -2.9072    1.6611    3.0028 H   0  0  0  0  0  0  0  0  0  0  0  0
   -1.7601    2.2881    1.7720 H   0  0  0  0  0  0  0  0  0  0  0  0
   -1.4484    0.7157    2.5294 H   0  0  0  0  0  0  0  0  0  0  0  0
    4.2140   -1.7954   -0.6606 C   0  0  0  0  0  0  0  0  0  0  0  0
    4.7353   -1.6040    0.2985 H   0  0  0  0  0  0  0  0  0  0  0  0
    4.9899   -2.0230   -1.4205 H   0  0  0  0  0  0  0  0  0  0  0  0
    3.5895   -2.7046   -0.5340 H   0  0  0  0  0  0  0  0  0  0  0  0
   -5.1827   -0.0591    0.1346 C   0  0  0  0  0  0  0  0  0  0  0  0
   -6.2808   -0.1038    0.1919 H   0  0  0  0  0  0  0  0  0  0  0  0
    3.3630   -0.6033   -1.1125 C   0  0  0  0  0  0  0  0  0  0  0  0
    3.9954    0.3115   -1.1419 H   0  0  0  0  0  0  0  0  0  0  0  0
    2.7405   -0.8217   -2.4971 C   0  0  0  0  0  0  0  0  0  0  0  0
    2.1250    0.0451   -2.8091 H   0  0  0  0  0  0  0  0  0  0  0  0
    2.0920   -1.7230   -2.5036 H   0  0  0  0  0  0  0  0  0  0  0  0
    3.5346   -0.9733   -3.2570 H   0  0  0  0  0  0  0  0  0  0  0  0
    3.8257    1.1634    1.7677 C   0  0  0  0  0  0  0  0  0  0  0  0
    4.6444    0.9760    1.0439 H   0  0  0  0  0  0  0  0  0  0  0  0
    4.2873    1.2608    2.7727 H   0  0  0  0  0  0  0  0  0  0  0  0
    3.3601    2.1379    1.5182 H   0  0  0  0  0  0  0  0  0  0  0  0
  1 10  1  0  0  0  0
  2 12  1  0  0  0  0
  3 13  1  0  0  0  0
  3  2  1  0  0  0  0
  4 13  2  0  0  0  0
  5  4  1  0  0  0  0
  6  3  2  0  0  0  0
  7  6  1  0  0  0  0
  8 19  2  0  0  0  0
  8  6  1  0  0  0  0
  9  8  1  0  0  0  0
 10 11  1  0  0  0  0
 10 15  1  0  0  0  0
 12 14  1  0  0  0  0
 13  1  1  0  0  0  0
 14 22  2  0  0  0  0
 14 30  1  0  0  0  0
 15 16  1  0  0  0  0
 15 18  1  0  0  0  0
 17 15  1  0  0  0  0
 19  4  1  0  0  0  0
 20 19  1  0  0  0  0
 21 28  1  0  0  0  0
 21 12  2  0  0  0  0
 22 23  1  0  0  0  0
 24 27  1  0  0  0  0
 24 21  1  0  0  0  0
 25 24  1  0  0  0  0
 26 24  1  0  0  0  0
 28 38  2  0  0  0  0
 29 28  1  0  0  0  0
 30 33  1  0  0  0  0
 30 31  1  0  0  0  0
 32 30  1  0  0  0  0
 34 37  1  0  0  0  0
 34 35  1  0  0  0  0
 36 34  1  0  0  0  0
 38 39  1  0  0  0  0
 38 22  1  0  0  0  0
 40 34  1  0  0  0  0
 40  1  1  0  0  0  0
 41 40  1  0  0  0  0
 42 40  1  0  0  0  0
 43 42  1  0  0  0  0
 44 42  1  0  0  0  0
 45 42  1  0  0  0  0
 46 10  1  0  0  0  0
 46 48  1  0  0  0  0
 47 46  1  0  0  0  0
 49 46  1  0  0  0  0
M  END
