1,2
 OpenBabel05122313063D

 59 61  0  0  1  0  0  0  0  0999 V2000
   -1.5645    0.3858    0.3383 P   0  0  2  0  0  0  0  0  0  0  0  0
    1.1723    0.1680   -0.7961 N   0  0  0  0  0  0  0  0  0  0  0  0
    1.2109    0.6470   -1.7094 H   0  0  0  0  0  0  0  0  0  0  0  0
   -0.4881   -0.7801    2.6120 N   0  0  0  0  0  0  0  0  0  0  0  0
   -0.3512    1.8010    0.2969 C   0  0  0  0  0  0  0  0  0  0  0  0
   -0.5690    2.3730   -0.6291 H   0  0  0  0  0  0  0  0  0  0  0  0
   -0.4829    2.4895    1.1564 H   0  0  0  0  0  0  0  0  0  0  0  0
    1.0616    1.2163    0.2868 C   0  0  2  0  0  0  0  0  0  0  0  0
    1.1884    0.6666    1.2386 H   0  0  0  0  0  0  0  0  0  0  0  0
    2.1651    2.2493    0.1556 C   0  0  0  0  0  0  0  0  0  0  0  0
    3.2425    2.2495    1.0612 C   0  0  0  0  0  0  0  0  0  0  0  0
    3.2568    1.5117    1.8786 H   0  0  0  0  0  0  0  0  0  0  0  0
    4.2956    3.1660    0.9210 C   0  0  0  0  0  0  0  0  0  0  0  0
    5.1320    3.1519    1.6361 H   0  0  0  0  0  0  0  0  0  0  0  0
    4.2861    4.0916   -0.1334 C   0  0  0  0  0  0  0  0  0  0  0  0
    5.1126    4.8093   -0.2468 H   0  0  0  0  0  0  0  0  0  0  0  0
    3.2184    4.0971   -1.0459 C   0  0  0  0  0  0  0  0  0  0  0  0
    3.2051    4.8201   -1.8756 H   0  0  0  0  0  0  0  0  0  0  0  0
    2.1654    3.1830   -0.9006 C   0  0  0  0  0  0  0  0  0  0  0  0
    1.3330    3.2017   -1.6231 H   0  0  0  0  0  0  0  0  0  0  0  0
    2.3642   -0.6417   -0.6728 C   0  0  0  0  0  0  0  0  0  0  0  0
    2.6006   -1.3581    0.5126 C   0  0  0  0  0  0  0  0  0  0  0  0
    1.8655   -1.3114    1.3278 H   0  0  0  0  0  0  0  0  0  0  0  0
    3.7553   -2.1418    0.6352 C   0  0  0  0  0  0  0  0  0  0  0  0
    3.9314   -2.7035    1.5653 H   0  0  0  0  0  0  0  0  0  0  0  0
    4.6741   -2.2227   -0.4239 C   0  0  0  0  0  0  0  0  0  0  0  0
    5.5774   -2.8432   -0.3278 H   0  0  0  0  0  0  0  0  0  0  0  0
    4.4273   -1.5139   -1.6090 C   0  0  0  0  0  0  0  0  0  0  0  0
    5.1344   -1.5776   -2.4495 H   0  0  0  0  0  0  0  0  0  0  0  0
    3.2773   -0.7218   -1.7352 C   0  0  0  0  0  0  0  0  0  0  0  0
    3.0760   -0.1757   -2.6681 H   0  0  0  0  0  0  0  0  0  0  0  0
   -3.1841    1.1913    0.0064 C   0  0  0  0  0  0  0  0  0  0  0  0
   -3.9194    1.8671    1.0037 C   0  0  0  0  0  0  0  0  0  0  0  0
   -3.5532    1.9107    2.0402 H   0  0  0  0  0  0  0  0  0  0  0  0
   -5.1317    2.4965    0.6834 C   0  0  0  0  0  0  0  0  0  0  0  0
   -5.7006    3.0169    1.4689 H   0  0  0  0  0  0  0  0  0  0  0  0
   -5.6178    2.4629   -0.6334 C   0  0  0  0  0  0  0  0  0  0  0  0
   -6.5702    2.9558   -0.8811 H   0  0  0  0  0  0  0  0  0  0  0  0
   -4.8890    1.7967   -1.6312 C   0  0  0  0  0  0  0  0  0  0  0  0
   -5.2672    1.7640   -2.6642 H   0  0  0  0  0  0  0  0  0  0  0  0
   -3.6801    1.1607   -1.3138 C   0  0  0  0  0  0  0  0  0  0  0  0
   -3.1037    0.6255   -2.0858 H   0  0  0  0  0  0  0  0  0  0  0  0
   -1.6638   -0.0516    2.1625 C   0  0  0  0  0  0  0  0  0  0  0  0
   -1.7314    0.9007    2.7280 H   0  0  0  0  0  0  0  0  0  0  0  0
   -2.6341   -0.5858    2.3235 H   0  0  0  0  0  0  0  0  0  0  0  0
   -0.5075   -2.2049    2.2400 C   0  0  0  0  0  0  0  0  0  0  0  0
    0.5019   -2.6233    2.4287 H   0  0  0  0  0  0  0  0  0  0  0  0
   -0.6364   -2.2427    1.1323 H   0  0  0  0  0  0  0  0  0  0  0  0
   -1.5608   -3.0776    2.9305 C   0  0  0  0  0  0  0  0  0  0  0  0
   -1.4914   -4.1158    2.5493 H   0  0  0  0  0  0  0  0  0  0  0  0
   -2.5943   -2.7289    2.7277 H   0  0  0  0  0  0  0  0  0  0  0  0
   -1.4259   -3.1170    4.0312 H   0  0  0  0  0  0  0  0  0  0  0  0
   -0.1489   -0.5028    4.0115 C   0  0  0  0  0  0  0  0  0  0  0  0
   -0.9214   -0.8985    4.7222 H   0  0  0  0  0  0  0  0  0  0  0  0
   -0.1654    0.6016    4.1344 H   0  0  0  0  0  0  0  0  0  0  0  0
    1.2266   -1.0218    4.4204 C   0  0  0  0  0  0  0  0  0  0  0  0
    1.4715   -0.6792    5.4452 H   0  0  0  0  0  0  0  0  0  0  0  0
    2.0136   -0.6474    3.7335 H   0  0  0  0  0  0  0  0  0  0  0  0
    1.2767   -2.1287    4.4252 H   0  0  0  0  0  0  0  0  0  0  0  0
  1  5  1  1  0  0  0
  1 43  1  0  0  0  0
  2 21  1  0  0  0  0
  2  8  1  0  0  0  0
  3  2  1  0  0  0  0
  4 53  1  0  0  0  0
  5  7  1  0  0  0  0
  6  5  1  0  0  0  0
  8  5  1  0  0  0  0
  8  9  1  1  0  0  0
 10  8  1  0  0  0  0
 10 11  1  0  0  0  0
 11 12  1  0  0  0  0
 13 11  2  0  0  0  0
 13 14  1  0  0  0  0
 15 13  1  0  0  0  0
 16 15  1  0  0  0  0
 17 19  1  0  0  0  0
 17 15  2  0  0  0  0
 18 17  1  0  0  0  0
 19 10  2  0  0  0  0
 20 19  1  0  0  0  0
 21 22  1  0  0  0  0
 22 24  2  0  0  0  0
 22 23  1  0  0  0  0
 24 25  1  0  0  0  0
 26 27  1  0  0  0  0
 26 24  1  0  0  0  0
 28 26  2  0  0  0  0
 29 28  1  0  0  0  0
 30 28  1  0  0  0  0
 30 21  2  0  0  0  0
 31 30  1  0  0  0  0
 32  1  1  0  0  0  0
 32 33  1  0  0  0  0
 33 34  1  0  0  0  0
 35 33  2  0  0  0  0
 35 36  1  0  0  0  0
 37 35  1  0  0  0  0
 38 37  1  0  0  0  0
 39 41  1  0  0  0  0
 39 37  2  0  0  0  0
 40 39  1  0  0  0  0
 41 32  2  0  0  0  0
 42 41  1  0  0  0  0
 43 45  1  0  0  0  0
 43  4  1  0  0  0  0
 43 44  1  0  0  0  0
 46 47  1  0  0  0  0
 46  4  1  0  0  0  0
 46 49  1  0  0  0  0
 48 46  1  0  0  0  0
 49 52  1  0  0  0  0
 50 49  1  0  0  0  0
 51 49  1  0  0  0  0
 53 55  1  0  0  0  0
 53 56  1  0  0  0  0
 53 54  1  0  0  0  0
 56 59  1  0  0  0  0
 56 57  1  0  0  0  0
 58 56  1  0  0  0  0
M  END
