1,2
 OpenBabel05122313063D

 70 74  0  0  1  0  0  0  0  0999 V2000
   -0.1731   -0.8504   -0.6147 P   0  0  0  0  0  0  0  0  0  0  0  0
    1.8701    0.9864    0.4069 N   0  0  0  0  0  0  0  0  0  0  0  0
    2.3153    1.8634    0.0854 H   0  0  0  0  0  0  0  0  0  0  0  0
   -3.5124    0.9881    0.2315 N   0  0  0  0  0  0  0  0  0  0  0  0
    0.6165    1.2828    1.1692 C   0  0  2  0  0  0  0  0  0  0  0  0
    0.7905    0.9709    2.2157 H   0  0  0  0  0  0  0  0  0  0  0  0
   -0.6436    0.5397    0.6201 C   0  0  2  0  0  0  0  0  0  0  0  0
   -1.1041    1.2156   -0.1229 H   0  0  0  0  0  0  0  0  0  0  0  0
    2.8746    0.1805    1.0635 C   0  0  0  0  0  0  0  0  0  0  0  0
    2.5302   -0.8523    1.9540 C   0  0  0  0  0  0  0  0  0  0  0  0
    1.4791   -1.0892    2.1587 H   0  0  0  0  0  0  0  0  0  0  0  0
    3.5354   -1.6266    2.5535 C   0  0  0  0  0  0  0  0  0  0  0  0
    3.2471   -2.4385    3.2382 H   0  0  0  0  0  0  0  0  0  0  0  0
    4.8865   -1.3796    2.2747 C   0  0  0  0  0  0  0  0  0  0  0  0
    5.6719   -1.9881    2.7469 H   0  0  0  0  0  0  0  0  0  0  0  0
    5.2267   -0.3494    1.3809 C   0  0  0  0  0  0  0  0  0  0  0  0
    6.2825   -0.1473    1.1457 H   0  0  0  0  0  0  0  0  0  0  0  0
    4.2331    0.4288    0.7767 C   0  0  0  0  0  0  0  0  0  0  0  0
    4.4884    1.2098    0.0444 H   0  0  0  0  0  0  0  0  0  0  0  0
    0.3217    2.7720    1.1733 C   0  0  0  0  0  0  0  0  0  0  0  0
   -0.2458    3.3576    2.3216 C   0  0  0  0  0  0  0  0  0  0  0  0
   -0.3963    2.7438    3.2231 H   0  0  0  0  0  0  0  0  0  0  0  0
   -0.6296    4.7075    2.3171 C   0  0  0  0  0  0  0  0  0  0  0  0
   -1.0714    5.1524    3.2216 H   0  0  0  0  0  0  0  0  0  0  0  0
   -0.4447    5.4872    1.1649 C   0  0  0  0  0  0  0  0  0  0  0  0
   -0.7419    6.5469    1.1612 H   0  0  0  0  0  0  0  0  0  0  0  0
    0.1290    4.9113    0.0198 C   0  0  0  0  0  0  0  0  0  0  0  0
    0.2863    5.5175   -0.8851 H   0  0  0  0  0  0  0  0  0  0  0  0
    0.5053    3.5598    0.0165 C   0  0  0  0  0  0  0  0  0  0  0  0
    0.9518    3.1246   -0.8949 H   0  0  0  0  0  0  0  0  0  0  0  0
   -1.6747    0.1798    1.6638 C   0  0  0  0  0  0  0  0  0  0  0  0
   -1.2868   -0.4245    2.8761 C   0  0  0  0  0  0  0  0  0  0  0  0
   -0.2168   -0.5311    3.1068 H   0  0  0  0  0  0  0  0  0  0  0  0
   -2.2172   -0.9577    3.7799 C   0  0  0  0  0  0  0  0  0  0  0  0
   -1.8723   -1.4345    4.7088 H   0  0  0  0  0  0  0  0  0  0  0  0
   -3.5803   -0.9062    3.4611 C   0  0  0  0  0  0  0  0  0  0  0  0
   -4.3291   -1.3395    4.1419 H   0  0  0  0  0  0  0  0  0  0  0  0
   -4.0004   -0.2682    2.2858 C   0  0  0  0  0  0  0  0  0  0  0  0
   -5.0752   -0.1896    2.0722 H   0  0  0  0  0  0  0  0  0  0  0  0
   -3.0746    0.3179    1.3902 C   0  0  0  0  0  0  0  0  0  0  0  0
   -4.7966    0.6223   -0.3277 C   0  0  0  0  0  0  0  0  0  0  0  0
   -4.8492    0.9927   -1.3713 H   0  0  0  0  0  0  0  0  0  0  0  0
   -5.6691    1.0531    0.2271 H   0  0  0  0  0  0  0  0  0  0  0  0
   -4.9003   -0.4791   -0.3587 H   0  0  0  0  0  0  0  0  0  0  0  0
   -3.2311    2.4137    0.1165 C   0  0  0  0  0  0  0  0  0  0  0  0
   -3.1206    2.7026   -0.9505 H   0  0  0  0  0  0  0  0  0  0  0  0
   -2.3019    2.6856    0.6477 H   0  0  0  0  0  0  0  0  0  0  0  0
   -4.0531    3.0311    0.5570 H   0  0  0  0  0  0  0  0  0  0  0  0
   -1.6770   -0.9972   -1.6701 C   0  0  0  0  0  0  0  0  0  0  0  0
   -2.4883   -2.1450   -1.7283 C   0  0  0  0  0  0  0  0  0  0  0  0
   -2.2709   -3.0107   -1.0875 H   0  0  0  0  0  0  0  0  0  0  0  0
   -3.5674   -2.2014   -2.6280 C   0  0  0  0  0  0  0  0  0  0  0  0
   -4.1896   -3.1083   -2.6716 H   0  0  0  0  0  0  0  0  0  0  0  0
   -3.8415   -1.1182   -3.4741 C   0  0  0  0  0  0  0  0  0  0  0  0
   -4.6817   -1.1693   -4.1831 H   0  0  0  0  0  0  0  0  0  0  0  0
   -3.0276    0.0278   -3.4255 C   0  0  0  0  0  0  0  0  0  0  0  0
   -3.2236    0.8750   -4.1003 H   0  0  0  0  0  0  0  0  0  0  0  0
   -1.9487    0.0850   -2.5361 C   0  0  0  0  0  0  0  0  0  0  0  0
   -1.2785    0.9607   -2.5301 H   0  0  0  0  0  0  0  0  0  0  0  0
   -0.0299   -2.4517    0.2703 C   0  0  0  0  0  0  0  0  0  0  0  0
    1.1828   -3.1555    0.1115 C   0  0  0  0  0  0  0  0  0  0  0  0
    1.9657   -2.7191   -0.5304 H   0  0  0  0  0  0  0  0  0  0  0  0
    1.3867   -4.3725    0.7775 C   0  0  0  0  0  0  0  0  0  0  0  0
    2.3373   -4.9117    0.6491 H   0  0  0  0  0  0  0  0  0  0  0  0
    0.3839   -4.8930    1.6111 C   0  0  0  0  0  0  0  0  0  0  0  0
    0.5453   -5.8454    2.1391 H   0  0  0  0  0  0  0  0  0  0  0  0
   -0.8279   -4.2003    1.7695 C   0  0  0  0  0  0  0  0  0  0  0  0
   -1.6169   -4.6058    2.4210 H   0  0  0  0  0  0  0  0  0  0  0  0
   -1.0412   -2.9855    1.1007 C   0  0  0  0  0  0  0  0  0  0  0  0
   -1.9953   -2.4565    1.2307 H   0  0  0  0  0  0  0  0  0  0  0  0
  1 60  1  0  0  0  0
  1  7  1  0  0  0  0
  2  9  1  0  0  0  0
  2  5  1  0  0  0  0
  3  2  1  0  0  0  0
  4 40  1  0  0  0  0
  5 20  1  0  0  0  0
  5  6  1  1  0  0  0
  7  8  1  6  0  0  0
  7  5  1  0  0  0  0
  7 31  1  0  0  0  0
  9 10  1  0  0  0  0
 10 11  1  0  0  0  0
 10 12  2  0  0  0  0
 12 13  1  0  0  0  0
 14 12  1  0  0  0  0
 14 15  1  0  0  0  0
 16 14  2  0  0  0  0
 17 16  1  0  0  0  0
 18  9  2  0  0  0  0
 18 16  1  0  0  0  0
 19 18  1  0  0  0  0
 20 21  1  0  0  0  0
 21 22  1  0  0  0  0
 23 21  2  0  0  0  0
 23 24  1  0  0  0  0
 25 23  1  0  0  0  0
 26 25  1  0  0  0  0
 27 25  2  0  0  0  0
 28 27  1  0  0  0  0
 29 27  1  0  0  0  0
 29 20  2  0  0  0  0
 30 29  1  0  0  0  0
 31 32  1  0  0  0  0
 32 33  1  0  0  0  0
 32 34  2  0  0  0  0
 34 35  1  0  0  0  0
 36 34  1  0  0  0  0
 36 37  1  0  0  0  0
 38 36  2  0  0  0  0
 39 38  1  0  0  0  0
 40 31  2  0  0  0  0
 40 38  1  0  0  0  0
 41 43  1  0  0  0  0
 41  4  1  0  0  0  0
 42 41  1  0  0  0  0
 44 41  1  0  0  0  0
 45  4  1  0  0  0  0
 45 48  1  0  0  0  0
 45 47  1  0  0  0  0
 46 45  1  0  0  0  0
 49  1  1  0  0  0  0
 50 49  1  0  0  0  0
 50 51  1  0  0  0  0
 52 50  2  0  0  0  0
 53 52  1  0  0  0  0
 54 56  2  0  0  0  0
 54 52  1  0  0  0  0
 55 54  1  0  0  0  0
 56 58  1  0  0  0  0
 57 56  1  0  0  0  0
 58 59  1  0  0  0  0
 58 49  2  0  0  0  0
 60 69  1  0  0  0  0
 61 60  2  0  0  0  0
 61 63  1  0  0  0  0
 62 61  1  0  0  0  0
 63 65  2  0  0  0  0
 64 63  1  0  0  0  0
 65 67  1  0  0  0  0
 65 66  1  0  0  0  0
 67 68  1  0  0  0  0
 69 70  1  0  0  0  0
 69 67  2  0  0  0  0
M  END
