1,2
q = 0.0, confidence = 0.986

 40 42  0  0  0  0  0  0  0  0999 V2000
    1.8716    0.1930   -0.1046 P   0  0  0  0  0  0  0  0  0  0  0  0
    1.1564   -2.4253    0.9590 N   0  0  0  0  0  2  0  0  0  0  0  0
    1.7243    1.9960   -0.3306 C   0  0  0  0  0  0  0  0  0  0  0  0
    2.3239   -2.4464    1.5404 C   0  0  0  0  0  3  0  0  0  0  0  0
    2.7269   -3.4367    1.8327 H   0  0  0  0  0  0  0  0  0  0  0  0
    3.0891   -0.0361    1.2396 C   0  0  0  0  0  0  0  0  0  0  0  0
    3.1861   -1.3122    1.8640 C   0  0  0  0  0  0  0  0  0  0  0  0
    2.6596   -0.4624   -1.6172 C   0  0  0  0  0  0  0  0  0  0  0  0
    1.1176    2.7512    0.6987 C   0  0  0  0  0  0  0  0  0  0  0  0
    0.7527    2.2513    1.6094 H   0  0  0  0  0  0  0  0  0  0  0  0
    4.5996   -1.1317   -2.9205 C   0  0  0  0  0  0  0  0  0  0  0  0
    5.6881   -1.2674   -3.0069 H   0  0  0  0  0  0  0  0  0  0  0  0
    2.0209    4.0244   -1.6397 C   0  0  0  0  0  0  0  0  0  0  0  0
    2.3721    4.5222   -2.5557 H   0  0  0  0  0  0  0  0  0  0  0  0
    0.9789    4.1378    0.5571 C   0  0  0  0  0  0  0  0  0  0  0  0
    0.5117    4.7245    1.3622 H   0  0  0  0  0  0  0  0  0  0  0  0
    1.8160   -0.7953   -2.6996 C   0  0  0  0  0  0  0  0  0  0  0  0
    0.7261   -0.6620   -2.6066 H   0  0  0  0  0  0  0  0  0  0  0  0
    2.3716   -1.2821   -3.8908 C   0  0  0  0  0  0  0  0  0  0  0  0
    1.7153   -1.5357   -4.7366 H   0  0  0  0  0  0  0  0  0  0  0  0
    4.1974   -1.5241    2.8289 C   0  0  0  0  0  0  0  0  0  0  0  0
    4.2907   -2.5160    3.2980 H   0  0  0  0  0  0  0  0  0  0  0  0
    2.1704    2.6354   -1.5042 C   0  0  0  0  0  0  0  0  0  0  0  0
    2.6373    2.0488   -2.3092 H   0  0  0  0  0  0  0  0  0  0  0  0
    3.9725    0.9900    1.6122 C   0  0  0  0  0  0  0  0  0  0  0  0
    3.9000    1.9722    1.1221 H   0  0  0  0  0  0  0  0  0  0  0  0
    4.0536   -0.6355   -1.7269 C   0  0  0  0  0  0  0  0  0  0  0  0
    4.7120   -0.3828   -0.8821 H   0  0  0  0  0  0  0  0  0  0  0  0
    3.7619   -1.4528   -4.0007 C   0  0  0  0  0  0  0  0  0  0  0  0
    4.1952   -1.8415   -4.9344 H   0  0  0  0  0  0  0  0  0  0  0  0
    0.5431   -3.7271    0.6784 C   0  0  0  0  0  0  0  0  0  0  0  0
    0.2499   -3.7742   -0.3888 H   0  0  0  0  0  0  0  0  0  0  0  0
   -0.3803   -3.8476    1.2795 H   0  0  0  0  0  0  0  0  0  0  0  0
    1.2371   -4.5618    0.9052 H   0  0  0  0  0  0  0  0  0  0  0  0
    1.4286    4.7748   -0.6122 C   0  0  0  0  0  0  0  0  0  0  0  0
    1.3140    5.8635   -0.7231 H   0  0  0  0  0  0  0  0  0  0  0  0
    5.0626   -0.4895    3.2064 C   0  0  0  0  0  0  0  0  0  0  0  0
    5.8309   -0.6691    3.9725 H   0  0  0  0  0  0  0  0  0  0  0  0
    4.9475    0.7705    2.6012 C   0  0  0  0  0  0  0  0  0  0  0  0
    5.6258    1.5876    2.8884 H   0  0  0  0  0  0  0  0  0  0  0  0
  1  6  1  0  0  0  0
  2  4  1  0  0  0  0
  3  1  1  0  0  0  0
  3  9  1  0  0  0  0
  4  5  1  0  0  0  0
  4  7  1  0  0  0  0
  6 25  2  0  0  0  0
  6  7  1  0  0  0  0
  7 21  2  0  0  0  0
  8  1  1  0  0  0  0
  9 10  1  0  0  0  0
 11 27  2  0  0  0  0
 12 11  1  0  0  0  0
 13 23  1  0  0  0  0
 13 35  2  0  0  0  0
 14 13  1  0  0  0  0
 15  9  2  0  0  0  0
 15 16  1  0  0  0  0
 17 18  1  0  0  0  0
 17  8  2  0  0  0  0
 19 17  1  0  0  0  0
 20 19  1  0  0  0  0
 21 37  1  0  0  0  0
 21 22  1  0  0  0  0
 23  3  2  0  0  0  0
 24 23  1  0  0  0  0
 25 39  1  0  0  0  0
 26 25  1  0  0  0  0
 27  8  1  0  0  0  0
 27 28  1  0  0  0  0
 29 19  2  0  0  0  0
 29 11  1  0  0  0  0
 30 29  1  0  0  0  0
 31 34  1  0  0  0  0
 31  2  1  0  0  0  0
 31 33  1  0  0  0  0
 32 31  1  0  0  0  0
 35 15  1  0  0  0  0
 36 35  1  0  0  0  0
 37 38  1  0  0  0  0
 39 40  1  0  0  0  0
 39 37  2  0  0  0  0
M  END
