1,36
 OpenBabel05122313063D

 60 63  0  0  0  0  0  0  0  0999 V2000
    1.4958    0.6442   -0.1955 P   0  0  0  0  0  0  0  0  0  0  0  0
    0.4136    1.0580   -1.6215 C   0  0  0  0  0  0  0  0  0  0  0  0
   -0.0597    2.3679   -1.8436 C   0  0  0  0  0  0  0  0  0  0  0  0
    0.2102    3.1771   -1.1479 H   0  0  0  0  0  0  0  0  0  0  0  0
   -0.8808    2.6384   -2.9476 C   0  0  0  0  0  0  0  0  0  0  0  0
   -1.2540    3.6600   -3.1152 H   0  0  0  0  0  0  0  0  0  0  0  0
   -1.2380    1.6036   -3.8296 C   0  0  0  0  0  0  0  0  0  0  0  0
   -1.8930    1.8155   -4.6881 H   0  0  0  0  0  0  0  0  0  0  0  0
   -0.7637    0.3004   -3.6130 C   0  0  0  0  0  0  0  0  0  0  0  0
   -1.0428   -0.5109   -4.3017 H   0  0  0  0  0  0  0  0  0  0  0  0
    0.0636    0.0251   -2.5133 C   0  0  0  0  0  0  0  0  0  0  0  0
    0.4440   -0.9920   -2.3278 H   0  0  0  0  0  0  0  0  0  0  0  0
    3.0964    1.4727   -0.5176 C   0  0  0  0  0  0  0  0  0  0  0  0
    4.1088    1.3243    0.4544 C   0  0  0  0  0  0  0  0  0  0  0  0
    3.9258    0.6988    1.3415 H   0  0  0  0  0  0  0  0  0  0  0  0
    5.3455    1.9536    0.2742 C   0  0  0  0  0  0  0  0  0  0  0  0
    6.1333    1.8334    1.0328 H   0  0  0  0  0  0  0  0  0  0  0  0
    5.5874    2.7173   -0.8813 C   0  0  0  0  0  0  0  0  0  0  0  0
    6.5646    3.2027   -1.0252 H   0  0  0  0  0  0  0  0  0  0  0  0
    4.5885    2.8486   -1.8564 C   0  0  0  0  0  0  0  0  0  0  0  0
    4.7791    3.4336   -2.7688 H   0  0  0  0  0  0  0  0  0  0  0  0
    3.3408    2.2278   -1.6780 C   0  0  0  0  0  0  0  0  0  0  0  0
    2.5637    2.3249   -2.4499 H   0  0  0  0  0  0  0  0  0  0  0  0
    0.7939    1.5991    1.2104 C   0  0  0  0  0  0  0  0  0  0  0  0
    1.2190    2.9168    1.4624 C   0  0  0  0  0  0  0  0  0  0  0  0
    2.0028    3.3584    0.8289 H   0  0  0  0  0  0  0  0  0  0  0  0
    0.6744    3.6642    2.5183 C   0  0  0  0  0  0  0  0  0  0  0  0
    1.0310    4.6885    2.7040 H   0  0  0  0  0  0  0  0  0  0  0  0
   -0.3206    3.0999    3.3307 C   0  0  0  0  0  0  0  0  0  0  0  0
   -0.7561    3.6771    4.1599 H   0  0  0  0  0  0  0  0  0  0  0  0
   -0.7634    1.7980    3.0788 C   0  0  0  0  0  0  0  0  0  0  0  0
   -1.5574    1.3592    3.7017 H   0  0  0  0  0  0  0  0  0  0  0  0
   -0.2074    1.0162    2.0380 C   0  0  0  0  0  0  0  0  0  0  0  0
   -0.7577   -0.3298    1.8893 C   0  0  0  0  0  3  0  0  0  0  0  0
   -1.7545   -0.4665    2.3514 H   0  0  0  0  0  0  0  0  0  0  0  0
   -0.2288   -1.3786    1.3215 N   0  0  0  0  0  2  0  0  0  0  0  0
   -1.0452   -2.6071    1.3069 C   0  0  0  0  0  0  0  0  0  0  0  0
   -1.9354   -2.4524    1.9531 H   0  0  0  0  0  0  0  0  0  0  0  0
   -0.4050   -3.4087    1.7300 H   0  0  0  0  0  0  0  0  0  0  0  0
   -1.4456   -3.0091   -0.1181 C   0  0  0  0  0  0  0  0  0  0  0  0
   -0.5108   -3.1467   -0.7002 H   0  0  0  0  0  0  0  0  0  0  0  0
   -1.9179   -4.0134   -0.0591 H   0  0  0  0  0  0  0  0  0  0  0  0
   -2.3781   -2.0163   -0.8247 C   0  0  0  0  0  0  0  0  0  0  0  0
   -1.9790   -0.9860   -0.7080 H   0  0  0  0  0  0  0  0  0  0  0  0
   -2.3755   -2.2096   -1.9174 H   0  0  0  0  0  0  0  0  0  0  0  0
   -3.8150   -2.0760   -0.3166 C   0  0  0  0  0  0  0  0  0  0  0  0
   -3.8824   -1.9693    0.7851 H   0  0  0  0  0  0  0  0  0  0  0  0
   -4.3000   -3.0383   -0.5816 H   0  0  0  0  0  0  0  0  0  0  0  0
   -5.0019   -0.6837   -1.0775 Se  0  0  0  0  0  0  0  0  0  0  0  0
   -4.3621    0.7734    0.0230 C   0  0  0  0  0  0  0  0  0  0  0  0
   -4.9638    1.0192    1.2732 C   0  0  0  0  0  0  0  0  0  0  0  0
   -5.7818    0.3675    1.6158 H   0  0  0  0  0  0  0  0  0  0  0  0
   -4.5314    2.0974    2.0625 C   0  0  0  0  0  0  0  0  0  0  0  0
   -5.0130    2.2906    3.0337 H   0  0  0  0  0  0  0  0  0  0  0  0
   -3.5007    2.9348    1.6060 C   0  0  0  0  0  0  0  0  0  0  0  0
   -3.1652    3.7837    2.2200 H   0  0  0  0  0  0  0  0  0  0  0  0
   -2.8938    2.6849    0.3656 C   0  0  0  0  0  0  0  0  0  0  0  0
   -2.0763    3.3300    0.0111 H   0  0  0  0  0  0  0  0  0  0  0  0
   -3.3217    1.6091   -0.4286 C   0  0  0  0  0  0  0  0  0  0  0  0
   -2.8527    1.4190   -1.4048 H   0  0  0  0  0  0  0  0  0  0  0  0
  1 24  1  0  0  0  0
  2  1  1  0  0  0  0
  3  2  1  0  0  0  0
  3  4  1  0  0  0  0
  5  3  2  0  0  0  0
  6  5  1  0  0  0  0
  7  9  2  0  0  0  0
  7  5  1  0  0  0  0
  8  7  1  0  0  0  0
  9 11  1  0  0  0  0
 10  9  1  0  0  0  0
 11 12  1  0  0  0  0
 11  2  2  0  0  0  0
 13  1  1  0  0  0  0
 13 14  1  0  0  0  0
 14 15  1  0  0  0  0
 16 14  2  0  0  0  0
 16 17  1  0  0  0  0
 18 16  1  0  0  0  0
 19 18  1  0  0  0  0
 20 22  1  0  0  0  0
 20 18  2  0  0  0  0
 21 20  1  0  0  0  0
 22 13  2  0  0  0  0
 23 22  1  0  0  0  0
 24 25  2  0  0  0  0
 24 33  1  0  0  0  0
 25 27  1  0  0  0  0
 26 25  1  0  0  0  0
 27 28  1  0  0  0  0
 27 29  2  0  0  0  0
 29 30  1  0  0  0  0
 31 29  1  0  0  0  0
 31 32  1  0  0  0  0
 33 31  2  0  0  0  0
 34 33  1  0  0  0  0
 34 35  1  0  0  0  0
 36 34  1  0  0  0  0
 37 36  1  0  0  0  0
 37 39  1  0  0  0  0
 37 38  1  0  0  0  0
 40 42  1  0  0  0  0
 40 37  1  0  0  0  0
 41 40  1  0  0  0  0
 43 44  1  0  0  0  0
 43 46  1  0  0  0  0
 43 40  1  0  0  0  0
 45 43  1  0  0  0  0
 46 47  1  0  0  0  0
 48 46  1  0  0  0  0
 49 46  1  0  0  0  0
 49 50  1  0  0  0  0
 50 51  1  0  0  0  0
 51 52  1  0  0  0  0
 51 53  2  0  0  0  0
 53 54  1  0  0  0  0
 55 53  1  0  0  0  0
 55 56  1  0  0  0  0
 57 55  2  0  0  0  0
 58 57  1  0  0  0  0
 59 50  2  0  0  0  0
 59 57  1  0  0  0  0
 60 59  1  0  0  0  0
M  END
