1,4
 OpenBabel05122313063D

 73 76  0  0  0  0  0  0  0  0999 V2000
   -1.4525   -0.0791    0.2524 P   0  0  0  0  0  0  0  0  0  0  0  0
   -2.2069   -2.6124   -0.8505 O   0  0  0  0  0  0  0  0  0  0  0  0
   -1.7798    2.3809   -1.2098 O   0  0  0  0  0  0  0  0  0  0  0  0
    1.6047   -0.2903    0.5168 N   0  0  0  0  0  2  0  0  0  0  0  0
    3.9884   -0.7950    0.1245 C   0  0  0  0  0  0  0  0  0  0  0  0
    5.2827   -0.3021   -0.1299 C   0  0  0  0  0  0  0  0  0  0  0  0
    5.5242    1.0667   -0.2840 C   0  0  0  0  0  0  0  0  0  0  0  0
    4.4610    1.9772   -0.2080 C   0  0  0  0  0  0  0  0  0  0  0  0
    3.1506    1.5397    0.0409 C   0  0  0  0  0  0  0  0  0  0  0  0
    2.9400    0.1512    0.2356 C   0  0  0  0  0  0  0  0  0  0  0  0
    3.7472   -2.2993    0.1994 C   0  0  0  0  0  0  0  0  0  0  0  0
    4.3891   -2.9170    1.4536 C   0  0  0  0  0  0  0  0  0  0  0  0
    4.2180   -3.0020   -1.0854 C   0  0  0  0  0  0  0  0  0  0  0  0
    1.9850    2.5094    0.1637 C   0  0  0  0  0  0  0  0  0  0  0  0
    1.8194    2.9785    1.6196 C   0  0  0  0  0  0  0  0  0  0  0  0
    2.0709    3.6945   -0.8032 C   0  0  0  0  0  0  0  0  0  0  0  0
    1.3923   -0.7413    1.7139 C   0  0  0  0  0  3  0  0  0  0  0  0
    0.1544   -1.2996    2.2693 C   0  0  0  0  0  0  0  0  0  0  0  0
    0.3151   -2.0559    3.4562 C   0  0  0  0  0  0  0  0  0  0  0  0
   -0.7711   -2.6711    4.0867 C   0  0  0  0  0  0  0  0  0  0  0  0
   -2.0573   -2.5157    3.5492 C   0  0  0  0  0  0  0  0  0  0  0  0
   -2.2422   -1.7408    2.3938 C   0  0  0  0  0  0  0  0  0  0  0  0
   -1.1571   -1.1304    1.7399 C   0  0  0  0  0  0  0  0  0  0  0  0
   -3.1448   -0.5415   -0.2787 C   0  0  0  0  0  0  0  0  0  0  0  0
   -4.2408    0.3345   -0.2278 C   0  0  0  0  0  0  0  0  0  0  0  0
   -5.4801   -0.0347   -0.7754 C   0  0  0  0  0  0  0  0  0  0  0  0
   -5.6198   -1.2887   -1.3875 C   0  0  0  0  0  0  0  0  0  0  0  0
   -4.5402   -2.1845   -1.4472 C   0  0  0  0  0  0  0  0  0  0  0  0
   -3.3034   -1.8185   -0.8834 C   0  0  0  0  0  0  0  0  0  0  0  0
   -2.1579   -3.7779   -1.6559 C   0  0  0  0  0  0  0  0  0  0  0  0
   -1.6636    1.5946    0.9962 C   0  0  0  0  0  0  0  0  0  0  0  0
   -1.6645    1.8365    2.3803 C   0  0  0  0  0  0  0  0  0  0  0  0
   -1.7554    3.1440    2.8856 C   0  0  0  0  0  0  0  0  0  0  0  0
   -1.8387    4.2245    1.9964 C   0  0  0  0  0  0  0  0  0  0  0  0
   -1.8369    4.0129    0.6080 C   0  0  0  0  0  0  0  0  0  0  0  0
   -1.7582    2.7001    0.1040 C   0  0  0  0  0  0  0  0  0  0  0  0
   -1.6991    3.3981   -2.1940 C   0  0  0  0  0  0  0  0  0  0  0  0
    2.2493   -0.7470    2.4200 H   0  0  0  0  0  0  0  0  0  0  0  0
    6.1157   -1.0150   -0.2279 H   0  0  0  0  0  0  0  0  0  0  0  0
    6.5450    1.4273   -0.4824 H   0  0  0  0  0  0  0  0  0  0  0  0
    4.6536    3.0509   -0.3490 H   0  0  0  0  0  0  0  0  0  0  0  0
    2.6530   -2.4633    0.2613 H   0  0  0  0  0  0  0  0  0  0  0  0
    4.1883   -4.0072    1.5039 H   0  0  0  0  0  0  0  0  0  0  0  0
    4.0046   -2.4538    2.3860 H   0  0  0  0  0  0  0  0  0  0  0  0
    5.4904   -2.7788    1.4498 H   0  0  0  0  0  0  0  0  0  0  0  0
    3.9598   -4.0809   -1.0516 H   0  0  0  0  0  0  0  0  0  0  0  0
    5.3176   -2.9270   -1.2151 H   0  0  0  0  0  0  0  0  0  0  0  0
    3.7250   -2.5430   -1.9650 H   0  0  0  0  0  0  0  0  0  0  0  0
    1.0710    1.9355   -0.1117 H   0  0  0  0  0  0  0  0  0  0  0  0
    1.6897    2.1214    2.3108 H   0  0  0  0  0  0  0  0  0  0  0  0
    0.9304    3.6320    1.7271 H   0  0  0  0  0  0  0  0  0  0  0  0
    2.7140    3.5450    1.9535 H   0  0  0  0  0  0  0  0  0  0  0  0
    2.1694    3.3450   -1.8502 H   0  0  0  0  0  0  0  0  0  0  0  0
    2.9280    4.3626   -0.5777 H   0  0  0  0  0  0  0  0  0  0  0  0
    1.1537    4.3141   -0.7221 H   0  0  0  0  0  0  0  0  0  0  0  0
    1.3280   -2.1695    3.8736 H   0  0  0  0  0  0  0  0  0  0  0  0
   -0.6142   -3.2673    4.9978 H   0  0  0  0  0  0  0  0  0  0  0  0
   -2.9246   -2.9883    4.0348 H   0  0  0  0  0  0  0  0  0  0  0  0
   -3.2553   -1.5989    1.9884 H   0  0  0  0  0  0  0  0  0  0  0  0
   -4.1171    1.3210    0.2432 H   0  0  0  0  0  0  0  0  0  0  0  0
   -6.3312    0.6601   -0.7288 H   0  0  0  0  0  0  0  0  0  0  0  0
   -6.5850   -1.5829   -1.8274 H   0  0  0  0  0  0  0  0  0  0  0  0
   -4.6655   -3.1646   -1.9266 H   0  0  0  0  0  0  0  0  0  0  0  0
   -2.3818   -3.5415   -2.7185 H   0  0  0  0  0  0  0  0  0  0  0  0
   -2.8640   -4.5576   -1.2938 H   0  0  0  0  0  0  0  0  0  0  0  0
   -1.1222   -4.1562   -1.5818 H   0  0  0  0  0  0  0  0  0  0  0  0
   -1.5891    0.9868    3.0747 H   0  0  0  0  0  0  0  0  0  0  0  0
   -1.7542    3.3148    3.9718 H   0  0  0  0  0  0  0  0  0  0  0  0
   -1.9041    5.2533    2.3819 H   0  0  0  0  0  0  0  0  0  0  0  0
   -1.9031    4.8680   -0.0780 H   0  0  0  0  0  0  0  0  0  0  0  0
   -1.6327    2.8727   -3.1636 H   0  0  0  0  0  0  0  0  0  0  0  0
   -0.7903    4.0220   -2.0556 H   0  0  0  0  0  0  0  0  0  0  0  0
   -2.6011    4.0490   -2.1848 H   0  0  0  0  0  0  0  0  0  0  0  0
  1 31  1  0  0  0  0
  1 23  1  0  0  0  0
  3 36  1  0  0  0  0
  4 17  1  0  0  0  0
  5 11  1  0  0  0  0
  5 10  1  0  0  0  0
  6  5  2  0  0  0  0
  7  8  2  0  0  0  0
  7  6  1  0  0  0  0
  8  9  1  0  0  0  0
  9 14  1  0  0  0  0
  9 10  2  0  0  0  0
 10  4  1  0  0  0  0
 11 42  1  0  0  0  0
 11 12  1  0  0  0  0
 12 43  1  0  0  0  0
 12 44  1  0  0  0  0
 13 46  1  0  0  0  0
 13 11  1  0  0  0  0
 14 15  1  0  0  0  0
 15 51  1  0  0  0  0
 15 52  1  0  0  0  0
 15 50  1  0  0  0  0
 16 55  1  0  0  0  0
 16 54  1  0  0  0  0
 16 14  1  0  0  0  0
 17 18  1  0  0  0  0
 17 38  1  0  0  0  0
 18 19  1  0  0  0  0
 19 56  1  0  0  0  0
 19 20  2  0  0  0  0
 20 57  1  0  0  0  0
 21 58  1  0  0  0  0
 21 20  1  0  0  0  0
 22 21  2  0  0  0  0
 23 18  2  0  0  0  0
 23 22  1  0  0  0  0
 24 25  1  0  0  0  0
 24  1  1  0  0  0  0
 25 60  1  0  0  0  0
 26 61  1  0  0  0  0
 26 25  2  0  0  0  0
 27 26  1  0  0  0  0
 28 27  2  0  0  0  0
 28 29  1  0  0  0  0
 29  2  1  0  0  0  0
 29 24  2  0  0  0  0
 30 66  1  0  0  0  0
 30 65  1  0  0  0  0
 30  2  1  0  0  0  0
 31 32  1  0  0  0  0
 32 33  2  0  0  0  0
 32 67  1  0  0  0  0
 33 68  1  0  0  0  0
 34 69  1  0  0  0  0
 34 33  1  0  0  0  0
 35 34  2  0  0  0  0
 36 35  1  0  0  0  0
 36 31  2  0  0  0  0
 37 73  1  0  0  0  0
 37 72  1  0  0  0  0
 37  3  1  0  0  0  0
 39  6  1  0  0  0  0
 40  7  1  0  0  0  0
 41  8  1  0  0  0  0
 45 12  1  0  0  0  0
 47 13  1  0  0  0  0
 48 13  1  0  0  0  0
 49 14  1  0  0  0  0
 53 16  1  0  0  0  0
 59 22  1  0  0  0  0
 62 27  1  0  0  0  0
 63 28  1  0  0  0  0
 64 30  1  0  0  0  0
 70 35  1  0  0  0  0
 71 37  1  0  0  0  0
M  END
