1,4
 OpenBabel05122313063D

 54 57  0  0  1  0  0  0  0  0999 V2000
    1.2207   -1.3354    1.1951 N   0  0  0  0  0  2  0  0  0  0  0  0
    1.3017    3.0153    1.3723 O   0  0  0  0  0  0  0  0  0  0  0  0
    1.2083    0.6173   -2.6654 O   0  0  0  0  0  0  0  0  0  0  0  0
   -1.2251   -0.0093    0.2457 P   0  0  1  0  0  0  0  0  0  0  0  0
   -1.2922    1.6048   -0.6462 C   0  0  0  0  0  0  0  0  0  0  0  0
   -0.0856    2.2965   -0.9421 C   0  0  0  0  0  0  0  0  0  0  0  0
   -0.1602    3.5192   -1.6358 C   0  0  0  0  0  0  0  0  0  0  0  0
    0.7772    4.0524   -1.8538 H   0  0  0  0  0  0  0  0  0  0  0  0
   -1.3878    4.0412   -2.0662 C   0  0  0  0  0  0  0  0  0  0  0  0
   -1.4178    4.9957   -2.6133 H   0  0  0  0  0  0  0  0  0  0  0  0
   -2.5699    3.3311   -1.8153 C   0  0  0  0  0  0  0  0  0  0  0  0
   -3.5382    3.7170   -2.1681 H   0  0  0  0  0  0  0  0  0  0  0  0
   -2.5204    2.1209   -1.1089 C   0  0  0  0  0  0  0  0  0  0  0  0
   -3.4520    1.5708   -0.9143 H   0  0  0  0  0  0  0  0  0  0  0  0
    1.2607    1.7427   -0.6076 C   0  0  0  0  0  0  0  0  0  0  0  0
    1.9651    2.1384    0.5508 C   0  0  0  0  0  0  0  0  0  0  0  0
    3.2466    1.6247    0.8332 C   0  0  0  0  0  0  0  0  0  0  0  0
    3.7857    1.9119    1.7439 H   0  0  0  0  0  0  0  0  0  0  0  0
    3.8204    0.7120   -0.0629 C   0  0  0  0  0  0  0  0  0  0  0  0
    4.8102    0.2887    0.1653 H   0  0  0  0  0  0  0  0  0  0  0  0
    3.1684    0.3263   -1.2387 C   0  0  0  0  0  0  0  0  0  0  0  0
    3.6320   -0.4026   -1.9133 H   0  0  0  0  0  0  0  0  0  0  0  0
    1.8950    0.8624   -1.5262 C   0  0  0  0  0  0  0  0  0  0  0  0
    1.9998    3.5570    2.4781 C   0  0  0  0  0  0  0  0  0  0  0  0
    2.2818    2.7762    3.2195 H   0  0  0  0  0  0  0  0  0  0  0  0
    1.3119    4.2776    2.9583 H   0  0  0  0  0  0  0  0  0  0  0  0
    2.9219    4.0913    2.1589 H   0  0  0  0  0  0  0  0  0  0  0  0
    1.7623   -0.2953   -3.6091 C   0  0  0  0  0  0  0  0  0  0  0  0
    2.7389    0.0729   -3.9946 H   0  0  0  0  0  0  0  0  0  0  0  0
    1.0384   -0.3420   -4.4427 H   0  0  0  0  0  0  0  0  0  0  0  0
    1.8786   -1.3080   -3.1629 H   0  0  0  0  0  0  0  0  0  0  0  0
   -0.4307    0.3615    1.9033 C   0  0  0  0  0  0  0  0  0  0  0  0
   -0.2209    1.4483    1.9826 H   0  0  0  0  0  0  0  0  0  0  0  0
   -1.1754    0.1125    2.6875 H   0  0  0  0  0  0  0  0  0  0  0  0
    0.8325   -0.4319    2.1303 C   0  0  1  0  0  3  0  0  0  0  0  0
    1.5851   -0.2415    3.3049 C   0  0  0  0  0  0  0  0  0  0  0  0
    1.2385    0.4859    4.0539 H   0  0  0  0  0  0  0  0  0  0  0  0
    2.7576   -0.9775    3.5049 C   0  0  0  0  0  0  0  0  0  0  0  0
    3.3539   -0.8382    4.4195 H   0  0  0  0  0  0  0  0  0  0  0  0
    3.1560   -1.8905    2.5181 C   0  0  0  0  0  0  0  0  0  0  0  0
    4.0717   -2.4895    2.6240 H   0  0  0  0  0  0  0  0  0  0  0  0
    2.3585   -2.0395    1.3797 C   0  0  0  0  0  0  0  0  0  0  0  0
    2.5941   -2.7427    0.5598 H   0  0  0  0  0  0  0  0  0  0  0  0
   -2.9705   -0.3456    0.7239 C   0  0  0  0  0  0  0  0  0  0  0  0
   -3.5511   -1.5793    0.3740 C   0  0  0  0  0  0  0  0  0  0  0  0
   -2.9609   -2.2992   -0.2124 H   0  0  0  0  0  0  0  0  0  0  0  0
   -4.8598   -1.8839    0.7825 C   0  0  0  0  0  0  0  0  0  0  0  0
   -5.3058   -2.8506    0.5040 H   0  0  0  0  0  0  0  0  0  0  0  0
   -5.5923   -0.9633    1.5465 C   0  0  0  0  0  0  0  0  0  0  0  0
   -6.6170   -1.2044    1.8680 H   0  0  0  0  0  0  0  0  0  0  0  0
   -5.0155    0.2673    1.9053 C   0  0  0  0  0  0  0  0  0  0  0  0
   -5.5866    0.9906    2.5072 H   0  0  0  0  0  0  0  0  0  0  0  0
   -3.7111    0.5769    1.4962 C   0  0  0  0  0  0  0  0  0  0  0  0
   -3.2679    1.5467    1.7728 H   0  0  0  0  0  0  0  0  0  0  0  0
  1 42  1  0  0  0  0
  1 35  1  0  0  0  0
  2 24  1  0  0  0  0
  3 23  1  0  0  0  0
  4 44  1  0  0  0  0
  4 32  1  1  0  0  0
  5  4  1  0  0  0  0
  6  5  1  0  0  0  0
  6 15  1  0  0  0  0
  7  6  2  0  0  0  0
  8  7  1  0  0  0  0
  9 11  2  0  0  0  0
  9  7  1  0  0  0  0
 10  9  1  0  0  0  0
 11 13  1  0  0  0  0
 12 11  1  0  0  0  0
 13 14  1  0  0  0  0
 13  5  2  0  0  0  0
 15 16  1  0  0  0  0
 16 17  2  0  0  0  0
 16  2  1  0  0  0  0
 17 18  1  0  0  0  0
 19 20  1  0  0  0  0
 19 17  1  0  0  0  0
 21 19  2  0  0  0  0
 22 21  1  0  0  0  0
 23 21  1  0  0  0  0
 23 15  2  0  0  0  0
 24 26  1  0  0  0  0
 24 25  1  0  0  0  0
 27 24  1  0  0  0  0
 28 31  1  0  0  0  0
 28  3  1  0  0  0  0
 29 28  1  0  0  0  0
 30 28  1  0  0  0  0
 32 33  1  0  0  0  0
 32 34  1  0  0  0  0
 35 32  1  1  0  0  0
 35 36  1  0  0  0  0
 36 38  2  0  0  0  0
 36 37  1  0  0  0  0
 38 39  1  0  0  0  0
 40 41  1  0  0  0  0
 40 38  1  0  0  0  0
 42 40  2  0  0  0  0
 43 42  1  0  0  0  0
 44 53  1  0  0  0  0
 45 44  2  0  0  0  0
 45 47  1  0  0  0  0
 46 45  1  0  0  0  0
 47 49  2  0  0  0  0
 48 47  1  0  0  0  0
 49 50  1  0  0  0  0
 49 51  1  0  0  0  0
 51 52  1  0  0  0  0
 53 54  1  0  0  0  0
 53 51  2  0  0  0  0
M  END
