1,4
 OpenBabel05122313063D

 54 57  0  0  1  0  0  0  0  0999 V2000
   -1.2769   -0.5959    1.5679 N   0  0  0  0  0  2  0  0  0  0  0  0
   -0.9994    0.0381   -2.6898 O   0  0  0  0  0  0  0  0  0  0  0  0
   -1.5111    3.5293    0.3977 O   0  0  0  0  0  0  0  0  0  0  0  0
    1.1258    0.3775    0.4282 P   0  0  1  0  0  0  0  0  0  0  0  0
    0.2822    1.3054    1.8125 C   0  0  0  0  0  0  0  0  0  0  0  0
    0.9857    1.3927    2.6653 H   0  0  0  0  0  0  0  0  0  0  0  0
    0.0246    2.3343    1.4854 H   0  0  0  0  0  0  0  0  0  0  0  0
   -0.9545    0.5636    2.2253 C   0  0  1  0  0  3  0  0  0  0  0  0
   -1.7579    1.0625    3.2645 C   0  0  0  0  0  0  0  0  0  0  0  0
   -1.4433    1.9850    3.7738 H   0  0  0  0  0  0  0  0  0  0  0  0
   -2.9290    0.3961    3.6360 C   0  0  0  0  0  0  0  0  0  0  0  0
   -3.5619    0.7801    4.4501 H   0  0  0  0  0  0  0  0  0  0  0  0
   -3.2703   -0.7682    2.9354 C   0  0  0  0  0  0  0  0  0  0  0  0
   -4.1824   -1.3362    3.1678 H   0  0  0  0  0  0  0  0  0  0  0  0
   -2.4290   -1.2271    1.9220 C   0  0  0  0  0  0  0  0  0  0  0  0
   -2.6424   -2.1466    1.3510 H   0  0  0  0  0  0  0  0  0  0  0  0
    1.2842    1.6041   -0.9295 C   0  0  0  0  0  0  0  0  0  0  0  0
    0.1048    2.1851   -1.4671 C   0  0  0  0  0  0  0  0  0  0  0  0
    0.2332    3.1623   -2.4718 C   0  0  0  0  0  0  0  0  0  0  0  0
   -0.6818    3.6142   -2.8827 H   0  0  0  0  0  0  0  0  0  0  0  0
    1.4912    3.5315   -2.9677 C   0  0  0  0  0  0  0  0  0  0  0  0
    1.5671    4.2931   -3.7586 H   0  0  0  0  0  0  0  0  0  0  0  0
    2.6465    2.9061   -2.4763 C   0  0  0  0  0  0  0  0  0  0  0  0
    3.6356    3.1640   -2.8838 H   0  0  0  0  0  0  0  0  0  0  0  0
    2.5424    1.9438   -1.4626 C   0  0  0  0  0  0  0  0  0  0  0  0
    3.4471    1.4485   -1.0828 H   0  0  0  0  0  0  0  0  0  0  0  0
   -1.2535    1.7085   -1.0711 C   0  0  0  0  0  0  0  0  0  0  0  0
   -1.7781    0.5540   -1.7175 C   0  0  0  0  0  0  0  0  0  0  0  0
   -3.0492    0.0522   -1.3622 C   0  0  0  0  0  0  0  0  0  0  0  0
   -3.4287   -0.8727   -1.8119 H   0  0  0  0  0  0  0  0  0  0  0  0
   -3.8092    0.7397   -0.4108 C   0  0  0  0  0  0  0  0  0  0  0  0
   -4.7981    0.3472   -0.1291 H   0  0  0  0  0  0  0  0  0  0  0  0
   -3.3478    1.9190    0.1927 C   0  0  0  0  0  0  0  0  0  0  0  0
   -3.9726    2.4387    0.9289 H   0  0  0  0  0  0  0  0  0  0  0  0
   -2.0685    2.4013   -0.1489 C   0  0  0  0  0  0  0  0  0  0  0  0
   -1.4321   -1.1336   -3.3749 C   0  0  0  0  0  0  0  0  0  0  0  0
   -1.5650   -1.9831   -2.6709 H   0  0  0  0  0  0  0  0  0  0  0  0
   -0.6226   -1.3815   -4.0837 H   0  0  0  0  0  0  0  0  0  0  0  0
   -2.3754   -0.9404   -3.9324 H   0  0  0  0  0  0  0  0  0  0  0  0
   -2.3163    4.3364    1.2376 C   0  0  0  0  0  0  0  0  0  0  0  0
   -3.2300    4.6903    0.7113 H   0  0  0  0  0  0  0  0  0  0  0  0
   -1.6978    5.2099    1.5161 H   0  0  0  0  0  0  0  0  0  0  0  0
   -2.6247    3.8003    2.1628 H   0  0  0  0  0  0  0  0  0  0  0  0
    2.8099    0.1477    1.1285 C   0  0  0  0  0  0  0  0  0  0  0  0
    3.3166   -1.1471    1.3455 C   0  0  0  0  0  0  0  0  0  0  0  0
    2.7372   -2.0152    0.9980 H   0  0  0  0  0  0  0  0  0  0  0  0
    4.5580   -1.3176    1.9775 C   0  0  0  0  0  0  0  0  0  0  0  0
    4.9473   -2.3338    2.1414 H   0  0  0  0  0  0  0  0  0  0  0  0
    5.2998   -0.2021    2.3951 C   0  0  0  0  0  0  0  0  0  0  0  0
    6.2749   -0.3397    2.8868 H   0  0  0  0  0  0  0  0  0  0  0  0
    4.7953    1.0922    2.1862 C   0  0  0  0  0  0  0  0  0  0  0  0
    5.3723    1.9710    2.5122 H   0  0  0  0  0  0  0  0  0  0  0  0
    3.5532    1.2687    1.5596 C   0  0  0  0  0  0  0  0  0  0  0  0
    3.1642    2.2867    1.3997 H   0  0  0  0  0  0  0  0  0  0  0  0
  1 15  1  0  0  0  0
  1  8  1  0  0  0  0
  2 28  1  0  0  0  0
  3 40  1  0  0  0  0
  4 44  1  0  0  0  0
  4  5  1  1  0  0  0
  5  6  1  0  0  0  0
  7  5  1  0  0  0  0
  8  5  1  6  0  0  0
  8  9  1  0  0  0  0
  9 11  2  0  0  0  0
  9 10  1  0  0  0  0
 11 12  1  0  0  0  0
 13 14  1  0  0  0  0
 13 11  1  0  0  0  0
 15 13  2  0  0  0  0
 16 15  1  0  0  0  0
 17  4  1  0  0  0  0
 18 27  1  0  0  0  0
 18 17  2  0  0  0  0
 19 18  1  0  0  0  0
 20 19  1  0  0  0  0
 21 23  1  0  0  0  0
 21 19  2  0  0  0  0
 22 21  1  0  0  0  0
 23 25  2  0  0  0  0
 24 23  1  0  0  0  0
 25 26  1  0  0  0  0
 25 17  1  0  0  0  0
 27 35  1  0  0  0  0
 28 29  1  0  0  0  0
 28 27  2  0  0  0  0
 29 31  2  0  0  0  0
 30 29  1  0  0  0  0
 31 32  1  0  0  0  0
 31 33  1  0  0  0  0
 33 34  1  0  0  0  0
 35 33  2  0  0  0  0
 35  3  1  0  0  0  0
 36  2  1  0  0  0  0
 36 37  1  0  0  0  0
 38 36  1  0  0  0  0
 39 36  1  0  0  0  0
 40 42  1  0  0  0  0
 40 43  1  0  0  0  0
 41 40  1  0  0  0  0
 44 45  2  0  0  0  0
 44 53  1  0  0  0  0
 45 47  1  0  0  0  0
 46 45  1  0  0  0  0
 47 48  1  0  0  0  0
 47 49  2  0  0  0  0
 49 50  1  0  0  0  0
 51 49  1  0  0  0  0
 51 52  1  0  0  0  0
 53 51  2  0  0  0  0
 54 53  1  0  0  0  0
M  END
