2,3
 OpenBabel05122313063D

 29 30  0  0  0  0  0  0  0  0999 V2000
   -1.4783    0.6895    2.2399 Cl  0  0  0  0  0  0  0  0  0  0  0  0
   -1.6374    0.5347   -0.9697 P   0  0  1  0  0  0  0  0  0  0  0  0
   -2.1016   -2.3032   -0.2237 N   0  0  0  0  0  0  0  0  0  0  0  0
   -3.3239   -1.5072   -0.1351 C   0  0  0  0  0  0  0  0  0  0  0  0
   -4.5344   -2.0809    0.2836 C   0  0  0  0  0  0  0  0  0  0  0  0
   -5.6888   -1.2885    0.3716 C   0  0  0  0  0  0  0  0  0  0  0  0
   -5.6391    0.0751    0.0384 C   0  0  0  0  0  0  0  0  0  0  0  0
   -4.4307    0.6494   -0.3787 C   0  0  0  0  0  0  0  0  0  0  0  0
   -3.2686   -0.1391   -0.4647 C   0  0  0  0  0  0  0  0  0  0  0  0
   -1.8536    0.9432   -2.7475 C   0  0  0  0  0  0  0  0  0  0  0  0
   -1.4702    2.1331   -0.1023 C   0  0  0  0  0  0  0  0  0  0  0  0
   -1.3749    3.3544   -0.8033 C   0  0  0  0  0  0  0  0  0  0  0  0
   -1.1785    4.5633   -0.1221 C   0  0  0  0  0  0  0  0  0  0  0  0
   -1.0725    4.5686    1.2765 C   0  0  0  0  0  0  0  0  0  0  0  0
   -1.1655    3.3691    1.9970 C   0  0  0  0  0  0  0  0  0  0  0  0
   -1.3598    2.1648    1.3078 C   0  0  0  0  0  0  0  0  0  0  0  0
   -4.5764   -3.1501    0.5444 H   0  0  0  0  0  0  0  0  0  0  0  0
   -6.6340   -1.7408    0.7062 H   0  0  0  0  0  0  0  0  0  0  0  0
   -6.5444    0.6948    0.1142 H   0  0  0  0  0  0  0  0  0  0  0  0
   -4.3816    1.7235   -0.6161 H   0  0  0  0  0  0  0  0  0  0  0  0
   -2.6823    1.6610   -2.9032 H   0  0  0  0  0  0  0  0  0  0  0  0
   -0.9141    1.3498   -3.1683 H   0  0  0  0  0  0  0  0  0  0  0  0
   -2.0885   -0.0017   -3.2730 H   0  0  0  0  0  0  0  0  0  0  0  0
   -1.4504    3.3660   -1.8998 H   0  0  0  0  0  0  0  0  0  0  0  0
   -1.1067    5.5031   -0.6882 H   0  0  0  0  0  0  0  0  0  0  0  0
   -0.9160    5.5131    1.8182 H   0  0  0  0  0  0  0  0  0  0  0  0
   -1.0866    3.3567    3.0930 H   0  0  0  0  0  0  0  0  0  0  0  0
   -2.1651   -2.9364   -1.0366 H   0  0  0  0  0  0  0  0  0  0  0  0
   -2.0404   -2.9231    0.5971 H   0  0  0  0  0  0  0  0  0  0  0  0
  2 10  1  6  0  0  0
  2  9  1  0  0  0  0
  2 11  1  0  0  0  0
  3  4  1  0  0  0  0
  3 29  1  0  0  0  0
  4  5  1  0  0  0  0
  5  6  2  0  0  0  0
  5 17  1  0  0  0  0
  6 18  1  0  0  0  0
  7 19  1  0  0  0  0
  7  6  1  0  0  0  0
  8  7  2  0  0  0  0
  9  8  1  0  0  0  0
  9  4  2  0  0  0  0
 11 16  1  0  0  0  0
 12 13  1  0  0  0  0
 12 11  2  0  0  0  0
 13 14  2  0  0  0  0
 14 26  1  0  0  0  0
 14 15  1  0  0  0  0
 15 27  1  0  0  0  0
 16 15  2  0  0  0  0
 16  1  1  0  0  0  0
 20  8  1  0  0  0  0
 21 10  1  0  0  0  0
 22 10  1  0  0  0  0
 23 10  1  0  0  0  0
 24 12  1  0  0  0  0
 25 13  1  0  0  0  0
 28  3  1  0  0  0  0
M  END
