1,10
 OpenBabel05122313063D

 42 45  0  0  1  0  0  0  0  0999 V2000
   -1.9486    0.0770    0.3991 P   0  0  0  0  0  0  0  0  0  0  0  0
   -2.6518   -1.5055   -0.2308 C   0  0  0  0  0  0  0  0  0  0  0  0
   -3.8211   -2.0721    0.2765 C   0  0  0  0  0  0  0  0  0  0  0  0
   -4.3205   -3.2991   -0.2265 C   0  0  0  0  0  0  0  0  0  0  0  0
   -3.6384   -3.9647   -1.2353 C   0  0  0  0  0  0  0  0  0  0  0  0
   -2.4268   -3.4350   -1.7615 C   0  0  0  0  0  0  0  0  0  0  0  0
   -1.6745   -4.0913   -2.7775 C   0  0  0  0  0  0  0  0  0  0  0  0
   -0.4958   -3.5292   -3.2267 C   0  0  0  0  0  0  0  0  0  0  0  0
   -0.0318   -2.3019   -2.6669 C   0  0  0  0  0  0  0  0  0  0  0  0
   -0.7259   -1.6641   -1.7135 N   0  0  0  0  0  2  0  0  0  0  0  0
   -1.9158   -2.1917   -1.2516 C   0  0  2  0  0  3  0  0  0  0  0  0
    1.2705   -1.7098   -3.1170 C   0  0  0  0  0  0  0  0  0  0  0  0
    2.1174   -2.2310   -2.6214 H   0  0  0  0  0  0  0  0  0  0  0  0
    1.4073   -1.8218   -4.2103 H   0  0  0  0  0  0  0  0  0  0  0  0
    1.3287   -0.6406   -2.8378 H   0  0  0  0  0  0  0  0  0  0  0  0
    0.1019   -4.0174   -4.0097 H   0  0  0  0  0  0  0  0  0  0  0  0
   -2.0424   -5.0426   -3.1920 H   0  0  0  0  0  0  0  0  0  0  0  0
   -4.0170   -4.9176   -1.6355 H   0  0  0  0  0  0  0  0  0  0  0  0
   -5.2478   -3.7207    0.1882 H   0  0  0  0  0  0  0  0  0  0  0  0
   -4.3597   -1.5577    1.0877 H   0  0  0  0  0  0  0  0  0  0  0  0
   -3.1469    1.3871   -0.0542 C   0  0  0  0  0  0  0  0  0  0  0  0
   -2.7570    2.7192    0.2174 C   0  0  0  0  0  0  0  0  0  0  0  0
   -3.5669    3.7903   -0.1822 C   0  0  0  0  0  0  0  0  0  0  0  0
   -4.7627    3.5462   -0.8802 C   0  0  0  0  0  0  0  0  0  0  0  0
   -5.1471    2.2272   -1.1659 C   0  0  0  0  0  0  0  0  0  0  0  0
   -4.3472    1.1493   -0.7526 C   0  0  0  0  0  0  0  0  0  0  0  0
   -4.6562    0.1200   -0.9861 H   0  0  0  0  0  0  0  0  0  0  0  0
   -6.0810    2.0318   -1.7141 H   0  0  0  0  0  0  0  0  0  0  0  0
   -5.3940    4.3874   -1.2035 H   0  0  0  0  0  0  0  0  0  0  0  0
   -3.2590    4.8225    0.0427 H   0  0  0  0  0  0  0  0  0  0  0  0
   -1.8053    2.9158    0.7374 H   0  0  0  0  0  0  0  0  0  0  0  0
   -2.0608   -0.1160    2.2188 C   0  0  0  0  0  0  0  0  0  0  0  0
   -1.2318   -1.0980    2.8043 C   0  0  0  0  0  0  0  0  0  0  0  0
   -1.2251   -1.2781    4.1920 C   0  0  0  0  0  0  0  0  0  0  0  0
   -2.0312   -0.4679    5.0100 C   0  0  0  0  0  0  0  0  0  0  0  0
   -2.8502    0.5144    4.4326 C   0  0  0  0  0  0  0  0  0  0  0  0
   -2.8719    0.6911    3.0389 C   0  0  0  0  0  0  0  0  0  0  0  0
   -3.5215    1.4582    2.5911 H   0  0  0  0  0  0  0  0  0  0  0  0
   -3.4861    1.1473    5.0700 H   0  0  0  0  0  0  0  0  0  0  0  0
   -2.0184   -0.6022    6.1019 H   0  0  0  0  0  0  0  0  0  0  0  0
   -0.5717   -2.0413    4.6403 H   0  0  0  0  0  0  0  0  0  0  0  0
   -0.5784   -1.7128    2.1650 H   0  0  0  0  0  0  0  0  0  0  0  0
  1 32  1  0  0  0  0
  2  3  2  0  0  0  0
  2  1  1  0  0  0  0
  3 20  1  0  0  0  0
  4 19  1  0  0  0  0
  4  3  1  0  0  0  0
  5  4  2  0  0  0  0
  6  5  1  0  0  0  0
  7  6  2  0  0  0  0
  8  7  1  0  0  0  0
  8  9  2  0  0  0  0
  9 10  1  0  0  0  0
 10 11  1  0  0  0  0
 11  6  1  1  0  0  0
 11  2  1  0  0  0  0
 12 15  1  0  0  0  0
 12  9  1  0  0  0  0
 12 13  1  0  0  0  0
 14 12  1  0  0  0  0
 16  8  1  0  0  0  0
 17  7  1  0  0  0  0
 18  5  1  0  0  0  0
 21 22  1  0  0  0  0
 21  1  1  0  0  0  0
 22 31  1  0  0  0  0
 23 30  1  0  0  0  0
 23 22  2  0  0  0  0
 24 23  1  0  0  0  0
 25 24  2  0  0  0  0
 25 26  1  0  0  0  0
 26 21  2  0  0  0  0
 27 26  1  0  0  0  0
 28 25  1  0  0  0  0
 29 24  1  0  0  0  0
 32 33  2  0  0  0  0
 32 37  1  0  0  0  0
 33 34  1  0  0  0  0
 34 41  1  0  0  0  0
 34 35  2  0  0  0  0
 35 40  1  0  0  0  0
 36 35  1  0  0  0  0
 36 39  1  0  0  0  0
 37 36  2  0  0  0  0
 38 37  1  0  0  0  0
 42 33  1  0  0  0  0
M  END
