1,4
 OpenBabel05122313063D

 39 43  0  0  0  0  0  0  0  0999 V2000
    0.1053   -0.0943   -0.0297 P   0  0  0  0  0  0  0  0  0  0  0  0
    1.2298   -0.1668   -1.2757 O   0  0  0  0  0  0  0  0  0  0  0  0
    1.1252    0.2843    1.2486 O   0  0  0  0  0  0  0  0  0  0  0  0
   -2.7705    0.2671   -0.0684 N   0  0  0  0  0  2  0  0  0  0  0  0
    2.3447   -0.9819   -1.1270 C   0  0  0  0  0  0  0  0  0  0  0  0
    2.4017   -2.1925   -1.8308 C   0  0  0  0  0  0  0  0  0  0  0  0
    1.5332   -2.4913   -2.4347 H   0  0  0  0  0  0  0  0  0  0  0  0
    3.5568   -2.9822   -1.7538 C   0  0  0  0  0  0  0  0  0  0  0  0
    3.6037   -3.9352   -2.3015 H   0  0  0  0  0  0  0  0  0  0  0  0
    4.6457   -2.5569   -0.9747 C   0  0  0  0  0  0  0  0  0  0  0  0
    5.5513   -3.1773   -0.9056 H   0  0  0  0  0  0  0  0  0  0  0  0
    4.5767   -1.3460   -0.2737 C   0  0  0  0  0  0  0  0  0  0  0  0
    5.4219   -1.0230    0.3526 H   0  0  0  0  0  0  0  0  0  0  0  0
    3.4229   -0.5335   -0.3266 C   0  0  0  0  0  0  0  0  0  0  0  0
    3.3539    0.7610    0.3933 C   0  0  0  0  0  0  0  0  0  0  0  0
    4.4517    1.6501    0.3952 C   0  0  0  0  0  0  0  0  0  0  0  0
    5.3505    1.3740   -0.1766 H   0  0  0  0  0  0  0  0  0  0  0  0
    4.4066    2.8706    1.0818 C   0  0  0  0  0  0  0  0  0  0  0  0
    5.2756    3.5446    1.0570 H   0  0  0  0  0  0  0  0  0  0  0  0
    3.2509    3.2317    1.7935 C   0  0  0  0  0  0  0  0  0  0  0  0
    3.2073    4.1876    2.3367 H   0  0  0  0  0  0  0  0  0  0  0  0
    2.1476    2.3682    1.8145 C   0  0  0  0  0  0  0  0  0  0  0  0
    1.2326    2.6118    2.3729 H   0  0  0  0  0  0  0  0  0  0  0  0
    2.2021    1.1463    1.1256 C   0  0  0  0  0  0  0  0  0  0  0  0
   -0.7166    1.4609   -0.5258 C   0  0  0  0  0  0  0  0  0  0  0  0
   -0.0621    2.6169   -0.9456 C   0  0  0  0  0  0  0  0  0  0  0  0
    1.0334    2.6196   -1.0394 H   0  0  0  0  0  0  0  0  0  0  0  0
   -0.8040    3.7852   -1.2590 C   0  0  0  0  0  0  0  0  0  0  0  0
   -0.2723    4.6920   -1.5832 H   0  0  0  0  0  0  0  0  0  0  0  0
   -2.1892    3.7873   -1.1631 C   0  0  0  0  0  3  0  0  0  0  0  0
   -2.7656    4.6930   -1.4073 H   0  0  0  0  0  0  0  0  0  0  0  0
   -2.8942    2.6166   -0.7597 C   0  0  0  0  0  0  0  0  0  0  0  0
   -4.3138    2.5442   -0.6653 C   0  0  0  0  0  0  0  0  0  0  0  0
   -4.9162    3.4352   -0.9020 H   0  0  0  0  0  0  0  0  0  0  0  0
   -4.9113    1.3545   -0.2828 C   0  0  0  0  0  0  0  0  0  0  0  0
   -6.0037    1.2620   -0.2019 H   0  0  0  0  0  0  0  0  0  0  0  0
   -4.0980    0.2280    0.0062 C   0  0  0  0  0  0  0  0  0  0  0  0
   -4.5125   -0.7535    0.3066 H   0  0  0  0  0  0  0  0  0  0  0  0
   -2.1440    1.4341   -0.4391 C   0  0  0  0  0  0  0  0  0  0  0  0
  1  3  1  0  0  0  0
  2  5  1  0  0  0  0
  2  1  1  0  0  0  0
  4 37  1  0  0  0  0
  5 14  1  0  0  0  0
  6  8  1  0  0  0  0
  6  5  2  0  0  0  0
  7  6  1  0  0  0  0
  8 10  2  0  0  0  0
  9  8  1  0  0  0  0
 10 11  1  0  0  0  0
 10 12  1  0  0  0  0
 12 13  1  0  0  0  0
 14 12  2  0  0  0  0
 14 15  1  0  0  0  0
 15 16  2  0  0  0  0
 15 24  1  0  0  0  0
 16 18  1  0  0  0  0
 17 16  1  0  0  0  0
 18 20  2  0  0  0  0
 19 18  1  0  0  0  0
 20 22  1  0  0  0  0
 20 21  1  0  0  0  0
 22 23  1  0  0  0  0
 24  3  1  0  0  0  0
 24 22  2  0  0  0  0
 25 39  2  0  0  0  0
 25  1  1  0  0  0  0
 26 25  1  0  0  0  0
 27 26  1  0  0  0  0
 28 30  1  0  0  0  0
 28 26  2  0  0  0  0
 29 28  1  0  0  0  0
 30 32  1  0  0  0  0
 31 30  1  0  0  0  0
 32 33  2  0  0  0  0
 32 39  1  0  0  0  0
 33 35  1  0  0  0  0
 34 33  1  0  0  0  0
 35 36  1  0  0  0  0
 35 37  2  0  0  0  0
 37 38  1  0  0  0  0
 39  4  1  0  0  0  0
M  END
