1,2
 OpenBabel05122313063D

 41 44  0  0  0  0  0  0  0  0999 V2000
    0.6250    0.1026   -0.0049 P   0  0  0  0  0  0  0  0  0  0  0  0
   -2.3814    0.3432   -0.2803 N   0  0  0  0  0  2  0  0  0  0  0  0
   -3.6660    0.0855    0.0044 N   0  0  0  0  0  0  0  0  0  0  0  0
   -4.3809    1.2219    0.1543 C   0  0  0  0  0  3  0  0  0  0  0  0
   -3.5015    2.2847   -0.0401 C   0  0  0  0  0  0  0  0  0  0  0  0
   -2.2362    1.6932   -0.3191 C   0  0  0  0  0  0  0  0  0  0  0  0
    0.3166    1.8151   -0.6062 C   0  0  0  0  0  0  0  0  0  0  0  0
   -0.9859    2.3910   -0.6628 C   0  0  0  0  0  0  0  0  0  0  0  0
   -1.0966    3.7352   -1.0957 C   0  0  0  0  0  0  0  0  0  0  0  0
    0.0216    4.4916   -1.4566 C   0  0  0  0  0  0  0  0  0  0  0  0
    1.2994    3.9159   -1.4052 C   0  0  0  0  0  0  0  0  0  0  0  0
    1.4356    2.5869   -0.9875 C   0  0  0  0  0  0  0  0  0  0  0  0
    2.2041   -0.3656   -0.8019 C   0  0  0  0  0  0  0  0  0  0  0  0
    2.1673   -0.7892   -2.1459 C   0  0  0  0  0  0  0  0  0  0  0  0
    3.3591   -1.1076   -2.8077 C   0  0  0  0  0  0  0  0  0  0  0  0
    4.5881   -1.0183   -2.1312 C   0  0  0  0  0  0  0  0  0  0  0  0
    4.6231   -0.6087   -0.7899 C   0  0  0  0  0  0  0  0  0  0  0  0
    3.4327   -0.2802   -0.1212 C   0  0  0  0  0  0  0  0  0  0  0  0
    0.9956    0.2882    1.7830 C   0  0  0  0  0  0  0  0  0  0  0  0
    1.1429    1.5503    2.3919 C   0  0  0  0  0  0  0  0  0  0  0  0
    1.4290    1.6332    3.7638 C   0  0  0  0  0  0  0  0  0  0  0  0
    1.5717    0.4640    4.5266 C   0  0  0  0  0  0  0  0  0  0  0  0
    1.4222   -0.7942    3.9184 C   0  0  0  0  0  0  0  0  0  0  0  0
    1.1275   -0.8895    2.5519 C   0  0  0  0  0  0  0  0  0  0  0  0
   -3.8999   -0.9493   -0.0129 H   0  0  0  0  0  0  0  0  0  0  0  0
   -5.4505    1.1950    0.3867 H   0  0  0  0  0  0  0  0  0  0  0  0
   -3.7370    3.3499    0.0317 H   0  0  0  0  0  0  0  0  0  0  0  0
   -2.0949    4.1871   -1.1759 H   0  0  0  0  0  0  0  0  0  0  0  0
   -0.1091    5.5308   -1.7937 H   0  0  0  0  0  0  0  0  0  0  0  0
    2.1889    4.4947   -1.6947 H   0  0  0  0  0  0  0  0  0  0  0  0
    2.4356    2.1309   -0.9515 H   0  0  0  0  0  0  0  0  0  0  0  0
    1.1993   -0.8854   -2.6612 H   0  0  0  0  0  0  0  0  0  0  0  0
    3.3280   -1.4432   -3.8552 H   0  0  0  0  0  0  0  0  0  0  0  0
    5.5223   -1.2790   -2.6514 H   0  0  0  0  0  0  0  0  0  0  0  0
    5.5828   -0.5475   -0.2548 H   0  0  0  0  0  0  0  0  0  0  0  0
    3.4583    0.0360    0.9323 H   0  0  0  0  0  0  0  0  0  0  0  0
    1.0339    2.4685    1.7960 H   0  0  0  0  0  0  0  0  0  0  0  0
    1.5402    2.6202    4.2379 H   0  0  0  0  0  0  0  0  0  0  0  0
    1.7951    0.5330    5.6021 H   0  0  0  0  0  0  0  0  0  0  0  0
    1.5263   -1.7128    4.5153 H   0  0  0  0  0  0  0  0  0  0  0  0
    0.9916   -1.8701    2.0650 H   0  0  0  0  0  0  0  0  0  0  0  0
  1 19  1  0  0  0  0
  2  3  1  0  0  0  0
  3  4  1  0  0  0  0
  4 26  1  0  0  0  0
  5 27  1  0  0  0  0
  5  4  1  0  0  0  0
  6  2  1  0  0  0  0
  6  5  2  0  0  0  0
  7  1  1  0  0  0  0
  8  7  1  0  0  0  0
  8  6  1  0  0  0  0
  9  8  2  0  0  0  0
 10 11  2  0  0  0  0
 10  9  1  0  0  0  0
 11 12  1  0  0  0  0
 12 31  1  0  0  0  0
 12  7  2  0  0  0  0
 13 18  1  0  0  0  0
 13  1  1  0  0  0  0
 14 13  2  0  0  0  0
 15 14  1  0  0  0  0
 15 16  2  0  0  0  0
 16 17  1  0  0  0  0
 17 35  1  0  0  0  0
 17 18  2  0  0  0  0
 18 36  1  0  0  0  0
 19 20  2  0  0  0  0
 19 24  1  0  0  0  0
 20 21  1  0  0  0  0
 21 38  1  0  0  0  0
 21 22  2  0  0  0  0
 22 39  1  0  0  0  0
 23 40  1  0  0  0  0
 23 22  1  0  0  0  0
 24 23  2  0  0  0  0
 25  3  1  0  0  0  0
 28  9  1  0  0  0  0
 29 10  1  0  0  0  0
 30 11  1  0  0  0  0
 32 14  1  0  0  0  0
 33 15  1  0  0  0  0
 34 16  1  0  0  0  0
 37 20  1  0  0  0  0
 41 24  1  0  0  0  0
M  END
