1,2
 OpenBabel05122313063D

 67 71  0  0  0  0  0  0  0  0999 V2000
    2.9090    0.2198   -0.1638 P   0  0  0  0  0  0  0  0  0  0  0  0
   -0.0060    0.6989    0.7247 N   0  0  0  0  0  2  0  0  0  0  0  0
   -5.7591    0.2394   -0.0193 B   0  0  0  0  0  0  0  0  0  0  0  0
    2.9467    1.8170    0.7430 C   0  0  0  0  0  0  0  0  0  0  0  0
    4.1782    2.4600    0.9707 C   0  0  0  0  0  0  0  0  0  0  0  0
    5.1050    1.9763    0.6279 H   0  0  0  0  0  0  0  0  0  0  0  0
    4.2433    3.6960    1.6306 C   0  0  0  0  0  0  0  0  0  0  0  0
    5.2194    4.1735    1.8030 H   0  0  0  0  0  0  0  0  0  0  0  0
    3.0611    4.3181    2.0625 C   0  0  0  0  0  0  0  0  0  0  0  0
    3.0985    5.2900    2.5765 H   0  0  0  0  0  0  0  0  0  0  0  0
    1.8312    3.6959    1.8361 C   0  0  0  0  0  0  0  0  0  0  0  0
    0.9019    4.1827    2.1707 H   0  0  0  0  0  0  0  0  0  0  0  0
    1.7437    2.4315    1.1971 C   0  0  0  0  0  0  0  0  0  0  0  0
    4.5385   -0.5183    0.2355 C   0  0  0  0  0  0  0  0  0  0  0  0
    5.6310   -0.4270   -0.6466 C   0  0  0  0  0  0  0  0  0  0  0  0
    5.5068    0.0485   -1.6311 H   0  0  0  0  0  0  0  0  0  0  0  0
    6.8770   -0.9554   -0.2704 C   0  0  0  0  0  0  0  0  0  0  0  0
    7.7286   -0.8897   -0.9644 H   0  0  0  0  0  0  0  0  0  0  0  0
    7.0326   -1.5694    0.9811 C   0  0  0  0  0  0  0  0  0  0  0  0
    8.0088   -1.9865    1.2719 H   0  0  0  0  0  0  0  0  0  0  0  0
    5.9390   -1.6630    1.8595 C   0  0  0  0  0  0  0  0  0  0  0  0
    6.0548   -2.1577    2.8356 H   0  0  0  0  0  0  0  0  0  0  0  0
    4.6921   -1.1453    1.4890 C   0  0  0  0  0  0  0  0  0  0  0  0
    3.8238   -1.2409    2.1587 H   0  0  0  0  0  0  0  0  0  0  0  0
    2.9984    0.6558   -1.9431 C   0  0  0  0  0  0  0  0  0  0  0  0
    2.8297   -0.4034   -2.8625 C   0  0  0  0  0  0  0  0  0  0  0  0
    2.6589   -1.4253   -2.4835 H   0  0  0  0  0  0  0  0  0  0  0  0
    2.8792   -0.1408   -4.2378 C   0  0  0  0  0  0  0  0  0  0  0  0
    2.7511   -0.9670   -4.9535 H   0  0  0  0  0  0  0  0  0  0  0  0
    3.0801    1.1708   -4.7022 C   0  0  0  0  0  0  0  0  0  0  0  0
    3.1097    1.3734   -5.7836 H   0  0  0  0  0  0  0  0  0  0  0  0
    3.2362    2.2235   -3.7875 C   0  0  0  0  0  0  0  0  0  0  0  0
    3.3881    3.2520   -4.1490 H   0  0  0  0  0  0  0  0  0  0  0  0
    3.1985    1.9699   -2.4067 C   0  0  0  0  0  0  0  0  0  0  0  0
    3.3226    2.7965   -1.6910 H   0  0  0  0  0  0  0  0  0  0  0  0
    0.3937    1.9118    1.0219 C   0  0  0  0  0  3  0  0  0  0  0  0
   -0.4072    2.6642    1.1445 H   0  0  0  0  0  0  0  0  0  0  0  0
   -1.4318    0.5529    0.5631 C   0  0  0  0  0  0  0  0  0  0  0  0
   -2.3030    0.9121    1.6063 C   0  0  0  0  0  0  0  0  0  0  0  0
   -1.8881    1.2252    2.5756 H   0  0  0  0  0  0  0  0  0  0  0  0
   -3.6854    0.8079    1.4127 C   0  0  0  0  0  0  0  0  0  0  0  0
   -4.3708    1.0635    2.2353 H   0  0  0  0  0  0  0  0  0  0  0  0
   -4.2201    0.3631    0.1838 C   0  0  0  0  0  0  0  0  0  0  0  0
   -3.3193    0.0110   -0.8485 C   0  0  0  0  0  0  0  0  0  0  0  0
   -3.7190   -0.3432   -1.8108 H   0  0  0  0  0  0  0  0  0  0  0  0
   -1.9368    0.0876   -0.6645 C   0  0  0  0  0  0  0  0  0  0  0  0
   -1.2323   -0.2098   -1.4543 H   0  0  0  0  0  0  0  0  0  0  0  0
   -7.7658   -0.0174   -1.0726 C   0  0  0  0  0  0  0  0  0  0  0  0
   -7.9779    0.1196    0.4907 C   0  0  0  0  0  0  0  0  0  0  0  0
   -8.0527    1.2829   -1.8328 C   0  0  0  0  0  0  0  0  0  0  0  0
   -7.5394    2.1442   -1.3619 H   0  0  0  0  0  0  0  0  0  0  0  0
   -9.1375    1.5011   -1.8792 H   0  0  0  0  0  0  0  0  0  0  0  0
   -7.6720    1.1827   -2.8678 H   0  0  0  0  0  0  0  0  0  0  0  0
   -8.5030   -1.1857   -1.7193 C   0  0  0  0  0  0  0  0  0  0  0  0
   -8.2890   -1.2070   -2.8059 H   0  0  0  0  0  0  0  0  0  0  0  0
   -9.5986   -1.0803   -1.5873 H   0  0  0  0  0  0  0  0  0  0  0  0
   -8.1856   -2.1542   -1.2920 H   0  0  0  0  0  0  0  0  0  0  0  0
   -9.0519    1.1196    0.9068 C   0  0  0  0  0  0  0  0  0  0  0  0
   -9.1226    1.1534    2.0117 H   0  0  0  0  0  0  0  0  0  0  0  0
  -10.0423    0.8199    0.5092 H   0  0  0  0  0  0  0  0  0  0  0  0
   -8.8205    2.1396    0.5495 H   0  0  0  0  0  0  0  0  0  0  0  0
   -8.2040   -1.2285    1.1850 C   0  0  0  0  0  0  0  0  0  0  0  0
   -7.4418   -1.9711    0.8776 H   0  0  0  0  0  0  0  0  0  0  0  0
   -9.2079   -1.6410    0.9646 H   0  0  0  0  0  0  0  0  0  0  0  0
   -8.1176   -1.0855    2.2796 H   0  0  0  0  0  0  0  0  0  0  0  0
   -6.3324   -0.2544   -1.1717 O   0  0  0  0  0  0  0  0  0  0  0  0
   -6.6809    0.6100    0.9375 O   0  0  0  0  0  0  0  0  0  0  0  0
  1 14  1  0  0  0  0
  1  4  1  0  0  0  0
  2 36  1  0  0  0  0
  3 43  1  0  0  0  0
  3 67  1  0  0  0  0
  4  5  2  0  0  0  0
  4 13  1  0  0  0  0
  5  7  1  0  0  0  0
  6  5  1  0  0  0  0
  7  8  1  0  0  0  0
  7  9  2  0  0  0  0
  9 10  1  0  0  0  0
 11  9  1  0  0  0  0
 11 12  1  0  0  0  0
 13 11  2  0  0  0  0
 14 23  1  0  0  0  0
 15 17  1  0  0  0  0
 15 14  2  0  0  0  0
 16 15  1  0  0  0  0
 17 19  2  0  0  0  0
 18 17  1  0  0  0  0
 19 20  1  0  0  0  0
 19 21  1  0  0  0  0
 21 22  1  0  0  0  0
 23 21  2  0  0  0  0
 23 24  1  0  0  0  0
 25  1  1  0  0  0  0
 26 27  1  0  0  0  0
 26 25  2  0  0  0  0
 28 26  1  0  0  0  0
 29 28  1  0  0  0  0
 30 28  2  0  0  0  0
 30 32  1  0  0  0  0
 31 30  1  0  0  0  0
 32 34  2  0  0  0  0
 33 32  1  0  0  0  0
 34 25  1  0  0  0  0
 34 35  1  0  0  0  0
 36 37  1  0  0  0  0
 36 13  1  0  0  0  0
 38  2  1  0  0  0  0
 38 39  1  0  0  0  0
 39 40  1  0  0  0  0
 41 39  2  0  0  0  0
 41 42  1  0  0  0  0
 43 41  1  0  0  0  0
 44 46  1  0  0  0  0
 44 43  2  0  0  0  0
 45 44  1  0  0  0  0
 46 38  2  0  0  0  0
 47 46  1  0  0  0  0
 48 49  1  0  0  0  0
 49 58  1  0  0  0  0
 49 67  1  0  0  0  0
 49 62  1  0  0  0  0
 50 51  1  0  0  0  0
 50 48  1  0  0  0  0
 52 50  1  0  0  0  0
 53 50  1  0  0  0  0
 54 56  1  0  0  0  0
 54 57  1  0  0  0  0
 54 48  1  0  0  0  0
 55 54  1  0  0  0  0
 58 59  1  0  0  0  0
 60 58  1  0  0  0  0
 61 58  1  0  0  0  0
 62 65  1  0  0  0  0
 63 62  1  0  0  0  0
 64 62  1  0  0  0  0
 66 48  1  0  0  0  0
 66  3  1  0  0  0  0
M  END
