1,2
 OpenBabel05122313063D

 67 69  0  0  0  0  0  0  0  0999 V2000
   -0.2456    0.0451    0.3536 P   0  0  0  0  0  0  0  0  0  0  0  0
    2.7395    1.2260   -0.4813 N   0  0  0  0  0  0  0  0  0  0  0  0
    0.6710   -2.7876   -0.6661 N   0  0  0  0  0  0  0  0  0  0  0  0
   -2.3569    0.9875   -1.5201 N   0  0  0  0  0  0  0  0  0  0  0  0
    0.9564   -0.4330    1.6839 C   0  0  0  0  0  0  0  0  0  0  0  0
    2.2041    0.2469    1.7897 C   0  0  0  0  0  0  0  0  0  0  0  0
    3.1357   -0.2006    2.7456 C   0  0  0  0  0  0  0  0  0  0  0  0
    4.1001    0.3264    2.8261 H   0  0  0  0  0  0  0  0  0  0  0  0
    2.8647   -1.2864    3.5916 C   0  0  0  0  0  0  0  0  0  0  0  0
    3.6160   -1.6142    4.3258 H   0  0  0  0  0  0  0  0  0  0  0  0
    1.6286   -1.9387    3.4972 C   0  0  0  0  0  0  0  0  0  0  0  0
    1.3915   -2.7846    4.1605 H   0  0  0  0  0  0  0  0  0  0  0  0
    0.6857   -1.5081    2.5516 C   0  0  0  0  0  0  0  0  0  0  0  0
   -0.2861   -2.0174    2.4821 H   0  0  0  0  0  0  0  0  0  0  0  0
    2.5537    1.4692    0.9614 C   0  0  0  0  0  0  0  0  0  0  0  0
    1.7457    2.2239    1.0593 H   0  0  0  0  0  0  0  0  0  0  0  0
    3.4774    1.9328    1.3908 H   0  0  0  0  0  0  0  0  0  0  0  0
    3.8438    0.3033   -0.7585 C   0  0  0  0  0  0  0  0  0  0  0  0
    4.8294    0.7290   -0.4437 H   0  0  0  0  0  0  0  0  0  0  0  0
    3.8614    0.0914   -1.8455 H   0  0  0  0  0  0  0  0  0  0  0  0
    3.6814   -0.6467   -0.2142 H   0  0  0  0  0  0  0  0  0  0  0  0
    2.9256    2.4937   -1.1960 C   0  0  0  0  0  0  0  0  0  0  0  0
    3.8640    3.0136   -0.8800 H   0  0  0  0  0  0  0  0  0  0  0  0
    2.0669    3.1634   -0.9897 H   0  0  0  0  0  0  0  0  0  0  0  0
    2.9536    2.2909   -2.2846 H   0  0  0  0  0  0  0  0  0  0  0  0
   -1.6363   -1.1505    0.5201 C   0  0  0  0  0  0  0  0  0  0  0  0
   -1.7170   -2.2724   -0.3487 C   0  0  0  0  0  0  0  0  0  0  0  0
   -2.8447   -3.1092   -0.2617 C   0  0  0  0  0  0  0  0  0  0  0  0
   -2.9061   -3.9790   -0.9350 H   0  0  0  0  0  0  0  0  0  0  0  0
   -3.8710   -2.8678    0.6649 C   0  0  0  0  0  0  0  0  0  0  0  0
   -4.7393   -3.5424    0.7129 H   0  0  0  0  0  0  0  0  0  0  0  0
   -3.7744   -1.7726    1.5346 C   0  0  0  0  0  0  0  0  0  0  0  0
   -4.5651   -1.5762    2.2747 H   0  0  0  0  0  0  0  0  0  0  0  0
   -2.6640   -0.9186    1.4558 C   0  0  0  0  0  0  0  0  0  0  0  0
   -2.6002   -0.0474    2.1250 H   0  0  0  0  0  0  0  0  0  0  0  0
   -0.6126   -2.5854   -1.3326 C   0  0  0  0  0  0  0  0  0  0  0  0
   -0.9131   -3.4699   -1.9556 H   0  0  0  0  0  0  0  0  0  0  0  0
   -0.4816   -1.7229   -2.0253 H   0  0  0  0  0  0  0  0  0  0  0  0
    1.7763   -2.8608   -1.6096 C   0  0  0  0  0  0  0  0  0  0  0  0
    1.7380   -3.7854   -2.2447 H   0  0  0  0  0  0  0  0  0  0  0  0
    2.7381   -2.8732   -1.0572 H   0  0  0  0  0  0  0  0  0  0  0  0
    1.7684   -1.9796   -2.2852 H   0  0  0  0  0  0  0  0  0  0  0  0
    0.6697   -3.9219    0.2387 C   0  0  0  0  0  0  0  0  0  0  0  0
    1.6098   -3.9351    0.8263 H   0  0  0  0  0  0  0  0  0  0  0  0
    0.5811   -4.9043   -0.2985 H   0  0  0  0  0  0  0  0  0  0  0  0
   -0.1766   -3.8505    0.9490 H   0  0  0  0  0  0  0  0  0  0  0  0
   -0.9074    1.6463    1.0152 C   0  0  0  0  0  0  0  0  0  0  0  0
   -1.4803    2.5886    0.1168 C   0  0  0  0  0  0  0  0  0  0  0  0
   -1.8863    3.8403    0.6118 C   0  0  0  0  0  0  0  0  0  0  0  0
   -2.3365    4.5634   -0.0868 H   0  0  0  0  0  0  0  0  0  0  0  0
   -1.7335    4.1758    1.9660 C   0  0  0  0  0  0  0  0  0  0  0  0
   -2.0596    5.1624    2.3287 H   0  0  0  0  0  0  0  0  0  0  0  0
   -1.1730    3.2449    2.8520 C   0  0  0  0  0  0  0  0  0  0  0  0
   -1.0551    3.4913    3.9183 H   0  0  0  0  0  0  0  0  0  0  0  0
   -0.7619    1.9905    2.3755 C   0  0  0  0  0  0  0  0  0  0  0  0
   -0.3086    1.2664    3.0696 H   0  0  0  0  0  0  0  0  0  0  0  0
   -1.6522    2.2475   -1.3464 C   0  0  0  0  0  0  0  0  0  0  0  0
   -2.1461    3.1037   -1.8787 H   0  0  0  0  0  0  0  0  0  0  0  0
   -0.6432    2.1196   -1.8124 H   0  0  0  0  0  0  0  0  0  0  0  0
   -3.7232    1.0175   -1.0371 C   0  0  0  0  0  0  0  0  0  0  0  0
   -3.7533    1.3747    0.0113 H   0  0  0  0  0  0  0  0  0  0  0  0
   -4.1477   -0.0062   -1.0583 H   0  0  0  0  0  0  0  0  0  0  0  0
   -4.3863    1.6856   -1.6482 H   0  0  0  0  0  0  0  0  0  0  0  0
   -2.2480    0.4460   -2.8637 C   0  0  0  0  0  0  0  0  0  0  0  0
   -2.6738   -0.5782   -2.8824 H   0  0  0  0  0  0  0  0  0  0  0  0
   -1.1811    0.3911   -3.1657 H   0  0  0  0  0  0  0  0  0  0  0  0
   -2.7998    1.0585   -3.6239 H   0  0  0  0  0  0  0  0  0  0  0  0
  1 26  1  0  0  0  0
  1 47  1  0  0  0  0
  1  5  1  0  0  0  0
  2 15  1  0  0  0  0
  3 43  1  0  0  0  0
  4 57  1  0  0  0  0
  4 60  1  0  0  0  0
  5  6  2  0  0  0  0
  5 13  1  0  0  0  0
  6  7  1  0  0  0  0
  7  8  1  0  0  0  0
  7  9  2  0  0  0  0
  9 10  1  0  0  0  0
 11  9  1  0  0  0  0
 11 12  1  0  0  0  0
 13 11  2  0  0  0  0
 14 13  1  0  0  0  0
 15 16  1  0  0  0  0
 15 17  1  0  0  0  0
 15  6  1  0  0  0  0
 18  2  1  0  0  0  0
 18 19  1  0  0  0  0
 18 21  1  0  0  0  0
 20 18  1  0  0  0  0
 22 24  1  0  0  0  0
 22 23  1  0  0  0  0
 22  2  1  0  0  0  0
 25 22  1  0  0  0  0
 26 34  1  0  0  0  0
 27 28  1  0  0  0  0
 27 26  2  0  0  0  0
 28 30  2  0  0  0  0
 29 28  1  0  0  0  0
 30 31  1  0  0  0  0
 30 32  1  0  0  0  0
 32 33  1  0  0  0  0
 34 32  2  0  0  0  0
 34 35  1  0  0  0  0
 36  3  1  0  0  0  0
 36 27  1  0  0  0  0
 37 36  1  0  0  0  0
 38 36  1  0  0  0  0
 39 41  1  0  0  0  0
 39  3  1  0  0  0  0
 40 39  1  0  0  0  0
 42 39  1  0  0  0  0
 43 44  1  0  0  0  0
 43 46  1  0  0  0  0
 45 43  1  0  0  0  0
 47 55  1  0  0  0  0
 48 49  1  0  0  0  0
 48 47  2  0  0  0  0
 49 51  2  0  0  0  0
 50 49  1  0  0  0  0
 51 52  1  0  0  0  0
 51 53  1  0  0  0  0
 53 54  1  0  0  0  0
 55 53  2  0  0  0  0
 55 56  1  0  0  0  0
 57 48  1  0  0  0  0
 58 57  1  0  0  0  0
 59 57  1  0  0  0  0
 60 61  1  0  0  0  0
 62 60  1  0  0  0  0
 63 60  1  0  0  0  0
 64  4  1  0  0  0  0
 65 64  1  0  0  0  0
 66 64  1  0  0  0  0
 67 64  1  0  0  0  0
M  END
