1,2
 OpenBabel05122313063D

 61 64  0  0  1  0  0  0  0  0999 V2000
   -0.5261   -0.9230    0.1481 P   0  0  0  0  0  0  0  0  0  0  0  0
    1.1130    1.0064   -0.0625 N   0  0  0  0  0  2  0  0  0  0  0  0
   -1.0833    1.8616   -0.4997 N   0  0  0  0  0  0  0  0  0  0  0  0
   -0.7049    2.8078   -0.6152 H   0  0  0  0  0  0  0  0  0  0  0  0
   -0.1887    0.8923   -0.1730 C   0  0  1  0  0  3  0  0  0  0  0  0
   -1.7691   -0.9596    1.5133 C   0  0  0  0  0  0  0  0  0  0  0  0
   -1.3092   -0.6250    2.8040 C   0  0  0  0  0  0  0  0  0  0  0  0
   -0.2447   -0.3978    2.9621 H   0  0  0  0  0  0  0  0  0  0  0  0
   -2.2032   -0.5893    3.8838 C   0  0  0  0  0  0  0  0  0  0  0  0
   -1.8348   -0.3207    4.8852 H   0  0  0  0  0  0  0  0  0  0  0  0
   -3.5564   -0.9124    3.6909 C   0  0  0  0  0  0  0  0  0  0  0  0
   -4.2549   -0.8950    4.5410 H   0  0  0  0  0  0  0  0  0  0  0  0
   -4.0125   -1.2715    2.4127 C   0  0  0  0  0  0  0  0  0  0  0  0
   -5.0696   -1.5364    2.2577 H   0  0  0  0  0  0  0  0  0  0  0  0
   -3.1260   -1.2914    1.3249 C   0  0  0  0  0  0  0  0  0  0  0  0
   -3.4937   -1.5649    0.3245 H   0  0  0  0  0  0  0  0  0  0  0  0
   -1.4110   -1.5657   -1.3233 C   0  0  0  0  0  0  0  0  0  0  0  0
   -1.8449   -2.9095   -1.2953 C   0  0  0  0  0  0  0  0  0  0  0  0
   -1.7186   -3.5098   -0.3805 H   0  0  0  0  0  0  0  0  0  0  0  0
   -2.4249   -3.4874   -2.4328 C   0  0  0  0  0  0  0  0  0  0  0  0
   -2.7617   -4.5345   -2.3994 H   0  0  0  0  0  0  0  0  0  0  0  0
   -2.5610   -2.7394   -3.6141 C   0  0  0  0  0  0  0  0  0  0  0  0
   -3.0094   -3.1973   -4.5084 H   0  0  0  0  0  0  0  0  0  0  0  0
   -2.1081   -1.4122   -3.6544 C   0  0  0  0  0  0  0  0  0  0  0  0
   -2.1959   -0.8261   -4.5817 H   0  0  0  0  0  0  0  0  0  0  0  0
   -1.5337   -0.8254   -2.5164 C   0  0  0  0  0  0  0  0  0  0  0  0
   -1.1683    0.2109   -2.5623 H   0  0  0  0  0  0  0  0  0  0  0  0
    1.8223    2.2676   -0.2401 C   0  0  0  0  0  0  0  0  0  0  0  0
    1.1054    3.1260   -0.2937 H   0  0  0  0  0  0  0  0  0  0  0  0
    2.7418    2.5307    0.9650 C   0  0  0  0  0  0  0  0  0  0  0  0
    3.4036    1.6478    1.0842 H   0  0  0  0  0  0  0  0  0  0  0  0
    2.1283    2.5889    1.8882 H   0  0  0  0  0  0  0  0  0  0  0  0
    3.5834    3.7966    0.7705 C   0  0  0  0  0  0  0  0  0  0  0  0
    2.9191    4.6910    0.7514 H   0  0  0  0  0  0  0  0  0  0  0  0
    4.2598    3.9319    1.6397 H   0  0  0  0  0  0  0  0  0  0  0  0
    4.3866    3.7348   -0.5351 C   0  0  0  0  0  0  0  0  0  0  0  0
    4.9796    4.6631   -0.6712 H   0  0  0  0  0  0  0  0  0  0  0  0
    5.1155    2.8965   -0.4733 H   0  0  0  0  0  0  0  0  0  0  0  0
    3.4632    3.5075   -1.7390 C   0  0  0  0  0  0  0  0  0  0  0  0
    4.0526    3.4328   -2.6763 H   0  0  0  0  0  0  0  0  0  0  0  0
    2.7949    4.3907   -1.8609 H   0  0  0  0  0  0  0  0  0  0  0  0
    2.6173    2.2419   -1.5598 C   0  0  0  0  0  0  0  0  0  0  0  0
    1.9169    2.0997   -2.4098 H   0  0  0  0  0  0  0  0  0  0  0  0
    3.2716    1.3449   -1.5389 H   0  0  0  0  0  0  0  0  0  0  0  0
   -2.5377    1.7689   -0.4015 C   0  0  0  0  0  0  0  0  0  0  0  0
   -2.7943    0.6921   -0.4737 H   0  0  0  0  0  0  0  0  0  0  0  0
   -3.0650    2.3053    0.9416 C   0  0  0  0  0  0  0  0  0  0  0  0
   -2.7275    3.3610    1.0539 H   0  0  0  0  0  0  0  0  0  0  0  0
   -2.6080    1.7295    1.7718 H   0  0  0  0  0  0  0  0  0  0  0  0
   -4.5958    2.2394    1.0105 C   0  0  0  0  0  0  0  0  0  0  0  0
   -4.9074    1.1717    1.0085 H   0  0  0  0  0  0  0  0  0  0  0  0
   -4.9488    2.6605    1.9744 H   0  0  0  0  0  0  0  0  0  0  0  0
   -5.2478    2.9639   -0.1732 C   0  0  0  0  0  0  0  0  0  0  0  0
   -6.3525    2.8696   -0.1252 H   0  0  0  0  0  0  0  0  0  0  0  0
   -5.0238    4.0526   -0.1073 H   0  0  0  0  0  0  0  0  0  0  0  0
   -4.7245    2.4223   -1.5095 C   0  0  0  0  0  0  0  0  0  0  0  0
   -5.1717    2.9758   -2.3608 H   0  0  0  0  0  0  0  0  0  0  0  0
   -5.0418    1.3618   -1.6266 H   0  0  0  0  0  0  0  0  0  0  0  0
   -3.1943    2.4927   -1.5864 C   0  0  0  0  0  0  0  0  0  0  0  0
   -2.8713    3.5597   -1.5752 H   0  0  0  0  0  0  0  0  0  0  0  0
   -2.8249    2.0564   -2.5374 H   0  0  0  0  0  0  0  0  0  0  0  0
  1  6  1  0  0  0  0
  3 45  1  0  0  0  0
  3  5  1  0  0  0  0
  4  3  1  0  0  0  0
  5  2  1  6  0  0  0
  5  1  1  0  0  0  0
  6  7  1  0  0  0  0
  7  8  1  0  0  0  0
  7  9  2  0  0  0  0
  9 10  1  0  0  0  0
 11  9  1  0  0  0  0
 11 12  1  0  0  0  0
 13 11  2  0  0  0  0
 14 13  1  0  0  0  0
 15  6  2  0  0  0  0
 15 13  1  0  0  0  0
 16 15  1  0  0  0  0
 17 18  1  0  0  0  0
 17  1  1  0  0  0  0
 18 19  1  0  0  0  0
 20 21  1  0  0  0  0
 20 18  2  0  0  0  0
 22 20  1  0  0  0  0
 23 22  1  0  0  0  0
 24 22  2  0  0  0  0
 24 26  1  0  0  0  0
 25 24  1  0  0  0  0
 26 17  2  0  0  0  0
 27 26  1  0  0  0  0
 28  2  1  0  0  0  0
 28 30  1  0  0  0  0
 29 28  1  0  0  0  0
 30 31  1  0  0  0  0
 30 32  1  0  0  0  0
 33 30  1  0  0  0  0
 33 35  1  0  0  0  0
 34 33  1  0  0  0  0
 36 38  1  0  0  0  0
 36 33  1  0  0  0  0
 37 36  1  0  0  0  0
 39 42  1  0  0  0  0
 39 36  1  0  0  0  0
 40 39  1  0  0  0  0
 41 39  1  0  0  0  0
 42 44  1  0  0  0  0
 42 28  1  0  0  0  0
 43 42  1  0  0  0  0
 45 47  1  0  0  0  0
 46 45  1  0  0  0  0
 47 50  1  0  0  0  0
 47 48  1  0  0  0  0
 47 49  1  0  0  0  0
 50 52  1  0  0  0  0
 51 50  1  0  0  0  0
 53 54  1  0  0  0  0
 53 55  1  0  0  0  0
 53 50  1  0  0  0  0
 56 53  1  0  0  0  0
 57 56  1  0  0  0  0
 58 56  1  0  0  0  0
 59 60  1  0  0  0  0
 59 56  1  0  0  0  0
 59 45  1  0  0  0  0
 61 59  1  0  0  0  0
M  END
