1,2
 OpenBabel05122313063D

 29 29  0  0  1  0  0  0  0  0999 V2000
   -1.3510   -0.6491   -0.0025 P   0  0  0  0  0  0  0  0  0  0  0  0
   -0.3151    1.6905    0.0349 N   0  0  0  0  0  2  0  0  0  0  0  0
   -2.1871   -1.3325   -1.3166 N   0  0  0  0  0  0  0  0  0  0  0  0
   -2.3793   -1.1535    1.3109 N   0  0  0  0  0  0  0  0  0  0  0  0
   -1.5922    1.1984    0.0128 C   0  0  1  0  0  3  0  0  0  0  0  0
   -2.7098    2.0338   -0.0668 C   0  0  0  0  0  0  0  0  0  0  0  0
   -2.5050    3.4253   -0.1207 C   0  0  0  0  0  0  0  0  0  0  0  0
   -1.1939    3.9219   -0.0870 C   0  0  0  0  0  0  0  0  0  0  0  0
   -0.1193    3.0232   -0.0080 C   0  0  0  0  0  0  0  0  0  0  0  0
   -2.2939   -0.4026    2.5589 C   0  0  0  0  0  0  0  0  0  0  0  0
   -2.3789   -2.5992    1.5256 C   0  0  0  0  0  0  0  0  0  0  0  0
   -1.4594   -1.8934   -2.4430 C   0  0  0  0  0  0  0  0  0  0  0  0
   -3.6110   -1.1194   -1.5093 C   0  0  0  0  0  0  0  0  0  0  0  0
   -3.7204    1.6016   -0.0775 H   0  0  0  0  0  0  0  0  0  0  0  0
   -3.3612    4.1136   -0.1843 H   0  0  0  0  0  0  0  0  0  0  0  0
   -0.9948    5.0025   -0.1241 H   0  0  0  0  0  0  0  0  0  0  0  0
    0.9278    3.3619    0.0164 H   0  0  0  0  0  0  0  0  0  0  0  0
   -1.4442   -1.2134   -3.3251 H   0  0  0  0  0  0  0  0  0  0  0  0
   -0.4118   -2.0934   -2.1476 H   0  0  0  0  0  0  0  0  0  0  0  0
   -1.9259   -2.8543   -2.7532 H   0  0  0  0  0  0  0  0  0  0  0  0
   -3.8214   -0.3228   -2.2617 H   0  0  0  0  0  0  0  0  0  0  0  0
   -4.0963   -2.0554   -1.8634 H   0  0  0  0  0  0  0  0  0  0  0  0
   -4.0749   -0.8447   -0.5420 H   0  0  0  0  0  0  0  0  0  0  0  0
   -2.2896    0.6864    2.3614 H   0  0  0  0  0  0  0  0  0  0  0  0
   -1.3872   -0.6482    3.1593 H   0  0  0  0  0  0  0  0  0  0  0  0
   -3.1863   -0.6303    3.1802 H   0  0  0  0  0  0  0  0  0  0  0  0
   -2.4286   -3.1231    0.5516 H   0  0  0  0  0  0  0  0  0  0  0  0
   -1.4733   -2.9571    2.0727 H   0  0  0  0  0  0  0  0  0  0  0  0
   -3.2746   -2.8842    2.1170 H   0  0  0  0  0  0  0  0  0  0  0  0
  1  4  1  0  0  0  0
  3  1  1  0  0  0  0
  4 11  1  0  0  0  0
  4 10  1  0  0  0  0
  5  1  1  6  0  0  0
  5  2  1  0  0  0  0
  6  5  1  0  0  0  0
  7  8  1  0  0  0  0
  7  6  2  0  0  0  0
  8  9  2  0  0  0  0
  9 17  1  0  0  0  0
  9  2  1  0  0  0  0
 10 25  1  0  0  0  0
 10 26  1  0  0  0  0
 11 28  1  0  0  0  0
 11 29  1  0  0  0  0
 12 19  1  0  0  0  0
 12  3  1  0  0  0  0
 13  3  1  0  0  0  0
 13 23  1  0  0  0  0
 14  6  1  0  0  0  0
 15  7  1  0  0  0  0
 16  8  1  0  0  0  0
 18 12  1  0  0  0  0
 20 12  1  0  0  0  0
 21 13  1  0  0  0  0
 22 13  1  0  0  0  0
 24 10  1  0  0  0  0
 27 11  1  0  0  0  0
M  END
