1,2
 OpenBabel05122313063D

 25 26  0  0  1  0  0  0  0  0999 V2000
    1.5922    1.3943   -1.2105 P   0  0  0  0  0  0  0  0  0  0  0  0
    1.4730   -0.8439    0.7731 N   0  0  0  0  0  2  0  0  0  0  0  0
    1.2246   -1.8378    1.6263 C   0  0  0  0  0  0  0  0  0  0  0  0
    0.1657   -2.0043    1.8842 H   0  0  0  0  0  0  0  0  0  0  0  0
    2.2358   -2.6536    2.1890 C   0  0  0  0  0  0  0  0  0  0  0  0
    1.9612   -3.4560    2.8881 H   0  0  0  0  0  0  0  0  0  0  0  0
    3.5561   -2.4130    1.8444 C   0  0  0  0  0  0  0  0  0  0  0  0
    4.3728   -3.0197    2.2649 H   0  0  0  0  0  0  0  0  0  0  0  0
    5.1963   -1.0643    0.5249 C   0  0  0  0  0  0  0  0  0  0  0  0
    6.0246   -1.6592    0.9386 H   0  0  0  0  0  0  0  0  0  0  0  0
    5.4415   -0.0391   -0.3757 C   0  0  0  0  0  0  0  0  0  0  0  0
    6.4715    0.1912   -0.6854 H   0  0  0  0  0  0  0  0  0  0  0  0
    4.3646    0.7167   -0.9077 C   0  0  0  0  0  0  0  0  0  0  0  0
    4.5876    1.5198   -1.6281 H   0  0  0  0  0  0  0  0  0  0  0  0
    3.0459    0.4611   -0.5398 C   0  0  0  0  0  0  0  0  0  0  0  0
    2.7746   -0.5897    0.3975 C   0  0  2  0  0  3  0  0  0  0  0  0
    3.8644   -1.3662    0.9296 C   0  0  0  0  0  0  0  0  0  0  0  0
    2.0366    3.1568   -0.8892 C   0  0  0  0  0  0  0  0  0  0  0  0
    1.2552    3.8065   -1.3315 H   0  0  0  0  0  0  0  0  0  0  0  0
    3.0199    3.4323   -1.3204 H   0  0  0  0  0  0  0  0  0  0  0  0
    2.0543    3.3263    0.2044 H   0  0  0  0  0  0  0  0  0  0  0  0
    1.8177    1.2485   -3.0386 C   0  0  0  0  0  0  0  0  0  0  0  0
    1.6956    0.1894   -3.3371 H   0  0  0  0  0  0  0  0  0  0  0  0
    2.8120    1.6085   -3.3714 H   0  0  0  0  0  0  0  0  0  0  0  0
    1.0315    1.8450   -3.5426 H   0  0  0  0  0  0  0  0  0  0  0  0
  1 18  1  0  0  0  0
  1 15  1  0  0  0  0
  2  3  1  0  0  0  0
  3  4  1  0  0  0  0
  3  5  2  0  0  0  0
  5  6  1  0  0  0  0
  7  5  1  0  0  0  0
  7  8  1  0  0  0  0
  9 17  1  0  0  0  0
  9 10  1  0  0  0  0
 11  9  2  0  0  0  0
 12 11  1  0  0  0  0
 13 15  2  0  0  0  0
 13 11  1  0  0  0  0
 14 13  1  0  0  0  0
 16 15  1  6  0  0  0
 16  2  1  0  0  0  0
 16 17  1  0  0  0  0
 17  7  2  0  0  0  0
 18 21  1  0  0  0  0
 19 18  1  0  0  0  0
 20 18  1  0  0  0  0
 22  1  1  0  0  0  0
 23 22  1  0  0  0  0
 24 22  1  0  0  0  0
 25 22  1  0  0  0  0
M  END
