1,2
 OpenBabel05122313063D

 49 52  0  0  0  0  0  0  0  0999 V2000
   -0.9567    0.1303    0.0428 P   0  0  0  0  0  0  0  0  0  0  0  0
    2.0197    0.3013    0.3104 N   0  0  0  0  0  0  0  0  0  0  0  0
   -2.4468   -0.0371    1.0855 C   0  0  0  0  0  0  0  0  0  0  0  0
   -2.3665   -0.8350    2.2443 C   0  0  0  0  0  0  0  0  0  0  0  0
   -1.4393   -1.3888    2.4564 H   0  0  0  0  0  0  0  0  0  0  0  0
   -3.4770   -0.9400    3.0927 C   0  0  0  0  0  0  0  0  0  0  0  0
   -3.4166   -1.5686    3.9938 H   0  0  0  0  0  0  0  0  0  0  0  0
   -4.6682   -0.2619    2.7844 C   0  0  0  0  0  0  0  0  0  0  0  0
   -5.5407   -0.3536    3.4491 H   0  0  0  0  0  0  0  0  0  0  0  0
   -4.7536    0.5190    1.6207 C   0  0  0  0  0  0  0  0  0  0  0  0
   -5.6912    1.0381    1.3705 H   0  0  0  0  0  0  0  0  0  0  0  0
   -3.6462    0.6306    0.7661 C   0  0  0  0  0  0  0  0  0  0  0  0
   -3.7177    1.2239   -0.1586 H   0  0  0  0  0  0  0  0  0  0  0  0
   -1.5725    0.5540   -1.6307 C   0  0  0  0  0  0  0  0  0  0  0  0
   -2.1827   -0.4804   -2.3750 C   0  0  0  0  0  0  0  0  0  0  0  0
   -2.2499   -1.4907   -1.9380 H   0  0  0  0  0  0  0  0  0  0  0  0
   -2.6560   -0.2179   -3.6670 C   0  0  0  0  0  0  0  0  0  0  0  0
   -3.1288   -1.0260   -4.2454 H   0  0  0  0  0  0  0  0  0  0  0  0
   -2.5155    1.0630   -4.2287 C   0  0  0  0  0  0  0  0  0  0  0  0
   -2.8845    1.2620   -5.2464 H   0  0  0  0  0  0  0  0  0  0  0  0
   -1.8944    2.0854   -3.4956 C   0  0  0  0  0  0  0  0  0  0  0  0
   -1.7745    3.0873   -3.9353 H   0  0  0  0  0  0  0  0  0  0  0  0
   -1.4209    1.8355   -2.1973 C   0  0  0  0  0  0  0  0  0  0  0  0
   -0.9327    2.6402   -1.6276 H   0  0  0  0  0  0  0  0  0  0  0  0
   -0.0764    1.6212    0.6483 C   0  0  0  0  0  0  0  0  0  0  0  0
   -0.7434    2.7944    1.0506 C   0  0  0  0  0  0  0  0  0  0  0  0
   -1.8430    2.8265    1.0149 H   0  0  0  0  0  0  0  0  0  0  0  0
   -0.0188    3.8977    1.5186 C   0  0  0  0  0  0  0  0  0  0  0  0
   -0.5443    4.8086    1.8413 H   0  0  0  0  0  0  0  0  0  0  0  0
    1.3804    3.8216    1.5869 C   0  0  0  0  0  0  0  0  0  0  0  0
    1.9641    4.6778    1.9570 H   0  0  0  0  0  0  0  0  0  0  0  0
    2.0493    2.6515    1.1998 C   0  0  0  0  0  0  0  0  0  0  0  0
    3.1425    2.6077    1.2858 H   0  0  0  0  0  0  0  0  0  0  0  0
    1.3306    1.5340    0.7298 C   0  0  0  0  0  0  0  0  0  0  0  0
    2.5792    0.4627   -1.0879 C   0  0  0  0  0  0  0  0  0  0  0  0
    1.7436    0.7987   -1.7323 H   0  0  0  0  0  0  0  0  0  0  0  0
    2.8488   -0.5633   -1.4062 H   0  0  0  0  0  0  0  0  0  0  0  0
    3.7837    1.4008   -1.1830 C   0  0  0  0  0  0  0  0  0  0  0  0
    4.1868    1.2912   -2.2106 H   0  0  0  0  0  0  0  0  0  0  0  0
    3.4601    2.4584   -1.0994 H   0  0  0  0  0  0  0  0  0  0  0  0
    4.8662    1.0617   -0.1240 C   0  0  0  0  0  0  0  0  0  0  0  0
    4.9983    1.9160    0.5759 H   0  0  0  0  0  0  0  0  0  0  0  0
    5.8544    0.9216   -0.6057 H   0  0  0  0  0  0  0  0  0  0  0  0
    4.4946   -0.1950    0.6705 C   0  0  0  0  0  0  0  0  0  0  0  0
    5.2252   -0.3764    1.4856 H   0  0  0  0  0  0  0  0  0  0  0  0
    4.5187   -1.0975    0.0265 H   0  0  0  0  0  0  0  0  0  0  0  0
    3.1060   -0.1142    1.3023 C   0  0  0  0  0  0  0  0  0  0  0  0
    3.0887    0.6087    2.1407 H   0  0  0  0  0  0  0  0  0  0  0  0
    2.8293   -1.1093    1.6946 H   0  0  0  0  0  0  0  0  0  0  0  0
  1 25  1  0  0  0  0
  1  3  1  0  0  0  0
  2 34  1  0  0  0  0
  2 47  1  0  0  0  0
  3  4  1  0  0  0  0
  4  5  1  0  0  0  0
  4  6  2  0  0  0  0
  6  7  1  0  0  0  0
  8  6  1  0  0  0  0
  8  9  1  0  0  0  0
 10  8  2  0  0  0  0
 11 10  1  0  0  0  0
 12  3  2  0  0  0  0
 12 10  1  0  0  0  0
 13 12  1  0  0  0  0
 14  1  1  0  0  0  0
 15 16  1  0  0  0  0
 15 14  2  0  0  0  0
 17 15  1  0  0  0  0
 18 17  1  0  0  0  0
 19 17  2  0  0  0  0
 19 21  1  0  0  0  0
 20 19  1  0  0  0  0
 21 23  2  0  0  0  0
 22 21  1  0  0  0  0
 23 14  1  0  0  0  0
 23 24  1  0  0  0  0
 25 34  2  0  0  0  0
 25 26  1  0  0  0  0
 26 28  2  0  0  0  0
 27 26  1  0  0  0  0
 28 30  1  0  0  0  0
 28 29  1  0  0  0  0
 30 31  1  0  0  0  0
 32 33  1  0  0  0  0
 32 30  2  0  0  0  0
 34 32  1  0  0  0  0
 35  2  1  0  0  0  0
 36 35  1  0  0  0  0
 37 35  1  0  0  0  0
 38 40  1  0  0  0  0
 38 35  1  0  0  0  0
 38 41  1  0  0  0  0
 39 38  1  0  0  0  0
 41 42  1  0  0  0  0
 41 44  1  0  0  0  0
 43 41  1  0  0  0  0
 44 47  1  0  0  0  0
 44 45  1  0  0  0  0
 46 44  1  0  0  0  0
 47 49  1  0  0  0  0
 47 48  1  0  0  0  0
M  END
