1,3
 OpenBabel05122313063D

 51 55  0  0  1  0  0  0  0  0999 V2000
    1.0708    0.8905    0.1511 P   0  0  2  0  0  0  0  0  0  0  0  0
   -0.7903   -1.1221    3.0984 O   0  0  0  0  0  0  0  0  0  0  0  0
   -0.6061   -1.3048    0.8682 N   0  0  0  0  0  2  0  0  0  0  0  0
    2.8218    1.4143    0.1335 C   0  0  0  0  0  0  0  0  0  0  0  0
    2.8361    2.7614   -0.1429 C   0  0  0  0  0  0  0  0  0  0  0  0
    3.7697    3.3294   -0.2763 H   0  0  0  0  0  0  0  0  0  0  0  0
    1.5371    3.3983   -0.2928 C   0  0  0  0  0  0  0  0  0  0  0  0
    1.4527    4.4650   -0.5523 H   0  0  0  0  0  0  0  0  0  0  0  0
    0.4384    2.5858   -0.1275 C   0  0  0  0  0  0  0  0  0  0  0  0
    0.7058    0.4638    1.9514 C   0  0  0  0  0  0  0  0  0  0  0  0
    1.6600    0.1626    2.4334 H   0  0  0  0  0  0  0  0  0  0  0  0
    0.3012    1.3286    2.5147 H   0  0  0  0  0  0  0  0  0  0  0  0
   -0.2524   -0.6792    1.9531 C   0  0  2  0  0  3  0  0  0  0  0  0
   -1.6858   -2.2678    1.2197 C   0  0  1  0  0  0  0  0  0  0  0  0
   -1.4717   -3.2128    0.6830 H   0  0  0  0  0  0  0  0  0  0  0  0
   -1.4744   -2.3721    2.7406 C   0  0  0  0  0  0  0  0  0  0  0  0
   -2.4033   -2.4364    3.3333 H   0  0  0  0  0  0  0  0  0  0  0  0
   -0.7938   -3.2040    3.0148 H   0  0  0  0  0  0  0  0  0  0  0  0
   -3.0371   -1.7179    0.7775 C   0  0  0  0  0  0  0  0  0  0  0  0
   -3.8252   -0.9181    1.6303 C   0  0  0  0  0  0  0  0  0  0  0  0
   -3.4740   -0.6636    2.6421 H   0  0  0  0  0  0  0  0  0  0  0  0
   -5.0675   -0.4276    1.2009 C   0  0  0  0  0  0  0  0  0  0  0  0
   -5.6743    0.1896    1.8805 H   0  0  0  0  0  0  0  0  0  0  0  0
   -5.5298   -0.7186   -0.0923 C   0  0  0  0  0  0  0  0  0  0  0  0
   -6.5068   -0.3385   -0.4279 H   0  0  0  0  0  0  0  0  0  0  0  0
   -4.7347   -1.4874   -0.9577 C   0  0  0  0  0  0  0  0  0  0  0  0
   -5.0818   -1.7070   -1.9787 H   0  0  0  0  0  0  0  0  0  0  0  0
   -3.4953   -1.9853   -0.5283 C   0  0  0  0  0  0  0  0  0  0  0  0
   -2.8521   -2.5676   -1.2082 H   0  0  0  0  0  0  0  0  0  0  0  0
    3.9383    0.5114    0.3988 C   0  0  0  0  0  0  0  0  0  0  0  0
    3.8277   -0.8809    0.1536 C   0  0  0  0  0  0  0  0  0  0  0  0
    2.9030   -1.2789   -0.2954 H   0  0  0  0  0  0  0  0  0  0  0  0
    4.9007   -1.7397    0.4205 C   0  0  0  0  0  0  0  0  0  0  0  0
    4.7963   -2.8146    0.2095 H   0  0  0  0  0  0  0  0  0  0  0  0
    6.1054   -1.2325    0.9330 C   0  0  0  0  0  0  0  0  0  0  0  0
    6.9486   -1.9090    1.1391 H   0  0  0  0  0  0  0  0  0  0  0  0
    6.2296    0.1460    1.1810 C   0  0  0  0  0  0  0  0  0  0  0  0
    7.1681    0.5503    1.5899 H   0  0  0  0  0  0  0  0  0  0  0  0
    5.1592    1.0084    0.9227 C   0  0  0  0  0  0  0  0  0  0  0  0
    5.2542    2.0814    1.1479 H   0  0  0  0  0  0  0  0  0  0  0  0
   -0.9797    2.9318   -0.1745 C   0  0  0  0  0  0  0  0  0  0  0  0
   -1.4063    4.2654    0.0554 C   0  0  0  0  0  0  0  0  0  0  0  0
   -0.6614    5.0392    0.2947 H   0  0  0  0  0  0  0  0  0  0  0  0
   -2.7629    4.6009    0.0069 C   0  0  0  0  0  0  0  0  0  0  0  0
   -3.0728    5.6410    0.1906 H   0  0  0  0  0  0  0  0  0  0  0  0
   -3.7286    3.6150   -0.2639 C   0  0  0  0  0  0  0  0  0  0  0  0
   -4.7957    3.8817   -0.3005 H   0  0  0  0  0  0  0  0  0  0  0  0
   -3.3237    2.2892   -0.4846 C   0  0  0  0  0  0  0  0  0  0  0  0
   -4.0645    1.5055   -0.6980 H   0  0  0  0  0  0  0  0  0  0  0  0
   -1.9666    1.9495   -0.4393 C   0  0  0  0  0  0  0  0  0  0  0  0
   -1.6597    0.9109   -0.6455 H   0  0  0  0  0  0  0  0  0  0  0  0
  1 10  1  1  0  0  0
  3 14  1  0  0  0  0
  3 13  1  0  0  0  0
  4  1  1  0  0  0  0
  4 30  1  0  0  0  0
  5  4  2  0  0  0  0
  6  5  1  0  0  0  0
  7  5  1  0  0  0  0
  7  9  2  0  0  0  0
  8  7  1  0  0  0  0
  9  1  1  0  0  0  0
 10 11  1  0  0  0  0
 10 12  1  0  0  0  0
 13 10  1  1  0  0  0
 13  2  1  0  0  0  0
 14 15  1  6  0  0  0
 14 16  1  0  0  0  0
 16 18  1  0  0  0  0
 16  2  1  0  0  0  0
 16 17  1  0  0  0  0
 19 14  1  0  0  0  0
 19 20  1  0  0  0  0
 20 21  1  0  0  0  0
 22 20  2  0  0  0  0
 22 23  1  0  0  0  0
 24 22  1  0  0  0  0
 25 24  1  0  0  0  0
 26 28  1  0  0  0  0
 26 24  2  0  0  0  0
 27 26  1  0  0  0  0
 28 19  2  0  0  0  0
 29 28  1  0  0  0  0
 30 39  1  0  0  0  0
 31 30  2  0  0  0  0
 31 33  1  0  0  0  0
 32 31  1  0  0  0  0
 33 35  2  0  0  0  0
 34 33  1  0  0  0  0
 35 36  1  0  0  0  0
 35 37  1  0  0  0  0
 37 38  1  0  0  0  0
 39 40  1  0  0  0  0
 39 37  2  0  0  0  0
 41  9  1  0  0  0  0
 41 42  1  0  0  0  0
 42 43  1  0  0  0  0
 44 42  2  0  0  0  0
 44 45  1  0  0  0  0
 46 44  1  0  0  0  0
 47 46  1  0  0  0  0
 48 50  1  0  0  0  0
 48 46  2  0  0  0  0
 49 48  1  0  0  0  0
 50 41  2  0  0  0  0
 51 50  1  0  0  0  0
M  END
