1,3
 OpenBabel05122313063D

 47 50  0  0  0  0  0  0  0  0999 V2000
   -0.9514    0.1379    0.0477 P   0  0  0  0  0  0  0  0  0  0  0  0
    4.6560    1.2175    0.0230 O   0  0  0  0  0  0  0  0  0  0  0  0
    2.0311    0.2455    0.2681 N   0  0  0  0  0  0  0  0  0  0  0  0
   -2.4200    0.0030    1.1240 C   0  0  0  0  0  0  0  0  0  0  0  0
   -2.3295   -0.7918    2.2841 C   0  0  0  0  0  0  0  0  0  0  0  0
   -1.4089   -1.3626    2.4787 H   0  0  0  0  0  0  0  0  0  0  0  0
   -3.4232   -0.8722    3.1568 C   0  0  0  0  0  0  0  0  0  0  0  0
   -3.3553   -1.4985    4.0590 H   0  0  0  0  0  0  0  0  0  0  0  0
   -4.6074   -0.1723    2.8715 C   0  0  0  0  0  0  0  0  0  0  0  0
   -5.4667   -0.2445    3.5554 H   0  0  0  0  0  0  0  0  0  0  0  0
   -4.7031    0.6058    1.7068 C   0  0  0  0  0  0  0  0  0  0  0  0
   -5.6358    1.1421    1.4749 H   0  0  0  0  0  0  0  0  0  0  0  0
   -3.6129    0.6926    0.8277 C   0  0  0  0  0  0  0  0  0  0  0  0
   -3.6933    1.2836   -0.0978 H   0  0  0  0  0  0  0  0  0  0  0  0
   -1.5947    0.5557   -1.6170 C   0  0  0  0  0  0  0  0  0  0  0  0
   -2.2388   -0.4743   -2.3384 C   0  0  0  0  0  0  0  0  0  0  0  0
   -2.3138   -1.4797   -1.8912 H   0  0  0  0  0  0  0  0  0  0  0  0
   -2.7360   -0.2150   -3.6219 C   0  0  0  0  0  0  0  0  0  0  0  0
   -3.2351   -1.0197   -4.1825 H   0  0  0  0  0  0  0  0  0  0  0  0
   -2.5865    1.0585   -4.1980 C   0  0  0  0  0  0  0  0  0  0  0  0
   -2.9746    1.2551   -5.2090 H   0  0  0  0  0  0  0  0  0  0  0  0
   -1.9323    2.0765   -3.4878 C   0  0  0  0  0  0  0  0  0  0  0  0
   -1.8058    3.0726   -3.9387 H   0  0  0  0  0  0  0  0  0  0  0  0
   -1.4342    1.8298   -2.1981 C   0  0  0  0  0  0  0  0  0  0  0  0
   -0.9209    2.6312   -1.6463 H   0  0  0  0  0  0  0  0  0  0  0  0
   -0.0291    1.6184    0.6143 C   0  0  0  0  0  0  0  0  0  0  0  0
   -0.6602    2.8126    1.0137 C   0  0  0  0  0  0  0  0  0  0  0  0
   -1.7596    2.8671    1.0119 H   0  0  0  0  0  0  0  0  0  0  0  0
    0.1023    3.9097    1.4341 C   0  0  0  0  0  0  0  0  0  0  0  0
   -0.3952    4.8369    1.7551 H   0  0  0  0  0  0  0  0  0  0  0  0
    1.5023    3.8108    1.4539 C   0  0  0  0  0  0  0  0  0  0  0  0
    2.1123    4.6656    1.7826 H   0  0  0  0  0  0  0  0  0  0  0  0
    2.1395    2.6219    1.0703 C   0  0  0  0  0  0  0  0  0  0  0  0
    3.2366    2.5401    1.0971 H   0  0  0  0  0  0  0  0  0  0  0  0
    1.3772    1.5123    0.6547 C   0  0  0  0  0  0  0  0  0  0  0  0
    2.6443    0.3488   -1.1047 C   0  0  0  0  0  0  0  0  0  0  0  0
    2.9186   -0.6912   -1.3726 H   0  0  0  0  0  0  0  0  0  0  0  0
    1.8581    0.6786   -1.8112 H   0  0  0  0  0  0  0  0  0  0  0  0
    3.8586    1.2849   -1.1575 C   0  0  0  0  0  0  0  0  0  0  0  0
    4.4606    1.0143   -2.0584 H   0  0  0  0  0  0  0  0  0  0  0  0
    3.5517    2.3458   -1.2712 H   0  0  0  0  0  0  0  0  0  0  0  0
    4.5015   -0.0205    0.7076 C   0  0  0  0  0  0  0  0  0  0  0  0
    5.2390   -0.0263    1.5342 H   0  0  0  0  0  0  0  0  0  0  0  0
    4.7295   -0.8873    0.0461 H   0  0  0  0  0  0  0  0  0  0  0  0
    3.0910   -0.1706    1.2803 C   0  0  0  0  0  0  0  0  0  0  0  0
    2.9501    0.4542    2.1814 H   0  0  0  0  0  0  0  0  0  0  0  0
    2.9227   -1.2333    1.5386 H   0  0  0  0  0  0  0  0  0  0  0  0
  1 26  1  0  0  0  0
  1  4  1  0  0  0  0
  2 42  1  0  0  0  0
  3 35  1  0  0  0  0
  3 45  1  0  0  0  0
  4  5  1  0  0  0  0
  5  6  1  0  0  0  0
  5  7  2  0  0  0  0
  7  8  1  0  0  0  0
  9  7  1  0  0  0  0
  9 10  1  0  0  0  0
 11  9  2  0  0  0  0
 12 11  1  0  0  0  0
 13  4  2  0  0  0  0
 13 11  1  0  0  0  0
 14 13  1  0  0  0  0
 15  1  1  0  0  0  0
 16 17  1  0  0  0  0
 16 15  2  0  0  0  0
 18 16  1  0  0  0  0
 19 18  1  0  0  0  0
 20 18  2  0  0  0  0
 20 22  1  0  0  0  0
 21 20  1  0  0  0  0
 22 24  2  0  0  0  0
 23 22  1  0  0  0  0
 24 25  1  0  0  0  0
 24 15  1  0  0  0  0
 26 35  2  0  0  0  0
 26 27  1  0  0  0  0
 27 29  2  0  0  0  0
 28 27  1  0  0  0  0
 29 31  1  0  0  0  0
 29 30  1  0  0  0  0
 31 32  1  0  0  0  0
 33 34  1  0  0  0  0
 33 31  2  0  0  0  0
 35 33  1  0  0  0  0
 36  3  1  0  0  0  0
 37 36  1  0  0  0  0
 38 36  1  0  0  0  0
 39 36  1  0  0  0  0
 39  2  1  0  0  0  0
 40 39  1  0  0  0  0
 41 39  1  0  0  0  0
 42 45  1  0  0  0  0
 42 43  1  0  0  0  0
 44 42  1  0  0  0  0
 45 47  1  0  0  0  0
 45 46  1  0  0  0  0
M  END
