1,2
q = 0.0, confidence = 0.998

 66 71  0  0  0  0  0  0  0  0999 V2000
    0.8245    0.9020    0.5062 P   0  0  0  0  0  0  0  0  0  0  0  0
   -2.1740    0.2134    0.3859 N   0  0  0  0  0  0  0  0  0  0  0  0
   -2.6585   -0.9593    1.0690 C   0  0  0  0  0  0  0  0  0  0  0  0
   -2.1781   -1.5117    2.2593 C   0  0  0  0  0  0  0  0  0  0  0  0
   -1.3590   -1.0364    2.8157 H   0  0  0  0  0  0  0  0  0  0  0  0
   -2.7729   -2.7035    2.7015 C   0  0  0  0  0  0  0  0  0  0  0  0
   -2.4169   -3.1697    3.6323 H   0  0  0  0  0  0  0  0  0  0  0  0
   -3.8111   -3.3156    1.9675 C   0  0  0  0  0  0  0  0  0  0  0  0
   -4.2490   -4.2563    2.3330 H   0  0  0  0  0  0  0  0  0  0  0  0
   -4.2907   -2.7424    0.7821 C   0  0  0  0  0  0  0  0  0  0  0  0
   -5.0993   -3.2233    0.2122 H   0  0  0  0  0  0  0  0  0  0  0  0
   -3.7183   -1.5417    0.3291 C   0  0  0  0  0  0  0  0  0  0  0  0
   -3.9748   -0.6723   -0.8106 C   0  0  0  0  0  0  0  0  0  0  0  0
   -4.8946   -0.7132   -1.8720 C   0  0  0  0  0  0  0  0  0  0  0  0
   -5.5954   -1.5554   -1.9691 H   0  0  0  0  0  0  0  0  0  0  0  0
   -4.9021    0.3353   -2.8017 C   0  0  0  0  0  0  0  0  0  0  0  0
   -5.6159    0.3159   -3.6386 H   0  0  0  0  0  0  0  0  0  0  0  0
   -4.0067    1.4188   -2.6795 C   0  0  0  0  0  0  0  0  0  0  0  0
   -4.0362    2.2346   -3.4171 H   0  0  0  0  0  0  0  0  0  0  0  0
   -3.0704    1.4709   -1.6352 C   0  0  0  0  0  0  0  0  0  0  0  0
   -2.3648    2.3068   -1.5393 H   0  0  0  0  0  0  0  0  0  0  0  0
   -3.0638    0.4117   -0.7239 C   0  0  0  0  0  0  0  0  0  0  0  0
   -1.8513    1.3652    1.2155 C   0  0  0  0  0  0  0  0  0  0  0  0
   -2.9136    2.0317    1.8542 C   0  0  0  0  0  0  0  0  0  0  0  0
   -3.9418    1.6839    1.6745 H   0  0  0  0  0  0  0  0  0  0  0  0
   -2.6564    3.1070    2.7111 C   0  0  0  0  0  0  0  0  0  0  0  0
   -3.4914    3.6217    3.2095 H   0  0  0  0  0  0  0  0  0  0  0  0
   -1.3317    3.5136    2.9450 C   0  0  0  0  0  0  0  0  0  0  0  0
   -1.1212    4.3482    3.6304 H   0  0  0  0  0  0  0  0  0  0  0  0
   -0.2756    2.8540    2.3045 C   0  0  0  0  0  0  0  0  0  0  0  0
    0.7578    3.1742    2.5004 H   0  0  0  0  0  0  0  0  0  0  0  0
   -0.5180    1.7802    1.4178 C   0  0  0  0  0  0  0  0  0  0  0  0
    1.5653    2.1564   -0.6604 C   0  0  0  0  0  0  0  0  0  0  0  0
    2.3784    1.5586   -1.1335 H   0  0  0  0  0  0  0  0  0  0  0  0
    0.5553    2.5239   -1.7602 C   0  0  0  0  0  0  0  0  0  0  0  0
    0.1170    1.6012   -2.1977 H   0  0  0  0  0  0  0  0  0  0  0  0
   -0.2873    3.0840   -1.2947 H   0  0  0  0  0  0  0  0  0  0  0  0
    1.2093    3.3949   -2.8404 C   0  0  0  0  0  0  0  0  0  0  0  0
    1.9835    2.7933   -3.3675 H   0  0  0  0  0  0  0  0  0  0  0  0
    0.4577    3.6752   -3.6076 H   0  0  0  0  0  0  0  0  0  0  0  0
    1.8599    4.6467   -2.2377 C   0  0  0  0  0  0  0  0  0  0  0  0
    1.0647    5.3033   -1.8175 H   0  0  0  0  0  0  0  0  0  0  0  0
    2.3685    5.2393   -3.0265 H   0  0  0  0  0  0  0  0  0  0  0  0
    2.8477    4.2832   -1.1218 C   0  0  0  0  0  0  0  0  0  0  0  0
    3.2739    5.2006   -0.6641 H   0  0  0  0  0  0  0  0  0  0  0  0
    3.7051    3.7218   -1.5559 H   0  0  0  0  0  0  0  0  0  0  0  0
    2.1819    3.4185   -0.0388 C   0  0  0  0  0  0  0  0  0  0  0  0
    1.3802    4.0121    0.4521 H   0  0  0  0  0  0  0  0  0  0  0  0
    2.9192    3.1584    0.7489 H   0  0  0  0  0  0  0  0  0  0  0  0
    2.1302    0.5916    1.8045 C   0  0  0  0  0  0  0  0  0  0  0  0
    2.2517    1.5404    2.3762 H   0  0  0  0  0  0  0  0  0  0  0  0
    3.4902    0.2230    1.1791 C   0  0  0  0  0  0  0  0  0  0  0  0
    3.8717    1.0608    0.5606 H   0  0  0  0  0  0  0  0  0  0  0  0
    3.3592   -0.6394    0.4949 H   0  0  0  0  0  0  0  0  0  0  0  0
    4.5208   -0.1397    2.2571 C   0  0  0  0  0  0  0  0  0  0  0  0
    5.4730   -0.4357    1.7698 H   0  0  0  0  0  0  0  0  0  0  0  0
    4.7484    0.7589    2.8751 H   0  0  0  0  0  0  0  0  0  0  0  0
    4.0086   -1.2616    3.1674 C   0  0  0  0  0  0  0  0  0  0  0  0
    4.7631   -1.5100    3.9428 H   0  0  0  0  0  0  0  0  0  0  0  0
    3.8611   -2.1818    2.5593 H   0  0  0  0  0  0  0  0  0  0  0  0
    2.6785   -0.8681    3.8200 C   0  0  0  0  0  0  0  0  0  0  0  0
    2.2949   -1.6905    4.4594 H   0  0  0  0  0  0  0  0  0  0  0  0
    2.8450    0.0020    4.4949 H   0  0  0  0  0  0  0  0  0  0  0  0
    1.6253   -0.4997    2.7673 C   0  0  0  0  0  0  0  0  0  0  0  0
    0.6905   -0.1591    3.2613 H   0  0  0  0  0  0  0  0  0  0  0  0
    1.3569   -1.3982    2.1699 H   0  0  0  0  0  0  0  0  0  0  0  0
  1 32  1  0  0  0  0
  1 50  1  0  0  0  0
  2  3  1  0  0  0  0
  2 23  1  0  0  0  0
  3  4  1  0  0  0  0
  4  6  2  0  0  0  0
  4  5  1  0  0  0  0
  6  7  1  0  0  0  0
  8  9  1  0  0  0  0
  8  6  1  0  0  0  0
 10  8  2  0  0  0  0
 11 10  1  0  0  0  0
 12 10  1  0  0  0  0
 12  3  2  0  0  0  0
 13 22  1  0  0  0  0
 13 12  1  0  0  0  0
 14 13  2  0  0  0  0
 15 14  1  0  0  0  0
 16 18  2  0  0  0  0
 16 14  1  0  0  0  0
 17 16  1  0  0  0  0
 18 20  1  0  0  0  0
 19 18  1  0  0  0  0
 20 21  1  0  0  0  0
 20 22  2  0  0  0  0
 22  2  1  0  0  0  0
 23 32  2  0  0  0  0
 23 24  1  0  0  0  0
 24 26  2  0  0  0  0
 25 24  1  0  0  0  0
 26 28  1  0  0  0  0
 26 27  1  0  0  0  0
 28 29  1  0  0  0  0
 30 31  1  0  0  0  0
 30 28  2  0  0  0  0
 32 30  1  0  0  0  0
 33 47  1  0  0  0  0
 33  1  1  0  0  0  0
 34 33  1  0  0  0  0
 35 37  1  0  0  0  0
 35 33  1  0  0  0  0
 36 35  1  0  0  0  0
 38 41  1  0  0  0  0
 38 35  1  0  0  0  0
 39 38  1  0  0  0  0
 40 38  1  0  0  0  0
 41 42  1  0  0  0  0
 41 44  1  0  0  0  0
 43 41  1  0  0  0  0
 44 45  1  0  0  0  0
 44 47  1  0  0  0  0
 46 44  1  0  0  0  0
 47 48  1  0  0  0  0
 47 49  1  0  0  0  0
 50 51  1  0  0  0  0
 50 64  1  0  0  0  0
 52 50  1  0  0  0  0
 52 55  1  0  0  0  0
 53 52  1  0  0  0  0
 54 52  1  0  0  0  0
 55 57  1  0  0  0  0
 55 58  1  0  0  0  0
 56 55  1  0  0  0  0
 58 61  1  0  0  0  0
 58 59  1  0  0  0  0
 60 58  1  0  0  0  0
 61 62  1  0  0  0  0
 61 63  1  0  0  0  0
 64 65  1  0  0  0  0
 64 61  1  0  0  0  0
 66 64  1  0  0  0  0
M  END
