1,2
 OpenBabel05122313063D

 43 46  0  0  1  0  0  0  0  0999 V2000
   -0.0325    1.0014    0.0373 P   0  0  0  0  0  0  0  0  0  0  0  0
    2.0996   -1.1817    0.1017 N   0  0  0  0  0  2  0  0  0  0  0  0
    2.8087   -0.2472    0.7936 C   0  0  2  0  0  3  0  0  0  0  0  0
    4.2029   -0.1461    0.5992 C   0  0  0  0  0  0  0  0  0  0  0  0
    4.7617    0.6353    1.1312 H   0  0  0  0  0  0  0  0  0  0  0  0
    4.8589   -1.0142   -0.2797 C   0  0  0  0  0  0  0  0  0  0  0  0
    5.9445   -0.9281   -0.4358 H   0  0  0  0  0  0  0  0  0  0  0  0
    4.1114   -1.9896   -0.9509 C   0  0  0  0  0  0  0  0  0  0  0  0
    4.5787   -2.7089   -1.6377 H   0  0  0  0  0  0  0  0  0  0  0  0
    2.7322   -2.0361   -0.7335 C   0  0  0  0  0  0  0  0  0  0  0  0
    2.0933   -2.7993   -1.2054 H   0  0  0  0  0  0  0  0  0  0  0  0
    0.9213    1.3427    1.5520 C   0  0  0  0  0  0  0  0  0  0  0  0
    2.1520    0.6611    1.7789 C   0  0  0  0  0  0  0  0  0  0  0  0
    2.8274    0.9068    2.9939 C   0  0  0  0  0  0  0  0  0  0  0  0
    3.7618    0.3667    3.2050 H   0  0  0  0  0  0  0  0  0  0  0  0
    2.3169    1.7956    3.9502 C   0  0  0  0  0  0  0  0  0  0  0  0
    2.8609    1.9508    4.8934 H   0  0  0  0  0  0  0  0  0  0  0  0
    1.1193    2.4789    3.7030 C   0  0  0  0  0  0  0  0  0  0  0  0
    0.7185    3.1892    4.4408 H   0  0  0  0  0  0  0  0  0  0  0  0
    0.4236    2.2494    2.5069 C   0  0  0  0  0  0  0  0  0  0  0  0
   -0.5170    2.7837    2.3100 H   0  0  0  0  0  0  0  0  0  0  0  0
    0.9513    1.5853   -1.3757 C   0  0  0  0  0  0  0  0  0  0  0  0
    0.9113    0.8823   -2.5978 C   0  0  0  0  0  0  0  0  0  0  0  0
    0.3122   -0.0379   -2.6894 H   0  0  0  0  0  0  0  0  0  0  0  0
    1.6471    1.3537   -3.6940 C   0  0  0  0  0  0  0  0  0  0  0  0
    1.6176    0.8061   -4.6475 H   0  0  0  0  0  0  0  0  0  0  0  0
    2.4219    2.5189   -3.5714 C   0  0  0  0  0  0  0  0  0  0  0  0
    3.0003    2.8853   -4.4326 H   0  0  0  0  0  0  0  0  0  0  0  0
    2.4647    3.2163   -2.3525 C   0  0  0  0  0  0  0  0  0  0  0  0
    3.0739    4.1275   -2.2586 H   0  0  0  0  0  0  0  0  0  0  0  0
    1.7320    2.7537   -1.2502 C   0  0  0  0  0  0  0  0  0  0  0  0
    1.7684    3.2972   -0.2936 H   0  0  0  0  0  0  0  0  0  0  0  0
   -1.6048    1.8943    0.0798 C   0  0  0  0  0  0  0  0  0  0  0  0
   -1.9201    2.8281   -0.9282 C   0  0  0  0  0  0  0  0  0  0  0  0
   -1.1857    3.0734   -1.7093 H   0  0  0  0  0  0  0  0  0  0  0  0
   -3.1840    3.4372   -0.9327 C   0  0  0  0  0  0  0  0  0  0  0  0
   -3.4328    4.1663   -1.7178 H   0  0  0  0  0  0  0  0  0  0  0  0
   -4.1269    3.1138    0.0548 C   0  0  0  0  0  0  0  0  0  0  0  0
   -5.1199    3.5872    0.0406 H   0  0  0  0  0  0  0  0  0  0  0  0
   -3.8097    2.1830    1.0597 C   0  0  0  0  0  0  0  0  0  0  0  0
   -4.5517    1.9225    1.8284 H   0  0  0  0  0  0  0  0  0  0  0  0
   -2.5532    1.5684    1.0758 C   0  0  0  0  0  0  0  0  0  0  0  0
   -2.3211    0.8181    1.8456 H   0  0  0  0  0  0  0  0  0  0  0  0
  1 33  1  0  0  0  0
  1 12  1  0  0  0  0
  2  3  1  0  0  0  0
  3 13  1  1  0  0  0
  4  3  1  0  0  0  0
  4  5  1  0  0  0  0
  6  4  2  0  0  0  0
  7  6  1  0  0  0  0
  8 10  2  0  0  0  0
  8  6  1  0  0  0  0
  9  8  1  0  0  0  0
 10  2  1  0  0  0  0
 11 10  1  0  0  0  0
 12 13  2  0  0  0  0
 12 20  1  0  0  0  0
 13 14  1  0  0  0  0
 14 15  1  0  0  0  0
 14 16  2  0  0  0  0
 16 17  1  0  0  0  0
 18 16  1  0  0  0  0
 18 19  1  0  0  0  0
 20 18  2  0  0  0  0
 21 20  1  0  0  0  0
 22 31  1  0  0  0  0
 22  1  1  0  0  0  0
 23 22  2  0  0  0  0
 24 23  1  0  0  0  0
 25 27  2  0  0  0  0
 25 23  1  0  0  0  0
 26 25  1  0  0  0  0
 27 29  1  0  0  0  0
 28 27  1  0  0  0  0
 29 30  1  0  0  0  0
 29 31  2  0  0  0  0
 31 32  1  0  0  0  0
 33 42  1  0  0  0  0
 34 33  2  0  0  0  0
 35 34  1  0  0  0  0
 36 34  1  0  0  0  0
 36 38  2  0  0  0  0
 37 36  1  0  0  0  0
 38 40  1  0  0  0  0
 39 38  1  0  0  0  0
 40 42  2  0  0  0  0
 40 41  1  0  0  0  0
 42 43  1  0  0  0  0
M  END
