1,2
 OpenBabel05122313063D

 35 36  0  0  1  0  0  0  0  0999 V2000
   -1.3423    1.1046    0.9589 P   0  0  1  0  0  0  0  0  0  0  0  0
   -2.1690   -1.6654   -0.2517 N   0  0  0  0  0  2  0  0  0  0  0  0
   -0.3542    2.0680    2.1950 C   0  0  0  0  0  0  0  0  0  0  0  0
    0.3415    2.7061    1.6156 H   0  0  0  0  0  0  0  0  0  0  0  0
   -1.0657    2.7470    2.7119 H   0  0  0  0  0  0  0  0  0  0  0  0
    0.4104    1.1849    3.1789 C   0  0  0  0  0  0  0  0  0  0  0  0
   -0.2601    0.5146    3.7554 H   0  0  0  0  0  0  0  0  0  0  0  0
    0.9561    1.8113    3.9117 H   0  0  0  0  0  0  0  0  0  0  0  0
    1.1535    0.5595    2.6460 H   0  0  0  0  0  0  0  0  0  0  0  0
   -2.7098    0.3700    2.0063 C   0  0  0  0  0  0  0  0  0  0  0  0
   -2.6222    0.8079    3.0211 H   0  0  0  0  0  0  0  0  0  0  0  0
   -3.6805    0.7030    1.5873 H   0  0  0  0  0  0  0  0  0  0  0  0
   -2.6624   -1.1690    2.0975 C   0  0  0  0  0  0  0  0  0  0  0  0
   -1.6468   -1.4981    2.4063 H   0  0  0  0  0  0  0  0  0  0  0  0
   -3.3683   -1.5084    2.8804 H   0  0  0  0  0  0  0  0  0  0  0  0
   -3.0270   -1.8210    0.7886 C   0  0  1  0  0  3  0  0  0  0  0  0
   -4.2435   -2.5074    0.6195 C   0  0  0  0  0  0  0  0  0  0  0  0
   -4.9170   -2.6274    1.4803 H   0  0  0  0  0  0  0  0  0  0  0  0
   -4.5854   -3.0255   -0.6351 C   0  0  0  0  0  0  0  0  0  0  0  0
   -5.5332   -3.5657   -0.7767 H   0  0  0  0  0  0  0  0  0  0  0  0
   -3.7028   -2.8323   -1.7076 C   0  0  0  0  0  0  0  0  0  0  0  0
   -3.9300   -3.2041   -2.7164 H   0  0  0  0  0  0  0  0  0  0  0  0
   -2.5088   -2.1478   -1.4686 C   0  0  0  0  0  0  0  0  0  0  0  0
   -1.7868   -1.9678   -2.2808 H   0  0  0  0  0  0  0  0  0  0  0  0
   -2.1444    2.3543   -0.1061 C   0  0  0  0  0  0  0  0  0  0  0  0
   -1.9678    2.2778   -1.5030 C   0  0  0  0  0  0  0  0  0  0  0  0
   -1.3482    1.4687   -1.9232 H   0  0  0  0  0  0  0  0  0  0  0  0
   -2.5707    3.2275   -2.3417 C   0  0  0  0  0  0  0  0  0  0  0  0
   -2.4271    3.1658   -3.4307 H   0  0  0  0  0  0  0  0  0  0  0  0
   -3.3531    4.2542   -1.7908 C   0  0  0  0  0  0  0  0  0  0  0  0
   -3.8255    4.9991   -2.4484 H   0  0  0  0  0  0  0  0  0  0  0  0
   -3.5338    4.3336   -0.3995 C   0  0  0  0  0  0  0  0  0  0  0  0
   -4.1472    5.1385    0.0321 H   0  0  0  0  0  0  0  0  0  0  0  0
   -2.9318    3.3893    0.4437 C   0  0  0  0  0  0  0  0  0  0  0  0
   -3.0817    3.4644    1.5323 H   0  0  0  0  0  0  0  0  0  0  0  0
  1 10  1  1  0  0  0
  1  3  1  0  0  0  0
  2 16  1  0  0  0  0
  3  5  1  0  0  0  0
  3  6  1  0  0  0  0
  4  3  1  0  0  0  0
  6  7  1  0  0  0  0
  6  8  1  0  0  0  0
  9  6  1  0  0  0  0
 10 13  1  0  0  0  0
 10 11  1  0  0  0  0
 12 10  1  0  0  0  0
 13 14  1  0  0  0  0
 13 15  1  0  0  0  0
 16 13  1  6  0  0  0
 17 16  1  0  0  0  0
 17 18  1  0  0  0  0
 19 17  2  0  0  0  0
 20 19  1  0  0  0  0
 21 23  2  0  0  0  0
 21 19  1  0  0  0  0
 22 21  1  0  0  0  0
 23  2  1  0  0  0  0
 24 23  1  0  0  0  0
 25 34  1  0  0  0  0
 25  1  1  0  0  0  0
 26 25  2  0  0  0  0
 27 26  1  0  0  0  0
 28 30  2  0  0  0  0
 28 26  1  0  0  0  0
 29 28  1  0  0  0  0
 30 32  1  0  0  0  0
 31 30  1  0  0  0  0
 32 33  1  0  0  0  0
 32 34  2  0  0  0  0
 34 35  1  0  0  0  0
M  END
