3,6
 OpenBabel05122313063D

 38 40  0  0  0  0  0  0  0  0999 V2000
   -0.7494   -1.4138    2.3478 C   0  0  0  0  0  3  0  0  0  0  0  0
   -1.0780   -2.0497    3.1903 H   0  0  0  0  0  0  0  0  0  0  0  0
   -1.2583   -1.7048    1.1897 N   0  0  0  0  0  2  0  0  0  0  0  0
   -2.0774   -2.8019    1.2262 O   0  0  0  0  0  0  0  0  0  0  0  0
   -2.5064   -2.7780    0.3370 H   0  0  0  0  0  0  0  0  0  0  0  0
    0.9906    0.1308   -0.0186 P   0  0  0  0  0  0  0  0  0  0  0  0
    0.8739    0.5250    1.7789 C   0  0  0  0  0  0  0  0  0  0  0  0
    0.1192   -0.2864    2.6796 C   0  0  0  0  0  0  0  0  0  0  0  0
    0.1847    0.0107    4.0643 C   0  0  0  0  0  0  0  0  0  0  0  0
   -0.3828   -0.6218    4.7642 H   0  0  0  0  0  0  0  0  0  0  0  0
    0.9179    1.0956    4.5531 C   0  0  0  0  0  0  0  0  0  0  0  0
    0.9302    1.3081    5.6323 H   0  0  0  0  0  0  0  0  0  0  0  0
    1.6266    1.9079    3.6577 C   0  0  0  0  0  0  0  0  0  0  0  0
    2.2032    2.7712    4.0218 H   0  0  0  0  0  0  0  0  0  0  0  0
    1.6090    1.6105    2.2871 C   0  0  0  0  0  0  0  0  0  0  0  0
    2.1798    2.2414    1.5910 H   0  0  0  0  0  0  0  0  0  0  0  0
    2.3896   -1.0637   -0.0914 C   0  0  0  0  0  0  0  0  0  0  0  0
    2.8544   -1.7539    1.0449 C   0  0  0  0  0  0  0  0  0  0  0  0
    2.4423   -1.5211    2.0375 H   0  0  0  0  0  0  0  0  0  0  0  0
    3.8524   -2.7337    0.9176 C   0  0  0  0  0  0  0  0  0  0  0  0
    4.2091   -3.2649    1.8132 H   0  0  0  0  0  0  0  0  0  0  0  0
    4.3977   -3.0298   -0.3403 C   0  0  0  0  0  0  0  0  0  0  0  0
    5.1812   -3.7965   -0.4368 H   0  0  0  0  0  0  0  0  0  0  0  0
    3.9405   -2.3421   -1.4771 C   0  0  0  0  0  0  0  0  0  0  0  0
    4.3641   -2.5677   -2.4675 H   0  0  0  0  0  0  0  0  0  0  0  0
    2.9389   -1.3704   -1.3566 C   0  0  0  0  0  0  0  0  0  0  0  0
    2.5851   -0.8358   -2.2517 H   0  0  0  0  0  0  0  0  0  0  0  0
    1.6850    1.6451   -0.7991 C   0  0  0  0  0  0  0  0  0  0  0  0
    0.7995    2.6265   -1.2908 C   0  0  0  0  0  0  0  0  0  0  0  0
   -0.2882    2.4756   -1.1939 H   0  0  0  0  0  0  0  0  0  0  0  0
    1.3065    3.7995   -1.8688 C   0  0  0  0  0  0  0  0  0  0  0  0
    0.6068    4.5594   -2.2483 H   0  0  0  0  0  0  0  0  0  0  0  0
    2.6920    4.0033   -1.9645 C   0  0  0  0  0  0  0  0  0  0  0  0
    3.0851    4.9239   -2.4225 H   0  0  0  0  0  0  0  0  0  0  0  0
    3.5767    3.0295   -1.4739 C   0  0  0  0  0  0  0  0  0  0  0  0
    4.6643    3.1841   -1.5424 H   0  0  0  0  0  0  0  0  0  0  0  0
    3.0787    1.8539   -0.8927 C   0  0  0  0  0  0  0  0  0  0  0  0
    3.7773    1.0956   -0.5098 H   0  0  0  0  0  0  0  0  0  0  0  0
  1  8  1  0  0  0  0
  1  2  1  0  0  0  0
  3  4  1  0  0  0  0
  3  1  1  0  0  0  0
  5  4  1  0  0  0  0
  6  7  1  0  0  0  0
  7 15  2  0  0  0  0
  7  8  1  0  0  0  0
  8  9  2  0  0  0  0
  9 11  1  0  0  0  0
  9 10  1  0  0  0  0
 11 12  1  0  0  0  0
 13 14  1  0  0  0  0
 13 11  2  0  0  0  0
 15 13  1  0  0  0  0
 16 15  1  0  0  0  0
 17  6  1  0  0  0  0
 17 18  1  0  0  0  0
 18 19  1  0  0  0  0
 20 18  2  0  0  0  0
 20 21  1  0  0  0  0
 22 20  1  0  0  0  0
 23 22  1  0  0  0  0
 24 26  1  0  0  0  0
 24 22  2  0  0  0  0
 25 24  1  0  0  0  0
 26 17  2  0  0  0  0
 27 26  1  0  0  0  0
 28  6  1  0  0  0  0
 29 30  1  0  0  0  0
 29 28  2  0  0  0  0
 31 29  1  0  0  0  0
 32 31  1  0  0  0  0
 33 31  2  0  0  0  0
 33 35  1  0  0  0  0
 34 33  1  0  0  0  0
 35 37  2  0  0  0  0
 36 35  1  0  0  0  0
 37 28  1  0  0  0  0
 37 38  1  0  0  0  0
M  END
