1,5
 OpenBabel05122313063D

 60 63  0  0  1  0  0  0  0  0999 V2000
   -2.4001   -0.4703    0.4489 P   0  0  0  0  0  0  0  0  0  0  0  0
    2.8877    5.2880    0.1155 Br  0  0  0  0  0  0  0  0  0  0  0  0
    6.7809   -2.5460    0.3622 Br  0  0  0  0  0  0  0  0  0  0  0  0
   -1.0959   -0.3380    1.5621 N   0  0  0  0  0  0  0  0  0  0  0  0
    0.1870   -1.0805   -1.3019 N   0  0  0  0  0  0  0  0  0  0  0  0
    0.3141   -0.3098    1.1543 C   0  0  1  0  0  0  0  0  0  0  0  0
    0.6621   -1.3725    0.0738 C   0  0  2  0  0  0  0  0  0  0  0  0
   -1.3200    0.1366    2.9246 C   0  0  0  0  0  0  0  0  0  0  0  0
    0.2379   -2.3002   -2.1473 C   0  0  0  0  0  0  0  0  0  0  0  0
   -3.1389   -2.1282    0.7006 C   0  0  0  0  0  0  0  0  0  0  0  0
   -4.1679   -2.5347   -0.1779 C   0  0  0  0  0  0  0  0  0  0  0  0
   -4.7274   -3.8124   -0.0417 C   0  0  0  0  0  0  0  0  0  0  0  0
   -4.2586   -4.6903    0.9519 C   0  0  0  0  0  0  0  0  0  0  0  0
   -3.2258   -4.2898    1.8141 C   0  0  0  0  0  0  0  0  0  0  0  0
   -2.6636   -3.0090    1.6901 C   0  0  0  0  0  0  0  0  0  0  0  0
   -3.6330    0.7205    1.0929 C   0  0  0  0  0  0  0  0  0  0  0  0
   -4.8202    0.3055    1.7234 C   0  0  0  0  0  0  0  0  0  0  0  0
   -5.7093    1.2628    2.2383 C   0  0  0  0  0  0  0  0  0  0  0  0
   -5.4139    2.6296    2.1309 C   0  0  0  0  0  0  0  0  0  0  0  0
   -4.2268    3.0439    1.5018 C   0  0  0  0  0  0  0  0  0  0  0  0
   -3.3404    2.0956    0.9791 C   0  0  0  0  0  0  0  0  0  0  0  0
    0.8958    1.0787    0.8968 C   0  0  0  0  0  0  0  0  0  0  0  0
    2.0081    1.5057    1.6489 C   0  0  0  0  0  0  0  0  0  0  0  0
    2.6060    2.7542    1.4280 C   0  0  0  0  0  0  0  0  0  0  0  0
    2.0824    3.5945    0.4327 C   0  0  0  0  0  0  0  0  0  0  0  0
    0.9704    3.1987   -0.3281 C   0  0  0  0  0  0  0  0  0  0  0  0
    0.3833    1.9491   -0.0862 C   0  0  0  0  0  0  0  0  0  0  0  0
    2.1547   -1.6703    0.0994 C   0  0  0  0  0  0  0  0  0  0  0  0
    2.6356   -2.8021    0.7838 C   0  0  0  0  0  0  0  0  0  0  0  0
    4.0086   -3.0714    0.8700 C   0  0  0  0  0  0  0  0  0  0  0  0
    4.9163   -2.1935    0.2564 C   0  0  0  0  0  0  0  0  0  0  0  0
    4.4622   -1.0607   -0.4382 C   0  0  0  0  0  0  0  0  0  0  0  0
    3.0861   -0.8056   -0.5098 C   0  0  0  0  0  0  0  0  0  0  0  0
    0.7777   -0.3615   -1.7554 H   0  0  0  0  0  0  0  0  0  0  0  0
    0.8624   -0.6974    2.0410 H   0  0  0  0  0  0  0  0  0  0  0  0
    0.1192   -2.2881    0.3884 H   0  0  0  0  0  0  0  0  0  0  0  0
   -1.1031    1.2230    3.0370 H   0  0  0  0  0  0  0  0  0  0  0  0
   -2.3697   -0.0306    3.2258 H   0  0  0  0  0  0  0  0  0  0  0  0
   -0.6653   -0.4217    3.6298 H   0  0  0  0  0  0  0  0  0  0  0  0
    0.0144   -1.9966   -3.1861 H   0  0  0  0  0  0  0  0  0  0  0  0
    1.2385   -2.7791   -2.0895 H   0  0  0  0  0  0  0  0  0  0  0  0
   -0.5322   -3.0131   -1.7954 H   0  0  0  0  0  0  0  0  0  0  0  0
   -4.5082   -1.8424   -0.9668 H   0  0  0  0  0  0  0  0  0  0  0  0
   -5.5299   -4.1301   -0.7245 H   0  0  0  0  0  0  0  0  0  0  0  0
   -4.6972   -5.6950    1.0494 H   0  0  0  0  0  0  0  0  0  0  0  0
   -2.8551   -4.9783    2.5888 H   0  0  0  0  0  0  0  0  0  0  0  0
   -1.8503   -2.6848    2.3578 H   0  0  0  0  0  0  0  0  0  0  0  0
   -5.0544   -0.7659    1.8086 H   0  0  0  0  0  0  0  0  0  0  0  0
   -6.6402    0.9347    2.7249 H   0  0  0  0  0  0  0  0  0  0  0  0
   -6.1134    3.3778    2.5333 H   0  0  0  0  0  0  0  0  0  0  0  0
   -3.9967    4.1156    1.4059 H   0  0  0  0  0  0  0  0  0  0  0  0
   -2.4222    2.4207    0.4679 H   0  0  0  0  0  0  0  0  0  0  0  0
    2.4264    0.8413    2.4220 H   0  0  0  0  0  0  0  0  0  0  0  0
    3.4735    3.0739    2.0221 H   0  0  0  0  0  0  0  0  0  0  0  0
    0.5650    3.8559   -1.1103 H   0  0  0  0  0  0  0  0  0  0  0  0
   -0.4839    1.6431   -0.7019 H   0  0  0  0  0  0  0  0  0  0  0  0
    1.9212   -3.4933    1.2592 H   0  0  0  0  0  0  0  0  0  0  0  0
    4.3739   -3.9603    1.4032 H   0  0  0  0  0  0  0  0  0  0  0  0
    5.1804   -0.3800   -0.9159 H   0  0  0  0  0  0  0  0  0  0  0  0
    2.7470    0.0944   -1.0458 H   0  0  0  0  0  0  0  0  0  0  0  0
  1 10  1  0  0  0  0
  1 16  1  0  0  0  0
  1  4  1  0  0  0  0
  2 25  1  0  0  0  0
  4  8  1  0  0  0  0
  5  7  1  0  0  0  0
  6  4  1  0  0  0  0
  6 35  1  1  0  0  0
  7 28  1  0  0  0  0
  7 36  1  1  0  0  0
  7  6  1  0  0  0  0
  8 37  1  0  0  0  0
  8 38  1  0  0  0  0
  8 39  1  0  0  0  0
  9 41  1  0  0  0  0
  9 42  1  0  0  0  0
  9  5  1  0  0  0  0
 10 15  1  0  0  0  0
 11 12  1  0  0  0  0
 11 10  2  0  0  0  0
 12 13  2  0  0  0  0
 13 45  1  0  0  0  0
 13 14  1  0  0  0  0
 14 46  1  0  0  0  0
 15 14  2  0  0  0  0
 15 47  1  0  0  0  0
 16 17  1  0  0  0  0
 17 48  1  0  0  0  0
 17 18  2  0  0  0  0
 18 49  1  0  0  0  0
 19 18  1  0  0  0  0
 19 50  1  0  0  0  0
 20 19  2  0  0  0  0
 21 16  2  0  0  0  0
 21 20  1  0  0  0  0
 22  6  1  0  0  0  0
 22 23  1  0  0  0  0
 23 53  1  0  0  0  0
 24 23  2  0  0  0  0
 24 54  1  0  0  0  0
 25 24  1  0  0  0  0
 26 27  1  0  0  0  0
 26 25  2  0  0  0  0
 27 22  2  0  0  0  0
 28 29  1  0  0  0  0
 29 30  2  0  0  0  0
 29 57  1  0  0  0  0
 30 58  1  0  0  0  0
 31  3  1  0  0  0  0
 31 30  1  0  0  0  0
 32 31  2  0  0  0  0
 33 32  1  0  0  0  0
 33 28  2  0  0  0  0
 34  5  1  0  0  0  0
 40  9  1  0  0  0  0
 43 11  1  0  0  0  0
 44 12  1  0  0  0  0
 51 20  1  0  0  0  0
 52 21  1  0  0  0  0
 55 26  1  0  0  0  0
 56 27  1  0  0  0  0
 59 32  1  0  0  0  0
 60 33  1  0  0  0  0
M  END
