1,36
q = 0.0, confidence = 0.99

 46 48  0  0  0  0  0  0  0  0999 V2000
    0.7505    0.0825   -0.0376 P   0  0  0  0  0  0  0  0  0  0  0  0
    0.5574    0.9750   -1.6264 C   0  0  0  0  0  0  0  0  0  0  0  0
    0.5795    2.3786   -1.7301 C   0  0  0  0  0  0  0  0  0  0  0  0
    0.7603    2.9949   -0.8363 H   0  0  0  0  0  0  0  0  0  0  0  0
    0.3672    2.9886   -2.9774 C   0  0  0  0  0  0  0  0  0  0  0  0
    0.3798    4.0863   -3.0573 H   0  0  0  0  0  0  0  0  0  0  0  0
    0.1418    2.2021   -4.1178 C   0  0  0  0  0  0  0  0  0  0  0  0
   -0.0257    2.6835   -5.0932 H   0  0  0  0  0  0  0  0  0  0  0  0
    0.1255    0.7999   -4.0144 C   0  0  0  0  0  0  0  0  0  0  0  0
   -0.0555    0.1817   -4.9066 H   0  0  0  0  0  0  0  0  0  0  0  0
    0.3237    0.1834   -2.7723 C   0  0  0  0  0  0  0  0  0  0  0  0
    0.2867   -0.9141   -2.6743 H   0  0  0  0  0  0  0  0  0  0  0  0
    2.4717   -0.5279   -0.0131 C   0  0  0  0  0  0  0  0  0  0  0  0
    3.4336   -0.0340   -0.9150 C   0  0  0  0  0  0  0  0  0  0  0  0
    3.1428    0.6921   -1.6888 H   0  0  0  0  0  0  0  0  0  0  0  0
    4.7644   -0.4731   -0.8251 C   0  0  0  0  0  0  0  0  0  0  0  0
    5.5138   -0.0897   -1.5339 H   0  0  0  0  0  0  0  0  0  0  0  0
    5.1343   -1.3983    0.1628 C   0  0  0  0  0  0  0  0  0  0  0  0
    6.1772   -1.7437    0.2296 H   0  0  0  0  0  0  0  0  0  0  0  0
    4.1724   -1.8923    1.0606 C   0  0  0  0  0  0  0  0  0  0  0  0
    4.4580   -2.6286    1.8267 H   0  0  0  0  0  0  0  0  0  0  0  0
    2.8404   -1.4680    0.9722 C   0  0  0  0  0  0  0  0  0  0  0  0
    2.0762   -1.8778    1.6482 H   0  0  0  0  0  0  0  0  0  0  0  0
    0.7164    1.3774    1.2671 C   0  0  0  0  0  0  0  0  0  0  0  0
    1.9055    1.8440    1.8557 C   0  0  0  0  0  0  0  0  0  0  0  0
    2.8679    1.4233    1.5298 H   0  0  0  0  0  0  0  0  0  0  0  0
    1.8782    2.8366    2.8484 C   0  0  0  0  0  0  0  0  0  0  0  0
    2.8202    3.1798    3.3017 H   0  0  0  0  0  0  0  0  0  0  0  0
    0.6549    3.3948    3.2476 C   0  0  0  0  0  0  0  0  0  0  0  0
    0.6255    4.1787    4.0187 H   0  0  0  0  0  0  0  0  0  0  0  0
   -0.5330    2.9516    2.6546 C   0  0  0  0  0  0  0  0  0  0  0  0
   -1.4957    3.3930    2.9570 H   0  0  0  0  0  0  0  0  0  0  0  0
   -0.5308    1.9247    1.6833 C   0  0  0  0  0  0  0  0  0  0  0  0
   -1.8314    1.5521    1.1159 C   0  0  0  0  0  3  0  0  0  0  0  0
   -2.5990    2.3439    1.1941 H   0  0  0  0  0  0  0  0  0  0  0  0
   -2.1644    0.4357    0.5479 N   0  0  0  0  0  2  0  0  0  0  0  0
   -3.4961    0.3068   -0.0965 C   0  0  0  0  0  0  0  0  0  0  0  0
   -3.8580   -0.6847    0.2614 H   0  0  0  0  0  0  0  0  0  0  0  0
   -4.5092    1.3879    0.2664 C   0  0  0  0  0  0  0  0  0  0  0  0
   -4.6549    1.4719    1.3624 H   0  0  0  0  0  0  0  0  0  0  0  0
   -5.4858    1.1099   -0.1750 H   0  0  0  0  0  0  0  0  0  0  0  0
   -4.2424    2.3876   -0.1379 H   0  0  0  0  0  0  0  0  0  0  0  0
   -3.2788    0.1998   -1.6128 C   0  0  0  0  0  0  0  0  0  0  0  0
   -2.8177    1.1249   -2.0181 H   0  0  0  0  0  0  0  0  0  0  0  0
   -4.2518    0.0355   -2.1161 H   0  0  0  0  0  0  0  0  0  0  0  0
   -2.6169   -0.6553   -1.8539 H   0  0  0  0  0  0  0  0  0  0  0  0
  1 13  1  0  0  0  0
  1 24  1  0  0  0  0
  2  1  1  0  0  0  0
  3  2  1  0  0  0  0
  3  4  1  0  0  0  0
  5  3  2  0  0  0  0
  6  5  1  0  0  0  0
  7  9  2  0  0  0  0
  7  5  1  0  0  0  0
  8  7  1  0  0  0  0
  9 11  1  0  0  0  0
 10  9  1  0  0  0  0
 11 12  1  0  0  0  0
 11  2  2  0  0  0  0
 13 22  1  0  0  0  0
 14 16  1  0  0  0  0
 14 13  2  0  0  0  0
 15 14  1  0  0  0  0
 16 18  2  0  0  0  0
 17 16  1  0  0  0  0
 18 19  1  0  0  0  0
 18 20  1  0  0  0  0
 20 21  1  0  0  0  0
 22 20  2  0  0  0  0
 22 23  1  0  0  0  0
 24 33  2  0  0  0  0
 24 25  1  0  0  0  0
 25 27  2  0  0  0  0
 26 25  1  0  0  0  0
 27 29  1  0  0  0  0
 27 28  1  0  0  0  0
 29 30  1  0  0  0  0
 31 32  1  0  0  0  0
 31 29  2  0  0  0  0
 33 31  1  0  0  0  0
 34 35  1  0  0  0  0
 34 33  1  0  0  0  0
 36 34  1  0  0  0  0
 37 38  1  0  0  0  0
 37 39  1  0  0  0  0
 37 36  1  0  0  0  0
 39 40  1  0  0  0  0
 41 39  1  0  0  0  0
 42 39  1  0  0  0  0
 43 37  1  0  0  0  0
 44 43  1  0  0  0  0
 45 43  1  0  0  0  0
 46 43  1  0  0  0  0
M  END
