1,3
 OpenBabel05122313063D

 71 77  0  0  1  0  0  0  0  0999 V2000
    1.6560    0.0645    0.5365 P   0  0  0  0  0  0  0  0  0  0  0  0
   -1.4991   -0.1796    1.1477 O   0  0  0  0  0  0  0  0  0  0  0  0
   -0.8788   -1.6877   -0.4530 N   0  0  1  0  0  0  0  0  0  0  0  0
   -1.0776   -1.5085    1.0345 C   0  0  1  0  0  0  0  0  0  0  0  0
   -0.8729   -3.1270   -0.8522 C   0  0  0  0  0  0  0  0  0  0  0  0
   -2.3241   -3.6101   -0.7081 C   0  0  0  0  0  0  0  0  0  0  0  0
   -3.1926   -2.3398   -0.8955 C   0  0  0  0  0  0  0  0  0  0  0  0
   -2.2118   -1.1342   -0.9172 C   0  0  1  0  0  0  0  0  0  0  0  0
   -2.4523    0.0680    0.0630 C   0  0  0  0  0  0  0  0  0  0  0  0
    0.0777   -1.8177    1.9479 C   0  0  0  0  0  0  0  0  0  0  0  0
   -0.1242   -2.8028    2.9325 C   0  0  0  0  0  0  0  0  0  0  0  0
    0.8766   -3.1164    3.8623 C   0  0  0  0  0  0  0  0  0  0  0  0
    2.0984   -2.4314    3.8153 C   0  0  0  0  0  0  0  0  0  0  0  0
    2.3165   -1.4540    2.8332 C   0  0  0  0  0  0  0  0  0  0  0  0
    1.3164   -1.1355    1.8929 C   0  0  0  0  0  0  0  0  0  0  0  0
   -3.8781    0.0677    0.6163 C   0  0  0  0  0  0  0  0  0  0  0  0
   -4.1466   -0.2418    1.9602 C   0  0  0  0  0  0  0  0  0  0  0  0
   -5.4694   -0.2568    2.4346 C   0  0  0  0  0  0  0  0  0  0  0  0
   -6.5336    0.0377    1.5706 C   0  0  0  0  0  0  0  0  0  0  0  0
   -6.2683    0.3590    0.2280 C   0  0  0  0  0  0  0  0  0  0  0  0
   -4.9499    0.3798   -0.2439 C   0  0  0  0  0  0  0  0  0  0  0  0
   -2.1298    1.4599   -0.4908 C   0  0  0  0  0  0  0  0  0  0  0  0
   -1.7025    1.7107   -1.8067 C   0  0  0  0  0  0  0  0  0  0  0  0
   -1.4364    3.0258   -2.2260 C   0  0  0  0  0  0  0  0  0  0  0  0
   -1.6010    4.1007   -1.3436 C   0  0  0  0  0  0  0  0  0  0  0  0
   -2.0239    3.8562   -0.0264 C   0  0  0  0  0  0  0  0  0  0  0  0
   -2.2840    2.5477    0.3946 C   0  0  0  0  0  0  0  0  0  0  0  0
    3.4929    0.0725    0.4851 C   0  0  0  0  0  0  0  0  0  0  0  0
    4.1408   -0.9533   -0.2327 C   0  0  0  0  0  0  0  0  0  0  0  0
    5.5390   -1.0301   -0.2329 C   0  0  0  0  0  0  0  0  0  0  0  0
    6.2986   -0.0804    0.4719 C   0  0  0  0  0  0  0  0  0  0  0  0
    5.6554    0.9465    1.1790 C   0  0  0  0  0  0  0  0  0  0  0  0
    4.2529    1.0249    1.1896 C   0  0  0  0  0  0  0  0  0  0  0  0
    1.2126    1.7174    1.1864 C   0  0  0  0  0  0  0  0  0  0  0  0
    0.7121    1.9039    2.4884 C   0  0  0  0  0  0  0  0  0  0  0  0
    0.4485    3.2016    2.9527 C   0  0  0  0  0  0  0  0  0  0  0  0
    0.6877    4.3088    2.1239 C   0  0  0  0  0  0  0  0  0  0  0  0
    1.1709    4.1173    0.8190 C   0  0  0  0  0  0  0  0  0  0  0  0
    1.4265    2.8256    0.3407 C   0  0  0  0  0  0  0  0  0  0  0  0
   -1.9055   -2.2022    1.3178 H   0  0  0  0  0  0  0  0  0  0  0  0
   -0.1300   -3.6686   -0.2354 H   0  0  0  0  0  0  0  0  0  0  0  0
   -0.5486   -3.1426   -1.9096 H   0  0  0  0  0  0  0  0  0  0  0  0
   -2.5043   -4.0714    0.2841 H   0  0  0  0  0  0  0  0  0  0  0  0
   -2.5500   -4.3870   -1.4630 H   0  0  0  0  0  0  0  0  0  0  0  0
   -3.7466   -2.3662   -1.8524 H   0  0  0  0  0  0  0  0  0  0  0  0
   -3.9485   -2.2486   -0.0944 H   0  0  0  0  0  0  0  0  0  0  0  0
   -2.0737   -0.8036   -1.9588 H   0  0  0  0  0  0  0  0  0  0  0  0
   -1.0924   -3.3272    2.9690 H   0  0  0  0  0  0  0  0  0  0  0  0
    0.6996   -3.8918    4.6223 H   0  0  0  0  0  0  0  0  0  0  0  0
    2.8929   -2.6610    4.5412 H   0  0  0  0  0  0  0  0  0  0  0  0
    3.2844   -0.9346    2.7872 H   0  0  0  0  0  0  0  0  0  0  0  0
   -3.3058   -0.4543    2.6360 H   0  0  0  0  0  0  0  0  0  0  0  0
   -5.6663   -0.4960    3.4910 H   0  0  0  0  0  0  0  0  0  0  0  0
   -7.5693    0.0263    1.9424 H   0  0  0  0  0  0  0  0  0  0  0  0
   -7.0962    0.6034   -0.4548 H   0  0  0  0  0  0  0  0  0  0  0  0
   -4.7429    0.6492   -1.2914 H   0  0  0  0  0  0  0  0  0  0  0  0
   -1.5466    0.8963   -2.5287 H   0  0  0  0  0  0  0  0  0  0  0  0
   -1.0879    3.1962   -3.2553 H   0  0  0  0  0  0  0  0  0  0  0  0
   -1.3949    5.1291   -1.6779 H   0  0  0  0  0  0  0  0  0  0  0  0
   -2.1466    4.6899    0.6809 H   0  0  0  0  0  0  0  0  0  0  0  0
   -2.6142    2.3601    1.4269 H   0  0  0  0  0  0  0  0  0  0  0  0
    3.5367   -1.6736   -0.8055 H   0  0  0  0  0  0  0  0  0  0  0  0
    6.0408   -1.8280   -0.8008 H   0  0  0  0  0  0  0  0  0  0  0  0
    7.3978   -0.1369    0.4614 H   0  0  0  0  0  0  0  0  0  0  0  0
    6.2470    1.6975    1.7244 H   0  0  0  0  0  0  0  0  0  0  0  0
    3.7496    1.8333    1.7405 H   0  0  0  0  0  0  0  0  0  0  0  0
    0.5265    1.0362    3.1379 H   0  0  0  0  0  0  0  0  0  0  0  0
    0.0565    3.3470    3.9709 H   0  0  0  0  0  0  0  0  0  0  0  0
    0.4854    5.3260    2.4931 H   0  0  0  0  0  0  0  0  0  0  0  0
    1.3380    4.9816    0.1589 H   0  0  0  0  0  0  0  0  0  0  0  0
    1.7893    2.6593   -0.6872 H   0  0  0  0  0  0  0  0  0  0  0  0
  1 34  1  0  0  0  0
  1 15  1  0  0  0  0
  3  5  1  1  0  0  0
  3  4  1  0  0  0  0
  4  2  1  0  0  0  0
  4 40  1  1  0  0  0
  4 10  1  0  0  0  0
  5  6  1  0  0  0  0
  5 41  1  0  0  0  0
  6 43  1  0  0  0  0
  7  6  1  0  0  0  0
  7 46  1  0  0  0  0
  8 47  1  6  0  0  0
  8  7  1  0  0  0  0
  8  3  1  0  0  0  0
  8  9  1  0  0  0  0
  9 16  1  0  0  0  0
  9  2  1  0  0  0  0
 10 11  1  0  0  0  0
 11 48  1  0  0  0  0
 11 12  2  0  0  0  0
 12 49  1  0  0  0  0
 13 12  1  0  0  0  0
 13 50  1  0  0  0  0
 14 13  2  0  0  0  0
 15 10  2  0  0  0  0
 15 14  1  0  0  0  0
 16 17  1  0  0  0  0
 17 18  2  0  0  0  0
 17 52  1  0  0  0  0
 18 53  1  0  0  0  0
 19 54  1  0  0  0  0
 19 18  1  0  0  0  0
 20 19  2  0  0  0  0
 21 20  1  0  0  0  0
 21 16  2  0  0  0  0
 22  9  1  0  0  0  0
 22 27  1  0  0  0  0
 23 22  2  0  0  0  0
 24 23  1  0  0  0  0
 24 25  2  0  0  0  0
 25 26  1  0  0  0  0
 26 27  2  0  0  0  0
 26 60  1  0  0  0  0
 27 61  1  0  0  0  0
 28  1  1  0  0  0  0
 28 33  1  0  0  0  0
 29 28  2  0  0  0  0
 30 29  1  0  0  0  0
 30 31  2  0  0  0  0
 31 32  1  0  0  0  0
 32 33  2  0  0  0  0
 32 65  1  0  0  0  0
 33 66  1  0  0  0  0
 34 35  1  0  0  0  0
 35 36  2  0  0  0  0
 35 67  1  0  0  0  0
 36 68  1  0  0  0  0
 37 69  1  0  0  0  0
 37 36  1  0  0  0  0
 38 37  2  0  0  0  0
 39 38  1  0  0  0  0
 39 34  2  0  0  0  0
 42  5  1  0  0  0  0
 44  6  1  0  0  0  0
 45  7  1  0  0  0  0
 51 14  1  0  0  0  0
 55 20  1  0  0  0  0
 56 21  1  0  0  0  0
 57 23  1  0  0  0  0
 58 24  1  0  0  0  0
 59 25  1  0  0  0  0
 62 29  1  0  0  0  0
 63 30  1  0  0  0  0
 64 31  1  0  0  0  0
 70 38  1  0  0  0  0
 71 39  1  0  0  0  0
M  END
