1,4
 OpenBabel05122313063D

 72 78  0  0  1  0  0  0  0  0999 V2000
    1.7704   -0.0535    0.3837 P   0  0  0  0  0  0  0  0  0  0  0  0
   -1.3532   -0.1458    1.0082 O   0  0  0  0  0  0  0  0  0  0  0  0
   -2.8189   -3.9503    0.0155 O   0  0  0  0  0  0  0  0  0  0  0  0
   -0.8978   -1.5175   -0.7521 N   0  0  1  0  0  0  0  0  0  0  0  0
   -1.0603   -1.4924    0.7485 C   0  0  1  0  0  0  0  0  0  0  0  0
   -1.0155   -2.8811   -1.3280 C   0  0  0  0  0  0  0  0  0  0  0  0
   -2.4996   -3.2761   -1.2076 C   0  0  2  0  0  0  0  0  0  0  0  0
   -3.2517   -1.9271   -1.2184 C   0  0  0  0  0  0  0  0  0  0  0  0
   -2.1773   -0.8093   -1.1277 C   0  0  1  0  0  0  0  0  0  0  0  0
   -2.3059    0.2915   -0.0149 C   0  0  0  0  0  0  0  0  0  0  0  0
    0.0886   -2.0006    1.5747 C   0  0  0  0  0  0  0  0  0  0  0  0
    1.3716   -1.4032    1.5745 C   0  0  0  0  0  0  0  0  0  0  0  0
    2.3676   -1.9226    2.4268 C   0  0  0  0  0  0  0  0  0  0  0  0
    2.1012   -3.0162    3.2636 C   0  0  0  0  0  0  0  0  0  0  0  0
    0.8362   -3.6201    3.2479 C   0  0  0  0  0  0  0  0  0  0  0  0
   -0.1613   -3.1081    2.4068 C   0  0  0  0  0  0  0  0  0  0  0  0
   -3.7183    0.3358    0.5683 C   0  0  0  0  0  0  0  0  0  0  0  0
   -4.7745    0.8231   -0.2274 C   0  0  0  0  0  0  0  0  0  0  0  0
   -6.0838    0.8491    0.2693 C   0  0  0  0  0  0  0  0  0  0  0  0
   -6.3538    0.3984    1.5730 C   0  0  0  0  0  0  0  0  0  0  0  0
   -5.3038   -0.0735    2.3734 C   0  0  0  0  0  0  0  0  0  0  0  0
   -3.9908   -0.1049    1.8738 C   0  0  0  0  0  0  0  0  0  0  0  0
   -1.8786    1.7049   -0.4256 C   0  0  0  0  0  0  0  0  0  0  0  0
   -1.3935    2.0461   -1.7007 C   0  0  0  0  0  0  0  0  0  0  0  0
   -1.0072    3.3682   -1.9819 C   0  0  0  0  0  0  0  0  0  0  0  0
   -1.1116    4.3625   -1.0016 C   0  0  0  0  0  0  0  0  0  0  0  0
   -1.5940    4.0281    0.2751 C   0  0  0  0  0  0  0  0  0  0  0  0
   -1.9713    2.7114    0.5593 C   0  0  0  0  0  0  0  0  0  0  0  0
    1.4459    1.5233    1.2534 C   0  0  0  0  0  0  0  0  0  0  0  0
    1.7461    2.7210    0.5719 C   0  0  0  0  0  0  0  0  0  0  0  0
    1.5790    3.9478    1.2274 C   0  0  0  0  0  0  0  0  0  0  0  0
    1.0985    3.9888    2.5465 C   0  0  0  0  0  0  0  0  0  0  0  0
    0.7733    2.7961    3.2114 C   0  0  0  0  0  0  0  0  0  0  0  0
    0.9472    1.5610    2.5693 C   0  0  0  0  0  0  0  0  0  0  0  0
    3.6016   -0.1620    0.2880 C   0  0  0  0  0  0  0  0  0  0  0  0
    4.1686   -1.1186   -0.5786 C   0  0  0  0  0  0  0  0  0  0  0  0
    5.5578   -1.2885   -0.6197 C   0  0  0  0  0  0  0  0  0  0  0  0
    6.3902   -0.4996    0.1930 C   0  0  0  0  0  0  0  0  0  0  0  0
    5.8281    0.4594    1.0487 C   0  0  0  0  0  0  0  0  0  0  0  0
    4.4347    0.6295    1.1008 C   0  0  0  0  0  0  0  0  0  0  0  0
   -1.9357   -2.1407    0.9785 H   0  0  0  0  0  0  0  0  0  0  0  0
   -2.0275   -0.3776   -2.1307 H   0  0  0  0  0  0  0  0  0  0  0  0
   -3.8437   -1.8020   -2.1432 H   0  0  0  0  0  0  0  0  0  0  0  0
   -3.9619   -1.9215   -0.3714 H   0  0  0  0  0  0  0  0  0  0  0  0
   -2.7909   -3.9089   -2.0757 H   0  0  0  0  0  0  0  0  0  0  0  0
   -0.3199   -3.5714   -0.8107 H   0  0  0  0  0  0  0  0  0  0  0  0
   -0.7249   -2.7877   -2.3936 H   0  0  0  0  0  0  0  0  0  0  0  0
    3.3690   -1.4689    2.4269 H   0  0  0  0  0  0  0  0  0  0  0  0
    2.8930   -3.4009    3.9240 H   0  0  0  0  0  0  0  0  0  0  0  0
    0.6240   -4.4871    3.8912 H   0  0  0  0  0  0  0  0  0  0  0  0
   -1.1607   -3.5696    2.3789 H   0  0  0  0  0  0  0  0  0  0  0  0
   -4.5620    1.1931   -1.2426 H   0  0  0  0  0  0  0  0  0  0  0  0
   -6.8999    1.2315   -0.3626 H   0  0  0  0  0  0  0  0  0  0  0  0
   -7.3819    0.4227    1.9649 H   0  0  0  0  0  0  0  0  0  0  0  0
   -5.5041   -0.4186    3.3994 H   0  0  0  0  0  0  0  0  0  0  0  0
   -3.1605   -0.4601    2.5004 H   0  0  0  0  0  0  0  0  0  0  0  0
   -1.2871    1.2980   -2.5001 H   0  0  0  0  0  0  0  0  0  0  0  0
   -0.6132    3.6059   -2.9809 H   0  0  0  0  0  0  0  0  0  0  0  0
   -0.8121    5.3975   -1.2274 H   0  0  0  0  0  0  0  0  0  0  0  0
   -1.6707    4.7972    1.0581 H   0  0  0  0  0  0  0  0  0  0  0  0
   -2.3465    2.4533    1.5605 H   0  0  0  0  0  0  0  0  0  0  0  0
    1.8133    4.8817    0.6948 H   0  0  0  0  0  0  0  0  0  0  0  0
    2.1019    2.6743   -0.4703 H   0  0  0  0  0  0  0  0  0  0  0  0
    0.9662    4.9560    3.0554 H   0  0  0  0  0  0  0  0  0  0  0  0
    0.3837    2.8246    4.2405 H   0  0  0  0  0  0  0  0  0  0  0  0
    0.6934    0.6267    3.0903 H   0  0  0  0  0  0  0  0  0  0  0  0
    3.5129   -1.7097   -1.2363 H   0  0  0  0  0  0  0  0  0  0  0  0
    5.9958   -2.0308   -1.3038 H   0  0  0  0  0  0  0  0  0  0  0  0
    7.4826   -0.6274    0.1508 H   0  0  0  0  0  0  0  0  0  0  0  0
    6.4767    1.0857    1.6801 H   0  0  0  0  0  0  0  0  0  0  0  0
    3.9956    1.3842    1.7699 H   0  0  0  0  0  0  0  0  0  0  0  0
   -2.3825   -4.8218   -0.0104 H   0  0  0  0  0  0  0  0  0  0  0  0
  1 29  1  0  0  0  0
  1 12  1  0  0  0  0
  4  6  1  6  0  0  0
  4  5  1  0  0  0  0
  5 41  1  1  0  0  0
  5  2  1  0  0  0  0
  5 11  1  0  0  0  0
  6  7  1  0  0  0  0
  6 46  1  0  0  0  0
  7 45  1  6  0  0  0
  7  3  1  0  0  0  0
  8  7  1  0  0  0  0
  8  9  1  0  0  0  0
  8 44  1  0  0  0  0
  9 42  1  6  0  0  0
  9  4  1  0  0  0  0
  9 10  1  0  0  0  0
 10 17  1  0  0  0  0
 10  2  1  0  0  0  0
 11 16  1  0  0  0  0
 12 11  2  0  0  0  0
 12 13  1  0  0  0  0
 13 48  1  0  0  0  0
 13 14  2  0  0  0  0
 14 49  1  0  0  0  0
 15 14  1  0  0  0  0
 15 50  1  0  0  0  0
 16 15  2  0  0  0  0
 17 22  1  0  0  0  0
 18 19  1  0  0  0  0
 18 17  2  0  0  0  0
 19 20  2  0  0  0  0
 20 54  1  0  0  0  0
 20 21  1  0  0  0  0
 21 55  1  0  0  0  0
 22 21  2  0  0  0  0
 22 56  1  0  0  0  0
 23 10  1  0  0  0  0
 23 28  1  0  0  0  0
 24 23  2  0  0  0  0
 25 24  1  0  0  0  0
 25 26  2  0  0  0  0
 26 27  1  0  0  0  0
 27 28  2  0  0  0  0
 27 60  1  0  0  0  0
 28 61  1  0  0  0  0
 29 34  1  0  0  0  0
 30 31  1  0  0  0  0
 30 29  2  0  0  0  0
 31 32  2  0  0  0  0
 32 64  1  0  0  0  0
 32 33  1  0  0  0  0
 33 65  1  0  0  0  0
 34 66  1  0  0  0  0
 34 33  2  0  0  0  0
 35  1  1  0  0  0  0
 35 40  1  0  0  0  0
 36 35  2  0  0  0  0
 37 36  1  0  0  0  0
 37 38  2  0  0  0  0
 38 39  1  0  0  0  0
 39 40  2  0  0  0  0
 39 70  1  0  0  0  0
 40 71  1  0  0  0  0
 43  8  1  0  0  0  0
 47  6  1  0  0  0  0
 51 16  1  0  0  0  0
 52 18  1  0  0  0  0
 53 19  1  0  0  0  0
 57 24  1  0  0  0  0
 58 25  1  0  0  0  0
 59 26  1  0  0  0  0
 62 31  1  0  0  0  0
 63 30  1  0  0  0  0
 67 36  1  0  0  0  0
 68 37  1  0  0  0  0
 69 38  1  0  0  0  0
 72  3  1  0  0  0  0
M  END
