1,3
 OpenBabel05122313063D

 75 82  0  0  1  0  0  0  0  0999 V2000
    2.1391    0.0103    0.2922 P   0  0  0  0  0  0  0  0  0  0  0  0
   -2.0853   -0.0372    1.4686 O   0  0  0  0  0  0  0  0  0  0  0  0
   -0.7891   -1.1366   -0.1594 N   0  0  2  0  0  0  0  0  0  0  0  0
   -2.2214   -0.9659   -0.6766 C   0  0  1  0  0  0  0  0  0  0  0  0
   -2.8292   -2.3792   -0.5142 C   0  0  1  0  0  0  0  0  0  0  0  0
   -2.1947   -3.2809   -1.6001 C   0  0  0  0  0  0  0  0  0  0  0  0
   -0.7287   -3.4302   -1.0957 C   0  0  0  0  0  0  0  0  0  0  0  0
   -0.7281   -2.6112    0.2079 C   0  0  2  0  0  0  0  0  0  0  0  0
   -2.1352   -2.9001    0.7600 C   0  0  0  0  0  0  0  0  0  0  0  0
   -2.8044    0.1663    0.2211 C   0  0  0  0  0  0  0  0  0  0  0  0
   -0.7595   -0.1948    1.0560 C   0  0  2  0  0  0  0  0  0  0  0  0
   -4.2932    0.0169    0.4689 C   0  0  0  0  0  0  0  0  0  0  0  0
   -4.7992   -0.4107    1.7085 C   0  0  0  0  0  0  0  0  0  0  0  0
   -6.1826   -0.5719    1.8897 C   0  0  0  0  0  0  0  0  0  0  0  0
   -7.0694   -0.3156    0.8338 C   0  0  0  0  0  0  0  0  0  0  0  0
   -6.5670    0.1148   -0.4059 C   0  0  0  0  0  0  0  0  0  0  0  0
   -5.1884    0.2873   -0.5853 C   0  0  0  0  0  0  0  0  0  0  0  0
   -2.4665    1.5846   -0.2772 C   0  0  0  0  0  0  0  0  0  0  0  0
   -2.7210    2.6456    0.6188 C   0  0  0  0  0  0  0  0  0  0  0  0
   -2.3613    3.9582    0.2931 C   0  0  0  0  0  0  0  0  0  0  0  0
   -1.7441    4.2333   -0.9399 C   0  0  0  0  0  0  0  0  0  0  0  0
   -1.4990    3.1875   -1.8383 C   0  0  0  0  0  0  0  0  0  0  0  0
   -1.8574    1.8669   -1.5135 C   0  0  0  0  0  0  0  0  0  0  0  0
    0.1530   -0.6712    2.1484 C   0  0  0  0  0  0  0  0  0  0  0  0
   -0.3396   -1.1236    3.3808 C   0  0  0  0  0  0  0  0  0  0  0  0
    0.5431   -1.6081    4.3593 C   0  0  0  0  0  0  0  0  0  0  0  0
    1.9215   -1.6496    4.1030 C   0  0  0  0  0  0  0  0  0  0  0  0
    2.4249   -1.1826    2.8778 C   0  0  0  0  0  0  0  0  0  0  0  0
    1.5495   -0.6749    1.9007 C   0  0  0  0  0  0  0  0  0  0  0  0
    3.9071   -0.4460    0.2507 C   0  0  0  0  0  0  0  0  0  0  0  0
    4.2621   -1.7008   -0.2838 C   0  0  0  0  0  0  0  0  0  0  0  0
    5.6011   -2.1116   -0.2638 C   0  0  0  0  0  0  0  0  0  0  0  0
    6.5893   -1.2700    0.2752 C   0  0  0  0  0  0  0  0  0  0  0  0
    6.2368   -0.0153    0.7959 C   0  0  0  0  0  0  0  0  0  0  0  0
    4.8957    0.4002    0.7867 C   0  0  0  0  0  0  0  0  0  0  0  0
    2.0516    1.8297    0.5739 C   0  0  0  0  0  0  0  0  0  0  0  0
    1.8909    2.3690    1.8679 C   0  0  0  0  0  0  0  0  0  0  0  0
    1.7734    3.7569    2.0383 C   0  0  0  0  0  0  0  0  0  0  0  0
    1.8189    4.6103    0.9253 C   0  0  0  0  0  0  0  0  0  0  0  0
    1.9874    4.0743   -0.3616 C   0  0  0  0  0  0  0  0  0  0  0  0
    2.0999    2.6895   -0.5447 C   0  0  0  0  0  0  0  0  0  0  0  0
    0.1379   -2.7922    0.8676 H   0  0  0  0  0  0  0  0  0  0  0  0
   -2.7183   -4.2566   -1.6428 H   0  0  0  0  0  0  0  0  0  0  0  0
   -2.2293   -2.8169   -2.6038 H   0  0  0  0  0  0  0  0  0  0  0  0
   -0.4670   -4.4804   -0.8575 H   0  0  0  0  0  0  0  0  0  0  0  0
    0.0102   -3.0473   -1.8264 H   0  0  0  0  0  0  0  0  0  0  0  0
   -2.3909   -2.3514    1.6816 H   0  0  0  0  0  0  0  0  0  0  0  0
   -2.2969   -3.9849    0.9188 H   0  0  0  0  0  0  0  0  0  0  0  0
   -2.1892   -0.6805   -1.7427 H   0  0  0  0  0  0  0  0  0  0  0  0
   -3.9337   -2.3667   -0.5111 H   0  0  0  0  0  0  0  0  0  0  0  0
   -4.1014   -0.6098    2.5330 H   0  0  0  0  0  0  0  0  0  0  0  0
   -6.5687   -0.9011    2.8665 H   0  0  0  0  0  0  0  0  0  0  0  0
   -8.1529   -0.4451    0.9765 H   0  0  0  0  0  0  0  0  0  0  0  0
   -7.2556    0.3253   -1.2382 H   0  0  0  0  0  0  0  0  0  0  0  0
   -4.7970    0.6415   -1.5514 H   0  0  0  0  0  0  0  0  0  0  0  0
   -3.1927    2.4259    1.5884 H   0  0  0  0  0  0  0  0  0  0  0  0
   -2.5607    4.7729    1.0060 H   0  0  0  0  0  0  0  0  0  0  0  0
   -1.4523    5.2636   -1.1945 H   0  0  0  0  0  0  0  0  0  0  0  0
   -1.0076    3.3831   -2.8033 H   0  0  0  0  0  0  0  0  0  0  0  0
   -1.6192    1.0711   -2.2367 H   0  0  0  0  0  0  0  0  0  0  0  0
   -1.4225   -1.0889    3.5640 H   0  0  0  0  0  0  0  0  0  0  0  0
    0.1496   -1.9598    5.3248 H   0  0  0  0  0  0  0  0  0  0  0  0
    2.6149   -2.0381    4.8640 H   0  0  0  0  0  0  0  0  0  0  0  0
    3.5070   -1.2011    2.6816 H   0  0  0  0  0  0  0  0  0  0  0  0
    3.4859   -2.3392   -0.7329 H   0  0  0  0  0  0  0  0  0  0  0  0
    5.8781   -3.0889   -0.6868 H   0  0  0  0  0  0  0  0  0  0  0  0
    7.6420   -1.5910    0.2797 H   0  0  0  0  0  0  0  0  0  0  0  0
    7.0106    0.6497    1.2083 H   0  0  0  0  0  0  0  0  0  0  0  0
    4.6167    1.3859    1.1888 H   0  0  0  0  0  0  0  0  0  0  0  0
    1.8474    1.7049    2.7437 H   0  0  0  0  0  0  0  0  0  0  0  0
    1.6404    4.1712    3.0492 H   0  0  0  0  0  0  0  0  0  0  0  0
    1.7173    5.6978    1.0616 H   0  0  0  0  0  0  0  0  0  0  0  0
    2.0188    4.7389   -1.2380 H   0  0  0  0  0  0  0  0  0  0  0  0
    2.2205    2.2564   -1.5511 H   0  0  0  0  0  0  0  0  0  0  0  0
   -0.3911    0.7735    0.6480 H   0  0  0  0  0  0  0  0  0  0  0  0
  1 36  1  0  0  0  0
  1 29  1  0  0  0  0
  3  8  1  0  0  0  0
  3 11  1  0  0  0  0
  4  5  1  0  0  0  0
  4  3  1  0  0  0  0
  4 10  1  0  0  0  0
  5 50  1  0  0  0  0
  5  9  1  0  0  0  0
  6  7  1  0  0  0  0
  6  5  1  0  0  0  0
  7 45  1  0  0  0  0
  7  8  1  0  0  0  0
  8  9  1  0  0  0  0
  8 42  1  0  0  0  0
  9 48  1  0  0  0  0
  9 47  1  0  0  0  0
 10 12  1  0  0  0  0
 10  2  1  0  0  0  0
 11  2  1  0  0  0  0
 11 24  1  0  0  0  0
 12 13  1  0  0  0  0
 13 14  2  0  0  0  0
 13 51  1  0  0  0  0
 14 52  1  0  0  0  0
 15 53  1  0  0  0  0
 15 14  1  0  0  0  0
 16 15  2  0  0  0  0
 17 16  1  0  0  0  0
 17 12  2  0  0  0  0
 18 10  1  0  0  0  0
 18 19  1  0  0  0  0
 19 56  1  0  0  0  0
 20 19  2  0  0  0  0
 20 57  1  0  0  0  0
 21 20  1  0  0  0  0
 22 23  1  0  0  0  0
 22 21  2  0  0  0  0
 23 18  2  0  0  0  0
 24 25  1  0  0  0  0
 25 61  1  0  0  0  0
 25 26  2  0  0  0  0
 26 62  1  0  0  0  0
 27 26  1  0  0  0  0
 27 63  1  0  0  0  0
 28 27  2  0  0  0  0
 29 24  2  0  0  0  0
 29 28  1  0  0  0  0
 30  1  1  0  0  0  0
 30 35  1  0  0  0  0
 31 32  1  0  0  0  0
 31 30  2  0  0  0  0
 32 33  2  0  0  0  0
 33 67  1  0  0  0  0
 33 34  1  0  0  0  0
 34 68  1  0  0  0  0
 35 34  2  0  0  0  0
 35 69  1  0  0  0  0
 36 37  1  0  0  0  0
 37 38  2  0  0  0  0
 37 70  1  0  0  0  0
 38 71  1  0  0  0  0
 39 72  1  0  0  0  0
 39 38  1  0  0  0  0
 40 39  2  0  0  0  0
 41 40  1  0  0  0  0
 41 36  2  0  0  0  0
 43  6  1  0  0  0  0
 44  6  1  0  0  0  0
 46  7  1  0  0  0  0
 49  4  1  0  0  0  0
 54 16  1  0  0  0  0
 55 17  1  0  0  0  0
 58 21  1  0  0  0  0
 59 22  1  0  0  0  0
 60 23  1  0  0  0  0
 64 28  1  0  0  0  0
 65 31  1  0  0  0  0
 66 32  1  0  0  0  0
 73 40  1  0  0  0  0
 74 41  1  0  0  0  0
 75 11  1  0  0  0  0
M  END
