1,2
 OpenBabel05122313063D

 52 55  0  0  0  0  0  0  0  0999 V2000
    0.9635    0.2706    0.0373 P   0  0  0  0  0  0  0  0  0  0  0  0
   -1.1817   -1.5413    1.1401 N   0  0  0  0  0  2  0  0  0  0  0  0
   -3.9477    0.0098    0.6988 N   0  0  0  0  0  0  0  0  0  0  0  0
   -1.2857   -0.7115    2.1307 C   0  0  0  0  0  3  0  0  0  0  0  0
   -2.3677   -2.3495    0.8374 C   0  0  0  0  0  0  0  0  0  0  0  0
   -3.1127   -2.2523    1.6528 H   0  0  0  0  0  0  0  0  0  0  0  0
   -2.0262   -3.4002    0.7339 H   0  0  0  0  0  0  0  0  0  0  0  0
   -2.9840   -1.9005   -0.4900 C   0  0  0  0  0  0  0  0  0  0  0  0
   -3.8201   -2.5974   -0.7229 H   0  0  0  0  0  0  0  0  0  0  0  0
   -2.2384   -2.0246   -1.3034 H   0  0  0  0  0  0  0  0  0  0  0  0
    0.7504    0.8100    1.7915 C   0  0  0  0  0  0  0  0  0  0  0  0
    1.6092    1.7746    2.3502 C   0  0  0  0  0  0  0  0  0  0  0  0
    2.4243    2.1878    1.7381 H   0  0  0  0  0  0  0  0  0  0  0  0
    1.4445    2.2161    3.6729 C   0  0  0  0  0  0  0  0  0  0  0  0
    2.1364    2.9641    4.0885 H   0  0  0  0  0  0  0  0  0  0  0  0
    0.3946    1.7101    4.4529 C   0  0  0  0  0  0  0  0  0  0  0  0
    0.2515    2.0555    5.4876 H   0  0  0  0  0  0  0  0  0  0  0  0
   -0.4755    0.7616    3.9041 C   0  0  0  0  0  0  0  0  0  0  0  0
   -1.3074    0.3651    4.5070 H   0  0  0  0  0  0  0  0  0  0  0  0
   -0.3041    0.2773    2.5861 C   0  0  0  0  0  0  0  0  0  0  0  0
    2.7005    0.7716   -0.3251 C   0  0  0  0  0  0  0  0  0  0  0  0
    3.7306   -0.0894    0.1081 C   0  0  0  0  0  0  0  0  0  0  0  0
    3.4673   -1.0365    0.6062 H   0  0  0  0  0  0  0  0  0  0  0  0
    5.0717    0.2535   -0.1085 C   0  0  0  0  0  0  0  0  0  0  0  0
    5.8695   -0.4249    0.2296 H   0  0  0  0  0  0  0  0  0  0  0  0
    5.3955    1.4516   -0.7676 C   0  0  0  0  0  0  0  0  0  0  0  0
    6.4491    1.7147   -0.9465 H   0  0  0  0  0  0  0  0  0  0  0  0
    4.3734    2.3076   -1.2054 C   0  0  0  0  0  0  0  0  0  0  0  0
    4.6228    3.2439   -1.7276 H   0  0  0  0  0  0  0  0  0  0  0  0
    3.0276    1.9733   -0.9831 C   0  0  0  0  0  0  0  0  0  0  0  0
    2.2295    2.6477   -1.3271 H   0  0  0  0  0  0  0  0  0  0  0  0
   -0.0226    1.4969   -0.9284 C   0  0  0  0  0  0  0  0  0  0  0  0
   -0.6036    2.6452   -0.3580 C   0  0  0  0  0  0  0  0  0  0  0  0
   -0.5190    2.8253    0.7241 H   0  0  0  0  0  0  0  0  0  0  0  0
   -1.2846    3.5657   -1.1712 C   0  0  0  0  0  0  0  0  0  0  0  0
   -1.7420    4.4582   -0.7177 H   0  0  0  0  0  0  0  0  0  0  0  0
   -1.3776    3.3529   -2.5547 C   0  0  0  0  0  0  0  0  0  0  0  0
   -1.9015    4.0828   -3.1907 H   0  0  0  0  0  0  0  0  0  0  0  0
   -0.8116    2.1998   -3.1255 C   0  0  0  0  0  0  0  0  0  0  0  0
   -0.8923    2.0221   -4.2088 H   0  0  0  0  0  0  0  0  0  0  0  0
   -0.1501    1.2676   -2.3155 C   0  0  0  0  0  0  0  0  0  0  0  0
    0.2782    0.3517   -2.7530 H   0  0  0  0  0  0  0  0  0  0  0  0
   -3.5161   -0.4836   -0.4799 C   0  0  0  0  0  0  0  0  0  0  0  0
   -3.5716    0.2756   -1.6674 C   0  0  0  0  0  0  0  0  0  0  0  0
   -3.1817   -0.1461   -2.6056 H   0  0  0  0  0  0  0  0  0  0  0  0
   -4.1193    1.5622   -1.6302 C   0  0  0  0  0  0  0  0  0  0  0  0
   -4.1740    2.1702   -2.5453 H   0  0  0  0  0  0  0  0  0  0  0  0
   -4.5802    2.0668   -0.4050 C   0  0  0  0  0  0  0  0  0  0  0  0
   -5.0121    3.0754   -0.3251 H   0  0  0  0  0  0  0  0  0  0  0  0
   -4.4603    1.2500    0.7279 C   0  0  0  0  0  0  0  0  0  0  0  0
   -4.7955    1.6167    1.7153 H   0  0  0  0  0  0  0  0  0  0  0  0
   -2.2307   -0.7235    2.7086 H   0  0  0  0  0  0  0  0  0  0  0  0
  1 11  1  0  0  0  0
  2  4  1  0  0  0  0
  3 50  1  0  0  0  0
  4 20  1  0  0  0  0
  4 52  1  0  0  0  0
  5  2  1  0  0  0  0
  5  6  1  0  0  0  0
  7  5  1  0  0  0  0
  8 43  1  0  0  0  0
  8  5  1  0  0  0  0
  9  8  1  0  0  0  0
 10  8  1  0  0  0  0
 11 12  2  0  0  0  0
 11 20  1  0  0  0  0
 12 14  1  0  0  0  0
 13 12  1  0  0  0  0
 14 15  1  0  0  0  0
 14 16  2  0  0  0  0
 16 17  1  0  0  0  0
 18 16  1  0  0  0  0
 18 19  1  0  0  0  0
 20 18  2  0  0  0  0
 21  1  1  0  0  0  0
 21 22  1  0  0  0  0
 22 23  1  0  0  0  0
 24 22  2  0  0  0  0
 24 25  1  0  0  0  0
 26 24  1  0  0  0  0
 27 26  1  0  0  0  0
 28 30  1  0  0  0  0
 28 26  2  0  0  0  0
 29 28  1  0  0  0  0
 30 21  2  0  0  0  0
 31 30  1  0  0  0  0
 32 33  1  0  0  0  0
 32  1  1  0  0  0  0
 33 34  1  0  0  0  0
 35 36  1  0  0  0  0
 35 33  2  0  0  0  0
 37 35  1  0  0  0  0
 38 37  1  0  0  0  0
 39 37  2  0  0  0  0
 39 41  1  0  0  0  0
 40 39  1  0  0  0  0
 41 32  2  0  0  0  0
 42 41  1  0  0  0  0
 43  3  2  0  0  0  0
 44 46  2  0  0  0  0
 44 43  1  0  0  0  0
 45 44  1  0  0  0  0
 46 48  1  0  0  0  0
 47 46  1  0  0  0  0
 48 49  1  0  0  0  0
 48 50  2  0  0  0  0
 50 51  1  0  0  0  0
M  END
