1,2
 OpenBabel05122313063D

 62 68  0  0  1  0  0  0  0  0999 V2000
    0.8741    0.9535   -0.3959 P   0  0  2  0  0  0  0  0  0  0  0  0
    2.5332   -0.9715    1.4972 N   0  0  0  0  0  2  0  0  0  0  0  0
    3.7475   -1.1327    2.0810 C   0  0  0  0  0  3  0  0  0  0  0  0
    4.6054   -1.0997    1.3938 H   0  0  0  0  0  0  0  0  0  0  0  0
    0.4303    3.7433   -0.1303 C   0  0  0  0  0  0  0  0  0  0  0  0
   -0.6266    3.5039    0.0620 H   0  0  0  0  0  0  0  0  0  0  0  0
    2.7126    3.0398   -0.6395 C   0  0  0  0  0  0  0  0  0  0  0  0
    3.4263    2.2323   -0.8657 H   0  0  0  0  0  0  0  0  0  0  0  0
    3.8897   -1.3820    3.4483 C   0  0  0  0  0  0  0  0  0  0  0  0
    4.8974   -1.5031    3.8699 H   0  0  0  0  0  0  0  0  0  0  0  0
   -6.4857    1.9765   -0.1036 C   0  0  0  0  0  0  0  0  0  0  0  0
   -7.5123    2.3651   -0.1823 H   0  0  0  0  0  0  0  0  0  0  0  0
    2.7408   -1.4833    4.2426 C   0  0  0  0  0  0  0  0  0  0  0  0
    2.8141   -1.6871    5.3214 H   0  0  0  0  0  0  0  0  0  0  0  0
   -4.7834    0.3945   -0.8421 C   0  0  0  0  0  0  0  0  0  0  0  0
   -4.4694   -0.4351   -1.4907 H   0  0  0  0  0  0  0  0  0  0  0  0
    1.4918   -1.3237    3.6323 C   0  0  0  0  0  0  0  0  0  0  0  0
    0.5624   -1.4031    4.2142 H   0  0  0  0  0  0  0  0  0  0  0  0
    1.4057   -1.0649    2.2525 C   0  0  0  0  0  0  0  0  0  0  0  0
    0.0738   -0.8529    1.5908 C   0  0  0  0  0  0  0  0  0  0  0  0
   -0.7316   -1.1361    2.2956 H   0  0  0  0  0  0  0  0  0  0  0  0
   -0.0068   -1.5262    0.7139 H   0  0  0  0  0  0  0  0  0  0  0  0
   -0.1364    0.6327    1.1711 C   0  0  2  0  0  0  0  0  0  0  0  0
    0.3449    1.2701    1.9412 H   0  0  0  0  0  0  0  0  0  0  0  0
   -1.5853    1.0637    1.0582 C   0  0  0  0  0  0  0  0  0  0  0  0
   -2.0191    2.1619    1.8600 C   0  0  0  0  0  0  0  0  0  0  0  0
   -1.2952    2.6323    2.5438 H   0  0  0  0  0  0  0  0  0  0  0  0
   -3.3169    2.6363    1.7976 C   0  0  0  0  0  0  0  0  0  0  0  0
   -3.6339    3.4779    2.4328 H   0  0  0  0  0  0  0  0  0  0  0  0
   -4.2589    2.0511    0.9051 C   0  0  0  0  0  0  0  0  0  0  0  0
   -5.5934    2.5413    0.7939 C   0  0  0  0  0  0  0  0  0  0  0  0
   -5.8988    3.3849    1.4324 H   0  0  0  0  0  0  0  0  0  0  0  0
    1.3667    2.7148   -0.3733 C   0  0  0  0  0  0  0  0  0  0  0  0
   -6.0715    0.8999   -0.9327 C   0  0  0  0  0  0  0  0  0  0  0  0
   -6.7782    0.4651   -1.6556 H   0  0  0  0  0  0  0  0  0  0  0  0
    2.1908    5.4028   -0.3871 C   0  0  0  0  0  0  0  0  0  0  0  0
    2.5132    6.4553   -0.3915 H   0  0  0  0  0  0  0  0  0  0  0  0
   -3.8423    0.9405    0.0832 C   0  0  0  0  0  0  0  0  0  0  0  0
   -2.4990    0.4334    0.1951 C   0  0  0  0  0  0  0  0  0  0  0  0
   -2.0614   -0.7307   -0.6322 C   0  0  0  0  0  0  0  0  0  0  0  0
   -2.5922   -2.0472   -0.3950 C   0  0  0  0  0  0  0  0  0  0  0  0
   -3.5665   -2.3141    0.6143 C   0  0  0  0  0  0  0  0  0  0  0  0
   -3.9388   -1.4829    1.2295 H   0  0  0  0  0  0  0  0  0  0  0  0
   -4.0432   -3.5997    0.8263 C   0  0  0  0  0  0  0  0  0  0  0  0
   -4.7945   -3.7809    1.6099 H   0  0  0  0  0  0  0  0  0  0  0  0
   -3.5680   -4.6839    0.0416 C   0  0  0  0  0  0  0  0  0  0  0  0
   -3.9562   -5.6987    0.2161 H   0  0  0  0  0  0  0  0  0  0  0  0
   -2.6077   -4.4627   -0.9333 C   0  0  0  0  0  0  0  0  0  0  0  0
   -2.2195   -5.2979   -1.5368 H   0  0  0  0  0  0  0  0  0  0  0  0
   -2.0896   -3.1556   -1.1720 C   0  0  0  0  0  0  0  0  0  0  0  0
   -1.0663   -2.9217   -2.1360 C   0  0  0  0  0  0  0  0  0  0  0  0
   -0.6710   -3.7738   -2.7099 H   0  0  0  0  0  0  0  0  0  0  0  0
   -0.5519   -1.6528   -2.3326 C   0  0  0  0  0  0  0  0  0  0  0  0
    0.2756   -1.4801   -3.0374 H   0  0  0  0  0  0  0  0  0  0  0  0
   -1.0547   -0.5445   -1.5906 C   0  0  0  0  0  0  0  0  0  0  0  0
   -0.4010    0.8027   -1.7361 C   0  0  0  0  0  0  0  0  0  0  0  0
   -1.1178    1.6405   -1.6276 H   0  0  0  0  0  0  0  0  0  0  0  0
    0.1672    0.9026   -2.6803 H   0  0  0  0  0  0  0  0  0  0  0  0
    3.1195    4.3824   -0.6448 C   0  0  0  0  0  0  0  0  0  0  0  0
    4.1701    4.6309   -0.8579 H   0  0  0  0  0  0  0  0  0  0  0  0
    0.8470    5.0823   -0.1325 C   0  0  0  0  0  0  0  0  0  0  0  0
    0.1147    5.8810    0.0609 H   0  0  0  0  0  0  0  0  0  0  0  0
  1 33  1  1  0  0  0
  1 23  1  0  0  0  0
  2  3  1  0  0  0  0
  2 19  1  0  0  0  0
  3  9  1  0  0  0  0
  4  3  1  0  0  0  0
  5  6  1  0  0  0  0
  7 33  1  0  0  0  0
  8  7  1  0  0  0  0
  9 10  1  0  0  0  0
  9 13  2  0  0  0  0
 11 31  1  0  0  0  0
 12 11  1  0  0  0  0
 13 14  1  0  0  0  0
 15 38  2  0  0  0  0
 16 15  1  0  0  0  0
 17 18  1  0  0  0  0
 17 13  1  0  0  0  0
 19 17  2  0  0  0  0
 20 19  1  0  0  0  0
 20 21  1  0  0  0  0
 22 20  1  0  0  0  0
 23 20  1  0  0  0  0
 23 24  1  1  0  0  0
 25 23  1  0  0  0  0
 25 26  1  0  0  0  0
 26 27  1  0  0  0  0
 28 26  2  0  0  0  0
 28 29  1  0  0  0  0
 30 28  1  0  0  0  0
 31 30  2  0  0  0  0
 31 32  1  0  0  0  0
 33  5  2  0  0  0  0
 34 15  1  0  0  0  0
 34 11  2  0  0  0  0
 35 34  1  0  0  0  0
 36 61  2  0  0  0  0
 37 36  1  0  0  0  0
 38 39  1  0  0  0  0
 38 30  1  0  0  0  0
 39 25  2  0  0  0  0
 40 41  1  0  0  0  0
 40 39  1  0  0  0  0
 41 42  1  0  0  0  0
 42 44  2  0  0  0  0
 42 43  1  0  0  0  0
 44 45  1  0  0  0  0
 46 47  1  0  0  0  0
 46 44  1  0  0  0  0
 48 46  2  0  0  0  0
 49 48  1  0  0  0  0
 50 48  1  0  0  0  0
 50 41  2  0  0  0  0
 51 50  1  0  0  0  0
 52 51  1  0  0  0  0
 53 51  2  0  0  0  0
 53 55  1  0  0  0  0
 54 53  1  0  0  0  0
 55 40  2  0  0  0  0
 56 57  1  0  0  0  0
 56 55  1  0  0  0  0
 56  1  1  0  0  0  0
 58 56  1  0  0  0  0
 59  7  2  0  0  0  0
 59 36  1  0  0  0  0
 60 59  1  0  0  0  0
 61  5  1  0  0  0  0
 61 62  1  0  0  0  0
M  END
