1,2
 OpenBabel05122313063D

 51 54  0  0  0  0  0  0  0  0999 V2000
   -1.2857   -0.0314   -0.0362 P   0  0  0  0  0  0  0  0  0  0  0  0
    1.5879    1.0343   -0.2434 N   0  0  0  0  0  2  0  0  0  0  0  0
    2.5834   -1.0215    1.2243 O   0  0  0  0  0  0  0  0  0  0  0  0
    2.9874    0.9086   -0.0783 C   0  0  0  0  0  0  0  0  0  0  0  0
    3.8853    1.8192   -0.6679 C   0  0  0  0  0  0  0  0  0  0  0  0
    3.4802    2.6433   -1.2736 H   0  0  0  0  0  0  0  0  0  0  0  0
    5.2694    1.6319   -0.5676 C   0  0  0  0  0  0  0  0  0  0  0  0
    5.9562    2.3360   -1.0592 H   0  0  0  0  0  0  0  0  0  0  0  0
    5.7658    0.5186    0.1268 C   0  0  0  0  0  0  0  0  0  0  0  0
    6.8511    0.3510    0.1985 H   0  0  0  0  0  0  0  0  0  0  0  0
    4.8888   -0.4021    0.7172 C   0  0  0  0  0  0  0  0  0  0  0  0
    5.2900   -1.2766    1.2458 H   0  0  0  0  0  0  0  0  0  0  0  0
    3.4974   -0.2147    0.6318 C   0  0  0  0  0  0  0  0  0  0  0  0
    2.9457   -2.3789    1.4464 C   0  0  0  0  0  0  0  0  0  0  0  0
    3.2904   -2.8351    0.4942 H   0  0  0  0  0  0  0  0  0  0  0  0
    2.0253   -2.8914    1.7826 H   0  0  0  0  0  0  0  0  0  0  0  0
    3.7189   -2.4791    2.2396 H   0  0  0  0  0  0  0  0  0  0  0  0
    1.0701    2.2184   -0.1071 C   0  0  0  0  0  3  0  0  0  0  0  0
    1.7450    3.0491    0.1897 H   0  0  0  0  0  0  0  0  0  0  0  0
   -0.3190    2.6326   -0.3210 C   0  0  0  0  0  0  0  0  0  0  0  0
   -0.5158    4.0274   -0.4717 C   0  0  0  0  0  0  0  0  0  0  0  0
    0.3622    4.6901   -0.4168 H   0  0  0  0  0  0  0  0  0  0  0  0
   -1.7820    4.5721   -0.7080 C   0  0  0  0  0  0  0  0  0  0  0  0
   -1.8988    5.6581   -0.8389 H   0  0  0  0  0  0  0  0  0  0  0  0
   -2.8955    3.7226   -0.7728 C   0  0  0  0  0  0  0  0  0  0  0  0
   -3.9005    4.1326   -0.9543 H   0  0  0  0  0  0  0  0  0  0  0  0
   -2.7301    2.3406   -0.5880 C   0  0  0  0  0  0  0  0  0  0  0  0
   -3.6109    1.6828   -0.6137 H   0  0  0  0  0  0  0  0  0  0  0  0
   -1.4603    1.7769   -0.3629 C   0  0  0  0  0  0  0  0  0  0  0  0
   -2.9296   -0.7025   -0.5095 C   0  0  0  0  0  0  0  0  0  0  0  0
   -3.8720   -1.1483    0.4366 C   0  0  0  0  0  0  0  0  0  0  0  0
   -3.6425   -1.0873    1.5108 H   0  0  0  0  0  0  0  0  0  0  0  0
   -5.1035   -1.6710    0.0086 C   0  0  0  0  0  0  0  0  0  0  0  0
   -5.8344   -2.0212    0.7533 H   0  0  0  0  0  0  0  0  0  0  0  0
   -5.4017   -1.7462   -1.3602 C   0  0  0  0  0  0  0  0  0  0  0  0
   -6.3672   -2.1567   -1.6925 H   0  0  0  0  0  0  0  0  0  0  0  0
   -4.4617   -1.3043   -2.3073 C   0  0  0  0  0  0  0  0  0  0  0  0
   -4.6875   -1.3696   -3.3824 H   0  0  0  0  0  0  0  0  0  0  0  0
   -3.2271   -0.7938   -1.8865 C   0  0  0  0  0  0  0  0  0  0  0  0
   -2.4799   -0.4649   -2.6256 H   0  0  0  0  0  0  0  0  0  0  0  0
   -1.2723   -0.1193    1.8043 C   0  0  0  0  0  0  0  0  0  0  0  0
   -0.6762   -1.2512    2.3971 C   0  0  0  0  0  0  0  0  0  0  0  0
   -0.2226   -2.0156    1.7473 H   0  0  0  0  0  0  0  0  0  0  0  0
   -0.6516   -1.3846    3.7922 C   0  0  0  0  0  0  0  0  0  0  0  0
   -0.1843   -2.2704    4.2486 H   0  0  0  0  0  0  0  0  0  0  0  0
   -1.2069   -0.3825    4.6049 C   0  0  0  0  0  0  0  0  0  0  0  0
   -1.1770   -0.4821    5.7006 H   0  0  0  0  0  0  0  0  0  0  0  0
   -1.7928    0.7510    4.0187 C   0  0  0  0  0  0  0  0  0  0  0  0
   -2.2233    1.5404    4.6536 H   0  0  0  0  0  0  0  0  0  0  0  0
   -1.8292    0.8839    2.6219 C   0  0  0  0  0  0  0  0  0  0  0  0
   -2.2883    1.7742    2.1658 H   0  0  0  0  0  0  0  0  0  0  0  0
  1 41  1  0  0  0  0
  2 18  1  0  0  0  0
  2  4  1  0  0  0  0
  3 14  1  0  0  0  0
  4 13  1  0  0  0  0
  5  7  1  0  0  0  0
  5  4  2  0  0  0  0
  6  5  1  0  0  0  0
  7  9  2  0  0  0  0
  8  7  1  0  0  0  0
  9 10  1  0  0  0  0
  9 11  1  0  0  0  0
 11 12  1  0  0  0  0
 13 11  2  0  0  0  0
 13  3  1  0  0  0  0
 14 16  1  0  0  0  0
 14 17  1  0  0  0  0
 15 14  1  0  0  0  0
 18 19  1  0  0  0  0
 20 18  1  0  0  0  0
 21 22  1  0  0  0  0
 21 20  2  0  0  0  0
 23 21  1  0  0  0  0
 24 23  1  0  0  0  0
 25 23  2  0  0  0  0
 25 27  1  0  0  0  0
 26 25  1  0  0  0  0
 27 29  2  0  0  0  0
 28 27  1  0  0  0  0
 29 20  1  0  0  0  0
 29  1  1  0  0  0  0
 30  1  1  0  0  0  0
 30 31  1  0  0  0  0
 31 32  1  0  0  0  0
 33 31  2  0  0  0  0
 33 34  1  0  0  0  0
 35 33  1  0  0  0  0
 36 35  1  0  0  0  0
 37 39  1  0  0  0  0
 37 35  2  0  0  0  0
 38 37  1  0  0  0  0
 39 30  2  0  0  0  0
 40 39  1  0  0  0  0
 41 42  2  0  0  0  0
 41 50  1  0  0  0  0
 42 44  1  0  0  0  0
 43 42  1  0  0  0  0
 44 45  1  0  0  0  0
 44 46  2  0  0  0  0
 46 47  1  0  0  0  0
 48 46  1  0  0  0  0
 48 49  1  0  0  0  0
 50 48  2  0  0  0  0
 51 50  1  0  0  0  0
M  END
