1,4
 OpenBabel05122313063D

 34 36  0  0  0  0  0  0  0  0999 V2000
    1.5513    0.2170   -0.2989 P   0  0  2  0  0  0  0  0  0  0  0  0
    2.0122    1.1543    1.0523 O   0  0  0  0  0  0  0  0  0  0  0  0
    3.1258   -0.3914   -0.6988 O   0  0  0  0  0  0  0  0  0  0  0  0
    1.6229   -2.7714   -0.9426 N   0  0  0  0  0  0  0  0  0  0  0  0
    1.0635   -3.6143   -0.7158 H   0  0  0  0  0  0  0  0  0  0  0  0
    1.5602    1.6063   -1.3115 N   0  0  0  0  0  0  0  0  0  0  0  0
    2.8300   -2.7403   -0.1654 C   0  0  0  0  0  0  0  0  0  0  0  0
    3.2954   -3.8846    0.5033 C   0  0  0  0  0  0  0  0  0  0  0  0
    2.7164   -4.8182    0.4261 H   0  0  0  0  0  0  0  0  0  0  0  0
    4.4768   -3.8379    1.2575 C   0  0  0  0  0  0  0  0  0  0  0  0
    4.8287   -4.7408    1.7777 H   0  0  0  0  0  0  0  0  0  0  0  0
    5.2063   -2.6411    1.3393 C   0  0  0  0  0  0  0  0  0  0  0  0
    6.1360   -2.5986    1.9261 H   0  0  0  0  0  0  0  0  0  0  0  0
    4.7444   -1.4892    0.6863 C   0  0  0  0  0  0  0  0  0  0  0  0
    5.2794   -0.5312    0.7528 H   0  0  0  0  0  0  0  0  0  0  0  0
    3.5628   -1.5307   -0.0702 C   0  0  0  0  0  0  0  0  0  0  0  0
    1.8369   -2.7281   -2.4087 C   0  0  0  0  0  0  0  0  0  0  0  0
    0.8521   -2.8151   -2.9036 H   0  0  0  0  0  0  0  0  0  0  0  0
    2.4990   -3.5590   -2.7353 H   0  0  0  0  0  0  0  0  0  0  0  0
    2.3032   -1.7648   -2.6840 H   0  0  0  0  0  0  0  0  0  0  0  0
    1.0508    1.6200   -2.6635 C   0  0  0  0  0  0  0  0  0  0  0  0
    0.4670    0.6910   -2.8240 H   0  0  0  0  0  0  0  0  0  0  0  0
    1.8674    1.6661   -3.4173 H   0  0  0  0  0  0  0  0  0  0  0  0
    0.3712    2.4853   -2.8117 H   0  0  0  0  0  0  0  0  0  0  0  0
    2.1386    2.7073   -0.6825 C   0  0  0  0  0  0  0  0  0  0  0  0
    2.4227    3.9770   -1.2014 C   0  0  0  0  0  0  0  0  0  0  0  0
    2.2222    4.2088   -2.2569 H   0  0  0  0  0  0  0  0  0  0  0  0
    2.9601    4.9493   -0.3340 C   0  0  0  0  0  0  0  0  0  0  0  0
    3.1881    5.9513   -0.7272 H   0  0  0  0  0  0  0  0  0  0  0  0
    3.2141    4.6570    1.0155 C   0  0  0  0  0  0  0  0  0  0  0  0
    3.6409    5.4286    1.6732 H   0  0  0  0  0  0  0  0  0  0  0  0
    2.9324    3.3778    1.5409 C   0  0  0  0  0  0  0  0  0  0  0  0
    3.1146    3.1268    2.5953 H   0  0  0  0  0  0  0  0  0  0  0  0
    2.3956    2.4232    0.6818 C   0  0  0  0  0  0  0  0  0  0  0  0
  1  3  1  6  0  0  0
  1  2  1  0  0  0  0
  3 16  1  0  0  0  0
  4  5  1  0  0  0  0
  4  7  1  0  0  0  0
  6 25  1  0  0  0  0
  6  1  1  0  0  0  0
  7 16  2  0  0  0  0
  7  8  1  0  0  0  0
  8 10  2  0  0  0  0
  9  8  1  0  0  0  0
 10 12  1  0  0  0  0
 10 11  1  0  0  0  0
 12 13  1  0  0  0  0
 14 15  1  0  0  0  0
 14 12  2  0  0  0  0
 16 14  1  0  0  0  0
 17  4  1  0  0  0  0
 18 17  1  0  0  0  0
 19 17  1  0  0  0  0
 20 17  1  0  0  0  0
 21  6  1  0  0  0  0
 22 21  1  0  0  0  0
 23 21  1  0  0  0  0
 24 21  1  0  0  0  0
 25 34  1  0  0  0  0
 26 25  2  0  0  0  0
 26 28  1  0  0  0  0
 27 26  1  0  0  0  0
 28 30  2  0  0  0  0
 29 28  1  0  0  0  0
 30 32  1  0  0  0  0
 30 31  1  0  0  0  0
 32 33  1  0  0  0  0
 34  2  1  0  0  0  0
 34 32  2  0  0  0  0
M  END
