1,2
 OpenBabel05122313063D

 34 36  0  0  0  0  0  0  0  0999 V2000
   -0.7557    0.9979    0.7841 P   0  0  0  0  0  0  0  0  0  0  0  0
    1.4499   -0.7638    1.8025 N   0  0  0  0  0  0  0  0  0  0  0  0
    2.0223   -1.9300    2.1920 N   0  0  0  0  0  0  0  0  0  0  0  0
    2.5076   -1.7553    3.3944 N   0  0  0  0  0  0  0  0  0  0  0  0
    2.2644   -0.4940    3.8317 N   0  0  0  0  0  0  0  0  0  0  0  0
   -0.5077    1.3748    2.5765 C   0  0  0  0  0  0  0  0  0  0  0  0
   -1.0688    2.2900    2.8508 H   0  0  0  0  0  0  0  0  0  0  0  0
   -0.9581    0.5387    3.1476 H   0  0  0  0  0  0  0  0  0  0  0  0
    0.9963    1.4638    2.8945 C   0  0  0  0  0  0  0  0  0  0  0  0
    1.4997    2.1680    2.1954 H   0  0  0  0  0  0  0  0  0  0  0  0
    1.1509    1.8513    3.9203 H   0  0  0  0  0  0  0  0  0  0  0  0
    1.6116    0.1054    2.8320 C   0  0  0  0  0  3  0  0  0  0  0  0
   -0.5434    2.6348   -0.0490 C   0  0  0  0  0  0  0  0  0  0  0  0
   -0.5251    3.8469    0.6729 C   0  0  0  0  0  0  0  0  0  0  0  0
   -0.6449    3.8512    1.7648 H   0  0  0  0  0  0  0  0  0  0  0  0
   -0.3549    5.0725    0.0115 C   0  0  0  0  0  0  0  0  0  0  0  0
   -0.3407    6.0055    0.5950 H   0  0  0  0  0  0  0  0  0  0  0  0
   -0.2039    5.1091   -1.3825 C   0  0  0  0  0  0  0  0  0  0  0  0
   -0.0708    6.0714   -1.8998 H   0  0  0  0  0  0  0  0  0  0  0  0
   -0.2177    3.9104   -2.1112 C   0  0  0  0  0  0  0  0  0  0  0  0
   -0.0939    3.9246   -3.2046 H   0  0  0  0  0  0  0  0  0  0  0  0
   -0.3752    2.6834   -1.4511 C   0  0  0  0  0  0  0  0  0  0  0  0
   -0.3747    1.7501   -2.0311 H   0  0  0  0  0  0  0  0  0  0  0  0
   -2.5567    0.6491    0.6275 C   0  0  0  0  0  0  0  0  0  0  0  0
   -3.3118    1.1610   -0.4473 C   0  0  0  0  0  0  0  0  0  0  0  0
   -2.8502    1.8649   -1.1543 H   0  0  0  0  0  0  0  0  0  0  0  0
   -4.6515    0.7812   -0.6191 C   0  0  0  0  0  0  0  0  0  0  0  0
   -5.2297    1.1947   -1.4596 H   0  0  0  0  0  0  0  0  0  0  0  0
   -5.2528   -0.1160    0.2782 C   0  0  0  0  0  0  0  0  0  0  0  0
   -6.3053   -0.4103    0.1447 H   0  0  0  0  0  0  0  0  0  0  0  0
   -4.5089   -0.6269    1.3536 C   0  0  0  0  0  0  0  0  0  0  0  0
   -4.9723   -1.3274    2.0649 H   0  0  0  0  0  0  0  0  0  0  0  0
   -3.1673   -0.2542    1.5244 C   0  0  0  0  0  0  0  0  0  0  0  0
   -2.5910   -0.6862    2.3547 H   0  0  0  0  0  0  0  0  0  0  0  0
  1  6  1  0  0  0  0
  2  3  2  0  0  0  0
  2 12  1  0  0  0  0
  3  4  1  0  0  0  0
  4  5  2  0  0  0  0
  6  7  1  0  0  0  0
  6  9  1  0  0  0  0
  6  8  1  0  0  0  0
  9 11  1  0  0  0  0
 10  9  1  0  0  0  0
 12  9  1  0  0  0  0
 12  5  1  0  0  0  0
 13 14  1  0  0  0  0
 13  1  1  0  0  0  0
 14 15  1  0  0  0  0
 16 17  1  0  0  0  0
 16 14  2  0  0  0  0
 18 16  1  0  0  0  0
 19 18  1  0  0  0  0
 20 22  1  0  0  0  0
 20 18  2  0  0  0  0
 21 20  1  0  0  0  0
 22 13  2  0  0  0  0
 23 22  1  0  0  0  0
 24  1  1  0  0  0  0
 24 33  1  0  0  0  0
 25 24  2  0  0  0  0
 26 25  1  0  0  0  0
 27 25  1  0  0  0  0
 27 29  2  0  0  0  0
 28 27  1  0  0  0  0
 29 31  1  0  0  0  0
 30 29  1  0  0  0  0
 31 33  2  0  0  0  0
 31 32  1  0  0  0  0
 33 34  1  0  0  0  0
M  END
