1,3
 OpenBabel05122313063D

 57 57  0  0  1  0  0  0  0  0999 V2000
    2.1778    0.1861    0.5094 P   0  0  0  0  0  0  0  0  0  0  0  0
    1.2026    0.5924    1.9082 O   0  0  0  0  0  0  0  0  0  0  0  0
   -0.6409    0.1362    0.6009 N   0  0  0  0  0  2  0  0  0  0  0  0
   -2.0620    0.0705    0.4337 C   0  0  0  0  0  0  0  0  0  0  0  0
   -2.6840   -1.1992    0.5077 C   0  0  0  0  0  0  0  0  0  0  0  0
   -4.0813   -1.2488    0.3661 C   0  0  0  0  0  0  0  0  0  0  0  0
   -4.5949   -2.2196    0.4281 H   0  0  0  0  0  0  0  0  0  0  0  0
   -4.8239   -0.0850    0.1270 C   0  0  0  0  0  0  0  0  0  0  0  0
   -5.9173   -0.1443    0.0162 H   0  0  0  0  0  0  0  0  0  0  0  0
   -4.1753    1.1497    0.0006 C   0  0  0  0  0  0  0  0  0  0  0  0
   -4.7631    2.0521   -0.2261 H   0  0  0  0  0  0  0  0  0  0  0  0
   -2.7795    1.2557    0.1419 C   0  0  0  0  0  0  0  0  0  0  0  0
   -2.0674    2.5786   -0.1108 C   0  0  0  0  0  0  0  0  0  0  0  0
   -1.0204    2.4717    0.2391 H   0  0  0  0  0  0  0  0  0  0  0  0
   -1.9992    2.8497   -1.6260 C   0  0  0  0  0  0  0  0  0  0  0  0
   -1.5503    1.9879   -2.1601 H   0  0  0  0  0  0  0  0  0  0  0  0
   -1.3967    3.7581   -1.8349 H   0  0  0  0  0  0  0  0  0  0  0  0
   -3.0158    3.0104   -2.0410 H   0  0  0  0  0  0  0  0  0  0  0  0
   -2.6910    3.7534    0.6568 C   0  0  0  0  0  0  0  0  0  0  0  0
   -3.7243    3.9660    0.3133 H   0  0  0  0  0  0  0  0  0  0  0  0
   -2.0995    4.6782    0.4985 H   0  0  0  0  0  0  0  0  0  0  0  0
   -2.7368    3.5553    1.7476 H   0  0  0  0  0  0  0  0  0  0  0  0
   -1.8574   -2.4577    0.7328 C   0  0  0  0  0  0  0  0  0  0  0  0
   -0.8081   -2.1979    0.4786 H   0  0  0  0  0  0  0  0  0  0  0  0
   -2.2637   -3.5974   -0.2102 C   0  0  0  0  0  0  0  0  0  0  0  0
   -3.2906   -3.9656   -0.0066 H   0  0  0  0  0  0  0  0  0  0  0  0
   -1.5753   -4.4585   -0.0883 H   0  0  0  0  0  0  0  0  0  0  0  0
   -2.2081   -3.2527   -1.2614 H   0  0  0  0  0  0  0  0  0  0  0  0
   -1.8852   -2.8869    2.2102 C   0  0  0  0  0  0  0  0  0  0  0  0
   -1.5240   -2.0795    2.8805 H   0  0  0  0  0  0  0  0  0  0  0  0
   -1.2440   -3.7776    2.3749 H   0  0  0  0  0  0  0  0  0  0  0  0
   -2.9156   -3.1463    2.5318 H   0  0  0  0  0  0  0  0  0  0  0  0
   -0.1286    0.5041    1.7452 C   0  0  2  0  0  3  0  0  0  0  0  0
   -0.9036    0.8888    2.9647 C   0  0  0  0  0  0  0  0  0  0  0  0
   -0.8805    1.9929    3.0782 H   0  0  0  0  0  0  0  0  0  0  0  0
   -0.4261    0.4522    3.8625 H   0  0  0  0  0  0  0  0  0  0  0  0
   -1.9557    0.5653    2.8837 H   0  0  0  0  0  0  0  0  0  0  0  0
    3.1849    1.7233    0.3228 C   0  0  0  0  0  0  0  0  0  0  0  0
    3.8406    1.4542   -0.5359 H   0  0  0  0  0  0  0  0  0  0  0  0
    4.0194    2.0585    1.5631 C   0  0  0  0  0  0  0  0  0  0  0  0
    4.5880    2.9947    1.3889 H   0  0  0  0  0  0  0  0  0  0  0  0
    4.7530    1.2663    1.8100 H   0  0  0  0  0  0  0  0  0  0  0  0
    3.3697    2.2190    2.4472 H   0  0  0  0  0  0  0  0  0  0  0  0
    2.2586    2.8684   -0.1108 C   0  0  0  0  0  0  0  0  0  0  0  0
    1.5442    3.1308    0.6966 H   0  0  0  0  0  0  0  0  0  0  0  0
    1.6775    2.5991   -1.0153 H   0  0  0  0  0  0  0  0  0  0  0  0
    2.8585    3.7725   -0.3377 H   0  0  0  0  0  0  0  0  0  0  0  0
    3.2206   -1.1525    1.2504 C   0  0  0  0  0  0  0  0  0  0  0  0
    3.5469   -0.7434    2.2326 H   0  0  0  0  0  0  0  0  0  0  0  0
    4.4384   -1.4498    0.3648 C   0  0  0  0  0  0  0  0  0  0  0  0
    5.0117   -2.2937    0.7997 H   0  0  0  0  0  0  0  0  0  0  0  0
    5.1239   -0.5827    0.2860 H   0  0  0  0  0  0  0  0  0  0  0  0
    4.1186   -1.7242   -0.6603 H   0  0  0  0  0  0  0  0  0  0  0  0
    2.3412   -2.3898    1.4769 C   0  0  0  0  0  0  0  0  0  0  0  0
    1.9784   -2.7946    0.5104 H   0  0  0  0  0  0  0  0  0  0  0  0
    1.4581   -2.1650    2.1076 H   0  0  0  0  0  0  0  0  0  0  0  0
    2.9296   -3.1797    1.9864 H   0  0  0  0  0  0  0  0  0  0  0  0
  1 48  1  0  0  0  0
  1  2  1  0  0  0  0
  4  5  1  0  0  0  0
  4  3  1  0  0  0  0
  5 23  1  0  0  0  0
  6  7  1  0  0  0  0
  6  5  2  0  0  0  0
  8  6  1  0  0  0  0
  9  8  1  0  0  0  0
 10  8  2  0  0  0  0
 10 12  1  0  0  0  0
 11 10  1  0  0  0  0
 12  4  2  0  0  0  0
 13 12  1  0  0  0  0
 13 14  1  0  0  0  0
 13 19  1  0  0  0  0
 15 13  1  0  0  0  0
 16 15  1  0  0  0  0
 17 15  1  0  0  0  0
 18 15  1  0  0  0  0
 19 22  1  0  0  0  0
 20 19  1  0  0  0  0
 21 19  1  0  0  0  0
 23 29  1  0  0  0  0
 24 23  1  0  0  0  0
 25 27  1  0  0  0  0
 25 26  1  0  0  0  0
 25 23  1  0  0  0  0
 28 25  1  0  0  0  0
 29 31  1  0  0  0  0
 29 32  1  0  0  0  0
 29 30  1  0  0  0  0
 33  3  1  6  0  0  0
 33  2  1  0  0  0  0
 33 34  1  0  0  0  0
 34 35  1  0  0  0  0
 34 36  1  0  0  0  0
 37 34  1  0  0  0  0
 38  1  1  0  0  0  0
 38 40  1  0  0  0  0
 39 38  1  0  0  0  0
 40 42  1  0  0  0  0
 40 43  1  0  0  0  0
 41 40  1  0  0  0  0
 44 38  1  0  0  0  0
 44 45  1  0  0  0  0
 46 44  1  0  0  0  0
 47 44  1  0  0  0  0
 48 54  1  0  0  0  0
 48 49  1  0  0  0  0
 50 51  1  0  0  0  0
 50 48  1  0  0  0  0
 52 50  1  0  0  0  0
 53 50  1  0  0  0  0
 54 57  1  0  0  0  0
 54 56  1  0  0  0  0
 55 54  1  0  0  0  0
M  END
