3,4
 OpenBabel05122313063D

 41 43  0  0  1  0  0  0  0  0999 V2000
   -0.9206    0.3312   -2.6878 S   0  0  0  0  0  0  0  0  0  0  0  0
    0.3399   -0.2019    2.8243 S   0  0  0  0  0  0  0  0  0  0  0  0
    0.8557   -1.1141   -0.2621 P   0  0  2  0  0  0  0  0  0  0  0  0
   -1.8848   -0.5221    0.2923 N   0  0  0  0  0  2  0  0  0  0  0  0
   -2.5170   -0.3178   -2.1166 C   0  0  0  0  0  0  0  0  0  0  0  0
   -3.1539    0.6000   -2.0774 H   0  0  0  0  0  0  0  0  0  0  0  0
   -2.9622   -0.9872   -2.8803 H   0  0  0  0  0  0  0  0  0  0  0  0
   -2.6375   -0.9620   -0.7514 C   0  0  2  0  0  3  0  0  0  0  0  0
   -3.8758   -2.4338    0.7300 C   0  0  0  0  0  0  0  0  0  0  0  0
   -4.6432   -3.2037    0.8980 H   0  0  0  0  0  0  0  0  0  0  0  0
   -3.6279   -1.9411   -0.5540 C   0  0  0  0  0  0  0  0  0  0  0  0
   -4.2083   -2.2933   -1.4188 H   0  0  0  0  0  0  0  0  0  0  0  0
   -3.1513   -1.9003    1.8023 C   0  0  0  0  0  0  0  0  0  0  0  0
   -3.3458   -2.2204    2.8356 H   0  0  0  0  0  0  0  0  0  0  0  0
   -2.1662   -0.9289    1.5633 C   0  0  0  0  0  0  0  0  0  0  0  0
   -1.4882   -0.2560    2.7289 C   0  0  0  0  0  0  0  0  0  0  0  0
   -1.8909   -0.6806    3.6696 H   0  0  0  0  0  0  0  0  0  0  0  0
   -1.7500    0.8250    2.6851 H   0  0  0  0  0  0  0  0  0  0  0  0
    0.8566   -1.9219    2.4816 C   0  0  0  0  0  0  0  0  0  0  0  0
    1.9442   -1.8917    2.6979 H   0  0  0  0  0  0  0  0  0  0  0  0
    0.4016   -2.6157    3.2191 H   0  0  0  0  0  0  0  0  0  0  0  0
    0.6106   -2.4187    1.0516 C   0  0  0  0  0  0  0  0  0  0  0  0
   -0.4336   -2.7738    0.9353 H   0  0  0  0  0  0  0  0  0  0  0  0
    1.2745   -3.2789    0.8229 H   0  0  0  0  0  0  0  0  0  0  0  0
    0.2972   -2.0645   -1.7594 C   0  0  0  0  0  0  0  0  0  0  0  0
    1.0133   -2.8816   -1.9888 H   0  0  0  0  0  0  0  0  0  0  0  0
   -0.6467   -2.5601   -1.4507 H   0  0  0  0  0  0  0  0  0  0  0  0
    0.0501   -1.1905   -2.9915 C   0  0  0  0  0  0  0  0  0  0  0  0
   -0.4317   -1.7856   -3.7957 H   0  0  0  0  0  0  0  0  0  0  0  0
    1.0047   -0.7987   -3.4002 H   0  0  0  0  0  0  0  0  0  0  0  0
    2.6664   -0.9294   -0.3936 C   0  0  0  0  0  0  0  0  0  0  0  0
    3.3282   -0.1918    0.6118 C   0  0  0  0  0  0  0  0  0  0  0  0
    2.7507    0.2812    1.4189 H   0  0  0  0  0  0  0  0  0  0  0  0
    4.7147   -0.0030    0.5517 C   0  0  0  0  0  0  0  0  0  0  0  0
    5.2061    0.6066    1.3234 H   0  0  0  0  0  0  0  0  0  0  0  0
    5.4559   -0.5523   -0.5062 C   0  0  0  0  0  0  0  0  0  0  0  0
    6.5436   -0.3943   -0.5581 H   0  0  0  0  0  0  0  0  0  0  0  0
    4.8043   -1.2850   -1.5101 C   0  0  0  0  0  0  0  0  0  0  0  0
    5.3789   -1.7081   -2.3480 H   0  0  0  0  0  0  0  0  0  0  0  0
    3.4146   -1.4715   -1.4595 C   0  0  0  0  0  0  0  0  0  0  0  0
    2.9234   -2.0375   -2.2644 H   0  0  0  0  0  0  0  0  0  0  0  0
  1  5  1  0  0  0  0
  3 31  1  6  0  0  0
  3 22  1  0  0  0  0
  4 15  1  0  0  0  0
  5  6  1  0  0  0  0
  5  8  1  0  0  0  0
  7  5  1  0  0  0  0
  8 11  1  1  0  0  0
  8  4  1  0  0  0  0
  9 10  1  0  0  0  0
  9 13  1  0  0  0  0
 11  9  2  0  0  0  0
 12 11  1  0  0  0  0
 13 14  1  0  0  0  0
 15 13  2  0  0  0  0
 15 16  1  0  0  0  0
 16  2  1  0  0  0  0
 16 17  1  0  0  0  0
 18 16  1  0  0  0  0
 19 20  1  0  0  0  0
 19  2  1  0  0  0  0
 19 21  1  0  0  0  0
 22 19  1  0  0  0  0
 23 22  1  0  0  0  0
 24 22  1  0  0  0  0
 25 27  1  0  0  0  0
 25  3  1  0  0  0  0
 26 25  1  0  0  0  0
 28  1  1  0  0  0  0
 28 25  1  0  0  0  0
 29 28  1  0  0  0  0
 30 28  1  0  0  0  0
 31 32  1  0  0  0  0
 32 33  1  0  0  0  0
 34 32  2  0  0  0  0
 34 35  1  0  0  0  0
 36 34  1  0  0  0  0
 37 36  1  0  0  0  0
 38 40  1  0  0  0  0
 38 36  2  0  0  0  0
 39 38  1  0  0  0  0
 40 31  2  0  0  0  0
 41 40  1  0  0  0  0
M  END
