1,4
 OpenBabel05122313063D

 57 60  0  0  1  0  0  0  0  0999 V2000
   -1.0197    0.4678    0.2679 P   0  0  0  0  0  0  0  0  0  0  0  0
    2.3909    2.6333    0.1382 O   0  0  0  0  0  0  0  0  0  0  0  0
    1.3998   -2.1634    0.1407 N   0  0  0  0  0  0  0  0  0  0  0  0
    0.0847   -2.4745    0.2426 N   0  0  0  0  0  2  0  0  0  0  0  0
    4.3897    0.0276    0.8016 N   0  0  0  0  0  0  0  0  0  0  0  0
    4.8499   -1.1846    0.4180 N   0  0  0  0  0  0  0  0  0  0  0  0
    0.6335    0.5336    1.1235 C   0  0  0  0  0  0  0  0  0  0  0  0
    0.7306    1.5287    1.6025 H   0  0  0  0  0  0  0  0  0  0  0  0
    0.5580   -0.2265    1.9298 H   0  0  0  0  0  0  0  0  0  0  0  0
    1.8385   -0.9832   -0.5790 C   0  0  0  0  0  0  0  0  0  0  0  0
    1.1207   -0.8310   -1.4119 H   0  0  0  0  0  0  0  0  0  0  0  0
    2.8342   -1.2068   -1.0058 H   0  0  0  0  0  0  0  0  0  0  0  0
    3.0575    0.1641    1.3583 C   0  0  0  0  0  0  0  0  0  0  0  0
    3.0468    1.0758    1.9835 H   0  0  0  0  0  0  0  0  0  0  0  0
    2.8726   -0.7085    2.0144 H   0  0  0  0  0  0  0  0  0  0  0  0
    1.9198    0.2854    0.3016 C   0  0  2  0  0  0  0  0  0  0  0  0
    2.2268    1.4644   -0.6363 C   0  0  0  0  0  0  0  0  0  0  0  0
    3.1557    1.2438   -1.2194 H   0  0  0  0  0  0  0  0  0  0  0  0
    1.4009    1.5903   -1.3729 H   0  0  0  0  0  0  0  0  0  0  0  0
    2.5917    3.7901   -0.6502 C   0  0  0  0  0  0  0  0  0  0  0  0
    3.5163    3.7093   -1.2704 H   0  0  0  0  0  0  0  0  0  0  0  0
    2.6985    4.6483    0.0408 H   0  0  0  0  0  0  0  0  0  0  0  0
    1.7267    3.9805   -1.3260 H   0  0  0  0  0  0  0  0  0  0  0  0
    2.1652   -3.0618    0.8258 C   0  0  0  0  0  3  0  0  0  0  0  0
    3.2560   -2.9345    0.8387 H   0  0  0  0  0  0  0  0  0  0  0  0
    1.2948   -3.9945    1.3896 C   0  0  0  0  0  0  0  0  0  0  0  0
    1.5610   -4.8674    1.9930 H   0  0  0  0  0  0  0  0  0  0  0  0
    0.0032   -3.5894    0.9900 C   0  0  0  0  0  0  0  0  0  0  0  0
   -0.9750   -4.0530    1.1531 H   0  0  0  0  0  0  0  0  0  0  0  0
    5.2814    1.0304    0.5359 C   0  0  0  0  0  0  0  0  0  0  0  0
    5.0405    2.0713    0.7774 H   0  0  0  0  0  0  0  0  0  0  0  0
    6.3930    0.4305   -0.0506 C   0  0  0  0  0  0  0  0  0  0  0  0
    7.3123    0.9210   -0.3865 H   0  0  0  0  0  0  0  0  0  0  0  0
    6.0661   -0.9485   -0.0975 C   0  0  0  0  0  0  0  0  0  0  0  0
    6.6661   -1.7845   -0.4784 H   0  0  0  0  0  0  0  0  0  0  0  0
   -2.1888    0.8124    1.6507 C   0  0  0  0  0  0  0  0  0  0  0  0
   -3.5665    0.6401    1.3910 C   0  0  0  0  0  0  0  0  0  0  0  0
   -3.8857    0.2920    0.3940 H   0  0  0  0  0  0  0  0  0  0  0  0
   -4.5064    0.9022    2.3965 C   0  0  0  0  0  0  0  0  0  0  0  0
   -5.5772    0.7638    2.1833 H   0  0  0  0  0  0  0  0  0  0  0  0
   -4.0888    1.3267    3.6686 C   0  0  0  0  0  0  0  0  0  0  0  0
   -4.8303    1.5251    4.4573 H   0  0  0  0  0  0  0  0  0  0  0  0
   -2.7212    1.4909    3.9330 C   0  0  0  0  0  0  0  0  0  0  0  0
   -2.3848    1.8187    4.9284 H   0  0  0  0  0  0  0  0  0  0  0  0
   -1.7719    1.2369    2.9301 C   0  0  0  0  0  0  0  0  0  0  0  0
   -0.7068    1.3741    3.1630 H   0  0  0  0  0  0  0  0  0  0  0  0
   -1.0595    2.0078   -0.7433 C   0  0  0  0  0  0  0  0  0  0  0  0
   -1.0458    1.9352   -2.1506 C   0  0  0  0  0  0  0  0  0  0  0  0
   -1.0871    0.9515   -2.6411 H   0  0  0  0  0  0  0  0  0  0  0  0
   -1.0194    3.1149   -2.9100 C   0  0  0  0  0  0  0  0  0  0  0  0
   -1.0171    3.0531   -4.0086 H   0  0  0  0  0  0  0  0  0  0  0  0
   -1.0155    4.3665   -2.2733 C   0  0  0  0  0  0  0  0  0  0  0  0
   -1.0058    5.2899   -2.8723 H   0  0  0  0  0  0  0  0  0  0  0  0
   -1.0377    4.4400   -0.8704 C   0  0  0  0  0  0  0  0  0  0  0  0
   -1.0453    5.4188   -0.3673 H   0  0  0  0  0  0  0  0  0  0  0  0
   -1.0602    3.2641   -0.1055 C   0  0  0  0  0  0  0  0  0  0  0  0
   -1.0946    3.3266    0.9933 H   0  0  0  0  0  0  0  0  0  0  0  0
  1  7  1  0  0  0  0
  1 36  1  0  0  0  0
  3  4  1  0  0  0  0
  3 24  1  0  0  0  0
  4 28  1  0  0  0  0
  5 13  1  0  0  0  0
  6  5  1  0  0  0  0
  7  8  1  0  0  0  0
  7  9  1  0  0  0  0
 10  3  1  0  0  0  0
 10 16  1  0  0  0  0
 11 10  1  0  0  0  0
 12 10  1  0  0  0  0
 13 14  1  0  0  0  0
 13 15  1  0  0  0  0
 16 17  1  6  0  0  0
 16  7  1  0  0  0  0
 16 13  1  0  0  0  0
 17  2  1  0  0  0  0
 18 17  1  0  0  0  0
 19 17  1  0  0  0  0
 20 22  1  0  0  0  0
 20  2  1  0  0  0  0
 21 20  1  0  0  0  0
 23 20  1  0  0  0  0
 24 25  1  0  0  0  0
 24 26  1  0  0  0  0
 26 27  1  0  0  0  0
 28 29  1  0  0  0  0
 28 26  2  0  0  0  0
 30 31  1  0  0  0  0
 30  5  1  0  0  0  0
 32 30  2  0  0  0  0
 33 32  1  0  0  0  0
 34 32  1  0  0  0  0
 34  6  2  0  0  0  0
 35 34  1  0  0  0  0
 36 45  1  0  0  0  0
 37 36  2  0  0  0  0
 37 39  1  0  0  0  0
 38 37  1  0  0  0  0
 39 41  2  0  0  0  0
 40 39  1  0  0  0  0
 41 43  1  0  0  0  0
 41 42  1  0  0  0  0
 43 44  1  0  0  0  0
 45 46  1  0  0  0  0
 45 43  2  0  0  0  0
 47 56  1  0  0  0  0
 47  1  1  0  0  0  0
 48 47  2  0  0  0  0
 49 48  1  0  0  0  0
 50 52  2  0  0  0  0
 50 48  1  0  0  0  0
 51 50  1  0  0  0  0
 52 54  1  0  0  0  0
 53 52  1  0  0  0  0
 54 55  1  0  0  0  0
 54 56  2  0  0  0  0
 56 57  1  0  0  0  0
M  END
