2,4
 OpenBabel05122313063D

 70 74  0  0  0  0  0  0  0  0999 V2000
   -1.5879   -0.2225    0.5499 P   0  0  0  0  0  4  0  0  0  0  0  0
    1.7536    0.1476    0.2741 P   0  0  0  0  0  0  0  0  0  0  0  0
   -1.6240    1.6984   -1.8965 Si  0  0  0  0  0  0  0  0  0  0  0  0
   -0.9830    0.4534   -0.7825 N   0  0  0  0  0  2  0  0  0  0  0  0
   -0.5088   -0.0469    2.0356 C   0  0  0  0  0  0  0  0  0  0  0  0
    0.8939    0.1115    1.9271 C   0  0  0  0  0  0  0  0  0  0  0  0
    1.6592    0.2280    3.1062 C   0  0  0  0  0  0  0  0  0  0  0  0
    1.0556    0.1772    4.3706 C   0  0  0  0  0  0  0  0  0  0  0  0
   -0.3323    0.0097    4.4760 C   0  0  0  0  0  0  0  0  0  0  0  0
   -1.1078   -0.0972    3.3127 C   0  0  0  0  0  0  0  0  0  0  0  0
   -0.3133    2.0876   -3.1870 C   0  0  0  0  0  0  0  0  0  0  0  0
   -3.2036    1.0717   -2.7188 C   0  0  0  0  0  0  0  0  0  0  0  0
   -1.9809    3.3168   -0.9706 C   0  0  0  0  0  0  0  0  0  0  0  0
   -1.9459   -2.0107    0.4120 C   0  0  0  0  0  0  0  0  0  0  0  0
   -1.8457   -2.8871    1.5122 C   0  0  0  0  0  0  0  0  0  0  0  0
   -2.1819   -4.2399    1.3575 C   0  0  0  0  0  0  0  0  0  0  0  0
   -2.6215   -4.7203    0.1131 C   0  0  0  0  0  0  0  0  0  0  0  0
   -2.7185   -3.8467   -0.9816 C   0  0  0  0  0  0  0  0  0  0  0  0
   -2.3808   -2.4938   -0.8391 C   0  0  0  0  0  0  0  0  0  0  0  0
   -3.1716    0.5469    1.0732 C   0  0  0  0  0  0  0  0  0  0  0  0
   -4.3998   -0.0656    0.7535 C   0  0  0  0  0  0  0  0  0  0  0  0
   -5.6080    0.5666    1.0844 C   0  0  0  0  0  0  0  0  0  0  0  0
   -5.5981    1.8054    1.7441 C   0  0  0  0  0  0  0  0  0  0  0  0
   -4.3763    2.4158    2.0723 C   0  0  0  0  0  0  0  0  0  0  0  0
   -3.1670    1.7924    1.7358 C   0  0  0  0  0  0  0  0  0  0  0  0
    3.4115   -0.5135    0.7359 C   0  0  0  0  0  0  0  0  0  0  0  0
    4.5453    0.3018    0.9192 C   0  0  0  0  0  0  0  0  0  0  0  0
    5.7736   -0.2741    1.2834 C   0  0  0  0  0  0  0  0  0  0  0  0
    5.8750   -1.6601    1.4753 C   0  0  0  0  0  0  0  0  0  0  0  0
    4.7443   -2.4754    1.2985 C   0  0  0  0  0  0  0  0  0  0  0  0
    3.5195   -1.9073    0.9254 C   0  0  0  0  0  0  0  0  0  0  0  0
    2.0414    1.9509    0.0156 C   0  0  0  0  0  0  0  0  0  0  0  0
    1.5156    2.9442    0.8631 C   0  0  0  0  0  0  0  0  0  0  0  0
    1.7031    4.3029    0.5592 C   0  0  0  0  0  0  0  0  0  0  0  0
    2.4270    4.6782   -0.5822 C   0  0  0  0  0  0  0  0  0  0  0  0
    2.9593    3.6900   -1.4284 C   0  0  0  0  0  0  0  0  0  0  0  0
    2.7571    2.3339   -1.1400 C   0  0  0  0  0  0  0  0  0  0  0  0
    2.7496    0.3510    3.0289 H   0  0  0  0  0  0  0  0  0  0  0  0
    1.6753    0.2660    5.2757 H   0  0  0  0  0  0  0  0  0  0  0  0
   -0.8162   -0.0362    5.4632 H   0  0  0  0  0  0  0  0  0  0  0  0
   -2.1981   -0.2166    3.3980 H   0  0  0  0  0  0  0  0  0  0  0  0
   -1.4895   -2.5229    2.4865 H   0  0  0  0  0  0  0  0  0  0  0  0
   -2.0919   -4.9247    2.2144 H   0  0  0  0  0  0  0  0  0  0  0  0
   -2.8768   -5.7844   -0.0060 H   0  0  0  0  0  0  0  0  0  0  0  0
   -3.0339   -4.2201   -1.9673 H   0  0  0  0  0  0  0  0  0  0  0  0
   -2.3871   -1.8279   -1.7154 H   0  0  0  0  0  0  0  0  0  0  0  0
   -4.4095   -1.0419    0.2463 H   0  0  0  0  0  0  0  0  0  0  0  0
   -6.5630    0.0838    0.8283 H   0  0  0  0  0  0  0  0  0  0  0  0
   -6.5469    2.2972    2.0069 H   0  0  0  0  0  0  0  0  0  0  0  0
   -4.3644    3.3870    2.5894 H   0  0  0  0  0  0  0  0  0  0  0  0
   -2.2120    2.2769    1.9882 H   0  0  0  0  0  0  0  0  0  0  0  0
    4.4698    1.3897    0.7750 H   0  0  0  0  0  0  0  0  0  0  0  0
    6.6573    0.3684    1.4170 H   0  0  0  0  0  0  0  0  0  0  0  0
    6.8395   -2.1087    1.7578 H   0  0  0  0  0  0  0  0  0  0  0  0
    4.8197   -3.5640    1.4406 H   0  0  0  0  0  0  0  0  0  0  0  0
    2.6352   -2.5453    0.7690 H   0  0  0  0  0  0  0  0  0  0  0  0
    0.9519    2.6577    1.7631 H   0  0  0  0  0  0  0  0  0  0  0  0
    1.2785    5.0730    1.2213 H   0  0  0  0  0  0  0  0  0  0  0  0
    2.5719    5.7433   -0.8184 H   0  0  0  0  0  0  0  0  0  0  0  0
    3.5195    3.9777   -2.3308 H   0  0  0  0  0  0  0  0  0  0  0  0
    3.1362    1.5578   -1.8233 H   0  0  0  0  0  0  0  0  0  0  0  0
   -0.6941    2.8828   -3.8624 H   0  0  0  0  0  0  0  0  0  0  0  0
    0.6162    2.4550   -2.7096 H   0  0  0  0  0  0  0  0  0  0  0  0
   -0.0787    1.1846   -3.7833 H   0  0  0  0  0  0  0  0  0  0  0  0
   -3.6388    1.8452   -3.3854 H   0  0  0  0  0  0  0  0  0  0  0  0
   -2.9499    0.1792   -3.3260 H   0  0  0  0  0  0  0  0  0  0  0  0
   -3.9736    0.7924   -1.9710 H   0  0  0  0  0  0  0  0  0  0  0  0
   -2.1212    4.1250   -1.7192 H   0  0  0  0  0  0  0  0  0  0  0  0
   -2.8945    3.2745   -0.3477 H   0  0  0  0  0  0  0  0  0  0  0  0
   -1.1215    3.6015   -0.3294 H   0  0  0  0  0  0  0  0  0  0  0  0
  1 20  1  0  0  0  0
  1  5  1  0  0  0  0
  2 26  1  0  0  0  0
  2  6  1  0  0  0  0
  3 13  1  0  0  0  0
  3  4  1  0  0  0  0
  4  1  1  0  0  0  0
  5 10  1  0  0  0  0
  6  5  2  0  0  0  0
  6  7  1  0  0  0  0
  7  8  2  0  0  0  0
  8  9  1  0  0  0  0
  8 39  1  0  0  0  0
  9 40  1  0  0  0  0
 10 41  1  0  0  0  0
 10  9  2  0  0  0  0
 11 63  1  0  0  0  0
 11  3  1  0  0  0  0
 12 67  1  0  0  0  0
 12  3  1  0  0  0  0
 13 69  1  0  0  0  0
 13 70  1  0  0  0  0
 14  1  1  0  0  0  0
 14 15  1  0  0  0  0
 15 42  1  0  0  0  0
 16 15  2  0  0  0  0
 16 43  1  0  0  0  0
 17 16  1  0  0  0  0
 18 19  1  0  0  0  0
 18 17  2  0  0  0  0
 19 14  2  0  0  0  0
 20 25  1  0  0  0  0
 21 20  2  0  0  0  0
 21 22  1  0  0  0  0
 22 23  2  0  0  0  0
 23 49  1  0  0  0  0
 23 24  1  0  0  0  0
 24 50  1  0  0  0  0
 25 51  1  0  0  0  0
 25 24  2  0  0  0  0
 26 27  2  0  0  0  0
 26 31  1  0  0  0  0
 27 28  1  0  0  0  0
 28 53  1  0  0  0  0
 28 29  2  0  0  0  0
 29 54  1  0  0  0  0
 30 55  1  0  0  0  0
 30 29  1  0  0  0  0
 31 30  2  0  0  0  0
 32  2  1  0  0  0  0
 32 33  1  0  0  0  0
 33 57  1  0  0  0  0
 34 33  2  0  0  0  0
 34 58  1  0  0  0  0
 35 34  1  0  0  0  0
 36 37  1  0  0  0  0
 36 35  2  0  0  0  0
 37 32  2  0  0  0  0
 38  7  1  0  0  0  0
 44 17  1  0  0  0  0
 45 18  1  0  0  0  0
 46 19  1  0  0  0  0
 47 21  1  0  0  0  0
 48 22  1  0  0  0  0
 52 27  1  0  0  0  0
 56 31  1  0  0  0  0
 59 35  1  0  0  0  0
 60 36  1  0  0  0  0
 61 37  1  0  0  0  0
 62 11  1  0  0  0  0
 64 11  1  0  0  0  0
 65 12  1  0  0  0  0
 66 12  1  0  0  0  0
 68 13  1  0  0  0  0
M  END
