1,35
 OpenBabel05122313063D

 49 52  0  0  1  0  0  0  0  0999 V2000
   -1.4591    0.4706    0.5755 P   0  0  0  0  0  0  0  0  0  0  0  0
   -2.8429    2.8232   -0.2036 C   0  0  0  0  0  0  0  0  0  0  0  0
   -3.6772    2.4631    0.4184 H   0  0  0  0  0  0  0  0  0  0  0  0
   -2.9374    4.0561   -0.8648 C   0  0  0  0  0  0  0  0  0  0  0  0
   -3.8468    4.6664   -0.7553 H   0  0  0  0  0  0  0  0  0  0  0  0
   -1.8765    4.5105   -1.6673 C   0  0  0  0  0  0  0  0  0  0  0  0
   -1.9562    5.4790   -2.1841 H   0  0  0  0  0  0  0  0  0  0  0  0
   -0.7214    3.7272   -1.8174 C   0  0  0  0  0  0  0  0  0  0  0  0
    0.1116    4.0739   -2.4471 H   0  0  0  0  0  0  0  0  0  0  0  0
   -0.6238    2.4884   -1.1667 C   0  0  0  0  0  0  0  0  0  0  0  0
    0.2722    1.8590   -1.2912 H   0  0  0  0  0  0  0  0  0  0  0  0
   -1.6794    2.0391   -0.3472 C   0  0  0  0  0  0  0  0  0  0  0  0
   -3.7780   -0.6196   -0.5347 C   0  0  0  0  0  0  0  0  0  0  0  0
   -3.2475   -0.5022   -1.4913 H   0  0  0  0  0  0  0  0  0  0  0  0
   -5.0716   -1.1563   -0.5047 C   0  0  0  0  0  0  0  0  0  0  0  0
   -5.5590   -1.4468   -1.4475 H   0  0  0  0  0  0  0  0  0  0  0  0
   -5.7400   -1.3296    0.7183 C   0  0  0  0  0  0  0  0  0  0  0  0
   -6.7548   -1.7550    0.7379 H   0  0  0  0  0  0  0  0  0  0  0  0
   -5.1107   -0.9585    1.9160 C   0  0  0  0  0  0  0  0  0  0  0  0
   -5.6296   -1.0879    2.8778 H   0  0  0  0  0  0  0  0  0  0  0  0
   -3.8153   -0.4184    1.8947 C   0  0  0  0  0  0  0  0  0  0  0  0
   -3.3437   -0.1289    2.8442 H   0  0  0  0  0  0  0  0  0  0  0  0
   -3.1382   -0.2467    0.6686 C   0  0  0  0  0  0  0  0  0  0  0  0
    0.8848   -0.3887    3.0878 C   0  0  0  0  0  0  0  0  0  0  0  0
    1.3728    0.0184    4.0048 H   0  0  0  0  0  0  0  0  0  0  0  0
    1.2583   -1.4150    2.9099 H   0  0  0  0  0  0  0  0  0  0  0  0
   -0.6564   -0.2677    3.1827 C   0  0  0  0  0  0  0  0  0  0  0  0
   -1.1527   -1.1836    2.8059 H   0  0  0  0  0  0  0  0  0  0  0  0
   -0.9800   -0.1238    4.2325 H   0  0  0  0  0  0  0  0  0  0  0  0
   -1.0065    0.9884    2.3203 C   0  0  1  0  0  0  0  0  0  0  0  0
   -1.7690    1.6559    2.7665 H   0  0  0  0  0  0  0  0  0  0  0  0
    0.3555    1.6553    2.1471 C   0  0  0  0  0  0  0  0  0  0  0  0
    0.4243    2.3679    1.3054 H   0  0  0  0  0  0  0  0  0  0  0  0
    0.6622    2.1872    3.0795 H   0  0  0  0  0  0  0  0  0  0  0  0
    1.2353    0.4808    1.9331 N   0  0  0  0  0  0  0  0  0  0  0  0
    2.6740    0.8407    1.8392 C   0  0  0  0  0  0  0  0  0  0  0  0
    2.9868    1.2727    2.8192 H   0  0  0  0  0  0  0  0  0  0  0  0
    3.2281   -0.1057    1.6738 H   0  0  0  0  0  0  0  0  0  0  0  0
    3.0132    3.2128    1.0047 C   0  0  0  0  0  0  0  0  0  0  0  0
    2.9447    3.5601    2.0486 H   0  0  0  0  0  0  0  0  0  0  0  0
    3.1716    4.1474   -0.0300 C   0  0  0  0  0  0  0  0  0  0  0  0
    3.2284    5.2212    0.2048 H   0  0  0  0  0  0  0  0  0  0  0  0
    3.2596    3.7099   -1.3611 C   0  0  0  0  0  0  0  0  0  0  0  0
    3.3849    4.4405   -2.1751 H   0  0  0  0  0  0  0  0  0  0  0  0
    3.2029    2.3361   -1.6471 C   0  0  0  0  0  0  0  0  0  0  0  0
    3.2865    1.9820   -2.6858 H   0  0  0  0  0  0  0  0  0  0  0  0
    3.0437    1.4027   -0.6114 C   0  0  0  0  0  0  0  0  0  0  0  0
    3.0029    0.3252   -0.8367 H   0  0  0  0  0  0  0  0  0  0  0  0
    2.9344    1.8330    0.7274 C   0  0  0  0  0  0  0  0  0  0  0  0
  1 23  1  0  0  0  0
  1 30  1  0  0  0  0
  2  3  1  0  0  0  0
  4  5  1  0  0  0  0
  4  2  2  0  0  0  0
  6  4  1  0  0  0  0
  7  6  1  0  0  0  0
  8  6  2  0  0  0  0
  8 10  1  0  0  0  0
  9  8  1  0  0  0  0
 10 12  2  0  0  0  0
 11 10  1  0  0  0  0
 12  2  1  0  0  0  0
 12  1  1  0  0  0  0
 13 15  2  0  0  0  0
 13 23  1  0  0  0  0
 14 13  1  0  0  0  0
 15 17  1  0  0  0  0
 16 15  1  0  0  0  0
 17 18  1  0  0  0  0
 17 19  2  0  0  0  0
 19 20  1  0  0  0  0
 21 19  1  0  0  0  0
 21 22  1  0  0  0  0
 23 21  2  0  0  0  0
 24 27  1  0  0  0  0
 24 25  1  0  0  0  0
 26 24  1  0  0  0  0
 27 29  1  0  0  0  0
 28 27  1  0  0  0  0
 30 31  1  1  0  0  0
 30 27  1  0  0  0  0
 32 30  1  0  0  0  0
 32 34  1  0  0  0  0
 33 32  1  0  0  0  0
 35 32  1  0  0  0  0
 35 24  1  0  0  0  0
 36 35  1  0  0  0  0
 36 37  1  0  0  0  0
 38 36  1  0  0  0  0
 39 40  1  0  0  0  0
 41 42  1  0  0  0  0
 41 39  2  0  0  0  0
 43 41  1  0  0  0  0
 44 43  1  0  0  0  0
 45 43  2  0  0  0  0
 45 47  1  0  0  0  0
 46 45  1  0  0  0  0
 47 49  2  0  0  0  0
 48 47  1  0  0  0  0
 49 39  1  0  0  0  0
 49 36  1  0  0  0  0
M  END
