1,2
 OpenBabel05122313063D

 53 56  0  0  0  0  0  0  0  0999 V2000
   -1.1759    0.1575   -0.1213 P   0  0  0  0  0  0  0  0  0  0  0  0
    0.8367   -1.5610    1.2971 N   0  0  0  0  0  2  0  0  0  0  0  0
    2.2553   -1.9292    1.3437 C   0  0  0  0  0  0  0  0  0  0  0  0
    2.3602   -2.8615    0.7503 H   0  0  0  0  0  0  0  0  0  0  0  0
    2.5692   -2.1039    2.3971 H   0  0  0  0  0  0  0  0  0  0  0  0
    3.0912   -0.8237    0.7242 C   0  0  0  0  0  0  0  0  0  0  0  0
    3.4530    0.3036    1.4856 C   0  0  0  0  0  0  0  0  0  0  0  0
    3.1418    0.3728    2.5408 H   0  0  0  0  0  0  0  0  0  0  0  0
    4.2022    1.3405    0.9174 C   0  0  0  0  0  0  0  0  0  0  0  0
    4.4723    2.2158    1.5296 H   0  0  0  0  0  0  0  0  0  0  0  0
    4.6092    1.2857   -0.4319 C   0  0  0  0  0  0  0  0  0  0  0  0
    4.2309    0.1604   -1.1909 C   0  0  0  0  0  0  0  0  0  0  0  0
    4.5284    0.0986   -2.2501 H   0  0  0  0  0  0  0  0  0  0  0  0
    3.4801   -0.8818   -0.6273 C   0  0  0  0  0  0  0  0  0  0  0  0
    3.1715   -1.7503   -1.2316 H   0  0  0  0  0  0  0  0  0  0  0  0
    5.4347    2.3954   -1.0335 C   0  0  0  0  0  0  0  0  0  0  0  0
    5.3586    2.4095   -2.1386 H   0  0  0  0  0  0  0  0  0  0  0  0
    6.5107    2.2776   -0.7814 H   0  0  0  0  0  0  0  0  0  0  0  0
    5.1232    3.3888   -0.6508 H   0  0  0  0  0  0  0  0  0  0  0  0
    0.2630   -1.2284    2.4053 C   0  0  0  0  0  3  0  0  0  0  0  0
    0.8416   -1.3296    3.3503 H   0  0  0  0  0  0  0  0  0  0  0  0
   -1.1085   -0.7312    2.5814 C   0  0  0  0  0  0  0  0  0  0  0  0
   -1.6546   -0.8515    3.8794 C   0  0  0  0  0  0  0  0  0  0  0  0
   -1.0403   -1.3119    4.6692 H   0  0  0  0  0  0  0  0  0  0  0  0
   -2.9536   -0.4186    4.1708 C   0  0  0  0  0  0  0  0  0  0  0  0
   -3.3609   -0.5414    5.1853 H   0  0  0  0  0  0  0  0  0  0  0  0
   -3.7238    0.1755    3.1617 C   0  0  0  0  0  0  0  0  0  0  0  0
   -4.7444    0.5276    3.3745 H   0  0  0  0  0  0  0  0  0  0  0  0
   -3.1861    0.3384    1.8742 C   0  0  0  0  0  0  0  0  0  0  0  0
   -3.7870    0.8277    1.0941 H   0  0  0  0  0  0  0  0  0  0  0  0
   -1.8888   -0.1079    1.5634 C   0  0  0  0  0  0  0  0  0  0  0  0
   -0.1131    1.6446    0.0884 C   0  0  0  0  0  0  0  0  0  0  0  0
   -0.2904    2.5657    1.1399 C   0  0  0  0  0  0  0  0  0  0  0  0
   -1.0763    2.3981    1.8921 H   0  0  0  0  0  0  0  0  0  0  0  0
    0.5376    3.6958    1.2272 C   0  0  0  0  0  0  0  0  0  0  0  0
    0.4009    4.4102    2.0535 H   0  0  0  0  0  0  0  0  0  0  0  0
    1.5340    3.9160    0.2628 C   0  0  0  0  0  0  0  0  0  0  0  0
    2.1807    4.8041    0.3329 H   0  0  0  0  0  0  0  0  0  0  0  0
    1.7140    2.9969   -0.7834 C   0  0  0  0  0  0  0  0  0  0  0  0
    2.5037    3.1571   -1.5315 H   0  0  0  0  0  0  0  0  0  0  0  0
    0.9027    1.8572   -0.8661 C   0  0  0  0  0  0  0  0  0  0  0  0
    1.0641    1.1115   -1.6604 H   0  0  0  0  0  0  0  0  0  0  0  0
   -2.6097    0.7526   -1.1013 C   0  0  0  0  0  0  0  0  0  0  0  0
   -2.7682    2.1024   -1.4702 C   0  0  0  0  0  0  0  0  0  0  0  0
   -2.0178    2.8466   -1.1648 H   0  0  0  0  0  0  0  0  0  0  0  0
   -3.8829    2.4960   -2.2283 C   0  0  0  0  0  0  0  0  0  0  0  0
   -3.9998    3.5519   -2.5163 H   0  0  0  0  0  0  0  0  0  0  0  0
   -4.8431    1.5495   -2.6168 C   0  0  0  0  0  0  0  0  0  0  0  0
   -5.7150    1.8611   -3.2118 H   0  0  0  0  0  0  0  0  0  0  0  0
   -4.6855    0.2011   -2.2532 C   0  0  0  0  0  0  0  0  0  0  0  0
   -5.4311   -0.5462   -2.5641 H   0  0  0  0  0  0  0  0  0  0  0  0
   -3.5698   -0.1995   -1.5068 C   0  0  0  0  0  0  0  0  0  0  0  0
   -3.4321   -1.2580   -1.2366 H   0  0  0  0  0  0  0  0  0  0  0  0
  1 32  1  0  0  0  0
  1 31  1  0  0  0  0
  2  3  1  0  0  0  0
  2 20  1  0  0  0  0
  3  5  1  0  0  0  0
  4  3  1  0  0  0  0
  6  3  1  0  0  0  0
  6  7  1  0  0  0  0
  7  8  1  0  0  0  0
  9  7  2  0  0  0  0
  9 10  1  0  0  0  0
 11  9  1  0  0  0  0
 12 14  1  0  0  0  0
 12 11  2  0  0  0  0
 13 12  1  0  0  0  0
 14  6  2  0  0  0  0
 15 14  1  0  0  0  0
 16 18  1  0  0  0  0
 16 19  1  0  0  0  0
 16 11  1  0  0  0  0
 17 16  1  0  0  0  0
 20 22  1  0  0  0  0
 20 21  1  0  0  0  0
 22 23  1  0  0  0  0
 23 25  2  0  0  0  0
 23 24  1  0  0  0  0
 25 26  1  0  0  0  0
 27 28  1  0  0  0  0
 27 25  1  0  0  0  0
 29 27  2  0  0  0  0
 30 29  1  0  0  0  0
 31 29  1  0  0  0  0
 31 22  2  0  0  0  0
 32 33  1  0  0  0  0
 33 35  2  0  0  0  0
 33 34  1  0  0  0  0
 35 36  1  0  0  0  0
 37 38  1  0  0  0  0
 37 35  1  0  0  0  0
 39 37  2  0  0  0  0
 40 39  1  0  0  0  0
 41 39  1  0  0  0  0
 41 32  2  0  0  0  0
 42 41  1  0  0  0  0
 43  1  1  0  0  0  0
 44 45  1  0  0  0  0
 44 43  1  0  0  0  0
 46 44  2  0  0  0  0
 47 46  1  0  0  0  0
 48 50  2  0  0  0  0
 48 46  1  0  0  0  0
 49 48  1  0  0  0  0
 50 52  1  0  0  0  0
 51 50  1  0  0  0  0
 52 53  1  0  0  0  0
 52 43  2  0  0  0  0
M  END
