1,2
 OpenBabel05122313063D

 45 46  0  0  1  0  0  0  0  0999 V2000
   -0.0389   -1.8687    0.3490 P   0  0  0  0  0  0  0  0  0  0  0  0
    1.1003    0.8144    0.2348 N   0  0  0  0  0  2  0  0  0  0  0  0
    1.2028    1.7068    0.7431 H   0  0  0  0  0  0  0  0  0  0  0  0
   -1.1254   -3.3054   -0.1998 C   0  0  0  0  0  0  0  0  0  0  0  0
   -0.4795   -4.2077   -0.1494 H   0  0  0  0  0  0  0  0  0  0  0  0
   -2.2912   -3.5187    0.7746 C   0  0  0  0  0  0  0  0  0  0  0  0
   -2.9981   -2.6692    0.7459 H   0  0  0  0  0  0  0  0  0  0  0  0
   -1.9622   -3.6506    1.8239 H   0  0  0  0  0  0  0  0  0  0  0  0
   -2.8560   -4.4289    0.4838 H   0  0  0  0  0  0  0  0  0  0  0  0
   -1.6213   -3.1283   -1.6376 C   0  0  0  0  0  0  0  0  0  0  0  0
   -2.1903   -4.0289   -1.9510 H   0  0  0  0  0  0  0  0  0  0  0  0
   -0.7942   -2.9635   -2.3534 H   0  0  0  0  0  0  0  0  0  0  0  0
   -2.2859   -2.2478   -1.7200 H   0  0  0  0  0  0  0  0  0  0  0  0
    0.5425   -2.4141    2.0677 C   0  0  0  0  0  0  0  0  0  0  0  0
   -0.3546   -2.2204    2.6956 H   0  0  0  0  0  0  0  0  0  0  0  0
    1.6669   -1.5108    2.5855 C   0  0  0  0  0  0  0  0  0  0  0  0
    1.9262   -1.8046    3.6240 H   0  0  0  0  0  0  0  0  0  0  0  0
    1.3532   -0.4514    2.6001 H   0  0  0  0  0  0  0  0  0  0  0  0
    2.5860   -1.6151    1.9725 H   0  0  0  0  0  0  0  0  0  0  0  0
    0.9474   -3.8894    2.1472 C   0  0  0  0  0  0  0  0  0  0  0  0
    1.7900   -4.1122    1.4598 H   0  0  0  0  0  0  0  0  0  0  0  0
    0.1193   -4.5861    1.9130 H   0  0  0  0  0  0  0  0  0  0  0  0
    1.2928   -4.1259    3.1756 H   0  0  0  0  0  0  0  0  0  0  0  0
    1.5086   -2.0584   -0.6601 C   0  0  0  0  0  0  0  0  0  0  0  0
    1.8043   -3.2777   -1.2973 C   0  0  0  0  0  0  0  0  0  0  0  0
    1.1198   -4.1294   -1.1857 H   0  0  0  0  0  0  0  0  0  0  0  0
    2.9446   -3.4454   -2.0981 C   0  0  0  0  0  0  0  0  0  0  0  0
    3.1305   -4.4111   -2.5919 H   0  0  0  0  0  0  0  0  0  0  0  0
    3.8281   -2.3724   -2.2693 C   0  0  0  0  0  0  0  0  0  0  0  0
    4.7176   -2.4746   -2.9090 H   0  0  0  0  0  0  0  0  0  0  0  0
    3.5721   -1.1607   -1.6214 C   0  0  0  0  0  0  0  0  0  0  0  0
    4.2647   -0.3192   -1.7617 H   0  0  0  0  0  0  0  0  0  0  0  0
    2.4278   -0.9708   -0.8066 C   0  0  0  0  0  0  0  0  0  0  0  0
    2.2695    0.3429   -0.1486 C   0  0  2  0  0  3  0  0  0  0  0  0
    3.4664    1.1806    0.1362 C   0  0  0  0  0  0  0  0  0  0  0  0
    3.4251    2.5758   -0.0934 C   0  0  0  0  0  0  0  0  0  0  0  0
    2.5316    3.0182   -0.5612 H   0  0  0  0  0  0  0  0  0  0  0  0
    4.5159    3.3902    0.2395 C   0  0  0  0  0  0  0  0  0  0  0  0
    4.4682    4.4721    0.0430 H   0  0  0  0  0  0  0  0  0  0  0  0
    5.6698    2.8274    0.8075 C   0  0  0  0  0  0  0  0  0  0  0  0
    6.5272    3.4663    1.0676 H   0  0  0  0  0  0  0  0  0  0  0  0
    5.7247    1.4425    1.0382 C   0  0  0  0  0  0  0  0  0  0  0  0
    6.6222    0.9945    1.4911 H   0  0  0  0  0  0  0  0  0  0  0  0
    4.6372    0.6257    0.7037 C   0  0  0  0  0  0  0  0  0  0  0  0
    4.6806   -0.4562    0.8979 H   0  0  0  0  0  0  0  0  0  0  0  0
  1 14  1  0  0  0  0
  2  3  1  0  0  0  0
  4  5  1  0  0  0  0
  4  1  1  0  0  0  0
  4  6  1  0  0  0  0
  6  8  1  0  0  0  0
  7  6  1  0  0  0  0
  9  6  1  0  0  0  0
 10  4  1  0  0  0  0
 11 10  1  0  0  0  0
 12 10  1  0  0  0  0
 13 10  1  0  0  0  0
 14 20  1  0  0  0  0
 14 16  1  0  0  0  0
 14 15  1  0  0  0  0
 16 18  1  0  0  0  0
 16 17  1  0  0  0  0
 19 16  1  0  0  0  0
 20 23  1  0  0  0  0
 21 20  1  0  0  0  0
 22 20  1  0  0  0  0
 24  1  1  0  0  0  0
 25 26  1  0  0  0  0
 25 24  2  0  0  0  0
 27 25  1  0  0  0  0
 28 27  1  0  0  0  0
 29 27  2  0  0  0  0
 29 31  1  0  0  0  0
 30 29  1  0  0  0  0
 31 33  2  0  0  0  0
 32 31  1  0  0  0  0
 33 24  1  0  0  0  0
 33 34  1  0  0  0  0
 34 35  1  0  0  0  0
 34  2  1  1  0  0  0
 35 44  1  0  0  0  0
 36 35  2  0  0  0  0
 36 38  1  0  0  0  0
 37 36  1  0  0  0  0
 38 40  2  0  0  0  0
 39 38  1  0  0  0  0
 40 42  1  0  0  0  0
 40 41  1  0  0  0  0
 42 43  1  0  0  0  0
 44 45  1  0  0  0  0
 44 42  2  0  0  0  0
M  END
