1,4
 OpenBabel05122313063D

 32 32  0  0  0  0  0  0  0  0999 V2000
   -1.0816    0.7074   -0.0554 P   0  0  2  0  0  0  0  0  0  0  0  0
   -0.6312    2.2874    0.1931 O   0  0  0  0  0  0  0  0  0  0  0  0
   -1.9688    0.8913   -1.4384 O   0  0  0  0  0  0  0  0  0  0  0  0
    2.2172    0.9219    0.1469 N   0  0  0  0  0  0  0  0  0  0  0  0
    2.4216    0.7433    1.1455 H   0  0  0  0  0  0  0  0  0  0  0  0
    3.0921    0.6958   -0.3552 H   0  0  0  0  0  0  0  0  0  0  0  0
   -2.4232    0.4380    0.9270 N   0  0  0  0  0  0  0  0  0  0  0  0
   -2.2625   -0.1660    1.7393 H   0  0  0  0  0  0  0  0  0  0  0  0
    1.8775    2.3745   -0.0354 C   0  0  0  0  0  0  0  0  0  0  0  0
    0.5997    2.7068    0.7723 C   0  0  0  0  0  0  0  0  0  0  0  0
    0.6967    2.2995    1.8020 H   0  0  0  0  0  0  0  0  0  0  0  0
    0.5229    3.8107    0.8363 H   0  0  0  0  0  0  0  0  0  0  0  0
    3.0304    3.2032    0.5549 C   0  0  0  0  0  0  0  0  0  0  0  0
    3.9891    2.9518    0.0577 H   0  0  0  0  0  0  0  0  0  0  0  0
    3.1465    3.0168    1.6429 H   0  0  0  0  0  0  0  0  0  0  0  0
    2.8508    4.2867    0.4106 H   0  0  0  0  0  0  0  0  0  0  0  0
    1.6936    2.6699   -1.5251 C   0  0  0  0  0  0  0  0  0  0  0  0
    0.8357    2.1168   -1.9489 H   0  0  0  0  0  0  0  0  0  0  0  0
    2.6025    2.3928   -2.0967 H   0  0  0  0  0  0  0  0  0  0  0  0
    1.5113    3.7519   -1.6735 H   0  0  0  0  0  0  0  0  0  0  0  0
   -3.6745    0.2702    0.1547 C   0  0  0  0  0  0  0  0  0  0  0  0
   -3.3588    1.0856   -1.1241 C   0  0  0  0  0  0  0  0  0  0  0  0
   -3.9536    0.7419   -1.9921 H   0  0  0  0  0  0  0  0  0  0  0  0
   -3.5469    2.1686   -0.9523 H   0  0  0  0  0  0  0  0  0  0  0  0
   -4.8509    0.8931    0.9145 C   0  0  0  0  0  0  0  0  0  0  0  0
   -5.0626    0.3208    1.8398 H   0  0  0  0  0  0  0  0  0  0  0  0
   -5.7706    0.8781    0.2948 H   0  0  0  0  0  0  0  0  0  0  0  0
   -4.6242    1.9394    1.1980 H   0  0  0  0  0  0  0  0  0  0  0  0
   -3.9369   -1.2074   -0.1726 C   0  0  0  0  0  0  0  0  0  0  0  0
   -4.0384   -1.7957    0.7618 H   0  0  0  0  0  0  0  0  0  0  0  0
   -3.0927   -1.6414   -0.7432 H   0  0  0  0  0  0  0  0  0  0  0  0
   -4.8743   -1.3238   -0.7535 H   0  0  0  0  0  0  0  0  0  0  0  0
  1  2  1  1  0  0  0
  1  7  1  0  0  0  0
  2 10  1  0  0  0  0
  3 22  1  0  0  0  0
  3  1  1  0  0  0  0
  4  5  1  0  0  0  0
  6  4  1  0  0  0  0
  7  8  1  0  0  0  0
  9  4  1  0  0  0  0
  9 13  1  0  0  0  0
  9 10  1  0  0  0  0
 10 12  1  0  0  0  0
 10 11  1  0  0  0  0
 13 15  1  0  0  0  0
 14 13  1  0  0  0  0
 16 13  1  0  0  0  0
 17  9  1  0  0  0  0
 18 17  1  0  0  0  0
 19 17  1  0  0  0  0
 20 17  1  0  0  0  0
 21 25  1  0  0  0  0
 21  7  1  0  0  0  0
 22 24  1  0  0  0  0
 22 21  1  0  0  0  0
 23 22  1  0  0  0  0
 25 28  1  0  0  0  0
 25 26  1  0  0  0  0
 27 25  1  0  0  0  0
 29 21  1  0  0  0  0
 29 30  1  0  0  0  0
 31 29  1  0  0  0  0
 32 29  1  0  0  0  0
M  END
