1,2
 OpenBabel05122313063D

 27 28  0  0  1  0  0  0  0  0999 V2000
    1.2076    1.3810   -0.1542 P   0  0  2  0  0  0  0  0  0  0  0  0
    0.9639   -1.6444   -0.1339 N   0  0  0  0  0  0  0  0  0  0  0  0
    2.2746   -0.4248    1.6036 N   0  0  1  0  0  0  0  0  0  0  0  0
    3.1346   -0.5439   -0.6626 N   0  0  1  0  0  0  0  0  0  0  0  0
    0.3197   -2.9637   -0.3129 C   0  0  0  0  0  0  0  0  0  0  0  0
    1.0695   -3.7708   -0.1454 H   0  0  0  0  0  0  0  0  0  0  0  0
   -0.0999   -3.0453   -1.3308 H   0  0  0  0  0  0  0  0  0  0  0  0
   -0.4965   -3.0563    0.4245 H   0  0  0  0  0  0  0  0  0  0  0  0
    1.3430   -1.4915    1.3397 C   0  0  0  0  0  0  0  0  0  0  0  0
    0.3865   -1.3626    1.8843 H   0  0  0  0  0  0  0  0  0  0  0  0
    1.8220   -2.4508    1.6480 H   0  0  0  0  0  0  0  0  0  0  0  0
    3.4588   -0.5850    0.7648 C   0  0  0  0  0  0  0  0  0  0  0  0
    3.9239   -1.5677    0.9904 H   0  0  0  0  0  0  0  0  0  0  0  0
    4.1912    0.2137    0.9978 H   0  0  0  0  0  0  0  0  0  0  0  0
    1.7538    0.9420    1.5829 C   0  0  0  0  0  0  0  0  0  0  0  0
    2.5393    1.6370    1.9507 H   0  0  0  0  0  0  0  0  0  0  0  0
    0.8580    1.0417    2.2260 H   0  0  0  0  0  0  0  0  0  0  0  0
    2.2203   -1.6082   -0.9791 C   0  0  0  0  0  0  0  0  0  0  0  0
    2.7499   -2.5758   -0.8091 H   0  0  0  0  0  0  0  0  0  0  0  0
    1.9048   -1.5607   -2.0400 H   0  0  0  0  0  0  0  0  0  0  0  0
    2.7330    0.7948   -1.0870 C   0  0  0  0  0  0  0  0  0  0  0  0
    2.5139    0.8010   -2.1749 H   0  0  0  0  0  0  0  0  0  0  0  0
    3.5813    1.4932   -0.9117 H   0  0  0  0  0  0  0  0  0  0  0  0
    1.2175    3.1950   -0.4131 C   0  0  0  0  0  0  0  0  0  0  0  0
    2.2521    3.5855   -0.3339 H   0  0  0  0  0  0  0  0  0  0  0  0
    0.5576    3.6521    0.3463 H   0  0  0  0  0  0  0  0  0  0  0  0
    0.8134    3.4169   -1.4202 H   0  0  0  0  0  0  0  0  0  0  0  0
  1 24  1  1  0  0  0
  1 15  1  0  0  0  0
  2  9  1  0  0  0  0
  3 12  1  6  0  0  0
  4 21  1  1  0  0  0
  4 12  1  0  0  0  0
  5  6  1  0  0  0  0
  5  2  1  0  0  0  0
  5  8  1  0  0  0  0
  7  5  1  0  0  0  0
  9  3  1  0  0  0  0
  9 11  1  0  0  0  0
  9 10  1  0  0  0  0
 12 13  1  0  0  0  0
 12 14  1  0  0  0  0
 15  3  1  0  0  0  0
 15 16  1  0  0  0  0
 15 17  1  0  0  0  0
 18 19  1  0  0  0  0
 18  4  1  0  0  0  0
 18  2  1  0  0  0  0
 20 18  1  0  0  0  0
 21 23  1  0  0  0  0
 21  1  1  0  0  0  0
 22 21  1  0  0  0  0
 24 25  1  0  0  0  0
 24 26  1  0  0  0  0
 27 24  1  0  0  0  0
M  END
