1,2
 OpenBabel05122313063D

 44 44  0  0  1  0  0  0  0  0999 V2000
    0.5853    1.2542    0.0151 P   0  0  0  0  0  0  0  0  0  0  0  0
    0.8829   -1.1752   -0.5365 N   0  0  0  0  0  2  0  0  0  0  0  0
    1.3357   -2.5276   -0.9106 C   0  0  0  0  0  0  0  0  0  0  0  0
    2.4467   -2.5186   -0.8774 H   0  0  0  0  0  0  0  0  0  0  0  0
    0.8204   -3.5543    0.0998 C   0  0  0  0  0  0  0  0  0  0  0  0
    1.2682   -4.5423   -0.1256 H   0  0  0  0  0  0  0  0  0  0  0  0
   -0.2813   -3.6367    0.0091 H   0  0  0  0  0  0  0  0  0  0  0  0
    1.0888   -3.2639    1.1338 H   0  0  0  0  0  0  0  0  0  0  0  0
    0.8791   -2.8359   -2.3399 C   0  0  0  0  0  0  0  0  0  0  0  0
    1.2585   -3.8368   -2.6286 H   0  0  0  0  0  0  0  0  0  0  0  0
    1.2640   -2.0835   -3.0539 H   0  0  0  0  0  0  0  0  0  0  0  0
   -0.2265   -2.8293   -2.3974 H   0  0  0  0  0  0  0  0  0  0  0  0
    1.7165   -0.2123   -0.2792 C   0  0  2  0  0  3  0  0  0  0  0  0
    3.1868   -0.3580   -0.1513 C   0  0  0  0  0  0  0  0  0  0  0  0
    3.6994   -0.8464    1.0719 C   0  0  0  0  0  0  0  0  0  0  0  0
    2.9912   -1.1128    1.8724 H   0  0  0  0  0  0  0  0  0  0  0  0
    5.0845   -0.9753    1.2454 C   0  0  0  0  0  0  0  0  0  0  0  0
    5.4808   -1.3548    2.1994 H   0  0  0  0  0  0  0  0  0  0  0  0
    5.9636   -0.6251    0.2069 C   0  0  0  0  0  0  0  0  0  0  0  0
    7.0503   -0.7273    0.3469 H   0  0  0  0  0  0  0  0  0  0  0  0
    5.4546   -0.1515   -1.0129 C   0  0  0  0  0  0  0  0  0  0  0  0
    6.1404    0.1103   -1.8328 H   0  0  0  0  0  0  0  0  0  0  0  0
    4.0701   -0.0153   -1.1948 C   0  0  0  0  0  0  0  0  0  0  0  0
    3.6660    0.3400   -2.1546 H   0  0  0  0  0  0  0  0  0  0  0  0
    1.0179    2.0075    1.6752 C   0  0  0  0  0  0  0  0  0  0  0  0
    0.8274    1.1368    2.3392 H   0  0  0  0  0  0  0  0  0  0  0  0
    2.4739    2.4407    1.8856 C   0  0  0  0  0  0  0  0  0  0  0  0
    2.6242    2.6783    2.9600 H   0  0  0  0  0  0  0  0  0  0  0  0
    2.7238    3.3528    1.3119 H   0  0  0  0  0  0  0  0  0  0  0  0
    3.2012    1.6528    1.6162 H   0  0  0  0  0  0  0  0  0  0  0  0
    0.0282    3.1376    2.0038 C   0  0  0  0  0  0  0  0  0  0  0  0
    0.0505    3.3502    3.0932 H   0  0  0  0  0  0  0  0  0  0  0  0
   -1.0139    2.8965    1.7065 H   0  0  0  0  0  0  0  0  0  0  0  0
    0.3112    4.0755    1.4851 H   0  0  0  0  0  0  0  0  0  0  0  0
    0.8823    2.4926   -1.3561 C   0  0  0  0  0  0  0  0  0  0  0  0
    0.7473    1.8179   -2.2299 H   0  0  0  0  0  0  0  0  0  0  0  0
    2.2582    3.1614   -1.4102 C   0  0  0  0  0  0  0  0  0  0  0  0
    2.3857    3.6542   -2.3973 H   0  0  0  0  0  0  0  0  0  0  0  0
    3.0945    2.4487   -1.2804 H   0  0  0  0  0  0  0  0  0  0  0  0
    2.3633    3.9506   -0.6398 H   0  0  0  0  0  0  0  0  0  0  0  0
   -0.2628    3.5172   -1.3949 C   0  0  0  0  0  0  0  0  0  0  0  0
   -0.3357    3.9567   -2.4108 H   0  0  0  0  0  0  0  0  0  0  0  0
   -0.0912    4.3470   -0.6808 H   0  0  0  0  0  0  0  0  0  0  0  0
   -1.2407    3.0663   -1.1423 H   0  0  0  0  0  0  0  0  0  0  0  0
  1 25  1  0  0  0  0
  3  4  1  0  0  0  0
  3  2  1  0  0  0  0
  3  5  1  0  0  0  0
  5  8  1  0  0  0  0
  6  5  1  0  0  0  0
  7  5  1  0  0  0  0
  9  3  1  0  0  0  0
 10  9  1  0  0  0  0
 11  9  1  0  0  0  0
 12  9  1  0  0  0  0
 13  2  1  1  0  0  0
 13 14  1  0  0  0  0
 13  1  1  0  0  0  0
 14 15  1  0  0  0  0
 15 17  2  0  0  0  0
 15 16  1  0  0  0  0
 17 18  1  0  0  0  0
 19 20  1  0  0  0  0
 19 17  1  0  0  0  0
 21 19  2  0  0  0  0
 22 21  1  0  0  0  0
 23 21  1  0  0  0  0
 23 14  2  0  0  0  0
 24 23  1  0  0  0  0
 25 27  1  0  0  0  0
 25 31  1  0  0  0  0
 25 26  1  0  0  0  0
 27 28  1  0  0  0  0
 29 27  1  0  0  0  0
 30 27  1  0  0  0  0
 31 32  1  0  0  0  0
 33 31  1  0  0  0  0
 34 31  1  0  0  0  0
 35  1  1  0  0  0  0
 36 35  1  0  0  0  0
 37 35  1  0  0  0  0
 37 39  1  0  0  0  0
 37 40  1  0  0  0  0
 38 37  1  0  0  0  0
 41 35  1  0  0  0  0
 41 44  1  0  0  0  0
 41 43  1  0  0  0  0
 42 41  1  0  0  0  0
M  END
