1,11
 OpenBabel05122313063D

 50 51  0  0  0  0  0  0  0  0999 V2000
   -2.2178   -0.1009   -1.3839 N   0  0  0  0  0  0  0  0  0  0  0  0
   -1.7199   -0.7029   -2.6471 C   0  0  0  0  0  0  0  0  0  0  0  0
   -3.6925   -0.2881   -1.3383 C   0  0  0  0  0  0  0  0  0  0  0  0
   -2.0408    1.3149   -1.3011 N   0  0  0  0  0  0  0  0  0  0  0  0
   -0.8944    1.9027   -1.3716 C   0  0  0  0  0  0  0  0  0  0  0  0
   -0.9228    3.4332   -1.1952 C   0  0  0  0  0  0  0  0  0  0  0  0
   -0.0770    3.8125    0.0418 C   0  0  0  0  0  0  0  0  0  0  0  0
   -0.3323    4.0934   -2.4612 C   0  0  0  0  0  0  0  0  0  0  0  0
   -2.3592    3.9364   -0.9854 C   0  0  0  0  0  0  0  0  0  0  0  0
    0.4523    1.2462   -1.5523 C   0  0  0  0  0  0  0  0  0  0  0  0
    0.8244    0.0011   -0.1820 P   0  0  0  0  0  0  0  0  0  0  0  0
    1.8314    1.0124    0.9957 C   0  0  0  0  0  0  0  0  0  0  0  0
    3.0343    1.6158    0.5712 C   0  0  0  0  0  0  0  0  0  0  0  0
    3.7744    2.4134    1.4538 C   0  0  0  0  0  0  0  0  0  0  0  0
    3.3262    2.6064    2.7722 C   0  0  0  0  0  0  0  0  0  0  0  0
    2.1431    1.9902    3.2049 C   0  0  0  0  0  0  0  0  0  0  0  0
    1.3979    1.1928    2.3212 C   0  0  0  0  0  0  0  0  0  0  0  0
    2.1373   -1.0560   -0.9380 C   0  0  0  0  0  0  0  0  0  0  0  0
    2.7480   -0.8045   -2.1827 C   0  0  0  0  0  0  0  0  0  0  0  0
    3.7347   -1.6740   -2.6775 C   0  0  0  0  0  0  0  0  0  0  0  0
    4.1262   -2.7945   -1.9312 C   0  0  0  0  0  0  0  0  0  0  0  0
    3.5270   -3.0462   -0.6855 C   0  0  0  0  0  0  0  0  0  0  0  0
    2.5368   -2.1870   -0.1928 C   0  0  0  0  0  0  0  0  0  0  0  0
   -0.6275   -0.8510   -2.6334 H   0  0  0  0  0  0  0  0  0  0  0  0
   -2.0105   -0.0697   -3.5147 H   0  0  0  0  0  0  0  0  0  0  0  0
   -2.1805   -1.7009   -2.7536 H   0  0  0  0  0  0  0  0  0  0  0  0
   -3.9184   -1.3691   -1.3230 H   0  0  0  0  0  0  0  0  0  0  0  0
   -4.1671    0.1930   -2.2218 H   0  0  0  0  0  0  0  0  0  0  0  0
   -4.0799    0.1826   -0.4197 H   0  0  0  0  0  0  0  0  0  0  0  0
    0.9874    3.5214   -0.0551 H   0  0  0  0  0  0  0  0  0  0  0  0
   -0.4767    3.3356    0.9584 H   0  0  0  0  0  0  0  0  0  0  0  0
   -0.1077    4.9115    0.1866 H   0  0  0  0  0  0  0  0  0  0  0  0
    0.7196    3.7937   -2.6443 H   0  0  0  0  0  0  0  0  0  0  0  0
   -0.3455    5.1967   -2.3504 H   0  0  0  0  0  0  0  0  0  0  0  0
   -0.9271    3.8337   -3.3606 H   0  0  0  0  0  0  0  0  0  0  0  0
   -3.0094    3.6737   -1.8413 H   0  0  0  0  0  0  0  0  0  0  0  0
   -2.3512    5.0391   -0.8695 H   0  0  0  0  0  0  0  0  0  0  0  0
   -2.8086    3.4878   -0.0794 H   0  0  0  0  0  0  0  0  0  0  0  0
    0.4773    0.6783   -2.5008 H   0  0  0  0  0  0  0  0  0  0  0  0
    1.2626    1.9964   -1.5983 H   0  0  0  0  0  0  0  0  0  0  0  0
    3.4035    1.4510   -0.4537 H   0  0  0  0  0  0  0  0  0  0  0  0
    4.7108    2.8817    1.1142 H   0  0  0  0  0  0  0  0  0  0  0  0
    3.9088    3.2318    3.4656 H   0  0  0  0  0  0  0  0  0  0  0  0
    1.7937    2.1262    4.2394 H   0  0  0  0  0  0  0  0  0  0  0  0
    0.4753    0.7026    2.6609 H   0  0  0  0  0  0  0  0  0  0  0  0
    2.4659    0.0736   -2.7822 H   0  0  0  0  0  0  0  0  0  0  0  0
    4.2001   -1.4694   -3.6538 H   0  0  0  0  0  0  0  0  0  0  0  0
    4.8976   -3.4756   -2.3212 H   0  0  0  0  0  0  0  0  0  0  0  0
    3.8258   -3.9255   -0.0953 H   0  0  0  0  0  0  0  0  0  0  0  0
    2.0592   -2.3969    0.7768 H   0  0  0  0  0  0  0  0  0  0  0  0
  1  3  1  0  0  0  0
  1  4  1  0  0  0  0
  2 24  1  0  0  0  0
  2  1  1  0  0  0  0
  3 27  1  0  0  0  0
  3 29  1  0  0  0  0
  5  4  2  0  0  0  0
  5  6  1  0  0  0  0
  6  9  1  0  0  0  0
  6  7  1  0  0  0  0
  7 32  1  0  0  0  0
  7 31  1  0  0  0  0
  8 34  1  0  0  0  0
  8  6  1  0  0  0  0
  9 37  1  0  0  0  0
  9 38  1  0  0  0  0
 10  5  1  0  0  0  0
 10 11  1  0  0  0  0
 11 12  1  0  0  0  0
 12 17  1  0  0  0  0
 13 12  2  0  0  0  0
 13 14  1  0  0  0  0
 14 15  2  0  0  0  0
 15 16  1  0  0  0  0
 15 43  1  0  0  0  0
 16 44  1  0  0  0  0
 17 45  1  0  0  0  0
 17 16  2  0  0  0  0
 18 23  1  0  0  0  0
 18 11  1  0  0  0  0
 19 18  2  0  0  0  0
 20 19  1  0  0  0  0
 20 21  2  0  0  0  0
 21 22  1  0  0  0  0
 22 23  2  0  0  0  0
 22 49  1  0  0  0  0
 23 50  1  0  0  0  0
 25  2  1  0  0  0  0
 26  2  1  0  0  0  0
 28  3  1  0  0  0  0
 30  7  1  0  0  0  0
 33  8  1  0  0  0  0
 35  8  1  0  0  0  0
 36  9  1  0  0  0  0
 39 10  1  0  0  0  0
 40 10  1  0  0  0  0
 41 13  1  0  0  0  0
 42 14  1  0  0  0  0
 46 19  1  0  0  0  0
 47 20  1  0  0  0  0
 48 21  1  0  0  0  0
M  END
