26
 OpenBabel05122313063D

 62 66  0  0  1  0  0  0  0  0999 V2000
    0.1354    0.2819    0.4590 P   0  0  1  0  0  0  0  0  0  0  0  0
    0.6951   -0.1636    3.6984 N   0  0  1  0  0  0  0  0  0  0  0  0
   -0.0927   -1.3690    3.6016 C   0  0  0  0  0  0  0  0  0  0  0  0
   -1.1123   -1.1495    3.9831 H   0  0  0  0  0  0  0  0  0  0  0  0
    0.3197   -2.1723    4.2635 H   0  0  0  0  0  0  0  0  0  0  0  0
    1.7700   -0.0765    0.8501 N   0  0  0  0  0  0  0  0  0  0  0  0
   -0.1841   -1.9369    2.1757 C   0  0  0  0  0  0  0  0  0  0  0  0
    0.8334   -2.2529    1.8612 H   0  0  0  0  0  0  0  0  0  0  0  0
   -0.7985   -2.8627    2.1763 H   0  0  0  0  0  0  0  0  0  0  0  0
   -0.7369   -1.0226    1.1846 N   0  0  0  0  0  0  0  0  0  0  0  0
    2.0999   -0.2025    3.3639 C   0  0  0  0  0  0  0  0  0  0  0  0
    2.4224   -1.2651    3.3628 H   0  0  0  0  0  0  0  0  0  0  0  0
    2.7115    0.3013    4.1549 H   0  0  0  0  0  0  0  0  0  0  0  0
   -0.1802    1.6776    1.4712 N   0  0  0  0  0  0  0  0  0  0  0  0
    2.4616    0.4545    2.0171 C   0  0  0  0  0  0  0  0  0  0  0  0
    2.2370    1.5399    2.0897 H   0  0  0  0  0  0  0  0  0  0  0  0
    3.5558    0.3699    1.8429 H   0  0  0  0  0  0  0  0  0  0  0  0
    4.6888   -1.6986   -0.5655 N   0  0  0  0  0  0  0  0  0  0  0  0
    0.0328    1.1002    3.9017 C   0  0  0  0  0  0  0  0  0  0  0  0
    0.8102    1.8760    4.0676 H   0  0  0  0  0  0  0  0  0  0  0  0
   -0.5907    1.0757    4.8316 H   0  0  0  0  0  0  0  0  0  0  0  0
   -3.6853   -2.9863    0.2543 N   0  0  0  0  0  0  0  0  0  0  0  0
   -0.8821    1.5467    2.7467 C   0  0  0  0  0  0  0  0  0  0  0  0
   -1.7343    0.8328    2.6697 H   0  0  0  0  0  0  0  0  0  0  0  0
   -1.3327    2.5295    3.0037 H   0  0  0  0  0  0  0  0  0  0  0  0
   -1.9343    2.1102   -0.9906 N   0  0  0  0  0  2  0  0  0  0  0  0
    2.4126   -1.0918    0.0320 C   0  0  0  0  0  0  0  0  0  0  0  0
    1.7387   -1.2735   -0.8394 H   0  0  0  0  0  0  0  0  0  0  0  0
    2.5341   -2.0734    0.5478 H   0  0  0  0  0  0  0  0  0  0  0  0
    3.7795   -0.7075   -0.5066 C   0  0  0  0  0  0  0  0  0  0  0  0
    4.0530    0.6023   -0.9476 C   0  0  0  0  0  0  0  0  0  0  0  0
    3.2751    1.3745   -0.8784 H   0  0  0  0  0  0  0  0  0  0  0  0
    5.3167    0.8833   -1.4794 C   0  0  0  0  0  0  0  0  0  0  0  0
    5.5549    1.8950   -1.8421 H   0  0  0  0  0  0  0  0  0  0  0  0
    6.2658   -0.1482   -1.5492 C   0  0  0  0  0  0  0  0  0  0  0  0
    7.2724    0.0253   -1.9581 H   0  0  0  0  0  0  0  0  0  0  0  0
    5.8970   -1.4181   -1.0786 C   0  0  0  0  0  0  0  0  0  0  0  0
    6.6188   -2.2544   -1.1135 H   0  0  0  0  0  0  0  0  0  0  0  0
   -2.1207   -1.2038    0.7840 C   0  0  0  0  0  0  0  0  0  0  0  0
   -2.3545   -0.4015    0.0467 H   0  0  0  0  0  0  0  0  0  0  0  0
   -2.8405   -1.0762    1.6249 H   0  0  0  0  0  0  0  0  0  0  0  0
   -2.4236   -2.5358    0.1200 C   0  0  0  0  0  0  0  0  0  0  0  0
   -1.4460   -3.2232   -0.6252 C   0  0  0  0  0  0  0  0  0  0  0  0
   -0.4314   -2.8074   -0.7026 H   0  0  0  0  0  0  0  0  0  0  0  0
   -1.8016   -4.4170   -1.2635 C   0  0  0  0  0  0  0  0  0  0  0  0
   -1.0622   -4.9705   -1.8623 H   0  0  0  0  0  0  0  0  0  0  0  0
   -3.1165   -4.8874   -1.1319 C   0  0  0  0  0  0  0  0  0  0  0  0
   -3.4422   -5.8213   -1.6138 H   0  0  0  0  0  0  0  0  0  0  0  0
   -4.0151   -4.1317   -0.3619 C   0  0  0  0  0  0  0  0  0  0  0  0
   -5.0583   -4.4736   -0.2326 H   0  0  0  0  0  0  0  0  0  0  0  0
   -0.3948    2.9234    0.7319 C   0  0  0  0  0  0  0  0  0  0  0  0
    0.4004    3.0273   -0.0359 H   0  0  0  0  0  0  0  0  0  0  0  0
   -0.2948    3.7791    1.4309 H   0  0  0  0  0  0  0  0  0  0  0  0
   -1.7391    2.9880    0.0330 C   0  0  2  0  0  3  0  0  0  0  0  0
   -2.7504    3.8712    0.4443 C   0  0  0  0  0  0  0  0  0  0  0  0
   -2.5488    4.5683    1.2718 H   0  0  0  0  0  0  0  0  0  0  0  0
   -3.9948    3.8578   -0.1988 C   0  0  0  0  0  0  0  0  0  0  0  0
   -4.7969    4.5439    0.1117 H   0  0  0  0  0  0  0  0  0  0  0  0
   -4.1905    2.9452   -1.2462 C   0  0  0  0  0  0  0  0  0  0  0  0
   -5.1467    2.8850   -1.7853 H   0  0  0  0  0  0  0  0  0  0  0  0
   -3.1400    2.0964   -1.6062 C   0  0  0  0  0  0  0  0  0  0  0  0
   -3.2502    1.3663   -2.4221 H   0  0  0  0  0  0  0  0  0  0  0  0
  1  6  1  1  0  0  0
  1 10  1  0  0  0  0
  1 14  1  0  0  0  0
  2 11  1  6  0  0  0
  2 19  1  0  0  0  0
  3  2  1  0  0  0  0
  3  4  1  0  0  0  0
  3  5  1  0  0  0  0
  6 15  1  0  0  0  0
  7  9  1  0  0  0  0
  7  3  1  0  0  0  0
  8  7  1  0  0  0  0
 10  7  1  0  0  0  0
 11 13  1  0  0  0  0
 12 11  1  0  0  0  0
 14 23  1  0  0  0  0
 15 16  1  0  0  0  0
 15 11  1  0  0  0  0
 17 15  1  0  0  0  0
 18 30  1  0  0  0  0
 19 20  1  0  0  0  0
 19 21  1  0  0  0  0
 23 25  1  0  0  0  0
 23 19  1  0  0  0  0
 24 23  1  0  0  0  0
 26 54  1  0  0  0  0
 27 29  1  0  0  0  0
 27  6  1  0  0  0  0
 28 27  1  0  0  0  0
 30 27  1  0  0  0  0
 31 32  1  0  0  0  0
 31 30  2  0  0  0  0
 33 31  1  0  0  0  0
 34 33  1  0  0  0  0
 35 33  2  0  0  0  0
 35 37  1  0  0  0  0
 36 35  1  0  0  0  0
 37 18  2  0  0  0  0
 38 37  1  0  0  0  0
 39 10  1  0  0  0  0
 39 41  1  0  0  0  0
 40 39  1  0  0  0  0
 42 22  1  0  0  0  0
 42 39  1  0  0  0  0
 43 42  2  0  0  0  0
 44 43  1  0  0  0  0
 45 47  2  0  0  0  0
 45 43  1  0  0  0  0
 46 45  1  0  0  0  0
 47 49  1  0  0  0  0
 48 47  1  0  0  0  0
 49 50  1  0  0  0  0
 49 22  2  0  0  0  0
 51 53  1  0  0  0  0
 51 14  1  0  0  0  0
 52 51  1  0  0  0  0
 54 55  1  0  0  0  0
 54 51  1  1  0  0  0
 55 56  1  0  0  0  0
 57 58  1  0  0  0  0
 57 55  2  0  0  0  0
 59 57  1  0  0  0  0
 60 59  1  0  0  0  0
 61 59  2  0  0  0  0
 61 26  1  0  0  0  0
 62 61  1  0  0  0  0
M  END
