1,4
 OpenBabel05122313063D

 51 54  0  0  1  0  0  0  0  0999 V2000
   -0.9762   -0.7398   -0.1475 P   0  0  0  0  0  0  0  0  0  0  0  0
    1.9497    2.8297   -1.2344 O   0  0  0  0  0  0  0  0  0  0  0  0
   -1.0631    0.2630   -1.5105 O   0  0  0  0  0  0  0  0  0  0  0  0
    1.3046    1.1640    0.1259 N   0  0  0  0  0  2  0  0  0  0  0  0
   -0.3950   -2.1103   -1.0372 N   0  0  0  0  0  0  0  0  0  0  0  0
   -2.6480   -1.1523    0.0943 N   0  0  0  0  0  0  0  0  0  0  0  0
    0.9498    2.1324   -0.6660 C   0  0  1  0  0  3  0  0  0  0  0  0
    3.1947    2.2987   -0.6884 C   0  0  0  0  0  0  0  0  0  0  0  0
    3.6278    3.0765   -0.0280 H   0  0  0  0  0  0  0  0  0  0  0  0
    3.8801    2.1149   -1.5379 H   0  0  0  0  0  0  0  0  0  0  0  0
    2.7745    1.0227    0.0748 C   0  0  2  0  0  0  0  0  0  0  0  0
    3.1374    1.0379    1.1229 H   0  0  0  0  0  0  0  0  0  0  0  0
    3.1617   -0.3290   -0.5678 C   0  0  2  0  0  0  0  0  0  0  0  0
    2.6339   -1.0903    0.0514 H   0  0  0  0  0  0  0  0  0  0  0  0
    4.6733   -0.5736   -0.4161 C   0  0  0  0  0  0  0  0  0  0  0  0
    5.2333    0.1931   -1.0000 H   0  0  0  0  0  0  0  0  0  0  0  0
    4.9490   -0.4067    0.6480 H   0  0  0  0  0  0  0  0  0  0  0  0
    5.1287   -1.9698   -0.8438 C   0  0  0  0  0  0  0  0  0  0  0  0
    6.2064   -2.1213   -0.6345 H   0  0  0  0  0  0  0  0  0  0  0  0
    4.9744   -2.1439   -1.9276 H   0  0  0  0  0  0  0  0  0  0  0  0
    4.5656   -2.7558   -0.2988 H   0  0  0  0  0  0  0  0  0  0  0  0
    2.6609   -0.4719   -2.0083 C   0  0  0  0  0  0  0  0  0  0  0  0
    1.5808   -0.2408   -2.0868 H   0  0  0  0  0  0  0  0  0  0  0  0
    2.7848   -1.5106   -2.3704 H   0  0  0  0  0  0  0  0  0  0  0  0
    3.2105    0.1943   -2.7073 H   0  0  0  0  0  0  0  0  0  0  0  0
   -0.5827   -2.4222   -2.3860 C   0  0  0  0  0  0  0  0  0  0  0  0
   -1.1608   -1.7566   -3.0332 H   0  0  0  0  0  0  0  0  0  0  0  0
    0.1000   -3.5978   -2.6452 C   0  0  0  0  0  0  0  0  0  0  0  0
    0.1529   -4.0998   -3.6183 H   0  0  0  0  0  0  0  0  0  0  0  0
    0.7257   -4.0196   -1.4252 C   0  0  0  0  0  0  0  0  0  0  0  0
    1.3458   -4.9108   -1.2773 H   0  0  0  0  0  0  0  0  0  0  0  0
    0.4117   -3.0883   -0.4520 C   0  0  0  0  0  0  0  0  0  0  0  0
    0.6860   -3.0113    0.6061 H   0  0  0  0  0  0  0  0  0  0  0  0
   -3.4661   -0.4112    0.9550 C   0  0  0  0  0  0  0  0  0  0  0  0
   -3.0234    0.3255    1.6348 H   0  0  0  0  0  0  0  0  0  0  0  0
   -4.7745   -0.8024    0.7417 C   0  0  0  0  0  0  0  0  0  0  0  0
   -5.6497   -0.4186    1.2781 H   0  0  0  0  0  0  0  0  0  0  0  0
   -4.7638   -1.8064   -0.2834 C   0  0  0  0  0  0  0  0  0  0  0  0
   -5.6294   -2.3522   -0.6770 H   0  0  0  0  0  0  0  0  0  0  0  0
   -3.4503   -1.9996   -0.6727 C   0  0  0  0  0  0  0  0  0  0  0  0
   -3.0040   -2.6832   -1.4020 H   0  0  0  0  0  0  0  0  0  0  0  0
   -1.4056    1.5896   -1.3518 C   0  0  0  0  0  0  0  0  0  0  0  0
   -2.7218    1.9895   -1.6267 C   0  0  0  0  0  0  0  0  0  0  0  0
   -3.4626    1.2180   -1.8815 H   0  0  0  0  0  0  0  0  0  0  0  0
   -3.0573    3.3496   -1.5829 C   0  0  0  0  0  0  0  0  0  0  0  0
   -4.0909    3.6596   -1.7978 H   0  0  0  0  0  0  0  0  0  0  0  0
   -2.0813    4.3127   -1.2753 C   0  0  0  0  0  0  0  0  0  0  0  0
   -2.3448    5.3801   -1.2518 H   0  0  0  0  0  0  0  0  0  0  0  0
   -0.7704    3.9126   -0.9928 C   0  0  0  0  0  0  0  0  0  0  0  0
    0.0027    4.6538   -0.7448 H   0  0  0  0  0  0  0  0  0  0  0  0
   -0.4227    2.5454   -0.9962 C   0  0  0  0  0  0  0  0  0  0  0  0
  1  6  1  0  0  0  0
  2  8  1  0  0  0  0
  2  7  1  0  0  0  0
  3 42  1  0  0  0  0
  3  1  1  0  0  0  0
  5 32  1  0  0  0  0
  5  1  1  0  0  0  0
  6 34  1  0  0  0  0
  7 51  1  1  0  0  0
  7  4  1  0  0  0  0
  8  9  1  0  0  0  0
  8 11  1  0  0  0  0
 10  8  1  0  0  0  0
 11  4  1  0  0  0  0
 11 12  1  1  0  0  0
 13 15  1  0  0  0  0
 13 14  1  1  0  0  0
 13 11  1  0  0  0  0
 15 17  1  0  0  0  0
 16 15  1  0  0  0  0
 18 19  1  0  0  0  0
 18 15  1  0  0  0  0
 18 21  1  0  0  0  0
 20 18  1  0  0  0  0
 22 13  1  0  0  0  0
 23 22  1  0  0  0  0
 24 22  1  0  0  0  0
 25 22  1  0  0  0  0
 26  5  1  0  0  0  0
 27 26  1  0  0  0  0
 28 26  2  0  0  0  0
 28 30  1  0  0  0  0
 29 28  1  0  0  0  0
 30 31  1  0  0  0  0
 30 32  2  0  0  0  0
 32 33  1  0  0  0  0
 34 35  1  0  0  0  0
 36 34  2  0  0  0  0
 36 37  1  0  0  0  0
 38 36  1  0  0  0  0
 39 38  1  0  0  0  0
 40 38  2  0  0  0  0
 40  6  1  0  0  0  0
 41 40  1  0  0  0  0
 42 51  1  0  0  0  0
 43 45  1  0  0  0  0
 43 42  2  0  0  0  0
 44 43  1  0  0  0  0
 45 47  2  0  0  0  0
 46 45  1  0  0  0  0
 47 48  1  0  0  0  0
 47 49  1  0  0  0  0
 49 50  1  0  0  0  0
 51 49  2  0  0  0  0
M  END
