1,3
 OpenBabel05122313063D

 48 51  0  0  1  0  0  0  0  0999 V2000
   -1.2914    0.0230    0.1054 P   0  0  0  0  0  0  0  0  0  0  0  0
    2.0330   -2.1939   -1.9100 O   0  0  0  0  0  0  0  0  0  0  0  0
    1.4006   -0.2208   -1.0244 N   0  0  0  0  0  2  0  0  0  0  0  0
    1.0364   -1.3783   -1.5173 C   0  0  2  0  0  3  0  0  0  0  0  0
    3.2655   -1.4290   -1.7705 C   0  0  0  0  0  0  0  0  0  0  0  0
    3.5922   -1.1290   -2.7876 H   0  0  0  0  0  0  0  0  0  0  0  0
    4.0262   -2.0963   -1.3230 H   0  0  0  0  0  0  0  0  0  0  0  0
    2.8740   -0.2291   -0.8889 C   0  0  2  0  0  0  0  0  0  0  0  0
    3.2534    0.7296   -1.2943 H   0  0  0  0  0  0  0  0  0  0  0  0
    3.2809   -0.3127    0.6013 C   0  0  2  0  0  0  0  0  0  0  0  0
    2.7686    0.5556    1.0747 H   0  0  0  0  0  0  0  0  0  0  0  0
    4.7966   -0.0822    0.7390 C   0  0  0  0  0  0  0  0  0  0  0  0
    5.3469   -0.9113    0.2369 H   0  0  0  0  0  0  0  0  0  0  0  0
    5.0542    0.8422    0.1781 H   0  0  0  0  0  0  0  0  0  0  0  0
    5.2884    0.0524    2.1808 C   0  0  0  0  0  0  0  0  0  0  0  0
    6.3694    0.2947    2.2133 H   0  0  0  0  0  0  0  0  0  0  0  0
    5.1425   -0.8807    2.7615 H   0  0  0  0  0  0  0  0  0  0  0  0
    4.7476    0.8639    2.7107 H   0  0  0  0  0  0  0  0  0  0  0  0
    2.7867   -1.5911    1.2849 C   0  0  0  0  0  0  0  0  0  0  0  0
    1.6914   -1.7155    1.1734 H   0  0  0  0  0  0  0  0  0  0  0  0
    2.9871   -1.5641    2.3732 H   0  0  0  0  0  0  0  0  0  0  0  0
    3.2828   -2.4990    0.8804 H   0  0  0  0  0  0  0  0  0  0  0  0
   -0.3039   -1.8914   -1.6703 C   0  0  0  0  0  0  0  0  0  0  0  0
   -1.4138   -1.3136   -1.0483 N   0  0  0  0  0  0  0  0  0  0  0  0
   -0.7475   -2.9965   -2.4035 C   0  0  0  0  0  0  0  0  0  0  0  0
   -0.1029   -3.6455   -3.0056 H   0  0  0  0  0  0  0  0  0  0  0  0
   -2.1552   -3.0810   -2.2327 C   0  0  0  0  0  0  0  0  0  0  0  0
   -2.8303   -3.8155   -2.6852 H   0  0  0  0  0  0  0  0  0  0  0  0
   -2.5399   -2.0380   -1.3934 C   0  0  0  0  0  0  0  0  0  0  0  0
   -3.5262   -1.7440   -1.0164 H   0  0  0  0  0  0  0  0  0  0  0  0
   -1.0528   -0.9080    1.5607 N   0  0  0  0  0  0  0  0  0  0  0  0
   -1.3984   -2.2354    1.8301 C   0  0  0  0  0  0  0  0  0  0  0  0
   -1.8621   -2.8634    1.0626 H   0  0  0  0  0  0  0  0  0  0  0  0
   -1.0253   -2.5108    3.1340 C   0  0  0  0  0  0  0  0  0  0  0  0
   -1.1507   -3.4755    3.6393 H   0  0  0  0  0  0  0  0  0  0  0  0
   -0.4345   -1.3239    3.6817 C   0  0  0  0  0  0  0  0  0  0  0  0
   -0.0225   -1.1991    4.6894 H   0  0  0  0  0  0  0  0  0  0  0  0
   -0.4577   -0.3539    2.6968 C   0  0  0  0  0  0  0  0  0  0  0  0
   -0.0885    0.6777    2.6715 H   0  0  0  0  0  0  0  0  0  0  0  0
   -2.9677    0.4419    0.2375 N   0  0  0  0  0  0  0  0  0  0  0  0
   -3.9283   -0.1013    1.0974 C   0  0  0  0  0  0  0  0  0  0  0  0
   -3.6371   -0.7887    1.8981 H   0  0  0  0  0  0  0  0  0  0  0  0
   -5.1570    0.4205    0.7348 C   0  0  0  0  0  0  0  0  0  0  0  0
   -6.1086    0.2080    1.2356 H   0  0  0  0  0  0  0  0  0  0  0  0
   -4.9502    1.3008   -0.3791 C   0  0  0  0  0  0  0  0  0  0  0  0
   -5.7125    1.8864   -0.9052 H   0  0  0  0  0  0  0  0  0  0  0  0
   -3.5983    1.2996   -0.6676 C   0  0  0  0  0  0  0  0  0  0  0  0
   -3.0128    1.8256   -1.4299 H   0  0  0  0  0  0  0  0  0  0  0  0
  1 40  1  0  0  0  0
  1 31  1  0  0  0  0
  2  5  1  0  0  0  0
  2  4  1  0  0  0  0
  3  8  1  0  0  0  0
  4 23  1  1  0  0  0
  4  3  1  0  0  0  0
  5  7  1  0  0  0  0
  5  8  1  0  0  0  0
  6  5  1  0  0  0  0
  8  9  1  6  0  0  0
  8 10  1  0  0  0  0
 10 12  1  0  0  0  0
 10 11  1  1  0  0  0
 10 19  1  0  0  0  0
 12 15  1  0  0  0  0
 13 12  1  0  0  0  0
 14 12  1  0  0  0  0
 15 16  1  0  0  0  0
 15 18  1  0  0  0  0
 15 17  1  0  0  0  0
 19 21  1  0  0  0  0
 20 19  1  0  0  0  0
 22 19  1  0  0  0  0
 23 24  1  0  0  0  0
 24  1  1  0  0  0  0
 25 27  1  0  0  0  0
 25 23  2  0  0  0  0
 26 25  1  0  0  0  0
 27 29  2  0  0  0  0
 28 27  1  0  0  0  0
 29 24  1  0  0  0  0
 29 30  1  0  0  0  0
 31 32  1  0  0  0  0
 31 38  1  0  0  0  0
 32 34  2  0  0  0  0
 33 32  1  0  0  0  0
 34 35  1  0  0  0  0
 34 36  1  0  0  0  0
 36 37  1  0  0  0  0
 38 36  2  0  0  0  0
 39 38  1  0  0  0  0
 40 41  1  0  0  0  0
 41 42  1  0  0  0  0
 43 41  2  0  0  0  0
 43 44  1  0  0  0  0
 45 43  1  0  0  0  0
 46 45  1  0  0  0  0
 47 45  2  0  0  0  0
 47 40  1  0  0  0  0
 48 47  1  0  0  0  0
M  END
