1,3
 OpenBabel05122313063D

 42 44  0  0  1  0  0  0  0  0999 V2000
    0.0129    1.0302    0.0927 P   0  0  0  0  0  0  0  0  0  0  0  0
   -1.7434    0.9964    0.0065 N   0  0  0  0  0  0  0  0  0  0  0  0
   -1.6345   -1.2915    0.0274 N   0  0  0  0  0  2  0  0  0  0  0  0
    0.3626    1.9778    1.6054 C   0  0  0  0  0  0  0  0  0  0  0  0
    0.0632    3.3558    1.6966 C   0  0  0  0  0  0  0  0  0  0  0  0
    0.2756    4.0338    2.9049 C   0  0  0  0  0  0  0  0  0  0  0  0
    0.7856    3.3466    4.0196 C   0  0  0  0  0  0  0  0  0  0  0  0
    1.0780    1.9760    3.9324 C   0  0  0  0  0  0  0  0  0  0  0  0
    0.8641    1.2880    2.7294 C   0  0  0  0  0  0  0  0  0  0  0  0
    0.4877    2.0547   -1.3379 C   0  0  0  0  0  0  0  0  0  0  0  0
   -0.0800    1.7279   -2.5891 C   0  0  0  0  0  0  0  0  0  0  0  0
    0.3352    2.4048   -3.7426 C   0  0  0  0  0  0  0  0  0  0  0  0
    1.3241    3.4003   -3.6582 C   0  0  0  0  0  0  0  0  0  0  0  0
    1.8948    3.7220   -2.4170 C   0  0  0  0  0  0  0  0  0  0  0  0
    1.4814    3.0524   -1.2545 C   0  0  0  0  0  0  0  0  0  0  0  0
   -2.3875   -0.2163    0.0102 C   0  0  2  0  0  3  0  0  0  0  0  0
   -3.8619   -0.2425   -0.0185 C   0  0  0  0  0  0  0  0  0  0  0  0
   -4.5650   -1.3076    0.5900 C   0  0  0  0  0  0  0  0  0  0  0  0
   -5.9597   -1.3445    0.5508 C   0  0  0  0  0  0  0  0  0  0  0  0
   -6.7039   -0.3305   -0.0949 C   0  0  0  0  0  0  0  0  0  0  0  0
   -5.9933    0.7270   -0.7002 C   0  0  0  0  0  0  0  0  0  0  0  0
   -4.5957    0.7772   -0.6633 C   0  0  0  0  0  0  0  0  0  0  0  0
   -8.2062   -0.3868   -0.1263 C   0  0  0  0  0  0  0  0  0  0  0  0
   -2.2987    1.8389    0.1766 H   0  0  0  0  0  0  0  0  0  0  0  0
   -2.1003   -2.2003   -0.0672 H   0  0  0  0  0  0  0  0  0  0  0  0
   -0.3299    3.9032    0.8256 H   0  0  0  0  0  0  0  0  0  0  0  0
    0.0431    5.1067    2.9769 H   0  0  0  0  0  0  0  0  0  0  0  0
    0.9538    3.8848    4.9644 H   0  0  0  0  0  0  0  0  0  0  0  0
    1.4712    1.4375    4.8073 H   0  0  0  0  0  0  0  0  0  0  0  0
    1.0764    0.2102    2.6522 H   0  0  0  0  0  0  0  0  0  0  0  0
   -0.8427    0.9364   -2.6566 H   0  0  0  0  0  0  0  0  0  0  0  0
   -0.1117    2.1511   -4.7153 H   0  0  0  0  0  0  0  0  0  0  0  0
    1.6508    3.9283   -4.5664 H   0  0  0  0  0  0  0  0  0  0  0  0
    2.6661    4.5035   -2.3495 H   0  0  0  0  0  0  0  0  0  0  0  0
    1.9330    3.3101   -0.2852 H   0  0  0  0  0  0  0  0  0  0  0  0
   -4.0147   -2.0959    1.1261 H   0  0  0  0  0  0  0  0  0  0  0  0
   -6.4905   -2.1755    1.0402 H   0  0  0  0  0  0  0  0  0  0  0  0
   -6.5490    1.5220   -1.2203 H   0  0  0  0  0  0  0  0  0  0  0  0
   -4.0722    1.5975   -1.1786 H   0  0  0  0  0  0  0  0  0  0  0  0
   -8.6402    0.4575   -0.6937 H   0  0  0  0  0  0  0  0  0  0  0  0
   -8.6244   -0.3613    0.9015 H   0  0  0  0  0  0  0  0  0  0  0  0
   -8.5586   -1.3318   -0.5886 H   0  0  0  0  0  0  0  0  0  0  0  0
  1  4  1  0  0  0  0
  2 16  1  0  0  0  0
  2  1  1  0  0  0  0
  2 24  1  0  0  0  0
  4  5  2  0  0  0  0
  4  9  1  0  0  0  0
  5  6  1  0  0  0  0
  6 27  1  0  0  0  0
  6  7  2  0  0  0  0
  7 28  1  0  0  0  0
  8  7  1  0  0  0  0
  8 29  1  0  0  0  0
  9  8  2  0  0  0  0
 10 15  1  0  0  0  0
 10  1  1  0  0  0  0
 11 10  2  0  0  0  0
 12 13  2  0  0  0  0
 12 11  1  0  0  0  0
 13 14  1  0  0  0  0
 14 34  1  0  0  0  0
 14 15  2  0  0  0  0
 15 35  1  0  0  0  0
 16  3  1  6  0  0  0
 17 16  1  0  0  0  0
 17 18  1  0  0  0  0
 18 36  1  0  0  0  0
 19 18  2  0  0  0  0
 19 37  1  0  0  0  0
 20 19  1  0  0  0  0
 21 22  1  0  0  0  0
 21 20  2  0  0  0  0
 22 17  2  0  0  0  0
 23 20  1  0  0  0  0
 23 41  1  0  0  0  0
 25  3  1  0  0  0  0
 26  5  1  0  0  0  0
 30  9  1  0  0  0  0
 31 11  1  0  0  0  0
 32 12  1  0  0  0  0
 33 13  1  0  0  0  0
 38 21  1  0  0  0  0
 39 22  1  0  0  0  0
 40 23  1  0  0  0  0
 42 23  1  0  0  0  0
M  END
