1,2
 OpenBabel05122313063D

 73 75  0  0  0  0  0  0  0  0999 V2000
   -0.4277   -0.1938    0.2507 P   0  0  0  0  0  2  0  0  0  0  0  0
   -3.0367    0.6469   -0.1255 N   0  0  0  0  0  2  0  0  0  0  0  0
   -2.6737    2.9641   -0.4356 N   0  0  0  0  0  0  0  0  0  0  0  0
   -2.2024    1.6858   -0.2088 C   0  0  0  0  0  0  0  0  0  0  0  0
    1.3688   -0.4691    0.0983 C   0  0  0  0  0  0  0  0  0  0  0  0
    2.1990   -0.2172    1.2273 C   0  0  0  0  0  0  0  0  0  0  0  0
   -0.7532    1.4326   -0.1270 C   0  0  0  0  0  0  0  0  0  0  0  0
    1.7778   -0.2655    2.7203 C   0  0  0  0  0  0  0  0  0  0  0  0
    4.1312    0.0320   -0.2883 C   0  0  0  0  0  0  0  0  0  0  0  0
    3.3039   -0.3750   -1.3541 C   0  0  0  0  0  0  0  0  0  0  0  0
    3.7579   -0.4787   -2.3458 H   0  0  0  0  0  0  0  0  0  0  0  0
    1.9371   -0.6562   -1.2131 C   0  0  0  0  0  0  0  0  0  0  0  0
    0.7343   -2.6911   -2.0349 C   0  0  0  0  0  0  0  0  0  0  0  0
    1.6204   -3.3227   -1.8219 H   0  0  0  0  0  0  0  0  0  0  0  0
    0.1724   -3.1557   -2.8712 H   0  0  0  0  0  0  0  0  0  0  0  0
    0.0831   -2.7196   -1.1392 H   0  0  0  0  0  0  0  0  0  0  0  0
   -2.0070    4.2044   -0.0222 C   0  0  0  0  0  0  0  0  0  0  0  0
   -2.8164    4.8599    0.3688 H   0  0  0  0  0  0  0  0  0  0  0  0
   -1.5946    4.7381   -0.9123 H   0  0  0  0  0  0  0  0  0  0  0  0
   -4.4652    0.9140   -0.2461 C   0  0  0  0  0  0  0  0  0  0  0  0
   -4.8469    1.3441    0.7105 H   0  0  0  0  0  0  0  0  0  0  0  0
   -4.9777   -0.0556   -0.3983 H   0  0  0  0  0  0  0  0  0  0  0  0
    1.1708   -1.2590   -2.4239 C   0  0  0  0  0  0  0  0  0  0  0  0
   -4.6902    1.8948   -1.3931 C   0  0  0  0  0  0  0  0  0  0  0  0
   -4.2783    1.4549   -2.3253 H   0  0  0  0  0  0  0  0  0  0  0  0
   -5.7689    2.0825   -1.5631 H   0  0  0  0  0  0  0  0  0  0  0  0
    5.6024    0.3868   -0.5575 C   0  0  0  0  0  0  0  0  0  0  0  0
    3.5649    0.0539    0.9879 C   0  0  0  0  0  0  0  0  0  0  0  0
    4.2008    0.2898    1.8496 H   0  0  0  0  0  0  0  0  0  0  0  0
   -3.9884    3.1974   -1.0441 C   0  0  0  0  0  0  0  0  0  0  0  0
   -3.8515    3.8423   -1.9429 H   0  0  0  0  0  0  0  0  0  0  0  0
   -4.6069    3.7851   -0.3265 H   0  0  0  0  0  0  0  0  0  0  0  0
   -0.9309    4.0612    1.0543 C   0  0  0  0  0  0  0  0  0  0  0  0
   -1.2990    3.3533    1.8277 H   0  0  0  0  0  0  0  0  0  0  0  0
   -0.8197    5.0408    1.5622 H   0  0  0  0  0  0  0  0  0  0  0  0
    0.4230    3.5980    0.5082 C   0  0  0  0  0  0  0  0  0  0  0  0
    0.9581    4.4480    0.0336 H   0  0  0  0  0  0  0  0  0  0  0  0
    1.0631    3.2500    1.3445 H   0  0  0  0  0  0  0  0  0  0  0  0
    0.2593    2.4702   -0.5237 C   0  0  0  0  0  0  0  0  0  0  0  0
    1.2360    1.9870   -0.7201 H   0  0  0  0  0  0  0  0  0  0  0  0
   -0.0698    2.9063   -1.4938 H   0  0  0  0  0  0  0  0  0  0  0  0
    2.0805   -1.3735   -3.6662 C   0  0  0  0  0  0  0  0  0  0  0  0
    2.4208   -0.3839   -4.0346 H   0  0  0  0  0  0  0  0  0  0  0  0
    1.5066   -1.8527   -4.4833 H   0  0  0  0  0  0  0  0  0  0  0  0
    2.9709   -2.0059   -3.4803 H   0  0  0  0  0  0  0  0  0  0  0  0
   -0.0643   -0.4382   -2.8673 C   0  0  0  0  0  0  0  0  0  0  0  0
   -0.9207   -0.5305   -2.1720 H   0  0  0  0  0  0  0  0  0  0  0  0
   -0.4189   -0.8217   -3.8455 H   0  0  0  0  0  0  0  0  0  0  0  0
    0.1771    0.6374   -2.9875 H   0  0  0  0  0  0  0  0  0  0  0  0
    0.3327   -0.7166    2.9788 C   0  0  0  0  0  0  0  0  0  0  0  0
   -0.4147    0.0521    2.6924 H   0  0  0  0  0  0  0  0  0  0  0  0
    0.1910   -0.8796    4.0676 H   0  0  0  0  0  0  0  0  0  0  0  0
    0.0761   -1.6706    2.4713 H   0  0  0  0  0  0  0  0  0  0  0  0
    5.6549    1.5593   -1.5637 C   0  0  0  0  0  0  0  0  0  0  0  0
    5.1442    2.4549   -1.1553 H   0  0  0  0  0  0  0  0  0  0  0  0
    5.1664    1.2999   -2.5239 H   0  0  0  0  0  0  0  0  0  0  0  0
    6.7074    1.8329   -1.7837 H   0  0  0  0  0  0  0  0  0  0  0  0
    1.9812    1.1206    3.3714 C   0  0  0  0  0  0  0  0  0  0  0  0
    1.3110    1.8721    2.9068 H   0  0  0  0  0  0  0  0  0  0  0  0
    3.0229    1.4852    3.2725 H   0  0  0  0  0  0  0  0  0  0  0  0
    1.7392    1.0743    4.4528 H   0  0  0  0  0  0  0  0  0  0  0  0
    6.3231   -0.8428   -1.1562 C   0  0  0  0  0  0  0  0  0  0  0  0
    7.3871   -0.6039   -1.3608 H   0  0  0  0  0  0  0  0  0  0  0  0
    5.8626   -1.1680   -2.1100 H   0  0  0  0  0  0  0  0  0  0  0  0
    6.2906   -1.7011   -0.4553 H   0  0  0  0  0  0  0  0  0  0  0  0
    2.6871   -1.3099    3.4204 C   0  0  0  0  0  0  0  0  0  0  0  0
    2.4152   -1.3809    4.4931 H   0  0  0  0  0  0  0  0  0  0  0  0
    3.7616   -1.0499    3.3634 H   0  0  0  0  0  0  0  0  0  0  0  0
    2.5512   -2.3110    2.9650 H   0  0  0  0  0  0  0  0  0  0  0  0
    6.3413    0.8098    0.7235 C   0  0  0  0  0  0  0  0  0  0  0  0
    6.3700   -0.0065    1.4731 H   0  0  0  0  0  0  0  0  0  0  0  0
    5.8733    1.6971    1.1958 H   0  0  0  0  0  0  0  0  0  0  0  0
    7.3901    1.0744    0.4817 H   0  0  0  0  0  0  0  0  0  0  0  0
  3  4  1  0  0  0  0
  3 17  1  0  0  0  0
  4  7  2  0  0  0  0
  4  2  1  0  0  0  0
  5  1  1  0  0  0  0
  5  6  1  0  0  0  0
  6  8  1  0  0  0  0
  7  1  1  0  0  0  0
  8 50  1  0  0  0  0
  8 58  1  0  0  0  0
  8 66  1  0  0  0  0
  9 28  1  0  0  0  0
 10 12  1  0  0  0  0
 10  9  2  0  0  0  0
 11 10  1  0  0  0  0
 12  5  2  0  0  0  0
 13 14  1  0  0  0  0
 13 16  1  0  0  0  0
 15 13  1  0  0  0  0
 17 18  1  0  0  0  0
 17 33  1  0  0  0  0
 19 17  1  0  0  0  0
 20  2  1  0  0  0  0
 20 21  1  0  0  0  0
 22 20  1  0  0  0  0
 23 13  1  0  0  0  0
 23 12  1  0  0  0  0
 24 30  1  0  0  0  0
 24 20  1  0  0  0  0
 25 24  1  0  0  0  0
 26 24  1  0  0  0  0
 27  9  1  0  0  0  0
 27 70  1  0  0  0  0
 28  6  2  0  0  0  0
 28 29  1  0  0  0  0
 30  3  1  0  0  0  0
 30 32  1  0  0  0  0
 31 30  1  0  0  0  0
 33 35  1  0  0  0  0
 33 34  1  0  0  0  0
 36 33  1  0  0  0  0
 36 38  1  0  0  0  0
 37 36  1  0  0  0  0
 39  7  1  0  0  0  0
 39 36  1  0  0  0  0
 40 39  1  0  0  0  0
 41 39  1  0  0  0  0
 42 45  1  0  0  0  0
 42 23  1  0  0  0  0
 43 42  1  0  0  0  0
 44 42  1  0  0  0  0
 46 23  1  0  0  0  0
 46 47  1  0  0  0  0
 48 46  1  0  0  0  0
 49 46  1  0  0  0  0
 50 52  1  0  0  0  0
 51 50  1  0  0  0  0
 53 50  1  0  0  0  0
 54 55  1  0  0  0  0
 54 27  1  0  0  0  0
 56 54  1  0  0  0  0
 57 54  1  0  0  0  0
 58 61  1  0  0  0  0
 59 58  1  0  0  0  0
 60 58  1  0  0  0  0
 62 27  1  0  0  0  0
 62 65  1  0  0  0  0
 63 62  1  0  0  0  0
 64 62  1  0  0  0  0
 66 67  1  0  0  0  0
 68 66  1  0  0  0  0
 69 66  1  0  0  0  0
 70 72  1  0  0  0  0
 70 71  1  0  0  0  0
 73 70  1  0  0  0  0
M  END
