1,2
 OpenBabel05122313063D

 46 46  0  0  0  0  0  0  0  0999 V2000
    1.1012   -0.7596    0.0083 P   0  0  0  0  0  0  0  0  0  0  0  0
   -0.3308    1.9150    0.0244 N   0  0  0  0  0  0  0  0  0  0  0  0
   -0.9881    2.4495   -1.1713 C   0  0  0  0  0  0  0  0  0  0  0  0
   -0.9263    3.5636   -1.2449 H   0  0  0  0  0  0  0  0  0  0  0  0
   -2.0552    2.1490   -1.1535 H   0  0  0  0  0  0  0  0  0  0  0  0
   -0.5214    2.0146   -2.0767 H   0  0  0  0  0  0  0  0  0  0  0  0
   -0.9366    2.4149    1.2606 C   0  0  0  0  0  0  0  0  0  0  0  0
   -0.4419    1.9469    2.1333 H   0  0  0  0  0  0  0  0  0  0  0  0
   -2.0067    2.1250    1.2729 H   0  0  0  0  0  0  0  0  0  0  0  0
   -0.8619    3.5258    1.3667 H   0  0  0  0  0  0  0  0  0  0  0  0
    1.1081    2.0473   -0.0101 C   0  0  0  0  0  0  0  0  0  0  0  0
    1.6977    3.3276   -0.0420 C   0  0  0  0  0  0  0  0  0  0  0  0
    1.0487    4.2164   -0.0234 H   0  0  0  0  0  0  0  0  0  0  0  0
    3.0878    3.4823   -0.1024 C   0  0  0  0  0  0  0  0  0  0  0  0
    3.5291    4.4904   -0.1279 H   0  0  0  0  0  0  0  0  0  0  0  0
    3.9120    2.3469   -0.1352 C   0  0  0  0  0  0  0  0  0  0  0  0
    5.0058    2.4547   -0.1899 H   0  0  0  0  0  0  0  0  0  0  0  0
    3.3375    1.0697   -0.0969 C   0  0  0  0  0  0  0  0  0  0  0  0
    3.9957    0.1913   -0.1242 H   0  0  0  0  0  0  0  0  0  0  0  0
    1.9367    0.8929   -0.0292 C   0  0  0  0  0  0  0  0  0  0  0  0
    1.6905   -1.6763   -1.5620 C   0  0  0  0  0  0  0  0  0  0  0  0
    1.4837   -0.6587   -2.7006 C   0  0  0  0  0  0  0  0  0  0  0  0
    1.6319   -1.1638   -3.6784 H   0  0  0  0  0  0  0  0  0  0  0  0
    2.1905    0.1917   -2.6390 H   0  0  0  0  0  0  0  0  0  0  0  0
    0.4498   -0.2537   -2.6820 H   0  0  0  0  0  0  0  0  0  0  0  0
    0.7086   -2.8464   -1.7757 C   0  0  0  0  0  0  0  0  0  0  0  0
   -0.3423   -2.4941   -1.7209 H   0  0  0  0  0  0  0  0  0  0  0  0
    0.8345   -3.6460   -1.0216 H   0  0  0  0  0  0  0  0  0  0  0  0
    0.8836   -3.2958   -2.7765 H   0  0  0  0  0  0  0  0  0  0  0  0
    3.1336   -2.1945   -1.5603 C   0  0  0  0  0  0  0  0  0  0  0  0
    3.3017   -2.9556   -0.7733 H   0  0  0  0  0  0  0  0  0  0  0  0
    3.8768   -1.3840   -1.4317 H   0  0  0  0  0  0  0  0  0  0  0  0
    3.3490   -2.6809   -2.5361 H   0  0  0  0  0  0  0  0  0  0  0  0
    1.6839   -1.5610    1.6393 C   0  0  0  0  0  0  0  0  0  0  0  0
    0.9690   -0.7312    2.7247 C   0  0  0  0  0  0  0  0  0  0  0  0
    1.1694   -1.1721    3.7244 H   0  0  0  0  0  0  0  0  0  0  0  0
   -0.1292   -0.7212    2.5600 H   0  0  0  0  0  0  0  0  0  0  0  0
    1.3285    0.3181    2.7387 H   0  0  0  0  0  0  0  0  0  0  0  0
    3.1939   -1.5549    1.9099 C   0  0  0  0  0  0  0  0  0  0  0  0
    3.5919   -0.5259    1.9993 H   0  0  0  0  0  0  0  0  0  0  0  0
    3.7704   -2.0893    1.1313 H   0  0  0  0  0  0  0  0  0  0  0  0
    3.3906   -2.0667    2.8766 H   0  0  0  0  0  0  0  0  0  0  0  0
    1.1351   -2.9982    1.6626 C   0  0  0  0  0  0  0  0  0  0  0  0
    1.2480   -3.4200    2.6839 H   0  0  0  0  0  0  0  0  0  0  0  0
    1.6823   -3.6642    0.9666 H   0  0  0  0  0  0  0  0  0  0  0  0
    0.0581   -3.0194    1.3969 H   0  0  0  0  0  0  0  0  0  0  0  0
  1 34  1  0  0  0  0
  2  7  1  0  0  0  0
  3  5  1  0  0  0  0
  3  2  1  0  0  0  0
  4  3  1  0  0  0  0
  6  3  1  0  0  0  0
  7  9  1  0  0  0  0
  7 10  1  0  0  0  0
  7  8  1  0  0  0  0
 11  2  1  0  0  0  0
 12 13  1  0  0  0  0
 12 11  2  0  0  0  0
 14 12  1  0  0  0  0
 15 14  1  0  0  0  0
 16 14  2  0  0  0  0
 16 18  1  0  0  0  0
 17 16  1  0  0  0  0
 18 20  2  0  0  0  0
 19 18  1  0  0  0  0
 20 11  1  0  0  0  0
 20  1  1  0  0  0  0
 21 30  1  0  0  0  0
 21  1  1  0  0  0  0
 22 25  1  0  0  0  0
 22 24  1  0  0  0  0
 22 21  1  0  0  0  0
 23 22  1  0  0  0  0
 26 27  1  0  0  0  0
 26 21  1  0  0  0  0
 26 28  1  0  0  0  0
 29 26  1  0  0  0  0
 30 32  1  0  0  0  0
 30 31  1  0  0  0  0
 33 30  1  0  0  0  0
 34 43  1  0  0  0  0
 34 39  1  0  0  0  0
 34 35  1  0  0  0  0
 35 38  1  0  0  0  0
 35 36  1  0  0  0  0
 37 35  1  0  0  0  0
 39 40  1  0  0  0  0
 39 42  1  0  0  0  0
 41 39  1  0  0  0  0
 43 44  1  0  0  0  0
 45 43  1  0  0  0  0
 46 43  1  0  0  0  0
M  END
