1,7
 OpenBabel05122313063D

 72 76  0  0  1  0  0  0  0  0999 V2000
   -0.2861   -0.2280    0.1924 P   0  0  0  0  0  0  0  0  0  0  0  0
   -1.4110   -1.0365   -0.6586 O   0  0  0  0  0  0  0  0  0  0  0  0
   -1.0583    1.1509    0.6868 O   0  0  0  0  0  0  0  0  0  0  0  0
   -4.9540    3.9721   -2.0761 O   0  0  0  0  0  0  0  0  0  0  0  0
   -6.3488   -2.1407    1.6169 O   0  0  0  0  0  0  0  0  0  0  0  0
   -0.3557   -1.0131    1.6656 O   0  0  0  0  0  0  0  0  0  0  0  0
    2.1083    0.6667    1.5980 N   0  0  0  0  0  2  0  0  0  0  0  0
    1.5210    0.1998    2.7603 C   0  0  2  0  0  3  0  0  0  0  0  0
    0.3695   -0.6647    2.7704 C   0  0  0  0  0  0  0  0  0  0  0  0
   -0.1061   -1.1864    3.9729 C   0  0  0  0  0  0  0  0  0  0  0  0
   -0.9833   -1.8465    3.9182 H   0  0  0  0  0  0  0  0  0  0  0  0
    0.4834   -0.8500    5.2093 C   0  0  0  0  0  0  0  0  0  0  0  0
    0.0790   -1.2819    6.1363 H   0  0  0  0  0  0  0  0  0  0  0  0
    1.5337    0.0532    5.2503 C   0  0  0  0  0  0  0  0  0  0  0  0
    1.9746    0.3722    6.2060 H   0  0  0  0  0  0  0  0  0  0  0  0
    2.0514    0.6021    4.0457 C   0  0  0  0  0  0  0  0  0  0  0  0
    3.0834    1.5816    4.0700 C   0  0  0  0  0  0  0  0  0  0  0  0
    3.4852    1.9046    5.0425 H   0  0  0  0  0  0  0  0  0  0  0  0
    3.5489    2.1215    2.8871 C   0  0  0  0  0  0  0  0  0  0  0  0
    4.3249    2.8988    2.8653 H   0  0  0  0  0  0  0  0  0  0  0  0
    3.0505    1.6186    1.6660 C   0  0  0  0  0  0  0  0  0  0  0  0
    3.4593    1.9653    0.7075 H   0  0  0  0  0  0  0  0  0  0  0  0
   -2.0237    1.8347   -0.0527 C   0  0  0  0  0  0  0  0  0  0  0  0
   -1.7925    3.1930   -0.4072 C   0  0  0  0  0  0  0  0  0  0  0  0
   -2.8327    3.8505   -1.0790 C   0  0  0  0  0  0  0  0  0  0  0  0
   -2.7302    4.8957   -1.3931 H   0  0  0  0  0  0  0  0  0  0  0  0
   -4.0487    3.2134   -1.3980 C   0  0  0  0  0  0  0  0  0  0  0  0
   -4.2563    1.8818   -1.0144 C   0  0  0  0  0  0  0  0  0  0  0  0
   -5.1869    1.3535   -1.2556 H   0  0  0  0  0  0  0  0  0  0  0  0
   -3.2436    1.1773   -0.3243 C   0  0  0  0  0  0  0  0  0  0  0  0
   -3.5465   -0.2138    0.1206 C   0  0  0  0  0  0  0  0  0  0  0  0
   -2.6762   -1.2997   -0.1038 C   0  0  0  0  0  0  0  0  0  0  0  0
   -3.0449   -2.6513    0.1278 C   0  0  0  0  0  0  0  0  0  0  0  0
   -4.3051   -2.8547    0.7092 C   0  0  0  0  0  0  0  0  0  0  0  0
   -4.6661   -3.8648    0.9353 H   0  0  0  0  0  0  0  0  0  0  0  0
   -5.1735   -1.7890    1.0239 C   0  0  0  0  0  0  0  0  0  0  0  0
   -4.8084   -0.4742    0.7035 C   0  0  0  0  0  0  0  0  0  0  0  0
   -5.4736    0.3740    0.9075 H   0  0  0  0  0  0  0  0  0  0  0  0
   -0.4748    3.9318   -0.0857 C   0  0  0  0  0  0  0  0  0  0  0  0
   -0.5586    5.4241   -0.4626 C   0  0  0  0  0  0  0  0  0  0  0  0
    0.3963    5.9190   -0.1956 H   0  0  0  0  0  0  0  0  0  0  0  0
   -1.3709    5.9465    0.0818 H   0  0  0  0  0  0  0  0  0  0  0  0
   -0.7123    5.5738   -1.5497 H   0  0  0  0  0  0  0  0  0  0  0  0
    0.6754    3.3105   -0.9092 C   0  0  0  0  0  0  0  0  0  0  0  0
    1.6248    3.8478   -0.7047 H   0  0  0  0  0  0  0  0  0  0  0  0
    0.4704    3.3835   -1.9958 H   0  0  0  0  0  0  0  0  0  0  0  0
    0.8443    2.2402   -0.6786 H   0  0  0  0  0  0  0  0  0  0  0  0
   -0.1612    3.8611    1.4284 C   0  0  0  0  0  0  0  0  0  0  0  0
    0.7777    4.4134    1.6399 H   0  0  0  0  0  0  0  0  0  0  0  0
   -0.0375    2.8231    1.7828 H   0  0  0  0  0  0  0  0  0  0  0  0
   -0.9728    4.3326    2.0192 H   0  0  0  0  0  0  0  0  0  0  0  0
   -2.1768   -3.8467   -0.3273 C   0  0  0  0  0  0  0  0  0  0  0  0
   -2.8754   -5.1851   -0.0174 C   0  0  0  0  0  0  0  0  0  0  0  0
   -3.8586   -5.2711   -0.5219 H   0  0  0  0  0  0  0  0  0  0  0  0
   -3.0260   -5.3364    1.0709 H   0  0  0  0  0  0  0  0  0  0  0  0
   -2.2415   -6.0167   -0.3835 H   0  0  0  0  0  0  0  0  0  0  0  0
   -0.7993   -3.8732    0.3742 C   0  0  0  0  0  0  0  0  0  0  0  0
   -0.2767   -4.8164    0.1160 H   0  0  0  0  0  0  0  0  0  0  0  0
   -0.9056   -3.8306    1.4766 H   0  0  0  0  0  0  0  0  0  0  0  0
   -0.1427   -3.0459    0.0539 H   0  0  0  0  0  0  0  0  0  0  0  0
   -1.9772   -3.7576   -1.8604 C   0  0  0  0  0  0  0  0  0  0  0  0
   -2.9543   -3.7628   -2.3849 H   0  0  0  0  0  0  0  0  0  0  0  0
   -1.3949   -4.6342   -2.2113 H   0  0  0  0  0  0  0  0  0  0  0  0
   -1.4202   -2.8478   -2.1534 H   0  0  0  0  0  0  0  0  0  0  0  0
   -6.1871    3.3794   -2.4335 C   0  0  0  0  0  0  0  0  0  0  0  0
   -6.7625    4.1529   -2.9751 H   0  0  0  0  0  0  0  0  0  0  0  0
   -6.7684    3.0573   -1.5396 H   0  0  0  0  0  0  0  0  0  0  0  0
   -6.0470    2.4993   -3.1009 H   0  0  0  0  0  0  0  0  0  0  0  0
   -7.2702   -1.1159    1.9321 C   0  0  0  0  0  0  0  0  0  0  0  0
   -8.1408   -1.6092    2.4027 H   0  0  0  0  0  0  0  0  0  0  0  0
   -7.6127   -0.5704    1.0235 H   0  0  0  0  0  0  0  0  0  0  0  0
   -6.8426   -0.3773    2.6474 H   0  0  0  0  0  0  0  0  0  0  0  0
  1  3  1  0  0  0  0
  1  6  1  0  0  0  0
  2 32  1  0  0  0  0
  2  1  1  0  0  0  0
  4 27  1  0  0  0  0
  5 69  1  0  0  0  0
  6  9  1  0  0  0  0
  7 21  1  0  0  0  0
  8  7  1  6  0  0  0
  8  9  1  0  0  0  0
  8 16  1  0  0  0  0
  9 10  2  0  0  0  0
 10 12  1  0  0  0  0
 11 10  1  0  0  0  0
 12 14  2  0  0  0  0
 12 13  1  0  0  0  0
 14 15  1  0  0  0  0
 16 17  2  0  0  0  0
 16 14  1  0  0  0  0
 17 18  1  0  0  0  0
 19 17  1  0  0  0  0
 20 19  1  0  0  0  0
 21 19  2  0  0  0  0
 22 21  1  0  0  0  0
 23  3  1  0  0  0  0
 24 39  1  0  0  0  0
 24 23  2  0  0  0  0
 25 24  1  0  0  0  0
 26 25  1  0  0  0  0
 27 25  2  0  0  0  0
 27 28  1  0  0  0  0
 28 30  2  0  0  0  0
 29 28  1  0  0  0  0
 30 23  1  0  0  0  0
 30 31  1  0  0  0  0
 31 37  1  0  0  0  0
 32 31  2  0  0  0  0
 32 33  1  0  0  0  0
 33 34  2  0  0  0  0
 34 35  1  0  0  0  0
 34 36  1  0  0  0  0
 36  5  1  0  0  0  0
 37 38  1  0  0  0  0
 37 36  2  0  0  0  0
 39 48  1  0  0  0  0
 40 41  1  0  0  0  0
 40 39  1  0  0  0  0
 40 42  1  0  0  0  0
 43 40  1  0  0  0  0
 44 45  1  0  0  0  0
 44 47  1  0  0  0  0
 44 39  1  0  0  0  0
 46 44  1  0  0  0  0
 48 49  1  0  0  0  0
 48 50  1  0  0  0  0
 48 51  1  0  0  0  0
 52 53  1  0  0  0  0
 52 33  1  0  0  0  0
 52 57  1  0  0  0  0
 53 55  1  0  0  0  0
 54 53  1  0  0  0  0
 56 53  1  0  0  0  0
 57 59  1  0  0  0  0
 58 57  1  0  0  0  0
 60 57  1  0  0  0  0
 61 52  1  0  0  0  0
 62 61  1  0  0  0  0
 63 61  1  0  0  0  0
 64 61  1  0  0  0  0
 65  4  1  0  0  0  0
 65 67  1  0  0  0  0
 66 65  1  0  0  0  0
 68 65  1  0  0  0  0
 69 70  1  0  0  0  0
 69 72  1  0  0  0  0
 71 69  1  0  0  0  0
M  END
