1,2
 OpenBabel05122313063D

 43 45  0  0  1  0  0  0  0  0999 V2000
   -0.8649    0.2947    0.4074 P   0  0  0  0  0  0  0  0  0  0  0  0
    1.9499   -0.3410    0.3780 N   0  0  0  0  0  2  0  0  0  0  0  0
    2.0213    0.2727    1.5896 N   0  0  0  0  0  0  0  0  0  0  0  0
    2.9623    0.1317   -0.3777 C   0  0  2  0  0  3  0  0  0  0  0  0
    3.7034    1.0617    0.3925 C   0  0  0  0  0  0  0  0  0  0  0  0
    4.5967    1.6091    0.0759 H   0  0  0  0  0  0  0  0  0  0  0  0
    3.0778    1.1418    1.6386 C   0  0  0  0  0  0  0  0  0  0  0  0
    3.1451   -0.2970   -1.7933 C   0  0  0  0  0  0  0  0  0  0  0  0
    3.0528   -1.4008   -1.8623 H   0  0  0  0  0  0  0  0  0  0  0  0
    4.1272    0.0335   -2.1786 H   0  0  0  0  0  0  0  0  0  0  0  0
    2.3487    0.1401   -2.4318 H   0  0  0  0  0  0  0  0  0  0  0  0
    3.4090    1.9501    2.8493 C   0  0  0  0  0  0  0  0  0  0  0  0
    3.6386    1.3110    3.7276 H   0  0  0  0  0  0  0  0  0  0  0  0
    2.5820    2.6320    3.1397 H   0  0  0  0  0  0  0  0  0  0  0  0
    4.3000    2.5723    2.6477 H   0  0  0  0  0  0  0  0  0  0  0  0
    0.9613    0.0461    2.5575 C   0  0  0  0  0  0  0  0  0  0  0  0
    1.3134    0.4181    3.5385 H   0  0  0  0  0  0  0  0  0  0  0  0
    0.8168   -1.0510    2.6364 H   0  0  0  0  0  0  0  0  0  0  0  0
   -0.3640    0.7171    2.1594 C   0  0  0  0  0  0  0  0  0  0  0  0
   -0.3410    1.8167    2.3033 H   0  0  0  0  0  0  0  0  0  0  0  0
   -1.1767    0.3216    2.8006 H   0  0  0  0  0  0  0  0  0  0  0  0
   -2.6884    0.4136    0.4547 C   0  0  0  0  0  0  0  0  0  0  0  0
   -3.3470    1.6194    0.1386 C   0  0  0  0  0  0  0  0  0  0  0  0
   -2.7684    2.4927   -0.1986 H   0  0  0  0  0  0  0  0  0  0  0  0
   -4.7432    1.7009    0.2494 C   0  0  0  0  0  0  0  0  0  0  0  0
   -5.2559    2.6424    0.0006 H   0  0  0  0  0  0  0  0  0  0  0  0
   -5.4820    0.5846    0.6729 C   0  0  0  0  0  0  0  0  0  0  0  0
   -6.5778    0.6497    0.7543 H   0  0  0  0  0  0  0  0  0  0  0  0
   -4.8254   -0.6179    0.9812 C   0  0  0  0  0  0  0  0  0  0  0  0
   -5.4047   -1.4990    1.2956 H   0  0  0  0  0  0  0  0  0  0  0  0
   -3.4308   -0.7124    0.8690 C   0  0  0  0  0  0  0  0  0  0  0  0
   -2.9144   -1.6657    1.0552 H   0  0  0  0  0  0  0  0  0  0  0  0
   -0.3112    1.6774   -0.6627 C   0  0  0  0  0  0  0  0  0  0  0  0
    0.4197    2.7913   -0.2107 C   0  0  0  0  0  0  0  0  0  0  0  0
    0.6393    2.9235    0.8585 H   0  0  0  0  0  0  0  0  0  0  0  0
    0.8938    3.7436   -1.1280 C   0  0  0  0  0  0  0  0  0  0  0  0
    1.4721    4.6069   -0.7656 H   0  0  0  0  0  0  0  0  0  0  0  0
    0.6351    3.5936   -2.4978 C   0  0  0  0  0  0  0  0  0  0  0  0
    1.0088    4.3404   -3.2145 H   0  0  0  0  0  0  0  0  0  0  0  0
   -0.0954    2.4823   -2.9548 C   0  0  0  0  0  0  0  0  0  0  0  0
   -0.2946    2.3550   -4.0294 H   0  0  0  0  0  0  0  0  0  0  0  0
   -0.5582    1.5226   -2.0463 C   0  0  0  0  0  0  0  0  0  0  0  0
   -1.1007    0.6329   -2.4049 H   0  0  0  0  0  0  0  0  0  0  0  0
  1 22  1  0  0  0  0
  1 19  1  0  0  0  0
  2  3  1  0  0  0  0
  3  7  1  0  0  0  0
  3 16  1  0  0  0  0
  4  8  1  6  0  0  0
  4  2  1  0  0  0  0
  4  5  1  0  0  0  0
  5  7  2  0  0  0  0
  6  5  1  0  0  0  0
  7 12  1  0  0  0  0
  9  8  1  0  0  0  0
 10  8  1  0  0  0  0
 11  8  1  0  0  0  0
 12 14  1  0  0  0  0
 12 13  1  0  0  0  0
 15 12  1  0  0  0  0
 16 18  1  0  0  0  0
 16 17  1  0  0  0  0
 19 20  1  0  0  0  0
 19 16  1  0  0  0  0
 19 21  1  0  0  0  0
 22 31  1  0  0  0  0
 23 25  1  0  0  0  0
 23 22  2  0  0  0  0
 24 23  1  0  0  0  0
 25 27  2  0  0  0  0
 26 25  1  0  0  0  0
 27 28  1  0  0  0  0
 27 29  1  0  0  0  0
 29 30  1  0  0  0  0
 31 29  2  0  0  0  0
 31 32  1  0  0  0  0
 33 34  1  0  0  0  0
 33  1  1  0  0  0  0
 34 35  1  0  0  0  0
 36 37  1  0  0  0  0
 36 34  2  0  0  0  0
 38 36  1  0  0  0  0
 39 38  1  0  0  0  0
 40 38  2  0  0  0  0
 40 42  1  0  0  0  0
 41 40  1  0  0  0  0
 42 33  2  0  0  0  0
 43 42  1  0  0  0  0
M  END
