1,2
 OpenBabel05122313063D

 46 48  0  0  1  0  0  0  0  0999 V2000
    0.8537    0.0297   -0.4296 P   0  0  0  0  0  0  0  0  0  0  0  0
   -2.2317   -0.1017   -0.2150 N   0  0  0  0  0  2  0  0  0  0  0  0
   -2.5463    0.9582   -1.0058 N   0  0  0  0  0  0  0  0  0  0  0  0
   -3.1129   -1.0869   -0.4788 C   0  0  2  0  0  3  0  0  0  0  0  0
   -4.0070   -0.6353   -1.4806 C   0  0  0  0  0  0  0  0  0  0  0  0
   -4.8502   -1.1894   -1.9051 H   0  0  0  0  0  0  0  0  0  0  0  0
   -3.6199    0.6681   -1.8031 C   0  0  0  0  0  0  0  0  0  0  0  0
   -3.0670   -2.3845    0.2547 C   0  0  0  0  0  0  0  0  0  0  0  0
   -2.0853   -2.8822    0.1159 H   0  0  0  0  0  0  0  0  0  0  0  0
   -3.8663   -3.0625   -0.0961 H   0  0  0  0  0  0  0  0  0  0  0  0
   -3.1792   -2.1912    1.3423 H   0  0  0  0  0  0  0  0  0  0  0  0
   -4.1870    1.6471   -2.7771 C   0  0  0  0  0  0  0  0  0  0  0  0
   -4.5361    2.5732   -2.2742 H   0  0  0  0  0  0  0  0  0  0  0  0
   -5.0547    1.1991   -3.2944 H   0  0  0  0  0  0  0  0  0  0  0  0
   -3.4500    1.9465   -3.5514 H   0  0  0  0  0  0  0  0  0  0  0  0
   -1.6579    2.1071   -1.0545 C   0  0  0  0  0  0  0  0  0  0  0  0
   -1.2651    2.2349   -0.0244 H   0  0  0  0  0  0  0  0  0  0  0  0
   -2.2621    3.0032   -1.2940 H   0  0  0  0  0  0  0  0  0  0  0  0
   -0.5121    1.9348   -2.0687 C   0  0  0  0  0  0  0  0  0  0  0  0
    0.1458    0.5472   -2.0727 C   0  0  0  0  0  0  0  0  0  0  0  0
    0.9649    0.5339   -2.8204 H   0  0  0  0  0  0  0  0  0  0  0  0
   -0.5879   -0.2344   -2.3622 H   0  0  0  0  0  0  0  0  0  0  0  0
    2.2078    1.2507   -0.2156 C   0  0  0  0  0  0  0  0  0  0  0  0
    3.3946    1.1361   -0.9670 C   0  0  0  0  0  0  0  0  0  0  0  0
    3.5520    0.2622   -1.6189 H   0  0  0  0  0  0  0  0  0  0  0  0
    4.3836    2.1262   -0.8696 C   0  0  0  0  0  0  0  0  0  0  0  0
    5.3130    2.0291   -1.4511 H   0  0  0  0  0  0  0  0  0  0  0  0
    4.1913    3.2320   -0.0255 C   0  0  0  0  0  0  0  0  0  0  0  0
    4.9705    4.0054    0.0534 H   0  0  0  0  0  0  0  0  0  0  0  0
    3.0121    3.3436    0.7284 C   0  0  0  0  0  0  0  0  0  0  0  0
    2.8668    4.1996    1.4044 H   0  0  0  0  0  0  0  0  0  0  0  0
    2.0220    2.3534    0.6415 C   0  0  0  0  0  0  0  0  0  0  0  0
    1.1161    2.4089    1.2638 H   0  0  0  0  0  0  0  0  0  0  0  0
    1.6776   -1.5747   -0.7679 C   0  0  0  0  0  0  0  0  0  0  0  0
    1.7682   -2.1369   -2.0584 C   0  0  0  0  0  0  0  0  0  0  0  0
    1.3426   -1.6212   -2.9309 H   0  0  0  0  0  0  0  0  0  0  0  0
    2.4058   -3.3742   -2.2436 C   0  0  0  0  0  0  0  0  0  0  0  0
    2.4704   -3.8070   -3.2535 H   0  0  0  0  0  0  0  0  0  0  0  0
    2.9571   -4.0546   -1.1477 C   0  0  0  0  0  0  0  0  0  0  0  0
    3.4562   -5.0243   -1.2961 H   0  0  0  0  0  0  0  0  0  0  0  0
    2.8633   -3.4987    0.1394 C   0  0  0  0  0  0  0  0  0  0  0  0
    3.2857   -4.0325    1.0042 H   0  0  0  0  0  0  0  0  0  0  0  0
    2.2226   -2.2685    0.3358 C   0  0  0  0  0  0  0  0  0  0  0  0
    2.1215   -1.8338    1.3449 H   0  0  0  0  0  0  0  0  0  0  0  0
   -0.8908    2.1335   -3.0938 H   0  0  0  0  0  0  0  0  0  0  0  0
    0.2478    2.7172   -1.8595 H   0  0  0  0  0  0  0  0  0  0  0  0
  1 23  1  0  0  0  0
  3  2  1  0  0  0  0
  4  2  1  0  0  0  0
  4  8  1  1  0  0  0
  5  4  1  0  0  0  0
  6  5  1  0  0  0  0
  7  5  2  0  0  0  0
  7  3  1  0  0  0  0
  8 11  1  0  0  0  0
  9  8  1  0  0  0  0
 10  8  1  0  0  0  0
 12 13  1  0  0  0  0
 12  7  1  0  0  0  0
 14 12  1  0  0  0  0
 15 12  1  0  0  0  0
 16  3  1  0  0  0  0
 16 17  1  0  0  0  0
 18 16  1  0  0  0  0
 19 46  1  0  0  0  0
 19 16  1  0  0  0  0
 20 19  1  0  0  0  0
 20  1  1  0  0  0  0
 21 20  1  0  0  0  0
 22 20  1  0  0  0  0
 23 32  1  0  0  0  0
 24 26  1  0  0  0  0
 24 23  2  0  0  0  0
 25 24  1  0  0  0  0
 26 28  2  0  0  0  0
 27 26  1  0  0  0  0
 28 29  1  0  0  0  0
 28 30  1  0  0  0  0
 30 31  1  0  0  0  0
 32 30  2  0  0  0  0
 32 33  1  0  0  0  0
 34  1  1  0  0  0  0
 34 43  1  0  0  0  0
 35 34  2  0  0  0  0
 36 35  1  0  0  0  0
 37 35  1  0  0  0  0
 37 39  2  0  0  0  0
 38 37  1  0  0  0  0
 39 41  1  0  0  0  0
 40 39  1  0  0  0  0
 41 43  2  0  0  0  0
 41 42  1  0  0  0  0
 43 44  1  0  0  0  0
 45 19  1  0  0  0  0
M  END
