1,2
 OpenBabel05122313063D

 37 39  0  0  1  0  0  0  0  0999 V2000
   -1.3492   -0.1914   -0.7704 P   0  0  0  0  0  0  0  0  0  0  0  0
    0.7753   -2.1335   -0.7945 N   0  0  0  0  0  2  0  0  0  0  0  0
    1.9080   -3.6195    0.6280 O   0  0  0  0  0  0  0  0  0  0  0  0
    1.7208   -2.9109    1.3421 H   0  0  0  0  0  0  0  0  0  0  0  0
    1.4486   -3.3041   -0.5632 C   0  0  2  0  0  3  0  0  0  0  0  0
    1.7109   -4.2354   -1.6020 C   0  0  0  0  0  0  0  0  0  0  0  0
    2.2541   -5.1489   -1.3270 H   0  0  0  0  0  0  0  0  0  0  0  0
    1.2837   -3.9701   -2.8930 C   0  0  0  0  0  0  0  0  0  0  0  0
    1.4800   -4.6836   -3.7072 H   0  0  0  0  0  0  0  0  0  0  0  0
    0.5843   -2.7757   -3.1369 C   0  0  0  0  0  0  0  0  0  0  0  0
    0.2091   -2.5270   -4.1385 H   0  0  0  0  0  0  0  0  0  0  0  0
    0.3451   -1.8913   -2.0818 C   0  0  0  0  0  0  0  0  0  0  0  0
   -0.4397   -0.6352   -2.3302 C   0  0  0  0  0  0  0  0  0  0  0  0
   -1.0927   -0.7473   -3.2173 H   0  0  0  0  0  0  0  0  0  0  0  0
    0.2426    0.2238   -2.5085 H   0  0  0  0  0  0  0  0  0  0  0  0
   -2.9322   -1.1339   -0.9068 C   0  0  0  0  0  0  0  0  0  0  0  0
   -2.8795   -2.5106   -1.2146 C   0  0  0  0  0  0  0  0  0  0  0  0
   -1.9123   -3.0077   -1.3704 H   0  0  0  0  0  0  0  0  0  0  0  0
   -4.0607   -3.2592   -1.3002 C   0  0  0  0  0  0  0  0  0  0  0  0
   -4.0063   -4.3312   -1.5429 H   0  0  0  0  0  0  0  0  0  0  0  0
   -5.3031   -2.6524   -1.0555 C   0  0  0  0  0  0  0  0  0  0  0  0
   -6.2285   -3.2455   -1.1133 H   0  0  0  0  0  0  0  0  0  0  0  0
   -5.3591   -1.2896   -0.7284 C   0  0  0  0  0  0  0  0  0  0  0  0
   -6.3281   -0.8072   -0.5289 H   0  0  0  0  0  0  0  0  0  0  0  0
   -4.1802   -0.5315   -0.6559 C   0  0  0  0  0  0  0  0  0  0  0  0
   -4.2376    0.5374   -0.4052 H   0  0  0  0  0  0  0  0  0  0  0  0
   -1.9326    1.5343   -1.0576 C   0  0  0  0  0  0  0  0  0  0  0  0
   -2.0720    2.0544   -2.3602 C   0  0  0  0  0  0  0  0  0  0  0  0
   -1.7687    1.4604   -3.2338 H   0  0  0  0  0  0  0  0  0  0  0  0
   -2.6031    3.3370   -2.5604 C   0  0  0  0  0  0  0  0  0  0  0  0
   -2.6969    3.7321   -3.5833 H   0  0  0  0  0  0  0  0  0  0  0  0
   -3.0173    4.1111   -1.4655 C   0  0  0  0  0  0  0  0  0  0  0  0
   -3.4423    5.1135   -1.6268 H   0  0  0  0  0  0  0  0  0  0  0  0
   -2.8832    3.6007   -0.1654 C   0  0  0  0  0  0  0  0  0  0  0  0
   -3.1998    4.1980    0.7032 H   0  0  0  0  0  0  0  0  0  0  0  0
   -2.3381    2.3247    0.0380 C   0  0  0  0  0  0  0  0  0  0  0  0
   -2.2295    1.9449    1.0607 H   0  0  0  0  0  0  0  0  0  0  0  0
  2  5  1  0  0  0  0
  3  4  1  0  0  0  0
  5  3  1  6  0  0  0
  6  7  1  0  0  0  0
  6  5  1  0  0  0  0
  8  6  2  0  0  0  0
  9  8  1  0  0  0  0
 10  8  1  0  0  0  0
 10 12  2  0  0  0  0
 11 10  1  0  0  0  0
 12  2  1  0  0  0  0
 13 12  1  0  0  0  0
 13  1  1  0  0  0  0
 14 13  1  0  0  0  0
 15 13  1  0  0  0  0
 16  1  1  0  0  0  0
 16 25  1  0  0  0  0
 17 16  2  0  0  0  0
 18 17  1  0  0  0  0
 19 17  1  0  0  0  0
 19 21  2  0  0  0  0
 20 19  1  0  0  0  0
 21 23  1  0  0  0  0
 22 21  1  0  0  0  0
 23 25  2  0  0  0  0
 23 24  1  0  0  0  0
 25 26  1  0  0  0  0
 27  1  1  0  0  0  0
 27 36  1  0  0  0  0
 28 27  2  0  0  0  0
 29 28  1  0  0  0  0
 30 28  1  0  0  0  0
 30 32  2  0  0  0  0
 31 30  1  0  0  0  0
 32 34  1  0  0  0  0
 33 32  1  0  0  0  0
 34 36  2  0  0  0  0
 34 35  1  0  0  0  0
 36 37  1  0  0  0  0
M  END
