1,2
 OpenBabel05122313063D

 42 45  0  0  1  0  0  0  0  0999 V2000
    0.2822    1.0926   -0.4904 P   0  0  0  0  0  0  0  0  0  0  0  0
    1.7825   -1.7117   -0.6607 N   0  0  0  0  0  2  0  0  0  0  0  0
    1.8749   -3.0166   -0.3729 C   0  0  0  0  0  0  0  0  0  0  0  0
    0.9328   -3.5847   -0.3960 H   0  0  0  0  0  0  0  0  0  0  0  0
    3.0819   -3.6638   -0.0282 C   0  0  0  0  0  0  0  0  0  0  0  0
    3.0760   -4.7407    0.1894 H   0  0  0  0  0  0  0  0  0  0  0  0
    4.2352   -2.9053    0.0589 C   0  0  0  0  0  0  0  0  0  0  0  0
    5.1923   -3.3546    0.3654 H   0  0  0  0  0  0  0  0  0  0  0  0
    4.1928   -1.5218   -0.2633 C   0  0  0  0  0  0  0  0  0  0  0  0
    5.3659   -0.7178   -0.1970 C   0  0  0  0  0  0  0  0  0  0  0  0
    6.3076   -1.1830    0.1307 H   0  0  0  0  0  0  0  0  0  0  0  0
    5.3131    0.6181   -0.5496 C   0  0  0  0  0  0  0  0  0  0  0  0
    6.2125    1.2484   -0.4959 H   0  0  0  0  0  0  0  0  0  0  0  0
    4.0964    1.1711   -1.0155 C   0  0  0  0  0  0  0  0  0  0  0  0
    4.0785    2.2237   -1.3368 H   0  0  0  0  0  0  0  0  0  0  0  0
    2.9197    0.4273   -1.1108 C   0  0  0  0  0  0  0  0  0  0  0  0
    2.9326   -0.9444   -0.6770 C   0  0  1  0  0  3  0  0  0  0  0  0
    1.7003    1.0914   -1.6909 C   0  0  0  0  0  0  0  0  0  0  0  0
    1.9322    2.1340   -1.9831 H   0  0  0  0  0  0  0  0  0  0  0  0
    1.3362    0.5542   -2.5916 H   0  0  0  0  0  0  0  0  0  0  0  0
    0.9811    1.7759    1.0497 C   0  0  0  0  0  0  0  0  0  0  0  0
    1.0778    0.9505    2.1875 C   0  0  0  0  0  0  0  0  0  0  0  0
    0.6753   -0.0746    2.1457 H   0  0  0  0  0  0  0  0  0  0  0  0
    1.6839    1.4360    3.3563 C   0  0  0  0  0  0  0  0  0  0  0  0
    1.7559    0.7907    4.2443 H   0  0  0  0  0  0  0  0  0  0  0  0
    2.1957    2.7422    3.3903 C   0  0  0  0  0  0  0  0  0  0  0  0
    2.6700    3.1229    4.3072 H   0  0  0  0  0  0  0  0  0  0  0  0
    2.1030    3.5673    2.2561 C   0  0  0  0  0  0  0  0  0  0  0  0
    2.5044    4.5913    2.2846 H   0  0  0  0  0  0  0  0  0  0  0  0
    1.4984    3.0891    1.0857 C   0  0  0  0  0  0  0  0  0  0  0  0
    1.4235    3.7418    0.2019 H   0  0  0  0  0  0  0  0  0  0  0  0
   -0.9196    2.3086   -1.1274 C   0  0  0  0  0  0  0  0  0  0  0  0
   -1.5620    3.2220   -0.2661 C   0  0  0  0  0  0  0  0  0  0  0  0
   -1.2847    3.2694    0.7972 H   0  0  0  0  0  0  0  0  0  0  0  0
   -2.5560    4.0768   -0.7671 C   0  0  0  0  0  0  0  0  0  0  0  0
   -3.0516    4.7888   -0.0905 H   0  0  0  0  0  0  0  0  0  0  0  0
   -2.9134    4.0275   -2.1232 C   0  0  0  0  0  0  0  0  0  0  0  0
   -3.6907    4.7014   -2.5130 H   0  0  0  0  0  0  0  0  0  0  0  0
   -2.2783    3.1158   -2.9835 C   0  0  0  0  0  0  0  0  0  0  0  0
   -2.5567    3.0736   -4.0470 H   0  0  0  0  0  0  0  0  0  0  0  0
   -1.2910    2.2530   -2.4889 C   0  0  0  0  0  0  0  0  0  0  0  0
   -0.8167    1.5272   -3.1678 H   0  0  0  0  0  0  0  0  0  0  0  0
  1 21  1  0  0  0  0
  2  3  1  0  0  0  0
  3  5  2  0  0  0  0
  4  3  1  0  0  0  0
  5  7  1  0  0  0  0
  5  6  1  0  0  0  0
  7  8  1  0  0  0  0
  9 10  1  0  0  0  0
  9  7  2  0  0  0  0
 10 11  1  0  0  0  0
 12 13  1  0  0  0  0
 12 10  2  0  0  0  0
 14 12  1  0  0  0  0
 15 14  1  0  0  0  0
 16 14  2  0  0  0  0
 17 16  1  6  0  0  0
 17  2  1  0  0  0  0
 17  9  1  0  0  0  0
 18 16  1  0  0  0  0
 18  1  1  0  0  0  0
 19 18  1  0  0  0  0
 20 18  1  0  0  0  0
 21 30  2  0  0  0  0
 21 22  1  0  0  0  0
 22 24  2  0  0  0  0
 23 22  1  0  0  0  0
 24 26  1  0  0  0  0
 24 25  1  0  0  0  0
 26 27  1  0  0  0  0
 28 29  1  0  0  0  0
 28 26  2  0  0  0  0
 30 28  1  0  0  0  0
 31 30  1  0  0  0  0
 32  1  1  0  0  0  0
 32 33  1  0  0  0  0
 33 34  1  0  0  0  0
 35 33  2  0  0  0  0
 35 36  1  0  0  0  0
 37 35  1  0  0  0  0
 38 37  1  0  0  0  0
 39 41  1  0  0  0  0
 39 37  2  0  0  0  0
 40 39  1  0  0  0  0
 41 32  2  0  0  0  0
 42 41  1  0  0  0  0
M  END
