1,4
 OpenBabel05122313063D

 38 40  0  0  1  0  0  0  0  0999 V2000
    1.8372    0.5286   -0.6081 P   0  0  0  0  0  0  0  0  0  0  0  0
    2.1567   -1.6150   -2.3429 N   0  0  0  0  0  0  0  0  0  0  0  0
    3.0460   -2.0170   -2.6335 H   0  0  0  0  0  0  0  0  0  0  0  0
   -0.0205   -2.0302   -1.5504 N   0  0  0  0  0  2  0  0  0  0  0  0
    1.7051    2.3260   -0.9343 C   0  0  0  0  0  0  0  0  0  0  0  0
    2.6749    3.2582   -0.5159 C   0  0  0  0  0  0  0  0  0  0  0  0
    3.5877    2.9152   -0.0063 H   0  0  0  0  0  0  0  0  0  0  0  0
    2.4712    4.6290   -0.7409 C   0  0  0  0  0  0  0  0  0  0  0  0
    3.2304    5.3528   -0.4080 H   0  0  0  0  0  0  0  0  0  0  0  0
    1.3087    5.0761   -1.3871 C   0  0  0  0  0  0  0  0  0  0  0  0
    1.1528    6.1515   -1.5594 H   0  0  0  0  0  0  0  0  0  0  0  0
    0.3389    4.1498   -1.8054 C   0  0  0  0  0  0  0  0  0  0  0  0
   -0.5818    4.4962   -2.2976 H   0  0  0  0  0  0  0  0  0  0  0  0
    0.5291    2.7828   -1.5705 C   0  0  0  0  0  0  0  0  0  0  0  0
   -0.2557    2.0640   -1.8571 H   0  0  0  0  0  0  0  0  0  0  0  0
    3.4627    0.2665    0.1899 C   0  0  0  0  0  0  0  0  0  0  0  0
    3.4628   -0.1100    1.5500 C   0  0  0  0  0  0  0  0  0  0  0  0
    2.5015   -0.2339    2.0749 H   0  0  0  0  0  0  0  0  0  0  0  0
    4.6736   -0.3264    2.2255 C   0  0  0  0  0  0  0  0  0  0  0  0
    4.6654   -0.6162    3.2869 H   0  0  0  0  0  0  0  0  0  0  0  0
    5.8920   -0.1785    1.5445 C   0  0  0  0  0  0  0  0  0  0  0  0
    6.8421   -0.3529    2.0714 H   0  0  0  0  0  0  0  0  0  0  0  0
    5.9003    0.1933    0.1893 C   0  0  0  0  0  0  0  0  0  0  0  0
    6.8559    0.3136   -0.3430 H   0  0  0  0  0  0  0  0  0  0  0  0
    4.6921    0.4186   -0.4863 C   0  0  0  0  0  0  0  0  0  0  0  0
    4.7132    0.7290   -1.5427 H   0  0  0  0  0  0  0  0  0  0  0  0
    2.0400   -0.1798   -2.3465 C   0  0  0  0  0  0  0  0  0  0  0  0
    1.1341    0.1479   -2.9013 H   0  0  0  0  0  0  0  0  0  0  0  0
    2.9204    0.2548   -2.8572 H   0  0  0  0  0  0  0  0  0  0  0  0
    1.1435   -2.5005   -2.0731 C   0  0  1  0  0  3  0  0  0  0  0  0
    1.3245   -3.8845   -2.3507 C   0  0  0  0  0  0  0  0  0  0  0  0
    2.2836   -4.2387   -2.7571 H   0  0  0  0  0  0  0  0  0  0  0  0
    0.2727   -4.7630   -2.1245 C   0  0  0  0  0  0  0  0  0  0  0  0
    0.3973   -5.8346   -2.3407 H   0  0  0  0  0  0  0  0  0  0  0  0
   -0.9557   -4.2663   -1.6386 C   0  0  0  0  0  0  0  0  0  0  0  0
   -1.8181   -4.9242   -1.4685 H   0  0  0  0  0  0  0  0  0  0  0  0
   -1.0453   -2.9045   -1.3715 C   0  0  0  0  0  0  0  0  0  0  0  0
   -1.9751   -2.4663   -0.9743 H   0  0  0  0  0  0  0  0  0  0  0  0
  1 16  1  0  0  0  0
  3  2  1  0  0  0  0
  4 37  1  0  0  0  0
  5  1  1  0  0  0  0
  5  6  1  0  0  0  0
  6  7  1  0  0  0  0
  8  6  2  0  0  0  0
  8  9  1  0  0  0  0
 10  8  1  0  0  0  0
 11 10  1  0  0  0  0
 12 14  1  0  0  0  0
 12 10  2  0  0  0  0
 13 12  1  0  0  0  0
 14  5  2  0  0  0  0
 15 14  1  0  0  0  0
 16 17  1  0  0  0  0
 17 18  1  0  0  0  0
 17 19  2  0  0  0  0
 19 20  1  0  0  0  0
 21 22  1  0  0  0  0
 21 19  1  0  0  0  0
 23 21  2  0  0  0  0
 24 23  1  0  0  0  0
 25 23  1  0  0  0  0
 25 16  2  0  0  0  0
 26 25  1  0  0  0  0
 27  2  1  0  0  0  0
 27  1  1  0  0  0  0
 28 27  1  0  0  0  0
 29 27  1  0  0  0  0
 30  2  1  6  0  0  0
 30  4  1  0  0  0  0
 31 33  2  0  0  0  0
 31 30  1  0  0  0  0
 32 31  1  0  0  0  0
 33 35  1  0  0  0  0
 34 33  1  0  0  0  0
 35 36  1  0  0  0  0
 35 37  2  0  0  0  0
 37 38  1  0  0  0  0
M  END
