1,2
 OpenBabel05122313063D

 59 62  0  0  1  0  0  0  0  0999 V2000
    0.6599    0.3732    0.1334 P   0  0  0  0  0  0  0  0  0  0  0  0
   -2.0000   -0.7834   -0.1156 N   0  0  0  0  0  2  0  0  0  0  0  0
   -2.3783    0.1272    0.8339 N   0  0  0  0  0  0  0  0  0  0  0  0
   -2.9532   -0.7901   -1.0708 C   0  0  1  0  0  3  0  0  0  0  0  0
   -3.5779    0.7208    0.4862 C   0  0  0  0  0  0  0  0  0  0  0  0
   -3.9614    0.1404   -0.7188 C   0  0  0  0  0  0  0  0  0  0  0  0
   -4.8678    0.3672   -1.2889 H   0  0  0  0  0  0  0  0  0  0  0  0
   -1.5408    0.4987    1.9254 C   0  0  0  0  0  0  0  0  0  0  0  0
   -0.1644    0.8033    1.7343 C   0  0  0  0  0  0  0  0  0  0  0  0
   -2.1351    0.6297    3.1920 C   0  0  0  0  0  0  0  0  0  0  0  0
   -3.1787    0.3165    3.3270 H   0  0  0  0  0  0  0  0  0  0  0  0
   -1.4005    1.1348    4.2727 C   0  0  0  0  0  0  0  0  0  0  0  0
   -1.8758    1.2269    5.2602 H   0  0  0  0  0  0  0  0  0  0  0  0
    0.5419    1.3328    2.8328 C   0  0  0  0  0  0  0  0  0  0  0  0
    1.5963    1.6139    2.7114 H   0  0  0  0  0  0  0  0  0  0  0  0
   -0.0650    1.5120    4.0851 C   0  0  0  0  0  0  0  0  0  0  0  0
    0.5187    1.9297    4.9185 H   0  0  0  0  0  0  0  0  0  0  0  0
    2.4701    0.7006    0.4092 C   0  0  0  0  0  0  0  0  0  0  0  0
    2.5313    1.7353    0.8231 H   0  0  0  0  0  0  0  0  0  0  0  0
    3.2429    0.6657   -0.9272 C   0  0  0  0  0  0  0  0  0  0  0  0
    3.0841   -0.3327   -1.3882 H   0  0  0  0  0  0  0  0  0  0  0  0
    2.8421    1.4241   -1.6294 H   0  0  0  0  0  0  0  0  0  0  0  0
    4.5722   -0.0254    1.6308 C   0  0  0  0  0  0  0  0  0  0  0  0
    4.7113    0.9750    2.1030 H   0  0  0  0  0  0  0  0  0  0  0  0
    4.9835   -0.7684    2.3454 H   0  0  0  0  0  0  0  0  0  0  0  0
    4.7411    0.9150   -0.7043 C   0  0  0  0  0  0  0  0  0  0  0  0
    5.2728    0.8517   -1.6767 H   0  0  0  0  0  0  0  0  0  0  0  0
    4.8903    1.9551   -0.3327 H   0  0  0  0  0  0  0  0  0  0  0  0
    3.0784   -0.2996    1.4170 C   0  0  0  0  0  0  0  0  0  0  0  0
    2.5380   -0.2759    2.3840 H   0  0  0  0  0  0  0  0  0  0  0  0
    2.9367   -1.3201    1.0037 H   0  0  0  0  0  0  0  0  0  0  0  0
    5.3387   -0.0718    0.3042 C   0  0  0  0  0  0  0  0  0  0  0  0
    6.4157    0.1436    0.4660 H   0  0  0  0  0  0  0  0  0  0  0  0
    5.2758   -1.1008   -0.1127 H   0  0  0  0  0  0  0  0  0  0  0  0
   -0.0320    1.6751   -1.0187 C   0  0  0  0  0  0  0  0  0  0  0  0
   -1.1157    1.6460   -0.7628 H   0  0  0  0  0  0  0  0  0  0  0  0
    0.0780    1.2909   -2.5048 C   0  0  0  0  0  0  0  0  0  0  0  0
    1.1444    1.2668   -2.8133 H   0  0  0  0  0  0  0  0  0  0  0  0
   -0.3062    0.2607   -2.6531 H   0  0  0  0  0  0  0  0  0  0  0  0
    0.4685    3.1026   -0.7495 C   0  0  0  0  0  0  0  0  0  0  0  0
    0.3498    3.3592    0.3246 H   0  0  0  0  0  0  0  0  0  0  0  0
    1.5553    3.1647   -0.9756 H   0  0  0  0  0  0  0  0  0  0  0  0
   -0.2893    4.1086   -1.6305 C   0  0  0  0  0  0  0  0  0  0  0  0
   -1.3581    4.1256   -1.3185 H   0  0  0  0  0  0  0  0  0  0  0  0
    0.1028    5.1331   -1.4598 H   0  0  0  0  0  0  0  0  0  0  0  0
   -0.6854    2.3023   -3.3699 C   0  0  0  0  0  0  0  0  0  0  0  0
   -0.5804    2.0393   -4.4430 H   0  0  0  0  0  0  0  0  0  0  0  0
   -1.7715    2.2313   -3.1336 H   0  0  0  0  0  0  0  0  0  0  0  0
   -0.2022    3.7370   -3.1170 C   0  0  0  0  0  0  0  0  0  0  0  0
    0.8554    3.8282   -3.4526 H   0  0  0  0  0  0  0  0  0  0  0  0
   -0.7853    4.4570   -3.7282 H   0  0  0  0  0  0  0  0  0  0  0  0
   -4.2433    1.8072    1.2647 C   0  0  0  0  0  0  0  0  0  0  0  0
   -4.8363    1.4182    2.1179 H   0  0  0  0  0  0  0  0  0  0  0  0
   -4.9399    2.3518    0.6002 H   0  0  0  0  0  0  0  0  0  0  0  0
   -3.5110    2.5303    1.6750 H   0  0  0  0  0  0  0  0  0  0  0  0
   -2.8683   -1.6506   -2.2849 C   0  0  0  0  0  0  0  0  0  0  0  0
   -2.0572   -1.3041   -2.9588 H   0  0  0  0  0  0  0  0  0  0  0  0
   -3.8232   -1.6253   -2.8414 H   0  0  0  0  0  0  0  0  0  0  0  0
   -2.6120   -2.6895   -1.9886 H   0  0  0  0  0  0  0  0  0  0  0  0
  1 18  1  0  0  0  0
  1  9  1  0  0  0  0
  2  3  1  0  0  0  0
  3  8  1  0  0  0  0
  4 56  1  6  0  0  0
  4  6  1  0  0  0  0
  4  2  1  0  0  0  0
  5  3  1  0  0  0  0
  5 52  1  0  0  0  0
  6  5  2  0  0  0  0
  7  6  1  0  0  0  0
  8 10  1  0  0  0  0
  9  8  2  0  0  0  0
  9 14  1  0  0  0  0
 10 11  1  0  0  0  0
 10 12  2  0  0  0  0
 12 13  1  0  0  0  0
 14 16  2  0  0  0  0
 15 14  1  0  0  0  0
 16 12  1  0  0  0  0
 16 17  1  0  0  0  0
 18 19  1  0  0  0  0
 18 29  1  0  0  0  0
 20 26  1  0  0  0  0
 20 18  1  0  0  0  0
 21 20  1  0  0  0  0
 22 20  1  0  0  0  0
 23 24  1  0  0  0  0
 23 25  1  0  0  0  0
 26 28  1  0  0  0  0
 26 32  1  0  0  0  0
 27 26  1  0  0  0  0
 29 23  1  0  0  0  0
 29 30  1  0  0  0  0
 31 29  1  0  0  0  0
 32 33  1  0  0  0  0
 32 23  1  0  0  0  0
 34 32  1  0  0  0  0
 35 36  1  0  0  0  0
 35 40  1  0  0  0  0
 35  1  1  0  0  0  0
 37 35  1  0  0  0  0
 38 37  1  0  0  0  0
 39 37  1  0  0  0  0
 40 41  1  0  0  0  0
 42 40  1  0  0  0  0
 43 45  1  0  0  0  0
 43 44  1  0  0  0  0
 43 40  1  0  0  0  0
 46 48  1  0  0  0  0
 46 49  1  0  0  0  0
 46 37  1  0  0  0  0
 47 46  1  0  0  0  0
 49 43  1  0  0  0  0
 50 49  1  0  0  0  0
 51 49  1  0  0  0  0
 52 55  1  0  0  0  0
 52 53  1  0  0  0  0
 54 52  1  0  0  0  0
 56 59  1  0  0  0  0
 57 56  1  0  0  0  0
 58 56  1  0  0  0  0
M  END
