1,2
 OpenBabel05122313063D

 44 46  0  0  0  0  0  0  0  0999 V2000
   -0.5126   -0.1747   -0.0449 P   0  0  0  0  0  0  0  0  0  0  0  0
    2.1055   -1.1224    0.8603 N   0  0  0  0  0  0  0  0  0  0  0  0
    3.0412   -0.7145    1.0350 H   0  0  0  0  0  0  0  0  0  0  0  0
    0.2831    2.7386    0.4224 N   0  0  0  0  0  0  0  0  0  0  0  0
    0.8785    1.9499    0.0853 H   0  0  0  0  0  0  0  0  0  0  0  0
   -0.1088   -0.5195    1.7273 C   0  0  0  0  0  0  0  0  0  0  0  0
    1.2167   -0.9201    1.9911 C   0  0  0  0  0  0  0  0  0  0  0  0
    1.6480   -1.1176    3.3118 C   0  0  0  0  0  0  0  0  0  0  0  0
    2.6877   -1.4220    3.5088 H   0  0  0  0  0  0  0  0  0  0  0  0
    0.7533   -0.9049    4.3729 C   0  0  0  0  0  0  0  0  0  0  0  0
    1.0963   -1.0427    5.4093 H   0  0  0  0  0  0  0  0  0  0  0  0
   -0.5685   -0.5057    4.1161 C   0  0  0  0  0  0  0  0  0  0  0  0
   -1.2625   -0.3286    4.9512 H   0  0  0  0  0  0  0  0  0  0  0  0
   -0.9988   -0.3082    2.7947 C   0  0  0  0  0  0  0  0  0  0  0  0
   -2.0204    0.0438    2.5834 H   0  0  0  0  0  0  0  0  0  0  0  0
    2.2888   -2.5518    0.4987 C   0  0  0  0  0  0  0  0  0  0  0  0
    2.6453   -3.1454    1.3683 H   0  0  0  0  0  0  0  0  0  0  0  0
    3.0293   -2.5963   -0.3216 H   0  0  0  0  0  0  0  0  0  0  0  0
    1.3249   -2.9659    0.1472 H   0  0  0  0  0  0  0  0  0  0  0  0
   -1.6285    1.2651    0.0303 C   0  0  0  0  0  0  0  0  0  0  0  0
   -1.0664    2.5691    0.2680 C   0  0  0  0  0  0  0  0  0  0  0  0
   -1.9696    3.6651    0.3589 C   0  0  0  0  0  0  0  0  0  0  0  0
   -1.5740    4.6746    0.5331 H   0  0  0  0  0  0  0  0  0  0  0  0
   -3.3481    3.4795    0.2285 C   0  0  0  0  0  0  0  0  0  0  0  0
   -4.0131    4.3538    0.3058 H   0  0  0  0  0  0  0  0  0  0  0  0
   -3.8911    2.2046   -0.0069 C   0  0  0  0  0  0  0  0  0  0  0  0
   -4.9759    2.0639   -0.1153 H   0  0  0  0  0  0  0  0  0  0  0  0
   -3.0219    1.1105   -0.1052 C   0  0  0  0  0  0  0  0  0  0  0  0
   -3.4292    0.1056   -0.2936 H   0  0  0  0  0  0  0  0  0  0  0  0
    0.9183    4.0315    0.5013 C   0  0  0  0  0  0  0  0  0  0  0  0
    0.6817    4.6875   -0.3690 H   0  0  0  0  0  0  0  0  0  0  0  0
    2.0144    3.8842    0.5281 H   0  0  0  0  0  0  0  0  0  0  0  0
    0.6260    4.5778    1.4247 H   0  0  0  0  0  0  0  0  0  0  0  0
   -1.5651   -1.5729   -0.6040 C   0  0  0  0  0  0  0  0  0  0  0  0
   -2.0256   -2.5775    0.2694 C   0  0  0  0  0  0  0  0  0  0  0  0
   -1.7854   -2.5276    1.3420 H   0  0  0  0  0  0  0  0  0  0  0  0
   -2.7924   -3.6440   -0.2287 C   0  0  0  0  0  0  0  0  0  0  0  0
   -3.1469   -4.4272    0.4587 H   0  0  0  0  0  0  0  0  0  0  0  0
   -3.1074   -3.7100   -1.5940 C   0  0  0  0  0  0  0  0  0  0  0  0
   -3.7089   -4.5462   -1.9814 H   0  0  0  0  0  0  0  0  0  0  0  0
   -2.6472   -2.7098   -2.4684 C   0  0  0  0  0  0  0  0  0  0  0  0
   -2.8859   -2.7611   -3.5414 H   0  0  0  0  0  0  0  0  0  0  0  0
   -1.8712   -1.6509   -1.9803 C   0  0  0  0  0  0  0  0  0  0  0  0
   -1.4930   -0.8793   -2.6690 H   0  0  0  0  0  0  0  0  0  0  0  0
  1 20  1  0  0  0  0
  1  6  1  0  0  0  0
  2  3  1  0  0  0  0
  2  7  1  0  0  0  0
  4 30  1  0  0  0  0
  5  4  1  0  0  0  0
  6  7  2  0  0  0  0
  6 14  1  0  0  0  0
  7  8  1  0  0  0  0
  8  9  1  0  0  0  0
  8 10  2  0  0  0  0
 10 11  1  0  0  0  0
 12 10  1  0  0  0  0
 12 13  1  0  0  0  0
 14 12  2  0  0  0  0
 15 14  1  0  0  0  0
 16  2  1  0  0  0  0
 16 17  1  0  0  0  0
 18 16  1  0  0  0  0
 19 16  1  0  0  0  0
 20 21  1  0  0  0  0
 21 22  2  0  0  0  0
 21  4  1  0  0  0  0
 22 23  1  0  0  0  0
 24 25  1  0  0  0  0
 24 22  1  0  0  0  0
 26 24  2  0  0  0  0
 27 26  1  0  0  0  0
 28 26  1  0  0  0  0
 28 20  2  0  0  0  0
 29 28  1  0  0  0  0
 30 32  1  0  0  0  0
 30 33  1  0  0  0  0
 31 30  1  0  0  0  0
 34  1  1  0  0  0  0
 34 35  1  0  0  0  0
 35 36  1  0  0  0  0
 37 35  2  0  0  0  0
 37 38  1  0  0  0  0
 39 37  1  0  0  0  0
 40 39  1  0  0  0  0
 41 43  1  0  0  0  0
 41 39  2  0  0  0  0
 42 41  1  0  0  0  0
 43 34  2  0  0  0  0
 44 43  1  0  0  0  0
M  END
