1,2
 OpenBabel05122313063D

 49 51  0  0  0  0  0  0  0  0999 V2000
    0.2939   -0.1230   -0.3655 P   0  0  0  0  0  0  0  0  0  0  0  0
   -2.4095   -1.1959   -0.0481 N   0  0  0  0  0  0  0  0  0  0  0  0
   -3.3437   -0.8528    0.2382 H   0  0  0  0  0  0  0  0  0  0  0  0
    2.7419   -0.4211    1.4344 N   0  0  0  0  0  0  0  0  0  0  0  0
    2.3112    0.4666    1.1734 H   0  0  0  0  0  0  0  0  0  0  0  0
   -0.7247    2.7840   -0.1553 N   0  0  0  0  0  0  0  0  0  0  0  0
   -1.0926    1.9257    0.3147 H   0  0  0  0  0  0  0  0  0  0  0  0
   -0.8498   -0.4389   -1.7823 C   0  0  0  0  0  0  0  0  0  0  0  0
   -2.1373   -0.9016   -1.4433 C   0  0  0  0  0  0  0  0  0  0  0  0
   -3.1108   -1.0785   -2.4386 C   0  0  0  0  0  0  0  0  0  0  0  0
   -4.1164   -1.4332   -2.1642 H   0  0  0  0  0  0  0  0  0  0  0  0
   -2.7972   -0.7840   -3.7751 C   0  0  0  0  0  0  0  0  0  0  0  0
   -3.5653   -0.9063   -4.5534 H   0  0  0  0  0  0  0  0  0  0  0  0
   -1.5142   -0.3268   -4.1184 C   0  0  0  0  0  0  0  0  0  0  0  0
   -1.2759   -0.0899   -5.1660 H   0  0  0  0  0  0  0  0  0  0  0  0
   -0.5412   -0.1505   -3.1225 C   0  0  0  0  0  0  0  0  0  0  0  0
    0.4568    0.2395   -3.3750 H   0  0  0  0  0  0  0  0  0  0  0  0
   -2.3295   -2.6438    0.2776 C   0  0  0  0  0  0  0  0  0  0  0  0
   -2.6179   -2.7652    1.3382 H   0  0  0  0  0  0  0  0  0  0  0  0
   -1.2889   -2.9927    0.1372 H   0  0  0  0  0  0  0  0  0  0  0  0
   -3.0056   -3.2402   -0.3727 H   0  0  0  0  0  0  0  0  0  0  0  0
    1.5372   -1.4616   -0.4120 C   0  0  0  0  0  0  0  0  0  0  0  0
    2.5717   -1.4831    0.5841 C   0  0  0  0  0  0  0  0  0  0  0  0
    3.3921   -2.6391    0.6677 C   0  0  0  0  0  0  0  0  0  0  0  0
    4.1898   -2.6819    1.4216 H   0  0  0  0  0  0  0  0  0  0  0  0
    3.2068   -3.7172   -0.2034 C   0  0  0  0  0  0  0  0  0  0  0  0
    3.8624   -4.5968   -0.1112 H   0  0  0  0  0  0  0  0  0  0  0  0
    2.2101   -3.6850   -1.1928 C   0  0  0  0  0  0  0  0  0  0  0  0
    2.0734   -4.5298   -1.8828 H   0  0  0  0  0  0  0  0  0  0  0  0
    1.3830   -2.5569   -1.2840 C   0  0  0  0  0  0  0  0  0  0  0  0
    0.5875   -2.5254   -2.0440 H   0  0  0  0  0  0  0  0  0  0  0  0
    3.6783   -0.3907    2.5302 C   0  0  0  0  0  0  0  0  0  0  0  0
    3.5450   -1.2719    3.1932 H   0  0  0  0  0  0  0  0  0  0  0  0
    3.4826    0.5133    3.1360 H   0  0  0  0  0  0  0  0  0  0  0  0
    4.7431   -0.3700    2.1990 H   0  0  0  0  0  0  0  0  0  0  0  0
    1.1780    1.4067   -0.8348 C   0  0  0  0  0  0  0  0  0  0  0  0
    0.5410    2.6872   -0.6598 C   0  0  0  0  0  0  0  0  0  0  0  0
    1.2739    3.8428   -1.0553 C   0  0  0  0  0  0  0  0  0  0  0  0
    0.8226    4.8355   -0.9248 H   0  0  0  0  0  0  0  0  0  0  0  0
    2.5502    3.7358   -1.6115 C   0  0  0  0  0  0  0  0  0  0  0  0
    3.0811    4.6543   -1.9068 H   0  0  0  0  0  0  0  0  0  0  0  0
    3.1628    2.4829   -1.7942 C   0  0  0  0  0  0  0  0  0  0  0  0
    4.1672    2.4035   -2.2337 H   0  0  0  0  0  0  0  0  0  0  0  0
    2.4670    1.3326   -1.4033 C   0  0  0  0  0  0  0  0  0  0  0  0
    2.9262    0.3399   -1.5359 H   0  0  0  0  0  0  0  0  0  0  0  0
   -1.3510    4.0333    0.2021 C   0  0  0  0  0  0  0  0  0  0  0  0
   -0.7463    4.6315    0.9231 H   0  0  0  0  0  0  0  0  0  0  0  0
   -2.3261    3.8140    0.6764 H   0  0  0  0  0  0  0  0  0  0  0  0
   -1.5411    4.6704   -0.6894 H   0  0  0  0  0  0  0  0  0  0  0  0
  2  3  1  0  0  0  0
  2 18  1  0  0  0  0
  4 32  1  0  0  0  0
  5  4  1  0  0  0  0
  6 46  1  0  0  0  0
  6  7  1  0  0  0  0
  8  9  1  0  0  0  0
  8  1  1  0  0  0  0
  9  2  1  0  0  0  0
 10 11  1  0  0  0  0
 10  9  2  0  0  0  0
 12 10  1  0  0  0  0
 13 12  1  0  0  0  0
 14 12  2  0  0  0  0
 14 16  1  0  0  0  0
 15 14  1  0  0  0  0
 16  8  2  0  0  0  0
 17 16  1  0  0  0  0
 18 19  1  0  0  0  0
 20 18  1  0  0  0  0
 21 18  1  0  0  0  0
 22  1  1  0  0  0  0
 22 23  1  0  0  0  0
 23 24  2  0  0  0  0
 23  4  1  0  0  0  0
 24 25  1  0  0  0  0
 26 27  1  0  0  0  0
 26 24  1  0  0  0  0
 28 26  2  0  0  0  0
 29 28  1  0  0  0  0
 30 28  1  0  0  0  0
 30 22  2  0  0  0  0
 31 30  1  0  0  0  0
 32 34  1  0  0  0  0
 32 33  1  0  0  0  0
 35 32  1  0  0  0  0
 36 37  1  0  0  0  0
 36  1  1  0  0  0  0
 37  6  1  0  0  0  0
 38 39  1  0  0  0  0
 38 37  2  0  0  0  0
 40 38  1  0  0  0  0
 41 40  1  0  0  0  0
 42 40  2  0  0  0  0
 42 44  1  0  0  0  0
 43 42  1  0  0  0  0
 44 36  2  0  0  0  0
 45 44  1  0  0  0  0
 46 48  1  0  0  0  0
 46 47  1  0  0  0  0
 49 46  1  0  0  0  0
M  END
