1,4
 OpenBabel05122313063D

 54 57  0  0  0  0  0  0  0  0999 V2000
   -1.2242   -0.5710    0.1084 P   0  0  0  0  0  0  0  0  0  0  0  0
   -0.6154    1.1739    0.1776 C   0  0  0  0  0  0  0  0  0  0  0  0
    0.8266    1.2148    0.2617 C   0  0  0  0  0  3  0  0  0  0  0  0
    1.5628    0.1539   -0.0032 N   0  0  0  0  0  2  0  0  0  0  0  0
   -1.4652    2.2532    0.1364 C   0  0  0  0  0  0  0  0  0  0  0  0
   -1.1294    3.6666   -0.0113 C   0  0  0  0  0  0  0  0  0  0  0  0
   -2.0305    4.6360    0.5001 C   0  0  0  0  0  0  0  0  0  0  0  0
   -1.7444    6.0023    0.4109 C   0  0  0  0  0  0  0  0  0  0  0  0
   -0.5644    6.4356   -0.2171 C   0  0  0  0  0  0  0  0  0  0  0  0
    0.3193    5.4914   -0.7670 C   0  0  0  0  0  0  0  0  0  0  0  0
    0.0417    4.1234   -0.6694 C   0  0  0  0  0  0  0  0  0  0  0  0
    2.9701    0.2458    0.1414 C   0  0  0  0  0  0  0  0  0  0  0  0
    3.6724    1.3837   -0.3066 C   0  0  0  0  0  0  0  0  0  0  0  0
    5.0581    1.4677   -0.1315 C   0  0  0  0  0  0  0  0  0  0  0  0
    5.7783    0.4311    0.4965 C   0  0  0  0  0  0  0  0  0  0  0  0
    5.0598   -0.7024    0.9346 C   0  0  0  0  0  0  0  0  0  0  0  0
    3.6808   -0.8136    0.7442 C   0  0  0  0  0  0  0  0  0  0  0  0
    7.2738    0.5050    0.6599 C   0  0  0  0  0  0  0  0  0  0  0  0
   -1.7304   -1.0311    1.8049 C   0  0  0  0  0  0  0  0  0  0  0  0
   -1.9398   -2.4047    2.0592 C   0  0  0  0  0  0  0  0  0  0  0  0
   -2.3395   -2.8162    3.3375 C   0  0  0  0  0  0  0  0  0  0  0  0
   -2.5198   -1.8721    4.3632 C   0  0  0  0  0  0  0  0  0  0  0  0
   -2.2981   -0.5093    4.1116 C   0  0  0  0  0  0  0  0  0  0  0  0
   -1.9032   -0.0839    2.8331 C   0  0  0  0  0  0  0  0  0  0  0  0
   -2.7560   -0.5311   -0.8808 C   0  0  0  0  0  0  0  0  0  0  0  0
   -2.6437   -0.6029   -2.2844 C   0  0  0  0  0  0  0  0  0  0  0  0
   -3.7956   -0.5186   -3.0768 C   0  0  0  0  0  0  0  0  0  0  0  0
   -5.0579   -0.3736   -2.4761 C   0  0  0  0  0  0  0  0  0  0  0  0
   -5.1704   -0.3167   -1.0783 C   0  0  0  0  0  0  0  0  0  0  0  0
   -4.0213   -0.3982   -0.2760 C   0  0  0  0  0  0  0  0  0  0  0  0
    1.3232    2.1277    0.6387 H   0  0  0  0  0  0  0  0  0  0  0  0
   -2.5454    2.0359    0.2127 H   0  0  0  0  0  0  0  0  0  0  0  0
   -2.9582    4.2980    0.9876 H   0  0  0  0  0  0  0  0  0  0  0  0
   -2.4496    6.7373    0.8271 H   0  0  0  0  0  0  0  0  0  0  0  0
   -0.3431    7.5105   -0.2964 H   0  0  0  0  0  0  0  0  0  0  0  0
    1.2259    5.8267   -1.2928 H   0  0  0  0  0  0  0  0  0  0  0  0
    0.7101    3.3975   -1.1546 H   0  0  0  0  0  0  0  0  0  0  0  0
    3.1343    2.1873   -0.8312 H   0  0  0  0  0  0  0  0  0  0  0  0
    5.5965    2.3532   -0.5040 H   0  0  0  0  0  0  0  0  0  0  0  0
    5.5993   -1.5296    1.4215 H   0  0  0  0  0  0  0  0  0  0  0  0
    3.1341   -1.7082    1.0680 H   0  0  0  0  0  0  0  0  0  0  0  0
    7.7842   -0.1536   -0.0753 H   0  0  0  0  0  0  0  0  0  0  0  0
    7.5892    0.1645    1.6669 H   0  0  0  0  0  0  0  0  0  0  0  0
    7.6545    1.5332    0.5059 H   0  0  0  0  0  0  0  0  0  0  0  0
   -1.7695   -3.1343    1.2491 H   0  0  0  0  0  0  0  0  0  0  0  0
   -2.5018   -3.8863    3.5368 H   0  0  0  0  0  0  0  0  0  0  0  0
   -2.8277   -2.2022    5.3671 H   0  0  0  0  0  0  0  0  0  0  0  0
   -2.4301    0.2303    4.9159 H   0  0  0  0  0  0  0  0  0  0  0  0
   -1.7251    0.9843    2.6372 H   0  0  0  0  0  0  0  0  0  0  0  0
   -1.6536   -0.7470   -2.7433 H   0  0  0  0  0  0  0  0  0  0  0  0
   -3.7089   -0.5816   -4.1719 H   0  0  0  0  0  0  0  0  0  0  0  0
   -5.9610   -0.3164   -3.1025 H   0  0  0  0  0  0  0  0  0  0  0  0
   -6.1596   -0.2163   -0.6064 H   0  0  0  0  0  0  0  0  0  0  0  0
   -4.1077   -0.3707    0.8211 H   0  0  0  0  0  0  0  0  0  0  0  0
  1  2  1  0  0  0  0
  1 19  1  0  0  0  0
  2  3  1  0  0  0  0
  3 31  1  0  0  0  0
  4 12  1  0  0  0  0
  4  3  1  0  0  0  0
  5  2  2  0  0  0  0
  5 32  1  0  0  0  0
  6  5  1  0  0  0  0
  6  7  1  0  0  0  0
  7 33  1  0  0  0  0
  8  7  2  0  0  0  0
  8 34  1  0  0  0  0
  9  8  1  0  0  0  0
 10 11  1  0  0  0  0
 10  9  2  0  0  0  0
 11  6  2  0  0  0  0
 12 17  1  0  0  0  0
 13 14  1  0  0  0  0
 13 12  2  0  0  0  0
 14 15  2  0  0  0  0
 15 18  1  0  0  0  0
 15 16  1  0  0  0  0
 16 40  1  0  0  0  0
 17 16  2  0  0  0  0
 17 41  1  0  0  0  0
 18 43  1  0  0  0  0
 19 20  2  0  0  0  0
 19 24  1  0  0  0  0
 20 21  1  0  0  0  0
 21 46  1  0  0  0  0
 21 22  2  0  0  0  0
 22 47  1  0  0  0  0
 23 22  1  0  0  0  0
 23 48  1  0  0  0  0
 24 23  2  0  0  0  0
 25 30  1  0  0  0  0
 25  1  1  0  0  0  0
 26 25  2  0  0  0  0
 27 28  2  0  0  0  0
 27 26  1  0  0  0  0
 28 29  1  0  0  0  0
 29 53  1  0  0  0  0
 29 30  2  0  0  0  0
 30 54  1  0  0  0  0
 35  9  1  0  0  0  0
 36 10  1  0  0  0  0
 37 11  1  0  0  0  0
 38 13  1  0  0  0  0
 39 14  1  0  0  0  0
 42 18  1  0  0  0  0
 44 18  1  0  0  0  0
 45 20  1  0  0  0  0
 49 24  1  0  0  0  0
 50 26  1  0  0  0  0
 51 27  1  0  0  0  0
 52 28  1  0  0  0  0
M  END
