1,4
 OpenBabel05122313063D

 51 54  0  0  1  0  0  0  0  0999 V2000
   -1.0533    0.4765    0.0651 P   0  0  0  0  0  0  0  0  0  0  0  0
    2.1498    3.0123   -0.1910 O   0  0  0  0  0  0  0  0  0  0  0  0
    3.5031    1.2445   -0.6612 O   0  0  0  0  0  0  0  0  0  0  0  0
    1.3808   -1.5043    0.2846 N   0  0  0  0  0  2  0  0  0  0  0  0
    3.2984    2.6249   -0.9674 C   0  0  0  0  0  0  0  0  0  0  0  0
    2.2222    0.6748   -0.4673 C   0  0  2  0  0  0  0  0  0  0  0  0
    1.4158    1.8505    0.1764 C   0  0  2  0  0  0  0  0  0  0  0  0
    2.3394   -0.5547    0.4017 C   0  0  2  0  0  3  0  0  0  0  0  0
    3.4137   -0.7144    1.2904 C   0  0  0  0  0  0  0  0  0  0  0  0
    3.4961   -1.8749    2.0669 C   0  0  0  0  0  0  0  0  0  0  0  0
    2.5098   -2.8607    1.9179 C   0  0  0  0  0  0  0  0  0  0  0  0
    1.4724   -2.6429    1.0085 C   0  0  0  0  0  0  0  0  0  0  0  0
   -0.0386    1.9848   -0.2774 C   0  0  0  0  0  0  0  0  0  0  0  0
    3.0111    2.8182   -2.4592 C   0  0  0  0  0  0  0  0  0  0  0  0
    4.5089    3.4062   -0.4835 C   0  0  0  0  0  0  0  0  0  0  0  0
   -2.7974    0.9713   -0.2092 C   0  0  0  0  0  0  0  0  0  0  0  0
   -3.7689   -0.0515   -0.1927 C   0  0  0  0  0  0  0  0  0  0  0  0
   -5.1255    0.2695   -0.3179 C   0  0  0  0  0  0  0  0  0  0  0  0
   -5.5236    1.6073   -0.4803 C   0  0  0  0  0  0  0  0  0  0  0  0
   -4.5589    2.6240   -0.5145 C   0  0  0  0  0  0  0  0  0  0  0  0
   -3.1970    2.3098   -0.3760 C   0  0  0  0  0  0  0  0  0  0  0  0
   -0.9927    0.2713    1.8981 C   0  0  0  0  0  0  0  0  0  0  0  0
   -0.8772    1.3677    2.7768 C   0  0  0  0  0  0  0  0  0  0  0  0
   -0.8740    1.1622    4.1643 C   0  0  0  0  0  0  0  0  0  0  0  0
   -0.9990   -0.1356    4.6861 C   0  0  0  0  0  0  0  0  0  0  0  0
   -1.1318   -1.2292    3.8163 C   0  0  0  0  0  0  0  0  0  0  0  0
   -1.1264   -1.0276    2.4283 C   0  0  0  0  0  0  0  0  0  0  0  0
    1.7468    0.3627   -1.4308 H   0  0  0  0  0  0  0  0  0  0  0  0
    1.4491    1.7470    1.2851 H   0  0  0  0  0  0  0  0  0  0  0  0
    2.5433   -3.8012    2.4852 H   0  0  0  0  0  0  0  0  0  0  0  0
   -0.4769    2.8837    0.2015 H   0  0  0  0  0  0  0  0  0  0  0  0
   -0.0838    2.1341   -1.3758 H   0  0  0  0  0  0  0  0  0  0  0  0
    4.1744    0.0763    1.3299 H   0  0  0  0  0  0  0  0  0  0  0  0
    4.3306   -2.0168    2.7698 H   0  0  0  0  0  0  0  0  0  0  0  0
    0.6987   -3.3970    0.8089 H   0  0  0  0  0  0  0  0  0  0  0  0
    2.1556    2.1951   -2.7852 H   0  0  0  0  0  0  0  0  0  0  0  0
    2.7610    3.8772   -2.6616 H   0  0  0  0  0  0  0  0  0  0  0  0
    3.8951    2.5357   -3.0631 H   0  0  0  0  0  0  0  0  0  0  0  0
    4.6466    3.2367    0.6010 H   0  0  0  0  0  0  0  0  0  0  0  0
    5.4176    3.0782   -1.0232 H   0  0  0  0  0  0  0  0  0  0  0  0
    4.3587    4.4876   -0.6621 H   0  0  0  0  0  0  0  0  0  0  0  0
   -3.4538   -1.1019   -0.1081 H   0  0  0  0  0  0  0  0  0  0  0  0
   -5.8773   -0.5339   -0.3073 H   0  0  0  0  0  0  0  0  0  0  0  0
   -6.5901    1.8559   -0.5893 H   0  0  0  0  0  0  0  0  0  0  0  0
   -4.8633    3.6726   -0.6521 H   0  0  0  0  0  0  0  0  0  0  0  0
   -2.4559    3.1213   -0.4085 H   0  0  0  0  0  0  0  0  0  0  0  0
   -0.7978    2.3927    2.3836 H   0  0  0  0  0  0  0  0  0  0  0  0
   -0.7777    2.0234    4.8427 H   0  0  0  0  0  0  0  0  0  0  0  0
   -0.9968   -0.2936    5.7752 H   0  0  0  0  0  0  0  0  0  0  0  0
   -1.2375   -2.2476    4.2198 H   0  0  0  0  0  0  0  0  0  0  0  0
   -1.2277   -1.8813    1.7398 H   0  0  0  0  0  0  0  0  0  0  0  0
  1 22  1  0  0  0  0
  2  7  1  0  0  0  0
  3  6  1  0  0  0  0
  4 12  1  0  0  0  0
  5  3  1  0  0  0  0
  5 15  1  0  0  0  0
  5  2  1  0  0  0  0
  6 28  1  6  0  0  0
  6  7  1  0  0  0  0
  6  8  1  0  0  0  0
  7 29  1  1  0  0  0
  8  4  1  6  0  0  0
  8  9  1  0  0  0  0
  9 33  1  0  0  0  0
  9 10  2  0  0  0  0
 10 34  1  0  0  0  0
 11 10  1  0  0  0  0
 11 30  1  0  0  0  0
 12 11  2  0  0  0  0
 13  1  1  0  0  0  0
 13  7  1  0  0  0  0
 13 31  1  0  0  0  0
 14  5  1  0  0  0  0
 15 39  1  0  0  0  0
 16 17  1  0  0  0  0
 16  1  1  0  0  0  0
 17 42  1  0  0  0  0
 18 43  1  0  0  0  0
 18 17  2  0  0  0  0
 19 18  1  0  0  0  0
 20 19  2  0  0  0  0
 20 21  1  0  0  0  0
 21 16  2  0  0  0  0
 22 27  2  0  0  0  0
 22 23  1  0  0  0  0
 23 24  2  0  0  0  0
 24 25  1  0  0  0  0
 24 48  1  0  0  0  0
 25 49  1  0  0  0  0
 26 50  1  0  0  0  0
 26 25  2  0  0  0  0
 27 26  1  0  0  0  0
 32 13  1  0  0  0  0
 35 12  1  0  0  0  0
 36 14  1  0  0  0  0
 37 14  1  0  0  0  0
 38 14  1  0  0  0  0
 40 15  1  0  0  0  0
 41 15  1  0  0  0  0
 44 19  1  0  0  0  0
 45 20  1  0  0  0  0
 46 21  1  0  0  0  0
 47 23  1  0  0  0  0
 51 27  1  0  0  0  0
M  END
