1,2
q = 0.0, confidence = 0.998

 35 37  0  0  0  0  0  0  0  0999 V2000
    1.3967   -1.6919   -0.1834 P   0  0  1  0  0  0  0  0  0  0  0  0
   -1.4355   -1.7254   -0.2006 N   0  0  0  0  0  2  0  0  0  0  0  0
    1.6926   -2.4459   -1.8340 C   0  0  0  0  0  0  0  0  0  0  0  0
    0.4468   -3.0015    0.7403 C   0  0  0  0  0  0  0  0  0  0  0  0
    3.0585   -1.6083    0.5988 C   0  0  0  0  0  0  0  0  0  0  0  0
    4.2394   -1.8408   -0.1343 C   0  0  0  0  0  0  0  0  0  0  0  0
    5.4941   -1.6854    0.4756 C   0  0  0  0  0  0  0  0  0  0  0  0
    5.5833   -1.3058    1.8226 C   0  0  0  0  0  0  0  0  0  0  0  0
    4.4093   -1.0674    2.5566 C   0  0  0  0  0  0  0  0  0  0  0  0
    3.1531   -1.2070    1.9502 C   0  0  0  0  0  0  0  0  0  0  0  0
   -0.9902   -2.9019    0.2977 C   0  0  0  0  0  0  0  0  0  0  0  0
   -1.8335   -4.0411    0.4099 C   0  0  0  0  0  0  0  0  0  0  0  0
   -3.1565   -3.9672    0.0185 C   0  0  0  0  0  0  0  0  0  0  0  0
   -3.6368   -2.7706   -0.5780 C   0  0  0  0  0  0  0  0  0  0  0  0
   -2.7182   -1.6697   -0.7244 C   0  0  0  0  0  0  0  0  0  0  0  0
   -3.1568   -0.5117   -1.4242 C   0  0  0  0  0  0  0  0  0  0  0  0
   -4.4589   -0.4220   -1.8957 C   0  0  0  0  0  0  0  0  0  0  0  0
   -5.3843   -1.4772   -1.6909 C   0  0  0  0  0  0  0  0  0  0  0  0
   -4.9738   -2.6372   -1.0523 C   0  0  0  0  0  3  0  0  0  0  0  0
    2.2573   -3.3956   -1.7566 H   0  0  0  0  0  0  0  0  0  0  0  0
    2.2288   -1.7244   -2.4782 H   0  0  0  0  0  0  0  0  0  0  0  0
    0.7005   -2.6177   -2.2922 H   0  0  0  0  0  0  0  0  0  0  0  0
    0.8375   -4.0341    0.6342 H   0  0  0  0  0  0  0  0  0  0  0  0
    0.5211   -2.6873    1.8049 H   0  0  0  0  0  0  0  0  0  0  0  0
    4.1921   -2.1258   -1.1944 H   0  0  0  0  0  0  0  0  0  0  0  0
    6.4082   -1.8568   -0.1131 H   0  0  0  0  0  0  0  0  0  0  0  0
    6.5686   -1.1874    2.2991 H   0  0  0  0  0  0  0  0  0  0  0  0
    4.4708   -0.7615    3.6126 H   0  0  0  0  0  0  0  0  0  0  0  0
    2.2289   -0.9836    2.5104 H   0  0  0  0  0  0  0  0  0  0  0  0
   -1.4168   -4.9647    0.8363 H   0  0  0  0  0  0  0  0  0  0  0  0
   -3.8350   -4.8263    0.1378 H   0  0  0  0  0  0  0  0  0  0  0  0
   -2.4248    0.2833   -1.6100 H   0  0  0  0  0  0  0  0  0  0  0  0
   -4.7734    0.4843   -2.4345 H   0  0  0  0  0  0  0  0  0  0  0  0
   -6.4180   -1.3817   -2.0559 H   0  0  0  0  0  0  0  0  0  0  0  0
   -5.6667   -3.4816   -0.9127 H   0  0  0  0  0  0  0  0  0  0  0  0
  1  3  1  6  0  0  0
  1  5  1  0  0  0  0
  1  4  1  0  0  0  0
  2 11  1  0  0  0  0
  3 20  1  0  0  0  0
  4 24  1  0  0  0  0
  5 10  1  0  0  0  0
  6  7  1  0  0  0  0
  6  5  2  0  0  0  0
  7  8  2  0  0  0  0
  8 27  1  0  0  0  0
  8  9  1  0  0  0  0
  9 28  1  0  0  0  0
 10 29  1  0  0  0  0
 10  9  2  0  0  0  0
 11 12  2  0  0  0  0
 11  4  1  0  0  0  0
 12 30  1  0  0  0  0
 13 31  1  0  0  0  0
 13 12  1  0  0  0  0
 14 13  2  0  0  0  0
 15 14  1  0  0  0  0
 15  2  1  0  0  0  0
 16 15  2  0  0  0  0
 17 18  2  0  0  0  0
 17 16  1  0  0  0  0
 18 19  1  0  0  0  0
 19 35  1  0  0  0  0
 19 14  1  0  0  0  0
 21  3  1  0  0  0  0
 22  3  1  0  0  0  0
 23  4  1  0  0  0  0
 25  6  1  0  0  0  0
 26  7  1  0  0  0  0
 32 16  1  0  0  0  0
 33 17  1  0  0  0  0
 34 18  1  0  0  0  0
M  END
