1,2
q = 0.0, confidence = 0.994

 69 69  0  0  1  0  0  0  0  0999 V2000
    2.2960    0.2402    0.0863 P   0  0  0  0  0  0  0  0  0  0  0  0
    0.0000   -1.6252    0.0000 N   0  0  0  0  0  2  0  0  0  0  0  0
    1.1270   -2.3056    0.3619 C   0  0  2  0  0  3  0  0  0  0  0  0
    1.1506   -3.7103    0.3588 C   0  0  0  0  0  0  0  0  0  0  0  0
    2.0721   -4.2333    0.6511 H   0  0  0  0  0  0  0  0  0  0  0  0
   -0.0000   -4.4216    0.0000 C   0  0  0  0  0  0  0  0  0  0  0  0
   -0.0000   -5.5219    0.0000 H   0  0  0  0  0  0  0  0  0  0  0  0
    2.3184   -1.5032    0.8040 C   0  0  0  0  0  0  0  0  0  0  0  0
    3.2603   -2.0663    0.6454 H   0  0  0  0  0  0  0  0  0  0  0  0
    2.2193   -1.3255    1.8977 H   0  0  0  0  0  0  0  0  0  0  0  0
    3.2266    0.0418   -1.5928 C   0  0  0  0  0  0  0  0  0  0  0  0
    2.5670   -1.1510   -2.3122 C   0  0  0  0  0  0  0  0  0  0  0  0
    2.8066   -2.1203   -1.8312 H   0  0  0  0  0  0  0  0  0  0  0  0
    2.9468   -1.1979   -3.3552 H   0  0  0  0  0  0  0  0  0  0  0  0
    1.4660   -1.0296   -2.3519 H   0  0  0  0  0  0  0  0  0  0  0  0
    4.7343   -0.2249   -1.4853 C   0  0  0  0  0  0  0  0  0  0  0  0
    5.1401   -0.4256   -2.5005 H   0  0  0  0  0  0  0  0  0  0  0  0
    4.9638   -1.1137   -0.8626 H   0  0  0  0  0  0  0  0  0  0  0  0
    5.2927    0.6405   -1.0798 H   0  0  0  0  0  0  0  0  0  0  0  0
    2.9646    1.3108   -2.4243 C   0  0  0  0  0  0  0  0  0  0  0  0
    3.3643    1.1680   -3.4512 H   0  0  0  0  0  0  0  0  0  0  0  0
    3.4540    2.2055   -1.9949 H   0  0  0  0  0  0  0  0  0  0  0  0
    1.8772    1.5112   -2.4916 H   0  0  0  0  0  0  0  0  0  0  0  0
    3.4089    1.1878    1.3404 C   0  0  0  0  0  0  0  0  0  0  0  0
    4.6699    0.4204    1.7765 C   0  0  0  0  0  0  0  0  0  0  0  0
    4.4205   -0.5369    2.2762 H   0  0  0  0  0  0  0  0  0  0  0  0
    5.2255    1.0332    2.5189 H   0  0  0  0  0  0  0  0  0  0  0  0
    5.3627    0.2048    0.9450 H   0  0  0  0  0  0  0  0  0  0  0  0
    3.7855    2.5422    0.7150 C   0  0  0  0  0  0  0  0  0  0  0  0
    4.2614    3.1857    1.4856 H   0  0  0  0  0  0  0  0  0  0  0  0
    2.8866    3.0714    0.3388 H   0  0  0  0  0  0  0  0  0  0  0  0
    4.5061    2.4385   -0.1193 H   0  0  0  0  0  0  0  0  0  0  0  0
    2.5545    1.4570    2.5926 C   0  0  0  0  0  0  0  0  0  0  0  0
    3.1699    2.0155    3.3305 H   0  0  0  0  0  0  0  0  0  0  0  0
    2.2105    0.5219    3.0788 H   0  0  0  0  0  0  0  0  0  0  0  0
    1.6514    2.0452    2.3492 H   0  0  0  0  0  0  0  0  0  0  0  0
   -2.2960    0.2402   -0.0863 P   0  0  0  0  0  0  0  0  0  0  0  0
   -1.1270   -2.3056   -0.3619 C   0  0  0  0  0  0  0  0  0  0  0  0
   -1.1506   -3.7103   -0.3588 C   0  0  0  0  0  0  0  0  0  0  0  0
   -2.0721   -4.2333   -0.6510 H   0  0  0  0  0  0  0  0  0  0  0  0
   -2.3184   -1.5032   -0.8040 C   0  0  0  0  0  0  0  0  0  0  0  0
   -3.2603   -2.0663   -0.6454 H   0  0  0  0  0  0  0  0  0  0  0  0
   -2.2193   -1.3255   -1.8977 H   0  0  0  0  0  0  0  0  0  0  0  0
   -3.2266    0.0418    1.5928 C   0  0  0  0  0  0  0  0  0  0  0  0
   -2.5671   -1.1511    2.3122 C   0  0  0  0  0  0  0  0  0  0  0  0
   -2.8067   -2.1204    1.8311 H   0  0  0  0  0  0  0  0  0  0  0  0
   -2.9469   -1.1979    3.3551 H   0  0  0  0  0  0  0  0  0  0  0  0
   -1.4660   -1.0297    2.3519 H   0  0  0  0  0  0  0  0  0  0  0  0
   -4.7343   -0.2248    1.4852 C   0  0  0  0  0  0  0  0  0  0  0  0
   -5.1401   -0.4255    2.5005 H   0  0  0  0  0  0  0  0  0  0  0  0
   -4.9639   -1.1135    0.8625 H   0  0  0  0  0  0  0  0  0  0  0  0
   -5.2927    0.6406    1.0797 H   0  0  0  0  0  0  0  0  0  0  0  0
   -2.9645    1.3108    2.4243 C   0  0  0  0  0  0  0  0  0  0  0  0
   -3.3642    1.1679    3.4513 H   0  0  0  0  0  0  0  0  0  0  0  0
   -3.4539    2.2055    1.9950 H   0  0  0  0  0  0  0  0  0  0  0  0
   -1.8771    1.5111    2.4917 H   0  0  0  0  0  0  0  0  0  0  0  0
   -3.4089    1.1878   -1.3404 C   0  0  0  0  0  0  0  0  0  0  0  0
   -4.6700    0.4205   -1.7764 C   0  0  0  0  0  0  0  0  0  0  0  0
   -4.4208   -0.5369   -2.2760 H   0  0  0  0  0  0  0  0  0  0  0  0
   -5.2257    1.0333   -2.5187 H   0  0  0  0  0  0  0  0  0  0  0  0
   -5.3627    0.2050   -0.9447 H   0  0  0  0  0  0  0  0  0  0  0  0
   -3.7853    2.5423   -0.7151 C   0  0  0  0  0  0  0  0  0  0  0  0
   -4.2613    3.1857   -1.4856 H   0  0  0  0  0  0  0  0  0  0  0  0
   -2.8863    3.0715   -0.3390 H   0  0  0  0  0  0  0  0  0  0  0  0
   -4.5059    2.4388    0.1193 H   0  0  0  0  0  0  0  0  0  0  0  0
   -2.5546    1.4568   -2.5927 C   0  0  0  0  0  0  0  0  0  0  0  0
   -3.1700    2.0154   -3.3306 H   0  0  0  0  0  0  0  0  0  0  0  0
   -2.2107    0.5216   -3.0789 H   0  0  0  0  0  0  0  0  0  0  0  0
   -1.6514    2.0449   -2.3494 H   0  0  0  0  0  0  0  0  0  0  0  0
  1  8  1  0  0  0  0
  1 24  1  0  0  0  0
  2  3  1  0  0  0  0
  3  8  1  1  0  0  0
  4  3  1  0  0  0  0
  4  5  1  0  0  0  0
  6  7  1  0  0  0  0
  6  4  2  0  0  0  0
  8 10  1  0  0  0  0
  9  8  1  0  0  0  0
 11 16  1  0  0  0  0
 11  1  1  0  0  0  0
 12 13  1  0  0  0  0
 12 11  1  0  0  0  0
 14 12  1  0  0  0  0
 15 12  1  0  0  0  0
 16 19  1  0  0  0  0
 16 18  1  0  0  0  0
 17 16  1  0  0  0  0
 20 22  1  0  0  0  0
 20 11  1  0  0  0  0
 21 20  1  0  0  0  0
 23 20  1  0  0  0  0
 24 25  1  0  0  0  0
 24 33  1  0  0  0  0
 25 26  1  0  0  0  0
 25 27  1  0  0  0  0
 28 25  1  0  0  0  0
 29 24  1  0  0  0  0
 29 30  1  0  0  0  0
 31 29  1  0  0  0  0
 32 29  1  0  0  0  0
 33 35  1  0  0  0  0
 33 34  1  0  0  0  0
 36 33  1  0  0  0  0
 37 44  1  0  0  0  0
 38 39  2  0  0  0  0
 38  2  1  0  0  0  0
 39  6  1  0  0  0  0
 40 39  1  0  0  0  0
 41 42  1  0  0  0  0
 41 38  1  0  0  0  0
 41 37  1  0  0  0  0
 43 41  1  0  0  0  0
 44 45  1  0  0  0  0
 44 53  1  0  0  0  0
 45 48  1  0  0  0  0
 45 47  1  0  0  0  0
 46 45  1  0  0  0  0
 49 44  1  0  0  0  0
 49 50  1  0  0  0  0
 51 49  1  0  0  0  0
 52 49  1  0  0  0  0
 53 56  1  0  0  0  0
 53 54  1  0  0  0  0
 55 53  1  0  0  0  0
 57 62  1  0  0  0  0
 57 37  1  0  0  0  0
 58 57  1  0  0  0  0
 58 61  1  0  0  0  0
 59 58  1  0  0  0  0
 60 58  1  0  0  0  0
 62 64  1  0  0  0  0
 62 65  1  0  0  0  0
 63 62  1  0  0  0  0
 66 69  1  0  0  0  0
 66 57  1  0  0  0  0
 67 66  1  0  0  0  0
 68 66  1  0  0  0  0
M  END
