1,3
q = 0.0, confidence = 0.998

 44 45  0  0  1  0  0  0  0  0999 V2000
    1.1165   -0.0382   -0.1115 P   0  0  0  0  0  0  0  0  0  0  0  0
    1.7087   -0.3365    2.7286 N   0  0  0  0  0  0  0  0  0  0  0  0
   -0.3932   -0.9312    1.6718 N   0  0  0  0  0  2  0  0  0  0  0  0
    1.2553    0.0217    4.0656 C   0  0  0  0  0  0  0  0  0  0  0  0
    0.2264    0.4180    4.0125 H   0  0  0  0  0  0  0  0  0  0  0  0
    1.9125    0.8293    4.4540 H   0  0  0  0  0  0  0  0  0  0  0  0
    1.3001   -0.8282    4.7818 H   0  0  0  0  0  0  0  0  0  0  0  0
    3.1471   -0.4227    2.5397 C   0  0  0  0  0  0  0  0  0  0  0  0
    3.3864   -0.6092    1.4780 H   0  0  0  0  0  0  0  0  0  0  0  0
    3.5698   -1.2623    3.1347 H   0  0  0  0  0  0  0  0  0  0  0  0
    3.6464    0.5171    2.8606 H   0  0  0  0  0  0  0  0  0  0  0  0
    0.8491   -0.5077    1.6819 C   0  0  1  0  0  3  0  0  0  0  0  0
   -1.0513   -1.6325    2.7850 C   0  0  0  0  0  0  0  0  0  0  0  0
   -0.2812   -1.8227    3.5631 H   0  0  0  0  0  0  0  0  0  0  0  0
   -1.5607   -2.9917    2.2915 C   0  0  0  0  0  0  0  0  0  0  0  0
   -2.0272   -3.5357    3.1377 H   0  0  0  0  0  0  0  0  0  0  0  0
   -0.7341   -3.6061    1.8860 H   0  0  0  0  0  0  0  0  0  0  0  0
   -2.3108   -2.8515    1.4898 H   0  0  0  0  0  0  0  0  0  0  0  0
   -2.1791   -0.7855    3.3865 C   0  0  0  0  0  0  0  0  0  0  0  0
   -2.5782   -1.2801    4.2945 H   0  0  0  0  0  0  0  0  0  0  0  0
   -2.9950   -0.6942    2.6427 H   0  0  0  0  0  0  0  0  0  0  0  0
   -1.8326    0.2339    3.6436 H   0  0  0  0  0  0  0  0  0  0  0  0
    1.9567    1.5944   -0.1827 C   0  0  0  0  0  0  0  0  0  0  0  0
    2.1429    2.3900    0.9673 C   0  0  0  0  0  0  0  0  0  0  0  0
    1.8236    2.0167    1.9475 H   0  0  0  0  0  0  0  0  0  0  0  0
    2.6641    3.6875    0.8495 C   0  0  0  0  0  0  0  0  0  0  0  0
    2.7944    4.3007    1.7539 H   0  0  0  0  0  0  0  0  0  0  0  0
    2.9982    4.2106   -0.4088 C   0  0  0  0  0  0  0  0  0  0  0  0
    3.4010    5.2310   -0.4950 H   0  0  0  0  0  0  0  0  0  0  0  0
    2.7982    3.4324   -1.5608 C   0  0  0  0  0  0  0  0  0  0  0  0
    3.0387    3.8398   -2.5543 H   0  0  0  0  0  0  0  0  0  0  0  0
    2.2750    2.1367   -1.4492 C   0  0  0  0  0  0  0  0  0  0  0  0
    2.0937    1.5497   -2.3625 H   0  0  0  0  0  0  0  0  0  0  0  0
    2.3980   -1.2419   -0.6963 C   0  0  0  0  0  0  0  0  0  0  0  0
    3.5665   -0.8529   -1.3835 C   0  0  0  0  0  0  0  0  0  0  0  0
    3.7632    0.2067   -1.5958 H   0  0  0  0  0  0  0  0  0  0  0  0
    4.5104   -1.8147   -1.7776 C   0  0  0  0  0  0  0  0  0  0  0  0
    5.4180   -1.4951   -2.3121 H   0  0  0  0  0  0  0  0  0  0  0  0
    4.3031   -3.1707   -1.4844 C   0  0  0  0  0  0  0  0  0  0  0  0
    5.0448   -3.9230   -1.7932 H   0  0  0  0  0  0  0  0  0  0  0  0
    3.1477   -3.5612   -0.7890 C   0  0  0  0  0  0  0  0  0  0  0  0
    2.9767   -4.6221   -0.5511 H   0  0  0  0  0  0  0  0  0  0  0  0
    2.1963   -2.6089   -0.3989 C   0  0  0  0  0  0  0  0  0  0  0  0
    1.2812   -2.9214    0.1219 H   0  0  0  0  0  0  0  0  0  0  0  0
  1 12  1  0  0  0  0
  2  4  1  0  0  0  0
  3 13  1  0  0  0  0
  4  6  1  0  0  0  0
  4  7  1  0  0  0  0
  5  4  1  0  0  0  0
  8  2  1  0  0  0  0
  8 11  1  0  0  0  0
  8 10  1  0  0  0  0
  9  8  1  0  0  0  0
 12  3  1  1  0  0  0
 12  2  1  0  0  0  0
 13 19  1  0  0  0  0
 13 14  1  0  0  0  0
 15 13  1  0  0  0  0
 15 16  1  0  0  0  0
 17 15  1  0  0  0  0
 18 15  1  0  0  0  0
 19 22  1  0  0  0  0
 19 20  1  0  0  0  0
 21 19  1  0  0  0  0
 23  1  1  0  0  0  0
 23 24  1  0  0  0  0
 24 25  1  0  0  0  0
 26 24  2  0  0  0  0
 26 27  1  0  0  0  0
 28 26  1  0  0  0  0
 29 28  1  0  0  0  0
 30 32  1  0  0  0  0
 30 28  2  0  0  0  0
 31 30  1  0  0  0  0
 32 23  2  0  0  0  0
 33 32  1  0  0  0  0
 34 43  1  0  0  0  0
 34  1  1  0  0  0  0
 35 34  2  0  0  0  0
 36 35  1  0  0  0  0
 37 39  2  0  0  0  0
 37 35  1  0  0  0  0
 38 37  1  0  0  0  0
 39 41  1  0  0  0  0
 40 39  1  0  0  0  0
 41 42  1  0  0  0  0
 41 43  2  0  0  0  0
 43 44  1  0  0  0  0
M  END
