1,2
q = 0.0, confidence = 0.998

 36 38  0  0  1  0  0  0  0  0999 V2000
    2.0578    0.1865    0.0578 P   0  0  0  0  0  0  0  0  0  0  0  0
    0.7113   -1.5741    1.4144 N   0  0  0  0  0  2  0  0  0  0  0  0
    1.8066   -0.7838    1.6120 C   0  0  1  0  0  3  0  0  0  0  0  0
    0.2789   -2.4022    2.3990 C   0  0  0  0  0  0  0  0  0  0  0  0
   -0.9513   -3.2146    2.1559 C   0  0  0  0  0  0  0  0  0  0  0  0
    0.9932   -2.4615    3.6145 C   0  0  0  0  0  0  0  0  0  0  0  0
    2.1234   -1.6629    3.8184 C   0  0  0  0  0  0  0  0  0  0  0  0
    2.5390   -0.7905    2.7987 C   0  0  0  0  0  0  0  0  0  0  0  0
    3.7774   -0.0515   -0.5148 C   0  0  0  0  0  0  0  0  0  0  0  0
    4.0030   -0.7136   -1.7379 C   0  0  0  0  0  0  0  0  0  0  0  0
    5.3148   -0.9123   -2.1951 C   0  0  0  0  0  0  0  0  0  0  0  0
    6.4003   -0.4547   -1.4332 C   0  0  0  0  0  0  0  0  0  0  0  0
    6.1779    0.2194   -0.2195 C   0  0  0  0  0  0  0  0  0  0  0  0
    4.8710    0.4311    0.2376 C   0  0  0  0  0  0  0  0  0  0  0  0
    2.0032    1.9422    0.5837 C   0  0  0  0  0  0  0  0  0  0  0  0
    2.5934    2.9149   -0.2523 C   0  0  0  0  0  0  0  0  0  0  0  0
    2.4959    4.2736    0.0757 C   0  0  0  0  0  0  0  0  0  0  0  0
    1.8170    4.6716    1.2393 C   0  0  0  0  0  0  0  0  0  0  0  0
    1.2337    3.7059    2.0732 C   0  0  0  0  0  0  0  0  0  0  0  0
    1.3178    2.3436    1.7470 C   0  0  0  0  0  0  0  0  0  0  0  0
   -0.7864   -3.9551    1.3476 H   0  0  0  0  0  0  0  0  0  0  0  0
   -1.2566   -3.7613    3.0662 H   0  0  0  0  0  0  0  0  0  0  0  0
   -1.7746   -2.5398    1.8446 H   0  0  0  0  0  0  0  0  0  0  0  0
    0.6485   -3.1513    4.3980 H   0  0  0  0  0  0  0  0  0  0  0  0
    2.6785   -1.7171    4.7669 H   0  0  0  0  0  0  0  0  0  0  0  0
    3.4128   -0.1358    2.9181 H   0  0  0  0  0  0  0  0  0  0  0  0
    3.1490   -1.0654   -2.3355 H   0  0  0  0  0  0  0  0  0  0  0  0
    5.4867   -1.4268   -3.1519 H   0  0  0  0  0  0  0  0  0  0  0  0
    7.4285   -0.6152   -1.7903 H   0  0  0  0  0  0  0  0  0  0  0  0
    7.0299    0.5891    0.3703 H   0  0  0  0  0  0  0  0  0  0  0  0
    4.7012    0.9907    1.1703 H   0  0  0  0  0  0  0  0  0  0  0  0
    3.1382    2.6084   -1.1587 H   0  0  0  0  0  0  0  0  0  0  0  0
    2.9590    5.0267   -0.5792 H   0  0  0  0  0  0  0  0  0  0  0  0
    1.7484    5.7385    1.4989 H   0  0  0  0  0  0  0  0  0  0  0  0
    0.7064    4.0109    2.9892 H   0  0  0  0  0  0  0  0  0  0  0  0
    0.8502    1.5968    2.4057 H   0  0  0  0  0  0  0  0  0  0  0  0
  1 15  1  0  0  0  0
  2  3  1  0  0  0  0
  2  4  1  0  0  0  0
  3  1  1  6  0  0  0
  3  8  1  0  0  0  0
  4  6  2  0  0  0  0
  5  4  1  0  0  0  0
  5 22  1  0  0  0  0
  6  7  1  0  0  0  0
  6 24  1  0  0  0  0
  7 25  1  0  0  0  0
  8 26  1  0  0  0  0
  8  7  2  0  0  0  0
  9  1  1  0  0  0  0
  9 14  1  0  0  0  0
 10  9  2  0  0  0  0
 11 10  1  0  0  0  0
 11 12  2  0  0  0  0
 12 13  1  0  0  0  0
 13 14  2  0  0  0  0
 13 30  1  0  0  0  0
 14 31  1  0  0  0  0
 15 20  1  0  0  0  0
 16 17  1  0  0  0  0
 16 15  2  0  0  0  0
 17 18  2  0  0  0  0
 18 34  1  0  0  0  0
 18 19  1  0  0  0  0
 19 35  1  0  0  0  0
 20 19  2  0  0  0  0
 20 36  1  0  0  0  0
 21  5  1  0  0  0  0
 23  5  1  0  0  0  0
 27 10  1  0  0  0  0
 28 11  1  0  0  0  0
 29 12  1  0  0  0  0
 32 16  1  0  0  0  0
 33 17  1  0  0  0  0
M  END
