1,2
q = 0.0, confidence = 0.996

 34 34  0  0  0  0  0  0  0  0999 V2000
   -1.0096   -1.4922    0.6489 P   0  0  0  0  0  0  0  0  0  0  0  0
   -1.9543    0.7590   -0.8693 N   0  0  0  0  0  2  0  0  0  0  0  0
   -2.2014    1.9868   -1.3938 C   0  0  0  0  0  3  0  0  0  0  0  0
   -1.3100    2.5082   -1.7758 H   0  0  0  0  0  0  0  0  0  0  0  0
   -3.4846    2.5261   -1.4974 C   0  0  0  0  0  0  0  0  0  0  0  0
   -3.6103    3.5295   -1.9285 H   0  0  0  0  0  0  0  0  0  0  0  0
   -4.5802    1.7733   -1.0519 C   0  0  0  0  0  0  0  0  0  0  0  0
   -5.6048    2.1704   -1.1058 H   0  0  0  0  0  0  0  0  0  0  0  0
   -4.3366    0.4881   -0.5555 C   0  0  0  0  0  0  0  0  0  0  0  0
   -5.1633   -0.1569   -0.2243 H   0  0  0  0  0  0  0  0  0  0  0  0
   -3.0246   -0.0098   -0.4905 C   0  0  0  0  0  0  0  0  0  0  0  0
   -2.7381   -1.4115   -0.0488 C   0  0  0  0  0  0  0  0  0  0  0  0
   -2.6595   -2.0340   -0.9686 H   0  0  0  0  0  0  0  0  0  0  0  0
   -3.5329   -1.8166    0.6080 H   0  0  0  0  0  0  0  0  0  0  0  0
   -0.5295   -3.3007    0.4608 C   0  0  0  0  0  0  0  0  0  0  0  0
   -0.2808   -3.2849   -0.6235 H   0  0  0  0  0  0  0  0  0  0  0  0
   -1.6276   -4.3546    0.6470 C   0  0  0  0  0  0  0  0  0  0  0  0
   -1.2514   -5.3375    0.2917 H   0  0  0  0  0  0  0  0  0  0  0  0
   -2.5331   -4.1241    0.0531 H   0  0  0  0  0  0  0  0  0  0  0  0
   -1.9320   -4.4846    1.7027 H   0  0  0  0  0  0  0  0  0  0  0  0
    0.7371   -3.6187    1.2620 C   0  0  0  0  0  0  0  0  0  0  0  0
    1.1110   -4.6309    1.0012 H   0  0  0  0  0  0  0  0  0  0  0  0
    0.5545   -3.6087    2.3567 H   0  0  0  0  0  0  0  0  0  0  0  0
    1.5532   -2.9022    1.0454 H   0  0  0  0  0  0  0  0  0  0  0  0
   -1.3271   -1.1649    2.4861 C   0  0  0  0  0  0  0  0  0  0  0  0
   -0.3131   -1.0421    2.9174 H   0  0  0  0  0  0  0  0  0  0  0  0
   -2.0396   -2.2824    3.2547 C   0  0  0  0  0  0  0  0  0  0  0  0
   -2.2424   -1.9501    4.2951 H   0  0  0  0  0  0  0  0  0  0  0  0
   -1.4376   -3.2080    3.3160 H   0  0  0  0  0  0  0  0  0  0  0  0
   -3.0184   -2.5393    2.7998 H   0  0  0  0  0  0  0  0  0  0  0  0
   -2.0874    0.1604    2.6325 C   0  0  0  0  0  0  0  0  0  0  0  0
   -2.0529    0.5172    3.6830 H   0  0  0  0  0  0  0  0  0  0  0  0
   -3.1558    0.0415    2.3606 H   0  0  0  0  0  0  0  0  0  0  0  0
   -1.6697    0.9519    1.9815 H   0  0  0  0  0  0  0  0  0  0  0  0
  1 25  1  0  0  0  0
  2 11  1  0  0  0  0
  3  2  1  0  0  0  0
  4  3  1  0  0  0  0
  5  3  1  0  0  0  0
  5  7  2  0  0  0  0
  6  5  1  0  0  0  0
  7  9  1  0  0  0  0
  8  7  1  0  0  0  0
  9 11  2  0  0  0  0
  9 10  1  0  0  0  0
 11 12  1  0  0  0  0
 12 14  1  0  0  0  0
 12  1  1  0  0  0  0
 13 12  1  0  0  0  0
 15 17  1  0  0  0  0
 15  1  1  0  0  0  0
 15 21  1  0  0  0  0
 16 15  1  0  0  0  0
 17 20  1  0  0  0  0
 18 17  1  0  0  0  0
 19 17  1  0  0  0  0
 21 23  1  0  0  0  0
 22 21  1  0  0  0  0
 24 21  1  0  0  0  0
 25 31  1  0  0  0  0
 25 26  1  0  0  0  0
 25 27  1  0  0  0  0
 27 29  1  0  0  0  0
 27 28  1  0  0  0  0
 30 27  1  0  0  0  0
 31 32  1  0  0  0  0
 33 31  1  0  0  0  0
 34 31  1  0  0  0  0
M  END
