1,4
q = 0.0, confidence = 0.994

 48 50  0  0  1  0  0  0  0  0999 V2000
    0.8275    0.4294    0.1771 P   0  0  0  0  0  0  0  0  0  0  0  0
    0.4814    0.8564    1.7698 O   0  0  0  0  0  0  0  0  0  0  0  0
   -2.9100    1.2272    1.9915 O   0  0  0  0  0  0  0  0  0  0  0  0
   -2.0531   -0.1947    0.4676 N   0  0  0  0  0  2  0  0  0  0  0  0
    0.5068    2.0076   -0.7054 C   0  0  0  0  0  0  0  0  0  0  0  0
   -0.6703    0.3243    2.4857 C   0  0  0  0  0  0  0  0  0  0  0  0
    2.6461    0.3531    0.2970 C   0  0  0  0  0  0  0  0  0  0  0  0
    3.2614   -0.1150    1.4744 C   0  0  0  0  0  0  0  0  0  0  0  0
    2.6445   -0.3451    2.3541 H   0  0  0  0  0  0  0  0  0  0  0  0
   -0.8065    1.2190    3.7160 C   0  0  0  0  0  0  0  0  0  0  0  0
    0.1269    1.1582    4.3063 H   0  0  0  0  0  0  0  0  0  0  0  0
   -1.6549    0.8892    4.3448 H   0  0  0  0  0  0  0  0  0  0  0  0
   -0.9778    2.2699    3.4185 H   0  0  0  0  0  0  0  0  0  0  0  0
   -3.4286    0.0975   -0.0404 C   0  0  0  0  0  0  0  0  0  0  0  0
    5.4362    0.0151    0.3909 C   0  0  0  0  0  0  0  0  0  0  0  0
    6.5279   -0.1181    0.4273 H   0  0  0  0  0  0  0  0  0  0  0  0
   -0.4197   -1.1389    2.8686 C   0  0  0  0  0  0  0  0  0  0  0  0
    0.4673   -1.2008    3.5290 H   0  0  0  0  0  0  0  0  0  0  0  0
   -0.2430   -1.7551    1.9616 H   0  0  0  0  0  0  0  0  0  0  0  0
   -1.2937   -1.5575    3.4054 H   0  0  0  0  0  0  0  0  0  0  0  0
    0.6378    3.2466   -0.0467 C   0  0  0  0  0  0  0  0  0  0  0  0
    0.9365    3.2672    1.0122 H   0  0  0  0  0  0  0  0  0  0  0  0
   -4.3011   -1.1381    0.2240 C   0  0  0  0  0  0  0  0  0  0  0  0
   -4.3424   -1.3646    1.3089 H   0  0  0  0  0  0  0  0  0  0  0  0
   -3.8684   -2.0091   -0.3079 H   0  0  0  0  0  0  0  0  0  0  0  0
   -5.3338   -0.9571   -0.1383 H   0  0  0  0  0  0  0  0  0  0  0  0
   -0.1405    3.1604   -2.7501 C   0  0  0  0  0  0  0  0  0  0  0  0
   -0.4491    3.1257   -3.8059 H   0  0  0  0  0  0  0  0  0  0  0  0
    4.6541   -0.2749    1.5199 C   0  0  0  0  0  0  0  0  0  0  0  0
    5.1310   -0.6362    2.4435 H   0  0  0  0  0  0  0  0  0  0  0  0
    4.8237    0.4772   -0.7860 C   0  0  0  0  0  0  0  0  0  0  0  0
    5.4337    0.7098   -1.6718 H   0  0  0  0  0  0  0  0  0  0  0  0
    0.3732    4.4357   -0.7408 C   0  0  0  0  0  0  0  0  0  0  0  0
    0.4690    5.4035   -0.2251 H   0  0  0  0  0  0  0  0  0  0  0  0
    0.1092    1.9657   -2.0564 C   0  0  0  0  0  0  0  0  0  0  0  0
   -0.0199    0.9875   -2.5488 H   0  0  0  0  0  0  0  0  0  0  0  0
    3.4333    0.6495   -0.8350 C   0  0  0  0  0  0  0  0  0  0  0  0
    2.9581    1.0239   -1.7550 H   0  0  0  0  0  0  0  0  0  0  0  0
   -3.8304    1.2929    0.8654 C   0  0  0  0  0  0  0  0  0  0  0  0
   -3.6779    2.2759    0.3703 H   0  0  0  0  0  0  0  0  0  0  0  0
   -4.8623    1.2282    1.2585 H   0  0  0  0  0  0  0  0  0  0  0  0
   -0.0115    4.3941   -2.0923 C   0  0  0  0  0  0  0  0  0  0  0  0
   -0.2169    5.3302   -2.6338 H   0  0  0  0  0  0  0  0  0  0  0  0
   -3.3967    0.4573   -1.5246 C   0  0  0  0  0  0  0  0  0  0  0  0
   -2.7052    1.3026   -1.7121 H   0  0  0  0  0  0  0  0  0  0  0  0
   -4.4109    0.7414   -1.8713 H   0  0  0  0  0  0  0  0  0  0  0  0
   -3.0542   -0.4232   -2.1039 H   0  0  0  0  0  0  0  0  0  0  0  0
   -1.9030    0.4239    1.5906 C   0  0  1  0  0  3  0  0  0  0  0  0
  1  7  1  0  0  0  0
  1  2  1  0  0  0  0
  2  6  1  0  0  0  0
  4 48  1  0  0  0  0
  5 21  1  0  0  0  0
  5  1  1  0  0  0  0
  6 17  1  0  0  0  0
  6 10  1  0  0  0  0
  7  8  1  0  0  0  0
  8 29  2  0  0  0  0
  8  9  1  0  0  0  0
 10 11  1  0  0  0  0
 10 12  1  0  0  0  0
 13 10  1  0  0  0  0
 14 23  1  0  0  0  0
 14  4  1  0  0  0  0
 14 39  1  0  0  0  0
 15 16  1  0  0  0  0
 15 29  1  0  0  0  0
 17 20  1  0  0  0  0
 17 18  1  0  0  0  0
 19 17  1  0  0  0  0
 21 22  1  0  0  0  0
 23 24  1  0  0  0  0
 25 23  1  0  0  0  0
 26 23  1  0  0  0  0
 27 42  2  0  0  0  0
 27 35  1  0  0  0  0
 28 27  1  0  0  0  0
 29 30  1  0  0  0  0
 31 15  2  0  0  0  0
 32 31  1  0  0  0  0
 33 34  1  0  0  0  0
 33 21  2  0  0  0  0
 35  5  2  0  0  0  0
 36 35  1  0  0  0  0
 37 31  1  0  0  0  0
 37  7  2  0  0  0  0
 38 37  1  0  0  0  0
 39 41  1  0  0  0  0
 39  3  1  0  0  0  0
 40 39  1  0  0  0  0
 42 33  1  0  0  0  0
 43 42  1  0  0  0  0
 44 14  1  0  0  0  0
 45 44  1  0  0  0  0
 46 44  1  0  0  0  0
 47 44  1  0  0  0  0
 48  3  1  0  0  0  0
 48  6  1  6  0  0  0
M  END
