1,2
q = 0.0, confidence = 0.992

 62 64  0  0  1  0  0  0  0  0999 V2000
   -0.3198   -0.8621    0.1373 P   0  0  1  0  0  0  0  0  0  0  0  0
   -2.8906    0.5407   -0.8844 N   0  0  0  0  0  2  0  0  0  0  0  0
    4.6024   -0.2672   -0.2192 N   0  0  0  0  0  0  0  0  0  0  0  0
    1.3075   -0.6189    0.0356 O   0  0  0  0  0  0  0  0  0  0  0  0
    3.1436   -0.0506   -1.9567 O   0  0  0  0  0  0  0  0  0  0  0  0
   -3.7915   -0.5565   -2.6353 O   0  0  0  0  0  0  0  0  0  0  0  0
   -0.7826   -1.5332   -1.3218 O   0  0  0  0  0  0  0  0  0  0  0  0
   -2.7016   -0.2047   -1.9185 C   0  0  2  0  0  3  0  0  0  0  0  0
   -0.5839   -2.3259    1.1970 C   0  0  0  0  0  0  0  0  0  0  0  0
    2.4425   -1.5253   -0.1505 C   0  0  0  0  0  0  0  0  0  0  0  0
   -1.3457   -0.7277   -2.3978 C   0  0  0  0  0  0  0  0  0  0  0  0
   -4.3367    0.9014   -0.8304 C   0  0  0  0  0  0  0  0  0  0  0  0
    3.4812   -0.5896   -0.7453 C   0  0  0  0  0  0  0  0  0  0  0  0
   -4.9358   -0.0942   -1.8631 C   0  0  0  0  0  0  0  0  0  0  0  0
   -5.3963   -0.9850   -1.3846 H   0  0  0  0  0  0  0  0  0  0  0  0
   -5.6593    0.3676   -2.5611 H   0  0  0  0  0  0  0  0  0  0  0  0
   -4.4794    2.3586   -1.2950 C   0  0  0  0  0  0  0  0  0  0  0  0
   -4.0993    2.4786   -2.3301 H   0  0  0  0  0  0  0  0  0  0  0  0
   -3.8967    3.0176   -0.6206 H   0  0  0  0  0  0  0  0  0  0  0  0
   -5.5465    2.6608   -1.2740 H   0  0  0  0  0  0  0  0  0  0  0  0
   -0.9619   -3.5866    0.6921 C   0  0  0  0  0  0  0  0  0  0  0  0
   -1.1020   -3.7155   -0.3907 H   0  0  0  0  0  0  0  0  0  0  0  0
   -0.4262    0.4454   -2.7617 C   0  0  0  0  0  0  0  0  0  0  0  0
   -0.3668    1.1704   -1.9245 H   0  0  0  0  0  0  0  0  0  0  0  0
   -0.8239    0.9766   -3.6488 H   0  0  0  0  0  0  0  0  0  0  0  0
    0.5932    0.0736   -2.9806 H   0  0  0  0  0  0  0  0  0  0  0  0
   -0.9984   -4.4740    2.9574 C   0  0  0  0  0  0  0  0  0  0  0  0
   -1.1577   -5.3173    3.6468 H   0  0  0  0  0  0  0  0  0  0  0  0
   -0.4444   -2.1319    2.5895 C   0  0  0  0  0  0  0  0  0  0  0  0
   -0.1879   -1.1344    2.9832 H   0  0  0  0  0  0  0  0  0  0  0  0
    2.8957   -2.0485    1.2097 C   0  0  0  0  0  0  0  0  0  0  0  0
    2.1455   -2.7526    1.6153 H   0  0  0  0  0  0  0  0  0  0  0  0
    3.0253   -1.2096    1.9179 H   0  0  0  0  0  0  0  0  0  0  0  0
    3.8681   -2.5663    1.1111 H   0  0  0  0  0  0  0  0  0  0  0  0
    5.2846    0.6349   -1.1786 C   0  0  0  0  0  0  0  0  0  0  0  0
    5.7439    1.9106   -0.4669 C   0  0  0  0  0  0  0  0  0  0  0  0
    4.8894    2.4265    0.0138 H   0  0  0  0  0  0  0  0  0  0  0  0
    6.2216    2.6091   -1.1845 H   0  0  0  0  0  0  0  0  0  0  0  0
    6.4821    1.6642    0.3214 H   0  0  0  0  0  0  0  0  0  0  0  0
   -1.1629   -4.6582    1.5747 C   0  0  0  0  0  0  0  0  0  0  0  0
   -1.4547   -5.6435    1.1800 H   0  0  0  0  0  0  0  0  0  0  0  0
   -4.8838    0.7073    0.5835 C   0  0  0  0  0  0  0  0  0  0  0  0
   -4.3694    1.4064    1.2726 H   0  0  0  0  0  0  0  0  0  0  0  0
   -4.7122   -0.3296    0.9356 H   0  0  0  0  0  0  0  0  0  0  0  0
   -5.9725    0.9169    0.6091 H   0  0  0  0  0  0  0  0  0  0  0  0
   -1.5039   -1.7015   -3.5633 C   0  0  0  0  0  0  0  0  0  0  0  0
   -0.5041   -2.0704   -3.8603 H   0  0  0  0  0  0  0  0  0  0  0  0
   -1.9769   -1.1994   -4.4277 H   0  0  0  0  0  0  0  0  0  0  0  0
   -2.1348   -2.5616   -3.2714 H   0  0  0  0  0  0  0  0  0  0  0  0
    6.4763   -0.1242   -1.7824 C   0  0  0  0  0  0  0  0  0  0  0  0
    7.1689   -0.4462   -0.9804 H   0  0  0  0  0  0  0  0  0  0  0  0
    7.0337    0.5186   -2.4942 H   0  0  0  0  0  0  0  0  0  0  0  0
    6.1327   -1.0296   -2.3228 H   0  0  0  0  0  0  0  0  0  0  0  0
    2.1382   -2.6577   -1.1372 C   0  0  0  0  0  0  0  0  0  0  0  0
    1.3677   -3.3347   -0.7245 H   0  0  0  0  0  0  0  0  0  0  0  0
    3.0610   -3.2474   -1.3057 H   0  0  0  0  0  0  0  0  0  0  0  0
    1.7890   -2.2592   -2.1064 H   0  0  0  0  0  0  0  0  0  0  0  0
    4.1775    0.9188   -2.2445 C   0  0  0  0  0  0  0  0  0  0  0  0
    3.7388    1.9344   -2.1404 H   0  0  0  0  0  0  0  0  0  0  0  0
    4.5143    0.7740   -3.2902 H   0  0  0  0  0  0  0  0  0  0  0  0
   -0.6458   -3.2110    3.4618 C   0  0  0  0  0  0  0  0  0  0  0  0
   -0.5340   -3.0601    4.5461 H   0  0  0  0  0  0  0  0  0  0  0  0
  1  7  1  6  0  0  0
  1  9  1  0  0  0  0
  2 12  1  0  0  0  0
  4  1  1  0  0  0  0
  5 13  1  0  0  0  0
  6  8  1  0  0  0  0
  6 14  1  0  0  0  0
  8 11  1  1  0  0  0
  8  2  1  0  0  0  0
  9 29  1  0  0  0  0
 10  4  1  0  0  0  0
 10 31  1  0  0  0  0
 11  7  1  0  0  0  0
 12 42  1  0  0  0  0
 13  3  2  0  0  0  0
 13 10  1  0  0  0  0
 14 15  1  0  0  0  0
 14 12  1  0  0  0  0
 16 14  1  0  0  0  0
 17 20  1  0  0  0  0
 17 12  1  0  0  0  0
 17 19  1  0  0  0  0
 18 17  1  0  0  0  0
 21  9  2  0  0  0  0
 21 40  1  0  0  0  0
 22 21  1  0  0  0  0
 23 11  1  0  0  0  0
 23 24  1  0  0  0  0
 25 23  1  0  0  0  0
 26 23  1  0  0  0  0
 27 61  1  0  0  0  0
 27 28  1  0  0  0  0
 29 30  1  0  0  0  0
 29 61  2  0  0  0  0
 31 32  1  0  0  0  0
 31 33  1  0  0  0  0
 34 31  1  0  0  0  0
 35 36  1  0  0  0  0
 35  3  1  0  0  0  0
 36 37  1  0  0  0  0
 36 39  1  0  0  0  0
 38 36  1  0  0  0  0
 40 27  2  0  0  0  0
 41 40  1  0  0  0  0
 42 45  1  0  0  0  0
 42 44  1  0  0  0  0
 42 43  1  0  0  0  0
 46 49  1  0  0  0  0
 46 11  1  0  0  0  0
 47 46  1  0  0  0  0
 48 46  1  0  0  0  0
 50 35  1  0  0  0  0
 50 51  1  0  0  0  0
 52 50  1  0  0  0  0
 53 50  1  0  0  0  0
 54 55  1  0  0  0  0
 54 10  1  0  0  0  0
 56 54  1  0  0  0  0
 57 54  1  0  0  0  0
 58 59  1  0  0  0  0
 58  5  1  0  0  0  0
 58 35  1  0  0  0  0
 60 58  1  0  0  0  0
 61 62  1  0  0  0  0
M  END
