1,2
q = 0.0, confidence = 1.0

 75 82  0  0  0  0  0  0  0  0999 V2000
    2.8156    0.1929   -0.2432 P   0  0  0  0  0  0  0  0  0  0  0  0
    0.5551   -0.7910    1.3852 N   0  0  0  0  0  2  0  0  0  0  0  0
   -0.7445   -1.1086    1.2464 N   0  0  0  0  0  0  0  0  0  0  0  0
   -1.7789   -0.5974    2.1598 C   0  0  0  0  0  0  0  0  0  0  0  0
   -1.3678   -0.5006    3.1789 H   0  0  0  0  0  0  0  0  0  0  0  0
   -2.5547   -1.3864    2.2036 H   0  0  0  0  0  0  0  0  0  0  0  0
   -2.3649    0.7000    1.6428 C   0  0  0  0  0  0  0  0  0  0  0  0
   -2.0312    1.9459    2.2406 C   0  0  0  0  0  0  0  0  0  0  0  0
   -1.4164    1.9558    3.1540 H   0  0  0  0  0  0  0  0  0  0  0  0
   -2.4862    3.1376    1.7044 C   0  0  0  0  0  0  0  0  0  0  0  0
   -2.2432    4.0969    2.1870 H   0  0  0  0  0  0  0  0  0  0  0  0
   -3.2388    3.1448    0.4960 C   0  0  0  0  0  0  0  0  0  0  0  0
   -3.6275    4.3645   -0.1335 C   0  0  0  0  0  0  0  0  0  0  0  0
   -3.3710    5.3155    0.3592 H   0  0  0  0  0  0  0  0  0  0  0  0
   -4.2949    4.3583   -1.3486 C   0  0  0  0  0  0  0  0  0  0  0  0
   -4.5817    5.3066   -1.8277 H   0  0  0  0  0  0  0  0  0  0  0  0
   -4.5992    3.1240   -1.9839 C   0  0  0  0  0  0  0  0  0  0  0  0
   -5.1092    3.1231   -2.9591 H   0  0  0  0  0  0  0  0  0  0  0  0
   -4.2569    1.9207   -1.3851 C   0  0  0  0  0  0  0  0  0  0  0  0
   -4.4914    0.9699   -1.8840 H   0  0  0  0  0  0  0  0  0  0  0  0
   -3.5824    1.8893   -0.1274 C   0  0  0  0  0  0  0  0  0  0  0  0
   -3.1920    0.6561    0.5051 C   0  0  0  0  0  0  0  0  0  0  0  0
   -3.6176   -0.6778   -0.0096 C   0  0  0  0  0  0  0  0  0  0  0  0
   -5.0085   -1.0414   -0.1163 C   0  0  0  0  0  0  0  0  0  0  0  0
   -6.0733   -0.1629    0.2503 C   0  0  0  0  0  0  0  0  0  0  0  0
   -5.8331    0.8333    0.6454 H   0  0  0  0  0  0  0  0  0  0  0  0
   -7.3990   -0.5502    0.1237 C   0  0  0  0  0  0  0  0  0  0  0  0
   -8.2002    0.1458    0.4152 H   0  0  0  0  0  0  0  0  0  0  0  0
   -7.7306   -1.8394   -0.3709 C   0  0  0  0  0  0  0  0  0  0  0  0
   -8.7861   -2.1335   -0.4728 H   0  0  0  0  0  0  0  0  0  0  0  0
   -6.7228   -2.7299   -0.7044 C   0  0  0  0  0  0  0  0  0  0  0  0
   -6.9662   -3.7414   -1.0653 H   0  0  0  0  0  0  0  0  0  0  0  0
   -5.3486   -2.3694   -0.5743 C   0  0  0  0  0  0  0  0  0  0  0  0
   -4.3092   -3.3044   -0.8503 C   0  0  0  0  0  0  0  0  0  0  0  0
   -4.5823   -4.3186   -1.1803 H   0  0  0  0  0  0  0  0  0  0  0  0
   -2.9810   -2.9562   -0.6802 C   0  0  0  0  0  0  0  0  0  0  0  0
   -2.1717   -3.6839   -0.8459 H   0  0  0  0  0  0  0  0  0  0  0  0
   -2.6300   -1.6392   -0.2771 C   0  0  0  0  0  0  0  0  0  0  0  0
   -1.1763   -1.2683   -0.1609 C   0  0  0  0  0  0  0  0  0  0  0  0
   -0.5396   -2.0538   -0.6119 H   0  0  0  0  0  0  0  0  0  0  0  0
   -0.9955   -0.3066   -0.6916 H   0  0  0  0  0  0  0  0  0  0  0  0
    1.0067   -0.0544    2.3755 C   0  0  0  0  0  3  0  0  0  0  0  0
    0.3046    0.2736    3.1573 H   0  0  0  0  0  0  0  0  0  0  0  0
    2.3674    0.4505    2.5337 C   0  0  0  0  0  0  0  0  0  0  0  0
    2.7521    0.8543    3.8353 C   0  0  0  0  0  0  0  0  0  0  0  0
    2.0463    0.6966    4.6660 H   0  0  0  0  0  0  0  0  0  0  0  0
    4.0053    1.4226    4.0883 C   0  0  0  0  0  0  0  0  0  0  0  0
    4.2806    1.7037    5.1158 H   0  0  0  0  0  0  0  0  0  0  0  0
    4.9041    1.6302    3.0315 C   0  0  0  0  0  0  0  0  0  0  0  0
    5.8911    2.0791    3.2168 H   0  0  0  0  0  0  0  0  0  0  0  0
    4.5338    1.2711    1.7261 C   0  0  0  0  0  0  0  0  0  0  0  0
    5.2280    1.4512    0.8923 H   0  0  0  0  0  0  0  0  0  0  0  0
    3.2830    0.6857    1.4612 C   0  0  0  0  0  0  0  0  0  0  0  0
    4.2998    0.4927   -1.2607 C   0  0  0  0  0  0  0  0  0  0  0  0
    4.4101    1.6500   -2.0574 C   0  0  0  0  0  0  0  0  0  0  0  0
    3.5791    2.3697   -2.1015 H   0  0  0  0  0  0  0  0  0  0  0  0
    5.5826    1.8823   -2.7926 C   0  0  0  0  0  0  0  0  0  0  0  0
    5.6654    2.7860   -3.4152 H   0  0  0  0  0  0  0  0  0  0  0  0
    6.6436    0.9652   -2.7331 C   0  0  0  0  0  0  0  0  0  0  0  0
    7.5613    1.1480   -3.3127 H   0  0  0  0  0  0  0  0  0  0  0  0
    6.5320   -0.1892   -1.9405 C   0  0  0  0  0  0  0  0  0  0  0  0
    7.3579   -0.9153   -1.9022 H   0  0  0  0  0  0  0  0  0  0  0  0
    5.3623   -0.4353   -1.2085 C   0  0  0  0  0  0  0  0  0  0  0  0
    5.2538   -1.3557   -0.6176 H   0  0  0  0  0  0  0  0  0  0  0  0
    1.5589    1.4035   -0.8103 C   0  0  0  0  0  0  0  0  0  0  0  0
    0.8528    1.0895   -1.9925 C   0  0  0  0  0  0  0  0  0  0  0  0
    1.1093    0.1759   -2.5528 H   0  0  0  0  0  0  0  0  0  0  0  0
   -0.1899    1.9192   -2.4270 C   0  0  0  0  0  0  0  0  0  0  0  0
   -0.7463    1.6647   -3.3416 H   0  0  0  0  0  0  0  0  0  0  0  0
   -0.5424    3.0578   -1.6824 C   0  0  0  0  0  0  0  0  0  0  0  0
   -1.3830    3.6902   -2.0048 H   0  0  0  0  0  0  0  0  0  0  0  0
    0.1644    3.3740   -0.5125 C   0  0  0  0  0  0  0  0  0  0  0  0
   -0.1145    4.2622    0.0735 H   0  0  0  0  0  0  0  0  0  0  0  0
    1.2151    2.5523   -0.0736 C   0  0  0  0  0  0  0  0  0  0  0  0
    1.7609    2.7950    0.8508 H   0  0  0  0  0  0  0  0  0  0  0  0
  1 53  1  0  0  0  0
  2 42  1  0  0  0  0
  3  2  1  0  0  0  0
  3  4  1  0  0  0  0
  4  6  1  0  0  0  0
  4  5  1  0  0  0  0
  7  4  1  0  0  0  0
  7  8  1  0  0  0  0
  8  9  1  0  0  0  0
 10 11  1  0  0  0  0
 10  8  2  0  0  0  0
 12 10  1  0  0  0  0
 13 14  1  0  0  0  0
 13 12  2  0  0  0  0
 15 13  1  0  0  0  0
 16 15  1  0  0  0  0
 17 19  1  0  0  0  0
 17 15  2  0  0  0  0
 18 17  1  0  0  0  0
 19 21  2  0  0  0  0
 20 19  1  0  0  0  0
 21 12  1  0  0  0  0
 21 22  1  0  0  0  0
 22  7  2  0  0  0  0
 23 22  1  0  0  0  0
 24 23  1  0  0  0  0
 24 25  1  0  0  0  0
 25 26  1  0  0  0  0
 27 25  2  0  0  0  0
 27 28  1  0  0  0  0
 29 27  1  0  0  0  0
 30 29  1  0  0  0  0
 31 33  1  0  0  0  0
 31 29  2  0  0  0  0
 32 31  1  0  0  0  0
 33 24  2  0  0  0  0
 34 36  2  0  0  0  0
 34 33  1  0  0  0  0
 35 34  1  0  0  0  0
 36 38  1  0  0  0  0
 37 36  1  0  0  0  0
 38 39  1  0  0  0  0
 38 23  2  0  0  0  0
 39  3  1  0  0  0  0
 40 39  1  0  0  0  0
 41 39  1  0  0  0  0
 42 44  1  0  0  0  0
 42 43  1  0  0  0  0
 44 45  1  0  0  0  0
 45 47  2  0  0  0  0
 45 46  1  0  0  0  0
 47 48  1  0  0  0  0
 49 50  1  0  0  0  0
 49 47  1  0  0  0  0
 51 49  2  0  0  0  0
 52 51  1  0  0  0  0
 53 51  1  0  0  0  0
 53 44  2  0  0  0  0
 54 63  1  0  0  0  0
 54  1  1  0  0  0  0
 55 54  2  0  0  0  0
 56 55  1  0  0  0  0
 57 59  2  0  0  0  0
 57 55  1  0  0  0  0
 58 57  1  0  0  0  0
 59 61  1  0  0  0  0
 60 59  1  0  0  0  0
 61 62  1  0  0  0  0
 61 63  2  0  0  0  0
 63 64  1  0  0  0  0
 65  1  1  0  0  0  0
 65 74  1  0  0  0  0
 66 65  2  0  0  0  0
 67 66  1  0  0  0  0
 68 66  1  0  0  0  0
 68 70  2  0  0  0  0
 69 68  1  0  0  0  0
 70 72  1  0  0  0  0
 71 70  1  0  0  0  0
 72 74  2  0  0  0  0
 72 73  1  0  0  0  0
 74 75  1  0  0  0  0
M  END
