1,3
q = 0.0, confidence = 0.998

 76 80  0  0  0  0  0  0  0  0999 V2000
    2.5351    0.5852    0.4171 P   0  0  0  0  0  0  0  0  0  0  0  0
   -6.6177    0.2485    1.6144 O   0  0  0  0  0  0  0  0  0  0  0  0
    0.0356   -1.6544    0.6090 N   0  0  0  0  0  0  0  0  0  0  0  0
   -0.9660   -1.5507    0.3145 H   0  0  0  0  0  0  0  0  0  0  0  0
   -2.7013   -2.5313    0.3011 N   0  0  0  0  0  0  0  0  0  0  0  0
   -4.6343   -0.4580   -0.1267 N   0  0  0  0  0  0  0  0  0  0  0  0
    0.1915   -0.9020    1.8822 C   0  0  0  0  0  0  0  0  0  0  0  0
   -0.0440    0.1562    1.6409 H   0  0  0  0  0  0  0  0  0  0  0  0
   -0.5640   -1.2375    2.6259 H   0  0  0  0  0  0  0  0  0  0  0  0
    0.2426   -3.1210    0.7445 C   0  0  0  0  0  0  0  0  0  0  0  0
    1.2079   -3.2925    1.2613 H   0  0  0  0  0  0  0  0  0  0  0  0
    0.3587   -3.5314   -0.2784 H   0  0  0  0  0  0  0  0  0  0  0  0
   -0.9099   -3.8508    1.4448 C   0  0  0  0  0  0  0  0  0  0  0  0
   -1.1051   -3.4148    2.4482 H   0  0  0  0  0  0  0  0  0  0  0  0
   -0.5984   -4.8992    1.6353 H   0  0  0  0  0  0  0  0  0  0  0  0
   -2.1895   -3.8719    0.5989 C   0  0  0  0  0  0  0  0  0  0  0  0
   -1.9549   -4.3588   -0.3716 H   0  0  0  0  0  0  0  0  0  0  0  0
   -2.9725   -4.5074    1.0888 H   0  0  0  0  0  0  0  0  0  0  0  0
   -3.5156   -2.4870   -0.9168 C   0  0  0  0  0  0  0  0  0  0  0  0
   -4.4357   -3.1173   -0.8010 H   0  0  0  0  0  0  0  0  0  0  0  0
   -2.9197   -2.8964   -1.7573 H   0  0  0  0  0  0  0  0  0  0  0  0
   -3.9185   -1.0529   -1.2493 C   0  0  0  0  0  0  0  0  0  0  0  0
   -3.0005   -0.4740   -1.5155 H   0  0  0  0  0  0  0  0  0  0  0  0
   -4.5865   -1.0645   -2.1335 H   0  0  0  0  0  0  0  0  0  0  0  0
   -3.8512   -0.5101    1.1086 C   0  0  0  0  0  0  0  0  0  0  0  0
   -4.4623   -0.1174    1.9405 H   0  0  0  0  0  0  0  0  0  0  0  0
   -2.9320    0.1203    1.0130 H   0  0  0  0  0  0  0  0  0  0  0  0
   -3.4487   -1.9466    1.4179 C   0  0  0  0  0  0  0  0  0  0  0  0
   -2.8194   -1.9630    2.3318 H   0  0  0  0  0  0  0  0  0  0  0  0
   -4.3690   -2.5505    1.6326 H   0  0  0  0  0  0  0  0  0  0  0  0
   -5.3895    0.7049   -0.3690 C   0  0  0  0  0  0  0  0  0  0  0  0
   -5.1976    1.5069   -1.5128 C   0  0  0  0  0  0  0  0  0  0  0  0
   -4.3788    1.2612   -2.2024 H   0  0  0  0  0  0  0  0  0  0  0  0
   -6.0038    2.6279   -1.7716 C   0  0  0  0  0  0  0  0  0  0  0  0
   -5.8224    3.2302   -2.6742 H   0  0  0  0  0  0  0  0  0  0  0  0
   -7.0144    2.9828   -0.8731 C   0  0  0  0  0  0  0  0  0  0  0  0
   -7.6487    3.8623   -1.0591 H   0  0  0  0  0  0  0  0  0  0  0  0
   -7.2259    2.2069    0.2818 C   0  0  0  0  0  0  0  0  0  0  0  0
   -8.0312    2.4831    0.9757 H   0  0  0  0  0  0  0  0  0  0  0  0
   -6.4382    1.0728    0.5345 C   0  0  0  0  0  0  0  0  0  0  0  0
   -7.6666    0.5392    2.5137 C   0  0  0  0  0  0  0  0  0  0  0  0
   -7.6449   -0.2513    3.2873 H   0  0  0  0  0  0  0  0  0  0  0  0
   -8.6602    0.5251    2.0111 H   0  0  0  0  0  0  0  0  0  0  0  0
   -7.5355    1.5298    3.0060 H   0  0  0  0  0  0  0  0  0  0  0  0
    4.2678    1.0052   -0.0563 C   0  0  0  0  0  0  0  0  0  0  0  0
    4.9104    2.1366    0.4902 C   0  0  0  0  0  0  0  0  0  0  0  0
    4.3671    2.7919    1.1867 H   0  0  0  0  0  0  0  0  0  0  0  0
    6.2367    2.4314    0.1419 C   0  0  0  0  0  0  0  0  0  0  0  0
    6.7267    3.3192    0.5699 H   0  0  0  0  0  0  0  0  0  0  0  0
    6.9336    1.6021   -0.7510 C   0  0  0  0  0  0  0  0  0  0  0  0
    7.9727    1.8380   -1.0269 H   0  0  0  0  0  0  0  0  0  0  0  0
    6.2990    0.4751   -1.2959 C   0  0  0  0  0  0  0  0  0  0  0  0
    6.8363   -0.1773   -2.0004 H   0  0  0  0  0  0  0  0  0  0  0  0
    4.9715    0.1774   -0.9546 C   0  0  0  0  0  0  0  0  0  0  0  0
    4.4839   -0.7049   -1.3895 H   0  0  0  0  0  0  0  0  0  0  0  0
    2.7221   -0.4563    1.9293 C   0  0  0  0  0  0  0  0  0  0  0  0
    1.5652   -1.0558    2.4968 C   0  0  0  0  0  0  0  0  0  0  0  0
    1.7178   -1.8371    3.6580 C   0  0  0  0  0  0  0  0  0  0  0  0
    0.8230   -2.2977    4.1069 H   0  0  0  0  0  0  0  0  0  0  0  0
    2.9754   -2.0429    4.2447 C   0  0  0  0  0  0  0  0  0  0  0  0
    3.0651   -2.6615    5.1503 H   0  0  0  0  0  0  0  0  0  0  0  0
    4.1127   -1.4627    3.6672 C   0  0  0  0  0  0  0  0  0  0  0  0
    5.1061   -1.6197    4.1136 H   0  0  0  0  0  0  0  0  0  0  0  0
    3.9834   -0.6705    2.5162 C   0  0  0  0  0  0  0  0  0  0  0  0
    4.8747   -0.2067    2.0692 H   0  0  0  0  0  0  0  0  0  0  0  0
    1.9053    2.1862    1.0645 C   0  0  0  0  0  0  0  0  0  0  0  0
    1.7212    2.4343    2.4373 C   0  0  0  0  0  0  0  0  0  0  0  0
    1.9516    1.6516    3.1754 H   0  0  0  0  0  0  0  0  0  0  0  0
    1.2489    3.6857    2.8666 C   0  0  0  0  0  0  0  0  0  0  0  0
    1.1048    3.8739    3.9414 H   0  0  0  0  0  0  0  0  0  0  0  0
    0.9682    4.6917    1.9300 C   0  0  0  0  0  0  0  0  0  0  0  0
    0.5982    5.6715    2.2683 H   0  0  0  0  0  0  0  0  0  0  0  0
    1.1535    4.4458    0.5594 C   0  0  0  0  0  0  0  0  0  0  0  0
    0.9232    5.2277   -0.1795 H   0  0  0  0  0  0  0  0  0  0  0  0
    1.6095    3.1952    0.1236 C   0  0  0  0  0  0  0  0  0  0  0  0
    1.7338    2.9968   -0.9512 H   0  0  0  0  0  0  0  0  0  0  0  0
  1 66  1  0  0  0  0
  1 56  1  0  0  0  0
  2 41  1  0  0  0  0
  3 10  1  0  0  0  0
  3  7  1  0  0  0  0
  4  3  1  0  0  0  0
  5 16  1  0  0  0  0
  5 28  1  0  0  0  0
  6 25  1  0  0  0  0
  7 57  1  0  0  0  0
  7  9  1  0  0  0  0
  8  7  1  0  0  0  0
 10 11  1  0  0  0  0
 10 13  1  0  0  0  0
 12 10  1  0  0  0  0
 13 15  1  0  0  0  0
 13 14  1  0  0  0  0
 16 18  1  0  0  0  0
 16 13  1  0  0  0  0
 17 16  1  0  0  0  0
 19 20  1  0  0  0  0
 19  5  1  0  0  0  0
 21 19  1  0  0  0  0
 22 19  1  0  0  0  0
 22  6  1  0  0  0  0
 23 22  1  0  0  0  0
 24 22  1  0  0  0  0
 25 28  1  0  0  0  0
 25 26  1  0  0  0  0
 27 25  1  0  0  0  0
 28 30  1  0  0  0  0
 28 29  1  0  0  0  0
 31  6  1  0  0  0  0
 31 40  1  0  0  0  0
 32 31  2  0  0  0  0
 33 32  1  0  0  0  0
 34 32  1  0  0  0  0
 34 36  2  0  0  0  0
 35 34  1  0  0  0  0
 36 38  1  0  0  0  0
 37 36  1  0  0  0  0
 38 40  2  0  0  0  0
 38 39  1  0  0  0  0
 40  2  1  0  0  0  0
 41 44  1  0  0  0  0
 41 42  1  0  0  0  0
 43 41  1  0  0  0  0
 45  1  1  0  0  0  0
 45 46  1  0  0  0  0
 46 47  1  0  0  0  0
 48 46  2  0  0  0  0
 48 49  1  0  0  0  0
 50 48  1  0  0  0  0
 51 50  1  0  0  0  0
 52 54  1  0  0  0  0
 52 50  2  0  0  0  0
 53 52  1  0  0  0  0
 54 45  2  0  0  0  0
 55 54  1  0  0  0  0
 56 57  2  0  0  0  0
 56 64  1  0  0  0  0
 57 58  1  0  0  0  0
 58 59  1  0  0  0  0
 58 60  2  0  0  0  0
 60 61  1  0  0  0  0
 62 63  1  0  0  0  0
 62 60  1  0  0  0  0
 64 62  2  0  0  0  0
 65 64  1  0  0  0  0
 66 67  1  0  0  0  0
 67 69  2  0  0  0  0
 67 68  1  0  0  0  0
 69 70  1  0  0  0  0
 71 72  1  0  0  0  0
 71 69  1  0  0  0  0
 73 71  2  0  0  0  0
 74 73  1  0  0  0  0
 75 73  1  0  0  0  0
 75 66  2  0  0  0  0
 76 75  1  0  0  0  0
M  END
