1,2
q = 0.0, confidence = 0.996

 49 53  0  0  1  0  0  0  0  0999 V2000
    0.5753   -0.0696    0.4823 P   0  0  1  0  0  0  0  0  0  0  0  0
   -2.3687    0.5286    0.7698 N   0  0  0  0  0  2  0  0  0  0  0  0
   -0.1790    1.4897    1.0309 C   0  0  1  0  0  3  0  0  0  0  0  0
    0.5456    2.5439    0.5056 C   0  0  2  0  0  3  0  0  0  0  0  0
   -0.0191    3.9251    0.2841 C   0  0  0  0  0  0  0  0  0  0  0  0
   -0.5889    4.2726    1.1674 H   0  0  0  0  0  0  0  0  0  0  0  0
   -0.7687    3.7898   -0.5311 H   0  0  0  0  0  0  0  0  0  0  0  0
    1.0205    4.9670   -0.1458 C   0  0  0  0  0  0  0  0  0  0  0  0
    0.4983    5.8784   -0.5015 H   0  0  0  0  0  0  0  0  0  0  0  0
    1.6351    5.2778    0.7287 H   0  0  0  0  0  0  0  0  0  0  0  0
    1.9381    4.4040   -1.2326 C   0  0  0  0  0  0  0  0  0  0  0  0
    1.3277    4.0723   -2.1004 H   0  0  0  0  0  0  0  0  0  0  0  0
    2.6371    5.1816   -1.6020 H   0  0  0  0  0  0  0  0  0  0  0  0
    2.7346    3.2085   -0.6904 C   0  0  0  0  0  0  0  0  0  0  0  0
    3.3748    2.7587   -1.4752 H   0  0  0  0  0  0  0  0  0  0  0  0
    3.4270    3.5749    0.1032 H   0  0  0  0  0  0  0  0  0  0  0  0
    1.8271    2.1543   -0.1075 C   0  0  0  0  0  0  0  0  0  0  0  0
    2.0444    0.7900   -0.1682 C   0  0  0  0  0  0  0  0  0  0  0  0
    3.2175    0.0503   -0.6332 C   0  0  0  0  0  0  0  0  0  0  0  0
    4.5335    0.5251   -0.4045 C   0  0  0  0  0  0  0  0  0  0  0  0
    4.6824    1.4647    0.1455 H   0  0  0  0  0  0  0  0  0  0  0  0
    5.6452   -0.2117   -0.8314 C   0  0  0  0  0  0  0  0  0  0  0  0
    6.6586    0.1717   -0.6373 H   0  0  0  0  0  0  0  0  0  0  0  0
    5.4723   -1.4392   -1.4920 C   0  0  0  0  0  0  0  0  0  0  0  0
    6.3478   -2.0150   -1.8279 H   0  0  0  0  0  0  0  0  0  0  0  0
    4.1752   -1.9289   -1.7161 C   0  0  0  0  0  0  0  0  0  0  0  0
    4.0258   -2.8872   -2.2358 H   0  0  0  0  0  0  0  0  0  0  0  0
    3.0618   -1.1969   -1.2887 C   0  0  0  0  0  0  0  0  0  0  0  0
    2.0510   -1.5764   -1.4946 H   0  0  0  0  0  0  0  0  0  0  0  0
   -1.5927    1.4716    1.3948 C   0  0  2  0  0  3  0  0  0  0  0  0
   -2.1539    2.3402    2.3560 C   0  0  0  0  0  0  0  0  0  0  0  0
   -1.4997    3.0607    2.8657 H   0  0  0  0  0  0  0  0  0  0  0  0
   -3.5120    2.2528    2.6666 C   0  0  0  0  0  0  0  0  0  0  0  0
   -3.9563    2.9253    3.4156 H   0  0  0  0  0  0  0  0  0  0  0  0
   -4.2938    1.2820    2.0198 C   0  0  0  0  0  0  0  0  0  0  0  0
   -5.3659    1.1682    2.2313 H   0  0  0  0  0  0  0  0  0  0  0  0
   -3.6798    0.4421    1.0890 C   0  0  0  0  0  0  0  0  0  0  0  0
   -4.2526   -0.3337    0.5609 H   0  0  0  0  0  0  0  0  0  0  0  0
    1.1874   -1.0438    1.9031 C   0  0  0  0  0  0  0  0  0  0  0  0
    1.2865   -2.4435    1.7894 C   0  0  0  0  0  0  0  0  0  0  0  0
    0.9531   -2.9450    0.8690 H   0  0  0  0  0  0  0  0  0  0  0  0
    1.8041   -3.1945    2.8559 C   0  0  0  0  0  0  0  0  0  0  0  0
    1.8788   -4.2884    2.7655 H   0  0  0  0  0  0  0  0  0  0  0  0
    2.2150   -2.5534    4.0343 C   0  0  0  0  0  0  0  0  0  0  0  0
    2.6139   -3.1455    4.8719 H   0  0  0  0  0  0  0  0  0  0  0  0
    2.1154   -1.1558    4.1481 C   0  0  0  0  0  0  0  0  0  0  0  0
    2.4376   -0.6531    5.0727 H   0  0  0  0  0  0  0  0  0  0  0  0
    1.6074   -0.3986    3.0843 C   0  0  0  0  0  0  0  0  0  0  0  0
    1.5307    0.6970    3.1622 H   0  0  0  0  0  0  0  0  0  0  0  0
  1  3  1  0  0  0  0
  1 39  1  1  0  0  0
  2 37  1  0  0  0  0
  3 30  1  6  0  0  0
  4 17  1  6  0  0  0
  4  3  1  0  0  0  0
  5  4  1  0  0  0  0
  5  6  1  0  0  0  0
  7  5  1  0  0  0  0
  8  5  1  0  0  0  0
  8 10  1  0  0  0  0
  9  8  1  0  0  0  0
 11 14  1  0  0  0  0
 11  8  1  0  0  0  0
 12 11  1  0  0  0  0
 13 11  1  0  0  0  0
 14 17  1  0  0  0  0
 14 16  1  0  0  0  0
 15 14  1  0  0  0  0
 18 17  2  0  0  0  0
 18  1  1  0  0  0  0
 19 20  1  0  0  0  0
 19 18  1  0  0  0  0
 20 21  1  0  0  0  0
 22 23  1  0  0  0  0
 22 20  2  0  0  0  0
 24 22  1  0  0  0  0
 25 24  1  0  0  0  0
 26 24  2  0  0  0  0
 26 28  1  0  0  0  0
 27 26  1  0  0  0  0
 28 19  2  0  0  0  0
 29 28  1  0  0  0  0
 30  2  1  1  0  0  0
 30 31  1  0  0  0  0
 31 33  2  0  0  0  0
 31 32  1  0  0  0  0
 33 34  1  0  0  0  0
 35 36  1  0  0  0  0
 35 33  1  0  0  0  0
 37 35  2  0  0  0  0
 38 37  1  0  0  0  0
 39 48  1  0  0  0  0
 40 39  2  0  0  0  0
 40 42  1  0  0  0  0
 41 40  1  0  0  0  0
 42 44  2  0  0  0  0
 43 42  1  0  0  0  0
 44 46  1  0  0  0  0
 44 45  1  0  0  0  0
 46 47  1  0  0  0  0
 48 49  1  0  0  0  0
 48 46  2  0  0  0  0
M  END
