1,2
q = 0.0, confidence = 0.998

 49 52  0  0  0  0  0  0  0  0999 V2000
    1.0865    0.2926   -0.0908 P   0  0  0  0  0  0  0  0  0  0  0  0
   -1.2062   -0.3689    1.6793 N   0  0  0  0  0  2  0  0  0  0  0  0
   -4.0033    2.3794   -0.4560 N   0  0  0  0  0  0  0  0  0  0  0  0
   -3.2825    0.2777    0.5270 C   0  0  0  0  0  0  0  0  0  0  0  0
   -3.4836    1.6719    0.5566 C   0  0  0  0  0  0  0  0  0  0  0  0
   -3.2103    2.2451    1.4636 H   0  0  0  0  0  0  0  0  0  0  0  0
   -4.3456    1.7042   -1.5656 C   0  0  0  0  0  0  0  0  0  0  0  0
   -4.7724    2.3038   -2.3904 H   0  0  0  0  0  0  0  0  0  0  0  0
   -4.1845    0.3170   -1.7117 C   0  0  0  0  0  0  0  0  0  0  0  0
   -4.4814   -0.1847   -2.6449 H   0  0  0  0  0  0  0  0  0  0  0  0
   -3.6373   -0.4118   -0.6474 C   0  0  0  0  0  0  0  0  0  0  0  0
   -3.4702   -1.4996   -0.7083 H   0  0  0  0  0  0  0  0  0  0  0  0
   -2.6830   -0.4405    1.7187 C   0  0  0  0  0  0  0  0  0  0  0  0
   -2.9458   -1.5179    1.6881 H   0  0  0  0  0  0  0  0  0  0  0  0
   -3.0406    0.0174    2.6645 H   0  0  0  0  0  0  0  0  0  0  0  0
   -0.6328    0.3996    2.5640 C   0  0  0  0  0  3  0  0  0  0  0  0
   -1.2895    0.8446    3.3365 H   0  0  0  0  0  0  0  0  0  0  0  0
    0.7804    0.7519    2.6744 C   0  0  0  0  0  0  0  0  0  0  0  0
    1.6940    0.7497    1.5811 C   0  0  0  0  0  0  0  0  0  0  0  0
    3.0283    1.1364    1.7927 C   0  0  0  0  0  0  0  0  0  0  0  0
    3.7286    1.1373    0.9445 H   0  0  0  0  0  0  0  0  0  0  0  0
    3.4722    1.5224    3.0679 C   0  0  0  0  0  0  0  0  0  0  0  0
    4.5233    1.8125    3.2149 H   0  0  0  0  0  0  0  0  0  0  0  0
    2.5724    1.5509    4.1443 C   0  0  0  0  0  0  0  0  0  0  0  0
    2.9105    1.8625    5.1436 H   0  0  0  0  0  0  0  0  0  0  0  0
    1.2375    1.1836    3.9418 C   0  0  0  0  0  0  0  0  0  0  0  0
    0.5266    1.2107    4.7824 H   0  0  0  0  0  0  0  0  0  0  0  0
    2.6024    0.1086   -1.0916 C   0  0  0  0  0  0  0  0  0  0  0  0
    3.3615   -1.0733   -0.9589 C   0  0  0  0  0  0  0  0  0  0  0  0
    2.9969   -1.8882   -0.3171 H   0  0  0  0  0  0  0  0  0  0  0  0
    4.5636   -1.2073   -1.6654 C   0  0  0  0  0  0  0  0  0  0  0  0
    5.1527   -2.1311   -1.5650 H   0  0  0  0  0  0  0  0  0  0  0  0
    5.0049   -0.1772   -2.5136 C   0  0  0  0  0  0  0  0  0  0  0  0
    5.9452   -0.2920   -3.0741 H   0  0  0  0  0  0  0  0  0  0  0  0
    4.2438    0.9931   -2.6537 C   0  0  0  0  0  0  0  0  0  0  0  0
    4.5839    1.7986   -3.3220 H   0  0  0  0  0  0  0  0  0  0  0  0
    3.0420    1.1403   -1.9428 C   0  0  0  0  0  0  0  0  0  0  0  0
    2.4435    2.0571   -2.0519 H   0  0  0  0  0  0  0  0  0  0  0  0
    0.2365    1.7886   -0.7178 C   0  0  0  0  0  0  0  0  0  0  0  0
    0.3209    3.0413   -0.0809 C   0  0  0  0  0  0  0  0  0  0  0  0
    0.9394    3.1618    0.8215 H   0  0  0  0  0  0  0  0  0  0  0  0
   -0.3946    4.1338   -0.5967 C   0  0  0  0  0  0  0  0  0  0  0  0
   -0.3411    5.1094   -0.0903 H   0  0  0  0  0  0  0  0  0  0  0  0
   -1.1795    3.9815   -1.7492 C   0  0  0  0  0  0  0  0  0  0  0  0
   -1.7500    4.8359   -2.1424 H   0  0  0  0  0  0  0  0  0  0  0  0
   -1.2517    2.7343   -2.3918 C   0  0  0  0  0  0  0  0  0  0  0  0
   -1.8752    2.6110   -3.2893 H   0  0  0  0  0  0  0  0  0  0  0  0
   -0.5596    1.6332   -1.8734 C   0  0  0  0  0  0  0  0  0  0  0  0
   -0.6414    0.6421   -2.3477 H   0  0  0  0  0  0  0  0  0  0  0  0
  1 19  1  0  0  0  0
  2 13  1  0  0  0  0
  2 16  1  0  0  0  0
  3  5  1  0  0  0  0
  4  5  2  0  0  0  0
  4 13  1  0  0  0  0
  5  6  1  0  0  0  0
  7  3  2  0  0  0  0
  8  7  1  0  0  0  0
  9  7  1  0  0  0  0
  9 11  2  0  0  0  0
 10  9  1  0  0  0  0
 11  4  1  0  0  0  0
 12 11  1  0  0  0  0
 13 15  1  0  0  0  0
 14 13  1  0  0  0  0
 16 18  1  0  0  0  0
 16 17  1  0  0  0  0
 18 26  1  0  0  0  0
 19 20  1  0  0  0  0
 19 18  2  0  0  0  0
 20 22  2  0  0  0  0
 21 20  1  0  0  0  0
 22 23  1  0  0  0  0
 22 24  1  0  0  0  0
 24 25  1  0  0  0  0
 26 24  2  0  0  0  0
 26 27  1  0  0  0  0
 28 29  1  0  0  0  0
 28  1  1  0  0  0  0
 29 30  1  0  0  0  0
 31 32  1  0  0  0  0
 31 29  2  0  0  0  0
 33 31  1  0  0  0  0
 34 33  1  0  0  0  0
 35 33  2  0  0  0  0
 35 37  1  0  0  0  0
 36 35  1  0  0  0  0
 37 28  2  0  0  0  0
 38 37  1  0  0  0  0
 39  1  1  0  0  0  0
 39 40  1  0  0  0  0
 40 41  1  0  0  0  0
 42 43  1  0  0  0  0
 42 40  2  0  0  0  0
 44 42  1  0  0  0  0
 45 44  1  0  0  0  0
 46 48  1  0  0  0  0
 46 44  2  0  0  0  0
 47 46  1  0  0  0  0
 48 39  2  0  0  0  0
 49 48  1  0  0  0  0
M  END
