1,3
q = 0.0, confidence = 0.994

 46 48  0  0  1  0  0  0  0  0999 V2000
    0.7875    0.2147    0.0628 P   0  0  0  0  0  0  0  0  0  0  0  0
   -4.0615   -0.1850   -0.6858 O   0  0  0  0  0  0  0  0  0  0  0  0
   -2.0624    0.2385    0.4587 N   0  0  0  0  0  2  0  0  0  0  0  0
    0.0272    0.6529    1.7136 C   0  0  1  0  0  0  0  0  0  0  0  0
   -1.4234    0.9681    1.4361 C   0  0  2  0  0  3  0  0  0  0  0  0
   -2.0766    1.9622    2.1667 C   0  0  0  0  0  0  0  0  0  0  0  0
   -3.4370    2.2229    1.9114 C   0  0  0  0  0  0  0  0  0  0  0  0
   -4.0927    1.4812    0.9443 C   0  0  0  0  0  0  0  0  0  0  0  0
   -3.3895    0.4774    0.2197 C   0  0  0  0  0  0  0  0  0  0  0  0
    0.2482   -0.4565    2.7957 C   0  0  0  0  0  0  0  0  0  0  0  0
   -0.1216    0.0765    4.1861 C   0  0  0  0  0  0  0  0  0  0  0  0
   -0.4744   -1.7754    2.5065 C   0  0  0  0  0  0  0  0  0  0  0  0
    1.1066    1.7755   -0.8298 C   0  0  0  0  0  0  0  0  0  0  0  0
    1.6080    1.6510   -2.1454 C   0  0  0  0  0  0  0  0  0  0  0  0
    1.8697    2.8006   -2.9007 C   0  0  0  0  0  0  0  0  0  0  0  0
    1.6228    4.0748   -2.3608 C   0  0  0  0  0  0  0  0  0  0  0  0
    1.1073    4.1982   -1.0619 C   0  0  0  0  0  0  0  0  0  0  0  0
    0.8473    3.0522   -0.2934 C   0  0  0  0  0  0  0  0  0  0  0  0
    2.4344   -0.4750    0.4432 C   0  0  0  0  0  0  0  0  0  0  0  0
    2.6451   -1.8681    0.4549 C   0  0  0  0  0  0  0  0  0  0  0  0
    3.8919   -2.3760    0.8480 C   0  0  0  0  0  0  0  0  0  0  0  0
    4.9264   -1.5038    1.2228 C   0  0  0  0  0  0  0  0  0  0  0  0
    4.7195   -0.1148    1.2001 C   0  0  0  0  0  0  0  0  0  0  0  0
    3.4765    0.4030    0.8084 C   0  0  0  0  0  0  0  0  0  0  0  0
    0.5306    1.5660    2.0949 H   0  0  0  0  0  0  0  0  0  0  0  0
   -3.5351   -0.9862   -1.0826 H   0  0  0  0  0  0  0  0  0  0  0  0
   -1.5204    2.5262    2.9268 H   0  0  0  0  0  0  0  0  0  0  0  0
   -3.9712    3.0039    2.4729 H   0  0  0  0  0  0  0  0  0  0  0  0
   -5.1518    1.6279    0.6948 H   0  0  0  0  0  0  0  0  0  0  0  0
    1.3427   -0.6524    2.7944 H   0  0  0  0  0  0  0  0  0  0  0  0
    0.1309   -0.6736    4.9621 H   0  0  0  0  0  0  0  0  0  0  0  0
   -1.2086    0.2835    4.2656 H   0  0  0  0  0  0  0  0  0  0  0  0
    0.4246    1.0111    4.4301 H   0  0  0  0  0  0  0  0  0  0  0  0
   -0.2001   -2.2058    1.5218 H   0  0  0  0  0  0  0  0  0  0  0  0
   -1.5756   -1.6443    2.5050 H   0  0  0  0  0  0  0  0  0  0  0  0
   -0.2232   -2.5220    3.2861 H   0  0  0  0  0  0  0  0  0  0  0  0
    1.7639    0.6457   -2.5707 H   0  0  0  0  0  0  0  0  0  0  0  0
    2.2597    2.7003   -3.9248 H   0  0  0  0  0  0  0  0  0  0  0  0
    1.8248    4.9756   -2.9598 H   0  0  0  0  0  0  0  0  0  0  0  0
    0.9017    5.1939   -0.6406 H   0  0  0  0  0  0  0  0  0  0  0  0
    0.4311    3.1644    0.7183 H   0  0  0  0  0  0  0  0  0  0  0  0
    1.8424   -2.5401    0.1185 H   0  0  0  0  0  0  0  0  0  0  0  0
    4.0581   -3.4637    0.8494 H   0  0  0  0  0  0  0  0  0  0  0  0
    5.9045   -1.9081    1.5251 H   0  0  0  0  0  0  0  0  0  0  0  0
    5.5326    0.5711    1.4820 H   0  0  0  0  0  0  0  0  0  0  0  0
    3.3178    1.4922    0.7767 H   0  0  0  0  0  0  0  0  0  0  0  0
  1 19  1  0  0  0  0
  1  4  1  0  0  0  0
  2  9  1  0  0  0  0
  3  5  1  0  0  0  0
  4 25  1  1  0  0  0
  4 10  1  0  0  0  0
  5  4  1  1  0  0  0
  5  6  1  0  0  0  0
  6 27  1  0  0  0  0
  7  6  2  0  0  0  0
  7 28  1  0  0  0  0
  8  7  1  0  0  0  0
  9  3  1  0  0  0  0
  9  8  2  0  0  0  0
 10 11  1  0  0  0  0
 11 32  1  0  0  0  0
 11 33  1  0  0  0  0
 11 31  1  0  0  0  0
 12 10  1  0  0  0  0
 12 36  1  0  0  0  0
 13 18  1  0  0  0  0
 13  1  1  0  0  0  0
 14 13  2  0  0  0  0
 15 16  2  0  0  0  0
 15 14  1  0  0  0  0
 16 17  1  0  0  0  0
 17 40  1  0  0  0  0
 17 18  2  0  0  0  0
 18 41  1  0  0  0  0
 19 20  2  0  0  0  0
 19 24  1  0  0  0  0
 20 21  1  0  0  0  0
 21 43  1  0  0  0  0
 21 22  2  0  0  0  0
 22 44  1  0  0  0  0
 23 22  1  0  0  0  0
 23 45  1  0  0  0  0
 24 23  2  0  0  0  0
 26  2  1  0  0  0  0
 29  8  1  0  0  0  0
 30 10  1  0  0  0  0
 34 12  1  0  0  0  0
 35 12  1  0  0  0  0
 37 14  1  0  0  0  0
 38 15  1  0  0  0  0
 39 16  1  0  0  0  0
 42 20  1  0  0  0  0
 46 24  1  0  0  0  0
M  END
