1,2
q = 0.0, confidence = 0.996

 43 43  0  0  1  0  0  0  0  0999 V2000
   -1.2012    0.3047   -0.0530 P   0  0  0  0  0  0  0  0  0  0  0  0
    1.7344    0.6242   -0.2653 N   0  0  0  0  0  2  0  0  0  0  0  0
    3.6356   -0.2813    0.9989 C   0  0  0  0  0  0  0  0  0  0  0  0
    3.0516   -0.3808    1.9380 H   0  0  0  0  0  0  0  0  0  0  0  0
    4.6845   -0.0386    1.2499 H   0  0  0  0  0  0  0  0  0  0  0  0
    3.5613   -1.2755    0.5039 H   0  0  0  0  0  0  0  0  0  0  0  0
    3.0266    0.7753    0.1358 C   0  0  2  0  0  3  0  0  0  0  0  0
    3.7549    1.9301   -0.2169 C   0  0  0  0  0  0  0  0  0  0  0  0
    4.8022    2.0165    0.1055 H   0  0  0  0  0  0  0  0  0  0  0  0
    3.1400    2.9528   -0.9435 C   0  0  0  0  0  0  0  0  0  0  0  0
    3.6997    3.8582   -1.2230 H   0  0  0  0  0  0  0  0  0  0  0  0
    1.7892    2.8164   -1.2809 C   0  0  0  0  0  0  0  0  0  0  0  0
    1.2512    3.6111   -1.8173 H   0  0  0  0  0  0  0  0  0  0  0  0
    1.1144    1.6378   -0.9219 C   0  0  0  0  0  0  0  0  0  0  0  0
   -0.3484    1.4727   -1.2419 C   0  0  0  0  0  0  0  0  0  0  0  0
   -0.4484    0.9742   -2.2301 H   0  0  0  0  0  0  0  0  0  0  0  0
   -0.8482    2.4591   -1.3249 H   0  0  0  0  0  0  0  0  0  0  0  0
   -1.6347    1.3400    1.4908 C   0  0  0  0  0  0  0  0  0  0  0  0
   -0.3181    1.9951    1.9518 C   0  0  0  0  0  0  0  0  0  0  0  0
   -0.4869    2.4883    2.9323 H   0  0  0  0  0  0  0  0  0  0  0  0
    0.0415    2.7698    1.2460 H   0  0  0  0  0  0  0  0  0  0  0  0
    0.4845    1.2414    2.0770 H   0  0  0  0  0  0  0  0  0  0  0  0
   -2.6905    2.4286    1.2551 C   0  0  0  0  0  0  0  0  0  0  0  0
   -3.6854    2.0093    1.0115 H   0  0  0  0  0  0  0  0  0  0  0  0
   -2.3976    3.1284    0.4461 H   0  0  0  0  0  0  0  0  0  0  0  0
   -2.8070    3.0315    2.1812 H   0  0  0  0  0  0  0  0  0  0  0  0
   -2.0898    0.3571    2.5870 C   0  0  0  0  0  0  0  0  0  0  0  0
   -2.2191    0.9086    3.5423 H   0  0  0  0  0  0  0  0  0  0  0  0
   -1.3311   -0.4360    2.7433 H   0  0  0  0  0  0  0  0  0  0  0  0
   -3.0528   -0.1319    2.3500 H   0  0  0  0  0  0  0  0  0  0  0  0
   -2.7649   -0.1613   -1.0607 C   0  0  0  0  0  0  0  0  0  0  0  0
   -3.3565    1.0397   -1.8238 C   0  0  0  0  0  0  0  0  0  0  0  0
   -2.6619    1.4381   -2.5882 H   0  0  0  0  0  0  0  0  0  0  0  0
   -3.6558    1.8704   -1.1588 H   0  0  0  0  0  0  0  0  0  0  0  0
   -4.2674    0.7028   -2.3629 H   0  0  0  0  0  0  0  0  0  0  0  0
   -3.8478   -0.7681   -0.1516 C   0  0  0  0  0  0  0  0  0  0  0  0
   -4.2857   -0.0218    0.5391 H   0  0  0  0  0  0  0  0  0  0  0  0
   -3.4649   -1.6181    0.4444 H   0  0  0  0  0  0  0  0  0  0  0  0
   -4.6737   -1.1527   -0.7866 H   0  0  0  0  0  0  0  0  0  0  0  0
   -2.3057   -1.2245   -2.0783 C   0  0  0  0  0  0  0  0  0  0  0  0
   -3.1631   -1.4949   -2.7307 H   0  0  0  0  0  0  0  0  0  0  0  0
   -1.9363   -2.1384   -1.5789 H   0  0  0  0  0  0  0  0  0  0  0  0
   -1.4909   -0.8571   -2.7348 H   0  0  0  0  0  0  0  0  0  0  0  0
  1 18  1  0  0  0  0
  2  7  1  0  0  0  0
  3  5  1  0  0  0  0
  3  4  1  0  0  0  0
  6  3  1  0  0  0  0
  7  3  1  1  0  0  0
  8  9  1  0  0  0  0
  8  7  1  0  0  0  0
 10  8  2  0  0  0  0
 11 10  1  0  0  0  0
 12 10  1  0  0  0  0
 12 14  2  0  0  0  0
 13 12  1  0  0  0  0
 14  2  1  0  0  0  0
 15 14  1  0  0  0  0
 15  1  1  0  0  0  0
 16 15  1  0  0  0  0
 17 15  1  0  0  0  0
 18 19  1  0  0  0  0
 18 27  1  0  0  0  0
 19 22  1  0  0  0  0
 19 20  1  0  0  0  0
 21 19  1  0  0  0  0
 23 18  1  0  0  0  0
 23 26  1  0  0  0  0
 24 23  1  0  0  0  0
 25 23  1  0  0  0  0
 27 29  1  0  0  0  0
 27 28  1  0  0  0  0
 30 27  1  0  0  0  0
 31 36  1  0  0  0  0
 31  1  1  0  0  0  0
 32 34  1  0  0  0  0
 32 31  1  0  0  0  0
 33 32  1  0  0  0  0
 35 32  1  0  0  0  0
 36 38  1  0  0  0  0
 36 37  1  0  0  0  0
 39 36  1  0  0  0  0
 40 42  1  0  0  0  0
 40 31  1  0  0  0  0
 41 40  1  0  0  0  0
 43 40  1  0  0  0  0
M  END
