1,2
q = 0.0, confidence = 0.996

 21 20  0  0  0  0  0  0  0  0999 V2000
    1.6167    1.0537   -0.1332 P   0  0  0  0  0  0  0  0  0  0  0  0
    1.3512   -1.9392   -0.4621 N   0  0  0  0  0  0  0  0  0  0  0  0
    0.8361   -2.8286   -0.3926 H   0  0  0  0  0  0  0  0  0  0  0  0
    1.4595   -1.8042   -1.4836 H   0  0  0  0  0  0  0  0  0  0  0  0
    1.5186    2.5243    0.9652 C   0  0  0  0  0  0  0  0  0  0  0  0
    1.3353    2.1642    1.9952 H   0  0  0  0  0  0  0  0  0  0  0  0
    0.7152    3.2206    0.6673 H   0  0  0  0  0  0  0  0  0  0  0  0
    2.4840    3.0669    0.9278 H   0  0  0  0  0  0  0  0  0  0  0  0
    1.9838    1.7247   -1.8005 C   0  0  0  0  0  0  0  0  0  0  0  0
    2.1872    0.8922   -2.4998 H   0  0  0  0  0  0  0  0  0  0  0  0
    2.8594    2.4020   -1.7491 H   0  0  0  0  0  0  0  0  0  0  0  0
    1.1096    2.2752   -2.1928 H   0  0  0  0  0  0  0  0  0  0  0  0
    3.2304    0.3538    0.4417 C   0  0  0  0  0  0  0  0  0  0  0  0
    3.9981    1.1262    0.2251 H   0  0  0  0  0  0  0  0  0  0  0  0
    3.1358    0.2698    1.5434 H   0  0  0  0  0  0  0  0  0  0  0  0
    3.6305   -0.9938   -0.1568 C   0  0  0  0  0  0  0  0  0  0  0  0
    3.7456   -0.9204   -1.2616 H   0  0  0  0  0  0  0  0  0  0  0  0
    4.6346   -1.2660    0.2278 H   0  0  0  0  0  0  0  0  0  0  0  0
    2.6699   -2.1245    0.1873 C   0  0  0  0  0  0  0  0  0  0  0  0
    3.1063   -3.0939   -0.1340 H   0  0  0  0  0  0  0  0  0  0  0  0
    2.4958   -2.1714    1.2817 H   0  0  0  0  0  0  0  0  0  0  0  0
  1 13  1  0  0  0  0
  1  5  1  0  0  0  0
  2  3  1  0  0  0  0
  2 19  1  0  0  0  0
  4  2  1  0  0  0  0
  5  6  1  0  0  0  0
  7  5  1  0  0  0  0
  8  5  1  0  0  0  0
  9 11  1  0  0  0  0
  9  1  1  0  0  0  0
 10  9  1  0  0  0  0
 12  9  1  0  0  0  0
 13 15  1  0  0  0  0
 14 13  1  0  0  0  0
 16 19  1  0  0  0  0
 16 18  1  0  0  0  0
 16 13  1  0  0  0  0
 17 16  1  0  0  0  0
 19 21  1  0  0  0  0
 20 19  1  0  0  0  0
M  END
