9,17
q = -1.0, confidence = 0.014

 69 70  0  0  0  0  0  0  0  0999 V2000
    2.3315   -0.3455    0.7793 P   0  0  0  0  0  0  0  0  0  0  0  0
    2.4315    1.1257   -0.2988 C   0  0  0  0  0  0  0  0  0  0  0  0
    3.5995    1.7438   -0.7709 C   0  0  0  0  0  0  0  0  0  0  0  0
    3.5433    2.8221   -1.6753 C   0  0  0  0  0  0  0  0  0  0  0  0
    4.7961    3.4759   -2.2001 C   0  0  0  0  0  0  0  0  0  0  0  0
    2.2674    3.2531   -2.0977 C   0  0  0  0  0  0  0  0  0  0  0  0
    1.0951    2.6479   -1.6331 C   0  0  0  0  0  0  0  0  0  0  0  0
    1.1551    1.5769   -0.7148 C   0  0  0  0  0  0  0  0  0  0  0  0
   -0.0120    0.9114   -0.2492 N   0  0  0  0  0  2  0  0  0  0  0  0
   -1.0338    1.7500    0.2393 C   0  0  0  0  0  0  0  0  0  0  0  0
   -0.8174    3.0792    0.6907 C   0  0  0  0  0  0  0  0  0  0  0  0
   -1.8677    3.8453    1.2025 C   0  0  0  0  0  0  0  0  0  0  0  0
   -3.1854    3.3481    1.2972 C   0  0  0  0  0  0  0  0  0  0  0  0
   -4.2967    4.1825    1.8804 C   0  0  0  0  0  0  0  0  0  0  0  0
   -3.4055    2.0343    0.8440 C   0  0  0  0  0  0  0  0  0  0  0  0
   -2.3596    1.2495    0.3337 C   0  0  0  0  0  0  0  0  0  0  0  0
   -2.4990   -0.4191   -0.3583 P   0  0  0  0  0  0  0  0  0  0  0  0
    3.9601   -1.2539    0.5595 C   0  0  0  0  0  0  0  0  0  0  0  0
    4.1419   -1.8257   -0.8489 C   0  0  0  0  0  0  0  0  0  0  0  0
    4.1809   -2.3266    1.6363 C   0  0  0  0  0  0  0  0  0  0  0  0
    2.4402    0.3542    2.5321 C   0  0  0  0  0  0  0  0  0  0  0  0
    3.8430    0.8750    2.8745 C   0  0  0  0  0  0  0  0  0  0  0  0
    1.4087    1.4623    2.7626 C   0  0  0  0  0  0  0  0  0  0  0  0
   -4.0021   -1.1961    0.4570 C   0  0  0  0  0  0  0  0  0  0  0  0
   -3.8869   -1.3380    1.9770 C   0  0  0  0  0  0  0  0  0  0  0  0
   -4.4471   -2.5079   -0.1978 C   0  0  0  0  0  0  0  0  0  0  0  0
   -3.0316   -0.1311   -2.1463 C   0  0  0  0  0  0  0  0  0  0  0  0
   -2.0035    0.7182   -2.9005 C   0  0  0  0  0  0  0  0  0  0  0  0
   -4.4357    0.4724   -2.2576 C   0  0  0  0  0  0  0  0  0  0  0  0
    4.5848    1.3740   -0.4453 H   0  0  0  0  0  0  0  0  0  0  0  0
    5.7028    3.0766   -1.7058 H   0  0  0  0  0  0  0  0  0  0  0  0
    4.7783    4.5743   -2.0432 H   0  0  0  0  0  0  0  0  0  0  0  0
    4.9093    3.3103   -3.2925 H   0  0  0  0  0  0  0  0  0  0  0  0
    2.1907    4.0775   -2.8246 H   0  0  0  0  0  0  0  0  0  0  0  0
    0.1157    2.9949   -1.9912 H   0  0  0  0  0  0  0  0  0  0  0  0
    0.1914    3.5097    0.6518 H   0  0  0  0  0  0  0  0  0  0  0  0
   -1.6520    4.8668    1.5554 H   0  0  0  0  0  0  0  0  0  0  0  0
   -4.3392    5.1884    1.4140 H   0  0  0  0  0  0  0  0  0  0  0  0
   -4.1549    4.3414    2.9710 H   0  0  0  0  0  0  0  0  0  0  0  0
   -5.2843    3.7014    1.7409 H   0  0  0  0  0  0  0  0  0  0  0  0
   -4.4225    1.6149    0.9034 H   0  0  0  0  0  0  0  0  0  0  0  0
    4.7105   -0.4459    0.7106 H   0  0  0  0  0  0  0  0  0  0  0  0
    4.0358   -1.0530   -1.6337 H   0  0  0  0  0  0  0  0  0  0  0  0
    5.1560   -2.2697   -0.9306 H   0  0  0  0  0  0  0  0  0  0  0  0
    3.3968   -2.6196   -1.0489 H   0  0  0  0  0  0  0  0  0  0  0  0
    3.4683   -3.1613    1.5051 H   0  0  0  0  0  0  0  0  0  0  0  0
    4.0653   -1.9415    2.6679 H   0  0  0  0  0  0  0  0  0  0  0  0
    5.2116   -2.7268    1.5425 H   0  0  0  0  0  0  0  0  0  0  0  0
    2.1837   -0.5171    3.1741 H   0  0  0  0  0  0  0  0  0  0  0  0
    4.1455    1.6853    2.1790 H   0  0  0  0  0  0  0  0  0  0  0  0
    3.8293    1.3105    3.8954 H   0  0  0  0  0  0  0  0  0  0  0  0
    4.6244    0.0929    2.8615 H   0  0  0  0  0  0  0  0  0  0  0  0
    1.4380    1.7728    3.8274 H   0  0  0  0  0  0  0  0  0  0  0  0
    1.6479    2.3533    2.1484 H   0  0  0  0  0  0  0  0  0  0  0  0
    0.3775    1.1419    2.5321 H   0  0  0  0  0  0  0  0  0  0  0  0
   -4.7740   -0.4232    0.2429 H   0  0  0  0  0  0  0  0  0  0  0  0
   -3.5433   -0.4069    2.4662 H   0  0  0  0  0  0  0  0  0  0  0  0
   -3.1792   -2.1431    2.2504 H   0  0  0  0  0  0  0  0  0  0  0  0
   -4.8838   -1.6014    2.3879 H   0  0  0  0  0  0  0  0  0  0  0  0
   -3.7124   -3.3137   -0.0111 H   0  0  0  0  0  0  0  0  0  0  0  0
   -5.4209   -2.8149    0.2370 H   0  0  0  0  0  0  0  0  0  0  0  0
   -4.5766   -2.4235   -1.2940 H   0  0  0  0  0  0  0  0  0  0  0  0
   -3.0193   -1.1603   -2.5648 H   0  0  0  0  0  0  0  0  0  0  0  0
   -5.2266   -0.1825   -1.8438 H   0  0  0  0  0  0  0  0  0  0  0  0
   -4.4938    1.4585   -1.7516 H   0  0  0  0  0  0  0  0  0  0  0  0
   -4.6762    0.6383   -3.3283 H   0  0  0  0  0  0  0  0  0  0  0  0
   -0.9868    0.2834   -2.8692 H   0  0  0  0  0  0  0  0  0  0  0  0
   -1.9581    1.7465   -2.4868 H   0  0  0  0  0  0  0  0  0  0  0  0
   -2.3085    0.7987   -3.9641 H   0  0  0  0  0  0  0  0  0  0  0  0
  1 21  1  0  0  0  0
  2  1  1  0  0  0  0
  3 30  1  0  0  0  0
  3  2  2  0  0  0  0
  4  3  1  0  0  0  0
  5 32  1  0  0  0  0
  5 31  1  0  0  0  0
  5  4  1  0  0  0  0
  6  4  2  0  0  0  0
  6  7  1  0  0  0  0
  7  8  2  0  0  0  0
  8  2  1  0  0  0  0
  8  9  1  0  0  0  0
  9 10  1  0  0  0  0
 10 16  2  0  0  0  0
 10 11  1  0  0  0  0
 11 12  2  0  0  0  0
 12 13  1  0  0  0  0
 12 37  1  0  0  0  0
 13 14  1  0  0  0  0
 14 39  1  0  0  0  0
 15 41  1  0  0  0  0
 15 13  2  0  0  0  0
 16 15  1  0  0  0  0
 17 16  1  0  0  0  0
 17 24  1  0  0  0  0
 18 42  1  0  0  0  0
 18  1  1  0  0  0  0
 18 20  1  0  0  0  0
 19 18  1  0  0  0  0
 20 47  1  0  0  0  0
 21 23  1  0  0  0  0
 21 22  1  0  0  0  0
 21 49  1  0  0  0  0
 22 51  1  0  0  0  0
 23 53  1  0  0  0  0
 24 25  1  0  0  0  0
 25 58  1  0  0  0  0
 25 59  1  0  0  0  0
 25 57  1  0  0  0  0
 26 60  1  0  0  0  0
 26 61  1  0  0  0  0
 26 24  1  0  0  0  0
 27 17  1  0  0  0  0
 28 67  1  0  0  0  0
 28 68  1  0  0  0  0
 28 27  1  0  0  0  0
 29 27  1  0  0  0  0
 29 64  1  0  0  0  0
 29 65  1  0  0  0  0
 33  5  1  0  0  0  0
 34  6  1  0  0  0  0
 35  7  1  0  0  0  0
 36 11  1  0  0  0  0
 38 14  1  0  0  0  0
 40 14  1  0  0  0  0
 43 19  1  0  0  0  0
 44 19  1  0  0  0  0
 45 19  1  0  0  0  0
 46 20  1  0  0  0  0
 48 20  1  0  0  0  0
 50 22  1  0  0  0  0
 52 22  1  0  0  0  0
 54 23  1  0  0  0  0
 55 23  1  0  0  0  0
 56 24  1  0  0  0  0
 62 26  1  0  0  0  0
 63 27  1  0  0  0  0
 66 29  1  0  0  0  0
 69 28  1  0  0  0  0
M  END
