1,2
q = 0.0, confidence = 0.996

 70 76  0  0  1  0  0  0  0  0999 V2000
   -0.8167    0.0141   -0.3772 P   0  0  1  0  0  0  0  0  0  0  0  0
   -1.4486   -0.0473    2.6855 N   0  0  0  0  0  0  0  0  0  0  0  0
   -1.4155    1.1624    3.5589 C   0  0  0  0  0  0  0  0  0  0  0  0
   -0.4823    1.1351    4.1519 H   0  0  0  0  0  0  0  0  0  0  0  0
   -2.2906    1.1837    4.2402 H   0  0  0  0  0  0  0  0  0  0  0  0
   -1.4242    2.0674    2.9239 H   0  0  0  0  0  0  0  0  0  0  0  0
   -1.4402   -1.2898    3.5118 C   0  0  0  0  0  0  0  0  0  0  0  0
   -1.4691   -2.1694    2.8428 H   0  0  0  0  0  0  0  0  0  0  0  0
   -2.3143   -1.3185    4.1940 H   0  0  0  0  0  0  0  0  0  0  0  0
   -0.5055   -1.3050    4.1030 H   0  0  0  0  0  0  0  0  0  0  0  0
   -2.6236   -0.0181    1.8030 C   0  0  0  0  0  0  0  0  0  0  0  0
   -3.9055   -0.0190    2.3837 C   0  0  0  0  0  0  0  0  0  0  0  0
   -4.0129   -0.0415    3.4775 H   0  0  0  0  0  0  0  0  0  0  0  0
   -5.0541    0.0085    1.5851 C   0  0  0  0  0  0  0  0  0  0  0  0
   -6.0473    0.0074    2.0578 H   0  0  0  0  0  0  0  0  0  0  0  0
   -4.9310    0.0373    0.1889 C   0  0  0  0  0  0  0  0  0  0  0  0
   -5.8256    0.0591   -0.4502 H   0  0  0  0  0  0  0  0  0  0  0  0
   -3.6595    0.0384   -0.3956 C   0  0  0  0  0  0  0  0  0  0  0  0
   -3.5811    0.0612   -1.4879 H   0  0  0  0  0  0  0  0  0  0  0  0
   -2.4865    0.0110    0.3977 C   0  0  0  0  0  0  0  0  0  0  0  0
   -0.6731   -1.6033   -1.3556 C   0  0  2  0  0  0  0  0  0  0  0  0
   -0.6885   -2.7282   -0.2842 C   0  0  0  0  0  0  0  0  0  0  0  0
    0.1301   -2.5692    0.4513 H   0  0  0  0  0  0  0  0  0  0  0  0
   -1.6467   -2.6993    0.2784 H   0  0  0  0  0  0  0  0  0  0  0  0
   -0.5173   -4.1026   -0.9626 C   0  0  1  0  0  0  0  0  0  0  0  0
   -0.5310   -4.8853   -0.1758 H   0  0  0  0  0  0  0  0  0  0  0  0
   -1.6744   -4.3320   -1.9517 C   0  0  0  0  0  0  0  0  0  0  0  0
   -1.5748   -5.3289   -2.4291 H   0  0  0  0  0  0  0  0  0  0  0  0
   -2.6465   -4.3293   -1.4137 H   0  0  0  0  0  0  0  0  0  0  0  0
   -1.6536   -3.2287   -3.0251 C   0  0  2  0  0  0  0  0  0  0  0  0
   -2.4959   -3.3764   -3.7325 H   0  0  0  0  0  0  0  0  0  0  0  0
   -0.3163   -3.2714   -3.7848 C   0  0  0  0  0  0  0  0  0  0  0  0
   -0.1984   -4.2535   -4.2883 H   0  0  0  0  0  0  0  0  0  0  0  0
   -0.2991   -2.4979   -4.5820 H   0  0  0  0  0  0  0  0  0  0  0  0
    0.8355   -3.0363   -2.7917 C   0  0  1  0  0  0  0  0  0  0  0  0
    1.8066   -3.0446   -3.3288 H   0  0  0  0  0  0  0  0  0  0  0  0
    0.6590   -1.6474   -2.1431 C   0  0  0  0  0  0  0  0  0  0  0  0
    0.6442   -0.8841   -2.9445 H   0  0  0  0  0  0  0  0  0  0  0  0
    1.5154   -1.4098   -1.4837 H   0  0  0  0  0  0  0  0  0  0  0  0
   -1.8393   -1.8521   -2.3431 C   0  0  0  0  0  0  0  0  0  0  0  0
   -2.8079   -1.8570   -1.8067 H   0  0  0  0  0  0  0  0  0  0  0  0
   -1.8766   -1.0502   -3.1101 H   0  0  0  0  0  0  0  0  0  0  0  0
    0.8275   -4.1323   -1.7113 C   0  0  0  0  0  0  0  0  0  0  0  0
    0.9816   -5.1278   -2.1768 H   0  0  0  0  0  0  0  0  0  0  0  0
    1.6672   -3.9786   -1.0001 H   0  0  0  0  0  0  0  0  0  0  0  0
   -0.6468    1.6667   -1.2901 C   0  0  2  0  0  0  0  0  0  0  0  0
   -1.8014    1.9655   -2.2773 C   0  0  0  0  0  0  0  0  0  0  0  0
   -1.8400    1.1940   -3.0748 H   0  0  0  0  0  0  0  0  0  0  0  0
   -2.7746    1.9603   -1.7495 H   0  0  0  0  0  0  0  0  0  0  0  0
   -1.5954    3.3654   -2.9038 C   0  0  1  0  0  0  0  0  0  0  0  0
   -2.4299    3.5492   -3.6121 H   0  0  0  0  0  0  0  0  0  0  0  0
   -1.6152    4.4260   -1.7883 C   0  0  0  0  0  0  0  0  0  0  0  0
   -1.5015    5.4396   -2.2254 H   0  0  0  0  0  0  0  0  0  0  0  0
   -2.5922    4.4121   -1.2592 H   0  0  0  0  0  0  0  0  0  0  0  0
   -0.4691    4.1468   -0.7989 C   0  0  2  0  0  0  0  0  0  0  0  0
   -0.4824    4.8984    0.0177 H   0  0  0  0  0  0  0  0  0  0  0  0
    0.8825    4.1918   -1.5343 C   0  0  0  0  0  0  0  0  0  0  0  0
    1.0506    5.2029   -1.9596 H   0  0  0  0  0  0  0  0  0  0  0  0
    1.7148    4.0025   -0.8231 H   0  0  0  0  0  0  0  0  0  0  0  0
    0.8893    3.1387   -2.6563 C   0  0  1  0  0  0  0  0  0  0  0  0
    1.8657    3.1575   -3.1834 H   0  0  0  0  0  0  0  0  0  0  0  0
    0.6926    1.7274   -2.0643 C   0  0  0  0  0  0  0  0  0  0  0  0
    1.5414    1.4559   -1.4086 H   0  0  0  0  0  0  0  0  0  0  0  0
    0.6773    0.9967   -2.8954 H   0  0  0  0  0  0  0  0  0  0  0  0
   -0.6598    2.7489   -0.1756 C   0  0  0  0  0  0  0  0  0  0  0  0
   -1.6228    2.7080    0.3779 H   0  0  0  0  0  0  0  0  0  0  0  0
    0.1514    2.5530    0.5591 H   0  0  0  0  0  0  0  0  0  0  0  0
   -0.2509    3.4241   -3.6495 C   0  0  0  0  0  0  0  0  0  0  0  0
   -0.1188    4.4238   -4.1131 H   0  0  0  0  0  0  0  0  0  0  0  0
   -0.2342    2.6822   -4.4764 H   0  0  0  0  0  0  0  0  0  0  0  0
  1 20  1  6  0  0  0
  2  7  1  0  0  0  0
  2  3  1  0  0  0  0
  3  4  1  0  0  0  0
  3  5  1  0  0  0  0
  6  3  1  0  0  0  0
  7 10  1  0  0  0  0
  7  9  1  0  0  0  0
  8  7  1  0  0  0  0
 11 12  1  0  0  0  0
 11  2  1  0  0  0  0
 12 13  1  0  0  0  0
 14 15  1  0  0  0  0
 14 12  2  0  0  0  0
 16 14  1  0  0  0  0
 17 16  1  0  0  0  0
 18 16  2  0  0  0  0
 18 20  1  0  0  0  0
 19 18  1  0  0  0  0
 20 11  2  0  0  0  0
 21  1  1  1  0  0  0
 21 22  1  0  0  0  0
 22 24  1  0  0  0  0
 22 23  1  0  0  0  0
 25 22  1  0  0  0  0
 25 26  1  1  0  0  0
 27 29  1  0  0  0  0
 27 25  1  0  0  0  0
 28 27  1  0  0  0  0
 30 31  1  6  0  0  0
 30 40  1  0  0  0  0
 30 27  1  0  0  0  0
 32 30  1  0  0  0  0
 32 35  1  0  0  0  0
 33 32  1  0  0  0  0
 34 32  1  0  0  0  0
 35 36  1  6  0  0  0
 35 37  1  0  0  0  0
 35 43  1  0  0  0  0
 37 39  1  0  0  0  0
 37 21  1  0  0  0  0
 38 37  1  0  0  0  0
 40 41  1  0  0  0  0
 40 21  1  0  0  0  0
 42 40  1  0  0  0  0
 43 45  1  0  0  0  0
 43 25  1  0  0  0  0
 44 43  1  0  0  0  0
 46  1  1  1  0  0  0
 46 65  1  0  0  0  0
 47 49  1  0  0  0  0
 47 46  1  0  0  0  0
 48 47  1  0  0  0  0
 50 51  1  6  0  0  0
 50 47  1  0  0  0  0
 50 52  1  0  0  0  0
 52 54  1  0  0  0  0
 52 55  1  0  0  0  0
 53 52  1  0  0  0  0
 55 65  1  0  0  0  0
 55 56  1  1  0  0  0
 57 59  1  0  0  0  0
 57 55  1  0  0  0  0
 58 57  1  0  0  0  0
 60 61  1  6  0  0  0
 60 62  1  0  0  0  0
 60 57  1  0  0  0  0
 62 63  1  0  0  0  0
 62 46  1  0  0  0  0
 64 62  1  0  0  0  0
 65 66  1  0  0  0  0
 65 67  1  0  0  0  0
 68 50  1  0  0  0  0
 68 60  1  0  0  0  0
 69 68  1  0  0  0  0
 70 68  1  0  0  0  0
M  END
