1,3
q = 0.0, confidence = 1.0

 44 47  0  0  1  0  0  0  0  0999 V2000
   -1.2316    0.6906    0.0239 P   0  0  0  0  0  0  0  0  0  0  0  0
    0.4142    1.2550    0.0809 N   0  0  0  0  0  0  0  0  0  0  0  0
    1.1090   -0.9751   -0.1133 N   0  0  0  0  0  2  0  0  0  0  0  0
    2.6971    0.8127    0.0624 N   0  0  0  0  0  0  0  0  0  0  0  0
   -1.9852    1.5824   -1.3752 C   0  0  0  0  0  0  0  0  0  0  0  0
   -1.2342    2.3954   -2.2452 C   0  0  0  0  0  0  0  0  0  0  0  0
   -0.1527    2.5219   -2.0876 H   0  0  0  0  0  0  0  0  0  0  0  0
   -1.8683    3.0318   -3.3236 C   0  0  0  0  0  0  0  0  0  0  0  0
   -1.2815    3.6697   -4.0017 H   0  0  0  0  0  0  0  0  0  0  0  0
   -3.2427    2.8485   -3.5401 C   0  0  0  0  0  0  0  0  0  0  0  0
   -3.7363    3.3459   -4.3887 H   0  0  0  0  0  0  0  0  0  0  0  0
   -3.9865    2.0202   -2.6822 C   0  0  0  0  0  0  0  0  0  0  0  0
   -5.0602    1.8606   -2.8621 H   0  0  0  0  0  0  0  0  0  0  0  0
   -3.3650    1.3839   -1.6001 C   0  0  0  0  0  0  0  0  0  0  0  0
   -3.9310    0.7036   -0.9442 H   0  0  0  0  0  0  0  0  0  0  0  0
   -2.0340    1.3794    1.5098 C   0  0  0  0  0  0  0  0  0  0  0  0
   -2.2423    0.5359    2.6196 C   0  0  0  0  0  0  0  0  0  0  0  0
   -1.9676   -0.5278    2.5473 H   0  0  0  0  0  0  0  0  0  0  0  0
   -2.8199    1.0574    3.7858 C   0  0  0  0  0  0  0  0  0  0  0  0
   -2.9914    0.3983    4.6500 H   0  0  0  0  0  0  0  0  0  0  0  0
   -3.1889    2.4110    3.8465 C   0  0  0  0  0  0  0  0  0  0  0  0
   -3.6453    2.8151    4.7630 H   0  0  0  0  0  0  0  0  0  0  0  0
   -2.9903    3.2490    2.7364 C   0  0  0  0  0  0  0  0  0  0  0  0
   -3.2913    4.3065    2.7810 H   0  0  0  0  0  0  0  0  0  0  0  0
   -2.4204    2.7349    1.5632 C   0  0  0  0  0  0  0  0  0  0  0  0
   -2.2887    3.3831    0.6825 H   0  0  0  0  0  0  0  0  0  0  0  0
    1.4507    0.3531    0.0090 C   0  0  2  0  0  3  0  0  0  0  0  0
    2.1324   -1.8583   -0.2026 C   0  0  0  0  0  0  0  0  0  0  0  0
    1.8137   -2.9116   -0.2946 H   0  0  0  0  0  0  0  0  0  0  0  0
    3.4585   -1.4425   -0.1627 C   0  0  0  0  0  0  0  0  0  0  0  0
    4.2550   -2.1921   -0.2378 H   0  0  0  0  0  0  0  0  0  0  0  0
    3.7248   -0.0605   -0.0184 C   0  0  0  0  0  0  0  0  0  0  0  0
    5.0941    0.5010    0.0506 C   0  0  0  0  0  0  0  0  0  0  0  0
    6.2439   -0.3191   -0.0152 C   0  0  0  0  0  0  0  0  0  0  0  0
    6.1459   -1.4088   -0.1198 H   0  0  0  0  0  0  0  0  0  0  0  0
    7.5251    0.2414    0.0529 C   0  0  0  0  0  0  0  0  0  0  0  0
    8.4087   -0.4121    0.0004 H   0  0  0  0  0  0  0  0  0  0  0  0
    7.6828    1.6304    0.1882 C   0  0  0  0  0  0  0  0  0  0  0  0
    8.6908    2.0688    0.2417 H   0  0  0  0  0  0  0  0  0  0  0  0
    6.5480    2.4560    0.2552 C   0  0  0  0  0  0  0  0  0  0  0  0
    6.6646    3.5452    0.3615 H   0  0  0  0  0  0  0  0  0  0  0  0
    5.2672    1.8978    0.1872 C   0  0  0  0  0  0  0  0  0  0  0  0
    4.3678    2.5267    0.2379 H   0  0  0  0  0  0  0  0  0  0  0  0
    0.6902    2.2256    0.2496 H   0  0  0  0  0  0  0  0  0  0  0  0
  1  2  1  0  0  0  0
  1 16  1  0  0  0  0
  2 44  1  0  0  0  0
  3 27  1  0  0  0  0
  5  1  1  0  0  0  0
  6  7  1  0  0  0  0
  6  5  2  0  0  0  0
  8  6  1  0  0  0  0
  9  8  1  0  0  0  0
 10  8  2  0  0  0  0
 10 12  1  0  0  0  0
 11 10  1  0  0  0  0
 12 14  2  0  0  0  0
 13 12  1  0  0  0  0
 14  5  1  0  0  0  0
 14 15  1  0  0  0  0
 16 25  2  0  0  0  0
 16 17  1  0  0  0  0
 17 19  2  0  0  0  0
 18 17  1  0  0  0  0
 19 21  1  0  0  0  0
 19 20  1  0  0  0  0
 21 22  1  0  0  0  0
 23 24  1  0  0  0  0
 23 21  2  0  0  0  0
 25 23  1  0  0  0  0
 26 25  1  0  0  0  0
 27  4  1  0  0  0  0
 27  2  1  1  0  0  0
 28 30  2  0  0  0  0
 28  3  1  0  0  0  0
 29 28  1  0  0  0  0
 30 32  1  0  0  0  0
 31 30  1  0  0  0  0
 32 33  1  0  0  0  0
 32  4  2  0  0  0  0
 33 42  1  0  0  0  0
 34 33  2  0  0  0  0
 34 36  1  0  0  0  0
 35 34  1  0  0  0  0
 36 38  2  0  0  0  0
 37 36  1  0  0  0  0
 38 39  1  0  0  0  0
 38 40  1  0  0  0  0
 40 41  1  0  0  0  0
 42 43  1  0  0  0  0
 42 40  2  0  0  0  0
M  END
