1,3
q = -1.0, confidence = 0.0

 34 34  0  0  0  0  0  0  0  0999 V2000
    2.2188   -0.0173    0.0113 P   0  0  0  0  0  0  0  0  0  0  0  0
    1.7195    1.6968   -0.1959 C   0  0  0  0  0  0  0  0  0  0  0  0
    0.3424    1.6746   -0.2430 N   0  0  0  0  0  2  0  0  0  0  0  0
   -0.0138    2.9810   -0.4605 C   0  0  0  0  0  0  0  0  0  0  0  0
   -1.0512    3.3105   -0.5740 H   0  0  0  0  0  0  0  0  0  0  0  0
    1.1783    3.7193   -0.5272 C   0  0  0  0  0  0  0  0  0  0  0  0
    1.2886    4.8000   -0.6896 H   0  0  0  0  0  0  0  0  0  0  0  0
    2.2686    2.9026   -0.3624 N   0  0  0  0  0  0  0  0  0  0  0  0
    3.1536   -0.1759    1.6460 C   0  0  0  0  0  0  0  0  0  0  0  0
    4.3514    0.7884    1.6820 C   0  0  0  0  0  0  0  0  0  0  0  0
    5.1627    0.4696    1.0009 H   0  0  0  0  0  0  0  0  0  0  0  0
    4.7694    0.8081    2.7114 H   0  0  0  0  0  0  0  0  0  0  0  0
    4.0517    1.8196    1.4061 H   0  0  0  0  0  0  0  0  0  0  0  0
    2.1186    0.2402    2.7112 C   0  0  0  0  0  0  0  0  0  0  0  0
    1.2436   -0.4406    2.7097 H   0  0  0  0  0  0  0  0  0  0  0  0
    1.7567    1.2753    2.5488 H   0  0  0  0  0  0  0  0  0  0  0  0
    2.5970    0.1957    3.7123 H   0  0  0  0  0  0  0  0  0  0  0  0
    3.5763   -1.6342    1.8822 C   0  0  0  0  0  0  0  0  0  0  0  0
    2.7243   -2.3297    1.7401 H   0  0  0  0  0  0  0  0  0  0  0  0
    3.9442   -1.7412    2.9246 H   0  0  0  0  0  0  0  0  0  0  0  0
    4.4001   -1.9413    1.2093 H   0  0  0  0  0  0  0  0  0  0  0  0
    3.1274   -0.5548   -1.5574 C   0  0  0  0  0  0  0  0  0  0  0  0
    3.3596   -2.0745   -1.5381 C   0  0  0  0  0  0  0  0  0  0  0  0
    2.4246   -2.6226   -1.3034 H   0  0  0  0  0  0  0  0  0  0  0  0
    4.1286   -2.3702   -0.7996 H   0  0  0  0  0  0  0  0  0  0  0  0
    3.7174   -2.3991   -2.5381 H   0  0  0  0  0  0  0  0  0  0  0  0
    4.4374    0.2307   -1.7290 C   0  0  0  0  0  0  0  0  0  0  0  0
    4.2699    1.3230   -1.6361 H   0  0  0  0  0  0  0  0  0  0  0  0
    4.8549    0.0270   -2.7384 H   0  0  0  0  0  0  0  0  0  0  0  0
    5.2020   -0.0737   -0.9887 H   0  0  0  0  0  0  0  0  0  0  0  0
    2.1537   -0.2007   -2.6998 C   0  0  0  0  0  0  0  0  0  0  0  0
    1.9569    0.8882   -2.7518 H   0  0  0  0  0  0  0  0  0  0  0  0
    1.1827   -0.7237   -2.5799 H   0  0  0  0  0  0  0  0  0  0  0  0
    2.6046   -0.5187   -3.6634 H   0  0  0  0  0  0  0  0  0  0  0  0
  1  9  1  0  0  0  0
  2  1  1  0  0  0  0
  3  2  1  0  0  0  0
  4  3  1  0  0  0  0
  5  4  1  0  0  0  0
  6  4  2  0  0  0  0
  6  8  1  0  0  0  0
  7  6  1  0  0  0  0
  8  2  2  0  0  0  0
  9 10  1  0  0  0  0
  9 18  1  0  0  0  0
  9 14  1  0  0  0  0
 10 12  1  0  0  0  0
 11 10  1  0  0  0  0
 13 10  1  0  0  0  0
 14 17  1  0  0  0  0
 15 14  1  0  0  0  0
 16 14  1  0  0  0  0
 18 20  1  0  0  0  0
 19 18  1  0  0  0  0
 21 18  1  0  0  0  0
 22 23  1  0  0  0  0
 22  1  1  0  0  0  0
 23 24  1  0  0  0  0
 23 25  1  0  0  0  0
 26 23  1  0  0  0  0
 27 28  1  0  0  0  0
 27 22  1  0  0  0  0
 27 30  1  0  0  0  0
 29 27  1  0  0  0  0
 31 33  1  0  0  0  0
 31 22  1  0  0  0  0
 32 31  1  0  0  0  0
 34 31  1  0  0  0  0
M  END
