1,3
q = 0.0, confidence = 1.0

 51 53  0  0  1  0  0  0  0  0999 V2000
   -1.2968    0.2594    0.0028 P   0  0  0  0  0  0  0  0  0  0  0  0
    3.1288   -1.2277    0.2742 Si  0  0  0  0  0  0  0  0  0  0  0  0
    1.5332   -0.3869    0.0827 N   0  0  0  0  0  2  0  0  0  0  0  0
    0.0263    1.3916    0.2296 N   0  0  0  0  0  0  0  0  0  0  0  0
    1.3120    0.8951    0.1871 C   0  0  2  0  0  3  0  0  0  0  0  0
    2.3564    1.9683    0.1883 C   0  0  0  0  0  0  0  0  0  0  0  0
    2.5333    2.8200    1.2962 C   0  0  0  0  0  0  0  0  0  0  0  0
    3.5029    3.8327    1.2559 C   0  0  0  0  0  0  0  0  0  0  0  0
    4.2812    4.0166    0.1016 C   0  0  0  0  0  0  0  0  0  0  0  0
    4.0889    3.1860   -1.0145 C   0  0  0  0  0  0  0  0  0  0  0  0
    3.1316    2.1628   -0.9727 C   0  0  0  0  0  0  0  0  0  0  0  0
   -2.2808    0.4505    1.5419 C   0  0  0  0  0  0  0  0  0  0  0  0
   -1.7098    0.9440    2.7294 C   0  0  0  0  0  0  0  0  0  0  0  0
   -2.4617    0.9673    3.9143 C   0  0  0  0  0  0  0  0  0  0  0  0
   -3.7801    0.4866    3.9220 C   0  0  0  0  0  0  0  0  0  0  0  0
   -4.3475   -0.0206    2.7410 C   0  0  0  0  0  0  0  0  0  0  0  0
   -3.6032   -0.0407    1.5538 C   0  0  0  0  0  0  0  0  0  0  0  0
   -2.3600    1.1434   -1.2128 C   0  0  0  0  0  0  0  0  0  0  0  0
   -2.9198    2.3980   -0.8859 C   0  0  0  0  0  0  0  0  0  0  0  0
   -3.6981    3.0887   -1.8243 C   0  0  0  0  0  0  0  0  0  0  0  0
   -3.9421    2.5221   -3.0872 C   0  0  0  0  0  0  0  0  0  0  0  0
   -3.4074    1.2653   -3.4075 C   0  0  0  0  0  0  0  0  0  0  0  0
   -2.6156    0.5762   -2.4753 C   0  0  0  0  0  0  0  0  0  0  0  0
    4.4819   -0.1240    1.0180 C   0  0  0  0  0  0  0  0  0  0  0  0
    2.9261   -2.6345    1.5136 C   0  0  0  0  0  0  0  0  0  0  0  0
    3.6852   -1.8277   -1.4236 C   0  0  0  0  0  0  0  0  0  0  0  0
    1.9262    2.6687    2.2022 H   0  0  0  0  0  0  0  0  0  0  0  0
    3.6536    4.4813    2.1319 H   0  0  0  0  0  0  0  0  0  0  0  0
    5.0391    4.8138    0.0706 H   0  0  0  0  0  0  0  0  0  0  0  0
    4.6898    3.3349   -1.9242 H   0  0  0  0  0  0  0  0  0  0  0  0
    2.9732    1.5049   -1.8406 H   0  0  0  0  0  0  0  0  0  0  0  0
   -0.6704    1.3060    2.7240 H   0  0  0  0  0  0  0  0  0  0  0  0
   -2.0113    1.3585    4.8392 H   0  0  0  0  0  0  0  0  0  0  0  0
   -4.3666    0.5011    4.8530 H   0  0  0  0  0  0  0  0  0  0  0  0
   -5.3781   -0.4066    2.7447 H   0  0  0  0  0  0  0  0  0  0  0  0
   -4.0483   -0.4464    0.6314 H   0  0  0  0  0  0  0  0  0  0  0  0
   -2.7610    2.8286    0.1162 H   0  0  0  0  0  0  0  0  0  0  0  0
   -4.1270    4.0688   -1.5657 H   0  0  0  0  0  0  0  0  0  0  0  0
   -4.5606    3.0611   -3.8210 H   0  0  0  0  0  0  0  0  0  0  0  0
   -3.6077    0.8129   -4.3903 H   0  0  0  0  0  0  0  0  0  0  0  0
   -2.2025   -0.4111   -2.7238 H   0  0  0  0  0  0  0  0  0  0  0  0
    5.3344   -0.7888    1.2728 H   0  0  0  0  0  0  0  0  0  0  0  0
    4.8564    0.6637    0.3384 H   0  0  0  0  0  0  0  0  0  0  0  0
    4.1497    0.3631    1.9567 H   0  0  0  0  0  0  0  0  0  0  0  0
    2.3694   -3.5008    1.1141 H   0  0  0  0  0  0  0  0  0  0  0  0
    3.9367   -2.9843    1.8114 H   0  0  0  0  0  0  0  0  0  0  0  0
    2.4076   -2.2822    2.4278 H   0  0  0  0  0  0  0  0  0  0  0  0
    3.0247   -2.6179   -1.8265 H   0  0  0  0  0  0  0  0  0  0  0  0
    3.7101   -0.9927   -2.1526 H   0  0  0  0  0  0  0  0  0  0  0  0
    4.7110   -2.2446   -1.3478 H   0  0  0  0  0  0  0  0  0  0  0  0
   -0.0899    2.4084    0.2052 H   0  0  0  0  0  0  0  0  0  0  0  0
  1  4  1  0  0  0  0
  1 12  1  0  0  0  0
  2 24  1  0  0  0  0
  2 25  1  0  0  0  0
  3  2  1  0  0  0  0
  5  3  1  6  0  0  0
  5  6  1  0  0  0  0
  5  4  1  0  0  0  0
  6  7  1  0  0  0  0
  7 27  1  0  0  0  0
  8  7  2  0  0  0  0
  8 28  1  0  0  0  0
  9  8  1  0  0  0  0
 10 11  1  0  0  0  0
 10  9  2  0  0  0  0
 11  6  2  0  0  0  0
 12 17  2  0  0  0  0
 12 13  1  0  0  0  0
 13 14  2  0  0  0  0
 14 15  1  0  0  0  0
 14 33  1  0  0  0  0
 15 34  1  0  0  0  0
 16 35  1  0  0  0  0
 16 15  2  0  0  0  0
 17 16  1  0  0  0  0
 18 19  1  0  0  0  0
 18  1  1  0  0  0  0
 19 37  1  0  0  0  0
 20 38  1  0  0  0  0
 20 19  2  0  0  0  0
 21 20  1  0  0  0  0
 22 21  2  0  0  0  0
 22 23  1  0  0  0  0
 23 18  2  0  0  0  0
 24 42  1  0  0  0  0
 24 44  1  0  0  0  0
 25 46  1  0  0  0  0
 25 47  1  0  0  0  0
 26 50  1  0  0  0  0
 26  2  1  0  0  0  0
 29  9  1  0  0  0  0
 30 10  1  0  0  0  0
 31 11  1  0  0  0  0
 32 13  1  0  0  0  0
 36 17  1  0  0  0  0
 39 21  1  0  0  0  0
 40 22  1  0  0  0  0
 41 23  1  0  0  0  0
 43 24  1  0  0  0  0
 45 25  1  0  0  0  0
 48 26  1  0  0  0  0
 49 26  1  0  0  0  0
 51  4  1  0  0  0  0
M  END
