1,3
q = 0.0, confidence = 0.996

 59 62  0  0  0  0  0  0  0  0999 V2000
   -1.4276    0.2369    0.6102 P   0  0  0  0  0  0  0  0  0  0  0  0
    5.3280   -0.3427    1.5722 S   0  0  0  0  0  0  0  0  0  0  0  0
    1.1346   -1.0336    0.4403 N   0  0  0  0  0  2  0  0  0  0  0  0
    2.2665   -1.6825    0.3340 N   0  0  0  0  0  2  0  0  0  0  0  0
    2.8736   -1.5674    1.5276 N   0  0  0  0  0  0  0  0  0  0  0  0
    0.9862   -0.4819    1.7086 C   0  0  0  0  0  0  0  0  0  0  0  0
    2.1304   -0.8244    2.4065 C   0  0  0  0  0  0  0  0  0  0  0  0
    2.4857   -0.5712    3.4090 H   0  0  0  0  0  0  0  0  0  0  0  0
   -0.2067    0.3540    2.0370 C   0  0  0  0  0  0  0  0  0  0  0  0
    0.0934    1.4196    2.1297 H   0  0  0  0  0  0  0  0  0  0  0  0
   -0.6757    0.0576    2.9969 H   0  0  0  0  0  0  0  0  0  0  0  0
    4.2842   -1.8793    1.5823 C   0  0  0  0  0  0  0  0  0  0  0  0
    4.4897   -2.5259    0.7089 H   0  0  0  0  0  0  0  0  0  0  0  0
    4.5392   -2.4175    2.5156 H   0  0  0  0  0  0  0  0  0  0  0  0
    4.3590    0.6841    0.4682 C   0  0  0  0  0  0  0  0  0  0  0  0
    4.0553    0.2863   -0.8491 C   0  0  0  0  0  0  0  0  0  0  0  0
    4.4377   -0.6625   -1.2504 H   0  0  0  0  0  0  0  0  0  0  0  0
    3.2009    1.0728   -1.6356 C   0  0  0  0  0  0  0  0  0  0  0  0
    2.8972    0.7042   -2.6257 H   0  0  0  0  0  0  0  0  0  0  0  0
    2.6930    2.2801   -1.1317 C   0  0  0  0  0  0  0  0  0  0  0  0
    2.0187    2.8891   -1.7521 H   0  0  0  0  0  0  0  0  0  0  0  0
    3.0306    2.7006    0.1656 C   0  0  0  0  0  0  0  0  0  0  0  0
    2.6376    3.6505    0.5604 H   0  0  0  0  0  0  0  0  0  0  0  0
    3.8455    1.8962    0.9761 C   0  0  0  0  0  0  0  0  0  0  0  0
    4.0802    2.1911    2.0100 H   0  0  0  0  0  0  0  0  0  0  0  0
   -2.0680    1.9483    0.3239 C   0  0  0  0  0  0  0  0  0  0  0  0
   -2.8024    1.7823   -0.4971 H   0  0  0  0  0  0  0  0  0  0  0  0
   -0.9554    2.8489   -0.2426 C   0  0  0  0  0  0  0  0  0  0  0  0
   -0.1209    2.9275    0.4913 H   0  0  0  0  0  0  0  0  0  0  0  0
   -0.5338    2.3710   -1.1498 H   0  0  0  0  0  0  0  0  0  0  0  0
   -1.4890    4.2527   -0.5549 C   0  0  0  0  0  0  0  0  0  0  0  0
   -0.6616    4.8965   -0.9200 H   0  0  0  0  0  0  0  0  0  0  0  0
   -2.2198    4.1801   -1.3906 H   0  0  0  0  0  0  0  0  0  0  0  0
   -2.1710    4.8869    0.6637 C   0  0  0  0  0  0  0  0  0  0  0  0
   -2.5744    5.8886    0.4072 H   0  0  0  0  0  0  0  0  0  0  0  0
   -1.4140    5.0509    1.4644 H   0  0  0  0  0  0  0  0  0  0  0  0
   -3.2878    3.9862    1.2050 C   0  0  0  0  0  0  0  0  0  0  0  0
   -3.7569    4.4379    2.1040 H   0  0  0  0  0  0  0  0  0  0  0  0
   -4.0917    3.9004    0.4402 H   0  0  0  0  0  0  0  0  0  0  0  0
   -2.7699    2.5781    1.5377 C   0  0  0  0  0  0  0  0  0  0  0  0
   -3.6071    1.9372    1.8844 H   0  0  0  0  0  0  0  0  0  0  0  0
   -2.0516    2.6478    2.3865 H   0  0  0  0  0  0  0  0  0  0  0  0
   -2.8307   -0.7878    1.2690 C   0  0  0  0  0  0  0  0  0  0  0  0
   -3.1397   -0.3287    2.2375 H   0  0  0  0  0  0  0  0  0  0  0  0
   -4.0249   -0.7768    0.2958 C   0  0  0  0  0  0  0  0  0  0  0  0
   -4.4174    0.2548    0.1793 H   0  0  0  0  0  0  0  0  0  0  0  0
   -3.6676   -1.0835   -0.7117 H   0  0  0  0  0  0  0  0  0  0  0  0
   -5.1458   -1.7093    0.7754 C   0  0  0  0  0  0  0  0  0  0  0  0
   -5.5772   -1.3109    1.7221 H   0  0  0  0  0  0  0  0  0  0  0  0
   -5.9702   -1.7098    0.0324 H   0  0  0  0  0  0  0  0  0  0  0  0
   -4.6360   -3.1348    1.0162 C   0  0  0  0  0  0  0  0  0  0  0  0
   -5.4576   -3.7840    1.3843 H   0  0  0  0  0  0  0  0  0  0  0  0
   -4.2977   -3.5695    0.0496 H   0  0  0  0  0  0  0  0  0  0  0  0
   -3.4648   -3.1393    2.0055 C   0  0  0  0  0  0  0  0  0  0  0  0
   -3.0766   -4.1691    2.1491 H   0  0  0  0  0  0  0  0  0  0  0  0
   -3.8232   -2.7963    3.0027 H   0  0  0  0  0  0  0  0  0  0  0  0
   -2.3307   -2.2232    1.5276 C   0  0  0  0  0  0  0  0  0  0  0  0
   -1.4999   -2.2216    2.2658 H   0  0  0  0  0  0  0  0  0  0  0  0
   -1.9011   -2.6158    0.5792 H   0  0  0  0  0  0  0  0  0  0  0  0
  1 43  1  0  0  0  0
  1  9  1  0  0  0  0
  2 12  1  0  0  0  0
  3  6  1  0  0  0  0
  4  3  1  0  0  0  0
  4  5  1  0  0  0  0
  5 12  1  0  0  0  0
  5  7  1  0  0  0  0
  6  9  1  0  0  0  0
  6  7  2  0  0  0  0
  7  8  1  0  0  0  0
  9 10  1  0  0  0  0
  9 11  1  0  0  0  0
 12 14  1  0  0  0  0
 13 12  1  0  0  0  0
 15 24  1  0  0  0  0
 15  2  1  0  0  0  0
 16 15  2  0  0  0  0
 17 16  1  0  0  0  0
 18 20  2  0  0  0  0
 18 16  1  0  0  0  0
 19 18  1  0  0  0  0
 20 22  1  0  0  0  0
 21 20  1  0  0  0  0
 22 23  1  0  0  0  0
 22 24  2  0  0  0  0
 24 25  1  0  0  0  0
 26  1  1  0  0  0  0
 26 40  1  0  0  0  0
 27 26  1  0  0  0  0
 28 26  1  0  0  0  0
 28 29  1  0  0  0  0
 30 28  1  0  0  0  0
 31 28  1  0  0  0  0
 31 34  1  0  0  0  0
 32 31  1  0  0  0  0
 33 31  1  0  0  0  0
 34 37  1  0  0  0  0
 34 36  1  0  0  0  0
 35 34  1  0  0  0  0
 37 40  1  0  0  0  0
 37 38  1  0  0  0  0
 39 37  1  0  0  0  0
 40 41  1  0  0  0  0
 40 42  1  0  0  0  0
 43 57  1  0  0  0  0
 43 44  1  0  0  0  0
 45 48  1  0  0  0  0
 45 43  1  0  0  0  0
 46 45  1  0  0  0  0
 47 45  1  0  0  0  0
 48 51  1  0  0  0  0
 48 49  1  0  0  0  0
 50 48  1  0  0  0  0
 51 52  1  0  0  0  0
 51 54  1  0  0  0  0
 53 51  1  0  0  0  0
 54 55  1  0  0  0  0
 54 56  1  0  0  0  0
 57 54  1  0  0  0  0
 57 58  1  0  0  0  0
 59 57  1  0  0  0  0
M  END
