2,3
q = 0.0, confidence = 0.998

 38 41  0  0  1  0  0  0  0  0999 V2000
   -2.3549    2.5768    1.2551 S   0  0  0  0  0  0  0  0  0  0  0  0
    1.1463    0.2653    0.1096 P   0  0  0  0  0  0  0  0  0  0  0  0
   -1.7785    0.2952    0.1013 N   0  0  0  0  0  2  0  0  0  0  0  0
    0.1231    1.5657    0.7151 N   0  0  0  0  0  0  0  0  0  0  0  0
    0.4806    2.3790    1.2221 H   0  0  0  0  0  0  0  0  0  0  0  0
   -3.1792    0.3569    0.1358 C   0  0  0  0  0  0  0  0  0  0  0  0
   -4.0817   -0.6071   -0.3464 C   0  0  0  0  0  0  0  0  0  0  0  0
   -3.6749   -1.5244   -0.8038 H   0  0  0  0  0  0  0  0  0  0  0  0
   -5.4541   -0.3628   -0.2178 C   0  0  0  0  0  0  0  0  0  0  0  0
   -6.1647   -1.1142   -0.5932 H   0  0  0  0  0  0  0  0  0  0  0  0
   -5.9425    0.8169    0.3795 C   0  0  0  0  0  0  0  0  0  0  0  0
   -7.0265    0.9824    0.4674 H   0  0  0  0  0  0  0  0  0  0  0  0
   -5.0574    1.7885    0.8674 C   0  0  0  0  0  0  0  0  0  0  0  0
   -5.4272    2.7118    1.3360 H   0  0  0  0  0  0  0  0  0  0  0  0
   -3.6847    1.5430    0.7372 C   0  0  0  0  0  0  0  0  0  0  0  0
   -1.2279    1.3776    0.6448 C   0  0  1  0  0  3  0  0  0  0  0  0
    2.1969   -0.1747    1.5343 C   0  0  0  0  0  0  0  0  0  0  0  0
    1.9717   -1.3956    2.2006 C   0  0  0  0  0  0  0  0  0  0  0  0
    1.2255   -2.0990    1.8009 H   0  0  0  0  0  0  0  0  0  0  0  0
    2.7273   -1.7112    3.3388 C   0  0  0  0  0  0  0  0  0  0  0  0
    2.5583   -2.6679    3.8551 H   0  0  0  0  0  0  0  0  0  0  0  0
    3.7014   -0.8167    3.8111 C   0  0  0  0  0  0  0  0  0  0  0  0
    4.2938   -1.0704    4.7033 H   0  0  0  0  0  0  0  0  0  0  0  0
    3.9318    0.3964    3.1409 C   0  0  0  0  0  0  0  0  0  0  0  0
    4.7039    1.0914    3.5041 H   0  0  0  0  0  0  0  0  0  0  0  0
    3.1856    0.7185    1.9983 C   0  0  0  0  0  0  0  0  0  0  0  0
    3.3838    1.6575    1.4575 H   0  0  0  0  0  0  0  0  0  0  0  0
    2.2448    1.1207   -1.0640 C   0  0  0  0  0  0  0  0  0  0  0  0
    3.4627    0.5049   -1.4251 C   0  0  0  0  0  0  0  0  0  0  0  0
    3.7456   -0.4547   -0.9686 H   0  0  0  0  0  0  0  0  0  0  0  0
    4.2869    1.1110   -2.3822 C   0  0  0  0  0  0  0  0  0  0  0  0
    5.2350    0.6295   -2.6650 H   0  0  0  0  0  0  0  0  0  0  0  0
    3.9037    2.3214   -2.9835 C   0  0  0  0  0  0  0  0  0  0  0  0
    4.5549    2.7923   -3.7353 H   0  0  0  0  0  0  0  0  0  0  0  0
    2.6866    2.9266   -2.6327 C   0  0  0  0  0  0  0  0  0  0  0  0
    2.3798    3.8700   -3.1089 H   0  0  0  0  0  0  0  0  0  0  0  0
    1.8518    2.3261   -1.6790 C   0  0  0  0  0  0  0  0  0  0  0  0
    0.8897    2.7901   -1.4147 H   0  0  0  0  0  0  0  0  0  0  0  0
  2  4  1  0  0  0  0
  2 17  1  0  0  0  0
  3  6  1  0  0  0  0
  3 16  1  0  0  0  0
  4  5  1  0  0  0  0
  6 15  1  0  0  0  0
  7  9  1  0  0  0  0
  7  6  2  0  0  0  0
  8  7  1  0  0  0  0
  9 11  2  0  0  0  0
 10  9  1  0  0  0  0
 11 12  1  0  0  0  0
 11 13  1  0  0  0  0
 13 14  1  0  0  0  0
 15 13  2  0  0  0  0
 15  1  1  0  0  0  0
 16  4  1  6  0  0  0
 16  1  1  0  0  0  0
 17 26  2  0  0  0  0
 17 18  1  0  0  0  0
 18 20  2  0  0  0  0
 19 18  1  0  0  0  0
 20 22  1  0  0  0  0
 20 21  1  0  0  0  0
 22 23  1  0  0  0  0
 24 25  1  0  0  0  0
 24 22  2  0  0  0  0
 26 24  1  0  0  0  0
 27 26  1  0  0  0  0
 28  2  1  0  0  0  0
 29 28  1  0  0  0  0
 29 30  1  0  0  0  0
 31 29  2  0  0  0  0
 32 31  1  0  0  0  0
 33 35  2  0  0  0  0
 33 31  1  0  0  0  0
 34 33  1  0  0  0  0
 35 37  1  0  0  0  0
 36 35  1  0  0  0  0
 37 38  1  0  0  0  0
 37 28  2  0  0  0  0
M  END
