1,2
q = 0.0, confidence = 0.636

 34 36  0  0  0  0  0  0  0  0999 V2000
    1.9541    0.1650   -0.0780 P   0  0  0  0  0  0  0  0  0  0  0  0
    0.2320   -1.0149    1.6603 N   0  0  0  0  0  1  0  0  0  0  0  0
    2.1054    1.7493   -0.9993 C   0  0  0  0  0  0  0  0  0  0  0  0
    3.3335    2.4416   -1.0587 C   0  0  0  0  0  0  0  0  0  0  0  0
    3.4072    3.6832   -1.7070 C   0  0  0  0  0  0  0  0  0  0  0  0
    2.2636    4.2339   -2.3108 C   0  0  0  0  0  0  0  0  0  0  0  0
    1.0470    3.5350   -2.2753 C   0  0  0  0  0  0  0  0  0  0  0  0
    0.9685    2.2940   -1.6254 C   0  0  0  0  0  0  0  0  0  0  0  0
    3.5782   -0.6343   -0.3790 C   0  0  0  0  0  0  0  0  0  0  0  0
    3.8187   -1.1043   -1.6884 C   0  0  0  0  0  0  0  0  0  0  0  0
    5.0159   -1.7682   -1.9824 C   0  0  0  0  0  0  0  0  0  0  0  0
    5.9734   -1.9802   -0.9758 C   0  0  0  0  0  0  0  0  0  0  0  0
    5.7269   -1.5302    0.3297 C   0  0  0  0  0  0  0  0  0  0  0  0
    4.5300   -0.8605    0.6320 C   0  0  0  0  0  0  0  0  0  0  0  0
    1.9485    0.6345    1.7045 C   0  0  0  0  0  0  0  0  0  0  0  0
    2.7021    1.6007    2.3785 C   0  0  0  0  0  0  0  0  0  0  0  0
    2.5054    1.7955    3.7595 C   0  0  0  0  0  0  0  0  0  0  0  0
    1.5629    1.0215    4.4605 C   0  0  0  0  0  0  0  0  0  0  0  0
    0.7958    0.0527    3.7999 C   0  0  0  0  0  0  0  0  0  0  0  0
    0.9755   -0.1360    2.4131 C   0  0  0  0  0  0  0  0  0  0  0  0
    4.2361    1.9971   -0.6109 H   0  0  0  0  0  0  0  0  0  0  0  0
    4.3666    4.2214   -1.7484 H   0  0  0  0  0  0  0  0  0  0  0  0
    2.3273    5.2061   -2.8233 H   0  0  0  0  0  0  0  0  0  0  0  0
    0.1491    3.9449   -2.7625 H   0  0  0  0  0  0  0  0  0  0  0  0
    0.0280    1.7278   -1.6277 H   0  0  0  0  0  0  0  0  0  0  0  0
    3.0549   -0.9605   -2.4683 H   0  0  0  0  0  0  0  0  0  0  0  0
    5.1975   -2.1353   -3.0039 H   0  0  0  0  0  0  0  0  0  0  0  0
    6.9111   -2.5070   -1.2094 H   0  0  0  0  0  0  0  0  0  0  0  0
    6.4692   -1.7036    1.1237 H   0  0  0  0  0  0  0  0  0  0  0  0
    4.3355   -0.5200    1.6598 H   0  0  0  0  0  0  0  0  0  0  0  0
    3.4368    2.2111    1.8311 H   0  0  0  0  0  0  0  0  0  0  0  0
    3.0948    2.5569    4.2923 H   0  0  0  0  0  0  0  0  0  0  0  0
    1.4168    1.1853    5.5388 H   0  0  0  0  0  0  0  0  0  0  0  0
    0.0375   -0.5431    4.3264 H   0  0  0  0  0  0  0  0  0  0  0  0
  1 15  1  0  0  0  0
  2 20  1  0  0  0  0
  3  1  1  0  0  0  0
  4  3  1  0  0  0  0
  4 21  1  0  0  0  0
  5  4  2  0  0  0  0
  6  7  2  0  0  0  0
  6  5  1  0  0  0  0
  7  8  1  0  0  0  0
  8  3  2  0  0  0  0
  9  1  1  0  0  0  0
  9 14  1  0  0  0  0
 10  9  2  0  0  0  0
 11 10  1  0  0  0  0
 11 12  2  0  0  0  0
 12 13  1  0  0  0  0
 13 14  2  0  0  0  0
 13 29  1  0  0  0  0
 14 30  1  0  0  0  0
 15 16  2  0  0  0  0
 15 20  1  0  0  0  0
 16 17  1  0  0  0  0
 17 32  1  0  0  0  0
 17 18  2  0  0  0  0
 18 33  1  0  0  0  0
 19 34  1  0  0  0  0
 19 18  1  0  0  0  0
 20 19  2  0  0  0  0
 22  5  1  0  0  0  0
 23  6  1  0  0  0  0
 24  7  1  0  0  0  0
 25  8  1  0  0  0  0
 26 10  1  0  0  0  0
 27 11  1  0  0  0  0
 28 12  1  0  0  0  0
 31 16  1  0  0  0  0
M  END
