1,28
q = 0.0, confidence = 1.0

 50 53  0  0  1  0  0  0  0  0999 V2000
   -1.3503   -0.0597   -0.5376 P   0  0  0  0  0  0  0  0  0  0  0  0
   -1.0615   -1.7939   -1.0258 C   0  0  0  0  0  0  0  0  0  0  0  0
   -1.6116   -2.8705   -0.3050 C   0  0  0  0  0  0  0  0  0  0  0  0
   -1.2660   -4.1870   -0.6488 C   0  0  0  0  0  0  0  0  0  0  0  0
   -0.3717   -4.4329   -1.7014 C   0  0  0  0  0  0  0  0  0  0  0  0
    0.1825   -3.3572   -2.4168 C   0  0  0  0  0  0  0  0  0  0  0  0
   -0.1555   -2.0402   -2.0817 C   0  0  0  0  0  0  0  0  0  0  0  0
   -2.7427   -0.0313    0.6509 C   0  0  0  0  0  0  0  0  0  0  0  0
   -2.5629    0.5526    1.9214 C   0  0  0  0  0  0  0  0  0  0  0  0
   -3.6297    0.5856    2.8329 C   0  0  0  0  0  0  0  0  0  0  0  0
   -4.8728    0.0368    2.4807 C   0  0  0  0  0  0  0  0  0  0  0  0
   -5.0563   -0.5371    1.2104 C   0  0  0  0  0  0  0  0  0  0  0  0
   -3.9982   -0.5669    0.2916 C   0  0  0  0  0  0  0  0  0  0  0  0
   -1.9938    0.7992   -2.0381 C   0  0  0  0  0  0  0  0  0  0  0  0
   -2.4580    0.0451   -3.1334 C   0  0  0  0  0  0  0  0  0  0  0  0
   -2.9451    0.6777   -4.2874 C   0  0  0  0  0  0  0  0  0  0  0  0
   -2.9626    2.0758   -4.3620 C   0  0  0  0  0  0  0  0  0  0  0  0
   -2.5020    2.8332   -3.2751 C   0  0  0  0  0  0  0  0  0  0  0  0
   -2.0211    2.2208   -2.1032 C   0  0  0  0  0  0  0  0  0  0  0  0
   -1.6026    3.1110   -0.9601 C   0  0  0  0  0  0  0  0  0  0  0  0
   -0.1749    3.0031   -0.7057 O   0  0  0  0  0  0  0  0  0  0  0  0
    0.3099    4.0210    0.1889 C   0  0  0  0  0  0  0  0  0  0  0  0
    1.7183    3.6917    0.6155 C   0  0  1  0  0  3  0  0  0  0  0  0
    2.6778    4.6836    0.8561 C   0  0  0  0  0  0  0  0  0  0  0  0
    3.9384    4.3056    1.3413 C   0  0  0  0  0  0  0  0  0  0  0  0
    4.2059    2.9475    1.5589 C   0  0  0  0  0  0  0  0  0  0  0  0
    3.2073    2.0088    1.2771 C   0  0  0  0  0  0  0  0  0  0  0  0
    1.9957    2.3797    0.8203 N   0  0  0  0  0  2  0  0  0  0  0  0
   -2.2946   -2.6846    0.5346 H   0  0  0  0  0  0  0  0  0  0  0  0
   -1.6993   -5.0262   -0.0843 H   0  0  0  0  0  0  0  0  0  0  0  0
   -0.1037   -5.4667   -1.9661 H   0  0  0  0  0  0  0  0  0  0  0  0
    0.8871   -3.5457   -3.2409 H   0  0  0  0  0  0  0  0  0  0  0  0
    0.3013   -1.1995   -2.6247 H   0  0  0  0  0  0  0  0  0  0  0  0
   -1.5824    0.9735    2.1962 H   0  0  0  0  0  0  0  0  0  0  0  0
   -3.4852    1.0395    3.8247 H   0  0  0  0  0  0  0  0  0  0  0  0
   -5.7074    0.0600    3.1973 H   0  0  0  0  0  0  0  0  0  0  0  0
   -6.0331   -0.9599    0.9318 H   0  0  0  0  0  0  0  0  0  0  0  0
   -4.1494   -1.0069   -0.7061 H   0  0  0  0  0  0  0  0  0  0  0  0
   -2.4373   -1.0532   -3.0866 H   0  0  0  0  0  0  0  0  0  0  0  0
   -3.3087    0.0702   -5.1293 H   0  0  0  0  0  0  0  0  0  0  0  0
   -3.3332    2.5814   -5.2656 H   0  0  0  0  0  0  0  0  0  0  0  0
   -2.5199    3.9327   -3.3330 H   0  0  0  0  0  0  0  0  0  0  0  0
   -2.1449    2.8621   -0.0184 H   0  0  0  0  0  0  0  0  0  0  0  0
   -1.8248    4.1670   -1.2191 H   0  0  0  0  0  0  0  0  0  0  0  0
   -0.3451    4.0608    1.0926 H   0  0  0  0  0  0  0  0  0  0  0  0
    0.2666    5.0106   -0.3143 H   0  0  0  0  0  0  0  0  0  0  0  0
    2.4364    5.7395    0.6676 H   0  0  0  0  0  0  0  0  0  0  0  0
    4.7060    5.0675    1.5419 H   0  0  0  0  0  0  0  0  0  0  0  0
    5.1793    2.6088    1.9401 H   0  0  0  0  0  0  0  0  0  0  0  0
    3.3596    0.9292    1.4224 H   0  0  0  0  0  0  0  0  0  0  0  0
  1  8  1  0  0  0  0
  2  1  1  0  0  0  0
  2  3  1  0  0  0  0
  3 29  1  0  0  0  0
  4  3  2  0  0  0  0
  4 30  1  0  0  0  0
  5  4  1  0  0  0  0
  6  7  1  0  0  0  0
  6  5  2  0  0  0  0
  7  2  2  0  0  0  0
  8  9  1  0  0  0  0
  9 34  1  0  0  0  0
  9 10  2  0  0  0  0
 10 35  1  0  0  0  0
 11 10  1  0  0  0  0
 11 36  1  0  0  0  0
 12 11  2  0  0  0  0
 13  8  2  0  0  0  0
 13 12  1  0  0  0  0
 14  1  1  0  0  0  0
 15 39  1  0  0  0  0
 15 14  2  0  0  0  0
 16 15  1  0  0  0  0
 17 16  2  0  0  0  0
 17 18  1  0  0  0  0
 18 19  2  0  0  0  0
 19 14  1  0  0  0  0
 19 20  1  0  0  0  0
 20 21  1  0  0  0  0
 20 43  1  0  0  0  0
 21 22  1  0  0  0  0
 22 45  1  0  0  0  0
 23 22  1  1  0  0  0
 23 28  1  0  0  0  0
 23 24  1  0  0  0  0
 24 25  2  0  0  0  0
 25 48  1  0  0  0  0
 25 26  1  0  0  0  0
 26 49  1  0  0  0  0
 27 50  1  0  0  0  0
 27 26  2  0  0  0  0
 28 27  1  0  0  0  0
 31  5  1  0  0  0  0
 32  6  1  0  0  0  0
 33  7  1  0  0  0  0
 37 12  1  0  0  0  0
 38 13  1  0  0  0  0
 40 16  1  0  0  0  0
 41 17  1  0  0  0  0
 42 18  1  0  0  0  0
 44 20  1  0  0  0  0
 46 22  1  0  0  0  0
 47 24  1  0  0  0  0
M  END
