1,4
q = 0.0, confidence = 0.986

 42 44  0  0  0  0  0  0  0  0999 V2000
   -1.5442   -1.3793   -0.2988 P   0  0  0  0  0  0  0  0  0  0  0  0
    3.0594   -1.4701   -0.3374 O   0  0  0  0  0  0  0  0  0  0  0  0
    3.2161   -2.8123   -0.6219 C   0  0  0  0  0  0  0  0  0  0  0  0
    0.8168   -3.1504   -0.7319 N   0  0  0  0  0  0  0  0  0  0  0  0
   -4.4277   -1.3752    3.3743 C   0  0  0  0  0  0  0  0  0  0  0  0
   -5.1159   -1.3873    4.2336 H   0  0  0  0  0  0  0  0  0  0  0  0
   -4.1132    1.3080   -2.1119 C   0  0  0  0  0  0  0  0  0  0  0  0
   -4.7114    2.1761   -1.7967 H   0  0  0  0  0  0  0  0  0  0  0  0
    4.3754   -3.2646   -0.0416 C   0  0  0  0  0  0  0  0  0  0  0  0
    4.7629   -4.2879   -0.0935 H   0  0  0  0  0  0  0  0  0  0  0  0
   -2.5964   -0.5197   -1.5479 C   0  0  0  0  0  0  0  0  0  0  0  0
   -4.0247   -1.6860    0.9974 C   0  0  0  0  0  0  0  0  0  0  0  0
   -4.4060   -1.9303   -0.0064 H   0  0  0  0  0  0  0  0  0  0  0  0
   -3.3723    0.5932   -1.1611 C   0  0  0  0  0  0  0  0  0  0  0  0
   -3.3981    0.8998   -0.1047 H   0  0  0  0  0  0  0  0  0  0  0  0
    4.1130   -1.0817    0.4507 C   0  0  0  0  0  0  0  0  0  0  0  0
    4.1025   -0.0392    0.7779 H   0  0  0  0  0  0  0  0  0  0  0  0
   -4.8985   -1.7088    2.0923 C   0  0  0  0  0  0  0  0  0  0  0  0
   -5.9542   -1.9831    1.9433 H   0  0  0  0  0  0  0  0  0  0  0  0
    2.1093   -3.4299   -1.3993 C   0  0  0  0  0  0  0  0  0  0  0  0
    2.0402   -2.9772   -2.4124 H   0  0  0  0  0  0  0  0  0  0  0  0
    2.2963   -4.5214   -1.5031 H   0  0  0  0  0  0  0  0  0  0  0  0
   -3.0810   -1.0301    3.5531 C   0  0  0  0  0  0  0  0  0  0  0  0
   -2.7011   -0.7675    4.5517 H   0  0  0  0  0  0  0  0  0  0  0  0
    4.9593   -2.1423    0.6435 C   0  0  0  0  0  0  0  0  0  0  0  0
    5.8914   -2.1275    1.2182 H   0  0  0  0  0  0  0  0  0  0  0  0
   -2.6668   -1.3335    1.1742 C   0  0  0  0  0  0  0  0  0  0  0  0
   -2.5582   -0.8916   -2.9071 C   0  0  0  0  0  0  0  0  0  0  0  0
   -1.9284   -1.7300   -3.2338 H   0  0  0  0  0  0  0  0  0  0  0  0
   -3.3005   -0.1735   -3.8567 C   0  0  0  0  0  0  0  0  0  0  0  0
   -3.2635   -0.4731   -4.9152 H   0  0  0  0  0  0  0  0  0  0  0  0
   -0.3635   -3.6449   -1.4670 C   0  0  0  0  0  0  0  0  0  0  0  0
   -0.3268   -4.7539   -1.5737 H   0  0  0  0  0  0  0  0  0  0  0  0
   -0.3066   -3.1997   -2.4815 H   0  0  0  0  0  0  0  0  0  0  0  0
   -2.1986   -1.0122    2.4599 C   0  0  0  0  0  0  0  0  0  0  0  0
   -1.1365   -0.7769    2.6062 H   0  0  0  0  0  0  0  0  0  0  0  0
   -1.6373   -3.2121   -0.7489 C   0  0  0  0  0  0  0  0  0  0  0  0
   -1.7387   -3.7399    0.2225 H   0  0  0  0  0  0  0  0  0  0  0  0
   -2.5429   -3.4336   -1.3474 H   0  0  0  0  0  0  0  0  0  0  0  0
   -4.0807    0.9253   -3.4620 C   0  0  0  0  0  0  0  0  0  0  0  0
   -4.6600    1.4880   -4.2099 H   0  0  0  0  0  0  0  0  0  0  0  0
    0.8394   -3.5222    0.2370 H   0  0  0  0  0  0  0  0  0  0  0  0
  1 27  1  0  0  0  0
  2 16  1  0  0  0  0
  3  2  1  0  0  0  0
  3  9  2  0  0  0  0
  4 42  1  0  0  0  0
  5 23  1  0  0  0  0
  5  6  1  0  0  0  0
  7  8  1  0  0  0  0
  7 14  1  0  0  0  0
  9 25  1  0  0  0  0
 10  9  1  0  0  0  0
 11 14  2  0  0  0  0
 11  1  1  0  0  0  0
 12 27  2  0  0  0  0
 12 18  1  0  0  0  0
 13 12  1  0  0  0  0
 14 15  1  0  0  0  0
 16 25  2  0  0  0  0
 16 17  1  0  0  0  0
 18  5  2  0  0  0  0
 19 18  1  0  0  0  0
 20  4  1  0  0  0  0
 20  3  1  0  0  0  0
 21 20  1  0  0  0  0
 22 20  1  0  0  0  0
 23 24  1  0  0  0  0
 25 26  1  0  0  0  0
 27 35  1  0  0  0  0
 28 11  1  0  0  0  0
 29 28  1  0  0  0  0
 30 40  1  0  0  0  0
 30 28  2  0  0  0  0
 31 30  1  0  0  0  0
 32 37  1  0  0  0  0
 32  4  1  0  0  0  0
 33 32  1  0  0  0  0
 34 32  1  0  0  0  0
 35 36  1  0  0  0  0
 35 23  2  0  0  0  0
 37  1  1  0  0  0  0
 37 38  1  0  0  0  0
 39 37  1  0  0  0  0
 40  7  2  0  0  0  0
 41 40  1  0  0  0  0
M  END
