1,2
q = -1.0, confidence = 0.0

 25 24  0  0  0  0  0  0  0  0999 V2000
    2.8541   -0.5312    0.9677 P   0  0  0  0  0  0  0  0  0  0  0  0
    1.6026   -2.3792   -0.4572 Si  0  0  0  0  0  3  0  0  0  0  0  0
    3.0590   -2.1241    0.5539 O   0  0  0  0  0  0  0  0  0  0  0  0
    0.7942   -3.8961    0.3319 C   0  0  0  0  0  0  0  0  0  0  0  0
    1.5178   -4.7379    0.3095 H   0  0  0  0  0  0  0  0  0  0  0  0
   -0.1186   -4.2136   -0.2099 H   0  0  0  0  0  0  0  0  0  0  0  0
    0.5207   -3.7060    1.3879 H   0  0  0  0  0  0  0  0  0  0  0  0
    2.2946   -2.8763   -2.1456 C   0  0  0  0  0  0  0  0  0  0  0  0
    2.7555   -2.0122   -2.6634 H   0  0  0  0  0  0  0  0  0  0  0  0
    1.5023   -3.2900   -2.8001 H   0  0  0  0  0  0  0  0  0  0  0  0
    3.0715   -3.6572   -2.0054 H   0  0  0  0  0  0  0  0  0  0  0  0
    2.8920   -0.5443    2.8148 C   0  0  0  0  0  0  0  0  0  0  0  0
    3.8631   -0.9957    3.1130 H   0  0  0  0  0  0  0  0  0  0  0  0
    2.9041    0.5157    3.1491 H   0  0  0  0  0  0  0  0  0  0  0  0
    1.7166   -1.3101    3.4208 C   0  0  0  0  0  0  0  0  0  0  0  0
    0.7470   -0.8716    3.1102 H   0  0  0  0  0  0  0  0  0  0  0  0
    1.7612   -1.2985    4.5279 H   0  0  0  0  0  0  0  0  0  0  0  0
    1.7272   -2.3670    3.0890 H   0  0  0  0  0  0  0  0  0  0  0  0
    4.4783    0.2307    0.5199 C   0  0  0  0  0  0  0  0  0  0  0  0
    4.4369    1.2986    0.8273 H   0  0  0  0  0  0  0  0  0  0  0  0
    5.2558   -0.2583    1.1460 H   0  0  0  0  0  0  0  0  0  0  0  0
    4.7929    0.0781   -0.9685 C   0  0  0  0  0  0  0  0  0  0  0  0
    4.8600   -0.9934   -1.2403 H   0  0  0  0  0  0  0  0  0  0  0  0
    5.7569    0.5604   -1.2254 H   0  0  0  0  0  0  0  0  0  0  0  0
    4.0015    0.5312   -1.5995 H   0  0  0  0  0  0  0  0  0  0  0  0
  1 12  1  0  0  0  0
  2  4  1  0  0  0  0
  2  3  1  0  0  0  0
  3  1  1  0  0  0  0
  4  7  1  0  0  0  0
  5  4  1  0  0  0  0
  6  4  1  0  0  0  0
  8 11  1  0  0  0  0
  8  2  1  0  0  0  0
  9  8  1  0  0  0  0
 10  8  1  0  0  0  0
 12 13  1  0  0  0  0
 12 14  1  0  0  0  0
 12 15  1  0  0  0  0
 15 17  1  0  0  0  0
 16 15  1  0  0  0  0
 18 15  1  0  0  0  0
 19 20  1  0  0  0  0
 19  1  1  0  0  0  0
 19 21  1  0  0  0  0
 22 19  1  0  0  0  0
 23 22  1  0  0  0  0
 24 22  1  0  0  0  0
 25 22  1  0  0  0  0
M  END
