1,2
q = -1.0

 38 39  0  0  0  0  0  0  0  0999 V2000
   -1.3337   -0.2131    0.6433 P   0  0  0  0  0  0  0  0  0  0  0  0
    1.4160   -0.0406    2.1900 Si  0  0  0  0  0  3  0  0  0  0  0  0
   -0.2131    0.5212    3.0771 C   0  0  0  0  0  0  0  0  0  0  0  0
   -1.3947   -0.2635    2.5045 C   0  0  0  0  0  0  0  0  0  0  0  0
    2.7505    1.2105    2.7588 C   0  0  0  0  0  0  0  0  0  0  0  0
    1.8989   -1.6901    3.0329 C   0  0  0  0  0  0  0  0  0  0  0  0
   -2.3648    1.2260    0.1373 C   0  0  0  0  0  0  0  0  0  0  0  0
   -2.9088    2.1550    1.0457 C   0  0  0  0  0  0  0  0  0  0  0  0
   -3.6418    3.2578    0.5749 C   0  0  0  0  0  0  0  0  0  0  0  0
   -3.8402    3.4362   -0.8026 C   0  0  0  0  0  0  0  0  0  0  0  0
   -3.3033    2.5074   -1.7116 C   0  0  0  0  0  0  0  0  0  0  0  0
   -2.5662    1.4084   -1.2495 C   0  0  0  0  0  0  0  0  0  0  0  0
   -2.4320   -1.6163    0.1662 C   0  0  0  0  0  0  0  0  0  0  0  0
   -3.8119   -1.5389    0.4503 C   0  0  0  0  0  0  0  0  0  0  0  0
   -4.6529   -2.6247    0.1669 C   0  0  0  0  0  0  0  0  0  0  0  0
   -4.1245   -3.7903   -0.4119 C   0  0  0  0  0  0  0  0  0  0  0  0
   -2.7547   -3.8642   -0.7081 C   0  0  0  0  0  0  0  0  0  0  0  0
   -1.9082   -2.7817   -0.4230 C   0  0  0  0  0  0  0  0  0  0  0  0
   -0.1327    0.3737    4.1764 H   0  0  0  0  0  0  0  0  0  0  0  0
   -0.3515    1.6118    2.9092 H   0  0  0  0  0  0  0  0  0  0  0  0
   -2.3953    0.0538    2.8681 H   0  0  0  0  0  0  0  0  0  0  0  0
   -1.3024   -1.3444    2.7433 H   0  0  0  0  0  0  0  0  0  0  0  0
    2.4971    2.2558    2.4896 H   0  0  0  0  0  0  0  0  0  0  0  0
    2.8348    1.1665    3.8660 H   0  0  0  0  0  0  0  0  0  0  0  0
    3.7526    0.9857    2.3423 H   0  0  0  0  0  0  0  0  0  0  0  0
    2.1066   -1.5476    4.1149 H   0  0  0  0  0  0  0  0  0  0  0  0
    1.0806   -2.4315    2.9281 H   0  0  0  0  0  0  0  0  0  0  0  0
    2.8022   -2.1429    2.5738 H   0  0  0  0  0  0  0  0  0  0  0  0
   -2.7534    2.0325    2.1279 H   0  0  0  0  0  0  0  0  0  0  0  0
   -4.0596    3.9810    1.2919 H   0  0  0  0  0  0  0  0  0  0  0  0
   -4.4155    4.2999   -1.1695 H   0  0  0  0  0  0  0  0  0  0  0  0
   -3.4575    2.6424   -2.7933 H   0  0  0  0  0  0  0  0  0  0  0  0
   -2.1163    0.6879   -1.9550 H   0  0  0  0  0  0  0  0  0  0  0  0
   -4.2341   -0.6204    0.8874 H   0  0  0  0  0  0  0  0  0  0  0  0
   -5.7280   -2.5572    0.3938 H   0  0  0  0  0  0  0  0  0  0  0  0
   -4.7859   -4.6402   -0.6406 H   0  0  0  0  0  0  0  0  0  0  0  0
   -2.3395   -4.7692   -1.1772 H   0  0  0  0  0  0  0  0  0  0  0  0
   -0.8389   -2.8127   -0.6766 H   0  0  0  0  0  0  0  0  0  0  0  0
  1  4  1  0  0  0  0
  2  5  1  0  0  0  0
  2  6  1  0  0  0  0
  2  3  1  0  0  0  0
  3 19  1  0  0  0  0
  4 22  1  0  0  0  0
  4 21  1  0  0  0  0
  4  3  1  0  0  0  0
  5 24  1  0  0  0  0
  6 26  1  0  0  0  0
  7  1  1  0  0  0  0
  7  8  1  0  0  0  0
  8 29  1  0  0  0  0
  9  8  2  0  0  0  0
  9 30  1  0  0  0  0
 10  9  1  0  0  0  0
 11 12  1  0  0  0  0
 11 10  2  0  0  0  0
 12  7  2  0  0  0  0
 13 14  1  0  0  0  0
 13  1  1  0  0  0  0
 14 34  1  0  0  0  0
 15 35  1  0  0  0  0
 15 14  2  0  0  0  0
 16 15  1  0  0  0  0
 17 18  1  0  0  0  0
 17 16  2  0  0  0  0
 18 13  2  0  0  0  0
 20  3  1  0  0  0  0
 23  5  1  0  0  0  0
 25  5  1  0  0  0  0
 27  6  1  0  0  0  0
 28  6  1  0  0  0  0
 31 10  1  0  0  0  0
 32 11  1  0  0  0  0
 33 12  1  0  0  0  0
 36 16  1  0  0  0  0
 37 17  1  0  0  0  0
 38 18  1  0  0  0  0
M  END
