1,4,22
q = -1.0, confidence = 0.032

 41 42  0  0  1  0  0  0  0  0999 V2000
   -2.7080   -0.8934   -0.0271 S   0  0  0  0  0  0  0  0  0  0  0  0
   -4.5265    1.3912   -0.0917 S   0  0  0  0  0  0  0  0  0  0  0  0
    1.6694    0.5804   -0.6223 N   0  0  0  0  0  0  0  0  0  0  0  0
    0.2796    0.4449   -0.6115 N   0  0  0  0  0  2  0  0  0  0  0  0
   -0.4358    1.4795   -1.0543 C   0  0  0  0  0  0  0  0  0  0  0  0
   -1.8669    1.6260   -0.8802 C   0  0  0  0  0  0  0  0  0  0  0  0
   -2.2063    2.6075   -1.2455 H   0  0  0  0  0  0  0  0  0  0  0  0
   -2.8664    0.8466   -0.3422 C   0  0  0  0  0  3  0  0  0  0  0  0
    0.2362    2.6165   -1.7849 C   0  0  0  0  0  0  0  0  0  0  0  0
    0.6405    3.3916   -1.1009 H   0  0  0  0  0  0  0  0  0  0  0  0
   -0.4875    3.1040   -2.4648 H   0  0  0  0  0  0  0  0  0  0  0  0
    1.0907    2.2321   -2.3747 H   0  0  0  0  0  0  0  0  0  0  0  0
   -4.4028    3.2009   -0.1711 C   0  0  0  0  0  0  0  0  0  0  0  0
   -3.6084    3.5709    0.5069 H   0  0  0  0  0  0  0  0  0  0  0  0
   -5.3847    3.5828    0.1679 H   0  0  0  0  0  0  0  0  0  0  0  0
   -4.2201    3.5566   -1.2044 H   0  0  0  0  0  0  0  0  0  0  0  0
   -3.1860   -1.0695    1.7310 C   0  0  0  0  0  0  0  0  0  0  0  0
   -2.6002   -0.3692    2.3533 H   0  0  0  0  0  0  0  0  0  0  0  0
   -2.8993   -2.1159    1.9561 H   0  0  0  0  0  0  0  0  0  0  0  0
   -4.2727   -0.9101    1.8507 H   0  0  0  0  0  0  0  0  0  0  0  0
    2.3520   -0.6637   -0.4640 C   0  0  2  0  0  3  0  0  0  0  0  0
    1.5604   -1.8062   -0.1970 C   0  0  0  0  0  2  0  0  0  0  0  0
    2.1919   -3.0501   -0.0451 C   0  0  0  0  0  0  0  0  0  0  0  0
    1.5726   -3.9341    0.1661 H   0  0  0  0  0  0  0  0  0  0  0  0
    3.5909   -3.1534   -0.1357 C   0  0  0  0  0  0  0  0  0  0  0  0
    4.0761   -4.1328   -0.0038 H   0  0  0  0  0  0  0  0  0  0  0  0
    4.3666   -2.0102   -0.3847 C   0  0  0  0  0  0  0  0  0  0  0  0
    5.4623   -2.0858   -0.4539 H   0  0  0  0  0  0  0  0  0  0  0  0
    3.7536   -0.7603   -0.5516 C   0  0  0  0  0  0  0  0  0  0  0  0
    4.3654    0.1308   -0.7473 H   0  0  0  0  0  0  0  0  0  0  0  0
    2.2057    1.7130    0.0887 C   0  0  0  0  0  0  0  0  0  0  0  0
    3.2477    2.4723   -0.4711 C   0  0  0  0  0  0  0  0  0  0  0  0
    3.6134    2.2249   -1.4780 H   0  0  0  0  0  0  0  0  0  0  0  0
    3.7918    3.5482    0.2469 C   0  0  0  0  0  0  0  0  0  0  0  0
    4.6100    4.1373   -0.1941 H   0  0  0  0  0  0  0  0  0  0  0  0
    3.2843    3.8825    1.5117 C   0  0  0  0  0  0  0  0  0  0  0  0
    3.7064    4.7318    2.0693 H   0  0  0  0  0  0  0  0  0  0  0  0
    2.2349    3.1278    2.0638 C   0  0  0  0  0  0  0  0  0  0  0  0
    1.8403    3.3783    3.0602 H   0  0  0  0  0  0  0  0  0  0  0  0
    1.6998    2.0401    1.3617 C   0  0  0  0  0  0  0  0  0  0  0  0
    0.8930    1.4280    1.7909 H   0  0  0  0  0  0  0  0  0  0  0  0
  1 17  1  0  0  0  0
  3  4  1  0  0  0  0
  3 31  1  0  0  0  0
  5  6  2  0  0  0  0
  5  4  1  0  0  0  0
  6  8  1  0  0  0  0
  7  6  1  0  0  0  0
  8  2  1  0  0  0  0
  8  1  1  0  0  0  0
  9 10  1  0  0  0  0
  9  5  1  0  0  0  0
 11  9  1  0  0  0  0
 12  9  1  0  0  0  0
 13  2  1  0  0  0  0
 13 15  1  0  0  0  0
 13 14  1  0  0  0  0
 16 13  1  0  0  0  0
 17 20  1  0  0  0  0
 17 19  1  0  0  0  0
 17 18  1  0  0  0  0
 21  3  1  1  0  0  0
 21 22  1  0  0  0  0
 22 23  1  0  0  0  0
 23 24  1  0  0  0  0
 25 23  2  0  0  0  0
 25 26  1  0  0  0  0
 27 25  1  0  0  0  0
 28 27  1  0  0  0  0
 29 21  1  0  0  0  0
 29 27  2  0  0  0  0
 30 29  1  0  0  0  0
 31 40  1  0  0  0  0
 32 31  2  0  0  0  0
 32 34  1  0  0  0  0
 33 32  1  0  0  0  0
 34 36  2  0  0  0  0
 35 34  1  0  0  0  0
 36 38  1  0  0  0  0
 36 37  1  0  0  0  0
 38 39  1  0  0  0  0
 40 41  1  0  0  0  0
 40 38  2  0  0  0  0
M  END
