1,2,3
q = -1.0, confidence = 0.014

 37 37  0  0  1  0  0  0  0  0999 V2000
    1.0591    2.1398    0.0705 S   0  0  0  0  0  0  0  0  0  0  0  0
   -2.3714   -0.6793   -0.1776 C   0  0  0  0  0  2  0  0  0  0  0  0
    0.0064   -1.0213    0.8418 N   0  0  0  0  0  2  0  0  0  0  0  0
    5.8755   -0.2001   -1.7392 C   0  0  0  0  0  0  0  0  0  0  0  0
    6.7624   -0.3632   -1.1034 H   0  0  0  0  0  0  0  0  0  0  0  0
    5.9698    0.5392   -2.5496 H   0  0  0  0  0  0  0  0  0  0  0  0
    1.8941   -2.1523   -0.8343 O   0  0  0  0  0  0  0  0  0  0  0  0
   -0.7668   -2.0831    0.9242 C   0  0  0  0  0  0  0  0  0  0  0  0
   -0.3874   -3.0089    1.3949 H   0  0  0  0  0  0  0  0  0  0  0  0
   -4.6082   -1.4926   -0.7034 C   0  0  0  0  0  0  0  0  0  0  0  0
   -5.6043   -1.3068   -1.1364 H   0  0  0  0  0  0  0  0  0  0  0  0
    3.5884   -1.4793    0.5255 O   0  0  0  0  0  0  0  0  0  0  0  0
    4.7366   -0.8859   -1.5433 C   0  0  0  0  0  0  0  0  0  0  0  0
    3.8597   -0.7144   -2.1916 H   0  0  0  0  0  0  0  0  0  0  0  0
   -2.0936   -1.9662    0.3889 C   0  0  0  0  0  0  0  0  0  0  0  0
    2.3583    1.3043    1.0587 C   0  0  0  0  0  0  0  0  0  0  0  0
    3.0932    0.9254    0.3209 H   0  0  0  0  0  0  0  0  0  0  0  0
    2.8734    2.0973    1.6377 H   0  0  0  0  0  0  0  0  0  0  0  0
    2.2852   -1.6340    0.1888 C   0  0  0  0  0  0  0  0  0  0  0  0
   -3.0612   -2.9965    0.4047 C   0  0  0  0  0  0  0  0  0  0  0  0
   -2.8162   -3.9765    0.8447 H   0  0  0  0  0  0  0  0  0  0  0  0
   -3.6496   -0.4638   -0.7217 C   0  0  0  0  0  0  0  0  0  0  0  0
   -3.8876    0.5165   -1.1606 H   0  0  0  0  0  0  0  0  0  0  0  0
   -4.3232   -2.7557   -0.1454 C   0  0  0  0  0  0  0  0  0  0  0  0
   -5.0892   -3.5454   -0.1444 H   0  0  0  0  0  0  0  0  0  0  0  0
    4.5583   -1.9182   -0.4701 C   0  0  0  0  0  0  0  0  0  0  0  0
    5.4928   -2.0845    0.0980 H   0  0  0  0  0  0  0  0  0  0  0  0
    4.1988   -2.8758   -0.9008 H   0  0  0  0  0  0  0  0  0  0  0  0
    0.4321    3.3550    1.2780 C   0  0  0  0  0  0  0  0  0  0  0  0
    0.1386    2.8600    2.2228 H   0  0  0  0  0  0  0  0  0  0  0  0
   -0.4681    3.7809    0.7947 H   0  0  0  0  0  0  0  0  0  0  0  0
    1.1961    4.1373    1.4521 H   0  0  0  0  0  0  0  0  0  0  0  0
    1.3774   -1.1086    1.3199 C   0  0  1  0  0  0  0  0  0  0  0  0
    1.4203   -1.9052    2.0992 H   0  0  0  0  0  0  0  0  0  0  0  0
    1.8938    0.1833    1.9892 C   0  0  0  0  0  0  0  0  0  0  0  0
    1.1021    0.5465    2.6770 H   0  0  0  0  0  0  0  0  0  0  0  0
    2.7620   -0.1011    2.6177 H   0  0  0  0  0  0  0  0  0  0  0  0
  1 16  1  0  0  0  0
  1 29  1  0  0  0  0
  2 15  1  0  0  0  0
  3  8  1  0  0  0  0
  3 33  1  0  0  0  0
  4 13  2  0  0  0  0
  4  5  1  0  0  0  0
  6  4  1  0  0  0  0
  7 19  2  0  0  0  0
  8  9  1  0  0  0  0
 10 24  1  0  0  0  0
 11 10  1  0  0  0  0
 13 26  1  0  0  0  0
 14 13  1  0  0  0  0
 15 20  1  0  0  0  0
 15  8  2  0  0  0  0
 16 18  1  0  0  0  0
 16 35  1  0  0  0  0
 17 16  1  0  0  0  0
 19 12  1  0  0  0  0
 19 33  1  0  0  0  0
 20 21  1  0  0  0  0
 22 10  2  0  0  0  0
 22  2  1  0  0  0  0
 23 22  1  0  0  0  0
 24 25  1  0  0  0  0
 24 20  2  0  0  0  0
 26 27  1  0  0  0  0
 26 12  1  0  0  0  0
 28 26  1  0  0  0  0
 29 32  1  0  0  0  0
 29 30  1  0  0  0  0
 31 29  1  0  0  0  0
 33 35  1  0  0  0  0
 33 34  1  1  0  0  0
 35 37  1  0  0  0  0
 35 36  1  0  0  0  0
M  END
