1,3,27
q = -2.0, confidence = 0.728

 37 38  0  0  0  0  0  0  0  0999 V2000
   -0.0135   -1.5116   -1.1689 S   0  0  0  0  0  0  0  0  0  0  0  0
   -3.4754    2.0835    0.6711 O   0  0  0  0  0  0  0  0  0  0  0  0
   -1.7369    0.7624   -0.1639 N   0  0  0  0  0  2  0  0  0  0  0  0
   -1.7954   -1.5271   -0.9990 C   0  0  0  0  0  0  0  0  0  0  0  0
   -2.4764   -0.3621   -0.5245 C   0  0  0  0  0  0  0  0  0  0  0  0
   -3.8976   -0.4621   -0.4377 C   0  0  0  0  0  0  0  0  0  0  0  0
   -4.4438    0.4152   -0.0748 H   0  0  0  0  0  0  0  0  0  0  0  0
   -4.5618   -1.6372   -0.7979 C   0  0  0  0  0  0  0  0  0  0  0  0
   -5.6598   -1.6663   -0.7166 H   0  0  0  0  0  0  0  0  0  0  0  0
   -3.8681   -2.7684   -1.2662 C   0  0  0  0  0  0  0  0  0  0  0  0
   -4.4042   -3.6844   -1.5537 H   0  0  0  0  0  0  0  0  0  0  0  0
   -2.4754   -2.6999   -1.3703 C   0  0  0  0  0  0  0  0  0  0  0  0
   -1.8914   -3.5578   -1.7370 H   0  0  0  0  0  0  0  0  0  0  0  0
    0.5858   -2.2399    0.3694 C   0  0  0  0  0  0  0  0  0  0  0  0
    1.9626   -2.5284    0.4383 C   0  0  0  0  0  0  0  0  0  0  0  0
    2.6095   -2.3438   -0.4338 H   0  0  0  0  0  0  0  0  0  0  0  0
    2.5014   -3.0470    1.6243 C   0  0  0  0  0  0  0  0  0  0  0  0
    3.5780   -3.2706    1.6775 H   0  0  0  0  0  0  0  0  0  0  0  0
    1.6737   -3.2888    2.7330 C   0  0  0  0  0  0  0  0  0  0  0  0
    2.0980   -3.7002    3.6609 H   0  0  0  0  0  0  0  0  0  0  0  0
    0.3006   -3.0066    2.6489 C   0  0  0  0  0  0  0  0  0  0  0  0
   -0.3550   -3.1933    3.5131 H   0  0  0  0  0  0  0  0  0  0  0  0
   -0.2515   -2.4800    1.4715 C   0  0  0  0  0  0  0  0  0  0  0  0
   -1.3245   -2.2487    1.4039 H   0  0  0  0  0  0  0  0  0  0  0  0
   -2.2780    1.8836    0.4556 C   0  0  0  0  0  0  0  0  0  0  0  0
   -1.1880    2.8639    0.9547 C   0  0  0  0  0  0  0  0  0  0  0  0
    0.0500    2.7475    0.0616 C   0  0  0  0  0  3  0  0  0  0  0  0
    0.9726    3.1092    0.5662 H   0  0  0  0  0  0  0  0  0  0  0  0
   -0.0772    3.3026   -0.8934 H   0  0  0  0  0  0  0  0  0  0  0  0
   -0.8499    2.4227    2.3972 C   0  0  0  0  0  0  0  0  0  0  0  0
   -0.4428    1.3902    2.4055 H   0  0  0  0  0  0  0  0  0  0  0  0
   -1.7531    2.4488    3.0391 H   0  0  0  0  0  0  0  0  0  0  0  0
   -0.0897    3.1019    2.8375 H   0  0  0  0  0  0  0  0  0  0  0  0
   -1.7529    4.2915    0.9670 C   0  0  0  0  0  0  0  0  0  0  0  0
   -1.0297    4.9965    1.4255 H   0  0  0  0  0  0  0  0  0  0  0  0
   -2.7014    4.3164    1.5400 H   0  0  0  0  0  0  0  0  0  0  0  0
   -1.9749    4.6403   -0.0616 H   0  0  0  0  0  0  0  0  0  0  0  0
  1  4  1  0  0  0  0
  1 14  1  0  0  0  0
  3 25  1  0  0  0  0
  4  5  1  0  0  0  0
  5  6  2  0  0  0  0
  5  3  1  0  0  0  0
  6  7  1  0  0  0  0
  8  9  1  0  0  0  0
  8  6  1  0  0  0  0
 10  8  2  0  0  0  0
 11 10  1  0  0  0  0
 12 10  1  0  0  0  0
 12  4  2  0  0  0  0
 13 12  1  0  0  0  0
 14 15  2  0  0  0  0
 14 23  1  0  0  0  0
 15 17  1  0  0  0  0
 16 15  1  0  0  0  0
 17 18  1  0  0  0  0
 17 19  2  0  0  0  0
 19 20  1  0  0  0  0
 21 19  1  0  0  0  0
 21 22  1  0  0  0  0
 23 21  2  0  0  0  0
 24 23  1  0  0  0  0
 25  2  2  0  0  0  0
 25 26  1  0  0  0  0
 26 34  1  0  0  0  0
 26 30  1  0  0  0  0
 27 28  1  0  0  0  0
 27 26  1  0  0  0  0
 29 27  1  0  0  0  0
 30 31  1  0  0  0  0
 30 33  1  0  0  0  0
 30 32  1  0  0  0  0
 34 35  1  0  0  0  0
 34 36  1  0  0  0  0
 37 34  1  0  0  0  0
M  END
