1,4,21
q = -2.0, confidence = 0.672

 27 27  0  0  0  0  0  0  0  0999 V2000
   -0.4087    2.2457    1.6301 S   0  0  0  0  0  1  0  0  0  0  0  0
   -3.4486    1.6309   -1.3387 C   0  0  0  0  0  0  0  0  0  0  0  0
   -3.7704    0.2064   -1.3602 C   0  0  0  0  0  0  0  0  0  0  0  0
   -3.0421   -0.6221   -0.4370 C   0  0  0  0  0  2  0  0  0  0  0  0
   -4.0963    2.6404   -2.2285 C   0  0  0  0  0  0  0  0  0  0  0  0
   -3.6982    3.6469   -2.0137 H   0  0  0  0  0  0  0  0  0  0  0  0
   -5.1963    2.6404   -2.0808 H   0  0  0  0  0  0  0  0  0  0  0  0
   -3.9141    2.3954   -3.2959 H   0  0  0  0  0  0  0  0  0  0  0  0
   -1.1417    3.4512    0.5581 C   0  0  0  0  0  0  0  0  0  0  0  0
   -1.2237    5.8477   -0.0441 C   0  0  0  0  0  0  0  0  0  0  0  0
   -1.1588    5.6683   -1.1368 H   0  0  0  0  0  0  0  0  0  0  0  0
   -0.6438    6.7551    0.2069 H   0  0  0  0  0  0  0  0  0  0  0  0
   -2.2944    6.0243    0.1973 H   0  0  0  0  0  0  0  0  0  0  0  0
   -3.2921   -1.9996   -0.4462 C   0  0  0  0  0  0  0  0  0  0  0  0
   -2.7664   -2.6901    0.2274 H   0  0  0  0  0  0  0  0  0  0  0  0
   -4.2416   -2.5300   -1.3386 C   0  0  0  0  0  0  0  0  0  0  0  0
   -4.9649   -1.7327   -2.2351 C   0  0  0  0  0  0  0  0  0  0  0  0
   -5.6945   -2.2053   -2.9046 H   0  0  0  0  0  0  0  0  0  0  0  0
   -4.7211   -0.3542   -2.2406 C   0  0  0  0  0  0  0  0  0  0  0  0
   -5.2751    0.2890   -2.9407 H   0  0  0  0  0  0  0  0  0  0  0  0
   -2.5063    1.9632   -0.4608 N   0  0  0  0  0  2  0  0  0  0  0  0
   -2.0851    3.2397   -0.3515 N   0  0  0  0  0  0  0  0  0  0  0  0
   -0.6857    4.7238    0.6927 N   0  0  0  0  0  0  0  0  0  0  0  0
   -0.0139    4.8805    1.4432 H   0  0  0  0  0  0  0  0  0  0  0  0
   -4.4865   -3.9907   -1.3330 N   0  0  0  0  0  0  0  0  0  0  0  0
   -5.3349   -4.4322   -2.1117 O   0  0  0  0  0  0  0  0  0  0  0  0
   -3.8249   -4.6779   -0.5515 O   0  0  0  0  0  0  0  0  0  0  0  0
  2 21  1  0  0  0  0
  3  2  2  0  0  0  0
  3  4  1  0  0  0  0
  5  7  1  0  0  0  0
  5  6  1  0  0  0  0
  5  2  1  0  0  0  0
  8  5  1  0  0  0  0
  9 23  1  0  0  0  0
  9  1  1  0  0  0  0
 10 13  1  0  0  0  0
 10 12  1  0  0  0  0
 10 23  1  0  0  0  0
 11 10  1  0  0  0  0
 14  4  1  0  0  0  0
 14 15  1  0  0  0  0
 16 25  1  0  0  0  0
 16 14  2  0  0  0  0
 17 16  1  0  0  0  0
 18 17  1  0  0  0  0
 19 17  2  0  0  0  0
 19  3  1  0  0  0  0
 20 19  1  0  0  0  0
 21 22  1  0  0  0  0
 22  9  2  0  0  0  0
 23 24  1  0  0  0  0
 25 27  2  0  0  0  0
 26 25  2  0  0  0  0
M  END
