1,3,9
q = -1.0, confidence = 0.03

 48 49  0  0  0  0  0  0  0  0999 V2000
    2.1984   -0.5998   -0.1893 S   0  0  0  0  0  0  0  0  0  0  0  0
    3.0402    2.3005    0.3690 S   0  0  0  0  0  0  0  0  0  0  0  0
   -0.5819    0.5897    0.0033 N   0  0  0  0  0  2  0  0  0  0  0  0
   -1.8882    0.9033    0.0280 C   0  0  0  0  0  0  0  0  0  0  0  0
    0.4491    1.5162    0.0420 C   0  0  0  0  0  0  0  0  0  0  0  0
    0.1924    2.5873    0.0550 H   0  0  0  0  0  0  0  0  0  0  0  0
    1.7655    1.1312    0.0578 C   0  0  0  0  0  0  0  0  0  0  0  0
   -2.7717   -0.2362   -0.1036 C   0  0  0  0  0  0  0  0  0  0  0  0
   -2.1094   -1.5100   -0.2386 C   0  0  0  0  0  2  0  0  0  0  0  0
   -2.9018   -2.6625   -0.3778 C   0  0  0  0  0  0  0  0  0  0  0  0
   -2.4041   -3.6381   -0.4840 H   0  0  0  0  0  0  0  0  0  0  0  0
   -4.3031   -2.5664   -0.3623 C   0  0  0  0  0  0  0  0  0  0  0  0
   -4.9088   -3.4814   -0.4613 H   0  0  0  0  0  0  0  0  0  0  0  0
   -4.9476   -1.3212   -0.2086 C   0  0  0  0  0  0  0  0  0  0  0  0
   -6.0462   -1.2665   -0.1875 H   0  0  0  0  0  0  0  0  0  0  0  0
   -4.1871   -0.1578   -0.0761 C   0  0  0  0  0  0  0  0  0  0  0  0
   -4.6796    0.8173    0.0557 H   0  0  0  0  0  0  0  0  0  0  0  0
   -2.3659    2.2954    0.1943 C   0  0  0  0  0  0  0  0  0  0  0  0
   -2.0267    3.0435    1.3448 C   0  0  0  0  0  0  0  0  0  0  0  0
   -1.4086    2.5793    2.1281 H   0  0  0  0  0  0  0  0  0  0  0  0
   -2.4930    4.3558    1.5007 C   0  0  0  0  0  0  0  0  0  0  0  0
   -2.2284    4.9246    2.4048 H   0  0  0  0  0  0  0  0  0  0  0  0
   -3.3006    4.9400    0.5116 C   0  0  0  0  0  0  0  0  0  0  0  0
   -3.6648    5.9710    0.6350 H   0  0  0  0  0  0  0  0  0  0  0  0
   -3.6446    4.2040   -0.6335 C   0  0  0  0  0  0  0  0  0  0  0  0
   -4.2742    4.6586   -1.4133 H   0  0  0  0  0  0  0  0  0  0  0  0
   -3.1859    2.8888   -0.7916 C   0  0  0  0  0  0  0  0  0  0  0  0
   -3.4467    2.3135   -1.6922 H   0  0  0  0  0  0  0  0  0  0  0  0
    3.0115   -1.0370    1.4426 C   0  0  0  0  0  0  0  0  0  0  0  0
    3.8498   -0.3112    1.5169 H   0  0  0  0  0  0  0  0  0  0  0  0
    2.0500   -0.8574    2.6076 C   0  0  0  0  0  0  0  0  0  0  0  0
    1.6786    0.1844    2.6718 H   0  0  0  0  0  0  0  0  0  0  0  0
    2.5711   -1.0949    3.5586 H   0  0  0  0  0  0  0  0  0  0  0  0
    1.1768   -1.5329    2.5002 H   0  0  0  0  0  0  0  0  0  0  0  0
    3.5314   -2.4637    1.2799 C   0  0  0  0  0  0  0  0  0  0  0  0
    4.2552   -2.5429    0.4445 H   0  0  0  0  0  0  0  0  0  0  0  0
    2.6961   -3.1678    1.0832 H   0  0  0  0  0  0  0  0  0  0  0  0
    4.0451   -2.7757    2.2121 H   0  0  0  0  0  0  0  0  0  0  0  0
    4.2551    1.9173   -0.9905 C   0  0  0  0  0  0  0  0  0  0  0  0
    4.4845    0.8353   -0.8881 H   0  0  0  0  0  0  0  0  0  0  0  0
    5.5074    2.7432   -0.7030 C   0  0  0  0  0  0  0  0  0  0  0  0
    5.9288    2.5155    0.2962 H   0  0  0  0  0  0  0  0  0  0  0  0
    5.2915    3.8307   -0.7497 H   0  0  0  0  0  0  0  0  0  0  0  0
    6.2839    2.5213   -1.4629 H   0  0  0  0  0  0  0  0  0  0  0  0
    3.6455    2.1860   -2.3608 C   0  0  0  0  0  0  0  0  0  0  0  0
    2.7387    1.5716   -2.5275 H   0  0  0  0  0  0  0  0  0  0  0  0
    4.3767    1.9331   -3.1573 H   0  0  0  0  0  0  0  0  0  0  0  0
    3.3671    3.2542   -2.4694 H   0  0  0  0  0  0  0  0  0  0  0  0
  1  7  1  0  0  0  0
  1 29  1  0  0  0  0
  3  4  1  0  0  0  0
  3  5  1  0  0  0  0
  4 18  1  0  0  0  0
  5  6  1  0  0  0  0
  5  7  2  0  0  0  0
  7  2  1  0  0  0  0
  8 16  1  0  0  0  0
  8  4  2  0  0  0  0
  9  8  1  0  0  0  0
 10 12  2  0  0  0  0
 10  9  1  0  0  0  0
 11 10  1  0  0  0  0
 12 14  1  0  0  0  0
 13 12  1  0  0  0  0
 14 15  1  0  0  0  0
 14 16  2  0  0  0  0
 16 17  1  0  0  0  0
 18 19  1  0  0  0  0
 19 21  2  0  0  0  0
 19 20  1  0  0  0  0
 21 22  1  0  0  0  0
 23 24  1  0  0  0  0
 23 21  1  0  0  0  0
 25 23  2  0  0  0  0
 26 25  1  0  0  0  0
 27 25  1  0  0  0  0
 27 18  2  0  0  0  0
 28 27  1  0  0  0  0
 29 30  1  0  0  0  0
 29 31  1  0  0  0  0
 31 32  1  0  0  0  0
 31 33  1  0  0  0  0
 34 31  1  0  0  0  0
 35 29  1  0  0  0  0
 35 38  1  0  0  0  0
 36 35  1  0  0  0  0
 37 35  1  0  0  0  0
 39 40  1  0  0  0  0
 39 41  1  0  0  0  0
 39  2  1  0  0  0  0
 41 42  1  0  0  0  0
 43 41  1  0  0  0  0
 44 41  1  0  0  0  0
 45 39  1  0  0  0  0
 46 45  1  0  0  0  0
 47 45  1  0  0  0  0
 48 45  1  0  0  0  0
M  END
