1,3,25
q = -1.0, confidence = 0.0

 47 50  0  0  0  0  0  0  0  0999 V2000
    0.6840   -0.9585   -1.7011 S   0  0  0  0  0  1  0  0  0  0  0  0
    1.7179   -0.0366   -0.1923 P   0  0  0  0  0  4  0  0  0  0  0  0
   -3.2170    0.0753    0.0138 N   0  0  0  0  0  2  0  0  0  0  0  0
   -4.4983   -0.5359   -0.3333 C   0  0  0  0  0  0  0  0  0  0  0  0
   -4.5888   -1.4623    0.2784 H   0  0  0  0  0  0  0  0  0  0  0  0
   -4.4068   -0.8988   -1.3780 H   0  0  0  0  0  0  0  0  0  0  0  0
   -5.6915    0.3860   -0.1048 C   0  0  0  0  0  0  0  0  0  0  0  0
   -6.6294   -0.1861   -0.2548 H   0  0  0  0  0  0  0  0  0  0  0  0
   -5.6856    1.1968   -0.8663 H   0  0  0  0  0  0  0  0  0  0  0  0
   -5.6224    0.9895    1.2990 C   0  0  0  0  0  0  0  0  0  0  0  0
   -5.6569    0.1700    2.0493 H   0  0  0  0  0  0  0  0  0  0  0  0
   -6.4909    1.6462    1.5070 H   0  0  0  0  0  0  0  0  0  0  0  0
   -4.3179    1.7764    1.4600 C   0  0  0  0  0  0  0  0  0  0  0  0
   -4.4080    2.7843    0.9934 H   0  0  0  0  0  0  0  0  0  0  0  0
   -4.0934    1.9705    2.5300 H   0  0  0  0  0  0  0  0  0  0  0  0
   -3.1247    1.1022    0.8286 C   0  0  0  0  0  0  0  0  0  0  0  0
   -1.7558    1.5647    1.0770 C   0  0  0  0  0  0  0  0  0  0  0  0
   -1.3807    2.6385    1.9072 C   0  0  0  0  0  3  0  0  0  0  0  0
   -2.1467    3.2376    2.4243 H   0  0  0  0  0  0  0  0  0  0  0  0
   -0.0221    2.9596    2.0837 C   0  0  0  0  0  0  0  0  0  0  0  0
    0.2622    3.8046    2.7279 H   0  0  0  0  0  0  0  0  0  0  0  0
    0.9742    2.1984    1.4513 C   0  0  0  0  0  0  0  0  0  0  0  0
    2.0372    2.4436    1.6054 H   0  0  0  0  0  0  0  0  0  0  0  0
    0.5964    1.1297    0.6116 C   0  0  0  0  0  0  0  0  0  0  0  0
   -0.7608    0.8011    0.3914 C   0  0  0  0  0  3  0  0  0  0  0  0
    3.2010    0.8323   -0.7918 C   0  0  0  0  0  0  0  0  0  0  0  0
    4.4637    0.2062   -0.7923 C   0  0  0  0  0  0  0  0  0  0  0  0
    4.5805   -0.7988   -0.3601 H   0  0  0  0  0  0  0  0  0  0  0  0
    5.5696    0.8699   -1.3437 C   0  0  0  0  0  0  0  0  0  0  0  0
    6.5550    0.3803   -1.3439 H   0  0  0  0  0  0  0  0  0  0  0  0
    5.4192    2.1523   -1.8947 C   0  0  0  0  0  0  0  0  0  0  0  0
    6.2894    2.6707   -2.3250 H   0  0  0  0  0  0  0  0  0  0  0  0
    4.1589    2.7735   -1.9020 C   0  0  0  0  0  0  0  0  0  0  0  0
    4.0395    3.7763   -2.3389 H   0  0  0  0  0  0  0  0  0  0  0  0
    3.0477    2.1156   -1.3582 C   0  0  0  0  0  0  0  0  0  0  0  0
    2.0558    2.5928   -1.3728 H   0  0  0  0  0  0  0  0  0  0  0  0
    2.2886   -1.2224    1.0820 C   0  0  0  0  0  0  0  0  0  0  0  0
    1.8399   -2.5539    1.0320 C   0  0  0  0  0  0  0  0  0  0  0  0
    1.1883   -2.8671    0.2003 H   0  0  0  0  0  0  0  0  0  0  0  0
    2.2248   -3.4532    2.0386 C   0  0  0  0  0  0  0  0  0  0  0  0
    1.8732   -4.4951    2.0001 H   0  0  0  0  0  0  0  0  0  0  0  0
    3.0520   -3.0252    3.0882 C   0  0  0  0  0  0  0  0  0  0  0  0
    3.3527   -3.7329    3.8757 H   0  0  0  0  0  0  0  0  0  0  0  0
    3.4973   -1.6926    3.1380 C   0  0  0  0  0  0  0  0  0  0  0  0
    4.1449   -1.3566    3.9619 H   0  0  0  0  0  0  0  0  0  0  0  0
    3.1158   -0.7873    2.1388 C   0  0  0  0  0  0  0  0  0  0  0  0
    3.4653    0.2559    2.1805 H   0  0  0  0  0  0  0  0  0  0  0  0
  1  2  1  0  0  0  0
  2 24  1  0  0  0  0
  2 37  1  0  0  0  0
  3 16  1  0  0  0  0
  4  7  1  0  0  0  0
  4  3  1  0  0  0  0
  4  5  1  0  0  0  0
  6  4  1  0  0  0  0
  7 10  1  0  0  0  0
  8  7  1  0  0  0  0
  9  7  1  0  0  0  0
 10 13  1  0  0  0  0
 10 12  1  0  0  0  0
 10 11  1  0  0  0  0
 13 15  1  0  0  0  0
 14 13  1  0  0  0  0
 16 17  2  0  0  0  0
 16 13  1  0  0  0  0
 17 18  1  0  0  0  0
 18 20  1  0  0  0  0
 18 19  1  0  0  0  0
 20 21  1  0  0  0  0
 22 23  1  0  0  0  0
 22 20  2  0  0  0  0
 24 22  1  0  0  0  0
 25 24  2  0  0  0  0
 25 17  1  0  0  0  0
 26  2  1  0  0  0  0
 27 26  1  0  0  0  0
 27 28  1  0  0  0  0
 29 27  2  0  0  0  0
 30 29  1  0  0  0  0
 31 29  1  0  0  0  0
 32 31  1  0  0  0  0
 33 31  2  0  0  0  0
 33 35  1  0  0  0  0
 34 33  1  0  0  0  0
 35 26  2  0  0  0  0
 36 35  1  0  0  0  0
 37 46  1  0  0  0  0
 38 37  2  0  0  0  0
 38 40  1  0  0  0  0
 39 38  1  0  0  0  0
 40 42  2  0  0  0  0
 41 40  1  0  0  0  0
 42 44  1  0  0  0  0
 42 43  1  0  0  0  0
 44 45  1  0  0  0  0
 46 47  1  0  0  0  0
 46 44  2  0  0  0  0
M  END
