2,3,4
 OpenBabel05122313063D

 24 24  0  0  0  0  0  0  0  0999 V2000
    4.2606   -1.6970    0.0680 Cl  0  0  0  0  0  0  0  0  0  0  0  0
   -3.0889   -0.5600   -0.3553 S   0  0  0  0  0  0  0  0  0  0  0  0
   -0.1896   -1.4312   -0.0251 N   0  0  0  0  0  2  0  0  0  0  0  0
    1.0726    0.8613    0.0101 C   0  0  0  0  0  2  0  0  0  0  0  0
    1.7141    2.1056    0.0484 C   0  0  0  0  0  0  0  0  0  0  0  0
    1.1054    3.0215    0.0442 H   0  0  0  0  0  0  0  0  0  0  0  0
    3.1196    2.1676    0.0843 C   0  0  0  0  0  0  0  0  0  0  0  0
    3.6194    3.1492    0.1073 H   0  0  0  0  0  0  0  0  0  0  0  0
    3.9108    1.0048    0.0884 C   0  0  0  0  0  0  0  0  0  0  0  0
    5.0075    1.0601    0.1160 H   0  0  0  0  0  0  0  0  0  0  0  0
    3.2804   -0.2438    0.0564 C   0  0  0  0  0  0  0  0  0  0  0  0
    1.8677   -0.3377    0.0187 C   0  0  0  0  0  0  0  0  0  0  0  0
    1.1124   -1.5660    0.0120 C   0  0  0  0  0  0  0  0  0  0  0  0
    1.5909   -2.5616    0.0599 H   0  0  0  0  0  0  0  0  0  0  0  0
   -1.1241   -2.5405    0.0820 C   0  0  0  0  0  0  0  0  0  0  0  0
   -1.3707   -2.6909    1.1577 H   0  0  0  0  0  0  0  0  0  0  0  0
   -0.6683   -3.4900   -0.2795 H   0  0  0  0  0  0  0  0  0  0  0  0
   -2.4035   -2.2396   -0.6981 C   0  0  0  0  0  0  0  0  0  0  0  0
   -3.1872   -3.0001   -0.5066 H   0  0  0  0  0  0  0  0  0  0  0  0
   -2.2032   -2.2185   -1.7884 H   0  0  0  0  0  0  0  0  0  0  0  0
   -3.6891   -0.7355    1.3569 C   0  0  0  0  0  0  0  0  0  0  0  0
   -4.5626   -1.4154    1.3918 H   0  0  0  0  0  0  0  0  0  0  0  0
   -3.9942    0.2829    1.6635 H   0  0  0  0  0  0  0  0  0  0  0  0
   -2.8876   -1.0821    2.0362 H   0  0  0  0  0  0  0  0  0  0  0  0
  2 21  1  0  0  0  0
  3 13  1  0  0  0  0
  3 15  1  0  0  0  0
  4 12  1  0  0  0  0
  4  5  1  0  0  0  0
  5  7  2  0  0  0  0
  6  5  1  0  0  0  0
  7  9  1  0  0  0  0
  7  8  1  0  0  0  0
  9 10  1  0  0  0  0
 11  1  1  0  0  0  0
 11  9  2  0  0  0  0
 12 11  1  0  0  0  0
 13 12  2  0  0  0  0
 13 14  1  0  0  0  0
 15 16  1  0  0  0  0
 17 15  1  0  0  0  0
 18 19  1  0  0  0  0
 18  2  1  0  0  0  0
 18 15  1  0  0  0  0
 20 18  1  0  0  0  0
 21 22  1  0  0  0  0
 21 23  1  0  0  0  0
 21 24  1  0  0  0  0
M  END
