3,8,12
 OpenBabel05122313063D

 25 25  0  0  0  0  0  0  0  0999 V2000
    3.3245   -3.5511    0.0361 Cl  0  0  0  0  0  0  0  0  0  0  0  0
    5.8684   -1.6163   -0.1594 Cl  0  0  0  0  0  0  0  0  0  0  0  0
   -1.6835    2.9809   -0.0189 S   0  0  0  0  0  1  0  0  0  0  0  0
   -0.8754    5.5171   -0.1683 N   0  0  0  0  0  0  0  0  0  0  0  0
   -1.8593    5.7176   -0.0087 H   0  0  0  0  0  0  0  0  0  0  0  0
   -0.1890    6.2701   -0.1461 H   0  0  0  0  0  0  0  0  0  0  0  0
    0.8715    4.0368   -0.2090 N   0  0  0  0  0  0  0  0  0  0  0  0
    1.2366    2.7391   -0.2013 N   0  0  0  0  0  2  0  0  0  0  0  0
   -0.4398    4.2291   -0.1388 C   0  0  0  0  0  0  0  0  0  0  0  0
    2.5134    2.3993   -0.2694 C   0  0  0  0  0  0  0  0  0  0  0  0
    2.7556    0.9576   -0.2079 C   0  0  0  0  0  0  0  0  0  0  0  0
    1.6043    0.1003   -0.1153 C   0  0  0  0  0  2  0  0  0  0  0  0
    1.8273   -1.2786   -0.0455 C   0  0  0  0  0  0  0  0  0  0  0  0
    0.9988   -1.9954    0.0335 H   0  0  0  0  0  0  0  0  0  0  0  0
    3.1301   -1.8246   -0.0596 C   0  0  0  0  0  0  0  0  0  0  0  0
    4.2495   -0.9766   -0.1458 C   0  0  0  0  0  0  0  0  0  0  0  0
    4.0533    0.4121   -0.2204 C   0  0  0  0  0  0  0  0  0  0  0  0
    4.9409    1.0572   -0.2840 H   0  0  0  0  0  0  0  0  0  0  0  0
    3.5926    3.4409   -0.3299 C   0  0  0  0  0  0  0  0  0  0  0  0
    3.1988    4.3022   -0.9046 H   0  0  0  0  0  0  0  0  0  0  0  0
    4.4661    3.0373   -0.8806 H   0  0  0  0  0  0  0  0  0  0  0  0
    4.0164    3.9151    1.0710 C   0  0  0  0  0  0  0  0  0  0  0  0
    4.8138    4.6823    1.0043 H   0  0  0  0  0  0  0  0  0  0  0  0
    4.3982    3.0741    1.6841 H   0  0  0  0  0  0  0  0  0  0  0  0
    3.1507    4.3605    1.5996 H   0  0  0  0  0  0  0  0  0  0  0  0
  2 16  1  0  0  0  0
  4  6  1  0  0  0  0
  4  9  1  0  0  0  0
  4  5  1  0  0  0  0
  7  8  1  0  0  0  0
  7  9  2  0  0  0  0
  9  3  1  0  0  0  0
 10 11  2  0  0  0  0
 10  8  1  0  0  0  0
 11 12  1  0  0  0  0
 12 13  1  0  0  0  0
 13 14  1  0  0  0  0
 15 13  2  0  0  0  0
 15  1  1  0  0  0  0
 16 15  1  0  0  0  0
 17 11  1  0  0  0  0
 17 16  2  0  0  0  0
 18 17  1  0  0  0  0
 19 10  1  0  0  0  0
 19 22  1  0  0  0  0
 20 19  1  0  0  0  0
 21 19  1  0  0  0  0
 22 25  1  0  0  0  0
 22 24  1  0  0  0  0
 23 22  1  0  0  0  0
M  END
