1,9,30
 OpenBabel05122313063D

 39 42  0  0  0  0  0  0  0  0999 V2000
   -2.1538   -1.9100    0.0470 S   0  0  0  0  0  0  0  0  0  0  0  0
    0.7077    4.1956   -0.1764 O   0  0  0  0  0  0  0  0  0  0  0  0
   -1.4080    3.4177   -0.1029 O   0  0  0  0  0  0  0  0  0  0  0  0
   -4.0422    4.0051    0.0418 O   0  0  0  0  0  0  0  0  0  0  0  0
   -5.0116    4.0625    0.1313 H   0  0  0  0  0  0  0  0  0  0  0  0
   -3.0927   -2.2945    1.1701 O   0  0  0  0  0  1  0  0  0  0  0  0
    2.9088    2.2275   -0.0772 N   0  0  0  0  0  0  0  0  0  0  0  0
    2.8474    3.2484   -0.1384 H   0  0  0  0  0  0  0  0  0  0  0  0
    2.1219    0.1335    0.0468 N   0  0  0  0  0  2  0  0  0  0  0  0
   -2.7879   -2.1871   -1.6553 C   0  0  0  0  0  0  0  0  0  0  0  0
   -3.7308   -1.6231   -1.7512 H   0  0  0  0  0  0  0  0  0  0  0  0
   -2.0168   -1.8108   -2.3564 H   0  0  0  0  0  0  0  0  0  0  0  0
   -2.9500   -3.2719   -1.7843 H   0  0  0  0  0  0  0  0  0  0  0  0
   -1.1931   -3.5931    0.0872 C   0  0  0  0  0  0  0  0  0  0  0  0
   -0.4854   -3.6786   -0.7632 H   0  0  0  0  0  0  0  0  0  0  0  0
   -0.6810   -3.6224    1.0673 H   0  0  0  0  0  0  0  0  0  0  0  0
   -1.9711   -4.3783    0.0485 H   0  0  0  0  0  0  0  0  0  0  0  0
    3.5013    0.0661    0.0647 C   0  0  0  0  0  0  0  0  0  0  0  0
    4.3739   -1.0339    0.1430 C   0  0  0  0  0  0  0  0  0  0  0  0
    3.9757   -2.0566    0.2002 H   0  0  0  0  0  0  0  0  0  0  0  0
    5.7478   -0.7716    0.1438 C   0  0  0  0  0  0  0  0  0  0  0  0
    6.4566   -1.6107    0.2037 H   0  0  0  0  0  0  0  0  0  0  0  0
    6.2520    0.5504    0.0697 C   0  0  0  0  0  0  0  0  0  0  0  0
    7.3402    0.7108    0.0737 H   0  0  0  0  0  0  0  0  0  0  0  0
    5.3996    1.6593   -0.0088 C   0  0  0  0  0  0  0  0  0  0  0  0
    5.7931    2.6842   -0.0662 H   0  0  0  0  0  0  0  0  0  0  0  0
    4.0213    1.3999   -0.0113 C   0  0  0  0  0  0  0  0  0  0  0  0
    1.7999    1.4337   -0.0426 C   0  0  0  0  0  0  0  0  0  0  0  0
    0.4156    1.8332   -0.0897 C   0  0  0  0  0  0  0  0  0  0  0  0
   -0.5039    0.8109   -0.0672 C   0  0  0  0  0  2  0  0  0  0  0  0
   -1.9036    1.0282   -0.0448 C   0  0  0  0  0  0  0  0  0  0  0  0
   -2.8330   -0.0258    0.0393 C   0  0  0  0  0  0  0  0  0  0  0  0
   -4.1849    0.2814    0.1660 C   0  0  0  0  0  0  0  0  0  0  0  0
   -4.9249   -0.5211    0.2972 H   0  0  0  0  0  0  0  0  0  0  0  0
   -4.5981    1.6305    0.1519 C   0  0  0  0  0  0  0  0  0  0  0  0
   -5.6712    1.8693    0.2433 H   0  0  0  0  0  0  0  0  0  0  0  0
   -3.6855    2.6994    0.0469 C   0  0  0  0  0  0  0  0  0  0  0  0
   -2.3068    2.3897   -0.0424 C   0  0  0  0  0  0  0  0  0  0  0  0
   -0.0267    3.2237   -0.1301 C   0  0  0  0  0  0  0  0  0  0  0  0
  1 14  1  0  0  0  0
  1  6  1  0  0  0  0
  2 39  2  0  0  0  0
  3 38  1  0  0  0  0
  4 37  1  0  0  0  0
  4  5  1  0  0  0  0
  7 28  1  0  0  0  0
  7 27  1  0  0  0  0
  8  7  1  0  0  0  0
  9 18  1  0  0  0  0
 10  1  1  0  0  0  0
 11 10  1  0  0  0  0
 12 10  1  0  0  0  0
 13 10  1  0  0  0  0
 14 16  1  0  0  0  0
 15 14  1  0  0  0  0
 17 14  1  0  0  0  0
 18 19  1  0  0  0  0
 19 21  2  0  0  0  0
 19 20  1  0  0  0  0
 21 22  1  0  0  0  0
 23 24  1  0  0  0  0
 23 21  1  0  0  0  0
 25 23  2  0  0  0  0
 26 25  1  0  0  0  0
 27 25  1  0  0  0  0
 27 18  2  0  0  0  0
 28  9  1  0  0  0  0
 29 30  1  0  0  0  0
 29 28  2  0  0  0  0
 30 31  1  0  0  0  0
 31 38  2  0  0  0  0
 31 32  1  0  0  0  0
 32  1  1  0  0  0  0
 32 33  2  0  0  0  0
 33 34  1  0  0  0  0
 35 33  1  0  0  0  0
 35 36  1  0  0  0  0
 37 35  2  0  0  0  0
 38 37  1  0  0  0  0
 39  3  1  0  0  0  0
 39 29  1  0  0  0  0
M  END
