1,2,3
 OpenBabel05122313063D

 28 29  0  0  0  0  0  0  0  0999 V2000
    1.8534   -1.4845   -0.3047 S   0  0  0  0  0  0  0  0  0  0  0  0
    0.4494    1.1890   -0.0376 N   0  0  0  0  0  2  0  0  0  0  0  0
   -2.0717    0.4525    0.0197 C   0  0  0  0  0  2  0  0  0  0  0  0
   -3.4150    0.0418    0.0491 C   0  0  0  0  0  0  0  0  0  0  0  0
   -3.6453   -1.0331    0.0018 H   0  0  0  0  0  0  0  0  0  0  0  0
   -4.4436    0.9953    0.1421 C   0  0  0  0  0  0  0  0  0  0  0  0
   -5.4917    0.6564    0.1666 H   0  0  0  0  0  0  0  0  0  0  0  0
   -4.1645    2.3780    0.2056 C   0  0  0  0  0  0  0  0  0  0  0  0
   -4.9880    3.1039    0.2767 H   0  0  0  0  0  0  0  0  0  0  0  0
   -2.8401    2.8173    0.1773 C   0  0  0  0  0  0  0  0  0  0  0  0
   -2.6032    3.8922    0.2248 H   0  0  0  0  0  0  0  0  0  0  0  0
   -1.7939    1.8654    0.0856 C   0  0  0  0  0  0  0  0  0  0  0  0
   -0.4023    2.2029    0.0548 C   0  0  0  0  0  0  0  0  0  0  0  0
   -0.0488    3.2457    0.1116 H   0  0  0  0  0  0  0  0  0  0  0  0
    1.8567    1.3132   -0.0480 C   0  0  0  0  0  0  0  0  0  0  0  0
    2.5274    2.5551    0.0352 C   0  0  0  0  0  0  0  0  0  0  0  0
    1.9504    3.4870    0.1082 H   0  0  0  0  0  0  0  0  0  0  0  0
    3.9240    2.6184    0.0309 C   0  0  0  0  0  0  0  0  0  0  0  0
    4.4192    3.5985    0.0980 H   0  0  0  0  0  0  0  0  0  0  0  0
    4.6921    1.4455   -0.0648 C   0  0  0  0  0  0  0  0  0  0  0  0
    5.7905    1.4968   -0.0767 H   0  0  0  0  0  0  0  0  0  0  0  0
    4.0454    0.2071   -0.1613 C   0  0  0  0  0  0  0  0  0  0  0  0
    4.6283   -0.7210   -0.2610 H   0  0  0  0  0  0  0  0  0  0  0  0
    2.6432    0.1319   -0.1405 C   0  0  0  0  0  0  0  0  0  0  0  0
    2.1830   -2.2356    1.3356 C   0  0  0  0  0  0  0  0  0  0  0  0
    1.5456   -3.1406    1.3571 H   0  0  0  0  0  0  0  0  0  0  0  0
    1.8700   -1.5439    2.1383 H   0  0  0  0  0  0  0  0  0  0  0  0
    3.2512   -2.5091    1.4262 H   0  0  0  0  0  0  0  0  0  0  0  0
  1 24  1  0  0  0  0
  1 25  1  0  0  0  0
  2 13  1  0  0  0  0
  3  4  1  0  0  0  0
  3 12  1  0  0  0  0
  4  6  2  0  0  0  0
  5  4  1  0  0  0  0
  6  7  1  0  0  0  0
  6  8  1  0  0  0  0
  8  9  1  0  0  0  0
 10  8  2  0  0  0  0
 10 11  1  0  0  0  0
 12 10  1  0  0  0  0
 13 12  2  0  0  0  0
 13 14  1  0  0  0  0
 15  2  1  0  0  0  0
 15 16  1  0  0  0  0
 16 17  1  0  0  0  0
 18 16  2  0  0  0  0
 18 19  1  0  0  0  0
 20 18  1  0  0  0  0
 21 20  1  0  0  0  0
 22 24  1  0  0  0  0
 22 20  2  0  0  0  0
 23 22  1  0  0  0  0
 24 15  2  0  0  0  0
 25 26  1  0  0  0  0
 25 28  1  0  0  0  0
 25 27  1  0  0  0  0
M  END
