1,3,4
 OpenBabel05122313063D

 29 30  0  0  1  0  0  0  0  0999 V2000
   -1.6322    0.0110   -1.5186 S   0  0  0  0  0  0  0  0  0  0  0  0
    1.5101    2.6696    1.7192 O   0  0  0  0  0  0  0  0  0  0  0  0
    0.4166   -0.7802    0.4412 N   0  0  0  0  0  2  0  0  0  0  0  0
    1.0702    1.5759    1.4349 C   0  0  0  0  0  3  0  0  0  0  0  0
    1.5316    0.3317    2.2405 C   0  0  0  0  0  0  0  0  0  0  0  0
    2.5908    0.4348    2.5517 H   0  0  0  0  0  0  0  0  0  0  0  0
    0.9164    0.3486    3.1700 H   0  0  0  0  0  0  0  0  0  0  0  0
    1.2757   -0.9274    1.4824 C   0  0  2  0  0  3  0  0  0  0  0  0
    1.8457   -2.1748    1.7772 C   0  0  0  0  0  0  0  0  0  0  0  0
    2.5469   -2.2632    2.6183 H   0  0  0  0  0  0  0  0  0  0  0  0
    1.5051   -3.2827    0.9941 C   0  0  0  0  0  0  0  0  0  0  0  0
    1.9294   -4.2736    1.2133 H   0  0  0  0  0  0  0  0  0  0  0  0
    0.6321   -3.1096   -0.0892 C   0  0  0  0  0  0  0  0  0  0  0  0
    0.3670   -3.9502   -0.7464 H   0  0  0  0  0  0  0  0  0  0  0  0
    0.1160   -1.8334   -0.3563 C   0  0  0  0  0  0  0  0  0  0  0  0
   -0.6781   -1.5453   -1.6004 C   0  0  0  0  0  0  0  0  0  0  0  0
   -1.3350   -2.3836   -1.9037 H   0  0  0  0  0  0  0  0  0  0  0  0
    0.0368   -1.3251   -2.4218 H   0  0  0  0  0  0  0  0  0  0  0  0
   -3.1590   -0.5059   -0.7307 C   0  0  0  0  0  0  0  0  0  0  0  0
   -3.2623   -1.6142    0.1307 C   0  0  0  0  0  0  0  0  0  0  0  0
   -2.3897   -2.2497    0.3385 H   0  0  0  0  0  0  0  0  0  0  0  0
   -4.4895   -1.8989    0.7475 C   0  0  0  0  0  0  0  0  0  0  0  0
   -4.5669   -2.7681    1.4181 H   0  0  0  0  0  0  0  0  0  0  0  0
   -5.6060   -1.0777    0.5276 C   0  0  0  0  0  0  0  0  0  0  0  0
   -6.5632   -1.3030    1.0206 H   0  0  0  0  0  0  0  0  0  0  0  0
   -5.4938    0.0347   -0.3216 C   0  0  0  0  0  0  0  0  0  0  0  0
   -6.3632    0.6852   -0.4999 H   0  0  0  0  0  0  0  0  0  0  0  0
   -4.2771    0.3204   -0.9557 C   0  0  0  0  0  0  0  0  0  0  0  0
   -4.1896    1.1864   -1.6298 H   0  0  0  0  0  0  0  0  0  0  0  0
  1 19  1  0  0  0  0
  3  8  1  0  0  0  0
  4  2  2  0  0  0  0
  4  5  1  0  0  0  0
  5  6  1  0  0  0  0
  5  7  1  0  0  0  0
  8  9  1  0  0  0  0
  8  5  1  6  0  0  0
  9 10  1  0  0  0  0
 11 12  1  0  0  0  0
 11  9  2  0  0  0  0
 13 11  1  0  0  0  0
 14 13  1  0  0  0  0
 15 13  2  0  0  0  0
 15  3  1  0  0  0  0
 16  1  1  0  0  0  0
 16 15  1  0  0  0  0
 17 16  1  0  0  0  0
 18 16  1  0  0  0  0
 19 20  1  0  0  0  0
 20 21  1  0  0  0  0
 20 22  2  0  0  0  0
 22 23  1  0  0  0  0
 24 22  1  0  0  0  0
 24 25  1  0  0  0  0
 26 24  2  0  0  0  0
 27 26  1  0  0  0  0
 28 19  2  0  0  0  0
 28 26  1  0  0  0  0
 29 28  1  0  0  0  0
M  END
