1,2,3
 OpenBabel05122313063D

 27 27  0  0  0  0  0  0  0  0999 V2000
    2.4653   -0.1049   -0.5566 S   0  0  0  0  0  0  0  0  0  0  0  0
    0.0078    1.6491   -0.0823 N   0  0  0  0  0  2  0  0  0  0  0  0
   -1.9083   -0.1027    0.0993 C   0  0  0  0  0  2  0  0  0  0  0  0
   -2.9210   -1.0689    0.2154 C   0  0  0  0  0  0  0  0  0  0  0  0
   -2.6466   -2.1343    0.1961 H   0  0  0  0  0  0  0  0  0  0  0  0
   -4.2644   -0.6731    0.3462 C   0  0  0  0  0  0  0  0  0  0  0  0
   -5.0475   -1.4437    0.4293 H   0  0  0  0  0  0  0  0  0  0  0  0
   -4.6296    0.6881    0.3707 C   0  0  0  0  0  0  0  0  0  0  0  0
   -5.6869    0.9744    0.4744 H   0  0  0  0  0  0  0  0  0  0  0  0
   -3.6418    1.6719    0.2636 C   0  0  0  0  0  0  0  0  0  0  0  0
   -3.9094    2.7406    0.2866 H   0  0  0  0  0  0  0  0  0  0  0  0
   -2.2888    1.2853    0.1294 C   0  0  0  0  0  0  0  0  0  0  0  0
   -1.1798    2.2016    0.0362 C   0  0  0  0  0  0  0  0  0  0  0  0
   -1.2887    3.3008    0.0855 H   0  0  0  0  0  0  0  0  0  0  0  0
    1.2577    2.3989   -0.0604 C   0  0  0  0  0  0  0  0  0  0  0  0
    1.6068    2.4698    0.9946 H   0  0  0  0  0  0  0  0  0  0  0  0
    1.1021    3.4395   -0.4225 H   0  0  0  0  0  0  0  0  0  0  0  0
    2.3240    1.7039   -0.9066 C   0  0  0  0  0  0  0  0  0  0  0  0
    3.3158    2.1821   -0.7834 H   0  0  0  0  0  0  0  0  0  0  0  0
    2.0585    1.7368   -1.9822 H   0  0  0  0  0  0  0  0  0  0  0  0
    3.2294   -0.1332    1.1179 C   0  0  0  0  0  0  0  0  0  0  0  0
    2.6091    0.4848    1.7979 H   0  0  0  0  0  0  0  0  0  0  0  0
    3.0774   -1.1882    1.4248 H   0  0  0  0  0  0  0  0  0  0  0  0
    4.6994    0.2630    1.1278 C   0  0  0  0  0  0  0  0  0  0  0  0
    5.1165    0.1481    2.1493 H   0  0  0  0  0  0  0  0  0  0  0  0
    4.8485    1.3210    0.8301 H   0  0  0  0  0  0  0  0  0  0  0  0
    5.2922   -0.3725    0.4407 H   0  0  0  0  0  0  0  0  0  0  0  0
  1 21  1  0  0  0  0
  2 15  1  0  0  0  0
  2 13  1  0  0  0  0
  3 12  1  0  0  0  0
  3  4  1  0  0  0  0
  4  6  2  0  0  0  0
  5  4  1  0  0  0  0
  6  8  1  0  0  0  0
  6  7  1  0  0  0  0
  8  9  1  0  0  0  0
 10 11  1  0  0  0  0
 10  8  2  0  0  0  0
 12 10  1  0  0  0  0
 13 14  1  0  0  0  0
 13 12  2  0  0  0  0
 15 16  1  0  0  0  0
 17 15  1  0  0  0  0
 18 19  1  0  0  0  0
 18  1  1  0  0  0  0
 18 15  1  0  0  0  0
 20 18  1  0  0  0  0
 21 24  1  0  0  0  0
 21 23  1  0  0  0  0
 21 22  1  0  0  0  0
 24 25  1  0  0  0  0
 26 24  1  0  0  0  0
 27 24  1  0  0  0  0
M  END
