1,2,7
 OpenBabel05122313063D

 29 30  0  0  0  0  0  0  0  0999 V2000
   -0.1580    2.8301   -0.1177 S   0  0  0  0  0  1  0  0  0  0  0  0
   -2.3346    0.8497    0.0159 N   0  0  0  0  0  2  0  0  0  0  0  0
   -2.8305    2.0982   -0.0605 N   0  0  0  0  0  0  0  0  0  0  0  0
   -2.3612    4.3338   -0.1753 N   0  0  0  0  0  0  0  0  0  0  0  0
   -3.3589    4.4870   -0.3203 H   0  0  0  0  0  0  0  0  0  0  0  0
   -1.7021    5.0803   -0.3828 H   0  0  0  0  0  0  0  0  0  0  0  0
   -0.9989   -1.4641    0.0891 C   0  0  0  0  0  2  0  0  0  0  0  0
   -0.3182   -2.6888    0.1537 C   0  0  0  0  0  0  0  0  0  0  0  0
    0.7808   -2.7190    0.1164 H   0  0  0  0  0  0  0  0  0  0  0  0
   -1.0077   -3.9150    0.2672 C   0  0  0  0  0  0  0  0  0  0  0  0
   -0.4367   -4.8558    0.3152 H   0  0  0  0  0  0  0  0  0  0  0  0
   -2.4062   -3.9344    0.3285 C   0  0  0  0  0  0  0  0  0  0  0  0
   -2.9483   -4.8864    0.4331 H   0  0  0  0  0  0  0  0  0  0  0  0
   -3.1181   -2.7266    0.2610 C   0  0  0  0  0  0  0  0  0  0  0  0
   -4.2161   -2.7344    0.3264 H   0  0  0  0  0  0  0  0  0  0  0  0
   -2.4362   -1.4982    0.1246 C   0  0  0  0  0  0  0  0  0  0  0  0
   -3.1347   -0.2084    0.0520 C   0  0  0  0  0  0  0  0  0  0  0  0
   -4.6112   -0.0795    0.0112 C   0  0  0  0  0  0  0  0  0  0  0  0
   -5.3592   -0.7878   -0.9555 C   0  0  0  0  0  0  0  0  0  0  0  0
   -4.8335   -1.4181   -1.6879 H   0  0  0  0  0  0  0  0  0  0  0  0
   -6.7564   -0.6741   -1.0009 C   0  0  0  0  0  0  0  0  0  0  0  0
   -7.3239   -1.2248   -1.7666 H   0  0  0  0  0  0  0  0  0  0  0  0
   -7.4273    0.1401   -0.0757 C   0  0  0  0  0  0  0  0  0  0  0  0
   -8.5243    0.2252   -0.1073 H   0  0  0  0  0  0  0  0  0  0  0  0
   -6.6918    0.8485    0.8894 C   0  0  0  0  0  0  0  0  0  0  0  0
   -7.2127    1.4886    1.6180 H   0  0  0  0  0  0  0  0  0  0  0  0
   -5.2956    0.7479    0.9292 C   0  0  0  0  0  0  0  0  0  0  0  0
   -4.7184    1.3103    1.6755 H   0  0  0  0  0  0  0  0  0  0  0  0
   -1.9086    3.0501   -0.1199 C   0  0  0  0  0  0  0  0  0  0  0  0
  2 17  1  0  0  0  0
  3  2  1  0  0  0  0
  4 29  1  0  0  0  0
  5  4  1  0  0  0  0
  6  4  1  0  0  0  0
  7 16  1  0  0  0  0
  7  8  1  0  0  0  0
  8 10  2  0  0  0  0
  9  8  1  0  0  0  0
 10 11  1  0  0  0  0
 10 12  1  0  0  0  0
 12 13  1  0  0  0  0
 14 15  1  0  0  0  0
 14 12  2  0  0  0  0
 16 14  1  0  0  0  0
 17 16  2  0  0  0  0
 18 17  1  0  0  0  0
 18 27  1  0  0  0  0
 19 18  2  0  0  0  0
 20 19  1  0  0  0  0
 21 19  1  0  0  0  0
 21 23  2  0  0  0  0
 22 21  1  0  0  0  0
 23 25  1  0  0  0  0
 24 23  1  0  0  0  0
 25 27  2  0  0  0  0
 25 26  1  0  0  0  0
 27 28  1  0  0  0  0
 29  1  1  0  0  0  0
 29  3  2  0  0  0  0
M  END
