1,2,22
 OpenBabel05122313063D

 33 34  0  0  0  0  0  0  0  0999 V2000
   -2.0669   -1.3695   -0.6206 S   0  0  0  0  0  0  0  0  0  0  0  0
   -0.4299    1.1125   -0.1269 N   0  0  0  0  0  2  0  0  0  0  0  0
    0.3916    2.0880    0.0572 N   0  0  0  0  0  0  0  0  0  0  0  0
   -1.8180    1.3798   -0.1438 C   0  0  0  0  0  0  0  0  0  0  0  0
   -2.7090    0.2910   -0.3286 C   0  0  0  0  0  0  0  0  0  0  0  0
   -4.0949    0.5181   -0.3393 C   0  0  0  0  0  0  0  0  0  0  0  0
   -4.7774   -0.3288   -0.5059 H   0  0  0  0  0  0  0  0  0  0  0  0
   -4.6003    1.8119   -0.1490 C   0  0  0  0  0  0  0  0  0  0  0  0
   -5.6873    1.9806   -0.1545 H   0  0  0  0  0  0  0  0  0  0  0  0
   -3.7151    2.8914    0.0307 C   0  0  0  0  0  0  0  0  0  0  0  0
   -4.1102    3.9088    0.1701 H   0  0  0  0  0  0  0  0  0  0  0  0
   -2.3339    2.6824    0.0301 C   0  0  0  0  0  0  0  0  0  0  0  0
   -1.6177    3.5033    0.1697 H   0  0  0  0  0  0  0  0  0  0  0  0
    1.6948    1.6508    0.0885 C   0  0  0  0  0  0  0  0  0  0  0  0
    2.7549    2.5721    0.2650 C   0  0  0  0  0  3  0  0  0  0  0  0
    2.5212    3.6417    0.3693 H   0  0  0  0  0  0  0  0  0  0  0  0
    4.0674    2.1019    0.3004 C   0  0  0  0  0  0  0  0  0  0  0  0
    4.8993    2.8100    0.4361 H   0  0  0  0  0  0  0  0  0  0  0  0
    4.3510    0.7203    0.1647 C   0  0  0  0  0  0  0  0  0  0  0  0
    3.2842   -0.1972   -0.0120 C   0  0  0  0  0  0  0  0  0  0  0  0
    3.4915   -1.2741   -0.1143 H   0  0  0  0  0  0  0  0  0  0  0  0
    1.9611    0.2389   -0.0531 C   0  0  0  0  0  3  0  0  0  0  0  0
    5.7677    0.2149    0.2095 C   0  0  0  0  0  0  0  0  0  0  0  0
    6.0205   -0.3367   -0.7201 H   0  0  0  0  0  0  0  0  0  0  0  0
    5.9048   -0.5030    1.0454 H   0  0  0  0  0  0  0  0  0  0  0  0
    6.4993    1.0357    0.3357 H   0  0  0  0  0  0  0  0  0  0  0  0
   -2.5431   -2.2542    0.9329 C   0  0  0  0  0  0  0  0  0  0  0  0
   -3.6448   -2.3806    0.9081 H   0  0  0  0  0  0  0  0  0  0  0  0
   -2.0777   -3.2485    0.7720 H   0  0  0  0  0  0  0  0  0  0  0  0
   -2.0519   -1.5988    2.2114 C   0  0  0  0  0  0  0  0  0  0  0  0
   -0.9453   -1.5286    2.2142 H   0  0  0  0  0  0  0  0  0  0  0  0
   -2.3687   -2.2018    3.0871 H   0  0  0  0  0  0  0  0  0  0  0  0
   -2.4680   -0.5783    2.3320 H   0  0  0  0  0  0  0  0  0  0  0  0
  1  5  1  0  0  0  0
  1 27  1  0  0  0  0
  2  3  1  0  0  0  0
  3 14  2  0  0  0  0
  4  2  1  0  0  0  0
  4 12  1  0  0  0  0
  5  4  2  0  0  0  0
  6  5  1  0  0  0  0
  6  8  2  0  0  0  0
  7  6  1  0  0  0  0
  8 10  1  0  0  0  0
  9  8  1  0  0  0  0
 10 11  1  0  0  0  0
 12 10  2  0  0  0  0
 12 13  1  0  0  0  0
 14 15  1  0  0  0  0
 15 17  1  0  0  0  0
 15 16  1  0  0  0  0
 17 18  1  0  0  0  0
 19 23  1  0  0  0  0
 19 17  2  0  0  0  0
 20 19  1  0  0  0  0
 21 20  1  0  0  0  0
 22 20  2  0  0  0  0
 22 14  1  0  0  0  0
 23 26  1  0  0  0  0
 23 25  1  0  0  0  0
 24 23  1  0  0  0  0
 27 30  1  0  0  0  0
 28 27  1  0  0  0  0
 29 27  1  0  0  0  0
 30 31  1  0  0  0  0
 30 33  1  0  0  0  0
 30 32  1  0  0  0  0
M  END
