1,2,12
 OpenBabel05122313063D

 22 22  0  0  0  0  0  0  0  0999 V2000
   -2.9776    0.1157    0.0007 N   0  0  0  0  0  2  0  0  0  0  0  0
   -1.3352    2.5387   -0.1044 S   0  0  0  0  0  1  0  0  0  0  0  0
   -3.5047   -1.0982    0.0396 C   0  0  0  0  0  0  0  0  0  0  0  0
   -4.9844   -1.3122    0.0733 C   0  0  0  0  0  0  0  0  0  0  0  0
   -5.4228   -0.8176    0.9644 H   0  0  0  0  0  0  0  0  0  0  0  0
   -5.2406   -2.3877    0.0891 H   0  0  0  0  0  0  0  0  0  0  0  0
   -5.4606   -0.8325   -0.8062 H   0  0  0  0  0  0  0  0  0  0  0  0
   -2.5014   -2.1384    0.0426 C   0  0  0  0  0  0  0  0  0  0  0  0
   -0.3436   -3.0177    0.0064 C   0  0  0  0  0  0  0  0  0  0  0  0
    0.7549   -3.0419   -0.0215 H   0  0  0  0  0  0  0  0  0  0  0  0
   -3.1007    2.3492   -0.0488 C   0  0  0  0  0  0  0  0  0  0  0  0
   -1.1295   -1.8281    0.0133 C   0  0  0  0  0  2  0  0  0  0  0  0
   -2.8024   -3.8618    0.0609 S   0  0  0  0  0  0  0  0  0  0  0  0
   -3.7721    1.2075   -0.0089 N   0  0  0  0  0  0  0  0  0  0  0  0
   -3.8218    3.5034   -0.0481 N   0  0  0  0  0  0  0  0  0  0  0  0
   -3.2902    4.3676   -0.1369 H   0  0  0  0  0  0  0  0  0  0  0  0
   -5.2670    3.5320   -0.0600 C   0  0  0  0  0  0  0  0  0  0  0  0
   -5.6115    4.5794    0.0283 H   0  0  0  0  0  0  0  0  0  0  0  0
   -5.6769    2.9424    0.7861 H   0  0  0  0  0  0  0  0  0  0  0  0
   -5.6827    3.0917   -0.9933 H   0  0  0  0  0  0  0  0  0  0  0  0
   -1.1018   -4.1838    0.0328 C   0  0  0  0  0  0  0  0  0  0  0  0
   -0.7492   -5.2229    0.0348 H   0  0  0  0  0  0  0  0  0  0  0  0
  1  3  1  0  0  0  0
  2 11  1  0  0  0  0
  3  8  2  0  0  0  0
  3  4  1  0  0  0  0
  4  6  1  0  0  0  0
  4  5  1  0  0  0  0
  7  4  1  0  0  0  0
  8 13  1  0  0  0  0
  9 12  1  0  0  0  0
  9 21  2  0  0  0  0
 10  9  1  0  0  0  0
 11 15  1  0  0  0  0
 11 14  2  0  0  0  0
 12  8  1  0  0  0  0
 14  1  1  0  0  0  0
 16 15  1  0  0  0  0
 17 15  1  0  0  0  0
 17 18  1  0  0  0  0
 17 19  1  0  0  0  0
 20 17  1  0  0  0  0
 21 22  1  0  0  0  0
 21 13  1  0  0  0  0
M  END
