1,6,18
 OpenBabel05122313063D

 22 22  0  0  0  0  0  0  0  0999 V2000
   -0.0326    3.1103   -0.0681 S   0  0  0  0  0  1  0  0  0  0  0  0
    1.6207    5.2008   -0.0172 N   0  0  0  0  0  0  0  0  0  0  0  0
    2.5260    5.6609   -0.1061 H   0  0  0  0  0  0  0  0  0  0  0  0
    0.7650    5.7270   -0.1749 H   0  0  0  0  0  0  0  0  0  0  0  0
    2.7412    3.2041    0.0072 N   0  0  0  0  0  0  0  0  0  0  0  0
    2.6275    1.8608    0.0205 N   0  0  0  0  0  2  0  0  0  0  0  0
    1.5779    3.8408   -0.0262 C   0  0  0  0  0  0  0  0  0  0  0  0
    3.6901    1.0854    0.0447 C   0  0  0  0  0  0  0  0  0  0  0  0
    4.6914    1.5485    0.0548 H   0  0  0  0  0  0  0  0  0  0  0  0
    3.4532   -0.3428    0.0534 C   0  0  0  0  0  0  0  0  0  0  0  0
    4.4944   -1.2902    0.0676 C   0  0  0  0  0  3  0  0  0  0  0  0
    5.5419   -0.9487    0.0739 H   0  0  0  0  0  0  0  0  0  0  0  0
    4.2026   -2.6631    0.0698 C   0  0  0  0  0  0  0  0  0  0  0  0
    5.0211   -3.3998    0.0768 H   0  0  0  0  0  0  0  0  0  0  0  0
    2.8678   -3.1041    0.0615 C   0  0  0  0  0  0  0  0  0  0  0  0
    1.8270   -2.1390    0.0497 C   0  0  0  0  0  0  0  0  0  0  0  0
    0.7929   -2.5166    0.0360 H   0  0  0  0  0  0  0  0  0  0  0  0
    2.0733   -0.7610    0.0414 C   0  0  0  0  0  3  0  0  0  0  0  0
    2.5197   -4.5708    0.0627 C   0  0  0  0  0  0  0  0  0  0  0  0
    1.8722   -4.8279   -0.8021 H   0  0  0  0  0  0  0  0  0  0  0  0
    1.9492   -4.8467    0.9753 H   0  0  0  0  0  0  0  0  0  0  0  0
    3.4224   -5.2107    0.0197 H   0  0  0  0  0  0  0  0  0  0  0  0
  1  7  1  0  0  0  0
  3  2  1  0  0  0  0
  4  2  1  0  0  0  0
  5  6  1  0  0  0  0
  6  8  1  0  0  0  0
  7  2  1  0  0  0  0
  7  5  2  0  0  0  0
  8 10  2  0  0  0  0
  8  9  1  0  0  0  0
 10 11  1  0  0  0  0
 11 13  1  0  0  0  0
 11 12  1  0  0  0  0
 13 14  1  0  0  0  0
 15 19  1  0  0  0  0
 15 13  2  0  0  0  0
 16 15  1  0  0  0  0
 17 16  1  0  0  0  0
 18 16  2  0  0  0  0
 18 10  1  0  0  0  0
 19 21  1  0  0  0  0
 20 19  1  0  0  0  0
 22 19  1  0  0  0  0
M  END
