1,3,5
 OpenBabel05122313063D

 37 39  0  0  0  0  0  0  0  0999 V2000
    1.2021   -1.1691    1.1033 S   0  0  0  0  0  0  0  0  0  0  0  0
   -1.1599    2.2646   -0.1736 N   0  0  0  0  0  2  0  0  0  0  0  0
   -0.3716    1.3305    0.1940 N   0  0  0  0  0  2  0  0  0  0  0  0
   -2.4142    1.8066   -0.5203 C   0  0  0  0  0  0  0  0  0  0  0  0
   -2.6946    0.4031   -0.4290 C   0  0  0  0  0  3  0  0  0  0  0  0
   -3.9585   -0.0777   -0.7564 C   0  0  0  0  0  0  0  0  0  0  0  0
   -4.9428    0.8379   -1.1795 C   0  0  0  0  0  0  0  0  0  0  0  0
   -4.6766    2.2208   -1.2735 C   0  0  0  0  0  0  0  0  0  0  0  0
   -3.4140    2.7152   -0.9446 C   0  0  0  0  0  0  0  0  0  0  0  0
    0.9405    1.6096    0.6297 C   0  0  0  0  0  0  0  0  0  0  0  0
    1.7544    0.5440    1.0983 C   0  0  0  0  0  0  0  0  0  0  0  0
    3.0382    0.8321    1.5905 C   0  0  0  0  0  0  0  0  0  0  0  0
    3.5340    2.1417    1.5643 C   0  0  0  0  0  0  0  0  0  0  0  0
    2.7331    3.1886    1.0734 C   0  0  0  0  0  0  0  0  0  0  0  0
    1.4377    2.9302    0.6225 C   0  0  0  0  0  0  0  0  0  0  0  0
    2.1787   -1.9449   -0.3291 C   0  0  0  0  0  0  0  0  0  0  0  0
    3.3574   -1.1401   -0.7694 C   0  0  0  0  0  0  0  0  0  0  0  0
    4.6496   -1.4071   -0.2728 C   0  0  0  0  0  0  0  0  0  0  0  0
    5.7371   -0.6030   -0.6458 C   0  0  0  0  0  0  0  0  0  0  0  0
    5.5421    0.4832   -1.5140 C   0  0  0  0  0  0  0  0  0  0  0  0
    4.2589    0.7515   -2.0196 C   0  0  0  0  0  0  0  0  0  0  0  0
    3.1729   -0.0540   -1.6531 C   0  0  0  0  0  0  0  0  0  0  0  0
   -5.4674    2.9089   -1.6059 H   0  0  0  0  0  0  0  0  0  0  0  0
    3.6548    0.0125    1.9830 H   0  0  0  0  0  0  0  0  0  0  0  0
    1.4214   -2.0513   -1.1314 H   0  0  0  0  0  0  0  0  0  0  0  0
    2.4608   -2.9334    0.0785 H   0  0  0  0  0  0  0  0  0  0  0  0
    4.1031    1.5960   -2.7080 H   0  0  0  0  0  0  0  0  0  0  0  0
   -5.9433    0.4619   -1.4447 H   0  0  0  0  0  0  0  0  0  0  0  0
   -4.1640   -1.1555   -0.6862 H   0  0  0  0  0  0  0  0  0  0  0  0
    2.1616    0.1470   -2.0416 H   0  0  0  0  0  0  0  0  0  0  0  0
    0.7776    3.7275    0.2560 H   0  0  0  0  0  0  0  0  0  0  0  0
    4.8011   -2.2553    0.4139 H   0  0  0  0  0  0  0  0  0  0  0  0
   -3.1706    3.7857   -1.0011 H   0  0  0  0  0  0  0  0  0  0  0  0
    4.5495    2.3451    1.9341 H   0  0  0  0  0  0  0  0  0  0  0  0
    6.3940    1.1170   -1.8037 H   0  0  0  0  0  0  0  0  0  0  0  0
    3.1191    4.2184    1.0558 H   0  0  0  0  0  0  0  0  0  0  0  0
    6.7424   -0.8259   -0.2568 H   0  0  0  0  0  0  0  0  0  0  0  0
  2  3  1  0  0  0  0
  3 10  1  0  0  0  0
  4  5  1  0  0  0  0
  4  2  1  0  0  0  0
  6 29  1  0  0  0  0
  6  5  2  0  0  0  0
  7  6  1  0  0  0  0
  8  7  2  0  0  0  0
  8  9  1  0  0  0  0
  9  4  2  0  0  0  0
 10 11  1  0  0  0  0
 11  1  1  0  0  0  0
 11 12  2  0  0  0  0
 12 24  1  0  0  0  0
 13 12  1  0  0  0  0
 13 34  1  0  0  0  0
 14 13  2  0  0  0  0
 15 10  2  0  0  0  0
 15 14  1  0  0  0  0
 16 26  1  0  0  0  0
 16  1  1  0  0  0  0
 17 16  1  0  0  0  0
 17 18  1  0  0  0  0
 18 32  1  0  0  0  0
 19 18  2  0  0  0  0
 19 37  1  0  0  0  0
 20 19  1  0  0  0  0
 21 22  1  0  0  0  0
 21 20  2  0  0  0  0
 22 17  2  0  0  0  0
 23  8  1  0  0  0  0
 25 16  1  0  0  0  0
 27 21  1  0  0  0  0
 28  7  1  0  0  0  0
 30 22  1  0  0  0  0
 31 15  1  0  0  0  0
 33  9  1  0  0  0  0
 35 20  1  0  0  0  0
 36 14  1  0  0  0  0
M  END
