1,2,15
 OpenBabel05122313063D

 33 33  0  0  0  0  0  0  0  0999 V2000
   -1.9311    2.4734    0.0066 S   0  0  0  0  0  1  0  0  0  0  0  0
    1.7773    0.1578    0.0024 C   0  0  0  0  0  2  0  0  0  0  0  0
    5.1071    1.7668   -0.0092 O   0  0  0  0  0  0  0  0  0  0  0  0
    4.1599    0.7793   -0.0043 C   0  0  0  0  0  0  0  0  0  0  0  0
    2.1509   -1.1848    0.0061 C   0  0  0  0  0  0  0  0  0  0  0  0
    1.4194   -2.0028    0.0148 H   0  0  0  0  0  0  0  0  0  0  0  0
    3.5130   -1.5626    0.0090 C   0  0  0  0  0  0  0  0  0  0  0  0
    6.4737    1.4154   -0.0030 C   0  0  0  0  0  0  0  0  0  0  0  0
    6.7532    0.8361    0.9061 H   0  0  0  0  0  0  0  0  0  0  0  0
    7.0398    2.3659   -0.0083 H   0  0  0  0  0  0  0  0  0  0  0  0
    6.7583    0.8230   -0.9022 H   0  0  0  0  0  0  0  0  0  0  0  0
    4.5220   -0.5865    0.0058 C   0  0  0  0  0  0  0  0  0  0  0  0
    5.5780   -0.8736    0.0112 H   0  0  0  0  0  0  0  0  0  0  0  0
    2.7949    1.1781   -0.0102 C   0  0  0  0  0  0  0  0  0  0  0  0
    1.0112    2.6982   -0.0406 N   0  0  0  0  0  2  0  0  0  0  0  0
    3.7561   -2.9064    0.0168 O   0  0  0  0  0  0  0  0  0  0  0  0
    0.4304    3.9161   -0.0748 N   0  0  0  0  0  0  0  0  0  0  0  0
    2.3337    2.5665   -0.0352 C   0  0  0  0  0  0  0  0  0  0  0  0
   -0.8951    3.9039   -0.0718 C   0  0  0  0  0  0  0  0  0  0  0  0
   -1.5033    5.1264   -0.1443 N   0  0  0  0  0  0  0  0  0  0  0  0
    3.2138    3.7790   -0.0602 C   0  0  0  0  0  0  0  0  0  0  0  0
    3.8878    3.7548   -0.9388 H   0  0  0  0  0  0  0  0  0  0  0  0
    3.8738    3.8002    0.8292 H   0  0  0  0  0  0  0  0  0  0  0  0
    2.5824    4.6838   -0.0880 H   0  0  0  0  0  0  0  0  0  0  0  0
   -2.9182    5.3623    0.0055 C   0  0  0  0  0  0  0  0  0  0  0  0
   -3.4883    4.5994   -0.5618 H   0  0  0  0  0  0  0  0  0  0  0  0
   -3.1673    6.3630   -0.3986 H   0  0  0  0  0  0  0  0  0  0  0  0
   -3.2624    5.3123    1.0650 H   0  0  0  0  0  0  0  0  0  0  0  0
    5.0971   -3.3471    0.0252 C   0  0  0  0  0  0  0  0  0  0  0  0
    5.6542   -3.0079   -0.8781 H   0  0  0  0  0  0  0  0  0  0  0  0
    5.0674   -4.4530    0.0312 H   0  0  0  0  0  0  0  0  0  0  0  0
    5.6461   -2.9972    0.9292 H   0  0  0  0  0  0  0  0  0  0  0  0
   -0.8579    5.9161   -0.0895 H   0  0  0  0  0  0  0  0  0  0  0  0
  2  5  1  0  0  0  0
  3  4  1  0  0  0  0
  3  8  1  0  0  0  0
  4 12  2  0  0  0  0
  5  7  2  0  0  0  0
  5  6  1  0  0  0  0
  7 16  1  0  0  0  0
  8  9  1  0  0  0  0
 10  8  1  0  0  0  0
 11  8  1  0  0  0  0
 12  7  1  0  0  0  0
 12 13  1  0  0  0  0
 14  4  1  0  0  0  0
 14  2  1  0  0  0  0
 15 18  1  0  0  0  0
 16 29  1  0  0  0  0
 17 19  2  0  0  0  0
 17 15  1  0  0  0  0
 18 14  2  0  0  0  0
 19  1  1  0  0  0  0
 20 33  1  0  0  0  0
 20 19  1  0  0  0  0
 20 25  1  0  0  0  0
 21 18  1  0  0  0  0
 21 23  1  0  0  0  0
 22 21  1  0  0  0  0
 24 21  1  0  0  0  0
 25 28  1  0  0  0  0
 26 25  1  0  0  0  0
 27 25  1  0  0  0  0
 29 31  1  0  0  0  0
 29 32  1  0  0  0  0
 30 29  1  0  0  0  0
M  END
