1,48,51
 OpenBabel05122313063D

 51 54  0  0  1  0  0  0  0  0999 V2000
    0.8274    0.8094   -0.2725 C   0  0  0  0  0  3  0  0  0  0  0  0
    0.9059    0.9984    0.8213 H   0  0  0  0  0  0  0  0  0  0  0  0
    1.7347    1.6931   -1.0501 C   0  0  0  0  0  0  0  0  0  0  0  0
    3.1819    1.5496   -0.6328 C   0  0  2  0  0  3  0  0  0  0  0  0
    4.1588    2.5326   -0.8223 C   0  0  0  0  0  0  0  0  0  0  0  0
    3.8654    3.4805   -1.2956 H   0  0  0  0  0  0  0  0  0  0  0  0
    5.4716    2.2566   -0.4148 C   0  0  0  0  0  0  0  0  0  0  0  0
    6.2640    3.0110   -0.5335 H   0  0  0  0  0  0  0  0  0  0  0  0
    5.7659    0.9969    0.1339 C   0  0  0  0  0  0  0  0  0  0  0  0
    6.7857    0.7411    0.4556 H   0  0  0  0  0  0  0  0  0  0  0  0
    4.7485    0.0414    0.2545 C   0  0  0  0  0  0  0  0  0  0  0  0
    4.9041   -0.9926    0.6069 H   0  0  0  0  0  0  0  0  0  0  0  0
   -0.6104    0.7888   -0.7743 C   0  0  2  0  0  0  0  0  0  0  0  0
   -0.5950    0.6342   -1.8747 H   0  0  0  0  0  0  0  0  0  0  0  0
   -1.4955    1.9756   -0.4509 C   0  0  0  0  0  0  0  0  0  0  0  0
   -2.6806    2.1889   -1.1878 C   0  0  0  0  0  0  0  0  0  0  0  0
   -2.9233    1.5207   -2.0279 H   0  0  0  0  0  0  0  0  0  0  0  0
   -3.5523    3.2364   -0.8609 C   0  0  0  0  0  0  0  0  0  0  0  0
   -4.4714    3.3841   -1.4481 H   0  0  0  0  0  0  0  0  0  0  0  0
   -3.2495    4.0998    0.2051 C   0  0  0  0  0  0  0  0  0  0  0  0
   -3.9311    4.9252    0.4606 H   0  0  0  0  0  0  0  0  0  0  0  0
   -2.0642    3.9100    0.9317 C   0  0  0  0  0  0  0  0  0  0  0  0
   -1.8099    4.5885    1.7603 H   0  0  0  0  0  0  0  0  0  0  0  0
   -1.1969    2.8560    0.6084 C   0  0  0  0  0  0  0  0  0  0  0  0
   -0.2748    2.7153    1.1895 H   0  0  0  0  0  0  0  0  0  0  0  0
   -2.9154   -1.1723   -0.8437 C   0  0  0  0  0  0  0  0  0  0  0  0
   -2.9695   -1.3023   -2.2492 C   0  0  0  0  0  0  0  0  0  0  0  0
   -2.0493   -1.2009   -2.8455 H   0  0  0  0  0  0  0  0  0  0  0  0
   -4.1884   -1.5814   -2.8797 C   0  0  0  0  0  0  0  0  0  0  0  0
   -4.2263   -1.6794   -3.9749 H   0  0  0  0  0  0  0  0  0  0  0  0
   -5.3554   -1.7459   -2.1141 C   0  0  0  0  0  0  0  0  0  0  0  0
   -6.3120   -1.9675   -2.6109 H   0  0  0  0  0  0  0  0  0  0  0  0
   -5.2986   -1.6412   -0.7162 C   0  0  0  0  0  0  0  0  0  0  0  0
   -6.2079   -1.7860   -0.1137 H   0  0  0  0  0  0  0  0  0  0  0  0
   -4.0818   -1.3572   -0.0771 C   0  0  0  0  0  0  0  0  0  0  0  0
   -4.0406   -1.2874    1.0190 H   0  0  0  0  0  0  0  0  0  0  0  0
   -1.4717   -0.6050    1.6896 C   0  0  0  0  0  0  0  0  0  0  0  0
   -2.3936    0.3275    2.2174 C   0  0  0  0  0  0  0  0  0  0  0  0
   -3.0479    0.9094    1.5530 H   0  0  0  0  0  0  0  0  0  0  0  0
   -2.4672    0.5175    3.6050 C   0  0  0  0  0  0  0  0  0  0  0  0
   -3.1839    1.2449    4.0148 H   0  0  0  0  0  0  0  0  0  0  0  0
   -1.6266   -0.2093    4.4639 C   0  0  0  0  0  0  0  0  0  0  0  0
   -1.6871   -0.0534    5.5518 H   0  0  0  0  0  0  0  0  0  0  0  0
   -0.7098   -1.1329    3.9371 C   0  0  0  0  0  0  0  0  0  0  0  0
   -0.0486   -1.7026    4.6070 H   0  0  0  0  0  0  0  0  0  0  0  0
   -0.6297   -1.3349    2.5515 C   0  0  0  0  0  0  0  0  0  0  0  0
    0.0900   -2.0503    2.1223 H   0  0  0  0  0  0  0  0  0  0  0  0
    3.4847    0.3322   -0.1133 N   0  0  0  0  0  2  0  0  0  0  0  0
    1.4074    2.4174   -1.9891 O   0  0  0  0  0  0  0  0  0  0  0  0
   -1.2828   -0.8228   -0.1121 P   0  0  0  0  0  4  0  0  0  0  0  0
    0.0317   -2.2955   -0.6230 S   0  0  0  0  0  1  0  0  0  0  0  0
  1  2  1  0  0  0  0
  3  1  1  0  0  0  0
  4  3  1  6  0  0  0
  4 48  1  0  0  0  0
  5  4  1  0  0  0  0
  5  7  2  0  0  0  0
  6  5  1  0  0  0  0
  7  9  1  0  0  0  0
  8  7  1  0  0  0  0
  9 11  2  0  0  0  0
  9 10  1  0  0  0  0
 11 12  1  0  0  0  0
 13 14  1  6  0  0  0
 13 15  1  0  0  0  0
 13  1  1  0  0  0  0
 13 50  1  0  0  0  0
 15 24  1  0  0  0  0
 16 18  1  0  0  0  0
 16 15  2  0  0  0  0
 17 16  1  0  0  0  0
 18 20  2  0  0  0  0
 19 18  1  0  0  0  0
 20 21  1  0  0  0  0
 20 22  1  0  0  0  0
 22 23  1  0  0  0  0
 24 22  2  0  0  0  0
 24 25  1  0  0  0  0
 26 50  1  0  0  0  0
 26 35  1  0  0  0  0
 27 26  2  0  0  0  0
 28 27  1  0  0  0  0
 29 27  1  0  0  0  0
 29 31  2  0  0  0  0
 30 29  1  0  0  0  0
 31 33  1  0  0  0  0
 32 31  1  0  0  0  0
 33 34  1  0  0  0  0
 33 35  2  0  0  0  0
 35 36  1  0  0  0  0
 37 38  2  0  0  0  0
 37 46  1  0  0  0  0
 38 40  1  0  0  0  0
 39 38  1  0  0  0  0
 40 41  1  0  0  0  0
 40 42  2  0  0  0  0
 42 43  1  0  0  0  0
 44 42  1  0  0  0  0
 44 45  1  0  0  0  0
 46 44  2  0  0  0  0
 47 46  1  0  0  0  0
 48 11  1  0  0  0  0
 49  3  2  0  0  0  0
 50 37  1  0  0  0  0
 51 50  1  0  0  0  0
M  END
