1,2,4
 OpenBabel05122313063D

 39 42  0  0  1  0  0  0  0  0999 V2000
   -1.5973    2.0740   -0.0059 S   0  0  0  0  0  1  0  0  0  0  0  0
    1.2899    1.7844   -0.3278 N   0  0  0  0  0  2  0  0  0  0  0  0
    0.9016    3.0865   -0.3359 N   0  0  0  0  0  0  0  0  0  0  0  0
    1.3338   -1.0641   -0.8986 C   0  0  0  0  0  2  0  0  0  0  0  0
    0.9520   -2.2230   -1.5831 C   0  0  0  0  0  3  0  0  0  0  0  0
   -0.1060   -2.3901   -1.8320 H   0  0  0  0  0  0  0  0  0  0  0  0
    1.8598   -3.2518   -1.9523 C   0  0  0  0  0  0  0  0  0  0  0  0
    1.4847   -4.1421   -2.4802 H   0  0  0  0  0  0  0  0  0  0  0  0
    3.1866   -3.1476   -1.5948 C   0  0  0  0  0  0  0  0  0  0  0  0
    3.9055   -3.9526   -1.8112 H   0  0  0  0  0  0  0  0  0  0  0  0
    6.9392   -0.6685    0.3874 C   0  0  0  0  0  0  0  0  0  0  0  0
    7.5652   -1.5537    0.1952 H   0  0  0  0  0  0  0  0  0  0  0  0
    7.4719    0.4586    0.9802 C   0  0  0  0  0  0  0  0  0  0  0  0
    8.5329    0.4907    1.2699 H   0  0  0  0  0  0  0  0  0  0  0  0
    6.6318    1.5815    1.2254 C   0  0  0  0  0  0  0  0  0  0  0  0
    7.0462    2.4743    1.7178 H   0  0  0  0  0  0  0  0  0  0  0  0
    5.2946    1.5629    0.8643 C   0  0  0  0  0  0  0  0  0  0  0  0
    4.6812    2.4415    1.1035 H   0  0  0  0  0  0  0  0  0  0  0  0
    3.3082    0.3559   -0.1500 C   0  0  0  0  0  0  0  0  0  0  0  0
    5.0190   -1.8660   -0.6007 C   0  0  0  0  0  0  0  0  0  0  0  0
    5.6839   -2.7166   -0.8222 H   0  0  0  0  0  0  0  0  0  0  0  0
    5.5583   -0.7221    0.0108 C   0  0  0  0  0  0  0  0  0  0  0  0
    4.6991    0.4218    0.2369 C   0  0  2  0  0  3  0  0  0  0  0  0
    2.7406   -0.8734   -0.6431 C   0  0  0  0  0  0  0  0  0  0  0  0
    3.6577   -1.9669   -0.9400 C   0  0  0  0  0  0  0  0  0  0  0  0
    2.5795    1.5942   -0.1283 C   0  0  0  0  0  0  0  0  0  0  0  0
    3.1397    2.5296    0.0255 H   0  0  0  0  0  0  0  0  0  0  0  0
   -0.3902    3.3201   -0.2167 C   0  0  0  0  0  0  0  0  0  0  0  0
   -0.8145    4.7441   -0.2332 C   0  0  0  0  0  0  0  0  0  0  0  0
   -2.1676    5.1100   -0.0565 C   0  0  0  0  0  0  0  0  0  0  0  0
   -2.9149    4.3177    0.0991 H   0  0  0  0  0  0  0  0  0  0  0  0
   -2.5524    6.4565   -0.0771 C   0  0  0  0  0  0  0  0  0  0  0  0
   -3.6114    6.7222    0.0631 H   0  0  0  0  0  0  0  0  0  0  0  0
   -1.5941    7.4636   -0.2755 C   0  0  0  0  0  0  0  0  0  0  0  0
   -1.8975    8.5216   -0.2924 H   0  0  0  0  0  0  0  0  0  0  0  0
   -0.2450    7.1115   -0.4523 C   0  0  0  0  0  0  0  0  0  0  0  0
    0.5127    7.8947   -0.6086 H   0  0  0  0  0  0  0  0  0  0  0  0
    0.1432    5.7672   -0.4305 C   0  0  0  0  0  0  0  0  0  0  0  0
    1.1939    5.4766   -0.5656 H   0  0  0  0  0  0  0  0  0  0  0  0
  2 26  1  0  0  0  0
  3  2  1  0  0  0  0
  3 28  2  0  0  0  0
  4 24  1  0  0  0  0
  5  4  1  0  0  0  0
  6  5  1  0  0  0  0
  7  9  2  0  0  0  0
  7  5  1  0  0  0  0
  8  7  1  0  0  0  0
  9 25  1  0  0  0  0
 10  9  1  0  0  0  0
 11 13  2  0  0  0  0
 12 11  1  0  0  0  0
 13 15  1  0  0  0  0
 13 14  1  0  0  0  0
 15 16  1  0  0  0  0
 17 18  1  0  0  0  0
 17 15  2  0  0  0  0
 19 26  2  0  0  0  0
 20 22  2  0  0  0  0
 21 20  1  0  0  0  0
 22 23  1  0  0  0  0
 22 11  1  0  0  0  0
 23 19  1  1  0  0  0
 23 17  1  0  0  0  0
 24 19  1  0  0  0  0
 25 24  2  0  0  0  0
 25 20  1  0  0  0  0
 26 27  1  0  0  0  0
 28  1  1  0  0  0  0
 29 28  1  0  0  0  0
 29 30  1  0  0  0  0
 30 31  1  0  0  0  0
 32 30  2  0  0  0  0
 32 33  1  0  0  0  0
 34 32  1  0  0  0  0
 35 34  1  0  0  0  0
 36 38  1  0  0  0  0
 36 34  2  0  0  0  0
 37 36  1  0  0  0  0
 38 29  2  0  0  0  0
 39 38  1  0  0  0  0
M  END
