1,2,6
 OpenBabel05122313063D

 32 33  0  0  0  0  0  0  0  0999 V2000
    1.4921   -1.5294   -0.0640 S   0  0  0  0  0  1  0  0  0  0  0  0
    1.9237    1.3643    0.0151 N   0  0  0  0  0  2  0  0  0  0  0  0
    3.1082    0.7160    0.0079 N   0  0  0  0  0  0  0  0  0  0  0  0
    4.1318   -1.3817   -0.0438 N   0  0  0  0  0  0  0  0  0  0  0  0
    3.9195   -2.3811   -0.0742 H   0  0  0  0  0  0  0  0  0  0  0  0
   -0.5483    2.3409    0.0232 C   0  0  0  0  0  2  0  0  0  0  0  0
   -1.8440    2.8773    0.0165 C   0  0  0  0  0  0  0  0  0  0  0  0
   -2.7220    2.2150   -0.0067 H   0  0  0  0  0  0  0  0  0  0  0  0
   -2.0690    4.2706    0.0325 C   0  0  0  0  0  0  0  0  0  0  0  0
   -3.1020    4.6530    0.0271 H   0  0  0  0  0  0  0  0  0  0  0  0
   -0.9887    5.1611    0.0532 C   0  0  0  0  0  0  0  0  0  0  0  0
   -1.1599    6.2481    0.0640 H   0  0  0  0  0  0  0  0  0  0  0  0
    0.3206    4.6563    0.0588 C   0  0  0  0  0  0  0  0  0  0  0  0
    1.1687    5.3579    0.0726 H   0  0  0  0  0  0  0  0  0  0  0  0
    0.5552    3.2654    0.0449 C   0  0  0  0  0  0  0  0  0  0  0  0
    1.9004    2.6864    0.0447 C   0  0  0  0  0  0  0  0  0  0  0  0
    3.1818    3.4578    0.0701 C   0  0  0  0  0  0  0  0  0  0  0  0
    3.7953    3.2073   -0.8200 H   0  0  0  0  0  0  0  0  0  0  0  0
    3.7877    3.1594    0.9505 H   0  0  0  0  0  0  0  0  0  0  0  0
    3.0159    4.5483    0.0989 H   0  0  0  0  0  0  0  0  0  0  0  0
    3.0002   -0.6017   -0.0282 C   0  0  0  0  0  0  0  0  0  0  0  0
    5.4949   -1.0613   -0.0290 C   0  0  0  0  0  0  0  0  0  0  0  0
    6.4096   -2.1426   -0.0572 C   0  0  0  0  0  0  0  0  0  0  0  0
    6.0247   -3.1749   -0.0898 H   0  0  0  0  0  0  0  0  0  0  0  0
    7.7881   -1.9107   -0.0443 C   0  0  0  0  0  0  0  0  0  0  0  0
    8.4794   -2.7669   -0.0668 H   0  0  0  0  0  0  0  0  0  0  0  0
    8.2873   -0.5980   -0.0030 C   0  0  0  0  0  0  0  0  0  0  0  0
    9.3719   -0.4145    0.0072 H   0  0  0  0  0  0  0  0  0  0  0  0
    7.3818    0.4738    0.0247 C   0  0  0  0  0  0  0  0  0  0  0  0
    7.7581    1.5081    0.0570 H   0  0  0  0  0  0  0  0  0  0  0  0
    5.9965    0.2602    0.0122 C   0  0  0  0  0  0  0  0  0  0  0  0
    5.2827    1.0914    0.0333 H   0  0  0  0  0  0  0  0  0  0  0  0
  1 21  1  0  0  0  0
  2 16  1  0  0  0  0
  3  2  1  0  0  0  0
  4 22  1  0  0  0  0
  4 21  1  0  0  0  0
  5  4  1  0  0  0  0
  6 15  1  0  0  0  0
  7  6  1  0  0  0  0
  7  9  2  0  0  0  0
  8  7  1  0  0  0  0
  9 11  1  0  0  0  0
 10  9  1  0  0  0  0
 11 13  2  0  0  0  0
 11 12  1  0  0  0  0
 13 14  1  0  0  0  0
 15 13  1  0  0  0  0
 16 15  2  0  0  0  0
 16 17  1  0  0  0  0
 17 20  1  0  0  0  0
 17 19  1  0  0  0  0
 18 17  1  0  0  0  0
 21  3  2  0  0  0  0
 22 31  1  0  0  0  0
 23 25  1  0  0  0  0
 23 22  2  0  0  0  0
 24 23  1  0  0  0  0
 25 27  2  0  0  0  0
 26 25  1  0  0  0  0
 27 28  1  0  0  0  0
 27 29  1  0  0  0  0
 29 30  1  0  0  0  0
 31 29  2  0  0  0  0
 31 32  1  0  0  0  0
M  END
