1,3,8
 OpenBabel05122313063D

 19 19  0  0  0  0  0  0  0  0999 V2000
    0.9397    2.8908   -0.0881 S   0  0  0  0  0  1  0  0  0  0  0  0
    3.6409    2.2661   -0.0105 N   0  0  0  0  0  0  0  0  0  0  0  0
    3.1750    1.0051    0.0071 N   0  0  0  0  0  2  0  0  0  0  0  0
    2.6817    3.1841   -0.0492 C   0  0  0  0  0  0  0  0  0  0  0  0
    3.9887   -0.0250    0.0399 C   0  0  0  0  0  0  0  0  0  0  0  0
    5.0795    0.1468    0.0530 H   0  0  0  0  0  0  0  0  0  0  0  0
    3.3767   -1.3393    0.0525 C   0  0  0  0  0  0  0  0  0  0  0  0
    1.9382   -1.3825    0.0344 C   0  0  0  0  0  2  0  0  0  0  0  0
    1.3352   -2.6480    0.0416 C   0  0  0  0  0  0  0  0  0  0  0  0
    0.2395   -2.7467    0.0225 H   0  0  0  0  0  0  0  0  0  0  0  0
    2.1046   -3.8329    0.0671 C   0  0  0  0  0  0  0  0  0  0  0  0
    1.5931   -4.8085    0.0725 H   0  0  0  0  0  0  0  0  0  0  0  0
    3.5044   -3.7747    0.0837 C   0  0  0  0  0  0  0  0  0  0  0  0
    4.1007   -4.6995    0.1019 H   0  0  0  0  0  0  0  0  0  0  0  0
    4.1415   -2.5243    0.0760 C   0  0  0  0  0  0  0  0  0  0  0  0
    5.2414   -2.4611    0.0873 H   0  0  0  0  0  0  0  0  0  0  0  0
    3.0771    4.4852   -0.0492 N   0  0  0  0  0  0  0  0  0  0  0  0
    4.0715    4.6968   -0.1224 H   0  0  0  0  0  0  0  0  0  0  0  0
    2.3866    5.2183   -0.1883 H   0  0  0  0  0  0  0  0  0  0  0  0
  1  4  1  0  0  0  0
  2  3  1  0  0  0  0
  3  5  1  0  0  0  0
  4  2  2  0  0  0  0
  5  7  2  0  0  0  0
  5  6  1  0  0  0  0
  7 15  1  0  0  0  0
  8  9  1  0  0  0  0
  8  7  1  0  0  0  0
  9 11  2  0  0  0  0
 10  9  1  0  0  0  0
 11 12  1  0  0  0  0
 11 13  1  0  0  0  0
 13 14  1  0  0  0  0
 15 13  2  0  0  0  0
 15 16  1  0  0  0  0
 17  4  1  0  0  0  0
 18 17  1  0  0  0  0
 19 17  1  0  0  0  0
M  END
