2,3,4
 OpenBabel05122313063D

 19 19  0  0  0  0  0  0  0  0999 V2000
    5.0432   -1.2738    0.0312 Cl  0  0  0  0  0  0  0  0  0  0  0  0
   -2.4278    2.2478   -0.0807 S   0  0  0  0  0  1  0  0  0  0  0  0
    0.2771    3.3558    0.0192 N   0  0  0  0  0  2  0  0  0  0  0  0
    1.8164    1.1548    0.0281 C   0  0  0  0  0  2  0  0  0  0  0  0
    2.6464    0.0280    0.0215 C   0  0  0  0  0  0  0  0  0  0  0  0
    2.2408   -0.9924   -0.0076 H   0  0  0  0  0  0  0  0  0  0  0  0
    4.0517    0.1691    0.0426 C   0  0  0  0  0  0  0  0  0  0  0  0
    4.6673    1.4274    0.0703 C   0  0  0  0  0  0  0  0  0  0  0  0
    5.7628    1.5062    0.0851 H   0  0  0  0  0  0  0  0  0  0  0  0
    3.8518    2.5683    0.0766 C   0  0  0  0  0  0  0  0  0  0  0  0
    4.3158    3.5671    0.0959 H   0  0  0  0  0  0  0  0  0  0  0  0
    2.4471    2.4489    0.0559 C   0  0  0  0  0  0  0  0  0  0  0  0
    1.5676    3.5997    0.0536 C   0  0  0  0  0  0  0  0  0  0  0  0
    1.9207    4.6456    0.0747 H   0  0  0  0  0  0  0  0  0  0  0  0
   -0.6242    4.3529    0.0099 N   0  0  0  0  0  0  0  0  0  0  0  0
   -1.8821    3.9286   -0.0308 C   0  0  0  0  0  0  0  0  0  0  0  0
   -2.8527    4.8802   -0.0253 N   0  0  0  0  0  0  0  0  0  0  0  0
   -2.5820    5.8612   -0.0814 H   0  0  0  0  0  0  0  0  0  0  0  0
   -3.8239    4.6083   -0.1525 H   0  0  0  0  0  0  0  0  0  0  0  0
  1  7  1  0  0  0  0
  2 16  1  0  0  0  0
  3 13  1  0  0  0  0
  4 12  1  0  0  0  0
  5  4  1  0  0  0  0
  5  7  2  0  0  0  0
  6  5  1  0  0  0  0
  7  8  1  0  0  0  0
  8 10  2  0  0  0  0
  8  9  1  0  0  0  0
 10 11  1  0  0  0  0
 12 10  1  0  0  0  0
 13 12  2  0  0  0  0
 13 14  1  0  0  0  0
 15  3  1  0  0  0  0
 16 17  1  0  0  0  0
 16 15  2  0  0  0  0
 18 17  1  0  0  0  0
 19 17  1  0  0  0  0
M  END
