1,2,35
 OpenBabel05122313063D

 37 38  0  0  0  0  0  0  0  0999 V2000
   -2.6590   -1.1299    0.5800 S   0  0  0  0  0  0  0  0  0  0  0  0
   -0.5051    0.7926   -0.3235 N   0  0  0  0  0  2  0  0  0  0  0  0
   -2.4227   -1.0546    2.3955 C   0  0  0  0  0  0  0  0  0  0  0  0
   -2.1530   -2.0853    2.6947 H   0  0  0  0  0  0  0  0  0  0  0  0
   -3.3611   -0.7435    2.8930 H   0  0  0  0  0  0  0  0  0  0  0  0
   -1.5915   -0.3691    2.6422 H   0  0  0  0  0  0  0  0  0  0  0  0
   -2.8936    0.6071    0.1767 C   0  0  0  0  0  0  0  0  0  0  0  0
   -4.1754    1.1708    0.2696 C   0  0  0  0  0  0  0  0  0  0  0  0
   -5.0009    0.5523    0.6530 H   0  0  0  0  0  0  0  0  0  0  0  0
   -4.4061    2.4879   -0.1529 C   0  0  0  0  0  0  0  0  0  0  0  0
   -5.4164    2.9181   -0.0912 H   0  0  0  0  0  0  0  0  0  0  0  0
   -3.3474    3.2307   -0.6989 C   0  0  0  0  0  0  0  0  0  0  0  0
   -3.5250    4.2478   -1.0794 H   0  0  0  0  0  0  0  0  0  0  0  0
   -2.0639    2.6786   -0.7884 C   0  0  0  0  0  0  0  0  0  0  0  0
   -1.2567    3.2603   -1.2556 H   0  0  0  0  0  0  0  0  0  0  0  0
   -1.8024    1.3702   -0.3214 C   0  0  0  0  0  0  0  0  0  0  0  0
    0.5548    1.5776   -0.2721 C   0  0  0  0  0  3  0  0  0  0  0  0
    0.3703    2.6612   -0.1737 H   0  0  0  0  0  0  0  0  0  0  0  0
    1.9264    1.1443   -0.2030 C   0  0  0  0  0  0  0  0  0  0  0  0
    2.9051    2.0621    0.3049 C   0  0  0  0  0  0  0  0  0  0  0  0
    4.2056    1.6035    0.5354 C   0  0  0  0  0  0  0  0  0  0  0  0
    4.9527    2.3038    0.9422 H   0  0  0  0  0  0  0  0  0  0  0  0
    4.5814    0.2634    0.2852 C   0  0  0  0  0  0  0  0  0  0  0  0
    3.6261   -0.6082   -0.2588 C   0  0  0  0  0  0  0  0  0  0  0  0
    3.9124   -1.6430   -0.5035 H   0  0  0  0  0  0  0  0  0  0  0  0
    2.3084   -0.1973   -0.5477 C   0  0  0  0  0  0  0  0  0  0  0  0
    2.5588    3.4935    0.6413 C   0  0  0  0  0  0  0  0  0  0  0  0
    2.1258    4.0353   -0.2258 H   0  0  0  0  0  0  0  0  0  0  0  0
    3.4616    4.0482    0.9596 H   0  0  0  0  0  0  0  0  0  0  0  0
    1.8205    3.5614    1.4676 H   0  0  0  0  0  0  0  0  0  0  0  0
    5.9805   -0.2005    0.5903 C   0  0  0  0  0  0  0  0  0  0  0  0
    6.1568   -1.2346    0.2383 H   0  0  0  0  0  0  0  0  0  0  0  0
    6.1744   -0.1762    1.6838 H   0  0  0  0  0  0  0  0  0  0  0  0
    6.7365    0.4616    0.1194 H   0  0  0  0  0  0  0  0  0  0  0  0
    1.3931   -1.1161   -1.2528 C   0  0  0  0  0  3  0  0  0  0  0  0
    1.8147   -2.1291   -1.3789 H   0  0  0  0  0  0  0  0  0  0  0  0
    1.0671   -0.7111   -2.2370 H   0  0  0  0  0  0  0  0  0  0  0  0
  1  3  1  0  0  0  0
  2 16  1  0  0  0  0
  2 17  1  0  0  0  0
  3  6  1  0  0  0  0
  3  4  1  0  0  0  0
  3  5  1  0  0  0  0
  7  8  1  0  0  0  0
  7  1  1  0  0  0  0
  8  9  1  0  0  0  0
 10 11  1  0  0  0  0
 10  8  2  0  0  0  0
 12 10  1  0  0  0  0
 13 12  1  0  0  0  0
 14 12  2  0  0  0  0
 14 16  1  0  0  0  0
 15 14  1  0  0  0  0
 16  7  2  0  0  0  0
 17 19  1  0  0  0  0
 17 18  1  0  0  0  0
 19 20  1  0  0  0  0
 20 21  2  0  0  0  0
 20 27  1  0  0  0  0
 21 22  1  0  0  0  0
 23 21  1  0  0  0  0
 23 31  1  0  0  0  0
 24 23  2  0  0  0  0
 25 24  1  0  0  0  0
 26 24  1  0  0  0  0
 26 19  2  0  0  0  0
 27 29  1  0  0  0  0
 27 30  1  0  0  0  0
 28 27  1  0  0  0  0
 31 33  1  0  0  0  0
 32 31  1  0  0  0  0
 34 31  1  0  0  0  0
 35 26  1  0  0  0  0
 36 35  1  0  0  0  0
 37 35  1  0  0  0  0
M  END
