3,4,9
 OpenBabel05122313063D

 22 22  0  0  0  0  0  0  0  0999 V2000
    2.7598   -4.0226    0.0002 Cl  0  0  0  0  0  0  0  0  0  0  0  0
    5.4802   -2.3328   -0.0001 Cl  0  0  0  0  0  0  0  0  0  0  0  0
   -1.6380    2.9550    0.0002 S   0  0  0  0  0  1  0  0  0  0  0  0
    1.2785    2.4422   -0.0002 N   0  0  0  0  0  2  0  0  0  0  0  0
    1.0185    3.7662    0.0003 N   0  0  0  0  0  0  0  0  0  0  0  0
   -0.5839    5.3997   -0.0052 N   0  0  0  0  0  0  0  0  0  0  0  0
    0.1648    6.0904    0.0136 H   0  0  0  0  0  0  0  0  0  0  0  0
   -1.5576    5.6901    0.0174 H   0  0  0  0  0  0  0  0  0  0  0  0
    1.3920   -0.2196    0.0001 C   0  0  0  0  0  2  0  0  0  0  0  0
    1.4874   -1.6167    0.0002 C   0  0  0  0  0  0  0  0  0  0  0  0
    0.5930   -2.2551    0.0003 H   0  0  0  0  0  0  0  0  0  0  0  0
    2.7330   -2.2827    0.0001 C   0  0  0  0  0  0  0  0  0  0  0  0
    3.9300   -1.5428   -0.0001 C   0  0  0  0  0  0  0  0  0  0  0  0
    3.8657   -0.1389   -0.0002 C   0  0  0  0  0  0  0  0  0  0  0  0
    4.8099    0.4236   -0.0003 H   0  0  0  0  0  0  0  0  0  0  0  0
    2.6252    0.5231   -0.0001 C   0  0  0  0  0  0  0  0  0  0  0  0
    2.5215    1.9837   -0.0003 C   0  0  0  0  0  0  0  0  0  0  0  0
    3.7054    2.8947   -0.0006 C   0  0  0  0  0  0  0  0  0  0  0  0
    3.3685    3.9458   -0.0013 H   0  0  0  0  0  0  0  0  0  0  0  0
    4.3404    2.7117   -0.8924 H   0  0  0  0  0  0  0  0  0  0  0  0
    4.3401    2.7128    0.8917 H   0  0  0  0  0  0  0  0  0  0  0  0
   -0.2695    4.0782   -0.0006 C   0  0  0  0  0  0  0  0  0  0  0  0
  2 13  1  0  0  0  0
  4  5  1  0  0  0  0
  6 22  1  0  0  0  0
  6  7  1  0  0  0  0
  6  8  1  0  0  0  0
  9 10  1  0  0  0  0
 10 11  1  0  0  0  0
 12 10  2  0  0  0  0
 12  1  1  0  0  0  0
 13 12  1  0  0  0  0
 14 16  1  0  0  0  0
 14 13  2  0  0  0  0
 15 14  1  0  0  0  0
 16  9  1  0  0  0  0
 17  4  1  0  0  0  0
 17 16  2  0  0  0  0
 18 17  1  0  0  0  0
 18 21  1  0  0  0  0
 19 18  1  0  0  0  0
 20 18  1  0  0  0  0
 22  3  1  0  0  0  0
 22  5  2  0  0  0  0
M  END
