1,10,13
q = -2.0, confidence = 0.882

 32 33  0  0  0  0  0  0  0  0999 V2000
   -0.2606    2.6991   -0.0907 S   0  0  0  0  0  1  0  0  0  0  0  0
   -2.0266    2.7898   -0.0844 C   0  0  0  0  0  0  0  0  0  0  0  0
   -2.5623    4.0373   -0.1803 N   0  0  0  0  0  0  0  0  0  0  0  0
   -1.8964    4.8089   -0.1648 H   0  0  0  0  0  0  0  0  0  0  0  0
   -3.9817    4.3084   -0.1134 C   0  0  0  0  0  0  0  0  0  0  0  0
   -4.1845    5.3142   -0.5286 H   0  0  0  0  0  0  0  0  0  0  0  0
   -4.3735    4.2672    0.9284 H   0  0  0  0  0  0  0  0  0  0  0  0
   -4.5337    3.5495   -0.7011 H   0  0  0  0  0  0  0  0  0  0  0  0
   -2.8735    1.7706   -0.0065 N   0  0  0  0  0  0  0  0  0  0  0  0
   -2.2857    0.5620    0.0481 N   0  0  0  0  0  2  0  0  0  0  0  0
   -3.0059   -0.5528    0.0733 C   0  0  0  0  0  0  0  0  0  0  0  0
   -2.2134   -1.7873    0.1366 C   0  0  0  0  0  0  0  0  0  0  0  0
   -0.7826   -1.6452    0.0988 C   0  0  0  0  0  2  0  0  0  0  0  0
   -0.0122   -2.8162    0.1544 C   0  0  0  0  0  0  0  0  0  0  0  0
    1.0859   -2.7641    0.1141 H   0  0  0  0  0  0  0  0  0  0  0  0
   -0.6077   -4.0911    0.2621 C   0  0  0  0  0  0  0  0  0  0  0  0
    0.0322   -4.9868    0.3034 H   0  0  0  0  0  0  0  0  0  0  0  0
   -2.0008   -4.2155    0.3261 C   0  0  0  0  0  0  0  0  0  0  0  0
   -2.4698   -5.2060    0.4264 H   0  0  0  0  0  0  0  0  0  0  0  0
   -2.8012   -3.0641    0.2670 C   0  0  0  0  0  0  0  0  0  0  0  0
   -3.8954   -3.1547    0.3346 H   0  0  0  0  0  0  0  0  0  0  0  0
   -4.4876   -0.5312    0.0237 C   0  0  0  0  0  0  0  0  0  0  0  0
   -5.1759   -1.2927   -0.9470 C   0  0  0  0  0  0  0  0  0  0  0  0
   -4.6010   -1.8868   -1.6728 H   0  0  0  0  0  0  0  0  0  0  0  0
   -6.5771   -1.2762   -1.0060 C   0  0  0  0  0  0  0  0  0  0  0  0
   -7.0976   -1.8673   -1.7749 H   0  0  0  0  0  0  0  0  0  0  0  0
   -7.3119   -0.5069   -0.0909 C   0  0  0  0  0  0  0  0  0  0  0  0
   -8.4118   -0.4974   -0.1338 H   0  0  0  0  0  0  0  0  0  0  0  0
   -6.6364    0.2537    0.8783 C   0  0  0  0  0  0  0  0  0  0  0  0
   -7.2072    0.8591    1.5992 H   0  0  0  0  0  0  0  0  0  0  0  0
   -5.2369    0.2497    0.9319 C   0  0  0  0  0  0  0  0  0  0  0  0
   -4.7076    0.8539    1.6808 H   0  0  0  0  0  0  0  0  0  0  0  0
  1  2  1  0  0  0  0
  2  9  2  0  0  0  0
  3  4  1  0  0  0  0
  3  5  1  0  0  0  0
  3  2  1  0  0  0  0
  5  7  1  0  0  0  0
  6  5  1  0  0  0  0
  8  5  1  0  0  0  0
  9 10  1  0  0  0  0
 10 11  1  0  0  0  0
 11 12  2  0  0  0  0
 12 20  1  0  0  0  0
 13 12  1  0  0  0  0
 13 14  1  0  0  0  0
 14 16  2  0  0  0  0
 15 14  1  0  0  0  0
 16 17  1  0  0  0  0
 16 18  1  0  0  0  0
 18 19  1  0  0  0  0
 20 18  2  0  0  0  0
 20 21  1  0  0  0  0
 22 11  1  0  0  0  0
 22 31  1  0  0  0  0
 23 22  2  0  0  0  0
 24 23  1  0  0  0  0
 25 23  1  0  0  0  0
 25 27  2  0  0  0  0
 26 25  1  0  0  0  0
 27 29  1  0  0  0  0
 28 27  1  0  0  0  0
 29 31  2  0  0  0  0
 29 30  1  0  0  0  0
 31 32  1  0  0  0  0
M  END
