1,4,11
q = -2.0, confidence = 0.872

 25 25  0  0  0  0  0  0  0  0999 V2000
    1.4427    2.4126   -0.0816 S   0  0  0  0  0  1  0  0  0  0  0  0
    3.1953    2.1690   -0.0428 C   0  0  0  0  0  0  0  0  0  0  0  0
    3.8353    1.0078   -0.0048 N   0  0  0  0  0  0  0  0  0  0  0  0
    3.0228   -0.0692    0.0089 N   0  0  0  0  0  2  0  0  0  0  0  0
    3.5140   -1.2966    0.0407 C   0  0  0  0  0  0  0  0  0  0  0  0
    4.9860   -1.5625    0.0616 C   0  0  0  0  0  0  0  0  0  0  0  0
    5.2872   -2.1660   -0.8201 H   0  0  0  0  0  0  0  0  0  0  0  0
    5.2656   -2.1466    0.9631 H   0  0  0  0  0  0  0  0  0  0  0  0
    5.5396   -0.6076    0.0569 H   0  0  0  0  0  0  0  0  0  0  0  0
    2.5043   -2.3568    0.0479 C   0  0  0  0  0  0  0  0  0  0  0  0
    1.1247   -1.9535    0.0282 C   0  0  0  0  0  2  0  0  0  0  0  0
    0.1542   -2.9666    0.0284 C   0  0  0  0  0  0  0  0  0  0  0  0
   -0.9165   -2.7149    0.0067 H   0  0  0  0  0  0  0  0  0  0  0  0
    0.5101   -4.3324    0.0497 C   0  0  0  0  0  0  0  0  0  0  0  0
   -0.2814   -5.0986    0.0498 H   0  0  0  0  0  0  0  0  0  0  0  0
    1.8578   -4.7130    0.0688 C   0  0  0  0  0  0  0  0  0  0  0  0
    2.1377   -5.7772    0.0838 H   0  0  0  0  0  0  0  0  0  0  0  0
    2.8535   -3.7236    0.0673 C   0  0  0  0  0  0  0  0  0  0  0  0
    3.9140   -4.0189    0.0800 H   0  0  0  0  0  0  0  0  0  0  0  0
    3.9545    3.2981   -0.0552 N   0  0  0  0  0  0  0  0  0  0  0  0
    3.4478    4.1799   -0.1106 H   0  0  0  0  0  0  0  0  0  0  0  0
    5.4002    3.2863   -0.0541 C   0  0  0  0  0  0  0  0  0  0  0  0
    5.7951    2.7478    0.8331 H   0  0  0  0  0  0  0  0  0  0  0  0
    5.7712    4.3282   -0.0367 H   0  0  0  0  0  0  0  0  0  0  0  0
    5.8059    2.7739   -0.9533 H   0  0  0  0  0  0  0  0  0  0  0  0
  1  2  1  0  0  0  0
  2  3  2  0  0  0  0
  3  4  1  0  0  0  0
  4  5  1  0  0  0  0
  5 10  2  0  0  0  0
  5  6  1  0  0  0  0
  6  8  1  0  0  0  0
  7  6  1  0  0  0  0
  9  6  1  0  0  0  0
 10 18  1  0  0  0  0
 11 12  1  0  0  0  0
 11 10  1  0  0  0  0
 12 14  2  0  0  0  0
 13 12  1  0  0  0  0
 14 15  1  0  0  0  0
 14 16  1  0  0  0  0
 16 17  1  0  0  0  0
 18 16  2  0  0  0  0
 18 19  1  0  0  0  0
 20 22  1  0  0  0  0
 20  2  1  0  0  0  0
 21 20  1  0  0  0  0
 22 24  1  0  0  0  0
 22 23  1  0  0  0  0
 25 22  1  0  0  0  0
M  END
