1,4,18
q = -1.0, confidence = 0.0

 45 46  0  0  1  0  0  0  0  0999 V2000
    1.4656   -2.0103    0.5337 S   0  0  0  0  0  0  0  0  0  0  0  0
   -2.1771    1.5951    0.0117 N   0  0  0  0  0  0  0  0  0  0  0  0
   -3.0767    2.0036    0.2686 H   0  0  0  0  0  0  0  0  0  0  0  0
   -1.0556   -0.4490   -0.2200 N   0  0  0  0  0  2  0  0  0  0  0  0
   -2.1630    0.2375   -0.0335 C   0  0  1  0  0  3  0  0  0  0  0  0
   -3.5062   -0.3900    0.1652 C   0  0  0  0  0  0  0  0  0  0  0  0
   -3.7112   -1.3142    1.2124 C   0  0  0  0  0  0  0  0  0  0  0  0
   -2.8715   -1.5725    1.8754 H   0  0  0  0  0  0  0  0  0  0  0  0
   -4.9783   -1.8753    1.4197 C   0  0  0  0  0  0  0  0  0  0  0  0
   -5.1315   -2.5876    2.2443 H   0  0  0  0  0  0  0  0  0  0  0  0
   -6.0523   -1.5205    0.5865 C   0  0  0  0  0  0  0  0  0  0  0  0
   -7.0464   -1.9629    0.7510 H   0  0  0  0  0  0  0  0  0  0  0  0
   -5.8571   -0.5976   -0.4528 C   0  0  0  0  0  0  0  0  0  0  0  0
   -6.6952   -0.3194   -1.1093 H   0  0  0  0  0  0  0  0  0  0  0  0
   -4.5910   -0.0306   -0.6614 C   0  0  0  0  0  0  0  0  0  0  0  0
   -4.4318    0.6839   -1.4838 H   0  0  0  0  0  0  0  0  0  0  0  0
   -1.1496    2.5200   -0.2792 C   0  0  0  0  0  0  0  0  0  0  0  0
    0.2097    2.1441   -0.3842 C   0  0  0  0  0  2  0  0  0  0  0  0
    1.1345    3.1563   -0.7184 C   0  0  0  0  0  3  0  0  0  0  0  0
    2.1963    2.8784   -0.7924 H   0  0  0  0  0  0  0  0  0  0  0  0
    0.7360    4.4864   -0.9194 C   0  0  0  0  0  0  0  0  0  0  0  0
    1.4870    5.2501   -1.1749 H   0  0  0  0  0  0  0  0  0  0  0  0
   -0.6152    4.8453   -0.7801 C   0  0  0  0  0  0  0  0  0  0  0  0
   -0.9387    5.8873   -0.9232 H   0  0  0  0  0  0  0  0  0  0  0  0
   -1.5556    3.8627   -0.4615 C   0  0  0  0  0  0  0  0  0  0  0  0
   -2.6225    4.1261   -0.3624 H   0  0  0  0  0  0  0  0  0  0  0  0
   -1.1054   -1.8611   -0.6068 C   0  0  0  0  0  0  0  0  0  0  0  0
   -0.7685   -1.9337   -1.6618 H   0  0  0  0  0  0  0  0  0  0  0  0
   -2.1424   -2.2572   -0.5737 H   0  0  0  0  0  0  0  0  0  0  0  0
   -0.2086   -2.7245    0.2758 C   0  0  0  0  0  0  0  0  0  0  0  0
   -0.1154   -3.7531   -0.1257 H   0  0  0  0  0  0  0  0  0  0  0  0
   -0.6262   -2.8038    1.3004 H   0  0  0  0  0  0  0  0  0  0  0  0
    2.5188   -2.6677   -0.8868 C   0  0  0  0  0  0  0  0  0  0  0  0
    1.9488   -2.2712   -2.2503 C   0  0  0  0  0  0  0  0  0  0  0  0
    2.6717   -2.5495   -3.0463 H   0  0  0  0  0  0  0  0  0  0  0  0
    1.7724   -1.1773   -2.3006 H   0  0  0  0  0  0  0  0  0  0  0  0
    0.9993   -2.7978   -2.4724 H   0  0  0  0  0  0  0  0  0  0  0  0
    3.8706   -1.9795   -0.6441 C   0  0  0  0  0  0  0  0  0  0  0  0
    4.5862   -2.3005   -1.4292 H   0  0  0  0  0  0  0  0  0  0  0  0
    4.2923   -2.2610    0.3419 H   0  0  0  0  0  0  0  0  0  0  0  0
    3.7651   -0.8758   -0.6746 H   0  0  0  0  0  0  0  0  0  0  0  0
    2.6413   -4.1874   -0.7425 C   0  0  0  0  0  0  0  0  0  0  0  0
    3.3420   -4.5741   -1.5123 H   0  0  0  0  0  0  0  0  0  0  0  0
    1.6720   -4.7044   -0.8965 H   0  0  0  0  0  0  0  0  0  0  0  0
    3.0350   -4.4675    0.2543 H   0  0  0  0  0  0  0  0  0  0  0  0
  2  3  1  0  0  0  0
  5  4  1  1  0  0  0
  5  2  1  0  0  0  0
  5  6  1  0  0  0  0
  6  7  1  0  0  0  0
  7  9  2  0  0  0  0
  7  8  1  0  0  0  0
  9 10  1  0  0  0  0
 11 12  1  0  0  0  0
 11  9  1  0  0  0  0
 13 11  2  0  0  0  0
 14 13  1  0  0  0  0
 15 13  1  0  0  0  0
 15  6  2  0  0  0  0
 16 15  1  0  0  0  0
 17  2  1  0  0  0  0
 18 17  1  0  0  0  0
 19 18  1  0  0  0  0
 20 19  1  0  0  0  0
 21 23  2  0  0  0  0
 21 19  1  0  0  0  0
 22 21  1  0  0  0  0
 23 25  1  0  0  0  0
 24 23  1  0  0  0  0
 25 26  1  0  0  0  0
 25 17  2  0  0  0  0
 27 29  1  0  0  0  0
 27  4  1  0  0  0  0
 27 30  1  0  0  0  0
 28 27  1  0  0  0  0
 30  1  1  0  0  0  0
 30 32  1  0  0  0  0
 31 30  1  0  0  0  0
 33 42  1  0  0  0  0
 33 38  1  0  0  0  0
 33  1  1  0  0  0  0
 34 33  1  0  0  0  0
 35 34  1  0  0  0  0
 36 34  1  0  0  0  0
 37 34  1  0  0  0  0
 38 40  1  0  0  0  0
 39 38  1  0  0  0  0
 41 38  1  0  0  0  0
 42 45  1  0  0  0  0
 43 42  1  0  0  0  0
 44 42  1  0  0  0  0
M  END
