1,3,15
q = -2.0, confidence = 0.87

 25 25  0  0  1  0  0  0  0  0999 V2000
    1.0705    1.4985    2.1134 S   0  0  0  0  0  1  0  0  0  0  0  0
   -4.4357   -2.8616    1.0154 F   0  0  0  0  0  0  0  0  0  0  0  0
   -1.4370   -0.0792    2.0889 N   0  0  0  0  0  2  0  0  0  0  0  0
   -1.5011    0.9311    2.9800 N   0  0  0  0  0  0  0  0  0  0  0  0
   -0.4371    2.7291    3.9333 N   0  0  0  0  0  0  0  0  0  0  0  0
    0.4292    3.2566    4.0242 H   0  0  0  0  0  0  0  0  0  0  0  0
   -2.2446   -1.8954    0.8668 C   0  0  0  0  0  0  0  0  0  0  0  0
   -3.1938   -2.8648    0.4704 C   0  0  0  0  0  0  0  0  0  0  0  0
   -2.9148   -3.8490   -0.4819 C   0  0  0  0  0  0  0  0  0  0  0  0
   -3.6966   -4.5791   -0.7336 H   0  0  0  0  0  0  0  0  0  0  0  0
   -1.6515   -3.8616   -1.0862 C   0  0  0  0  0  0  0  0  0  0  0  0
   -1.4120   -4.6324   -1.8355 H   0  0  0  0  0  0  0  0  0  0  0  0
   -0.6884   -2.8933   -0.7424 C   0  0  0  0  0  0  0  0  0  0  0  0
    0.2839   -2.9233   -1.2547 H   0  0  0  0  0  0  0  0  0  0  0  0
   -0.9527   -1.9155    0.2287 C   0  0  0  0  0  3  0  0  0  0  0  0
   -2.4906   -0.8598    1.8641 C   0  0  2  0  0  3  0  0  0  0  0  0
   -0.4164    1.6898    3.0491 C   0  0  0  0  0  0  0  0  0  0  0  0
   -1.5305    2.9700    4.8470 C   0  0  0  0  0  0  0  0  0  0  0  0
   -1.3485    3.9169    5.3895 H   0  0  0  0  0  0  0  0  0  0  0  0
   -1.6494    2.1478    5.5875 H   0  0  0  0  0  0  0  0  0  0  0  0
   -2.4896    3.0501    4.2946 H   0  0  0  0  0  0  0  0  0  0  0  0
   -3.7883   -0.6484    2.5814 C   0  0  0  0  0  0  0  0  0  0  0  0
   -4.0788   -1.5534    3.1514 H   0  0  0  0  0  0  0  0  0  0  0  0
   -4.6043   -0.4605    1.8547 H   0  0  0  0  0  0  0  0  0  0  0  0
   -3.6913    0.2099    3.2685 H   0  0  0  0  0  0  0  0  0  0  0  0
  1 17  1  0  0  0  0
  3  4  1  0  0  0  0
  4 17  2  0  0  0  0
  5  6  1  0  0  0  0
  5 18  1  0  0  0  0
  7 16  1  0  0  0  0
  8  7  1  0  0  0  0
  8  2  1  0  0  0  0
  9  8  2  0  0  0  0
 10  9  1  0  0  0  0
 11 13  2  0  0  0  0
 11  9  1  0  0  0  0
 12 11  1  0  0  0  0
 13 15  1  0  0  0  0
 14 13  1  0  0  0  0
 15  7  2  0  0  0  0
 16  3  1  6  0  0  0
 16 22  1  0  0  0  0
 17  5  1  0  0  0  0
 18 19  1  0  0  0  0
 18 20  1  0  0  0  0
 21 18  1  0  0  0  0
 22 23  1  0  0  0  0
 22 25  1  0  0  0  0
 24 22  1  0  0  0  0
M  END
