1,2,4
q = -1.0, confidence = 0.046

 43 46  0  0  0  0  0  0  0  0999 V2000
   -2.7599   -0.8498    1.3608 S   0  0  0  0  0  0  0  0  0  0  0  0
   -0.0058   -1.2481    0.0403 N   0  0  0  0  0  2  0  0  0  0  0  0
    2.0764    0.8777   -0.2311 C   0  0  0  0  0  0  0  0  0  0  0  0
    0.7773    1.4797   -0.0858 C   0  0  0  0  0  2  0  0  0  0  0  0
    2.3408   -0.5324   -0.1223 C   0  0  0  0  0  0  0  0  0  0  0  0
    0.6227    2.8346   -0.3920 C   0  0  0  0  0  3  0  0  0  0  0  0
   -0.3705    3.2907   -0.2787 H   0  0  0  0  0  0  0  0  0  0  0  0
    3.6877   -1.0477   -0.1525 C   0  0  0  0  0  0  0  0  0  0  0  0
    4.7856   -0.1403   -0.4087 C   0  0  0  0  0  0  0  0  0  0  0  0
    1.2695   -1.4926   -0.1058 C   0  0  0  0  0  0  0  0  0  0  0  0
    1.5426   -2.5462   -0.2972 H   0  0  0  0  0  0  0  0  0  0  0  0
    6.1292   -0.6326   -0.4495 C   0  0  0  0  0  3  0  0  0  0  0  0
    6.9403    0.0843   -0.6509 H   0  0  0  0  0  0  0  0  0  0  0  0
    3.2031    1.7473   -0.5603 C   0  0  0  0  0  0  0  0  0  0  0  0
   -3.8651   -0.7579   -0.0641 C   0  0  0  0  0  0  0  0  0  0  0  0
    2.9901    3.1344   -0.8312 C   0  0  0  0  0  0  0  0  0  0  0  0
    3.8591    3.7606   -1.0846 H   0  0  0  0  0  0  0  0  0  0  0  0
    4.5032    1.2189   -0.6325 C   0  0  0  0  0  0  0  0  0  0  0  0
    5.3348    1.9004   -0.8747 H   0  0  0  0  0  0  0  0  0  0  0  0
   -0.9496   -2.3575   -0.1156 C   0  0  0  0  0  0  0  0  0  0  0  0
   -0.4016   -3.3194   -0.2384 H   0  0  0  0  0  0  0  0  0  0  0  0
   -1.5467   -2.1912   -1.0391 H   0  0  0  0  0  0  0  0  0  0  0  0
    6.4041   -1.9689   -0.2359 C   0  0  0  0  0  0  0  0  0  0  0  0
    7.4395   -2.3394   -0.2648 H   0  0  0  0  0  0  0  0  0  0  0  0
    1.7159    3.6576   -0.7785 C   0  0  0  0  0  0  0  0  0  0  0  0
    1.5360    4.7207   -1.0013 H   0  0  0  0  0  0  0  0  0  0  0  0
    4.0224   -2.4204    0.0765 C   0  0  0  0  0  0  0  0  0  0  0  0
    3.2370   -3.1460    0.3281 H   0  0  0  0  0  0  0  0  0  0  0  0
   -1.8914   -2.4442    1.0791 C   0  0  0  0  0  0  0  0  0  0  0  0
   -1.3297   -2.6095    2.0206 H   0  0  0  0  0  0  0  0  0  0  0  0
   -2.6210   -3.2693    0.9689 H   0  0  0  0  0  0  0  0  0  0  0  0
   -4.1039    0.5140   -0.6202 C   0  0  0  0  0  0  0  0  0  0  0  0
   -3.5757    1.3922   -0.2110 H   0  0  0  0  0  0  0  0  0  0  0  0
    5.3337   -2.8665    0.0363 C   0  0  0  0  0  0  0  0  0  0  0  0
    5.5501   -3.9281    0.2300 H   0  0  0  0  0  0  0  0  0  0  0  0
   -5.6604   -0.4918   -2.2060 C   0  0  0  0  0  0  0  0  0  0  0  0
   -6.3590   -0.3887   -3.0497 H   0  0  0  0  0  0  0  0  0  0  0  0
   -5.4215   -1.7538   -1.6408 C   0  0  0  0  0  0  0  0  0  0  0  0
   -5.9357   -2.6439   -2.0341 H   0  0  0  0  0  0  0  0  0  0  0  0
   -4.5336   -1.8913   -0.5624 C   0  0  0  0  0  0  0  0  0  0  0  0
   -4.3780   -2.8836   -0.1146 H   0  0  0  0  0  0  0  0  0  0  0  0
   -5.0060    0.6368   -1.6870 C   0  0  0  0  0  0  0  0  0  0  0  0
   -5.1889    1.6313   -2.1215 H   0  0  0  0  0  0  0  0  0  0  0  0
  3  5  1  0  0  0  0
  3  4  1  0  0  0  0
  5 10  2  0  0  0  0
  6  7  1  0  0  0  0
  6  4  1  0  0  0  0
  8  5  1  0  0  0  0
  8 27  2  0  0  0  0
  9  8  1  0  0  0  0
 10  2  1  0  0  0  0
 11 10  1  0  0  0  0
 12  9  1  0  0  0  0
 12 23  1  0  0  0  0
 13 12  1  0  0  0  0
 14  3  2  0  0  0  0
 15  1  1  0  0  0  0
 16 25  2  0  0  0  0
 16 14  1  0  0  0  0
 17 16  1  0  0  0  0
 18 14  1  0  0  0  0
 18  9  2  0  0  0  0
 19 18  1  0  0  0  0
 20  2  1  0  0  0  0
 20 29  1  0  0  0  0
 21 20  1  0  0  0  0
 22 20  1  0  0  0  0
 23 34  2  0  0  0  0
 24 23  1  0  0  0  0
 25  6  1  0  0  0  0
 26 25  1  0  0  0  0
 27 28  1  0  0  0  0
 29  1  1  0  0  0  0
 29 30  1  0  0  0  0
 31 29  1  0  0  0  0
 32 33  1  0  0  0  0
 32 15  2  0  0  0  0
 34 27  1  0  0  0  0
 34 35  1  0  0  0  0
 36 42  2  0  0  0  0
 36 38  1  0  0  0  0
 37 36  1  0  0  0  0
 38 40  2  0  0  0  0
 39 38  1  0  0  0  0
 40 41  1  0  0  0  0
 40 15  1  0  0  0  0
 42 32  1  0  0  0  0
 43 42  1  0  0  0  0
M  END
