1,2,4
q = -1.0, confidence = 0.016

 31 32  0  0  0  0  0  0  0  0999 V2000
    1.9606    1.0424   -0.8257 S   0  0  0  0  0  0  0  0  0  0  0  0
    0.9658   -1.0610    1.1369 N   0  0  0  0  0  2  0  0  0  0  0  0
    0.4767   -1.9912    1.8826 N   0  0  0  0  0  2  0  0  0  0  0  0
   -1.0209   -2.1580   -0.0107 C   0  0  0  0  0  3  0  0  0  0  0  0
   -2.1076   -2.8125   -0.6115 C   0  0  0  0  0  0  0  0  0  0  0  0
   -2.4082   -2.5304   -1.6303 H   0  0  0  0  0  0  0  0  0  0  0  0
   -2.7837   -3.8335    0.0754 C   0  0  0  0  0  0  0  0  0  0  0  0
   -3.6337   -4.3376   -0.4113 H   0  0  0  0  0  0  0  0  0  0  0  0
   -2.3941   -4.2361    1.3739 C   0  0  0  0  0  0  0  0  0  0  0  0
   -2.9432   -5.0385    1.8884 H   0  0  0  0  0  0  0  0  0  0  0  0
   -1.3025   -3.6262    1.9890 C   0  0  0  0  0  0  0  0  0  0  0  0
   -0.9510   -3.9240    2.9878 H   0  0  0  0  0  0  0  0  0  0  0  0
   -0.6156   -2.5953    1.3001 C   0  0  0  0  0  0  0  0  0  0  0  0
    2.0985   -0.3478    1.6048 C   0  0  0  0  0  0  0  0  0  0  0  0
    2.6291   -0.5890    2.8877 C   0  0  0  0  0  0  0  0  0  0  0  0
    2.1526   -1.3666    3.4984 H   0  0  0  0  0  0  0  0  0  0  0  0
    3.7161    0.1580    3.3473 C   0  0  0  0  0  0  0  0  0  0  0  0
    4.1221   -0.0348    4.3516 H   0  0  0  0  0  0  0  0  0  0  0  0
    4.2798    1.1614    2.5393 C   0  0  0  0  0  0  0  0  0  0  0  0
    5.1271    1.7595    2.9062 H   0  0  0  0  0  0  0  0  0  0  0  0
    3.7535    1.4119    1.2643 C   0  0  0  0  0  0  0  0  0  0  0  0
    4.1730    2.2066    0.6330 H   0  0  0  0  0  0  0  0  0  0  0  0
    2.6749    0.6519    0.7795 C   0  0  0  0  0  0  0  0  0  0  0  0
    3.2576    0.4701   -2.0379 C   0  0  0  0  0  0  0  0  0  0  0  0
    3.4446   -0.6003   -1.8188 H   0  0  0  0  0  0  0  0  0  0  0  0
    2.6798    0.5231   -2.9848 H   0  0  0  0  0  0  0  0  0  0  0  0
    4.4717    1.3308   -2.0440 C   0  0  0  0  0  0  0  0  0  0  0  0
    4.3462    2.3653   -2.4120 H   0  0  0  0  0  0  0  0  0  0  0  0
    5.6820    0.9140   -1.6249 C   0  0  0  0  0  0  0  0  0  0  0  0
    5.8318   -0.1106   -1.2468 H   0  0  0  0  0  0  0  0  0  0  0  0
    6.5610    1.5764   -1.6553 H   0  0  0  0  0  0  0  0  0  0  0  0
  1 23  1  0  0  0  0
  2 14  1  0  0  0  0
  2  3  1  0  0  0  0
  4 13  1  0  0  0  0
  5  4  2  0  0  0  0
  5  7  1  0  0  0  0
  6  5  1  0  0  0  0
  7  9  2  0  0  0  0
  8  7  1  0  0  0  0
  9 10  1  0  0  0  0
  9 11  1  0  0  0  0
 11 12  1  0  0  0  0
 13  3  1  0  0  0  0
 13 11  2  0  0  0  0
 14 15  1  0  0  0  0
 15 17  2  0  0  0  0
 15 16  1  0  0  0  0
 17 18  1  0  0  0  0
 19 20  1  0  0  0  0
 19 17  1  0  0  0  0
 21 19  2  0  0  0  0
 22 21  1  0  0  0  0
 23 21  1  0  0  0  0
 23 14  2  0  0  0  0
 24 25  1  0  0  0  0
 24  1  1  0  0  0  0
 26 24  1  0  0  0  0
 27 24  1  0  0  0  0
 27 29  2  0  0  0  0
 28 27  1  0  0  0  0
 29 30  1  0  0  0  0
 31 29  1  0  0  0  0
M  END
