1,3,7
q = 0.0, confidence = 0.988

 40 41  0  0  1  0  0  0  0  0999 V2000
    1.2574    1.2432   -1.7637 S   0  0  0  0  0  1  0  0  0  0  0  0
   -1.1238    2.2748   -0.0065 S   0  0  0  0  0  0  0  0  0  0  0  0
    1.1114   -1.4450   -0.4665 N   0  0  0  0  0  2  0  0  0  0  0  0
   -0.0763   -1.4411   -1.1209 N   0  0  0  0  0  0  0  0  0  0  0  0
   -1.9830   -0.5585   -0.0188 N   0  0  0  0  0  0  0  0  0  0  0  0
   -1.6458   -1.0811    1.1812 N   0  0  0  0  0  0  0  0  0  0  0  0
   -0.0542    0.9349   -0.6353 C   0  0  1  0  0  3  0  0  0  0  0  0
   -0.9326   -0.2774   -0.9873 C   0  0  1  0  0  0  0  0  0  0  0  0
   -1.4365   -0.0954   -1.9582 H   0  0  0  0  0  0  0  0  0  0  0  0
   -2.8096   -1.7496    3.2463 C   0  0  0  0  0  0  0  0  0  0  0  0
   -3.3203   -2.7343    3.2925 H   0  0  0  0  0  0  0  0  0  0  0  0
   -3.3429   -1.0712    3.9428 H   0  0  0  0  0  0  0  0  0  0  0  0
   -1.7713   -1.8761    3.6060 H   0  0  0  0  0  0  0  0  0  0  0  0
   -2.7973   -1.1983    1.8547 C   0  0  0  0  0  0  0  0  0  0  0  0
   -3.8916   -0.7412    1.0609 C   0  0  0  0  0  0  0  0  0  0  0  0
   -4.9523   -0.7056    1.3326 H   0  0  0  0  0  0  0  0  0  0  0  0
   -3.3374   -0.3307   -0.1491 C   0  0  0  0  0  0  0  0  0  0  0  0
   -3.9537    0.2822   -1.3624 C   0  0  0  0  0  0  0  0  0  0  0  0
   -3.5517    1.3038   -1.5300 H   0  0  0  0  0  0  0  0  0  0  0  0
   -5.0490    0.3559   -1.2316 H   0  0  0  0  0  0  0  0  0  0  0  0
   -3.7654   -0.3133   -2.2816 H   0  0  0  0  0  0  0  0  0  0  0  0
   -1.6617   -2.9483   -2.3378 C   0  0  0  0  0  0  0  0  0  0  0  0
   -2.5333   -2.8319   -1.6599 H   0  0  0  0  0  0  0  0  0  0  0  0
   -1.6639   -3.9823   -2.7277 H   0  0  0  0  0  0  0  0  0  0  0  0
   -1.8110   -2.2591   -3.1951 H   0  0  0  0  0  0  0  0  0  0  0  0
   -0.3815   -2.6731   -1.6251 C   0  0  2  0  0  3  0  0  0  0  0  0
    0.6909   -3.4982   -1.2872 C   0  0  0  0  0  0  0  0  0  0  0  0
    0.8048   -4.5581   -1.5362 H   0  0  0  0  0  0  0  0  0  0  0  0
    1.6037   -2.6950   -0.5559 C   0  0  0  0  0  0  0  0  0  0  0  0
    2.9077   -3.1000    0.0483 C   0  0  0  0  0  0  0  0  0  0  0  0
    3.7698   -2.6856   -0.5120 H   0  0  0  0  0  0  0  0  0  0  0  0
    2.9990   -4.2020    0.0472 H   0  0  0  0  0  0  0  0  0  0  0  0
    2.9909   -2.7442    1.0941 H   0  0  0  0  0  0  0  0  0  0  0  0
   -0.5039    3.7441   -0.9070 C   0  0  0  0  0  0  0  0  0  0  0  0
    0.5635    3.8951   -0.6536 H   0  0  0  0  0  0  0  0  0  0  0  0
   -0.5561    3.5359   -1.9954 H   0  0  0  0  0  0  0  0  0  0  0  0
   -1.3457    4.9537   -0.5139 C   0  0  0  0  0  0  0  0  0  0  0  0
   -2.4150    4.8108   -0.7709 H   0  0  0  0  0  0  0  0  0  0  0  0
   -0.9834    5.8559   -1.0468 H   0  0  0  0  0  0  0  0  0  0  0  0
   -1.2802    5.1533    0.5747 H   0  0  0  0  0  0  0  0  0  0  0  0
  4  8  1  0  0  0  0
  4  3  1  0  0  0  0
  5  6  1  0  0  0  0
  6 14  2  0  0  0  0
  7  1  1  6  0  0  0
  7  2  1  0  0  0  0
  8  9  1  6  0  0  0
  8  7  1  0  0  0  0
  8  5  1  0  0  0  0
 10 11  1  0  0  0  0
 10 13  1  0  0  0  0
 10 12  1  0  0  0  0
 14 10  1  0  0  0  0
 15 16  1  0  0  0  0
 15 14  1  0  0  0  0
 17  5  1  0  0  0  0
 17 15  2  0  0  0  0
 18 20  1  0  0  0  0
 18 17  1  0  0  0  0
 19 18  1  0  0  0  0
 21 18  1  0  0  0  0
 22 23  1  0  0  0  0
 24 22  1  0  0  0  0
 25 22  1  0  0  0  0
 26 22  1  1  0  0  0
 26 27  1  0  0  0  0
 26  4  1  0  0  0  0
 27 29  2  0  0  0  0
 28 27  1  0  0  0  0
 29  3  1  0  0  0  0
 29 30  1  0  0  0  0
 30 33  1  0  0  0  0
 31 30  1  0  0  0  0
 32 30  1  0  0  0  0
 34 35  1  0  0  0  0
 34 37  1  0  0  0  0
 34  2  1  0  0  0  0
 36 34  1  0  0  0  0
 37 40  1  0  0  0  0
 38 37  1  0  0  0  0
 39 37  1  0  0  0  0
M  END
