1,12,33,64
q = 0.0, confidence = 0.984

 84 88  0  0  0  0  0  0  0  0999 V2000
   -1.3033   -1.5556    0.1586 B   0  0  0  0  0  0  0  0  0  0  0  0
   -0.8681   -2.2949   -1.2230 C   0  0  0  0  0  0  0  0  0  0  0  0
   -1.6881   -2.8555   -2.2128 C   0  0  0  0  0  0  0  0  0  0  0  0
   -2.7853   -2.8580   -2.0805 H   0  0  0  0  0  0  0  0  0  0  0  0
   -1.1306   -3.3944   -3.3981 C   0  0  0  0  0  0  0  0  0  0  0  0
   -1.7885   -3.8147   -4.1781 H   0  0  0  0  0  0  0  0  0  0  0  0
    0.2558   -3.3733   -3.5848 C   0  0  0  0  0  0  0  0  0  0  0  0
    0.6954   -3.7732   -4.5147 H   0  0  0  0  0  0  0  0  0  0  0  0
    1.0938   -2.8213   -2.5849 C   0  0  0  0  0  0  0  0  0  0  0  0
    2.1851   -2.7927   -2.7532 H   0  0  0  0  0  0  0  0  0  0  0  0
    0.5524   -2.2835   -1.4079 C   0  0  0  0  0  0  0  0  0  0  0  0
    1.3031   -1.5557   -0.1589 B   0  0  0  0  0  0  0  0  0  0  0  0
    0.8677   -2.2955    1.2224 C   0  0  0  0  0  0  0  0  0  0  0  0
    1.6877   -2.8566    2.2120 C   0  0  0  0  0  0  0  0  0  0  0  0
    2.7848   -2.8592    2.0796 H   0  0  0  0  0  0  0  0  0  0  0  0
    1.1301   -3.3960    3.3971 C   0  0  0  0  0  0  0  0  0  0  0  0
    1.7879   -3.8167    4.1769 H   0  0  0  0  0  0  0  0  0  0  0  0
   -0.2563   -3.3747    3.5837 C   0  0  0  0  0  0  0  0  0  0  0  0
   -0.6959   -3.7750    4.5135 H   0  0  0  0  0  0  0  0  0  0  0  0
   -1.0942   -2.8222    2.5841 C   0  0  0  0  0  0  0  0  0  0  0  0
   -2.1855   -2.7934    2.7524 H   0  0  0  0  0  0  0  0  0  0  0  0
   -0.5527   -2.2840    1.4074 C   0  0  0  0  0  0  0  0  0  0  0  0
   -2.8543   -1.1709    0.3355 C   0  0  0  0  0  0  0  0  0  0  0  0
   -3.3664    0.1565    0.2940 C   0  0  0  0  0  0  0  0  0  0  0  0
   -4.7397    0.4230    0.4988 C   0  0  0  0  0  0  0  0  0  0  0  0
   -5.1147    1.4590    0.4849 H   0  0  0  0  0  0  0  0  0  0  0  0
   -5.6411   -0.6247    0.7311 C   0  0  0  0  0  0  0  0  0  0  0  0
   -6.7095   -0.4104    0.8942 H   0  0  0  0  0  0  0  0  0  0  0  0
   -5.1652   -1.9478    0.7498 C   0  0  0  0  0  0  0  0  0  0  0  0
   -5.8655   -2.7815    0.9237 H   0  0  0  0  0  0  0  0  0  0  0  0
   -3.8010   -2.2054    0.5572 C   0  0  0  0  0  0  0  0  0  0  0  0
   -3.4384   -3.2459    0.5835 H   0  0  0  0  0  0  0  0  0  0  0  0
   -2.1462    1.4935   -0.0590 P   0  0  0  0  0  0  0  0  0  0  0  0
   -2.5092    2.0179   -1.8369 C   0  0  0  0  0  0  0  0  0  0  0  0
   -1.8067    2.8679   -1.9935 H   0  0  0  0  0  0  0  0  0  0  0  0
   -2.1070    0.8756   -2.7789 C   0  0  0  0  0  0  0  0  0  0  0  0
   -2.7314   -0.0251   -2.6099 H   0  0  0  0  0  0  0  0  0  0  0  0
   -1.0568    0.5581   -2.6182 H   0  0  0  0  0  0  0  0  0  0  0  0
   -2.2290    1.1863   -3.8384 H   0  0  0  0  0  0  0  0  0  0  0  0
   -3.9397    2.4946   -2.0958 C   0  0  0  0  0  0  0  0  0  0  0  0
   -4.0469    2.8356   -3.1486 H   0  0  0  0  0  0  0  0  0  0  0  0
   -4.2353    3.3400   -1.4405 H   0  0  0  0  0  0  0  0  0  0  0  0
   -4.6640    1.6699   -1.9381 H   0  0  0  0  0  0  0  0  0  0  0  0
   -2.7339    2.9381    1.0040 C   0  0  0  0  0  0  0  0  0  0  0  0
   -3.8154    3.1133    0.8069 H   0  0  0  0  0  0  0  0  0  0  0  0
   -2.5485    2.5416    2.4737 C   0  0  0  0  0  0  0  0  0  0  0  0
   -1.4800    2.3269    2.6875 H   0  0  0  0  0  0  0  0  0  0  0  0
   -3.1253    1.6299    2.7260 H   0  0  0  0  0  0  0  0  0  0  0  0
   -2.8772    3.3611    3.1484 H   0  0  0  0  0  0  0  0  0  0  0  0
   -1.9495    4.2061    0.6571 C   0  0  0  0  0  0  0  0  0  0  0  0
   -2.2271    5.0391    1.3380 H   0  0  0  0  0  0  0  0  0  0  0  0
   -2.1335    4.5466   -0.3821 H   0  0  0  0  0  0  0  0  0  0  0  0
   -0.8583    4.0284    0.7641 H   0  0  0  0  0  0  0  0  0  0  0  0
    2.8541   -1.1713   -0.3356 C   0  0  0  0  0  0  0  0  0  0  0  0
    3.3664    0.1561   -0.2938 C   0  0  0  0  0  0  0  0  0  0  0  0
    4.7399    0.4223   -0.4981 C   0  0  0  0  0  0  0  0  0  0  0  0
    5.1151    1.4582   -0.4838 H   0  0  0  0  0  0  0  0  0  0  0  0
    5.6412   -0.6255   -0.7303 C   0  0  0  0  0  0  0  0  0  0  0  0
    6.7096   -0.4114   -0.8931 H   0  0  0  0  0  0  0  0  0  0  0  0
    5.1649   -1.9485   -0.7495 C   0  0  0  0  0  0  0  0  0  0  0  0
    5.8652   -2.7824   -0.9234 H   0  0  0  0  0  0  0  0  0  0  0  0
    3.8007   -2.2059   -0.5573 C   0  0  0  0  0  0  0  0  0  0  0  0
    3.4379   -3.2463   -0.5839 H   0  0  0  0  0  0  0  0  0  0  0  0
    2.1463    1.4932    0.0587 P   0  0  0  0  0  0  0  0  0  0  0  0
    2.5079    2.0166    1.8373 C   0  0  0  0  0  0  0  0  0  0  0  0
    1.8056    2.8668    1.9938 H   0  0  0  0  0  0  0  0  0  0  0  0
    2.1045    0.8741    2.7786 C   0  0  0  0  0  0  0  0  0  0  0  0
    2.7286   -0.0268    2.6097 H   0  0  0  0  0  0  0  0  0  0  0  0
    1.0543    0.5571    2.6171 H   0  0  0  0  0  0  0  0  0  0  0  0
    2.2260    1.1843    3.8383 H   0  0  0  0  0  0  0  0  0  0  0  0
    3.9384    2.4927    2.0976 C   0  0  0  0  0  0  0  0  0  0  0  0
    4.0449    2.8327    3.1508 H   0  0  0  0  0  0  0  0  0  0  0  0
    4.2347    3.3385    1.4433 H   0  0  0  0  0  0  0  0  0  0  0  0
    4.6624    1.6678    1.9398 H   0  0  0  0  0  0  0  0  0  0  0  0
    2.7360    2.9385   -1.0024 C   0  0  0  0  0  0  0  0  0  0  0  0
    3.8173    3.1132   -0.8037 H   0  0  0  0  0  0  0  0  0  0  0  0
    1.9516    4.2065   -0.6559 C   0  0  0  0  0  0  0  0  0  0  0  0
    0.8604    4.0292   -0.7647 H   0  0  0  0  0  0  0  0  0  0  0  0
    2.2305    5.0399   -1.3357 H   0  0  0  0  0  0  0  0  0  0  0  0
    2.1340    4.5462    0.3839 H   0  0  0  0  0  0  0  0  0  0  0  0
    2.5527    2.5430   -2.4728 C   0  0  0  0  0  0  0  0  0  0  0  0
    1.4845    2.3286   -2.6881 H   0  0  0  0  0  0  0  0  0  0  0  0
    3.1298    1.6316   -2.7249 H   0  0  0  0  0  0  0  0  0  0  0  0
    2.8823    3.3630   -3.1464 H   0  0  0  0  0  0  0  0  0  0  0  0
  1 23  1  0  0  0  0
  1 22  1  0  0  0  0
  2  1  1  0  0  0  0
  3  4  1  0  0  0  0
  3  2  2  0  0  0  0
  5  3  1  0  0  0  0
  6  5  1  0  0  0  0
  7  5  2  0  0  0  0
  7  9  1  0  0  0  0
  8  7  1  0  0  0  0
  9 11  2  0  0  0  0
 10  9  1  0  0  0  0
 11  2  1  0  0  0  0
 11 12  1  0  0  0  0
 12 13  1  0  0  0  0
 13 22  2  0  0  0  0
 13 14  1  0  0  0  0
 14 16  2  0  0  0  0
 15 14  1  0  0  0  0
 16 18  1  0  0  0  0
 16 17  1  0  0  0  0
 18 19  1  0  0  0  0
 20 21  1  0  0  0  0
 20 18  2  0  0  0  0
 22 20  1  0  0  0  0
 23 31  1  0  0  0  0
 24 23  2  0  0  0  0
 24 25  1  0  0  0  0
 25 27  2  0  0  0  0
 26 25  1  0  0  0  0
 27 29  1  0  0  0  0
 27 28  1  0  0  0  0
 29 30  1  0  0  0  0
 31 32  1  0  0  0  0
 31 29  2  0  0  0  0
 33 24  1  0  0  0  0
 33 44  1  0  0  0  0
 34 33  1  0  0  0  0
 35 34  1  0  0  0  0
 36 38  1  0  0  0  0
 36 37  1  0  0  0  0
 36 34  1  0  0  0  0
 39 36  1  0  0  0  0
 40 43  1  0  0  0  0
 40 34  1  0  0  0  0
 40 42  1  0  0  0  0
 41 40  1  0  0  0  0
 44 46  1  0  0  0  0
 45 44  1  0  0  0  0
 46 47  1  0  0  0  0
 46 48  1  0  0  0  0
 46 49  1  0  0  0  0
 50 53  1  0  0  0  0
 50 44  1  0  0  0  0
 50 51  1  0  0  0  0
 52 50  1  0  0  0  0
 54 55  1  0  0  0  0
 54 12  1  0  0  0  0
 55 64  1  0  0  0  0
 56 57  1  0  0  0  0
 56 55  2  0  0  0  0
 58 56  1  0  0  0  0
 59 58  1  0  0  0  0
 60 58  2  0  0  0  0
 60 62  1  0  0  0  0
 61 60  1  0  0  0  0
 62 54  2  0  0  0  0
 63 62  1  0  0  0  0
 64 65  1  0  0  0  0
 65 66  1  0  0  0  0
 65 71  1  0  0  0  0
 65 67  1  0  0  0  0
 67 70  1  0  0  0  0
 68 67  1  0  0  0  0
 69 67  1  0  0  0  0
 71 72  1  0  0  0  0
 73 71  1  0  0  0  0
 74 71  1  0  0  0  0
 75 76  1  0  0  0  0
 75 77  1  0  0  0  0
 75 64  1  0  0  0  0
 77 80  1  0  0  0  0
 78 77  1  0  0  0  0
 79 77  1  0  0  0  0
 81 75  1  0  0  0  0
 82 81  1  0  0  0  0
 83 81  1  0  0  0  0
 84 81  1  0  0  0  0
M  END
