1,2
q = -1.0

 22 21  0  0  0  0  0  0  0  0999 V2000
   -2.1032    0.9377   -0.8136 S   0  0  0  0  0  1  0  0  0  0  0  0
   -0.3473    3.3006   -0.2667 N   0  0  0  0  0  0  0  0  0  0  0  0
   -2.6361    2.6967   -1.0291 C   0  0  0  0  0  0  0  0  0  0  0  0
   -1.8016    3.6192   -0.1625 C   0  0  0  0  0  0  0  0  0  0  0  0
    0.1298    3.3398   -1.6949 C   0  0  0  0  0  0  0  0  0  0  0  0
   -0.1193    4.6354   -2.4648 C   0  0  0  0  0  0  0  0  0  0  0  0
    0.4733    4.2578    0.5457 C   0  0  0  0  0  0  0  0  0  0  0  0
    0.1164    4.3725    2.0200 C   0  0  0  0  0  0  0  0  0  0  0  0
   -3.7017    2.7703   -0.7335 H   0  0  0  0  0  0  0  0  0  0  0  0
   -2.5739    2.9626   -2.1049 H   0  0  0  0  0  0  0  0  0  0  0  0
   -2.0858    3.4882    0.8982 H   0  0  0  0  0  0  0  0  0  0  0  0
   -1.9740    4.6881   -0.4296 H   0  0  0  0  0  0  0  0  0  0  0  0
   -0.3451    2.4834   -2.2128 H   0  0  0  0  0  0  0  0  0  0  0  0
    1.2109    3.1059   -1.6554 H   0  0  0  0  0  0  0  0  0  0  0  0
    0.2899    4.5138   -3.4873 H   0  0  0  0  0  0  0  0  0  0  0  0
   -1.1957    4.8751   -2.5732 H   0  0  0  0  0  0  0  0  0  0  0  0
    0.3870    5.5130   -2.0168 H   0  0  0  0  0  0  0  0  0  0  0  0
    1.5244    3.9237    0.4359 H   0  0  0  0  0  0  0  0  0  0  0  0
    0.3940    5.2604    0.0698 H   0  0  0  0  0  0  0  0  0  0  0  0
    0.8657    5.0259    2.5087 H   0  0  0  0  0  0  0  0  0  0  0  0
   -0.8771    4.8335    2.1869 H   0  0  0  0  0  0  0  0  0  0  0  0
    0.1357    3.3876    2.5240 H   0  0  0  0  0  0  0  0  0  0  0  0
  2  4  1  0  0  0  0
  2  7  1  0  0  0  0
  3  1  1  0  0  0  0
  3  9  1  0  0  0  0
  3  4  1  0  0  0  0
  4 11  1  0  0  0  0
  5 14  1  0  0  0  0
  5  2  1  0  0  0  0
  6 17  1  0  0  0  0
  6  5  1  0  0  0  0
  7  8  1  0  0  0  0
  8 21  1  0  0  0  0
  8 20  1  0  0  0  0
  8 22  1  0  0  0  0
 10  3  1  0  0  0  0
 12  4  1  0  0  0  0
 13  5  1  0  0  0  0
 15  6  1  0  0  0  0
 16  6  1  0  0  0  0
 18  7  1  0  0  0  0
 19  7  1  0  0  0  0
M  END
