1,9
q = -1.0

 42 42  0  0  1  0  0  0  0  0999 V2000
    0.2878    2.1447   -0.4503 S   0  0  0  0  0  1  0  0  0  0  0  0
   -1.3033    2.5977    0.0940 C   0  0  1  0  0  3  0  0  0  0  0  0
   -1.5827    4.3249    0.2715 S   0  0  0  0  0  0  0  0  0  0  0  0
   -3.3609    4.3706    0.6474 C   0  0  0  0  0  0  0  0  0  0  0  0
   -3.6096    5.4353    0.8186 H   0  0  0  0  0  0  0  0  0  0  0  0
   -3.9504    3.9776   -0.2030 H   0  0  0  0  0  0  0  0  0  0  0  0
   -3.5782    3.7784    1.5563 H   0  0  0  0  0  0  0  0  0  0  0  0
   -2.2626    1.7373    0.3264 N   0  0  0  0  0  2  0  0  0  0  0  0
   -1.8763    0.4339    0.1059 N   0  0  0  0  0  2  0  0  0  0  0  0
   -2.8429   -0.4559   -0.0624 C   0  0  0  0  0  3  0  0  0  0  0  0
   -2.4697   -1.4728   -0.2613 H   0  0  0  0  0  0  0  0  0  0  0  0
   -4.2819   -0.3275   -0.0388 C   0  0  0  0  0  0  0  0  0  0  0  0
   -5.0367    0.8517    0.2110 C   0  0  0  0  0  0  0  0  0  0  0  0
   -4.4893    1.7799    0.4049 H   0  0  0  0  0  0  0  0  0  0  0  0
   -6.4277    0.8398    0.2089 C   0  0  0  0  0  0  0  0  0  0  0  0
   -6.9520    1.7867    0.3931 H   0  0  0  0  0  0  0  0  0  0  0  0
   -7.1706   -0.3531   -0.0413 C   0  0  0  0  0  0  0  0  0  0  0  0
   -8.5509   -0.3608   -0.0443 N   0  0  0  0  0  0  0  0  0  0  0  0
   -9.3226    0.8260    0.2971 C   0  0  0  0  0  0  0  0  0  0  0  0
  -10.2886    0.4905    0.7323 H   0  0  0  0  0  0  0  0  0  0  0  0
   -8.8103    1.3805    1.1116 H   0  0  0  0  0  0  0  0  0  0  0  0
   -9.5927    1.7625   -0.8900 C   0  0  0  0  0  0  0  0  0  0  0  0
   -8.6212    2.0700   -1.3320 H   0  0  0  0  0  0  0  0  0  0  0  0
  -10.1195    1.1895   -1.6838 H   0  0  0  0  0  0  0  0  0  0  0  0
  -10.4097    2.9909   -0.4925 C   0  0  0  0  0  0  0  0  0  0  0  0
  -10.5998    3.6520   -1.3609 H   0  0  0  0  0  0  0  0  0  0  0  0
  -11.3953    2.7043   -0.0689 H   0  0  0  0  0  0  0  0  0  0  0  0
   -9.8843    3.5947    0.2768 H   0  0  0  0  0  0  0  0  0  0  0  0
   -9.3079   -1.5559   -0.3896 C   0  0  0  0  0  0  0  0  0  0  0  0
  -10.2741   -1.2310   -0.8326 H   0  0  0  0  0  0  0  0  0  0  0  0
   -8.7840   -2.1061   -1.1997 H   0  0  0  0  0  0  0  0  0  0  0  0
   -9.5774   -2.4937    0.7966 C   0  0  0  0  0  0  0  0  0  0  0  0
   -8.6063   -2.7918    1.2460 H   0  0  0  0  0  0  0  0  0  0  0  0
  -10.1150   -1.9247    1.5860 H   0  0  0  0  0  0  0  0  0  0  0  0
  -10.3803   -3.7300    0.3949 C   0  0  0  0  0  0  0  0  0  0  0  0
  -10.5702   -4.3918    1.2628 H   0  0  0  0  0  0  0  0  0  0  0  0
  -11.3655   -3.4529   -0.0357 H   0  0  0  0  0  0  0  0  0  0  0  0
   -9.8440   -4.3299   -0.3699 H   0  0  0  0  0  0  0  0  0  0  0  0
   -6.4149   -1.5389   -0.2877 C   0  0  0  0  0  0  0  0  0  0  0  0
   -6.9228   -2.4949   -0.4680 H   0  0  0  0  0  0  0  0  0  0  0  0
   -5.0258   -1.5156   -0.2850 C   0  0  0  0  0  0  0  0  0  0  0  0
   -4.4799   -2.4541   -0.4716 H   0  0  0  0  0  0  0  0  0  0  0  0
  2  1  1  6  0  0  0
  2  3  1  0  0  0  0
  2  8  1  0  0  0  0
  3  4  1  0  0  0  0
  4  5  1  0  0  0  0
  4  7  1  0  0  0  0
  6  4  1  0  0  0  0
  9  8  1  0  0  0  0
 10 12  1  0  0  0  0
 10  9  1  0  0  0  0
 11 10  1  0  0  0  0
 12 13  1  0  0  0  0
 13 14  1  0  0  0  0
 15 13  2  0  0  0  0
 15 16  1  0  0  0  0
 17 15  1  0  0  0  0
 18 17  1  0  0  0  0
 18 19  1  0  0  0  0
 19 20  1  0  0  0  0
 19 21  1  0  0  0  0
 22 25  1  0  0  0  0
 22 19  1  0  0  0  0
 23 22  1  0  0  0  0
 24 22  1  0  0  0  0
 25 27  1  0  0  0  0
 25 28  1  0  0  0  0
 26 25  1  0  0  0  0
 29 18  1  0  0  0  0
 29 32  1  0  0  0  0
 30 29  1  0  0  0  0
 31 29  1  0  0  0  0
 32 33  1  0  0  0  0
 32 34  1  0  0  0  0
 35 32  1  0  0  0  0
 35 36  1  0  0  0  0
 37 35  1  0  0  0  0
 38 35  1  0  0  0  0
 39 41  1  0  0  0  0
 39 17  2  0  0  0  0
 40 39  1  0  0  0  0
 41 12  2  0  0  0  0
 42 41  1  0  0  0  0
M  END
