1,6
q = -1.0

 11 11  0  0  1  0  0  0  0  0999 V2000
    1.1716    2.0046   -0.0274 N   0  0  0  0  0  2  0  0  0  0  0  0
    1.7155    3.5395   -1.7220 N   0  0  0  0  0  0  0  0  0  0  0  0
    1.6374    3.8420   -2.6961 H   0  0  0  0  0  0  0  0  0  0  0  0
    2.5441    3.8553    0.4037 N   0  0  0  0  0  0  0  0  0  0  0  0
    3.1013    4.3950    1.0718 H   0  0  0  0  0  0  0  0  0  0  0  0
    0.1424    1.4689   -2.4072 S   0  0  0  0  0  1  0  0  0  0  0  0
    3.2902    5.6846   -1.4137 S   0  0  0  0  0  0  0  0  0  0  0  0
    1.9917    2.2972    2.4997 S   0  0  0  0  0  0  0  0  0  0  0  0
    1.0608    2.3872   -1.3202 C   0  0  1  0  0  3  0  0  0  0  0  0
    2.5004    4.3264   -0.8920 C   0  0  0  0  0  0  0  0  0  0  0  0
    1.8861    2.7193    0.8879 C   0  0  0  0  0  0  0  0  0  0  0  0
  1 11  1  0  0  0  0
  2  9  1  0  0  0  0
  2 10  1  0  0  0  0
  3  2  1  0  0  0  0
  4 11  1  0  0  0  0
  4  5  1  0  0  0  0
  7 10  2  0  0  0  0
  9  6  1  6  0  0  0
  9  1  1  0  0  0  0
 10  4  1  0  0  0  0
 11  8  2  0  0  0  0
M  END
