1,2
q = -1.0, confidence = 0.01

 19 19  0  0  0  0  0  0  0  0999 V2000
    1.4600   -1.5250    1.9002 S   0  0  0  0  0  1  0  0  0  0  0  0
   -0.7059   -1.4506   -0.4059 N   0  0  0  0  0  2  0  0  0  0  0  0
    0.9265   -2.8842    0.7660 C   0  0  0  0  0  0  0  0  0  0  0  0
    1.7918   -3.5566    0.5946 H   0  0  0  0  0  0  0  0  0  0  0  0
    0.1366   -3.4787    1.2710 H   0  0  0  0  0  0  0  0  0  0  0  0
    0.4052   -2.3810   -0.5830 C   0  0  0  0  0  0  0  0  0  0  0  0
    1.2294   -1.8504   -1.1122 H   0  0  0  0  0  0  0  0  0  0  0  0
    0.1010   -3.2436   -1.2212 H   0  0  0  0  0  0  0  0  0  0  0  0
   -1.8049   -1.6766   -1.0686 C   0  0  0  0  0  3  0  0  0  0  0  0
   -1.8339   -2.5491   -1.7581 H   0  0  0  0  0  0  0  0  0  0  0  0
   -3.0324   -0.9421   -1.0423 C   0  0  0  0  0  0  0  0  0  0  0  0
   -4.1757   -1.1990   -1.8373 C   0  0  0  0  0  0  0  0  0  0  0  0
   -4.2566   -1.9969   -2.5852 H   0  0  0  0  0  0  0  0  0  0  0  0
   -5.1571   -0.2476   -1.4897 C   0  0  0  0  0  0  0  0  0  0  0  0
   -6.1652   -0.1498   -1.9070 H   0  0  0  0  0  0  0  0  0  0  0  0
   -4.5947    0.5618   -0.4883 C   0  0  0  0  0  0  0  0  0  0  0  0
   -5.0215    1.4054    0.0671 H   0  0  0  0  0  0  0  0  0  0  0  0
   -3.3288    0.1410   -0.2337 N   0  0  0  0  0  0  0  0  0  0  0  0
   -2.6977    0.5693    0.5083 H   0  0  0  0  0  0  0  0  0  0  0  0
  3  5  1  0  0  0  0
  3  1  1  0  0  0  0
  4  3  1  0  0  0  0
  6  2  1  0  0  0  0
  6  3  1  0  0  0  0
  7  6  1  0  0  0  0
  8  6  1  0  0  0  0
  9 11  1  0  0  0  0
  9  2  1  0  0  0  0
 10  9  1  0  0  0  0
 11 18  1  0  0  0  0
 12 14  1  0  0  0  0
 12 11  2  0  0  0  0
 13 12  1  0  0  0  0
 14 16  2  0  0  0  0
 15 14  1  0  0  0  0
 16 18  1  0  0  0  0
 16 17  1  0  0  0  0
 18 19  1  0  0  0  0
M  END
