2,3
q = -1.0, confidence = 0.0

 25 26  0  0  1  0  0  0  0  0999 V2000
    0.8719    3.0623   -1.4183 S   0  0  0  0  0  0  0  0  0  0  0  0
   -1.9444   -1.0891   -1.6371 S   0  0  0  0  0  1  0  0  0  0  0  0
    0.8356    0.4646   -1.1102 N   0  0  0  0  0  2  0  0  0  0  0  0
   -1.3150    1.6087   -1.3659 N   0  0  0  0  0  0  0  0  0  0  0  0
   -3.5128    1.0757   -1.7153 N   0  0  0  0  0  0  0  0  0  0  0  0
    2.4035    2.2237   -1.3580 C   0  0  0  0  0  0  0  0  0  0  0  0
    2.1846    0.8249   -1.2151 C   0  0  0  0  0  0  0  0  0  0  0  0
    3.2923   -0.0451   -1.2319 C   0  0  0  0  0  0  0  0  0  0  0  0
    3.1352   -1.1285   -1.1638 H   0  0  0  0  0  0  0  0  0  0  0  0
    4.5802    0.4940   -1.3467 C   0  0  0  0  0  0  0  0  0  0  0  0
    5.4440   -0.1872   -1.3723 H   0  0  0  0  0  0  0  0  0  0  0  0
    4.7863    1.8848   -1.4471 C   0  0  0  0  0  0  0  0  0  0  0  0
    5.8069    2.2853   -1.5382 H   0  0  0  0  0  0  0  0  0  0  0  0
    3.6935    2.7631   -1.4618 C   0  0  0  0  0  0  0  0  0  0  0  0
    3.8399    3.8479   -1.5669 H   0  0  0  0  0  0  0  0  0  0  0  0
    0.0016    1.5154   -1.2920 C   0  0  1  0  0  3  0  0  0  0  0  0
   -2.2217    0.6592   -1.5693 C   0  0  0  0  0  0  0  0  0  0  0  0
   -3.8601    2.4886   -1.6482 C   0  0  0  0  0  0  0  0  0  0  0  0
   -4.4354    2.6889   -0.7184 H   0  0  0  0  0  0  0  0  0  0  0  0
   -4.4868    2.7640   -2.5219 H   0  0  0  0  0  0  0  0  0  0  0  0
   -2.9343    3.0867   -1.6374 H   0  0  0  0  0  0  0  0  0  0  0  0
   -4.6353    0.1766   -1.9150 C   0  0  0  0  0  0  0  0  0  0  0  0
   -4.9945    0.2204   -2.9667 H   0  0  0  0  0  0  0  0  0  0  0  0
   -5.4656    0.4760   -1.2440 H   0  0  0  0  0  0  0  0  0  0  0  0
   -4.3412   -0.8613   -1.6797 H   0  0  0  0  0  0  0  0  0  0  0  0
  1  6  1  0  0  0  0
  1 16  1  0  0  0  0
  2 17  1  0  0  0  0
  5 18  1  0  0  0  0
  5 17  1  0  0  0  0
  6  7  1  0  0  0  0
  7  3  1  0  0  0  0
  8  7  2  0  0  0  0
  8  9  1  0  0  0  0
 10  8  1  0  0  0  0
 11 10  1  0  0  0  0
 12 10  2  0  0  0  0
 13 12  1  0  0  0  0
 14 12  1  0  0  0  0
 14  6  2  0  0  0  0
 15 14  1  0  0  0  0
 16  4  1  1  0  0  0
 16  3  1  0  0  0  0
 17  4  2  0  0  0  0
 18 21  1  0  0  0  0
 18 19  1  0  0  0  0
 20 18  1  0  0  0  0
 22  5  1  0  0  0  0
 22 25  1  0  0  0  0
 22 24  1  0  0  0  0
 23 22  1  0  0  0  0
M  END
