1,3
q = -1.0

 39 41  0  0  0  0  0  0  0  0999 V2000
    0.0456   -0.9908   -2.0684 S   0  0  0  0  0  1  0  0  0  0  0  0
   -2.5531   -0.5868   -0.6885 P   0  0  0  0  0  4  0  0  0  0  0  0
   -1.8675    0.8696   -0.3843 N   0  0  0  0  0  2  0  0  0  0  0  0
   -1.7724   -1.1330   -2.2408 C   0  0  0  0  0  0  0  0  0  0  0  0
   -2.1865   -0.4843   -3.0425 H   0  0  0  0  0  0  0  0  0  0  0  0
   -2.0554   -2.1841   -2.4565 H   0  0  0  0  0  0  0  0  0  0  0  0
   -2.2378   -1.8554    0.5839 C   0  0  0  0  0  0  0  0  0  0  0  0
   -2.5008   -3.2207    0.3481 C   0  0  0  0  0  0  0  0  0  0  0  0
   -2.9208   -3.5517   -0.6149 H   0  0  0  0  0  0  0  0  0  0  0  0
   -2.2164   -4.1666    1.3435 C   0  0  0  0  0  0  0  0  0  0  0  0
   -2.4167   -5.2329    1.1590 H   0  0  0  0  0  0  0  0  0  0  0  0
   -1.6689   -3.7521    2.5698 C   0  0  0  0  0  0  0  0  0  0  0  0
   -1.4427   -4.4974    3.3479 H   0  0  0  0  0  0  0  0  0  0  0  0
   -1.3982   -2.3939    2.7989 C   0  0  0  0  0  0  0  0  0  0  0  0
   -0.9440   -2.0686    3.7463 H   0  0  0  0  0  0  0  0  0  0  0  0
   -1.6778   -1.4396    1.8091 C   0  0  0  0  0  0  0  0  0  0  0  0
   -1.4167   -0.3803    1.9721 H   0  0  0  0  0  0  0  0  0  0  0  0
   -4.3528   -0.4494   -0.9517 C   0  0  0  0  0  0  0  0  0  0  0  0
   -4.8001    0.5949   -1.7904 C   0  0  0  0  0  0  0  0  0  0  0  0
   -4.0728    1.2972   -2.2259 H   0  0  0  0  0  0  0  0  0  0  0  0
   -6.1693    0.7521   -2.0389 C   0  0  0  0  0  0  0  0  0  0  0  0
   -6.5155    1.5717   -2.6863 H   0  0  0  0  0  0  0  0  0  0  0  0
   -7.0974   -0.1252   -1.4534 C   0  0  0  0  0  0  0  0  0  0  0  0
   -8.1731    0.0031   -1.6475 H   0  0  0  0  0  0  0  0  0  0  0  0
   -6.6549   -1.1590   -0.6135 C   0  0  0  0  0  0  0  0  0  0  0  0
   -7.3815   -1.8406   -0.1462 H   0  0  0  0  0  0  0  0  0  0  0  0
   -5.2849   -1.3226   -0.3579 C   0  0  0  0  0  0  0  0  0  0  0  0
   -4.9412   -2.1221    0.3150 H   0  0  0  0  0  0  0  0  0  0  0  0
   -2.5027    1.9310    0.2890 C   0  0  0  0  0  0  0  0  0  0  0  0
   -3.5167    1.7500    1.2574 C   0  0  0  0  0  0  0  0  0  0  0  0
   -3.8119    0.7325    1.5542 H   0  0  0  0  0  0  0  0  0  0  0  0
   -4.1430    2.8549    1.8527 C   0  0  0  0  0  0  0  0  0  0  0  0
   -4.9344    2.6884    2.5999 H   0  0  0  0  0  0  0  0  0  0  0  0
   -3.7541    4.1598    1.5171 C   0  0  0  0  0  0  0  0  0  0  0  0
   -4.2396    5.0251    1.9928 H   0  0  0  0  0  0  0  0  0  0  0  0
   -2.7266    4.3485    0.5752 C   0  0  0  0  0  0  0  0  0  0  0  0
   -2.4024    5.3670    0.3109 H   0  0  0  0  0  0  0  0  0  0  0  0
   -2.1104    3.2518   -0.0346 C   0  0  0  0  0  0  0  0  0  0  0  0
   -1.3028    3.3859   -0.7690 H   0  0  0  0  0  0  0  0  0  0  0  0
  2  3  1  0  0  0  0
  2  7  1  0  0  0  0
  3 29  1  0  0  0  0
  4  1  1  0  0  0  0
  4  2  1  0  0  0  0
  5  4  1  0  0  0  0
  6  4  1  0  0  0  0
  7 16  1  0  0  0  0
  8  7  2  0  0  0  0
  8 10  1  0  0  0  0
  9  8  1  0  0  0  0
 10 12  2  0  0  0  0
 11 10  1  0  0  0  0
 12 14  1  0  0  0  0
 12 13  1  0  0  0  0
 14 15  1  0  0  0  0
 16 17  1  0  0  0  0
 16 14  2  0  0  0  0
 18  2  1  0  0  0  0
 18 27  1  0  0  0  0
 19 18  2  0  0  0  0
 20 19  1  0  0  0  0
 21 19  1  0  0  0  0
 21 23  2  0  0  0  0
 22 21  1  0  0  0  0
 23 25  1  0  0  0  0
 24 23  1  0  0  0  0
 25 27  2  0  0  0  0
 25 26  1  0  0  0  0
 27 28  1  0  0  0  0
 29 30  1  0  0  0  0
 30 31  1  0  0  0  0
 30 32  2  0  0  0  0
 32 33  1  0  0  0  0
 34 32  1  0  0  0  0
 34 35  1  0  0  0  0
 36 34  2  0  0  0  0
 37 36  1  0  0  0  0
 38 29  2  0  0  0  0
 38 36  1  0  0  0  0
 39 38  1  0  0  0  0
M  END
