2,7
q = -1.0

 19 19  0  0  1  0  0  0  0  0999 V2000
   -4.2415   -1.1075    0.0852 O   0  0  0  0  0  0  0  0  0  0  0  0
    0.2263   -2.3309    0.0359 S   0  0  0  0  0  1  0  0  0  0  0  0
   -2.4085   -2.9265    0.1086 N   0  0  0  0  0  0  0  0  0  0  0  0
   -3.4005   -2.5577    0.1273 H   0  0  0  0  0  0  0  0  0  0  0  0
   -2.1264   -3.9011    0.1981 H   0  0  0  0  0  0  0  0  0  0  0  0
   -1.9097   -0.6973   -0.0126 N   0  0  0  0  0  0  0  0  0  0  0  0
   -1.0538    0.3883   -0.0812 N   0  0  0  0  0  2  0  0  0  0  0  0
   -1.4698   -1.9799    0.0454 C   0  0  1  0  0  3  0  0  0  0  0  0
   -1.8701    1.4814   -0.0706 C   0  0  0  0  0  0  0  0  0  0  0  0
   -3.2330    1.1407   -0.0109 C   0  0  0  0  0  0  0  0  0  0  0  0
   -3.3057   -0.2804    0.0288 C   0  0  0  0  0  0  0  0  0  0  0  0
   -1.3060    2.8613   -0.1109 C   0  0  0  0  0  0  0  0  0  0  0  0
   -0.5940    3.0263    0.7221 H   0  0  0  0  0  0  0  0  0  0  0  0
   -2.1151    3.6097   -0.0332 H   0  0  0  0  0  0  0  0  0  0  0  0
   -0.7522    3.0460   -1.0529 H   0  0  0  0  0  0  0  0  0  0  0  0
   -4.4287    2.0400    0.0118 C   0  0  0  0  0  0  0  0  0  0  0  0
   -4.5173    2.6520   -0.9107 H   0  0  0  0  0  0  0  0  0  0  0  0
   -4.4146    2.7406    0.8731 H   0  0  0  0  0  0  0  0  0  0  0  0
   -5.3464    1.4260    0.0946 H   0  0  0  0  0  0  0  0  0  0  0  0
  3  4  1  0  0  0  0
  3  5  1  0  0  0  0
  6 11  1  0  0  0  0
  6  8  1  0  0  0  0
  7  9  1  0  0  0  0
  7  6  1  0  0  0  0
  8  2  1  1  0  0  0
  8  3  1  0  0  0  0
  9 10  2  0  0  0  0
 10 16  1  0  0  0  0
 10 11  1  0  0  0  0
 11  1  2  0  0  0  0
 12  9  1  0  0  0  0
 12 14  1  0  0  0  0
 12 13  1  0  0  0  0
 15 12  1  0  0  0  0
 16 19  1  0  0  0  0
 16 18  1  0  0  0  0
 17 16  1  0  0  0  0
M  END
