1,3
q = -1.0

 26 26  0  0  1  0  0  0  0  0999 V2000
    1.7150    1.1466   -1.2325 S   0  0  0  0  0  1  0  0  0  0  0  0
   -0.5614   -0.7304    2.1906 O   0  0  0  0  0  0  0  0  0  0  0  0
    1.1922   -1.2781    0.1088 N   0  0  0  0  0  2  0  0  0  0  0  0
    2.3215   -1.4317   -0.6288 N   0  0  0  0  0  2  0  0  0  0  0  0
    3.7370   -0.3693   -2.1165 N   0  0  0  0  0  0  0  0  0  0  0  0
    4.0017    0.5189   -2.5419 H   0  0  0  0  0  0  0  0  0  0  0  0
   -1.5830   -0.7922    3.0829 C   0  0  0  0  0  0  0  0  0  0  0  0
   -2.0618    0.1625    3.3212 H   0  0  0  0  0  0  0  0  0  0  0  0
   -1.7723   -2.0914    3.5051 C   0  0  0  0  0  0  0  0  0  0  0  0
   -2.5218   -2.4402    4.2240 H   0  0  0  0  0  0  0  0  0  0  0  0
   -0.8034   -2.8805    2.8136 C   0  0  0  0  0  0  0  0  0  0  0  0
   -0.6716   -3.9659    2.8714 H   0  0  0  0  0  0  0  0  0  0  0  0
   -0.0897   -2.0089    1.9958 C   0  0  0  0  0  0  0  0  0  0  0  0
    0.9885   -2.1904    1.0558 C   0  0  2  0  0  3  0  0  0  0  0  0
    2.6308   -0.3400   -1.3203 C   0  0  2  0  0  3  0  0  0  0  0  0
    4.6781   -1.4777   -2.1380 C   0  0  0  0  0  0  0  0  0  0  0  0
    5.2168   -1.4425   -3.1079 H   0  0  0  0  0  0  0  0  0  0  0  0
    4.0838   -2.4135   -2.1230 H   0  0  0  0  0  0  0  0  0  0  0  0
    5.6656   -1.4734   -0.9680 C   0  0  0  0  0  0  0  0  0  0  0  0
    6.2779   -0.5486   -0.9577 H   0  0  0  0  0  0  0  0  0  0  0  0
    6.3540   -2.3407   -1.0325 H   0  0  0  0  0  0  0  0  0  0  0  0
    5.1146   -1.5384   -0.0090 H   0  0  0  0  0  0  0  0  0  0  0  0
    1.9019   -3.3740    1.1781 C   0  0  0  0  0  0  0  0  0  0  0  0
    1.9877   -3.8976    0.2050 H   0  0  0  0  0  0  0  0  0  0  0  0
    1.5513   -4.0743    1.9574 H   0  0  0  0  0  0  0  0  0  0  0  0
    2.9292   -3.0405    1.4346 H   0  0  0  0  0  0  0  0  0  0  0  0
  2  7  1  0  0  0  0
  4  3  1  0  0  0  0
  5 15  1  0  0  0  0
  6  5  1  0  0  0  0
  7  8  1  0  0  0  0
  7  9  2  0  0  0  0
  9 10  1  0  0  0  0
 11 12  1  0  0  0  0
 11  9  1  0  0  0  0
 13  2  1  0  0  0  0
 13 11  2  0  0  0  0
 14  3  1  1  0  0  0
 14 23  1  0  0  0  0
 14 13  1  0  0  0  0
 15  1  1  1  0  0  0
 15  4  1  0  0  0  0
 16 18  1  0  0  0  0
 16  5  1  0  0  0  0
 16 19  1  0  0  0  0
 17 16  1  0  0  0  0
 19 20  1  0  0  0  0
 19 22  1  0  0  0  0
 21 19  1  0  0  0  0
 23 26  1  0  0  0  0
 23 25  1  0  0  0  0
 24 23  1  0  0  0  0
M  END
