1,3
q = -1.0, confidence = 0.0

 23 23  0  0  1  0  0  0  0  0999 V2000
   -2.0919    0.2926   -0.7060 S   0  0  0  0  0  1  0  0  0  0  0  0
   -0.0000    5.1036   -0.0313 S   0  0  0  0  0  0  0  0  0  0  0  0
    0.0919    1.8936    0.0834 N   0  0  0  0  0  2  0  0  0  0  0  0
   -0.7349    2.6415   -0.6943 N   0  0  0  0  0  2  0  0  0  0  0  0
   -2.7020    2.6100   -1.9036 N   0  0  0  0  0  0  0  0  0  0  0  0
   -3.5259    2.0743   -2.1714 H   0  0  0  0  0  0  0  0  0  0  0  0
    0.7280    6.4901    0.7082 C   0  0  0  0  0  0  0  0  0  0  0  0
    0.4286    7.4974    0.3905 H   0  0  0  0  0  0  0  0  0  0  0  0
    1.6581    6.1493    1.6776 C   0  0  0  0  0  0  0  0  0  0  0  0
    2.2285    6.8827    2.2642 H   0  0  0  0  0  0  0  0  0  0  0  0
    1.7858    4.7454    1.8253 C   0  0  0  0  0  0  0  0  0  0  0  0
    2.4712    4.2710    2.5388 H   0  0  0  0  0  0  0  0  0  0  0  0
    0.9535    4.0100    0.9671 C   0  0  0  0  0  0  0  0  0  0  0  0
    0.9025    2.5655    0.8980 C   0  0  1  0  0  3  0  0  0  0  0  0
   -1.7910    1.9690   -1.1276 C   0  0  2  0  0  3  0  0  0  0  0  0
   -2.6266    4.0223   -2.2099 C   0  0  0  0  0  0  0  0  0  0  0  0
   -2.8141    4.6553   -1.3143 H   0  0  0  0  0  0  0  0  0  0  0  0
   -3.3738    4.2665   -2.9879 H   0  0  0  0  0  0  0  0  0  0  0  0
   -1.6150    4.2804   -2.5842 H   0  0  0  0  0  0  0  0  0  0  0  0
    1.7734    1.7917    1.8479 C   0  0  0  0  0  0  0  0  0  0  0  0
    1.5186    2.0503    2.8965 H   0  0  0  0  0  0  0  0  0  0  0  0
    2.8480    2.0220    1.6981 H   0  0  0  0  0  0  0  0  0  0  0  0
    1.6276    0.7054    1.7045 H   0  0  0  0  0  0  0  0  0  0  0  0
  2  7  1  0  0  0  0
  2 13  1  0  0  0  0
  4  3  1  0  0  0  0
  5 15  1  0  0  0  0
  6  5  1  0  0  0  0
  7  9  2  0  0  0  0
  8  7  1  0  0  0  0
  9 11  1  0  0  0  0
  9 10  1  0  0  0  0
 11 12  1  0  0  0  0
 13 11  2  0  0  0  0
 14  3  1  1  0  0  0
 14 13  1  0  0  0  0
 14 20  1  0  0  0  0
 15  1  1  1  0  0  0
 15  4  1  0  0  0  0
 16  5  1  0  0  0  0
 16 17  1  0  0  0  0
 18 16  1  0  0  0  0
 19 16  1  0  0  0  0
 20 21  1  0  0  0  0
 22 20  1  0  0  0  0
 23 20  1  0  0  0  0
M  END
