1,2
q = -1.0

 10 10  0  0  1  0  0  0  0  0999 V2000
   -0.1547   -2.3715   -1.0262 S   0  0  0  0  0  1  0  0  0  0  0  0
    1.5440   -1.1355    0.3607 N   0  0  0  0  0  2  0  0  0  0  0  0
    1.9765   -3.4994    0.3362 N   0  0  0  0  0  0  0  0  0  0  0  0
    1.2544   -2.4291   -0.0211 C   0  0  2  0  0  3  0  0  0  0  0  0
    3.0486   -3.2571    1.1107 C   0  0  0  0  0  0  0  0  0  0  0  0
    3.6440   -4.1395    1.4125 H   0  0  0  0  0  0  0  0  0  0  0  0
    3.4323   -1.9696    1.5289 C   0  0  0  0  0  0  0  0  0  0  0  0
    4.3241   -1.8029    2.1490 H   0  0  0  0  0  0  0  0  0  0  0  0
    2.6282   -0.8974    1.1078 C   0  0  0  0  0  0  0  0  0  0  0  0
    2.8430    0.1544    1.3539 H   0  0  0  0  0  0  0  0  0  0  0  0
  2  9  1  0  0  0  0
  3  5  2  0  0  0  0
  4  1  1  6  0  0  0
  4  3  1  0  0  0  0
  4  2  1  0  0  0  0
  5  6  1  0  0  0  0
  5  7  1  0  0  0  0
  7  8  1  0  0  0  0
  9 10  1  0  0  0  0
  9  7  2  0  0  0  0
M  END
