1,2
q = -1.0

 18 18  0  0  1  0  0  0  0  0999 V2000
    2.0492    1.1061   -1.2741 S   0  0  0  0  0  1  0  0  0  0  0  0
    1.2421   -0.1249    0.8435 N   0  0  0  0  0  2  0  0  0  0  0  0
    5.0406   -1.2820   -1.9471 N   0  0  0  0  0  0  0  0  0  0  0  0
    2.2259   -0.1608   -0.1040 C   0  0  1  0  0  3  0  0  0  0  0  0
    3.2394   -1.1598   -0.0730 C   0  0  0  0  0  0  0  0  0  0  0  0
    3.2463   -2.0960    0.9912 C   0  0  0  0  0  0  0  0  0  0  0  0
    2.2391   -1.9831    1.9649 C   0  0  0  0  0  0  0  0  0  0  0  0
    2.2249   -2.6782    2.8159 H   0  0  0  0  0  0  0  0  0  0  0  0
    1.2397   -0.9959    1.8797 C   0  0  0  0  0  0  0  0  0  0  0  0
    4.2241   -1.2081   -1.1050 C   0  0  0  0  0  0  0  0  0  0  0  0
    4.3043   -3.1582    1.0670 C   0  0  0  0  0  0  0  0  0  0  0  0
    4.1648   -3.8105    1.9485 H   0  0  0  0  0  0  0  0  0  0  0  0
    5.3151   -2.7036    1.1178 H   0  0  0  0  0  0  0  0  0  0  0  0
    4.2973   -3.7876    0.1534 H   0  0  0  0  0  0  0  0  0  0  0  0
    0.1737   -0.8788    2.9251 C   0  0  0  0  0  0  0  0  0  0  0  0
    0.0689    0.1703    3.2630 H   0  0  0  0  0  0  0  0  0  0  0  0
    0.4017   -1.5243    3.7927 H   0  0  0  0  0  0  0  0  0  0  0  0
   -0.8180   -1.1639    2.5201 H   0  0  0  0  0  0  0  0  0  0  0  0
  2  9  1  0  0  0  0
  3 10  3  0  0  0  0
  4  1  1  6  0  0  0
  4  5  1  0  0  0  0
  4  2  1  0  0  0  0
  5  6  2  0  0  0  0
  6 11  1  0  0  0  0
  6  7  1  0  0  0  0
  7  8  1  0  0  0  0
  9  7  2  0  0  0  0
  9 15  1  0  0  0  0
 10  5  1  0  0  0  0
 11 13  1  0  0  0  0
 11 12  1  0  0  0  0
 14 11  1  0  0  0  0
 15 16  1  0  0  0  0
 15 17  1  0  0  0  0
 18 15  1  0  0  0  0
M  END
