3,16
q = -1.0

 26 27  0  0  1  0  0  0  0  0999 V2000
   -3.9141    1.5785    0.2925 O   0  0  0  0  0  0  0  0  0  0  0  0
   -2.9173    0.6507    0.3311 C   0  0  2  0  0  3  0  0  0  0  0  0
   -1.9415    0.8607   -0.5409 N   0  0  0  0  0  2  0  0  0  0  0  0
   -2.4421    1.9285   -1.5009 C   0  0  0  0  0  0  0  0  0  0  0  0
   -3.4964    2.6084   -0.6173 C   0  0  0  0  0  0  0  0  0  0  0  0
   -3.0662    3.4485   -0.0279 H   0  0  0  0  0  0  0  0  0  0  0  0
   -4.3834    2.9604   -1.1773 H   0  0  0  0  0  0  0  0  0  0  0  0
   -3.0798    1.1994   -2.6943 C   0  0  0  0  0  0  0  0  0  0  0  0
   -3.9101    0.5451   -2.3610 H   0  0  0  0  0  0  0  0  0  0  0  0
   -2.3191    0.5769   -3.2029 H   0  0  0  0  0  0  0  0  0  0  0  0
   -3.4808    1.9347   -3.4211 H   0  0  0  0  0  0  0  0  0  0  0  0
   -1.3724    2.9147   -1.9589 C   0  0  0  0  0  0  0  0  0  0  0  0
   -1.8555    3.7188   -2.5510 H   0  0  0  0  0  0  0  0  0  0  0  0
   -0.6230    2.4163   -2.6013 H   0  0  0  0  0  0  0  0  0  0  0  0
   -0.8475    3.3731   -1.0991 H   0  0  0  0  0  0  0  0  0  0  0  0
   -0.7488   -1.8585    0.5395 S   0  0  0  0  0  1  0  0  0  0  0  0
   -2.3364   -1.6360    1.3004 C   0  0  0  0  0  0  0  0  0  0  0  0
   -3.1618   -0.4735    1.2229 C   0  0  0  0  0  0  0  0  0  0  0  0
   -4.3669   -0.4442    1.9809 C   0  0  0  0  0  0  0  0  0  0  0  0
   -5.0008    0.4490    1.9105 H   0  0  0  0  0  0  0  0  0  0  0  0
   -4.7568   -1.5175    2.7790 C   0  0  0  0  0  0  0  0  0  0  0  0
   -5.6897   -1.4595    3.3589 H   0  0  0  0  0  0  0  0  0  0  0  0
   -3.9539   -2.6720    2.8286 C   0  0  0  0  0  0  0  0  0  0  0  0
   -4.2443   -3.5274    3.4574 H   0  0  0  0  0  0  0  0  0  0  0  0
   -2.7723   -2.7277    2.0855 C   0  0  0  0  0  0  0  0  0  0  0  0
   -2.1331   -3.6230    2.1233 H   0  0  0  0  0  0  0  0  0  0  0  0
  1  2  1  0  0  0  0
  2 18  1  6  0  0  0
  3  2  1  0  0  0  0
  4  5  1  0  0  0  0
  4  3  1  0  0  0  0
  5  6  1  0  0  0  0
  5  1  1  0  0  0  0
  7  5  1  0  0  0  0
  8  9  1  0  0  0  0
  8  4  1  0  0  0  0
 10  8  1  0  0  0  0
 11  8  1  0  0  0  0
 12  4  1  0  0  0  0
 12 15  1  0  0  0  0
 13 12  1  0  0  0  0
 14 12  1  0  0  0  0
 16 17  1  0  0  0  0
 17 25  1  0  0  0  0
 18 17  2  0  0  0  0
 18 19  1  0  0  0  0
 19 21  2  0  0  0  0
 20 19  1  0  0  0  0
 21 23  1  0  0  0  0
 21 22  1  0  0  0  0
 23 24  1  0  0  0  0
 25 26  1  0  0  0  0
 25 23  2  0  0  0  0
M  END
