1,4
q = -1.0, confidence = 0.0

 15 14  0  0  0  0  0  0  0  0999 V2000
    1.5649   -1.5335   -0.0954 S   0  0  0  0  0  1  0  0  0  0  0  0
    2.9403   -0.4419    0.0419 C   0  0  0  0  0  0  0  0  0  0  0  0
    2.8486    0.8564    0.1039 N   0  0  0  0  0  0  0  0  0  0  0  0
    1.4903    1.3477   -0.0182 N   0  0  0  0  0  0  0  0  0  0  0  0
    1.4162    2.0415   -1.3326 C   0  0  0  0  0  0  0  0  0  0  0  0
    1.5361    1.2856   -2.1298 H   0  0  0  0  0  0  0  0  0  0  0  0
    0.4307    2.5325   -1.4383 H   0  0  0  0  0  0  0  0  0  0  0  0
    2.2410    2.7824   -1.4002 H   0  0  0  0  0  0  0  0  0  0  0  0
    1.3399    2.3219    1.0931 C   0  0  0  0  0  0  0  0  0  0  0  0
    2.1895    3.0356    1.0605 H   0  0  0  0  0  0  0  0  0  0  0  0
    0.3762    2.8561    1.0054 H   0  0  0  0  0  0  0  0  0  0  0  0
    1.3659    1.7699    2.0495 H   0  0  0  0  0  0  0  0  0  0  0  0
    4.1860   -1.0209    0.0311 N   0  0  0  0  0  0  0  0  0  0  0  0
    4.2438   -1.9892    0.3432 H   0  0  0  0  0  0  0  0  0  0  0  0
    4.9622   -0.4118    0.2952 H   0  0  0  0  0  0  0  0  0  0  0  0
  1  2  1  0  0  0  0
  2  3  2  0  0  0  0
  4  3  1  0  0  0  0
  4  9  1  0  0  0  0
  5  4  1  0  0  0  0
  6  5  1  0  0  0  0
  7  5  1  0  0  0  0
  8  5  1  0  0  0  0
  9 12  1  0  0  0  0
 10  9  1  0  0  0  0
 11  9  1  0  0  0  0
 13  2  1  0  0  0  0
 13 15  1  0  0  0  0
 13 14  1  0  0  0  0
M  END
