1,2
q = 0.0, confidence = 1.0

 31 31  0  0  1  0  0  0  0  0999 V2000
    2.5165    1.3332    0.5211 S   0  0  0  0  0  0  0  0  0  0  0  0
   -0.4919    0.3856    0.0129 N   0  0  0  0  0  2  0  0  0  0  0  0
   -1.6298   -0.3228    0.1097 N   0  0  0  0  0  0  0  0  0  0  0  0
   -1.4778   -1.3601    0.1320 H   0  0  0  0  0  0  0  0  0  0  0  0
    3.3644    1.6933   -1.0522 C   0  0  0  0  0  0  0  0  0  0  0  0
    3.9844    2.6033   -0.9344 H   0  0  0  0  0  0  0  0  0  0  0  0
    2.6445    1.7999   -1.8850 H   0  0  0  0  0  0  0  0  0  0  0  0
    3.9957    0.7998   -1.2203 H   0  0  0  0  0  0  0  0  0  0  0  0
    1.3360    2.7399    0.6280 C   0  0  0  0  0  0  0  0  0  0  0  0
    0.9535    2.6900    1.6674 H   0  0  0  0  0  0  0  0  0  0  0  0
    1.9529    3.6576    0.5385 H   0  0  0  0  0  0  0  0  0  0  0  0
    0.1851    2.7513   -0.3810 C   0  0  0  0  0  0  0  0  0  0  0  0
   -0.3252    3.7337   -0.3156 H   0  0  0  0  0  0  0  0  0  0  0  0
    0.5923    2.6936   -1.4153 H   0  0  0  0  0  0  0  0  0  0  0  0
   -0.8394    1.6748   -0.1797 C   0  0  1  0  0  3  0  0  0  0  0  0
   -2.2530    1.7655   -0.2029 C   0  0  0  0  0  0  0  0  0  0  0  0
   -2.8493    2.6722   -0.3402 H   0  0  0  0  0  0  0  0  0  0  0  0
   -2.7314    0.4577   -0.0269 C   0  0  0  0  0  0  0  0  0  0  0  0
   -4.1284   -0.1263    0.0179 C   0  0  0  0  0  0  0  0  0  0  0  0
   -5.1598    0.9964   -0.1805 C   0  0  0  0  0  0  0  0  0  0  0  0
   -5.0251    1.5013   -1.1581 H   0  0  0  0  0  0  0  0  0  0  0  0
   -5.0844    1.7609    0.6187 H   0  0  0  0  0  0  0  0  0  0  0  0
   -6.1856    0.5782   -0.1535 H   0  0  0  0  0  0  0  0  0  0  0  0
   -4.3535   -0.8046    1.3885 C   0  0  0  0  0  0  0  0  0  0  0  0
   -3.6300   -1.6269    1.5595 H   0  0  0  0  0  0  0  0  0  0  0  0
   -5.3738   -1.2361    1.4387 H   0  0  0  0  0  0  0  0  0  0  0  0
   -4.2434   -0.0763    2.2166 H   0  0  0  0  0  0  0  0  0  0  0  0
   -4.2718   -1.1727   -1.1116 C   0  0  0  0  0  0  0  0  0  0  0  0
   -4.1153   -0.7086   -2.1058 H   0  0  0  0  0  0  0  0  0  0  0  0
   -5.2866   -1.6193   -1.0925 H   0  0  0  0  0  0  0  0  0  0  0  0
   -3.5381   -1.9972   -1.0041 H   0  0  0  0  0  0  0  0  0  0  0  0
  1  9  1  0  0  0  0
  2  3  1  0  0  0  0
  3  4  1  0  0  0  0
  5  6  1  0  0  0  0
  5  1  1  0  0  0  0
  7  5  1  0  0  0  0
  8  5  1  0  0  0  0
  9 10  1  0  0  0  0
 11  9  1  0  0  0  0
 12 13  1  0  0  0  0
 12  9  1  0  0  0  0
 14 12  1  0  0  0  0
 15 12  1  6  0  0  0
 15  2  1  0  0  0  0
 16 15  1  0  0  0  0
 16 18  2  0  0  0  0
 17 16  1  0  0  0  0
 18 19  1  0  0  0  0
 18  3  1  0  0  0  0
 19 24  1  0  0  0  0
 20 23  1  0  0  0  0
 20 19  1  0  0  0  0
 20 22  1  0  0  0  0
 21 20  1  0  0  0  0
 24 26  1  0  0  0  0
 24 25  1  0  0  0  0
 24 27  1  0  0  0  0
 28 30  1  0  0  0  0
 28 31  1  0  0  0  0
 28 19  1  0  0  0  0
 29 28  1  0  0  0  0
M  END
