1,3
q = -1.0

 31 33  0  0  0  0  0  0  0  0999 V2000
    1.3555   -1.5697   -0.6254 S   0  0  0  0  0  1  0  0  0  0  0  0
    4.3677    0.9492   -1.3009 O   0  0  0  0  0  0  0  0  0  0  0  0
    0.7761    1.4175   -1.1276 N   0  0  0  0  0  2  0  0  0  0  0  0
    3.0232    0.6229   -1.1632 C   0  0  0  0  0  0  0  0  0  0  0  0
    2.8443   -0.7175   -0.7845 C   0  0  0  0  0  0  0  0  0  0  0  0
    4.1847   -1.2549   -0.6765 C   0  0  0  0  0  0  0  0  0  0  0  0
    4.7183   -2.5070   -0.3108 C   0  0  0  0  0  0  0  0  0  0  0  0
    6.1096   -2.6472   -0.2699 C   0  0  0  0  0  0  0  0  0  0  0  0
    6.9642   -1.5621   -0.5847 C   0  0  0  0  0  0  0  0  0  0  0  0
    6.4553   -0.3062   -0.9482 C   0  0  0  0  0  0  0  0  0  0  0  0
    5.0630   -0.1826   -0.9882 C   0  0  0  0  0  0  0  0  0  0  0  0
    2.0248    1.5542   -1.5210 C   0  0  0  0  0  3  0  0  0  0  0  0
   -1.5276    1.5648   -2.0179 C   0  0  0  0  0  0  0  0  0  0  0  0
   -2.7729    2.1569   -1.7370 C   0  0  0  0  0  0  0  0  0  0  0  0
   -3.9707    1.4769   -2.0060 C   0  0  0  0  0  0  0  0  0  0  0  0
   -3.9339    0.1841   -2.5489 C   0  0  0  0  0  0  0  0  0  0  0  0
   -2.6962   -0.4096   -2.8451 C   0  0  0  0  0  0  0  0  0  0  0  0
    4.0454   -3.3391   -0.0562 H   0  0  0  0  0  0  0  0  0  0  0  0
    6.5521   -3.6132    0.0151 H   0  0  0  0  0  0  0  0  0  0  0  0
    8.0544   -1.7057   -0.5422 H   0  0  0  0  0  0  0  0  0  0  0  0
    7.1092    0.5427   -1.1918 H   0  0  0  0  0  0  0  0  0  0  0  0
   -0.4801    3.1077   -0.9625 H   0  0  0  0  0  0  0  0  0  0  0  0
    0.1603    2.8082   -2.6038 H   0  0  0  0  0  0  0  0  0  0  0  0
   -2.8042    3.1575   -1.2763 H   0  0  0  0  0  0  0  0  0  0  0  0
   -4.9345    1.9467   -1.7596 H   0  0  0  0  0  0  0  0  0  0  0  0
   -4.8693   -0.3671   -2.7274 H   0  0  0  0  0  0  0  0  0  0  0  0
   -2.6582   -1.4275   -3.2609 H   0  0  0  0  0  0  0  0  0  0  0  0
   -0.5360   -0.2076   -2.8048 H   0  0  0  0  0  0  0  0  0  0  0  0
    2.3059    2.4009   -2.1776 H   0  0  0  0  0  0  0  0  0  0  0  0
   -0.2423    2.3048   -1.6950 C   0  0  0  0  0  0  0  0  0  0  0  0
   -1.5003    0.2764   -2.5899 C   0  0  0  0  0  0  0  0  0  0  0  0
  2  4  1  0  0  0  0
  2 11  1  0  0  0  0
  4  5  2  0  0  0  0
  5  6  1  0  0  0  0
  5  1  1  0  0  0  0
  6  7  1  0  0  0  0
  7  8  2  0  0  0  0
  7 18  1  0  0  0  0
  8 19  1  0  0  0  0
  9 20  1  0  0  0  0
  9  8  1  0  0  0  0
 10  9  2  0  0  0  0
 11 10  1  0  0  0  0
 11  6  2  0  0  0  0
 12  4  1  0  0  0  0
 12  3  1  0  0  0  0
 13 14  1  0  0  0  0
 13 30  1  0  0  0  0
 14 24  1  0  0  0  0
 15 25  1  0  0  0  0
 15 14  2  0  0  0  0
 16 15  1  0  0  0  0
 17 31  1  0  0  0  0
 17 16  2  0  0  0  0
 21 10  1  0  0  0  0
 23 30  1  0  0  0  0
 26 16  1  0  0  0  0
 27 17  1  0  0  0  0
 28 31  1  0  0  0  0
 29 12  1  0  0  0  0
 30  3  1  0  0  0  0
 30 22  1  0  0  0  0
 31 13  2  0  0  0  0
M  END
