1,3
q = -1.0

 22 22  0  0  1  0  0  0  0  0999 V2000
    0.1017   -2.1156   -0.6285 S   0  0  0  0  0  1  0  0  0  0  0  0
    2.3351   -3.9671   -0.0476 S   0  0  0  0  0  0  0  0  0  0  0  0
    1.9259   -0.0922    0.0658 N   0  0  0  0  0  2  0  0  0  0  0  0
    2.5410   -1.3124    0.1953 N   0  0  0  0  0  2  0  0  0  0  0  0
    1.7488   -2.3154   -0.1037 C   0  0  1  0  0  3  0  0  0  0  0  0
    4.0945   -3.7236    0.3404 C   0  0  0  0  0  0  0  0  0  0  0  0
    2.7026    0.9710   -0.0462 C   0  0  0  0  0  3  0  0  0  0  0  0
    4.1508    1.1108   -0.0463 C   0  0  0  0  0  0  0  0  0  0  0  0
    4.6365    2.4353   -0.2305 C   0  0  0  0  0  0  0  0  0  0  0  0
    6.0065    2.7080   -0.2492 C   0  0  0  0  0  0  0  0  0  0  0  0
    6.9318    1.6638   -0.0791 C   0  0  0  0  0  0  0  0  0  0  0  0
    6.4702    0.3504    0.1101 C   0  0  0  0  0  0  0  0  0  0  0  0
    5.0997    0.0678    0.1262 C   0  0  0  0  0  0  0  0  0  0  0  0
    4.5267   -4.7379    0.4343 H   0  0  0  0  0  0  0  0  0  0  0  0
    4.2074   -3.1731    1.2931 H   0  0  0  0  0  0  0  0  0  0  0  0
    4.6006   -3.1726   -0.4749 H   0  0  0  0  0  0  0  0  0  0  0  0
    2.1441    1.9121   -0.1673 H   0  0  0  0  0  0  0  0  0  0  0  0
    3.9125    3.2553   -0.3589 H   0  0  0  0  0  0  0  0  0  0  0  0
    6.3575    3.7407   -0.3952 H   0  0  0  0  0  0  0  0  0  0  0  0
    8.0120    1.8749   -0.0924 H   0  0  0  0  0  0  0  0  0  0  0  0
    7.1918   -0.4694    0.2475 H   0  0  0  0  0  0  0  0  0  0  0  0
    4.7269   -0.9505    0.2755 H   0  0  0  0  0  0  0  0  0  0  0  0
  2  6  1  0  0  0  0
  3  4  1  0  0  0  0
  5  1  1  6  0  0  0
  5  2  1  0  0  0  0
  5  4  1  0  0  0  0
  6 14  1  0  0  0  0
  6 15  1  0  0  0  0
  7  3  1  0  0  0  0
  8  7  1  0  0  0  0
  8 13  1  0  0  0  0
  9  8  2  0  0  0  0
 10  9  1  0  0  0  0
 10 11  2  0  0  0  0
 11 12  1  0  0  0  0
 12 13  2  0  0  0  0
 12 21  1  0  0  0  0
 13 22  1  0  0  0  0
 16  6  1  0  0  0  0
 17  7  1  0  0  0  0
 18  9  1  0  0  0  0
 19 10  1  0  0  0  0
 20 11  1  0  0  0  0
M  END
