1,2
q = -2.0, confidence = 0.626

 37 37  0  0  0  0  0  0  0  0999 V2000
   -1.5977    1.6794   -0.0001 S   0  0  0  0  0  1  0  0  0  0  0  0
   -1.5829   -1.1613    0.0000 N   0  0  0  0  0  2  0  0  0  0  0  0
   -1.5025   -2.1844    0.0001 H   0  0  0  0  0  0  0  0  0  0  0  0
   -3.0600    0.7257   -0.0000 C   0  0  0  0  0  0  0  0  0  0  0  0
   -2.8611   -0.7018    0.0000 C   0  0  0  0  0  0  0  0  0  0  0  0
   -3.9744   -1.5904    0.0001 C   0  0  0  0  0  0  0  0  0  0  0  0
   -3.7699   -2.6705    0.0001 H   0  0  0  0  0  0  0  0  0  0  0  0
   -5.2694   -1.0944    0.0001 C   0  0  0  0  0  0  0  0  0  0  0  0
   -5.4398    0.3223    0.0000 C   0  0  0  0  0  0  0  0  0  0  0  0
   -6.4674    0.7042    0.0000 H   0  0  0  0  0  0  0  0  0  0  0  0
   -4.3945    1.2518   -0.0000 C   0  0  0  0  0  0  0  0  0  0  0  0
   -4.6999    2.7663   -0.0001 C   0  0  0  0  0  0  0  0  0  0  0  0
   -4.1125    3.4214    1.2722 C   0  0  0  0  0  0  0  0  0  0  0  0
   -4.5640    2.9779    2.1827 H   0  0  0  0  0  0  0  0  0  0  0  0
   -4.3316    4.5091    1.2735 H   0  0  0  0  0  0  0  0  0  0  0  0
   -3.0153    3.2948    1.3397 H   0  0  0  0  0  0  0  0  0  0  0  0
   -4.1126    3.4213   -1.2725 C   0  0  0  0  0  0  0  0  0  0  0  0
   -4.3318    4.5090   -1.2739 H   0  0  0  0  0  0  0  0  0  0  0  0
   -4.5642    2.9777   -2.1828 H   0  0  0  0  0  0  0  0  0  0  0  0
   -3.0154    3.2947   -1.3400 H   0  0  0  0  0  0  0  0  0  0  0  0
   -6.2144    3.0498   -0.0000 C   0  0  0  0  0  0  0  0  0  0  0  0
   -6.7170    2.6396    0.8992 H   0  0  0  0  0  0  0  0  0  0  0  0
   -6.7170    2.6395   -0.8992 H   0  0  0  0  0  0  0  0  0  0  0  0
   -6.3783    4.1458   -0.0001 H   0  0  0  0  0  0  0  0  0  0  0  0
   -6.5132   -1.9972    0.0001 C   0  0  0  0  0  0  0  0  0  0  0  0
   -6.1430   -3.4897    0.0002 C   0  0  0  0  0  0  0  0  0  0  0  0
   -7.0641   -4.1064    0.0002 H   0  0  0  0  0  0  0  0  0  0  0  0
   -5.5558   -3.7680    0.8986 H   0  0  0  0  0  0  0  0  0  0  0  0
   -5.5559   -3.7680   -0.8982 H   0  0  0  0  0  0  0  0  0  0  0  0
   -7.3544   -1.7018    1.2631 C   0  0  0  0  0  0  0  0  0  0  0  0
   -8.2631   -2.3386    1.2794 H   0  0  0  0  0  0  0  0  0  0  0  0
   -7.6846   -0.6448    1.3020 H   0  0  0  0  0  0  0  0  0  0  0  0
   -6.7716   -1.9074    2.1835 H   0  0  0  0  0  0  0  0  0  0  0  0
   -7.3544   -1.7019   -1.2629 C   0  0  0  0  0  0  0  0  0  0  0  0
   -7.6846   -0.6449   -1.3019 H   0  0  0  0  0  0  0  0  0  0  0  0
   -8.2631   -2.3387   -1.2792 H   0  0  0  0  0  0  0  0  0  0  0  0
   -6.7716   -1.9076   -2.1833 H   0  0  0  0  0  0  0  0  0  0  0  0
  1  4  1  0  0  0  0
  2  5  1  0  0  0  0
  2  3  1  0  0  0  0
  4 11  2  0  0  0  0
  4  5  1  0  0  0  0
  5  6  2  0  0  0  0
  6  8  1  0  0  0  0
  6  7  1  0  0  0  0
  8 25  1  0  0  0  0
  9  8  2  0  0  0  0
 10  9  1  0  0  0  0
 11  9  1  0  0  0  0
 12 11  1  0  0  0  0
 12 21  1  0  0  0  0
 12 13  1  0  0  0  0
 13 15  1  0  0  0  0
 13 16  1  0  0  0  0
 13 14  1  0  0  0  0
 17 12  1  0  0  0  0
 18 17  1  0  0  0  0
 19 17  1  0  0  0  0
 20 17  1  0  0  0  0
 21 22  1  0  0  0  0
 23 21  1  0  0  0  0
 24 21  1  0  0  0  0
 25 26  1  0  0  0  0
 25 30  1  0  0  0  0
 26 27  1  0  0  0  0
 26 28  1  0  0  0  0
 29 26  1  0  0  0  0
 30 31  1  0  0  0  0
 30 32  1  0  0  0  0
 30 33  1  0  0  0  0
 34 25  1  0  0  0  0
 35 34  1  0  0  0  0
 36 34  1  0  0  0  0
 37 34  1  0  0  0  0
M  END
