1,3
q = -1.0

 27 28  0  0  0  0  0  0  0  0999 V2000
   -0.7200    2.9528   -0.0125 N   0  0  0  0  0  2  0  0  0  0  0  0
   -3.8663    1.1966   -0.0127 N   0  0  0  0  0  2  0  0  0  0  0  0
   -1.3459    0.0770   -0.1078 S   0  0  0  0  0  1  0  0  0  0  0  0
   -0.2359    4.2134    0.0150 C   0  0  0  0  0  0  0  0  0  0  0  0
    0.8651    4.2877    0.0255 H   0  0  0  0  0  0  0  0  0  0  0  0
   -1.0739    5.3316    0.0328 C   0  0  0  0  0  0  0  0  0  0  0  0
   -0.6323    6.3380    0.0541 H   0  0  0  0  0  0  0  0  0  0  0  0
   -2.4649    5.1351    0.0244 C   0  0  0  0  0  0  0  0  0  0  0  0
   -3.1542    5.9932    0.0386 H   0  0  0  0  0  0  0  0  0  0  0  0
   -2.9605    3.8307   -0.0011 C   0  0  0  0  0  0  0  0  0  0  0  0
   -4.0317    3.5857   -0.0059 H   0  0  0  0  0  0  0  0  0  0  0  0
   -2.0655    2.7441   -0.0202 C   0  0  0  0  0  0  0  0  0  0  0  0
   -2.5740    1.3457   -0.0480 C   0  0  0  0  0  0  0  0  0  0  0  0
   -4.6181    0.0342   -0.0218 C   0  0  0  0  0  0  0  0  0  0  0  0
   -4.1569   -1.2890   -0.2668 C   0  0  0  0  0  0  0  0  0  0  0  0
   -3.0971   -1.4717   -0.4884 H   0  0  0  0  0  0  0  0  0  0  0  0
   -5.0481   -2.3688   -0.2471 C   0  0  0  0  0  0  0  0  0  0  0  0
   -4.6601   -3.3812   -0.4462 H   0  0  0  0  0  0  0  0  0  0  0  0
   -6.4208   -2.1992    0.0202 C   0  0  0  0  0  0  0  0  0  0  0  0
   -6.8826   -0.8840    0.2565 C   0  0  0  0  0  0  0  0  0  0  0  0
   -7.9521   -0.7149    0.4615 H   0  0  0  0  0  0  0  0  0  0  0  0
   -6.0092    0.2018    0.2288 C   0  0  0  0  0  0  0  0  0  0  0  0
   -6.3708    1.2255    0.4060 H   0  0  0  0  0  0  0  0  0  0  0  0
   -7.3701   -3.3688    0.0564 C   0  0  0  0  0  0  0  0  0  0  0  0
   -7.8111   -3.4994    1.0677 H   0  0  0  0  0  0  0  0  0  0  0  0
   -6.8641   -4.3154   -0.2151 H   0  0  0  0  0  0  0  0  0  0  0  0
   -8.2196   -3.2233   -0.6434 H   0  0  0  0  0  0  0  0  0  0  0  0
  1  4  1  0  0  0  0
  3 13  1  0  0  0  0
  4  5  1  0  0  0  0
  4  6  2  0  0  0  0
  6  7  1  0  0  0  0
  8  6  1  0  0  0  0
  8  9  1  0  0  0  0
 10  8  2  0  0  0  0
 11 10  1  0  0  0  0
 12  1  1  0  0  0  0
 12 10  1  0  0  0  0
 13 12  2  0  0  0  0
 13  2  1  0  0  0  0
 14  2  1  0  0  0  0
 14 22  1  0  0  0  0
 15 17  1  0  0  0  0
 15 14  2  0  0  0  0
 16 15  1  0  0  0  0
 17 19  2  0  0  0  0
 18 17  1  0  0  0  0
 19 24  1  0  0  0  0
 19 20  1  0  0  0  0
 20 21  1  0  0  0  0
 22 20  2  0  0  0  0
 22 23  1  0  0  0  0
 24 25  1  0  0  0  0
 26 24  1  0  0  0  0
 27 24  1  0  0  0  0
M  END
