1,3
q = -1.0, confidence = 0.0

 27 28  0  0  0  0  0  0  0  0999 V2000
   -1.1928   -2.6773    0.1452 N   0  0  0  0  0  2  0  0  0  0  0  0
   -4.0187   -0.4445    0.1592 N   0  0  0  0  0  2  0  0  0  0  0  0
   -1.3612    0.2708    0.1501 S   0  0  0  0  0  1  0  0  0  0  0  0
   -0.9100   -3.9975    0.1753 C   0  0  0  0  0  0  0  0  0  0  0  0
    0.1640   -4.2435    0.1148 H   0  0  0  0  0  0  0  0  0  0  0  0
   -1.9098   -4.9696    0.2713 C   0  0  0  0  0  0  0  0  0  0  0  0
   -1.6301   -6.0324    0.2940 H   0  0  0  0  0  0  0  0  0  0  0  0
   -3.2511   -4.5577    0.3343 C   0  0  0  0  0  0  0  0  0  0  0  0
   -4.0636   -5.2966    0.4072 H   0  0  0  0  0  0  0  0  0  0  0  0
   -3.5380   -3.1918    0.3041 C   0  0  0  0  0  0  0  0  0  0  0  0
   -4.5581   -2.7858    0.3477 H   0  0  0  0  0  0  0  0  0  0  0  0
   -2.4866   -2.2604    0.2120 C   0  0  0  0  0  0  0  0  0  0  0  0
   -2.7681   -0.7990    0.1844 C   0  0  0  0  0  0  0  0  0  0  0  0
   -4.5499    0.8365    0.1609 C   0  0  0  0  0  0  0  0  0  0  0  0
   -3.9264    1.9731    0.7398 C   0  0  0  0  0  0  0  0  0  0  0  0
   -2.9404    1.8624    1.2112 H   0  0  0  0  0  0  0  0  0  0  0  0
   -4.5626    3.2194    0.7405 C   0  0  0  0  0  0  0  0  0  0  0  0
   -4.0611    4.0843    1.2019 H   0  0  0  0  0  0  0  0  0  0  0  0
   -5.8266    3.3650    0.1492 C   0  0  0  0  0  0  0  0  0  0  0  0
   -6.3264    4.3455    0.1355 H   0  0  0  0  0  0  0  0  0  0  0  0
   -6.4558    2.2470   -0.4227 C   0  0  0  0  0  0  0  0  0  0  0  0
   -7.4511    2.3569   -0.8822 H   0  0  0  0  0  0  0  0  0  0  0  0
   -5.8513    0.9799   -0.4194 C   0  0  0  0  0  0  0  0  0  0  0  0
   -6.5377   -0.2150   -1.0227 C   0  0  0  0  0  0  0  0  0  0  0  0
   -5.9575   -0.6313   -1.8718 H   0  0  0  0  0  0  0  0  0  0  0  0
   -7.5510    0.0443   -1.3855 H   0  0  0  0  0  0  0  0  0  0  0  0
   -6.6229   -1.0364   -0.2813 H   0  0  0  0  0  0  0  0  0  0  0  0
  1  4  1  0  0  0  0
  1 12  1  0  0  0  0
  2 14  1  0  0  0  0
  2 13  1  0  0  0  0
  3 13  1  0  0  0  0
  4  6  2  0  0  0  0
  5  4  1  0  0  0  0
  6  7  1  0  0  0  0
  6  8  1  0  0  0  0
  8  9  1  0  0  0  0
 10  8  2  0  0  0  0
 10 11  1  0  0  0  0
 12 10  1  0  0  0  0
 13 12  2  0  0  0  0
 14 15  1  0  0  0  0
 15 17  2  0  0  0  0
 15 16  1  0  0  0  0
 17 18  1  0  0  0  0
 19 17  1  0  0  0  0
 20 19  1  0  0  0  0
 21 23  1  0  0  0  0
 21 19  2  0  0  0  0
 22 21  1  0  0  0  0
 23 14  2  0  0  0  0
 24 23  1  0  0  0  0
 24 27  1  0  0  0  0
 25 24  1  0  0  0  0
 26 24  1  0  0  0  0
M  END
