1,2
q = -1.0

 12 11  0  0  0  0  0  0  0  0999 V2000
    0.0262    0.4320    2.3535 S   0  0  0  0  0  1  0  0  0  0  0  0
   -0.0082    1.8568    0.2624 N   0  0  0  0  0  2  0  0  0  0  0  0
    0.0163    1.9693    1.5611 C   0  0  0  0  0  3  0  0  0  0  0  0
    0.0257    2.9370    2.1019 H   0  0  0  0  0  0  0  0  0  0  0  0
    0.3894    4.2820   -0.0898 C   0  0  0  0  0  0  0  0  0  0  0  0
    1.4160    4.2950    0.3170 H   0  0  0  0  0  0  0  0  0  0  0  0
   -0.0624    2.9735   -0.6686 C   0  0  0  0  0  0  0  0  0  0  0  0
    0.5676    2.6851   -1.5376 H   0  0  0  0  0  0  0  0  0  0  0  0
   -1.0955    3.0506   -1.0692 H   0  0  0  0  0  0  0  0  0  0  0  0
   -0.3526    5.4032   -0.0634 C   0  0  0  0  0  0  0  0  0  0  0  0
   -1.3814    5.4160   -0.4596 H   0  0  0  0  0  0  0  0  0  0  0  0
    0.0460    6.3466    0.3423 H   0  0  0  0  0  0  0  0  0  0  0  0
  2  3  1  0  0  0  0
  3  4  1  0  0  0  0
  3  1  1  0  0  0  0
  5 10  2  0  0  0  0
  5  6  1  0  0  0  0
  7  5  1  0  0  0  0
  7  2  1  0  0  0  0
  8  7  1  0  0  0  0
  9  7  1  0  0  0  0
 10 12  1  0  0  0  0
 11 10  1  0  0  0  0
M  END
