1,3
q = -1.0

 21 21  0  0  0  0  0  0  0  0999 V2000
    0.0583    2.3133   -0.2704 S   0  0  0  0  0  1  0  0  0  0  0  0
    2.6181    1.4390    0.0902 N   0  0  0  0  0  0  0  0  0  0  0  0
    2.0539    0.2158    0.0173 N   0  0  0  0  0  2  0  0  0  0  0  0
    2.3082    3.7094    0.0389 N   0  0  0  0  0  0  0  0  0  0  0  0
    3.3178    3.8251    0.1174 H   0  0  0  0  0  0  0  0  0  0  0  0
    1.7112    4.5252   -0.0685 H   0  0  0  0  0  0  0  0  0  0  0  0
    8.2078    1.9795    0.1316 N   0  0  0  0  0  0  0  0  0  0  0  0
    1.7809    2.4617   -0.0231 C   0  0  0  0  0  0  0  0  0  0  0  0
    2.8462   -0.8410   -0.0347 C   0  0  0  0  0  3  0  0  0  0  0  0
    2.3162   -1.8012   -0.0969 H   0  0  0  0  0  0  0  0  0  0  0  0
    4.3002   -0.9329   -0.0379 C   0  0  0  0  0  0  0  0  0  0  0  0
    5.2010    0.1577    0.0270 C   0  0  0  0  0  0  0  0  0  0  0  0
    4.7934    1.1718    0.0886 H   0  0  0  0  0  0  0  0  0  0  0  0
    6.5927   -0.0675    0.0133 C   0  0  0  0  0  0  0  0  0  0  0  0
    7.1113   -1.3815   -0.0644 C   0  0  0  0  0  0  0  0  0  0  0  0
    8.1988   -1.5399   -0.0744 H   0  0  0  0  0  0  0  0  0  0  0  0
    6.2232   -2.4635   -0.1272 C   0  0  0  0  0  0  0  0  0  0  0  0
    6.6153   -3.4895   -0.1870 H   0  0  0  0  0  0  0  0  0  0  0  0
    4.8425   -2.2454   -0.1138 C   0  0  0  0  0  0  0  0  0  0  0  0
    4.1540   -3.1034   -0.1626 H   0  0  0  0  0  0  0  0  0  0  0  0
    7.4840    1.0565    0.0787 C   0  0  0  0  0  0  0  0  0  0  0  0
  1  8  1  0  0  0  0
  3  2  1  0  0  0  0
  4  5  1  0  0  0  0
  6  4  1  0  0  0  0
  8  4  1  0  0  0  0
  8  2  2  0  0  0  0
  9  3  1  0  0  0  0
 10  9  1  0  0  0  0
 11  9  1  0  0  0  0
 11 12  1  0  0  0  0
 12 13  1  0  0  0  0
 14 12  2  0  0  0  0
 14 21  1  0  0  0  0
 15 14  1  0  0  0  0
 16 15  1  0  0  0  0
 17 19  1  0  0  0  0
 17 15  2  0  0  0  0
 18 17  1  0  0  0  0
 19 11  2  0  0  0  0
 20 19  1  0  0  0  0
 21  7  3  0  0  0  0
M  END
