1,7
q = -1.0

 23 24  0  0  1  0  0  0  0  0999 V2000
    1.7169    2.9516   -0.1374 S   0  0  0  0  0  1  0  0  0  0  0  0
    4.9999   -0.2947   -0.3917 O   0  0  0  0  0  0  0  0  0  0  0  0
    4.3162    2.1866    0.0506 N   0  0  0  0  0  0  0  0  0  0  0  0
    4.9932    1.3825   -0.0600 H   0  0  0  0  0  0  0  0  0  0  0  0
    4.5702    3.1717    0.1000 H   0  0  0  0  0  0  0  0  0  0  0  0
    2.7828    0.5089   -0.2313 N   0  0  0  0  0  0  0  0  0  0  0  0
    1.5029    0.0754   -0.5106 N   0  0  0  0  0  2  0  0  0  0  0  0
    3.0350    1.8385   -0.0903 C   0  0  2  0  0  3  0  0  0  0  0  0
    1.6343   -1.1793   -1.0166 C   0  0  0  0  0  0  0  0  0  0  0  0
    2.9849   -1.5873   -1.0237 C   0  0  0  0  0  0  0  0  0  0  0  0
    3.3768   -2.5240   -1.4274 H   0  0  0  0  0  0  0  0  0  0  0  0
    3.7815   -0.5191   -0.5376 C   0  0  0  0  0  0  0  0  0  0  0  0
    0.4939   -1.9379   -1.5522 C   0  0  0  0  0  0  0  0  0  0  0  0
    0.5131   -3.3496   -1.5201 C   0  0  0  0  0  0  0  0  0  0  0  0
    1.3599   -3.8648   -1.0445 H   0  0  0  0  0  0  0  0  0  0  0  0
   -0.5565   -4.0876   -2.0418 C   0  0  0  0  0  0  0  0  0  0  0  0
   -0.5329   -5.1871   -1.9980 H   0  0  0  0  0  0  0  0  0  0  0  0
   -1.6620   -3.4283   -2.6038 C   0  0  0  0  0  0  0  0  0  0  0  0
   -2.5072   -4.0084   -3.0041 H   0  0  0  0  0  0  0  0  0  0  0  0
   -1.6802   -2.0253   -2.6611 C   0  0  0  0  0  0  0  0  0  0  0  0
   -2.5356   -1.5020   -3.1141 H   0  0  0  0  0  0  0  0  0  0  0  0
   -0.6067   -1.2848   -2.1515 C   0  0  0  0  0  0  0  0  0  0  0  0
   -0.6110   -0.1864   -2.2138 H   0  0  0  0  0  0  0  0  0  0  0  0
  3  5  1  0  0  0  0
  4  3  1  0  0  0  0
  6  8  1  0  0  0  0
  7  6  1  0  0  0  0
  8  1  1  6  0  0  0
  8  3  1  0  0  0  0
  9  7  1  0  0  0  0
 10  9  2  0  0  0  0
 10 12  1  0  0  0  0
 11 10  1  0  0  0  0
 12  2  2  0  0  0  0
 12  6  1  0  0  0  0
 13 14  1  0  0  0  0
 13  9  1  0  0  0  0
 14 15  1  0  0  0  0
 16 17  1  0  0  0  0
 16 14  2  0  0  0  0
 18 16  1  0  0  0  0
 19 18  1  0  0  0  0
 20 18  2  0  0  0  0
 20 22  1  0  0  0  0
 21 20  1  0  0  0  0
 22 13  2  0  0  0  0
 23 22  1  0  0  0  0
M  END
