1,2
q = -1.0, confidence = 0.008

 19 19  0  0  1  0  0  0  0  0999 V2000
    0.2662    2.1207   -0.5637 S   0  0  0  0  0  1  0  0  0  0  0  0
   -1.8812    0.4321    0.0874 N   0  0  0  0  0  2  0  0  0  0  0  0
   -2.2684    1.7215    0.2885 N   0  0  0  0  0  2  0  0  0  0  0  0
   -1.5881    3.9175    0.1412 N   0  0  0  0  0  0  0  0  0  0  0  0
   -2.5082    4.2099    0.4669 H   0  0  0  0  0  0  0  0  0  0  0  0
   -0.8532    4.6071    0.0088 H   0  0  0  0  0  0  0  0  0  0  0  0
   -6.3438   -1.6316   -0.2480 N   0  0  0  0  0  0  0  0  0  0  0  0
   -1.3117    2.5955    0.0201 C   0  0  2  0  0  3  0  0  0  0  0  0
   -2.8280   -0.4797   -0.0477 C   0  0  0  0  0  3  0  0  0  0  0  0
   -2.4495   -1.5004   -0.2100 H   0  0  0  0  0  0  0  0  0  0  0  0
   -4.2744   -0.3466   -0.0285 C   0  0  0  0  0  0  0  0  0  0  0  0
   -5.0319    0.8371    0.1644 C   0  0  0  0  0  0  0  0  0  0  0  0
   -4.4990    1.7812    0.3265 H   0  0  0  0  0  0  0  0  0  0  0  0
   -6.4276    0.7538    0.1443 C   0  0  0  0  0  0  0  0  0  0  0  0
   -7.0446    1.6534    0.2913 H   0  0  0  0  0  0  0  0  0  0  0  0
   -7.0382   -0.4938   -0.0660 C   0  0  0  0  0  0  0  0  0  0  0  0
   -8.1394   -0.5812   -0.0880 H   0  0  0  0  0  0  0  0  0  0  0  0
   -5.0129   -1.5491   -0.2266 C   0  0  0  0  0  0  0  0  0  0  0  0
   -4.4586   -2.4957   -0.3742 H   0  0  0  0  0  0  0  0  0  0  0  0
  2  3  1  0  0  0  0
  4  5  1  0  0  0  0
  6  4  1  0  0  0  0
  7 18  2  0  0  0  0
  7 16  1  0  0  0  0
  8  1  1  6  0  0  0
  8  4  1  0  0  0  0
  8  3  1  0  0  0  0
  9 11  1  0  0  0  0
  9  2  1  0  0  0  0
 10  9  1  0  0  0  0
 11 12  2  0  0  0  0
 12 13  1  0  0  0  0
 14 12  1  0  0  0  0
 14 15  1  0  0  0  0
 16 14  2  0  0  0  0
 17 16  1  0  0  0  0
 18 11  1  0  0  0  0
 19 18  1  0  0  0  0
M  END
