1,2
q = 0.0, confidence = 1.0

 43 45  0  0  1  0  0  0  0  0999 V2000
    1.7405    1.4624   -0.0472 N   0  0  0  0  0  2  0  0  0  0  0  0
    0.0390   -0.7729   -0.5850 S   0  0  0  0  0  0  0  0  0  0  0  0
    2.6725    2.3825   -0.3600 O   0  0  0  0  0  0  0  0  0  0  0  0
    3.5357    1.8473   -0.2262 H   0  0  0  0  0  0  0  0  0  0  0  0
   -1.9162    1.2248   -0.1749 C   0  0  1  0  0  0  0  0  0  0  0  0
   -2.6716    0.4390    0.0226 H   0  0  0  0  0  0  0  0  0  0  0  0
   -0.5391    0.7958    0.3609 C   0  0  2  0  0  0  0  0  0  0  0  0
    0.4898    1.8380   -0.0606 C   0  0  2  0  0  3  0  0  0  0  0  0
    0.0535    3.1765   -0.6037 C   0  0  0  0  0  0  0  0  0  0  0  0
    0.6898    3.3937   -1.4888 H   0  0  0  0  0  0  0  0  0  0  0  0
    0.2734    3.9907    0.1208 H   0  0  0  0  0  0  0  0  0  0  0  0
   -1.4333    3.1352   -0.9889 C   0  0  2  0  0  0  0  0  0  0  0  0
   -1.7280    4.0565   -1.5316 H   0  0  0  0  0  0  0  0  0  0  0  0
   -2.3145    2.7069    0.2313 C   0  0  0  0  0  0  0  0  0  0  0  0
   -1.7397    1.7535   -1.6269 C   0  0  0  0  0  0  0  0  0  0  0  0
   -0.9403    1.2836   -2.2358 H   0  0  0  0  0  0  0  0  0  0  0  0
   -2.6781    1.7340   -2.2076 H   0  0  0  0  0  0  0  0  0  0  0  0
   -1.9826    3.3074    1.5975 C   0  0  0  0  0  0  0  0  0  0  0  0
   -2.2939    4.3729    1.6125 H   0  0  0  0  0  0  0  0  0  0  0  0
   -0.9075    3.2829    1.8536 H   0  0  0  0  0  0  0  0  0  0  0  0
   -2.5385    2.7936    2.4081 H   0  0  0  0  0  0  0  0  0  0  0  0
   -3.8145    2.9209   -0.0245 C   0  0  0  0  0  0  0  0  0  0  0  0
   -4.0598    4.0025    0.0026 H   0  0  0  0  0  0  0  0  0  0  0  0
   -4.4127    2.4195    0.7639 H   0  0  0  0  0  0  0  0  0  0  0  0
   -4.1517    2.5237   -1.0004 H   0  0  0  0  0  0  0  0  0  0  0  0
   -0.4987    0.4837    1.8624 C   0  0  0  0  0  0  0  0  0  0  0  0
    0.4665    0.0152    2.1399 H   0  0  0  0  0  0  0  0  0  0  0  0
   -1.3308   -0.1900    2.1408 H   0  0  0  0  0  0  0  0  0  0  0  0
   -0.6055    1.4085    2.4540 H   0  0  0  0  0  0  0  0  0  0  0  0
   -0.6707   -2.2060    0.3287 C   0  0  0  0  0  0  0  0  0  0  0  0
   -0.0997   -3.0421   -0.1298 H   0  0  0  0  0  0  0  0  0  0  0  0
   -0.3582   -2.1568    1.3874 H   0  0  0  0  0  0  0  0  0  0  0  0
   -2.1614   -2.2959    0.1510 C   0  0  0  0  0  0  0  0  0  0  0  0
   -2.7316   -2.3784   -1.1378 C   0  0  0  0  0  0  0  0  0  0  0  0
   -2.0731   -2.3979   -2.0201 H   0  0  0  0  0  0  0  0  0  0  0  0
   -4.1223   -2.4196   -1.3002 C   0  0  0  0  0  0  0  0  0  0  0  0
   -4.5519   -2.4838   -2.3114 H   0  0  0  0  0  0  0  0  0  0  0  0
   -4.9673   -2.3819   -0.1777 C   0  0  0  0  0  0  0  0  0  0  0  0
   -6.0597   -2.4123   -0.3068 H   0  0  0  0  0  0  0  0  0  0  0  0
   -4.4108   -2.3136    1.1084 C   0  0  0  0  0  0  0  0  0  0  0  0
   -5.0645   -2.2948    1.9936 H   0  0  0  0  0  0  0  0  0  0  0  0
   -3.0171   -2.2694    1.2704 C   0  0  0  0  0  0  0  0  0  0  0  0
   -2.5845   -2.2217    2.2823 H   0  0  0  0  0  0  0  0  0  0  0  0
  2 30  1  0  0  0  0
  3  4  1  0  0  0  0
  3  1  1  0  0  0  0
  5  6  1  1  0  0  0
  5 14  1  0  0  0  0
  5  7  1  0  0  0  0
  7  2  1  6  0  0  0
  7 26  1  0  0  0  0
  8  1  1  6  0  0  0
  8  7  1  0  0  0  0
  9  8  1  0  0  0  0
  9 11  1  0  0  0  0
 10  9  1  0  0  0  0
 12 13  1  6  0  0  0
 12  9  1  0  0  0  0
 12 14  1  0  0  0  0
 14 18  1  0  0  0  0
 15 12  1  0  0  0  0
 15  5  1  0  0  0  0
 16 15  1  0  0  0  0
 17 15  1  0  0  0  0
 18 19  1  0  0  0  0
 18 20  1  0  0  0  0
 18 21  1  0  0  0  0
 22 23  1  0  0  0  0
 22 14  1  0  0  0  0
 22 24  1  0  0  0  0
 25 22  1  0  0  0  0
 26 27  1  0  0  0  0
 26 28  1  0  0  0  0
 26 29  1  0  0  0  0
 30 32  1  0  0  0  0
 31 30  1  0  0  0  0
 33 30  1  0  0  0  0
 33 42  1  0  0  0  0
 34 33  2  0  0  0  0
 35 34  1  0  0  0  0
 36 34  1  0  0  0  0
 36 38  2  0  0  0  0
 37 36  1  0  0  0  0
 38 40  1  0  0  0  0
 39 38  1  0  0  0  0
 40 42  2  0  0  0  0
 40 41  1  0  0  0  0
 42 43  1  0  0  0  0
M  END
