1,2
q = -1.0

 22 21  0  0  0  0  0  0  0  0999 V2000
    1.4294   -1.6350   -0.1316 S   0  0  0  0  0  1  0  0  0  0  0  0
    2.1882    1.1301   -0.6014 N   0  0  0  0  0  0  0  0  0  0  0  0
    3.0922   -1.0010    0.4703 C   0  0  0  0  0  0  0  0  0  0  0  0
    3.1311    0.5403    0.3705 C   0  0  0  0  0  0  0  0  0  0  0  0
    2.5050    0.8032   -2.0038 C   0  0  0  0  0  0  0  0  0  0  0  0
    2.1547    2.5980   -0.4387 C   0  0  0  0  0  0  0  0  0  0  0  0
    3.2492   -1.4049    1.9434 C   0  0  0  0  0  0  0  0  0  0  0  0
    4.1787   -1.6868   -0.3746 C   0  0  0  0  0  0  0  0  0  0  0  0
    4.1684    0.8834    0.1401 H   0  0  0  0  0  0  0  0  0  0  0  0
    2.8463    0.9662    1.3516 H   0  0  0  0  0  0  0  0  0  0  0  0
    1.7511    1.2847   -2.6524 H   0  0  0  0  0  0  0  0  0  0  0  0
    2.4395   -0.2895   -2.1507 H   0  0  0  0  0  0  0  0  0  0  0  0
    3.5225    1.1688   -2.2683 H   0  0  0  0  0  0  0  0  0  0  0  0
    1.8712    2.8406    0.6012 H   0  0  0  0  0  0  0  0  0  0  0  0
    1.3928    3.0112   -1.1251 H   0  0  0  0  0  0  0  0  0  0  0  0
    3.1478    3.0424   -0.6744 H   0  0  0  0  0  0  0  0  0  0  0  0
    4.2117   -1.0244    2.3517 H   0  0  0  0  0  0  0  0  0  0  0  0
    3.2421   -2.5072    2.0509 H   0  0  0  0  0  0  0  0  0  0  0  0
    2.4193   -0.9916    2.5495 H   0  0  0  0  0  0  0  0  0  0  0  0
    5.1866   -1.4250    0.0133 H   0  0  0  0  0  0  0  0  0  0  0  0
    4.1339   -1.3939   -1.4405 H   0  0  0  0  0  0  0  0  0  0  0  0
    4.0705   -2.7882   -0.3209 H   0  0  0  0  0  0  0  0  0  0  0  0
  1  3  1  0  0  0  0
  2  6  1  0  0  0  0
  2  4  1  0  0  0  0
  3  7  1  0  0  0  0
  4  3  1  0  0  0  0
  4 10  1  0  0  0  0
  5  2  1  0  0  0  0
  6 14  1  0  0  0  0
  7 18  1  0  0  0  0
  7 17  1  0  0  0  0
  7 19  1  0  0  0  0
  8 22  1  0  0  0  0
  8 20  1  0  0  0  0
  8  3  1  0  0  0  0
  9  4  1  0  0  0  0
 11  5  1  0  0  0  0
 12  5  1  0  0  0  0
 13  5  1  0  0  0  0
 15  6  1  0  0  0  0
 16  6  1  0  0  0  0
 21  8  1  0  0  0  0
M  END
