1,5
q = 0.0, confidence = 0.994

 18 17  0  0  1  0  0  0  0  0999 V2000
    0.0116    1.6282    0.1402 S   0  0  1  0  0  3  0  0  0  0  0  0
   -0.1969    2.3756    1.4265 O   0  0  0  0  0  1  0  0  0  0  0  0
   -3.5822   -1.6598   -0.7053 O   0  0  0  0  0  0  0  0  0  0  0  0
   -4.4159    0.2232    0.2511 O   0  0  0  0  0  0  0  0  0  0  0  0
   -1.0311   -1.1432    0.1998 N   0  0  0  0  0  0  0  0  0  0  0  0
   -3.4276   -0.6201   -0.0975 C   0  0  0  0  0  0  0  0  0  0  0  0
   -2.0586   -0.0905    0.3382 C   0  0  2  0  0  0  0  0  0  0  0  0
   -1.6663    1.1383   -0.4932 C   0  0  0  0  0  0  0  0  0  0  0  0
    0.6183    2.7738   -1.1218 C   0  0  0  0  0  0  0  0  0  0  0  0
    0.0398    3.7125   -1.0347 H   0  0  0  0  0  0  0  0  0  0  0  0
   -2.1091    0.2258    1.4014 H   0  0  0  0  0  0  0  0  0  0  0  0
    1.6880    2.9055   -0.8672 H   0  0  0  0  0  0  0  0  0  0  0  0
    0.5326    2.2969   -2.1159 H   0  0  0  0  0  0  0  0  0  0  0  0
   -5.2548   -0.1676   -0.0808 H   0  0  0  0  0  0  0  0  0  0  0  0
   -2.3554    1.9905   -0.3349 H   0  0  0  0  0  0  0  0  0  0  0  0
   -1.5765    0.8914   -1.5710 H   0  0  0  0  0  0  0  0  0  0  0  0
   -1.0543   -1.8095    0.9859 H   0  0  0  0  0  0  0  0  0  0  0  0
   -1.2231   -1.7143   -0.6416 H   0  0  0  0  0  0  0  0  0  0  0  0
  1  2  1  1  0  0  0
  3  6  2  0  0  0  0
  5  7  1  0  0  0  0
  5 17  1  0  0  0  0
  6  4  1  0  0  0  0
  6  7  1  0  0  0  0
  7 11  1  1  0  0  0
  8 15  1  0  0  0  0
  8  1  1  0  0  0  0
  8  7  1  0  0  0  0
  9 10  1  0  0  0  0
  9 12  1  0  0  0  0
  9  1  1  0  0  0  0
 13  9  1  0  0  0  0
 14  4  1  0  0  0  0
 16  8  1  0  0  0  0
 18  5  1  0  0  0  0
M  END
