2,5
q = 0.0, confidence = 0.99

 27 29  0  0  1  0  0  0  0  0999 V2000
   -4.2562   -2.2453    0.0442 S   0  0  0  0  0  0  0  0  0  0  0  0
   -0.3722   -2.0832    0.5203 S   0  0  0  0  0  0  0  0  0  0  0  0
   -4.7636    0.8327   -0.0397 O   0  0  0  0  0  0  0  0  0  0  0  0
   -2.4478    1.2630    0.0862 N   0  0  0  0  0  0  0  0  0  0  0  0
   -0.2003    1.1097    0.2559 N   0  0  0  0  0  2  0  0  0  0  0  0
   -3.6177    0.4540    0.0462 C   0  0  0  0  0  0  0  0  0  0  0  0
   -3.0814   -0.9843    0.1330 C   0  0  2  0  0  3  0  0  0  0  0  0
   -1.7010   -0.9349    0.2384 C   0  0  0  0  0  0  0  0  0  0  0  0
   -1.3436    0.4562    0.1924 C   0  0  0  0  0  0  0  0  0  0  0  0
   -1.9826    2.5880    0.0760 C   0  0  0  0  0  0  0  0  0  0  0  0
   -0.5565    2.4715    0.1821 C   0  0  0  0  0  0  0  0  0  0  0  0
    0.2483    3.6168    0.1885 C   0  0  0  0  0  0  0  0  0  0  0  0
    1.3415    3.5346    0.2556 H   0  0  0  0  0  0  0  0  0  0  0  0
   -0.3970    4.8616    0.0954 C   0  0  0  0  0  0  0  0  0  0  0  0
    0.2086    5.7796    0.0963 H   0  0  0  0  0  0  0  0  0  0  0  0
   -1.8002    4.9621   -0.0026 C   0  0  0  0  0  0  0  0  0  0  0  0
   -2.2650    5.9564   -0.0753 H   0  0  0  0  0  0  0  0  0  0  0  0
   -2.6253    3.8211   -0.0159 C   0  0  0  0  0  0  0  0  0  0  0  0
   -3.7182    3.8899   -0.0981 H   0  0  0  0  0  0  0  0  0  0  0  0
   -3.2306   -3.7029   -0.3197 C   0  0  0  0  0  0  0  0  0  0  0  0
   -2.5856   -3.9837    0.5344 H   0  0  0  0  0  0  0  0  0  0  0  0
   -2.6074   -3.5175   -1.2148 H   0  0  0  0  0  0  0  0  0  0  0  0
   -3.9470   -4.5209   -0.5227 H   0  0  0  0  0  0  0  0  0  0  0  0
   -0.5797   -2.3571    2.3286 C   0  0  0  0  0  0  0  0  0  0  0  0
   -0.5532   -1.3956    2.8725 H   0  0  0  0  0  0  0  0  0  0  0  0
    0.2822   -2.9796    2.6360 H   0  0  0  0  0  0  0  0  0  0  0  0
   -1.5258   -2.8965    2.5235 H   0  0  0  0  0  0  0  0  0  0  0  0
  2 24  1  0  0  0  0
  3  6  2  0  0  0  0
  4  9  1  0  0  0  0
  6  4  1  0  0  0  0
  6  7  1  0  0  0  0
  7  1  1  6  0  0  0
  7  8  1  0  0  0  0
  8  2  1  0  0  0  0
  9  8  2  0  0  0  0
  9  5  1  0  0  0  0
 10  4  1  0  0  0  0
 10 11  1  0  0  0  0
 11 12  2  0  0  0  0
 11  5  1  0  0  0  0
 12 13  1  0  0  0  0
 14 15  1  0  0  0  0
 14 12  1  0  0  0  0
 16 14  2  0  0  0  0
 17 16  1  0  0  0  0
 18 16  1  0  0  0  0
 18 10  2  0  0  0  0
 19 18  1  0  0  0  0
 20  1  1  0  0  0  0
 20 21  1  0  0  0  0
 22 20  1  0  0  0  0
 23 20  1  0  0  0  0
 24 27  1  0  0  0  0
 24 26  1  0  0  0  0
 24 25  1  0  0  0  0
M  END
