1,2
q = -1.0

 13 12  0  0  0  0  0  0  0  0999 V2000
    1.0886    1.6480   -0.9479 S   0  0  0  0  0  1  0  0  0  0  0  0
    1.8324    0.0268    1.5402 N   0  0  0  0  0  0  0  0  0  0  0  0
    1.8955    1.0058    1.8602 H   0  0  0  0  0  0  0  0  0  0  0  0
    1.6968   -0.5492    2.3835 H   0  0  0  0  0  0  0  0  0  0  0  0
    3.1310   -0.3404    0.9160 C   0  0  0  0  0  0  0  0  0  0  0  0
    2.9761   -1.3190    0.4127 H   0  0  0  0  0  0  0  0  0  0  0  0
    3.9028   -0.4795    1.7062 H   0  0  0  0  0  0  0  0  0  0  0  0
    3.6238    0.7077   -0.0812 C   0  0  0  0  0  0  0  0  0  0  0  0
    4.6336    0.3797   -0.4170 H   0  0  0  0  0  0  0  0  0  0  0  0
    3.7695    1.6781    0.4468 H   0  0  0  0  0  0  0  0  0  0  0  0
    2.7332    0.9324   -1.3051 C   0  0  0  0  0  0  0  0  0  0  0  0
    2.5823   -0.0186   -1.8611 H   0  0  0  0  0  0  0  0  0  0  0  0
    3.2270    1.6482   -1.9951 H   0  0  0  0  0  0  0  0  0  0  0  0
  2  3  1  0  0  0  0
  2  4  1  0  0  0  0
  5  2  1  0  0  0  0
  5  7  1  0  0  0  0
  6  5  1  0  0  0  0
  8 10  1  0  0  0  0
  8  5  1  0  0  0  0
  9  8  1  0  0  0  0
 11  1  1  0  0  0  0
 11  8  1  0  0  0  0
 12 11  1  0  0  0  0
 13 11  1  0  0  0  0
M  END
