1,2
q = -1.0

 33 33  0  0  1  0  0  0  0  0999 V2000
    1.2066    1.7941   -0.0192 S   0  0  0  0  0  1  0  0  0  0  0  0
    2.3691   -0.5452    0.0230 N   0  0  0  0  0  2  0  0  0  0  0  0
    3.9786    0.9866   -0.0026 N   0  0  0  0  0  0  0  0  0  0  0  0
    2.6293    0.7731    0.0024 C   0  0  1  0  0  3  0  0  0  0  0  0
    4.5802   -0.2785    0.0164 C   0  0  0  0  0  0  0  0  0  0  0  0
    5.6631   -0.4031    0.0176 H   0  0  0  0  0  0  0  0  0  0  0  0
    3.5724   -1.2295    0.0322 C   0  0  0  0  0  0  0  0  0  0  0  0
    4.6503    2.3175   -0.0237 C   0  0  0  0  0  0  0  0  0  0  0  0
    4.2219    3.0953    1.2339 C   0  0  0  0  0  0  0  0  0  0  0  0
    4.6900    4.0996    1.2357 H   0  0  0  0  0  0  0  0  0  0  0  0
    3.1215    3.2193    1.2679 H   0  0  0  0  0  0  0  0  0  0  0  0
    4.5392    2.5576    2.1495 H   0  0  0  0  0  0  0  0  0  0  0  0
    4.2225    3.0549   -1.3057 C   0  0  0  0  0  0  0  0  0  0  0  0
    3.1223    3.1786   -1.3446 H   0  0  0  0  0  0  0  0  0  0  0  0
    4.5399    2.4878   -2.2034 H   0  0  0  0  0  0  0  0  0  0  0  0
    4.6913    4.0582   -1.3397 H   0  0  0  0  0  0  0  0  0  0  0  0
    6.1720    2.1250   -0.0201 C   0  0  0  0  0  0  0  0  0  0  0  0
    6.5189    1.5682   -0.9128 H   0  0  0  0  0  0  0  0  0  0  0  0
    6.5184    1.5965    0.8899 H   0  0  0  0  0  0  0  0  0  0  0  0
    6.6555    3.1207   -0.0357 H   0  0  0  0  0  0  0  0  0  0  0  0
    3.6773   -2.7394    0.0532 C   0  0  0  0  0  0  0  0  0  0  0  0
    5.1578   -3.1583    0.0598 C   0  0  0  0  0  0  0  0  0  0  0  0
    5.2400   -4.2636    0.0748 H   0  0  0  0  0  0  0  0  0  0  0  0
    5.6857   -2.7687    0.9541 H   0  0  0  0  0  0  0  0  0  0  0  0
    5.6869   -2.7931   -0.8440 H   0  0  0  0  0  0  0  0  0  0  0  0
    2.9896   -3.2803    1.3266 C   0  0  0  0  0  0  0  0  0  0  0  0
    3.0271   -4.3889    1.3444 H   0  0  0  0  0  0  0  0  0  0  0  0
    3.4946   -2.8990    2.2370 H   0  0  0  0  0  0  0  0  0  0  0  0
    1.9283   -2.9720    1.3737 H   0  0  0  0  0  0  0  0  0  0  0  0
    2.9911   -3.3143   -1.2062 C   0  0  0  0  0  0  0  0  0  0  0  0
    3.4992   -2.9596   -2.1256 H   0  0  0  0  0  0  0  0  0  0  0  0
    3.0260   -4.4230   -1.1932 H   0  0  0  0  0  0  0  0  0  0  0  0
    1.9305   -3.0049   -1.2645 H   0  0  0  0  0  0  0  0  0  0  0  0
  2  7  1  0  0  0  0
  3  4  1  0  0  0  0
  3  5  1  0  0  0  0
  4  1  1  6  0  0  0
  4  2  1  0  0  0  0
  5  6  1  0  0  0  0
  5  7  2  0  0  0  0
  7 21  1  0  0  0  0
  8 17  1  0  0  0  0
  8  3  1  0  0  0  0
  8  9  1  0  0  0  0
  9 10  1  0  0  0  0
  9 11  1  0  0  0  0
  9 12  1  0  0  0  0
 13  8  1  0  0  0  0
 14 13  1  0  0  0  0
 15 13  1  0  0  0  0
 16 13  1  0  0  0  0
 17 19  1  0  0  0  0
 18 17  1  0  0  0  0
 20 17  1  0  0  0  0
 21 22  1  0  0  0  0
 21 26  1  0  0  0  0
 22 23  1  0  0  0  0
 22 24  1  0  0  0  0
 25 22  1  0  0  0  0
 26 27  1  0  0  0  0
 26 29  1  0  0  0  0
 26 28  1  0  0  0  0
 30 32  1  0  0  0  0
 30 21  1  0  0  0  0
 31 30  1  0  0  0  0
 33 30  1  0  0  0  0
M  END
