1,4
q = -1.0

 41 43  0  0  1  0  0  0  0  0999 V2000
   -1.6424   -2.6210   -1.2800 S   0  0  0  0  0  1  0  0  0  0  0  0
    0.2535    0.9960    1.5867 O   0  0  0  0  0  0  0  0  0  0  0  0
   -1.2339    2.5782    2.4623 N   0  0  0  0  0  0  0  0  0  0  0  0
   -2.1327   -0.2696    0.5760 N   0  0  0  0  0  2  0  0  0  0  0  0
   -3.2400   -0.7975    0.1134 N   0  0  0  0  0  0  0  0  0  0  0  0
   -4.2722   -2.4256   -1.1040 N   0  0  0  0  0  0  0  0  0  0  0  0
   -4.1972   -3.1951   -1.7725 H   0  0  0  0  0  0  0  0  0  0  0  0
   -0.8978    1.4186    1.7659 C   0  0  0  0  0  0  0  0  0  0  0  0
   -2.6244    2.7647    2.4595 C   0  0  0  0  0  0  0  0  0  0  0  0
   -3.3692    3.7965    3.0346 C   0  0  0  0  0  0  0  0  0  0  0  0
   -2.8842    4.6137    3.5875 H   0  0  0  0  0  0  0  0  0  0  0  0
   -4.7714    3.7568    2.8821 C   0  0  0  0  0  0  0  0  0  0  0  0
   -5.3795    4.5593    3.3266 H   0  0  0  0  0  0  0  0  0  0  0  0
   -5.4022    2.7172    2.1761 C   0  0  0  0  0  0  0  0  0  0  0  0
   -6.4976    2.7160    2.0736 H   0  0  0  0  0  0  0  0  0  0  0  0
   -4.6474    1.6790    1.5984 C   0  0  0  0  0  0  0  0  0  0  0  0
   -5.1202    0.8595    1.0414 H   0  0  0  0  0  0  0  0  0  0  0  0
   -3.2520    1.7002    1.7406 C   0  0  0  0  0  0  0  0  0  0  0  0
   -2.1784    0.8331    1.2953 C   0  0  1  0  0  3  0  0  0  0  0  0
   -3.0945   -1.8807   -0.7022 C   0  0  0  0  0  0  0  0  0  0  0  0
   -5.5985   -1.9199   -0.7637 C   0  0  0  0  0  0  0  0  0  0  0  0
   -5.5457   -1.5741    0.2906 H   0  0  0  0  0  0  0  0  0  0  0  0
   -6.6316   -3.0497   -0.8643 C   0  0  0  0  0  0  0  0  0  0  0  0
   -6.3317   -3.8912   -0.2055 H   0  0  0  0  0  0  0  0  0  0  0  0
   -6.6345   -3.4417   -1.9082 H   0  0  0  0  0  0  0  0  0  0  0  0
   -8.0373   -2.5492   -0.5063 C   0  0  0  0  0  0  0  0  0  0  0  0
   -8.7727   -3.3726   -0.6193 H   0  0  0  0  0  0  0  0  0  0  0  0
   -8.0540   -2.2622    0.5690 H   0  0  0  0  0  0  0  0  0  0  0  0
   -8.4451   -1.3390   -1.3575 C   0  0  0  0  0  0  0  0  0  0  0  0
   -8.5425   -1.6566   -2.4202 H   0  0  0  0  0  0  0  0  0  0  0  0
   -9.4460   -0.9716   -1.0487 H   0  0  0  0  0  0  0  0  0  0  0  0
   -7.4051   -0.2148   -1.2641 C   0  0  0  0  0  0  0  0  0  0  0  0
   -7.3865    0.1829   -0.2238 H   0  0  0  0  0  0  0  0  0  0  0  0
   -7.6903    0.6379   -1.9147 H   0  0  0  0  0  0  0  0  0  0  0  0
   -6.0039   -0.7154   -1.6339 C   0  0  0  0  0  0  0  0  0  0  0  0
   -5.9817   -1.0271   -2.7022 H   0  0  0  0  0  0  0  0  0  0  0  0
   -5.2457    0.0839   -1.5108 H   0  0  0  0  0  0  0  0  0  0  0  0
   -0.2630    3.4503    3.0759 C   0  0  0  0  0  0  0  0  0  0  0  0
    0.7372    3.0195    2.8799 H   0  0  0  0  0  0  0  0  0  0  0  0
   -0.4214    3.5216    4.1727 H   0  0  0  0  0  0  0  0  0  0  0  0
   -0.3112    4.4725    2.6444 H   0  0  0  0  0  0  0  0  0  0  0  0
  1 20  1  0  0  0  0
  2  8  2  0  0  0  0
  3 38  1  0  0  0  0
  5  4  1  0  0  0  0
  6 21  1  0  0  0  0
  6 20  1  0  0  0  0
  7  6  1  0  0  0  0
  8  3  1  0  0  0  0
  9  3  1  0  0  0  0
  9 10  1  0  0  0  0
 10 11  1  0  0  0  0
 12 10  2  0  0  0  0
 12 13  1  0  0  0  0
 14 12  1  0  0  0  0
 15 14  1  0  0  0  0
 16 18  1  0  0  0  0
 16 14  2  0  0  0  0
 17 16  1  0  0  0  0
 18  9  2  0  0  0  0
 19  4  1  6  0  0  0
 19 18  1  0  0  0  0
 19  8  1  0  0  0  0
 20  5  2  0  0  0  0
 21 22  1  0  0  0  0
 23 21  1  0  0  0  0
 23 26  1  0  0  0  0
 23 24  1  0  0  0  0
 25 23  1  0  0  0  0
 26 28  1  0  0  0  0
 27 26  1  0  0  0  0
 29 32  1  0  0  0  0
 29 31  1  0  0  0  0
 29 26  1  0  0  0  0
 30 29  1  0  0  0  0
 32 33  1  0  0  0  0
 34 32  1  0  0  0  0
 35 37  1  0  0  0  0
 35 32  1  0  0  0  0
 35 21  1  0  0  0  0
 36 35  1  0  0  0  0
 38 40  1  0  0  0  0
 39 38  1  0  0  0  0
 41 38  1  0  0  0  0
M  END
