15,17
q = -1.0, confidence = 0.0

 35 36  0  0  1  0  0  0  0  0999 V2000
   -4.4134    3.0527   -0.0148 C   0  0  0  0  0  0  0  0  0  0  0  0
   -5.0239    2.2762    0.9971 C   0  0  0  0  0  0  0  0  0  0  0  0
   -4.4896    1.4052    1.3957 H   0  0  0  0  0  0  0  0  0  0  0  0
   -6.2932    2.6335    1.4746 C   0  0  0  0  0  0  0  0  0  0  0  0
   -6.7498    2.0260    2.2714 H   0  0  0  0  0  0  0  0  0  0  0  0
   -6.9782    3.7471    0.9629 C   0  0  0  0  0  0  0  0  0  0  0  0
   -7.9737    4.0158    1.3456 H   0  0  0  0  0  0  0  0  0  0  0  0
   -6.3692    4.5190   -0.0407 C   0  0  0  0  0  0  0  0  0  0  0  0
   -6.8861    5.3985   -0.4538 H   0  0  0  0  0  0  0  0  0  0  0  0
   -5.1022    4.1786   -0.5263 C   0  0  0  0  0  0  0  0  0  0  0  0
   -4.6316    4.7878   -1.3147 H   0  0  0  0  0  0  0  0  0  0  0  0
   -3.1314    2.7912   -0.5167 N   0  0  0  0  0  0  0  0  0  0  0  0
   -2.6973    3.5524   -1.0412 H   0  0  0  0  0  0  0  0  0  0  0  0
   -2.3327    1.6781   -0.3966 C   0  0  2  0  0  3  0  0  0  0  0  0
   -0.7087    1.8119   -1.0470 S   0  0  0  0  0  1  0  0  0  0  0  0
   -2.7927    0.5636    0.1283 N   0  0  0  0  0  2  0  0  0  0  0  0
   -1.8592   -0.4396    0.1479 N   0  0  0  0  0  2  0  0  0  0  0  0
   -2.3001   -1.6851    0.1769 C   0  0  0  0  0  3  0  0  0  0  0  0
   -1.4958   -2.4341    0.2452 H   0  0  0  0  0  0  0  0  0  0  0  0
   -3.6456   -2.2212    0.1081 C   0  0  0  0  0  0  0  0  0  0  0  0
   -3.7671   -3.6234    0.2985 C   0  0  0  0  0  0  0  0  0  0  0  0
   -2.8630   -4.2132    0.5129 H   0  0  0  0  0  0  0  0  0  0  0  0
   -5.0045   -4.2684    0.2217 C   0  0  0  0  0  0  0  0  0  0  0  0
   -5.0992   -5.3530    0.3735 H   0  0  0  0  0  0  0  0  0  0  0  0
   -6.1595   -3.5274   -0.0682 C   0  0  0  0  0  0  0  0  0  0  0  0
   -6.0511   -2.1211   -0.2771 C   0  0  0  0  0  0  0  0  0  0  0  0
   -4.8235   -1.4717   -0.1805 C   0  0  0  0  0  0  0  0  0  0  0  0
   -4.7286   -0.3902   -0.3245 H   0  0  0  0  0  0  0  0  0  0  0  0
   -7.3705   -4.1170   -0.1628 O   0  0  0  0  0  0  0  0  0  0  0  0
   -7.9978   -3.3940   -0.3870 H   0  0  0  0  0  0  0  0  0  0  0  0
   -7.2533   -1.5357   -0.5719 O   0  0  0  0  0  0  0  0  0  0  0  0
   -7.2645   -0.1526   -0.8978 C   0  0  0  0  0  0  0  0  0  0  0  0
   -6.9128    0.4733   -0.0506 H   0  0  0  0  0  0  0  0  0  0  0  0
   -8.3125    0.1067   -1.1344 H   0  0  0  0  0  0  0  0  0  0  0  0
   -6.6226    0.0579   -1.7812 H   0  0  0  0  0  0  0  0  0  0  0  0
  1  2  1  0  0  0  0
  2  3  1  0  0  0  0
  2  4  2  0  0  0  0
  4  5  1  0  0  0  0
  6  7  1  0  0  0  0
  6  4  1  0  0  0  0
  8  6  2  0  0  0  0
  9  8  1  0  0  0  0
 10  8  1  0  0  0  0
 10  1  2  0  0  0  0
 11 10  1  0  0  0  0
 12 14  1  0  0  0  0
 12  1  1  0  0  0  0
 13 12  1  0  0  0  0
 14 15  1  6  0  0  0
 14 16  1  0  0  0  0
 16 17  1  0  0  0  0
 17 18  1  0  0  0  0
 18 19  1  0  0  0  0
 20 18  1  0  0  0  0
 20 21  1  0  0  0  0
 21 22  1  0  0  0  0
 23 21  2  0  0  0  0
 23 24  1  0  0  0  0
 25 23  1  0  0  0  0
 26 27  1  0  0  0  0
 26 25  2  0  0  0  0
 27 20  2  0  0  0  0
 28 27  1  0  0  0  0
 29 25  1  0  0  0  0
 30 29  1  0  0  0  0
 31 26  1  0  0  0  0
 32 31  1  0  0  0  0
 32 33  1  0  0  0  0
 34 32  1  0  0  0  0
 35 32  1  0  0  0  0
M  END
