1,2
q = 0.0, confidence = 0.998

 25 25  0  0  1  0  0  0  0  0999 V2000
   -2.3736    0.8175   -1.0291 S   0  0  0  0  0  1  0  0  0  0  0  0
    2.0337   -0.1210   -0.3849 N   0  0  0  0  0  2  0  0  0  0  0  0
   -0.3458   -1.3830   -0.7152 N   0  0  0  0  0  0  0  0  0  0  0  0
   -1.6249   -1.7171   -0.4385 N   0  0  0  0  0  0  0  0  0  0  0  0
   -1.8056   -2.5628    0.1228 H   0  0  0  0  0  0  0  0  0  0  0  0
   -3.8872   -1.3263   -0.5207 N   0  0  0  0  0  0  0  0  0  0  0  0
   -3.9847   -2.3441   -0.5088 H   0  0  0  0  0  0  0  0  0  0  0  0
    0.3564   -2.9452    0.9240 N   0  0  0  0  0  0  0  0  0  0  0  0
   -0.2122   -2.4564    1.6531 H   0  0  0  0  0  0  0  0  0  0  0  0
    1.2164   -3.2748    1.3730 H   0  0  0  0  0  0  0  0  0  0  0  0
    3.2119    0.4860   -0.5823 C   0  0  0  0  0  3  0  0  0  0  0  0
    3.1644    1.5905   -0.6009 H   0  0  0  0  0  0  0  0  0  0  0  0
    4.4057   -0.2398   -0.7273 C   0  0  0  0  0  0  0  0  0  0  0  0
    5.3569    0.2880   -0.8865 H   0  0  0  0  0  0  0  0  0  0  0  0
    4.3537   -1.6390   -0.6515 C   0  0  0  0  0  0  0  0  0  0  0  0
    5.2697   -2.2394   -0.7592 H   0  0  0  0  0  0  0  0  0  0  0  0
    3.1180   -2.2706   -0.4429 C   0  0  0  0  0  0  0  0  0  0  0  0
    3.0426   -3.3675   -0.3975 H   0  0  0  0  0  0  0  0  0  0  0  0
    1.9696   -1.4689   -0.3256 C   0  0  0  0  0  0  0  0  0  0  0  0
    0.6008   -1.9983   -0.0679 C   0  0  0  0  0  0  0  0  0  0  0  0
   -2.6376   -0.8143   -0.6505 C   0  0  1  0  0  3  0  0  0  0  0  0
   -5.0995   -0.5336   -0.5773 C   0  0  0  0  0  0  0  0  0  0  0  0
   -5.9230   -1.1015   -0.1044 H   0  0  0  0  0  0  0  0  0  0  0  0
   -5.3857   -0.2783   -1.6206 H   0  0  0  0  0  0  0  0  0  0  0  0
   -4.9431    0.4173   -0.0314 H   0  0  0  0  0  0  0  0  0  0  0  0
  2 19  1  0  0  0  0
  3  4  1  0  0  0  0
  3 20  2  0  0  0  0
  4  5  1  0  0  0  0
  6  7  1  0  0  0  0
  8 10  1  0  0  0  0
  8  9  1  0  0  0  0
 11  2  1  0  0  0  0
 12 11  1  0  0  0  0
 13 15  2  0  0  0  0
 13 11  1  0  0  0  0
 14 13  1  0  0  0  0
 15 17  1  0  0  0  0
 16 15  1  0  0  0  0
 17 18  1  0  0  0  0
 17 19  2  0  0  0  0
 19 20  1  0  0  0  0
 20  8  1  0  0  0  0
 21  1  1  1  0  0  0
 21  6  1  0  0  0  0
 21  4  1  0  0  0  0
 22  6  1  0  0  0  0
 22 23  1  0  0  0  0
 22 25  1  0  0  0  0
 24 22  1  0  0  0  0
M  END
