1,2
q = -1.0, confidence = 0.002

 32 32  0  0  0  0  0  0  0  0999 V2000
    2.0548   -0.2305   -1.8907 S   0  0  0  0  0  1  0  0  0  0  0  0
    0.9712    1.2973    0.4675 N   0  0  0  0  0  2  0  0  0  0  0  0
    2.3240    1.3495    0.3830 N   0  0  0  0  0  0  0  0  0  0  0  0
    4.2492    0.8226   -0.7349 N   0  0  0  0  0  0  0  0  0  0  0  0
    2.8842    0.7193   -0.6495 C   0  0  0  0  0  0  0  0  0  0  0  0
    4.9908    1.4835    0.3379 C   0  0  0  0  0  0  0  0  0  0  0  0
    4.4828    2.4365    0.5820 H   0  0  0  0  0  0  0  0  0  0  0  0
    5.9868    1.7265   -0.0839 H   0  0  0  0  0  0  0  0  0  0  0  0
    5.1501    0.6350    1.6168 C   0  0  0  0  0  0  0  0  0  0  0  0
    6.0683    0.9812    2.1392 H   0  0  0  0  0  0  0  0  0  0  0  0
    4.2990    0.8428    2.2957 H   0  0  0  0  0  0  0  0  0  0  0  0
    5.2210   -0.8828    1.3793 C   0  0  0  0  0  0  0  0  0  0  0  0
    5.5568   -1.3586    2.3247 H   0  0  0  0  0  0  0  0  0  0  0  0
    4.1927   -1.2684    1.2011 H   0  0  0  0  0  0  0  0  0  0  0  0
    6.1201   -1.3551    0.2189 C   0  0  0  0  0  0  0  0  0  0  0  0
    6.4472   -2.3961    0.4238 H   0  0  0  0  0  0  0  0  0  0  0  0
    7.0557   -0.7506    0.1896 H   0  0  0  0  0  0  0  0  0  0  0  0
    5.4329   -1.3436   -1.1560 C   0  0  0  0  0  0  0  0  0  0  0  0
    6.0901   -1.8237   -1.9132 H   0  0  0  0  0  0  0  0  0  0  0  0
    4.5102   -1.9618   -1.1043 H   0  0  0  0  0  0  0  0  0  0  0  0
    5.0409    0.0428   -1.6820 C   0  0  0  0  0  0  0  0  0  0  0  0
    5.9512    0.6382   -1.9095 H   0  0  0  0  0  0  0  0  0  0  0  0
    4.4659   -0.0576   -2.6232 H   0  0  0  0  0  0  0  0  0  0  0  0
    0.4105    1.9308    1.4700 C   0  0  0  0  0  3  0  0  0  0  0  0
    1.2437    2.6725    2.4732 C   0  0  0  0  0  0  0  0  0  0  0  0
    1.9492    1.9791    2.9777 H   0  0  0  0  0  0  0  0  0  0  0  0
    0.6165    3.1749    3.2330 H   0  0  0  0  0  0  0  0  0  0  0  0
    1.8854    3.4213    1.9630 H   0  0  0  0  0  0  0  0  0  0  0  0
   -1.0787    1.8897    1.6159 C   0  0  0  0  0  0  0  0  0  0  0  0
   -1.5661    1.4795    0.7101 H   0  0  0  0  0  0  0  0  0  0  0  0
   -1.4812    2.9080    1.8008 H   0  0  0  0  0  0  0  0  0  0  0  0
   -1.3769    1.2689    2.4903 H   0  0  0  0  0  0  0  0  0  0  0  0
  1  5  1  0  0  0  0
  2 24  1  0  0  0  0
  3  2  1  0  0  0  0
  4  5  1  0  0  0  0
  4  6  1  0  0  0  0
  5  3  2  0  0  0  0
  6  7  1  0  0  0  0
  6  9  1  0  0  0  0
  8  6  1  0  0  0  0
  9 10  1  0  0  0  0
  9 11  1  0  0  0  0
 12  9  1  0  0  0  0
 12 13  1  0  0  0  0
 14 12  1  0  0  0  0
 15 16  1  0  0  0  0
 15 12  1  0  0  0  0
 17 15  1  0  0  0  0
 18 20  1  0  0  0  0
 18 15  1  0  0  0  0
 19 18  1  0  0  0  0
 21 18  1  0  0  0  0
 21  4  1  0  0  0  0
 22 21  1  0  0  0  0
 23 21  1  0  0  0  0
 24 29  1  0  0  0  0
 24 25  1  0  0  0  0
 25 26  1  0  0  0  0
 25 27  1  0  0  0  0
 28 25  1  0  0  0  0
 29 31  1  0  0  0  0
 29 32  1  0  0  0  0
 30 29  1  0  0  0  0
M  END
