1,5
q = -1.0

 20 20  0  0  1  0  0  0  0  0999 V2000
    0.4391    2.1044   -0.5099 S   0  0  0  0  0  1  0  0  0  0  0  0
   -5.1007   -1.0002   -0.1213 O   0  0  0  0  0  0  0  0  0  0  0  0
   -1.3160    4.0376    0.0945 N   0  0  0  0  0  0  0  0  0  0  0  0
   -2.1380    1.8887    0.2725 N   0  0  0  0  0  2  0  0  0  0  0  0
   -1.8311    0.5698    0.0940 N   0  0  0  0  0  2  0  0  0  0  0  0
   -1.1219    2.6912    0.0177 C   0  0  1  0  0  3  0  0  0  0  0  0
   -2.8617   -0.2534   -0.0149 C   0  0  0  0  0  3  0  0  0  0  0  0
   -4.2495    0.0836    0.0239 C   0  0  0  0  0  0  0  0  0  0  0  0
   -5.0154    1.2391    0.1677 C   0  0  0  0  0  0  0  0  0  0  0  0
   -6.3786    0.8322    0.1072 C   0  0  0  0  0  0  0  0  0  0  0  0
   -6.3802   -0.5420   -0.0700 C   0  0  0  0  0  0  0  0  0  0  0  0
   -7.4644   -1.5492   -0.2060 C   0  0  0  0  0  0  0  0  0  0  0  0
   -0.5043    4.6506    0.1125 H   0  0  0  0  0  0  0  0  0  0  0  0
   -2.1900    4.3729    0.4989 H   0  0  0  0  0  0  0  0  0  0  0  0
   -2.6262   -1.3179   -0.1573 H   0  0  0  0  0  0  0  0  0  0  0  0
   -4.5966    2.2383    0.3007 H   0  0  0  0  0  0  0  0  0  0  0  0
   -7.2671    1.4688    0.1840 H   0  0  0  0  0  0  0  0  0  0  0  0
   -7.3988   -2.0865   -1.1756 H   0  0  0  0  0  0  0  0  0  0  0  0
   -7.4075   -2.3155    0.5957 H   0  0  0  0  0  0  0  0  0  0  0  0
   -8.4516   -1.0554   -0.1471 H   0  0  0  0  0  0  0  0  0  0  0  0
  2 11  1  0  0  0  0
  2  8  1  0  0  0  0
  3 13  1  0  0  0  0
  3 14  1  0  0  0  0
  5  4  1  0  0  0  0
  6  1  1  6  0  0  0
  6  3  1  0  0  0  0
  6  4  1  0  0  0  0
  7  8  1  0  0  0  0
  7  5  1  0  0  0  0
  8  9  2  0  0  0  0
  9 16  1  0  0  0  0
 10  9  1  0  0  0  0
 10 17  1  0  0  0  0
 11 10  2  0  0  0  0
 12 20  1  0  0  0  0
 12 11  1  0  0  0  0
 12 19  1  0  0  0  0
 15  7  1  0  0  0  0
 18 12  1  0  0  0  0
M  END
