1,5
q = -1.0

 15 14  0  0  1  0  0  0  0  0999 V2000
   -0.7391   -1.2418    0.0075 S   0  0  0  0  0  1  0  0  0  0  0  0
   -3.5611   -1.3429    1.0833 F   0  0  0  0  0  0  0  0  0  0  0  0
   -4.2958    0.4032    0.0106 F   0  0  0  0  0  0  0  0  0  0  0  0
   -3.5642   -1.3223   -1.0973 F   0  0  0  0  0  0  0  0  0  0  0  0
    0.6156    1.7516   -0.0017 N   0  0  0  0  0  2  0  0  0  0  0  0
    1.3163    2.5031   -0.0031 H   0  0  0  0  0  0  0  0  0  0  0  0
   -0.8609    3.6946   -0.0029 C   0  0  0  0  0  0  0  0  0  0  0  0
   -1.4510    3.9910    0.8881 H   0  0  0  0  0  0  0  0  0  0  0  0
   -1.4529    3.9888   -0.8934 H   0  0  0  0  0  0  0  0  0  0  0  0
    0.0863    4.2672   -0.0046 H   0  0  0  0  0  0  0  0  0  0  0  0
   -0.6206    2.2013   -0.0012 C   0  0  1  0  0  3  0  0  0  0  0  0
   -1.7976    1.3805   -0.0002 C   0  0  0  0  0  0  0  0  0  0  0  0
   -2.7429    1.9403   -0.0019 H   0  0  0  0  0  0  0  0  0  0  0  0
   -1.9200    0.0016    0.0026 C   0  0  0  0  0  0  0  0  0  0  0  0
   -3.3475   -0.5664    0.0001 C   0  0  0  0  0  0  0  0  0  0  0  0
  4 15  1  0  0  0  0
  6  5  1  0  0  0  0
  7 11  1  0  0  0  0
  7  8  1  0  0  0  0
  9  7  1  0  0  0  0
 10  7  1  0  0  0  0
 11  5  1  6  0  0  0
 11 12  1  0  0  0  0
 12 14  2  0  0  0  0
 13 12  1  0  0  0  0
 14  1  1  0  0  0  0
 15 14  1  0  0  0  0
 15  3  1  0  0  0  0
 15  2  1  0  0  0  0
M  END
