1,2
q = -1.0, confidence = 0.044

 27 28  0  0  0  0  0  0  0  0999 V2000
   -0.1710   -1.2894   -0.1088 S   0  0  0  0  0  1  0  0  0  0  0  0
    1.1077    1.4453   -0.0634 N   0  0  0  0  0  2  0  0  0  0  0  0
   -2.3285    0.3451   -0.1480 N   0  0  0  0  0  2  0  0  0  0  0  0
    1.8549    2.5731   -0.0620 C   0  0  0  0  0  0  0  0  0  0  0  0
    2.9447    2.4112   -0.0005 H   0  0  0  0  0  0  0  0  0  0  0  0
    1.2637    3.8355   -0.1326 C   0  0  0  0  0  0  0  0  0  0  0  0
    1.9051    4.7277   -0.1290 H   0  0  0  0  0  0  0  0  0  0  0  0
   -0.1355    3.9302   -0.2083 C   0  0  0  0  0  0  0  0  0  0  0  0
   -0.6291    4.9118   -0.2683 H   0  0  0  0  0  0  0  0  0  0  0  0
   -0.8936    2.7581   -0.2084 C   0  0  0  0  0  0  0  0  0  0  0  0
   -1.9910    2.7427   -0.2695 H   0  0  0  0  0  0  0  0  0  0  0  0
   -0.2501    1.5111   -0.1325 C   0  0  0  0  0  0  0  0  0  0  0  0
   -1.0430    0.2539   -0.1281 C   0  0  0  0  0  0  0  0  0  0  0  0
   -3.1331   -0.8500   -0.1544 C   0  0  0  0  0  0  0  0  0  0  0  0
   -2.8103   -1.5302    0.6767 H   0  0  0  0  0  0  0  0  0  0  0  0
   -2.9269   -1.4409   -1.0805 H   0  0  0  0  0  0  0  0  0  0  0  0
   -4.6192   -0.5817   -0.0374 C   0  0  0  0  0  0  0  0  0  0  0  0
   -5.5420   -1.5654   -0.4430 C   0  0  0  0  0  0  0  0  0  0  0  0
   -5.1743   -2.5103   -0.8752 H   0  0  0  0  0  0  0  0  0  0  0  0
   -6.9212   -1.3523   -0.3060 C   0  0  0  0  0  0  0  0  0  0  0  0
   -7.6296   -2.1297   -0.6306 H   0  0  0  0  0  0  0  0  0  0  0  0
   -7.3972   -0.1477    0.2368 C   0  0  0  0  0  0  0  0  0  0  0  0
   -8.4794    0.0221    0.3426 H   0  0  0  0  0  0  0  0  0  0  0  0
   -6.4837    0.8382    0.6407 C   0  0  0  0  0  0  0  0  0  0  0  0
   -6.8489    1.7856    1.0666 H   0  0  0  0  0  0  0  0  0  0  0  0
   -5.1038    0.6218    0.5052 C   0  0  0  0  0  0  0  0  0  0  0  0
   -4.3805    1.3897    0.8164 H   0  0  0  0  0  0  0  0  0  0  0  0
  2  4  1  0  0  0  0
  3 13  1  0  0  0  0
  4  5  1  0  0  0  0
  6  7  1  0  0  0  0
  6  4  2  0  0  0  0
  8  6  1  0  0  0  0
  9  8  1  0  0  0  0
 10  8  2  0  0  0  0
 10 12  1  0  0  0  0
 11 10  1  0  0  0  0
 12 13  2  0  0  0  0
 12  2  1  0  0  0  0
 13  1  1  0  0  0  0
 14  3  1  0  0  0  0
 14 17  1  0  0  0  0
 14 15  1  0  0  0  0
 16 14  1  0  0  0  0
 17 26  1  0  0  0  0
 18 20  1  0  0  0  0
 18 17  2  0  0  0  0
 19 18  1  0  0  0  0
 20 22  2  0  0  0  0
 21 20  1  0  0  0  0
 22 23  1  0  0  0  0
 22 24  1  0  0  0  0
 24 25  1  0  0  0  0
 26 24  2  0  0  0  0
 26 27  1  0  0  0  0
M  END
