1,5
q = -1.0

 36 38  0  0  0  0  0  0  0  0999 V2000
    1.5148   -1.6068   -2.4871 S   0  0  0  0  0  1  0  0  0  0  0  0
    4.2747   -1.8577   -1.5571 S   0  0  0  0  0  0  0  0  0  0  0  0
    3.7430    2.0377    0.9353 N   0  0  0  0  0  0  0  0  0  0  0  0
    3.9757    1.1605    0.4479 H   0  0  0  0  0  0  0  0  0  0  0  0
    1.5501    0.8067   -0.6912 N   0  0  0  0  0  2  0  0  0  0  0  0
    2.7383    0.1371   -0.7068 N   0  0  0  0  0  0  0  0  0  0  0  0
    2.4636    2.5577    0.7925 C   0  0  0  0  0  0  0  0  0  0  0  0
    2.3738    3.7495    1.5353 C   0  0  0  0  0  0  0  0  0  0  0  0
    1.4845    4.3847    1.6139 H   0  0  0  0  0  0  0  0  0  0  0  0
    3.6449    3.9557    2.1474 C   0  0  0  0  0  0  0  0  0  0  0  0
    4.1834    4.9535    2.9992 C   0  0  0  0  0  0  0  0  0  0  0  0
    3.5620    5.8036    3.3190 H   0  0  0  0  0  0  0  0  0  0  0  0
    5.5064    4.8377    3.4204 C   0  0  0  0  0  0  0  0  0  0  0  0
    5.9376    5.6045    4.0812 H   0  0  0  0  0  0  0  0  0  0  0  0
    6.3170    3.7431    3.0117 C   0  0  0  0  0  0  0  0  0  0  0  0
    7.3579    3.6854    3.3643 H   0  0  0  0  0  0  0  0  0  0  0  0
    5.8240    2.7409    2.1741 C   0  0  0  0  0  0  0  0  0  0  0  0
    6.4533    1.8953    1.8590 H   0  0  0  0  0  0  0  0  0  0  0  0
    4.4866    2.8533    1.7457 C   0  0  0  0  0  0  0  0  0  0  0  0
    1.4526    1.9229    0.0040 C   0  0  0  0  0  3  0  0  0  0  0  0
    0.4671    2.4137   -0.0527 H   0  0  0  0  0  0  0  0  0  0  0  0
    2.7762   -0.9373   -1.4809 C   0  0  0  0  0  0  0  0  0  0  0  0
    5.3839   -0.8992   -0.4326 C   0  0  0  0  0  0  0  0  0  0  0  0
    5.4497    0.1337   -0.8288 H   0  0  0  0  0  0  0  0  0  0  0  0
    4.9097   -0.8743    0.5687 H   0  0  0  0  0  0  0  0  0  0  0  0
    6.7323   -1.5662   -0.3945 C   0  0  0  0  0  0  0  0  0  0  0  0
    7.0071   -2.5737    0.5522 C   0  0  0  0  0  0  0  0  0  0  0  0
    6.2298   -2.8588    1.2787 H   0  0  0  0  0  0  0  0  0  0  0  0
    8.2566   -3.2095    0.5746 C   0  0  0  0  0  0  0  0  0  0  0  0
    8.4597   -3.9906    1.3228 H   0  0  0  0  0  0  0  0  0  0  0  0
    9.2461   -2.8498   -0.3544 C   0  0  0  0  0  0  0  0  0  0  0  0
   10.2273   -3.3477   -0.3365 H   0  0  0  0  0  0  0  0  0  0  0  0
    8.9796   -1.8524   -1.3061 C   0  0  0  0  0  0  0  0  0  0  0  0
    9.7511   -1.5665   -2.0369 H   0  0  0  0  0  0  0  0  0  0  0  0
    7.7297   -1.2174   -1.3276 C   0  0  0  0  0  0  0  0  0  0  0  0
    7.5194   -0.4381   -2.0771 H   0  0  0  0  0  0  0  0  0  0  0  0
  1 22  1  0  0  0  0
  2 22  1  0  0  0  0
  2 23  1  0  0  0  0
  3 19  1  0  0  0  0
  4  3  1  0  0  0  0
  5 20  1  0  0  0  0
  6  5  1  0  0  0  0
  7  3  1  0  0  0  0
  7  8  2  0  0  0  0
  8  9  1  0  0  0  0
  8 10  1  0  0  0  0
 10 11  1  0  0  0  0
 11 12  1  0  0  0  0
 11 13  2  0  0  0  0
 13 14  1  0  0  0  0
 15 16  1  0  0  0  0
 15 13  1  0  0  0  0
 17 15  2  0  0  0  0
 18 17  1  0  0  0  0
 19 10  2  0  0  0  0
 19 17  1  0  0  0  0
 20  7  1  0  0  0  0
 21 20  1  0  0  0  0
 22  6  2  0  0  0  0
 23 26  1  0  0  0  0
 23 25  1  0  0  0  0
 24 23  1  0  0  0  0
 26 27  1  0  0  0  0
 27 29  2  0  0  0  0
 27 28  1  0  0  0  0
 29 30  1  0  0  0  0
 31 32  1  0  0  0  0
 31 29  1  0  0  0  0
 33 31  2  0  0  0  0
 34 33  1  0  0  0  0
 35 33  1  0  0  0  0
 35 26  2  0  0  0  0
 36 35  1  0  0  0  0
M  END
