1,2
q = 0.0, confidence = 0.998

 25 26  0  0  0  0  0  0  0  0999 V2000
   -0.6614   -0.9209   -1.3016 S   0  0  0  0  0  0  0  0  0  0  0  0
   -0.1163    1.7958   -0.1347 N   0  0  0  0  0  2  0  0  0  0  0  0
    0.0628    2.7911    0.7532 C   0  0  0  0  0  3  0  0  0  0  0  0
    0.9798    2.7034    1.3632 H   0  0  0  0  0  0  0  0  0  0  0  0
   -0.8481    3.8479    0.8752 C   0  0  0  0  0  0  0  0  0  0  0  0
   -0.6686    4.6444    1.6115 H   0  0  0  0  0  0  0  0  0  0  0  0
   -1.9844    3.8554    0.0537 C   0  0  0  0  0  0  0  0  0  0  0  0
   -2.7305    4.6602    0.1339 H   0  0  0  0  0  0  0  0  0  0  0  0
   -2.1597    2.8198   -0.8761 C   0  0  0  0  0  0  0  0  0  0  0  0
   -3.0348    2.7978   -1.5420 H   0  0  0  0  0  0  0  0  0  0  0  0
   -1.1922    1.8059   -0.9567 C   0  0  0  0  0  0  0  0  0  0  0  0
   -1.2726    0.6969   -1.9727 C   0  0  0  0  0  0  0  0  0  0  0  0
   -2.2968    0.5622   -2.3702 H   0  0  0  0  0  0  0  0  0  0  0  0
   -0.5827    0.8967   -2.8200 H   0  0  0  0  0  0  0  0  0  0  0  0
   -2.0215   -1.2741   -0.1549 C   0  0  0  0  0  0  0  0  0  0  0  0
   -3.1790   -1.8795   -0.6768 C   0  0  0  0  0  0  0  0  0  0  0  0
   -3.2372   -2.1237   -1.7489 H   0  0  0  0  0  0  0  0  0  0  0  0
   -4.2476   -2.1765    0.1821 C   0  0  0  0  0  0  0  0  0  0  0  0
   -5.1556   -2.6502   -0.2206 H   0  0  0  0  0  0  0  0  0  0  0  0
   -4.1515   -1.8848    1.5529 C   0  0  0  0  0  0  0  0  0  0  0  0
   -4.9884   -2.1267    2.2253 H   0  0  0  0  0  0  0  0  0  0  0  0
   -2.9854   -1.2957    2.0673 C   0  0  0  0  0  0  0  0  0  0  0  0
   -2.9052   -1.0745    3.1424 H   0  0  0  0  0  0  0  0  0  0  0  0
   -1.9131   -0.9875    1.2161 C   0  0  0  0  0  0  0  0  0  0  0  0
   -0.9806   -0.5338    1.5904 H   0  0  0  0  0  0  0  0  0  0  0  0
  1 15  1  0  0  0  0
  2  3  1  0  0  0  0
  3  5  1  0  0  0  0
  3  4  1  0  0  0  0
  5  6  1  0  0  0  0
  7  8  1  0  0  0  0
  7  5  2  0  0  0  0
  9  7  1  0  0  0  0
 10  9  1  0  0  0  0
 11  9  2  0  0  0  0
 11  2  1  0  0  0  0
 12  1  1  0  0  0  0
 12 11  1  0  0  0  0
 13 12  1  0  0  0  0
 14 12  1  0  0  0  0
 15 24  1  0  0  0  0
 16 15  2  0  0  0  0
 16 18  1  0  0  0  0
 17 16  1  0  0  0  0
 18 20  2  0  0  0  0
 19 18  1  0  0  0  0
 20 22  1  0  0  0  0
 20 21  1  0  0  0  0
 22 23  1  0  0  0  0
 24 25  1  0  0  0  0
 24 22  2  0  0  0  0
M  END
