1,2
q = 0.0, confidence = 1.0

 29 30  0  0  1  0  0  0  0  0999 V2000
    3.2480   -0.0632   -1.2508 S   0  0  0  0  0  1  0  0  0  0  0  0
   -0.7543    0.8744   -0.0142 N   0  0  0  0  0  2  0  0  0  0  0  0
    0.6688   -1.2812   -0.5502 N   0  0  0  0  0  0  0  0  0  0  0  0
    1.7025   -2.1221   -0.4183 N   0  0  0  0  0  0  0  0  0  0  0  0
    1.6777   -2.8299    0.3317 H   0  0  0  0  0  0  0  0  0  0  0  0
    3.9443   -2.5712   -0.6730 N   0  0  0  0  0  0  0  0  0  0  0  0
    3.7416   -3.5703   -0.6103 H   0  0  0  0  0  0  0  0  0  0  0  0
    4.9006   -2.2717   -0.8585 H   0  0  0  0  0  0  0  0  0  0  0  0
   -1.3700   -0.3148   -0.0318 C   0  0  0  0  0  0  0  0  0  0  0  0
   -1.4625    2.0322   -0.0668 C   0  0  0  0  0  0  0  0  0  0  0  0
   -0.8368    2.9431   -0.0652 H   0  0  0  0  0  0  0  0  0  0  0  0
   -2.8461    2.0402   -0.1033 C   0  0  0  0  0  0  0  0  0  0  0  0
   -3.3956    2.9931   -0.1120 H   0  0  0  0  0  0  0  0  0  0  0  0
   -3.5559    0.8085   -0.1469 C   0  0  0  0  0  0  0  0  0  0  0  0
   -4.9776    0.7456   -0.2352 C   0  0  0  0  0  0  0  0  0  0  0  0
   -5.5490    1.6862   -0.2302 H   0  0  0  0  0  0  0  0  0  0  0  0
   -5.6245   -0.4750   -0.3423 C   0  0  0  0  0  0  0  0  0  0  0  0
   -6.7219   -0.5129   -0.4133 H   0  0  0  0  0  0  0  0  0  0  0  0
   -4.8758   -1.6823   -0.3826 C   0  0  0  0  0  0  0  0  0  0  0  0
   -5.3983   -2.6434   -0.4995 H   0  0  0  0  0  0  0  0  0  0  0  0
   -3.4926   -1.6561   -0.2862 C   0  0  0  0  0  3  0  0  0  0  0  0
   -2.9262   -2.5952   -0.3467 H   0  0  0  0  0  0  0  0  0  0  0  0
   -2.7974   -0.4193   -0.1381 C   0  0  0  0  0  0  0  0  0  0  0  0
   -0.4504   -1.4808    0.0778 C   0  0  0  0  0  0  0  0  0  0  0  0
   -0.6759   -2.6106    1.0423 C   0  0  0  0  0  0  0  0  0  0  0  0
   -1.6659   -2.5613    1.5269 H   0  0  0  0  0  0  0  0  0  0  0  0
   -0.5591   -3.6095    0.5705 H   0  0  0  0  0  0  0  0  0  0  0  0
    0.0913   -2.4889    1.8427 H   0  0  0  0  0  0  0  0  0  0  0  0
    2.9629   -1.6437   -0.7719 C   0  0  2  0  0  3  0  0  0  0  0  0
  3  4  1  0  0  0  0
  3 24  2  0  0  0  0
  4  5  1  0  0  0  0
  6  7  1  0  0  0  0
  8  6  1  0  0  0  0
  9  2  1  0  0  0  0
  9 24  1  0  0  0  0
 10 11  1  0  0  0  0
 10  2  1  0  0  0  0
 12 10  2  0  0  0  0
 13 12  1  0  0  0  0
 14 23  1  0  0  0  0
 14 12  1  0  0  0  0
 15 16  1  0  0  0  0
 15 14  2  0  0  0  0
 17 15  1  0  0  0  0
 18 17  1  0  0  0  0
 19 17  2  0  0  0  0
 19 21  1  0  0  0  0
 20 19  1  0  0  0  0
 21 23  1  0  0  0  0
 22 21  1  0  0  0  0
 23  9  2  0  0  0  0
 24 25  1  0  0  0  0
 25 26  1  0  0  0  0
 25 28  1  0  0  0  0
 27 25  1  0  0  0  0
 29  1  1  1  0  0  0
 29  6  1  0  0  0  0
 29  4  1  0  0  0  0
M  END
