1,2
q = -1.0

 16 15  0  0  0  0  0  0  0  0999 V2000
   -1.6791   -2.1457   -0.0186 S   0  0  0  0  0  1  0  0  0  0  0  0
   -3.6219    0.2665    0.1641 N   0  0  0  0  0  0  0  0  0  0  0  0
   -3.4920   -2.1725   -0.3319 C   0  0  0  0  0  0  0  0  0  0  0  0
   -3.8761   -3.1654   -0.0182 H   0  0  0  0  0  0  0  0  0  0  0  0
   -3.7039   -2.0744   -1.4180 H   0  0  0  0  0  0  0  0  0  0  0  0
   -4.1770   -1.0851    0.4687 C   0  0  0  0  0  0  0  0  0  0  0  0
   -3.9983   -1.2700    1.5466 H   0  0  0  0  0  0  0  0  0  0  0  0
   -5.2818   -1.0677    0.2973 H   0  0  0  0  0  0  0  0  0  0  0  0
   -4.0740    0.7568   -1.1553 C   0  0  0  0  0  0  0  0  0  0  0  0
   -3.5861    1.7302   -1.3504 H   0  0  0  0  0  0  0  0  0  0  0  0
   -5.1827    0.8749   -1.1700 H   0  0  0  0  0  0  0  0  0  0  0  0
   -3.7734    0.0446   -1.9458 H   0  0  0  0  0  0  0  0  0  0  0  0
   -4.0252    1.2220    1.2162 C   0  0  0  0  0  0  0  0  0  0  0  0
   -3.6626    0.8582    2.1958 H   0  0  0  0  0  0  0  0  0  0  0  0
   -3.5564    2.2014    1.0069 H   0  0  0  0  0  0  0  0  0  0  0  0
   -5.1353    1.3192    1.2474 H   0  0  0  0  0  0  0  0  0  0  0  0
  2  6  1  0  0  0  0
  2 13  1  0  0  0  0
  3  1  1  0  0  0  0
  3  4  1  0  0  0  0
  3  6  1  0  0  0  0
  5  3  1  0  0  0  0
  6  7  1  0  0  0  0
  8  6  1  0  0  0  0
  9  2  1  0  0  0  0
 10  9  1  0  0  0  0
 11  9  1  0  0  0  0
 12  9  1  0  0  0  0
 13 16  1  0  0  0  0
 13 14  1  0  0  0  0
 15 13  1  0  0  0  0
M  END
