2,5
q = -1.0, confidence = 0.008

 36 37  0  0  0  0  0  0  0  0999 V2000
   -7.9631   -0.7744    1.3042 O   0  0  0  0  0  0  0  0  0  0  0  0
    0.1943    2.1376   -1.8049 S   0  0  0  0  0  1  0  0  0  0  0  0
   -2.0180    4.0566   -2.2353 S   0  0  0  0  0  0  0  0  0  0  0  0
   -2.4160    1.5260   -1.4692 N   0  0  0  0  0  0  0  0  0  0  0  0
   -1.8617    0.3169   -1.1434 N   0  0  0  0  0  2  0  0  0  0  0  0
   -3.8243    3.9497   -2.0625 C   0  0  0  0  0  0  0  0  0  0  0  0
   -4.2198    4.9253   -2.4035 H   0  0  0  0  0  0  0  0  0  0  0  0
   -4.1065    3.7788   -1.0060 H   0  0  0  0  0  0  0  0  0  0  0  0
   -4.2248    3.1343   -2.6936 H   0  0  0  0  0  0  0  0  0  0  0  0
   -1.5204    2.4326   -1.7860 C   0  0  0  0  0  0  0  0  0  0  0  0
   -2.6337   -0.5735   -0.5364 C   0  0  0  0  0  3  0  0  0  0  0  0
   -2.1218   -1.5244   -0.3254 H   0  0  0  0  0  0  0  0  0  0  0  0
   -4.0161   -0.5054   -0.1068 C   0  0  0  0  0  0  0  0  0  0  0  0
   -4.5302   -1.6691    0.5375 C   0  0  0  0  0  0  0  0  0  0  0  0
   -3.8700   -2.5402    0.6724 H   0  0  0  0  0  0  0  0  0  0  0  0
   -5.8397   -1.7320    0.9961 C   0  0  0  0  0  0  0  0  0  0  0  0
   -6.2327   -2.6314    1.4913 H   0  0  0  0  0  0  0  0  0  0  0  0
   -6.7025   -0.6238    0.8271 C   0  0  0  0  0  0  0  0  0  0  0  0
   -6.2191    0.5389    0.1877 C   0  0  0  0  0  0  0  0  0  0  0  0
   -6.8689    1.4112    0.0379 H   0  0  0  0  0  0  0  0  0  0  0  0
   -4.8985    0.5938   -0.2690 C   0  0  0  0  0  0  0  0  0  0  0  0
   -4.5168    1.4899   -0.7698 H   0  0  0  0  0  0  0  0  0  0  0  0
   -8.8800    0.3047    1.1833 C   0  0  0  0  0  0  0  0  0  0  0  0
   -9.0315    0.5660    0.1103 H   0  0  0  0  0  0  0  0  0  0  0  0
   -8.4597    1.2117    1.6815 H   0  0  0  0  0  0  0  0  0  0  0  0
  -10.1980   -0.0677    1.8195 C   0  0  0  0  0  0  0  0  0  0  0  0
  -10.2878   -1.0956    2.7752 C   0  0  0  0  0  0  0  0  0  0  0  0
   -9.3849   -1.6670    3.0321 H   0  0  0  0  0  0  0  0  0  0  0  0
  -11.5186   -1.3922    3.3809 C   0  0  0  0  0  0  0  0  0  0  0  0
  -11.5779   -2.2021    4.1240 H   0  0  0  0  0  0  0  0  0  0  0  0
  -12.6690   -0.6633    3.0433 C   0  0  0  0  0  0  0  0  0  0  0  0
  -13.6331   -0.8976    3.5195 H   0  0  0  0  0  0  0  0  0  0  0  0
  -12.5847    0.3633    2.0888 C   0  0  0  0  0  0  0  0  0  0  0  0
  -13.4832    0.9354    1.8116 H   0  0  0  0  0  0  0  0  0  0  0  0
  -11.3572    0.6554    1.4779 C   0  0  0  0  0  0  0  0  0  0  0  0
  -11.2992    1.4551    0.7216 H   0  0  0  0  0  0  0  0  0  0  0  0
  2 10  1  0  0  0  0
  3  6  1  0  0  0  0
  3 10  1  0  0  0  0
  4  5  1  0  0  0  0
  5 11  1  0  0  0  0
  6  8  1  0  0  0  0
  7  6  1  0  0  0  0
  9  6  1  0  0  0  0
 10  4  2  0  0  0  0
 11 12  1  0  0  0  0
 11 13  1  0  0  0  0
 13 14  1  0  0  0  0
 14 15  1  0  0  0  0
 14 16  2  0  0  0  0
 16 17  1  0  0  0  0
 18 16  1  0  0  0  0
 18  1  1  0  0  0  0
 19 18  2  0  0  0  0
 20 19  1  0  0  0  0
 21 13  2  0  0  0  0
 21 19  1  0  0  0  0
 22 21  1  0  0  0  0
 23  1  1  0  0  0  0
 23 25  1  0  0  0  0
 23 26  1  0  0  0  0
 24 23  1  0  0  0  0
 26 27  1  0  0  0  0
 27 28  1  0  0  0  0
 27 29  2  0  0  0  0
 29 30  1  0  0  0  0
 31 29  1  0  0  0  0
 31 32  1  0  0  0  0
 33 31  2  0  0  0  0
 34 33  1  0  0  0  0
 35 26  2  0  0  0  0
 35 33  1  0  0  0  0
 36 35  1  0  0  0  0
M  END
