1,5
q = -1.0

 20 20  0  0  1  0  0  0  0  0999 V2000
   -0.2944   -2.1158   -0.5714 S   0  0  0  0  0  1  0  0  0  0  0  0
    8.4435    0.2837   -0.0449 F   0  0  0  0  0  0  0  0  0  0  0  0
    1.5334   -3.9449    0.1260 N   0  0  0  0  0  0  0  0  0  0  0  0
    2.2397   -1.7578    0.2995 N   0  0  0  0  0  2  0  0  0  0  0  0
    1.8746   -0.4600    0.0945 N   0  0  0  0  0  2  0  0  0  0  0  0
    1.2746   -2.6154    0.0196 C   0  0  1  0  0  3  0  0  0  0  0  0
    2.8345    0.4374   -0.0416 C   0  0  0  0  0  3  0  0  0  0  0  0
    4.2822    0.2958   -0.0234 C   0  0  0  0  0  0  0  0  0  0  0  0
    5.0093   -0.9110    0.1655 C   0  0  0  0  0  0  0  0  0  0  0  0
    6.4073   -0.9129    0.1582 C   0  0  0  0  0  0  0  0  0  0  0  0
    7.0988    0.2898   -0.0378 C   0  0  0  0  0  0  0  0  0  0  0  0
    6.4193    1.5015   -0.2258 C   0  0  0  0  0  0  0  0  0  0  0  0
    5.0235    1.4948   -0.2162 C   0  0  0  0  0  0  0  0  0  0  0  0
    4.4798    2.4415   -0.3596 H   0  0  0  0  0  0  0  0  0  0  0  0
    6.9790   -1.8409    0.3038 H   0  0  0  0  0  0  0  0  0  0  0  0
    2.4638    1.4606   -0.2042 H   0  0  0  0  0  0  0  0  0  0  0  0
    6.9936    2.4268   -0.3747 H   0  0  0  0  0  0  0  0  0  0  0  0
    4.4402   -1.8346    0.3197 H   0  0  0  0  0  0  0  0  0  0  0  0
    2.4302   -4.2449    0.5060 H   0  0  0  0  0  0  0  0  0  0  0  0
    0.7718   -4.6141    0.0514 H   0  0  0  0  0  0  0  0  0  0  0  0
  2 11  1  0  0  0  0
  3 19  1  0  0  0  0
  5  4  1  0  0  0  0
  6  1  1  6  0  0  0
  6  3  1  0  0  0  0
  6  4  1  0  0  0  0
  7  8  1  0  0  0  0
  7  5  1  0  0  0  0
  8  9  1  0  0  0  0
  9 18  1  0  0  0  0
 10  9  2  0  0  0  0
 10 15  1  0  0  0  0
 11 10  1  0  0  0  0
 12 13  1  0  0  0  0
 12 11  2  0  0  0  0
 13  8  2  0  0  0  0
 14 13  1  0  0  0  0
 16  7  1  0  0  0  0
 17 12  1  0  0  0  0
 20  3  1  0  0  0  0
M  END
