1,2
q = -1.0

 20 21  0  0  1  0  0  0  0  0999 V2000
    1.1884    2.6529   -1.7764 S   0  0  0  0  0  1  0  0  0  0  0  0
    1.5602    0.4026    0.3298 N   0  0  0  0  0  2  0  0  0  0  0  0
    2.5399    0.4280   -0.5736 C   0  0  0  0  0  0  0  0  0  0  0  0
    3.4778   -0.6432   -0.6781 C   0  0  0  0  0  0  0  0  0  0  0  0
    3.3572   -1.7451    0.1467 C   0  0  0  0  0  0  0  0  0  0  0  0
    2.3272   -1.7837    1.1293 C   0  0  0  0  0  0  0  0  0  0  0  0
    2.1420   -2.8705    2.0293 C   0  0  0  0  0  0  0  0  0  0  0  0
    1.1377   -2.8261    2.9862 C   0  0  0  0  0  0  0  0  0  0  0  0
    0.2965   -1.6862    3.0848 C   0  0  0  0  0  0  0  0  0  0  0  0
    0.4434   -0.6127    2.2168 C   0  0  0  0  0  0  0  0  0  0  0  0
    1.4464   -0.6492    1.2094 C   0  0  1  0  0  3  0  0  0  0  0  0
    2.6743    1.6240   -1.4866 C   0  0  0  0  0  0  0  0  0  0  0  0
    4.2736   -0.5837   -1.4350 H   0  0  0  0  0  0  0  0  0  0  0  0
    4.0505   -2.5964    0.0576 H   0  0  0  0  0  0  0  0  0  0  0  0
    2.8142   -3.7397    1.9570 H   0  0  0  0  0  0  0  0  0  0  0  0
    1.0006   -3.6686    3.6808 H   0  0  0  0  0  0  0  0  0  0  0  0
   -0.4780   -1.6483    3.8661 H   0  0  0  0  0  0  0  0  0  0  0  0
   -0.1724    0.3006    2.3008 H   0  0  0  0  0  0  0  0  0  0  0  0
    3.0718    1.2742   -2.4627 H   0  0  0  0  0  0  0  0  0  0  0  0
    3.4799    2.2610   -1.0511 H   0  0  0  0  0  0  0  0  0  0  0  0
  1 12  1  0  0  0  0
  3  2  1  0  0  0  0
  4  3  2  0  0  0  0
  4  5  1  0  0  0  0
  5  6  2  0  0  0  0
  6 11  1  0  0  0  0
  6  7  1  0  0  0  0
  7  8  2  0  0  0  0
  8  9  1  0  0  0  0
  8 16  1  0  0  0  0
  9 17  1  0  0  0  0
 10 18  1  0  0  0  0
 10  9  2  0  0  0  0
 11  2  1  1  0  0  0
 11 10  1  0  0  0  0
 12 20  1  0  0  0  0
 12  3  1  0  0  0  0
 13  4  1  0  0  0  0
 14  5  1  0  0  0  0
 15  7  1  0  0  0  0
 19 12  1  0  0  0  0
M  END
