1,2
q = -1.0

 14 14  0  0  0  0  0  0  0  0999 V2000
    1.1774   -1.6848   -0.1293 S   0  0  0  0  0  1  0  0  0  0  0  0
    1.7607    1.3329   -0.0009 N   0  0  0  0  0  0  0  0  0  0  0  0
    2.7778   -0.9221   -0.0587 C   0  0  0  0  0  0  0  0  0  0  0  0
    3.9226   -1.7493   -0.0669 C   0  0  0  0  0  0  0  0  0  0  0  0
    5.1997   -1.1807   -0.0118 C   0  0  0  0  0  0  0  0  0  0  0  0
    5.3626    0.2142    0.0524 C   0  0  0  0  0  0  0  0  0  0  0  0
    4.2325    1.0409    0.0582 C   0  0  0  0  0  0  0  0  0  0  0  0
    2.9509    0.4725    0.0016 C   0  0  0  0  0  0  0  0  0  0  0  0
    1.7919    1.9622    0.8174 H   0  0  0  0  0  0  0  0  0  0  0  0
    1.7862    1.9523   -0.8273 H   0  0  0  0  0  0  0  0  0  0  0  0
    3.8019   -2.8418   -0.1145 H   0  0  0  0  0  0  0  0  0  0  0  0
    6.0814   -1.8382   -0.0171 H   0  0  0  0  0  0  0  0  0  0  0  0
    6.3673    0.6576    0.0973 H   0  0  0  0  0  0  0  0  0  0  0  0
    4.3463    2.1357    0.1060 H   0  0  0  0  0  0  0  0  0  0  0  0
  1  3  1  0  0  0  0
  2  8  1  0  0  0  0
  2  9  1  0  0  0  0
  3  8  1  0  0  0  0
  4  3  2  0  0  0  0
  4  5  1  0  0  0  0
  5  6  2  0  0  0  0
  6  7  1  0  0  0  0
  6 13  1  0  0  0  0
  7 14  1  0  0  0  0
  8  7  2  0  0  0  0
 10  2  1  0  0  0  0
 11  4  1  0  0  0  0
 12  5  1  0  0  0  0
M  END
