1,4
q = -1.0

 38 40  0  0  1  0  0  0  0  0999 V2000
    2.0472    0.1174   -2.2287 S   0  0  0  0  0  1  0  0  0  0  0  0
   -3.3800    2.8438    0.7127 O   0  0  0  0  0  0  0  0  0  0  0  0
   -1.5802    4.1103    0.2912 O   0  0  0  0  0  0  0  0  0  0  0  0
    0.9315    1.3307    0.2846 N   0  0  0  0  0  2  0  0  0  0  0  0
    2.2728    1.4801    0.1910 N   0  0  0  0  0  0  0  0  0  0  0  0
    4.1862    1.1544   -1.0090 N   0  0  0  0  0  0  0  0  0  0  0  0
   -3.9598    1.7062    1.1781 C   0  0  0  0  0  0  0  0  0  0  0  0
   -5.3603    1.6115    1.1032 C   0  0  0  0  0  0  0  0  0  0  0  0
   -5.9227    2.4436    0.6567 H   0  0  0  0  0  0  0  0  0  0  0  0
   -5.9954    0.4733    1.6120 C   0  0  0  0  0  0  0  0  0  0  0  0
   -7.0927    0.4009    1.5666 H   0  0  0  0  0  0  0  0  0  0  0  0
   -5.2450   -0.5715    2.1927 C   0  0  0  0  0  0  0  0  0  0  0  0
   -5.7562   -1.4573    2.5973 H   0  0  0  0  0  0  0  0  0  0  0  0
   -3.8538   -0.4769    2.2528 C   0  0  0  0  0  0  0  0  0  0  0  0
   -3.2519   -1.2837    2.6958 H   0  0  0  0  0  0  0  0  0  0  0  0
   -3.1836    0.6608    1.7433 C   0  0  0  0  0  0  0  0  0  0  0  0
   -1.7530    0.8119    1.7455 C   0  0  0  0  0  0  0  0  0  0  0  0
   -1.1213    0.0208    2.1816 H   0  0  0  0  0  0  0  0  0  0  0  0
   -1.1723    1.9401    1.2230 C   0  0  0  0  0  0  0  0  0  0  0  0
   -1.9947    3.0497    0.7089 C   0  0  0  0  0  0  0  0  0  0  0  0
    0.2918    2.1245    1.1142 C   0  0  2  0  0  3  0  0  0  0  0  0
    0.9925    3.1954    1.8880 C   0  0  0  0  0  0  0  0  0  0  0  0
    1.6926    3.7457    1.2279 H   0  0  0  0  0  0  0  0  0  0  0  0
    1.6108    2.7299    2.6860 H   0  0  0  0  0  0  0  0  0  0  0  0
    0.2713    3.8955    2.3450 H   0  0  0  0  0  0  0  0  0  0  0  0
    2.8434    0.9667   -0.9040 C   0  0  0  0  0  0  0  0  0  0  0  0
    4.9903    0.7707   -2.1696 C   0  0  0  0  0  0  0  0  0  0  0  0
    4.6715    1.3489   -3.0674 H   0  0  0  0  0  0  0  0  0  0  0  0
    4.8479   -0.3022   -2.4093 H   0  0  0  0  0  0  0  0  0  0  0  0
    6.4221    1.1110   -1.7379 C   0  0  0  0  0  0  0  0  0  0  0  0
    6.8585    0.2506   -1.1894 H   0  0  0  0  0  0  0  0  0  0  0  0
    7.0802    1.3341   -2.5998 H   0  0  0  0  0  0  0  0  0  0  0  0
    6.2321    2.2985   -0.7828 C   0  0  0  0  0  0  0  0  0  0  0  0
    6.0819    3.2341   -1.3617 H   0  0  0  0  0  0  0  0  0  0  0  0
    7.0920    2.4598   -0.1039 H   0  0  0  0  0  0  0  0  0  0  0  0
    4.9458    1.9394   -0.0286 C   0  0  0  0  0  0  0  0  0  0  0  0
    5.1450    1.3259    0.8786 H   0  0  0  0  0  0  0  0  0  0  0  0
    4.3477    2.8125    0.2989 H   0  0  0  0  0  0  0  0  0  0  0  0
  1 26  1  0  0  0  0
  2  7  1  0  0  0  0
  3 20  2  0  0  0  0
  5  4  1  0  0  0  0
  6 26  1  0  0  0  0
  6 36  1  0  0  0  0
  7 16  1  0  0  0  0
  8  7  2  0  0  0  0
  8 10  1  0  0  0  0
  9  8  1  0  0  0  0
 10 12  2  0  0  0  0
 11 10  1  0  0  0  0
 12 14  1  0  0  0  0
 12 13  1  0  0  0  0
 14 15  1  0  0  0  0
 16 17  1  0  0  0  0
 16 14  2  0  0  0  0
 17 18  1  0  0  0  0
 19 17  2  0  0  0  0
 20  2  1  0  0  0  0
 20 19  1  0  0  0  0
 21  4  1  6  0  0  0
 21 19  1  0  0  0  0
 21 22  1  0  0  0  0
 22 25  1  0  0  0  0
 22 24  1  0  0  0  0
 23 22  1  0  0  0  0
 26  5  2  0  0  0  0
 27 30  1  0  0  0  0
 27  6  1  0  0  0  0
 28 27  1  0  0  0  0
 29 27  1  0  0  0  0
 30 31  1  0  0  0  0
 30 33  1  0  0  0  0
 32 30  1  0  0  0  0
 33 35  1  0  0  0  0
 33 36  1  0  0  0  0
 34 33  1  0  0  0  0
 36 38  1  0  0  0  0
 36 37  1  0  0  0  0
M  END
