1,2
q = -1.0

  7  6  0  0  1  0  0  0  0  0999 V2000
   -1.4127   -3.2548    0.1408 S   0  0  0  0  0  1  0  0  0  0  0  0
    1.1271   -2.9857    0.1202 N   0  0  0  0  0  2  0  0  0  0  0  0
    0.4277   -5.2645    0.0140 N   0  0  0  0  0  0  0  0  0  0  0  0
    0.2129   -3.9386    0.0871 C   0  0  2  0  0  3  0  0  0  0  0  0
    2.1235   -3.1816   -0.0152 H   0  0  0  0  0  0  0  0  0  0  0  0
   -0.3660   -5.9039   -0.0129 H   0  0  0  0  0  0  0  0  0  0  0  0
    1.3691   -5.6576   -0.0010 H   0  0  0  0  0  0  0  0  0  0  0  0
  3  4  1  0  0  0  0
  4  2  1  0  0  0  0
  4  1  1  6  0  0  0
  5  2  1  0  0  0  0
  6  3  1  0  0  0  0
  7  3  1  0  0  0  0
M  END
