1,6
q = -1.0

 26 28  0  0  1  0  0  0  0  0999 V2000
    3.8030   -1.6808   -0.4254 S   0  0  0  0  0  1  0  0  0  0  0  0
    3.0007   -4.2218   -0.1856 N   0  0  0  0  0  0  0  0  0  0  0  0
    2.3350   -4.9817   -0.3244 H   0  0  0  0  0  0  0  0  0  0  0  0
    3.9971   -4.4269   -0.1658 H   0  0  0  0  0  0  0  0  0  0  0  0
    1.2741   -2.7380   -0.5071 N   0  0  0  0  0  2  0  0  0  0  0  0
    0.9501   -1.4432   -0.6999 N   0  0  0  0  0  2  0  0  0  0  0  0
   -3.8770   -1.6320   -1.3108 N   0  0  0  0  0  0  0  0  0  0  0  0
   -2.8615    1.1231   -2.2841 N   0  0  0  0  0  0  0  0  0  0  0  0
    2.5786   -2.9436   -0.3594 C   0  0  2  0  0  3  0  0  0  0  0  0
   -0.2768   -1.1669   -1.1226 C   0  0  0  0  0  0  0  0  0  0  0  0
   -4.0632   -2.8896   -0.8706 C   0  0  0  0  0  0  0  0  0  0  0  0
   -5.1110   -3.2342   -0.8143 H   0  0  0  0  0  0  0  0  0  0  0  0
   -3.0204   -3.7606   -0.4982 C   0  0  0  0  0  0  0  0  0  0  0  0
   -3.2576   -4.7765   -0.1490 H   0  0  0  0  0  0  0  0  0  0  0  0
   -1.6871   -3.3271   -0.5830 C   0  0  0  0  0  0  0  0  0  0  0  0
   -0.8374   -3.9658   -0.3123 H   0  0  0  0  0  0  0  0  0  0  0  0
   -1.4709   -2.0181   -1.0364 C   0  0  0  0  0  0  0  0  0  0  0  0
   -2.6115   -1.2201   -1.3805 C   0  0  0  0  0  0  0  0  0  0  0  0
   -2.1305    0.1128   -1.8065 C   0  0  0  0  0  0  0  0  0  0  0  0
   -0.7081    0.1285   -1.6671 C   0  0  0  0  0  0  0  0  0  0  0  0
   -0.0058    1.2422   -2.1483 C   0  0  0  0  0  3  0  0  0  0  0  0
    1.0942    1.2804   -2.1246 H   0  0  0  0  0  0  0  0  0  0  0  0
   -0.7670    2.3085   -2.6513 C   0  0  0  0  0  0  0  0  0  0  0  0
   -0.2740    3.2168   -3.0275 H   0  0  0  0  0  0  0  0  0  0  0  0
   -2.1734    2.2096   -2.6769 C   0  0  0  0  0  0  0  0  0  0  0  0
   -2.7748    3.0578   -3.0494 H   0  0  0  0  0  0  0  0  0  0  0  0
  2  4  1  0  0  0  0
  3  2  1  0  0  0  0
  5  9  1  0  0  0  0
  6  5  1  0  0  0  0
  7 11  1  0  0  0  0
  8 19  2  0  0  0  0
  9  1  1  6  0  0  0
  9  2  1  0  0  0  0
 10 17  1  0  0  0  0
 10  6  1  0  0  0  0
 11 12  1  0  0  0  0
 11 13  2  0  0  0  0
 13 14  1  0  0  0  0
 15 13  1  0  0  0  0
 15 16  1  0  0  0  0
 17 15  2  0  0  0  0
 18  7  2  0  0  0  0
 18 17  1  0  0  0  0
 19 20  1  0  0  0  0
 19 18  1  0  0  0  0
 20 10  2  0  0  0  0
 21 22  1  0  0  0  0
 21 20  1  0  0  0  0
 23 21  1  0  0  0  0
 24 23  1  0  0  0  0
 25 23  2  0  0  0  0
 25  8  1  0  0  0  0
 26 25  1  0  0  0  0
M  END
