1,4
q = -1.0, confidence = 0.0

 17 17  0  0  1  0  0  0  0  0999 V2000
    0.2071   -2.1477   -0.4724 S   0  0  0  0  0  1  0  0  0  0  0  0
   -4.9520    1.5627   -0.2153 O   0  0  0  0  0  0  0  0  0  0  0  0
   -2.3421   -1.6338    0.2620 N   0  0  0  0  0  2  0  0  0  0  0  0
   -1.8862   -0.3614    0.0766 N   0  0  0  0  0  2  0  0  0  0  0  0
   -1.7425   -3.8601    0.1951 N   0  0  0  0  0  0  0  0  0  0  0  0
   -1.4148   -2.5485    0.0436 C   0  0  1  0  0  3  0  0  0  0  0  0
   -2.8137    0.5724   -0.0590 C   0  0  0  0  0  3  0  0  0  0  0  0
   -4.2328    0.3951   -0.0309 C   0  0  0  0  0  0  0  0  0  0  0  0
   -5.1249   -0.6632    0.1370 C   0  0  0  0  0  0  0  0  0  0  0  0
   -6.4353   -0.1087    0.0504 C   0  0  0  0  0  0  0  0  0  0  0  0
   -6.2671    1.2446   -0.1643 C   0  0  0  0  0  0  0  0  0  0  0  0
   -2.7246   -4.1076    0.3117 H   0  0  0  0  0  0  0  0  0  0  0  0
   -1.0834   -4.5757   -0.1013 H   0  0  0  0  0  0  0  0  0  0  0  0
   -2.4572    1.6004   -0.2169 H   0  0  0  0  0  0  0  0  0  0  0  0
   -4.8224   -1.6982    0.3057 H   0  0  0  0  0  0  0  0  0  0  0  0
   -7.3900   -0.6393    0.1360 H   0  0  0  0  0  0  0  0  0  0  0  0
   -6.9662    2.0772   -0.2962 H   0  0  0  0  0  0  0  0  0  0  0  0
  2 11  1  0  0  0  0
  2  8  1  0  0  0  0
  4  3  1  0  0  0  0
  5 12  1  0  0  0  0
  6  1  1  6  0  0  0
  6  5  1  0  0  0  0
  6  3  1  0  0  0  0
  7  8  1  0  0  0  0
  7  4  1  0  0  0  0
  8  9  2  0  0  0  0
  9 15  1  0  0  0  0
 10 16  1  0  0  0  0
 10  9  1  0  0  0  0
 11 10  2  0  0  0  0
 13  5  1  0  0  0  0
 14  7  1  0  0  0  0
 17 11  1  0  0  0  0
M  END
