1,2
q = -1.0

 34 35  0  0  1  0  0  0  0  0999 V2000
    0.7922    1.8729   -0.8588 S   0  0  0  0  0  1  0  0  0  0  0  0
    1.8379   -0.5694    0.0199 N   0  0  0  0  0  2  0  0  0  0  0  0
    2.8325    0.3663    0.0691 N   0  0  0  0  0  2  0  0  0  0  0  0
    2.3498   -4.5148    0.1281 O   0  0  0  0  0  0  0  0  0  0  0  0
    2.4292    1.5614   -0.3114 C   0  0  1  0  0  3  0  0  0  0  0  0
    3.2923    2.6278   -0.3595 N   0  0  0  0  0  0  0  0  0  0  0  0
    2.8659    3.4758   -0.7371 H   0  0  0  0  0  0  0  0  0  0  0  0
    3.4964   -2.4577   -0.1802 C   0  0  0  0  0  0  0  0  0  0  0  0
    4.6493    2.7359   -0.0223 C   0  0  0  0  0  0  0  0  0  0  0  0
    5.3473    1.7592    0.7232 C   0  0  0  0  0  0  0  0  0  0  0  0
    4.8124    0.8639    1.0605 H   0  0  0  0  0  0  0  0  0  0  0  0
    6.7024    1.9545    1.0236 C   0  0  0  0  0  0  0  0  0  0  0  0
    7.2320    1.1836    1.6044 H   0  0  0  0  0  0  0  0  0  0  0  0
    7.3821    3.1093    0.6056 C   0  0  0  0  0  0  0  0  0  0  0  0
    8.4458    3.2502    0.8474 H   0  0  0  0  0  0  0  0  0  0  0  0
    6.6832    4.0863   -0.1227 C   0  0  0  0  0  0  0  0  0  0  0  0
    7.1956    5.0014   -0.4566 H   0  0  0  0  0  0  0  0  0  0  0  0
    5.3323    3.9039   -0.4365 C   0  0  0  0  0  0  0  0  0  0  0  0
    4.7921    4.6701   -1.0159 H   0  0  0  0  0  0  0  0  0  0  0  0
    2.1859   -1.8417   -0.0670 C   0  0  0  0  0  3  0  0  0  0  0  0
    1.3369   -2.5385   -0.0553 H   0  0  0  0  0  0  0  0  0  0  0  0
    3.5384   -3.8926   -0.0863 C   0  0  0  0  0  0  0  0  0  0  0  0
    2.3109   -5.9262    0.2095 C   0  0  0  0  0  0  0  0  0  0  0  0
    2.9183   -6.3076    1.0603 H   0  0  0  0  0  0  0  0  0  0  0  0
    1.2516   -6.1970    0.3733 H   0  0  0  0  0  0  0  0  0  0  0  0
    2.6681   -6.4052   -0.7293 H   0  0  0  0  0  0  0  0  0  0  0  0
    4.7583   -4.5813   -0.2097 C   0  0  0  0  0  0  0  0  0  0  0  0
    4.7886   -5.6758   -0.1316 H   0  0  0  0  0  0  0  0  0  0  0  0
    5.9482   -3.8701   -0.4311 C   0  0  0  0  0  0  0  0  0  0  0  0
    6.8956   -4.4231   -0.5229 H   0  0  0  0  0  0  0  0  0  0  0  0
    5.9293   -2.4717   -0.5364 C   0  0  0  0  0  0  0  0  0  0  0  0
    6.8592   -1.9127   -0.7174 H   0  0  0  0  0  0  0  0  0  0  0  0
    4.7200   -1.7800   -0.4103 C   0  0  0  0  0  0  0  0  0  0  0  0
    4.6876   -0.6885   -0.4931 H   0  0  0  0  0  0  0  0  0  0  0  0
  2  3  1  0  0  0  0
  4 23  1  0  0  0  0
  5  1  1  6  0  0  0
  5  3  1  0  0  0  0
  6  5  1  0  0  0  0
  6  9  1  0  0  0  0
  7  6  1  0  0  0  0
  8 22  1  0  0  0  0
  8 20  1  0  0  0  0
  9 10  1  0  0  0  0
 10 12  2  0  0  0  0
 10 11  1  0  0  0  0
 12 13  1  0  0  0  0
 14 15  1  0  0  0  0
 14 12  1  0  0  0  0
 16 14  2  0  0  0  0
 17 16  1  0  0  0  0
 18 16  1  0  0  0  0
 18  9  2  0  0  0  0
 19 18  1  0  0  0  0
 20 21  1  0  0  0  0
 20  2  1  0  0  0  0
 22  4  1  0  0  0  0
 23 25  1  0  0  0  0
 23 24  1  0  0  0  0
 26 23  1  0  0  0  0
 27 28  1  0  0  0  0
 27 22  2  0  0  0  0
 29 27  1  0  0  0  0
 30 29  1  0  0  0  0
 31 29  2  0  0  0  0
 31 33  1  0  0  0  0
 32 31  1  0  0  0  0
 33  8  2  0  0  0  0
 34 33  1  0  0  0  0
M  END
