1,2
q = -1.0

 40 41  0  0  0  0  0  0  0  0999 V2000
    1.2566   -2.0046   -0.5730 S   0  0  0  0  0  1  0  0  0  0  0  0
    0.7271    0.9894   -0.9176 N   0  0  0  0  0  2  0  0  0  0  0  0
    3.9967   -1.7081   -0.4734 N   0  0  0  0  0  0  0  0  0  0  0  0
    5.0153   -0.8218   -0.6832 N   0  0  0  0  0  0  0  0  0  0  0  0
    2.7593   -1.1460   -0.6122 C   0  0  0  0  0  0  0  0  0  0  0  0
    3.0036    0.2215   -0.9284 C   0  0  0  0  0  0  0  0  0  0  0  0
    1.9789    1.1441   -1.2797 C   0  0  0  0  0  3  0  0  0  0  0  0
   -0.3479    1.8149   -1.4913 C   0  0  0  0  0  0  0  0  0  0  0  0
   -1.3292    0.9062   -2.2605 C   0  0  0  0  0  0  0  0  0  0  0  0
   -2.5495    1.6909   -2.7485 C   0  0  0  0  0  0  0  0  0  0  0  0
   -2.1382    2.9070   -3.5874 C   0  0  0  0  0  0  0  0  0  0  0  0
   -1.1444    3.7956   -2.8280 C   0  0  0  0  0  0  0  0  0  0  0  0
    0.0848    3.0025   -2.3579 C   0  0  0  0  0  0  0  0  0  0  0  0
    4.4344    0.3440   -0.9643 C   0  0  0  0  0  0  0  0  0  0  0  0
    5.2441    1.5748   -1.2203 C   0  0  0  0  0  0  0  0  0  0  0  0
    4.2951   -3.1202   -0.2183 C   0  0  0  0  0  0  0  0  0  0  0  0
    4.7542   -3.8052   -1.5091 C   0  0  0  0  0  0  0  0  0  0  0  0
    5.3043   -3.2492    0.9234 C   0  0  0  0  0  0  0  0  0  0  0  0
    2.2551    2.0042   -1.9175 H   0  0  0  0  0  0  0  0  0  0  0  0
   -0.9109    2.2252   -0.6250 H   0  0  0  0  0  0  0  0  0  0  0  0
   -1.6329    0.0697   -1.5955 H   0  0  0  0  0  0  0  0  0  0  0  0
   -0.7840    0.4462   -3.1144 H   0  0  0  0  0  0  0  0  0  0  0  0
   -3.1354    2.0286   -1.8636 H   0  0  0  0  0  0  0  0  0  0  0  0
   -3.2221    1.0234   -3.3259 H   0  0  0  0  0  0  0  0  0  0  0  0
   -3.0302    3.4959   -3.8873 H   0  0  0  0  0  0  0  0  0  0  0  0
   -1.6631    2.5555   -4.5308 H   0  0  0  0  0  0  0  0  0  0  0  0
   -0.8219    4.6496   -3.4591 H   0  0  0  0  0  0  0  0  0  0  0  0
   -1.6514    4.2376   -1.9410 H   0  0  0  0  0  0  0  0  0  0  0  0
    0.6460    2.6366   -3.2465 H   0  0  0  0  0  0  0  0  0  0  0  0
    0.7726    3.6656   -1.7904 H   0  0  0  0  0  0  0  0  0  0  0  0
    5.0945    2.3340   -0.4234 H   0  0  0  0  0  0  0  0  0  0  0  0
    4.9673    2.0536   -2.1831 H   0  0  0  0  0  0  0  0  0  0  0  0
    6.3184    1.3144   -1.2544 H   0  0  0  0  0  0  0  0  0  0  0  0
    3.3196   -3.5501    0.0957 H   0  0  0  0  0  0  0  0  0  0  0  0
    3.9779   -3.7194   -2.2948 H   0  0  0  0  0  0  0  0  0  0  0  0
    4.9505   -4.8810   -1.3296 H   0  0  0  0  0  0  0  0  0  0  0  0
    5.6852   -3.3326   -1.8813 H   0  0  0  0  0  0  0  0  0  0  0  0
    4.9192   -2.7725    1.8464 H   0  0  0  0  0  0  0  0  0  0  0  0
    6.2581   -2.7566    0.6519 H   0  0  0  0  0  0  0  0  0  0  0  0
    5.5013   -4.3180    1.1378 H   0  0  0  0  0  0  0  0  0  0  0  0
  3 16  1  0  0  0  0
  4  3  1  0  0  0  0
  5  1  1  0  0  0  0
  5  3  1  0  0  0  0
  6  5  2  0  0  0  0
  7  6  1  0  0  0  0
  7  2  1  0  0  0  0
  8  2  1  0  0  0  0
  8 20  1  0  0  0  0
  9 21  1  0  0  0  0
  9  8  1  0  0  0  0
 10  9  1  0  0  0  0
 10 23  1  0  0  0  0
 11 12  1  0  0  0  0
 11 10  1  0  0  0  0
 12 13  1  0  0  0  0
 12 28  1  0  0  0  0
 13 30  1  0  0  0  0
 13  8  1  0  0  0  0
 14  6  1  0  0  0  0
 14  4  2  0  0  0  0
 15 14  1  0  0  0  0
 15 31  1  0  0  0  0
 16 34  1  0  0  0  0
 16 18  1  0  0  0  0
 17 36  1  0  0  0  0
 17 16  1  0  0  0  0
 18 40  1  0  0  0  0
 18 38  1  0  0  0  0
 19  7  1  0  0  0  0
 22  9  1  0  0  0  0
 24 10  1  0  0  0  0
 25 11  1  0  0  0  0
 26 11  1  0  0  0  0
 27 12  1  0  0  0  0
 29 13  1  0  0  0  0
 32 15  1  0  0  0  0
 33 15  1  0  0  0  0
 35 17  1  0  0  0  0
 37 17  1  0  0  0  0
 39 18  1  0  0  0  0
M  END
