1,4
q = -1.0

 17 17  0  0  1  0  0  0  0  0999 V2000
    1.8528   -1.9897    0.0004 S   0  0  0  0  0  1  0  0  0  0  0  0
    4.8009   -2.0787   -0.0015 S   0  0  0  0  0  0  0  0  0  0  0  0
    3.3522    0.2246   -0.0002 N   0  0  0  0  0  0  0  0  0  0  0  0
    2.1344    0.8751    0.0000 N   0  0  0  0  0  2  0  0  0  0  0  0
    3.3924   -1.2014   -0.0004 C   0  0  0  0  0  0  0  0  0  0  0  0
    5.8437    0.8563    0.0001 C   0  0  0  0  0  0  0  0  0  0  0  0
    6.3950    1.8163    0.0008 H   0  0  0  0  0  0  0  0  0  0  0  0
    6.1405    0.2560   -0.8823 H   0  0  0  0  0  0  0  0  0  0  0  0
    6.1403    0.2547    0.8816 H   0  0  0  0  0  0  0  0  0  0  0  0
    4.3857    1.1526    0.0001 C   0  0  2  0  0  3  0  0  0  0  0  0
    3.7811    2.4039    0.0004 C   0  0  0  0  0  0  0  0  0  0  0  0
    4.3002    3.3677    0.0007 H   0  0  0  0  0  0  0  0  0  0  0  0
    2.3816    2.1976    0.0004 C   0  0  0  0  0  0  0  0  0  0  0  0
    1.3049    3.2298    0.0004 C   0  0  0  0  0  0  0  0  0  0  0  0
    0.6562    3.1357   -0.8937 H   0  0  0  0  0  0  0  0  0  0  0  0
    1.7517    4.2407    0.0015 H   0  0  0  0  0  0  0  0  0  0  0  0
    0.6549    3.1343    0.8935 H   0  0  0  0  0  0  0  0  0  0  0  0
  2  5  2  0  0  0  0
  3  4  1  0  0  0  0
  3 10  1  0  0  0  0
  4 13  1  0  0  0  0
  5  3  1  0  0  0  0
  5  1  1  0  0  0  0
  6  7  1  0  0  0  0
  6  9  1  0  0  0  0
  8  6  1  0  0  0  0
 10  6  1  1  0  0  0
 10 11  1  0  0  0  0
 11 12  1  0  0  0  0
 13 11  2  0  0  0  0
 13 14  1  0  0  0  0
 14 16  1  0  0  0  0
 14 17  1  0  0  0  0
 15 14  1  0  0  0  0
M  END
