1,2
q = -1.0, confidence = 0.0

 13 13  0  0  1  0  0  0  0  0999 V2000
    0.5112   -1.6048   -1.6711 S   0  0  0  0  0  1  0  0  0  0  0  0
    1.6079   -1.0390    0.5407 N   0  0  0  0  0  2  0  0  0  0  0  0
    1.9042   -1.6712   -0.6450 C   0  0  1  0  0  3  0  0  0  0  0  0
    3.0862   -2.2313   -0.9073 N   0  0  0  0  0  0  0  0  0  0  0  0
    4.0059   -2.1637    0.0635 C   0  0  0  0  0  0  0  0  0  0  0  0
    5.3484   -2.8094   -0.2712 C   0  0  0  0  0  0  0  0  0  0  0  0
    3.7897   -1.5439    1.3084 C   0  0  0  0  0  0  0  0  0  0  0  0
    4.5673   -1.5098    2.0806 H   0  0  0  0  0  0  0  0  0  0  0  0
    2.5277   -0.9661    1.5092 C   0  0  0  0  0  0  0  0  0  0  0  0
    2.2344   -0.4372    2.4303 H   0  0  0  0  0  0  0  0  0  0  0  0
    5.9127   -2.2080   -1.3369 F   0  0  0  0  0  0  0  0  0  0  0  0
    5.1950   -4.1149   -0.5575 F   0  0  0  0  0  0  0  0  0  0  0  0
    6.2093   -2.7070    0.7690 F   0  0  0  0  0  0  0  0  0  0  0  0
  2  9  1  0  0  0  0
  3  1  1  1  0  0  0
  3  2  1  0  0  0  0
  4  3  1  0  0  0  0
  4  5  2  0  0  0  0
  5  7  1  0  0  0  0
  6  5  1  0  0  0  0
  6 13  1  0  0  0  0
  7  9  2  0  0  0  0
  7  8  1  0  0  0  0
  9 10  1  0  0  0  0
 11  6  1  0  0  0  0
 12  6  1  0  0  0  0
M  END
