1,9
q = -1.0

 33 34  0  0  0  0  0  0  0  0999 V2000
    0.5467    2.3703   -0.1881 S   0  0  0  0  0  1  0  0  0  0  0  0
   -4.4096    2.0317    1.1754 O   0  0  0  0  0  0  0  0  0  0  0  0
   -3.4550    2.1173    0.7592 H   0  0  0  0  0  0  0  0  0  0  0  0
   -1.4804    4.0939   -0.3567 N   0  0  0  0  0  0  0  0  0  0  0  0
   -0.7037    4.7537   -0.4031 H   0  0  0  0  0  0  0  0  0  0  0  0
   -4.8539   -1.4675   -0.0505 C   0  0  0  0  0  0  0  0  0  0  0  0
   -2.1423    1.9205    0.0338 N   0  0  0  0  0  0  0  0  0  0  0  0
   -4.1568   -0.2413    0.3237 C   0  0  0  0  0  0  0  0  0  0  0  0
   -1.7738    0.6127    0.1867 N   0  0  0  0  0  2  0  0  0  0  0  0
   -4.9259    0.8736    0.7745 C   0  0  0  0  0  0  0  0  0  0  0  0
   -1.1613    2.7892   -0.1586 C   0  0  0  0  0  0  0  0  0  0  0  0
   -6.2872   -1.5465    0.0735 C   0  0  0  0  0  0  0  0  0  0  0  0
   -4.8736   -3.7717   -0.9058 C   0  0  0  0  0  0  0  0  0  0  0  0
   -4.3158   -4.6371   -1.2952 H   0  0  0  0  0  0  0  0  0  0  0  0
   -4.1799   -2.6150   -0.5659 C   0  0  0  0  0  0  0  0  0  0  0  0
   -3.0907   -2.5989   -0.7114 H   0  0  0  0  0  0  0  0  0  0  0  0
   -2.8431    4.6056   -0.3913 C   0  0  0  0  0  0  0  0  0  0  0  0
   -3.2895    4.6030    0.6299 H   0  0  0  0  0  0  0  0  0  0  0  0
   -3.4585    3.9004   -0.9887 H   0  0  0  0  0  0  0  0  0  0  0  0
   -7.0026   -0.4079    0.5553 C   0  0  0  0  0  0  0  0  0  0  0  0
   -8.0975   -0.4756    0.6556 H   0  0  0  0  0  0  0  0  0  0  0  0
   -6.3481    0.7569    0.8837 C   0  0  0  0  0  0  0  0  0  0  0  0
   -6.8867    1.6413    1.2537 H   0  0  0  0  0  0  0  0  0  0  0  0
   -2.7053   -0.3078    0.3139 C   0  0  0  0  0  3  0  0  0  0  0  0
   -2.2560   -1.3093    0.4091 H   0  0  0  0  0  0  0  0  0  0  0  0
   -2.8824    6.0055   -0.9896 C   0  0  0  0  0  0  0  0  0  0  0  0
   -2.2781    6.7191   -0.3909 H   0  0  0  0  0  0  0  0  0  0  0  0
   -3.9214    6.3869   -1.0082 H   0  0  0  0  0  0  0  0  0  0  0  0
   -2.4953    6.0103   -2.0286 H   0  0  0  0  0  0  0  0  0  0  0  0
   -6.2806   -3.8449   -0.7674 C   0  0  0  0  0  0  0  0  0  0  0  0
   -6.8186   -4.7640   -1.0438 H   0  0  0  0  0  0  0  0  0  0  0  0
   -6.9709   -2.7405   -0.2881 C   0  0  0  0  0  0  0  0  0  0  0  0
   -8.0669   -2.7674   -0.1810 H   0  0  0  0  0  0  0  0  0  0  0  0
  1 11  1  0  0  0  0
  3  2  1  0  0  0  0
  4 11  1  0  0  0  0
  5  4  1  0  0  0  0
  6 12  1  0  0  0  0
  6  8  2  0  0  0  0
  7  9  1  0  0  0  0
  8 10  1  0  0  0  0
  9 24  1  0  0  0  0
 10 22  2  0  0  0  0
 10  2  1  0  0  0  0
 11  7  2  0  0  0  0
 12 20  2  0  0  0  0
 13 30  1  0  0  0  0
 13 15  2  0  0  0  0
 14 13  1  0  0  0  0
 15  6  1  0  0  0  0
 16 15  1  0  0  0  0
 17  4  1  0  0  0  0
 17 18  1  0  0  0  0
 19 17  1  0  0  0  0
 20 21  1  0  0  0  0
 20 22  1  0  0  0  0
 22 23  1  0  0  0  0
 24  8  1  0  0  0  0
 24 25  1  0  0  0  0
 26 17  1  0  0  0  0
 26 27  1  0  0  0  0
 28 26  1  0  0  0  0
 29 26  1  0  0  0  0
 30 32  2  0  0  0  0
 31 30  1  0  0  0  0
 32 33  1  0  0  0  0
 32 12  1  0  0  0  0
M  END
