1,9
q = -1.0

 22 22  0  0  0  0  0  0  0  0999 V2000
    0.6708    2.2350   -0.1435 S   0  0  0  0  0  1  0  0  0  0  0  0
   -0.9279    2.8965   -0.0498 C   0  0  0  0  0  0  0  0  0  0  0  0
   -0.9993    4.6526   -0.0617 S   0  0  0  0  0  0  0  0  0  0  0  0
   -2.7878    4.9610    0.0069 C   0  0  0  0  0  0  0  0  0  0  0  0
   -2.9010    6.0616   -0.0061 H   0  0  0  0  0  0  0  0  0  0  0  0
   -3.2947    4.5200   -0.8722 H   0  0  0  0  0  0  0  0  0  0  0  0
   -3.2199    4.5498    0.9389 H   0  0  0  0  0  0  0  0  0  0  0  0
   -2.0398    2.1955    0.0187 N   0  0  0  0  0  0  0  0  0  0  0  0
   -1.8827    0.8423    0.0139 N   0  0  0  0  0  2  0  0  0  0  0  0
   -2.9724    0.0859    0.0158 C   0  0  0  0  0  3  0  0  0  0  0  0
   -4.3816    0.4332    0.0282 C   0  0  0  0  0  0  0  0  0  0  0  0
   -4.8910    1.7617    0.0793 C   0  0  0  0  0  0  0  0  0  0  0  0
   -4.1528    2.5690    0.1047 H   0  0  0  0  0  0  0  0  0  0  0  0
   -6.2622    2.0252    0.0977 C   0  0  0  0  0  0  0  0  0  0  0  0
   -6.6134    3.0671    0.1387 H   0  0  0  0  0  0  0  0  0  0  0  0
   -7.1853    0.9687    0.0641 C   0  0  0  0  0  0  0  0  0  0  0  0
   -8.2677    1.1668    0.0773 H   0  0  0  0  0  0  0  0  0  0  0  0
   -6.7257   -0.3555    0.0127 C   0  0  0  0  0  0  0  0  0  0  0  0
   -7.4355   -1.1939   -0.0146 H   0  0  0  0  0  0  0  0  0  0  0  0
   -5.3508   -0.6207   -0.0048 C   0  0  0  0  0  0  0  0  0  0  0  0
   -4.8383   -2.4582   -0.0782 Br  0  0  0  0  0  0  0  0  0  0  0  0
   -2.7643   -0.9908    0.0017 H   0  0  0  0  0  0  0  0  0  0  0  0
  1  2  1  0  0  0  0
  2  8  2  0  0  0  0
  3  2  1  0  0  0  0
  3  4  1  0  0  0  0
  4  7  1  0  0  0  0
  5  4  1  0  0  0  0
  6  4  1  0  0  0  0
  9 10  1  0  0  0  0
  9  8  1  0  0  0  0
 10 11  1  0  0  0  0
 11 12  1  0  0  0  0
 12 14  2  0  0  0  0
 12 13  1  0  0  0  0
 14 15  1  0  0  0  0
 16 17  1  0  0  0  0
 16 14  1  0  0  0  0
 18 16  2  0  0  0  0
 19 18  1  0  0  0  0
 20 18  1  0  0  0  0
 20 11  2  0  0  0  0
 21 20  1  0  0  0  0
 22 10  1  0  0  0  0
M  END
