1,3
q = -1.0, confidence = 0.0

 14 14  0  0  1  0  0  0  0  0999 V2000
    0.4627   -0.3748   -2.4978 S   0  0  0  0  0  1  0  0  0  0  0  0
   -0.6132   -1.4977   -1.7562 C   0  0  1  0  0  3  0  0  0  0  0  0
   -0.5773   -1.5431   -0.3833 N   0  0  0  0  0  2  0  0  0  0  0  0
   -1.3985   -2.3392    0.3150 C   0  0  0  0  0  0  0  0  0  0  0  0
   -2.3157   -3.1914   -0.3091 C   0  0  0  0  0  0  0  0  0  0  0  0
   -2.3641   -3.1877   -1.7263 C   0  0  0  0  0  0  0  0  0  0  0  0
   -1.5248   -2.3507   -2.4484 C   0  0  0  0  0  0  0  0  0  0  0  0
   -1.5542   -2.3203   -3.5460 H   0  0  0  0  0  0  0  0  0  0  0  0
   -3.0781   -3.8426   -2.2492 H   0  0  0  0  0  0  0  0  0  0  0  0
   -3.2007   -4.1088    0.4810 C   0  0  0  0  0  0  0  0  0  0  0  0
   -2.8363   -5.4130    0.3311 F   0  0  0  0  0  0  0  0  0  0  0  0
   -3.1660   -3.8366    1.8069 F   0  0  0  0  0  0  0  0  0  0  0  0
   -4.4954   -4.0280    0.0781 F   0  0  0  0  0  0  0  0  0  0  0  0
   -1.3152   -2.2753    1.4125 H   0  0  0  0  0  0  0  0  0  0  0  0
  2  1  1  1  0  0  0
  2  3  1  0  0  0  0
  3  4  1  0  0  0  0
  4 14  1  0  0  0  0
  5  4  2  0  0  0  0
  5 10  1  0  0  0  0
  6  5  1  0  0  0  0
  7  2  1  0  0  0  0
  7  6  2  0  0  0  0
  8  7  1  0  0  0  0
  9  6  1  0  0  0  0
 10 12  1  0  0  0  0
 11 10  1  0  0  0  0
 13 10  1  0  0  0  0
M  END
