1,5
q = 0.0, confidence = 1.0

 46 48  0  0  1  0  0  0  0  0999 V2000
    2.5183   -0.4638   -0.1071 N   0  0  0  0  0  2  0  0  0  0  0  0
   -2.4104    0.2624    0.1462 N   0  0  0  0  0  0  0  0  0  0  0  0
    2.0169    2.2791    0.0609 O   0  0  0  0  0  0  0  0  0  0  0  0
    0.4427   -2.3460   -0.0345 O   0  0  0  0  0  0  0  0  0  0  0  0
   -0.9322    2.7196    1.0893 S   0  0  0  0  0  0  0  0  0  0  0  0
   -2.4487   -3.3932   -0.5810 S   0  0  0  0  0  0  0  0  0  0  0  0
    4.1320   -2.2407   -0.1121 C   0  0  0  0  0  0  0  0  0  0  0  0
    4.3514   -3.3102    0.0233 H   0  0  0  0  0  0  0  0  0  0  0  0
    5.1387   -1.3315   -0.4615 C   0  0  0  0  0  0  0  0  0  0  0  0
    6.1763   -1.6724   -0.5976 H   0  0  0  0  0  0  0  0  0  0  0  0
    4.8066    0.0170   -0.6419 C   0  0  0  0  0  0  0  0  0  0  0  0
    5.5705    0.7586   -0.9186 H   0  0  0  0  0  0  0  0  0  0  0  0
    3.4678    0.4139   -0.4742 C   0  0  1  0  0  3  0  0  0  0  0  0
    3.0362    1.8220   -0.8089 C   0  0  0  0  0  0  0  0  0  0  0  0
    3.9181    2.5048   -0.7761 H   0  0  0  0  0  0  0  0  0  0  0  0
    2.6478    1.8000   -1.8580 H   0  0  0  0  0  0  0  0  0  0  0  0
    1.3615    3.4363   -0.4425 C   0  0  0  0  0  0  0  0  0  0  0  0
    0.8846    3.1959   -1.4221 H   0  0  0  0  0  0  0  0  0  0  0  0
    2.1042    4.2542   -0.6113 H   0  0  0  0  0  0  0  0  0  0  0  0
    0.3402    3.9282    0.5707 C   0  0  0  0  0  0  0  0  0  0  0  0
   -0.1531    4.8474    0.1938 H   0  0  0  0  0  0  0  0  0  0  0  0
    0.8440    4.1851    1.5249 H   0  0  0  0  0  0  0  0  0  0  0  0
   -2.0434    2.6365   -0.3714 C   0  0  0  0  0  0  0  0  0  0  0  0
   -2.6340    3.5696   -0.4561 H   0  0  0  0  0  0  0  0  0  0  0  0
   -1.4178    2.4928   -1.2840 H   0  0  0  0  0  0  0  0  0  0  0  0
   -2.9579    1.4403   -0.2360 C   0  0  0  0  0  0  0  0  0  0  0  0
   -4.3265    1.5574   -0.5266 C   0  0  0  0  0  0  0  0  0  0  0  0
   -4.7445    2.5318   -0.8182 H   0  0  0  0  0  0  0  0  0  0  0  0
   -5.1374    0.4156   -0.4446 C   0  0  0  0  0  0  0  0  0  0  0  0
   -6.2113    0.4774   -0.6770 H   0  0  0  0  0  0  0  0  0  0  0  0
   -4.5640   -0.7932   -0.0475 C   0  0  0  0  0  0  0  0  0  0  0  0
   -5.1607   -1.7136    0.0292 H   0  0  0  0  0  0  0  0  0  0  0  0
   -3.1884   -0.8335    0.2652 C   0  0  0  0  0  0  0  0  0  0  0  0
   -2.5525   -2.1150    0.7385 C   0  0  0  0  0  0  0  0  0  0  0  0
   -3.1938   -2.5895    1.5084 H   0  0  0  0  0  0  0  0  0  0  0  0
   -1.5592   -1.9296    1.1897 H   0  0  0  0  0  0  0  0  0  0  0  0
   -1.2348   -2.6416   -1.7230 C   0  0  0  0  0  0  0  0  0  0  0  0
   -1.4250   -3.1041   -2.7126 H   0  0  0  0  0  0  0  0  0  0  0  0
   -1.4362   -1.5555   -1.8371 H   0  0  0  0  0  0  0  0  0  0  0  0
    0.2205   -2.8686   -1.3439 C   0  0  0  0  0  0  0  0  0  0  0  0
    0.4590   -3.9580   -1.3424 H   0  0  0  0  0  0  0  0  0  0  0  0
    0.8742   -2.3546   -2.0884 H   0  0  0  0  0  0  0  0  0  0  0  0
    1.6966   -2.6629    0.5412 C   0  0  0  0  0  0  0  0  0  0  0  0
    1.9551   -3.7313    0.3669 H   0  0  0  0  0  0  0  0  0  0  0  0
    1.5612   -2.4901    1.6342 H   0  0  0  0  0  0  0  0  0  0  0  0
    2.8233   -1.7631    0.0715 C   0  0  0  0  0  0  0  0  0  0  0  0
  1 46  1  0  0  0  0
  2 33  1  0  0  0  0
  4 43  1  0  0  0  0
  6 34  1  0  0  0  0
  7  8  1  0  0  0  0
  7 46  2  0  0  0  0
  9  7  1  0  0  0  0
 10  9  1  0  0  0  0
 11  9  2  0  0  0  0
 12 11  1  0  0  0  0
 13 11  1  6  0  0  0
 13  1  1  0  0  0  0
 14 15  1  0  0  0  0
 14 13  1  0  0  0  0
 14  3  1  0  0  0  0
 16 14  1  0  0  0  0
 17  3  1  0  0  0  0
 17 20  1  0  0  0  0
 18 17  1  0  0  0  0
 19 17  1  0  0  0  0
 20  5  1  0  0  0  0
 20 22  1  0  0  0  0
 21 20  1  0  0  0  0
 23 26  1  0  0  0  0
 23  5  1  0  0  0  0
 24 23  1  0  0  0  0
 25 23  1  0  0  0  0
 26  2  2  0  0  0  0
 27 29  2  0  0  0  0
 27 26  1  0  0  0  0
 28 27  1  0  0  0  0
 29 31  1  0  0  0  0
 30 29  1  0  0  0  0
 31 32  1  0  0  0  0
 31 33  2  0  0  0  0
 33 34  1  0  0  0  0
 34 36  1  0  0  0  0
 34 35  1  0  0  0  0
 37 40  1  0  0  0  0
 37  6  1  0  0  0  0
 38 37  1  0  0  0  0
 39 37  1  0  0  0  0
 40 41  1  0  0  0  0
 40  4  1  0  0  0  0
 42 40  1  0  0  0  0
 43 45  1  0  0  0  0
 44 43  1  0  0  0  0
 46 43  1  0  0  0  0
M  END
