1,3
q = -1.0

 28 30  0  0  1  0  0  0  0  0999 V2000
    0.8384    2.0686   -0.6682 S   0  0  0  0  0  1  0  0  0  0  0  0
    6.9018    1.2750    1.1635 S   0  0  0  0  0  0  0  0  0  0  0  0
    1.9210   -0.3510    0.6471 N   0  0  0  0  0  2  0  0  0  0  0  0
    2.2638   -1.4997    1.2478 C   0  0  0  0  0  0  0  0  0  0  0  0
    3.5725   -1.7611    1.7010 C   0  0  0  0  0  0  0  0  0  0  0  0
    4.5607   -0.8077    1.5191 C   0  0  0  0  0  0  0  0  0  0  0  0
    4.2428    0.4201    0.8798 C   0  0  0  0  0  0  0  0  0  0  0  0
    5.2117    1.4501    0.6335 C   0  0  0  0  0  0  0  0  0  0  0  0
    4.8046    2.6351    0.0145 C   0  0  0  0  0  0  0  0  0  0  0  0
    3.4681    2.8418   -0.3755 C   0  0  0  0  0  0  0  0  0  0  0  0
    2.4904    1.8532   -0.1770 C   0  0  0  0  0  0  0  0  0  0  0  0
    2.8826    0.6244    0.4536 C   0  0  2  0  0  3  0  0  0  0  0  0
    7.5632    0.0680    0.0185 C   0  0  0  0  0  0  0  0  0  0  0  0
    8.8097   -0.5055    0.3480 C   0  0  0  0  0  0  0  0  0  0  0  0
    9.3985   -1.4417   -0.5126 C   0  0  0  0  0  0  0  0  0  0  0  0
    8.7511   -1.8248   -1.6990 C   0  0  0  0  0  0  0  0  0  0  0  0
    7.5095   -1.2547   -2.0208 C   0  0  0  0  0  0  0  0  0  0  0  0
    6.9144   -0.3080   -1.1736 C   0  0  0  0  0  0  0  0  0  0  0  0
    1.4700   -2.2482    1.3825 H   0  0  0  0  0  0  0  0  0  0  0  0
    3.7834   -2.7207    2.1930 H   0  0  0  0  0  0  0  0  0  0  0  0
    5.5928   -0.9692    1.8633 H   0  0  0  0  0  0  0  0  0  0  0  0
    5.5545    3.4179   -0.1732 H   0  0  0  0  0  0  0  0  0  0  0  0
    3.1780    3.7867   -0.8578 H   0  0  0  0  0  0  0  0  0  0  0  0
    9.3138   -0.2181    1.2840 H   0  0  0  0  0  0  0  0  0  0  0  0
   10.3718   -1.8820   -0.2468 H   0  0  0  0  0  0  0  0  0  0  0  0
    9.2123   -2.5657   -2.3687 H   0  0  0  0  0  0  0  0  0  0  0  0
    6.9931   -1.5444   -2.9489 H   0  0  0  0  0  0  0  0  0  0  0  0
    5.9469    0.1429   -1.4383 H   0  0  0  0  0  0  0  0  0  0  0  0
  1 11  1  0  0  0  0
  3  4  1  0  0  0  0
  4 19  1  0  0  0  0
  4  5  2  0  0  0  0
  5 20  1  0  0  0  0
  6  5  1  0  0  0  0
  6 21  1  0  0  0  0
  7  6  2  0  0  0  0
  8  7  1  0  0  0  0
  8  2  1  0  0  0  0
  9  8  2  0  0  0  0
 10 11  2  0  0  0  0
 10  9  1  0  0  0  0
 12 11  1  1  0  0  0
 12  3  1  0  0  0  0
 12  7  1  0  0  0  0
 13 14  1  0  0  0  0
 13  2  1  0  0  0  0
 14 24  1  0  0  0  0
 15 25  1  0  0  0  0
 15 14  2  0  0  0  0
 16 15  1  0  0  0  0
 17 16  2  0  0  0  0
 17 18  1  0  0  0  0
 18 13  2  0  0  0  0
 22  9  1  0  0  0  0
 23 10  1  0  0  0  0
 26 16  1  0  0  0  0
 27 17  1  0  0  0  0
 28 18  1  0  0  0  0
M  END
