1,4
q = -1.0

 28 29  0  0  1  0  0  0  0  0999 V2000
    1.1527    1.7383    0.1687 S   0  0  0  0  0  1  0  0  0  0  0  0
    2.7406    0.9336    0.4194 C   0  0  0  0  0  0  0  0  0  0  0  0
    2.9022   -0.3219    0.1278 N   0  0  0  0  0  0  0  0  0  0  0  0
    1.7944   -0.9691   -0.4068 N   0  0  0  0  0  2  0  0  0  0  0  0
    2.0977   -2.2680   -0.7135 C   0  0  1  0  0  3  0  0  0  0  0  0
    1.2425   -3.2066   -1.3541 C   0  0  0  0  0  0  0  0  0  0  0  0
    1.7080   -4.4873   -1.6165 C   0  0  0  0  0  0  0  0  0  0  0  0
    3.0329   -4.8739   -1.2791 C   0  0  0  0  0  0  0  0  0  0  0  0
    3.8545   -3.9300   -0.6952 C   0  0  0  0  0  0  0  0  0  0  0  0
    3.3771   -2.6857   -0.4319 N   0  0  0  0  0  0  0  0  0  0  0  0
    3.7237    1.7331    0.9228 N   0  0  0  0  0  0  0  0  0  0  0  0
    5.0493    1.4085    1.2830 C   0  0  0  0  0  0  0  0  0  0  0  0
    6.0017    2.4503    1.2833 C   0  0  0  0  0  0  0  0  0  0  0  0
    7.3255    2.1952    1.6585 C   0  0  0  0  0  0  0  0  0  0  0  0
    7.7201    0.9010    2.0344 C   0  0  0  0  0  0  0  0  0  0  0  0
    6.7701   -0.1314    2.0453 C   0  0  0  0  0  0  0  0  0  0  0  0
    5.4394    0.1104    1.6755 C   0  0  0  0  0  0  0  0  0  0  0  0
    3.9459   -1.9104   -0.0348 H   0  0  0  0  0  0  0  0  0  0  0  0
    3.4795    2.7237    0.9821 H   0  0  0  0  0  0  0  0  0  0  0  0
    0.2314   -2.9007   -1.6465 H   0  0  0  0  0  0  0  0  0  0  0  0
    1.0404   -5.2074   -2.1122 H   0  0  0  0  0  0  0  0  0  0  0  0
    3.4119   -5.8815   -1.4919 H   0  0  0  0  0  0  0  0  0  0  0  0
    4.9038   -4.1132   -0.4246 H   0  0  0  0  0  0  0  0  0  0  0  0
    5.6992    3.4654    0.9808 H   0  0  0  0  0  0  0  0  0  0  0  0
    8.0566    3.0172    1.6519 H   0  0  0  0  0  0  0  0  0  0  0  0
    8.7616    0.7011    2.3249 H   0  0  0  0  0  0  0  0  0  0  0  0
    7.0641   -1.1440    2.3606 H   0  0  0  0  0  0  0  0  0  0  0  0
    4.6908   -0.6895    1.7246 H   0  0  0  0  0  0  0  0  0  0  0  0
  1  2  1  0  0  0  0
  2 11  1  0  0  0  0
  3  2  2  0  0  0  0
  4  3  1  0  0  0  0
  5 10  1  0  0  0  0
  5  4  1  6  0  0  0
  6  5  1  0  0  0  0
  7  6  2  0  0  0  0
  7  8  1  0  0  0  0
  8  9  2  0  0  0  0
  9 10  1  0  0  0  0
  9 23  1  0  0  0  0
 10 18  1  0  0  0  0
 11 19  1  0  0  0  0
 11 12  1  0  0  0  0
 12 13  2  0  0  0  0
 12 17  1  0  0  0  0
 13 14  1  0  0  0  0
 14 15  2  0  0  0  0
 15 16  1  0  0  0  0
 15 26  1  0  0  0  0
 16 27  1  0  0  0  0
 17 28  1  0  0  0  0
 17 16  2  0  0  0  0
 20  6  1  0  0  0  0
 21  7  1  0  0  0  0
 22  8  1  0  0  0  0
 24 13  1  0  0  0  0
 25 14  1  0  0  0  0
M  END
