1,3
q = -1.0, confidence = 0.0

 26 25  0  0  1  0  0  0  0  0999 V2000
   -2.0234    0.0822   -0.0638 S   0  0  0  0  0  1  0  0  0  0  0  0
   -4.8881   -0.7425   -0.0580 S   0  0  0  0  0  0  0  0  0  0  0  0
   -0.4979   -2.4290   -0.2824 N   0  0  0  0  0  2  0  0  0  0  0  0
   -4.9214   -4.2312   -0.3418 N   0  0  0  0  0  0  0  0  0  0  0  0
   -3.1815   -1.1820   -0.1205 C   0  0  1  0  0  3  0  0  0  0  0  0
   -2.9165   -2.5691   -0.2495 C   0  0  0  0  0  0  0  0  0  0  0  0
   -1.5988   -3.1447   -0.3485 C   0  0  0  0  0  0  0  0  0  0  0  0
   -4.8780    1.0753    0.1415 C   0  0  0  0  0  0  0  0  0  0  0  0
   -6.3216    1.5618    0.2717 C   0  0  0  0  0  0  0  0  0  0  0  0
   -6.4072    3.0836    0.4380 C   0  0  0  0  0  0  0  0  0  0  0  0
   -7.8436    3.5902    0.5710 C   0  0  0  0  0  0  0  0  0  0  0  0
   -4.0243   -3.4696   -0.2984 C   0  0  0  0  0  0  0  0  0  0  0  0
   -1.4923   -4.6394   -0.5345 C   0  0  0  0  0  0  0  0  0  0  0  0
    0.3656   -2.9830   -0.3740 H   0  0  0  0  0  0  0  0  0  0  0  0
   -4.2775    1.3306    1.0391 H   0  0  0  0  0  0  0  0  0  0  0  0
   -4.3740    1.5294   -0.7367 H   0  0  0  0  0  0  0  0  0  0  0  0
   -6.9025    1.2517   -0.6247 H   0  0  0  0  0  0  0  0  0  0  0  0
   -6.8054    1.0633    1.1402 H   0  0  0  0  0  0  0  0  0  0  0  0
   -5.8163    3.3861    1.3307 H   0  0  0  0  0  0  0  0  0  0  0  0
   -5.9134    3.5733   -0.4303 H   0  0  0  0  0  0  0  0  0  0  0  0
   -8.3491    3.1422    1.4516 H   0  0  0  0  0  0  0  0  0  0  0  0
   -7.8780    4.6916    0.6897 H   0  0  0  0  0  0  0  0  0  0  0  0
   -8.4472    3.3303   -0.3234 H   0  0  0  0  0  0  0  0  0  0  0  0
   -2.0163   -4.9597   -1.4575 H   0  0  0  0  0  0  0  0  0  0  0  0
   -0.4347   -4.9593   -0.5936 H   0  0  0  0  0  0  0  0  0  0  0  0
   -1.9819   -5.1748    0.3039 H   0  0  0  0  0  0  0  0  0  0  0  0
  2  8  1  0  0  0  0
  4 12  3  0  0  0  0
  5  1  1  6  0  0  0
  5  2  1  0  0  0  0
  6  5  1  0  0  0  0
  7  3  1  0  0  0  0
  7  6  2  0  0  0  0
  8  9  1  0  0  0  0
  8 15  1  0  0  0  0
  9 10  1  0  0  0  0
  9 18  1  0  0  0  0
 10 11  1  0  0  0  0
 10 19  1  0  0  0  0
 11 22  1  0  0  0  0
 11 21  1  0  0  0  0
 12  6  1  0  0  0  0
 13  7  1  0  0  0  0
 13 26  1  0  0  0  0
 14  3  1  0  0  0  0
 16  8  1  0  0  0  0
 17  9  1  0  0  0  0
 20 10  1  0  0  0  0
 23 11  1  0  0  0  0
 24 13  1  0  0  0  0
 25 13  1  0  0  0  0
M  END
