1,2
q = -1.0, confidence = 0.0

 22 22  0  0  1  0  0  0  0  0999 V2000
   -0.3903   -2.3465   -0.7196 S   0  0  0  0  0  1  0  0  0  0  0  0
   -1.3915   -0.0301   -0.4230 N   0  0  0  0  0  2  0  0  0  0  0  0
   -2.9986   -1.5652   -1.0497 O   0  0  0  0  0  0  0  0  0  0  0  0
   -2.9718    3.2172   -1.3355 C   0  0  0  0  0  0  0  0  0  0  0  0
   -2.8295    4.0277   -2.0659 H   0  0  0  0  0  0  0  0  0  0  0  0
   -1.7511   -1.2567   -0.7311 C   0  0  1  0  0  3  0  0  0  0  0  0
   -2.2945    1.0641   -0.4225 C   0  0  0  0  0  0  0  0  0  0  0  0
   -2.1129    2.1101   -1.3505 C   0  0  0  0  0  0  0  0  0  0  0  0
   -1.2917    2.0391   -2.0792 H   0  0  0  0  0  0  0  0  0  0  0  0
   -4.0161    3.2899   -0.3985 C   0  0  0  0  0  0  0  0  0  0  0  0
   -4.6890    4.1600   -0.3886 H   0  0  0  0  0  0  0  0  0  0  0  0
   -3.3445    1.1366    0.5163 C   0  0  0  0  0  0  0  0  0  0  0  0
   -3.4836    0.3151    1.2345 H   0  0  0  0  0  0  0  0  0  0  0  0
   -3.3461   -2.9518   -1.3111 C   0  0  0  0  0  0  0  0  0  0  0  0
   -2.5016   -3.4308   -1.8512 H   0  0  0  0  0  0  0  0  0  0  0  0
   -4.2112   -2.8869   -1.9979 H   0  0  0  0  0  0  0  0  0  0  0  0
   -3.6898   -3.6833   -0.0280 C   0  0  0  0  0  0  0  0  0  0  0  0
   -4.0134   -4.7166   -0.2637 H   0  0  0  0  0  0  0  0  0  0  0  0
   -4.5165   -3.1785    0.5092 H   0  0  0  0  0  0  0  0  0  0  0  0
   -2.8081   -3.7466    0.6403 H   0  0  0  0  0  0  0  0  0  0  0  0
   -4.2015    2.2460    0.5225 C   0  0  0  0  0  0  0  0  0  0  0  0
   -5.0217    2.2956    1.2543 H   0  0  0  0  0  0  0  0  0  0  0  0
  2  7  1  0  0  0  0
  3  6  1  0  0  0  0
  4 10  1  0  0  0  0
  5  4  1  0  0  0  0
  6  1  1  6  0  0  0
  6  2  1  0  0  0  0
  7 12  2  0  0  0  0
  8  4  2  0  0  0  0
  8  7  1  0  0  0  0
  9  8  1  0  0  0  0
 10 11  1  0  0  0  0
 10 21  2  0  0  0  0
 12 21  1  0  0  0  0
 12 13  1  0  0  0  0
 14  3  1  0  0  0  0
 14 17  1  0  0  0  0
 15 14  1  0  0  0  0
 16 14  1  0  0  0  0
 17 19  1  0  0  0  0
 17 20  1  0  0  0  0
 18 17  1  0  0  0  0
 21 22  1  0  0  0  0
M  END
