1,17
q = -1.0

 19 18  0  0  1  0  0  0  0  0999 V2000
    1.6327    0.2530   -1.8098 S   0  0  0  0  0  1  0  0  0  0  0  0
    3.9403   -0.5986    0.2580 C   0  0  0  0  0  0  0  0  0  0  0  0
    3.5669   -1.5157   -0.9146 C   0  0  2  0  0  0  0  0  0  0  0  0
    4.4655   -2.1454   -1.1315 H   0  0  0  0  0  0  0  0  0  0  0  0
    3.1362   -0.7564   -2.1619 C   0  0  0  0  0  0  0  0  0  0  0  0
    2.9458   -1.4758   -2.9874 H   0  0  0  0  0  0  0  0  0  0  0  0
    3.9436   -0.0708   -2.4852 H   0  0  0  0  0  0  0  0  0  0  0  0
    4.8519    1.5090    0.8405 C   0  0  0  0  0  0  0  0  0  0  0  0
    5.7274    2.0716    0.4632 H   0  0  0  0  0  0  0  0  0  0  0  0
    5.1123    1.0269    1.8043 H   0  0  0  0  0  0  0  0  0  0  0  0
    3.6212    2.3915    0.9729 C   0  0  0  0  0  0  0  0  0  0  0  0
    3.8329    3.2343    1.6613 H   0  0  0  0  0  0  0  0  0  0  0  0
    2.7670    1.8144    1.3780 H   0  0  0  0  0  0  0  0  0  0  0  0
    3.3237    2.7977   -0.0137 H   0  0  0  0  0  0  0  0  0  0  0  0
    3.6645   -0.8576    1.4159 O   0  0  0  0  0  0  0  0  0  0  0  0
    4.6298    0.4762   -0.1527 O   0  0  0  0  0  0  0  0  0  0  0  0
    2.4403   -2.3511   -0.4454 N   0  0  0  0  0  0  0  0  0  0  0  0
    2.6014   -2.6847    0.5190 H   0  0  0  0  0  0  0  0  0  0  0  0
    2.2879   -3.1653   -1.0546 H   0  0  0  0  0  0  0  0  0  0  0  0
  2 15  2  0  0  0  0
  3  4  1  6  0  0  0
  3 17  1  0  0  0  0
  3  2  1  0  0  0  0
  5  1  1  0  0  0  0
  5  3  1  0  0  0  0
  6  5  1  0  0  0  0
  7  5  1  0  0  0  0
  8 11  1  0  0  0  0
  8 10  1  0  0  0  0
  9  8  1  0  0  0  0
 11 13  1  0  0  0  0
 11 12  1  0  0  0  0
 14 11  1  0  0  0  0
 16  2  1  0  0  0  0
 16  8  1  0  0  0  0
 17 18  1  0  0  0  0
 19 17  1  0  0  0  0
M  END
