1,7
q = -1.0

 16 16  0  0  1  0  0  0  0  0999 V2000
   -1.2521   -1.2732   -2.1199 S   0  0  0  0  0  1  0  0  0  0  0  0
   -2.8468   -1.2002   -1.4845 C   0  0  2  0  0  3  0  0  0  0  0  0
   -3.1419   -0.7909   -0.2067 N   0  0  0  0  0  0  0  0  0  0  0  0
   -3.9117   -1.5462   -2.2170 N   0  0  0  0  0  0  0  0  0  0  0  0
   -4.8431   -1.4640   -1.7191 H   0  0  0  0  0  0  0  0  0  0  0  0
   -3.7594   -1.8736   -3.1690 H   0  0  0  0  0  0  0  0  0  0  0  0
   -2.1837   -0.3982    0.6976 N   0  0  0  0  0  2  0  0  0  0  0  0
   -2.8499   -0.0807    1.8295 C   0  0  0  0  0  0  0  0  0  0  0  0
   -4.2384   -0.2421    1.6914 C   0  0  0  0  0  0  0  0  0  0  0  0
   -5.0095   -0.0596    2.4453 H   0  0  0  0  0  0  0  0  0  0  0  0
   -2.0850    0.3542    3.0393 C   0  0  0  0  0  0  0  0  0  0  0  0
   -1.1353    0.8497    2.7572 H   0  0  0  0  0  0  0  0  0  0  0  0
   -1.8228   -0.5182    3.6742 H   0  0  0  0  0  0  0  0  0  0  0  0
   -2.6843    1.0494    3.6573 H   0  0  0  0  0  0  0  0  0  0  0  0
   -5.5115   -1.0193   -0.2759 O   0  0  0  0  0  0  0  0  0  0  0  0
   -4.4883   -0.7127    0.3735 C   0  0  0  0  0  0  0  0  0  0  0  0
  2  1  1  1  0  0  0
  2  3  1  0  0  0  0
  3 16  1  0  0  0  0
  3  7  1  0  0  0  0
  4  5  1  0  0  0  0
  4  2  1  0  0  0  0
  6  4  1  0  0  0  0
  7  8  1  0  0  0  0
  8 11  1  0  0  0  0
  9  8  2  0  0  0  0
  9 10  1  0  0  0  0
 11 14  1  0  0  0  0
 11 13  1  0  0  0  0
 12 11  1  0  0  0  0
 15 16  2  0  0  0  0
 16  9  1  0  0  0  0
M  END
