1,2
q = 0.0, confidence = 0.998

 18 18  0  0  0  0  0  0  0  0999 V2000
   -0.4367    2.0802   -0.2021 S   0  0  0  0  0  0  0  0  0  0  0  0
    1.0727   -0.5022   -0.1290 N   0  0  0  0  0  2  0  0  0  0  0  0
    1.5986   -1.6827    0.2552 C   0  0  0  0  0  3  0  0  0  0  0  0
    2.9790   -1.8702    0.3969 C   0  0  0  0  0  0  0  0  0  0  0  0
    3.8379   -0.7922    0.1407 C   0  0  0  0  0  0  0  0  0  0  0  0
    3.2869    0.4316   -0.2667 C   0  0  0  0  0  0  0  0  0  0  0  0
    1.8940    0.5409   -0.4061 C   0  0  0  0  0  0  0  0  0  0  0  0
    1.2397    1.8009   -0.9158 C   0  0  0  0  0  0  0  0  0  0  0  0
    0.0296    2.4967    1.5190 C   0  0  0  0  0  0  0  0  0  0  0  0
    0.8491   -2.4744    0.4393 H   0  0  0  0  0  0  0  0  0  0  0  0
    3.3671   -2.8492    0.7127 H   0  0  0  0  0  0  0  0  0  0  0  0
    4.9271   -0.8998    0.2552 H   0  0  0  0  0  0  0  0  0  0  0  0
    3.9300    1.2968   -0.4859 H   0  0  0  0  0  0  0  0  0  0  0  0
    1.0455    1.7116   -2.0059 H   0  0  0  0  0  0  0  0  0  0  0  0
    1.8717    2.6971   -0.7548 H   0  0  0  0  0  0  0  0  0  0  0  0
    0.5399    3.4798    1.5427 H   0  0  0  0  0  0  0  0  0  0  0  0
    0.6678    1.7034    1.9513 H   0  0  0  0  0  0  0  0  0  0  0  0
   -0.9167    2.5506    2.0884 H   0  0  0  0  0  0  0  0  0  0  0  0
  1  9  1  0  0  0  0
  2  3  1  0  0  0  0
  3  4  1  0  0  0  0
  3 10  1  0  0  0  0
  4 11  1  0  0  0  0
  5 12  1  0  0  0  0
  5  4  2  0  0  0  0
  6  5  1  0  0  0  0
  7  6  2  0  0  0  0
  7  2  1  0  0  0  0
  8 15  1  0  0  0  0
  8  7  1  0  0  0  0
  8  1  1  0  0  0  0
  9 16  1  0  0  0  0
  9 17  1  0  0  0  0
  9 18  1  0  0  0  0
 13  6  1  0  0  0  0
 14  8  1  0  0  0  0
M  END
