1,31
q = -1.0

 33 34  0  0  0  0  0  0  0  0999 V2000
   -1.3748   -3.2359   -0.7744 S   0  0  0  0  0  1  0  0  0  0  0  0
   -2.2081   -0.7218   -1.4644 C   0  0  0  0  0  0  0  0  0  0  0  0
   -2.5802   -2.0894   -1.3341 C   0  0  0  0  0  0  0  0  0  0  0  0
    1.7436    2.1134   -1.5024 C   0  0  0  0  0  0  0  0  0  0  0  0
    2.0919   -0.2971   -1.5806 C   0  0  0  0  0  0  0  0  0  0  0  0
    3.4751   -0.1232   -1.5003 C   0  0  0  0  0  0  0  0  0  0  0  0
    4.1280   -1.0042   -1.4949 H   0  0  0  0  0  0  0  0  0  0  0  0
    3.1253    2.3013   -1.3979 C   0  0  0  0  0  0  0  0  0  0  0  0
    3.5793    3.2952   -1.3040 H   0  0  0  0  0  0  0  0  0  0  0  0
    0.8328    3.1260   -1.4964 O   0  0  0  0  0  0  0  0  0  0  0  0
   -3.9062   -2.4649   -1.6506 C   0  0  0  0  0  0  0  0  0  0  0  0
   -4.1951   -3.5231   -1.5625 H   0  0  0  0  0  0  0  0  0  0  0  0
   -3.1519    0.2416   -1.8673 C   0  0  0  0  0  0  0  0  0  0  0  0
   -2.8705    1.3034   -1.9179 H   0  0  0  0  0  0  0  0  0  0  0  0
   -4.8396   -1.5000   -2.0451 C   0  0  0  0  0  0  0  0  0  0  0  0
   -5.8728   -1.8054   -2.2728 H   0  0  0  0  0  0  0  0  0  0  0  0
   -4.4690   -0.1421   -2.1439 C   0  0  0  0  0  0  0  0  0  0  0  0
   -5.2116    0.6179   -2.4285 H   0  0  0  0  0  0  0  0  0  0  0  0
    3.9932    1.1818   -1.3834 C   0  0  0  0  0  0  0  0  0  0  0  0
    5.3104    1.4740   -1.2512 O   0  0  0  0  0  0  0  0  0  0  0  0
    1.3026    4.4543   -1.3767 C   0  0  0  0  0  0  0  0  0  0  0  0
    0.4097    5.1061   -1.4012 H   0  0  0  0  0  0  0  0  0  0  0  0
    1.9789    4.7339   -2.2149 H   0  0  0  0  0  0  0  0  0  0  0  0
    1.8417    4.6113   -0.4157 H   0  0  0  0  0  0  0  0  0  0  0  0
    6.2327    0.3970   -1.1722 C   0  0  0  0  0  0  0  0  0  0  0  0
    7.2304    0.8537   -1.0363 H   0  0  0  0  0  0  0  0  0  0  0  0
    6.2360   -0.2091   -2.1050 H   0  0  0  0  0  0  0  0  0  0  0  0
    6.0075   -0.2658   -0.3083 H   0  0  0  0  0  0  0  0  0  0  0  0
   -0.2349    0.6042   -1.6436 C   0  0  0  0  0  3  0  0  0  0  0  0
   -0.8223    1.3753   -2.1737 H   0  0  0  0  0  0  0  0  0  0  0  0
   -0.8513   -0.4520   -1.1613 N   0  0  0  0  0  2  0  0  0  0  0  0
    1.1958    0.7950   -1.5705 C   0  0  0  0  0  0  0  0  0  0  0  0
    1.6755   -1.3146   -1.6643 H   0  0  0  0  0  0  0  0  0  0  0  0
  2  3  1  0  0  0  0
  2 31  1  0  0  0  0
  3  1  1  0  0  0  0
  4 10  1  0  0  0  0
  4  8  1  0  0  0  0
  5 32  1  0  0  0  0
  5  6  2  0  0  0  0
  6  7  1  0  0  0  0
  6 19  1  0  0  0  0
  8 19  2  0  0  0  0
  8  9  1  0  0  0  0
 10 21  1  0  0  0  0
 11 12  1  0  0  0  0
 11  3  2  0  0  0  0
 13  2  2  0  0  0  0
 14 13  1  0  0  0  0
 15 11  1  0  0  0  0
 16 15  1  0  0  0  0
 17 15  2  0  0  0  0
 17 13  1  0  0  0  0
 18 17  1  0  0  0  0
 19 20  1  0  0  0  0
 20 25  1  0  0  0  0
 21 24  1  0  0  0  0
 22 21  1  0  0  0  0
 23 21  1  0  0  0  0
 25 26  1  0  0  0  0
 25 28  1  0  0  0  0
 27 25  1  0  0  0  0
 29 32  1  0  0  0  0
 29 31  1  0  0  0  0
 30 29  1  0  0  0  0
 32  4  2  0  0  0  0
 33  5  1  0  0  0  0
M  END
