3,13
q = -1.0

 17 17  0  0  1  0  0  0  0  0999 V2000
    5.1270    0.7279    0.1219 S   0  0  0  0  0  0  0  0  0  0  0  0
    2.4880    1.3932    0.2344 N   0  0  0  0  0  2  0  0  0  0  0  0
    1.9075    0.1722    0.0667 N   0  0  0  0  0  2  0  0  0  0  0  0
    2.7634   -0.8292   -0.0646 C   0  0  0  0  0  3  0  0  0  0  0  0
    4.1928   -0.7496   -0.0564 C   0  0  0  0  0  0  0  0  0  0  0  0
    5.0446   -1.8551   -0.2006 C   0  0  0  0  0  0  0  0  0  0  0  0
    6.4191   -1.5138   -0.1707 C   0  0  0  0  0  0  0  0  0  0  0  0
    6.6152   -0.1502   -0.0039 C   0  0  0  0  0  0  0  0  0  0  0  0
    2.3239   -1.8275   -0.2070 H   0  0  0  0  0  0  0  0  0  0  0  0
    4.6582   -2.8767   -0.3228 H   0  0  0  0  0  0  0  0  0  0  0  0
    7.2379   -2.2399   -0.2676 H   0  0  0  0  0  0  0  0  0  0  0  0
    7.5717    0.3853    0.0554 H   0  0  0  0  0  0  0  0  0  0  0  0
   -0.0066    2.1700   -0.4282 S   0  0  0  0  0  1  0  0  0  0  0  0
    1.6633    2.4039    0.0326 C   0  0  2  0  0  3  0  0  0  0  0  0
    2.1404    3.6703    0.1641 N   0  0  0  0  0  0  0  0  0  0  0  0
    1.5604    4.4541   -0.1248 H   0  0  0  0  0  0  0  0  0  0  0  0
    3.1486    3.8017    0.2455 H   0  0  0  0  0  0  0  0  0  0  0  0
  3  2  1  0  0  0  0
  4  5  1  0  0  0  0
  4  3  1  0  0  0  0
  5  1  1  0  0  0  0
  6  7  1  0  0  0  0
  6  5  2  0  0  0  0
  7  8  2  0  0  0  0
  8 12  1  0  0  0  0
  8  1  1  0  0  0  0
  9  4  1  0  0  0  0
 10  6  1  0  0  0  0
 11  7  1  0  0  0  0
 14 13  1  6  0  0  0
 14 15  1  0  0  0  0
 14  2  1  0  0  0  0
 15 17  1  0  0  0  0
 16 15  1  0  0  0  0
M  END
