1,3
q = -1.0

 20 20  0  0  1  0  0  0  0  0999 V2000
   -1.5519    1.9721    2.1064 S   0  0  0  0  0  1  0  0  0  0  0  0
    2.2510    1.5008    1.7947 N   0  0  0  0  0  0  0  0  0  0  0  0
    0.9124    1.4425    1.6108 N   0  0  0  0  0  2  0  0  0  0  0  0
    0.6523    2.9455    3.4143 N   0  0  0  0  0  0  0  0  0  0  0  0
    0.0380    3.4824    4.0234 H   0  0  0  0  0  0  0  0  0  0  0  0
    1.6692    2.9816    3.5214 H   0  0  0  0  0  0  0  0  0  0  0  0
    0.1559    2.1706    2.4426 C   0  0  2  0  0  3  0  0  0  0  0  0
    3.0053    0.7201    1.0854 C   0  0  0  0  0  0  0  0  0  0  0  0
    2.5409    0.0067    0.3743 H   0  0  0  0  0  0  0  0  0  0  0  0
    4.4600    0.7113    1.1833 C   0  0  0  0  0  0  0  0  0  0  0  0
    5.1852   -0.2464    0.4360 C   0  0  0  0  0  0  0  0  0  0  0  0
    4.6371   -0.9638   -0.1936 H   0  0  0  0  0  0  0  0  0  0  0  0
    6.5832   -0.2927    0.5051 C   0  0  0  0  0  0  0  0  0  0  0  0
    7.1366   -1.0438   -0.0783 H   0  0  0  0  0  0  0  0  0  0  0  0
    7.2768    0.6171    1.3189 C   0  0  0  0  0  0  0  0  0  0  0  0
    8.3753    0.5829    1.3730 H   0  0  0  0  0  0  0  0  0  0  0  0
    6.5647    1.5748    2.0655 C   0  0  0  0  0  0  0  0  0  0  0  0
    7.1087    2.2888    2.7019 H   0  0  0  0  0  0  0  0  0  0  0  0
    5.1698    1.6243    2.0006 C   0  0  0  0  0  0  0  0  0  0  0  0
    4.6059    2.3715    2.5772 H   0  0  0  0  0  0  0  0  0  0  0  0
  3  2  1  0  0  0  0
  3  7  1  0  0  0  0
  4  6  1  0  0  0  0
  4  5  1  0  0  0  0
  7  1  1  1  0  0  0
  7  4  1  0  0  0  0
  8 10  1  0  0  0  0
  8  2  2  0  0  0  0
  9  8  1  0  0  0  0
 10 19  1  0  0  0  0
 11 13  1  0  0  0  0
 11 10  2  0  0  0  0
 12 11  1  0  0  0  0
 13 15  2  0  0  0  0
 14 13  1  0  0  0  0
 15 16  1  0  0  0  0
 15 17  1  0  0  0  0
 17 18  1  0  0  0  0
 19 17  2  0  0  0  0
 19 20  1  0  0  0  0
M  END
