1,4
q = 0.0, confidence = 1.0

 32 32  0  0  1  0  0  0  0  0999 V2000
    0.8144    1.3702   -0.9086 S   0  0  0  0  0  0  0  0  0  0  0  0
    3.2857    3.2118    0.8116 O   0  0  0  0  0  0  0  0  0  0  0  0
    4.1144    3.1233    0.3100 H   0  0  0  0  0  0  0  0  0  0  0  0
   -1.4866   -0.2571    0.2989 N   0  0  0  0  0  2  0  0  0  0  0  0
   -2.2706    0.4778   -0.5410 N   0  0  0  0  0  0  0  0  0  0  0  0
   -2.1277   -0.3330    1.4870 C   0  0  2  0  0  3  0  0  0  0  0  0
   -3.3527    0.3712    1.3832 C   0  0  0  0  0  0  0  0  0  0  0  0
   -4.1091    0.4835    2.1664 H   0  0  0  0  0  0  0  0  0  0  0  0
   -3.4181    0.8849    0.0869 C   0  0  0  0  0  0  0  0  0  0  0  0
   -4.4731    1.6933   -0.5926 C   0  0  0  0  0  0  0  0  0  0  0  0
   -4.0875    2.6678   -0.9587 H   0  0  0  0  0  0  0  0  0  0  0  0
   -5.2932    1.9039    0.1177 H   0  0  0  0  0  0  0  0  0  0  0  0
   -4.9123    1.1588   -1.4612 H   0  0  0  0  0  0  0  0  0  0  0  0
   -1.5404   -1.0376    2.6626 C   0  0  0  0  0  0  0  0  0  0  0  0
   -1.1511   -2.0284    2.3525 H   0  0  0  0  0  0  0  0  0  0  0  0
   -2.2964   -1.1529    3.4609 H   0  0  0  0  0  0  0  0  0  0  0  0
   -0.6805   -0.4683    3.0735 H   0  0  0  0  0  0  0  0  0  0  0  0
   -1.7870    0.7960   -1.8711 C   0  0  0  0  0  0  0  0  0  0  0  0
   -2.6506    1.1417   -2.4725 H   0  0  0  0  0  0  0  0  0  0  0  0
   -1.3996   -0.1422   -2.3201 H   0  0  0  0  0  0  0  0  0  0  0  0
   -0.6892    1.8635   -1.8762 C   0  0  0  0  0  0  0  0  0  0  0  0
   -1.0478    2.8321   -1.4745 H   0  0  0  0  0  0  0  0  0  0  0  0
   -0.3415    2.0258   -2.9156 H   0  0  0  0  0  0  0  0  0  0  0  0
    0.5483    2.3900    0.6156 C   0  0  0  0  0  0  0  0  0  0  0  0
    0.7761    3.4330    0.3182 H   0  0  0  0  0  0  0  0  0  0  0  0
   -0.5144    2.2953    0.9149 H   0  0  0  0  0  0  0  0  0  0  0  0
    1.4873    1.9319    1.7278 C   0  0  0  0  0  0  0  0  0  0  0  0
    1.3369    2.6185    2.5890 H   0  0  0  0  0  0  0  0  0  0  0  0
    1.2074    0.9081    2.0554 H   0  0  0  0  0  0  0  0  0  0  0  0
    2.9576    1.9255    1.3207 C   0  0  0  0  0  0  0  0  0  0  0  0
    3.5738    1.6591    2.2140 H   0  0  0  0  0  0  0  0  0  0  0  0
    3.1247    1.1164    0.5679 H   0  0  0  0  0  0  0  0  0  0  0  0
  1 24  1  0  0  0  0
  2 30  1  0  0  0  0
  3  2  1  0  0  0  0
  4  6  1  0  0  0  0
  5  9  1  0  0  0  0
  5  4  1  0  0  0  0
  6 14  1  1  0  0  0
  7  6  1  0  0  0  0
  7  8  1  0  0  0  0
  9  7  2  0  0  0  0
 10  9  1  0  0  0  0
 10 12  1  0  0  0  0
 11 10  1  0  0  0  0
 13 10  1  0  0  0  0
 14 17  1  0  0  0  0
 14 16  1  0  0  0  0
 15 14  1  0  0  0  0
 18  5  1  0  0  0  0
 19 18  1  0  0  0  0
 20 18  1  0  0  0  0
 21 18  1  0  0  0  0
 21 22  1  0  0  0  0
 21  1  1  0  0  0  0
 23 21  1  0  0  0  0
 24 26  1  0  0  0  0
 24 27  1  0  0  0  0
 25 24  1  0  0  0  0
 27 29  1  0  0  0  0
 27 28  1  0  0  0  0
 30 27  1  0  0  0  0
 30 31  1  0  0  0  0
 32 30  1  0  0  0  0
M  END
