1,9
q = -1.0

 32 34  0  0  1  0  0  0  0  0999 V2000
   -1.8754   -0.0529   -1.4766 S   0  0  0  0  0  1  0  0  0  0  0  0
   -3.1190   -0.2355    0.1538 P   0  0  0  0  0  4  0  0  0  0  0  0
   -2.8251   -1.4856    1.1642 N   0  0  0  0  0  2  0  0  0  0  0  0
   -1.7080   -2.2040    1.1418 C   0  0  1  0  0  3  0  0  0  0  0  0
   -1.7143   -3.8662    1.7616 S   0  0  0  0  0  0  0  0  0  0  0  0
   -0.0240   -4.0453    1.3596 C   0  0  0  0  0  0  0  0  0  0  0  0
    0.5248   -4.9690    1.5701 H   0  0  0  0  0  0  0  0  0  0  0  0
    0.4501   -2.8938    0.7955 C   0  0  0  0  0  0  0  0  0  0  0  0
   -0.4748   -1.8699    0.6859 N   0  0  0  0  0  2  0  0  0  0  0  0
    1.4762   -2.7223    0.4519 H   0  0  0  0  0  0  0  0  0  0  0  0
   -3.0906    1.3201    1.1223 C   0  0  0  0  0  0  0  0  0  0  0  0
   -3.8483    2.4418    0.7334 C   0  0  0  0  0  0  0  0  0  0  0  0
   -4.5574    2.3662   -0.1048 H   0  0  0  0  0  0  0  0  0  0  0  0
   -3.6954    3.6577    1.4174 C   0  0  0  0  0  0  0  0  0  0  0  0
   -4.2890    4.5333    1.1139 H   0  0  0  0  0  0  0  0  0  0  0  0
   -2.7865    3.7571    2.4835 C   0  0  0  0  0  0  0  0  0  0  0  0
   -2.6607    4.7146    3.0113 H   0  0  0  0  0  0  0  0  0  0  0  0
   -2.0410    2.6342    2.8792 C   0  0  0  0  0  0  0  0  0  0  0  0
   -1.3304    2.7079    3.7160 H   0  0  0  0  0  0  0  0  0  0  0  0
   -2.1954    1.4146    2.2056 C   0  0  0  0  0  0  0  0  0  0  0  0
   -1.6153    0.5295    2.5083 H   0  0  0  0  0  0  0  0  0  0  0  0
   -4.8241   -0.4285   -0.4636 C   0  0  0  0  0  0  0  0  0  0  0  0
   -5.7292   -1.2075    0.2834 C   0  0  0  0  0  0  0  0  0  0  0  0
   -5.3738   -1.7064    1.1972 H   0  0  0  0  0  0  0  0  0  0  0  0
   -7.0518   -1.3491   -0.1605 C   0  0  0  0  0  0  0  0  0  0  0  0
   -7.7596   -1.9602    0.4201 H   0  0  0  0  0  0  0  0  0  0  0  0
   -7.4707   -0.7218   -1.3455 C   0  0  0  0  0  0  0  0  0  0  0  0
   -8.5090   -0.8383   -1.6919 H   0  0  0  0  0  0  0  0  0  0  0  0
   -6.5640    0.0451   -2.0949 C   0  0  0  0  0  0  0  0  0  0  0  0
   -6.8876    0.5259   -3.0305 H   0  0  0  0  0  0  0  0  0  0  0  0
   -5.2391    0.1934   -1.6580 C   0  0  0  0  0  0  0  0  0  0  0  0
   -4.5172    0.7771   -2.2504 H   0  0  0  0  0  0  0  0  0  0  0  0
  1  2  1  0  0  0  0
  2 11  1  0  0  0  0
  2  3  1  0  0  0  0
  4  3  1  6  0  0  0
  4  5  1  0  0  0  0
  6  7  1  0  0  0  0
  6  5  1  0  0  0  0
  8  6  2  0  0  0  0
  9  8  1  0  0  0  0
  9  4  1  0  0  0  0
 10  8  1  0  0  0  0
 11 20  1  0  0  0  0
 12 11  2  0  0  0  0
 12 14  1  0  0  0  0
 13 12  1  0  0  0  0
 14 16  2  0  0  0  0
 15 14  1  0  0  0  0
 16 18  1  0  0  0  0
 16 17  1  0  0  0  0
 18 19  1  0  0  0  0
 20 21  1  0  0  0  0
 20 18  2  0  0  0  0
 22  2  1  0  0  0  0
 22 23  1  0  0  0  0
 23 24  1  0  0  0  0
 25 23  2  0  0  0  0
 25 26  1  0  0  0  0
 27 25  1  0  0  0  0
 28 27  1  0  0  0  0
 29 31  1  0  0  0  0
 29 27  2  0  0  0  0
 30 29  1  0  0  0  0
 31 22  2  0  0  0  0
 32 31  1  0  0  0  0
M  END
