2,3
q = -1.0, confidence = 0.0

 17 17  0  0  0  0  0  0  0  0999 V2000
   -3.3940   -2.1840   -0.7699 S   0  0  0  0  0  0  0  0  0  0  0  0
    0.0299    1.7903   -2.2977 S   0  0  0  0  0  1  0  0  0  0  0  0
   -1.3632    0.3071   -0.2127 N   0  0  0  0  0  2  0  0  0  0  0  0
   -1.6495   -0.1744   -1.4444 N   0  0  0  0  0  0  0  0  0  0  0  0
   -1.3006   -0.0492   -3.7119 N   0  0  0  0  0  0  0  0  0  0  0  0
   -2.8999   -1.3802    0.7124 C   0  0  0  0  0  0  0  0  0  0  0  0
   -3.5234   -1.9684    1.8214 C   0  0  0  0  0  0  0  0  0  0  0  0
   -4.3811   -3.0436    1.4800 C   0  0  0  0  0  0  0  0  0  0  0  0
   -4.4103   -3.2741    0.1122 C   0  0  0  0  0  0  0  0  0  0  0  0
   -1.9846   -0.2802    0.7876 C   0  0  0  0  0  3  0  0  0  0  0  0
   -1.0609    0.4297   -2.4580 C   0  0  0  0  0  0  0  0  0  0  0  0
   -3.3459   -1.6122    2.8458 H   0  0  0  0  0  0  0  0  0  0  0  0
   -4.9578   -3.6296    2.2087 H   0  0  0  0  0  0  0  0  0  0  0  0
   -4.9860   -4.0390   -0.4250 H   0  0  0  0  0  0  0  0  0  0  0  0
   -1.7601    0.1324    1.7853 H   0  0  0  0  0  0  0  0  0  0  0  0
   -2.0555   -0.7269   -3.8225 H   0  0  0  0  0  0  0  0  0  0  0  0
   -1.0371    0.5199   -4.5135 H   0  0  0  0  0  0  0  0  0  0  0  0
  1  9  1  0  0  0  0
  1  6  1  0  0  0  0
  3 10  1  0  0  0  0
  4  3  1  0  0  0  0
  5 11  1  0  0  0  0
  6 10  1  0  0  0  0
  6  7  2  0  0  0  0
  7 12  1  0  0  0  0
  8  7  1  0  0  0  0
  8 13  1  0  0  0  0
  9  8  2  0  0  0  0
 10 15  1  0  0  0  0
 11  2  1  0  0  0  0
 11  4  2  0  0  0  0
 14  9  1  0  0  0  0
 16  5  1  0  0  0  0
 17  5  1  0  0  0  0
M  END
