1,5
q = -1.0, confidence = 0.0

 19 18  0  0  1  0  0  0  0  0999 V2000
    1.3783   -1.9080   -0.3904 S   0  0  0  0  0  1  0  0  0  0  0  0
    5.3673    0.7698   -0.2578 O   0  0  0  0  0  0  0  0  0  0  0  0
    6.0059    1.3609    0.1997 H   0  0  0  0  0  0  0  0  0  0  0  0
    3.9540    2.0630    0.9455 O   0  0  0  0  0  0  0  0  0  0  0  0
    1.7691    1.0616   -0.3278 N   0  0  0  0  0  0  0  0  0  0  0  0
    1.7744    1.7568   -1.0891 H   0  0  0  0  0  0  0  0  0  0  0  0
    1.8037    1.6234    0.5431 H   0  0  0  0  0  0  0  0  0  0  0  0
    2.8689   -1.0889    0.3731 C   0  0  0  0  0  0  0  0  0  0  0  0
    3.0299    0.2624   -0.3901 C   0  0  2  0  0  0  0  0  0  0  0  0
    3.2389    0.0125   -1.4480 H   0  0  0  0  0  0  0  0  0  0  0  0
    4.1438    1.1398    0.1703 C   0  0  0  0  0  0  0  0  0  0  0  0
    2.6613   -0.8662    1.8774 C   0  0  0  0  0  0  0  0  0  0  0  0
    1.7692   -0.2380    2.0720 H   0  0  0  0  0  0  0  0  0  0  0  0
    3.5466   -0.3913    2.3541 H   0  0  0  0  0  0  0  0  0  0  0  0
    2.4826   -1.8422    2.3673 H   0  0  0  0  0  0  0  0  0  0  0  0
    4.0677   -2.0091    0.1164 C   0  0  0  0  0  0  0  0  0  0  0  0
    3.8608   -3.0027    0.5602 H   0  0  0  0  0  0  0  0  0  0  0  0
    4.9976   -1.6105    0.5702 H   0  0  0  0  0  0  0  0  0  0  0  0
    4.2367   -2.1511   -0.9692 H   0  0  0  0  0  0  0  0  0  0  0  0
  1  8  1  0  0  0  0
  2 11  1  0  0  0  0
  2  3  1  0  0  0  0
  5  7  1  0  0  0  0
  6  5  1  0  0  0  0
  8 12  1  0  0  0  0
  9 10  1  6  0  0  0
  9  5  1  0  0  0  0
  9 11  1  0  0  0  0
  9  8  1  0  0  0  0
 11  4  2  0  0  0  0
 12 13  1  0  0  0  0
 12 14  1  0  0  0  0
 12 15  1  0  0  0  0
 16  8  1  0  0  0  0
 16 17  1  0  0  0  0
 16 18  1  0  0  0  0
 19 16  1  0  0  0  0
M  END
