3,8
q = -1.0

 61 61  0  0  0  0  0  0  0  0999 V2000
    0.0071   -0.3645   -0.3220 P   0  0  1  0  0  4  0  0  0  0  0  0
    2.5015    0.3017   -0.5688 P   0  0  1  0  0  4  0  0  0  0  0  0
   -1.2323   -0.4590   -1.9327 S   0  0  0  0  0  1  0  0  0  0  0  0
    3.4477    0.8106   -2.2060 S   0  0  0  0  0  1  0  0  0  0  0  0
    3.4600    0.3266    0.8078 N   0  0  0  0  0  0  0  0  0  0  0  0
    2.9343    0.0629    1.6456 H   0  0  0  0  0  0  0  0  0  0  0  0
    0.9931    1.0549   -0.1516 N   0  0  0  0  0  0  0  0  0  0  0  0
   -0.9513   -0.7832    0.9193 N   0  0  0  0  0  2  0  0  0  0  0  0
    1.5434   -1.1483   -0.5083 N   0  0  0  0  0  0  0  0  0  0  0  0
    4.8969    0.6326    1.0471 C   0  0  0  0  0  0  0  0  0  0  0  0
   -0.6953   -0.9719    2.3599 C   0  0  0  0  0  0  0  0  0  0  0  0
    1.8398   -2.4822   -1.0926 C   0  0  0  0  0  0  0  0  0  0  0  0
    1.7375   -2.4451   -2.6295 C   0  0  0  0  0  0  0  0  0  0  0  0
    0.7133   -2.1611   -2.9396 H   0  0  0  0  0  0  0  0  0  0  0  0
    1.9762   -3.4420   -3.0526 H   0  0  0  0  0  0  0  0  0  0  0  0
    2.4439   -1.7009   -3.0455 H   0  0  0  0  0  0  0  0  0  0  0  0
    0.6051    2.4826   -0.2599 C   0  0  0  0  0  0  0  0  0  0  0  0
    5.8098   -0.3399    0.2794 C   0  0  0  0  0  0  0  0  0  0  0  0
    6.8744   -0.1066    0.4825 H   0  0  0  0  0  0  0  0  0  0  0  0
    5.6350   -0.2537   -0.8104 H   0  0  0  0  0  0  0  0  0  0  0  0
    5.6172   -1.3859    0.5886 H   0  0  0  0  0  0  0  0  0  0  0  0
    1.7663    3.3365    0.2722 C   0  0  0  0  0  0  0  0  0  0  0  0
    1.4821    4.4073    0.2500 H   0  0  0  0  0  0  0  0  0  0  0  0
    2.6700    3.2102   -0.3550 H   0  0  0  0  0  0  0  0  0  0  0  0
    2.0190    3.0601    1.3151 H   0  0  0  0  0  0  0  0  0  0  0  0
   -0.6403    2.7069    0.6127 C   0  0  0  0  0  0  0  0  0  0  0  0
   -1.4733    2.0365    0.3235 H   0  0  0  0  0  0  0  0  0  0  0  0
   -0.9828    3.7563    0.5090 H   0  0  0  0  0  0  0  0  0  0  0  0
   -0.4081    2.5237    1.6808 H   0  0  0  0  0  0  0  0  0  0  0  0
    0.8301   -3.4899   -0.5220 C   0  0  0  0  0  0  0  0  0  0  0  0
    0.9166   -3.5603    0.5799 H   0  0  0  0  0  0  0  0  0  0  0  0
    1.0246   -4.4924   -0.9517 H   0  0  0  0  0  0  0  0  0  0  0  0
   -0.2102   -3.2054   -0.7767 H   0  0  0  0  0  0  0  0  0  0  0  0
   -1.6628   -0.0551    3.1343 C   0  0  0  0  0  0  0  0  0  0  0  0
   -1.5527   -0.1889    4.2299 H   0  0  0  0  0  0  0  0  0  0  0  0
   -2.7111   -0.2962    2.8635 H   0  0  0  0  0  0  0  0  0  0  0  0
   -1.4799    1.0082    2.8861 H   0  0  0  0  0  0  0  0  0  0  0  0
    5.1055    0.4437    2.5593 C   0  0  0  0  0  0  0  0  0  0  0  0
    4.4595    1.1351    3.1393 H   0  0  0  0  0  0  0  0  0  0  0  0
    6.1587    0.6534    2.8299 H   0  0  0  0  0  0  0  0  0  0  0  0
    4.8748   -0.5978    2.8657 H   0  0  0  0  0  0  0  0  0  0  0  0
    0.3110    2.8529   -1.7266 C   0  0  0  0  0  0  0  0  0  0  0  0
   -0.5124    2.2284   -2.1249 H   0  0  0  0  0  0  0  0  0  0  0  0
    1.2062    2.6709   -2.3530 H   0  0  0  0  0  0  0  0  0  0  0  0
    0.0279    3.9222   -1.8072 H   0  0  0  0  0  0  0  0  0  0  0  0
   -1.0141   -2.4384    2.7130 C   0  0  0  0  0  0  0  0  0  0  0  0
   -0.3174   -3.1265    2.1969 H   0  0  0  0  0  0  0  0  0  0  0  0
   -2.0434   -2.6925    2.3872 H   0  0  0  0  0  0  0  0  0  0  0  0
   -0.9381   -2.6147    3.8056 H   0  0  0  0  0  0  0  0  0  0  0  0
    5.2285    2.0855    0.6628 C   0  0  0  0  0  0  0  0  0  0  0  0
    4.6114    2.7967    1.2463 H   0  0  0  0  0  0  0  0  0  0  0  0
    5.0382    2.2524   -0.4149 H   0  0  0  0  0  0  0  0  0  0  0  0
    6.2965    2.3009    0.8676 H   0  0  0  0  0  0  0  0  0  0  0  0
    0.7524   -0.6483    2.7674 C   0  0  0  0  0  0  0  0  0  0  0  0
    0.9988    0.4063    2.5321 H   0  0  0  0  0  0  0  0  0  0  0  0
    1.4612   -1.3111    2.2316 H   0  0  0  0  0  0  0  0  0  0  0  0
    0.8904   -0.8034    3.8560 H   0  0  0  0  0  0  0  0  0  0  0  0
    3.2629   -2.8763   -0.6687 C   0  0  0  0  0  0  0  0  0  0  0  0
    4.0086   -2.1771   -1.0940 H   0  0  0  0  0  0  0  0  0  0  0  0
    3.4982   -3.8922   -1.0436 H   0  0  0  0  0  0  0  0  0  0  0  0
    3.3663   -2.8744    0.4348 H   0  0  0  0  0  0  0  0  0  0  0  0
  1  3  1  6  0  0  0
  1  7  1  0  0  0  0
  1  8  1  0  0  0  0
  2  4  1  6  0  0  0
  2  9  1  0  0  0  0
  2  7  1  0  0  0  0
  2  5  1  0  0  0  0
  5 10  1  0  0  0  0
  5  6  1  0  0  0  0
  8 11  1  0  0  0  0
  9  1  1  0  0  0  0
 10 38  1  0  0  0  0
 11 46  1  0  0  0  0
 11 54  1  0  0  0  0
 11 34  1  0  0  0  0
 12 58  1  0  0  0  0
 12 30  1  0  0  0  0
 12  9  1  0  0  0  0
 13 12  1  0  0  0  0
 14 13  1  0  0  0  0
 15 13  1  0  0  0  0
 16 13  1  0  0  0  0
 17  7  1  0  0  0  0
 17 22  1  0  0  0  0
 17 26  1  0  0  0  0
 18 19  1  0  0  0  0
 18 21  1  0  0  0  0
 18 10  1  0  0  0  0
 20 18  1  0  0  0  0
 22 25  1  0  0  0  0
 23 22  1  0  0  0  0
 24 22  1  0  0  0  0
 26 29  1  0  0  0  0
 27 26  1  0  0  0  0
 28 26  1  0  0  0  0
 30 31  1  0  0  0  0
 32 30  1  0  0  0  0
 33 30  1  0  0  0  0
 34 35  1  0  0  0  0
 36 34  1  0  0  0  0
 37 34  1  0  0  0  0
 38 40  1  0  0  0  0
 38 41  1  0  0  0  0
 38 39  1  0  0  0  0
 42 17  1  0  0  0  0
 43 42  1  0  0  0  0
 44 42  1  0  0  0  0
 45 42  1  0  0  0  0
 46 49  1  0  0  0  0
 47 46  1  0  0  0  0
 48 46  1  0  0  0  0
 50 53  1  0  0  0  0
 50 10  1  0  0  0  0
 50 51  1  0  0  0  0
 52 50  1  0  0  0  0
 54 57  1  0  0  0  0
 55 54  1  0  0  0  0
 56 54  1  0  0  0  0
 58 61  1  0  0  0  0
 59 58  1  0  0  0  0
 60 58  1  0  0  0  0
M  END
