1,8
q = -1.0, confidence = 0.0

 36 37  0  0  0  0  0  0  0  0999 V2000
    1.4397   -2.4141   -0.6386 S   0  0  0  0  0  1  0  0  0  0  0  0
    4.1146   -2.2741   -0.0574 N   0  0  0  0  0  0  0  0  0  0  0  0
    2.9374   -1.6375   -0.3151 C   0  0  0  0  0  0  0  0  0  0  0  0
    5.1871   -1.4243    0.0441 N   0  0  0  0  0  0  0  0  0  0  0  0
    3.2891   -0.2421   -0.3863 C   0  0  0  0  0  0  0  0  0  0  0  0
    2.5529    0.8163   -0.7638 N   0  0  0  0  0  2  0  0  0  0  0  0
    4.7155   -0.2027   -0.1600 C   0  0  0  0  0  0  0  0  0  0  0  0
    1.2736    0.7808   -0.7873 N   0  0  0  0  0  2  0  0  0  0  0  0
    4.3342   -3.7232    0.0090 C   0  0  0  0  0  0  0  0  0  0  0  0
    3.3119   -4.1515    0.0849 H   0  0  0  0  0  0  0  0  0  0  0  0
    5.1319   -4.0788    1.2641 C   0  0  0  0  0  0  0  0  0  0  0  0
    4.6074   -3.7353    2.1773 H   0  0  0  0  0  0  0  0  0  0  0  0
    6.1297   -3.5999    1.2359 H   0  0  0  0  0  0  0  0  0  0  0  0
    5.2639   -5.1767    1.3287 H   0  0  0  0  0  0  0  0  0  0  0  0
    4.9921   -4.2150   -1.2841 C   0  0  0  0  0  0  0  0  0  0  0  0
    4.3653   -3.9675   -2.1635 H   0  0  0  0  0  0  0  0  0  0  0  0
    5.1300   -5.3139   -1.2536 H   0  0  0  0  0  0  0  0  0  0  0  0
    5.9840   -3.7376   -1.4132 H   0  0  0  0  0  0  0  0  0  0  0  0
    5.5779    1.0132   -0.1130 C   0  0  0  0  0  0  0  0  0  0  0  0
    6.6441    0.7219   -0.0878 H   0  0  0  0  0  0  0  0  0  0  0  0
    5.3593    1.6278    0.7854 H   0  0  0  0  0  0  0  0  0  0  0  0
    5.3897    1.6572   -0.9958 H   0  0  0  0  0  0  0  0  0  0  0  0
    0.6545    1.9387   -1.3426 C   0  0  0  0  0  0  0  0  0  0  0  0
   -0.6028    1.8132   -1.9612 C   0  0  0  0  0  0  0  0  0  0  0  0
   -1.0551    0.8146   -2.0597 H   0  0  0  0  0  0  0  0  0  0  0  0
   -1.2624    2.9512   -2.4422 C   0  0  0  0  0  0  0  0  0  0  0  0
   -2.2470    2.8386   -2.9226 H   0  0  0  0  0  0  0  0  0  0  0  0
   -0.6916    4.2333   -2.3238 C   0  0  0  0  0  0  0  0  0  0  0  0
    0.5864    4.3343   -1.7273 C   0  0  0  0  0  0  0  0  0  0  0  0
    1.0548    5.3261   -1.6216 H   0  0  0  0  0  0  0  0  0  0  0  0
    1.2590    3.2103   -1.2483 C   0  0  0  0  0  0  0  0  0  0  0  0
    2.2413    3.2915   -0.7646 H   0  0  0  0  0  0  0  0  0  0  0  0
   -1.4181    5.4660   -2.7960 C   0  0  0  0  0  0  0  0  0  0  0  0
   -2.3257    5.2104   -3.3761 H   0  0  0  0  0  0  0  0  0  0  0  0
   -0.7697    6.1014   -3.4338 H   0  0  0  0  0  0  0  0  0  0  0  0
   -1.7356    6.0951   -1.9368 H   0  0  0  0  0  0  0  0  0  0  0  0
  1  3  1  0  0  0  0
  2  9  1  0  0  0  0
  2  4  1  0  0  0  0
  3  2  1  0  0  0  0
  5  3  2  0  0  0  0
  5  7  1  0  0  0  0
  6  5  1  0  0  0  0
  7 19  1  0  0  0  0
  7  4  2  0  0  0  0
  8  6  1  0  0  0  0
  9 10  1  0  0  0  0
  9 11  1  0  0  0  0
 11 14  1  0  0  0  0
 11 12  1  0  0  0  0
 13 11  1  0  0  0  0
 15 17  1  0  0  0  0
 15  9  1  0  0  0  0
 16 15  1  0  0  0  0
 18 15  1  0  0  0  0
 19 20  1  0  0  0  0
 19 21  1  0  0  0  0
 22 19  1  0  0  0  0
 23 31  1  0  0  0  0
 23  8  1  0  0  0  0
 24 23  2  0  0  0  0
 25 24  1  0  0  0  0
 26 28  2  0  0  0  0
 26 24  1  0  0  0  0
 27 26  1  0  0  0  0
 28 29  1  0  0  0  0
 29 30  1  0  0  0  0
 29 31  2  0  0  0  0
 31 32  1  0  0  0  0
 33 28  1  0  0  0  0
 33 36  1  0  0  0  0
 34 33  1  0  0  0  0
 35 33  1  0  0  0  0
M  END
