1,5
q = -1.0, confidence = 0.0

 27 27  0  0  1  0  0  0  0  0999 V2000
   -2.2123   -2.6251    0.8935 S   0  0  0  0  0  1  0  0  0  0  0  0
    1.4589    0.3914   -0.2481 O   0  0  0  0  0  0  0  0  0  0  0  0
   -1.9196   -3.3273    3.4475 N   0  0  0  0  0  0  0  0  0  0  0  0
   -0.3296   -1.8624    2.7335 N   0  0  0  0  0  0  0  0  0  0  0  0
    0.2121   -1.1700    1.7358 N   0  0  0  0  0  2  0  0  0  0  0  0
    3.1168    0.8981    1.2720 N   0  0  0  0  0  0  0  0  0  0  0  0
   -1.4236   -2.5893    2.4172 C   0  0  0  0  0  0  0  0  0  0  0  0
    1.1764   -0.3061    2.0383 C   0  0  1  0  0  3  0  0  0  0  0  0
    1.5431   -0.0842    3.4786 C   0  0  0  0  0  0  0  0  0  0  0  0
    1.8932    0.3470    0.9077 C   0  0  0  0  0  0  0  0  0  0  0  0
    4.0399    1.5976    0.4819 C   0  0  0  0  0  0  0  0  0  0  0  0
    3.8421    1.8692   -0.8923 C   0  0  0  0  0  0  0  0  0  0  0  0
    4.8183    2.5833   -1.6006 C   0  0  0  0  0  0  0  0  0  0  0  0
    5.9929    3.0331   -0.9776 C   0  0  0  0  0  0  0  0  0  0  0  0
    6.1895    2.7595    0.3860 C   0  0  0  0  0  0  0  0  0  0  0  0
    5.2249    2.0508    1.1096 C   0  0  0  0  0  0  0  0  0  0  0  0
   -1.3926   -3.3743    4.3194 H   0  0  0  0  0  0  0  0  0  0  0  0
   -2.6972   -3.9597    3.2769 H   0  0  0  0  0  0  0  0  0  0  0  0
    2.2089   -0.8876    3.8667 H   0  0  0  0  0  0  0  0  0  0  0  0
    0.6252   -0.1334    4.0954 H   0  0  0  0  0  0  0  0  0  0  0  0
    2.0290    0.8976    3.6393 H   0  0  0  0  0  0  0  0  0  0  0  0
    3.4149    0.7390    2.2348 H   0  0  0  0  0  0  0  0  0  0  0  0
    2.9269    1.5082   -1.3742 H   0  0  0  0  0  0  0  0  0  0  0  0
    4.6523    2.7885   -2.6696 H   0  0  0  0  0  0  0  0  0  0  0  0
    6.7505    3.5905   -1.5482 H   0  0  0  0  0  0  0  0  0  0  0  0
    7.1035    3.1017    0.8950 H   0  0  0  0  0  0  0  0  0  0  0  0
    5.3844    1.8416    2.1803 H   0  0  0  0  0  0  0  0  0  0  0  0
  1  7  1  0  0  0  0
  2 10  2  0  0  0  0
  3 17  1  0  0  0  0
  5  8  1  0  0  0  0
  5  4  1  0  0  0  0
  6 22  1  0  0  0  0
  7  4  2  0  0  0  0
  7  3  1  0  0  0  0
  8 10  1  6  0  0  0
  8  9  1  0  0  0  0
  9 21  1  0  0  0  0
  9 19  1  0  0  0  0
  9 20  1  0  0  0  0
 10  6  1  0  0  0  0
 11 16  1  0  0  0  0
 11  6  1  0  0  0  0
 12 11  2  0  0  0  0
 13 14  2  0  0  0  0
 13 12  1  0  0  0  0
 14 15  1  0  0  0  0
 15 26  1  0  0  0  0
 15 16  2  0  0  0  0
 16 27  1  0  0  0  0
 18  3  1  0  0  0  0
 23 12  1  0  0  0  0
 24 13  1  0  0  0  0
 25 14  1  0  0  0  0
M  END
