1,3
q = 0.0, confidence = 0.998

 14 14  0  0  1  0  0  0  0  0999 V2000
   -0.6049   -1.9135   -1.9452 S   0  0  0  0  0  1  0  0  0  0  0  0
   -1.6180   -2.9667    0.3958 N   0  0  0  0  0  0  0  0  0  0  0  0
   -0.9149   -2.0748    1.1970 N   0  0  0  0  0  0  0  0  0  0  0  0
   -1.5846   -1.5867    1.8169 H   0  0  0  0  0  0  0  0  0  0  0  0
   -0.2062   -2.5752    1.7541 H   0  0  0  0  0  0  0  0  0  0  0  0
   -2.9910   -4.5631   -0.2912 N   0  0  0  0  0  0  0  0  0  0  0  0
   -2.4174   -3.9110   -1.3444 N   0  0  0  0  0  0  0  0  0  0  0  0
   -2.6335   -4.1904   -2.3033 H   0  0  0  0  0  0  0  0  0  0  0  0
   -1.5592   -2.9184   -0.9926 C   0  0  2  0  0  3  0  0  0  0  0  0
   -2.4980   -3.9810    0.7769 C   0  0  0  0  0  0  0  0  0  0  0  0
   -2.8051   -4.3277    2.1861 C   0  0  0  0  0  0  0  0  0  0  0  0
   -3.5016   -5.1848    2.1957 H   0  0  0  0  0  0  0  0  0  0  0  0
   -3.2851   -3.4756    2.7091 H   0  0  0  0  0  0  0  0  0  0  0  0
   -1.8894   -4.6098    2.7453 H   0  0  0  0  0  0  0  0  0  0  0  0
  2 10  1  0  0  0  0
  2  3  1  0  0  0  0
  3  5  1  0  0  0  0
  3  4  1  0  0  0  0
  6 10  2  0  0  0  0
  7  9  1  0  0  0  0
  7  6  1  0  0  0  0
  8  7  1  0  0  0  0
  9  1  1  1  0  0  0
  9  2  1  0  0  0  0
 10 11  1  0  0  0  0
 11 12  1  0  0  0  0
 11 13  1  0  0  0  0
 11 14  1  0  0  0  0
M  END
