1,3
q = -1.0

 33 34  0  0  0  0  0  0  0  0999 V2000
   -0.4836    3.0874    0.0073 N   0  0  0  0  0  2  0  0  0  0  0  0
   -3.6769    1.4036    0.0895 N   0  0  0  0  0  2  0  0  0  0  0  0
   -1.2606    0.2311   -0.1765 S   0  0  0  0  0  1  0  0  0  0  0  0
    0.0580    4.3230    0.0429 C   0  0  0  0  0  0  0  0  0  0  0  0
    1.1613    4.3472    0.0193 H   0  0  0  0  0  0  0  0  0  0  0  0
   -0.7308    5.4763    0.1141 C   0  0  0  0  0  0  0  0  0  0  0  0
   -0.2445    6.4619    0.1390 H   0  0  0  0  0  0  0  0  0  0  0  0
   -2.1277    5.3445    0.1554 C   0  0  0  0  0  0  0  0  0  0  0  0
   -2.7749    6.2328    0.2134 H   0  0  0  0  0  0  0  0  0  0  0  0
   -2.6839    4.0628    0.1232 C   0  0  0  0  0  0  0  0  0  0  0  0
   -3.7656    3.8694    0.1560 H   0  0  0  0  0  0  0  0  0  0  0  0
   -1.8354    2.9454    0.0457 C   0  0  0  0  0  0  0  0  0  0  0  0
   -2.3943    1.5690    0.0033 C   0  0  0  0  0  0  0  0  0  0  0  0
   -4.1879    0.0877    0.0788 C   0  0  0  0  0  0  0  0  0  0  0  0
   -4.2444   -0.6583    1.2842 C   0  0  0  0  0  0  0  0  0  0  0  0
   -4.7715   -1.9604    1.2412 C   0  0  0  0  0  0  0  0  0  0  0  0
   -4.8178   -2.5395    2.1789 H   0  0  0  0  0  0  0  0  0  0  0  0
   -5.2377   -2.5424    0.0481 C   0  0  0  0  0  0  0  0  0  0  0  0
   -5.1845   -1.7681   -1.1259 C   0  0  0  0  0  0  0  0  0  0  0  0
   -5.5519   -2.1961   -2.0736 H   0  0  0  0  0  0  0  0  0  0  0  0
   -4.6688   -0.4618   -1.1366 C   0  0  0  0  0  0  0  0  0  0  0  0
   -3.7236   -0.0580    2.5632 C   0  0  0  0  0  0  0  0  0  0  0  0
   -2.6174    0.0478    2.5258 H   0  0  0  0  0  0  0  0  0  0  0  0
   -3.9791   -0.6860    3.4382 H   0  0  0  0  0  0  0  0  0  0  0  0
   -4.1319    0.9609    2.7249 H   0  0  0  0  0  0  0  0  0  0  0  0
   -5.7457   -3.9631    0.0183 C   0  0  0  0  0  0  0  0  0  0  0  0
   -4.9459   -4.6696   -0.2965 H   0  0  0  0  0  0  0  0  0  0  0  0
   -6.5820   -4.0856   -0.6992 H   0  0  0  0  0  0  0  0  0  0  0  0
   -6.0987   -4.2936    1.0153 H   0  0  0  0  0  0  0  0  0  0  0  0
   -4.5763    0.3480   -2.4024 C   0  0  0  0  0  0  0  0  0  0  0  0
   -4.9808    1.3705   -2.2530 H   0  0  0  0  0  0  0  0  0  0  0  0
   -5.1225   -0.1355   -3.2350 H   0  0  0  0  0  0  0  0  0  0  0  0
   -3.5169    0.4726   -2.7147 H   0  0  0  0  0  0  0  0  0  0  0  0
  1  4  1  0  0  0  0
  1 12  1  0  0  0  0
  3 13  1  0  0  0  0
  4  6  2  0  0  0  0
  5  4  1  0  0  0  0
  6  7  1  0  0  0  0
  6  8  1  0  0  0  0
  8  9  1  0  0  0  0
 10  8  2  0  0  0  0
 10 11  1  0  0  0  0
 12 10  1  0  0  0  0
 13 12  2  0  0  0  0
 13  2  1  0  0  0  0
 14  2  1  0  0  0  0
 14 15  1  0  0  0  0
 15 22  1  0  0  0  0
 16 15  2  0  0  0  0
 16 17  1  0  0  0  0
 18 16  1  0  0  0  0
 19 18  2  0  0  0  0
 20 19  1  0  0  0  0
 21 19  1  0  0  0  0
 21 14  2  0  0  0  0
 22 25  1  0  0  0  0
 22 24  1  0  0  0  0
 23 22  1  0  0  0  0
 26 18  1  0  0  0  0
 26 29  1  0  0  0  0
 27 26  1  0  0  0  0
 28 26  1  0  0  0  0
 30 31  1  0  0  0  0
 30 21  1  0  0  0  0
 32 30  1  0  0  0  0
 33 30  1  0  0  0  0
M  END
