1,3
q = -1.0, confidence = 0.02

 24 25  0  0  0  0  0  0  0  0999 V2000
    0.5851    3.1893   -0.0072 N   0  0  0  0  0  2  0  0  0  0  0  0
   -2.8767    2.1873   -0.0192 N   0  0  0  0  0  2  0  0  0  0  0  0
   -0.6749    0.5300   -0.1045 S   0  0  0  0  0  1  0  0  0  0  0  0
   -7.5556   -1.7478    0.0315 Br  0  0  0  0  0  0  0  0  0  0  0  0
    1.3411    4.3077    0.0237 C   0  0  0  0  0  0  0  0  0  0  0  0
    2.4304    4.1315    0.0393 H   0  0  0  0  0  0  0  0  0  0  0  0
    0.7768    5.5864    0.0384 C   0  0  0  0  0  0  0  0  0  0  0  0
    1.4341    6.4672    0.0627 H   0  0  0  0  0  0  0  0  0  0  0  0
   -0.6222    5.7093    0.0232 C   0  0  0  0  0  0  0  0  0  0  0  0
   -1.0999    6.7008    0.0349 H   0  0  0  0  0  0  0  0  0  0  0  0
   -1.3996    4.5502   -0.0057 C   0  0  0  0  0  0  0  0  0  0  0  0
   -2.4985    4.5549   -0.0154 H   0  0  0  0  0  0  0  0  0  0  0  0
   -0.7726    3.2902   -0.0215 C   0  0  0  0  0  0  0  0  0  0  0  0
   -1.5828    2.0416   -0.0525 C   0  0  0  0  0  0  0  0  0  0  0  0
   -3.8634    1.2181   -0.0372 C   0  0  0  0  0  0  0  0  0  0  0  0
   -5.1749    1.6718    0.2767 C   0  0  0  0  0  0  0  0  0  0  0  0
   -5.3017    2.7399    0.5062 H   0  0  0  0  0  0  0  0  0  0  0  0
   -6.2688    0.8057    0.3062 C   0  0  0  0  0  0  0  0  0  0  0  0
   -7.2714    1.1761    0.5623 H   0  0  0  0  0  0  0  0  0  0  0  0
   -6.0747   -0.5524   -0.0035 C   0  0  0  0  0  0  0  0  0  0  0  0
   -4.8000   -1.0337   -0.3414 C   0  0  0  0  0  0  0  0  0  0  0  0
   -4.6601   -2.0949   -0.5932 H   0  0  0  0  0  0  0  0  0  0  0  0
   -3.7056   -0.1617   -0.3537 C   0  0  0  0  0  0  0  0  0  0  0  0
   -2.7179   -0.5559   -0.6276 H   0  0  0  0  0  0  0  0  0  0  0  0
  1  5  1  0  0  0  0
  3 14  1  0  0  0  0
  5  7  2  0  0  0  0
  5  6  1  0  0  0  0
  7  8  1  0  0  0  0
  9 10  1  0  0  0  0
  9  7  1  0  0  0  0
 11  9  2  0  0  0  0
 12 11  1  0  0  0  0
 13  1  1  0  0  0  0
 13 11  1  0  0  0  0
 14 13  2  0  0  0  0
 14  2  1  0  0  0  0
 15  2  1  0  0  0  0
 15 16  1  0  0  0  0
 16 18  2  0  0  0  0
 16 17  1  0  0  0  0
 18 19  1  0  0  0  0
 20  4  1  0  0  0  0
 20 18  1  0  0  0  0
 21 20  2  0  0  0  0
 22 21  1  0  0  0  0
 23 21  1  0  0  0  0
 23 15  2  0  0  0  0
 24 23  1  0  0  0  0
M  END
