1,2
q = -1.0

 27 28  0  0  0  0  0  0  0  0999 V2000
   -1.3194   -0.0936   -0.2050 S   0  0  0  0  0  1  0  0  0  0  0  0
   -0.9235    2.8219   -0.0471 N   0  0  0  0  0  2  0  0  0  0  0  0
   -3.9194    0.8229   -0.1174 N   0  0  0  0  0  2  0  0  0  0  0  0
   -0.5408    4.1163   -0.0003 C   0  0  0  0  0  0  0  0  0  0  0  0
    0.5502    4.2766    0.0418 H   0  0  0  0  0  0  0  0  0  0  0  0
   -1.4647    5.1651    0.0007 C   0  0  0  0  0  0  0  0  0  0  0  0
   -1.1044    6.2029    0.0383 H   0  0  0  0  0  0  0  0  0  0  0  0
   -2.8351    4.8602   -0.0441 C   0  0  0  0  0  0  0  0  0  0  0  0
   -3.5898    5.6615   -0.0430 H   0  0  0  0  0  0  0  0  0  0  0  0
   -3.2258    3.5210   -0.0888 C   0  0  0  0  0  0  0  0  0  0  0  0
   -4.2741    3.1928   -0.1210 H   0  0  0  0  0  0  0  0  0  0  0  0
   -2.2475    2.5089   -0.0918 C   0  0  0  0  0  0  0  0  0  0  0  0
   -2.6434    1.0746   -0.1427 C   0  0  0  0  0  0  0  0  0  0  0  0
   -4.5663   -0.4029   -0.1522 C   0  0  0  0  0  0  0  0  0  0  0  0
   -5.9359   -0.3792    0.2304 C   0  0  0  0  0  0  0  0  0  0  0  0
   -6.3582    0.5956    0.5187 H   0  0  0  0  0  0  0  0  0  0  0  0
   -6.7295   -1.5335    0.2573 C   0  0  0  0  0  0  0  0  0  0  0  0
   -6.1422   -2.7567   -0.1386 C   0  0  0  0  0  0  0  0  0  0  0  0
   -6.7471   -3.6775   -0.1329 H   0  0  0  0  0  0  0  0  0  0  0  0
   -4.8015   -2.8018   -0.5454 C   0  0  0  0  0  0  0  0  0  0  0  0
   -4.3584   -3.7584   -0.8644 H   0  0  0  0  0  0  0  0  0  0  0  0
   -4.0077   -1.6474   -0.5515 C   0  0  0  0  0  0  0  0  0  0  0  0
   -2.9632   -1.7047   -0.8846 H   0  0  0  0  0  0  0  0  0  0  0  0
   -8.1725   -1.4813    0.6956 C   0  0  0  0  0  0  0  0  0  0  0  0
   -8.8435   -1.9290   -0.0666 H   0  0  0  0  0  0  0  0  0  0  0  0
   -8.5068   -0.4416    0.8766 H   0  0  0  0  0  0  0  0  0  0  0  0
   -8.3279   -2.0538    1.6346 H   0  0  0  0  0  0  0  0  0  0  0  0
  1 13  1  0  0  0  0
  2  4  1  0  0  0  0
  4  6  2  0  0  0  0
  4  5  1  0  0  0  0
  6  7  1  0  0  0  0
  8  9  1  0  0  0  0
  8  6  1  0  0  0  0
 10  8  2  0  0  0  0
 11 10  1  0  0  0  0
 12 10  1  0  0  0  0
 12  2  1  0  0  0  0
 13  3  1  0  0  0  0
 13 12  2  0  0  0  0
 14  3  1  0  0  0  0
 14 15  1  0  0  0  0
 15 17  2  0  0  0  0
 15 16  1  0  0  0  0
 17 24  1  0  0  0  0
 18 19  1  0  0  0  0
 18 17  1  0  0  0  0
 20 18  2  0  0  0  0
 21 20  1  0  0  0  0
 22 20  1  0  0  0  0
 22 14  2  0  0  0  0
 23 22  1  0  0  0  0
 24 26  1  0  0  0  0
 24 27  1  0  0  0  0
 25 24  1  0  0  0  0
M  END
