1,3
q = -1.0, confidence = 0.0

 20 20  0  0  1  0  0  0  0  0999 V2000
   -1.5500    1.3817   -0.0332 S   0  0  0  0  0  1  0  0  0  0  0  0
   -4.4877    1.9213    0.0256 S   0  0  0  0  0  0  0  0  0  0  0  0
   -1.4041   -1.7880   -0.1166 N   0  0  0  0  0  2  0  0  0  0  0  0
   -3.6684    3.5380    0.0651 C   0  0  0  0  0  0  0  0  0  0  0  0
   -3.1499    0.7535    0.0043 C   0  0  1  0  0  3  0  0  0  0  0  0
   -3.5600   -0.5853    0.0098 C   0  0  0  0  0  0  0  0  0  0  0  0
   -2.7194   -1.7345   -0.0691 C   0  0  0  0  0  0  0  0  0  0  0  0
   -3.5890   -2.9814   -0.1388 C   0  0  0  0  0  0  0  0  0  0  0  0
   -4.9394   -2.5163    0.4276 C   0  0  0  0  0  0  0  0  0  0  0  0
   -5.0158   -1.0258    0.0409 C   0  0  0  0  0  0  0  0  0  0  0  0
   -1.0504   -2.7510   -0.1733 H   0  0  0  0  0  0  0  0  0  0  0  0
   -3.1407   -3.8408    0.4018 H   0  0  0  0  0  0  0  0  0  0  0  0
   -3.6856   -3.2822   -1.2071 H   0  0  0  0  0  0  0  0  0  0  0  0
   -5.7970   -3.1101    0.0550 H   0  0  0  0  0  0  0  0  0  0  0  0
   -4.9236   -2.6088    1.5334 H   0  0  0  0  0  0  0  0  0  0  0  0
   -5.6267   -0.4338    0.7547 H   0  0  0  0  0  0  0  0  0  0  0  0
   -5.4909   -0.8916   -0.9592 H   0  0  0  0  0  0  0  0  0  0  0  0
   -3.0466    3.6923   -0.8375 H   0  0  0  0  0  0  0  0  0  0  0  0
   -3.0386    3.6450    0.9690 H   0  0  0  0  0  0  0  0  0  0  0  0
   -4.4923    4.2772    0.0876 H   0  0  0  0  0  0  0  0  0  0  0  0
  2  4  1  0  0  0  0
  3  7  1  0  0  0  0
  4 20  1  0  0  0  0
  4 19  1  0  0  0  0
  5  1  1  6  0  0  0
  5  6  1  0  0  0  0
  5  2  1  0  0  0  0
  6 10  1  0  0  0  0
  7  6  2  0  0  0  0
  8  7  1  0  0  0  0
  8 12  1  0  0  0  0
  8  9  1  0  0  0  0
  9 15  1  0  0  0  0
 10  9  1  0  0  0  0
 10 16  1  0  0  0  0
 11  3  1  0  0  0  0
 13  8  1  0  0  0  0
 14  9  1  0  0  0  0
 17 10  1  0  0  0  0
 18  4  1  0  0  0  0
M  END
