1,3
q = -1.0

 19 19  0  0  0  0  0  0  0  0999 V2000
   -1.4421    1.7236   -0.3652 S   0  0  0  0  0  1  0  0  0  0  0  0
   -0.5023   -2.2962   -1.3545 O   0  0  0  0  0  0  0  0  0  0  0  0
   -1.1372   -1.1862   -0.7643 N   0  0  0  0  0  2  0  0  0  0  0  0
   -3.0285    1.0359   -0.1058 C   0  0  0  0  0  0  0  0  0  0  0  0
   -3.3799   -0.3417   -0.3069 C   0  0  0  0  0  0  0  0  0  0  0  0
   -4.7293   -0.7550   -0.1327 C   0  0  0  0  0  0  0  0  0  0  0  0
   -5.7229    0.1431    0.2450 C   0  0  0  0  0  0  0  0  0  0  0  0
   -5.3815    1.5005    0.4316 C   0  0  0  0  0  0  0  0  0  0  0  0
   -4.0686    1.9352    0.2522 C   0  0  0  0  0  0  0  0  0  0  0  0
   -2.4398   -1.3160   -0.7946 C   0  0  0  0  0  3  0  0  0  0  0  0
    0.4568   -1.8803   -2.3242 C   0  0  0  0  0  0  0  0  0  0  0  0
   -4.9775   -1.8148   -0.3026 H   0  0  0  0  0  0  0  0  0  0  0  0
   -6.7585   -0.1982    0.3864 H   0  0  0  0  0  0  0  0  0  0  0  0
   -6.1554    2.2277    0.7221 H   0  0  0  0  0  0  0  0  0  0  0  0
   -3.8107    2.9948    0.3986 H   0  0  0  0  0  0  0  0  0  0  0  0
   -2.8215   -2.2459   -1.2520 H   0  0  0  0  0  0  0  0  0  0  0  0
    1.2536   -1.2493   -1.8750 H   0  0  0  0  0  0  0  0  0  0  0  0
   -0.0260   -1.3218   -3.1566 H   0  0  0  0  0  0  0  0  0  0  0  0
    0.8999   -2.8184   -2.7086 H   0  0  0  0  0  0  0  0  0  0  0  0
  1  4  1  0  0  0  0
  2  3  1  0  0  0  0
  4  9  1  0  0  0  0
  5  6  1  0  0  0  0
  5  4  2  0  0  0  0
  6  7  2  0  0  0  0
  7 13  1  0  0  0  0
  7  8  1  0  0  0  0
  8 14  1  0  0  0  0
  9 15  1  0  0  0  0
  9  8  2  0  0  0  0
 10  3  1  0  0  0  0
 10  5  1  0  0  0  0
 11 17  1  0  0  0  0
 11  2  1  0  0  0  0
 12  6  1  0  0  0  0
 16 10  1  0  0  0  0
 18 11  1  0  0  0  0
 19 11  1  0  0  0  0
M  END
