1,2
q = -1.0, confidence = 0.004

  9  8  0  0  0  0  0  0  0  0999 V2000
    2.1802    1.5828   -0.3814 S   0  0  0  0  0  1  0  0  0  0  0  0
   -0.6374    2.4772   -0.5365 N   0  0  0  0  0  0  0  0  0  0  0  0
    1.6914    3.2864   -0.0866 C   0  0  0  0  0  0  0  0  0  0  0  0
    0.1897    3.5300    0.0970 C   0  0  0  0  0  0  0  0  0  0  0  0
    2.4985    4.1856   -0.0130 O   0  0  0  0  0  0  0  0  0  0  0  0
   -1.6211    2.5904   -0.2603 H   0  0  0  0  0  0  0  0  0  0  0  0
   -0.6113    2.5882   -1.5623 H   0  0  0  0  0  0  0  0  0  0  0  0
   -0.0461    4.5381   -0.3009 H   0  0  0  0  0  0  0  0  0  0  0  0
   -0.0187    3.5316    1.1864 H   0  0  0  0  0  0  0  0  0  0  0  0
  1  3  1  0  0  0  0
  2  6  1  0  0  0  0
  2  4  1  0  0  0  0
  3  5  2  0  0  0  0
  3  4  1  0  0  0  0
  4  9  1  0  0  0  0
  7  2  1  0  0  0  0
  8  4  1  0  0  0  0
M  END
