1,2
q = -1.0

 33 34  0  0  1  0  0  0  0  0999 V2000
   -0.4992    1.8847   -1.0302 S   0  0  0  0  0  1  0  0  0  0  0  0
   -1.8738   -0.3380   -0.0599 N   0  0  0  0  0  2  0  0  0  0  0  0
   -2.7567    0.6874   -0.1639 N   0  0  0  0  0  2  0  0  0  0  0  0
   -2.1936    1.8094   -0.5871 C   0  0  2  0  0  3  0  0  0  0  0  0
   -4.0183   -3.2572   -0.1731 O   0  0  0  0  0  0  0  0  0  0  0  0
   -5.3334   -3.4194   -0.4235 C   0  0  0  0  0  0  0  0  0  0  0  0
   -2.9268    2.9462   -0.7638 N   0  0  0  0  0  0  0  0  0  0  0  0
   -2.4013    3.7150   -1.1850 H   0  0  0  0  0  0  0  0  0  0  0  0
   -5.0840   -5.6726   -0.1112 O   0  0  0  0  0  0  0  0  0  0  0  0
   -7.2093    2.0840    1.4665 O   0  0  0  0  0  0  0  0  0  0  0  0
   -7.0756   -4.8577   -0.5984 O   0  0  0  0  0  0  0  0  0  0  0  0
   -5.8643   -4.7564   -0.3717 N   0  0  0  0  0  0  0  0  0  0  0  0
   -2.3865   -1.5599   -0.0776 C   0  0  0  0  0  3  0  0  0  0  0  0
   -1.6822   -2.3943    0.0524 H   0  0  0  0  0  0  0  0  0  0  0  0
   -6.3901    2.7860    0.6411 C   0  0  0  0  0  0  0  0  0  0  0  0
   -4.2778    3.2283   -0.4833 C   0  0  0  0  0  0  0  0  0  0  0  0
   -5.0530    2.4276    0.3833 C   0  0  0  0  0  0  0  0  0  0  0  0
   -4.5894    1.5482    0.8410 H   0  0  0  0  0  0  0  0  0  0  0  0
   -5.9612   -2.2150   -0.6943 C   0  0  0  0  0  0  0  0  0  0  0  0
   -7.0220   -2.0910   -0.9310 H   0  0  0  0  0  0  0  0  0  0  0  0
   -3.7591   -1.9060   -0.2737 C   0  0  0  0  0  0  0  0  0  0  0  0
   -4.8332    4.3809   -1.0767 C   0  0  0  0  0  0  0  0  0  0  0  0
   -4.2237    5.0023   -1.7503 H   0  0  0  0  0  0  0  0  0  0  0  0
   -6.9531    3.9340    0.0397 C   0  0  0  0  0  0  0  0  0  0  0  0
   -7.9997    4.1850    0.2608 H   0  0  0  0  0  0  0  0  0  0  0  0
   -4.9458   -1.2308   -0.5959 C   0  0  0  0  0  0  0  0  0  0  0  0
   -5.0283   -0.1515   -0.7479 H   0  0  0  0  0  0  0  0  0  0  0  0
   -6.6849    0.9534    2.1413 C   0  0  0  0  0  0  0  0  0  0  0  0
   -6.3503    0.1624    1.4339 H   0  0  0  0  0  0  0  0  0  0  0  0
   -5.8285    1.2247    2.7980 H   0  0  0  0  0  0  0  0  0  0  0  0
   -7.5060    0.5543    2.7647 H   0  0  0  0  0  0  0  0  0  0  0  0
   -6.1671    4.7196   -0.8071 C   0  0  0  0  0  0  0  0  0  0  0  0
   -6.6007    5.6171   -1.2728 H   0  0  0  0  0  0  0  0  0  0  0  0
  3  2  1  0  0  0  0
  4  1  1  6  0  0  0
  4  3  1  0  0  0  0
  6 12  1  0  0  0  0
  6  5  1  0  0  0  0
  7  4  1  0  0  0  0
  7 16  1  0  0  0  0
  8  7  1  0  0  0  0
 10 28  1  0  0  0  0
 11 12  2  0  0  0  0
 12  9  2  0  0  0  0
 13  2  1  0  0  0  0
 13 14  1  0  0  0  0
 15 10  1  0  0  0  0
 16 17  2  0  0  0  0
 17 15  1  0  0  0  0
 17 18  1  0  0  0  0
 19 26  1  0  0  0  0
 19  6  2  0  0  0  0
 20 19  1  0  0  0  0
 21  5  1  0  0  0  0
 21 13  1  0  0  0  0
 22 32  2  0  0  0  0
 22 16  1  0  0  0  0
 23 22  1  0  0  0  0
 24 25  1  0  0  0  0
 24 15  2  0  0  0  0
 26 21  2  0  0  0  0
 27 26  1  0  0  0  0
 28 31  1  0  0  0  0
 28 30  1  0  0  0  0
 29 28  1  0  0  0  0
 32 24  1  0  0  0  0
 33 32  1  0  0  0  0
M  END
