1,2
q = -1.0

 26 26  0  0  1  0  0  0  0  0999 V2000
    1.5948    2.0671   -0.0355 S   0  0  0  0  0  1  0  0  0  0  0  0
    1.3076   -0.6519   -0.6495 N   0  0  0  0  0  2  0  0  0  0  0  0
    2.6354   -0.4254   -0.3509 N   0  0  0  0  0  2  0  0  0  0  0  0
    4.1287    1.2989    0.2012 N   0  0  0  0  0  0  0  0  0  0  0  0
    4.1573    2.2930    0.4354 H   0  0  0  0  0  0  0  0  0  0  0  0
    5.3747    0.6574    0.1683 C   0  0  0  0  0  0  0  0  0  0  0  0
    6.5163    1.4479    0.4440 C   0  0  0  0  0  0  0  0  0  0  0  0
    6.3912    2.5195    0.6697 H   0  0  0  0  0  0  0  0  0  0  0  0
    7.7944    0.8810    0.4292 C   0  0  0  0  0  0  0  0  0  0  0  0
    8.6678    1.5147    0.6460 H   0  0  0  0  0  0  0  0  0  0  0  0
    7.9636   -0.4832    0.1391 C   0  0  0  0  0  0  0  0  0  0  0  0
    8.9689   -0.9293    0.1268 H   0  0  0  0  0  0  0  0  0  0  0  0
    6.8318   -1.2669   -0.1328 C   0  0  0  0  0  0  0  0  0  0  0  0
    6.9487   -2.3381   -0.3595 H   0  0  0  0  0  0  0  0  0  0  0  0
    5.5427   -0.7160   -0.1202 C   0  0  0  0  0  0  0  0  0  0  0  0
    4.6526   -1.3216   -0.3253 H   0  0  0  0  0  0  0  0  0  0  0  0
    2.8629    0.8402   -0.0621 C   0  0  1  0  0  3  0  0  0  0  0  0
    1.0711   -1.7057   -1.4003 C   0  0  0  0  0  3  0  0  0  0  0  0
   -0.3054   -2.0117   -1.8995 C   0  0  0  0  0  0  0  0  0  0  0  0
   -1.0367   -1.2298   -1.6355 H   0  0  0  0  0  0  0  0  0  0  0  0
   -0.6673   -2.9899   -1.5135 H   0  0  0  0  0  0  0  0  0  0  0  0
   -0.2733   -2.1075   -3.0062 H   0  0  0  0  0  0  0  0  0  0  0  0
    2.2033   -2.5946   -1.8267 C   0  0  0  0  0  0  0  0  0  0  0  0
    2.7325   -3.0019   -0.9396 H   0  0  0  0  0  0  0  0  0  0  0  0
    2.9663   -2.0163   -2.3884 H   0  0  0  0  0  0  0  0  0  0  0  0
    1.8397   -3.4303   -2.4530 H   0  0  0  0  0  0  0  0  0  0  0  0
  2  3  1  0  0  0  0
  3 17  1  0  0  0  0
  4  5  1  0  0  0  0
  6  4  1  0  0  0  0
  6  7  1  0  0  0  0
  7  8  1  0  0  0  0
  9  7  2  0  0  0  0
  9 10  1  0  0  0  0
 11  9  1  0  0  0  0
 12 11  1  0  0  0  0
 13 15  1  0  0  0  0
 13 11  2  0  0  0  0
 14 13  1  0  0  0  0
 15  6  2  0  0  0  0
 16 15  1  0  0  0  0
 17  1  1  6  0  0  0
 17  4  1  0  0  0  0
 18  2  1  0  0  0  0
 19 20  1  0  0  0  0
 19 21  1  0  0  0  0
 19 18  1  0  0  0  0
 22 19  1  0  0  0  0
 23 18  1  0  0  0  0
 23 24  1  0  0  0  0
 25 23  1  0  0  0  0
 26 23  1  0  0  0  0
M  END
