1,6
q = -1.0, confidence = 0.0

 27 28  0  0  1  0  0  0  0  0999 V2000
    1.1364   -1.6870   -0.8480 S   0  0  0  0  0  1  0  0  0  0  0  0
    2.7817    4.3586   -0.1851 O   0  0  0  0  0  0  0  0  0  0  0  0
    3.7486   -1.9207   -0.4105 N   0  0  0  0  0  0  0  0  0  0  0  0
    3.4994   -2.8322   -0.7984 H   0  0  0  0  0  0  0  0  0  0  0  0
    2.8499    0.2019    0.0405 N   0  0  0  0  0  2  0  0  0  0  0  0
    1.6793    0.9074    0.0220 N   0  0  0  0  0  2  0  0  0  0  0  0
    5.1009   -1.7584   -0.0751 C   0  0  0  0  0  0  0  0  0  0  0  0
    5.5824   -0.6883    0.7117 C   0  0  0  0  0  0  0  0  0  0  0  0
    4.8722    0.0608    1.0811 H   0  0  0  0  0  0  0  0  0  0  0  0
    6.9489   -0.6106    1.0143 C   0  0  0  0  0  0  0  0  0  0  0  0
    7.3092    0.2282    1.6297 H   0  0  0  0  0  0  0  0  0  0  0  0
    7.8518   -1.5826    0.5556 C   0  0  0  0  0  0  0  0  0  0  0  0
    8.9220   -1.5101    0.7990 H   0  0  0  0  0  0  0  0  0  0  0  0
    7.3691   -2.6537   -0.2144 C   0  0  0  0  0  0  0  0  0  0  0  0
    8.0592   -3.4292   -0.5798 H   0  0  0  0  0  0  0  0  0  0  0  0
    6.0091   -2.7431   -0.5298 C   0  0  0  0  0  0  0  0  0  0  0  0
    5.6380   -3.5817   -1.1408 H   0  0  0  0  0  0  0  0  0  0  0  0
    2.6903   -1.0511   -0.3364 C   0  0  1  0  0  3  0  0  0  0  0  0
    1.7925    2.2225   -0.0551 C   0  0  0  0  0  3  0  0  0  0  0  0
    0.8519    2.7928   -0.0451 H   0  0  0  0  0  0  0  0  0  0  0  0
    2.9932    2.9907   -0.1673 C   0  0  0  0  0  0  0  0  0  0  0  0
    4.3597    2.7431   -0.2980 C   0  0  0  0  0  0  0  0  0  0  0  0
    4.8187    1.7523   -0.3246 H   0  0  0  0  0  0  0  0  0  0  0  0
    4.9948    4.0145   -0.3988 C   0  0  0  0  0  0  0  0  0  0  0  0
    6.0658    4.2139   -0.5142 H   0  0  0  0  0  0  0  0  0  0  0  0
    3.9877    4.9562   -0.3224 C   0  0  0  0  0  0  0  0  0  0  0  0
    3.9790    6.0510   -0.3495 H   0  0  0  0  0  0  0  0  0  0  0  0
  2 21  1  0  0  0  0
  3 18  1  0  0  0  0
  3  7  1  0  0  0  0
  4  3  1  0  0  0  0
  6  5  1  0  0  0  0
  7  8  1  0  0  0  0
  8 10  2  0  0  0  0
  8  9  1  0  0  0  0
 10 11  1  0  0  0  0
 12 13  1  0  0  0  0
 12 10  1  0  0  0  0
 14 12  2  0  0  0  0
 15 14  1  0  0  0  0
 16 14  1  0  0  0  0
 16  7  2  0  0  0  0
 17 16  1  0  0  0  0
 18  1  1  6  0  0  0
 18  5  1  0  0  0  0
 19 20  1  0  0  0  0
 19  6  1  0  0  0  0
 21 19  1  0  0  0  0
 22 21  2  0  0  0  0
 23 22  1  0  0  0  0
 24 26  2  0  0  0  0
 24 22  1  0  0  0  0
 25 24  1  0  0  0  0
 26  2  1  0  0  0  0
 27 26  1  0  0  0  0
M  END
