1,2
q = -1.0

 34 35  0  0  0  0  0  0  0  0999 V2000
   -1.4544    2.0349   -0.4005 S   0  0  0  0  0  1  0  0  0  0  0  0
   -0.9077   -0.9494   -1.0136 N   0  0  0  0  0  2  0  0  0  0  0  0
   -2.9319    1.1424   -0.3710 C   0  0  0  0  0  0  0  0  0  0  0  0
   -2.2042   -1.1292   -1.1794 C   0  0  0  0  0  3  0  0  0  0  0  0
    0.0125   -1.8656   -1.5880 C   0  0  0  0  0  0  0  0  0  0  0  0
   -4.1619    1.6813   -0.1238 N   0  0  0  0  0  0  0  0  0  0  0  0
   -3.1841   -0.2166   -0.7280 C   0  0  0  0  0  0  0  0  0  0  0  0
   -2.5405   -2.0160   -1.7503 H   0  0  0  0  0  0  0  0  0  0  0  0
    1.2238   -1.3570   -2.1067 C   0  0  0  0  0  0  0  0  0  0  0  0
   -0.2124   -3.2587   -1.5973 C   0  0  0  0  0  0  0  0  0  0  0  0
   -5.1846    0.7889   -0.2973 N   0  0  0  0  0  0  0  0  0  0  0  0
   -4.4580    3.0832    0.1872 C   0  0  0  0  0  0  0  0  0  0  0  0
   -4.6163   -0.3549   -0.6668 C   0  0  0  0  0  0  0  0  0  0  0  0
    2.1896   -2.2266   -2.6261 C   0  0  0  0  0  0  0  0  0  0  0  0
    1.3890   -0.2688   -2.0897 H   0  0  0  0  0  0  0  0  0  0  0  0
    0.7573   -4.1223   -2.1270 C   0  0  0  0  0  0  0  0  0  0  0  0
   -1.1283   -3.6656   -1.1451 H   0  0  0  0  0  0  0  0  0  0  0  0
   -5.4347    3.1718    1.3600 C   0  0  0  0  0  0  0  0  0  0  0  0
   -4.9543    3.8075   -1.0683 C   0  0  0  0  0  0  0  0  0  0  0  0
   -3.4761    3.5087    0.4870 H   0  0  0  0  0  0  0  0  0  0  0  0
   -5.4269   -1.5855   -0.9167 C   0  0  0  0  0  0  0  0  0  0  0  0
    1.9617   -3.6134   -2.6393 C   0  0  0  0  0  0  0  0  0  0  0  0
    3.1298   -1.8152   -3.0234 H   0  0  0  0  0  0  0  0  0  0  0  0
    0.5761   -5.2081   -2.1186 H   0  0  0  0  0  0  0  0  0  0  0  0
   -6.3955    2.6874    1.0996 H   0  0  0  0  0  0  0  0  0  0  0  0
   -5.0246    2.6664    2.2564 H   0  0  0  0  0  0  0  0  0  0  0  0
   -5.6258    4.2330    1.6136 H   0  0  0  0  0  0  0  0  0  0  0  0
   -4.2003    3.7475   -1.8778 H   0  0  0  0  0  0  0  0  0  0  0  0
   -5.8957    3.3461   -1.4282 H   0  0  0  0  0  0  0  0  0  0  0  0
   -5.1456    4.8767   -0.8494 H   0  0  0  0  0  0  0  0  0  0  0  0
   -5.1773   -2.3887   -0.1920 H   0  0  0  0  0  0  0  0  0  0  0  0
   -6.5030   -1.3489   -0.8219 H   0  0  0  0  0  0  0  0  0  0  0  0
   -5.2455   -1.9940   -1.9331 H   0  0  0  0  0  0  0  0  0  0  0  0
    2.7231   -4.2967   -3.0446 H   0  0  0  0  0  0  0  0  0  0  0  0
  1  3  1  0  0  0  0
  3  6  1  0  0  0  0
  4  2  1  0  0  0  0
  4  7  1  0  0  0  0
  5  2  1  0  0  0  0
  6 12  1  0  0  0  0
  7 13  1  0  0  0  0
  7  3  2  0  0  0  0
  8  4  1  0  0  0  0
  9 15  1  0  0  0  0
  9  5  2  0  0  0  0
 10  5  1  0  0  0  0
 10 17  1  0  0  0  0
 11  6  1  0  0  0  0
 12 20  1  0  0  0  0
 12 18  1  0  0  0  0
 13 11  2  0  0  0  0
 14  9  1  0  0  0  0
 16 24  1  0  0  0  0
 16 10  2  0  0  0  0
 18 27  1  0  0  0  0
 18 26  1  0  0  0  0
 19 30  1  0  0  0  0
 19 12  1  0  0  0  0
 21 32  1  0  0  0  0
 21 13  1  0  0  0  0
 21 31  1  0  0  0  0
 22 14  2  0  0  0  0
 22 16  1  0  0  0  0
 23 14  1  0  0  0  0
 25 18  1  0  0  0  0
 28 19  1  0  0  0  0
 29 19  1  0  0  0  0
 33 21  1  0  0  0  0
 34 22  1  0  0  0  0
M  END
