1,2
q = -1.0

 22 22  0  0  1  0  0  0  0  0999 V2000
   -0.8634    2.1200   -0.6786 S   0  0  0  0  0  1  0  0  0  0  0  0
   -2.2099   -0.0838   -0.2066 N   0  0  0  0  0  2  0  0  0  0  0  0
   -3.5657    1.8086   -0.7231 N   0  0  0  0  0  0  0  0  0  0  0  0
   -2.3700    1.2371   -0.5292 C   0  0  2  0  0  3  0  0  0  0  0  0
   -4.6574    1.0299   -0.6113 C   0  0  0  0  0  0  0  0  0  0  0  0
   -4.5848   -0.3534   -0.2931 C   0  0  0  0  0  0  0  0  0  0  0  0
   -3.2879   -0.8767   -0.0785 C   0  0  0  0  0  0  0  0  0  0  0  0
   -5.9791    1.7109   -0.8578 C   0  0  0  0  0  0  0  0  0  0  0  0
   -5.8024    2.7885   -1.0222 H   0  0  0  0  0  0  0  0  0  0  0  0
   -6.6772    1.5794   -0.0064 H   0  0  0  0  0  0  0  0  0  0  0  0
   -6.4828    1.2921   -1.7544 H   0  0  0  0  0  0  0  0  0  0  0  0
   -5.8193   -1.2115   -0.1410 C   0  0  0  0  0  0  0  0  0  0  0  0
   -6.6034   -0.8620   -0.8433 H   0  0  0  0  0  0  0  0  0  0  0  0
   -5.5896   -2.2530   -0.4464 H   0  0  0  0  0  0  0  0  0  0  0  0
   -6.3861   -1.2158    1.2891 C   0  0  0  0  0  0  0  0  0  0  0  0
   -7.2905   -1.8531    1.3606 H   0  0  0  0  0  0  0  0  0  0  0  0
   -6.6641   -0.1934    1.6159 H   0  0  0  0  0  0  0  0  0  0  0  0
   -5.6421   -1.5988    2.0166 H   0  0  0  0  0  0  0  0  0  0  0  0
   -3.0290   -2.3147    0.2784 C   0  0  0  0  0  0  0  0  0  0  0  0
   -1.9704   -2.4502    0.5675 H   0  0  0  0  0  0  0  0  0  0  0  0
   -3.2356   -2.9782   -0.5876 H   0  0  0  0  0  0  0  0  0  0  0  0
   -3.6772   -2.6536    1.1100 H   0  0  0  0  0  0  0  0  0  0  0  0
  2  7  1  0  0  0  0
  3  5  2  0  0  0  0
  3  4  1  0  0  0  0
  4  1  1  6  0  0  0
  4  2  1  0  0  0  0
  5  6  1  0  0  0  0
  6 12  1  0  0  0  0
  6  7  2  0  0  0  0
  7 19  1  0  0  0  0
  8  5  1  0  0  0  0
  8 10  1  0  0  0  0
  9  8  1  0  0  0  0
 11  8  1  0  0  0  0
 12 15  1  0  0  0  0
 13 12  1  0  0  0  0
 14 12  1  0  0  0  0
 15 16  1  0  0  0  0
 15 17  1  0  0  0  0
 15 18  1  0  0  0  0
 19 20  1  0  0  0  0
 19 22  1  0  0  0  0
 21 19  1  0  0  0  0
M  END
