1,3
q = -1.0

 10 10  0  0  1  0  0  0  0  0999 V2000
   -1.6292    0.6413    1.9938 S   0  0  0  0  0  1  0  0  0  0  0  0
   -4.0623   -0.9673    0.7967 S   0  0  0  0  0  0  0  0  0  0  0  0
   -2.2103    0.3812   -0.4855 N   0  0  0  0  0  2  0  0  0  0  0  0
   -2.5983    0.0283    0.7166 C   0  0  1  0  0  3  0  0  0  0  0  0
   -3.9810   -1.1526   -1.0429 C   0  0  0  0  0  0  0  0  0  0  0  0
   -3.4974   -2.1253   -1.2615 H   0  0  0  0  0  0  0  0  0  0  0  0
   -5.0084   -1.1474   -1.4525 H   0  0  0  0  0  0  0  0  0  0  0  0
   -3.1290    0.0283   -1.5496 C   0  0  0  0  0  0  0  0  0  0  0  0
   -2.5737   -0.2519   -2.4685 H   0  0  0  0  0  0  0  0  0  0  0  0
   -3.7635    0.9117   -1.7966 H   0  0  0  0  0  0  0  0  0  0  0  0
  3  4  1  0  0  0  0
  4  2  1  0  0  0  0
  4  1  1  1  0  0  0
  5  2  1  0  0  0  0
  6  5  1  0  0  0  0
  7  5  1  0  0  0  0
  8  5  1  0  0  0  0
  8  3  1  0  0  0  0
  9  8  1  0  0  0  0
 10  8  1  0  0  0  0
M  END
