1,2
q = -1.0, confidence = 0.0

 17 18  0  0  1  0  0  0  0  0999 V2000
    2.5214   -2.2439   -0.2101 S   0  0  0  0  0  1  0  0  0  0  0  0
    1.6239    0.1374   -0.2112 N   0  0  0  0  0  2  0  0  0  0  0  0
    2.7903   -0.5368   -0.1372 C   0  0  0  0  0  0  0  0  0  0  0  0
    4.0410    0.1328    0.0113 C   0  0  0  0  0  0  0  0  0  0  0  0
    4.0452    1.5101    0.0684 C   0  0  0  0  0  0  0  0  0  0  0  0
    2.8234    2.2457   -0.0434 C   0  0  0  0  0  0  0  0  0  0  0  0
    2.7785    3.6653   -0.0229 C   0  0  0  0  0  0  0  0  0  0  0  0
    1.5738    4.3435   -0.1658 C   0  0  0  0  0  0  0  0  0  0  0  0
    0.3736    3.6120   -0.3461 C   0  0  0  0  0  0  0  0  0  0  0  0
    0.3786    2.2221   -0.3651 C   0  0  0  0  0  0  0  0  0  0  0  0
    1.5945    1.5078   -0.2004 C   0  0  1  0  0  3  0  0  0  0  0  0
    4.9618   -0.4626    0.0838 H   0  0  0  0  0  0  0  0  0  0  0  0
    4.9897    2.0633    0.1910 H   0  0  0  0  0  0  0  0  0  0  0  0
    3.7225    4.2185    0.1021 H   0  0  0  0  0  0  0  0  0  0  0  0
    1.5512    5.4431   -0.1494 H   0  0  0  0  0  0  0  0  0  0  0  0
   -0.5786    4.1479   -0.4784 H   0  0  0  0  0  0  0  0  0  0  0  0
   -0.5470    1.6587   -0.5205 H   0  0  0  0  0  0  0  0  0  0  0  0
  1  3  1  0  0  0  0
  2 11  1  0  0  0  0
  2  3  1  0  0  0  0
  3  4  2  0  0  0  0
  4  5  1  0  0  0  0
  4 12  1  0  0  0  0
  5 13  1  0  0  0  0
  6  7  1  0  0  0  0
  6  5  2  0  0  0  0
  7 14  1  0  0  0  0
  8 15  1  0  0  0  0
  8  7  2  0  0  0  0
  9  8  1  0  0  0  0
 10  9  2  0  0  0  0
 11 10  1  6  0  0  0
 11  6  1  0  0  0  0
 16  9  1  0  0  0  0
 17 10  1  0  0  0  0
M  END
