22,37
q = -1.0

 37 38  0  0  0  0  0  0  0  0999 V2000
   -4.4080   -0.5738   -0.4789 N   0  0  0  0  0  0  0  0  0  0  0  0
   -5.1055   -1.5450    0.2935 C   0  0  0  0  0  0  0  0  0  0  0  0
   -6.2222   -2.1809   -0.2838 C   0  0  0  0  0  0  0  0  0  0  0  0
   -6.5123   -1.9088   -1.3071 H   0  0  0  0  0  0  0  0  0  0  0  0
   -6.9431   -3.1257    0.4565 C   0  0  0  0  0  0  0  0  0  0  0  0
   -7.8131   -3.6209   -0.0009 H   0  0  0  0  0  0  0  0  0  0  0  0
   -6.5589   -3.4446    1.7691 C   0  0  0  0  0  0  0  0  0  0  0  0
   -7.1237   -4.1922    2.3460 H   0  0  0  0  0  0  0  0  0  0  0  0
   -5.4533   -2.7976    2.3422 C   0  0  0  0  0  0  0  0  0  0  0  0
   -5.1518   -3.0289    3.3750 H   0  0  0  0  0  0  0  0  0  0  0  0
   -4.7263   -1.8441    1.6157 C   0  0  0  0  0  0  0  0  0  0  0  0
   -3.8689   -1.3319    2.0692 H   0  0  0  0  0  0  0  0  0  0  0  0
   -5.1420    0.1851   -1.3605 N   0  0  0  0  0  0  0  0  0  0  0  0
   -4.2750    0.9739   -1.9745 C   0  0  0  0  0  0  0  0  0  0  0  0
   -4.7346    1.9586   -3.0026 C   0  0  0  0  0  0  0  0  0  0  0  0
   -5.8286    1.8662   -3.1343 H   0  0  0  0  0  0  0  0  0  0  0  0
   -4.2493    1.7827   -3.9854 H   0  0  0  0  0  0  0  0  0  0  0  0
   -4.5053    3.0024   -2.7037 H   0  0  0  0  0  0  0  0  0  0  0  0
   -2.9311    0.7434   -1.5031 C   0  0  0  0  0  0  0  0  0  0  0  0
   -1.7881    1.4176   -2.0279 C   0  0  0  0  0  3  0  0  0  0  0  0
   -2.0268    2.0774   -2.8842 H   0  0  0  0  0  0  0  0  0  0  0  0
   -0.5427    1.3525   -1.6301 N   0  0  0  0  0  2  0  0  0  0  0  0
    0.5175    2.0679   -2.4007 C   0  0  0  0  0  0  0  0  0  0  0  0
   -0.0160    3.2386   -3.2443 C   0  0  0  0  0  0  0  0  0  0  0  0
   -0.6632    2.9086   -4.0812 H   0  0  0  0  0  0  0  0  0  0  0  0
    0.8407    3.7748   -3.6961 H   0  0  0  0  0  0  0  0  0  0  0  0
   -0.5818    3.9635   -2.6238 H   0  0  0  0  0  0  0  0  0  0  0  0
    1.1893    1.0262   -3.3183 C   0  0  0  0  0  0  0  0  0  0  0  0
    0.4611    0.6313   -4.0550 H   0  0  0  0  0  0  0  0  0  0  0  0
    1.5744    0.1785   -2.7167 H   0  0  0  0  0  0  0  0  0  0  0  0
    2.0356    1.4837   -3.8697 H   0  0  0  0  0  0  0  0  0  0  0  0
    1.5415    2.6128   -1.3916 C   0  0  0  0  0  0  0  0  0  0  0  0
    1.0711    3.3368   -0.6968 H   0  0  0  0  0  0  0  0  0  0  0  0
    2.3681    3.1241   -1.9230 H   0  0  0  0  0  0  0  0  0  0  0  0
    1.9873    1.7956   -0.7928 H   0  0  0  0  0  0  0  0  0  0  0  0
   -3.0556   -0.2943   -0.5272 C   0  0  0  0  0  0  0  0  0  0  0  0
   -1.8519   -1.1671    0.3521 S   0  0  0  0  0  1  0  0  0  0  0  0
  1  2  1  0  0  0  0
  2 11  1  0  0  0  0
  3  2  2  0  0  0  0
  3  5  1  0  0  0  0
  4  3  1  0  0  0  0
  5  7  2  0  0  0  0
  6  5  1  0  0  0  0
  7  9  1  0  0  0  0
  7  8  1  0  0  0  0
  9 10  1  0  0  0  0
 11 12  1  0  0  0  0
 11  9  2  0  0  0  0
 13  1  1  0  0  0  0
 14 19  1  0  0  0  0
 14 13  2  0  0  0  0
 15 18  1  0  0  0  0
 15 14  1  0  0  0  0
 16 15  1  0  0  0  0
 17 15  1  0  0  0  0
 19 36  2  0  0  0  0
 20 22  1  0  0  0  0
 20 19  1  0  0  0  0
 21 20  1  0  0  0  0
 23 22  1  0  0  0  0
 23 32  1  0  0  0  0
 24 27  1  0  0  0  0
 24 23  1  0  0  0  0
 25 24  1  0  0  0  0
 26 24  1  0  0  0  0
 28 30  1  0  0  0  0
 28 23  1  0  0  0  0
 29 28  1  0  0  0  0
 31 28  1  0  0  0  0
 32 35  1  0  0  0  0
 32 33  1  0  0  0  0
 34 32  1  0  0  0  0
 36  1  1  0  0  0  0
 36 37  1  0  0  0  0
M  END
