2,3
q = -1.0

 25 26  0  0  0  0  0  0  0  0999 V2000
    0.3565   -3.6357   -1.7987 Cl  0  0  0  0  0  0  0  0  0  0  0  0
   -1.4775    3.1091   -0.5238 S   0  0  0  0  0  1  0  0  0  0  0  0
   -1.0309    0.3230   -1.0009 N   0  0  0  0  0  2  0  0  0  0  0  0
   -2.7594    1.9664   -0.8843 C   0  0  0  0  0  0  0  0  0  0  0  0
   -2.4194    0.5981   -1.0720 C   0  0  0  0  0  0  0  0  0  0  0  0
   -3.4177   -0.3647   -1.3176 C   0  0  0  0  0  0  0  0  0  0  0  0
   -4.7585    0.0258   -1.3829 C   0  0  0  0  0  0  0  0  0  0  0  0
   -5.1027    1.3856   -1.2288 C   0  0  0  0  0  0  0  0  0  0  0  0
   -4.1171    2.3478   -0.9880 C   0  0  0  0  0  0  0  0  0  0  0  0
   -0.5161   -0.7194   -1.6099 C   0  0  0  0  0  3  0  0  0  0  0  0
    0.9090   -0.9471   -1.7812 C   0  0  0  0  0  0  0  0  0  0  0  0
    1.4303   -2.2615   -1.9208 C   0  0  0  0  0  0  0  0  0  0  0  0
    2.7984   -2.4867   -2.1147 C   0  0  0  0  0  0  0  0  0  0  0  0
    3.6766   -1.3929   -2.1929 C   0  0  0  0  0  0  0  0  0  0  0  0
    3.1849   -0.0825   -2.0881 C   0  0  0  0  0  0  0  0  0  0  0  0
    1.8196    0.1355   -1.8875 C   0  0  0  0  0  0  0  0  0  0  0  0
   -3.1510   -1.4282   -1.4050 H   0  0  0  0  0  0  0  0  0  0  0  0
   -5.5416   -0.7298   -1.5415 H   0  0  0  0  0  0  0  0  0  0  0  0
   -6.1581    1.6932   -1.2842 H   0  0  0  0  0  0  0  0  0  0  0  0
   -4.3855    3.4065   -0.8549 H   0  0  0  0  0  0  0  0  0  0  0  0
   -1.1952   -1.4481   -2.0879 H   0  0  0  0  0  0  0  0  0  0  0  0
    3.1665   -3.5190   -2.1954 H   0  0  0  0  0  0  0  0  0  0  0  0
    4.7521   -1.5725   -2.3394 H   0  0  0  0  0  0  0  0  0  0  0  0
    3.8684    0.7765   -2.1488 H   0  0  0  0  0  0  0  0  0  0  0  0
    1.4236    1.1632   -1.8201 H   0  0  0  0  0  0  0  0  0  0  0  0
  4  2  1  0  0  0  0
  5  3  1  0  0  0  0
  5  4  2  0  0  0  0
  6  5  1  0  0  0  0
  7  6  2  0  0  0  0
  7  8  1  0  0  0  0
  8  9  2  0  0  0  0
  9  4  1  0  0  0  0
  9 20  1  0  0  0  0
 10  3  1  0  0  0  0
 11 10  1  0  0  0  0
 12  1  1  0  0  0  0
 12 11  2  0  0  0  0
 13 12  1  0  0  0  0
 14 13  2  0  0  0  0
 14 15  1  0  0  0  0
 15 16  2  0  0  0  0
 16 25  1  0  0  0  0
 16 11  1  0  0  0  0
 17  6  1  0  0  0  0
 18  7  1  0  0  0  0
 19  8  1  0  0  0  0
 21 10  1  0  0  0  0
 22 13  1  0  0  0  0
 23 14  1  0  0  0  0
 24 15  1  0  0  0  0
M  END
