1,2
q = 0.0, confidence = 0.998

 33 34  0  0  1  0  0  0  0  0999 V2000
    1.4875   -1.9069   -1.2545 S   0  0  0  0  0  1  0  0  0  0  0  0
    0.0069    0.5011   -0.1694 N   0  0  0  0  0  2  0  0  0  0  0  0
   -0.7204   -0.6344   -0.3807 N   0  0  0  0  0  0  0  0  0  0  0  0
   -1.6300   -0.6912    0.1262 H   0  0  0  0  0  0  0  0  0  0  0  0
   -2.0567    1.9360    0.2078 C   0  0  0  0  0  0  0  0  0  0  0  0
   -0.1431   -1.7797   -0.8335 C   0  0  1  0  0  3  0  0  0  0  0  0
   -0.6323    1.6093    0.1286 C   0  0  0  0  0  3  0  0  0  0  0  0
    0.0491    2.4656    0.2439 H   0  0  0  0  0  0  0  0  0  0  0  0
   -0.9877   -2.8573   -0.9407 N   0  0  0  0  0  0  0  0  0  0  0  0
   -0.5174   -3.7639   -0.9801 H   0  0  0  0  0  0  0  0  0  0  0  0
   -2.3922    3.2691   -0.1537 C   0  0  0  0  0  0  0  0  0  0  0  0
   -1.5723    3.9512   -0.4254 H   0  0  0  0  0  0  0  0  0  0  0  0
   -3.7040    3.7308   -0.2156 C   0  0  0  0  0  0  0  0  0  0  0  0
   -3.9149    4.7670   -0.5227 H   0  0  0  0  0  0  0  0  0  0  0  0
   -3.1448    1.1030    0.6071 C   0  0  0  0  0  0  0  0  0  0  0  0
   -4.7626    2.8575    0.1167 C   0  0  0  0  0  0  0  0  0  0  0  0
   -4.4704    1.5469    0.5350 C   0  0  0  0  0  0  0  0  0  0  0  0
   -5.2966    0.8896    0.8442 H   0  0  0  0  0  0  0  0  0  0  0  0
   -2.3819   -2.8114   -0.6738 C   0  0  0  0  0  0  0  0  0  0  0  0
   -4.2857   -3.4295    0.7098 C   0  0  0  0  0  0  0  0  0  0  0  0
   -4.7012   -3.9999    1.5540 H   0  0  0  0  0  0  0  0  0  0  0  0
   -3.2190   -1.9845   -1.4527 C   0  0  0  0  0  0  0  0  0  0  0  0
   -2.7907   -1.4279   -2.2986 H   0  0  0  0  0  0  0  0  0  0  0  0
   -2.9218   -3.5445    0.4018 C   0  0  0  0  0  0  0  0  0  0  0  0
   -2.2592   -4.1753    1.0127 H   0  0  0  0  0  0  0  0  0  0  0  0
   -2.8652   -0.1377    1.1147 O   0  0  0  0  0  0  0  0  0  0  0  0
   -3.6831   -0.6755    1.1767 H   0  0  0  0  0  0  0  0  0  0  0  0
   -6.0648    3.2231    0.0741 O   0  0  0  0  0  0  0  0  0  0  0  0
   -6.1225    4.1555   -0.2080 H   0  0  0  0  0  0  0  0  0  0  0  0
   -4.5765   -1.8610   -1.1278 C   0  0  0  0  0  0  0  0  0  0  0  0
   -5.2216   -1.2052   -1.7314 H   0  0  0  0  0  0  0  0  0  0  0  0
   -5.1139   -2.5762   -0.0417 C   0  0  0  0  0  0  0  0  0  0  0  0
   -6.1817   -2.4837    0.2071 H   0  0  0  0  0  0  0  0  0  0  0  0
  2  7  1  0  0  0  0
  3  2  1  0  0  0  0
  3  4  1  0  0  0  0
  5 15  1  0  0  0  0
  6  1  1  6  0  0  0
  6  3  1  0  0  0  0
  7  5  1  0  0  0  0
  7  8  1  0  0  0  0
  9  6  1  0  0  0  0
  9 19  1  0  0  0  0
 10  9  1  0  0  0  0
 11  5  2  0  0  0  0
 12 11  1  0  0  0  0
 13 11  1  0  0  0  0
 13 16  2  0  0  0  0
 14 13  1  0  0  0  0
 15 26  1  0  0  0  0
 16 17  1  0  0  0  0
 17 15  2  0  0  0  0
 17 18  1  0  0  0  0
 19 24  1  0  0  0  0
 20 21  1  0  0  0  0
 22 30  1  0  0  0  0
 22 19  2  0  0  0  0
 23 22  1  0  0  0  0
 24 20  2  0  0  0  0
 24 25  1  0  0  0  0
 26 27  1  0  0  0  0
 28 16  1  0  0  0  0
 29 28  1  0  0  0  0
 30 32  2  0  0  0  0
 31 30  1  0  0  0  0
 32 33  1  0  0  0  0
 32 20  1  0  0  0  0
M  END
