1,8
q = -1.0

 42 45  0  0  1  0  0  0  0  0999 V2000
   -2.3212   -0.2440   -0.3076 S   0  0  0  0  0  1  0  0  0  0  0  0
    3.9536    4.5001   -1.7184 C   0  0  0  0  0  0  0  0  0  0  0  0
    3.9670    4.8774   -2.7522 H   0  0  0  0  0  0  0  0  0  0  0  0
    3.9396    2.9756    2.2362 C   0  0  0  0  0  0  0  0  0  0  0  0
    4.8742    2.9677    2.8197 H   0  0  0  0  0  0  0  0  0  0  0  0
   -3.8015    1.5829   -1.5060 N   0  0  0  0  0  0  0  0  0  0  0  0
   -4.3798    0.7400   -1.5132 H   0  0  0  0  0  0  0  0  0  0  0  0
   -0.4927    2.0040   -0.3121 N   0  0  0  0  0  2  0  0  0  0  0  0
    1.5364    2.9625    0.7229 C   0  0  0  0  0  0  0  0  0  0  0  0
   -2.5608    1.3713   -0.9588 C   0  0  1  0  0  3  0  0  0  0  0  0
   -4.4172    2.7279   -2.0321 C   0  0  0  0  0  0  0  0  0  0  0  0
   -1.6695    2.3427   -0.9133 N   0  0  0  0  0  2  0  0  0  0  0  0
   -3.7942    3.9934   -2.1125 C   0  0  0  0  0  0  0  0  0  0  0  0
   -2.7669    4.0997   -1.7461 H   0  0  0  0  0  0  0  0  0  0  0  0
   -6.4300    3.6722   -3.0480 C   0  0  0  0  0  0  0  0  0  0  0  0
   -7.4600    3.5350   -3.4109 H   0  0  0  0  0  0  0  0  0  0  0  0
   -5.7431    2.5812   -2.5066 C   0  0  0  0  0  0  0  0  0  0  0  0
   -6.2335    1.5960   -2.4458 H   0  0  0  0  0  0  0  0  0  0  0  0
    2.7642    2.4759    2.8253 C   0  0  0  0  0  0  0  0  0  0  0  0
    5.1528    4.5190   -0.9461 C   0  0  0  0  0  0  0  0  0  0  0  0
    6.0792    4.9180   -1.3861 H   0  0  0  0  0  0  0  0  0  0  0  0
    1.5268    2.4716    2.0653 C   0  0  0  0  0  0  0  0  0  0  0  0
   -5.8123    4.9313   -3.1277 C   0  0  0  0  0  0  0  0  0  0  0  0
   -6.3516    5.7902   -3.5533 H   0  0  0  0  0  0  0  0  0  0  0  0
    0.3035    3.0176   -0.0602 C   0  0  0  0  0  3  0  0  0  0  0  0
   -0.0405    3.9923   -0.4561 H   0  0  0  0  0  0  0  0  0  0  0  0
    5.1504    4.0261    0.3443 C   0  0  0  0  0  0  0  0  0  0  0  0
    6.0726    4.0224    0.9461 H   0  0  0  0  0  0  0  0  0  0  0  0
    3.9529    3.5039    0.9320 C   0  0  0  0  0  0  0  0  0  0  0  0
    2.7800    3.9986   -1.1853 C   0  0  0  0  0  0  0  0  0  0  0  0
    1.8727    3.9572   -1.8054 H   0  0  0  0  0  0  0  0  0  0  0  0
   -4.4980    5.0764   -2.6572 C   0  0  0  0  0  0  0  0  0  0  0  0
   -4.0008    6.0570   -2.7137 H   0  0  0  0  0  0  0  0  0  0  0  0
    2.7290    3.5037    0.1566 C   0  0  0  0  0  0  0  0  0  0  0  0
    0.3354    2.0264    2.7249 C   0  0  0  0  0  0  0  0  0  0  0  0
   -0.6175    2.0304    2.1805 H   0  0  0  0  0  0  0  0  0  0  0  0
    1.5866    1.5719    4.7726 C   0  0  0  0  0  0  0  0  0  0  0  0
    1.5914    1.2207    5.8158 H   0  0  0  0  0  0  0  0  0  0  0  0
    2.7569    1.9953    4.1758 C   0  0  0  0  0  0  0  0  0  0  0  0
    3.7069    1.9905    4.7326 H   0  0  0  0  0  0  0  0  0  0  0  0
    0.3628    1.6039    4.0402 C   0  0  0  0  0  0  0  0  0  0  0  0
   -0.5718    1.2832    4.5224 H   0  0  0  0  0  0  0  0  0  0  0  0
  2 30  2  0  0  0  0
  2 20  1  0  0  0  0
  3  2  1  0  0  0  0
  4  5  1  0  0  0  0
  4 19  1  0  0  0  0
  6 10  1  0  0  0  0
  7  6  1  0  0  0  0
  8 25  1  0  0  0  0
  9 22  1  0  0  0  0
 10 12  1  0  0  0  0
 10  1  1  1  0  0  0
 11  6  1  0  0  0  0
 12  8  1  0  0  0  0
 13 11  1  0  0  0  0
 13 14  1  0  0  0  0
 15 17  1  0  0  0  0
 16 15  1  0  0  0  0
 17 18  1  0  0  0  0
 17 11  2  0  0  0  0
 19 39  1  0  0  0  0
 20 27  2  0  0  0  0
 21 20  1  0  0  0  0
 22 35  1  0  0  0  0
 22 19  2  0  0  0  0
 23 15  2  0  0  0  0
 23 32  1  0  0  0  0
 24 23  1  0  0  0  0
 25  9  1  0  0  0  0
 26 25  1  0  0  0  0
 27 29  1  0  0  0  0
 27 28  1  0  0  0  0
 29  4  2  0  0  0  0
 30 34  1  0  0  0  0
 31 30  1  0  0  0  0
 32 13  2  0  0  0  0
 33 32  1  0  0  0  0
 34  9  2  0  0  0  0
 34 29  1  0  0  0  0
 35 41  2  0  0  0  0
 36 35  1  0  0  0  0
 37 38  1  0  0  0  0
 39 40  1  0  0  0  0
 39 37  2  0  0  0  0
 41 42  1  0  0  0  0
 41 37  1  0  0  0  0
M  END
