1,2
q = -1.0

 35 37  0  0  1  0  0  0  0  0999 V2000
   -0.6122    2.4280   -0.6701 S   0  0  0  0  0  1  0  0  0  0  0  0
    2.2618    2.0402   -0.4865 N   0  0  0  0  0  2  0  0  0  0  0  0
    1.9748    3.3062   -0.8831 N   0  0  0  0  0  2  0  0  0  0  0  0
    0.3441    4.8320   -1.3869 N   0  0  0  0  0  0  0  0  0  0  0  0
    1.1325    5.4752   -1.4765 H   0  0  0  0  0  0  0  0  0  0  0  0
    4.0446    0.5964    0.4337 C   0  0  0  0  0  0  0  0  0  0  0  0
    3.5214    1.8168   -0.1782 C   0  0  0  0  0  3  0  0  0  0  0  0
    4.2083    2.6602   -0.3814 H   0  0  0  0  0  0  0  0  0  0  0  0
    0.6830    3.5727   -0.9994 C   0  0  2  0  0  3  0  0  0  0  0  0
    1.8154    0.1001    3.4404 C   0  0  0  0  0  0  0  0  0  0  0  0
    0.9691    0.5945    3.9407 H   0  0  0  0  0  0  0  0  0  0  0  0
    5.7881    0.4677   -1.3605 C   0  0  0  0  0  0  0  0  0  0  0  0
    5.3443    1.3402   -1.8614 H   0  0  0  0  0  0  0  0  0  0  0  0
    5.7532   -1.2137    0.4490 C   0  0  0  0  0  0  0  0  0  0  0  0
    5.1462   -1.7555    1.5964 C   0  0  0  0  0  0  0  0  0  0  0  0
    5.5605   -2.6764    2.0371 H   0  0  0  0  0  0  0  0  0  0  0  0
    4.0249   -1.1554    2.1971 C   0  0  0  0  0  0  0  0  0  0  0  0
    3.4167   -1.7240    3.3635 C   0  0  0  0  0  0  0  0  0  0  0  0
    3.8410   -2.6550    3.7707 H   0  0  0  0  0  0  0  0  0  0  0  0
    2.3298   -1.1220    3.9648 C   0  0  0  0  0  0  0  0  0  0  0  0
    1.8693   -1.5709    4.8578 H   0  0  0  0  0  0  0  0  0  0  0  0
    2.3707    0.6757    2.3120 C   0  0  0  0  0  0  0  0  0  0  0  0
    1.9649    1.6231    1.9357 H   0  0  0  0  0  0  0  0  0  0  0  0
    6.8986   -1.8268   -0.1551 C   0  0  0  0  0  0  0  0  0  0  0  0
    7.3171   -2.7295    0.3169 H   0  0  0  0  0  0  0  0  0  0  0  0
    5.1898   -0.0214   -0.1545 C   0  0  0  0  0  0  0  0  0  0  0  0
    7.4633   -1.3062   -1.3029 C   0  0  0  0  0  0  0  0  0  0  0  0
    8.3429   -1.7875   -1.7565 H   0  0  0  0  0  0  0  0  0  0  0  0
   -1.0055    5.3384   -1.4700 C   0  0  0  0  0  0  0  0  0  0  0  0
   -1.0080    6.2734   -2.0616 H   0  0  0  0  0  0  0  0  0  0  0  0
   -1.4506    5.5502   -0.4708 H   0  0  0  0  0  0  0  0  0  0  0  0
   -1.6598    4.5986   -1.9752 H   0  0  0  0  0  0  0  0  0  0  0  0
    6.8960   -0.1486   -1.9133 C   0  0  0  0  0  0  0  0  0  0  0  0
    7.3381    0.2497   -2.8391 H   0  0  0  0  0  0  0  0  0  0  0  0
    3.4710    0.0607    1.6293 C   0  0  0  0  0  0  0  0  0  0  0  0
  2  7  1  0  0  0  0
  3  2  1  0  0  0  0
  4  9  1  0  0  0  0
  5  4  1  0  0  0  0
  6 35  1  0  0  0  0
  7  6  1  0  0  0  0
  8  7  1  0  0  0  0
  9  3  1  0  0  0  0
  9  1  1  1  0  0  0
 10 11  1  0  0  0  0
 10 20  1  0  0  0  0
 12 26  1  0  0  0  0
 13 12  1  0  0  0  0
 14 15  2  0  0  0  0
 15 16  1  0  0  0  0
 15 17  1  0  0  0  0
 17 18  1  0  0  0  0
 18 19  1  0  0  0  0
 18 20  2  0  0  0  0
 20 21  1  0  0  0  0
 22 10  2  0  0  0  0
 23 22  1  0  0  0  0
 24 25  1  0  0  0  0
 24 14  1  0  0  0  0
 26  6  2  0  0  0  0
 26 14  1  0  0  0  0
 27 24  2  0  0  0  0
 28 27  1  0  0  0  0
 29  4  1  0  0  0  0
 29 31  1  0  0  0  0
 30 29  1  0  0  0  0
 32 29  1  0  0  0  0
 33 12  2  0  0  0  0
 33 27  1  0  0  0  0
 34 33  1  0  0  0  0
 35 17  2  0  0  0  0
 35 22  1  0  0  0  0
M  END
