1,2
q = -1.0, confidence = 0.0

 29 30  0  0  0  0  0  0  0  0999 V2000
   -2.0940    2.7848    0.2714 S   0  0  0  0  0  1  0  0  0  0  0  0
   -0.8023    0.5587   -1.4278 N   0  0  0  0  0  2  0  0  0  0  0  0
   -2.8492    1.7864   -0.9592 C   0  0  0  0  0  0  0  0  0  0  0  0
   -4.2301    1.9851   -1.2285 C   0  0  0  0  0  0  0  0  0  0  0  0
   -4.7517    2.7800   -0.6749 H   0  0  0  0  0  0  0  0  0  0  0  0
   -4.9167    1.2036   -2.1570 C   0  0  0  0  0  0  0  0  0  0  0  0
   -5.9861    1.3891   -2.3408 H   0  0  0  0  0  0  0  0  0  0  0  0
   -4.2398    0.1923   -2.8717 C   0  0  0  0  0  0  0  0  0  0  0  0
   -4.7707   -0.4146   -3.6196 H   0  0  0  0  0  0  0  0  0  0  0  0
   -2.8828   -0.0197   -2.6384 C   0  0  0  0  0  0  0  0  0  0  0  0
   -2.3550   -0.7869   -3.2234 H   0  0  0  0  0  0  0  0  0  0  0  0
   -2.1648    0.7494   -1.6871 C   0  0  0  0  0  0  0  0  0  0  0  0
   -0.1198   -0.4883   -1.8367 C   0  0  0  0  0  0  0  0  0  0  0  0
   -0.6319   -1.3201   -2.3631 H   0  0  0  0  0  0  0  0  0  0  0  0
    1.9823   -1.7632   -1.8899 C   0  0  0  0  0  3  0  0  0  0  0  0
    1.4343   -2.6002   -2.3601 H   0  0  0  0  0  0  0  0  0  0  0  0
    1.2823   -0.6220   -1.5949 C   0  0  0  0  0  0  0  0  0  0  0  0
    1.7887    0.2542   -1.1544 H   0  0  0  0  0  0  0  0  0  0  0  0
    3.3922   -2.0028   -1.6220 C   0  0  0  0  0  0  0  0  0  0  0  0
    3.9751   -3.2332   -2.0195 C   0  0  0  0  0  0  0  0  0  0  0  0
    3.3499   -3.9781   -2.5369 H   0  0  0  0  0  0  0  0  0  0  0  0
    5.3233   -3.5084   -1.7638 C   0  0  0  0  0  0  0  0  0  0  0  0
    5.7571   -4.4684   -2.0820 H   0  0  0  0  0  0  0  0  0  0  0  0
    6.1194   -2.5606   -1.0994 C   0  0  0  0  0  0  0  0  0  0  0  0
    7.1787   -2.7767   -0.8932 H   0  0  0  0  0  0  0  0  0  0  0  0
    5.5563   -1.3358   -0.6956 C   0  0  0  0  0  0  0  0  0  0  0  0
    6.1676   -0.5897   -0.1660 H   0  0  0  0  0  0  0  0  0  0  0  0
    4.2127   -1.0557   -0.9538 C   0  0  0  0  0  0  0  0  0  0  0  0
    3.7921   -0.0964   -0.6210 H   0  0  0  0  0  0  0  0  0  0  0  0
  3  1  1  0  0  0  0
  4  3  1  0  0  0  0
  4  5  1  0  0  0  0
  6  4  2  0  0  0  0
  7  6  1  0  0  0  0
  8 10  2  0  0  0  0
  8  6  1  0  0  0  0
  9  8  1  0  0  0  0
 10 12  1  0  0  0  0
 11 10  1  0  0  0  0
 12  2  1  0  0  0  0
 12  3  2  0  0  0  0
 13 17  2  0  0  0  0
 13  2  1  0  0  0  0
 14 13  1  0  0  0  0
 15 19  1  0  0  0  0
 15 17  1  0  0  0  0
 16 15  1  0  0  0  0
 17 18  1  0  0  0  0
 19 28  1  0  0  0  0
 20 22  1  0  0  0  0
 20 19  2  0  0  0  0
 21 20  1  0  0  0  0
 22 24  2  0  0  0  0
 23 22  1  0  0  0  0
 24 25  1  0  0  0  0
 24 26  1  0  0  0  0
 26 27  1  0  0  0  0
 28 26  2  0  0  0  0
 28 29  1  0  0  0  0
M  END
