1,2
q = -1.0

 28 29  0  0  0  0  0  0  0  0999 V2000
   -1.4169   -2.6209   -0.6279 S   0  0  0  0  0  1  0  0  0  0  0  0
   -1.0043    0.1803   -1.0443 N   0  0  0  0  0  2  0  0  0  0  0  0
   -2.6886   -1.5133   -1.1068 C   0  0  0  0  0  0  0  0  0  0  0  0
   -2.3797   -0.1295   -1.2130 C   0  0  0  0  0  0  0  0  0  0  0  0
   -3.3877    0.8067   -1.5164 C   0  0  0  0  0  0  0  0  0  0  0  0
   -4.6963    0.3719   -1.7518 C   0  0  0  0  0  0  0  0  0  0  0  0
   -4.9975   -1.0064   -1.7084 C   0  0  0  0  0  0  0  0  0  0  0  0
   -4.0077   -1.9399   -1.3880 C   0  0  0  0  0  0  0  0  0  0  0  0
   -0.4834    1.2368   -1.6241 C   0  0  0  0  0  3  0  0  0  0  0  0
    0.9391    1.5047   -1.7529 C   0  0  0  0  0  0  0  0  0  0  0  0
    1.8827    0.4484   -1.7795 C   0  0  0  0  0  0  0  0  0  0  0  0
    3.2546    0.6932   -1.9433 C   0  0  0  0  0  0  0  0  0  0  0  0
    3.6816    2.0319   -2.0790 C   0  0  0  0  0  0  0  0  0  0  0  0
    2.7575    3.0907   -2.0803 C   0  0  0  0  0  0  0  0  0  0  0  0
    1.3899    2.8343   -1.9372 C   0  0  0  0  0  0  0  0  0  0  0  0
    4.2432   -0.4424   -1.9511 C   0  0  0  0  0  0  0  0  0  0  0  0
   -3.1574    1.8820   -1.5299 H   0  0  0  0  0  0  0  0  0  0  0  0
   -5.4871    1.1063   -1.9636 H   0  0  0  0  0  0  0  0  0  0  0  0
   -6.0243   -1.3501   -1.9062 H   0  0  0  0  0  0  0  0  0  0  0  0
   -4.2445   -3.0128   -1.3287 H   0  0  0  0  0  0  0  0  0  0  0  0
   -1.1656    1.9484   -2.1272 H   0  0  0  0  0  0  0  0  0  0  0  0
    1.5233   -0.5921   -1.6929 H   0  0  0  0  0  0  0  0  0  0  0  0
    4.7553    2.2451   -2.2028 H   0  0  0  0  0  0  0  0  0  0  0  0
    3.1113    4.1256   -2.2035 H   0  0  0  0  0  0  0  0  0  0  0  0
    0.6618    3.6604   -1.9457 H   0  0  0  0  0  0  0  0  0  0  0  0
    4.8737   -0.4105   -1.0385 H   0  0  0  0  0  0  0  0  0  0  0  0
    3.7315   -1.4233   -1.9635 H   0  0  0  0  0  0  0  0  0  0  0  0
    4.9219   -0.3842   -2.8263 H   0  0  0  0  0  0  0  0  0  0  0  0
  3  1  1  0  0  0  0
  4  3  1  0  0  0  0
  4  2  1  0  0  0  0
  5  4  2  0  0  0  0
  6  7  2  0  0  0  0
  6  5  1  0  0  0  0
  7  8  1  0  0  0  0
  8 20  1  0  0  0  0
  8  3  2  0  0  0  0
  9  2  1  0  0  0  0
 10  9  1  0  0  0  0
 11 10  1  0  0  0  0
 11 22  1  0  0  0  0
 12 11  2  0  0  0  0
 13 12  1  0  0  0  0
 14 13  2  0  0  0  0
 14 15  1  0  0  0  0
 15 10  2  0  0  0  0
 16 12  1  0  0  0  0
 16 26  1  0  0  0  0
 17  5  1  0  0  0  0
 18  6  1  0  0  0  0
 19  7  1  0  0  0  0
 21  9  1  0  0  0  0
 23 13  1  0  0  0  0
 24 14  1  0  0  0  0
 25 15  1  0  0  0  0
 27 16  1  0  0  0  0
 28 16  1  0  0  0  0
M  END
