1,3
q = -1.0

 38 38  0  0  0  0  0  0  0  0999 V2000
    2.5483    0.7435   -1.2183 S   0  0  0  0  0  0  0  0  0  0  0  0
    0.7265   -2.3443    1.7288 Si  0  0  0  0  0  0  0  0  0  0  0  0
    1.0269   -0.7434    0.9405 N   0  0  0  0  0  2  0  0  0  0  0  0
    2.0102    0.1273    1.4283 C   0  0  0  0  0  0  0  0  0  0  0  0
    2.8385    0.8755    0.5378 C   0  0  0  0  0  0  0  0  0  0  0  0
    3.8057    1.7712    1.0307 C   0  0  0  0  0  0  0  0  0  0  0  0
    4.4001    2.3542    0.3123 H   0  0  0  0  0  0  0  0  0  0  0  0
    3.9937    1.9339    2.4094 C   0  0  0  0  0  0  0  0  0  0  0  0
    4.7500    2.6378    2.7860 H   0  0  0  0  0  0  0  0  0  0  0  0
    3.1820    1.2102    3.2994 C   0  0  0  0  0  0  0  0  0  0  0  0
    3.2950    1.3490    4.3856 H   0  0  0  0  0  0  0  0  0  0  0  0
    2.2041    0.3328    2.8191 C   0  0  0  0  0  0  0  0  0  0  0  0
    1.5420   -0.1854    3.5274 H   0  0  0  0  0  0  0  0  0  0  0  0
    3.8357   -0.5235   -1.8070 C   0  0  0  0  0  0  0  0  0  0  0  0
    3.4799   -1.9120   -1.2759 C   0  0  0  0  0  0  0  0  0  0  0  0
    4.2397   -2.6470   -1.6174 H   0  0  0  0  0  0  0  0  0  0  0  0
    2.4904   -2.2368   -1.6503 H   0  0  0  0  0  0  0  0  0  0  0  0
    3.4652   -1.9250   -0.1690 H   0  0  0  0  0  0  0  0  0  0  0  0
    3.7201   -0.4579   -3.3350 C   0  0  0  0  0  0  0  0  0  0  0  0
    4.4138   -1.1986   -3.7848 H   0  0  0  0  0  0  0  0  0  0  0  0
    3.9924    0.5468   -3.7156 H   0  0  0  0  0  0  0  0  0  0  0  0
    2.6913   -0.6966   -3.6690 H   0  0  0  0  0  0  0  0  0  0  0  0
    5.2259   -0.0904   -1.3414 C   0  0  0  0  0  0  0  0  0  0  0  0
    5.9804   -0.7870   -1.7646 H   0  0  0  0  0  0  0  0  0  0  0  0
    5.3200   -0.1207   -0.2383 H   0  0  0  0  0  0  0  0  0  0  0  0
    5.4723    0.9323   -1.6901 H   0  0  0  0  0  0  0  0  0  0  0  0
    2.3453   -2.9437    2.5058 C   0  0  0  0  0  0  0  0  0  0  0  0
    2.7030   -2.3086    3.3381 H   0  0  0  0  0  0  0  0  0  0  0  0
    3.1539   -2.9971    1.7491 H   0  0  0  0  0  0  0  0  0  0  0  0
    2.1865   -3.9688    2.9005 H   0  0  0  0  0  0  0  0  0  0  0  0
    0.2248   -3.6076    0.4179 C   0  0  0  0  0  0  0  0  0  0  0  0
    0.3574   -4.6276    0.8353 H   0  0  0  0  0  0  0  0  0  0  0  0
    0.8436   -3.5334   -0.4986 H   0  0  0  0  0  0  0  0  0  0  0  0
   -0.8361   -3.4892    0.1294 H   0  0  0  0  0  0  0  0  0  0  0  0
   -0.6342   -2.2465    3.0347 C   0  0  0  0  0  0  0  0  0  0  0  0
   -1.6187   -2.0457    2.5679 H   0  0  0  0  0  0  0  0  0  0  0  0
   -0.4443   -1.4613    3.7937 H   0  0  0  0  0  0  0  0  0  0  0  0
   -0.7044   -3.2199    3.5640 H   0  0  0  0  0  0  0  0  0  0  0  0
  1  5  1  0  0  0  0
  2 27  1  0  0  0  0
  2 35  1  0  0  0  0
  3  4  1  0  0  0  0
  3  2  1  0  0  0  0
  4 12  1  0  0  0  0
  5  6  1  0  0  0  0
  5  4  2  0  0  0  0
  6  8  2  0  0  0  0
  7  6  1  0  0  0  0
  8  9  1  0  0  0  0
  8 10  1  0  0  0  0
 10 11  1  0  0  0  0
 12 10  2  0  0  0  0
 12 13  1  0  0  0  0
 14 23  1  0  0  0  0
 14 15  1  0  0  0  0
 14  1  1  0  0  0  0
 15 18  1  0  0  0  0
 16 15  1  0  0  0  0
 17 15  1  0  0  0  0
 19 14  1  0  0  0  0
 20 19  1  0  0  0  0
 21 19  1  0  0  0  0
 22 19  1  0  0  0  0
 23 25  1  0  0  0  0
 24 23  1  0  0  0  0
 26 23  1  0  0  0  0
 27 30  1  0  0  0  0
 27 28  1  0  0  0  0
 29 27  1  0  0  0  0
 31 32  1  0  0  0  0
 31  2  1  0  0  0  0
 33 31  1  0  0  0  0
 34 31  1  0  0  0  0
 35 38  1  0  0  0  0
 35 37  1  0  0  0  0
 36 35  1  0  0  0  0
M  END
