1,9
q = -1.0

 28 28  0  0  1  0  0  0  0  0999 V2000
   -0.1346    2.0981   -0.6860 S   0  0  0  0  0  1  0  0  0  0  0  0
   -8.2403   -1.9695   -0.1810 O   0  0  0  0  0  0  0  0  0  0  0  0
   -8.6654   -1.0878   -0.0959 H   0  0  0  0  0  0  0  0  0  0  0  0
   -7.4547    0.5204    0.0752 O   0  0  0  0  0  0  0  0  0  0  0  0
   -2.3155    3.5530   -0.1227 N   0  0  0  0  0  0  0  0  0  0  0  0
   -1.6743    4.3438   -0.1175 H   0  0  0  0  0  0  0  0  0  0  0  0
   -3.2213    3.6737    0.3308 H   0  0  0  0  0  0  0  0  0  0  0  0
   -2.5553    1.2769    0.1875 N   0  0  0  0  0  2  0  0  0  0  0  0
   -1.9279    0.0669    0.0539 N   0  0  0  0  0  2  0  0  0  0  0  0
   -6.9090   -1.7345   -0.1460 C   0  0  0  0  0  0  0  0  0  0  0  0
   -5.9785   -2.7796   -0.2423 C   0  0  0  0  0  0  0  0  0  0  0  0
   -6.3519   -3.8082   -0.3466 H   0  0  0  0  0  0  0  0  0  0  0  0
   -4.6098   -2.4982   -0.2040 C   0  0  0  0  0  0  0  0  0  0  0  0
   -3.8863   -3.3243   -0.2781 H   0  0  0  0  0  0  0  0  0  0  0  0
   -4.1268   -1.1695   -0.0692 C   0  0  0  0  0  0  0  0  0  0  0  0
   -2.6849   -1.0116   -0.0516 C   0  0  0  0  0  3  0  0  0  0  0  0
   -2.1105   -1.9448   -0.1526 H   0  0  0  0  0  0  0  0  0  0  0  0
   -5.0763   -0.1122    0.0313 C   0  0  0  0  0  0  0  0  0  0  0  0
   -4.6876    0.9057    0.1412 H   0  0  0  0  0  0  0  0  0  0  0  0
   -6.4384   -0.3973   -0.0083 C   0  0  0  0  0  0  0  0  0  0  0  0
   -7.1146    1.8995    0.2111 C   0  0  0  0  0  0  0  0  0  0  0  0
   -6.4836    2.2121   -0.6528 H   0  0  0  0  0  0  0  0  0  0  0  0
   -6.5041    2.0406    1.1328 H   0  0  0  0  0  0  0  0  0  0  0  0
   -8.3998    2.7011    0.2735 C   0  0  0  0  0  0  0  0  0  0  0  0
   -8.9970    2.5620   -0.6494 H   0  0  0  0  0  0  0  0  0  0  0  0
   -8.1725    3.7800    0.3797 H   0  0  0  0  0  0  0  0  0  0  0  0
   -9.0176    2.3900    1.1392 H   0  0  0  0  0  0  0  0  0  0  0  0
   -1.7835    2.2949   -0.1365 C   0  0  1  0  0  3  0  0  0  0  0  0
  2 10  1  0  0  0  0
  2  3  1  0  0  0  0
  4 21  1  0  0  0  0
  5  6  1  0  0  0  0
  5  7  1  0  0  0  0
  9  8  1  0  0  0  0
 10 20  1  0  0  0  0
 11 13  1  0  0  0  0
 11 10  2  0  0  0  0
 12 11  1  0  0  0  0
 13 15  2  0  0  0  0
 14 13  1  0  0  0  0
 15 16  1  0  0  0  0
 15 18  1  0  0  0  0
 16  9  1  0  0  0  0
 17 16  1  0  0  0  0
 18 19  1  0  0  0  0
 20 18  2  0  0  0  0
 20  4  1  0  0  0  0
 21 24  1  0  0  0  0
 21 23  1  0  0  0  0
 22 21  1  0  0  0  0
 24 26  1  0  0  0  0
 24 27  1  0  0  0  0
 25 24  1  0  0  0  0
 28  1  1  6  0  0  0
 28  5  1  0  0  0  0
 28  8  1  0  0  0  0
M  END
