1,3
q = -1.0, confidence = 0.0

 18 17  0  0  1  0  0  0  0  0999 V2000
   -1.5843   -1.9861    0.1181 S   0  0  0  0  0  1  0  0  0  0  0  0
   -4.4547   -1.3508    0.5260 S   0  0  0  0  0  0  0  0  0  0  0  0
   -1.3514    0.7363   -0.5745 N   0  0  0  0  0  2  0  0  0  0  0  0
   -2.6671    0.4819   -0.2183 N   0  0  0  0  0  2  0  0  0  0  0  0
   -2.8486   -0.7769    0.1055 C   0  0  2  0  0  3  0  0  0  0  0  0
   -5.4482    0.1478    0.2521 C   0  0  0  0  0  0  0  0  0  0  0  0
   -1.1787    1.7783   -1.3589 C   0  0  0  0  0  3  0  0  0  0  0  0
   -2.3515    2.6228   -1.7647 C   0  0  0  0  0  0  0  0  0  0  0  0
    0.1653    2.1068   -1.9275 C   0  0  0  0  0  0  0  0  0  0  0  0
   -5.3773    0.4712   -0.8035 H   0  0  0  0  0  0  0  0  0  0  0  0
   -5.1029    0.9671    0.9097 H   0  0  0  0  0  0  0  0  0  0  0  0
   -6.4909   -0.1290    0.4992 H   0  0  0  0  0  0  0  0  0  0  0  0
   -2.0207    3.5197   -2.3210 H   0  0  0  0  0  0  0  0  0  0  0  0
   -2.9447    2.9198   -0.8767 H   0  0  0  0  0  0  0  0  0  0  0  0
   -3.0471    2.0391   -2.4044 H   0  0  0  0  0  0  0  0  0  0  0  0
    0.5055    3.1128   -1.5980 H   0  0  0  0  0  0  0  0  0  0  0  0
    0.0838    2.1543   -3.0349 H   0  0  0  0  0  0  0  0  0  0  0  0
    0.9313    1.3590   -1.6643 H   0  0  0  0  0  0  0  0  0  0  0  0
  3  4  1  0  0  0  0
  4  5  1  0  0  0  0
  5  1  1  6  0  0  0
  5  2  1  0  0  0  0
  6 12  1  0  0  0  0
  6  2  1  0  0  0  0
  6 11  1  0  0  0  0
  7  3  1  0  0  0  0
  8  7  1  0  0  0  0
  8 14  1  0  0  0  0
  9 18  1  0  0  0  0
  9 16  1  0  0  0  0
  9  7  1  0  0  0  0
 10  6  1  0  0  0  0
 13  8  1  0  0  0  0
 15  8  1  0  0  0  0
 17  9  1  0  0  0  0
M  END
