1,5
q = -1.0

 11 10  0  0  0  0  0  0  0  0999 V2000
    1.7414   -2.0414   -0.0916 N   0  0  0  0  0  0  0  0  0  0  0  0
    1.3847   -2.7994    0.5105 H   0  0  0  0  0  0  0  0  0  0  0  0
    1.6381   -2.3743   -1.0646 H   0  0  0  0  0  0  0  0  0  0  0  0
    2.6840    2.0722   -0.4623 O   0  0  0  0  0  0  0  0  0  0  0  0
    2.5591    0.8069    0.3973 S   0  0  0  0  0  3  0  0  0  0  0  0
    3.6241   -0.5036   -0.4061 C   0  0  0  0  0  0  0  0  0  0  0  0
    3.4735   -0.4400   -1.5033 H   0  0  0  0  0  0  0  0  0  0  0  0
    4.6767   -0.2515   -0.1711 H   0  0  0  0  0  0  0  0  0  0  0  0
    3.1987   -1.8250    0.1949 C   0  0  0  0  0  0  0  0  0  0  0  0
    3.3183   -1.8002    1.2979 H   0  0  0  0  0  0  0  0  0  0  0  0
    3.7964   -2.6769   -0.1906 H   0  0  0  0  0  0  0  0  0  0  0  0
  1  9  1  0  0  0  0
  1  2  1  0  0  0  0
  3  1  1  0  0  0  0
  4  5  2  0  0  0  0
  6  8  1  0  0  0  0
  6  9  1  0  0  0  0
  6  5  1  0  0  0  0
  7  6  1  0  0  0  0
  9 10  1  0  0  0  0
 11  9  1  0  0  0  0
M  END
