1,2
q = -1.0, confidence = 0.0

 24 25  0  0  1  0  0  0  0  0999 V2000
    1.7929    0.2984   -2.1008 S   0  0  0  0  0  1  0  0  0  0  0  0
    1.0874   -1.2635    0.2096 N   0  0  0  0  0  0  0  0  0  0  0  0
    3.0186   -2.4748    0.5036 N   0  0  0  0  0  0  0  0  0  0  0  0
    4.1795   -0.8164   -1.7678 N   0  0  0  0  0  0  0  0  0  0  0  0
    2.9109   -0.7500   -1.3170 C   0  0  2  0  0  3  0  0  0  0  0  0
    2.3834   -1.5181   -0.1998 C   0  0  0  0  0  0  0  0  0  0  0  0
    0.8694   -2.1331    1.2528 C   0  0  0  0  0  3  0  0  0  0  0  0
    2.0931   -2.8845    1.4213 C   0  0  0  0  0  0  0  0  0  0  0  0
    2.2104   -3.8698    2.4306 C   0  0  0  0  0  0  0  0  0  0  0  0
    3.1494   -4.4314    2.5422 H   0  0  0  0  0  0  0  0  0  0  0  0
    1.1141   -4.0865    3.2603 C   0  0  0  0  0  0  0  0  0  0  0  0
    1.1720   -4.8438    4.0570 H   0  0  0  0  0  0  0  0  0  0  0  0
   -0.0844   -3.3337    3.1053 C   0  0  0  0  0  0  0  0  0  0  0  0
   -0.9253   -3.5210    3.7902 H   0  0  0  0  0  0  0  0  0  0  0  0
   -0.2275   -2.3577    2.1199 C   0  0  0  0  0  0  0  0  0  0  0  0
   -1.1532   -1.7794    2.0435 H   0  0  0  0  0  0  0  0  0  0  0  0
    4.5643    0.0207   -2.8975 C   0  0  0  0  0  0  0  0  0  0  0  0
    5.6391   -0.1271   -3.1042 H   0  0  0  0  0  0  0  0  0  0  0  0
    4.3722    1.0917   -2.6738 H   0  0  0  0  0  0  0  0  0  0  0  0
    3.9740   -0.2399   -3.8019 H   0  0  0  0  0  0  0  0  0  0  0  0
    5.2245   -1.6582   -1.1885 C   0  0  0  0  0  0  0  0  0  0  0  0
    6.0465   -1.0183   -0.8034 H   0  0  0  0  0  0  0  0  0  0  0  0
    5.6372   -2.3275   -1.9723 H   0  0  0  0  0  0  0  0  0  0  0  0
    4.7927   -2.2621   -0.3670 H   0  0  0  0  0  0  0  0  0  0  0  0
  2  7  1  0  0  0  0
  3  8  2  0  0  0  0
  4  5  1  0  0  0  0
  4 21  1  0  0  0  0
  5  1  1  6  0  0  0
  5  6  1  0  0  0  0
  6  2  2  0  0  0  0
  6  3  1  0  0  0  0
  7  8  1  0  0  0  0
  7 15  1  0  0  0  0
  8  9  1  0  0  0  0
  9 10  1  0  0  0  0
  9 11  2  0  0  0  0
 11 12  1  0  0  0  0
 13 11  1  0  0  0  0
 13 14  1  0  0  0  0
 15 13  2  0  0  0  0
 16 15  1  0  0  0  0
 17 19  1  0  0  0  0
 17  4  1  0  0  0  0
 18 17  1  0  0  0  0
 20 17  1  0  0  0  0
 21 22  1  0  0  0  0
 21 24  1  0  0  0  0
 23 21  1  0  0  0  0
M  END
