1,12
q = -1.0, confidence = 0.0

 17 17  0  0  0  0  0  0  0  0999 V2000
   -0.0083   -1.5401   -1.3340 S   0  0  0  0  0  1  0  0  0  0  0  0
    1.6716   -1.0144   -1.1558 C   0  0  0  0  0  0  0  0  0  0  0  0
    2.7879   -1.8088   -1.4845 C   0  0  0  0  0  0  0  0  0  0  0  0
    2.6312   -2.7936   -1.9484 H   0  0  0  0  0  0  0  0  0  0  0  0
    4.0810   -1.3575   -1.1932 C   0  0  0  0  0  0  0  0  0  0  0  0
    4.9515   -1.9833   -1.4371 H   0  0  0  0  0  0  0  0  0  0  0  0
    4.2779   -0.1069   -0.5785 C   0  0  0  0  0  0  0  0  0  0  0  0
    3.1735    0.7133   -0.2863 C   0  0  0  0  0  0  0  0  0  0  0  0
    3.3334    1.7078    0.1588 H   0  0  0  0  0  0  0  0  0  0  0  0
    1.8882    0.2528   -0.5786 C   0  0  0  0  0  0  0  0  0  0  0  0
    5.6654    0.3401   -0.1788 C   0  0  0  0  0  0  0  0  0  0  0  0
    0.6896    1.0599   -0.3645 N   0  0  0  0  0  0  0  0  0  0  0  0
    0.5546    1.6173   -1.2253 H   0  0  0  0  0  0  0  0  0  0  0  0
    0.8927    1.7644    0.3625 H   0  0  0  0  0  0  0  0  0  0  0  0
    5.9745   -0.0929    1.0691 F   0  0  0  0  0  0  0  0  0  0  0  0
    6.6059   -0.1402   -1.0176 F   0  0  0  0  0  0  0  0  0  0  0  0
    5.7644    1.6921   -0.1658 F   0  0  0  0  0  0  0  0  0  0  0  0
  1  2  1  0  0  0  0
  2 10  1  0  0  0  0
  3  5  1  0  0  0  0
  3  2  2  0  0  0  0
  4  3  1  0  0  0  0
  5  7  2  0  0  0  0
  6  5  1  0  0  0  0
  7  8  1  0  0  0  0
  7 11  1  0  0  0  0
  8  9  1  0  0  0  0
 10 12  1  0  0  0  0
 10  8  2  0  0  0  0
 11 17  1  0  0  0  0
 11 15  1  0  0  0  0
 12 14  1  0  0  0  0
 13 12  1  0  0  0  0
 16 11  1  0  0  0  0
M  END
