1,8
q = -1.0, confidence = 0.0

 39 38  0  0  1  0  0  0  0  0999 V2000
   -0.6755    2.2512    0.0010 S   0  0  0  0  0  1  0  0  0  0  0  0
   -3.4115   -0.9343    0.1609 P   0  0  0  0  0  0  0  0  0  0  0  0
   -3.6221   -1.3813    1.6948 O   0  0  0  0  0  0  0  0  0  0  0  0
   -2.8235   -2.2949   -0.5049 O   0  0  0  0  0  0  0  0  0  0  0  0
   -3.3898    2.0939   -0.4380 N   0  0  0  0  0  0  0  0  0  0  0  0
   -4.2089    1.4524   -0.5052 H   0  0  0  0  0  0  0  0  0  0  0  0
   -4.6676   -0.3650   -0.4524 O   0  0  0  0  0  0  0  0  0  0  0  0
   -2.1258    0.1619    0.1254 N   0  0  0  0  0  2  0  0  0  0  0  0
   -2.2437    1.4833   -0.1141 C   0  0  1  0  0  3  0  0  0  0  0  0
   -2.8425   -2.5148   -1.9482 C   0  0  0  0  0  0  0  0  0  0  0  0
   -3.9095   -2.4862   -2.2621 H   0  0  0  0  0  0  0  0  0  0  0  0
   -2.4364   -3.2974    2.6056 C   0  0  0  0  0  0  0  0  0  0  0  0
   -3.3762   -3.7363    2.9984 H   0  0  0  0  0  0  0  0  0  0  0  0
   -1.5958   -3.6191    3.2523 H   0  0  0  0  0  0  0  0  0  0  0  0
   -2.2602   -3.6888    1.5858 H   0  0  0  0  0  0  0  0  0  0  0  0
   -3.8665    4.2583    0.6499 C   0  0  0  0  0  0  0  0  0  0  0  0
   -4.8391    3.9097    1.0543 H   0  0  0  0  0  0  0  0  0  0  0  0
   -3.9318    5.3526    0.4848 H   0  0  0  0  0  0  0  0  0  0  0  0
   -3.0824    4.0685    1.4091 H   0  0  0  0  0  0  0  0  0  0  0  0
   -4.5657    3.7732   -1.7569 C   0  0  0  0  0  0  0  0  0  0  0  0
   -4.2813    3.2569   -2.6948 H   0  0  0  0  0  0  0  0  0  0  0  0
   -4.6617    4.8561   -1.9684 H   0  0  0  0  0  0  0  0  0  0  0  0
   -5.5646    3.4005   -1.4464 H   0  0  0  0  0  0  0  0  0  0  0  0
   -3.5294    3.5317   -0.6584 C   0  0  0  0  0  0  0  0  0  0  0  0
   -2.5361    3.8876   -1.0118 H   0  0  0  0  0  0  0  0  0  0  0  0
   -2.0661   -1.4379   -2.6996 C   0  0  0  0  0  0  0  0  0  0  0  0
   -2.5357   -0.4426   -2.5747 H   0  0  0  0  0  0  0  0  0  0  0  0
   -2.0541   -1.6746   -3.7824 H   0  0  0  0  0  0  0  0  0  0  0  0
   -1.0218   -1.3821   -2.3311 H   0  0  0  0  0  0  0  0  0  0  0  0
   -2.5248   -1.7786    2.5804 C   0  0  0  0  0  0  0  0  0  0  0  0
   -1.5784   -1.3559    2.1756 H   0  0  0  0  0  0  0  0  0  0  0  0
   -2.8120   -1.1483    3.9334 C   0  0  0  0  0  0  0  0  0  0  0  0
   -2.8565   -0.0452    3.8463 H   0  0  0  0  0  0  0  0  0  0  0  0
   -2.0120   -1.4102    4.6542 H   0  0  0  0  0  0  0  0  0  0  0  0
   -3.7808   -1.5091    4.3349 H   0  0  0  0  0  0  0  0  0  0  0  0
   -2.2737   -3.9108   -2.1511 C   0  0  0  0  0  0  0  0  0  0  0  0
   -1.2152   -3.9410   -1.8212 H   0  0  0  0  0  0  0  0  0  0  0  0
   -2.3217   -4.1938   -3.2213 H   0  0  0  0  0  0  0  0  0  0  0  0
   -2.8470   -4.6543   -1.5640 H   0  0  0  0  0  0  0  0  0  0  0  0
  2  3  1  0  0  0  0
  3 30  1  0  0  0  0
  4  2  1  0  0  0  0
  5  9  1  0  0  0  0
  6  5  1  0  0  0  0
  7  2  2  0  0  0  0
  8  2  1  0  0  0  0
  9  1  1  6  0  0  0
  9  8  1  0  0  0  0
 10  4  1  0  0  0  0
 11 10  1  0  0  0  0
 12 13  1  0  0  0  0
 12 14  1  0  0  0  0
 15 12  1  0  0  0  0
 16 17  1  0  0  0  0
 16 19  1  0  0  0  0
 18 16  1  0  0  0  0
 20 23  1  0  0  0  0
 20 24  1  0  0  0  0
 21 20  1  0  0  0  0
 22 20  1  0  0  0  0
 24  5  1  0  0  0  0
 24 16  1  0  0  0  0
 25 24  1  0  0  0  0
 26 27  1  0  0  0  0
 26 29  1  0  0  0  0
 26 10  1  0  0  0  0
 28 26  1  0  0  0  0
 30 12  1  0  0  0  0
 30 32  1  0  0  0  0
 31 30  1  0  0  0  0
 32 35  1  0  0  0  0
 32 34  1  0  0  0  0
 33 32  1  0  0  0  0
 36 10  1  0  0  0  0
 36 37  1  0  0  0  0
 36 39  1  0  0  0  0
 38 36  1  0  0  0  0
M  END
