1,2
q = -1.0

 23 23  0  0  1  0  0  0  0  0999 V2000
   -0.1695   -2.6247   -0.0858 S   0  0  0  0  0  1  0  0  0  0  0  0
   -1.6452   -0.5430   -0.2617 N   0  0  0  0  0  2  0  0  0  0  0  0
   -2.8848   -2.6133   -0.3944 N   0  0  0  0  0  0  0  0  0  0  0  0
   -1.7743   -1.8682   -0.2492 C   0  0  1  0  0  3  0  0  0  0  0  0
   -4.1661   -2.0576   -0.8291 C   0  0  0  0  0  0  0  0  0  0  0  0
   -4.8309   -1.8334    0.0313 H   0  0  0  0  0  0  0  0  0  0  0  0
   -4.6636   -2.8018   -1.4807 H   0  0  0  0  0  0  0  0  0  0  0  0
   -4.0146   -1.1312   -1.4082 H   0  0  0  0  0  0  0  0  0  0  0  0
   -2.8517   -4.0598   -0.1965 C   0  0  0  0  0  0  0  0  0  0  0  0
   -2.9586   -4.5950   -1.1632 H   0  0  0  0  0  0  0  0  0  0  0  0
   -3.6842   -4.3605    0.4716 H   0  0  0  0  0  0  0  0  0  0  0  0
   -1.9024   -4.3634    0.2830 H   0  0  0  0  0  0  0  0  0  0  0  0
   -2.6511    0.4286   -0.0468 C   0  0  0  0  0  0  0  0  0  0  0  0
   -2.8346    1.4573   -0.9952 C   0  0  0  0  0  0  0  0  0  0  0  0
   -2.2322    1.4474   -1.9155 H   0  0  0  0  0  0  0  0  0  0  0  0
   -3.7788    2.4663   -0.7604 C   0  0  0  0  0  0  0  0  0  0  0  0
   -3.9237    3.2598   -1.5088 H   0  0  0  0  0  0  0  0  0  0  0  0
   -4.5413    2.4642    0.4199 C   0  0  0  0  0  0  0  0  0  0  0  0
   -5.2828    3.2561    0.6004 H   0  0  0  0  0  0  0  0  0  0  0  0
   -4.3526    1.4465    1.3700 C   0  0  0  0  0  0  0  0  0  0  0  0
   -4.9423    1.4432    2.2990 H   0  0  0  0  0  0  0  0  0  0  0  0
   -3.4073    0.4345    1.1465 C   0  0  0  0  0  0  0  0  0  0  0  0
   -3.2410   -0.3542    1.8959 H   0  0  0  0  0  0  0  0  0  0  0  0
  2  4  1  0  0  0  0
  2 13  1  0  0  0  0
  3  4  1  0  0  0  0
  3  9  1  0  0  0  0
  4  1  1  6  0  0  0
  5  3  1  0  0  0  0
  5  6  1  0  0  0  0
  7  5  1  0  0  0  0
  8  5  1  0  0  0  0
  9 12  1  0  0  0  0
  9 11  1  0  0  0  0
 10  9  1  0  0  0  0
 13 22  1  0  0  0  0
 14 16  1  0  0  0  0
 14 13  2  0  0  0  0
 15 14  1  0  0  0  0
 16 18  2  0  0  0  0
 17 16  1  0  0  0  0
 18 19  1  0  0  0  0
 18 20  1  0  0  0  0
 20 21  1  0  0  0  0
 22 20  2  0  0  0  0
 22 23  1  0  0  0  0
M  END
