1,2
q = -1.0, confidence = 0.0

 49 51  0  0  1  0  0  0  0  0999 V2000
    0.1899   -1.8912   -0.3322 S   0  0  0  0  0  1  0  0  0  0  0  0
    0.4961    0.6298   -0.3314 N   0  0  0  0  0  2  0  0  0  0  0  0
    2.5962   -0.5726   -0.0854 N   0  0  0  0  0  0  0  0  0  0  0  0
    1.2653   -0.4622   -0.2281 C   0  0  2  0  0  3  0  0  0  0  0  0
    0.8156    1.9774   -0.0245 C   0  0  0  0  0  0  0  0  0  0  0  0
    0.9970    2.9121   -1.0694 C   0  0  0  0  0  0  0  0  0  0  0  0
    0.9573    2.5592   -2.1113 H   0  0  0  0  0  0  0  0  0  0  0  0
    1.2542    4.2580   -0.7725 C   0  0  0  0  0  0  0  0  0  0  0  0
    1.4086    4.9764   -1.5916 H   0  0  0  0  0  0  0  0  0  0  0  0
    1.3203    4.6870    0.5641 C   0  0  0  0  0  0  0  0  0  0  0  0
    1.5233    5.7428    0.7957 H   0  0  0  0  0  0  0  0  0  0  0  0
    1.1229    3.7631    1.6035 C   0  0  0  0  0  0  0  0  0  0  0  0
    1.1683    4.0953    2.6516 H   0  0  0  0  0  0  0  0  0  0  0  0
    0.8647    2.4147    1.3153 C   0  0  0  0  0  0  0  0  0  0  0  0
    0.6999    1.6865    2.1235 H   0  0  0  0  0  0  0  0  0  0  0  0
    3.4906    0.6063   -0.2111 C   0  0  0  0  0  0  0  0  0  0  0  0
    2.8489    1.4543   -0.4996 H   0  0  0  0  0  0  0  0  0  0  0  0
    4.1574    0.9843    1.1197 C   0  0  0  0  0  0  0  0  0  0  0  0
    4.8220    0.1595    1.4592 H   0  0  0  0  0  0  0  0  0  0  0  0
    3.3788    1.1131    1.8995 H   0  0  0  0  0  0  0  0  0  0  0  0
    4.9798    2.2702    0.9549 C   0  0  0  0  0  0  0  0  0  0  0  0
    4.2873    3.1143    0.7377 H   0  0  0  0  0  0  0  0  0  0  0  0
    5.4833    2.5185    1.9113 H   0  0  0  0  0  0  0  0  0  0  0  0
    6.0038    2.1409   -0.1796 C   0  0  0  0  0  0  0  0  0  0  0  0
    6.7603    1.3722    0.0951 H   0  0  0  0  0  0  0  0  0  0  0  0
    6.5606    3.0917   -0.3066 H   0  0  0  0  0  0  0  0  0  0  0  0
    5.3315    1.7387   -1.4982 C   0  0  0  0  0  0  0  0  0  0  0  0
    6.0859    1.6117   -2.3009 H   0  0  0  0  0  0  0  0  0  0  0  0
    4.6558    2.5582   -1.8314 H   0  0  0  0  0  0  0  0  0  0  0  0
    4.5156    0.4454   -1.3463 C   0  0  0  0  0  0  0  0  0  0  0  0
    3.9890    0.1970   -2.2910 H   0  0  0  0  0  0  0  0  0  0  0  0
    5.2066   -0.3981   -1.1296 H   0  0  0  0  0  0  0  0  0  0  0  0
    3.2704   -1.8656    0.2270 C   0  0  0  0  0  0  0  0  0  0  0  0
    4.3391   -1.5873    0.3186 H   0  0  0  0  0  0  0  0  0  0  0  0
    3.1965   -2.8963   -0.9117 C   0  0  0  0  0  0  0  0  0  0  0  0
    2.1418   -3.2030   -1.0846 H   0  0  0  0  0  0  0  0  0  0  0  0
    3.5457   -2.4305   -1.8560 H   0  0  0  0  0  0  0  0  0  0  0  0
    4.0324   -4.1355   -0.5634 C   0  0  0  0  0  0  0  0  0  0  0  0
    5.1079   -3.8502   -0.5239 H   0  0  0  0  0  0  0  0  0  0  0  0
    3.9418   -4.8866   -1.3741 H   0  0  0  0  0  0  0  0  0  0  0  0
    3.6180   -4.7360    0.7857 C   0  0  0  0  0  0  0  0  0  0  0  0
    2.5736   -5.1137    0.7143 H   0  0  0  0  0  0  0  0  0  0  0  0
    4.2514   -5.6141    1.0259 H   0  0  0  0  0  0  0  0  0  0  0  0
    3.7044   -3.6946    1.9085 C   0  0  0  0  0  0  0  0  0  0  0  0
    4.7673   -3.3949    2.0498 H   0  0  0  0  0  0  0  0  0  0  0  0
    3.3753   -4.1295    2.8741 H   0  0  0  0  0  0  0  0  0  0  0  0
    2.8642   -2.4498    1.5903 C   0  0  0  0  0  0  0  0  0  0  0  0
    2.9936   -1.6736    2.3729 H   0  0  0  0  0  0  0  0  0  0  0  0
    1.7873   -2.7195    1.5800 H   0  0  0  0  0  0  0  0  0  0  0  0
  2  4  1  0  0  0  0
  2  5  1  0  0  0  0
  3 33  1  0  0  0  0
  4  1  1  6  0  0  0
  4  3  1  0  0  0  0
  5 14  1  0  0  0  0
  6  8  1  0  0  0  0
  6  5  2  0  0  0  0
  7  6  1  0  0  0  0
  8 10  2  0  0  0  0
  9  8  1  0  0  0  0
 10 11  1  0  0  0  0
 10 12  1  0  0  0  0
 12 13  1  0  0  0  0
 14 12  2  0  0  0  0
 14 15  1  0  0  0  0
 16  3  1  0  0  0  0
 16 18  1  0  0  0  0
 17 16  1  0  0  0  0
 18 19  1  0  0  0  0
 18 20  1  0  0  0  0
 21 18  1  0  0  0  0
 21 23  1  0  0  0  0
 22 21  1  0  0  0  0
 24 25  1  0  0  0  0
 24 21  1  0  0  0  0
 26 24  1  0  0  0  0
 27 30  1  0  0  0  0
 27 24  1  0  0  0  0
 28 27  1  0  0  0  0
 29 27  1  0  0  0  0
 30 32  1  0  0  0  0
 30 16  1  0  0  0  0
 31 30  1  0  0  0  0
 33 34  1  0  0  0  0
 33 47  1  0  0  0  0
 35 38  1  0  0  0  0
 35 33  1  0  0  0  0
 36 35  1  0  0  0  0
 37 35  1  0  0  0  0
 38 39  1  0  0  0  0
 38 41  1  0  0  0  0
 40 38  1  0  0  0  0
 41 43  1  0  0  0  0
 41 44  1  0  0  0  0
 42 41  1  0  0  0  0
 44 45  1  0  0  0  0
 44 46  1  0  0  0  0
 47 44  1  0  0  0  0
 47 48  1  0  0  0  0
 49 47  1  0  0  0  0
M  END
