1,11
q = -1.0

 32 33  0  0  1  0  0  0  0  0999 V2000
   -1.1281    0.3419   -0.8910 N   0  0  0  0  0  2  0  0  0  0  0  0
   -0.7232    1.4769   -1.4551 C   0  0  1  0  0  3  0  0  0  0  0  0
    0.6728    1.6368   -1.8026 C   0  0  0  0  0  0  0  0  0  0  0  0
    1.6382    0.2311   -2.2149 S   0  0  0  0  0  0  0  0  0  0  0  0
    3.0188    1.2084   -2.5539 C   0  0  0  0  0  0  0  0  0  0  0  0
    2.7614    2.5597   -2.3669 C   0  0  0  0  0  0  0  0  0  0  0  0
    1.4224    2.8073   -1.9616 C   0  0  0  0  0  0  0  0  0  0  0  0
   -1.7246    2.5379   -1.8018 C   0  0  0  0  0  0  0  0  0  0  0  0
   -2.4776    0.1250   -0.8791 N   0  0  0  0  0  2  0  0  0  0  0  0
   -2.7693   -1.1334   -0.6270 C   0  0  1  0  0  3  0  0  0  0  0  0
   -1.5715   -2.3870   -0.3934 S   0  0  0  0  0  1  0  0  0  0  0  0
   -4.4496   -1.6251   -0.4989 S   0  0  0  0  0  0  0  0  0  0  0  0
   -5.3046   -0.0187   -0.8263 C   0  0  0  0  0  0  0  0  0  0  0  0
   -6.7593   -0.1645   -0.4755 C   0  0  0  0  0  0  0  0  0  0  0  0
   -7.6991   -0.5733   -1.4429 C   0  0  0  0  0  0  0  0  0  0  0  0
   -9.0511   -0.7308   -1.1043 C   0  0  0  0  0  0  0  0  0  0  0  0
   -9.4809   -0.4867    0.2096 C   0  0  0  0  0  0  0  0  0  0  0  0
   -8.5519   -0.0848    1.1833 C   0  0  0  0  0  0  0  0  0  0  0  0
   -7.2012    0.0714    0.8425 C   0  0  0  0  0  0  0  0  0  0  0  0
    3.9554    0.7311   -2.8685 H   0  0  0  0  0  0  0  0  0  0  0  0
    3.5124    3.3459   -2.5252 H   0  0  0  0  0  0  0  0  0  0  0  0
    1.0155    3.8077   -1.7613 H   0  0  0  0  0  0  0  0  0  0  0  0
   -1.2307    3.4487   -2.1837 H   0  0  0  0  0  0  0  0  0  0  0  0
   -2.4260    2.1624   -2.5750 H   0  0  0  0  0  0  0  0  0  0  0  0
   -2.3421    2.7767   -0.9120 H   0  0  0  0  0  0  0  0  0  0  0  0
   -5.1498    0.2415   -1.8916 H   0  0  0  0  0  0  0  0  0  0  0  0
   -4.7908    0.7432   -0.2086 H   0  0  0  0  0  0  0  0  0  0  0  0
   -7.3620   -0.7681   -2.4733 H   0  0  0  0  0  0  0  0  0  0  0  0
   -9.7743   -1.0463   -1.8717 H   0  0  0  0  0  0  0  0  0  0  0  0
  -10.5417   -0.6095    0.4758 H   0  0  0  0  0  0  0  0  0  0  0  0
   -8.8829    0.1085    2.2151 H   0  0  0  0  0  0  0  0  0  0  0  0
   -6.4707    0.3839    1.6056 H   0  0  0  0  0  0  0  0  0  0  0  0
  1  9  1  0  0  0  0
  2  1  1  6  0  0  0
  3  2  1  0  0  0  0
  4  3  1  0  0  0  0
  5  6  2  0  0  0  0
  5  4  1  0  0  0  0
  6  7  1  0  0  0  0
  7  3  2  0  0  0  0
  7 22  1  0  0  0  0
  8  2  1  0  0  0  0
  8 25  1  0  0  0  0
  9 10  1  0  0  0  0
 10 12  1  0  0  0  0
 10 11  1  1  0  0  0
 13 12  1  0  0  0  0
 13 14  1  0  0  0  0
 13 27  1  0  0  0  0
 14 19  1  0  0  0  0
 15 16  1  0  0  0  0
 15 14  2  0  0  0  0
 16 17  2  0  0  0  0
 17 30  1  0  0  0  0
 17 18  1  0  0  0  0
 18 31  1  0  0  0  0
 19 18  2  0  0  0  0
 19 32  1  0  0  0  0
 20  5  1  0  0  0  0
 21  6  1  0  0  0  0
 23  8  1  0  0  0  0
 24  8  1  0  0  0  0
 26 13  1  0  0  0  0
 28 15  1  0  0  0  0
 29 16  1  0  0  0  0
M  END
