1,2
q = -1.0

 34 35  0  0  0  0  0  0  0  0999 V2000
    2.0314   -0.4386   -2.3783 S   0  0  0  0  0  1  0  0  0  0  0  0
    0.4418   -1.5114    0.0284 N   0  0  0  0  0  2  0  0  0  0  0  0
    2.6381   -1.3462   -1.0051 C   0  0  0  0  0  0  0  0  0  0  0  0
    4.0197   -1.6689   -0.9686 C   0  0  0  0  0  0  0  0  0  0  0  0
    4.5784   -2.3883    0.0872 C   0  0  0  0  0  0  0  0  0  0  0  0
    3.7675   -2.8307    1.1531 C   0  0  0  0  0  0  0  0  0  0  0  0
    2.4023   -2.5471    1.1348 C   0  0  0  0  0  0  0  0  0  0  0  0
    1.8173   -1.7983    0.0850 C   0  0  0  0  0  0  0  0  0  0  0  0
   -0.4018   -1.7639    0.9916 C   0  0  0  0  0  3  0  0  0  0  0  0
   -1.8514   -1.6429    0.8339 C   0  0  0  0  0  0  0  0  0  0  0  0
   -2.6042   -1.0044    1.8661 C   0  0  0  0  0  0  0  0  0  0  0  0
   -3.9852   -0.8541    1.7095 C   0  0  0  0  0  0  0  0  0  0  0  0
   -4.6591   -1.3458    0.5731 C   0  0  0  0  0  0  0  0  0  0  0  0
   -3.9099   -2.0278   -0.3978 C   0  0  0  0  0  0  0  0  0  0  0  0
   -2.5169   -2.1941   -0.3000 C   0  0  0  0  0  0  0  0  0  0  0  0
   -1.9206   -0.4521    3.0908 C   0  0  0  0  0  0  0  0  0  0  0  0
   -6.1405   -1.1315    0.4156 C   0  0  0  0  0  0  0  0  0  0  0  0
   -1.8047   -2.9928   -1.3639 C   0  0  0  0  0  0  0  0  0  0  0  0
    4.6488   -1.3259   -1.8033 H   0  0  0  0  0  0  0  0  0  0  0  0
    5.6544   -2.6216    0.0790 H   0  0  0  0  0  0  0  0  0  0  0  0
    4.1980   -3.4168    1.9784 H   0  0  0  0  0  0  0  0  0  0  0  0
    1.7676   -2.9324    1.9464 H   0  0  0  0  0  0  0  0  0  0  0  0
   -0.0286   -2.1037    1.9820 H   0  0  0  0  0  0  0  0  0  0  0  0
   -4.5549   -0.3223    2.4880 H   0  0  0  0  0  0  0  0  0  0  0  0
   -4.4266   -2.4490   -1.2747 H   0  0  0  0  0  0  0  0  0  0  0  0
   -1.3938   -1.2430    3.6666 H   0  0  0  0  0  0  0  0  0  0  0  0
   -2.6497    0.0284    3.7700 H   0  0  0  0  0  0  0  0  0  0  0  0
   -1.1587    0.3075    2.8240 H   0  0  0  0  0  0  0  0  0  0  0  0
   -6.5491   -1.6931   -0.4461 H   0  0  0  0  0  0  0  0  0  0  0  0
   -6.3573   -0.0542    0.2533 H   0  0  0  0  0  0  0  0  0  0  0  0
   -6.6955   -1.4371    1.3263 H   0  0  0  0  0  0  0  0  0  0  0  0
   -1.4213   -2.3289   -2.1658 H   0  0  0  0  0  0  0  0  0  0  0  0
   -2.5047   -3.7069   -1.8390 H   0  0  0  0  0  0  0  0  0  0  0  0
   -0.9398   -3.5562   -0.9664 H   0  0  0  0  0  0  0  0  0  0  0  0
  1  3  1  0  0  0  0
  2  8  1  0  0  0  0
  2  9  1  0  0  0  0
  3  4  2  0  0  0  0
  3  8  1  0  0  0  0
  4  5  1  0  0  0  0
  5  6  2  0  0  0  0
  6 21  1  0  0  0  0
  7  6  1  0  0  0  0
  7 22  1  0  0  0  0
  8  7  2  0  0  0  0
  9 23  1  0  0  0  0
 10  9  1  0  0  0  0
 10 11  1  0  0  0  0
 11 16  1  0  0  0  0
 12 11  2  0  0  0  0
 12 24  1  0  0  0  0
 13 12  1  0  0  0  0
 14 15  1  0  0  0  0
 14 13  2  0  0  0  0
 15 10  2  0  0  0  0
 16 26  1  0  0  0  0
 16 27  1  0  0  0  0
 17 13  1  0  0  0  0
 17 31  1  0  0  0  0
 18 34  1  0  0  0  0
 18 15  1  0  0  0  0
 19  4  1  0  0  0  0
 20  5  1  0  0  0  0
 25 14  1  0  0  0  0
 28 16  1  0  0  0  0
 29 17  1  0  0  0  0
 30 17  1  0  0  0  0
 32 18  1  0  0  0  0
 33 18  1  0  0  0  0
M  END
