1,2
q = -1.0

 10 10  0  0  1  0  0  0  0  0999 V2000
    0.7127   -2.1887   -2.4370 S   0  0  0  0  0  1  0  0  0  0  0  0
    0.9042   -2.6681    0.1494 N   0  0  0  0  0  2  0  0  0  0  0  0
    1.2357   -3.1456   -1.0928 C   0  0  2  0  0  3  0  0  0  0  0  0
    2.4877   -4.9677   -0.0990 N   0  0  0  0  0  0  0  0  0  0  0  0
    1.3781   -3.3101    1.2332 C   0  0  0  0  0  0  0  0  0  0  0  0
    1.1167   -2.8880    2.2194 H   0  0  0  0  0  0  0  0  0  0  0  0
    2.1725   -4.4531    1.1113 C   0  0  0  0  0  0  0  0  0  0  0  0
    2.5654   -4.9678    2.0041 H   0  0  0  0  0  0  0  0  0  0  0  0
    2.0265   -4.3318   -1.1727 C   0  0  0  0  0  0  0  0  0  0  0  0
    2.2824   -4.7357   -2.1681 H   0  0  0  0  0  0  0  0  0  0  0  0
  2  5  1  0  0  0  0
  3  1  1  1  0  0  0
  3  2  1  0  0  0  0
  4  7  1  0  0  0  0
  5  6  1  0  0  0  0
  7  5  2  0  0  0  0
  7  8  1  0  0  0  0
  9  3  1  0  0  0  0
  9  4  2  0  0  0  0
 10  9  1  0  0  0  0
M  END
