1,33
q = 0.0, confidence = 1.0

 34 35  0  0  1  0  0  0  0  0999 V2000
    1.3107    1.6792   -0.6045 S   0  0  0  0  0  0  0  0  0  0  0  0
   -2.3263   -0.5800    0.2060 C   0  0  0  0  0  0  0  0  0  0  0  0
   -2.6323   -1.7670    0.8930 C   0  0  0  0  0  0  0  0  0  0  0  0
   -1.8425   -2.4814    1.1590 H   0  0  0  0  0  0  0  0  0  0  0  0
   -3.9755   -1.9984    1.2119 C   0  0  0  0  0  0  0  0  0  0  0  0
   -4.2483   -2.9196    1.7474 H   0  0  0  0  0  0  0  0  0  0  0  0
   -4.9933   -1.0789    0.8617 C   0  0  0  0  0  0  0  0  0  0  0  0
   -6.0363   -1.3025    1.1306 H   0  0  0  0  0  0  0  0  0  0  0  0
   -4.7033    0.1105    0.1793 C   0  0  0  0  0  0  0  0  0  0  0  0
   -5.4949    0.8236   -0.0916 H   0  0  0  0  0  0  0  0  0  0  0  0
   -3.3559    0.3392   -0.1362 C   0  0  0  0  0  0  0  0  0  0  0  0
   -3.4023    2.5550   -1.3291 C   0  0  0  0  0  0  0  0  0  0  0  0
   -2.6748    3.2253   -1.8191 H   0  0  0  0  0  0  0  0  0  0  0  0
   -3.9211    3.1163   -0.5253 H   0  0  0  0  0  0  0  0  0  0  0  0
   -4.1516    2.2422   -2.0843 H   0  0  0  0  0  0  0  0  0  0  0  0
   -1.3776    1.1085   -0.8188 C   0  0  2  0  0  3  0  0  0  0  0  0
   -0.3151    1.9620   -1.4228 C   0  0  0  0  0  0  0  0  0  0  0  0
   -0.5581    3.0416   -1.4190 H   0  0  0  0  0  0  0  0  0  0  0  0
   -0.1132    1.6214   -2.4611 H   0  0  0  0  0  0  0  0  0  0  0  0
    1.2319    2.8125    0.9071 C   0  0  0  0  0  0  0  0  0  0  0  0
   -0.0493    2.6152    1.7180 C   0  0  0  0  0  0  0  0  0  0  0  0
    0.0016    3.2455    2.6306 H   0  0  0  0  0  0  0  0  0  0  0  0
   -0.1788    1.5650    2.0369 H   0  0  0  0  0  0  0  0  0  0  0  0
   -0.9514    2.9287    1.1553 H   0  0  0  0  0  0  0  0  0  0  0  0
    1.3547    4.2528    0.3939 C   0  0  0  0  0  0  0  0  0  0  0  0
    1.3943    4.9486    1.2579 H   0  0  0  0  0  0  0  0  0  0  0  0
    0.4852    4.5536   -0.2257 H   0  0  0  0  0  0  0  0  0  0  0  0
    2.2752    4.3923   -0.2059 H   0  0  0  0  0  0  0  0  0  0  0  0
    2.4763    2.4229    1.7164 C   0  0  0  0  0  0  0  0  0  0  0  0
    2.5824    3.1175    2.5749 H   0  0  0  0  0  0  0  0  0  0  0  0
    3.3975    2.4951    1.1036 H   0  0  0  0  0  0  0  0  0  0  0  0
    2.3983    1.3941    2.1143 H   0  0  0  0  0  0  0  0  0  0  0  0
   -1.1144   -0.0670   -0.2418 N   0  0  0  0  0  2  0  0  0  0  0  0
   -2.7218    1.3973   -0.7849 N   0  0  0  0  0  0  0  0  0  0  0  0
  1 20  1  0  0  0  0
  2  3  1  0  0  0  0
  3  4  1  0  0  0  0
  3  5  2  0  0  0  0
  5  6  1  0  0  0  0
  7  8  1  0  0  0  0
  7  5  1  0  0  0  0
  9  7  2  0  0  0  0
 10  9  1  0  0  0  0
 11  9  1  0  0  0  0
 11  2  2  0  0  0  0
 12 34  1  0  0  0  0
 12 14  1  0  0  0  0
 13 12  1  0  0  0  0
 15 12  1  0  0  0  0
 16 17  1  6  0  0  0
 16 34  1  0  0  0  0
 16 33  1  0  0  0  0
 17 18  1  0  0  0  0
 17  1  1  0  0  0  0
 19 17  1  0  0  0  0
 20 29  1  0  0  0  0
 20 21  1  0  0  0  0
 21 23  1  0  0  0  0
 21 22  1  0  0  0  0
 24 21  1  0  0  0  0
 25 20  1  0  0  0  0
 25 26  1  0  0  0  0
 27 25  1  0  0  0  0
 28 25  1  0  0  0  0
 29 32  1  0  0  0  0
 29 30  1  0  0  0  0
 31 29  1  0  0  0  0
 33  2  1  0  0  0  0
 34 11  1  0  0  0  0
M  END
