1,3
q = -1.0

 34 37  0  0  1  0  0  0  0  0999 V2000
    3.4746    2.2469    1.0170 S   0  0  0  0  0  1  0  0  0  0  0  0
   -0.3417    2.1998    0.7537 N   0  0  0  0  0  0  0  0  0  0  0  0
    0.9721    1.8778    0.7387 N   0  0  0  0  0  2  0  0  0  0  0  0
    1.4617    4.0593    1.5123 N   0  0  0  0  0  0  0  0  0  0  0  0
    0.4589    4.2607    1.5297 H   0  0  0  0  0  0  0  0  0  0  0  0
    2.1482    4.7535    1.7982 H   0  0  0  0  0  0  0  0  0  0  0  0
   -3.0547   -0.8897   -0.4174 C   0  0  0  0  0  0  0  0  0  0  0  0
   -1.9805   -1.1107   -0.4218 H   0  0  0  0  0  0  0  0  0  0  0  0
   -3.9299   -1.8832   -0.7866 C   0  0  0  0  0  0  0  0  0  0  0  0
   -3.5466   -2.8738   -1.0787 H   0  0  0  0  0  0  0  0  0  0  0  0
   -5.3485   -1.6659   -0.8037 C   0  0  0  0  0  0  0  0  0  0  0  0
   -6.2654   -2.6736   -1.1795 C   0  0  0  0  0  0  0  0  0  0  0  0
   -5.8820   -3.6636   -1.4712 H   0  0  0  0  0  0  0  0  0  0  0  0
   -7.6436   -2.4219   -1.1830 C   0  0  0  0  0  0  0  0  0  0  0  0
   -8.3446   -3.2167   -1.4783 H   0  0  0  0  0  0  0  0  0  0  0  0
   -8.1345   -1.1633   -0.8128 C   0  0  0  0  0  0  0  0  0  0  0  0
   -9.2180   -0.9690   -0.8167 H   0  0  0  0  0  0  0  0  0  0  0  0
   -7.2556   -0.1241   -0.4294 C   0  0  0  0  0  0  0  0  0  0  0  0
   -7.7334    1.1754   -0.0456 C   0  0  0  0  0  0  0  0  0  0  0  0
   -8.8187    1.3591   -0.0530 H   0  0  0  0  0  0  0  0  0  0  0  0
   -6.8607    2.1718    0.3238 C   0  0  0  0  0  0  0  0  0  0  0  0
   -7.2386    3.1634    0.6163 H   0  0  0  0  0  0  0  0  0  0  0  0
   -5.4431    1.9510    0.3394 C   0  0  0  0  0  0  0  0  0  0  0  0
   -4.5316    2.9679    0.7185 C   0  0  0  0  0  0  0  0  0  0  0  0
   -4.9253    3.9541    1.0085 H   0  0  0  0  0  0  0  0  0  0  0  0
   -3.1629    2.7335    0.7269 C   0  0  0  0  0  0  0  0  0  0  0  0
   -2.4643    3.5287    1.0226 H   0  0  0  0  0  0  0  0  0  0  0  0
   -2.6200    1.4763    0.3586 C   0  0  0  0  0  0  0  0  0  0  0  0
   -3.5090    0.4191   -0.0310 C   0  0  0  0  0  0  0  0  0  0  0  0
   -4.9277    0.6641   -0.0388 C   0  0  0  0  0  0  0  0  0  0  0  0
   -5.8396   -0.3720   -0.4225 C   0  0  0  0  0  0  0  0  0  0  0  0
   -1.1828    1.2717    0.3826 C   0  0  0  0  0  0  0  0  0  0  0  0
   -0.7738    0.2907    0.0819 H   0  0  0  0  0  0  0  0  0  0  0  0
    1.8397    2.8318    1.1195 C   0  0  2  0  0  3  0  0  0  0  0  0
  3  2  1  0  0  0  0
  3 34  1  0  0  0  0
  4  5  1  0  0  0  0
  4  6  1  0  0  0  0
  7 29  1  0  0  0  0
  8  7  1  0  0  0  0
  9  7  2  0  0  0  0
 10  9  1  0  0  0  0
 11  9  1  0  0  0  0
 11 31  1  0  0  0  0
 12 11  2  0  0  0  0
 13 12  1  0  0  0  0
 14 12  1  0  0  0  0
 14 16  2  0  0  0  0
 15 14  1  0  0  0  0
 16 18  1  0  0  0  0
 17 16  1  0  0  0  0
 18 31  2  0  0  0  0
 18 19  1  0  0  0  0
 19 21  2  0  0  0  0
 20 19  1  0  0  0  0
 21 23  1  0  0  0  0
 21 22  1  0  0  0  0
 23 24  1  0  0  0  0
 24 26  2  0  0  0  0
 24 25  1  0  0  0  0
 26 27  1  0  0  0  0
 28 32  1  0  0  0  0
 28 26  1  0  0  0  0
 29 28  2  0  0  0  0
 30 29  1  0  0  0  0
 30 23  2  0  0  0  0
 31 30  1  0  0  0  0
 32  2  2  0  0  0  0
 33 32  1  0  0  0  0
 34  1  1  6  0  0  0
 34  4  1  0  0  0  0
M  END
