2,4
q = -1.0

 12 11  0  0  0  0  0  0  0  0999 V2000
   -2.7501   -0.6140   -0.2643 S   0  0  0  0  0  0  0  0  0  0  0  0
   -0.6015   -2.3031    0.3848 S   0  0  0  0  0  1  0  0  0  0  0  0
   -1.2985    2.6739   -0.0278 O   0  0  0  0  0  0  0  0  0  0  0  0
   -1.3713    0.3153   -0.5047 N   0  0  0  0  0  2  0  0  0  0  0  0
   -2.2345   -2.0520    0.1650 N   0  0  0  0  0  2  0  0  0  0  0  0
   -1.6332    1.6632   -0.9666 C   0  0  0  0  0  0  0  0  0  0  0  0
   -2.0193    2.5945    1.1924 C   0  0  0  0  0  0  0  0  0  0  0  0
   -2.7079    1.7650   -1.2700 H   0  0  0  0  0  0  0  0  0  0  0  0
   -0.9954    1.8793   -1.8489 H   0  0  0  0  0  0  0  0  0  0  0  0
   -1.7252    3.4707    1.8001 H   0  0  0  0  0  0  0  0  0  0  0  0
   -1.7816    1.6646    1.7550 H   0  0  0  0  0  0  0  0  0  0  0  0
   -3.1201    2.6337    1.0157 H   0  0  0  0  0  0  0  0  0  0  0  0
  1  5  1  0  0  0  0
  3  7  1  0  0  0  0
  4  1  1  0  0  0  0
  5  2  1  0  0  0  0
  6  4  1  0  0  0  0
  6  3  1  0  0  0  0
  7 11  1  0  0  0  0
  7 10  1  0  0  0  0
  8  6  1  0  0  0  0
  9  6  1  0  0  0  0
 12  7  1  0  0  0  0
M  END
