1,3
q = -1.0

 14 13  0  0  1  0  0  0  0  0999 V2000
   -1.6557    1.2614    0.0587 S   0  0  0  0  0  1  0  0  0  0  0  0
   -4.5657    0.7642   -0.7782 S   0  0  0  0  0  0  0  0  0  0  0  0
   -1.3706   -1.5101   -0.2770 N   0  0  0  0  0  2  0  0  0  0  0  0
   -2.6815   -1.0992   -0.5245 N   0  0  0  0  0  0  0  0  0  0  0  0
   -2.9593    0.1980   -0.4090 C   0  0  1  0  0  3  0  0  0  0  0  0
   -3.6490   -2.1221   -0.9059 C   0  0  0  0  0  0  0  0  0  0  0  0
   -4.5080    2.4896   -0.2083 C   0  0  0  0  0  0  0  0  0  0  0  0
   -1.2544   -2.4636   -0.6407 H   0  0  0  0  0  0  0  0  0  0  0  0
   -4.6673   -1.7815   -0.6373 H   0  0  0  0  0  0  0  0  0  0  0  0
   -3.6064   -2.3213   -1.9967 H   0  0  0  0  0  0  0  0  0  0  0  0
   -3.4275   -3.0470   -0.3399 H   0  0  0  0  0  0  0  0  0  0  0  0
   -5.5352    2.8660   -0.3750 H   0  0  0  0  0  0  0  0  0  0  0  0
   -4.2590    2.5415    0.8680 H   0  0  0  0  0  0  0  0  0  0  0  0
   -3.7934    3.0799   -0.8111 H   0  0  0  0  0  0  0  0  0  0  0  0
  2  5  1  0  0  0  0
  2  7  1  0  0  0  0
  4  5  1  0  0  0  0
  4  3  1  0  0  0  0
  5  1  1  6  0  0  0
  6  9  1  0  0  0  0
  6  4  1  0  0  0  0
  6 11  1  0  0  0  0
  7 13  1  0  0  0  0
  8  3  1  0  0  0  0
 10  6  1  0  0  0  0
 12  7  1  0  0  0  0
 14  7  1  0  0  0  0
M  END
