1,34
q = 0.0, confidence = 1.0

 34 34  0  0  1  0  0  0  0  0999 V2000
    1.9692   -1.8411   -0.8917 S   0  0  0  0  0  1  0  0  0  0  0  0
    3.0890   -0.5470   -0.7120 C   0  0  1  0  0  3  0  0  0  0  0  0
    1.0643    2.3511   -0.7480 C   0  0  0  0  0  0  0  0  0  0  0  0
   -0.4015    2.5373   -0.8886 C   0  0  0  0  0  0  0  0  0  0  0  0
   -3.1200    0.2290   -0.5186 C   0  0  2  0  0  3  0  0  0  0  0  0
   -4.5315    0.2373   -0.5609 C   0  0  0  0  0  0  0  0  0  0  0  0
   -5.0724    1.1670   -0.7923 H   0  0  0  0  0  0  0  0  0  0  0  0
   -5.2125   -0.9509   -0.3006 C   0  0  0  0  0  0  0  0  0  0  0  0
   -6.3119   -0.9690   -0.3244 H   0  0  0  0  0  0  0  0  0  0  0  0
   -4.4829   -2.1175   -0.0047 C   0  0  0  0  0  0  0  0  0  0  0  0
   -4.9837   -3.0711    0.2100 H   0  0  0  0  0  0  0  0  0  0  0  0
   -3.0906   -2.0363    0.0159 C   0  0  0  0  0  0  0  0  0  0  0  0
   -2.4732   -2.9176    0.2485 H   0  0  0  0  0  0  0  0  0  0  0  0
    4.9637   -2.1421   -0.3603 C   0  0  0  0  0  0  0  0  0  0  0  0
    4.3141   -2.7296    0.3167 H   0  0  0  0  0  0  0  0  0  0  0  0
    5.9651   -2.0344    0.0945 H   0  0  0  0  0  0  0  0  0  0  0  0
    5.0587   -2.6913   -1.3202 H   0  0  0  0  0  0  0  0  0  0  0  0
    1.9377    3.4325   -0.1814 C   0  0  0  0  0  0  0  0  0  0  0  0
    2.2207    3.1306    0.8530 H   0  0  0  0  0  0  0  0  0  0  0  0
    1.4222    4.4056   -0.1098 H   0  0  0  0  0  0  0  0  0  0  0  0
    2.8625    3.5815   -0.7775 H   0  0  0  0  0  0  0  0  0  0  0  0
   -1.0258    3.8743   -1.1703 C   0  0  0  0  0  0  0  0  0  0  0  0
   -1.7400    3.8023   -2.0193 H   0  0  0  0  0  0  0  0  0  0  0  0
   -0.2754    4.6343   -1.4496 H   0  0  0  0  0  0  0  0  0  0  0  0
   -1.5859    4.2582   -0.2895 H   0  0  0  0  0  0  0  0  0  0  0  0
    4.3957   -0.8156   -0.5569 N   0  0  0  0  0  0  0  0  0  0  0  0
    5.0512   -0.0354   -0.6631 H   0  0  0  0  0  0  0  0  0  0  0  0
    2.7468    0.7850   -0.7340 N   0  0  0  0  0  0  0  0  0  0  0  0
    3.3580    1.4309   -0.2104 H   0  0  0  0  0  0  0  0  0  0  0  0
    1.4856    1.1466   -1.0155 N   0  0  0  0  0  0  0  0  0  0  0  0
   -1.1025    1.4497   -0.7043 N   0  0  0  0  0  0  0  0  0  0  0  0
   -2.4242    1.4102   -0.7808 N   0  0  0  0  0  0  0  0  0  0  0  0
   -2.9750    2.2515   -0.9938 H   0  0  0  0  0  0  0  0  0  0  0  0
   -2.4217   -0.8900   -0.2388 N   0  0  0  0  0  2  0  0  0  0  0  0
  2  1  1  6  0  0  0
  2 26  1  0  0  0  0
  3 18  1  0  0  0  0
  4  3  1  0  0  0  0
  4 31  2  0  0  0  0
  5 32  1  6  0  0  0
  5 34  1  0  0  0  0
  6  5  1  0  0  0  0
  6  8  2  0  0  0  0
  7  6  1  0  0  0  0
  8 10  1  0  0  0  0
  9  8  1  0  0  0  0
 10 12  2  0  0  0  0
 10 11  1  0  0  0  0
 12 13  1  0  0  0  0
 14 16  1  0  0  0  0
 14 15  1  0  0  0  0
 17 14  1  0  0  0  0
 18 20  1  0  0  0  0
 18 19  1  0  0  0  0
 21 18  1  0  0  0  0
 22  4  1  0  0  0  0
 22 25  1  0  0  0  0
 23 22  1  0  0  0  0
 24 22  1  0  0  0  0
 26 14  1  0  0  0  0
 27 26  1  0  0  0  0
 28  2  1  0  0  0  0
 28 29  1  0  0  0  0
 30  3  2  0  0  0  0
 30 28  1  0  0  0  0
 32 31  1  0  0  0  0
 33 32  1  0  0  0  0
 34 12  1  0  0  0  0
M  END
