1,2
q = -1.0

 26 26  0  0  1  0  0  0  0  0999 V2000
   -1.2147   -0.2872   -2.2317 S   0  0  0  0  0  1  0  0  0  0  0  0
   -1.5467    1.7420    0.4759 N   0  0  0  0  0  0  0  0  0  0  0  0
   -2.4509   -0.9255   -1.1240 C   0  0  0  0  0  0  0  0  0  0  0  0
   -3.1190   -0.0880   -0.1777 C   0  0  0  0  0  0  0  0  0  0  0  0
   -4.0334   -0.6682    0.7226 C   0  0  0  0  0  0  0  0  0  0  0  0
   -4.3201   -2.0415    0.6995 C   0  0  0  0  0  0  0  0  0  0  0  0
   -3.7050   -2.8541   -0.2668 C   0  0  0  0  0  0  0  0  0  0  0  0
   -2.7878   -2.2999   -1.1687 C   0  0  0  0  0  0  0  0  0  0  0  0
   -2.8532    1.4060   -0.2127 C   0  0  1  0  0  0  0  0  0  0  0  0
   -4.0353    2.2619    0.2504 C   0  0  0  0  0  0  0  0  0  0  0  0
   -1.0932    3.1018    0.1232 C   0  0  0  0  0  0  0  0  0  0  0  0
   -1.6240    1.5993    1.9370 C   0  0  0  0  0  0  0  0  0  0  0  0
   -4.5503   -0.0290    1.4547 H   0  0  0  0  0  0  0  0  0  0  0  0
   -5.0348   -2.4690    1.4184 H   0  0  0  0  0  0  0  0  0  0  0  0
   -3.9382   -3.9291   -0.3175 H   0  0  0  0  0  0  0  0  0  0  0  0
   -2.2978   -2.9311   -1.9256 H   0  0  0  0  0  0  0  0  0  0  0  0
   -2.6419    1.6321   -1.2813 H   0  0  0  0  0  0  0  0  0  0  0  0
   -3.8433    3.3410    0.0943 H   0  0  0  0  0  0  0  0  0  0  0  0
   -4.2932    2.1162    1.3183 H   0  0  0  0  0  0  0  0  0  0  0  0
   -4.9300    1.9957   -0.3444 H   0  0  0  0  0  0  0  0  0  0  0  0
   -1.0287    3.1910   -0.9789 H   0  0  0  0  0  0  0  0  0  0  0  0
   -0.0827    3.2708    0.5441 H   0  0  0  0  0  0  0  0  0  0  0  0
   -1.7801    3.8854    0.5126 H   0  0  0  0  0  0  0  0  0  0  0  0
   -2.0342    0.6043    2.1928 H   0  0  0  0  0  0  0  0  0  0  0  0
   -2.2715    2.3774    2.4001 H   0  0  0  0  0  0  0  0  0  0  0  0
   -0.6109    1.6951    2.3699 H   0  0  0  0  0  0  0  0  0  0  0  0
  1  3  1  0  0  0  0
  2 12  1  0  0  0  0
  3  4  1  0  0  0  0
  4  5  2  0  0  0  0
  5 13  1  0  0  0  0
  6  5  1  0  0  0  0
  6 14  1  0  0  0  0
  7  6  2  0  0  0  0
  8  3  2  0  0  0  0
  8  7  1  0  0  0  0
  9 17  1  6  0  0  0
  9  4  1  0  0  0  0
  9 10  1  0  0  0  0
  9  2  1  0  0  0  0
 10 19  1  0  0  0  0
 11  2  1  0  0  0  0
 11 23  1  0  0  0  0
 11 22  1  0  0  0  0
 12 24  1  0  0  0  0
 12 26  1  0  0  0  0
 12 25  1  0  0  0  0
 15  7  1  0  0  0  0
 16  8  1  0  0  0  0
 18 10  1  0  0  0  0
 20 10  1  0  0  0  0
 21 11  1  0  0  0  0
M  END
