1,2
q = -1.0

 29 30  0  0  0  0  0  0  0  0999 V2000
   -0.4221   -2.5993   -0.2017 S   0  0  0  0  0  1  0  0  0  0  0  0
   -1.2260    0.1499   -0.8461 N   0  0  0  0  0  2  0  0  0  0  0  0
   -3.2041   -2.8127   -0.0341 C   0  0  0  0  0  0  0  0  0  0  0  0
   -2.5796    2.2957   -1.1509 C   0  0  0  0  0  0  0  0  0  0  0  0
   -2.2925   -0.6520   -0.5482 N   0  0  0  0  0  0  0  0  0  0  0  0
   -2.0511   -1.9178   -0.2731 C   0  0  0  0  0  0  0  0  0  0  0  0
   -1.4285    1.4156   -1.1511 C   0  0  0  0  0  3  0  0  0  0  0  0
   -0.4920    1.9094   -1.4588 H   0  0  0  0  0  0  0  0  0  0  0  0
   -4.5436    4.3483   -1.1488 C   0  0  0  0  0  0  0  0  0  0  0  0
   -5.3116    5.1373   -1.1429 H   0  0  0  0  0  0  0  0  0  0  0  0
   -3.2568    4.6184   -1.6640 C   0  0  0  0  0  0  0  0  0  0  0  0
   -3.0080    5.6123   -2.0621 H   0  0  0  0  0  0  0  0  0  0  0  0
   -3.0320   -4.0363    0.6537 C   0  0  0  0  0  0  0  0  0  0  0  0
   -2.0308   -4.3084    1.0186 H   0  0  0  0  0  0  0  0  0  0  0  0
   -2.3063    3.6059   -1.6507 C   0  0  0  0  0  0  0  0  0  0  0  0
   -1.2931    3.8035   -2.0346 H   0  0  0  0  0  0  0  0  0  0  0  0
   -4.8516    3.0894   -0.6415 C   0  0  0  0  0  0  0  0  0  0  0  0
   -5.8463    2.8624   -0.2317 H   0  0  0  0  0  0  0  0  0  0  0  0
   -3.8995    2.0370   -0.6253 C   0  0  0  0  0  0  0  0  0  0  0  0
   -4.4971   -2.4648   -0.4945 C   0  0  0  0  0  0  0  0  0  0  0  0
   -4.6448   -1.5222   -1.0393 H   0  0  0  0  0  0  0  0  0  0  0  0
   -4.2897    0.8854   -0.0985 O   0  0  0  0  0  0  0  0  0  0  0  0
   -3.5416    0.1713   -0.2361 H   0  0  0  0  0  0  0  0  0  0  0  0
   -5.5830   -3.3164   -0.2659 C   0  0  0  0  0  0  0  0  0  0  0  0
   -6.5810   -3.0339   -0.6334 H   0  0  0  0  0  0  0  0  0  0  0  0
   -5.4015   -4.5280    0.4226 C   0  0  0  0  0  0  0  0  0  0  0  0
   -6.2581   -5.1957    0.6005 H   0  0  0  0  0  0  0  0  0  0  0  0
   -4.1230   -4.8839    0.8809 C   0  0  0  0  0  0  0  0  0  0  0  0
   -3.9735   -5.8295    1.4233 H   0  0  0  0  0  0  0  0  0  0  0  0
  2  5  1  0  0  0  0
  3 13  1  0  0  0  0
  4 19  1  0  0  0  0
  5  6  2  0  0  0  0
  6  1  1  0  0  0  0
  6  3  1  0  0  0  0
  7  4  1  0  0  0  0
  7  2  1  0  0  0  0
  8  7  1  0  0  0  0
  9 10  1  0  0  0  0
  9 17  1  0  0  0  0
 11 15  1  0  0  0  0
 11  9  2  0  0  0  0
 12 11  1  0  0  0  0
 13 28  2  0  0  0  0
 13 14  1  0  0  0  0
 15  4  2  0  0  0  0
 16 15  1  0  0  0  0
 17 19  2  0  0  0  0
 17 18  1  0  0  0  0
 19 22  1  0  0  0  0
 20 24  1  0  0  0  0
 20  3  2  0  0  0  0
 21 20  1  0  0  0  0
 23 22  1  0  0  0  0
 24 26  2  0  0  0  0
 25 24  1  0  0  0  0
 26 27  1  0  0  0  0
 26 28  1  0  0  0  0
 28 29  1  0  0  0  0
M  END
