1,2
q = -1.0, confidence = 0.004

 36 37  0  0  1  0  0  0  0  0999 V2000
   -0.0923   -2.5298   -0.1180 S   0  0  0  0  0  1  0  0  0  0  0  0
    0.5720    0.0491   -1.4117 N   0  0  0  0  0  2  0  0  0  0  0  0
    1.6934   -0.6359   -0.9845 N   0  0  0  0  0  0  0  0  0  0  0  0
    0.8156    1.0009   -2.2775 C   0  0  2  0  0  3  0  0  0  0  0  0
    2.2333    1.2690   -2.7227 C   0  0  0  0  0  0  0  0  0  0  0  0
    2.2217    1.9768   -3.5766 H   0  0  0  0  0  0  0  0  0  0  0  0
    2.7167    0.3277   -3.0371 H   0  0  0  0  0  0  0  0  0  0  0  0
    1.5021   -1.7911   -0.3991 C   0  0  0  0  0  0  0  0  0  0  0  0
    3.0021    1.9468   -1.5723 C   0  0  0  0  0  0  0  0  0  0  0  0
    2.6367   -3.8918    0.4137 C   0  0  0  0  0  0  0  0  0  0  0  0
    1.6908   -4.4357    0.2733 H   0  0  0  0  0  0  0  0  0  0  0  0
    2.6961   -2.5159    0.0985 C   0  0  0  0  0  0  0  0  0  0  0  0
   -0.2618    1.8757   -2.8145 C   0  0  0  0  0  0  0  0  0  0  0  0
   -1.2527    1.6380   -2.3966 H   0  0  0  0  0  0  0  0  0  0  0  0
   -0.3088    1.7746   -3.9197 H   0  0  0  0  0  0  0  0  0  0  0  0
    0.0095    2.9300   -2.5941 H   0  0  0  0  0  0  0  0  0  0  0  0
    2.4633    2.8570   -0.9497 O   0  0  0  0  0  0  0  0  0  0  0  0
    3.9144   -1.8230    0.2888 C   0  0  0  0  0  0  0  0  0  0  0  0
    3.9541   -0.7514    0.0582 H   0  0  0  0  0  0  0  0  0  0  0  0
    4.3841    1.4871   -1.2352 C   0  0  0  0  0  0  0  0  0  0  0  0
    5.0406   -2.4916    0.7815 C   0  0  0  0  0  0  0  0  0  0  0  0
    5.9766   -1.9320    0.9298 H   0  0  0  0  0  0  0  0  0  0  0  0
    4.9245    1.9168   -0.0035 C   0  0  0  0  0  0  0  0  0  0  0  0
    4.3087    2.5669    0.6341 H   0  0  0  0  0  0  0  0  0  0  0  0
    3.7694   -4.5592    0.8973 C   0  0  0  0  0  0  0  0  0  0  0  0
    3.7096   -5.6327    1.1322 H   0  0  0  0  0  0  0  0  0  0  0  0
    5.1480    0.6395   -2.0651 C   0  0  0  0  0  0  0  0  0  0  0  0
    4.7457    0.2920   -3.0274 H   0  0  0  0  0  0  0  0  0  0  0  0
    4.9741   -3.8622    1.0853 C   0  0  0  0  0  0  0  0  0  0  0  0
    5.8609   -4.3873    1.4724 H   0  0  0  0  0  0  0  0  0  0  0  0
    6.1935    1.4896    0.4001 C   0  0  0  0  0  0  0  0  0  0  0  0
    6.5935    1.8090    1.3744 H   0  0  0  0  0  0  0  0  0  0  0  0
    6.4286    0.2301   -1.6696 C   0  0  0  0  0  0  0  0  0  0  0  0
    7.0186   -0.4294   -2.3233 H   0  0  0  0  0  0  0  0  0  0  0  0
    6.9505    0.6481   -0.4343 C   0  0  0  0  0  0  0  0  0  0  0  0
    7.9508    0.3130   -0.1193 H   0  0  0  0  0  0  0  0  0  0  0  0
  2  3  1  0  0  0  0
  3  8  2  0  0  0  0
  4  2  1  1  0  0  0
  5  4  1  0  0  0  0
  5  9  1  0  0  0  0
  6  5  1  0  0  0  0
  7  5  1  0  0  0  0
  8  1  1  0  0  0  0
  8 12  1  0  0  0  0
  9 20  1  0  0  0  0
  9 17  2  0  0  0  0
 10 25  1  0  0  0  0
 11 10  1  0  0  0  0
 12 18  1  0  0  0  0
 12 10  2  0  0  0  0
 13 16  1  0  0  0  0
 13 14  1  0  0  0  0
 13  4  1  0  0  0  0
 15 13  1  0  0  0  0
 18 21  2  0  0  0  0
 19 18  1  0  0  0  0
 20 23  1  0  0  0  0
 21 22  1  0  0  0  0
 21 29  1  0  0  0  0
 23 31  2  0  0  0  0
 23 24  1  0  0  0  0
 25 29  2  0  0  0  0
 25 26  1  0  0  0  0
 27 33  1  0  0  0  0
 27 20  2  0  0  0  0
 28 27  1  0  0  0  0
 29 30  1  0  0  0  0
 31 32  1  0  0  0  0
 33 35  2  0  0  0  0
 34 33  1  0  0  0  0
 35 36  1  0  0  0  0
 35 31  1  0  0  0  0
M  END
