1,3
q = -1.0, confidence = 0.0

 20 20  0  0  1  0  0  0  0  0999 V2000
   -2.7311   -1.6942    0.0479 S   0  0  0  0  0  1  0  0  0  0  0  0
   -5.6419   -0.9731    0.0524 S   0  0  0  0  0  0  0  0  0  0  0  0
   -1.2837    1.1062   -0.1414 N   0  0  0  0  0  2  0  0  0  0  0  0
   -2.5086    1.6047   -0.1322 C   0  0  2  0  0  3  0  0  0  0  0  0
   -3.7509    0.9186   -0.0301 C   0  0  0  0  0  0  0  0  0  0  0  0
   -3.9366   -0.4687    0.0233 C   0  0  0  0  0  0  0  0  0  0  0  0
   -2.7729    3.0957   -0.2838 C   0  0  0  0  0  0  0  0  0  0  0  0
   -4.2012    3.2702    0.2546 C   0  0  0  0  0  0  0  0  0  0  0  0
   -4.8898    1.9264   -0.0601 C   0  0  0  0  0  0  0  0  0  0  0  0
   -5.5663   -2.7810    0.1552 C   0  0  0  0  0  0  0  0  0  0  0  0
   -0.5781    1.8464   -0.2412 H   0  0  0  0  0  0  0  0  0  0  0  0
   -2.0085    3.7123    0.2332 H   0  0  0  0  0  0  0  0  0  0  0  0
   -2.7163    3.3552   -1.3659 H   0  0  0  0  0  0  0  0  0  0  0  0
   -5.3716    1.9435   -1.0658 H   0  0  0  0  0  0  0  0  0  0  0  0
   -5.6962    1.6817    0.6633 H   0  0  0  0  0  0  0  0  0  0  0  0
   -6.6224   -3.1127    0.1798 H   0  0  0  0  0  0  0  0  0  0  0  0
   -5.0443   -3.1080    1.0749 H   0  0  0  0  0  0  0  0  0  0  0  0
   -5.0547   -3.2100   -0.7276 H   0  0  0  0  0  0  0  0  0  0  0  0
   -4.7295    4.1430   -0.1765 H   0  0  0  0  0  0  0  0  0  0  0  0
   -4.1627    3.4134    1.3547 H   0  0  0  0  0  0  0  0  0  0  0  0
  2 10  1  0  0  0  0
  4  3  1  6  0  0  0
  4  5  1  0  0  0  0
  5  6  2  0  0  0  0
  6  1  1  0  0  0  0
  6  2  1  0  0  0  0
  7  4  1  0  0  0  0
  7 12  1  0  0  0  0
  7  8  1  0  0  0  0
  8 20  1  0  0  0  0
  9  5  1  0  0  0  0
  9  8  1  0  0  0  0
  9 15  1  0  0  0  0
 10 16  1  0  0  0  0
 10 17  1  0  0  0  0
 11  3  1  0  0  0  0
 13  7  1  0  0  0  0
 14  9  1  0  0  0  0
 18 10  1  0  0  0  0
 19  8  1  0  0  0  0
M  END
