30,34
q = -1.0

 37 37  0  0  1  0  0  0  0  0999 V2000
    9.1984   -2.4086   -0.1172 C   0  0  0  0  0  0  0  0  0  0  0  0
    9.2171   -3.0396    0.7944 H   0  0  0  0  0  0  0  0  0  0  0  0
    9.9099   -1.5699    0.0009 H   0  0  0  0  0  0  0  0  0  0  0  0
    9.5358   -3.0547   -0.9537 H   0  0  0  0  0  0  0  0  0  0  0  0
    7.7727   -1.9578   -0.3826 C   0  0  0  0  0  0  0  0  0  0  0  0
    7.5086   -0.5467   -0.5234 C   0  0  0  0  0  3  0  0  0  0  0  0
    8.3426    0.1608   -0.4284 H   0  0  0  0  0  0  0  0  0  0  0  0
    6.2341   -0.0222   -0.7728 C   0  0  0  0  0  0  0  0  0  0  0  0
    6.0374    1.4616   -0.8861 C   0  0  0  0  0  0  0  0  0  0  0  0
    6.9940    1.9799   -0.6934 H   0  0  0  0  0  0  0  0  0  0  0  0
    5.2788    1.8315   -0.1627 H   0  0  0  0  0  0  0  0  0  0  0  0
    5.6934    1.7473   -1.9014 H   0  0  0  0  0  0  0  0  0  0  0  0
    3.8303   -0.7662   -1.0904 C   0  0  0  0  0  0  0  0  0  0  0  0
    3.0672   -1.9617   -0.9813 C   0  0  0  0  0  0  0  0  0  0  0  0
    3.5915   -2.9041   -0.7598 H   0  0  0  0  0  0  0  0  0  0  0  0
    1.6815   -1.9517   -1.1267 C   0  0  0  0  0  0  0  0  0  0  0  0
    1.1217   -2.8918   -1.0061 H   0  0  0  0  0  0  0  0  0  0  0  0
    0.9850   -0.7426   -1.3596 C   0  0  0  0  0  0  0  0  0  0  0  0
    1.7540    0.4359   -1.5245 C   0  0  0  0  0  0  0  0  0  0  0  0
    1.2417    1.3739   -1.7866 H   0  0  0  0  0  0  0  0  0  0  0  0
    3.1436    0.4322   -1.3992 C   0  0  0  0  0  0  0  0  0  0  0  0
    3.6757    1.3769   -1.5375 H   0  0  0  0  0  0  0  0  0  0  0  0
   -0.4747   -0.6650   -1.4394 C   0  0  2  0  0  3  0  0  0  0  0  0
   -1.2864   -1.7034   -2.1547 C   0  0  0  0  0  0  0  0  0  0  0  0
   -1.7034   -1.2774   -3.0915 H   0  0  0  0  0  0  0  0  0  0  0  0
   -2.1600   -2.0019   -1.5415 H   0  0  0  0  0  0  0  0  0  0  0  0
   -0.6732   -2.5861   -2.4119 H   0  0  0  0  0  0  0  0  0  0  0  0
   -2.7795    1.8260   -1.0357 C   0  0  2  0  0  3  0  0  0  0  0  0
    5.2015   -0.9005   -0.8925 N   0  0  0  0  0  4  0  0  0  0  0  0
   -1.0655    0.4085   -0.9371 N   0  0  0  0  0  2  0  0  0  0  0  0
   -2.3822    0.5828   -1.2437 N   0  0  0  0  0  2  0  0  0  0  0  0
   -4.0654    2.1747   -1.2926 N   0  0  0  0  0  0  0  0  0  0  0  0
    6.8758   -2.8382   -0.4719 O   0  0  0  0  0  0  0  0  0  0  0  0
   -1.6764    3.0907   -0.4758 S   0  0  0  0  0  1  0  0  0  0  0  0
    5.5749   -1.8855   -0.7577 H   0  0  0  0  0  0  0  0  0  0  0  0
   -4.7854    1.4564   -1.4466 H   0  0  0  0  0  0  0  0  0  0  0  0
   -4.3784    3.0992   -1.0050 H   0  0  0  0  0  0  0  0  0  0  0  0
  1  3  1  0  0  0  0
  1  2  1  0  0  0  0
  4  1  1  0  0  0  0
  5  1  1  0  0  0  0
  6  7  1  0  0  0  0
  6  5  1  0  0  0  0
  8  6  1  0  0  0  0
  9  8  1  0  0  0  0
  9 10  1  0  0  0  0
  9 11  1  0  0  0  0
 12  9  1  0  0  0  0
 13 14  1  0  0  0  0
 13 29  1  0  0  0  0
 14 15  1  0  0  0  0
 16 17  1  0  0  0  0
 16 14  2  0  0  0  0
 18 16  1  0  0  0  0
 19 21  1  0  0  0  0
 19 18  2  0  0  0  0
 20 19  1  0  0  0  0
 21 13  2  0  0  0  0
 22 21  1  0  0  0  0
 23 18  1  0  0  0  0
 23 30  1  6  0  0  0
 24 26  1  0  0  0  0
 24 23  1  0  0  0  0
 25 24  1  0  0  0  0
 27 24  1  0  0  0  0
 28 34  1  6  0  0  0
 29  8  2  0  0  0  0
 29 35  1  0  0  0  0
 31 28  1  0  0  0  0
 31 30  1  0  0  0  0
 32 28  1  0  0  0  0
 32 37  1  0  0  0  0
 33  5  2  0  0  0  0
 36 32  1  0  0  0  0
M  END
