1,3
q = -1.0

 28 27  0  0  1  0  0  0  0  0999 V2000
   -0.3872   -1.2242   -1.7503 S   0  0  0  0  0  1  0  0  0  0  0  0
    1.7738   -2.0001   -0.3068 N   0  0  0  0  0  2  0  0  0  0  0  0
    1.3928   -0.9029    0.4177 N   0  0  0  0  0  2  0  0  0  0  0  0
    0.9814   -2.2347   -1.3351 C   0  0  1  0  0  3  0  0  0  0  0  0
    1.2200   -3.3408   -2.0954 N   0  0  0  0  0  0  0  0  0  0  0  0
    2.9229   -1.6930    2.2185 C   0  0  0  0  0  0  0  0  0  0  0  0
    4.8756   -0.8653    0.7504 C   0  0  0  0  0  0  0  0  0  0  0  0
    1.9240   -0.7642    1.6107 C   0  0  0  0  0  3  0  0  0  0  0  0
    6.2961   -0.2981    0.7127 C   0  0  0  0  0  0  0  0  0  0  0  0
    4.3543   -1.1109    2.1687 C   0  0  0  0  0  0  0  0  0  0  0  0
    6.8199   -0.0428   -0.7038 C   0  0  0  0  0  0  0  0  0  0  0  0
    8.2371    0.5300   -0.7381 C   0  0  0  0  0  0  0  0  0  0  0  0
    8.5873    0.7034   -1.7758 H   0  0  0  0  0  0  0  0  0  0  0  0
    8.9618   -0.1561   -0.2511 H   0  0  0  0  0  0  0  0  0  0  0  0
    8.2928    1.4999   -0.2005 H   0  0  0  0  0  0  0  0  0  0  0  0
    4.1871   -0.1702    0.2203 H   0  0  0  0  0  0  0  0  0  0  0  0
    4.3854   -0.1573    2.7425 H   0  0  0  0  0  0  0  0  0  0  0  0
    0.7734   -3.4150   -3.0066 H   0  0  0  0  0  0  0  0  0  0  0  0
    6.9892   -0.9924    1.2413 H   0  0  0  0  0  0  0  0  0  0  0  0
    5.0338   -1.8097    2.7046 H   0  0  0  0  0  0  0  0  0  0  0  0
    2.0966   -3.8390   -1.9407 H   0  0  0  0  0  0  0  0  0  0  0  0
    1.6317    0.1470    2.1555 H   0  0  0  0  0  0  0  0  0  0  0  0
    4.8312   -1.8143    0.1722 H   0  0  0  0  0  0  0  0  0  0  0  0
    6.3293    0.6527    1.2925 H   0  0  0  0  0  0  0  0  0  0  0  0
    6.1224    0.6473   -1.2286 H   0  0  0  0  0  0  0  0  0  0  0  0
    6.7855   -0.9942   -1.2803 H   0  0  0  0  0  0  0  0  0  0  0  0
    2.6428   -1.8620    3.2807 H   0  0  0  0  0  0  0  0  0  0  0  0
    2.8861   -2.6626    1.6859 H   0  0  0  0  0  0  0  0  0  0  0  0
  2  3  1  0  0  0  0
  3  8  1  0  0  0  0
  4  1  1  1  0  0  0
  4  2  1  0  0  0  0
  5 21  1  0  0  0  0
  5  4  1  0  0  0  0
  6 27  1  0  0  0  0
  7 10  1  0  0  0  0
  8 22  1  0  0  0  0
  8  6  1  0  0  0  0
  9  7  1  0  0  0  0
  9 19  1  0  0  0  0
  9 24  1  0  0  0  0
 10  6  1  0  0  0  0
 10 20  1  0  0  0  0
 10 17  1  0  0  0  0
 11  9  1  0  0  0  0
 12 11  1  0  0  0  0
 12 14  1  0  0  0  0
 12 15  1  0  0  0  0
 13 12  1  0  0  0  0
 16  7  1  0  0  0  0
 18  5  1  0  0  0  0
 23  7  1  0  0  0  0
 25 11  1  0  0  0  0
 26 11  1  0  0  0  0
 28  6  1  0  0  0  0
M  END
