1,4
q = -1.0

 40 39  0  0  1  0  0  0  0  0999 V2000
    0.7165    2.0001   -0.6109 S   0  0  0  0  0  1  0  0  0  0  0  0
   -0.7213    4.1755    0.0110 N   0  0  0  0  0  0  0  0  0  0  0  0
   -1.8528    2.1800    0.2335 N   0  0  0  0  0  2  0  0  0  0  0  0
   -1.7356    0.8197    0.1001 N   0  0  0  0  0  2  0  0  0  0  0  0
   -0.7353    2.8184   -0.0636 C   0  0  1  0  0  3  0  0  0  0  0  0
   -2.8726    0.1714    0.0322 C   0  0  0  0  0  3  0  0  0  0  0  0
   -4.2060    0.8406    0.0914 C   0  0  0  0  0  0  0  0  0  0  0  0
   -5.3815   -0.1336   -0.0088 C   0  0  0  0  0  0  0  0  0  0  0  0
   -6.7457    0.5558    0.0561 C   0  0  0  0  0  0  0  0  0  0  0  0
   -7.9316   -0.4069   -0.0417 C   0  0  0  0  0  0  0  0  0  0  0  0
   -9.2969    0.2823    0.0243 C   0  0  0  0  0  0  0  0  0  0  0  0
  -10.4832   -0.6803   -0.0730 C   0  0  0  0  0  0  0  0  0  0  0  0
  -11.8489    0.0078   -0.0064 C   0  0  0  0  0  0  0  0  0  0  0  0
  -13.0363   -0.9549   -0.1036 C   0  0  0  0  0  0  0  0  0  0  0  0
  -14.3955   -0.2576   -0.0359 C   0  0  0  0  0  0  0  0  0  0  0  0
   -1.9057    4.9554    0.2987 C   0  0  0  0  0  0  0  0  0  0  0  0
   -2.8013   -0.9225   -0.0772 H   0  0  0  0  0  0  0  0  0  0  0  0
   -4.2518    1.6131   -0.7112 H   0  0  0  0  0  0  0  0  0  0  0  0
   -4.2594    1.4424    1.0284 H   0  0  0  0  0  0  0  0  0  0  0  0
   -5.3037   -0.7111   -0.9570 H   0  0  0  0  0  0  0  0  0  0  0  0
   -5.3080   -0.8864    0.8076 H   0  0  0  0  0  0  0  0  0  0  0  0
   -6.8146    1.3108   -0.7597 H   0  0  0  0  0  0  0  0  0  0  0  0
   -6.8185    1.1362    1.0039 H   0  0  0  0  0  0  0  0  0  0  0  0
   -7.8574   -0.9867   -0.9897 H   0  0  0  0  0  0  0  0  0  0  0  0
   -7.8605   -1.1618    0.7740 H   0  0  0  0  0  0  0  0  0  0  0  0
   -9.3676    1.0372   -0.7914 H   0  0  0  0  0  0  0  0  0  0  0  0
   -9.3704    0.8623    0.9723 H   0  0  0  0  0  0  0  0  0  0  0  0
  -10.4092   -1.2601   -1.0211 H   0  0  0  0  0  0  0  0  0  0  0  0
  -10.4116   -1.4354    0.7426 H   0  0  0  0  0  0  0  0  0  0  0  0
  -11.9208    0.7631   -0.8220 H   0  0  0  0  0  0  0  0  0  0  0  0
  -11.9230    0.5878    0.9418 H   0  0  0  0  0  0  0  0  0  0  0  0
  -12.9586   -1.5335   -1.0512 H   0  0  0  0  0  0  0  0  0  0  0  0
  -12.9607   -1.7088    0.7117 H   0  0  0  0  0  0  0  0  0  0  0  0
  -15.2338   -0.9795   -0.1087 H   0  0  0  0  0  0  0  0  0  0  0  0
  -14.5136    0.4760   -0.8608 H   0  0  0  0  0  0  0  0  0  0  0  0
  -14.5158    0.2992    0.9172 H   0  0  0  0  0  0  0  0  0  0  0  0
    0.1336    4.6400   -0.2897 H   0  0  0  0  0  0  0  0  0  0  0  0
   -1.6201    6.0154    0.4341 H   0  0  0  0  0  0  0  0  0  0  0  0
   -2.6615    4.8853   -0.5154 H   0  0  0  0  0  0  0  0  0  0  0  0
   -2.3910    4.5899    1.2261 H   0  0  0  0  0  0  0  0  0  0  0  0
  2 16  1  0  0  0  0
  4  3  1  0  0  0  0
  5  1  1  6  0  0  0
  5  2  1  0  0  0  0
  5  3  1  0  0  0  0
  6  7  1  0  0  0  0
  6  4  1  0  0  0  0
  7 19  1  0  0  0  0
  8  9  1  0  0  0  0
  8  7  1  0  0  0  0
  8 21  1  0  0  0  0
  9 23  1  0  0  0  0
 10 11  1  0  0  0  0
 10  9  1  0  0  0  0
 10 25  1  0  0  0  0
 11 27  1  0  0  0  0
 12 13  1  0  0  0  0
 12 11  1  0  0  0  0
 12 29  1  0  0  0  0
 13 31  1  0  0  0  0
 14 15  1  0  0  0  0
 14 13  1  0  0  0  0
 14 33  1  0  0  0  0
 15 36  1  0  0  0  0
 16 38  1  0  0  0  0
 16 40  1  0  0  0  0
 17  6  1  0  0  0  0
 18  7  1  0  0  0  0
 20  8  1  0  0  0  0
 22  9  1  0  0  0  0
 24 10  1  0  0  0  0
 26 11  1  0  0  0  0
 28 12  1  0  0  0  0
 30 13  1  0  0  0  0
 32 14  1  0  0  0  0
 34 15  1  0  0  0  0
 35 15  1  0  0  0  0
 37  2  1  0  0  0  0
 39 16  1  0  0  0  0
M  END
