1,4
q = -1.0

 24 24  0  0  0  0  0  0  0  0999 V2000
    2.4619    0.6896    0.8373 S   0  0  0  0  0  1  0  0  0  0  0  0
    4.6196    0.8767   -1.3225 S   0  0  0  0  0  0  0  0  0  0  0  0
   -1.7173   -1.2038   -1.1934 N   0  0  0  0  0  0  0  0  0  0  0  0
    1.0274   -0.4407   -1.4808 N   0  0  0  0  0  2  0  0  0  0  0  0
    2.2986   -0.1233   -1.7621 N   0  0  0  0  0  0  0  0  0  0  0  0
   -3.0378   -1.4379   -1.1354 C   0  0  0  0  0  0  0  0  0  0  0  0
   -3.7100   -1.2013    0.1916 C   0  0  0  0  0  0  0  0  0  0  0  0
   -3.7659   -1.8867   -2.2605 C   0  0  0  0  0  0  0  0  0  0  0  0
   -3.0895   -2.0886   -3.4728 C   0  0  0  0  0  0  0  0  0  0  0  0
   -1.7202   -1.8246   -3.5368 C   0  0  0  0  0  0  0  0  0  0  0  0
   -1.0628   -1.3659   -2.3664 C   0  0  0  0  0  0  0  0  0  0  0  0
    0.3485   -1.0376   -2.4426 C   0  0  0  0  0  3  0  0  0  0  0  0
    2.9976    0.4354   -0.7702 C   0  0  0  0  0  0  0  0  0  0  0  0
    5.3534    1.5767    0.1807 C   0  0  0  0  0  0  0  0  0  0  0  0
   -4.7873   -1.4499    0.1601 H   0  0  0  0  0  0  0  0  0  0  0  0
   -3.2218   -1.8049    0.9830 H   0  0  0  0  0  0  0  0  0  0  0  0
   -3.5937   -0.1398    0.4911 H   0  0  0  0  0  0  0  0  0  0  0  0
   -4.8453   -2.0821   -2.1767 H   0  0  0  0  0  0  0  0  0  0  0  0
   -3.6319   -2.4433   -4.3625 H   0  0  0  0  0  0  0  0  0  0  0  0
   -1.1565   -1.9524   -4.4730 H   0  0  0  0  0  0  0  0  0  0  0  0
    0.8945   -1.2374   -3.3805 H   0  0  0  0  0  0  0  0  0  0  0  0
    5.3882    0.8241    0.9921 H   0  0  0  0  0  0  0  0  0  0  0  0
    6.3802    1.8793   -0.1019 H   0  0  0  0  0  0  0  0  0  0  0  0
    4.7772    2.4569    0.5249 H   0  0  0  0  0  0  0  0  0  0  0  0
  2 13  1  0  0  0  0
  2 14  1  0  0  0  0
  3  6  1  0  0  0  0
  5  4  1  0  0  0  0
  5 13  2  0  0  0  0
  6  7  1  0  0  0  0
  7 17  1  0  0  0  0
  7 16  1  0  0  0  0
  8 18  1  0  0  0  0
  8  6  2  0  0  0  0
  9  8  1  0  0  0  0
 10  9  2  0  0  0  0
 10 11  1  0  0  0  0
 11  3  2  0  0  0  0
 12 11  1  0  0  0  0
 12  4  1  0  0  0  0
 13  1  1  0  0  0  0
 14 24  1  0  0  0  0
 14 22  1  0  0  0  0
 15  7  1  0  0  0  0
 19  9  1  0  0  0  0
 20 10  1  0  0  0  0
 21 12  1  0  0  0  0
 23 14  1  0  0  0  0
M  END
