1,2
q = -1.0

 27 28  0  0  0  0  0  0  0  0999 V2000
   -1.6117   -3.0117   -0.3651 S   0  0  0  0  0  1  0  0  0  0  0  0
   -1.4381   -0.0846   -0.7954 N   0  0  0  0  0  2  0  0  0  0  0  0
   -1.2749    1.0241   -1.3992 N   0  0  0  0  0  2  0  0  0  0  0  0
   -2.7741   -0.5186   -0.6410 C   0  0  0  0  0  0  0  0  0  0  0  0
   -2.9687   -1.9124   -0.4174 C   0  0  0  0  0  0  0  0  0  0  0  0
   -4.2995   -2.3868   -0.2870 C   0  0  0  0  0  0  0  0  0  0  0  0
   -5.3769   -1.5051   -0.3644 C   0  0  0  0  0  0  0  0  0  0  0  0
   -5.1674   -0.1220   -0.5821 C   0  0  0  0  0  0  0  0  0  0  0  0
   -3.8725    0.3661   -0.7362 C   0  0  0  0  0  0  0  0  0  0  0  0
   -0.0030    1.4664   -1.7338 C   0  0  0  0  0  0  0  0  0  0  0  0
    0.1649    2.8824   -1.8394 C   0  0  0  0  0  0  0  0  0  0  0  0
    1.4404    3.3675   -2.1674 C   0  0  0  0  0  0  0  0  0  0  0  0
    2.5163    2.4992   -2.4292 C   0  0  0  0  0  0  0  0  0  0  0  0
    2.3208    1.1099   -2.4023 C   0  0  0  0  0  0  0  0  0  0  0  0
    1.0659    0.5933   -2.0666 C   0  0  0  0  0  0  0  0  0  0  0  0
   -0.9925    3.8070   -1.5828 C   0  0  0  0  0  0  0  0  0  0  0  0
   -4.4634   -3.4613   -0.1169 H   0  0  0  0  0  0  0  0  0  0  0  0
   -6.4009   -1.8911   -0.2454 H   0  0  0  0  0  0  0  0  0  0  0  0
   -6.0240    0.5670   -0.6193 H   0  0  0  0  0  0  0  0  0  0  0  0
   -3.6674    1.4315   -0.9052 H   0  0  0  0  0  0  0  0  0  0  0  0
    1.5922    4.4567   -2.2283 H   0  0  0  0  0  0  0  0  0  0  0  0
    3.5026    2.9132   -2.6876 H   0  0  0  0  0  0  0  0  0  0  0  0
    3.1441    0.4240   -2.6503 H   0  0  0  0  0  0  0  0  0  0  0  0
    0.8828   -0.4929   -2.0959 H   0  0  0  0  0  0  0  0  0  0  0  0
   -1.3423    3.7390   -0.5327 H   0  0  0  0  0  0  0  0  0  0  0  0
   -0.7169    4.8579   -1.7935 H   0  0  0  0  0  0  0  0  0  0  0  0
   -1.8603    3.5291   -2.2150 H   0  0  0  0  0  0  0  0  0  0  0  0
  2  4  1  0  0  0  0
  3  2  1  0  0  0  0
  4  5  1  0  0  0  0
  5  1  1  0  0  0  0
  5  6  2  0  0  0  0
  6 17  1  0  0  0  0
  7  6  1  0  0  0  0
  7 18  1  0  0  0  0
  8  7  2  0  0  0  0
  9  4  2  0  0  0  0
  9  8  1  0  0  0  0
 10  3  1  0  0  0  0
 11 10  1  0  0  0  0
 11 16  1  0  0  0  0
 12 11  2  0  0  0  0
 13 14  2  0  0  0  0
 13 12  1  0  0  0  0
 14 15  1  0  0  0  0
 15 10  2  0  0  0  0
 16 25  1  0  0  0  0
 19  8  1  0  0  0  0
 20  9  1  0  0  0  0
 21 12  1  0  0  0  0
 22 13  1  0  0  0  0
 23 14  1  0  0  0  0
 24 15  1  0  0  0  0
 26 16  1  0  0  0  0
 27 16  1  0  0  0  0
M  END
