1,5
q = -1.0, confidence = 0.02

 32 32  0  0  1  0  0  0  0  0999 V2000
   -1.3134    0.9163   -0.5790 N   0  0  0  0  0  2  0  0  0  0  0  0
   -0.9566    1.8138   -0.9400 H   0  0  0  0  0  0  0  0  0  0  0  0
   -3.4084    0.0924    0.1938 N   0  0  0  0  0  0  0  0  0  0  0  0
   -4.1167   -2.0892    0.3320 N   0  0  0  0  0  0  0  0  0  0  0  0
   -1.5073   -1.7827    0.8873 S   0  0  0  0  0  1  0  0  0  0  0  0
   -2.5842    1.0741   -0.1262 C   0  0  0  0  0  0  0  0  0  0  0  0
   -3.1198   -1.1895    0.4069 C   0  0  2  0  0  3  0  0  0  0  0  0
   -5.4707   -1.6609   -0.0690 C   0  0  0  0  0  0  0  0  0  0  0  0
   -5.3702   -0.8493   -0.8127 H   0  0  0  0  0  0  0  0  0  0  0  0
   -5.9360   -2.5245   -0.5853 H   0  0  0  0  0  0  0  0  0  0  0  0
   -6.3135   -1.2097    1.1215 C   0  0  0  0  0  0  0  0  0  0  0  0
   -7.3311   -0.9350    0.7803 H   0  0  0  0  0  0  0  0  0  0  0  0
   -5.8580   -0.3256    1.6083 H   0  0  0  0  0  0  0  0  0  0  0  0
   -6.4167   -2.0134    1.8776 H   0  0  0  0  0  0  0  0  0  0  0  0
   -3.9295   -3.5196    0.6207 C   0  0  0  0  0  0  0  0  0  0  0  0
   -4.8840   -3.8823    1.0532 H   0  0  0  0  0  0  0  0  0  0  0  0
   -3.1626   -3.6246    1.4121 H   0  0  0  0  0  0  0  0  0  0  0  0
   -3.5461   -4.3252   -0.6192 C   0  0  0  0  0  0  0  0  0  0  0  0
   -3.4541   -5.3976   -0.3582 H   0  0  0  0  0  0  0  0  0  0  0  0
   -2.5734   -3.9832   -1.0247 H   0  0  0  0  0  0  0  0  0  0  0  0
   -4.3105   -4.2344   -1.4166 H   0  0  0  0  0  0  0  0  0  0  0  0
   -3.1222    2.4559   -0.0185 C   0  0  0  0  0  0  0  0  0  0  0  0
   -4.5189    2.6660   -0.0663 C   0  0  0  0  0  0  0  0  0  0  0  0
   -5.1780    1.7964   -0.1948 H   0  0  0  0  0  0  0  0  0  0  0  0
   -5.0435    3.9591    0.0301 C   0  0  0  0  0  0  0  0  0  0  0  0
   -6.1315    4.1128   -0.0209 H   0  0  0  0  0  0  0  0  0  0  0  0
   -4.1845    5.0600    0.1876 C   0  0  0  0  0  0  0  0  0  0  0  0
   -4.5991    6.0761    0.2650 H   0  0  0  0  0  0  0  0  0  0  0  0
   -2.7959    4.8618    0.2553 C   0  0  0  0  0  0  0  0  0  0  0  0
   -2.1224    5.7188    0.4031 H   0  0  0  0  0  0  0  0  0  0  0  0
   -2.2678    3.5692    0.1532 C   0  0  0  0  0  0  0  0  0  0  0  0
   -1.1810    3.4254    0.2573 H   0  0  0  0  0  0  0  0  0  0  0  0
  1  6  1  0  0  0  0
  2  1  1  0  0  0  0
  3  7  1  0  0  0  0
  4  7  1  0  0  0  0
  4 15  1  0  0  0  0
  6 22  1  0  0  0  0
  6  3  2  0  0  0  0
  7  5  1  1  0  0  0
  8  4  1  0  0  0  0
  8 11  1  0  0  0  0
  9  8  1  0  0  0  0
 10  8  1  0  0  0  0
 11 13  1  0  0  0  0
 11 14  1  0  0  0  0
 12 11  1  0  0  0  0
 15 16  1  0  0  0  0
 15 17  1  0  0  0  0
 18 19  1  0  0  0  0
 18 15  1  0  0  0  0
 20 18  1  0  0  0  0
 21 18  1  0  0  0  0
 22 31  1  0  0  0  0
 23 22  2  0  0  0  0
 23 25  1  0  0  0  0
 24 23  1  0  0  0  0
 25 27  2  0  0  0  0
 26 25  1  0  0  0  0
 27 29  1  0  0  0  0
 27 28  1  0  0  0  0
 29 30  1  0  0  0  0
 31 29  2  0  0  0  0
 31 32  1  0  0  0  0
M  END
