1,2
q = -1.0, confidence = 0.0

 20 20  0  0  0  0  0  0  0  0999 V2000
   -2.1056    1.5590    0.8047 S   0  0  0  0  0  1  0  0  0  0  0  0
   -0.8654    0.2915   -1.0600 N   0  0  0  0  0  2  0  0  0  0  0  0
   -4.4981   -0.0847    1.1289 O   0  0  0  0  0  0  0  0  0  0  0  0
   -5.0185   -1.8779   -0.1644 O   0  0  0  0  0  0  0  0  0  0  0  0
   -0.5857   -0.6101   -2.0088 C   0  0  0  0  0  3  0  0  0  0  0  0
    0.3784   -0.4772   -2.5266 H   0  0  0  0  0  0  0  0  0  0  0  0
   -1.4699   -1.6576   -2.3034 C   0  0  0  0  0  0  0  0  0  0  0  0
   -1.2243   -2.3891   -3.0853 H   0  0  0  0  0  0  0  0  0  0  0  0
   -2.6639   -1.7405   -1.5752 C   0  0  0  0  0  0  0  0  0  0  0  0
   -3.3904   -2.5427   -1.7680 H   0  0  0  0  0  0  0  0  0  0  0  0
   -2.9650   -0.7949   -0.5759 C   0  0  0  0  0  0  0  0  0  0  0  0
   -2.0180    0.2400   -0.3445 C   0  0  0  0  0  0  0  0  0  0  0  0
   -4.2180   -0.8550    0.2254 C   0  0  0  0  0  0  0  0  0  0  0  0
   -6.2602   -2.0114    0.5611 C   0  0  0  0  0  0  0  0  0  0  0  0
   -6.8261   -1.0596    0.4762 H   0  0  0  0  0  0  0  0  0  0  0  0
   -6.0304   -2.1483    1.6392 H   0  0  0  0  0  0  0  0  0  0  0  0
   -7.0168   -3.1866   -0.0213 C   0  0  0  0  0  0  0  0  0  0  0  0
   -7.9784   -3.3183    0.5128 H   0  0  0  0  0  0  0  0  0  0  0  0
   -6.4357   -4.1249    0.0778 H   0  0  0  0  0  0  0  0  0  0  0  0
   -7.2378   -3.0258   -1.0951 H   0  0  0  0  0  0  0  0  0  0  0  0
  2 12  1  0  0  0  0
  4 13  1  0  0  0  0
  4 14  1  0  0  0  0
  5  2  1  0  0  0  0
  6  5  1  0  0  0  0
  7  5  1  0  0  0  0
  7  9  2  0  0  0  0
  8  7  1  0  0  0  0
  9 11  1  0  0  0  0
 10  9  1  0  0  0  0
 11 12  2  0  0  0  0
 11 13  1  0  0  0  0
 12  1  1  0  0  0  0
 13  3  2  0  0  0  0
 14 16  1  0  0  0  0
 15 14  1  0  0  0  0
 17 19  1  0  0  0  0
 17 18  1  0  0  0  0
 17 14  1  0  0  0  0
 20 17  1  0  0  0  0
M  END
