1,6
q = 0.0, confidence = 0.98

 23 22  0  0  1  0  0  0  0  0999 V2000
    2.3587    0.7698   -0.5417 S   0  0  0  0  0  1  0  0  0  0  0  0
   -2.2385    0.4543   -0.3948 O   0  0  0  0  0  0  0  0  0  0  0  0
   -3.5011   -1.4247   -0.3706 O   0  0  0  0  0  0  0  0  0  0  0  0
    3.4238   -1.6541   -0.1800 N   0  0  0  0  0  0  0  0  0  0  0  0
    1.1332   -1.6335   -0.3916 N   0  0  0  0  0  0  0  0  0  0  0  0
   -0.0363   -1.0189   -0.5058 N   0  0  0  0  0  2  0  0  0  0  0  0
    2.3202   -0.8888   -0.3612 C   0  0  2  0  0  3  0  0  0  0  0  0
   -1.1522   -1.6799   -0.3923 C   0  0  2  0  0  3  0  0  0  0  0  0
   -2.3311   -0.7692   -0.3966 C   0  0  0  0  0  0  0  0  0  0  0  0
   -4.6709   -0.5896   -0.3047 C   0  0  0  0  0  0  0  0  0  0  0  0
    4.7606   -1.0973   -0.0945 C   0  0  0  0  0  0  0  0  0  0  0  0
   -1.2606   -3.1441   -0.1045 C   0  0  0  0  0  0  0  0  0  0  0  0
    3.3337   -2.6719   -0.2230 H   0  0  0  0  0  0  0  0  0  0  0  0
    1.1533   -2.6010   -0.0387 H   0  0  0  0  0  0  0  0  0  0  0  0
   -5.5321   -1.2779   -0.2564 H   0  0  0  0  0  0  0  0  0  0  0  0
   -4.7344    0.0581   -1.2012 H   0  0  0  0  0  0  0  0  0  0  0  0
   -4.6301    0.0575    0.5935 H   0  0  0  0  0  0  0  0  0  0  0  0
    5.4576   -1.8922    0.2291 H   0  0  0  0  0  0  0  0  0  0  0  0
    4.7758   -0.2670    0.6393 H   0  0  0  0  0  0  0  0  0  0  0  0
    5.0964   -0.6856   -1.0703 H   0  0  0  0  0  0  0  0  0  0  0  0
   -0.6104   -3.7469   -0.7739 H   0  0  0  0  0  0  0  0  0  0  0  0
   -2.3009   -3.4913   -0.2246 H   0  0  0  0  0  0  0  0  0  0  0  0
   -0.9566   -3.3384    0.9495 H   0  0  0  0  0  0  0  0  0  0  0  0
  3 10  1  0  0  0  0
  4 11  1  0  0  0  0
  5  7  1  0  0  0  0
  5 14  1  0  0  0  0
  6  5  1  0  0  0  0
  7  1  1  6  0  0  0
  7  4  1  0  0  0  0
  8  6  1  1  0  0  0
  8 12  1  0  0  0  0
  9  2  2  0  0  0  0
  9  8  1  0  0  0  0
  9  3  1  0  0  0  0
 10 15  1  0  0  0  0
 10 17  1  0  0  0  0
 11 18  1  0  0  0  0
 11 19  1  0  0  0  0
 12 23  1  0  0  0  0
 13  4  1  0  0  0  0
 16 10  1  0  0  0  0
 20 11  1  0  0  0  0
 21 12  1  0  0  0  0
 22 12  1  0  0  0  0
M  END
