1,5
q = 0.0, confidence = 0.998

 23 23  0  0  1  0  0  0  0  0999 V2000
    2.5830    0.8159   -0.9417 S   0  0  0  0  0  1  0  0  0  0  0  0
    0.4782   -1.2218   -0.5830 N   0  0  0  0  0  0  0  0  0  0  0  0
    1.7195   -1.7020   -0.4667 N   0  0  0  0  0  0  0  0  0  0  0  0
    3.9988   -1.3910   -0.4634 N   0  0  0  0  0  0  0  0  0  0  0  0
   -1.6763    0.2000   -0.2215 N   0  0  0  0  0  2  0  0  0  0  0  0
   -1.8233   -1.1462   -0.2810 C   0  0  1  0  0  3  0  0  0  0  0  0
    2.7821   -0.8135   -0.6146 C   0  0  2  0  0  3  0  0  0  0  0  0
   -0.5609   -1.9211   -0.2373 C   0  0  0  0  0  0  0  0  0  0  0  0
   -4.2252   -0.8944   -0.4273 C   0  0  0  0  0  0  0  0  0  0  0  0
   -5.2325   -1.3304   -0.5071 H   0  0  0  0  0  0  0  0  0  0  0  0
   -0.4826   -3.3063    0.3309 C   0  0  0  0  0  0  0  0  0  0  0  0
   -0.0481   -3.2251    1.3536 H   0  0  0  0  0  0  0  0  0  0  0  0
    0.1638   -3.9719   -0.2784 H   0  0  0  0  0  0  0  0  0  0  0  0
   -1.4723   -3.7849    0.4307 H   0  0  0  0  0  0  0  0  0  0  0  0
   -3.1006   -1.7301   -0.3737 C   0  0  0  0  0  0  0  0  0  0  0  0
   -3.2140   -2.8221   -0.4267 H   0  0  0  0  0  0  0  0  0  0  0  0
   -4.0505    0.4958   -0.3850 C   0  0  0  0  0  0  0  0  0  0  0  0
   -4.9080    1.1826   -0.4226 H   0  0  0  0  0  0  0  0  0  0  0  0
   -2.7460    1.0039   -0.2804 C   0  0  0  0  0  0  0  0  0  0  0  0
   -2.5074    2.0829   -0.2295 H   0  0  0  0  0  0  0  0  0  0  0  0
    1.8810   -2.5298    0.1253 H   0  0  0  0  0  0  0  0  0  0  0  0
    4.1297   -2.4037   -0.4824 H   0  0  0  0  0  0  0  0  0  0  0  0
    4.8178   -0.7885   -0.5310 H   0  0  0  0  0  0  0  0  0  0  0  0
  2  3  1  0  0  0  0
  2  8  2  0  0  0  0
  3 21  1  0  0  0  0
  6  8  1  1  0  0  0
  6  5  1  0  0  0  0
  7  1  1  1  0  0  0
  7  3  1  0  0  0  0
  7  4  1  0  0  0  0
  8 11  1  0  0  0  0
  9 17  1  0  0  0  0
  9 15  2  0  0  0  0
 10  9  1  0  0  0  0
 11 14  1  0  0  0  0
 11 12  1  0  0  0  0
 13 11  1  0  0  0  0
 15  6  1  0  0  0  0
 16 15  1  0  0  0  0
 17 19  2  0  0  0  0
 18 17  1  0  0  0  0
 19 20  1  0  0  0  0
 19  5  1  0  0  0  0
 22  4  1  0  0  0  0
 23  4  1  0  0  0  0
M  END
