1,2
q = -1.0

 23 23  0  0  0  0  0  0  0  0999 V2000
    1.7446   -1.2107   -2.1468 S   0  0  0  0  0  1  0  0  0  0  0  0
    1.4072    0.8422    0.0315 N   0  0  0  0  0  2  0  0  0  0  0  0
    2.6960    0.4196   -0.0852 N   0  0  0  0  0  0  0  0  0  0  0  0
    4.1995   -0.9042   -1.1834 N   0  0  0  0  0  0  0  0  0  0  0  0
   -0.2455    2.2527    1.2172 C   0  0  0  0  0  0  0  0  0  0  0  0
   -0.8578    1.4996    1.7663 H   0  0  0  0  0  0  0  0  0  0  0  0
   -0.7884    2.4568    0.2706 H   0  0  0  0  0  0  0  0  0  0  0  0
    0.0247    3.4841    2.1029 C   0  0  0  0  0  0  0  0  0  0  0  0
   -0.8469    3.7774    2.7201 H   0  0  0  0  0  0  0  0  0  0  0  0
    0.2811    4.3540    1.4605 H   0  0  0  0  0  0  0  0  0  0  0  0
    1.2544    3.0730    2.9374 C   0  0  0  0  0  0  0  0  0  0  0  0
    0.9338    2.4087    3.7688 H   0  0  0  0  0  0  0  0  0  0  0  0
    1.7821    3.9335    3.3938 H   0  0  0  0  0  0  0  0  0  0  0  0
    2.1287    2.2767    1.9484 C   0  0  0  0  0  0  0  0  0  0  0  0
    2.8347    2.9307    1.3870 H   0  0  0  0  0  0  0  0  0  0  0  0
    2.7622    1.4867    2.4014 H   0  0  0  0  0  0  0  0  0  0  0  0
    1.1352    1.6962    0.9750 C   0  0  0  0  0  3  0  0  0  0  0  0
    2.9127   -0.4810   -1.0373 C   0  0  0  0  0  0  0  0  0  0  0  0
    5.2912   -0.4071   -0.3761 C   0  0  0  0  0  0  0  0  0  0  0  0
    6.2296   -0.8963   -0.6982 H   0  0  0  0  0  0  0  0  0  0  0  0
    5.1259   -0.6159    0.7027 H   0  0  0  0  0  0  0  0  0  0  0  0
    5.4022    0.6937   -0.4767 H   0  0  0  0  0  0  0  0  0  0  0  0
    4.3705   -1.5894   -1.9169 H   0  0  0  0  0  0  0  0  0  0  0  0
  1 18  1  0  0  0  0
  2 17  1  0  0  0  0
  3  2  1  0  0  0  0
  4 18  1  0  0  0  0
  4 19  1  0  0  0  0
  5  6  1  0  0  0  0
  5  8  1  0  0  0  0
  7  5  1  0  0  0  0
  8  9  1  0  0  0  0
  8 11  1  0  0  0  0
 10  8  1  0  0  0  0
 11 13  1  0  0  0  0
 11 12  1  0  0  0  0
 14 16  1  0  0  0  0
 14 11  1  0  0  0  0
 15 14  1  0  0  0  0
 17  5  1  0  0  0  0
 17 14  1  0  0  0  0
 18  3  2  0  0  0  0
 19 21  1  0  0  0  0
 20 19  1  0  0  0  0
 22 19  1  0  0  0  0
 23  4  1  0  0  0  0
M  END
