1,3
q = -1.0

 28 29  0  0  1  0  0  0  0  0999 V2000
   -1.8230   -0.9857   -1.6840 S   0  0  0  0  0  1  0  0  0  0  0  0
   -2.7847    2.6457    1.7895 S   0  0  0  0  0  0  0  0  0  0  0  0
   -0.9643    1.3316    0.5200 N   0  0  0  0  0  2  0  0  0  0  0  0
   -3.2737    0.6806    0.0583 N   0  0  0  0  0  0  0  0  0  0  0  0
   -2.2997    1.3868    0.6398 C   0  0  2  0  0  3  0  0  0  0  0  0
   -4.3857   -0.8176   -1.3090 N   0  0  0  0  0  0  0  0  0  0  0  0
   -4.2321   -1.5375   -2.0201 H   0  0  0  0  0  0  0  0  0  0  0  0
  -10.2333    0.7242    0.6268 O   0  0  0  0  0  0  0  0  0  0  0  0
  -10.6842   -0.8249   -0.8507 O   0  0  0  0  0  0  0  0  0  0  0  0
   -0.3114    2.2591    1.3012 C   0  0  0  0  0  0  0  0  0  0  0  0
    0.7859    2.3107    1.2595 H   0  0  0  0  0  0  0  0  0  0  0  0
   -3.1992   -0.2577   -0.8595 C   0  0  0  0  0  0  0  0  0  0  0  0
   -5.7223   -0.5856   -0.9878 C   0  0  0  0  0  0  0  0  0  0  0  0
   -6.1693    0.3617   -0.0321 C   0  0  0  0  0  0  0  0  0  0  0  0
   -5.4277    0.9652    0.5004 H   0  0  0  0  0  0  0  0  0  0  0  0
   -9.9026   -0.1131   -0.2155 N   0  0  0  0  0  0  0  0  0  0  0  0
   -1.1101    3.0730    2.0711 C   0  0  0  0  0  0  0  0  0  0  0  0
   -8.4627   -0.2771   -0.4841 C   0  0  0  0  0  0  0  0  0  0  0  0
   -6.6829   -1.3701   -1.6818 C   0  0  0  0  0  0  0  0  0  0  0  0
   -6.3425   -2.1070   -2.4267 H   0  0  0  0  0  0  0  0  0  0  0  0
   -7.5356    0.5096    0.2130 C   0  0  0  0  0  0  0  0  0  0  0  0
   -7.9083    1.2358    0.9477 H   0  0  0  0  0  0  0  0  0  0  0  0
   -0.7052    4.1631    3.0084 C   0  0  0  0  0  0  0  0  0  0  0  0
    0.3980    4.2555    3.0211 H   0  0  0  0  0  0  0  0  0  0  0  0
   -1.0431    3.9635    4.0466 H   0  0  0  0  0  0  0  0  0  0  0  0
   -1.1265    5.1449    2.7076 H   0  0  0  0  0  0  0  0  0  0  0  0
   -8.0447   -1.2205   -1.4350 C   0  0  0  0  0  0  0  0  0  0  0  0
   -8.8006   -1.8175   -1.9616 H   0  0  0  0  0  0  0  0  0  0  0  0
  1 12  1  0  0  0  0
  2 17  1  0  0  0  0
  3  5  1  0  0  0  0
  3 10  1  0  0  0  0
  5  4  1  6  0  0  0
  5  2  1  0  0  0  0
  6 13  1  0  0  0  0
  6 12  1  0  0  0  0
  7  6  1  0  0  0  0
  9 16  2  0  0  0  0
 10 17  2  0  0  0  0
 11 10  1  0  0  0  0
 12  4  2  0  0  0  0
 13 14  1  0  0  0  0
 14 21  2  0  0  0  0
 14 15  1  0  0  0  0
 16  8  2  0  0  0  0
 17 23  1  0  0  0  0
 18 16  1  0  0  0  0
 18 21  1  0  0  0  0
 19 27  1  0  0  0  0
 19 13  2  0  0  0  0
 20 19  1  0  0  0  0
 21 22  1  0  0  0  0
 23 24  1  0  0  0  0
 23 25  1  0  0  0  0
 26 23  1  0  0  0  0
 27 18  2  0  0  0  0
 28 27  1  0  0  0  0
M  END
