1,6
q = -1.0

 27 27  0  0  1  0  0  0  0  0999 V2000
   -4.0012    0.1102    1.7061 S   0  0  0  0  0  1  0  0  0  0  0  0
    6.1908   -2.5926    0.0563 S   0  0  0  0  0  0  0  0  0  0  0  0
   -1.8945   -0.3418    3.4246 N   0  0  0  0  0  0  0  0  0  0  0  0
   -0.9525   -0.7497    3.4873 H   0  0  0  0  0  0  0  0  0  0  0  0
   -0.4642   -1.3907    1.4455 N   0  0  0  0  0  0  0  0  0  0  0  0
   -1.7558   -1.0553    1.1874 N   0  0  0  0  0  2  0  0  0  0  0  0
   -2.4262   -0.4672    2.1935 C   0  0  2  0  0  3  0  0  0  0  0  0
    1.6213   -2.1833    0.4917 C   0  0  0  0  0  0  0  0  0  0  0  0
    2.2291   -2.8358   -0.6102 C   0  0  0  0  0  0  0  0  0  0  0  0
    1.5928   -3.2188   -1.4236 H   0  0  0  0  0  0  0  0  0  0  0  0
    0.1866   -1.9480    0.4679 C   0  0  0  0  0  0  0  0  0  0  0  0
   -0.3479   -2.1916   -0.4726 H   0  0  0  0  0  0  0  0  0  0  0  0
    2.4631   -1.6905    1.5159 C   0  0  0  0  0  0  0  0  0  0  0  0
    2.0038   -1.1672    2.3671 H   0  0  0  0  0  0  0  0  0  0  0  0
    3.6142   -2.9698   -0.6963 C   0  0  0  0  0  0  0  0  0  0  0  0
    4.0656   -3.4662   -1.5694 H   0  0  0  0  0  0  0  0  0  0  0  0
   -2.5270    0.2730    4.5646 C   0  0  0  0  0  0  0  0  0  0  0  0
   -1.8664    1.0390    5.0228 H   0  0  0  0  0  0  0  0  0  0  0  0
   -2.7911   -0.4721    5.3464 H   0  0  0  0  0  0  0  0  0  0  0  0
   -3.4597    0.7678    4.2304 H   0  0  0  0  0  0  0  0  0  0  0  0
    3.8519   -1.8115    1.4338 C   0  0  0  0  0  0  0  0  0  0  0  0
    4.4737   -1.3868    2.2333 H   0  0  0  0  0  0  0  0  0  0  0  0
    4.4491   -2.4422    0.3180 C   0  0  0  0  0  0  0  0  0  0  0  0
    6.9109   -1.6735    1.4423 C   0  0  0  0  0  0  0  0  0  0  0  0
    6.6310   -0.6017    1.3929 H   0  0  0  0  0  0  0  0  0  0  0  0
    8.0064   -1.7599    1.3119 H   0  0  0  0  0  0  0  0  0  0  0  0
    6.6325   -2.1158    2.4191 H   0  0  0  0  0  0  0  0  0  0  0  0
  2 23  1  0  0  0  0
  2 24  1  0  0  0  0
  3  4  1  0  0  0  0
  3 17  1  0  0  0  0
  6  5  1  0  0  0  0
  6  7  1  0  0  0  0
  7  1  1  6  0  0  0
  7  3  1  0  0  0  0
  8 13  1  0  0  0  0
  9  8  2  0  0  0  0
 10  9  1  0  0  0  0
 11  8  1  0  0  0  0
 11  5  2  0  0  0  0
 12 11  1  0  0  0  0
 13 14  1  0  0  0  0
 15  9  1  0  0  0  0
 15 23  2  0  0  0  0
 16 15  1  0  0  0  0
 17 18  1  0  0  0  0
 17 19  1  0  0  0  0
 20 17  1  0  0  0  0
 21 13  2  0  0  0  0
 21 22  1  0  0  0  0
 23 21  1  0  0  0  0
 24 27  1  0  0  0  0
 25 24  1  0  0  0  0
 26 24  1  0  0  0  0
M  END
