1,7
q = 0.0, confidence = 0.998

 28 28  0  0  1  0  0  0  0  0999 V2000
   -3.0632   -0.1129   -1.0790 S   0  0  0  0  0  1  0  0  0  0  0  0
    6.2349    0.3941    0.1846 S   0  0  0  0  0  0  0  0  0  0  0  0
   -3.9986    2.3814   -0.9317 N   0  0  0  0  0  0  0  0  0  0  0  0
   -3.8441    3.3904   -0.9636 H   0  0  0  0  0  0  0  0  0  0  0  0
   -1.7292    2.1760   -0.5895 N   0  0  0  0  0  0  0  0  0  0  0  0
   -1.7259    3.1622   -0.3000 H   0  0  0  0  0  0  0  0  0  0  0  0
   -0.5433    1.5084   -0.4853 N   0  0  0  0  0  2  0  0  0  0  0  0
   -2.9236    1.5597   -0.8459 C   0  0  2  0  0  3  0  0  0  0  0  0
    0.5013    2.2505   -0.2125 C   0  0  0  0  0  3  0  0  0  0  0  0
    0.3307    3.3205    0.0361 H   0  0  0  0  0  0  0  0  0  0  0  0
    1.8727    1.7872   -0.1899 C   0  0  0  0  0  0  0  0  0  0  0  0
    2.3398    0.7413   -1.0213 C   0  0  0  0  0  0  0  0  0  0  0  0
    1.6596    0.2788   -1.7474 H   0  0  0  0  0  0  0  0  0  0  0  0
    3.6593    0.2968   -0.9437 C   0  0  0  0  0  0  0  0  0  0  0  0
    3.9795   -0.5197   -1.6039 H   0  0  0  0  0  0  0  0  0  0  0  0
    4.5609    0.8905   -0.0311 C   0  0  0  0  0  0  0  0  0  0  0  0
    4.1147    1.9741    0.7680 C   0  0  0  0  0  0  0  0  0  0  0  0
    4.8111    2.4532    1.4728 H   0  0  0  0  0  0  0  0  0  0  0  0
    2.8000    2.4199    0.6782 C   0  0  0  0  0  0  0  0  0  0  0  0
    2.4650    3.2494    1.3200 H   0  0  0  0  0  0  0  0  0  0  0  0
   -5.3506    1.8972   -1.1375 C   0  0  0  0  0  0  0  0  0  0  0  0
   -6.0584    2.7235   -0.9416 H   0  0  0  0  0  0  0  0  0  0  0  0
   -5.5596    1.0629   -0.4383 H   0  0  0  0  0  0  0  0  0  0  0  0
   -5.5060    1.5211   -2.1718 H   0  0  0  0  0  0  0  0  0  0  0  0
    6.3849   -1.0631   -0.8840 C   0  0  0  0  0  0  0  0  0  0  0  0
    7.4152   -1.4360   -0.7313 H   0  0  0  0  0  0  0  0  0  0  0  0
    6.2526   -0.8057   -1.9533 H   0  0  0  0  0  0  0  0  0  0  0  0
    5.6676   -1.8532   -0.5873 H   0  0  0  0  0  0  0  0  0  0  0  0
  3  8  1  0  0  0  0
  4  3  1  0  0  0  0
  5  7  1  0  0  0  0
  5  6  1  0  0  0  0
  7  9  1  0  0  0  0
  8  1  1  6  0  0  0
  8  5  1  0  0  0  0
  9 11  1  0  0  0  0
  9 10  1  0  0  0  0
 11 19  1  0  0  0  0
 12 14  1  0  0  0  0
 12 11  2  0  0  0  0
 13 12  1  0  0  0  0
 14 16  2  0  0  0  0
 15 14  1  0  0  0  0
 16  2  1  0  0  0  0
 16 17  1  0  0  0  0
 17 18  1  0  0  0  0
 19 17  2  0  0  0  0
 19 20  1  0  0  0  0
 21 22  1  0  0  0  0
 21  3  1  0  0  0  0
 21 23  1  0  0  0  0
 24 21  1  0  0  0  0
 25 26  1  0  0  0  0
 25 28  1  0  0  0  0
 25  2  1  0  0  0  0
 27 25  1  0  0  0  0
M  END
