1,2
q = 0.0, confidence = 0.996

 28 29  0  0  1  0  0  0  0  0999 V2000
    0.7057   -0.6644   -1.8832 S   0  0  0  0  0  0  0  0  0  0  0  0
    2.3733   -1.4995    0.4406 N   0  0  0  0  0  2  0  0  0  0  0  0
    3.1414   -1.2639    1.5345 C   0  0  1  0  0  3  0  0  0  0  0  0
    4.5401   -1.4310    1.4613 C   0  0  0  0  0  0  0  0  0  0  0  0
    5.1458   -1.2473    2.3599 H   0  0  0  0  0  0  0  0  0  0  0  0
    5.1394   -1.8041    0.2557 C   0  0  0  0  0  0  0  0  0  0  0  0
    6.2306   -1.9290    0.1891 H   0  0  0  0  0  0  0  0  0  0  0  0
    4.3329   -1.9910   -0.8750 C   0  0  0  0  0  0  0  0  0  0  0  0
    4.7660   -2.2514   -1.8509 H   0  0  0  0  0  0  0  0  0  0  0  0
    2.9471   -1.8332   -0.7443 C   0  0  0  0  0  0  0  0  0  0  0  0
    2.0224   -1.9750   -1.9235 C   0  0  0  0  0  0  0  0  0  0  0  0
    1.4357   -2.9173   -1.8862 H   0  0  0  0  0  0  0  0  0  0  0  0
    2.5686   -1.9278   -2.8857 H   0  0  0  0  0  0  0  0  0  0  0  0
    2.4673   -0.7997    2.7864 C   0  0  0  0  0  0  0  0  0  0  0  0
    1.9175    0.1478    2.6015 H   0  0  0  0  0  0  0  0  0  0  0  0
    3.1988   -0.6437    3.6002 H   0  0  0  0  0  0  0  0  0  0  0  0
    1.6944   -1.5359    3.0942 H   0  0  0  0  0  0  0  0  0  0  0  0
    1.7593    0.8013   -1.8957 C   0  0  0  0  0  0  0  0  0  0  0  0
    1.9624    1.5658   -0.7359 C   0  0  0  0  0  0  0  0  0  0  0  0
    1.4978    1.2657    0.2150 H   0  0  0  0  0  0  0  0  0  0  0  0
    2.7269    2.7402   -0.8142 C   0  0  0  0  0  0  0  0  0  0  0  0
    2.8631    3.3534    0.0880 H   0  0  0  0  0  0  0  0  0  0  0  0
    3.2986    3.1361   -2.0330 C   0  0  0  0  0  0  0  0  0  0  0  0
    3.8977    4.0574   -2.0870 H   0  0  0  0  0  0  0  0  0  0  0  0
    3.0935    2.3639   -3.1890 C   0  0  0  0  0  0  0  0  0  0  0  0
    3.5298    2.6774   -4.1495 H   0  0  0  0  0  0  0  0  0  0  0  0
    2.3114    1.2015   -3.1273 C   0  0  0  0  0  0  0  0  0  0  0  0
    2.1189    0.6098   -4.0357 H   0  0  0  0  0  0  0  0  0  0  0  0
  2  3  1  0  0  0  0
  3 14  1  6  0  0  0
  4  3  1  0  0  0  0
  4  5  1  0  0  0  0
  6  4  2  0  0  0  0
  7  6  1  0  0  0  0
  8 10  2  0  0  0  0
  8  6  1  0  0  0  0
  9  8  1  0  0  0  0
 10  2  1  0  0  0  0
 11 12  1  0  0  0  0
 11  1  1  0  0  0  0
 11 10  1  0  0  0  0
 13 11  1  0  0  0  0
 14 17  1  0  0  0  0
 14 16  1  0  0  0  0
 15 14  1  0  0  0  0
 18  1  1  0  0  0  0
 18 19  1  0  0  0  0
 19 20  1  0  0  0  0
 21 19  2  0  0  0  0
 21 22  1  0  0  0  0
 23 21  1  0  0  0  0
 24 23  1  0  0  0  0
 25 27  1  0  0  0  0
 25 23  2  0  0  0  0
 26 25  1  0  0  0  0
 27 18  2  0  0  0  0
 28 27  1  0  0  0  0
M  END
