1,2
q = -1.0

 27 26  0  0  0  0  0  0  0  0999 V2000
   -0.6875    1.7431   -1.2112 S   0  0  0  0  0  1  0  0  0  0  0  0
    1.7407    0.7358   -0.0655 N   0  0  0  0  0  2  0  0  0  0  0  0
    4.0420    0.5442    0.4470 N   0  0  0  0  0  0  0  0  0  0  0  0
    3.0114   -1.0563   -0.9265 N   0  0  0  0  0  0  0  0  0  0  0  0
    2.8899    0.0875   -0.1757 C   0  0  0  0  0  3  0  0  0  0  0  0
    3.9791    1.1082    1.7815 C   0  0  0  0  0  0  0  0  0  0  0  0
    4.1674    2.2064    1.7958 H   0  0  0  0  0  0  0  0  0  0  0  0
    4.7406    0.6246    2.4335 H   0  0  0  0  0  0  0  0  0  0  0  0
    2.9784    0.9151    2.2108 H   0  0  0  0  0  0  0  0  0  0  0  0
    5.3455    0.4835   -0.1818 C   0  0  0  0  0  0  0  0  0  0  0  0
    5.2366    0.1103   -1.2165 H   0  0  0  0  0  0  0  0  0  0  0  0
    6.0476   -0.1899    0.3622 H   0  0  0  0  0  0  0  0  0  0  0  0
    5.8099    1.4953   -0.2171 H   0  0  0  0  0  0  0  0  0  0  0  0
    3.7264   -2.2175   -0.4178 C   0  0  0  0  0  0  0  0  0  0  0  0
    4.3570   -1.9315    0.4425 H   0  0  0  0  0  0  0  0  0  0  0  0
    4.3691   -2.6640   -1.2066 H   0  0  0  0  0  0  0  0  0  0  0  0
    2.9868   -2.9699   -0.0603 H   0  0  0  0  0  0  0  0  0  0  0  0
    2.0613   -1.3496   -1.9852 C   0  0  0  0  0  0  0  0  0  0  0  0
    1.2753   -2.0472   -1.6198 H   0  0  0  0  0  0  0  0  0  0  0  0
    2.6015   -1.8140   -2.8392 H   0  0  0  0  0  0  0  0  0  0  0  0
    1.5608   -0.4204   -2.3128 H   0  0  0  0  0  0  0  0  0  0  0  0
    1.7279    2.2012   -0.0029 C   0  0  0  0  0  0  0  0  0  0  0  0
    2.7615    2.6132   -0.0556 H   0  0  0  0  0  0  0  0  0  0  0  0
    1.2725    2.5387    0.9544 H   0  0  0  0  0  0  0  0  0  0  0  0
    0.8836    2.6981   -1.1744 C   0  0  0  0  0  0  0  0  0  0  0  0
    1.4458    2.5502   -2.1228 H   0  0  0  0  0  0  0  0  0  0  0  0
    0.6657    3.7820   -1.0750 H   0  0  0  0  0  0  0  0  0  0  0  0
  1 25  1  0  0  0  0
  2 22  1  0  0  0  0
  3  6  1  0  0  0  0
  4 14  1  0  0  0  0
  4  5  1  0  0  0  0
  5  2  1  0  0  0  0
  5  3  1  0  0  0  0
  6  7  1  0  0  0  0
  6  9  1  0  0  0  0
  6  8  1  0  0  0  0
 10 12  1  0  0  0  0
 10  3  1  0  0  0  0
 11 10  1  0  0  0  0
 13 10  1  0  0  0  0
 14 17  1  0  0  0  0
 14 15  1  0  0  0  0
 16 14  1  0  0  0  0
 18 19  1  0  0  0  0
 18  4  1  0  0  0  0
 20 18  1  0  0  0  0
 21 18  1  0  0  0  0
 22 24  1  0  0  0  0
 23 22  1  0  0  0  0
 25 27  1  0  0  0  0
 25 22  1  0  0  0  0
 26 25  1  0  0  0  0
M  END
