1,4
q = -1.0

 29 28  0  0  0  0  0  0  0  0999 V2000
    0.6428   -1.8021   -0.3396 S   0  0  0  0  0  5  0  0  0  0  0  0
    1.8708   -1.9722   -1.2119 O   0  0  0  0  0  0  0  0  0  0  0  0
    0.6431   -2.5884    0.9654 O   0  0  0  0  0  0  0  0  0  0  0  0
   -1.8036   -0.5422   -0.4627 N   0  0  0  0  0  2  0  0  0  0  0  0
   -4.1282   -0.1350   -0.5830 N   0  0  0  0  0  0  0  0  0  0  0  0
   -2.9814    0.1015    1.4601 N   0  0  0  0  0  0  0  0  0  0  0  0
   -2.9404   -0.2011    0.1218 C   0  0  0  0  0  3  0  0  0  0  0  0
   -5.3947   -0.5565   -0.0191 C   0  0  0  0  0  0  0  0  0  0  0  0
   -5.2198   -1.0383    0.9603 H   0  0  0  0  0  0  0  0  0  0  0  0
   -5.8926   -1.2905   -0.6916 H   0  0  0  0  0  0  0  0  0  0  0  0
   -6.0988    0.2950    0.1284 H   0  0  0  0  0  0  0  0  0  0  0  0
   -4.1500    0.4473   -1.9141 C   0  0  0  0  0  0  0  0  0  0  0  0
   -3.1803    0.9436   -2.1097 H   0  0  0  0  0  0  0  0  0  0  0  0
   -4.9486    1.2197   -1.9712 H   0  0  0  0  0  0  0  0  0  0  0  0
   -4.3464   -0.3051   -2.7114 H   0  0  0  0  0  0  0  0  0  0  0  0
   -1.9055   -0.3373    2.3360 C   0  0  0  0  0  0  0  0  0  0  0  0
   -1.1335    0.4578    2.4346 H   0  0  0  0  0  0  0  0  0  0  0  0
   -1.4159   -1.2410    1.9274 H   0  0  0  0  0  0  0  0  0  0  0  0
   -2.3255   -0.5578    3.3405 H   0  0  0  0  0  0  0  0  0  0  0  0
   -3.6978    1.2802    1.9304 C   0  0  0  0  0  0  0  0  0  0  0  0
   -4.4572    1.5911    1.1920 H   0  0  0  0  0  0  0  0  0  0  0  0
   -2.9796    2.1236    2.0510 H   0  0  0  0  0  0  0  0  0  0  0  0
   -4.1980    1.0723    2.8992 H   0  0  0  0  0  0  0  0  0  0  0  0
   -1.7696   -1.4486   -1.6119 C   0  0  0  0  0  0  0  0  0  0  0  0
   -1.4599   -0.8905   -2.5224 H   0  0  0  0  0  0  0  0  0  0  0  0
   -2.7779   -1.8728   -1.8086 H   0  0  0  0  0  0  0  0  0  0  0  0
   -0.7772   -2.5671   -1.3097 C   0  0  0  0  0  0  0  0  0  0  0  0
   -0.3364   -3.0330   -2.2104 H   0  0  0  0  0  0  0  0  0  0  0  0
   -1.1942   -3.3361   -0.6327 H   0  0  0  0  0  0  0  0  0  0  0  0
  1  3  2  0  0  0  0
  2  1  2  0  0  0  0
  4  7  1  0  0  0  0
  5  8  1  0  0  0  0
  5  7  1  0  0  0  0
  6 20  1  0  0  0  0
  6 16  1  0  0  0  0
  7  6  1  0  0  0  0
  8 11  1  0  0  0  0
  8  9  1  0  0  0  0
 10  8  1  0  0  0  0
 12  5  1  0  0  0  0
 13 12  1  0  0  0  0
 14 12  1  0  0  0  0
 15 12  1  0  0  0  0
 16 17  1  0  0  0  0
 16 19  1  0  0  0  0
 18 16  1  0  0  0  0
 20 22  1  0  0  0  0
 20 23  1  0  0  0  0
 21 20  1  0  0  0  0
 24 27  1  0  0  0  0
 24  4  1  0  0  0  0
 25 24  1  0  0  0  0
 26 24  1  0  0  0  0
 27 29  1  0  0  0  0
 27  1  1  0  0  0  0
 28 27  1  0  0  0  0
M  END
