1,2
q = -1.0, confidence = 0.0

 34 36  0  0  1  0  0  0  0  0999 V2000
    0.3695    1.9914   -0.8756 S   0  0  0  0  0  1  0  0  0  0  0  0
    1.9055   -0.1488    0.0534 N   0  0  0  0  0  2  0  0  0  0  0  0
    2.6892    0.9771    0.0628 N   0  0  0  0  0  2  0  0  0  0  0  0
    6.2038   -1.3827   -0.2909 N   0  0  0  0  0  0  0  0  0  0  0  0
    7.1291   -0.9679   -0.3912 H   0  0  0  0  0  0  0  0  0  0  0  0
    2.6635    3.2698   -0.4460 N   0  0  0  0  0  0  0  0  0  0  0  0
    2.0808    3.9887   -0.8781 H   0  0  0  0  0  0  0  0  0  0  0  0
    2.5458   -1.3042   -0.0001 C   0  0  0  0  0  3  0  0  0  0  0  0
    1.8890   -2.1864    0.0065 H   0  0  0  0  0  0  0  0  0  0  0  0
    3.9559   -1.5520   -0.0833 C   0  0  0  0  0  0  0  0  0  0  0  0
    5.0372   -0.6660   -0.2117 C   0  0  0  0  0  0  0  0  0  0  0  0
    5.0243    0.4256   -0.2595 H   0  0  0  0  0  0  0  0  0  0  0  0
    5.9451   -2.7437   -0.2153 C   0  0  0  0  0  0  0  0  0  0  0  0
    4.5304   -2.8924   -0.0832 C   0  0  0  0  0  0  0  0  0  0  0  0
    6.8197   -3.8418   -0.2502 C   0  0  0  0  0  0  0  0  0  0  0  0
    7.9069   -3.7065   -0.3524 H   0  0  0  0  0  0  0  0  0  0  0  0
    6.2529   -5.1178   -0.1503 C   0  0  0  0  0  0  0  0  0  0  0  0
    6.9069   -6.0023   -0.1747 H   0  0  0  0  0  0  0  0  0  0  0  0
    4.8539   -5.2890   -0.0175 C   0  0  0  0  0  0  0  0  0  0  0  0
    4.4423   -6.3064    0.0607 H   0  0  0  0  0  0  0  0  0  0  0  0
    3.9884   -4.1899    0.0179 C   0  0  0  0  0  0  0  0  0  0  0  0
    2.9032   -4.3375    0.1270 H   0  0  0  0  0  0  0  0  0  0  0  0
    2.0423    2.0463   -0.3475 C   0  0  1  0  0  3  0  0  0  0  0  0
    3.9578    3.6702   -0.0915 C   0  0  0  0  0  0  0  0  0  0  0  0
    4.4287    4.9038   -0.6005 C   0  0  0  0  0  0  0  0  0  0  0  0
    3.7828    5.4945   -1.2699 H   0  0  0  0  0  0  0  0  0  0  0  0
    5.7041    5.3709   -0.2656 C   0  0  0  0  0  0  0  0  0  0  0  0
    6.0503    6.3323   -0.6746 H   0  0  0  0  0  0  0  0  0  0  0  0
    6.5389    4.6203    0.5791 C   0  0  0  0  0  0  0  0  0  0  0  0
    7.5429    4.9867    0.8389 H   0  0  0  0  0  0  0  0  0  0  0  0
    6.0684    3.4015    1.0930 C   0  0  0  0  0  0  0  0  0  0  0  0
    6.7024    2.8101    1.7719 H   0  0  0  0  0  0  0  0  0  0  0  0
    4.7912    2.9215    0.7712 C   0  0  0  0  0  0  0  0  0  0  0  0
    4.4132    1.9792    1.1858 H   0  0  0  0  0  0  0  0  0  0  0  0
  2  3  1  0  0  0  0
  4 13  1  0  0  0  0
  4 11  1  0  0  0  0
  5  4  1  0  0  0  0
  6 23  1  0  0  0  0
  6 24  1  0  0  0  0
  7  6  1  0  0  0  0
  8  9  1  0  0  0  0
  8  2  1  0  0  0  0
 10 14  1  0  0  0  0
 10  8  1  0  0  0  0
 11 10  2  0  0  0  0
 12 11  1  0  0  0  0
 13 14  1  0  0  0  0
 14 21  2  0  0  0  0
 15 13  2  0  0  0  0
 15 17  1  0  0  0  0
 16 15  1  0  0  0  0
 17 19  2  0  0  0  0
 18 17  1  0  0  0  0
 19 21  1  0  0  0  0
 19 20  1  0  0  0  0
 21 22  1  0  0  0  0
 23  1  1  6  0  0  0
 23  3  1  0  0  0  0
 24 33  1  0  0  0  0
 25 27  1  0  0  0  0
 25 24  2  0  0  0  0
 26 25  1  0  0  0  0
 27 29  2  0  0  0  0
 28 27  1  0  0  0  0
 29 30  1  0  0  0  0
 29 31  1  0  0  0  0
 31 32  1  0  0  0  0
 33 31  2  0  0  0  0
 33 34  1  0  0  0  0
M  END
