1,3
q = 0.0, confidence = 1.0

 45 47  0  0  1  0  0  0  0  0999 V2000
   -0.8354   -2.2311    0.4199 S   0  0  0  0  0  0  0  0  0  0  0  0
    1.1234    4.0575    0.2738 S   0  0  0  0  0  0  0  0  0  0  0  0
   -0.8569    0.7516    1.2042 N   0  0  0  0  0  2  0  0  0  0  0  0
   -0.9089   -0.1081    2.2571 C   0  0  1  0  0  3  0  0  0  0  0  0
   -0.6278    0.3027    3.5696 C   0  0  0  0  0  0  0  0  0  0  0  0
   -0.2827    1.6373    3.8112 C   0  0  0  0  0  0  0  0  0  0  0  0
   -0.1958    2.5064    2.7243 C   0  0  0  0  0  0  0  0  0  0  0  0
   -0.4803    2.0355    1.4271 C   0  0  0  0  0  0  0  0  0  0  0  0
   -0.3685    2.9785    0.2541 C   0  0  0  0  0  0  0  0  0  0  0  0
    2.3510    2.8584   -0.2398 C   0  0  0  0  0  0  0  0  0  0  0  0
    2.7622    2.8282   -1.5849 C   0  0  0  0  0  0  0  0  0  0  0  0
    3.6922    1.8726   -2.0152 C   0  0  0  0  0  0  0  0  0  0  0  0
    4.2287    0.9232   -1.1229 C   0  0  0  0  0  0  0  0  0  0  0  0
    5.1753   -0.1457   -1.6029 C   0  0  0  0  0  0  0  0  0  0  0  0
    3.8235    0.9792    0.2271 C   0  0  0  0  0  0  0  0  0  0  0  0
    2.9019    1.9360    0.6711 C   0  0  0  0  0  0  0  0  0  0  0  0
   -1.3345   -1.5322    2.0206 C   0  0  0  0  0  0  0  0  0  0  0  0
    0.9413   -2.3968    0.5474 C   0  0  0  0  0  0  0  0  0  0  0  0
    1.7052   -2.0123    1.6637 C   0  0  0  0  0  0  0  0  0  0  0  0
    3.0884   -2.2409    1.6728 C   0  0  0  0  0  0  0  0  0  0  0  0
    3.7481   -2.8410    0.5825 C   0  0  0  0  0  0  0  0  0  0  0  0
    5.2295   -3.1155    0.6257 C   0  0  0  0  0  0  0  0  0  0  0  0
    2.9669   -3.2014   -0.5353 C   0  0  0  0  0  0  0  0  0  0  0  0
    1.5834   -2.9912   -0.5572 C   0  0  0  0  0  0  0  0  0  0  0  0
   -0.6861   -0.4283    4.3890 H   0  0  0  0  0  0  0  0  0  0  0  0
   -0.0703    1.9877    4.8324 H   0  0  0  0  0  0  0  0  0  0  0  0
    0.1246    3.5510    2.8430 H   0  0  0  0  0  0  0  0  0  0  0  0
   -0.3895    2.4166   -0.6924 H   0  0  0  0  0  0  0  0  0  0  0  0
   -1.2279    3.6809    0.2458 H   0  0  0  0  0  0  0  0  0  0  0  0
    2.3336    3.5520   -2.2938 H   0  0  0  0  0  0  0  0  0  0  0  0
    3.9991    1.8546   -3.0729 H   0  0  0  0  0  0  0  0  0  0  0  0
    5.9423   -0.3872   -0.8409 H   0  0  0  0  0  0  0  0  0  0  0  0
    5.6915    0.1514   -2.5364 H   0  0  0  0  0  0  0  0  0  0  0  0
    4.6194   -1.0850   -1.8114 H   0  0  0  0  0  0  0  0  0  0  0  0
    4.2337    0.2519    0.9437 H   0  0  0  0  0  0  0  0  0  0  0  0
    2.5964    1.9663    1.7273 H   0  0  0  0  0  0  0  0  0  0  0  0
   -1.0267   -2.2005    2.8474 H   0  0  0  0  0  0  0  0  0  0  0  0
   -2.4482   -1.5487    1.9103 H   0  0  0  0  0  0  0  0  0  0  0  0
    1.2362   -1.5298    2.5307 H   0  0  0  0  0  0  0  0  0  0  0  0
    3.6708   -1.9409    2.5588 H   0  0  0  0  0  0  0  0  0  0  0  0
    5.6584   -3.2120   -0.3905 H   0  0  0  0  0  0  0  0  0  0  0  0
    5.4432   -4.0636    1.1646 H   0  0  0  0  0  0  0  0  0  0  0  0
    5.7790   -2.3124    1.1565 H   0  0  0  0  0  0  0  0  0  0  0  0
    3.4517   -3.6688   -1.4070 H   0  0  0  0  0  0  0  0  0  0  0  0
    0.9933   -3.2961   -1.4351 H   0  0  0  0  0  0  0  0  0  0  0  0
  1 18  1  0  0  0  0
  1 17  1  0  0  0  0
  3  8  1  0  0  0  0
  3  4  1  0  0  0  0
  4 17  1  1  0  0  0
  4  5  1  0  0  0  0
  5  6  2  0  0  0  0
  5 25  1  0  0  0  0
  6 26  1  0  0  0  0
  7 27  1  0  0  0  0
  7  6  1  0  0  0  0
  8  7  2  0  0  0  0
  9  2  1  0  0  0  0
  9  8  1  0  0  0  0
 10  2  1  0  0  0  0
 10 16  1  0  0  0  0
 11 10  2  0  0  0  0
 12 11  1  0  0  0  0
 12 13  2  0  0  0  0
 13 15  1  0  0  0  0
 14 13  1  0  0  0  0
 14 32  1  0  0  0  0
 15 16  2  0  0  0  0
 15 35  1  0  0  0  0
 16 36  1  0  0  0  0
 17 37  1  0  0  0  0
 18 19  1  0  0  0  0
 19 20  2  0  0  0  0
 19 39  1  0  0  0  0
 20 40  1  0  0  0  0
 21 22  1  0  0  0  0
 21 20  1  0  0  0  0
 22 43  1  0  0  0  0
 22 42  1  0  0  0  0
 23 21  2  0  0  0  0
 24 23  1  0  0  0  0
 24 18  2  0  0  0  0
 28  9  1  0  0  0  0
 29  9  1  0  0  0  0
 30 11  1  0  0  0  0
 31 12  1  0  0  0  0
 33 14  1  0  0  0  0
 34 14  1  0  0  0  0
 38 17  1  0  0  0  0
 41 22  1  0  0  0  0
 44 23  1  0  0  0  0
 45 24  1  0  0  0  0
M  END
