1,4
q = -1.0

 34 36  0  0  0  0  0  0  0  0999 V2000
    1.8818   -1.5687    0.4084 S   0  0  0  0  0  1  0  0  0  0  0  0
    4.4078   -0.9662   -0.4750 N   0  0  0  0  0  0  0  0  0  0  0  0
    5.1504   -0.1100   -1.2715 N   0  0  0  0  0  0  0  0  0  0  0  0
    0.7288    1.1412   -1.3062 N   0  0  0  0  0  2  0  0  0  0  0  0
    1.9550    1.3487   -1.6366 N   0  0  0  0  0  2  0  0  0  0  0  0
    6.1666   -2.6391   -0.5840 C   0  0  0  0  0  0  0  0  0  0  0  0
    6.8781   -3.7025   -0.0164 C   0  0  0  0  0  0  0  0  0  0  0  0
    6.5347   -4.1897    1.2555 C   0  0  0  0  0  0  0  0  0  0  0  0
    5.4801   -3.5937    1.9636 C   0  0  0  0  0  0  0  0  0  0  0  0
    4.7618   -2.5239    1.4109 C   0  0  0  0  0  0  0  0  0  0  0  0
    5.0990   -2.0558    0.1269 C   0  0  0  0  0  0  0  0  0  0  0  0
    6.4266   -2.2350   -1.5711 H   0  0  0  0  0  0  0  0  0  0  0  0
    7.7089   -4.1570   -0.5770 H   0  0  0  0  0  0  0  0  0  0  0  0
    7.0930   -5.0290    1.6965 H   0  0  0  0  0  0  0  0  0  0  0  0
    5.2134   -3.9568    2.9676 H   0  0  0  0  0  0  0  0  0  0  0  0
    3.9479   -2.0513    1.9745 H   0  0  0  0  0  0  0  0  0  0  0  0
    0.2552    3.5065   -1.8645 C   0  0  0  0  0  0  0  0  0  0  0  0
   -0.6853    4.5010   -2.1508 C   0  0  0  0  0  0  0  0  0  0  0  0
   -2.0529    4.1850   -2.2485 C   0  0  0  0  0  0  0  0  0  0  0  0
   -2.4763    2.8590   -2.0614 C   0  0  0  0  0  0  0  0  0  0  0  0
   -1.5432    1.8559   -1.7720 C   0  0  0  0  0  0  0  0  0  0  0  0
   -0.1727    2.1747   -1.6731 C   0  0  0  0  0  0  0  0  0  0  0  0
    1.3243    3.7344   -1.7582 H   0  0  0  0  0  0  0  0  0  0  0  0
   -0.3512    5.5414   -2.2840 H   0  0  0  0  0  0  0  0  0  0  0  0
   -2.7880    4.9748   -2.4646 H   0  0  0  0  0  0  0  0  0  0  0  0
   -3.5427    2.5995   -2.1407 H   0  0  0  0  0  0  0  0  0  0  0  0
   -1.8648    0.8118   -1.6336 H   0  0  0  0  0  0  0  0  0  0  0  0
    4.7362    1.9079   -2.6208 C   0  0  0  0  0  0  0  0  0  0  0  0
    4.5258    2.8882   -2.1468 H   0  0  0  0  0  0  0  0  0  0  0  0
    4.1764    1.8917   -3.5773 H   0  0  0  0  0  0  0  0  0  0  0  0
    5.8193    1.8307   -2.8279 H   0  0  0  0  0  0  0  0  0  0  0  0
    3.0705   -0.6472   -0.4354 C   0  0  0  0  0  0  0  0  0  0  0  0
    2.9605    0.5332   -1.2635 C   0  0  0  0  0  0  0  0  0  0  0  0
    4.3061    0.7894   -1.7341 C   0  0  0  0  0  0  0  0  0  0  0  0
  2 32  1  0  0  0  0
  2 11  1  0  0  0  0
  3  2  1  0  0  0  0
  5  4  1  0  0  0  0
  5 33  1  0  0  0  0
  6  7  2  0  0  0  0
  6 11  1  0  0  0  0
  7  8  1  0  0  0  0
  8 14  1  0  0  0  0
  8  9  2  0  0  0  0
  9 15  1  0  0  0  0
 10  9  1  0  0  0  0
 10 16  1  0  0  0  0
 11 10  2  0  0  0  0
 12  6  1  0  0  0  0
 13  7  1  0  0  0  0
 17 23  1  0  0  0  0
 17 22  1  0  0  0  0
 18 17  2  0  0  0  0
 19 18  1  0  0  0  0
 19 20  2  0  0  0  0
 20 21  1  0  0  0  0
 21 22  2  0  0  0  0
 21 27  1  0  0  0  0
 22  4  1  0  0  0  0
 24 18  1  0  0  0  0
 25 19  1  0  0  0  0
 26 20  1  0  0  0  0
 28 29  1  0  0  0  0
 28 34  1  0  0  0  0
 30 28  1  0  0  0  0
 31 28  1  0  0  0  0
 32  1  1  0  0  0  0
 33 32  2  0  0  0  0
 34  3  2  0  0  0  0
 34 33  1  0  0  0  0
M  END
