1,2
q = -1.0

 33 34  0  0  1  0  0  0  0  0999 V2000
    1.2058   -1.9963   -0.0411 S   0  0  0  0  0  1  0  0  0  0  0  0
    1.8523    0.8961   -0.0513 N   0  0  0  0  0  2  0  0  0  0  0  0
    2.8138   -1.3222   -0.0331 C   0  0  0  0  0  0  0  0  0  0  0  0
    1.9852    2.2299   -0.0612 C   0  0  0  0  0  0  0  0  0  0  0  0
    2.9836    0.0986   -0.0410 C   0  0  2  0  0  3  0  0  0  0  0  0
    3.9672   -2.1185   -0.0197 C   0  0  0  0  0  0  0  0  0  0  0  0
    3.2403    2.8697   -0.0581 C   0  0  0  0  0  0  0  0  0  0  0  0
    1.0592    2.8225   -0.0709 H   0  0  0  0  0  0  0  0  0  0  0  0
    4.3031    0.6850   -0.0378 C   0  0  0  0  0  0  0  0  0  0  0  0
    5.2600   -1.5575   -0.0165 C   0  0  0  0  0  0  0  0  0  0  0  0
    3.8547   -3.2130   -0.0127 H   0  0  0  0  0  0  0  0  0  0  0  0
    4.3940    2.1017   -0.0452 C   0  0  0  0  0  0  0  0  0  0  0  0
    3.2799    3.9677   -0.0644 H   0  0  0  0  0  0  0  0  0  0  0  0
    5.4564   -0.1740   -0.0264 C   0  0  0  0  0  0  0  0  0  0  0  0
    6.1234   -2.2365   -0.0075 H   0  0  0  0  0  0  0  0  0  0  0  0
    5.3844    2.5814   -0.0394 H   0  0  0  0  0  0  0  0  0  0  0  0
    7.0577    0.6004   -0.0290 S   0  0  0  0  0  0  0  0  0  0  0  0
    8.2196   -0.7856    0.0536 C   0  0  0  0  0  0  0  0  0  0  0  0
   10.0222   -0.1297    0.0966 Si  0  0  0  0  0  0  0  0  0  0  0  0
    8.0963   -1.4469   -0.8316 H   0  0  0  0  0  0  0  0  0  0  0  0
    8.0323   -1.3898    0.9679 H   0  0  0  0  0  0  0  0  0  0  0  0
   10.3464    0.8516   -1.4842 C   0  0  0  0  0  0  0  0  0  0  0  0
   11.1531   -1.6419    0.1928 C   0  0  0  0  0  0  0  0  0  0  0  0
   10.2323    0.9630    1.6226 C   0  0  0  0  0  0  0  0  0  0  0  0
   10.2272    0.2104   -2.3816 H   0  0  0  0  0  0  0  0  0  0  0  0
    9.6346    1.6968   -1.5768 H   0  0  0  0  0  0  0  0  0  0  0  0
   11.3758    1.2650   -1.4943 H   0  0  0  0  0  0  0  0  0  0  0  0
   12.2179   -1.3311    0.2202 H   0  0  0  0  0  0  0  0  0  0  0  0
   10.9524   -2.2384    1.1063 H   0  0  0  0  0  0  0  0  0  0  0  0
   11.0177   -2.3047   -0.6863 H   0  0  0  0  0  0  0  0  0  0  0  0
   10.0441    0.3878    2.5523 H   0  0  0  0  0  0  0  0  0  0  0  0
   11.2599    1.3772    1.6794 H   0  0  0  0  0  0  0  0  0  0  0  0
    9.5190    1.8117    1.6012 H   0  0  0  0  0  0  0  0  0  0  0  0
  1  3  1  0  0  0  0
  3  6  2  0  0  0  0
  4  7  2  0  0  0  0
  4  2  1  0  0  0  0
  5  2  1  1  0  0  0
  5  9  1  0  0  0  0
  5  3  1  0  0  0  0
  6 10  1  0  0  0  0
  6 11  1  0  0  0  0
  7 12  1  0  0  0  0
  8  4  1  0  0  0  0
  9 14  1  0  0  0  0
 10 15  1  0  0  0  0
 12 16  1  0  0  0  0
 12  9  2  0  0  0  0
 13  7  1  0  0  0  0
 14 10  2  0  0  0  0
 17 14  1  0  0  0  0
 17 18  1  0  0  0  0
 18 19  1  0  0  0  0
 18 21  1  0  0  0  0
 19 23  1  0  0  0  0
 19 24  1  0  0  0  0
 20 18  1  0  0  0  0
 22 19  1  0  0  0  0
 23 28  1  0  0  0  0
 23 29  1  0  0  0  0
 24 32  1  0  0  0  0
 24 31  1  0  0  0  0
 25 22  1  0  0  0  0
 26 22  1  0  0  0  0
 27 22  1  0  0  0  0
 30 23  1  0  0  0  0
 33 24  1  0  0  0  0
M  END
