1,8
q = -1.0, confidence = 0.004

 21 20  0  0  1  0  0  0  0  0999 V2000
    1.1841    2.4146   -1.8150 S   0  0  0  0  0  1  0  0  0  0  0  0
    2.3033    0.9648   -1.7136 C   0  0  0  0  0  0  0  0  0  0  0  0
    3.2006    1.1660   -2.3345 H   0  0  0  0  0  0  0  0  0  0  0  0
    1.8298    0.0469   -2.1298 H   0  0  0  0  0  0  0  0  0  0  0  0
    2.7601    0.6582   -0.2672 C   0  0  2  0  0  0  0  0  0  0  0  0
    3.2811    1.5597    0.1181 H   0  0  0  0  0  0  0  0  0  0  0  0
    3.6886   -0.5645   -0.2577 C   0  0  0  0  0  0  0  0  0  0  0  0
    1.5924    0.3846    0.5874 N   0  0  0  0  0  0  0  0  0  0  0  0
    1.4241   -0.6367    0.5285 H   0  0  0  0  0  0  0  0  0  0  0  0
    1.8030    0.5729    1.5765 H   0  0  0  0  0  0  0  0  0  0  0  0
    7.7579   -1.7935    0.7612 O   0  0  0  0  0  0  0  0  0  0  0  0
    3.2445   -1.6919    0.0232 O   0  0  0  0  0  0  0  0  0  0  0  0
    4.9708   -0.3533   -0.6436 N   0  0  0  0  0  0  0  0  0  0  0  0
    5.2916    0.6077   -0.7720 H   0  0  0  0  0  0  0  0  0  0  0  0
    5.6587   -2.5056    1.3612 N   0  0  0  0  0  0  0  0  0  0  0  0
    4.6655   -2.5530    1.0975 H   0  0  0  0  0  0  0  0  0  0  0  0
    5.9814   -2.8249    2.2752 H   0  0  0  0  0  0  0  0  0  0  0  0
    5.9344   -1.4352   -0.8063 C   0  0  0  0  0  0  0  0  0  0  0  0
    6.7639   -1.0886   -1.4470 H   0  0  0  0  0  0  0  0  0  0  0  0
    5.4180   -2.2844   -1.3011 H   0  0  0  0  0  0  0  0  0  0  0  0
    6.5626   -1.9239    0.5232 C   0  0  0  0  0  0  0  0  0  0  0  0
  1  2  1  0  0  0  0
  2  5  1  0  0  0  0
  3  2  1  0  0  0  0
  4  2  1  0  0  0  0
  5  7  1  0  0  0  0
  5  6  1  1  0  0  0
  5  8  1  0  0  0  0
  7 12  2  0  0  0  0
  8 10  1  0  0  0  0
  9  8  1  0  0  0  0
 13  7  1  0  0  0  0
 14 13  1  0  0  0  0
 15 17  1  0  0  0  0
 16 15  1  0  0  0  0
 18 13  1  0  0  0  0
 18 21  1  0  0  0  0
 19 18  1  0  0  0  0
 20 18  1  0  0  0  0
 21 11  2  0  0  0  0
 21 15  1  0  0  0  0
M  END
