19,20
q = -1.0, confidence = 0.002

 33 35  0  0  1  0  0  0  0  0999 V2000
    7.6242   -1.9724    0.7553 Br  0  0  0  0  0  0  0  0  0  0  0  0
   -0.0005   -0.9545    1.5466 O   0  0  0  0  0  0  0  0  0  0  0  0
    1.7503   -2.3429    2.2712 N   0  0  0  0  0  0  0  0  0  0  0  0
    1.1941   -1.2763    1.5742 C   0  0  0  0  0  0  0  0  0  0  0  0
    2.3168   -0.6090    0.8634 C   0  0  1  0  0  3  0  0  0  0  0  0
    3.5260   -1.3447    1.1589 C   0  0  0  0  0  0  0  0  0  0  0  0
    3.1333   -2.4033    2.0367 C   0  0  0  0  0  0  0  0  0  0  0  0
    4.8636   -1.2037    0.7634 C   0  0  0  0  0  0  0  0  0  0  0  0
    5.1533   -0.3975    0.0784 H   0  0  0  0  0  0  0  0  0  0  0  0
    5.7956   -2.1291    1.2664 C   0  0  0  0  0  0  0  0  0  0  0  0
    5.4128   -3.1677    2.1347 C   0  0  0  0  0  0  0  0  0  0  0  0
    6.1718   -3.8701    2.5064 H   0  0  0  0  0  0  0  0  0  0  0  0
    4.0672   -3.3161    2.5292 C   0  0  0  0  0  0  0  0  0  0  0  0
    3.7756   -4.1319    3.2055 H   0  0  0  0  0  0  0  0  0  0  0  0
    0.9881   -3.2509    3.0948 C   0  0  0  0  0  0  0  0  0  0  0  0
   -0.0686   -2.9257    3.0551 H   0  0  0  0  0  0  0  0  0  0  0  0
    1.3372   -3.2256    4.1483 H   0  0  0  0  0  0  0  0  0  0  0  0
    1.0639   -4.2930    2.7194 H   0  0  0  0  0  0  0  0  0  0  0  0
    0.8933    2.4903   -1.6517 S   0  0  0  0  0  1  0  0  0  0  0  0
    2.0189    0.4478    0.1377 N   0  0  0  0  0  2  0  0  0  0  0  0
    2.9617    1.0850   -0.5303 N   0  0  0  0  0  0  0  0  0  0  0  0
    2.5314    2.0731   -1.3514 C   0  0  0  0  0  0  0  0  0  0  0  0
    3.6184    2.8250   -2.0288 C   0  0  0  0  0  0  0  0  0  0  0  0
    3.3416    3.7412   -3.0694 C   0  0  0  0  0  0  0  0  0  0  0  0
    2.2965    3.8878   -3.3797 H   0  0  0  0  0  0  0  0  0  0  0  0
    4.3767    4.4448   -3.6945 C   0  0  0  0  0  0  0  0  0  0  0  0
    4.1431    5.1511   -4.5055 H   0  0  0  0  0  0  0  0  0  0  0  0
    5.7088    4.2502   -3.2913 C   0  0  0  0  0  0  0  0  0  0  0  0
    6.5221    4.8052   -3.7835 H   0  0  0  0  0  0  0  0  0  0  0  0
    5.9975    3.3441   -2.2573 C   0  0  0  0  0  0  0  0  0  0  0  0
    7.0378    3.1895   -1.9331 H   0  0  0  0  0  0  0  0  0  0  0  0
    4.9649    2.6350   -1.6335 C   0  0  0  0  0  0  0  0  0  0  0  0
    5.1776    1.9288   -0.8201 H   0  0  0  0  0  0  0  0  0  0  0  0
  1 10  1  0  0  0  0
  2  4  2  0  0  0  0
  3 15  1  0  0  0  0
  4  3  1  0  0  0  0
  5 20  1  6  0  0  0
  5  6  1  0  0  0  0
  5  4  1  0  0  0  0
  6  7  1  0  0  0  0
  7  3  1  0  0  0  0
  7 13  2  0  0  0  0
  8  6  2  0  0  0  0
  8 10  1  0  0  0  0
  9  8  1  0  0  0  0
 10 11  2  0  0  0  0
 11 12  1  0  0  0  0
 11 13  1  0  0  0  0
 13 14  1  0  0  0  0
 15 17  1  0  0  0  0
 16 15  1  0  0  0  0
 18 15  1  0  0  0  0
 19 22  1  0  0  0  0
 21 20  1  0  0  0  0
 22 21  2  0  0  0  0
 23 32  1  0  0  0  0
 23 22  1  0  0  0  0
 24 23  2  0  0  0  0
 25 24  1  0  0  0  0
 26 28  2  0  0  0  0
 26 24  1  0  0  0  0
 27 26  1  0  0  0  0
 28 30  1  0  0  0  0
 29 28  1  0  0  0  0
 30 31  1  0  0  0  0
 30 32  2  0  0  0  0
 32 33  1  0  0  0  0
M  END
