1,2
q = -1.0

 19 20  0  0  0  0  0  0  0  0999 V2000
    1.8579    1.1762    0.0680 S   0  0  0  0  0  1  0  0  0  0  0  0
    1.0943   -1.5311   -0.1372 N   0  0  0  0  0  2  0  0  0  0  0  0
    4.8637    1.5183   -0.0115 N   0  0  0  0  0  0  0  0  0  0  0  0
    2.4904   -1.4114   -0.1030 C   0  0  0  0  0  0  0  0  0  0  0  0
    3.0698   -2.7052   -0.2734 C   0  0  0  0  0  0  0  0  0  0  0  0
    2.0064   -3.6039   -0.3990 C   0  0  0  0  0  0  0  0  0  0  0  0
    0.8108   -2.8401   -0.3117 C   0  0  0  0  0  3  0  0  0  0  0  0
    4.4162    0.2153    0.1481 C   0  0  0  0  0  0  0  0  0  0  0  0
    5.5538   -0.5616    0.4588 C   0  0  0  0  0  0  0  0  0  0  0  0
    6.6747    0.3007    0.4734 C   0  0  0  0  0  0  0  0  0  0  0  0
    6.2123    1.5885    0.1727 C   0  0  0  0  0  0  0  0  0  0  0  0
    3.0171   -0.1074    0.0318 C   0  0  0  0  0  0  0  0  0  0  0  0
    4.2334    2.2892   -0.2432 H   0  0  0  0  0  0  0  0  0  0  0  0
    4.1385   -2.9345   -0.3293 H   0  0  0  0  0  0  0  0  0  0  0  0
    2.0666   -4.6881   -0.5490 H   0  0  0  0  0  0  0  0  0  0  0  0
   -0.2255   -3.1956   -0.3761 H   0  0  0  0  0  0  0  0  0  0  0  0
    5.5461   -1.6298    0.6934 H   0  0  0  0  0  0  0  0  0  0  0  0
    7.7136    0.0272    0.6876 H   0  0  0  0  0  0  0  0  0  0  0  0
    6.7526    2.5365    0.0754 H   0  0  0  0  0  0  0  0  0  0  0  0
  2  4  1  0  0  0  0
  3  8  1  0  0  0  0
  3 11  1  0  0  0  0
  4 12  2  0  0  0  0
  5  4  1  0  0  0  0
  6  7  1  0  0  0  0
  6  5  2  0  0  0  0
  7  2  1  0  0  0  0
  8  9  2  0  0  0  0
  9 10  1  0  0  0  0
  9 17  1  0  0  0  0
 10 18  1  0  0  0  0
 11 10  2  0  0  0  0
 12  1  1  0  0  0  0
 12  8  1  0  0  0  0
 13  3  1  0  0  0  0
 14  5  1  0  0  0  0
 15  6  1  0  0  0  0
 16  7  1  0  0  0  0
 19 11  1  0  0  0  0
M  END
