1,2
q = -1.0

 19 20  0  0  1  0  0  0  0  0999 V2000
    1.9615   -0.4716    0.9780 S   0  0  0  0  0  1  0  0  0  0  0  0
    0.5672   -1.3703   -1.3631 N   0  0  0  0  0  0  0  0  0  0  0  0
    4.6184   -1.8806    1.2820 N   0  0  0  0  0  0  0  0  0  0  0  0
    1.8367   -1.9531   -1.2531 C   0  0  0  0  0  3  0  0  0  0  0  0
    2.0004   -2.8924   -2.3208 C   0  0  0  0  0  0  0  0  0  0  0  0
    0.8231   -2.8511   -3.0686 C   0  0  0  0  0  0  0  0  0  0  0  0
   -0.0343   -1.9002   -2.4398 C   0  0  0  0  0  0  0  0  0  0  0  0
    4.0030   -2.0263    0.0482 C   0  0  0  0  0  0  0  0  0  0  0  0
    4.9620   -2.6044   -0.8096 C   0  0  0  0  0  0  0  0  0  0  0  0
    6.1478   -2.8023   -0.0617 C   0  0  0  0  0  0  0  0  0  0  0  0
    5.9003   -2.3452    1.2379 C   0  0  0  0  0  0  0  0  0  0  0  0
    2.6482   -1.5693   -0.1637 C   0  0  1  0  0  3  0  0  0  0  0  0
    4.1397   -1.4755    2.0894 H   0  0  0  0  0  0  0  0  0  0  0  0
    2.8684   -3.5379   -2.4865 H   0  0  0  0  0  0  0  0  0  0  0  0
    0.5812   -3.4413   -3.9604 H   0  0  0  0  0  0  0  0  0  0  0  0
   -1.0512   -1.5964   -2.7191 H   0  0  0  0  0  0  0  0  0  0  0  0
    4.8166   -2.8089   -1.8741 H   0  0  0  0  0  0  0  0  0  0  0  0
    7.0915   -3.2252   -0.4232 H   0  0  0  0  0  0  0  0  0  0  0  0
    6.5441   -2.3262    2.1240 H   0  0  0  0  0  0  0  0  0  0  0  0
  2  4  1  0  0  0  0
  3 13  1  0  0  0  0
  4 12  1  0  0  0  0
  5  4  1  0  0  0  0
  6  7  1  0  0  0  0
  6  5  2  0  0  0  0
  7  2  2  0  0  0  0
  8  3  1  0  0  0  0
  9 10  1  0  0  0  0
  9  8  2  0  0  0  0
 10 11  2  0  0  0  0
 11  3  1  0  0  0  0
 11 19  1  0  0  0  0
 12  8  1  0  0  0  0
 12  1  1  6  0  0  0
 14  5  1  0  0  0  0
 15  6  1  0  0  0  0
 16  7  1  0  0  0  0
 17  9  1  0  0  0  0
 18 10  1  0  0  0  0
M  END
