1,2
q = -1.0, confidence = 0.0

 24 24  0  0  1  0  0  0  0  0999 V2000
   -0.4724    2.1027   -0.4945 S   0  0  0  0  0  1  0  0  0  0  0  0
    1.8262    0.5941    0.0896 N   0  0  0  0  0  2  0  0  0  0  0  0
    2.1152    1.9149    0.2570 N   0  0  0  0  0  2  0  0  0  0  0  0
    1.2568    4.0499    0.1469 N   0  0  0  0  0  0  0  0  0  0  0  0
    2.2041    4.4086    0.2642 H   0  0  0  0  0  0  0  0  0  0  0  0
    0.5212    4.6794   -0.1637 H   0  0  0  0  0  0  0  0  0  0  0  0
    6.6989   -0.4150   -0.0494 C   0  0  0  0  0  0  0  0  0  0  0  0
    7.2187    0.8961    0.1129 C   0  0  0  0  0  0  0  0  0  0  0  0
    6.5273    1.7446    0.2214 H   0  0  0  0  0  0  0  0  0  0  0  0
    8.5972    1.1233    0.1376 C   0  0  0  0  0  0  0  0  0  0  0  0
    8.9777    2.1484    0.2649 H   0  0  0  0  0  0  0  0  0  0  0  0
    9.4995    0.0520    0.0015 C   0  0  0  0  0  0  0  0  0  0  0  0
   10.5843    0.2359    0.0217 H   0  0  0  0  0  0  0  0  0  0  0  0
    9.0052   -1.2523   -0.1599 C   0  0  0  0  0  0  0  0  0  0  0  0
    9.7022   -2.0974   -0.2671 H   0  0  0  0  0  0  0  0  0  0  0  0
    7.6245   -1.4813   -0.1847 C   0  0  0  0  0  0  0  0  0  0  0  0
    7.2397   -2.5057   -0.3113 H   0  0  0  0  0  0  0  0  0  0  0  0
    5.2718   -0.7050   -0.0816 C   0  0  0  0  0  3  0  0  0  0  0  0
    5.0092   -1.7706   -0.2107 H   0  0  0  0  0  0  0  0  0  0  0  0
    4.2431    0.1940    0.0310 C   0  0  0  0  0  0  0  0  0  0  0  0
    4.4260    1.2706    0.1642 H   0  0  0  0  0  0  0  0  0  0  0  0
    2.8744   -0.2172   -0.0160 C   0  0  0  0  0  0  0  0  0  0  0  0
    2.6398   -1.2829   -0.1588 H   0  0  0  0  0  0  0  0  0  0  0  0
    1.0871    2.7061    0.0181 C   0  0  1  0  0  3  0  0  0  0  0  0
  2  3  1  0  0  0  0
  4  5  1  0  0  0  0
  6  4  1  0  0  0  0
  7  8  1  0  0  0  0
  8 10  2  0  0  0  0
  8  9  1  0  0  0  0
 10 11  1  0  0  0  0
 12 13  1  0  0  0  0
 12 10  1  0  0  0  0
 14 12  2  0  0  0  0
 15 14  1  0  0  0  0
 16 14  1  0  0  0  0
 16  7  2  0  0  0  0
 17 16  1  0  0  0  0
 18  7  1  0  0  0  0
 18 20  1  0  0  0  0
 19 18  1  0  0  0  0
 20 21  1  0  0  0  0
 22 20  2  0  0  0  0
 22  2  1  0  0  0  0
 23 22  1  0  0  0  0
 24  1  1  6  0  0  0
 24  4  1  0  0  0  0
 24  3  1  0  0  0  0
M  END
