1,3
q = -1.0

 21 21  0  0  1  0  0  0  0  0999 V2000
   -1.9125   -0.3346   -1.6260 S   0  0  0  0  0  1  0  0  0  0  0  0
   -5.2493   -3.4207   -0.5912 O   0  0  0  0  0  0  0  0  0  0  0  0
   -0.9698   -1.4653    0.4036 N   0  0  0  0  0  2  0  0  0  0  0  0
   -1.7244   -3.2602    1.7255 N   0  0  0  0  0  0  0  0  0  0  0  0
   -2.0844   -1.5443   -0.3938 C   0  0  1  0  0  3  0  0  0  0  0  0
   -3.1065   -2.5010   -0.1215 C   0  0  0  0  0  0  0  0  0  0  0  0
   -2.8598   -3.3532    0.9985 C   0  0  0  0  0  0  0  0  0  0  0  0
   -0.8088   -2.3362    1.4196 C   0  0  0  0  0  0  0  0  0  0  0  0
    0.4363   -2.2842    2.2517 C   0  0  0  0  0  0  0  0  0  0  0  0
    0.6172   -1.2672    2.6500 H   0  0  0  0  0  0  0  0  0  0  0  0
    1.3226   -2.5566    1.6437 H   0  0  0  0  0  0  0  0  0  0  0  0
    0.3355   -2.9997    3.0852 H   0  0  0  0  0  0  0  0  0  0  0  0
   -4.5506   -1.7854   -2.1687 C   0  0  0  0  0  0  0  0  0  0  0  0
   -4.5569   -0.7045   -1.9158 H   0  0  0  0  0  0  0  0  0  0  0  0
   -5.5101   -2.0666   -2.6390 H   0  0  0  0  0  0  0  0  0  0  0  0
   -3.7148   -1.9285   -2.8846 H   0  0  0  0  0  0  0  0  0  0  0  0
   -3.8066   -4.4185    1.4659 C   0  0  0  0  0  0  0  0  0  0  0  0
   -3.3431   -4.9403    2.3224 H   0  0  0  0  0  0  0  0  0  0  0  0
   -4.0467   -5.1310    0.6529 H   0  0  0  0  0  0  0  0  0  0  0  0
   -4.7847   -3.9859    1.7534 H   0  0  0  0  0  0  0  0  0  0  0  0
   -4.3684   -2.6318   -0.9287 C   0  0  0  0  0  0  0  0  0  0  0  0
  3  8  1  0  0  0  0
  5  1  1  1  0  0  0
  5  6  1  0  0  0  0
  5  3  1  0  0  0  0
  6  7  2  0  0  0  0
  7 17  1  0  0  0  0
  7  4  1  0  0  0  0
  8  4  2  0  0  0  0
  8  9  1  0  0  0  0
  9 10  1  0  0  0  0
  9 12  1  0  0  0  0
 11  9  1  0  0  0  0
 13 14  1  0  0  0  0
 13 21  1  0  0  0  0
 15 13  1  0  0  0  0
 16 13  1  0  0  0  0
 17 20  1  0  0  0  0
 17 18  1  0  0  0  0
 19 17  1  0  0  0  0
 21  2  2  0  0  0  0
 21  6  1  0  0  0  0
M  END
