1,8
q = -1.0, confidence = 0.0

 21 22  0  0  0  0  0  0  0  0999 V2000
    1.0828   -0.0211   -1.9763 S   0  0  0  0  0  1  0  0  0  0  0  0
    2.6037    0.5336   -1.2853 C   0  0  0  0  0  0  0  0  0  0  0  0
    2.6803    1.6082   -0.3512 C   0  0  0  0  0  0  0  0  0  0  0  0
    3.9426    1.9357    0.2044 C   0  0  0  0  0  0  0  0  0  0  0  0
    5.1034    1.2423   -0.1472 C   0  0  0  0  0  0  0  0  0  0  0  0
    5.0279    0.2117   -1.1014 C   0  0  0  0  0  0  0  0  0  0  0  0
    3.7947   -0.1313   -1.6617 C   0  0  0  0  0  0  0  0  0  0  0  0
    0.2868    1.9244    0.3301 N   0  0  0  0  0  2  0  0  0  0  0  0
   -0.6758    2.7684    0.7907 C   0  0  0  0  0  3  0  0  0  0  0  0
   -0.5007    4.1405    0.9569 C   0  0  0  0  0  0  0  0  0  0  0  0
    0.7353    4.7011    0.6086 C   0  0  0  0  0  0  0  0  0  0  0  0
    1.7383    3.8452    0.1535 C   0  0  0  0  0  0  0  0  0  0  0  0
    1.5245    2.4504    0.0408 C   0  0  0  0  0  0  0  0  0  0  0  0
    4.0029    2.7372    0.9564 H   0  0  0  0  0  0  0  0  0  0  0  0
    6.0648    1.5068    0.3166 H   0  0  0  0  0  0  0  0  0  0  0  0
    5.9347   -0.3361   -1.3995 H   0  0  0  0  0  0  0  0  0  0  0  0
    3.7221   -0.9474   -2.3957 H   0  0  0  0  0  0  0  0  0  0  0  0
   -1.6408    2.3097    1.0397 H   0  0  0  0  0  0  0  0  0  0  0  0
   -1.3314    4.7503    1.3383 H   0  0  0  0  0  0  0  0  0  0  0  0
    0.9135    5.7837    0.6847 H   0  0  0  0  0  0  0  0  0  0  0  0
    2.7142    4.2463   -0.1496 H   0  0  0  0  0  0  0  0  0  0  0  0
  1  2  1  0  0  0  0
  2  3  1  0  0  0  0
  3 13  1  0  0  0  0
  3  4  2  0  0  0  0
  4 14  1  0  0  0  0
  5  4  1  0  0  0  0
  5 15  1  0  0  0  0
  6  5  2  0  0  0  0
  7  2  2  0  0  0  0
  7  6  1  0  0  0  0
  8  9  1  0  0  0  0
  9 10  1  0  0  0  0
  9 18  1  0  0  0  0
 10 19  1  0  0  0  0
 11 20  1  0  0  0  0
 11 10  2  0  0  0  0
 12 11  1  0  0  0  0
 13 12  2  0  0  0  0
 13  8  1  0  0  0  0
 16  6  1  0  0  0  0
 17  7  1  0  0  0  0
 21 12  1  0  0  0  0
M  END
