1,34
q = -1.0

 37 40  0  0  0  0  0  0  0  0999 V2000
    1.8345    2.4870   -0.0661 S   0  0  0  0  0  1  0  0  0  0  0  0
   -3.3182    0.8699   -0.1208 C   0  0  0  0  0  0  0  0  0  0  0  0
   -3.7757    2.2139   -0.1752 C   0  0  0  0  0  0  0  0  0  0  0  0
   -3.0158    3.0027   -0.2125 H   0  0  0  0  0  0  0  0  0  0  0  0
   -5.1321    2.5225   -0.1897 C   0  0  0  0  0  0  0  0  0  0  0  0
   -5.4542    3.5744   -0.2414 H   0  0  0  0  0  0  0  0  0  0  0  0
   -6.1166    1.5096   -0.1431 C   0  0  0  0  0  0  0  0  0  0  0  0
   -7.5195    1.8145   -0.1616 C   0  0  0  0  0  0  0  0  0  0  0  0
   -7.8214    2.8720   -0.2161 H   0  0  0  0  0  0  0  0  0  0  0  0
   -8.4675    0.8208   -0.1135 C   0  0  0  0  0  0  0  0  0  0  0  0
   -9.5401    1.0694   -0.1297 H   0  0  0  0  0  0  0  0  0  0  0  0
   -8.0863   -0.5632   -0.0399 C   0  0  0  0  0  0  0  0  0  0  0  0
   -9.0434   -1.6020    0.0122 C   0  0  0  0  0  0  0  0  0  0  0  0
  -10.1128   -1.3405   -0.0060 H   0  0  0  0  0  0  0  0  0  0  0  0
   -8.6456   -2.9438    0.0860 C   0  0  0  0  0  0  0  0  0  0  0  0
   -9.4061   -3.7383    0.1258 H   0  0  0  0  0  0  0  0  0  0  0  0
   -7.2860   -3.2785    0.1104 C   0  0  0  0  0  0  0  0  0  0  0  0
   -6.9734   -4.3325    0.1704 H   0  0  0  0  0  0  0  0  0  0  0  0
   -6.2926   -2.2733    0.0594 C   0  0  0  0  0  0  0  0  0  0  0  0
   -4.8907   -2.5751    0.0883 C   0  0  0  0  0  0  0  0  0  0  0  0
   -4.5813   -3.6294    0.1594 H   0  0  0  0  0  0  0  0  0  0  0  0
   -3.9369   -1.5860    0.0352 C   0  0  0  0  0  0  0  0  0  0  0  0
   -2.8795   -1.8808    0.0764 H   0  0  0  0  0  0  0  0  0  0  0  0
   -4.2938   -0.1935   -0.0574 C   0  0  0  0  0  0  0  0  0  0  0  0
   -5.6946    0.1368   -0.0734 C   0  0  0  0  0  0  0  0  0  0  0  0
   -6.6874   -0.8960   -0.0185 C   0  0  0  0  0  0  0  0  0  0  0  0
   -1.9146    0.5050   -0.1497 C   0  0  0  0  0  3  0  0  0  0  0  0
   -1.6620   -0.5600   -0.2416 H   0  0  0  0  0  0  0  0  0  0  0  0
    0.2389    3.2293    0.0834 C   0  0  0  0  0  0  0  0  0  0  0  0
   -1.0156    5.3440    0.2797 C   0  0  0  0  0  0  0  0  0  0  0  0
   -1.5621    5.3093   -0.6890 H   0  0  0  0  0  0  0  0  0  0  0  0
   -0.7806    6.3977    0.5195 H   0  0  0  0  0  0  0  0  0  0  0  0
   -1.6966    4.9407    1.0573 H   0  0  0  0  0  0  0  0  0  0  0  0
   -0.8224    1.2413   -0.0827 N   0  0  0  0  0  2  0  0  0  0  0  0
   -0.9112    2.5854    0.0400 N   0  0  0  0  0  0  0  0  0  0  0  0
    0.2129    4.5811    0.2369 N   0  0  0  0  0  0  0  0  0  0  0  0
    1.1089    5.0642    0.2037 H   0  0  0  0  0  0  0  0  0  0  0  0
  1 29  1  0  0  0  0
  2 24  1  0  0  0  0
  3  2  2  0  0  0  0
  4  3  1  0  0  0  0
  5  3  1  0  0  0  0
  5  7  2  0  0  0  0
  6  5  1  0  0  0  0
  7 25  1  0  0  0  0
  8  7  1  0  0  0  0
  8 10  2  0  0  0  0
  9  8  1  0  0  0  0
 10 12  1  0  0  0  0
 11 10  1  0  0  0  0
 12 26  2  0  0  0  0
 12 13  1  0  0  0  0
 13 15  2  0  0  0  0
 14 13  1  0  0  0  0
 15 17  1  0  0  0  0
 15 16  1  0  0  0  0
 17 18  1  0  0  0  0
 19 20  1  0  0  0  0
 19 17  2  0  0  0  0
 20 21  1  0  0  0  0
 22 23  1  0  0  0  0
 22 20  2  0  0  0  0
 24 22  1  0  0  0  0
 25 24  2  0  0  0  0
 25 26  1  0  0  0  0
 26 19  1  0  0  0  0
 27  2  1  0  0  0  0
 27 34  1  0  0  0  0
 28 27  1  0  0  0  0
 29 36  1  0  0  0  0
 30 32  1  0  0  0  0
 30 33  1  0  0  0  0
 31 30  1  0  0  0  0
 34 35  1  0  0  0  0
 35 29  2  0  0  0  0
 36 30  1  0  0  0  0
 37 36  1  0  0  0  0
M  END
