1,2
q = -1.0

 19 18  0  0  1  0  0  0  0  0999 V2000
    0.0715    1.8624    0.1676 S   0  0  0  0  0  1  0  0  0  0  0  0
   -2.6758    0.4076   -0.0724 N   0  0  0  0  0  0  0  0  0  0  0  0
   -2.6813    1.9201   -0.1963 C   0  0  2  0  0  0  0  0  0  0  0  0
   -2.4071    2.1041   -1.2559 H   0  0  0  0  0  0  0  0  0  0  0  0
   -1.5695    2.5217    0.6547 C   0  0  0  0  0  0  0  0  0  0  0  0
   -1.7635    2.3487    1.7362 H   0  0  0  0  0  0  0  0  0  0  0  0
   -1.5461    3.6205    0.5037 H   0  0  0  0  0  0  0  0  0  0  0  0
   -4.0441    2.5608    0.0904 C   0  0  0  0  0  0  0  0  0  0  0  0
   -4.0159    3.6251   -0.2142 H   0  0  0  0  0  0  0  0  0  0  0  0
   -4.2992    2.5312    1.1685 H   0  0  0  0  0  0  0  0  0  0  0  0
   -4.8670    2.0802   -0.4751 H   0  0  0  0  0  0  0  0  0  0  0  0
   -3.2911   -0.0715    1.1891 C   0  0  0  0  0  0  0  0  0  0  0  0
   -4.3791    0.1549    1.2189 H   0  0  0  0  0  0  0  0  0  0  0  0
   -2.7903    0.4023    2.0537 H   0  0  0  0  0  0  0  0  0  0  0  0
   -3.1394   -1.1657    1.2465 H   0  0  0  0  0  0  0  0  0  0  0  0
   -3.3723   -0.2069   -1.2266 C   0  0  0  0  0  0  0  0  0  0  0  0
   -4.4484    0.0747   -1.2403 H   0  0  0  0  0  0  0  0  0  0  0  0
   -3.2715   -1.3057   -1.1525 H   0  0  0  0  0  0  0  0  0  0  0  0
   -2.8883    0.1308   -2.1616 H   0  0  0  0  0  0  0  0  0  0  0  0
  1  5  1  0  0  0  0
  2 12  1  0  0  0  0
  3  4  1  6  0  0  0
  3  2  1  0  0  0  0
  3  8  1  0  0  0  0
  3  5  1  0  0  0  0
  5  6  1  0  0  0  0
  7  5  1  0  0  0  0
  8 10  1  0  0  0  0
  9  8  1  0  0  0  0
 11  8  1  0  0  0  0
 12 13  1  0  0  0  0
 12 15  1  0  0  0  0
 12 14  1  0  0  0  0
 16 18  1  0  0  0  0
 16  2  1  0  0  0  0
 17 16  1  0  0  0  0
 19 16  1  0  0  0  0
M  END
