1,2
q = -1.0

 30 30  0  0  0  0  0  0  0  0999 V2000
   -1.7325   -2.0417   -1.1779 S   0  0  0  0  0  1  0  0  0  0  0  0
   -1.4370    0.1570    0.8649 N   0  0  0  0  0  2  0  0  0  0  0  0
   -2.9286   -0.9653   -0.4399 C   0  0  0  0  0  0  0  0  0  0  0  0
   -2.7210   -0.0020    0.4445 N   0  0  0  0  0  0  0  0  0  0  0  0
   -4.2089   -1.1965   -0.8803 N   0  0  0  0  0  0  0  0  0  0  0  0
   -1.2053    1.1375    1.7036 C   0  0  0  0  0  3  0  0  0  0  0  0
   -5.4367   -0.5882   -0.5733 C   0  0  0  0  0  0  0  0  0  0  0  0
   -7.8454   -0.5400   -1.0076 C   0  0  0  0  0  0  0  0  0  0  0  0
   -8.7343   -0.9226   -1.5293 H   0  0  0  0  0  0  0  0  0  0  0  0
   -6.5840   -1.0796   -1.2457 C   0  0  0  0  0  0  0  0  0  0  0  0
   -6.4769   -1.9038   -1.9695 H   0  0  0  0  0  0  0  0  0  0  0  0
   -9.2804    0.9794    0.0825 O   0  0  0  0  0  0  0  0  0  0  0  0
   -5.6016    0.4658    0.3485 C   0  0  0  0  0  0  0  0  0  0  0  0
   -4.7169    0.8452    0.8705 H   0  0  0  0  0  0  0  0  0  0  0  0
    0.1870    1.3441    2.2114 C   0  0  0  0  0  0  0  0  0  0  0  0
    0.8390    0.4794    1.9799 H   0  0  0  0  0  0  0  0  0  0  0  0
    0.1793    1.4953    3.3111 H   0  0  0  0  0  0  0  0  0  0  0  0
    0.6386    2.2603    1.7702 H   0  0  0  0  0  0  0  0  0  0  0  0
   -2.3097    2.0494    2.1494 C   0  0  0  0  0  0  0  0  0  0  0  0
   -2.8348    2.4799    1.2713 H   0  0  0  0  0  0  0  0  0  0  0  0
   -1.9304    2.8630    2.7948 H   0  0  0  0  0  0  0  0  0  0  0  0
   -3.0809    1.4742    2.7053 H   0  0  0  0  0  0  0  0  0  0  0  0
   -8.0077    0.5159   -0.0843 C   0  0  0  0  0  0  0  0  0  0  0  0
   -9.4893    2.0321    1.0007 C   0  0  0  0  0  0  0  0  0  0  0  0
   -9.1927    1.7481    2.0362 H   0  0  0  0  0  0  0  0  0  0  0  0
  -10.5730    2.2526    0.9868 H   0  0  0  0  0  0  0  0  0  0  0  0
   -8.9308    2.9528    0.7149 H   0  0  0  0  0  0  0  0  0  0  0  0
   -6.8738    1.0100    0.5883 C   0  0  0  0  0  0  0  0  0  0  0  0
   -6.9626    1.8294    1.3143 H   0  0  0  0  0  0  0  0  0  0  0  0
   -4.2595   -1.9543   -1.5636 H   0  0  0  0  0  0  0  0  0  0  0  0
  1  3  1  0  0  0  0
  2  6  1  0  0  0  0
  3  4  2  0  0  0  0
  4  2  1  0  0  0  0
  5  7  1  0  0  0  0
  5  3  1  0  0  0  0
  6 19  1  0  0  0  0
  6 15  1  0  0  0  0
  7 13  1  0  0  0  0
  8 23  2  0  0  0  0
  9  8  1  0  0  0  0
 10  8  1  0  0  0  0
 10  7  2  0  0  0  0
 11 10  1  0  0  0  0
 12 24  1  0  0  0  0
 13 28  2  0  0  0  0
 13 14  1  0  0  0  0
 15 17  1  0  0  0  0
 16 15  1  0  0  0  0
 18 15  1  0  0  0  0
 19 22  1  0  0  0  0
 19 21  1  0  0  0  0
 20 19  1  0  0  0  0
 23 12  1  0  0  0  0
 23 28  1  0  0  0  0
 24 25  1  0  0  0  0
 26 24  1  0  0  0  0
 27 24  1  0  0  0  0
 28 29  1  0  0  0  0
 30  5  1  0  0  0  0
M  END
