1,2
q = -1.0

 23 24  0  0  0  0  0  0  0  0999 V2000
    1.7913   -2.1431   -1.1364 S   0  0  0  0  0  1  0  0  0  0  0  0
    1.3142    0.0256    1.0174 N   0  0  0  0  0  2  0  0  0  0  0  0
   -1.4068    0.9370    1.9896 N   0  0  0  0  0  0  0  0  0  0  0  0
    2.9984   -1.3614   -0.0960 C   0  0  0  0  0  0  0  0  0  0  0  0
    4.3553   -1.7279   -0.2409 C   0  0  0  0  0  0  0  0  0  0  0  0
    5.3609   -1.1291    0.5259 C   0  0  0  0  0  0  0  0  0  0  0  0
    5.0285   -0.1520    1.4806 C   0  0  0  0  0  0  0  0  0  0  0  0
    3.6922    0.2238    1.6456 C   0  0  0  0  0  0  0  0  0  0  0  0
    2.6654   -0.3475    0.8575 C   0  0  0  0  0  0  0  0  0  0  0  0
    1.0129    1.2402    1.4268 C   0  0  0  0  0  3  0  0  0  0  0  0
   -0.2786    1.7165    1.7926 C   0  0  0  0  0  0  0  0  0  0  0  0
   -0.6651    3.0649    1.9965 C   0  0  0  0  0  0  0  0  0  0  0  0
   -2.0426    3.0717    2.2963 C   0  0  0  0  0  0  0  0  0  0  0  0
   -2.4676    1.7312    2.2845 C   0  0  0  0  0  0  0  0  0  0  0  0
   -1.4536   -0.1063    1.8955 H   0  0  0  0  0  0  0  0  0  0  0  0
    4.6056   -2.5058   -0.9777 H   0  0  0  0  0  0  0  0  0  0  0  0
    6.4074   -1.4429    0.3934 H   0  0  0  0  0  0  0  0  0  0  0  0
    5.8066    0.2987    2.1144 H   0  0  0  0  0  0  0  0  0  0  0  0
    3.4251    0.9479    2.4297 H   0  0  0  0  0  0  0  0  0  0  0  0
    1.8157    2.0026    1.4815 H   0  0  0  0  0  0  0  0  0  0  0  0
    0.0051    3.9282    1.9120 H   0  0  0  0  0  0  0  0  0  0  0  0
   -2.6729    3.9425    2.5064 H   0  0  0  0  0  0  0  0  0  0  0  0
   -3.4565    1.2953    2.4677 H   0  0  0  0  0  0  0  0  0  0  0  0
  1  4  1  0  0  0  0
  2 10  1  0  0  0  0
  3 14  1  0  0  0  0
  4  9  1  0  0  0  0
  5  4  2  0  0  0  0
  5  6  1  0  0  0  0
  6  7  2  0  0  0  0
  7  8  1  0  0  0  0
  7 18  1  0  0  0  0
  8 19  1  0  0  0  0
  9  2  1  0  0  0  0
  9  8  2  0  0  0  0
 10 20  1  0  0  0  0
 10 11  1  0  0  0  0
 11  3  1  0  0  0  0
 11 12  2  0  0  0  0
 12 13  1  0  0  0  0
 13 22  1  0  0  0  0
 14 13  2  0  0  0  0
 14 23  1  0  0  0  0
 15  3  1  0  0  0  0
 16  5  1  0  0  0  0
 17  6  1  0  0  0  0
 21 12  1  0  0  0  0
M  END
