1,3
q = -1.0

 20 20  0  0  0  0  0  0  0  0999 V2000
   -0.2270   -2.1539    0.7267 S   0  0  0  0  0  1  0  0  0  0  0  0
   -5.0950   -0.1000   -0.4260 S   0  0  0  0  0  0  0  0  0  0  0  0
   -1.8871    0.0546    0.1490 N   0  0  0  0  0  2  0  0  0  0  0  0
   -2.6667   -1.0248    0.4176 N   0  0  0  0  0  0  0  0  0  0  0  0
   -2.6567   -3.2596    0.9854 N   0  0  0  0  0  0  0  0  0  0  0  0
   -2.0992   -4.0962    1.1478 H   0  0  0  0  0  0  0  0  0  0  0  0
   -6.3683    0.8847   -1.0662 C   0  0  0  0  0  0  0  0  0  0  0  0
   -7.3907    0.4885   -1.1187 H   0  0  0  0  0  0  0  0  0  0  0  0
   -5.9262    2.1393   -1.4616 C   0  0  0  0  0  0  0  0  0  0  0  0
   -6.5823    2.9086   -1.8916 H   0  0  0  0  0  0  0  0  0  0  0  0
   -4.5366    2.3089   -1.2458 C   0  0  0  0  0  0  0  0  0  0  0  0
   -3.9752    3.2230   -1.4845 H   0  0  0  0  0  0  0  0  0  0  0  0
   -3.9189    1.1802   -0.6858 C   0  0  0  0  0  0  0  0  0  0  0  0
   -2.5259    1.0937   -0.3723 C   0  0  0  0  0  3  0  0  0  0  0  0
   -1.9109    1.9795   -0.5863 H   0  0  0  0  0  0  0  0  0  0  0  0
   -1.9777   -2.1193    0.7005 C   0  0  0  0  0  0  0  0  0  0  0  0
   -4.1002   -3.3489    0.9314 C   0  0  0  0  0  0  0  0  0  0  0  0
   -4.4174   -4.3389    1.3084 H   0  0  0  0  0  0  0  0  0  0  0  0
   -4.4848   -3.2132   -0.1034 H   0  0  0  0  0  0  0  0  0  0  0  0
   -4.5634   -2.5568    1.5552 H   0  0  0  0  0  0  0  0  0  0  0  0
  3  4  1  0  0  0  0
  4 16  2  0  0  0  0
  5  6  1  0  0  0  0
  7  2  1  0  0  0  0
  8  7  1  0  0  0  0
  9 11  1  0  0  0  0
  9  7  2  0  0  0  0
 10  9  1  0  0  0  0
 11 13  2  0  0  0  0
 12 11  1  0  0  0  0
 13  2  1  0  0  0  0
 13 14  1  0  0  0  0
 14  3  1  0  0  0  0
 15 14  1  0  0  0  0
 16  1  1  0  0  0  0
 16  5  1  0  0  0  0
 17  5  1  0  0  0  0
 17 18  1  0  0  0  0
 17 20  1  0  0  0  0
 19 17  1  0  0  0  0
M  END
