1,2
q = -1.0

 37 39  0  0  0  0  0  0  0  0999 V2000
    1.3094   -2.7252    0.2421 S   0  0  0  0  0  1  0  0  0  0  0  0
    1.2593    0.2759    0.2725 N   0  0  0  0  0  2  0  0  0  0  0  0
    0.6264    1.4965    0.5606 N   0  0  0  0  0  0  0  0  0  0  0  0
    2.9779   -2.2161    0.2105 C   0  0  0  0  0  0  0  0  0  0  0  0
    3.4372   -0.8607    0.3237 C   0  0  0  0  0  0  0  0  0  0  0  0
    4.8372   -0.6006    0.3665 C   0  0  0  0  0  0  0  0  0  0  0  0
    5.1693    0.4458    0.4592 H   0  0  0  0  0  0  0  0  0  0  0  0
    5.7734   -1.6254    0.2896 C   0  0  0  0  0  0  0  0  0  0  0  0
    6.8495   -1.4006    0.3127 H   0  0  0  0  0  0  0  0  0  0  0  0
    5.3198   -2.9596    0.1892 C   0  0  0  0  0  0  0  0  0  0  0  0
    6.0456   -3.7855    0.1326 H   0  0  0  0  0  0  0  0  0  0  0  0
    3.9556   -3.2456    0.1592 C   0  0  0  0  0  0  0  0  0  0  0  0
    3.6093   -4.2872    0.0820 H   0  0  0  0  0  0  0  0  0  0  0  0
    2.5591    0.2599    0.4930 C   0  0  0  0  0  3  0  0  0  0  0  0
    3.0147    1.2003    0.8523 H   0  0  0  0  0  0  0  0  0  0  0  0
    1.1131    2.6709   -0.0735 C   0  0  0  0  0  0  0  0  0  0  0  0
    1.2696    3.8596    0.6688 C   0  0  0  0  0  0  0  0  0  0  0  0
    1.0132    3.8643    1.7382 H   0  0  0  0  0  0  0  0  0  0  0  0
    1.7462    5.0173    0.0382 C   0  0  0  0  0  0  0  0  0  0  0  0
    1.8642    5.9424    0.6227 H   0  0  0  0  0  0  0  0  0  0  0  0
    2.0917    4.9944   -1.3229 C   0  0  0  0  0  0  0  0  0  0  0  0
    2.4759    5.9022   -1.8114 H   0  0  0  0  0  0  0  0  0  0  0  0
    1.9445    3.8046   -2.0565 C   0  0  0  0  0  0  0  0  0  0  0  0
    2.2044    3.7806   -3.1257 H   0  0  0  0  0  0  0  0  0  0  0  0
    1.4480    2.6475   -1.4439 C   0  0  0  0  0  0  0  0  0  0  0  0
    1.3000    1.7176   -2.0101 H   0  0  0  0  0  0  0  0  0  0  0  0
   -0.6105    1.4313    1.2278 C   0  0  0  0  0  0  0  0  0  0  0  0
   -1.5806    2.4479    1.0618 C   0  0  0  0  0  0  0  0  0  0  0  0
   -1.3524    3.3236    0.4392 H   0  0  0  0  0  0  0  0  0  0  0  0
   -2.8363    2.3287    1.6731 C   0  0  0  0  0  0  0  0  0  0  0  0
   -3.5778    3.1297    1.5300 H   0  0  0  0  0  0  0  0  0  0  0  0
   -3.1632    1.1938    2.4310 C   0  0  0  0  0  0  0  0  0  0  0  0
   -4.1594    1.0931    2.8851 H   0  0  0  0  0  0  0  0  0  0  0  0
   -2.1996    0.1859    2.5959 C   0  0  0  0  0  0  0  0  0  0  0  0
   -2.4341   -0.7110    3.1885 H   0  0  0  0  0  0  0  0  0  0  0  0
   -0.9278    0.3018    2.0207 C   0  0  0  0  0  0  0  0  0  0  0  0
   -0.1813   -0.4895    2.1723 H   0  0  0  0  0  0  0  0  0  0  0  0
  2 14  1  0  0  0  0
  2  3  1  0  0  0  0
  3 27  1  0  0  0  0
  4  1  1  0  0  0  0
  4  5  1  0  0  0  0
  5  6  2  0  0  0  0
  5 14  1  0  0  0  0
  6  7  1  0  0  0  0
  8  9  1  0  0  0  0
  8  6  1  0  0  0  0
 10  8  2  0  0  0  0
 11 10  1  0  0  0  0
 12 10  1  0  0  0  0
 12  4  2  0  0  0  0
 13 12  1  0  0  0  0
 14 15  1  0  0  0  0
 16  3  1  0  0  0  0
 16 17  1  0  0  0  0
 17 18  1  0  0  0  0
 19 20  1  0  0  0  0
 19 17  2  0  0  0  0
 21 19  1  0  0  0  0
 22 21  1  0  0  0  0
 23 25  1  0  0  0  0
 23 21  2  0  0  0  0
 24 23  1  0  0  0  0
 25 16  2  0  0  0  0
 26 25  1  0  0  0  0
 27 36  1  0  0  0  0
 28 27  2  0  0  0  0
 28 30  1  0  0  0  0
 29 28  1  0  0  0  0
 30 32  2  0  0  0  0
 31 30  1  0  0  0  0
 32 34  1  0  0  0  0
 32 33  1  0  0  0  0
 34 35  1  0  0  0  0
 36 37  1  0  0  0  0
 36 34  2  0  0  0  0
M  END
