1,2
q = -1.0, confidence = 0.0

 22 23  0  0  0  0  0  0  0  0999 V2000
    1.5911   -2.5079   -0.0753 S   0  0  0  0  0  1  0  0  0  0  0  0
    0.9871    0.2889    0.9958 N   0  0  0  0  0  2  0  0  0  0  0  0
    0.4404    2.4325    1.8210 N   0  0  0  0  0  0  0  0  0  0  0  0
    3.1358   -1.7735    0.3030 C   0  0  0  0  0  0  0  0  0  0  0  0
    3.3636   -0.3804    0.7556 C   0  0  0  0  0  0  0  0  0  0  0  0
    4.6945    0.1406    0.7237 C   0  0  0  0  0  0  0  0  0  0  0  0
    5.7658   -0.6373    0.3048 C   0  0  0  0  0  0  0  0  0  0  0  0
    5.5619   -2.0121   -0.0269 C   0  0  0  0  0  0  0  0  0  0  0  0
    4.2705   -2.4816    0.0196 C   0  0  0  0  0  3  0  0  0  0  0  0
    2.2459    0.3600    1.1095 C   0  0  0  0  0  2  0  0  0  0  0  0
    0.0712    1.1548    1.6743 C   0  0  0  0  0  0  0  0  0  0  0  0
   -1.1637    0.6326    2.1067 C   0  0  0  0  0  0  0  0  0  0  0  0
   -2.0666    1.5158    2.7081 C   0  0  0  0  0  0  0  0  0  0  0  0
   -1.7049    2.8639    2.8546 C   0  0  0  0  0  0  0  0  0  0  0  0
   -0.4369    3.2639    2.4024 C   0  0  0  0  0  0  0  0  0  0  0  0
    4.8447    1.1780    1.0517 H   0  0  0  0  0  0  0  0  0  0  0  0
    6.7853   -0.2209    0.3136 H   0  0  0  0  0  0  0  0  0  0  0  0
    6.4283   -2.6647   -0.2298 H   0  0  0  0  0  0  0  0  0  0  0  0
   -1.3911   -0.4348    1.9693 H   0  0  0  0  0  0  0  0  0  0  0  0
   -3.0443    1.1503    3.0560 H   0  0  0  0  0  0  0  0  0  0  0  0
   -2.3888    3.5938    3.3119 H   0  0  0  0  0  0  0  0  0  0  0  0
   -0.1124    4.3143    2.5073 H   0  0  0  0  0  0  0  0  0  0  0  0
  1  4  1  0  0  0  0
  2 10  1  0  0  0  0
  2 11  1  0  0  0  0
  3 15  1  0  0  0  0
  4  5  1  0  0  0  0
  5 10  1  0  0  0  0
  6  5  2  0  0  0  0
  6 16  1  0  0  0  0
  7 17  1  0  0  0  0
  7  6  1  0  0  0  0
  8  9  1  0  0  0  0
  8  7  2  0  0  0  0
  9  4  2  0  0  0  0
 11  3  2  0  0  0  0
 11 12  1  0  0  0  0
 12 13  2  0  0  0  0
 13 14  1  0  0  0  0
 13 20  1  0  0  0  0
 14 21  1  0  0  0  0
 15 22  1  0  0  0  0
 15 14  2  0  0  0  0
 18  8  1  0  0  0  0
 19 12  1  0  0  0  0
M  END
