1,3
q = -2.0, confidence = 0.858

 10 10  0  0  0  0  0  0  0  0999 V2000
    0.2130   -2.1535    0.9488 S   0  0  0  0  0  1  0  0  0  0  0  0
   -1.8986    2.0346   -1.3263 S   0  0  0  0  0  0  0  0  0  0  0  0
   -1.1238   -0.2157   -0.0061 N   0  0  0  0  0  2  0  0  0  0  0  0
   -2.5164   -2.0744    0.5678 N   0  0  0  0  0  0  0  0  0  0  0  0
   -1.3535   -1.4716    0.4845 C   0  0  0  0  0  0  0  0  0  0  0  0
   -3.5682   -1.3512    0.0901 C   0  0  0  0  0  0  0  0  0  0  0  0
   -3.4387   -0.0923   -0.4793 C   0  0  0  0  0  0  0  0  0  0  0  0
   -2.1450    0.5250   -0.5688 C   0  0  0  0  0  0  0  0  0  0  0  0
   -4.5587   -1.8314    0.1633 H   0  0  0  0  0  0  0  0  0  0  0  0
   -4.3032    0.4515   -0.8831 H   0  0  0  0  0  0  0  0  0  0  0  0
  2  8  2  0  0  0  0
  3  5  1  0  0  0  0
  5  4  2  0  0  0  0
  5  1  1  0  0  0  0
  6  9  1  0  0  0  0
  6  4  1  0  0  0  0
  7  6  2  0  0  0  0
  8  7  1  0  0  0  0
  8  3  1  0  0  0  0
 10  7  1  0  0  0  0
M  END
