1,4
q = -1.0

 33 34  0  0  0  0  0  0  0  0999 V2000
    1.6754    1.2405   -1.8980 S   0  0  0  0  0  1  0  0  0  0  0  0
    4.1946    0.9007   -1.2178 N   0  0  0  0  0  0  0  0  0  0  0  0
    2.7765   -0.5030   -0.0232 N   0  0  0  0  0  0  0  0  0  0  0  0
    1.4971   -0.9043    0.2167 N   0  0  0  0  0  2  0  0  0  0  0  0
    5.6531   -0.2096    0.4661 C   0  0  0  0  0  0  0  0  0  0  0  0
    4.7785   -0.6436    0.9620 H   0  0  0  0  0  0  0  0  0  0  0  0
    6.9546   -0.4353    0.9356 C   0  0  0  0  0  0  0  0  0  0  0  0
    7.0945   -1.0684    1.8255 H   0  0  0  0  0  0  0  0  0  0  0  0
    8.0696    0.1289    0.2973 C   0  0  0  0  0  0  0  0  0  0  0  0
    9.0853   -0.0583    0.6756 H   0  0  0  0  0  0  0  0  0  0  0  0
    7.8688    0.9389   -0.8329 C   0  0  0  0  0  0  0  0  0  0  0  0
    8.7278    1.3939   -1.3493 H   0  0  0  0  0  0  0  0  0  0  0  0
    6.5775    1.1734   -1.3149 C   0  0  0  0  0  0  0  0  0  0  0  0
    6.4286    1.8073   -2.2041 H   0  0  0  0  0  0  0  0  0  0  0  0
    5.4509    0.6012   -0.6744 C   0  0  0  0  0  0  0  0  0  0  0  0
    2.9264    0.4417   -0.9349 C   0  0  0  0  0  0  0  0  0  0  0  0
    1.2997   -1.9022    1.0414 C   0  0  0  0  0  3  0  0  0  0  0  0
   -0.1039   -2.3289    1.3613 C   0  0  0  0  0  0  0  0  0  0  0  0
   -0.8350   -1.7246    0.7904 H   0  0  0  0  0  0  0  0  0  0  0  0
   -0.2835   -2.1332    2.4444 H   0  0  0  0  0  0  0  0  0  0  0  0
   -0.3038   -3.8314    1.0859 C   0  0  0  0  0  0  0  0  0  0  0  0
   -1.3211   -4.1357    1.4071 H   0  0  0  0  0  0  0  0  0  0  0  0
   -0.2587   -3.9926   -0.0132 H   0  0  0  0  0  0  0  0  0  0  0  0
    0.7694   -4.6717    1.7871 C   0  0  0  0  0  0  0  0  0  0  0  0
    0.6355   -5.7472    1.5472 H   0  0  0  0  0  0  0  0  0  0  0  0
    0.6458   -4.5800    2.8902 H   0  0  0  0  0  0  0  0  0  0  0  0
    2.1795   -4.2149    1.3948 C   0  0  0  0  0  0  0  0  0  0  0  0
    2.3381   -4.4042    0.3107 H   0  0  0  0  0  0  0  0  0  0  0  0
    2.9502   -4.8041    1.9334 H   0  0  0  0  0  0  0  0  0  0  0  0
    2.4012   -2.7103    1.6673 C   0  0  0  0  0  0  0  0  0  0  0  0
    2.3844   -2.5336    2.7674 H   0  0  0  0  0  0  0  0  0  0  0  0
    3.3802   -2.3684    1.2856 H   0  0  0  0  0  0  0  0  0  0  0  0
    4.2025    1.5831   -1.9784 H   0  0  0  0  0  0  0  0  0  0  0  0
  1 16  1  0  0  0  0
  2 16  1  0  0  0  0
  2 15  1  0  0  0  0
  3  4  1  0  0  0  0
  4 17  1  0  0  0  0
  5  7  1  0  0  0  0
  5  6  1  0  0  0  0
  7  8  1  0  0  0  0
  9 10  1  0  0  0  0
  9  7  2  0  0  0  0
 11  9  1  0  0  0  0
 12 11  1  0  0  0  0
 13 11  2  0  0  0  0
 13 15  1  0  0  0  0
 14 13  1  0  0  0  0
 15  5  2  0  0  0  0
 16  3  2  0  0  0  0
 17 18  1  0  0  0  0
 17 30  1  0  0  0  0
 18 20  1  0  0  0  0
 19 18  1  0  0  0  0
 21 18  1  0  0  0  0
 21 22  1  0  0  0  0
 21 24  1  0  0  0  0
 23 21  1  0  0  0  0
 24 26  1  0  0  0  0
 25 24  1  0  0  0  0
 27 30  1  0  0  0  0
 27 24  1  0  0  0  0
 27 29  1  0  0  0  0
 28 27  1  0  0  0  0
 30 31  1  0  0  0  0
 32 30  1  0  0  0  0
 33  2  1  0  0  0  0
M  END
