3,8
q = -1.0, confidence = 0.002

 20 20  0  0  1  0  0  0  0  0999 V2000
   -0.1361    2.9041    0.0003 S   0  0  0  0  0  0  0  0  0  0  0  0
    2.3551    1.4049    0.0003 S   0  0  0  0  0  0  0  0  0  0  0  0
   -0.7260   -2.2650   -0.0007 S   0  0  0  0  0  1  0  0  0  0  0  0
    5.1070    1.2617    0.0004 O   0  0  0  0  0  0  0  0  0  0  0  0
    6.2187   -0.7391   -0.0001 O   0  0  0  0  0  0  0  0  0  0  0  0
    1.7748   -1.2924   -0.0003 N   0  0  0  0  0  0  0  0  0  0  0  0
    3.9880   -0.7627   -0.0001 N   0  0  0  0  0  0  0  0  0  0  0  0
   -0.1245    0.2223    0.0001 N   0  0  0  0  0  2  0  0  0  0  0  0
    0.4518   -1.0180   -0.0003 C   0  0  2  0  0  3  0  0  0  0  0  0
    2.6784   -0.3417   -0.0001 C   0  0  0  0  0  0  0  0  0  0  0  0
    0.5488    1.4014    0.0002 C   0  0  0  0  0  0  0  0  0  0  0  0
    5.1276    0.0455    0.0001 C   0  0  0  0  0  0  0  0  0  0  0  0
    7.4896   -0.0387    0.0002 C   0  0  0  0  0  0  0  0  0  0  0  0
    8.5900   -1.0769   -0.0004 C   0  0  0  0  0  0  0  0  0  0  0  0
    4.1069   -1.7818   -0.0004 H   0  0  0  0  0  0  0  0  0  0  0  0
    7.5277    0.6200   -0.8925 H   0  0  0  0  0  0  0  0  0  0  0  0
    7.5278    0.6191    0.8934 H   0  0  0  0  0  0  0  0  0  0  0  0
    8.5316   -1.7224    0.8980 H   0  0  0  0  0  0  0  0  0  0  0  0
    8.5315   -1.7215   -0.8994 H   0  0  0  0  0  0  0  0  0  0  0  0
    9.5764   -0.5731   -0.0002 H   0  0  0  0  0  0  0  0  0  0  0  0
  5 12  1  0  0  0  0
  5 13  1  0  0  0  0
  6  9  1  0  0  0  0
  6 10  2  0  0  0  0
  7 10  1  0  0  0  0
  7 12  1  0  0  0  0
  8 11  1  0  0  0  0
  9  3  1  1  0  0  0
  9  8  1  0  0  0  0
 10  2  1  0  0  0  0
 11  1  2  0  0  0  0
 11  2  1  0  0  0  0
 12  4  2  0  0  0  0
 13 17  1  0  0  0  0
 14 20  1  0  0  0  0
 14 13  1  0  0  0  0
 14 18  1  0  0  0  0
 15  7  1  0  0  0  0
 16 13  1  0  0  0  0
 19 14  1  0  0  0  0
M  END
