1,3
q = -1.0

  8  8  0  0  1  0  0  0  0  0999 V2000
    0.7780    1.7684   -1.7231 S   0  0  0  0  0  1  0  0  0  0  0  0
   -0.9898    4.2038   -0.6169 S   0  0  0  0  0  0  0  0  0  0  0  0
   -0.8330    1.7957    0.2693 N   0  0  0  0  0  2  0  0  0  0  0  0
   -0.3411    2.5841   -0.6921 C   0  0  1  0  0  3  0  0  0  0  0  0
   -1.7326    2.4199    1.0987 C   0  0  0  0  0  0  0  0  0  0  0  0
   -2.2052    1.8713    1.9237 H   0  0  0  0  0  0  0  0  0  0  0  0
   -1.9469    3.7382    0.7716 C   0  0  0  0  0  0  0  0  0  0  0  0
   -2.6066    4.4627    1.2624 H   0  0  0  0  0  0  0  0  0  0  0  0
  2  7  1  0  0  0  0
  3  5  1  0  0  0  0
  4  1  1  6  0  0  0
  4  2  1  0  0  0  0
  4  3  1  0  0  0  0
  5  6  1  0  0  0  0
  7  5  2  0  0  0  0
  7  8  1  0  0  0  0
M  END
