1,7
q = -1.0

 22 22  0  0  1  0  0  0  0  0999 V2000
   -1.0323   -2.0446   -1.9038 S   0  0  0  0  0  1  0  0  0  0  0  0
   -5.0103    0.1555   -0.9025 O   0  0  0  0  0  0  0  0  0  0  0  0
   -3.6205   -1.4655   -2.3871 N   0  0  0  0  0  0  0  0  0  0  0  0
   -4.4815   -0.9294   -2.0882 H   0  0  0  0  0  0  0  0  0  0  0  0
   -3.5526   -2.0947   -3.1847 H   0  0  0  0  0  0  0  0  0  0  0  0
   -2.7368   -0.4246   -0.5612 N   0  0  0  0  0  0  0  0  0  0  0  0
   -1.7350   -0.1325    0.3312 N   0  0  0  0  0  2  0  0  0  0  0  0
   -2.5485   -1.2787   -1.6119 C   0  0  2  0  0  3  0  0  0  0  0  0
   -2.2744    0.7245    1.2317 C   0  0  0  0  0  0  0  0  0  0  0  0
   -3.6255    1.0050    0.9572 C   0  0  0  0  0  0  0  0  0  0  0  0
   -3.9677    0.2744   -0.2214 C   0  0  0  0  0  0  0  0  0  0  0  0
   -1.4167    1.2500    2.3360 C   0  0  0  0  0  0  0  0  0  0  0  0
   -1.0180    2.2561    2.0871 H   0  0  0  0  0  0  0  0  0  0  0  0
   -0.5559    0.5760    2.5155 H   0  0  0  0  0  0  0  0  0  0  0  0
   -1.9946    1.3485    3.2755 H   0  0  0  0  0  0  0  0  0  0  0  0
   -4.5625    1.9297    1.6746 C   0  0  0  0  0  0  0  0  0  0  0  0
   -4.3248    1.9354    2.7604 H   0  0  0  0  0  0  0  0  0  0  0  0
   -5.5909    1.5205    1.5836 H   0  0  0  0  0  0  0  0  0  0  0  0
   -4.5418    3.3679    1.1328 C   0  0  0  0  0  0  0  0  0  0  0  0
   -5.2580    4.0176    1.6767 H   0  0  0  0  0  0  0  0  0  0  0  0
   -4.8145    3.3833    0.0584 H   0  0  0  0  0  0  0  0  0  0  0  0
   -3.5325    3.8190    1.2280 H   0  0  0  0  0  0  0  0  0  0  0  0
  2 11  2  0  0  0  0
  3  4  1  0  0  0  0
  3  8  1  0  0  0  0
  5  3  1  0  0  0  0
  6 11  1  0  0  0  0
  6  7  1  0  0  0  0
  7  9  1  0  0  0  0
  8  1  1  6  0  0  0
  8  6  1  0  0  0  0
  9 12  1  0  0  0  0
 10  9  2  0  0  0  0
 10 16  1  0  0  0  0
 11 10  1  0  0  0  0
 12 14  1  0  0  0  0
 12 15  1  0  0  0  0
 13 12  1  0  0  0  0
 16 17  1  0  0  0  0
 18 16  1  0  0  0  0
 19 22  1  0  0  0  0
 19 16  1  0  0  0  0
 19 20  1  0  0  0  0
 21 19  1  0  0  0  0
M  END
