1,6
q = -1.0

 22 22  0  0  1  0  0  0  0  0999 V2000
    1.8758   -1.0098   -1.4653 S   0  0  0  0  0  1  0  0  0  0  0  0
    4.7235    1.7464    0.9851 O   0  0  0  0  0  0  0  0  0  0  0  0
    4.3375   -0.0956   -0.8116 N   0  0  0  0  0  0  0  0  0  0  0  0
    4.8690    0.5723   -0.1785 H   0  0  0  0  0  0  0  0  0  0  0  0
    2.6162    0.9077    0.3061 N   0  0  0  0  0  0  0  0  0  0  0  0
    1.2911    1.1203    0.5949 N   0  0  0  0  0  2  0  0  0  0  0  0
    3.0179   -0.0222   -0.6206 C   0  0  1  0  0  3  0  0  0  0  0  0
    1.2595    2.0908    1.5362 C   0  0  0  0  0  0  0  0  0  0  0  0
    2.5492    2.5258    1.8765 C   0  0  0  0  0  0  0  0  0  0  0  0
    2.8207    3.2974    2.6024 H   0  0  0  0  0  0  0  0  0  0  0  0
    3.4792    1.7800    1.0961 C   0  0  0  0  0  0  0  0  0  0  0  0
    4.9944   -1.0414   -1.6981 C   0  0  0  0  0  0  0  0  0  0  0  0
    5.9384   -0.5676   -2.0362 H   0  0  0  0  0  0  0  0  0  0  0  0
    4.3534   -1.1798   -2.5939 H   0  0  0  0  0  0  0  0  0  0  0  0
    5.2748   -2.3914   -1.0340 C   0  0  0  0  0  0  0  0  0  0  0  0
    5.7948   -3.0667   -1.7424 H   0  0  0  0  0  0  0  0  0  0  0  0
    4.3272   -2.8773   -0.7277 H   0  0  0  0  0  0  0  0  0  0  0  0
    5.9144   -2.2714   -0.1369 H   0  0  0  0  0  0  0  0  0  0  0  0
   -0.0621    2.5268    2.0816 C   0  0  0  0  0  0  0  0  0  0  0  0
   -0.8634    2.3645    1.3332 H   0  0  0  0  0  0  0  0  0  0  0  0
   -0.0429    3.5968    2.3620 H   0  0  0  0  0  0  0  0  0  0  0  0
   -0.3257    1.9457    2.9904 H   0  0  0  0  0  0  0  0  0  0  0  0
  2 11  2  0  0  0  0
  3  7  1  0  0  0  0
  3  4  1  0  0  0  0
  5  6  1  0  0  0  0
  5 11  1  0  0  0  0
  6  8  1  0  0  0  0
  7  1  1  6  0  0  0
  7  5  1  0  0  0  0
  8  9  2  0  0  0  0
  8 19  1  0  0  0  0
  9 10  1  0  0  0  0
 11  9  1  0  0  0  0
 12 15  1  0  0  0  0
 12  3  1  0  0  0  0
 13 12  1  0  0  0  0
 14 12  1  0  0  0  0
 15 17  1  0  0  0  0
 15 18  1  0  0  0  0
 16 15  1  0  0  0  0
 19 21  1  0  0  0  0
 19 22  1  0  0  0  0
 20 19  1  0  0  0  0
M  END
