1,4
q = -1.0

 40 41  0  0  1  0  0  0  0  0999 V2000
    0.4112    2.1197   -0.4852 S   0  0  0  0  0  1  0  0  0  0  0  0
    2.6876    3.6877    0.5804 S   0  0  0  0  0  0  0  0  0  0  0  0
    2.6072    1.0039    0.6070 N   0  0  0  0  0  2  0  0  0  0  0  0
    1.8913   -0.1350    0.3048 N   0  0  0  0  0  2  0  0  0  0  0  0
    8.0949   -2.6618    0.1034 N   0  0  0  0  0  0  0  0  0  0  0  0
    1.9730    2.1006    0.2843 C   0  0  2  0  0  3  0  0  0  0  0  0
    2.5748   -1.2582    0.1492 C   0  0  0  0  0  3  0  0  0  0  0  0
    3.9932   -1.5295    0.1913 C   0  0  0  0  0  0  0  0  0  0  0  0
    5.0343   -0.5750    0.3504 C   0  0  0  0  0  0  0  0  0  0  0  0
    6.3731   -0.9449    0.3250 C   0  0  0  0  0  0  0  0  0  0  0  0
    6.7649   -2.3036    0.1439 C   0  0  0  0  0  0  0  0  0  0  0  0
    5.7259   -3.2712   -0.0011 C   0  0  0  0  0  0  0  0  0  0  0  0
    4.3902   -2.8855    0.0184 C   0  0  0  0  0  0  0  0  0  0  0  0
    9.1213   -1.6443    0.2257 C   0  0  0  0  0  0  0  0  0  0  0  0
    8.4703   -4.0501   -0.0756 C   0  0  0  0  0  0  0  0  0  0  0  0
    4.3113    3.2472    1.2896 C   0  0  0  0  0  0  0  0  0  0  0  0
    5.4434    2.9663    0.3205 C   0  0  0  0  0  0  0  0  0  0  0  0
    5.2435    2.7805   -1.0587 C   0  0  0  0  0  0  0  0  0  0  0  0
    6.3221    2.4707   -1.9018 C   0  0  0  0  0  0  0  0  0  0  0  0
    7.6187    2.3497   -1.3802 C   0  0  0  0  0  0  0  0  0  0  0  0
    7.8307    2.5416   -0.0045 C   0  0  0  0  0  0  0  0  0  0  0  0
    6.7509    2.8446    0.8374 C   0  0  0  0  0  0  0  0  0  0  0  0
    1.9357   -2.1287   -0.0695 H   0  0  0  0  0  0  0  0  0  0  0  0
    4.7646    0.4768    0.4767 H   0  0  0  0  0  0  0  0  0  0  0  0
    7.1245   -0.1533    0.4338 H   0  0  0  0  0  0  0  0  0  0  0  0
    5.9681   -4.3327   -0.1390 H   0  0  0  0  0  0  0  0  0  0  0  0
    3.6123   -3.6558   -0.1056 H   0  0  0  0  0  0  0  0  0  0  0  0
    9.0786   -1.1216    1.2079 H   0  0  0  0  0  0  0  0  0  0  0  0
    9.0328   -0.8671   -0.5661 H   0  0  0  0  0  0  0  0  0  0  0  0
   10.1164   -2.1153    0.1334 H   0  0  0  0  0  0  0  0  0  0  0  0
    9.5717   -4.1361   -0.0696 H   0  0  0  0  0  0  0  0  0  0  0  0
    8.1008   -4.4636   -1.0413 H   0  0  0  0  0  0  0  0  0  0  0  0
    8.0741   -4.6978    0.7385 H   0  0  0  0  0  0  0  0  0  0  0  0
    4.5678    4.1007    1.9504 H   0  0  0  0  0  0  0  0  0  0  0  0
    4.1334    2.3637    1.9386 H   0  0  0  0  0  0  0  0  0  0  0  0
    4.2268    2.8796   -1.4681 H   0  0  0  0  0  0  0  0  0  0  0  0
    6.1439    2.3210   -2.9775 H   0  0  0  0  0  0  0  0  0  0  0  0
    8.4639    2.1102   -2.0435 H   0  0  0  0  0  0  0  0  0  0  0  0
    8.8448    2.4573    0.4163 H   0  0  0  0  0  0  0  0  0  0  0  0
    6.9223    2.9875    1.9167 H   0  0  0  0  0  0  0  0  0  0  0  0
  2 16  1  0  0  0  0
  4  3  1  0  0  0  0
  5 11  1  0  0  0  0
  5 14  1  0  0  0  0
  6  1  1  6  0  0  0
  6  2  1  0  0  0  0
  6  3  1  0  0  0  0
  7  8  1  0  0  0  0
  7  4  1  0  0  0  0
  8  9  1  0  0  0  0
  9 24  1  0  0  0  0
 10  9  2  0  0  0  0
 10 25  1  0  0  0  0
 11 10  1  0  0  0  0
 12 13  1  0  0  0  0
 12 11  2  0  0  0  0
 13  8  2  0  0  0  0
 14 28  1  0  0  0  0
 15 31  1  0  0  0  0
 15  5  1  0  0  0  0
 15 33  1  0  0  0  0
 16 35  1  0  0  0  0
 16 34  1  0  0  0  0
 17 22  1  0  0  0  0
 17 16  1  0  0  0  0
 18 17  2  0  0  0  0
 19 20  2  0  0  0  0
 19 18  1  0  0  0  0
 20 21  1  0  0  0  0
 21 39  1  0  0  0  0
 21 22  2  0  0  0  0
 22 40  1  0  0  0  0
 23  7  1  0  0  0  0
 26 12  1  0  0  0  0
 27 13  1  0  0  0  0
 29 14  1  0  0  0  0
 30 14  1  0  0  0  0
 32 15  1  0  0  0  0
 36 18  1  0  0  0  0
 37 19  1  0  0  0  0
 38 20  1  0  0  0  0
M  END
