1,9
q = -1.0

 30 30  0  0  1  0  0  0  0  0999 V2000
    0.2072    2.1125   -0.6162 S   0  0  0  0  0  1  0  0  0  0  0  0
   -1.4020    2.5450   -0.1103 C   0  0  1  0  0  3  0  0  0  0  0  0
   -1.7479    4.2684   -0.0679 S   0  0  0  0  0  0  0  0  0  0  0  0
   -3.5280    4.2751    0.3014 C   0  0  0  0  0  0  0  0  0  0  0  0
   -3.7263    3.7484    1.2539 H   0  0  0  0  0  0  0  0  0  0  0  0
   -3.8178    5.3397    0.3878 H   0  0  0  0  0  0  0  0  0  0  0  0
   -4.0985    3.7942   -0.5162 H   0  0  0  0  0  0  0  0  0  0  0  0
   -2.3289    1.6688    0.1871 N   0  0  0  0  0  2  0  0  0  0  0  0
   -1.8921    0.3684    0.0687 N   0  0  0  0  0  2  0  0  0  0  0  0
   -2.8221   -0.5688   -0.0322 C   0  0  0  0  0  3  0  0  0  0  0  0
   -4.2660   -0.4959   -0.0223 C   0  0  0  0  0  0  0  0  0  0  0  0
   -4.9587   -1.7298   -0.1761 C   0  0  0  0  0  0  0  0  0  0  0  0
   -6.3461   -1.8095   -0.1827 C   0  0  0  0  0  0  0  0  0  0  0  0
   -7.1438   -0.6367   -0.0302 C   0  0  0  0  0  0  0  0  0  0  0  0
   -8.5208   -0.6997   -0.0361 N   0  0  0  0  0  0  0  0  0  0  0  0
   -9.1890   -1.9758   -0.1995 C   0  0  0  0  0  0  0  0  0  0  0  0
   -8.9282   -2.4632   -1.1658 H   0  0  0  0  0  0  0  0  0  0  0  0
  -10.2827   -1.8214   -0.1833 H   0  0  0  0  0  0  0  0  0  0  0  0
   -8.9334   -2.6902    0.6153 H   0  0  0  0  0  0  0  0  0  0  0  0
   -9.3046    0.5086    0.1291 C   0  0  0  0  0  0  0  0  0  0  0  0
  -10.3793    0.2552    0.0960 H   0  0  0  0  0  0  0  0  0  0  0  0
   -9.1043    1.2502   -0.6766 H   0  0  0  0  0  0  0  0  0  0  0  0
   -9.1020    1.0094    1.1026 H   0  0  0  0  0  0  0  0  0  0  0  0
   -6.4561    0.6028    0.1299 C   0  0  0  0  0  0  0  0  0  0  0  0
   -5.0662    0.6696    0.1323 C   0  0  0  0  0  0  0  0  0  0  0  0
   -4.5551    1.6296    0.2596 H   0  0  0  0  0  0  0  0  0  0  0  0
   -7.0221    1.5349    0.2551 H   0  0  0  0  0  0  0  0  0  0  0  0
   -6.8185   -2.7922   -0.3054 H   0  0  0  0  0  0  0  0  0  0  0  0
   -4.3731   -2.6557   -0.2921 H   0  0  0  0  0  0  0  0  0  0  0  0
   -2.4084   -1.5826   -0.1505 H   0  0  0  0  0  0  0  0  0  0  0  0
  2  1  1  6  0  0  0
  2  3  1  0  0  0  0
  2  8  1  0  0  0  0
  3  4  1  0  0  0  0
  4  6  1  0  0  0  0
  4  5  1  0  0  0  0
  7  4  1  0  0  0  0
  9  8  1  0  0  0  0
 10 11  1  0  0  0  0
 10  9  1  0  0  0  0
 11 25  1  0  0  0  0
 12 11  2  0  0  0  0
 13 12  1  0  0  0  0
 13 14  2  0  0  0  0
 14 24  1  0  0  0  0
 15 14  1  0  0  0  0
 15 20  1  0  0  0  0
 16 18  1  0  0  0  0
 16 15  1  0  0  0  0
 16 19  1  0  0  0  0
 17 16  1  0  0  0  0
 20 23  1  0  0  0  0
 21 20  1  0  0  0  0
 22 20  1  0  0  0  0
 24 25  2  0  0  0  0
 24 27  1  0  0  0  0
 25 26  1  0  0  0  0
 28 13  1  0  0  0  0
 29 12  1  0  0  0  0
 30 10  1  0  0  0  0
M  END
