1,3
q = -1.0

 12 12  0  0  1  0  0  0  0  0999 V2000
    1.6540    2.3452    0.5023 S   0  0  0  0  0  1  0  0  0  0  0  0
    3.9004    1.6597    0.2830 S   0  0  0  0  0  0  0  0  0  0  0  0
    2.3219   -0.5074   -0.2492 N   0  0  0  0  0  2  0  0  0  0  0  0
    3.5920   -0.0068   -0.0212 C   0  0  2  0  0  3  0  0  0  0  0  0
    4.7042   -0.9004    0.0286 C   0  0  0  0  0  0  0  0  0  0  0  0
    4.5145   -2.2703   -0.0626 C   0  0  0  0  0  0  0  0  0  0  0  0
    3.2012   -2.7724   -0.2009 C   0  0  0  0  0  0  0  0  0  0  0  0
    2.1588   -1.8622   -0.2926 C   0  0  0  0  0  0  0  0  0  0  0  0
    5.7059   -0.4737    0.1739 H   0  0  0  0  0  0  0  0  0  0  0  0
    5.3767   -2.9524   -0.0076 H   0  0  0  0  0  0  0  0  0  0  0  0
    2.9906   -3.8492   -0.2493 H   0  0  0  0  0  0  0  0  0  0  0  0
    1.1199   -2.1991   -0.4110 H   0  0  0  0  0  0  0  0  0  0  0  0
  2  1  1  0  0  0  0
  3  4  1  0  0  0  0
  4  5  1  0  0  0  0
  4  2  1  1  0  0  0
  5  9  1  0  0  0  0
  6 10  1  0  0  0  0
  6  5  2  0  0  0  0
  7  6  1  0  0  0  0
  8  3  1  0  0  0  0
  8  7  2  0  0  0  0
 11  7  1  0  0  0  0
 12  8  1  0  0  0  0
M  END
