1,2
q = -1.0

 36 38  0  0  1  0  0  0  0  0999 V2000
   -1.1842   -1.0289   -3.1371 S   0  0  0  0  0  1  0  0  0  0  0  0
   -0.4744   -1.3778   -0.3836 N   0  0  0  0  0  2  0  0  0  0  0  0
   -2.1325   -1.9710   -2.0041 C   0  0  0  0  0  0  0  0  0  0  0  0
   -1.6935   -2.0474   -0.6515 C   0  0  0  0  0  0  0  0  0  0  0  0
   -2.4409   -2.7796    0.2946 C   0  0  0  0  0  0  0  0  0  0  0  0
   -2.1155   -2.8226    1.3442 H   0  0  0  0  0  0  0  0  0  0  0  0
   -3.6256   -3.4182   -0.0875 C   0  0  0  0  0  0  0  0  0  0  0  0
   -4.2205   -3.9601    0.6623 H   0  0  0  0  0  0  0  0  0  0  0  0
   -4.0569   -3.3567   -1.4296 C   0  0  0  0  0  0  0  0  0  0  0  0
   -4.9876   -3.8611   -1.7311 H   0  0  0  0  0  0  0  0  0  0  0  0
   -3.3156   -2.6487   -2.3797 C   0  0  0  0  0  0  0  0  0  0  0  0
   -3.6497   -2.5939   -3.4266 H   0  0  0  0  0  0  0  0  0  0  0  0
    0.3043   -1.7724    0.6044 C   0  0  0  0  0  3  0  0  0  0  0  0
   -0.0780   -2.5696    1.2716 H   0  0  0  0  0  0  0  0  0  0  0  0
    2.2390   -1.5473    2.2552 C   0  0  1  0  0  0  0  0  0  0  0  0
    1.4981   -1.9543    2.9737 H   0  0  0  0  0  0  0  0  0  0  0  0
    1.6525   -1.3383    0.8669 C   0  0  0  0  0  0  0  0  0  0  0  0
    2.5047   -0.8336   -0.0827 C   0  0  0  0  0  0  0  0  0  0  0  0
    2.1817   -0.7228   -1.1332 H   0  0  0  0  0  0  0  0  0  0  0  0
    3.9248   -0.5219    0.2919 C   0  0  0  0  0  0  0  0  0  0  0  0
    4.1410    0.5486    0.0717 H   0  0  0  0  0  0  0  0  0  0  0  0
    4.6181   -1.0973   -0.3629 H   0  0  0  0  0  0  0  0  0  0  0  0
    4.1787   -0.8279    1.7774 C   0  0  2  0  0  0  0  0  0  0  0  0
    5.2189   -0.5794    2.0741 H   0  0  0  0  0  0  0  0  0  0  0  0
    3.6456   -2.2612    2.1567 C   0  0  0  0  0  0  0  0  0  0  0  0
    3.0081   -0.2440    2.6164 C   0  0  0  0  0  0  0  0  0  0  0  0
    2.5595    0.7068    2.2674 H   0  0  0  0  0  0  0  0  0  0  0  0
    3.2460   -0.1623    3.6924 H   0  0  0  0  0  0  0  0  0  0  0  0
    4.1529   -2.7209    3.5290 C   0  0  0  0  0  0  0  0  0  0  0  0
    3.5878   -3.6119    3.8736 H   0  0  0  0  0  0  0  0  0  0  0  0
    4.0622   -1.9438    4.3120 H   0  0  0  0  0  0  0  0  0  0  0  0
    5.2230   -3.0086    3.4671 H   0  0  0  0  0  0  0  0  0  0  0  0
    3.8235   -3.4015    1.1578 C   0  0  0  0  0  0  0  0  0  0  0  0
    3.4232   -3.1659    0.1541 H   0  0  0  0  0  0  0  0  0  0  0  0
    3.3059   -4.3158    1.5165 H   0  0  0  0  0  0  0  0  0  0  0  0
    4.8991   -3.6527    1.0471 H   0  0  0  0  0  0  0  0  0  0  0  0
  1  3  1  0  0  0  0
  2 13  1  0  0  0  0
  3  4  1  0  0  0  0
  4  2  1  0  0  0  0
  4  5  2  0  0  0  0
  5  6  1  0  0  0  0
  7  5  1  0  0  0  0
  7  8  1  0  0  0  0
  9  7  2  0  0  0  0
 10  9  1  0  0  0  0
 11  3  2  0  0  0  0
 11  9  1  0  0  0  0
 12 11  1  0  0  0  0
 13 17  1  0  0  0  0
 13 14  1  0  0  0  0
 15 26  1  0  0  0  0
 15 16  1  1  0  0  0
 17 15  1  0  0  0  0
 18 20  1  0  0  0  0
 18 17  2  0  0  0  0
 19 18  1  0  0  0  0
 20 23  1  0  0  0  0
 21 20  1  0  0  0  0
 22 20  1  0  0  0  0
 23 24  1  1  0  0  0
 23 25  1  0  0  0  0
 23 26  1  0  0  0  0
 25 15  1  0  0  0  0
 25 29  1  0  0  0  0
 26 28  1  0  0  0  0
 27 26  1  0  0  0  0
 29 30  1  0  0  0  0
 29 31  1  0  0  0  0
 32 29  1  0  0  0  0
 33 35  1  0  0  0  0
 33 25  1  0  0  0  0
 34 33  1  0  0  0  0
 36 33  1  0  0  0  0
M  END
