1,2
q = -1.0, confidence = 0.02

 40 42  0  0  0  0  0  0  0  0999 V2000
    0.2035    2.0110    0.1173 S   0  0  0  0  0  1  0  0  0  0  0  0
   -1.5038   -0.3535    0.1535 N   0  0  0  0  0  2  0  0  0  0  0  0
   -2.2280    3.0876    0.2771 N   0  0  0  0  0  0  0  0  0  0  0  0
   -1.6704    3.9365    0.1787 H   0  0  0  0  0  0  0  0  0  0  0  0
   -2.2528    0.7803    0.1926 N   0  0  0  0  0  0  0  0  0  0  0  0
   -5.8027   -1.5674    0.0504 N   0  0  0  0  0  0  0  0  0  0  0  0
   -6.7307   -1.1474    0.0402 H   0  0  0  0  0  0  0  0  0  0  0  0
   -3.5457   -1.7553    0.0852 C   0  0  0  0  0  0  0  0  0  0  0  0
   -3.6780    3.1994    0.2666 C   0  0  0  0  0  0  0  0  0  0  0  0
   -4.0571    2.3740    0.9109 H   0  0  0  0  0  0  0  0  0  0  0  0
   -3.5851   -4.3918    0.0242 C   0  0  0  0  0  0  0  0  0  0  0  0
   -2.4952   -4.5438    0.0418 H   0  0  0  0  0  0  0  0  0  0  0  0
   -4.1277   -3.0903    0.0440 C   0  0  0  0  0  0  0  0  0  0  0  0
   -5.5474   -2.9310    0.0228 C   0  0  0  0  0  0  0  0  0  0  0  0
   -2.1313   -1.5095    0.1072 C   0  0  0  0  0  3  0  0  0  0  0  0
   -1.4507   -2.3765    0.0825 H   0  0  0  0  0  0  0  0  0  0  0  0
   -1.5595    1.9015    0.1957 C   0  0  0  0  0  0  0  0  0  0  0  0
   -4.6257   -0.8602    0.0876 C   0  0  0  0  0  0  0  0  0  0  0  0
   -4.5979    0.2314    0.1125 H   0  0  0  0  0  0  0  0  0  0  0  0
   -4.2813    3.0148   -1.1393 C   0  0  0  0  0  0  0  0  0  0  0  0
   -3.9607    2.0332   -1.5431 H   0  0  0  0  0  0  0  0  0  0  0  0
   -3.8572    3.7963   -1.8087 H   0  0  0  0  0  0  0  0  0  0  0  0
   -5.8616   -5.3044   -0.0382 C   0  0  0  0  0  0  0  0  0  0  0  0
   -6.5205   -6.1852   -0.0704 H   0  0  0  0  0  0  0  0  0  0  0  0
   -4.1129    4.5355    0.8816 C   0  0  0  0  0  0  0  0  0  0  0  0
   -3.6810    5.3653    0.2747 H   0  0  0  0  0  0  0  0  0  0  0  0
   -3.6900    4.6307    1.9033 H   0  0  0  0  0  0  0  0  0  0  0  0
   -4.4574   -5.4850   -0.0170 C   0  0  0  0  0  0  0  0  0  0  0  0
   -4.0470   -6.5058   -0.0327 H   0  0  0  0  0  0  0  0  0  0  0  0
   -6.4281   -4.0244   -0.0184 C   0  0  0  0  0  0  0  0  0  0  0  0
   -7.5193   -3.8828   -0.0343 H   0  0  0  0  0  0  0  0  0  0  0  0
   -5.8097    3.1330   -1.1050 C   0  0  0  0  0  0  0  0  0  0  0  0
   -6.2265    2.2933   -0.5021 H   0  0  0  0  0  0  0  0  0  0  0  0
   -6.2279    3.0163   -2.1264 H   0  0  0  0  0  0  0  0  0  0  0  0
   -5.6414    4.6676    0.9063 C   0  0  0  0  0  0  0  0  0  0  0  0
   -6.0571    3.9054    1.6031 H   0  0  0  0  0  0  0  0  0  0  0  0
   -5.9309    5.6558    1.3201 H   0  0  0  0  0  0  0  0  0  0  0  0
   -6.2543    4.4651   -0.4862 C   0  0  0  0  0  0  0  0  0  0  0  0
   -5.9323    5.2978   -1.1513 H   0  0  0  0  0  0  0  0  0  0  0  0
   -7.3617    4.5207   -0.4313 H   0  0  0  0  0  0  0  0  0  0  0  0
  1 17  1  0  0  0  0
  2  5  1  0  0  0  0
  4  3  1  0  0  0  0
  5 17  2  0  0  0  0
  6 18  1  0  0  0  0
  7  6  1  0  0  0  0
  8 18  2  0  0  0  0
  8 15  1  0  0  0  0
  9  3  1  0  0  0  0
  9 25  1  0  0  0  0
  9 10  1  0  0  0  0
 11 12  1  0  0  0  0
 11 13  1  0  0  0  0
 13  8  1  0  0  0  0
 14 13  2  0  0  0  0
 14  6  1  0  0  0  0
 15  2  1  0  0  0  0
 16 15  1  0  0  0  0
 17  3  1  0  0  0  0
 18 19  1  0  0  0  0
 20 32  1  0  0  0  0
 20  9  1  0  0  0  0
 21 20  1  0  0  0  0
 22 20  1  0  0  0  0
 23 30  2  0  0  0  0
 23 28  1  0  0  0  0
 24 23  1  0  0  0  0
 25 35  1  0  0  0  0
 25 27  1  0  0  0  0
 26 25  1  0  0  0  0
 28 11  2  0  0  0  0
 29 28  1  0  0  0  0
 30 14  1  0  0  0  0
 31 30  1  0  0  0  0
 32 33  1  0  0  0  0
 32 38  1  0  0  0  0
 34 32  1  0  0  0  0
 35 37  1  0  0  0  0
 35 36  1  0  0  0  0
 38 40  1  0  0  0  0
 38 35  1  0  0  0  0
 39 38  1  0  0  0  0
M  END
