1,2
q = -1.0, confidence = 0.0

 13 14  0  0  1  0  0  0  0  0999 V2000
    1.1827   -1.5257   -2.3267 S   0  0  0  0  0  1  0  0  0  0  0  0
    1.3626   -1.9353    0.8569 N   0  0  0  0  0  2  0  0  0  0  0  0
    3.0688   -2.7861    2.0412 N   0  0  0  0  0  0  0  0  0  0  0  0
    3.6489   -3.0377    2.8424 H   0  0  0  0  0  0  0  0  0  0  0  0
    3.5360   -2.8750   -1.9823 N   0  0  0  0  0  0  0  0  0  0  0  0
    4.5287   -3.4599    0.1681 N   0  0  0  0  0  2  0  0  0  0  0  0
    2.4227   -2.3365   -1.4241 C   0  0  1  0  0  3  0  0  0  0  0  0
    4.4852   -3.3930   -1.1823 C   0  0  0  0  0  0  0  0  0  0  0  0
    5.3648   -3.8158   -1.7028 H   0  0  0  0  0  0  0  0  0  0  0  0
    3.4165   -2.9481    0.7065 C   0  0  0  0  0  0  0  0  0  0  0  0
    1.8373   -2.1680    2.0767 C   0  0  0  0  0  3  0  0  0  0  0  0
    1.3348   -1.9080    3.0162 H   0  0  0  0  0  0  0  0  0  0  0  0
    2.3311   -2.4106   -0.0080 C   0  0  0  0  0  0  0  0  0  0  0  0
  2 11  1  0  0  0  0
  3 11  1  0  0  0  0
  3  4  1  0  0  0  0
  5  7  1  0  0  0  0
  5  8  2  0  0  0  0
  6 10  1  0  0  0  0
  7  1  1  1  0  0  0
  7 13  1  0  0  0  0
  8  6  1  0  0  0  0
  9  8  1  0  0  0  0
 10  3  1  0  0  0  0
 11 12  1  0  0  0  0
 13 10  2  0  0  0  0
 13  2  1  0  0  0  0
M  END
