2,5
q = -1.0, confidence = 0.0

 16 17  0  0  1  0  0  0  0  0999 V2000
    2.4686    1.8160    1.3686 S   0  0  0  0  0  0  0  0  0  0  0  0
    1.4229   -0.0481   -2.2111 S   0  0  0  0  0  1  0  0  0  0  0  0
    3.1869    0.9289    2.3190 O   0  0  0  0  0  0  0  0  0  0  0  0
    1.6264    2.9002    1.9006 O   0  0  0  0  0  0  0  0  0  0  0  0
    1.6056    0.8405    0.2536 N   0  0  0  0  0  2  0  0  0  0  0  0
    3.6020    2.4210    0.0986 C   0  0  0  0  0  0  0  0  0  0  0  0
    4.6501    3.3305    0.2297 C   0  0  0  0  0  0  0  0  0  0  0  0
    4.8880    3.7915    1.1995 H   0  0  0  0  0  0  0  0  0  0  0  0
    5.3858    3.6371   -0.9302 C   0  0  0  0  0  0  0  0  0  0  0  0
    6.2195    4.3527   -0.8686 H   0  0  0  0  0  0  0  0  0  0  0  0
    5.0670    3.0437   -2.1672 C   0  0  0  0  0  0  0  0  0  0  0  0
    5.6559    3.3031   -3.0596 H   0  0  0  0  0  0  0  0  0  0  0  0
    4.0058    2.1300   -2.2767 C   0  0  0  0  0  0  0  0  0  0  0  0
    3.7359    1.6579   -3.2334 H   0  0  0  0  0  0  0  0  0  0  0  0
    3.2680    1.8196   -1.1266 C   0  0  0  0  0  0  0  0  0  0  0  0
    2.1111    0.8979   -0.9875 C   0  0  1  0  0  3  0  0  0  0  0  0
  1  4  2  0  0  0  0
  1  3  2  0  0  0  0
  5  1  1  0  0  0  0
  6  7  1  0  0  0  0
  6  1  1  0  0  0  0
  7  8  1  0  0  0  0
  9 10  1  0  0  0  0
  9  7  2  0  0  0  0
 11  9  1  0  0  0  0
 12 11  1  0  0  0  0
 13 11  2  0  0  0  0
 13 15  1  0  0  0  0
 14 13  1  0  0  0  0
 15 16  1  0  0  0  0
 15  6  2  0  0  0  0
 16  2  1  1  0  0  0
 16  5  1  0  0  0  0
M  END
