1,5
q = 0.0, confidence = 0.986

 28 28  0  0  1  0  0  0  0  0999 V2000
   -3.0146    0.1337    0.7067 S   0  0  0  0  0  1  0  0  0  0  0  0
   -4.9834    0.1101   -1.6318 S   0  0  0  0  0  0  0  0  0  0  0  0
    3.6313    0.5494    0.5178 S   0  0  0  0  0  0  0  0  0  0  0  0
    1.6809   -0.1871   -1.0873 N   0  0  0  0  0  0  0  0  0  0  0  0
   -1.1009   -0.2637   -1.5417 N   0  0  0  0  0  2  0  0  0  0  0  0
    3.9055   -0.4327   -1.9610 N   0  0  0  0  0  0  0  0  0  0  0  0
   -2.4167   -0.2674   -1.8551 N   0  0  0  0  0  0  0  0  0  0  0  0
   -2.6854   -0.4720   -2.8271 H   0  0  0  0  0  0  0  0  0  0  0  0
    3.0214   -0.0895   -1.0101 C   0  0  0  0  0  0  0  0  0  0  0  0
    5.4234    0.5181    0.2264 C   0  0  0  0  0  0  0  0  0  0  0  0
    5.8820    0.9135    1.1524 H   0  0  0  0  0  0  0  0  0  0  0  0
    5.6884    1.1598   -0.6338 H   0  0  0  0  0  0  0  0  0  0  0  0
    5.7709   -0.5138    0.0366 H   0  0  0  0  0  0  0  0  0  0  0  0
    3.4210   -0.8874   -3.1324 C   0  0  0  0  0  0  0  0  0  0  0  0
    4.4190   -1.2639   -4.1864 C   0  0  0  0  0  0  0  0  0  0  0  0
    3.9396   -1.6814   -5.0904 H   0  0  0  0  0  0  0  0  0  0  0  0
    5.1377   -2.0019   -3.7772 H   0  0  0  0  0  0  0  0  0  0  0  0
    5.0153   -0.3736   -4.4733 H   0  0  0  0  0  0  0  0  0  0  0  0
    2.0304   -0.9937   -3.3349 C   0  0  0  0  0  3  0  0  0  0  0  0
    1.6189   -1.3470   -4.2911 H   0  0  0  0  0  0  0  0  0  0  0  0
    1.1901   -0.6296   -2.2608 C   0  0  0  0  0  0  0  0  0  0  0  0
   -0.2553   -0.7135   -2.4329 C   0  0  0  0  0  0  0  0  0  0  0  0
   -0.6334   -1.1389   -3.3813 H   0  0  0  0  0  0  0  0  0  0  0  0
   -3.3887   -0.0179   -0.9118 C   0  0  1  0  0  3  0  0  0  0  0  0
   -6.0262    0.2782   -0.1615 C   0  0  0  0  0  0  0  0  0  0  0  0
   -7.0612    0.3414   -0.5474 H   0  0  0  0  0  0  0  0  0  0  0  0
   -5.7626    1.2016    0.3873 H   0  0  0  0  0  0  0  0  0  0  0  0
   -5.9129   -0.6056    0.4948 H   0  0  0  0  0  0  0  0  0  0  0  0
  2 24  1  0  0  0  0
  2 25  1  0  0  0  0
  4  9  2  0  0  0  0
  6  9  1  0  0  0  0
  7  5  1  0  0  0  0
  7 24  1  0  0  0  0
  8  7  1  0  0  0  0
  9  3  1  0  0  0  0
 10  3  1  0  0  0  0
 10 11  1  0  0  0  0
 12 10  1  0  0  0  0
 13 10  1  0  0  0  0
 14  6  2  0  0  0  0
 15 17  1  0  0  0  0
 15 14  1  0  0  0  0
 16 15  1  0  0  0  0
 18 15  1  0  0  0  0
 19 14  1  0  0  0  0
 19 21  1  0  0  0  0
 20 19  1  0  0  0  0
 21  4  1  0  0  0  0
 22 21  2  0  0  0  0
 22  5  1  0  0  0  0
 23 22  1  0  0  0  0
 24  1  1  6  0  0  0
 25 27  1  0  0  0  0
 25 28  1  0  0  0  0
 26 25  1  0  0  0  0
M  END
