3,4
q = -1.0, confidence = 0.002

 25 26  0  0  0  0  0  0  0  0999 V2000
   -0.6426    3.6637   -1.6119 Cl  0  0  0  0  0  0  0  0  0  0  0  0
    1.7588   -1.2061   -2.3261 Cl  0  0  0  0  0  0  0  0  0  0  0  0
   -1.3906   -3.1977   -0.5986 S   0  0  0  0  0  1  0  0  0  0  0  0
   -1.0889   -0.3723   -0.9759 N   0  0  0  0  0  2  0  0  0  0  0  0
   -0.7073    0.6836   -1.6530 C   0  0  0  0  0  3  0  0  0  0  0  0
    0.6385    1.2402   -1.7570 C   0  0  0  0  0  0  0  0  0  0  0  0
    0.7849    2.6574   -1.7350 C   0  0  0  0  0  0  0  0  0  0  0  0
    2.0307    3.2881   -1.7877 C   0  0  0  0  0  0  0  0  0  0  0  0
    3.1875    2.5030   -1.9109 C   0  0  0  0  0  0  0  0  0  0  0  0
    3.0892    1.1121   -2.0303 C   0  0  0  0  0  0  0  0  0  0  0  0
    1.8307    0.4940   -1.9821 C   0  0  0  0  0  0  0  0  0  0  0  0
   -2.7379   -2.1170   -0.8829 C   0  0  0  0  0  0  0  0  0  0  0  0
   -2.4690   -0.7290   -1.0158 C   0  0  0  0  0  0  0  0  0  0  0  0
   -3.5182    0.1959   -1.1825 C   0  0  0  0  0  0  0  0  0  0  0  0
   -4.8413   -0.2565   -1.2493 C   0  0  0  0  0  0  0  0  0  0  0  0
   -5.1126   -1.6376   -1.1685 C   0  0  0  0  0  0  0  0  0  0  0  0
   -4.0758   -2.5596   -0.9884 C   0  0  0  0  0  0  0  0  0  0  0  0
   -1.4860    1.2555   -2.1887 H   0  0  0  0  0  0  0  0  0  0  0  0
    2.0840    4.3832   -1.7267 H   0  0  0  0  0  0  0  0  0  0  0  0
    4.1754    2.9856   -1.9422 H   0  0  0  0  0  0  0  0  0  0  0  0
    3.9803    0.4869   -2.1743 H   0  0  0  0  0  0  0  0  0  0  0  0
   -3.3011    1.2740   -1.2100 H   0  0  0  0  0  0  0  0  0  0  0  0
   -5.6636    0.4670   -1.3490 H   0  0  0  0  0  0  0  0  0  0  0  0
   -6.1520   -1.9960   -1.2243 H   0  0  0  0  0  0  0  0  0  0  0  0
   -4.2893   -3.6353   -0.9015 H   0  0  0  0  0  0  0  0  0  0  0  0
  2 11  1  0  0  0  0
  5  4  1  0  0  0  0
  6  7  1  0  0  0  0
  6  5  1  0  0  0  0
  7  1  1  0  0  0  0
  8  7  2  0  0  0  0
  8 19  1  0  0  0  0
  9  8  1  0  0  0  0
 10 11  1  0  0  0  0
 10  9  2  0  0  0  0
 11  6  2  0  0  0  0
 12  3  1  0  0  0  0
 13  4  1  0  0  0  0
 13 12  2  0  0  0  0
 14 13  1  0  0  0  0
 15 14  2  0  0  0  0
 15 16  1  0  0  0  0
 16 17  2  0  0  0  0
 17 25  1  0  0  0  0
 17 12  1  0  0  0  0
 18  5  1  0  0  0  0
 20  9  1  0  0  0  0
 21 10  1  0  0  0  0
 22 14  1  0  0  0  0
 23 15  1  0  0  0  0
 24 16  1  0  0  0  0
M  END
