1,4
q = -1.0

 37 39  0  0  1  0  0  0  0  0999 V2000
   -1.5864   -2.9391   -0.3523 S   0  0  0  0  0  1  0  0  0  0  0  0
   -2.7995   -1.6717   -0.5537 C   0  0  1  0  0  3  0  0  0  0  0  0
   -2.4890   -0.4207   -0.8263 N   0  0  0  0  0  2  0  0  0  0  0  0
   -1.1401   -0.2244   -0.8864 N   0  0  0  0  0  2  0  0  0  0  0  0
   -0.7390    0.8831   -1.4983 C   0  0  2  0  0  3  0  0  0  0  0  0
   -1.7498    1.9503   -1.8416 C   0  0  0  0  0  0  0  0  0  0  0  0
   -2.2000    2.2814   -0.8764 H   0  0  0  0  0  0  0  0  0  0  0  0
   -2.5905    1.4855   -2.3972 H   0  0  0  0  0  0  0  0  0  0  0  0
   -1.1498    3.1369   -2.5998 C   0  0  0  0  0  0  0  0  0  0  0  0
   -0.9965    2.8646   -3.6660 H   0  0  0  0  0  0  0  0  0  0  0  0
   -1.8626    3.9860   -2.5853 H   0  0  0  0  0  0  0  0  0  0  0  0
    0.2004    3.5480   -2.0001 C   0  0  0  0  0  0  0  0  0  0  0  0
    0.6263    4.4280   -2.5228 H   0  0  0  0  0  0  0  0  0  0  0  0
    0.0481    3.8598   -0.9405 H   0  0  0  0  0  0  0  0  0  0  0  0
    1.1635    2.3894   -2.0696 C   0  0  0  0  0  0  0  0  0  0  0  0
    2.5225    2.5638   -2.3789 C   0  0  0  0  0  0  0  0  0  0  0  0
    2.9074    3.5850   -2.5294 H   0  0  0  0  0  0  0  0  0  0  0  0
    3.3845    1.4631   -2.5138 C   0  0  0  0  0  0  0  0  0  0  0  0
    4.4485    1.6205   -2.7462 H   0  0  0  0  0  0  0  0  0  0  0  0
    2.8775    0.1608   -2.3796 C   0  0  0  0  0  0  0  0  0  0  0  0
    3.5371   -0.7091   -2.5158 H   0  0  0  0  0  0  0  0  0  0  0  0
    1.5297   -0.0336   -2.0677 C   0  0  0  0  0  0  0  0  0  0  0  0
    1.1220   -1.0549   -1.9855 H   0  0  0  0  0  0  0  0  0  0  0  0
    0.6652    1.0695   -1.8598 C   0  0  0  0  0  0  0  0  0  0  0  0
   -4.1078   -2.0692   -0.4331 N   0  0  0  0  0  0  0  0  0  0  0  0
   -4.2169   -3.0736   -0.2816 H   0  0  0  0  0  0  0  0  0  0  0  0
   -5.2961   -1.3256   -0.4072 C   0  0  0  0  0  0  0  0  0  0  0  0
   -5.3375    0.0865   -0.4682 C   0  0  0  0  0  0  0  0  0  0  0  0
   -4.3949    0.6385   -0.5579 H   0  0  0  0  0  0  0  0  0  0  0  0
   -6.5741    0.7440   -0.4062 C   0  0  0  0  0  0  0  0  0  0  0  0
   -6.5912    1.8440   -0.4511 H   0  0  0  0  0  0  0  0  0  0  0  0
   -7.7766    0.0299   -0.2889 C   0  0  0  0  0  0  0  0  0  0  0  0
   -8.7397    0.5594   -0.2436 H   0  0  0  0  0  0  0  0  0  0  0  0
   -7.7332   -1.3732   -0.2309 C   0  0  0  0  0  0  0  0  0  0  0  0
   -8.6637   -1.9539   -0.1395 H   0  0  0  0  0  0  0  0  0  0  0  0
   -6.5088   -2.0463   -0.2896 C   0  0  0  0  0  0  0  0  0  0  0  0
   -6.4822   -3.1471   -0.2429 H   0  0  0  0  0  0  0  0  0  0  0  0
  2 25  1  0  0  0  0
  2  1  1  6  0  0  0
  3  2  1  0  0  0  0
  4  3  1  0  0  0  0
  5  4  1  6  0  0  0
  6  5  1  0  0  0  0
  6  7  1  0  0  0  0
  8  6  1  0  0  0  0
  9 11  1  0  0  0  0
  9 12  1  0  0  0  0
  9  6  1  0  0  0  0
 10  9  1  0  0  0  0
 12 14  1  0  0  0  0
 13 12  1  0  0  0  0
 15 12  1  0  0  0  0
 15 24  1  0  0  0  0
 16 15  2  0  0  0  0
 17 16  1  0  0  0  0
 18 20  2  0  0  0  0
 18 16  1  0  0  0  0
 19 18  1  0  0  0  0
 20 22  1  0  0  0  0
 21 20  1  0  0  0  0
 22 23  1  0  0  0  0
 22 24  2  0  0  0  0
 24  5  1  0  0  0  0
 25 27  1  0  0  0  0
 25 26  1  0  0  0  0
 27 36  1  0  0  0  0
 28 27  2  0  0  0  0
 28 30  1  0  0  0  0
 29 28  1  0  0  0  0
 30 32  2  0  0  0  0
 31 30  1  0  0  0  0
 32 33  1  0  0  0  0
 32 34  1  0  0  0  0
 34 35  1  0  0  0  0
 36 37  1  0  0  0  0
 36 34  2  0  0  0  0
M  END
