1,14
q = 0.0, confidence = 1.0

 31 31  0  0  1  0  0  0  0  0999 V2000
   -1.1992   -1.8183    1.3116 S   0  0  0  0  0  0  0  0  0  0  0  0
    2.7549   -0.7563   -0.1364 S   0  0  0  0  0  0  0  0  0  0  0  0
   -2.9809   -1.8536    0.9282 C   0  0  0  0  0  0  0  0  0  0  0  0
   -1.1323   -0.6436    2.7230 C   0  0  0  0  0  0  0  0  0  0  0  0
   -1.6781    0.7654    2.4931 C   0  0  0  0  0  0  0  0  0  0  0  0
   -1.0004    1.6043    1.3760 C   0  0  2  0  0  0  0  0  0  0  0  0
   -1.9817    1.9114    0.2184 C   0  0  0  0  0  0  0  0  0  0  0  0
   -2.0682    3.0180   -1.8749 C   0  0  0  0  0  0  0  0  0  0  0  0
    1.3620    1.3829    1.0643 C   0  0  0  0  0  3  0  0  0  0  0  0
    2.6065    0.7779    0.6966 C   0  0  0  0  0  0  0  0  0  0  0  0
    3.8670    1.3016    1.0190 C   0  0  0  0  0  0  0  0  0  0  0  0
    4.9332    0.4706    0.6033 C   0  0  0  0  0  0  0  0  0  0  0  0
    4.4748   -0.6840   -0.0199 C   0  0  0  0  0  0  0  0  0  0  0  0
    0.1662    0.9368    0.7997 N   0  0  0  0  0  2  0  0  0  0  0  0
   -3.0892    1.4171    0.0969 O   0  0  0  0  0  0  0  0  0  0  0  0
   -1.4288    2.8084   -0.5999 O   0  0  0  0  0  0  0  0  0  0  0  0
   -0.6801    2.5861    1.7903 H   0  0  0  0  0  0  0  0  0  0  0  0
    1.4473    2.3104    1.6677 H   0  0  0  0  0  0  0  0  0  0  0  0
    3.9908    2.2613    1.5403 H   0  0  0  0  0  0  0  0  0  0  0  0
    5.9967    0.7022    0.7497 H   0  0  0  0  0  0  0  0  0  0  0  0
   -3.3502   -0.8337    0.7093 H   0  0  0  0  0  0  0  0  0  0  0  0
   -3.0392   -2.4704    0.0114 H   0  0  0  0  0  0  0  0  0  0  0  0
   -3.5232   -2.3295    1.7682 H   0  0  0  0  0  0  0  0  0  0  0  0
   -0.0547   -0.6304    2.9852 H   0  0  0  0  0  0  0  0  0  0  0  0
   -1.6714   -1.1258    3.5639 H   0  0  0  0  0  0  0  0  0  0  0  0
   -1.5731    1.3070    3.4557 H   0  0  0  0  0  0  0  0  0  0  0  0
   -2.7626    0.7226    2.2697 H   0  0  0  0  0  0  0  0  0  0  0  0
   -1.6923    2.2368   -2.5661 H   0  0  0  0  0  0  0  0  0  0  0  0
   -3.1681    2.9587   -1.7719 H   0  0  0  0  0  0  0  0  0  0  0  0
   -1.7508    4.0182   -2.2184 H   0  0  0  0  0  0  0  0  0  0  0  0
    5.0729   -1.4999   -0.4460 H   0  0  0  0  0  0  0  0  0  0  0  0
  1  4  1  0  0  0  0
  2 13  1  0  0  0  0
  2 10  1  0  0  0  0
  3  1  1  0  0  0  0
  3 23  1  0  0  0  0
  4 24  1  0  0  0  0
  4 25  1  0  0  0  0
  5  4  1  0  0  0  0
  5 26  1  0  0  0  0
  6 17  1  1  0  0  0
  6  5  1  0  0  0  0
  7  6  1  0  0  0  0
  8 29  1  0  0  0  0
  8 16  1  0  0  0  0
  9 18  1  0  0  0  0
 10 11  2  0  0  0  0
 10  9  1  0  0  0  0
 11 19  1  0  0  0  0
 12 20  1  0  0  0  0
 12 11  1  0  0  0  0
 13 12  2  0  0  0  0
 14  9  1  0  0  0  0
 14  6  1  0  0  0  0
 15  7  2  0  0  0  0
 16  7  1  0  0  0  0
 21  3  1  0  0  0  0
 22  3  1  0  0  0  0
 27  5  1  0  0  0  0
 28  8  1  0  0  0  0
 30  8  1  0  0  0  0
 31 13  1  0  0  0  0
M  END
