1,2
q = -1.0

 30 30  0  0  0  0  0  0  0  0999 V2000
   -2.4869   -1.8411   -0.7407 S   0  0  0  0  0  1  0  0  0  0  0  0
   -1.4931    0.8638   -0.1402 N   0  0  0  0  0  0  0  0  0  0  0  0
   -1.0157    1.3169    0.6603 H   0  0  0  0  0  0  0  0  0  0  0  0
   -1.4085    1.8189   -1.2954 C   0  0  0  0  0  0  0  0  0  0  0  0
   -0.3476    1.9220   -1.5934 H   0  0  0  0  0  0  0  0  0  0  0  0
   -1.9496    1.3343   -2.1325 H   0  0  0  0  0  0  0  0  0  0  0  0
   -2.0173    3.1746   -0.9302 C   0  0  0  0  0  0  0  0  0  0  0  0
   -1.3744    3.6519   -0.1567 H   0  0  0  0  0  0  0  0  0  0  0  0
   -1.9819    3.8394   -1.8187 H   0  0  0  0  0  0  0  0  0  0  0  0
   -3.4480    3.0334   -0.4004 C   0  0  0  0  0  0  0  0  0  0  0  0
   -4.1231    2.7273   -1.2283 H   0  0  0  0  0  0  0  0  0  0  0  0
   -3.8177    4.0099   -0.0222 H   0  0  0  0  0  0  0  0  0  0  0  0
   -3.5157    1.9599    0.7067 C   0  0  0  0  0  0  0  0  0  0  0  0
   -2.9424    2.3259    1.5937 H   0  0  0  0  0  0  0  0  0  0  0  0
   -4.5544    1.8230    1.0530 H   0  0  0  0  0  0  0  0  0  0  0  0
   -2.9119    0.6661    0.2255 C   0  0  0  0  0  0  0  0  0  0  0  0
   -3.4854   -0.5348   -0.0815 C   0  0  0  0  0  0  0  0  0  0  0  0
   -4.9876   -0.8607    0.1162 C   0  0  0  0  0  0  0  0  0  0  0  0
   -5.3306   -2.2916   -0.3514 C   0  0  0  0  0  0  0  0  0  0  0  0
   -4.7534   -3.0539    0.2066 H   0  0  0  0  0  0  0  0  0  0  0  0
   -5.1193   -2.4313   -1.4293 H   0  0  0  0  0  0  0  0  0  0  0  0
   -6.4106   -2.4803   -0.1821 H   0  0  0  0  0  0  0  0  0  0  0  0
   -5.3368   -0.7761    1.6197 C   0  0  0  0  0  0  0  0  0  0  0  0
   -4.7175   -1.4913    2.1971 H   0  0  0  0  0  0  0  0  0  0  0  0
   -6.4036   -1.0380    1.7795 H   0  0  0  0  0  0  0  0  0  0  0  0
   -5.1691    0.2318    2.0448 H   0  0  0  0  0  0  0  0  0  0  0  0
   -5.8602    0.1067   -0.7157 C   0  0  0  0  0  0  0  0  0  0  0  0
   -5.7686    1.1609   -0.3942 H   0  0  0  0  0  0  0  0  0  0  0  0
   -6.9300   -0.1753   -0.6278 H   0  0  0  0  0  0  0  0  0  0  0  0
   -5.5812    0.0527   -1.7873 H   0  0  0  0  0  0  0  0  0  0  0  0
  1 17  1  0  0  0  0
  2 16  1  0  0  0  0
  2  3  1  0  0  0  0
  4  7  1  0  0  0  0
  4  2  1  0  0  0  0
  5  4  1  0  0  0  0
  6  4  1  0  0  0  0
  7 10  1  0  0  0  0
  7  8  1  0  0  0  0
  9  7  1  0  0  0  0
 10 12  1  0  0  0  0
 10 13  1  0  0  0  0
 11 10  1  0  0  0  0
 13 15  1  0  0  0  0
 13 14  1  0  0  0  0
 16 13  1  0  0  0  0
 17 18  1  0  0  0  0
 17 16  2  0  0  0  0
 18 23  1  0  0  0  0
 19 22  1  0  0  0  0
 19 18  1  0  0  0  0
 19 20  1  0  0  0  0
 21 19  1  0  0  0  0
 23 25  1  0  0  0  0
 23 26  1  0  0  0  0
 23 24  1  0  0  0  0
 27 29  1  0  0  0  0
 27 28  1  0  0  0  0
 27 18  1  0  0  0  0
 30 27  1  0  0  0  0
M  END
