1,4
q = -1.0

 33 34  0  0  0  0  0  0  0  0999 V2000
   -1.2812   -3.1915   -0.8671 S   0  0  0  0  0  1  0  0  0  0  0  0
    1.7238   -0.9754   -1.8793 O   0  0  0  0  0  0  0  0  0  0  0  0
   -0.0261    3.3864   -1.5946 O   0  0  0  0  0  0  0  0  0  0  0  0
   -0.9630   -0.3556   -1.0456 N   0  0  0  0  0  2  0  0  0  0  0  0
   -2.6089   -2.0915   -1.2025 C   0  0  0  0  0  0  0  0  0  0  0  0
   -2.3362   -0.6956   -1.2152 C   0  0  0  0  0  0  0  0  0  0  0  0
   -3.3767    0.2358   -1.3864 C   0  0  0  0  0  0  0  0  0  0  0  0
   -4.6911   -0.2099   -1.5835 C   0  0  0  0  0  0  0  0  0  0  0  0
   -4.9615   -1.5914   -1.6265 C   0  0  0  0  0  0  0  0  0  0  0  0
   -3.9334   -2.5243   -1.4384 C   0  0  0  0  0  0  0  0  0  0  0  0
   -0.5068    0.7526   -1.5800 C   0  0  0  0  0  3  0  0  0  0  0  0
    0.8693    1.2087   -1.6511 C   0  0  0  0  0  0  0  0  0  0  0  0
    1.9957    0.3445   -1.8208 C   0  0  0  0  0  0  0  0  0  0  0  0
    3.2920    0.8776   -1.9672 C   0  0  0  0  0  0  0  0  0  0  0  0
    3.4731    2.2643   -1.9737 C   0  0  0  0  0  0  0  0  0  0  0  0
    2.3869    3.1471   -1.8604 C   0  0  0  0  0  0  0  0  0  0  0  0
    1.0947    2.6182   -1.7097 C   0  0  0  0  0  0  0  0  0  0  0  0
    2.7702   -1.9039   -2.1375 C   0  0  0  0  0  0  0  0  0  0  0  0
    0.0840    4.7788   -1.8146 C   0  0  0  0  0  0  0  0  0  0  0  0
   -3.1656    1.3133   -1.3202 H   0  0  0  0  0  0  0  0  0  0  0  0
   -5.5069    0.5205   -1.6875 H   0  0  0  0  0  0  0  0  0  0  0  0
   -5.9919   -1.9447   -1.7871 H   0  0  0  0  0  0  0  0  0  0  0  0
   -4.1463   -3.6040   -1.4456 H   0  0  0  0  0  0  0  0  0  0  0  0
   -1.2389    1.4343   -2.0496 H   0  0  0  0  0  0  0  0  0  0  0  0
    4.1555    0.2102   -2.0703 H   0  0  0  0  0  0  0  0  0  0  0  0
    4.4894    2.6730   -2.0791 H   0  0  0  0  0  0  0  0  0  0  0  0
    2.5571    4.2304   -1.8812 H   0  0  0  0  0  0  0  0  0  0  0  0
    2.2957   -2.9000   -2.0872 H   0  0  0  0  0  0  0  0  0  0  0  0
    3.2133   -1.7314   -3.1421 H   0  0  0  0  0  0  0  0  0  0  0  0
    3.5605   -1.8482   -1.3597 H   0  0  0  0  0  0  0  0  0  0  0  0
   -0.9406    5.1879   -1.7371 H   0  0  0  0  0  0  0  0  0  0  0  0
    0.7268    5.2704   -1.0516 H   0  0  0  0  0  0  0  0  0  0  0  0
    0.4936    5.0063   -2.8238 H   0  0  0  0  0  0  0  0  0  0  0  0
  2 13  1  0  0  0  0
  5  1  1  0  0  0  0
  6  5  1  0  0  0  0
  6  4  1  0  0  0  0
  7 20  1  0  0  0  0
  7  6  2  0  0  0  0
  8  7  1  0  0  0  0
  9  8  2  0  0  0  0
  9 10  1  0  0  0  0
 10  5  2  0  0  0  0
 11  4  1  0  0  0  0
 12 11  1  0  0  0  0
 13 12  2  0  0  0  0
 14 13  1  0  0  0  0
 15 14  2  0  0  0  0
 15 16  1  0  0  0  0
 16 17  2  0  0  0  0
 17 12  1  0  0  0  0
 17  3  1  0  0  0  0
 18 28  1  0  0  0  0
 18  2  1  0  0  0  0
 18 30  1  0  0  0  0
 19 31  1  0  0  0  0
 19  3  1  0  0  0  0
 19 32  1  0  0  0  0
 21  8  1  0  0  0  0
 22  9  1  0  0  0  0
 23 10  1  0  0  0  0
 24 11  1  0  0  0  0
 25 14  1  0  0  0  0
 26 15  1  0  0  0  0
 27 16  1  0  0  0  0
 29 18  1  0  0  0  0
 33 19  1  0  0  0  0
M  END
