1,4
q = -1.0

 50 52  0  0  1  0  0  0  0  0999 V2000
   -1.4943   -0.6866    1.6553 S   0  0  0  0  0  1  0  0  0  0  0  0
    2.6165    1.0659   -2.1314 S   0  0  0  0  0  0  0  0  0  0  0  0
   -0.3691    1.7843   -0.8863 N   0  0  0  0  0  0  0  0  0  0  0  0
    0.0183    1.8461    0.4170 N   0  0  0  0  0  2  0  0  0  0  0  0
   -1.9719   -0.1735   -1.0897 N   0  0  0  0  0  0  0  0  0  0  0  0
   -3.0107   -0.3301   -1.9708 N   0  0  0  0  0  0  0  0  0  0  0  0
   -3.6184   -1.0594    0.0289 N   0  0  0  0  0  0  0  0  0  0  0  0
    0.4998   -0.5687   -1.4292 N   0  0  0  0  0  0  0  0  0  0  0  0
    0.2419   -1.8889   -1.1399 N   0  0  0  0  0  0  0  0  0  0  0  0
    2.4112   -1.6058   -1.5102 N   0  0  0  0  0  0  0  0  0  0  0  0
   -0.6406    0.4536   -1.6260 B   0  0  2  0  0  0  0  0  0  0  0  0
   -0.8200    0.6973   -2.8032 H   0  0  0  0  0  0  0  0  0  0  0  0
   -0.5905    3.0454   -1.3557 C   0  0  1  0  0  3  0  0  0  0  0  0
   -0.3369    3.9362   -0.3057 C   0  0  0  0  0  0  0  0  0  0  0  0
   -0.4150    5.0274   -0.3399 H   0  0  0  0  0  0  0  0  0  0  0  0
    0.0541    3.1437    0.7927 C   0  0  0  0  0  0  0  0  0  0  0  0
   -0.9914    3.3349   -2.7638 C   0  0  0  0  0  0  0  0  0  0  0  0
   -0.2090    2.9767   -3.4637 H   0  0  0  0  0  0  0  0  0  0  0  0
   -1.1164    4.4253   -2.8999 H   0  0  0  0  0  0  0  0  0  0  0  0
   -1.9381    2.8315   -3.0426 H   0  0  0  0  0  0  0  0  0  0  0  0
    0.4845    3.5629    2.1614 C   0  0  0  0  0  0  0  0  0  0  0  0
    0.2295    2.7871    2.9101 H   0  0  0  0  0  0  0  0  0  0  0  0
   -0.0038    4.5131    2.4511 H   0  0  0  0  0  0  0  0  0  0  0  0
    1.5823    3.7246    2.2086 H   0  0  0  0  0  0  0  0  0  0  0  0
   -2.3195   -0.6070    0.1461 C   0  0  1  0  0  3  0  0  0  0  0  0
   -3.9989   -0.8613   -1.2875 C   0  0  0  0  0  0  0  0  0  0  0  0
   -5.3327   -1.2131   -1.8452 C   0  0  0  0  0  0  0  0  0  0  0  0
   -5.3501   -0.9179   -2.9095 H   0  0  0  0  0  0  0  0  0  0  0  0
   -6.1543   -0.6875   -1.3168 H   0  0  0  0  0  0  0  0  0  0  0  0
   -5.5306   -2.3032   -1.7812 H   0  0  0  0  0  0  0  0  0  0  0  0
   -4.4313   -1.5901    1.1193 C   0  0  0  0  0  0  0  0  0  0  0  0
   -3.7530   -2.1887    1.7613 H   0  0  0  0  0  0  0  0  0  0  0  0
   -5.1691   -2.2846    0.6715 H   0  0  0  0  0  0  0  0  0  0  0  0
   -5.1158   -0.4941    1.9334 C   0  0  0  0  0  0  0  0  0  0  0  0
   -4.3604    0.1796    2.3833 H   0  0  0  0  0  0  0  0  0  0  0  0
   -5.7092   -0.9447    2.7531 H   0  0  0  0  0  0  0  0  0  0  0  0
   -5.7986    0.1115    1.3044 H   0  0  0  0  0  0  0  0  0  0  0  0
    1.8310   -0.3488   -1.6907 C   0  0  0  0  0  0  0  0  0  0  0  0
    1.4074   -2.4957   -1.1761 C   0  0  0  0  0  0  0  0  0  0  0  0
    1.6181   -3.9393   -0.8802 C   0  0  0  0  0  0  0  0  0  0  0  0
    0.6338   -4.4034   -0.6888 H   0  0  0  0  0  0  0  0  0  0  0  0
    2.2535   -4.0822    0.0182 H   0  0  0  0  0  0  0  0  0  0  0  0
    2.1020   -4.4705   -1.7258 H   0  0  0  0  0  0  0  0  0  0  0  0
    3.8389   -1.8600   -1.6171 C   0  0  0  0  0  0  0  0  0  0  0  0
    4.2099   -1.1690   -2.4033 H   0  0  0  0  0  0  0  0  0  0  0  0
    3.9754   -2.9022   -1.9696 H   0  0  0  0  0  0  0  0  0  0  0  0
    4.5843   -1.6056   -0.3079 C   0  0  0  0  0  0  0  0  0  0  0  0
    4.4987   -0.5378   -0.0289 H   0  0  0  0  0  0  0  0  0  0  0  0
    5.6599   -1.8449   -0.4269 H   0  0  0  0  0  0  0  0  0  0  0  0
    4.1819   -2.2232    0.5205 H   0  0  0  0  0  0  0  0  0  0  0  0
  2 38  2  0  0  0  0
  3  4  1  0  0  0  0
  4 16  1  0  0  0  0
  5 25  1  0  0  0  0
  6 26  2  0  0  0  0
  6  5  1  0  0  0  0
  7 25  1  0  0  0  0
  7 31  1  0  0  0  0
  8  9  1  0  0  0  0
 10 39  1  0  0  0  0
 11 12  1  6  0  0  0
 11  8  1  0  0  0  0
 11  5  1  0  0  0  0
 11  3  1  0  0  0  0
 13 17  1  6  0  0  0
 13  3  1  0  0  0  0
 13 14  1  0  0  0  0
 14 16  2  0  0  0  0
 15 14  1  0  0  0  0
 16 21  1  0  0  0  0
 18 17  1  0  0  0  0
 19 17  1  0  0  0  0
 20 17  1  0  0  0  0
 21 24  1  0  0  0  0
 21 23  1  0  0  0  0
 21 22  1  0  0  0  0
 25  1  1  6  0  0  0
 26  7  1  0  0  0  0
 27 30  1  0  0  0  0
 27 29  1  0  0  0  0
 27 26  1  0  0  0  0
 28 27  1  0  0  0  0
 31 32  1  0  0  0  0
 31 34  1  0  0  0  0
 33 31  1  0  0  0  0
 34 35  1  0  0  0  0
 34 36  1  0  0  0  0
 37 34  1  0  0  0  0
 38 10  1  0  0  0  0
 38  8  1  0  0  0  0
 39  9  2  0  0  0  0
 39 40  1  0  0  0  0
 40 41  1  0  0  0  0
 40 42  1  0  0  0  0
 43 40  1  0  0  0  0
 44 10  1  0  0  0  0
 44 47  1  0  0  0  0
 45 44  1  0  0  0  0
 46 44  1  0  0  0  0
 47 48  1  0  0  0  0
 47 50  1  0  0  0  0
 49 47  1  0  0  0  0
M  END
