1,38
q = -1.0

 38 39  0  0  0  0  0  0  0  0999 V2000
   -0.4093   -2.2838   -0.3341 S   0  0  0  0  0  1  0  0  0  0  0  0
   -6.8873   -4.3115   -1.2563 C   0  0  0  0  0  0  0  0  0  0  0  0
   -7.9400   -4.5842   -1.4224 H   0  0  0  0  0  0  0  0  0  0  0  0
   -4.6111   -4.9422   -0.6693 C   0  0  0  0  0  0  0  0  0  0  0  0
   -3.8824   -5.7137   -0.3724 H   0  0  0  0  0  0  0  0  0  0  0  0
   -5.9484   -5.2896   -0.8886 C   0  0  0  0  0  0  0  0  0  0  0  0
   -6.2598   -6.3381   -0.7649 H   0  0  0  0  0  0  0  0  0  0  0  0
   -5.1221   -2.6209   -1.2053 C   0  0  0  0  0  0  0  0  0  0  0  0
   -4.7874   -1.5865   -1.3415 H   0  0  0  0  0  0  0  0  0  0  0  0
   -6.4595   -2.9837   -1.4144 C   0  0  0  0  0  0  0  0  0  0  0  0
   -7.1774   -2.2048   -1.7153 H   0  0  0  0  0  0  0  0  0  0  0  0
   -4.1810   -3.6019   -0.8185 C   0  0  0  0  0  0  0  0  0  0  0  0
   -9.1253    1.7101    1.3505 C   0  0  0  0  0  0  0  0  0  0  0  0
   -9.2260    1.0777    0.4401 H   0  0  0  0  0  0  0  0  0  0  0  0
  -10.0946    2.2110    1.5234 H   0  0  0  0  0  0  0  0  0  0  0  0
   -8.9341    1.0292    2.2104 H   0  0  0  0  0  0  0  0  0  0  0  0
   -8.4165    4.1168    1.3312 C   0  0  0  0  0  0  0  0  0  0  0  0
   -8.1593    4.6901    0.4124 H   0  0  0  0  0  0  0  0  0  0  0  0
   -7.8865    4.5974    2.1846 H   0  0  0  0  0  0  0  0  0  0  0  0
   -9.5024    4.2243    1.5034 H   0  0  0  0  0  0  0  0  0  0  0  0
   -6.7846    2.3255    0.9671 C   0  0  0  0  0  0  0  0  0  0  0  0
   -5.7372    3.2849    0.8354 C   0  0  0  0  0  0  0  0  0  0  0  0
   -5.9493    4.3573    0.9307 H   0  0  0  0  0  0  0  0  0  0  0  0
   -4.4301    2.8802    0.5875 C   0  0  0  0  0  0  0  0  0  0  0  0
   -3.6451    3.6477    0.4947 H   0  0  0  0  0  0  0  0  0  0  0  0
   -2.6737    1.2313    0.1925 C   0  0  0  0  0  3  0  0  0  0  0  0
   -2.0014    2.0979    0.2695 H   0  0  0  0  0  0  0  0  0  0  0  0
   -5.1161    0.5589    0.5934 C   0  0  0  0  0  0  0  0  0  0  0  0
   -4.8707   -0.5055    0.5135 H   0  0  0  0  0  0  0  0  0  0  0  0
   -6.4265    0.9498    0.8490 C   0  0  0  0  0  0  0  0  0  0  0  0
   -7.1874    0.1665    0.9598 H   0  0  0  0  0  0  0  0  0  0  0  0
   -4.0716    1.5113    0.4437 C   0  0  0  0  0  0  0  0  0  0  0  0
   -2.1563   -2.1378   -0.4125 C   0  0  0  0  0  0  0  0  0  0  0  0
   -8.0867    2.7111    1.2039 N   0  0  0  0  0  0  0  0  0  0  0  0
   -2.8246   -3.3287   -0.6015 N   0  0  0  0  0  0  0  0  0  0  0  0
   -2.2150   -4.1467   -0.5542 H   0  0  0  0  0  0  0  0  0  0  0  0
   -2.8206   -1.0089   -0.2943 N   0  0  0  0  0  0  0  0  0  0  0  0
   -2.0556    0.1019   -0.1153 N   0  0  0  0  0  2  0  0  0  0  0  0
  2  6  1  0  0  0  0
  3  2  1  0  0  0  0
  4  5  1  0  0  0  0
  6  7  1  0  0  0  0
  6  4  2  0  0  0  0
  8 12  2  0  0  0  0
  9  8  1  0  0  0  0
 10  2  2  0  0  0  0
 10  8  1  0  0  0  0
 11 10  1  0  0  0  0
 12  4  1  0  0  0  0
 12 35  1  0  0  0  0
 13 15  1  0  0  0  0
 13 16  1  0  0  0  0
 14 13  1  0  0  0  0
 17 20  1  0  0  0  0
 17 19  1  0  0  0  0
 18 17  1  0  0  0  0
 21 34  1  0  0  0  0
 22 23  1  0  0  0  0
 22 21  2  0  0  0  0
 24 22  1  0  0  0  0
 25 24  1  0  0  0  0
 26 27  1  0  0  0  0
 26 32  1  0  0  0  0
 28 30  2  0  0  0  0
 29 28  1  0  0  0  0
 30 31  1  0  0  0  0
 30 21  1  0  0  0  0
 32 24  2  0  0  0  0
 32 28  1  0  0  0  0
 33  1  1  0  0  0  0
 33 37  2  0  0  0  0
 34 17  1  0  0  0  0
 34 13  1  0  0  0  0
 35 36  1  0  0  0  0
 35 33  1  0  0  0  0
 37 38  1  0  0  0  0
 38 26  1  0  0  0  0
M  END
