1,30
q = -1.0, confidence = 0.0

 32 33  0  0  0  0  0  0  0  0999 V2000
   -1.9116   -0.8609   -1.5443 S   0  0  0  0  0  1  0  0  0  0  0  0
   -5.4599    0.3489   -0.1023 C   0  0  0  0  0  0  0  0  0  0  0  0
   -6.7187   -0.2328   -0.5236 C   0  0  0  0  0  0  0  0  0  0  0  0
   -5.4526    1.3684    0.8551 C   0  0  0  0  0  0  0  0  0  0  0  0
   -4.4856    1.7811    1.1604 H   0  0  0  0  0  0  0  0  0  0  0  0
   -7.9419    0.2886    0.0404 C   0  0  0  0  0  0  0  0  0  0  0  0
   -6.8168   -1.3007   -1.4634 C   0  0  0  0  0  0  0  0  0  0  0  0
   -5.9140   -1.7576   -1.8984 H   0  0  0  0  0  0  0  0  0  0  0  0
   -7.8887    1.3357    1.0057 C   0  0  0  0  0  0  0  0  0  0  0  0
   -8.8301    1.7193    1.4270 H   0  0  0  0  0  0  0  0  0  0  0  0
   -9.1875   -0.2649   -0.3798 C   0  0  0  0  0  0  0  0  0  0  0  0
  -10.1118    0.1463    0.0553 H   0  0  0  0  0  0  0  0  0  0  0  0
   -8.0458   -1.8190   -1.8494 C   0  0  0  0  0  0  0  0  0  0  0  0
   -8.0856   -2.6447   -2.5754 H   0  0  0  0  0  0  0  0  0  0  0  0
   -6.6656    1.8510    1.4014 C   0  0  0  0  0  0  0  0  0  0  0  0
   -6.6230    2.6574    2.1496 H   0  0  0  0  0  0  0  0  0  0  0  0
   -9.2457   -1.2933   -1.3068 C   0  0  0  0  0  0  0  0  0  0  0  0
  -10.2169   -1.7066   -1.6181 H   0  0  0  0  0  0  0  0  0  0  0  0
   -4.2988   -0.1518   -0.6986 N   0  0  0  0  0  0  0  0  0  0  0  0
   -2.9598    0.0767   -0.4700 C   0  0  0  0  0  0  0  0  0  0  0  0
   -0.8941    1.9000    1.6226 C   0  0  0  0  0  3  0  0  0  0  0  0
    0.5643    2.1583    1.8327 C   0  0  0  0  0  0  0  0  0  0  0  0
    0.9264    1.6524    2.7551 H   0  0  0  0  0  0  0  0  0  0  0  0
    0.7469    3.2436    1.9776 H   0  0  0  0  0  0  0  0  0  0  0  0
    1.1701    1.8108    0.9734 H   0  0  0  0  0  0  0  0  0  0  0  0
   -1.9054    2.5405    2.5256 C   0  0  0  0  0  0  0  0  0  0  0  0
   -2.6128    1.7809    2.9175 H   0  0  0  0  0  0  0  0  0  0  0  0
   -2.5282    3.2606    1.9521 H   0  0  0  0  0  0  0  0  0  0  0  0
   -1.4213    3.0755    3.3633 H   0  0  0  0  0  0  0  0  0  0  0  0
   -1.2640    1.1081    0.6457 N   0  0  0  0  0  2  0  0  0  0  0  0
   -2.6028    0.9196    0.4833 N   0  0  0  0  0  0  0  0  0  0  0  0
   -4.4462   -0.8143   -1.4605 H   0  0  0  0  0  0  0  0  0  0  0  0
  1 20  1  0  0  0  0
  2  4  1  0  0  0  0
  3  2  2  0  0  0  0
  3  6  1  0  0  0  0
  4  5  1  0  0  0  0
  4 15  2  0  0  0  0
  6  9  2  0  0  0  0
  7  3  1  0  0  0  0
  8  7  1  0  0  0  0
  9 15  1  0  0  0  0
  9 10  1  0  0  0  0
 11  6  1  0  0  0  0
 11 12  1  0  0  0  0
 13  7  2  0  0  0  0
 13 17  1  0  0  0  0
 14 13  1  0  0  0  0
 15 16  1  0  0  0  0
 17 11  2  0  0  0  0
 18 17  1  0  0  0  0
 19 20  1  0  0  0  0
 19  2  1  0  0  0  0
 20 31  2  0  0  0  0
 21 22  1  0  0  0  0
 21 26  1  0  0  0  0
 22 24  1  0  0  0  0
 22 23  1  0  0  0  0
 25 22  1  0  0  0  0
 26 27  1  0  0  0  0
 26 29  1  0  0  0  0
 28 26  1  0  0  0  0
 30 21  1  0  0  0  0
 31 30  1  0  0  0  0
 32 19  1  0  0  0  0
M  END
