1,3
q = -1.0

 35 36  0  0  1  0  0  0  0  0999 V2000
   -2.0483   -1.8924    1.8709 S   0  0  0  0  0  1  0  0  0  0  0  0
   -4.7197   -0.7714    1.5275 S   0  0  0  0  0  0  0  0  0  0  0  0
   -1.3984    0.0525   -0.3826 N   0  0  0  0  0  2  0  0  0  0  0  0
   -2.7052    0.0374   -0.0052 N   0  0  0  0  0  0  0  0  0  0  0  0
   -1.0572    1.0120   -1.2227 C   0  0  1  0  0  3  0  0  0  0  0  0
   -2.0638    2.0364   -1.6579 C   0  0  0  0  0  0  0  0  0  0  0  0
   -2.9522    1.5309   -2.0865 H   0  0  0  0  0  0  0  0  0  0  0  0
   -1.6447    2.7315   -2.4059 H   0  0  0  0  0  0  0  0  0  0  0  0
   -2.4323    2.6053   -0.7790 H   0  0  0  0  0  0  0  0  0  0  0  0
    0.3421    1.0828   -1.6744 C   0  0  0  0  0  0  0  0  0  0  0  0
    0.9751    2.3380   -1.8459 C   0  0  0  0  0  0  0  0  0  0  0  0
    0.4018    3.2631   -1.6884 H   0  0  0  0  0  0  0  0  0  0  0  0
    2.3373    2.4095   -2.1638 C   0  0  0  0  0  0  0  0  0  0  0  0
    2.8219    3.3923   -2.2686 H   0  0  0  0  0  0  0  0  0  0  0  0
    3.0893    1.2346   -2.3331 C   0  0  0  0  0  0  0  0  0  0  0  0
    4.1644    1.2882   -2.5567 H   0  0  0  0  0  0  0  0  0  0  0  0
    2.4611   -0.0146   -2.2096 C   0  0  0  0  0  0  0  0  0  0  0  0
    3.0385   -0.9409   -2.3468 H   0  0  0  0  0  0  0  0  0  0  0  0
    1.0991   -0.0905   -1.8976 C   0  0  0  0  0  0  0  0  0  0  0  0
    0.6164   -1.0757   -1.8257 H   0  0  0  0  0  0  0  0  0  0  0  0
   -3.0413   -0.7792    0.9745 C   0  0  0  0  0  0  0  0  0  0  0  0
   -5.5002    0.5200    0.4623 C   0  0  0  0  0  0  0  0  0  0  0  0
   -6.2144    1.0409    1.1294 H   0  0  0  0  0  0  0  0  0  0  0  0
   -4.6722    1.2091    0.2011 H   0  0  0  0  0  0  0  0  0  0  0  0
   -6.1942   -0.0159   -0.7629 C   0  0  0  0  0  0  0  0  0  0  0  0
   -5.4584   -0.6108   -1.8109 C   0  0  0  0  0  0  0  0  0  0  0  0
   -4.3653   -0.6896   -1.7112 H   0  0  0  0  0  0  0  0  0  0  0  0
   -6.1106   -1.0969   -2.9516 C   0  0  0  0  0  0  0  0  0  0  0  0
   -5.5229   -1.5580   -3.7602 H   0  0  0  0  0  0  0  0  0  0  0  0
   -7.5081   -1.0012   -3.0654 C   0  0  0  0  0  0  0  0  0  0  0  0
   -8.0186   -1.3859   -3.9614 H   0  0  0  0  0  0  0  0  0  0  0  0
   -8.2487   -0.4163   -2.0278 C   0  0  0  0  0  0  0  0  0  0  0  0
   -9.3442   -0.3401   -2.1050 H   0  0  0  0  0  0  0  0  0  0  0  0
   -7.5947    0.0707   -0.8850 C   0  0  0  0  0  0  0  0  0  0  0  0
   -8.1808    0.5281   -0.0717 H   0  0  0  0  0  0  0  0  0  0  0  0
  3  4  1  0  0  0  0
  4 21  2  0  0  0  0
  5  3  1  1  0  0  0
  6  5  1  0  0  0  0
  6  9  1  0  0  0  0
  7  6  1  0  0  0  0
  8  6  1  0  0  0  0
 10  5  1  0  0  0  0
 11 12  1  0  0  0  0
 11 10  1  0  0  0  0
 13 11  2  0  0  0  0
 14 13  1  0  0  0  0
 15 17  2  0  0  0  0
 15 13  1  0  0  0  0
 16 15  1  0  0  0  0
 17 19  1  0  0  0  0
 18 17  1  0  0  0  0
 19 20  1  0  0  0  0
 19 10  2  0  0  0  0
 21  2  1  0  0  0  0
 21  1  1  0  0  0  0
 22 23  1  0  0  0  0
 22  2  1  0  0  0  0
 24 22  1  0  0  0  0
 25 22  1  0  0  0  0
 26 27  1  0  0  0  0
 26 25  2  0  0  0  0
 28 26  1  0  0  0  0
 29 28  1  0  0  0  0
 30 28  2  0  0  0  0
 30 32  1  0  0  0  0
 31 30  1  0  0  0  0
 32 34  2  0  0  0  0
 33 32  1  0  0  0  0
 34 25  1  0  0  0  0
 34 35  1  0  0  0  0
M  END
