2,4
q = -1.0

 35 36  0  0  1  0  0  0  0  0999 V2000
   -4.4477    1.6888   -0.6064 S   0  0  0  0  0  0  0  0  0  0  0  0
   -1.5828    2.4695   -0.3802 S   0  0  0  0  0  1  0  0  0  0  0  0
   -2.4486   -0.0343   -0.9738 N   0  0  0  0  0  2  0  0  0  0  0  0
   -1.0960   -0.2427   -0.9401 N   0  0  0  0  0  2  0  0  0  0  0  0
   -5.2820    0.0700   -0.9195 C   0  0  0  0  0  0  0  0  0  0  0  0
   -5.1794   -0.1759   -1.9941 H   0  0  0  0  0  0  0  0  0  0  0  0
   -4.7120   -0.6828   -0.3395 H   0  0  0  0  0  0  0  0  0  0  0  0
   -6.7214    0.1630   -0.4925 C   0  0  0  0  0  0  0  0  0  0  0  0
   -7.0596    0.1572    0.8776 C   0  0  0  0  0  0  0  0  0  0  0  0
   -6.2565    0.0917    1.6285 H   0  0  0  0  0  0  0  0  0  0  0  0
   -8.3975    0.2444    1.2844 C   0  0  0  0  0  0  0  0  0  0  0  0
   -8.6457    0.2352    2.3567 H   0  0  0  0  0  0  0  0  0  0  0  0
   -9.4201    0.3445    0.3259 C   0  0  0  0  0  0  0  0  0  0  0  0
  -10.4712    0.4130    0.6448 H   0  0  0  0  0  0  0  0  0  0  0  0
   -9.0950    0.3593   -1.0389 C   0  0  0  0  0  0  0  0  0  0  0  0
   -9.8906    0.4405   -1.7951 H   0  0  0  0  0  0  0  0  0  0  0  0
   -7.7540    0.2730   -1.4440 C   0  0  0  0  0  0  0  0  0  0  0  0
   -7.5000    0.2869   -2.5156 H   0  0  0  0  0  0  0  0  0  0  0  0
   -2.7600    1.2111   -0.6935 C   0  0  1  0  0  3  0  0  0  0  0  0
   -0.6561   -1.3399   -1.5383 C   0  0  1  0  0  3  0  0  0  0  0  0
   -1.6352   -2.3558   -2.0449 C   0  0  0  0  0  0  0  0  0  0  0  0
   -2.3080   -2.6789   -1.2236 H   0  0  0  0  0  0  0  0  0  0  0  0
   -1.1217   -3.2282   -2.4860 H   0  0  0  0  0  0  0  0  0  0  0  0
   -2.2919   -1.9000   -2.8142 H   0  0  0  0  0  0  0  0  0  0  0  0
    0.7900   -1.4905   -1.7565 C   0  0  0  0  0  0  0  0  0  0  0  0
    1.5758   -0.3523   -2.0667 C   0  0  0  0  0  0  0  0  0  0  0  0
    1.0837    0.6266   -2.1725 H   0  0  0  0  0  0  0  0  0  0  0  0
    2.9568   -0.4707   -2.2676 C   0  0  0  0  0  0  0  0  0  0  0  0
    3.5475    0.4298   -2.4936 H   0  0  0  0  0  0  0  0  0  0  0  0
    3.5793   -1.7247   -2.1705 C   0  0  0  0  0  0  0  0  0  0  0  0
    4.6650   -1.8195   -2.3259 H   0  0  0  0  0  0  0  0  0  0  0  0
    2.8083   -2.8656   -1.8831 C   0  0  0  0  0  0  0  0  0  0  0  0
    3.2909   -3.8520   -1.8082 H   0  0  0  0  0  0  0  0  0  0  0  0
    1.4256   -2.7533   -1.6906 C   0  0  0  0  0  0  0  0  0  0  0  0
    0.8335   -3.6497   -1.4514 H   0  0  0  0  0  0  0  0  0  0  0  0
  3  4  1  0  0  0  0
  3 19  1  0  0  0  0
  5  1  1  0  0  0  0
  5  8  1  0  0  0  0
  5  7  1  0  0  0  0
  6  5  1  0  0  0  0
  8  9  1  0  0  0  0
  9 11  2  0  0  0  0
  9 10  1  0  0  0  0
 11 12  1  0  0  0  0
 13 14  1  0  0  0  0
 13 11  1  0  0  0  0
 15 13  2  0  0  0  0
 16 15  1  0  0  0  0
 17 15  1  0  0  0  0
 17  8  2  0  0  0  0
 18 17  1  0  0  0  0
 19  1  1  0  0  0  0
 19  2  1  1  0  0  0
 20  4  1  6  0  0  0
 21 20  1  0  0  0  0
 21 22  1  0  0  0  0
 23 21  1  0  0  0  0
 24 21  1  0  0  0  0
 25 34  1  0  0  0  0
 25 20  1  0  0  0  0
 26 25  2  0  0  0  0
 27 26  1  0  0  0  0
 28 30  2  0  0  0  0
 28 26  1  0  0  0  0
 29 28  1  0  0  0  0
 30 32  1  0  0  0  0
 31 30  1  0  0  0  0
 32 33  1  0  0  0  0
 32 34  2  0  0  0  0
 34 35  1  0  0  0  0
M  END
