1,6
q = -1.0, confidence = 0.0

 22 22  0  0  0  0  0  0  0  0999 V2000
    0.3255   -2.2922   -0.2484 S   0  0  0  0  0  1  0  0  0  0  0  0
   -1.6606   -4.0399    0.0706 N   0  0  0  0  0  0  0  0  0  0  0  0
   -2.6356   -4.3198    0.1669 H   0  0  0  0  0  0  0  0  0  0  0  0
   -0.9353   -4.7469   -0.0175 H   0  0  0  0  0  0  0  0  0  0  0  0
   -2.3438   -1.8521    0.1105 N   0  0  0  0  0  0  0  0  0  0  0  0
   -1.9903   -0.5551    0.0306 N   0  0  0  0  0  2  0  0  0  0  0  0
   -8.6814    0.2299   -0.0097 N   0  0  0  0  0  0  0  0  0  0  0  0
   -9.2476    1.3220   -0.0768 O   0  0  0  0  0  0  0  0  0  0  0  0
   -9.2488   -0.8615    0.0568 O   0  0  0  0  0  0  0  0  0  0  0  0
   -1.3473   -2.7228    0.0021 C   0  0  0  0  0  0  0  0  0  0  0  0
   -2.9459    0.3601   -0.0178 C   0  0  0  0  0  3  0  0  0  0  0  0
   -2.5759    1.3919   -0.0871 H   0  0  0  0  0  0  0  0  0  0  0  0
   -4.3928    0.2218   -0.0086 C   0  0  0  0  0  0  0  0  0  0  0  0
   -5.1212   -0.9977    0.0672 C   0  0  0  0  0  0  0  0  0  0  0  0
   -4.5574   -1.9345    0.1269 H   0  0  0  0  0  0  0  0  0  0  0  0
   -6.5173   -0.9916    0.0669 C   0  0  0  0  0  0  0  0  0  0  0  0
   -7.1013   -1.9197    0.1248 H   0  0  0  0  0  0  0  0  0  0  0  0
   -7.2010    0.2298   -0.0091 C   0  0  0  0  0  0  0  0  0  0  0  0
   -6.5194    1.4537   -0.0842 C   0  0  0  0  0  0  0  0  0  0  0  0
   -7.0990    2.3843   -0.1414 H   0  0  0  0  0  0  0  0  0  0  0  0
   -5.1263    1.4411   -0.0829 C   0  0  0  0  0  0  0  0  0  0  0  0
   -4.5762    2.3930   -0.1399 H   0  0  0  0  0  0  0  0  0  0  0  0
  1 10  1  0  0  0  0
  2  3  1  0  0  0  0
  4  2  1  0  0  0  0
  6  5  1  0  0  0  0
  7 18  1  0  0  0  0
  7  9  2  0  0  0  0
  8  7  2  0  0  0  0
 10  2  1  0  0  0  0
 10  5  2  0  0  0  0
 11 13  1  0  0  0  0
 11  6  1  0  0  0  0
 12 11  1  0  0  0  0
 13 14  1  0  0  0  0
 14 15  1  0  0  0  0
 16 14  2  0  0  0  0
 16 17  1  0  0  0  0
 18 16  1  0  0  0  0
 19 21  1  0  0  0  0
 19 18  2  0  0  0  0
 20 19  1  0  0  0  0
 21 13  2  0  0  0  0
 22 21  1  0  0  0  0
M  END
