1,9
q = -1.0

 24 24  0  0  0  0  0  0  0  0999 V2000
    0.3923   -2.2829   -0.2498 S   0  0  0  0  0  1  0  0  0  0  0  0
   -6.5746    1.2441   -0.0885 C   0  0  0  0  0  0  0  0  0  0  0  0
   -7.1301    2.1884   -0.1603 H   0  0  0  0  0  0  0  0  0  0  0  0
   -1.2709   -2.7613    0.0049 C   0  0  0  0  0  0  0  0  0  0  0  0
   -8.5974   -0.1384    0.0188 O   0  0  0  0  0  0  0  0  0  0  0  0
   -1.5334   -4.0970    0.0969 N   0  0  0  0  0  0  0  0  0  0  0  0
   -2.5057   -4.4002    0.0519 H   0  0  0  0  0  0  0  0  0  0  0  0
   -0.8036   -4.7599   -0.1539 H   0  0  0  0  0  0  0  0  0  0  0  0
   -1.9723   -0.6104    0.0360 N   0  0  0  0  0  2  0  0  0  0  0  0
   -2.2885   -1.9271    0.1161 N   0  0  0  0  0  0  0  0  0  0  0  0
   -6.4920   -1.1856    0.0997 C   0  0  0  0  0  0  0  0  0  0  0  0
   -7.0376   -2.1375    0.1754 H   0  0  0  0  0  0  0  0  0  0  0  0
   -7.2471    0.0060    0.0072 C   0  0  0  0  0  0  0  0  0  0  0  0
   -5.1008   -1.1524    0.0954 C   0  0  0  0  0  0  0  0  0  0  0  0
   -4.5110   -2.0728    0.1687 H   0  0  0  0  0  0  0  0  0  0  0  0
   -4.4002    0.0837   -0.0016 C   0  0  0  0  0  0  0  0  0  0  0  0
   -2.9594    0.2667   -0.0156 C   0  0  0  0  0  3  0  0  0  0  0  0
   -2.6238    1.3106   -0.0921 H   0  0  0  0  0  0  0  0  0  0  0  0
   -5.1776    1.2680   -0.0907 C   0  0  0  0  0  0  0  0  0  0  0  0
   -4.6617    2.2385   -0.1636 H   0  0  0  0  0  0  0  0  0  0  0  0
   -9.4028    1.0225   -0.0709 C   0  0  0  0  0  0  0  0  0  0  0  0
  -10.4530    0.6778   -0.0439 H   0  0  0  0  0  0  0  0  0  0  0  0
   -9.2279    1.5758   -1.0207 H   0  0  0  0  0  0  0  0  0  0  0  0
   -9.2275    1.7153    0.7825 H   0  0  0  0  0  0  0  0  0  0  0  0
  1  4  1  0  0  0  0
  2 13  1  0  0  0  0
  3  2  1  0  0  0  0
  4  6  1  0  0  0  0
  4 10  2  0  0  0  0
  7  6  1  0  0  0  0
  8  6  1  0  0  0  0
  9 10  1  0  0  0  0
 11 12  1  0  0  0  0
 13  5  1  0  0  0  0
 13 11  2  0  0  0  0
 14 11  1  0  0  0  0
 14 15  1  0  0  0  0
 16 14  2  0  0  0  0
 17 16  1  0  0  0  0
 17  9  1  0  0  0  0
 18 17  1  0  0  0  0
 19  2  2  0  0  0  0
 19 16  1  0  0  0  0
 20 19  1  0  0  0  0
 21 22  1  0  0  0  0
 21  5  1  0  0  0  0
 21 24  1  0  0  0  0
 23 21  1  0  0  0  0
M  END
