1,3
q = -1.0, confidence = 0.0

 38 39  0  0  0  0  0  0  0  0999 V2000
    3.9529    1.5418   -0.3007 S   0  0  0  0  0  1  0  0  0  0  0  0
   -2.8547    0.0153   -1.7335 S   0  0  0  0  0  0  0  0  0  0  0  0
    1.1698    1.1596   -0.8437 N   0  0  0  0  0  2  0  0  0  0  0  0
    2.8118    2.8605   -0.4965 C   0  0  0  0  0  0  0  0  0  0  0  0
    3.1905    4.2210   -0.4222 C   0  0  0  0  0  0  0  0  0  0  0  0
    4.2489    4.4716   -0.2558 H   0  0  0  0  0  0  0  0  0  0  0  0
    2.2265    5.2283   -0.5315 C   0  0  0  0  0  0  0  0  0  0  0  0
    2.5325    6.2825   -0.4491 H   0  0  0  0  0  0  0  0  0  0  0  0
    0.8670    4.9048   -0.7263 C   0  0  0  0  0  0  0  0  0  0  0  0
    0.1094    5.7005   -0.7777 H   0  0  0  0  0  0  0  0  0  0  0  0
    0.4789    3.5657   -0.8359 C   0  0  0  0  0  0  0  0  0  0  0  0
   -0.5845    3.3075   -0.9493 H   0  0  0  0  0  0  0  0  0  0  0  0
    1.4447    2.5462   -0.7276 C   0  0  0  0  0  0  0  0  0  0  0  0
    0.1225    0.7444   -1.5162 C   0  0  0  0  0  3  0  0  0  0  0  0
   -0.5997    1.4901   -1.8888 H   0  0  0  0  0  0  0  0  0  0  0  0
   -0.1430   -0.6392   -1.8775 C   0  0  0  0  0  0  0  0  0  0  0  0
    0.9210   -1.5482   -2.1044 C   0  0  0  0  0  0  0  0  0  0  0  0
    1.9592   -1.1953   -1.9806 H   0  0  0  0  0  0  0  0  0  0  0  0
    0.6670   -2.8676   -2.4885 C   0  0  0  0  0  0  0  0  0  0  0  0
    1.5088   -3.5583   -2.6438 H   0  0  0  0  0  0  0  0  0  0  0  0
   -0.6559   -3.3123   -2.6413 C   0  0  0  0  0  0  0  0  0  0  0  0
   -0.8604   -4.3591   -2.9120 H   0  0  0  0  0  0  0  0  0  0  0  0
   -1.7234   -2.4242   -2.4302 C   0  0  0  0  0  0  0  0  0  0  0  0
   -2.7631   -2.7723   -2.5112 H   0  0  0  0  0  0  0  0  0  0  0  0
   -1.4849   -1.0837   -2.0752 C   0  0  0  0  0  0  0  0  0  0  0  0
   -3.4150    0.5648   -3.4535 C   0  0  0  0  0  0  0  0  0  0  0  0
   -3.9114   -0.6302   -4.2702 C   0  0  0  0  0  0  0  0  0  0  0  0
   -4.7119   -1.1780   -3.7349 H   0  0  0  0  0  0  0  0  0  0  0  0
   -3.0896   -1.3379   -4.4951 H   0  0  0  0  0  0  0  0  0  0  0  0
   -4.3210   -0.2750   -5.2401 H   0  0  0  0  0  0  0  0  0  0  0  0
   -4.5669    1.5301   -3.1422 C   0  0  0  0  0  0  0  0  0  0  0  0
   -5.3876    1.0172   -2.6018 H   0  0  0  0  0  0  0  0  0  0  0  0
   -4.9787    1.9367   -4.0892 H   0  0  0  0  0  0  0  0  0  0  0  0
   -4.2214    2.3821   -2.5226 H   0  0  0  0  0  0  0  0  0  0  0  0
   -2.2743    1.2847   -4.1773 C   0  0  0  0  0  0  0  0  0  0  0  0
   -1.9522    2.1918   -3.6280 H   0  0  0  0  0  0  0  0  0  0  0  0
   -2.6102    1.6027   -5.1875 H   0  0  0  0  0  0  0  0  0  0  0  0
   -1.3952    0.6225   -4.3099 H   0  0  0  0  0  0  0  0  0  0  0  0
  3 13  1  0  0  0  0
  4  5  1  0  0  0  0
  4  1  1  0  0  0  0
  5  6  1  0  0  0  0
  7  8  1  0  0  0  0
  7  5  2  0  0  0  0
  9  7  1  0  0  0  0
 10  9  1  0  0  0  0
 11 13  1  0  0  0  0
 11  9  2  0  0  0  0
 12 11  1  0  0  0  0
 13  4  2  0  0  0  0
 14  3  1  0  0  0  0
 15 14  1  0  0  0  0
 16 14  1  0  0  0  0
 17 18  1  0  0  0  0
 17 16  2  0  0  0  0
 19 17  1  0  0  0  0
 20 19  1  0  0  0  0
 21 19  2  0  0  0  0
 21 23  1  0  0  0  0
 22 21  1  0  0  0  0
 23 25  2  0  0  0  0
 24 23  1  0  0  0  0
 25 16  1  0  0  0  0
 25  2  1  0  0  0  0
 26 31  1  0  0  0  0
 26  2  1  0  0  0  0
 27 28  1  0  0  0  0
 27 26  1  0  0  0  0
 29 27  1  0  0  0  0
 30 27  1  0  0  0  0
 31 32  1  0  0  0  0
 31 34  1  0  0  0  0
 33 31  1  0  0  0  0
 35 36  1  0  0  0  0
 35 26  1  0  0  0  0
 37 35  1  0  0  0  0
 38 35  1  0  0  0  0
M  END
