1,4
q = -1.0

 24 24  0  0  1  0  0  0  0  0999 V2000
    1.3622   -3.2084   -1.0001 S   0  0  0  0  0  1  0  0  0  0  0  0
   -4.3741    3.1851   -0.8629 O   0  0  0  0  0  0  0  0  0  0  0  0
    2.3249   -0.7265   -1.6479 N   0  0  0  0  0  2  0  0  0  0  0  0
    1.0705   -0.3464   -1.2618 N   0  0  0  0  0  2  0  0  0  0  0  0
    3.7752   -2.4950   -1.9163 N   0  0  0  0  0  0  0  0  0  0  0  0
    4.3490   -1.8822   -2.4972 H   0  0  0  0  0  0  0  0  0  0  0  0
    3.8814   -3.4998   -2.0436 H   0  0  0  0  0  0  0  0  0  0  0  0
    2.5443   -2.0213   -1.5508 C   0  0  2  0  0  3  0  0  0  0  0  0
    0.6787    0.8263   -1.7008 C   0  0  0  0  0  3  0  0  0  0  0  0
    1.4483    1.4187   -2.2305 H   0  0  0  0  0  0  0  0  0  0  0  0
   -0.6519    1.3839   -1.5439 C   0  0  0  0  0  0  0  0  0  0  0  0
   -1.8144    0.5816   -1.4683 C   0  0  0  0  0  0  0  0  0  0  0  0
   -1.7211   -0.5103   -1.5781 H   0  0  0  0  0  0  0  0  0  0  0  0
   -3.0742    1.1433   -1.2461 C   0  0  0  0  0  0  0  0  0  0  0  0
   -3.9464    0.4814   -1.1735 H   0  0  0  0  0  0  0  0  0  0  0  0
   -3.2030    2.5423   -1.1106 C   0  0  0  0  0  0  0  0  0  0  0  0
   -5.5361    2.4028   -0.6521 C   0  0  0  0  0  0  0  0  0  0  0  0
   -5.8124    1.8174   -1.5575 H   0  0  0  0  0  0  0  0  0  0  0  0
   -6.3526    3.1117   -0.4207 H   0  0  0  0  0  0  0  0  0  0  0  0
   -5.4082    1.6999    0.2011 H   0  0  0  0  0  0  0  0  0  0  0  0
   -2.0607    3.3648   -1.2537 C   0  0  0  0  0  0  0  0  0  0  0  0
   -2.1893    4.4538   -1.1726 H   0  0  0  0  0  0  0  0  0  0  0  0
   -0.8111    2.7930   -1.4780 C   0  0  0  0  0  0  0  0  0  0  0  0
    0.0765    3.4384   -1.5620 H   0  0  0  0  0  0  0  0  0  0  0  0
  2 17  1  0  0  0  0
  3  8  1  0  0  0  0
  3  4  1  0  0  0  0
  5  8  1  0  0  0  0
  6  5  1  0  0  0  0
  7  5  1  0  0  0  0
  8  1  1  6  0  0  0
  9 11  1  0  0  0  0
  9  4  1  0  0  0  0
 10  9  1  0  0  0  0
 11 23  2  0  0  0  0
 11 12  1  0  0  0  0
 12 14  2  0  0  0  0
 13 12  1  0  0  0  0
 14 15  1  0  0  0  0
 14 16  1  0  0  0  0
 16  2  1  0  0  0  0
 17 19  1  0  0  0  0
 17 20  1  0  0  0  0
 18 17  1  0  0  0  0
 21 22  1  0  0  0  0
 21 16  2  0  0  0  0
 23 21  1  0  0  0  0
 24 23  1  0  0  0  0
M  END
