1,12
q = -1.0, confidence = 0.0

 23 23  0  0  1  0  0  0  0  0999 V2000
   -1.3916   -3.0728   -0.9660 S   0  0  0  0  0  1  0  0  0  0  0  0
   -0.7231    0.9656   -1.6616 C   0  0  0  0  0  3  0  0  0  0  0  0
   -1.5105    1.5633   -2.1579 H   0  0  0  0  0  0  0  0  0  0  0  0
    0.6159    1.5226   -1.5611 C   0  0  0  0  0  0  0  0  0  0  0  0
    3.1993    2.7050   -1.3089 C   0  0  0  0  0  0  0  0  0  0  0  0
    3.0454    1.3047   -1.4128 C   0  0  0  0  0  0  0  0  0  0  0  0
    3.9360    0.6576   -1.3874 H   0  0  0  0  0  0  0  0  0  0  0  0
   -2.5904   -1.8784   -1.4620 C   0  0  1  0  0  3  0  0  0  0  0  0
    1.7851    0.7214   -1.5462 C   0  0  0  0  0  0  0  0  0  0  0  0
    1.6889   -0.3719   -1.6374 H   0  0  0  0  0  0  0  0  0  0  0  0
   -2.3696   -0.5821   -1.5602 N   0  0  0  0  0  2  0  0  0  0  0  0
   -1.1020   -0.2100   -1.2200 N   0  0  0  0  0  2  0  0  0  0  0  0
   -3.8320   -2.3431   -1.7874 N   0  0  0  0  0  0  0  0  0  0  0  0
   -4.4472   -1.7166   -2.3069 H   0  0  0  0  0  0  0  0  0  0  0  0
   -3.9676   -3.3469   -1.8863 H   0  0  0  0  0  0  0  0  0  0  0  0
    2.0387    3.5039   -1.3774 C   0  0  0  0  0  0  0  0  0  0  0  0
    2.1350    4.5998   -1.3196 H   0  0  0  0  0  0  0  0  0  0  0  0
    0.7708    2.9286   -1.5141 C   0  0  0  0  0  0  0  0  0  0  0  0
   -0.1239    3.5690   -1.5490 H   0  0  0  0  0  0  0  0  0  0  0  0
    4.5666    3.3157   -1.1427 C   0  0  0  0  0  0  0  0  0  0  0  0
    5.0390    2.9828   -0.1943 H   0  0  0  0  0  0  0  0  0  0  0  0
    4.5246    4.4219   -1.1308 H   0  0  0  0  0  0  0  0  0  0  0  0
    5.2492    3.0082   -1.9623 H   0  0  0  0  0  0  0  0  0  0  0  0
  2  4  1  0  0  0  0
  2 12  1  0  0  0  0
  3  2  1  0  0  0  0
  4  9  2  0  0  0  0
  4 18  1  0  0  0  0
  5 20  1  0  0  0  0
  6  7  1  0  0  0  0
  6  5  2  0  0  0  0
  8  1  1  6  0  0  0
  9  6  1  0  0  0  0
 10  9  1  0  0  0  0
 11  8  1  0  0  0  0
 11 12  1  0  0  0  0
 13  8  1  0  0  0  0
 14 13  1  0  0  0  0
 15 13  1  0  0  0  0
 16 17  1  0  0  0  0
 16  5  1  0  0  0  0
 18 16  2  0  0  0  0
 19 18  1  0  0  0  0
 20 22  1  0  0  0  0
 20 21  1  0  0  0  0
 23 20  1  0  0  0  0
M  END
