1,12
q = -1.0

 20 20  0  0  1  0  0  0  0  0999 V2000
   -1.0191   -0.4257   -1.2931 N   0  0  0  0  0  2  0  0  0  0  0  0
   -2.2592   -0.7988   -1.7141 N   0  0  0  0  0  2  0  0  0  0  0  0
    0.8566    2.7213   -1.4640 C   0  0  0  0  0  0  0  0  0  0  0  0
   -0.0352    3.3579   -1.5679 H   0  0  0  0  0  0  0  0  0  0  0  0
   -2.4873   -2.0964   -1.6276 C   0  0  1  0  0  3  0  0  0  0  0  0
   -3.7014   -2.5594   -2.0347 N   0  0  0  0  0  0  0  0  0  0  0  0
   -4.3024   -1.9277   -2.5637 H   0  0  0  0  0  0  0  0  0  0  0  0
   -3.8538   -3.5627   -2.1070 H   0  0  0  0  0  0  0  0  0  0  0  0
    2.1038    3.3118   -1.2425 C   0  0  0  0  0  0  0  0  0  0  0  0
    2.2116    4.4038   -1.1830 H   0  0  0  0  0  0  0  0  0  0  0  0
    3.2357    2.4903   -1.0915 C   0  0  0  0  0  0  0  0  0  0  0  0
   -1.3216   -3.2890   -1.0542 S   0  0  0  0  0  1  0  0  0  0  0  0
    3.1300    1.0921   -1.1916 C   0  0  0  0  0  0  0  0  0  0  0  0
    4.0278    0.4664   -1.0971 H   0  0  0  0  0  0  0  0  0  0  0  0
    0.7122    1.3125   -1.5140 C   0  0  0  0  0  0  0  0  0  0  0  0
    4.7930    3.2193   -0.8019 Cl  0  0  0  0  0  0  0  0  0  0  0  0
    1.8784    0.5137   -1.4121 C   0  0  0  0  0  0  0  0  0  0  0  0
    1.7926   -0.5804   -1.5050 H   0  0  0  0  0  0  0  0  0  0  0  0
   -0.6148    0.7521   -1.7075 C   0  0  0  0  0  3  0  0  0  0  0  0
   -1.3674    1.3481   -2.2565 H   0  0  0  0  0  0  0  0  0  0  0  0
  2  5  1  0  0  0  0
  2  1  1  0  0  0  0
  3  9  1  0  0  0  0
  4  3  1  0  0  0  0
  5 12  1  6  0  0  0
  6  5  1  0  0  0  0
  7  6  1  0  0  0  0
  8  6  1  0  0  0  0
  9 10  1  0  0  0  0
  9 11  2  0  0  0  0
 11 16  1  0  0  0  0
 13 14  1  0  0  0  0
 13 11  1  0  0  0  0
 15  3  2  0  0  0  0
 15 17  1  0  0  0  0
 17 13  2  0  0  0  0
 18 17  1  0  0  0  0
 19 15  1  0  0  0  0
 19  1  1  0  0  0  0
 20 19  1  0  0  0  0
M  END
