1,2
q = -1.0, confidence = 0.0

 26 27  0  0  1  0  0  0  0  0999 V2000
   -1.2630    1.5945   -0.7951 S   0  0  0  0  0  1  0  0  0  0  0  0
   -0.8894   -1.3267   -1.0619 N   0  0  0  0  0  2  0  0  0  0  0  0
   -3.7592    1.6128    0.0158 N   0  0  0  0  0  0  0  0  0  0  0  0
   -3.3853    2.5376    0.2417 H   0  0  0  0  0  0  0  0  0  0  0  0
   -2.2334   -1.3430   -1.3665 C   0  0  2  0  0  3  0  0  0  0  0  0
   -3.1174   -0.4611   -0.8342 N   0  0  0  0  0  0  0  0  0  0  0  0
   -2.8098    0.7762   -0.5215 C   0  0  0  0  0  0  0  0  0  0  0  0
   -0.0659   -2.2466   -1.6347 C   0  0  0  0  0  0  0  0  0  0  0  0
    0.9940   -2.1790   -1.3499 H   0  0  0  0  0  0  0  0  0  0  0  0
   -5.1303    1.4424    0.2629 C   0  0  0  0  0  0  0  0  0  0  0  0
   -1.8827   -3.2769   -2.8244 C   0  0  0  0  0  0  0  0  0  0  0  0
   -2.2778   -4.0391   -3.5128 H   0  0  0  0  0  0  0  0  0  0  0  0
   -0.5080   -3.2273   -2.5155 C   0  0  0  0  0  0  0  0  0  0  0  0
    0.2101   -3.9417   -2.9405 H   0  0  0  0  0  0  0  0  0  0  0  0
   -2.7344   -2.3436   -2.2472 C   0  0  0  0  0  0  0  0  0  0  0  0
   -3.8122   -2.3278   -2.4574 H   0  0  0  0  0  0  0  0  0  0  0  0
   -7.2120    2.4982    0.9895 C   0  0  0  0  0  0  0  0  0  0  0  0
   -7.7465    3.3948    1.3384 H   0  0  0  0  0  0  0  0  0  0  0  0
   -5.8189    0.2190    0.0993 C   0  0  0  0  0  0  0  0  0  0  0  0
   -5.2574   -0.6580   -0.2415 H   0  0  0  0  0  0  0  0  0  0  0  0
   -5.8439    2.5795    0.7128 C   0  0  0  0  0  0  0  0  0  0  0  0
   -5.3114    3.5359    0.8410 H   0  0  0  0  0  0  0  0  0  0  0  0
   -7.8989    1.2844    0.8208 C   0  0  0  0  0  0  0  0  0  0  0  0
   -8.9754    1.2194    1.0376 H   0  0  0  0  0  0  0  0  0  0  0  0
   -7.1918    0.1569    0.3758 C   0  0  0  0  0  0  0  0  0  0  0  0
   -7.7166   -0.8019    0.2433 H   0  0  0  0  0  0  0  0  0  0  0  0
  1  7  1  0  0  0  0
  3  4  1  0  0  0  0
  3 10  1  0  0  0  0
  5  2  1  0  0  0  0
  5  6  1  1  0  0  0
  6  7  2  0  0  0  0
  7  3  1  0  0  0  0
  8  9  1  0  0  0  0
  8  2  1  0  0  0  0
 10 21  1  0  0  0  0
 11 13  1  0  0  0  0
 11 15  2  0  0  0  0
 12 11  1  0  0  0  0
 13  8  2  0  0  0  0
 14 13  1  0  0  0  0
 15  5  1  0  0  0  0
 16 15  1  0  0  0  0
 17 18  1  0  0  0  0
 19 10  2  0  0  0  0
 19 25  1  0  0  0  0
 20 19  1  0  0  0  0
 21 22  1  0  0  0  0
 21 17  2  0  0  0  0
 23 17  1  0  0  0  0
 23 24  1  0  0  0  0
 25 23  2  0  0  0  0
 26 25  1  0  0  0  0
M  END
