2,5
q = -1.0, confidence = 0.0

  8  8  0  0  1  0  0  0  0  0999 V2000
    2.3162   -2.9870   -1.6148 S   0  0  0  0  0  0  0  0  0  0  0  0
    0.0143   -0.9734   -2.3310 S   0  0  0  0  0  1  0  0  0  0  0  0
    3.9351   -4.0392    0.8111 S   0  0  0  0  0  0  0  0  0  0  0  0
    1.8757   -2.2802    0.7792 N   0  0  0  0  0  0  0  0  0  0  0  0
    0.9560   -1.5812    0.0583 N   0  0  0  0  0  2  0  0  0  0  0  0
    2.7484   -3.1162    0.1344 C   0  0  0  0  0  0  0  0  0  0  0  0
    1.0440   -1.8096   -1.2500 C   0  0  2  0  0  3  0  0  0  0  0  0
    1.9436   -2.0958    1.7840 H   0  0  0  0  0  0  0  0  0  0  0  0
  1  7  1  0  0  0  0
  1  6  1  0  0  0  0
  4  8  1  0  0  0  0
  5  4  1  0  0  0  0
  6  4  1  0  0  0  0
  6  3  2  0  0  0  0
  7  2  1  6  0  0  0
  7  5  1  0  0  0  0
M  END
