1,9
q = -1.0, confidence = 0.0

 28 28  0  0  1  0  0  0  0  0999 V2000
   -0.3289    2.1083   -0.5809 S   0  0  0  0  0  1  0  0  0  0  0  0
    1.4687    3.9770    0.1077 N   0  0  0  0  0  0  0  0  0  0  0  0
    2.4369    4.2886    0.1876 H   0  0  0  0  0  0  0  0  0  0  0  0
    0.7904    4.6195   -0.2957 H   0  0  0  0  0  0  0  0  0  0  0  0
    1.2432    2.6359   -0.0220 C   0  0  2  0  0  3  0  0  0  0  0  0
    2.2214    1.7987    0.2559 N   0  0  0  0  0  2  0  0  0  0  0  0
    2.8467   -0.3945   -0.0384 C   0  0  0  0  0  3  0  0  0  0  0  0
    2.4920   -1.4254   -0.1900 H   0  0  0  0  0  0  0  0  0  0  0  0
    1.8688    0.4877    0.0851 N   0  0  0  0  0  2  0  0  0  0  0  0
    4.2867   -0.2342   -0.0182 C   0  0  0  0  0  0  0  0  0  0  0  0
    5.0127    0.9730    0.1736 C   0  0  0  0  0  0  0  0  0  0  0  0
    4.4394    1.8944    0.3282 H   0  0  0  0  0  0  0  0  0  0  0  0
    8.5499   -0.1721   -0.0245 N   0  0  0  0  0  0  0  0  0  0  0  0
    6.4053    0.9925    0.1735 C   0  0  0  0  0  0  0  0  0  0  0  0
    6.9125    1.9537    0.3289 H   0  0  0  0  0  0  0  0  0  0  0  0
    7.1691   -0.1952   -0.0209 C   0  0  0  0  0  0  0  0  0  0  0  0
    6.4465   -1.4095   -0.2100 C   0  0  0  0  0  0  0  0  0  0  0  0
    6.9792   -2.3571   -0.3597 H   0  0  0  0  0  0  0  0  0  0  0  0
    5.0556   -1.4160   -0.2059 C   0  0  0  0  0  0  0  0  0  0  0  0
    4.5292   -2.3729   -0.3512 H   0  0  0  0  0  0  0  0  0  0  0  0
    9.2951   -1.3992   -0.2172 C   0  0  0  0  0  0  0  0  0  0  0  0
    9.0866   -2.1485    0.5803 H   0  0  0  0  0  0  0  0  0  0  0  0
   10.3774   -1.1779   -0.1982 H   0  0  0  0  0  0  0  0  0  0  0  0
    9.0638   -1.8803   -1.1944 H   0  0  0  0  0  0  0  0  0  0  0  0
    9.2551    1.0756    0.1854 C   0  0  0  0  0  0  0  0  0  0  0  0
    9.0087    1.8322   -0.5936 H   0  0  0  0  0  0  0  0  0  0  0  0
   10.3440    0.8924    0.1454 H   0  0  0  0  0  0  0  0  0  0  0  0
    9.0220    1.5295    1.1755 H   0  0  0  0  0  0  0  0  0  0  0  0
  2  3  1  0  0  0  0
  4  2  1  0  0  0  0
  5  1  1  6  0  0  0
  5  2  1  0  0  0  0
  5  6  1  0  0  0  0
  7 10  1  0  0  0  0
  7  9  1  0  0  0  0
  8  7  1  0  0  0  0
  9  6  1  0  0  0  0
 10 11  1  0  0  0  0
 11 12  1  0  0  0  0
 13 16  1  0  0  0  0
 13 25  1  0  0  0  0
 14 11  2  0  0  0  0
 14 15  1  0  0  0  0
 16 14  1  0  0  0  0
 17 19  1  0  0  0  0
 17 16  2  0  0  0  0
 18 17  1  0  0  0  0
 19 10  2  0  0  0  0
 20 19  1  0  0  0  0
 21 23  1  0  0  0  0
 21 13  1  0  0  0  0
 21 22  1  0  0  0  0
 24 21  1  0  0  0  0
 25 28  1  0  0  0  0
 26 25  1  0  0  0  0
 27 25  1  0  0  0  0
M  END
