1,2
q = -1.0

  7  7  0  0  0  0  0  0  0  0999 V2000
    0.5427   -3.3731    0.3426 S   0  0  0  0  0  0  0  0  0  0  0  0
   -1.8130   -2.3289    0.1878 N   0  0  0  0  0  0  0  0  0  0  0  0
   -3.1050   -2.3192    0.0554 C   0  0  0  0  0  0  0  0  0  0  0  0
   -3.9432   -3.3090   -0.0506 C   0  0  0  0  0  0  0  0  0  0  0  0
   -3.2505   -4.4378    0.0706 C   0  0  0  0  0  0  0  0  0  0  0  0
   -1.9999   -4.7763    0.1836 C   0  0  0  0  0  0  0  0  0  0  0  0
   -1.1759   -3.6529    0.2438 C   0  0  0  0  0  0  0  0  0  0  0  0
  2  7  1  0  0  0  0
  3  2  1  0  0  0  0
  4  3  1  0  0  0  0
  4  5  2  0  0  0  0
  5  6  1  0  0  0  0
  6  7  2  0  0  0  0
  7  1  1  0  0  0  0
M  END
