1,2
q = -1.0, confidence = 0.0

 24 24  0  0  1  0  0  0  0  0999 V2000
    1.8446    1.0782    2.4926 S   0  0  0  0  0  1  0  0  0  0  0  0
    1.6862   -0.2670    0.3763 N   0  0  0  0  0  2  0  0  0  0  0  0
    2.5837    0.4924    1.0532 C   0  0  1  0  0  3  0  0  0  0  0  0
    3.8411    0.7554    0.6410 N   0  0  0  0  0  0  0  0  0  0  0  0
    4.1770    0.2566   -0.5436 C   0  0  0  0  0  0  0  0  0  0  0  0
    3.3031   -0.5200   -1.2673 N   0  0  0  0  0  0  0  0  0  0  0  0
    3.5334   -0.8849   -2.1924 H   0  0  0  0  0  0  0  0  0  0  0  0
    1.9715   -0.8156   -0.8429 C   0  0  0  0  0  0  0  0  0  0  0  0
    1.2492   -1.5108   -1.5442 O   0  0  0  0  0  0  0  0  0  0  0  0
    5.4160    0.5155   -1.0575 N   0  0  0  0  0  0  0  0  0  0  0  0
    6.3460    1.3211   -0.2557 C   0  0  0  0  0  0  0  0  0  0  0  0
    7.0332    1.8229   -0.9680 H   0  0  0  0  0  0  0  0  0  0  0  0
    5.7473    2.1018    0.2512 H   0  0  0  0  0  0  0  0  0  0  0  0
    7.1246    0.5224    0.7895 C   0  0  0  0  0  0  0  0  0  0  0  0
    7.7907    1.1970    1.3644 H   0  0  0  0  0  0  0  0  0  0  0  0
    7.7548   -0.2661    0.3311 H   0  0  0  0  0  0  0  0  0  0  0  0
    6.4221    0.0492    1.5028 H   0  0  0  0  0  0  0  0  0  0  0  0
    5.8716   -0.0861   -2.3064 C   0  0  0  0  0  0  0  0  0  0  0  0
    6.7081    0.5394   -2.6769 H   0  0  0  0  0  0  0  0  0  0  0  0
    5.0724    0.0181   -3.0746 H   0  0  0  0  0  0  0  0  0  0  0  0
    6.3198   -1.5482   -2.1937 C   0  0  0  0  0  0  0  0  0  0  0  0
    6.6326   -1.9332   -3.1852 H   0  0  0  0  0  0  0  0  0  0  0  0
    5.5038   -2.1972   -1.8174 H   0  0  0  0  0  0  0  0  0  0  0  0
    7.1758   -1.6506   -1.4990 H   0  0  0  0  0  0  0  0  0  0  0  0
  2  3  1  0  0  0  0
  3  1  1  6  0  0  0
  4  3  1  0  0  0  0
  5  4  2  0  0  0  0
  6  8  1  0  0  0  0
  6  5  1  0  0  0  0
  7  6  1  0  0  0  0
  8  2  1  0  0  0  0
  9  8  2  0  0  0  0
 10  5  1  0  0  0  0
 10 11  1  0  0  0  0
 11 13  1  0  0  0  0
 11 14  1  0  0  0  0
 12 11  1  0  0  0  0
 14 15  1  0  0  0  0
 14 17  1  0  0  0  0
 16 14  1  0  0  0  0
 18 21  1  0  0  0  0
 18 10  1  0  0  0  0
 19 18  1  0  0  0  0
 20 18  1  0  0  0  0
 21 23  1  0  0  0  0
 21 24  1  0  0  0  0
 22 21  1  0  0  0  0
M  END
