1,5
q = -1.0, confidence = 0.014

 32 33  0  0  0  0  0  0  0  0999 V2000
   -2.0854   -1.3899   -1.6861 S   0  0  0  0  0  1  0  0  0  0  0  0
   -4.7551   -0.8009   -0.6957 S   0  0  0  0  0  0  0  0  0  0  0  0
    1.3701   -0.0568    2.0092 O   0  0  0  0  0  0  0  0  0  0  0  0
   -2.6546   -0.3331    0.8375 N   0  0  0  0  0  0  0  0  0  0  0  0
   -1.3295   -0.2920    1.1170 N   0  0  0  0  0  2  0  0  0  0  0  0
   -7.5989    1.0655    0.1871 C   0  0  0  0  0  0  0  0  0  0  0  0
   -6.9803    1.9363   -0.0827 H   0  0  0  0  0  0  0  0  0  0  0  0
   -8.9894    1.1104    0.0122 C   0  0  0  0  0  0  0  0  0  0  0  0
   -9.4617    2.0193   -0.3909 H   0  0  0  0  0  0  0  0  0  0  0  0
   -9.7774   -0.0014    0.3505 C   0  0  0  0  0  0  0  0  0  0  0  0
  -10.8690    0.0330    0.2144 H   0  0  0  0  0  0  0  0  0  0  0  0
   -9.1667   -1.1571    0.8630 C   0  0  0  0  0  0  0  0  0  0  0  0
   -9.7784   -2.0326    1.1291 H   0  0  0  0  0  0  0  0  0  0  0  0
   -7.7759   -1.1999    1.0371 C   0  0  0  0  0  0  0  0  0  0  0  0
   -7.2969   -2.1088    1.4339 H   0  0  0  0  0  0  0  0  0  0  0  0
   -6.9759   -0.0866    0.7085 C   0  0  0  0  0  0  0  0  0  0  0  0
   -5.4813   -0.1414    0.8706 C   0  0  0  0  0  0  0  0  0  0  0  0
   -5.1667   -0.8094    1.6950 H   0  0  0  0  0  0  0  0  0  0  0  0
   -5.0429    0.8577    1.0567 H   0  0  0  0  0  0  0  0  0  0  0  0
   -3.0220   -0.7961   -0.3443 C   0  0  0  0  0  0  0  0  0  0  0  0
   -1.0207    0.2064    2.2921 C   0  0  0  0  0  3  0  0  0  0  0  0
   -1.8408    0.5410    2.9548 H   0  0  0  0  0  0  0  0  0  0  0  0
    0.3096    0.3445    2.7859 C   0  0  0  0  0  0  0  0  0  0  0  0
    0.7912    0.8267    4.0000 C   0  0  0  0  0  0  0  0  0  0  0  0
    0.1795    1.2139    4.8223 H   0  0  0  0  0  0  0  0  0  0  0  0
    2.2084    0.7029    3.9495 C   0  0  0  0  0  0  0  0  0  0  0  0
    2.9298    0.9764    4.7267 H   0  0  0  0  0  0  0  0  0  0  0  0
    2.5236    0.1549    2.7157 C   0  0  0  0  0  0  0  0  0  0  0  0
    3.7975   -0.2268    2.0672 C   0  0  0  0  0  0  0  0  0  0  0  0
    3.7960   -1.3009    1.7882 H   0  0  0  0  0  0  0  0  0  0  0  0
    4.6482   -0.0282    2.7426 H   0  0  0  0  0  0  0  0  0  0  0  0
    3.9624    0.3379    1.1268 H   0  0  0  0  0  0  0  0  0  0  0  0
  1 20  1  0  0  0  0
  2 20  1  0  0  0  0
  2 17  1  0  0  0  0
  3 28  1  0  0  0  0
  3 23  1  0  0  0  0
  4  5  1  0  0  0  0
  5 21  1  0  0  0  0
  6 16  1  0  0  0  0
  7  6  1  0  0  0  0
  8  6  2  0  0  0  0
  8 10  1  0  0  0  0
  9  8  1  0  0  0  0
 10 12  2  0  0  0  0
 11 10  1  0  0  0  0
 12 14  1  0  0  0  0
 12 13  1  0  0  0  0
 14 15  1  0  0  0  0
 16 17  1  0  0  0  0
 16 14  2  0  0  0  0
 17 19  1  0  0  0  0
 17 18  1  0  0  0  0
 20  4  2  0  0  0  0
 21 23  1  0  0  0  0
 21 22  1  0  0  0  0
 23 24  2  0  0  0  0
 24 25  1  0  0  0  0
 26 24  1  0  0  0  0
 26 27  1  0  0  0  0
 28 26  2  0  0  0  0
 29 28  1  0  0  0  0
 29 31  1  0  0  0  0
 30 29  1  0  0  0  0
 32 29  1  0  0  0  0
M  END
