1,2
q = -1.0

 32 34  0  0  1  0  0  0  0  0999 V2000
    1.7767   -0.6529   -0.7493 S   0  0  0  0  0  1  0  0  0  0  0  0
    0.4747    1.9159   -0.1943 N   0  0  0  0  0  2  0  0  0  0  0  0
    2.0812    3.3391   -0.7463 N   0  0  0  0  0  0  0  0  0  0  0  0
    3.0152    3.6151   -1.0578 H   0  0  0  0  0  0  0  0  0  0  0  0
    3.7820    1.1879   -1.4007 N   0  0  0  0  0  0  0  0  0  0  0  0
    8.1420   -2.0497   -2.6534 O   0  0  0  0  0  0  0  0  0  0  0  0
    2.5780    0.8979   -0.9937 C   0  0  0  0  0  0  0  0  0  0  0  0
    1.7246    2.0324   -0.6608 C   0  0  1  0  0  3  0  0  0  0  0  0
   -0.0006    3.1897    0.0735 C   0  0  0  0  0  0  0  0  0  0  0  0
    1.0275    4.1132   -0.2876 C   0  0  0  0  0  0  0  0  0  0  0  0
    0.8641    5.4967   -0.1264 C   0  0  0  0  0  0  0  0  0  0  0  0
    1.6568    6.2056   -0.4044 H   0  0  0  0  0  0  0  0  0  0  0  0
   -0.3507    5.9290    0.4184 C   0  0  0  0  0  0  0  0  0  0  0  0
   -0.5174    7.0061    0.5667 H   0  0  0  0  0  0  0  0  0  0  0  0
   -1.3645    5.0142    0.7964 C   0  0  0  0  0  0  0  0  0  0  0  0
   -2.2949    5.4006    1.2378 H   0  0  0  0  0  0  0  0  0  0  0  0
   -1.2063    3.6346    0.6367 C   0  0  0  0  0  0  0  0  0  0  0  0
   -1.9730    2.9119    0.9482 H   0  0  0  0  0  0  0  0  0  0  0  0
    4.7836    0.3029   -1.7442 C   0  0  0  0  0  0  0  0  0  0  0  0
    4.6201   -1.0783   -2.0349 C   0  0  0  0  0  0  0  0  0  0  0  0
    3.6091   -1.5114   -2.0542 H   0  0  0  0  0  0  0  0  0  0  0  0
    5.7153   -1.8929   -2.3411 C   0  0  0  0  0  0  0  0  0  0  0  0
    5.5427   -2.9524   -2.5728 H   0  0  0  0  0  0  0  0  0  0  0  0
    7.0166   -1.3466   -2.3706 C   0  0  0  0  0  0  0  0  0  0  0  0
    7.1959    0.0350   -2.1145 C   0  0  0  0  0  0  0  0  0  0  0  0
    8.2159    0.4433   -2.1529 H   0  0  0  0  0  0  0  0  0  0  0  0
    6.1017    0.8387   -1.8247 C   0  0  0  0  0  0  0  0  0  0  0  0
    6.2293    1.9115   -1.6197 H   0  0  0  0  0  0  0  0  0  0  0  0
    8.0295   -3.4410   -2.8949 C   0  0  0  0  0  0  0  0  0  0  0  0
    9.0555   -3.8105   -3.0767 H   0  0  0  0  0  0  0  0  0  0  0  0
    7.4037   -3.6555   -3.7899 H   0  0  0  0  0  0  0  0  0  0  0  0
    7.5988   -3.9779   -2.0206 H   0  0  0  0  0  0  0  0  0  0  0  0
  2  9  1  0  0  0  0
  3  8  1  0  0  0  0
  3 10  1  0  0  0  0
  4  3  1  0  0  0  0
  5  7  2  0  0  0  0
  6 24  1  0  0  0  0
  7  1  1  0  0  0  0
  8  7  1  1  0  0  0
  8  2  1  0  0  0  0
  9 17  1  0  0  0  0
 10 11  1  0  0  0  0
 10  9  2  0  0  0  0
 11 13  2  0  0  0  0
 12 11  1  0  0  0  0
 13 14  1  0  0  0  0
 13 15  1  0  0  0  0
 15 16  1  0  0  0  0
 17 15  2  0  0  0  0
 17 18  1  0  0  0  0
 19  5  1  0  0  0  0
 20 19  2  0  0  0  0
 21 20  1  0  0  0  0
 22 20  1  0  0  0  0
 23 22  1  0  0  0  0
 24 22  2  0  0  0  0
 24 25  1  0  0  0  0
 25 27  2  0  0  0  0
 26 25  1  0  0  0  0
 27 19  1  0  0  0  0
 27 28  1  0  0  0  0
 29  6  1  0  0  0  0
 29 32  1  0  0  0  0
 30 29  1  0  0  0  0
 31 29  1  0  0  0  0
M  END
