1,3
q = -1.0

 40 43  0  0  1  0  0  0  0  0999 V2000
   -1.4809   -3.5947   -0.5270 S   0  0  0  0  0  1  0  0  0  0  0  0
   -4.2798   -3.0523   -1.3061 S   0  0  0  0  0  0  0  0  0  0  0  0
   -1.0886   -0.8466   -0.9530 N   0  0  0  0  0  2  0  0  0  0  0  0
   -2.4131   -1.1260   -1.1355 N   0  0  0  0  0  2  0  0  0  0  0  0
   -0.6793    0.3627   -1.3389 C   0  0  0  0  0  0  0  0  0  0  0  0
    0.7160    0.7224   -1.6266 C   0  0  0  0  0  0  0  0  0  0  0  0
    1.8597   -0.0738   -1.7868 C   0  0  0  0  0  0  0  0  0  0  0  0
    1.8048   -1.1665   -1.6643 H   0  0  0  0  0  0  0  0  0  0  0  0
    3.0778    0.5540   -2.0985 C   0  0  0  0  0  0  0  0  0  0  0  0
    3.9913   -0.0492   -2.1933 H   0  0  0  0  0  0  0  0  0  0  0  0
    3.1455    1.9475   -2.2761 C   0  0  0  0  0  0  0  0  0  0  0  0
    4.1153    2.4130   -2.5080 H   0  0  0  0  0  0  0  0  0  0  0  0
    1.9920    2.7467   -2.1644 C   0  0  0  0  0  0  0  0  0  0  0  0
    2.0471    3.8338   -2.3248 H   0  0  0  0  0  0  0  0  0  0  0  0
    0.7768    2.1322   -1.8466 C   0  0  0  0  0  0  0  0  0  0  0  0
   -0.5826    2.6735   -1.7047 C   0  0  0  0  0  0  0  0  0  0  0  0
   -1.0549    3.9901   -1.7183 C   0  0  0  0  0  3  0  0  0  0  0  0
   -0.3633    4.8311   -1.8773 H   0  0  0  0  0  0  0  0  0  0  0  0
   -2.4268    4.2234   -1.5030 C   0  0  0  0  0  0  0  0  0  0  0  0
   -2.8098    5.2554   -1.5121 H   0  0  0  0  0  0  0  0  0  0  0  0
   -3.3098    3.1541   -1.2668 C   0  0  0  0  0  0  0  0  0  0  0  0
   -4.3761    3.3553   -1.0825 H   0  0  0  0  0  0  0  0  0  0  0  0
   -2.8477    1.8277   -1.2486 C   0  0  0  0  0  0  0  0  0  0  0  0
   -3.5209    0.9900   -1.0377 H   0  0  0  0  0  0  0  0  0  0  0  0
   -1.4839    1.5858   -1.4707 C   0  0  0  0  0  0  0  0  0  0  0  0
   -2.6785   -2.4023   -0.9775 C   0  0  2  0  0  3  0  0  0  0  0  0
   -5.2443   -1.5476   -1.6926 C   0  0  0  0  0  0  0  0  0  0  0  0
   -4.6170   -0.9111   -2.3476 H   0  0  0  0  0  0  0  0  0  0  0  0
   -6.0854   -1.9373   -2.3054 H   0  0  0  0  0  0  0  0  0  0  0  0
   -5.7726   -0.7603   -0.5100 C   0  0  0  0  0  0  0  0  0  0  0  0
   -6.0236   -1.3534    0.7412 C   0  0  0  0  0  0  0  0  0  0  0  0
   -5.7711   -2.4147    0.8893 H   0  0  0  0  0  0  0  0  0  0  0  0
   -6.5679   -0.6014    1.7938 C   0  0  0  0  0  0  0  0  0  0  0  0
   -6.7559   -1.0828    2.7657 H   0  0  0  0  0  0  0  0  0  0  0  0
   -6.8632    0.7593    1.6139 C   0  0  0  0  0  0  0  0  0  0  0  0
   -7.2837    1.3501    2.4417 H   0  0  0  0  0  0  0  0  0  0  0  0
   -6.6175    1.3598    0.3689 C   0  0  0  0  0  0  0  0  0  0  0  0
   -6.8442    2.4261    0.2151 H   0  0  0  0  0  0  0  0  0  0  0  0
   -6.0814    0.6043   -0.6843 C   0  0  0  0  0  0  0  0  0  0  0  0
   -5.8955    1.0822   -1.6593 H   0  0  0  0  0  0  0  0  0  0  0  0
  2 26  1  0  0  0  0
  4 26  1  0  0  0  0
  4  3  1  0  0  0  0
  5  3  1  0  0  0  0
  6  5  2  0  0  0  0
  7  8  1  0  0  0  0
  7  6  1  0  0  0  0
  9  7  2  0  0  0  0
 10  9  1  0  0  0  0
 11 13  2  0  0  0  0
 11  9  1  0  0  0  0
 12 11  1  0  0  0  0
 13 15  1  0  0  0  0
 14 13  1  0  0  0  0
 15 16  2  0  0  0  0
 15  6  1  0  0  0  0
 16 25  1  0  0  0  0
 17 16  1  0  0  0  0
 17 19  1  0  0  0  0
 18 17  1  0  0  0  0
 19 21  2  0  0  0  0
 20 19  1  0  0  0  0
 21 23  1  0  0  0  0
 21 22  1  0  0  0  0
 23 24  1  0  0  0  0
 25  5  1  0  0  0  0
 25 23  2  0  0  0  0
 26  1  1  6  0  0  0
 27  2  1  0  0  0  0
 27 30  1  0  0  0  0
 28 27  1  0  0  0  0
 29 27  1  0  0  0  0
 30 31  1  0  0  0  0
 31 32  1  0  0  0  0
 31 33  2  0  0  0  0
 33 34  1  0  0  0  0
 35 33  1  0  0  0  0
 35 36  1  0  0  0  0
 37 35  2  0  0  0  0
 38 37  1  0  0  0  0
 39 30  2  0  0  0  0
 39 37  1  0  0  0  0
 40 39  1  0  0  0  0
M  END
