38,42
q = -1.0, confidence = 0.004

 42 42  0  0  1  0  0  0  0  0999 V2000
    8.8376    0.1692    0.0311 O   0  0  0  0  0  0  0  0  0  0  0  0
    8.0745    2.2694   -0.3838 O   0  0  0  0  0  0  0  0  0  0  0  0
   11.1356   -0.4669    0.1817 C   0  0  0  0  0  0  0  0  0  0  0  0
   12.1829   -0.1092    0.1257 H   0  0  0  0  0  0  0  0  0  0  0  0
   10.9789   -0.9202    1.1810 H   0  0  0  0  0  0  0  0  0  0  0  0
   11.0004   -1.2592   -0.5817 H   0  0  0  0  0  0  0  0  0  0  0  0
   10.1776    0.6842   -0.0514 C   0  0  0  0  0  0  0  0  0  0  0  0
   10.3041    1.4929    0.7001 H   0  0  0  0  0  0  0  0  0  0  0  0
   10.3256    1.1574   -1.0459 H   0  0  0  0  0  0  0  0  0  0  0  0
    7.8402    1.0894   -0.1589 C   0  0  0  0  0  0  0  0  0  0  0  0
    6.5068    0.4883   -0.0588 C   0  0  0  0  0  0  0  0  0  0  0  0
    5.2812    1.2135   -0.2110 C   0  0  0  0  0  0  0  0  0  0  0  0
    4.2427    0.2690   -0.0433 C   0  0  0  0  0  0  0  0  0  0  0  0
    6.1850   -0.8729    0.1992 C   0  0  0  0  0  0  0  0  0  0  0  0
    7.0555   -2.0613    0.4380 C   0  0  0  0  0  0  0  0  0  0  0  0
    6.4452   -2.9689    0.6117 H   0  0  0  0  0  0  0  0  0  0  0  0
    7.7289   -2.2426   -0.4233 H   0  0  0  0  0  0  0  0  0  0  0  0
    7.7166   -1.9020    1.3129 H   0  0  0  0  0  0  0  0  0  0  0  0
    5.1285    2.6738   -0.4886 C   0  0  0  0  0  0  0  0  0  0  0  0
    4.0662    2.9850   -0.4875 H   0  0  0  0  0  0  0  0  0  0  0  0
    5.6795    3.2789    0.2584 H   0  0  0  0  0  0  0  0  0  0  0  0
    5.5731    2.9419   -1.4688 H   0  0  0  0  0  0  0  0  0  0  0  0
    2.8318    0.4727   -0.0903 C   0  0  0  0  0  3  0  0  0  0  0  0
    2.4893    1.4992   -0.2779 H   0  0  0  0  0  0  0  0  0  0  0  0
    1.3111   -2.6150    0.0710 C   0  0  2  0  0  3  0  0  0  0  0  0
    0.7134   -5.0449   -0.0813 C   0  0  0  0  0  0  0  0  0  0  0  0
   -0.3124   -4.6884    0.1601 H   0  0  0  0  0  0  0  0  0  0  0  0
    0.7595   -5.3946   -1.5754 C   0  0  0  0  0  0  0  0  0  0  0  0
    0.5005   -4.5059   -2.1838 H   0  0  0  0  0  0  0  0  0  0  0  0
    1.7721   -5.7423   -1.8690 H   0  0  0  0  0  0  0  0  0  0  0  0
    0.0360   -6.2003   -1.8140 H   0  0  0  0  0  0  0  0  0  0  0  0
    1.0496   -6.2378    0.8146 C   0  0  0  0  0  0  0  0  0  0  0  0
    0.9738   -5.9678    1.8863 H   0  0  0  0  0  0  0  0  0  0  0  0
    0.3594   -7.0806    0.6159 H   0  0  0  0  0  0  0  0  0  0  0  0
    2.0811   -6.6031    0.6190 H   0  0  0  0  0  0  0  0  0  0  0  0
    4.8345   -0.9647    0.2001 N   0  0  0  0  0  0  0  0  0  0  0  0
    4.1948   -1.7656    0.3527 H   0  0  0  0  0  0  0  0  0  0  0  0
    1.8685   -0.4264    0.0644 N   0  0  0  0  0  2  0  0  0  0  0  0
    2.2719   -1.7268    0.2720 N   0  0  0  0  0  2  0  0  0  0  0  0
    1.6016   -3.9334    0.2458 N   0  0  0  0  0  0  0  0  0  0  0  0
    2.5860   -4.1469    0.4236 H   0  0  0  0  0  0  0  0  0  0  0  0
   -0.2917   -2.1398   -0.4476 S   0  0  0  0  0  1  0  0  0  0  0  0
  2 10  2  0  0  0  0
  3  5  1  0  0  0  0
  4  3  1  0  0  0  0
  6  3  1  0  0  0  0
  7  1  1  0  0  0  0
  7  3  1  0  0  0  0
  7  8  1  0  0  0  0
  9  7  1  0  0  0  0
 10 11  1  0  0  0  0
 10  1  1  0  0  0  0
 11 14  2  0  0  0  0
 12 11  1  0  0  0  0
 12 13  2  0  0  0  0
 13 36  1  0  0  0  0
 14 36  1  0  0  0  0
 14 15  1  0  0  0  0
 15 16  1  0  0  0  0
 15 18  1  0  0  0  0
 17 15  1  0  0  0  0
 19 20  1  0  0  0  0
 19 12  1  0  0  0  0
 19 21  1  0  0  0  0
 22 19  1  0  0  0  0
 23 13  1  0  0  0  0
 23 38  1  0  0  0  0
 24 23  1  0  0  0  0
 25 42  1  6  0  0  0
 25 40  1  0  0  0  0
 25 39  1  0  0  0  0
 26 27  1  0  0  0  0
 26 40  1  0  0  0  0
 26 32  1  0  0  0  0
 28 26  1  0  0  0  0
 29 28  1  0  0  0  0
 30 28  1  0  0  0  0
 31 28  1  0  0  0  0
 32 33  1  0  0  0  0
 34 32  1  0  0  0  0
 35 32  1  0  0  0  0
 36 37  1  0  0  0  0
 38 39  1  0  0  0  0
 40 41  1  0  0  0  0
M  END
