1,4
q = 0.0, confidence = 0.984

 23 23  0  0  1  0  0  0  0  0999 V2000
   -1.5614   -2.1037    0.9441 S   0  0  0  0  0  1  0  0  0  0  0  0
   -4.3188   -2.5299   -0.3660 S   0  0  0  0  0  0  0  0  0  0  0  0
    0.6096    1.4333   -1.4692 O   0  0  0  0  0  0  0  0  0  0  0  0
   -1.6543    0.2521   -0.9680 N   0  0  0  0  0  2  0  0  0  0  0  0
   -2.7853   -0.4581   -0.7992 N   0  0  0  0  0  0  0  0  0  0  0  0
   -3.6383   -0.1734   -1.2992 H   0  0  0  0  0  0  0  0  0  0  0  0
   -2.8522   -1.5874   -0.0459 C   0  0  2  0  0  3  0  0  0  0  0  0
   -4.7129   -3.1246    1.3116 C   0  0  0  0  0  0  0  0  0  0  0  0
   -5.5295   -3.8616    1.1922 H   0  0  0  0  0  0  0  0  0  0  0  0
   -5.0416   -2.2958    1.9677 H   0  0  0  0  0  0  0  0  0  0  0  0
   -3.8206   -3.6210    1.7395 H   0  0  0  0  0  0  0  0  0  0  0  0
   -1.7573    1.5630   -1.3285 C   0  0  1  0  0  3  0  0  0  0  0  0
   -0.5233    2.2334   -1.5296 C   0  0  0  0  0  0  0  0  0  0  0  0
   -0.1135    3.5723   -1.6405 C   0  0  0  0  0  0  0  0  0  0  0  0
   -0.7711    4.4460   -1.6844 H   0  0  0  0  0  0  0  0  0  0  0  0
    1.3075    3.5700   -1.6161 C   0  0  0  0  0  0  0  0  0  0  0  0
    1.9679    4.4425   -1.6763 H   0  0  0  0  0  0  0  0  0  0  0  0
    1.7084    2.2552   -1.4653 C   0  0  0  0  0  0  0  0  0  0  0  0
    2.6768    1.7479   -1.4833 H   0  0  0  0  0  0  0  0  0  0  0  0
   -3.0703    2.2242   -1.6216 C   0  0  0  0  0  0  0  0  0  0  0  0
   -3.4963    1.9104   -2.6044 H   0  0  0  0  0  0  0  0  0  0  0  0
   -2.9528    3.3227   -1.6595 H   0  0  0  0  0  0  0  0  0  0  0  0
   -3.8310    1.9992   -0.8430 H   0  0  0  0  0  0  0  0  0  0  0  0
  2  7  1  0  0  0  0
  2  8  1  0  0  0  0
  3 18  1  0  0  0  0
  4  5  1  0  0  0  0
  5  7  1  0  0  0  0
  6  5  1  0  0  0  0
  7  1  1  6  0  0  0
  8 11  1  0  0  0  0
  8 10  1  0  0  0  0
  9  8  1  0  0  0  0
 12  4  1  6  0  0  0
 13  3  1  0  0  0  0
 13 12  1  0  0  0  0
 14 16  1  0  0  0  0
 14 13  2  0  0  0  0
 15 14  1  0  0  0  0
 16 18  2  0  0  0  0
 17 16  1  0  0  0  0
 19 18  1  0  0  0  0
 20 12  1  0  0  0  0
 20 23  1  0  0  0  0
 21 20  1  0  0  0  0
 22 20  1  0  0  0  0
M  END
