1,2
q = -1.0

 18 18  0  0  0  0  0  0  0  0999 V2000
   -0.7489    2.2902   -0.0443 S   0  0  0  0  0  1  0  0  0  0  0  0
   -2.7769    0.1909   -0.0432 N   0  0  0  0  0  2  0  0  0  0  0  0
   -3.3519    1.4351   -0.0558 N   0  0  0  0  0  0  0  0  0  0  0  0
   -2.5031    2.4415   -0.0537 C   0  0  0  0  0  0  0  0  0  0  0  0
   -2.9996    3.7170   -0.0256 N   0  0  0  0  0  0  0  0  0  0  0  0
   -3.9859    3.8453   -0.2516 H   0  0  0  0  0  0  0  0  0  0  0  0
   -2.3662    4.4788   -0.2615 H   0  0  0  0  0  0  0  0  0  0  0  0
   -3.5705   -0.8621   -0.0062 C   0  0  0  0  0  3  0  0  0  0  0  0
   -3.0390   -1.8284   -0.0067 H   0  0  0  0  0  0  0  0  0  0  0  0
   -4.9991   -0.8767    0.0341 C   0  0  0  0  0  0  0  0  0  0  0  0
   -5.7833    0.2635    0.0492 N   0  0  0  0  0  0  0  0  0  0  0  0
   -5.2999    1.1759    0.0258 H   0  0  0  0  0  0  0  0  0  0  0  0
   -7.1006   -0.0749    0.0940 C   0  0  0  0  0  0  0  0  0  0  0  0
   -7.8869    0.6881    0.1133 H   0  0  0  0  0  0  0  0  0  0  0  0
   -7.1947   -1.4759    0.1085 C   0  0  0  0  0  0  0  0  0  0  0  0
   -8.1252   -2.0533    0.1428 H   0  0  0  0  0  0  0  0  0  0  0  0
   -5.8760   -1.9845    0.0711 C   0  0  0  0  0  0  0  0  0  0  0  0
   -5.5648   -3.0352    0.0703 H   0  0  0  0  0  0  0  0  0  0  0  0
  2  8  1  0  0  0  0
  3  4  2  0  0  0  0
  3  2  1  0  0  0  0
  4  1  1  0  0  0  0
  4  5  1  0  0  0  0
  6  5  1  0  0  0  0
  7  5  1  0  0  0  0
  8 10  1  0  0  0  0
  9  8  1  0  0  0  0
 10 11  1  0  0  0  0
 10 17  2  0  0  0  0
 11 13  1  0  0  0  0
 12 11  1  0  0  0  0
 13 15  2  0  0  0  0
 13 14  1  0  0  0  0
 15 16  1  0  0  0  0
 17 15  1  0  0  0  0
 18 17  1  0  0  0  0
M  END
