1,6
q = 0.0, confidence = 0.97

 23 22  0  0  1  0  0  0  0  0999 V2000
    3.0055    0.0700   -0.5313 S   0  0  0  0  0  1  0  0  0  0  0  0
   -1.5319    0.8785   -0.4051 O   0  0  0  0  0  0  0  0  0  0  0  0
   -3.2094   -0.6406   -0.3304 O   0  0  0  0  0  0  0  0  0  0  0  0
    3.4543   -2.5439   -0.2398 N   0  0  0  0  0  0  0  0  0  0  0  0
    1.2359   -1.9632   -0.4023 N   0  0  0  0  0  0  0  0  0  0  0  0
    0.2468   -1.0830   -0.5123 N   0  0  0  0  0  2  0  0  0  0  0  0
    2.5631   -1.5298   -0.3884 C   0  0  1  0  0  3  0  0  0  0  0  0
   -0.9927   -1.4549   -0.3803 C   0  0  2  0  0  3  0  0  0  0  0  0
   -1.9202   -0.2855   -0.3844 C   0  0  0  0  0  0  0  0  0  0  0  0
   -4.1629    0.4530   -0.2522 C   0  0  0  0  0  0  0  0  0  0  0  0
   -5.5453   -0.1436   -0.1079 C   0  0  0  0  0  0  0  0  0  0  0  0
   -1.4497   -2.8453   -0.0700 C   0  0  0  0  0  0  0  0  0  0  0  0
    1.0259   -2.9097   -0.0551 H   0  0  0  0  0  0  0  0  0  0  0  0
    4.4429   -2.2948   -0.2375 H   0  0  0  0  0  0  0  0  0  0  0  0
    3.2038   -3.5221   -0.3962 H   0  0  0  0  0  0  0  0  0  0  0  0
   -4.0570    1.0714   -1.1677 H   0  0  0  0  0  0  0  0  0  0  0  0
   -3.8796    1.0962    0.6064 H   0  0  0  0  0  0  0  0  0  0  0  0
   -5.6231   -0.7540    0.8135 H   0  0  0  0  0  0  0  0  0  0  0  0
   -5.7998   -0.7834   -0.9760 H   0  0  0  0  0  0  0  0  0  0  0  0
   -6.2961    0.6686   -0.0469 H   0  0  0  0  0  0  0  0  0  0  0  0
   -1.1989   -3.0869    0.9880 H   0  0  0  0  0  0  0  0  0  0  0  0
   -0.9656   -3.5988   -0.7272 H   0  0  0  0  0  0  0  0  0  0  0  0
   -2.5435   -2.9326   -0.1862 H   0  0  0  0  0  0  0  0  0  0  0  0
  2  9  2  0  0  0  0
  3 10  1  0  0  0  0
  4 14  1  0  0  0  0
  5  7  1  0  0  0  0
  5 13  1  0  0  0  0
  6  5  1  0  0  0  0
  7  1  1  1  0  0  0
  7  4  1  0  0  0  0
  8  6  1  1  0  0  0
  8 12  1  0  0  0  0
  9  8  1  0  0  0  0
  9  3  1  0  0  0  0
 10 11  1  0  0  0  0
 10 17  1  0  0  0  0
 11 20  1  0  0  0  0
 11 18  1  0  0  0  0
 12 21  1  0  0  0  0
 15  4  1  0  0  0  0
 16 10  1  0  0  0  0
 19 11  1  0  0  0  0
 22 12  1  0  0  0  0
 23 12  1  0  0  0  0
M  END
