1,3
q = -1.0

 37 38  0  0  0  0  0  0  0  0999 V2000
    1.3055   -1.9251   -0.0290 S   0  0  0  0  0  1  0  0  0  0  0  0
    4.5855    1.8882   -1.3928 O   0  0  0  0  0  0  0  0  0  0  0  0
    1.8220    0.9298   -0.0702 N   0  0  0  0  0  2  0  0  0  0  0  0
    2.9341    0.2116   -0.4033 N   0  0  0  0  0  0  0  0  0  0  0  0
    3.9477   -1.8604   -0.5901 N   0  0  0  0  0  0  0  0  0  0  0  0
    1.9646    2.2177    0.1819 C   0  0  0  0  0  3  0  0  0  0  0  0
    3.1278    3.0921    0.1640 C   0  0  0  0  0  0  0  0  0  0  0  0
    2.9712    4.2962    0.9122 C   0  0  0  0  0  0  0  0  0  0  0  0
    3.9644    5.2679    0.9854 C   0  0  0  0  0  0  0  0  0  0  0  0
    5.1650    5.0700    0.2718 C   0  0  0  0  0  0  0  0  0  0  0  0
    5.3487    3.9189   -0.4914 C   0  0  0  0  0  0  0  0  0  0  0  0
    4.3507    2.9151   -0.5788 C   0  0  0  0  0  0  0  0  0  0  0  0
    2.8246   -1.1167   -0.3769 C   0  0  0  0  0  0  0  0  0  0  0  0
    3.8585   -3.3121   -0.7401 C   0  0  0  0  0  0  0  0  0  0  0  0
    4.0790   -4.0782    0.5732 C   0  0  0  0  0  0  0  0  0  0  0  0
    5.5360   -4.1394    1.0425 C   0  0  0  0  0  0  0  0  0  0  0  0
    6.2588   -2.7879    1.1408 C   0  0  0  0  0  0  0  0  0  0  0  0
    6.4325   -2.0710   -0.2100 C   0  0  0  0  0  0  0  0  0  0  0  0
    5.2560   -1.1937   -0.6413 C   0  0  0  0  0  0  0  0  0  0  0  0
    5.9605    5.8305    0.3075 H   0  0  0  0  0  0  0  0  0  0  0  0
    6.2698    3.7533   -1.0688 H   0  0  0  0  0  0  0  0  0  0  0  0
    3.8092    6.1778    1.5826 H   0  0  0  0  0  0  0  0  0  0  0  0
    2.0233    4.4431    1.4539 H   0  0  0  0  0  0  0  0  0  0  0  0
    6.6809   -2.8173   -0.9956 H   0  0  0  0  0  0  0  0  0  0  0  0
    7.3091   -1.3914   -0.1681 H   0  0  0  0  0  0  0  0  0  0  0  0
    5.4409   -0.7821   -1.6598 H   0  0  0  0  0  0  0  0  0  0  0  0
    5.1937   -0.3158    0.0308 H   0  0  0  0  0  0  0  0  0  0  0  0
    2.8505   -3.5376   -1.1418 H   0  0  0  0  0  0  0  0  0  0  0  0
    4.5909   -3.6289   -1.5126 H   0  0  0  0  0  0  0  0  0  0  0  0
    7.2617   -2.9638    1.5826 H   0  0  0  0  0  0  0  0  0  0  0  0
    5.7258   -2.1177    1.8518 H   0  0  0  0  0  0  0  0  0  0  0  0
    6.1123   -4.7901    0.3458 H   0  0  0  0  0  0  0  0  0  0  0  0
    5.5732   -4.6482    2.0291 H   0  0  0  0  0  0  0  0  0  0  0  0
    3.4342   -3.6070    1.3455 H   0  0  0  0  0  0  0  0  0  0  0  0
    3.6939   -5.1119    0.4409 H   0  0  0  0  0  0  0  0  0  0  0  0
    1.0305    2.6988    0.5100 H   0  0  0  0  0  0  0  0  0  0  0  0
    3.9430    1.1174   -1.1148 H   0  0  0  0  0  0  0  0  0  0  0  0
  2 37  1  0  0  0  0
  2 12  1  0  0  0  0
  3  6  1  0  0  0  0
  4 13  2  0  0  0  0
  4  3  1  0  0  0  0
  5 13  1  0  0  0  0
  6 36  1  0  0  0  0
  7  6  1  0  0  0  0
  7  8  1  0  0  0  0
  8  9  2  0  0  0  0
  8 23  1  0  0  0  0
  9 22  1  0  0  0  0
 10 20  1  0  0  0  0
 10  9  1  0  0  0  0
 11 10  2  0  0  0  0
 12 11  1  0  0  0  0
 12  7  2  0  0  0  0
 13  1  1  0  0  0  0
 14  5  1  0  0  0  0
 14 15  1  0  0  0  0
 15 16  1  0  0  0  0
 15 34  1  0  0  0  0
 16 17  1  0  0  0  0
 16 33  1  0  0  0  0
 17 30  1  0  0  0  0
 17 31  1  0  0  0  0
 18 25  1  0  0  0  0
 18 17  1  0  0  0  0
 19  5  1  0  0  0  0
 19 18  1  0  0  0  0
 19 27  1  0  0  0  0
 21 11  1  0  0  0  0
 24 18  1  0  0  0  0
 26 19  1  0  0  0  0
 28 14  1  0  0  0  0
 29 14  1  0  0  0  0
 32 16  1  0  0  0  0
 35 15  1  0  0  0  0
M  END
