1,14
q = -1.0

 20 20  0  0  1  0  0  0  0  0999 V2000
   -1.9043    0.2272    0.0200 N   0  0  0  0  0  2  0  0  0  0  0  0
   -2.7308   -0.8786    0.1440 N   0  0  0  0  0  2  0  0  0  0  0  0
   -4.9075    0.6844    0.0821 N   0  0  0  0  0  0  0  0  0  0  0  0
   -4.5959   -0.2920    0.2061 H   0  0  0  0  0  0  0  0  0  0  0  0
   -2.5290    1.3922   -0.1029 C   0  0  0  0  0  3  0  0  0  0  0  0
   -1.8771    2.2682   -0.2335 H   0  0  0  0  0  0  0  0  0  0  0  0
   -3.9309    1.6507   -0.0879 C   0  0  0  0  0  0  0  0  0  0  0  0
   -5.9824    2.6401   -0.1271 C   0  0  0  0  0  0  0  0  0  0  0  0
   -6.7939    3.3734   -0.1890 H   0  0  0  0  0  0  0  0  0  0  0  0
   -4.5964    2.8929   -0.2222 C   0  0  0  0  0  0  0  0  0  0  0  0
   -4.1033    3.8605   -0.3692 H   0  0  0  0  0  0  0  0  0  0  0  0
   -6.1406    1.2571    0.0634 C   0  0  0  0  0  0  0  0  0  0  0  0
   -7.0502    0.6579    0.1835 H   0  0  0  0  0  0  0  0  0  0  0  0
   -0.4227   -2.1130   -0.4748 S   0  0  0  0  0  1  0  0  0  0  0  0
   -2.9663   -3.5460   -0.0065 S   0  0  0  0  0  0  0  0  0  0  0  0
   -2.1082   -2.0132   -0.0685 C   0  0  2  0  0  3  0  0  0  0  0  0
   -4.6826   -3.0058    0.2522 C   0  0  0  0  0  0  0  0  0  0  0  0
   -5.2859   -3.9311    0.3184 H   0  0  0  0  0  0  0  0  0  0  0  0
   -5.0369   -2.3971   -0.6026 H   0  0  0  0  0  0  0  0  0  0  0  0
   -4.7750   -2.4366    1.1974 H   0  0  0  0  0  0  0  0  0  0  0  0
  1  2  1  0  0  0  0
  3  4  1  0  0  0  0
  5  7  1  0  0  0  0
  5  1  1  0  0  0  0
  6  5  1  0  0  0  0
  7  3  1  0  0  0  0
  8 12  2  0  0  0  0
  9  8  1  0  0  0  0
 10  8  1  0  0  0  0
 10  7  2  0  0  0  0
 11 10  1  0  0  0  0
 12  3  1  0  0  0  0
 12 13  1  0  0  0  0
 15 17  1  0  0  0  0
 16 14  1  6  0  0  0
 16 15  1  0  0  0  0
 16  2  1  0  0  0  0
 17 18  1  0  0  0  0
 17 20  1  0  0  0  0
 19 17  1  0  0  0  0
M  END
