1,7
q = 0.0, confidence = 1.0

 26 26  0  0  1  0  0  0  0  0999 V2000
    2.3510    0.7928   -1.1188 S   0  0  0  0  0  1  0  0  0  0  0  0
    3.8524   -1.3084   -0.4525 N   0  0  0  0  0  0  0  0  0  0  0  0
    2.6122   -0.7985   -0.6373 C   0  0  1  0  0  3  0  0  0  0  0  0
    0.3256   -1.3577   -0.5895 N   0  0  0  0  0  0  0  0  0  0  0  0
    1.5969   -1.7208   -0.3854 N   0  0  0  0  0  0  0  0  0  0  0  0
   -0.6533   -2.0815   -0.1349 C   0  0  0  0  0  0  0  0  0  0  0  0
   -2.0132   -0.1019   -0.3132 N   0  0  0  0  0  2  0  0  0  0  0  0
   -1.9908   -1.4553   -0.2982 C   0  0  2  0  0  3  0  0  0  0  0  0
    5.0690   -0.5254   -0.5481 C   0  0  0  0  0  0  0  0  0  0  0  0
    5.3313   -0.2943   -1.6029 H   0  0  0  0  0  0  0  0  0  0  0  0
    5.8965   -1.0923   -0.0820 H   0  0  0  0  0  0  0  0  0  0  0  0
    4.9324    0.4383   -0.0193 H   0  0  0  0  0  0  0  0  0  0  0  0
   -0.4645   -3.3559    0.6360 C   0  0  0  0  0  0  0  0  0  0  0  0
    0.2308   -4.0554    0.1257 H   0  0  0  0  0  0  0  0  0  0  0  0
   -1.4150   -3.8853    0.8227 H   0  0  0  0  0  0  0  0  0  0  0  0
   -0.0351   -3.0826    1.6271 H   0  0  0  0  0  0  0  0  0  0  0  0
   -3.1790   -2.2012   -0.4275 C   0  0  0  0  0  0  0  0  0  0  0  0
   -3.1520   -3.3002   -0.4169 H   0  0  0  0  0  0  0  0  0  0  0  0
   -3.1685    0.5536   -0.4858 C   0  0  0  0  0  0  0  0  0  0  0  0
   -3.0802    1.6562   -0.4815 H   0  0  0  0  0  0  0  0  0  0  0  0
   -4.3919   -0.1186   -0.6400 C   0  0  0  0  0  0  0  0  0  0  0  0
   -5.3226    0.4513   -0.7732 H   0  0  0  0  0  0  0  0  0  0  0  0
   -4.3915   -1.5200   -0.6037 C   0  0  0  0  0  0  0  0  0  0  0  0
   -5.3298   -2.0838   -0.7169 H   0  0  0  0  0  0  0  0  0  0  0  0
    1.7991   -2.4282    0.3375 H   0  0  0  0  0  0  0  0  0  0  0  0
    3.9426   -2.3220   -0.3496 H   0  0  0  0  0  0  0  0  0  0  0  0
  2 26  1  0  0  0  0
  3  1  1  1  0  0  0
  3  2  1  0  0  0  0
  3  5  1  0  0  0  0
  4  5  1  0  0  0  0
  4  6  2  0  0  0  0
  5 25  1  0  0  0  0
  6 13  1  0  0  0  0
  7  8  1  0  0  0  0
  8  6  1  1  0  0  0
  9  2  1  0  0  0  0
  9 11  1  0  0  0  0
  9 12  1  0  0  0  0
 10  9  1  0  0  0  0
 13 15  1  0  0  0  0
 13 16  1  0  0  0  0
 14 13  1  0  0  0  0
 17 18  1  0  0  0  0
 17  8  1  0  0  0  0
 19 20  1  0  0  0  0
 19  7  1  0  0  0  0
 21 23  1  0  0  0  0
 21 19  2  0  0  0  0
 22 21  1  0  0  0  0
 23 17  2  0  0  0  0
 24 23  1  0  0  0  0
M  END
