1,3
q = -1.0

 28 28  0  0  1  0  0  0  0  0999 V2000
    1.5469   -1.8565    0.0065 S   0  0  0  0  0  1  0  0  0  0  0  0
    4.3027   -0.9683   -0.5542 S   0  0  0  0  0  0  0  0  0  0  0  0
    1.2286    0.8365    1.0574 N   0  0  0  0  0  2  0  0  0  0  0  0
    2.5013    0.6461    0.5571 N   0  0  0  0  0  2  0  0  0  0  0  0
    2.7117   -0.5516    0.0720 C   0  0  2  0  0  3  0  0  0  0  0  0
    1.1314    1.7652    1.9811 C   0  0  0  0  0  3  0  0  0  0  0  0
    2.3423    2.5468    2.4032 C   0  0  0  0  0  0  0  0  0  0  0  0
    3.0851    1.8781    2.8870 H   0  0  0  0  0  0  0  0  0  0  0  0
    2.0696    3.3528    3.1095 H   0  0  0  0  0  0  0  0  0  0  0  0
    2.8585    2.9722    1.5192 H   0  0  0  0  0  0  0  0  0  0  0  0
   -0.1667    2.0393    2.6671 C   0  0  0  0  0  0  0  0  0  0  0  0
   -0.9715    1.3666    2.3255 H   0  0  0  0  0  0  0  0  0  0  0  0
   -0.4737    3.0978    2.5199 H   0  0  0  0  0  0  0  0  0  0  0  0
   -0.0343    1.9057    3.7622 H   0  0  0  0  0  0  0  0  0  0  0  0
    5.2801    0.5214   -0.0660 C   0  0  0  0  0  0  0  0  0  0  0  0
    4.8067    1.4015   -0.5416 H   0  0  0  0  0  0  0  0  0  0  0  0
    5.1874    0.6334    1.0320 H   0  0  0  0  0  0  0  0  0  0  0  0
    6.7051    0.3261   -0.5061 C   0  0  0  0  0  0  0  0  0  0  0  0
    7.6282   -0.3390    0.3266 C   0  0  0  0  0  0  0  0  0  0  0  0
    7.3003   -0.7002    1.3141 H   0  0  0  0  0  0  0  0  0  0  0  0
    8.9507   -0.5423   -0.0923 C   0  0  0  0  0  0  0  0  0  0  0  0
    9.6617   -1.0584    0.5707 H   0  0  0  0  0  0  0  0  0  0  0  0
    9.3671   -0.0890   -1.3545 C   0  0  0  0  0  0  0  0  0  0  0  0
   10.4052   -0.2478   -1.6836 H   0  0  0  0  0  0  0  0  0  0  0  0
    8.4537    0.5669   -2.1951 C   0  0  0  0  0  0  0  0  0  0  0  0
    8.7735    0.9233   -3.1861 H   0  0  0  0  0  0  0  0  0  0  0  0
    7.1314    0.7696   -1.7743 C   0  0  0  0  0  0  0  0  0  0  0  0
    6.4138    1.2801   -2.4358 H   0  0  0  0  0  0  0  0  0  0  0  0
  2 15  1  0  0  0  0
  2  5  1  0  0  0  0
  3  6  1  0  0  0  0
  4  3  1  0  0  0  0
  5  1  1  1  0  0  0
  5  4  1  0  0  0  0
  6  7  1  0  0  0  0
  6 11  1  0  0  0  0
  7  8  1  0  0  0  0
  7  9  1  0  0  0  0
 10  7  1  0  0  0  0
 11 14  1  0  0  0  0
 12 11  1  0  0  0  0
 13 11  1  0  0  0  0
 15 17  1  0  0  0  0
 16 15  1  0  0  0  0
 18 15  1  0  0  0  0
 18 19  1  0  0  0  0
 19 20  1  0  0  0  0
 21 19  2  0  0  0  0
 21 22  1  0  0  0  0
 23 21  1  0  0  0  0
 24 23  1  0  0  0  0
 25 27  1  0  0  0  0
 25 23  2  0  0  0  0
 26 25  1  0  0  0  0
 27 18  2  0  0  0  0
 28 27  1  0  0  0  0
M  END
