1,2
q = -1.0, confidence = 0.0

 31 32  0  0  1  0  0  0  0  0999 V2000
   -0.7608   -2.4469   -0.3832 S   0  0  0  0  0  1  0  0  0  0  0  0
    1.5648   -0.6816   -0.0997 N   0  0  0  0  0  2  0  0  0  0  0  0
    1.9419   -1.9938   -0.2110 N   0  0  0  0  0  0  0  0  0  0  0  0
    1.2651   -4.1737   -0.4385 N   0  0  0  0  0  0  0  0  0  0  0  0
    2.2432   -4.4432   -0.5346 H   0  0  0  0  0  0  0  0  0  0  0  0
    0.5348   -4.8617   -0.6024 H   0  0  0  0  0  0  0  0  0  0  0  0
    6.8805    1.4807    0.7519 O   0  0  0  0  0  0  0  0  0  0  0  0
    6.8200   -0.4193   -0.5402 O   0  0  0  0  0  0  0  0  0  0  0  0
    4.5456    1.1310    0.6574 O   0  0  0  0  0  0  0  0  0  0  0  0
    4.1217   -1.8255    1.3901 O   0  0  0  0  0  0  0  0  0  0  0  0
    3.2475   -2.1518    1.0486 H   0  0  0  0  0  0  0  0  0  0  0  0
    8.9200    0.7762   -0.2925 C   0  0  0  0  0  0  0  0  0  0  0  0
    9.3700    1.7778   -0.1502 H   0  0  0  0  0  0  0  0  0  0  0  0
    9.3633    0.3088   -1.1929 H   0  0  0  0  0  0  0  0  0  0  0  0
    9.1575    0.1526    0.5906 H   0  0  0  0  0  0  0  0  0  0  0  0
    6.9842    1.7036   -1.6702 C   0  0  0  0  0  0  0  0  0  0  0  0
    5.8850    1.8281   -1.6722 H   0  0  0  0  0  0  0  0  0  0  0  0
    7.2967    1.1896   -2.6000 H   0  0  0  0  0  0  0  0  0  0  0  0
    7.4486    2.7081   -1.6424 H   0  0  0  0  0  0  0  0  0  0  0  0
    7.4064    0.8917   -0.4476 C   0  0  0  0  0  0  0  0  0  0  0  0
    5.7963    0.7142    1.1982 C   0  0  1  0  0  0  0  0  0  0  0  0
    5.7534    0.8061    2.3017 H   0  0  0  0  0  0  0  0  0  0  0  0
    6.0594   -0.6903    0.6288 C   0  0  1  0  0  0  0  0  0  0  0  0
    6.5807   -1.3769    1.3319 H   0  0  0  0  0  0  0  0  0  0  0  0
    4.6791   -1.2205    0.2541 C   0  0  2  0  0  0  0  0  0  0  0  0
    4.7461   -1.9083   -0.6198 H   0  0  0  0  0  0  0  0  0  0  0  0
    3.9730    0.0976   -0.1627 C   0  0  1  0  0  0  0  0  0  0  0  0
    4.2174    0.2904   -1.2409 H   0  0  0  0  0  0  0  0  0  0  0  0
    2.4824    0.2355   -0.0270 C   0  0  0  0  0  3  0  0  0  0  0  0
    2.0997    1.2639    0.1027 H   0  0  0  0  0  0  0  0  0  0  0  0
    0.9474   -2.8554   -0.3425 C   0  0  0  0  0  0  0  0  0  0  0  0
  1 31  1  0  0  0  0
  2 29  1  0  0  0  0
  3  2  1  0  0  0  0
  4 31  1  0  0  0  0
  5  4  1  0  0  0  0
  6  4  1  0  0  0  0
  7 21  1  0  0  0  0
  8 20  1  0  0  0  0
  8 23  1  0  0  0  0
  9 21  1  0  0  0  0
 11 10  1  0  0  0  0
 12 13  1  0  0  0  0
 12 15  1  0  0  0  0
 14 12  1  0  0  0  0
 16 19  1  0  0  0  0
 16 20  1  0  0  0  0
 17 16  1  0  0  0  0
 18 16  1  0  0  0  0
 20 12  1  0  0  0  0
 20  7  1  0  0  0  0
 21 22  1  1  0  0  0
 23 21  1  0  0  0  0
 23 24  1  1  0  0  0
 25 26  1  6  0  0  0
 25 23  1  0  0  0  0
 25 10  1  0  0  0  0
 27 28  1  6  0  0  0
 27 29  1  0  0  0  0
 27 25  1  0  0  0  0
 27  9  1  0  0  0  0
 29 30  1  0  0  0  0
 31  3  2  0  0  0  0
M  END
