1,4
q = -1.0

 41 43  0  0  0  0  0  0  0  0999 V2000
    2.0590   -0.0378   -0.8786 S   0  0  0  0  0  1  0  0  0  0  0  0
    4.1147   -1.6801    0.0163 N   0  0  0  0  0  0  0  0  0  0  0  0
    4.3410   -2.9543    0.4908 N   0  0  0  0  0  0  0  0  0  0  0  0
   -0.2076   -1.9360   -0.1436 N   0  0  0  0  0  2  0  0  0  0  0  0
    2.7716   -1.4122   -0.1380 C   0  0  0  0  0  0  0  0  0  0  0  0
    3.1501   -3.5153    0.6417 C   0  0  0  0  0  0  0  0  0  0  0  0
    3.0087   -4.9107    1.1572 C   0  0  0  0  0  0  0  0  0  0  0  0
    2.1027   -2.5982    0.2757 C   0  0  0  0  0  0  0  0  0  0  0  0
    0.7243   -2.8455    0.0933 C   0  0  0  0  0  3  0  0  0  0  0  0
   -1.4842   -2.4722   -0.5384 C   0  0  0  0  0  0  0  0  0  0  0  0
   -2.2300   -3.2808    0.3577 C   0  0  0  0  0  0  0  0  0  0  0  0
   -1.7882   -3.4952    1.7845 C   0  0  0  0  0  0  0  0  0  0  0  0
   -3.4384   -3.8387   -0.1031 C   0  0  0  0  0  0  0  0  0  0  0  0
   -3.8999   -3.5995   -1.4036 C   0  0  0  0  0  0  0  0  0  0  0  0
   -3.1662   -2.7653   -2.2587 C   0  0  0  0  0  0  0  0  0  0  0  0
   -1.9544   -2.1846   -1.8453 C   0  0  0  0  0  0  0  0  0  0  0  0
   -1.2031   -1.2343   -2.7361 C   0  0  0  0  0  0  0  0  0  0  0  0
    5.2406   -0.8542   -0.2565 C   0  0  0  0  0  0  0  0  0  0  0  0
    6.4645   -1.4716   -0.5829 C   0  0  0  0  0  0  0  0  0  0  0  0
    7.5922   -0.6817   -0.8384 C   0  0  0  0  0  0  0  0  0  0  0  0
    7.5121    0.7190   -0.7721 C   0  0  0  0  0  0  0  0  0  0  0  0
    6.2916    1.3239   -0.4337 C   0  0  0  0  0  0  0  0  0  0  0  0
    5.1546    0.5485   -0.1706 C   0  0  0  0  0  0  0  0  0  0  0  0
    4.0094   -5.3545    1.3127 H   0  0  0  0  0  0  0  0  0  0  0  0
    2.4587   -4.9337    2.1208 H   0  0  0  0  0  0  0  0  0  0  0  0
    2.4474   -5.5506    0.4441 H   0  0  0  0  0  0  0  0  0  0  0  0
    0.4048   -3.9049    0.0738 H   0  0  0  0  0  0  0  0  0  0  0  0
   -1.3325   -2.5769    2.2061 H   0  0  0  0  0  0  0  0  0  0  0  0
   -2.6512   -3.7755    2.4181 H   0  0  0  0  0  0  0  0  0  0  0  0
   -1.0328   -4.3033    1.8844 H   0  0  0  0  0  0  0  0  0  0  0  0
   -4.0307   -4.4600    0.5870 H   0  0  0  0  0  0  0  0  0  0  0  0
   -4.8466   -4.0442   -1.7452 H   0  0  0  0  0  0  0  0  0  0  0  0
   -3.5382   -2.5509   -3.2725 H   0  0  0  0  0  0  0  0  0  0  0  0
   -1.2658   -0.2006   -2.3261 H   0  0  0  0  0  0  0  0  0  0  0  0
   -0.1225   -1.4737   -2.7948 H   0  0  0  0  0  0  0  0  0  0  0  0
   -1.6269   -1.2233   -3.7582 H   0  0  0  0  0  0  0  0  0  0  0  0
    6.5091   -2.5678   -0.6169 H   0  0  0  0  0  0  0  0  0  0  0  0
    8.5449   -1.1694   -1.0952 H   0  0  0  0  0  0  0  0  0  0  0  0
    8.3997    1.3357   -0.9784 H   0  0  0  0  0  0  0  0  0  0  0  0
    6.2116    2.4189   -0.3593 H   0  0  0  0  0  0  0  0  0  0  0  0
    4.2097    1.0337    0.1036 H   0  0  0  0  0  0  0  0  0  0  0  0
  1  5  1  0  0  0  0
  2  3  1  0  0  0  0
  3  6  2  0  0  0  0
  4  9  1  0  0  0  0
  5  2  1  0  0  0  0
  5  8  2  0  0  0  0
  6  7  1  0  0  0  0
  7 24  1  0  0  0  0
  7 25  1  0  0  0  0
  8  6  1  0  0  0  0
  9  8  1  0  0  0  0
 10  4  1  0  0  0  0
 10 11  1  0  0  0  0
 11 12  1  0  0  0  0
 12 30  1  0  0  0  0
 12 28  1  0  0  0  0
 12 29  1  0  0  0  0
 13 11  2  0  0  0  0
 13 31  1  0  0  0  0
 14 13  1  0  0  0  0
 15 16  1  0  0  0  0
 15 14  2  0  0  0  0
 16 10  2  0  0  0  0
 17 34  1  0  0  0  0
 17 16  1  0  0  0  0
 18 23  1  0  0  0  0
 18  2  1  0  0  0  0
 19 18  2  0  0  0  0
 20 21  2  0  0  0  0
 20 19  1  0  0  0  0
 21 22  1  0  0  0  0
 22 40  1  0  0  0  0
 22 23  2  0  0  0  0
 23 41  1  0  0  0  0
 26  7  1  0  0  0  0
 27  9  1  0  0  0  0
 32 14  1  0  0  0  0
 33 15  1  0  0  0  0
 35 17  1  0  0  0  0
 36 17  1  0  0  0  0
 37 19  1  0  0  0  0
 38 20  1  0  0  0  0
 39 21  1  0  0  0  0
M  END
