1,4
q = -1.0, confidence = 0.002

 17 17  0  0  1  0  0  0  0  0999 V2000
    0.9990    2.1101   -0.0223 S   0  0  0  0  0  1  0  0  0  0  0  0
    3.5300    2.3787   -0.7687 O   0  0  0  0  0  0  0  0  0  0  0  0
    2.9113    0.2248   -0.2265 N   0  0  0  0  0  0  0  0  0  0  0  0
    1.9369   -0.6436    0.1841 N   0  0  0  0  0  2  0  0  0  0  0  0
    2.6341    1.6353   -0.4104 C   0  0  0  0  0  0  0  0  0  0  0  0
    4.1481   -0.3843   -0.2472 C   0  0  2  0  0  3  0  0  0  0  0  0
    3.9317   -1.6905    0.1757 C   0  0  0  0  0  0  0  0  0  0  0  0
    4.6915   -2.4702    0.2907 H   0  0  0  0  0  0  0  0  0  0  0  0
    2.5447   -1.8203    0.4428 C   0  0  0  0  0  0  0  0  0  0  0  0
    5.4151    0.2940   -0.6392 C   0  0  0  0  0  0  0  0  0  0  0  0
    6.2504   -0.4266   -0.5617 H   0  0  0  0  0  0  0  0  0  0  0  0
    5.6218    1.1707    0.0052 H   0  0  0  0  0  0  0  0  0  0  0  0
    5.3633    0.6848   -1.6739 H   0  0  0  0  0  0  0  0  0  0  0  0
    1.8421   -3.0375    0.9381 C   0  0  0  0  0  0  0  0  0  0  0  0
    1.0646   -2.7832    1.6834 H   0  0  0  0  0  0  0  0  0  0  0  0
    2.5726   -3.7264    1.4018 H   0  0  0  0  0  0  0  0  0  0  0  0
    1.3384   -3.5789    0.1114 H   0  0  0  0  0  0  0  0  0  0  0  0
  2  5  2  0  0  0  0
  3  4  1  0  0  0  0
  4  9  1  0  0  0  0
  5  3  1  0  0  0  0
  5  1  1  0  0  0  0
  6 10  1  1  0  0  0
  6  3  1  0  0  0  0
  6  7  1  0  0  0  0
  7  8  1  0  0  0  0
  7  9  2  0  0  0  0
  9 14  1  0  0  0  0
 10 11  1  0  0  0  0
 10 12  1  0  0  0  0
 13 10  1  0  0  0  0
 14 16  1  0  0  0  0
 14 15  1  0  0  0  0
 17 14  1  0  0  0  0
M  END
