3,6
q = -1.0

 20 20  0  0  1  0  0  0  0  0999 V2000
    6.1554   -3.1407   -0.0645 Cl  0  0  0  0  0  0  0  0  0  0  0  0
    4.0234   -1.0193   -0.1065 S   0  0  0  0  0  0  0  0  0  0  0  0
    1.5057    3.5769   -0.5237 S   0  0  0  0  0  1  0  0  0  0  0  0
    3.8168    2.7384   -1.6067 N   0  0  0  0  0  0  0  0  0  0  0  0
    2.5817    1.0913   -0.5665 N   0  0  0  0  0  2  0  0  0  0  0  0
    1.4524    0.8479    0.1583 N   0  0  0  0  0  2  0  0  0  0  0  0
    2.7065    2.3593   -0.9221 C   0  0  1  0  0  3  0  0  0  0  0  0
    1.4725   -0.2554    0.9012 C   0  0  1  0  0  3  0  0  0  0  0  0
    2.5698   -1.1981    0.8798 C   0  0  0  0  0  0  0  0  0  0  0  0
    2.6140   -2.3990    1.6035 C   0  0  0  0  0  0  0  0  0  0  0  0
    3.7786   -3.1732    1.3806 C   0  0  0  0  0  0  0  0  0  0  0  0
    4.6310   -2.5515    0.4812 C   0  0  0  0  0  0  0  0  0  0  0  0
    0.3340   -0.5302    1.8445 C   0  0  0  0  0  0  0  0  0  0  0  0
   -0.3456    0.3362    1.8970 H   0  0  0  0  0  0  0  0  0  0  0  0
    0.7302   -0.7209    2.8621 H   0  0  0  0  0  0  0  0  0  0  0  0
   -0.2568   -1.4201    1.5436 H   0  0  0  0  0  0  0  0  0  0  0  0
    3.9767    3.7258   -1.7910 H   0  0  0  0  0  0  0  0  0  0  0  0
    4.5953    2.0843   -1.6831 H   0  0  0  0  0  0  0  0  0  0  0  0
    1.8072   -2.7135    2.2776 H   0  0  0  0  0  0  0  0  0  0  0  0
    3.9928   -4.1401    1.8534 H   0  0  0  0  0  0  0  0  0  0  0  0
  1 12  1  0  0  0  0
  2 12  1  0  0  0  0
  2  9  1  0  0  0  0
  4  7  1  0  0  0  0
  5  6  1  0  0  0  0
  7  5  1  0  0  0  0
  7  3  1  1  0  0  0
  8  6  1  1  0  0  0
  8 13  1  0  0  0  0
  9  8  1  0  0  0  0
  9 10  2  0  0  0  0
 10 19  1  0  0  0  0
 11 10  1  0  0  0  0
 11 20  1  0  0  0  0
 12 11  2  0  0  0  0
 13 14  1  0  0  0  0
 13 15  1  0  0  0  0
 16 13  1  0  0  0  0
 17  4  1  0  0  0  0
 18  4  1  0  0  0  0
M  END
