1,2,3,4
 OpenBabel05122313063D

 70 74  0  0  0  0  0  0  0  0999 V2000
   -0.8863   -1.4400   -0.0258 P   0  0  0  0  0  0  0  0  0  0  0  0
   -2.8335    1.1134   -0.0709 N   0  0  0  0  0  2  0  0  0  0  0  0
   -0.7996    2.8474   -0.1172 N   0  0  0  0  0  2  0  0  0  0  0  0
    1.1660    1.1016   -0.0188 N   0  0  0  0  0  2  0  0  0  0  0  0
   -2.5612   -2.0212   -0.5602 C   0  0  0  0  0  0  0  0  0  0  0  0
   -2.6993   -3.3431   -1.0274 C   0  0  0  0  0  0  0  0  0  0  0  0
   -1.7948   -3.9530   -1.1713 H   0  0  0  0  0  0  0  0  0  0  0  0
   -3.9517   -3.8978   -1.3273 C   0  0  0  0  0  0  0  0  0  0  0  0
   -4.0207   -4.9344   -1.6895 H   0  0  0  0  0  0  0  0  0  0  0  0
   -5.1085   -3.1207   -1.1596 C   0  0  0  0  0  0  0  0  0  0  0  0
   -6.1016   -3.5407   -1.3775 H   0  0  0  0  0  0  0  0  0  0  0  0
   -4.9888   -1.7964   -0.7380 C   0  0  0  0  0  0  0  0  0  0  0  0
   -5.8928   -1.1745   -0.6434 H   0  0  0  0  0  0  0  0  0  0  0  0
   -3.7262   -1.2012   -0.4553 C   0  0  0  0  0  0  0  0  0  0  0  0
   -3.7956    0.2214   -0.1673 C   0  0  0  0  0  3  0  0  0  0  0  0
   -4.8293    0.5996   -0.1162 H   0  0  0  0  0  0  0  0  0  0  0  0
   -3.1535    2.5101    0.0557 C   0  0  0  0  0  0  0  0  0  0  0  0
   -4.4614    3.0131    0.2216 C   0  0  0  0  0  0  0  0  0  0  0  0
   -5.3207    2.3350    0.3111 H   0  0  0  0  0  0  0  0  0  0  0  0
   -4.6896    4.3894    0.2919 C   0  0  0  0  0  0  0  0  0  0  0  0
   -5.7143    4.7644    0.4292 H   0  0  0  0  0  0  0  0  0  0  0  0
   -3.6075    5.2868    0.1894 C   0  0  0  0  0  0  0  0  0  0  0  0
   -3.7892    6.3713    0.2386 H   0  0  0  0  0  0  0  0  0  0  0  0
   -2.3019    4.8196    0.0369 C   0  0  0  0  0  0  0  0  0  0  0  0
   -1.4403    5.4938   -0.0370 H   0  0  0  0  0  0  0  0  0  0  0  0
   -2.0505    3.4240   -0.0142 C   0  0  0  0  0  0  0  0  0  0  0  0
    0.4256    3.4797   -0.2198 C   0  0  0  0  0  0  0  0  0  0  0  0
    0.6151    4.6935   -0.2718 O   0  0  0  0  0  0  0  0  0  0  0  0
    1.5869    2.4776   -0.2821 C   0  0  0  0  0  0  0  0  0  0  0  0
    2.0547    2.5821   -1.2889 H   0  0  0  0  0  0  0  0  0  0  0  0
    2.3580    2.8097    0.4437 H   0  0  0  0  0  0  0  0  0  0  0  0
    2.0747    0.1464    0.2884 C   0  0  0  0  0  0  0  0  0  0  0  0
    1.8196   -1.0169    0.6215 O   0  0  0  0  0  0  0  0  0  0  0  0
    3.3668    0.6038    0.2054 O   0  0  0  0  0  0  0  0  0  0  0  0
    4.3732   -0.3563    0.5250 C   0  0  0  0  0  0  0  0  0  0  0  0
    4.2081   -1.2754   -0.0815 H   0  0  0  0  0  0  0  0  0  0  0  0
    4.2747   -0.6722    1.5870 H   0  0  0  0  0  0  0  0  0  0  0  0
    5.7385    0.2278    0.2604 C   0  0  0  0  0  0  0  0  0  0  0  0
    6.8716   -0.3812    0.8357 C   0  0  0  0  0  0  0  0  0  0  0  0
    6.7423   -1.2501    1.5014 H   0  0  0  0  0  0  0  0  0  0  0  0
    8.1582    0.1096    0.5730 C   0  0  0  0  0  0  0  0  0  0  0  0
    9.0330   -0.3767    1.0313 H   0  0  0  0  0  0  0  0  0  0  0  0
    8.3295    1.2245   -0.2639 C   0  0  0  0  0  0  0  0  0  0  0  0
    9.3384    1.6150   -0.4661 H   0  0  0  0  0  0  0  0  0  0  0  0
    7.2051    1.8405   -0.8339 C   0  0  0  0  0  0  0  0  0  0  0  0
    7.3293    2.7186   -1.4861 H   0  0  0  0  0  0  0  0  0  0  0  0
    5.9172    1.3451   -0.5761 C   0  0  0  0  0  0  0  0  0  0  0  0
    5.0339    1.8278   -1.0172 H   0  0  0  0  0  0  0  0  0  0  0  0
    0.1830   -2.3560   -1.2043 C   0  0  0  0  0  0  0  0  0  0  0  0
    1.0236   -3.4154   -0.8181 C   0  0  0  0  0  0  0  0  0  0  0  0
    1.0872   -3.7051    0.2401 H   0  0  0  0  0  0  0  0  0  0  0  0
    1.8043   -4.0714   -1.7814 C   0  0  0  0  0  0  0  0  0  0  0  0
    2.4639   -4.8978   -1.4755 H   0  0  0  0  0  0  0  0  0  0  0  0
    1.7591   -3.6679   -3.1260 C   0  0  0  0  0  0  0  0  0  0  0  0
    2.3787   -4.1812   -3.8769 H   0  0  0  0  0  0  0  0  0  0  0  0
    0.9292   -2.6018   -3.5088 C   0  0  0  0  0  0  0  0  0  0  0  0
    0.8971   -2.2745   -4.5591 H   0  0  0  0  0  0  0  0  0  0  0  0
    0.1411   -1.9464   -2.5516 C   0  0  0  0  0  0  0  0  0  0  0  0
   -0.5054   -1.1044   -2.8468 H   0  0  0  0  0  0  0  0  0  0  0  0
   -0.7414   -2.2011    1.6465 C   0  0  0  0  0  0  0  0  0  0  0  0
   -0.2909   -1.3898    2.7074 C   0  0  0  0  0  0  0  0  0  0  0  0
   -0.0146   -0.3452    2.5017 H   0  0  0  0  0  0  0  0  0  0  0  0
   -0.1954   -1.9139    4.0034 C   0  0  0  0  0  0  0  0  0  0  0  0
    0.1552   -1.2711    4.8250 H   0  0  0  0  0  0  0  0  0  0  0  0
   -0.5398   -3.2523    4.2519 C   0  0  0  0  0  0  0  0  0  0  0  0
   -0.4614   -3.6630    5.2701 H   0  0  0  0  0  0  0  0  0  0  0  0
   -0.9900   -4.0641    3.1994 C   0  0  0  0  0  0  0  0  0  0  0  0
   -1.2675   -5.1123    3.3880 H   0  0  0  0  0  0  0  0  0  0  0  0
   -1.0984   -3.5400    1.9021 C   0  0  0  0  0  0  0  0  0  0  0  0
   -1.4734   -4.1825    1.0929 H   0  0  0  0  0  0  0  0  0  0  0  0
  1 60  1  0  0  0  0
  2 17  1  0  0  0  0
  3 26  1  0  0  0  0
  4 32  1  0  0  0  0
  5 14  1  0  0  0  0
  5  1  1  0  0  0  0
  6  5  2  0  0  0  0
  7  6  1  0  0  0  0
  8 10  2  0  0  0  0
  8  6  1  0  0  0  0
  9  8  1  0  0  0  0
 10 12  1  0  0  0  0
 11 10  1  0  0  0  0
 12 13  1  0  0  0  0
 12 14  2  0  0  0  0
 14 15  1  0  0  0  0
 15 16  1  0  0  0  0
 15  2  1  0  0  0  0
 17 18  1  0  0  0  0
 18 20  2  0  0  0  0
 18 19  1  0  0  0  0
 20 21  1  0  0  0  0
 22 23  1  0  0  0  0
 22 20  1  0  0  0  0
 24 22  2  0  0  0  0
 25 24  1  0  0  0  0
 26 24  1  0  0  0  0
 26 17  2  0  0  0  0
 27  3  1  0  0  0  0
 28 27  2  0  0  0  0
 29 27  1  0  0  0  0
 29  4  1  0  0  0  0
 29 31  1  0  0  0  0
 30 29  1  0  0  0  0
 32 33  2  0  0  0  0
 34 32  1  0  0  0  0
 34 35  1  0  0  0  0
 35 37  1  0  0  0  0
 36 35  1  0  0  0  0
 38 35  1  0  0  0  0
 38 39  1  0  0  0  0
 39 40  1  0  0  0  0
 41 39  2  0  0  0  0
 41 42  1  0  0  0  0
 43 41  1  0  0  0  0
 44 43  1  0  0  0  0
 45 47  1  0  0  0  0
 45 43  2  0  0  0  0
 46 45  1  0  0  0  0
 47 38  2  0  0  0  0
 48 47  1  0  0  0  0
 49 50  1  0  0  0  0
 49  1  1  0  0  0  0
 50 51  1  0  0  0  0
 52 53  1  0  0  0  0
 52 50  2  0  0  0  0
 54 52  1  0  0  0  0
 55 54  1  0  0  0  0
 56 54  2  0  0  0  0
 56 58  1  0  0  0  0
 57 56  1  0  0  0  0
 58 49  2  0  0  0  0
 59 58  1  0  0  0  0
 60 69  2  0  0  0  0
 60 61  1  0  0  0  0
 61 63  2  0  0  0  0
 62 61  1  0  0  0  0
 63 65  1  0  0  0  0
 63 64  1  0  0  0  0
 65 66  1  0  0  0  0
 67 68  1  0  0  0  0
 67 65  2  0  0  0  0
 69 67  1  0  0  0  0
 70 69  1  0  0  0  0
M  END
