1,2,3,4
q = -1.0, confidence = 0.202

 64 66  0  0  0  0  0  0  0  0999 V2000
   -0.5546   -1.1755    2.0981 P   0  0  0  0  0  0  0  0  0  0  0  0
    0.4203   -1.6894   -0.7176 N   0  0  0  0  0  2  0  0  0  0  0  0
   -1.9758    0.6944    0.2612 N   0  0  0  0  0  2  0  0  0  0  0  0
    1.3369    1.0271    0.9933 N   0  0  0  0  0  2  0  0  0  0  0  0
   -1.3483   -2.8163    1.7708 C   0  0  0  0  0  0  0  0  0  0  0  0
   -1.3469   -3.4320    2.6962 H   0  0  0  0  0  0  0  0  0  0  0  0
   -2.4096   -2.5870    1.5306 H   0  0  0  0  0  0  0  0  0  0  0  0
   -0.6966   -3.5534    0.5937 C   0  0  0  0  0  0  0  0  0  0  0  0
   -1.2811   -4.4746    0.3823 H   0  0  0  0  0  0  0  0  0  0  0  0
    0.3233   -3.8921    0.8717 H   0  0  0  0  0  0  0  0  0  0  0  0
   -0.6259   -2.7087   -0.6974 C   0  0  0  0  0  0  0  0  0  0  0  0
   -0.5093   -3.3795   -1.5781 H   0  0  0  0  0  0  0  0  0  0  0  0
   -1.6097   -2.2079   -0.8407 H   0  0  0  0  0  0  0  0  0  0  0  0
   -1.6879   -0.3674    3.3245 C   0  0  0  0  0  0  0  0  0  0  0  0
   -2.0886   -1.1254    4.0320 H   0  0  0  0  0  0  0  0  0  0  0  0
   -1.0457    0.3203    3.9159 H   0  0  0  0  0  0  0  0  0  0  0  0
   -2.8009    0.4343    2.6358 C   0  0  0  0  0  0  0  0  0  0  0  0
   -3.3360    1.0393    3.3994 H   0  0  0  0  0  0  0  0  0  0  0  0
   -3.5585   -0.2461    2.1935 H   0  0  0  0  0  0  0  0  0  0  0  0
   -2.2510    1.3621    1.5305 C   0  0  0  0  0  0  0  0  0  0  0  0
   -2.9442    2.2185    1.3702 H   0  0  0  0  0  0  0  0  0  0  0  0
   -1.3020    1.8079    1.8989 H   0  0  0  0  0  0  0  0  0  0  0  0
    0.9697   -1.5232    3.0792 C   0  0  0  0  0  0  0  0  0  0  0  0
    0.7133   -1.9053    4.0913 H   0  0  0  0  0  0  0  0  0  0  0  0
    1.5186   -2.3303    2.5476 H   0  0  0  0  0  0  0  0  0  0  0  0
    1.8429   -0.2607    3.1415 C   0  0  0  0  0  0  0  0  0  0  0  0
    2.7439   -0.4891    3.7507 H   0  0  0  0  0  0  0  0  0  0  0  0
    1.3124    0.5603    3.6711 H   0  0  0  0  0  0  0  0  0  0  0  0
    2.3232    0.2519    1.7719 C   0  0  0  0  0  0  0  0  0  0  0  0
    3.2011    0.9063    1.9545 H   0  0  0  0  0  0  0  0  0  0  0  0
    2.7163   -0.6151    1.1918 H   0  0  0  0  0  0  0  0  0  0  0  0
    1.7228   -2.0810   -1.0249 C   0  0  0  0  0  0  0  0  0  0  0  0
    2.7233   -1.0839   -1.2259 C   0  0  0  0  0  0  0  0  0  0  0  0
    2.4371   -0.0225   -1.1628 H   0  0  0  0  0  0  0  0  0  0  0  0
    4.0453   -1.4257   -1.5177 C   0  0  0  0  0  0  0  0  0  0  0  0
    4.7843   -0.6223   -1.6653 H   0  0  0  0  0  0  0  0  0  0  0  0
    4.4307   -2.7725   -1.6463 C   0  0  0  0  0  0  0  0  0  0  0  0
    5.4707   -3.0395   -1.8841 H   0  0  0  0  0  0  0  0  0  0  0  0
    3.4551   -3.7665   -1.4823 C   0  0  0  0  0  0  0  0  0  0  0  0
    3.7286   -4.8278   -1.5913 H   0  0  0  0  0  0  0  0  0  0  0  0
    2.1260   -3.4376   -1.1775 C   0  0  0  0  0  0  0  0  0  0  0  0
    1.3979   -4.2503   -1.0570 H   0  0  0  0  0  0  0  0  0  0  0  0
   -3.0626    0.4302   -0.5692 C   0  0  0  0  0  0  0  0  0  0  0  0
   -2.8650   -0.2100   -1.8297 C   0  0  0  0  0  0  0  0  0  0  0  0
   -1.8405   -0.4540   -2.1428 H   0  0  0  0  0  0  0  0  0  0  0  0
   -3.9321   -0.4824   -2.6897 C   0  0  0  0  0  0  0  0  0  0  0  0
   -3.7258   -0.9692   -3.6559 H   0  0  0  0  0  0  0  0  0  0  0  0
   -5.2508   -0.1431   -2.3391 C   0  0  0  0  0  0  0  0  0  0  0  0
   -6.0895   -0.3653   -3.0150 H   0  0  0  0  0  0  0  0  0  0  0  0
   -5.4688    0.4874   -1.1056 C   0  0  0  0  0  0  0  0  0  0  0  0
   -6.4905    0.7694   -0.8054 H   0  0  0  0  0  0  0  0  0  0  0  0
   -4.4071    0.7704   -0.2347 C   0  0  0  0  0  0  0  0  0  0  0  0
   -4.6347    1.2686    0.7168 H   0  0  0  0  0  0  0  0  0  0  0  0
    1.7649    2.3072    0.5776 C   0  0  0  0  0  0  0  0  0  0  0  0
    0.8913    3.4168    0.6796 C   0  0  0  0  0  0  0  0  0  0  0  0
   -0.1010    3.2664    1.1281 H   0  0  0  0  0  0  0  0  0  0  0  0
    1.2765    4.6895    0.2364 C   0  0  0  0  0  0  0  0  0  0  0  0
    0.5713    5.5301    0.3292 H   0  0  0  0  0  0  0  0  0  0  0  0
    2.5543    4.8994   -0.3045 C   0  0  0  0  0  0  0  0  0  0  0  0
    2.8588    5.8993   -0.6474 H   0  0  0  0  0  0  0  0  0  0  0  0
    3.4423    3.8138   -0.3951 C   0  0  0  0  0  0  0  0  0  0  0  0
    4.4480    3.9599   -0.8196 H   0  0  0  0  0  0  0  0  0  0  0  0
    3.0589    2.5383    0.0378 C   0  0  0  0  0  0  0  0  0  0  0  0
    3.7612    1.6973   -0.0622 H   0  0  0  0  0  0  0  0  0  0  0  0
  1 23  1  0  0  0  0
  1 14  1  0  0  0  0
  2 11  1  0  0  0  0
  3 20  1  0  0  0  0
  4 29  1  0  0  0  0
  5  1  1  0  0  0  0
  5  6  1  0  0  0  0
  7  5  1  0  0  0  0
  8 10  1  0  0  0  0
  8  5  1  0  0  0  0
  9  8  1  0  0  0  0
 11  8  1  0  0  0  0
 12 11  1  0  0  0  0
 13 11  1  0  0  0  0
 14 16  1  0  0  0  0
 14 15  1  0  0  0  0
 17 14  1  0  0  0  0
 17 18  1  0  0  0  0
 19 17  1  0  0  0  0
 20 22  1  0  0  0  0
 20 17  1  0  0  0  0
 21 20  1  0  0  0  0
 23 26  1  0  0  0  0
 23 24  1  0  0  0  0
 25 23  1  0  0  0  0
 26 28  1  0  0  0  0
 26 27  1  0  0  0  0
 29 30  1  0  0  0  0
 29 26  1  0  0  0  0
 31 29  1  0  0  0  0
 32  2  1  0  0  0  0
 33 34  1  0  0  0  0
 33 32  2  0  0  0  0
 35 33  1  0  0  0  0
 36 35  1  0  0  0  0
 37 35  2  0  0  0  0
 37 39  1  0  0  0  0
 38 37  1  0  0  0  0
 39 41  2  0  0  0  0
 40 39  1  0  0  0  0
 41 42  1  0  0  0  0
 41 32  1  0  0  0  0
 43 52  1  0  0  0  0
 43  3  1  0  0  0  0
 44 43  2  0  0  0  0
 45 44  1  0  0  0  0
 46 48  2  0  0  0  0
 46 44  1  0  0  0  0
 47 46  1  0  0  0  0
 48 50  1  0  0  0  0
 49 48  1  0  0  0  0
 50 51  1  0  0  0  0
 50 52  2  0  0  0  0
 52 53  1  0  0  0  0
 54 55  1  0  0  0  0
 54  4  1  0  0  0  0
 55 56  1  0  0  0  0
 57 58  1  0  0  0  0
 57 55  2  0  0  0  0
 59 57  1  0  0  0  0
 60 59  1  0  0  0  0
 61 59  2  0  0  0  0
 61 63  1  0  0  0  0
 62 61  1  0  0  0  0
 63 54  2  0  0  0  0
 64 63  1  0  0  0  0
M  END
