1
q = 0.0, confidence = 0.978

 12 12  0  0  0  0  0  0  0  0999 V2000
   -0.8360    1.6109    0.1256 N   0  0  0  0  0  2  0  0  0  0  0  0
   -2.3812    3.0969    0.6969 N   0  0  0  0  0  0  0  0  0  0  0  0
   -2.1309    1.9385    0.0322 C   0  0  0  0  0  3  0  0  0  0  0  0
   -2.8971    1.3737   -0.5101 H   0  0  0  0  0  0  0  0  0  0  0  0
   -0.2347    2.6021    0.8814 C   0  0  0  0  0  0  0  0  0  0  0  0
    0.8333    2.5851    1.1166 H   0  0  0  0  0  0  0  0  0  0  0  0
   -1.1884    3.5329    1.2434 C   0  0  0  0  0  0  0  0  0  0  0  0
   -1.1199    4.4554    1.8284 H   0  0  0  0  0  0  0  0  0  0  0  0
   -3.6708    3.7690    0.8000 C   0  0  0  0  0  0  0  0  0  0  0  0
   -3.6166    4.7753    0.3415 H   0  0  0  0  0  0  0  0  0  0  0  0
   -3.9690    3.8672    1.8616 H   0  0  0  0  0  0  0  0  0  0  0  0
   -4.4336    3.1743    0.2668 H   0  0  0  0  0  0  0  0  0  0  0  0
  1  5  1  0  0  0  0
  2  9  1  0  0  0  0
  2  7  1  0  0  0  0
  3  1  1  0  0  0  0
  3  2  1  0  0  0  0
  4  3  1  0  0  0  0
  5  6  1  0  0  0  0
  5  7  2  0  0  0  0
  7  8  1  0  0  0  0
  9 11  1  0  0  0  0
 10  9  1  0  0  0  0
 12  9  1  0  0  0  0
M  END
