1
q = 0.0, confidence = 1.0

 30 32  0  0  1  0  0  0  0  0999 V2000
   -1.0875    0.4185   -1.1520 N   0  0  0  0  0  2  0  0  0  0  0  0
   -0.8304    0.2775   -2.4818 C   0  0  0  0  0  3  0  0  0  0  0  0
   -0.0462    0.9392   -2.8892 H   0  0  0  0  0  0  0  0  0  0  0  0
   -1.5363   -0.6420   -3.2649 C   0  0  0  0  0  0  0  0  0  0  0  0
   -1.3054   -0.7373   -4.3390 H   0  0  0  0  0  0  0  0  0  0  0  0
   -2.5179   -1.4363   -2.7701 N   0  0  0  0  0  0  0  0  0  0  0  0
   -2.7477   -1.2879   -1.4707 C   0  0  0  0  0  0  0  0  0  0  0  0
   -2.0375   -0.3713   -0.6472 C   0  0  0  0  0  0  0  0  0  0  0  0
   -2.6375   -0.4596    0.7264 C   0  0  1  0  0  0  0  0  0  0  0  0
   -2.0314   -0.0418    1.5485 H   0  0  0  0  0  0  0  0  0  0  0  0
   -4.0395    0.2140    0.5605 C   0  0  0  0  0  0  0  0  0  0  0  0
   -4.5060    0.3450    1.5555 H   0  0  0  0  0  0  0  0  0  0  0  0
   -3.9396    1.2247    0.1231 H   0  0  0  0  0  0  0  0  0  0  0  0
   -4.8189   -0.7922   -0.3314 C   0  0  0  0  0  0  0  0  0  0  0  0
   -5.1712   -0.3511   -1.2842 H   0  0  0  0  0  0  0  0  0  0  0  0
   -5.7104   -1.2023    0.1837 H   0  0  0  0  0  0  0  0  0  0  0  0
   -3.7939   -1.9531   -0.5992 C   0  0  2  0  0  0  0  0  0  0  0  0
   -3.0059   -1.9861    0.7786 C   0  0  0  0  0  0  0  0  0  0  0  0
   -3.8646   -2.3715    1.9872 C   0  0  0  0  0  0  0  0  0  0  0  0
   -3.2780   -2.2537    2.9211 H   0  0  0  0  0  0  0  0  0  0  0  0
   -4.1677   -3.4361    1.9206 H   0  0  0  0  0  0  0  0  0  0  0  0
   -4.7840   -1.7674    2.0941 H   0  0  0  0  0  0  0  0  0  0  0  0
   -1.7754   -2.9018    0.7501 C   0  0  0  0  0  0  0  0  0  0  0  0
   -1.1618   -2.7559    1.6629 H   0  0  0  0  0  0  0  0  0  0  0  0
   -1.1235   -2.7169   -0.1255 H   0  0  0  0  0  0  0  0  0  0  0  0
   -2.0779   -3.9681    0.7201 H   0  0  0  0  0  0  0  0  0  0  0  0
   -4.3853   -3.2388   -1.1409 C   0  0  0  0  0  0  0  0  0  0  0  0
   -3.6058   -4.0145   -1.2797 H   0  0  0  0  0  0  0  0  0  0  0  0
   -4.8486   -3.0621   -2.1320 H   0  0  0  0  0  0  0  0  0  0  0  0
   -5.1632   -3.6403   -0.4616 H   0  0  0  0  0  0  0  0  0  0  0  0
  1  8  1  0  0  0  0
  2  1  1  0  0  0  0
  3  2  1  0  0  0  0
  4  6  2  0  0  0  0
  4  2  1  0  0  0  0
  5  4  1  0  0  0  0
  6  7  1  0  0  0  0
  7  8  2  0  0  0  0
  7 17  1  0  0  0  0
  8  9  1  0  0  0  0
  9 18  1  0  0  0  0
  9 10  1  1  0  0  0
 11  9  1  0  0  0  0
 11 12  1  0  0  0  0
 13 11  1  0  0  0  0
 14 16  1  0  0  0  0
 14 11  1  0  0  0  0
 15 14  1  0  0  0  0
 17 27  1  6  0  0  0
 17 14  1  0  0  0  0
 17 18  1  0  0  0  0
 18 19  1  0  0  0  0
 19 22  1  0  0  0  0
 19 20  1  0  0  0  0
 21 19  1  0  0  0  0
 23 18  1  0  0  0  0
 23 24  1  0  0  0  0
 25 23  1  0  0  0  0
 26 23  1  0  0  0  0
 27 30  1  0  0  0  0
 28 27  1  0  0  0  0
 29 27  1  0  0  0  0
M  END
