1
q = 0.0, confidence = 0.996

 28 30  0  0  0  0  0  0  0  0999 V2000
    1.9484   -1.1171   -0.7717 N   0  0  0  0  0  2  0  0  0  0  0  0
    5.6458   -0.4273    1.0548 N   0  0  0  0  0  0  0  0  0  0  0  0
    6.9403   -0.1862    1.3701 N   0  0  0  0  0  0  0  0  0  0  0  0
    6.9025   -1.1800   -0.6036 N   0  0  0  0  0  0  0  0  0  0  0  0
    7.3462   -1.7072   -1.8136 N   0  0  0  0  0  0  0  0  0  0  0  0
    6.8445   -1.2633   -2.5929 H   0  0  0  0  0  0  0  0  0  0  0  0
    7.1828   -2.7218   -1.8402 H   0  0  0  0  0  0  0  0  0  0  0  0
   11.0950    0.1603    1.7299 N   0  0  0  0  0  0  0  0  0  0  0  0
    1.8257   -1.9360   -1.8381 C   0  0  0  0  0  3  0  0  0  0  0  0
    0.8019   -2.0959   -2.2234 H   0  0  0  0  0  0  0  0  0  0  0  0
    2.9441   -2.5410   -2.4198 C   0  0  0  0  0  0  0  0  0  0  0  0
    2.8187   -3.2156   -3.2785 H   0  0  0  0  0  0  0  0  0  0  0  0
    4.2159   -2.2760   -1.8949 C   0  0  0  0  0  0  0  0  0  0  0  0
    5.0898   -2.7637   -2.3449 H   0  0  0  0  0  0  0  0  0  0  0  0
    4.3495   -1.4056   -0.7900 C   0  0  0  0  0  0  0  0  0  0  0  0
    3.1546   -0.8558   -0.2568 C   0  0  0  0  0  0  0  0  0  0  0  0
    3.2078   -0.1868    0.6188 H   0  0  0  0  0  0  0  0  0  0  0  0
    5.6008   -1.0318   -0.1305 C   0  0  0  0  0  0  0  0  0  0  0  0
    7.7164   -0.6261    0.3771 C   0  0  0  0  0  0  0  0  0  0  0  0
    9.1782   -0.5207    0.3938 C   0  0  0  0  0  0  0  0  0  0  0  0
   10.0376   -0.8834   -0.6661 C   0  0  0  0  0  0  0  0  0  0  0  0
    9.6189   -1.2851   -1.5974 H   0  0  0  0  0  0  0  0  0  0  0  0
   11.4176   -0.7150   -0.5003 C   0  0  0  0  0  0  0  0  0  0  0  0
   12.1161   -0.9858   -1.3062 H   0  0  0  0  0  0  0  0  0  0  0  0
   11.8973   -0.1920    0.7100 C   0  0  0  0  0  0  0  0  0  0  0  0
   12.9818   -0.0489    0.8658 H   0  0  0  0  0  0  0  0  0  0  0  0
    9.7783   -0.0002    1.5726 C   0  0  0  0  0  0  0  0  0  0  0  0
    9.1240    0.2911    2.4114 H   0  0  0  0  0  0  0  0  0  0  0  0
  1 16  1  0  0  0  0
  2  3  1  0  0  0  0
  4 18  1  0  0  0  0
  4 19  1  0  0  0  0
  5  4  1  0  0  0  0
  6  5  1  0  0  0  0
  7  5  1  0  0  0  0
  9  1  1  0  0  0  0
 10  9  1  0  0  0  0
 11 13  2  0  0  0  0
 11  9  1  0  0  0  0
 12 11  1  0  0  0  0
 13 15  1  0  0  0  0
 14 13  1  0  0  0  0
 15 16  2  0  0  0  0
 15 18  1  0  0  0  0
 16 17  1  0  0  0  0
 18  2  2  0  0  0  0
 19 20  1  0  0  0  0
 19  3  2  0  0  0  0
 20 27  2  0  0  0  0
 21 23  2  0  0  0  0
 21 20  1  0  0  0  0
 22 21  1  0  0  0  0
 23 25  1  0  0  0  0
 24 23  1  0  0  0  0
 25 26  1  0  0  0  0
 25  8  2  0  0  0  0
 27  8  1  0  0  0  0
 27 28  1  0  0  0  0
M  END
