25
q = 0.0, confidence = 1.0

 27 29  0  0  1  0  0  0  0  0999 V2000
   -1.5520    4.0620    0.3812 C   0  0  0  0  0  0  0  0  0  0  0  0
   -1.7053    4.8834   -0.3468 H   0  0  0  0  0  0  0  0  0  0  0  0
   -1.8588    4.4104    1.3870 H   0  0  0  0  0  0  0  0  0  0  0  0
    1.6273    2.0638   -2.3447 C   0  0  0  0  0  0  0  0  0  0  0  0
    1.5705    1.7430   -3.3958 H   0  0  0  0  0  0  0  0  0  0  0  0
    2.8123    1.7923   -1.6093 C   0  0  0  0  0  0  0  0  0  0  0  0
    3.6332    1.2572   -2.1081 H   0  0  0  0  0  0  0  0  0  0  0  0
    2.9386    2.1656   -0.2697 C   0  0  0  0  0  0  0  0  0  0  0  0
    3.8422    1.9458    0.3153 H   0  0  0  0  0  0  0  0  0  0  0  0
   -1.8785    1.4069    1.9370 C   0  0  0  0  0  0  0  0  0  0  0  0
   -2.4554    0.5504    2.3458 H   0  0  0  0  0  0  0  0  0  0  0  0
   -1.9624    2.2725    2.6209 H   0  0  0  0  0  0  0  0  0  0  0  0
   -0.8064    1.1198    1.8954 H   0  0  0  0  0  0  0  0  0  0  0  0
    0.5299    2.7165   -1.7740 C   0  0  0  0  0  0  0  0  0  0  0  0
   -0.3881    2.9019   -2.3475 H   0  0  0  0  0  0  0  0  0  0  0  0
    1.8444    2.8252    0.3253 C   0  0  0  0  0  0  0  0  0  0  0  0
   -2.9214    2.7839   -1.3204 C   0  0  0  0  0  0  0  0  0  0  0  0
   -2.9981    3.6261   -2.0154 H   0  0  0  0  0  0  0  0  0  0  0  0
    0.6654    3.0941   -0.4241 C   0  0  0  0  0  0  0  0  0  0  0  0
   -3.3356    1.4733   -1.4018 C   0  0  0  0  0  0  0  0  0  0  0  0
   -3.8331    0.9169   -2.2058 H   0  0  0  0  0  0  0  0  0  0  0  0
   -2.4100    1.7086    0.5809 C   0  0  2  0  0  3  0  0  0  0  0  0
    1.6571    3.2825    1.6196 N   0  0  0  0  0  0  0  0  0  0  0  0
    0.4744    3.7904    1.7171 N   0  0  0  0  0  0  0  0  0  0  0  0
   -3.0076    0.8318   -0.2255 N   0  0  0  0  0  2  0  0  0  0  0  0
   -0.1539    3.7133    0.4914 N   0  0  0  0  0  0  0  0  0  0  0  0
   -2.3400    2.9248   -0.0608 N   0  0  0  0  0  0  0  0  0  0  0  0
  1 26  1  0  0  0  0
  1  3  1  0  0  0  0
  2  1  1  0  0  0  0
  4 14  2  0  0  0  0
  4  6  1  0  0  0  0
  5  4  1  0  0  0  0
  6  8  2  0  0  0  0
  7  6  1  0  0  0  0
  8  9  1  0  0  0  0
  8 16  1  0  0  0  0
 10 11  1  0  0  0  0
 10 12  1  0  0  0  0
 13 10  1  0  0  0  0
 14 19  1  0  0  0  0
 15 14  1  0  0  0  0
 16 23  1  0  0  0  0
 17 27  1  0  0  0  0
 18 17  1  0  0  0  0
 19 16  2  0  0  0  0
 19 26  1  0  0  0  0
 20 17  2  0  0  0  0
 20 25  1  0  0  0  0
 21 20  1  0  0  0  0
 22 10  1  6  0  0  0
 23 24  2  0  0  0  0
 25 22  1  0  0  0  0
 26 24  1  0  0  0  0
 27  1  1  0  0  0  0
 27 22  1  0  0  0  0
M  END
