1
q = 0.0, confidence = 0.952

 17 17  0  0  0  0  0  0  0  0999 V2000
   -1.5909    0.1239   -1.3402 N   0  0  0  0  0  0  0  0  0  0  0  0
   -1.3962   -0.7648   -1.8362 H   0  0  0  0  0  0  0  0  0  0  0  0
   -1.4572    1.2682   -2.2624 C   0  0  0  0  0  0  0  0  0  0  0  0
   -2.3361    1.3328   -2.9383 H   0  0  0  0  0  0  0  0  0  0  0  0
   -1.3513    2.2017   -1.6807 H   0  0  0  0  0  0  0  0  0  0  0  0
   -0.5342    1.1256   -2.8535 H   0  0  0  0  0  0  0  0  0  0  0  0
   -2.8343   -0.0116   -0.6181 C   0  0  0  0  0  0  0  0  0  0  0  0
   -4.7977    0.9235    0.4526 C   0  0  0  0  0  0  0  0  0  0  0  0
   -5.3985    1.8025    0.7309 H   0  0  0  0  0  0  0  0  0  0  0  0
   -3.6070    1.1078   -0.2662 C   0  0  0  0  0  0  0  0  0  0  0  0
   -3.2712    2.1201   -0.5240 H   0  0  0  0  0  0  0  0  0  0  0  0
   -3.2469   -1.3064   -0.2452 C   0  0  0  0  0  0  0  0  0  0  0  0
   -2.6057   -2.1654   -0.4981 H   0  0  0  0  0  0  0  0  0  0  0  0
   -4.4383   -1.4760    0.4693 C   0  0  0  0  0  0  0  0  0  0  0  0
   -4.7562   -2.4894    0.7571 H   0  0  0  0  0  0  0  0  0  0  0  0
   -5.2206   -0.3625    0.8198 C   0  0  0  0  0  0  0  0  0  0  0  0
   -6.1561   -0.4978    1.3827 H   0  0  0  0  0  0  0  0  0  0  0  0
  1  7  1  0  0  0  0
  2  1  1  0  0  0  0
  3  5  1  0  0  0  0
  3  1  1  0  0  0  0
  4  3  1  0  0  0  0
  6  3  1  0  0  0  0
  7 10  2  0  0  0  0
  7 12  1  0  0  0  0
  8  9  1  0  0  0  0
  8 16  2  0  0  0  0
 10  8  1  0  0  0  0
 11 10  1  0  0  0  0
 12 14  2  0  0  0  0
 13 12  1  0  0  0  0
 14 15  1  0  0  0  0
 14 16  1  0  0  0  0
 16 17  1  0  0  0  0
M  END
