2
q = 0.0, confidence = 0.994

 23 25  0  0  1  0  0  0  0  0999 V2000
   -2.8449    3.0973    0.1053 S   0  0  0  0  0  0  0  0  0  0  0  0
   -2.3525    0.2556   -0.1220 N   0  0  0  0  0  2  0  0  0  0  0  0
   -3.2324   -0.7906   -0.1497 N   0  0  0  0  0  0  0  0  0  0  0  0
   -4.4770   -0.3256   -0.0497 C   0  0  0  0  0  0  0  0  0  0  0  0
   -4.4017    1.0592    0.0456 N   0  0  0  0  0  0  0  0  0  0  0  0
   -5.2984    2.0771    0.1662 N   0  0  0  0  0  0  0  0  0  0  0  0
   -5.5358   -2.5518   -0.1268 C   0  0  0  0  0  0  0  0  0  0  0  0
   -4.5204   -2.9688   -0.1930 H   0  0  0  0  0  0  0  0  0  0  0  0
   -6.6644   -3.3768   -0.1234 C   0  0  0  0  0  0  0  0  0  0  0  0
   -6.5400   -4.4683   -0.1895 H   0  0  0  0  0  0  0  0  0  0  0  0
   -7.9521   -2.8186   -0.0349 C   0  0  0  0  0  0  0  0  0  0  0  0
   -8.8381   -3.4716   -0.0321 H   0  0  0  0  0  0  0  0  0  0  0  0
   -8.1034   -1.4260    0.0510 C   0  0  0  0  0  0  0  0  0  0  0  0
   -9.1089   -0.9841    0.1213 H   0  0  0  0  0  0  0  0  0  0  0  0
   -6.9798   -0.5876    0.0483 C   0  0  0  0  0  0  0  0  0  0  0  0
   -7.0963    0.5030    0.1166 H   0  0  0  0  0  0  0  0  0  0  0  0
   -5.6858   -1.1472   -0.0413 C   0  0  0  0  0  0  0  0  0  0  0  0
   -3.0585    1.3736   -0.0027 C   0  0  2  0  0  3  0  0  0  0  0  0
   -4.6383    3.2052    0.2123 C   0  0  0  0  0  0  0  0  0  0  0  0
   -5.3134    4.5281    0.3456 C   0  0  0  0  0  0  0  0  0  0  0  0
   -6.4077    4.3767    0.3859 H   0  0  0  0  0  0  0  0  0  0  0  0
   -5.0704    5.1872   -0.5124 H   0  0  0  0  0  0  0  0  0  0  0  0
   -4.9865    5.0492    1.2684 H   0  0  0  0  0  0  0  0  0  0  0  0
  1 19  1  0  0  0  0
  3  2  1  0  0  0  0
  3  4  2  0  0  0  0
  4 17  1  0  0  0  0
  4  5  1  0  0  0  0
  5  6  1  0  0  0  0
  6 19  2  0  0  0  0
  7  9  2  0  0  0  0
  7 17  1  0  0  0  0
  8  7  1  0  0  0  0
  9 11  1  0  0  0  0
 10  9  1  0  0  0  0
 11 12  1  0  0  0  0
 11 13  2  0  0  0  0
 13 14  1  0  0  0  0
 15 13  1  0  0  0  0
 15 16  1  0  0  0  0
 17 15  2  0  0  0  0
 18  2  1  6  0  0  0
 18  5  1  0  0  0  0
 18  1  1  0  0  0  0
 19 20  1  0  0  0  0
 20 21  1  0  0  0  0
 20 23  1  0  0  0  0
 22 20  1  0  0  0  0
M  END
