1
q = 0.0, confidence = 0.922

  4  3  0  0  0  0  0  0  0  0999 V2000
   -0.0305   -2.2727   -0.8986 N   0  0  0  0  0  0  0  0  0  0  0  0
   -0.8633   -2.7352   -0.4754 H   0  0  0  0  0  0  0  0  0  0  0  0
    0.8318   -2.7787   -0.6320 H   0  0  0  0  0  0  0  0  0  0  0  0
   -0.1030   -2.3292   -1.9244 H   0  0  0  0  0  0  0  0  0  0  0  0
  1  3  1  0  0  0  0
  1  2  1  0  0  0  0
  4  1  1  0  0  0  0
M  END
