2
q = 0.0, confidence = 0.988

 15 15  0  0  0  0  0  0  0  0999 V2000
   -3.2247    2.8423    2.2986 O   0  0  0  0  0  0  0  0  0  0  0  0
   -1.0116    1.3853    1.1649 N   0  0  0  0  0  0  0  0  0  0  0  0
   -0.2028    1.5526    1.7822 H   0  0  0  0  0  0  0  0  0  0  0  0
   -1.4665    2.6793    0.6183 C   0  0  0  0  0  0  0  0  0  0  0  0
   -2.1756    2.4526   -0.2062 H   0  0  0  0  0  0  0  0  0  0  0  0
   -0.5969    3.2016    0.1691 H   0  0  0  0  0  0  0  0  0  0  0  0
   -2.1528    3.5410    1.6756 C   0  0  0  0  0  0  0  0  0  0  0  0
   -1.4097    3.8658    2.4502 H   0  0  0  0  0  0  0  0  0  0  0  0
   -2.5868    4.4533    1.2185 H   0  0  0  0  0  0  0  0  0  0  0  0
   -2.7587    1.6589    2.9255 C   0  0  0  0  0  0  0  0  0  0  0  0
   -3.6398    1.1691    3.3894 H   0  0  0  0  0  0  0  0  0  0  0  0
   -2.0358    1.9141    3.7447 H   0  0  0  0  0  0  0  0  0  0  0  0
   -2.0918    0.7258    1.9147 C   0  0  0  0  0  0  0  0  0  0  0  0
   -1.6984   -0.1851    2.4114 H   0  0  0  0  0  0  0  0  0  0  0  0
   -2.8447    0.3835    1.1765 H   0  0  0  0  0  0  0  0  0  0  0  0
  1 10  1  0  0  0  0
  2  3  1  0  0  0  0
  2 13  1  0  0  0  0
  4  2  1  0  0  0  0
  4  7  1  0  0  0  0
  5  4  1  0  0  0  0
  6  4  1  0  0  0  0
  7  1  1  0  0  0  0
  7  8  1  0  0  0  0
  9  7  1  0  0  0  0
 10 11  1  0  0  0  0
 10 12  1  0  0  0  0
 13 14  1  0  0  0  0
 13 10  1  0  0  0  0
 15 13  1  0  0  0  0
M  END
