1
q = -1.0, confidence = 0.0

 13 13  0  0  0  0  0  0  0  0999 V2000
    1.1445   -2.1465   -0.2730 N   0  0  0  0  0  2  0  0  0  0  0  0
    2.5053   -2.3142   -0.3209 C   0  0  0  0  0  0  0  0  0  0  0  0
    3.3624   -1.2449   -0.7221 C   0  0  0  0  0  0  0  0  0  0  0  0
    4.7516   -1.3898   -0.7616 C   0  0  0  0  0  0  0  0  0  0  0  0
    5.3640   -2.6098   -0.4168 C   0  0  0  0  0  0  0  0  0  0  0  0
    4.5391   -3.6840   -0.0375 C   0  0  0  0  0  0  0  0  0  0  0  0
    3.1471   -3.5466    0.0088 C   0  0  0  0  0  0  0  0  0  0  0  0
    0.6783   -3.0370   -0.0684 H   0  0  0  0  0  0  0  0  0  0  0  0
    2.8839   -0.2996   -1.0202 H   0  0  0  0  0  0  0  0  0  0  0  0
    5.3713   -0.5349   -1.0794 H   0  0  0  0  0  0  0  0  0  0  0  0
    6.4575   -2.7231   -0.4521 H   0  0  0  0  0  0  0  0  0  0  0  0
    4.9907   -4.6531    0.2307 H   0  0  0  0  0  0  0  0  0  0  0  0
    2.5205   -4.4011    0.3161 H   0  0  0  0  0  0  0  0  0  0  0  0
  1  8  1  0  0  0  0
  2  1  1  0  0  0  0
  2  7  1  0  0  0  0
  3  2  2  0  0  0  0
  4  3  1  0  0  0  0
  4  5  2  0  0  0  0
  5  6  1  0  0  0  0
  6  7  2  0  0  0  0
  6 12  1  0  0  0  0
  7 13  1  0  0  0  0
  9  3  1  0  0  0  0
 10  4  1  0  0  0  0
 11  5  1  0  0  0  0
M  END
