1
q = 0.0, confidence = 0.922

 23 24  0  0  0  0  0  0  0  0999 V2000
    0.2998   -0.5994    0.1612 N   0  0  0  0  0  2  0  0  0  0  0  0
    4.4932   -0.4150    0.5724 N   0  0  0  0  0  2  0  0  0  0  0  0
    5.1305    0.1274   -0.3869 N   0  0  0  0  0  2  0  0  0  0  0  0
    0.9294   -1.0120    1.2934 C   0  0  0  0  0  3  0  0  0  0  0  0
    0.2827   -1.4023    2.0916 H   0  0  0  0  0  0  0  0  0  0  0  0
    2.3138   -0.9452    1.4348 C   0  0  0  0  0  0  0  0  0  0  0  0
    2.8047   -1.2816    2.3586 H   0  0  0  0  0  0  0  0  0  0  0  0
    3.1001   -0.4449    0.3763 C   0  0  0  0  0  0  0  0  0  0  0  0
    2.4366   -0.0331   -0.8048 C   0  0  0  0  0  0  0  0  0  0  0  0
    3.0287    0.3472   -1.6482 H   0  0  0  0  0  0  0  0  0  0  0  0
    1.0527   -0.1270   -0.8742 C   0  0  0  0  0  0  0  0  0  0  0  0
    0.4954    0.1703   -1.7746 H   0  0  0  0  0  0  0  0  0  0  0  0
    6.5230    0.1596   -0.2549 C   0  0  0  0  0  0  0  0  0  0  0  0
    7.2222    0.7709   -1.3237 C   0  0  0  0  0  0  0  0  0  0  0  0
    6.6360    1.1708   -2.1638 H   0  0  0  0  0  0  0  0  0  0  0  0
    8.6177    0.8506   -1.2904 C   0  0  0  0  0  0  0  0  0  0  0  0
    9.1648    1.3238   -2.1189 H   0  0  0  0  0  0  0  0  0  0  0  0
    9.3185    0.3217   -0.1928 C   0  0  0  0  0  0  0  0  0  0  0  0
   10.4170    0.3828   -0.1646 H   0  0  0  0  0  0  0  0  0  0  0  0
    8.6256   -0.2883    0.8750 C   0  0  0  0  0  0  0  0  0  0  0  0
    9.1879   -0.6984    1.7273 H   0  0  0  0  0  0  0  0  0  0  0  0
    7.2346   -0.3730    0.8522 C   0  0  0  0  0  0  0  0  0  0  0  0
    6.6649   -0.8414    1.6665 H   0  0  0  0  0  0  0  0  0  0  0  0
  1  4  1  0  0  0  0
  3 13  1  0  0  0  0
  3  2  1  0  0  0  0
  4  6  1  0  0  0  0
  4  5  1  0  0  0  0
  6  7  1  0  0  0  0
  8  2  1  0  0  0  0
  8  6  2  0  0  0  0
  9  8  1  0  0  0  0
 10  9  1  0  0  0  0
 11  9  2  0  0  0  0
 11  1  1  0  0  0  0
 12 11  1  0  0  0  0
 13 22  1  0  0  0  0
 14 16  1  0  0  0  0
 14 13  2  0  0  0  0
 15 14  1  0  0  0  0
 16 18  2  0  0  0  0
 17 16  1  0  0  0  0
 18 19  1  0  0  0  0
 18 20  1  0  0  0  0
 20 21  1  0  0  0  0
 22 20  2  0  0  0  0
 22 23  1  0  0  0  0
M  END
