1
q = 0.0, confidence = 0.994

 16 16  0  0  1  0  0  0  0  0999 V2000
   -1.1534   -0.6628   -0.0811 N   0  0  0  0  0  2  0  0  0  0  0  0
   -2.1686    0.1474   -0.1995 C   0  0  1  0  0  3  0  0  0  0  0  0
   -3.3597   -0.3578    0.1663 O   0  0  0  0  0  0  0  0  0  0  0  0
   -3.1446   -1.7507    0.5302 C   0  0  0  0  0  0  0  0  0  0  0  0
   -3.5962   -2.3795   -0.2657 H   0  0  0  0  0  0  0  0  0  0  0  0
   -3.6704   -1.9398    1.4847 H   0  0  0  0  0  0  0  0  0  0  0  0
   -1.6125   -1.8786    0.6110 C   0  0  0  0  0  0  0  0  0  0  0  0
   -1.2238   -1.8411    1.6509 H   0  0  0  0  0  0  0  0  0  0  0  0
   -1.2181   -2.7916    0.1242 H   0  0  0  0  0  0  0  0  0  0  0  0
   -2.1104    1.5750   -0.6212 C   0  0  0  0  0  0  0  0  0  0  0  0
   -1.8120    2.1310    0.2974 H   0  0  0  0  0  0  0  0  0  0  0  0
   -1.2318    1.6793   -1.2905 H   0  0  0  0  0  0  0  0  0  0  0  0
   -3.4000    2.1231   -1.2294 C   0  0  0  0  0  0  0  0  0  0  0  0
   -3.6721    1.5914   -2.1633 H   0  0  0  0  0  0  0  0  0  0  0  0
   -3.2801    3.1963   -1.4717 H   0  0  0  0  0  0  0  0  0  0  0  0
   -4.2497    2.0233   -0.5266 H   0  0  0  0  0  0  0  0  0  0  0  0
  1  7  1  0  0  0  0
  2 10  1  1  0  0  0
  2  1  1  0  0  0  0
  2  3  1  0  0  0  0
  3  4  1  0  0  0  0
  4  7  1  0  0  0  0
  4  6  1  0  0  0  0
  5  4  1  0  0  0  0
  7  8  1  0  0  0  0
  9  7  1  0  0  0  0
 10 11  1  0  0  0  0
 12 10  1  0  0  0  0
 13 10  1  0  0  0  0
 13 16  1  0  0  0  0
 14 13  1  0  0  0  0
 15 13  1  0  0  0  0
M  END
