1
q = -1.0, confidence = 0.002

 24 24  0  0  0  0  0  0  0  0999 V2000
    0.7974   -0.0832    0.0092 N   0  0  0  0  0  2  0  0  0  0  0  0
    1.1082    0.9051   -0.0194 H   0  0  0  0  0  0  0  0  0  0  0  0
    1.9160   -0.9167   -0.0170 C   0  0  0  0  0  0  0  0  0  0  0  0
    3.1979   -0.3837   -0.3680 C   0  0  0  0  0  0  0  0  0  0  0  0
    2.7833    2.0485    0.1112 N   0  0  0  0  0  0  0  0  0  0  0  0
    1.8240   -2.2963    0.3014 C   0  0  0  0  0  0  0  0  0  0  0  0
    0.8501   -2.7120    0.5934 H   0  0  0  0  0  0  0  0  0  0  0  0
    3.3603    1.0546   -0.8064 C   0  0  0  0  0  0  0  0  0  0  0  0
    4.4500    1.2544   -0.9786 H   0  0  0  0  0  0  0  0  0  0  0  0
    2.8571    1.2008   -1.7902 H   0  0  0  0  0  0  0  0  0  0  0  0
    4.3174   -1.2325   -0.3678 C   0  0  0  0  0  0  0  0  0  0  0  0
    5.2984   -0.8048   -0.6317 H   0  0  0  0  0  0  0  0  0  0  0  0
    2.9527   -3.1202    0.2768 C   0  0  0  0  0  0  0  0  0  0  0  0
    2.8458   -4.1856    0.5319 H   0  0  0  0  0  0  0  0  0  0  0  0
    4.2117   -2.5952   -0.0549 C   0  0  0  0  0  0  0  0  0  0  0  0
    5.1039   -3.2385   -0.0667 H   0  0  0  0  0  0  0  0  0  0  0  0
    2.9541    3.3973   -0.4041 C   0  0  0  0  0  0  0  0  0  0  0  0
    2.4210    4.1245    0.2417 H   0  0  0  0  0  0  0  0  0  0  0  0
    2.5354    3.4712   -1.4283 H   0  0  0  0  0  0  0  0  0  0  0  0
    4.0304    3.7074   -0.4558 H   0  0  0  0  0  0  0  0  0  0  0  0
    3.2860    1.9248    1.4735 C   0  0  0  0  0  0  0  0  0  0  0  0
    4.3839    2.1364    1.5481 H   0  0  0  0  0  0  0  0  0  0  0  0
    3.1083    0.9001    1.8527 H   0  0  0  0  0  0  0  0  0  0  0  0
    2.7532    2.6388    2.1336 H   0  0  0  0  0  0  0  0  0  0  0  0
  2  1  1  0  0  0  0
  3  1  1  0  0  0  0
  3  6  1  0  0  0  0
  4 11  1  0  0  0  0
  4  3  2  0  0  0  0
  5 21  1  0  0  0  0
  6  7  1  0  0  0  0
  8  4  1  0  0  0  0
  8  5  1  0  0  0  0
  9  8  1  0  0  0  0
 10  8  1  0  0  0  0
 11 15  2  0  0  0  0
 12 11  1  0  0  0  0
 13  6  2  0  0  0  0
 13 14  1  0  0  0  0
 15 13  1  0  0  0  0
 16 15  1  0  0  0  0
 17  5  1  0  0  0  0
 17 18  1  0  0  0  0
 19 17  1  0  0  0  0
 20 17  1  0  0  0  0
 21 22  1  0  0  0  0
 21 23  1  0  0  0  0
 21 24  1  0  0  0  0
M  END
