2
q = -1.0, confidence = 0.026

 13 13  0  0  0  0  0  0  0  0999 V2000
    1.7272    0.0752    0.4103 N   0  0  0  0  0  0  0  0  0  0  0  0
    0.8170   -0.1322    1.3439 N   0  0  0  0  0  0  0  0  0  0  0  0
    1.3978   -0.5382    2.5209 N   0  0  0  0  0  0  0  0  0  0  0  0
    2.6853   -0.5992    2.3272 N   0  0  0  0  0  0  0  0  0  0  0  0
    6.1901   -0.9906    1.9308 N   0  0  0  0  0  0  0  0  0  0  0  0
    6.9114    0.0162   -1.8595 N   0  0  0  0  0  0  0  0  0  0  0  0
    2.7658    0.8664   -2.6927 N   0  0  0  0  0  0  0  0  0  0  0  0
    2.8944   -0.2270    1.0264 C   0  0  0  0  0  0  0  0  0  0  0  0
    4.2023   -0.2245    0.4280 C   0  0  0  0  0  0  0  0  0  0  0  0
    4.4929    0.1217   -0.8977 C   0  0  0  0  0  0  0  0  0  0  0  0
    5.2855   -0.6438    1.2686 C   0  0  0  0  0  0  0  0  0  0  0  0
    5.8283    0.0602   -1.4048 C   0  0  0  0  0  0  0  0  0  0  0  0
    3.5057    0.5306   -1.8429 C   0  0  0  0  0  0  0  0  0  0  0  0
  1  8  2  0  0  0  0
  1  2  1  0  0  0  0
  2  3  1  0  0  0  0
  4  3  2  0  0  0  0
  6 12  3  0  0  0  0
  7 13  3  0  0  0  0
  8  4  1  0  0  0  0
  9  8  1  0  0  0  0
  9 11  1  0  0  0  0
 10  9  2  0  0  0  0
 11  5  3  0  0  0  0
 12 10  1  0  0  0  0
 13 10  1  0  0  0  0
M  END
