3
q = 0.0, confidence = 1.0

 25 26  0  0  0  0  0  0  0  0999 V2000
    7.0185    2.8702   -0.4679 Cl  0  0  0  0  0  0  0  0  0  0  0  0
    2.7822   -1.8359    0.4337 N   0  0  0  0  0  0  0  0  0  0  0  0
   -0.8854   -1.4154    0.5298 N   0  0  0  0  0  2  0  0  0  0  0  0
    5.0967    0.9803   -0.0563 C   0  0  0  0  0  0  0  0  0  0  0  0
    4.4029    1.8150    0.1232 H   0  0  0  0  0  0  0  0  0  0  0  0
    5.1168   -2.7140   -0.1430 O   0  0  0  0  0  0  0  0  0  0  0  0
    4.1178   -2.6751    0.1014 H   0  0  0  0  0  0  0  0  0  0  0  0
    4.6215   -0.3542    0.0235 C   0  0  0  0  0  0  0  0  0  0  0  0
   -1.2584   -2.5412    1.1772 C   0  0  0  0  0  3  0  0  0  0  0  0
   -2.3363   -2.6632    1.3605 H   0  0  0  0  0  0  0  0  0  0  0  0
    5.5233   -1.4506   -0.2130 C   0  0  0  0  0  0  0  0  0  0  0  0
    6.4303    1.2307   -0.3653 C   0  0  0  0  0  0  0  0  0  0  0  0
    1.0409   -3.2800    1.3306 C   0  0  0  0  0  0  0  0  0  0  0  0
    1.8098   -4.0003    1.6467 H   0  0  0  0  0  0  0  0  0  0  0  0
    3.2411   -0.6117    0.3462 C   0  0  0  0  0  0  0  0  0  0  0  0
    2.5840    0.2677    0.5311 H   0  0  0  0  0  0  0  0  0  0  0  0
   -0.3182   -3.4995    1.5766 C   0  0  0  0  0  0  0  0  0  0  0  0
   -0.6605   -4.4103    2.0883 H   0  0  0  0  0  0  0  0  0  0  0  0
    0.4149   -1.2057    0.2623 C   0  0  0  0  0  0  0  0  0  0  0  0
    0.6579   -0.2969   -0.3068 H   0  0  0  0  0  0  0  0  0  0  0  0
    6.8740   -1.1624   -0.5226 C   0  0  0  0  0  0  0  0  0  0  0  0
    7.5573   -2.0046   -0.7017 H   0  0  0  0  0  0  0  0  0  0  0  0
    7.3202    0.1553   -0.5989 C   0  0  0  0  0  0  0  0  0  0  0  0
    8.3700    0.3734   -0.8419 H   0  0  0  0  0  0  0  0  0  0  0  0
    1.4326   -2.0916    0.6760 C   0  0  0  0  0  0  0  0  0  0  0  0
  1 12  1  0  0  0  0
  2 25  1  0  0  0  0
  3  9  1  0  0  0  0
  4  8  1  0  0  0  0
  4  5  1  0  0  0  0
  6  7  1  0  0  0  0
  8 15  1  0  0  0  0
  9 10  1  0  0  0  0
  9 17  1  0  0  0  0
 11  6  1  0  0  0  0
 11  8  2  0  0  0  0
 12  4  2  0  0  0  0
 13 17  2  0  0  0  0
 13 14  1  0  0  0  0
 15  2  2  0  0  0  0
 15 16  1  0  0  0  0
 17 18  1  0  0  0  0
 19  3  1  0  0  0  0
 19 25  2  0  0  0  0
 20 19  1  0  0  0  0
 21 11  1  0  0  0  0
 22 21  1  0  0  0  0
 23 21  2  0  0  0  0
 23 12  1  0  0  0  0
 24 23  1  0  0  0  0
 25 13  1  0  0  0  0
M  END
