1
q = -1.0, confidence = 0.0

  8  8  0  0  0  0  0  0  0  0999 V2000
   -1.7477   -0.0005   -1.1264 N   0  0  0  0  0  0  0  0  0  0  0  0
   -2.9888   -0.0014   -0.5493 N   0  0  0  0  0  2  0  0  0  0  0  0
   -1.8980    0.0001   -2.4736 C   0  0  0  0  0  0  0  0  0  0  0  0
   -3.2708   -0.0005   -2.7939 C   0  0  0  0  0  0  0  0  0  0  0  0
   -3.9121   -0.0015   -1.5473 C   0  0  0  0  0  0  0  0  0  0  0  0
   -1.0190    0.0010   -3.1285 H   0  0  0  0  0  0  0  0  0  0  0  0
   -3.7257   -0.0003   -3.7901 H   0  0  0  0  0  0  0  0  0  0  0  0
   -4.9839   -0.0022   -1.3098 H   0  0  0  0  0  0  0  0  0  0  0  0
  1  2  1  0  0  0  0
  3  1  2  0  0  0  0
  4  3  1  0  0  0  0
  4  5  2  0  0  0  0
  5  8  1  0  0  0  0
  5  2  1  0  0  0  0
  6  3  1  0  0  0  0
  7  4  1  0  0  0  0
M  END
