1
q = 0.0, confidence = 0.96

 12 12  0  0  0  0  0  0  0  0999 V2000
    1.4721   -0.0065   -0.0081 N   0  0  0  0  0  2  0  0  0  0  0  0
    6.8672    0.1406    0.1514 N   0  0  0  0  0  0  0  0  0  0  0  0
    2.1115    1.1829    0.0616 C   0  0  0  0  0  3  0  0  0  0  0  0
    1.4589    2.0675    0.0774 H   0  0  0  0  0  0  0  0  0  0  0  0
    3.5043    1.2623    0.1047 C   0  0  0  0  0  0  0  0  0  0  0  0
    3.9980    2.2416    0.1627 H   0  0  0  0  0  0  0  0  0  0  0  0
    4.2611    0.0689    0.0713 C   0  0  0  0  0  0  0  0  0  0  0  0
    3.5730   -1.1628   -0.0060 C   0  0  0  0  0  0  0  0  0  0  0  0
    4.1217   -2.1137   -0.0365 H   0  0  0  0  0  0  0  0  0  0  0  0
    2.1773   -1.1606   -0.0442 C   0  0  0  0  0  0  0  0  0  0  0  0
    1.5740   -2.0774   -0.1066 H   0  0  0  0  0  0  0  0  0  0  0  0
    5.6931    0.1079    0.1151 C   0  0  0  0  0  0  0  0  0  0  0  0
  1  3  1  0  0  0  0
  3  4  1  0  0  0  0
  3  5  1  0  0  0  0
  5  6  1  0  0  0  0
  7  5  2  0  0  0  0
  7 12  1  0  0  0  0
  8  7  1  0  0  0  0
  9  8  1  0  0  0  0
 10  1  1  0  0  0  0
 10  8  2  0  0  0  0
 11 10  1  0  0  0  0
 12  2  3  0  0  0  0
M  END
