1
q = 0.0, confidence = 0.998

 36 37  0  0  0  0  0  0  0  0999 V2000
    2.0633   -0.3890   -0.7065 N   0  0  0  0  0  0  0  0  0  0  0  0
    2.0729   -0.9841   -1.5516 H   0  0  0  0  0  0  0  0  0  0  0  0
    2.3915    0.9989   -1.1622 C   0  0  0  0  0  0  0  0  0  0  0  0
    3.4382    1.0074   -1.5407 H   0  0  0  0  0  0  0  0  0  0  0  0
    1.4717    1.3764   -2.3302 C   0  0  0  0  0  0  0  0  0  0  0  0
    1.6076    0.6569   -3.1668 H   0  0  0  0  0  0  0  0  0  0  0  0
    0.4128    1.2714   -1.9907 H   0  0  0  0  0  0  0  0  0  0  0  0
    1.7099    2.8141   -2.8077 C   0  0  0  0  0  0  0  0  0  0  0  0
    1.0043    3.0569   -3.6276 H   0  0  0  0  0  0  0  0  0  0  0  0
    2.7303    2.8919   -3.2437 H   0  0  0  0  0  0  0  0  0  0  0  0
    1.5721    3.8122   -1.6522 C   0  0  0  0  0  0  0  0  0  0  0  0
    1.7777    4.8427   -2.0056 H   0  0  0  0  0  0  0  0  0  0  0  0
    0.5194    3.8119   -1.2877 H   0  0  0  0  0  0  0  0  0  0  0  0
    2.5096    3.4479   -0.4956 C   0  0  0  0  0  0  0  0  0  0  0  0
    2.3766    4.1469    0.3552 H   0  0  0  0  0  0  0  0  0  0  0  0
    3.5654    3.5630   -0.8263 H   0  0  0  0  0  0  0  0  0  0  0  0
    2.2846    2.0081   -0.0144 C   0  0  0  0  0  0  0  0  0  0  0  0
    3.0016    1.7588    0.7944 H   0  0  0  0  0  0  0  0  0  0  0  0
    1.2639    1.9191    0.4284 H   0  0  0  0  0  0  0  0  0  0  0  0
    3.0136   -1.0236    0.2638 C   0  0  0  0  0  0  0  0  0  0  0  0
    3.0108   -0.3862    1.1738 H   0  0  0  0  0  0  0  0  0  0  0  0
    4.4505   -1.1134   -0.2729 C   0  0  0  0  0  0  0  0  0  0  0  0
    4.8483   -0.1036   -0.5007 H   0  0  0  0  0  0  0  0  0  0  0  0
    4.4348   -1.6768   -1.2346 H   0  0  0  0  0  0  0  0  0  0  0  0
    5.3793   -1.8228    0.7243 C   0  0  0  0  0  0  0  0  0  0  0  0
    6.3984   -1.8948    0.2938 H   0  0  0  0  0  0  0  0  0  0  0  0
    5.4737   -1.1970    1.6395 H   0  0  0  0  0  0  0  0  0  0  0  0
    4.8508   -3.2087    1.1075 C   0  0  0  0  0  0  0  0  0  0  0  0
    4.8683   -3.8713    0.2137 H   0  0  0  0  0  0  0  0  0  0  0  0
    5.5155   -3.6815    1.8586 H   0  0  0  0  0  0  0  0  0  0  0  0
    3.4184   -3.1204    1.6466 C   0  0  0  0  0  0  0  0  0  0  0  0
    3.4178   -2.5571    2.6062 H   0  0  0  0  0  0  0  0  0  0  0  0
    3.0200   -4.1291    1.8772 H   0  0  0  0  0  0  0  0  0  0  0  0
    2.4911   -2.4133    0.6501 C   0  0  0  0  0  0  0  0  0  0  0  0
    2.3987   -3.0303   -0.2736 H   0  0  0  0  0  0  0  0  0  0  0  0
    1.4627   -2.3188    1.0718 H   0  0  0  0  0  0  0  0  0  0  0  0
  1 20  1  0  0  0  0
  2  1  1  0  0  0  0
  3  1  1  0  0  0  0
  3 17  1  0  0  0  0
  4  3  1  0  0  0  0
  5  7  1  0  0  0  0
  5  3  1  0  0  0  0
  6  5  1  0  0  0  0
  8  5  1  0  0  0  0
  8 11  1  0  0  0  0
  9  8  1  0  0  0  0
 10  8  1  0  0  0  0
 11 13  1  0  0  0  0
 11 14  1  0  0  0  0
 12 11  1  0  0  0  0
 14 17  1  0  0  0  0
 14 15  1  0  0  0  0
 16 14  1  0  0  0  0
 17 19  1  0  0  0  0
 17 18  1  0  0  0  0
 20 34  1  0  0  0  0
 20 21  1  0  0  0  0
 22 20  1  0  0  0  0
 22 25  1  0  0  0  0
 23 22  1  0  0  0  0
 24 22  1  0  0  0  0
 25 28  1  0  0  0  0
 25 27  1  0  0  0  0
 26 25  1  0  0  0  0
 28 31  1  0  0  0  0
 28 30  1  0  0  0  0
 29 28  1  0  0  0  0
 31 33  1  0  0  0  0
 31 32  1  0  0  0  0
 34 36  1  0  0  0  0
 34 31  1  0  0  0  0
 35 34  1  0  0  0  0
M  END
