1
q = 0.0, confidence = 0.98

 17 17  0  0  0  0  0  0  0  0999 V2000
    2.1576    0.3447    0.0232 N   0  0  0  0  0  0  0  0  0  0  0  0
    2.8868   -0.1958   -1.1646 C   0  0  0  0  0  0  0  0  0  0  0  0
    4.3830   -0.0752   -1.0059 C   0  0  0  0  0  0  0  0  0  0  0  0
    5.0870    1.0162   -1.5516 C   0  0  0  0  0  0  0  0  0  0  0  0
    6.4689    1.1489   -1.3466 C   0  0  0  0  0  0  0  0  0  0  0  0
    7.1610    0.1912   -0.5888 C   0  0  0  0  0  0  0  0  0  0  0  0
    6.4683   -0.9004   -0.0395 C   0  0  0  0  0  0  0  0  0  0  0  0
    5.0880   -1.0330   -0.2473 C   0  0  0  0  0  0  0  0  0  0  0  0
    2.4020    1.3397    0.1520 H   0  0  0  0  0  0  0  0  0  0  0  0
    2.5019   -0.1467    0.8665 H   0  0  0  0  0  0  0  0  0  0  0  0
    2.5728   -1.2530   -1.2637 H   0  0  0  0  0  0  0  0  0  0  0  0
    2.5226    0.3523   -2.0548 H   0  0  0  0  0  0  0  0  0  0  0  0
    4.5453    1.7657   -2.1514 H   0  0  0  0  0  0  0  0  0  0  0  0
    7.0089    2.0025   -1.7836 H   0  0  0  0  0  0  0  0  0  0  0  0
    8.2451    0.2933   -0.4289 H   0  0  0  0  0  0  0  0  0  0  0  0
    7.0085   -1.6565    0.5500 H   0  0  0  0  0  0  0  0  0  0  0  0
    4.5433   -1.8919    0.1784 H   0  0  0  0  0  0  0  0  0  0  0  0
  1  9  1  0  0  0  0
  1 10  1  0  0  0  0
  2  3  1  0  0  0  0
  2  1  1  0  0  0  0
  3  8  1  0  0  0  0
  4  5  1  0  0  0  0
  4  3  2  0  0  0  0
  5  6  2  0  0  0  0
  6 15  1  0  0  0  0
  6  7  1  0  0  0  0
  7 16  1  0  0  0  0
  8  7  2  0  0  0  0
  8 17  1  0  0  0  0
 11  2  1  0  0  0  0
 12  2  1  0  0  0  0
 13  4  1  0  0  0  0
 14  5  1  0  0  0  0
M  END
