1
q = 0.0, confidence = 0.994

 22 24  0  0  1  0  0  0  0  0999 V2000
    0.3541    0.9898   -0.2133 N   0  0  0  0  0  2  0  0  0  0  0  0
    0.3997    2.2660   -0.6268 C   0  0  0  0  0  0  0  0  0  0  0  0
   -0.5698    2.7739   -0.7218 H   0  0  0  0  0  0  0  0  0  0  0  0
    1.6121    2.9164   -0.9099 C   0  0  0  0  0  0  0  0  0  0  0  0
    1.5959    3.9600   -1.2523 H   0  0  0  0  0  0  0  0  0  0  0  0
    2.8057    2.2232   -0.7479 C   0  0  0  0  0  0  0  0  0  0  0  0
    3.7593    2.7222   -0.9696 H   0  0  0  0  0  0  0  0  0  0  0  0
    2.7901    0.8853   -0.2872 C   0  0  0  0  0  0  0  0  0  0  0  0
    4.0000    0.1068   -0.0680 C   0  0  1  0  0  3  0  0  0  0  0  0
    5.3062    0.5977   -0.3165 C   0  0  0  0  0  0  0  0  0  0  0  0
    5.4593    1.6169   -0.6997 H   0  0  0  0  0  0  0  0  0  0  0  0
    6.4041   -0.2197   -0.0751 C   0  0  0  0  0  0  0  0  0  0  0  0
    7.4279    0.1365   -0.2613 H   0  0  0  0  0  0  0  0  0  0  0  0
    6.1812   -1.5287    0.4183 C   0  0  0  0  0  0  0  0  0  0  0  0
    7.0409   -2.1942    0.6177 H   0  0  0  0  0  0  0  0  0  0  0  0
    4.9757   -2.0267    0.6653 N   0  0  0  0  0  0  0  0  0  0  0  0
    3.8943   -1.2351    0.4298 C   0  0  0  0  0  0  0  0  0  0  0  0
    2.5940   -1.7840    0.7022 C   0  0  0  0  0  0  0  0  0  0  0  0
    2.5613   -2.8120    1.0899 H   0  0  0  0  0  0  0  0  0  0  0  0
    1.4490   -1.0606    0.4862 C   0  0  0  0  0  0  0  0  0  0  0  0
    0.4508   -1.4752    0.6860 H   0  0  0  0  0  0  0  0  0  0  0  0
    1.5172    0.2817   -0.0153 C   0  0  0  0  0  0  0  0  0  0  0  0
  1 22  1  0  0  0  0
  2  1  1  0  0  0  0
  3  2  1  0  0  0  0
  4  6  1  0  0  0  0
  4  2  2  0  0  0  0
  5  4  1  0  0  0  0
  6  8  2  0  0  0  0
  7  6  1  0  0  0  0
  8  9  1  0  0  0  0
  8 22  1  0  0  0  0
  9 10  1  1  0  0  0
  9 17  1  0  0  0  0
 10 12  2  0  0  0  0
 11 10  1  0  0  0  0
 12 14  1  0  0  0  0
 13 12  1  0  0  0  0
 14 15  1  0  0  0  0
 14 16  2  0  0  0  0
 17 16  1  0  0  0  0
 17 18  2  0  0  0  0
 18 19  1  0  0  0  0
 20 21  1  0  0  0  0
 20 18  1  0  0  0  0
 22 20  2  0  0  0  0
M  END
