1
q = -1.0, confidence = 0.002

 14 15  0  0  0  0  0  0  0  0999 V2000
   -2.8162   -0.9060   -0.0286 N   0  0  0  0  0  0  0  0  0  0  0  0
   -4.7748   -2.0889   -0.0206 N   0  0  0  0  0  0  0  0  0  0  0  0
   -3.8474    0.0244   -0.0104 C   0  0  0  0  0  3  0  0  0  0  0  0
   -3.8500    1.4308    0.0008 C   0  0  0  0  0  0  0  0  0  0  0  0
   -5.0952    2.0725    0.0190 C   0  0  0  0  0  0  0  0  0  0  0  0
   -6.3058    1.3343    0.0251 C   0  0  0  0  0  0  0  0  0  0  0  0
   -6.3053   -0.0657    0.0126 C   0  0  0  0  0  0  0  0  0  0  0  0
   -5.0636   -0.7333   -0.0054 C   0  0  0  0  0  0  0  0  0  0  0  0
   -3.4515   -2.1343   -0.0333 C   0  0  0  0  0  0  0  0  0  0  0  0
   -2.9095    2.0050   -0.0075 H   0  0  0  0  0  0  0  0  0  0  0  0
   -5.1362    3.1729    0.0274 H   0  0  0  0  0  0  0  0  0  0  0  0
   -7.2634    1.8774    0.0392 H   0  0  0  0  0  0  0  0  0  0  0  0
   -7.2408   -0.6448    0.0165 H   0  0  0  0  0  0  0  0  0  0  0  0
   -2.8683   -3.0672   -0.0477 H   0  0  0  0  0  0  0  0  0  0  0  0
  1  3  1  0  0  0  0
  2  8  2  0  0  0  0
  3  8  1  0  0  0  0
  3  4  1  0  0  0  0
  4  5  2  0  0  0  0
  5  6  1  0  0  0  0
  5 11  1  0  0  0  0
  6 12  1  0  0  0  0
  7 13  1  0  0  0  0
  7  6  2  0  0  0  0
  8  7  1  0  0  0  0
  9  1  2  0  0  0  0
  9  2  1  0  0  0  0
 10  4  1  0  0  0  0
 14  9  1  0  0  0  0
M  END
