2
q = -1.0, confidence = 0.018

 11 11  0  0  0  0  0  0  0  0999 V2000
    1.5761   -0.3426    0.6050 N   0  0  0  0  0  0  0  0  0  0  0  0
    0.6303   -0.4864   -0.3241 N   0  0  0  0  0  0  0  0  0  0  0  0
    1.1725   -0.5631   -1.5522 N   0  0  0  0  0  0  0  0  0  0  0  0
    2.4860   -0.4847   -1.4368 N   0  0  0  0  0  0  0  0  0  0  0  0
    7.5622    0.0075    0.8161 N   0  0  0  0  0  0  0  0  0  0  0  0
    2.7316   -0.3512   -0.1048 C   0  0  0  0  0  3  0  0  0  0  0  0
    4.0447   -0.2291    0.4941 C   0  0  0  0  0  0  0  0  0  0  0  0
    4.0721   -0.1265    1.5896 H   0  0  0  0  0  0  0  0  0  0  0  0
    5.1972   -0.2374   -0.2314 C   0  0  0  0  0  0  0  0  0  0  0  0
    5.1427   -0.3497   -1.3276 H   0  0  0  0  0  0  0  0  0  0  0  0
    6.4865   -0.1056    0.3538 C   0  0  0  0  0  0  0  0  0  0  0  0
  2  1  2  0  0  0  0
  3  4  2  0  0  0  0
  3  2  1  0  0  0  0
  4  6  1  0  0  0  0
  6  7  1  0  0  0  0
  6  1  1  0  0  0  0
  7  8  1  0  0  0  0
  9 11  1  0  0  0  0
  9  7  2  0  0  0  0
 10  9  1  0  0  0  0
 11  5  3  0  0  0  0
M  END
