1
q = 0.0, confidence = 0.972

 12 11  0  0  0  0  0  0  0  0999 V2000
   -0.4142    1.4617    1.3336 N   0  0  0  0  0  0  0  0  0  0  0  0
   -0.7911    1.5878    2.2812 H   0  0  0  0  0  0  0  0  0  0  0  0
    0.5222    1.0019    1.4223 H   0  0  0  0  0  0  0  0  0  0  0  0
   -0.9441    1.5628   -1.4519 N   0  0  0  0  0  0  0  0  0  0  0  0
   -0.4585    1.0202   -2.1898 H   0  0  0  0  0  0  0  0  0  0  0  0
   -1.7471    2.0406   -1.8809 H   0  0  0  0  0  0  0  0  0  0  0  0
   -0.3099    2.7554    0.6289 C   0  0  0  0  0  0  0  0  0  0  0  0
    0.4664    3.4190    1.0715 H   0  0  0  0  0  0  0  0  0  0  0  0
   -1.2820    3.2836    0.7270 H   0  0  0  0  0  0  0  0  0  0  0  0
    0.0105    2.5229   -0.8460 C   0  0  0  0  0  0  0  0  0  0  0  0
    0.0225    3.4941   -1.3850 H   0  0  0  0  0  0  0  0  0  0  0  0
    1.0263    2.0913   -0.9462 H   0  0  0  0  0  0  0  0  0  0  0  0
  1  3  1  0  0  0  0
  1  2  1  0  0  0  0
  4 10  1  0  0  0  0
  5  4  1  0  0  0  0
  6  4  1  0  0  0  0
  7  9  1  0  0  0  0
  7  8  1  0  0  0  0
  7  1  1  0  0  0  0
 10  7  1  0  0  0  0
 11 10  1  0  0  0  0
 12 10  1  0  0  0  0
M  END
