5
q = 0.0, confidence = 0.978

 17 17  0  0  0  0  0  0  0  0999 V2000
   -3.1347    2.4776    0.1165 S   0  0  0  0  0  0  0  0  0  0  0  0
   -4.2318   -2.7819    3.3364 Cl  0  0  0  0  0  0  0  0  0  0  0  0
   -4.2952    2.8956   -0.6890 O   0  0  0  0  0  0  0  0  0  0  0  0
   -2.3339    3.4484    0.8869 O   0  0  0  0  0  0  0  0  0  0  0  0
   -1.9943    1.6933   -1.0340 N   0  0  0  0  0  0  0  0  0  0  0  0
   -3.5443    1.0668    1.1160 C   0  0  0  0  0  0  0  0  0  0  0  0
   -2.9940   -0.3965    2.9493 C   0  0  0  0  0  0  0  0  0  0  0  0
   -2.4022   -0.6505    3.8392 H   0  0  0  0  0  0  0  0  0  0  0  0
   -4.5466    0.1959    0.6633 C   0  0  0  0  0  0  0  0  0  0  0  0
   -5.1203    0.4335   -0.2428 H   0  0  0  0  0  0  0  0  0  0  0  0
   -2.7635    0.7910    2.2494 C   0  0  0  0  0  0  0  0  0  0  0  0
   -1.9848    1.4991    2.5671 H   0  0  0  0  0  0  0  0  0  0  0  0
   -4.7623   -0.9992    1.3566 C   0  0  0  0  0  0  0  0  0  0  0  0
   -5.5074   -1.7244    1.0050 H   0  0  0  0  0  0  0  0  0  0  0  0
   -3.9822   -1.2870    2.4899 C   0  0  0  0  0  0  0  0  0  0  0  0
   -1.6711    2.4525   -1.6577 H   0  0  0  0  0  0  0  0  0  0  0  0
   -2.5718    0.9933   -1.6033 H   0  0  0  0  0  0  0  0  0  0  0  0
  1  4  2  0  0  0  0
  1  6  1  0  0  0  0
  3  1  2  0  0  0  0
  5  1  1  0  0  0  0
  6 11  1  0  0  0  0
  7  8  1  0  0  0  0
  9  6  2  0  0  0  0
  9 13  1  0  0  0  0
 10  9  1  0  0  0  0
 11 12  1  0  0  0  0
 11  7  2  0  0  0  0
 13 15  2  0  0  0  0
 14 13  1  0  0  0  0
 15  7  1  0  0  0  0
 15  2  1  0  0  0  0
 16  5  1  0  0  0  0
 17  5  1  0  0  0  0
M  END
