4
q = 0.0, confidence = 0.996

 33 33  0  0  1  0  0  0  0  0999 V2000
    1.7148    0.7646    1.4768 P   0  0  0  0  0  0  0  0  0  0  0  0
    1.0011    2.2669    0.9326 N   0  0  0  0  0  0  0  0  0  0  0  0
    0.9671    3.0992    1.5265 H   0  0  0  0  0  0  0  0  0  0  0  0
    1.0351    1.3752   -1.2260 N   0  0  0  0  0  2  0  0  0  0  0  0
    3.4751    1.2985    1.8731 C   0  0  0  0  0  0  0  0  0  0  0  0
    3.9930    0.3501    2.1288 H   0  0  0  0  0  0  0  0  0  0  0  0
    4.1085    1.8810    0.6026 C   0  0  0  0  0  0  0  0  0  0  0  0
    3.6970    2.8864    0.3794 H   0  0  0  0  0  0  0  0  0  0  0  0
    3.9237    1.2425   -0.2829 H   0  0  0  0  0  0  0  0  0  0  0  0
    5.2034    1.9928    0.7343 H   0  0  0  0  0  0  0  0  0  0  0  0
    3.5923    2.2677    3.0546 C   0  0  0  0  0  0  0  0  0  0  0  0
    4.6492    2.5816    3.1763 H   0  0  0  0  0  0  0  0  0  0  0  0
    3.2703    1.8248    4.0163 H   0  0  0  0  0  0  0  0  0  0  0  0
    3.0053    3.1952    2.8845 H   0  0  0  0  0  0  0  0  0  0  0  0
    0.9164    0.5208    3.1450 C   0  0  0  0  0  0  0  0  0  0  0  0
    1.1156    1.4738    3.6844 H   0  0  0  0  0  0  0  0  0  0  0  0
   -0.5945    0.3096    3.0561 C   0  0  0  0  0  0  0  0  0  0  0  0
   -0.8364   -0.6422    2.5445 H   0  0  0  0  0  0  0  0  0  0  0  0
   -1.1019    1.1255    2.5075 H   0  0  0  0  0  0  0  0  0  0  0  0
   -1.0220    0.2693    4.0786 H   0  0  0  0  0  0  0  0  0  0  0  0
    1.6097   -0.6274    3.8893 C   0  0  0  0  0  0  0  0  0  0  0  0
    1.1870   -0.7215    4.9096 H   0  0  0  0  0  0  0  0  0  0  0  0
    2.7030   -0.4819    3.9972 H   0  0  0  0  0  0  0  0  0  0  0  0
    1.4382   -1.5888    3.3680 H   0  0  0  0  0  0  0  0  0  0  0  0
    0.8418    2.4634   -0.4208 C   0  0  1  0  0  3  0  0  0  0  0  0
    0.4867    3.7226   -0.9565 C   0  0  0  0  0  0  0  0  0  0  0  0
    0.3430    4.5752   -0.2772 H   0  0  0  0  0  0  0  0  0  0  0  0
    0.3253    3.8613   -2.3327 C   0  0  0  0  0  0  0  0  0  0  0  0
    0.0482    4.8358   -2.7606 H   0  0  0  0  0  0  0  0  0  0  0  0
    0.5166    2.7391   -3.1584 C   0  0  0  0  0  0  0  0  0  0  0  0
    0.3920    2.7939   -4.2479 H   0  0  0  0  0  0  0  0  0  0  0  0
    0.8576    1.5277   -2.5628 C   0  0  0  0  0  0  0  0  0  0  0  0
    0.9830    0.6184   -3.1616 H   0  0  0  0  0  0  0  0  0  0  0  0
  1  5  1  0  0  0  0
  1 15  1  0  0  0  0
  2  1  1  0  0  0  0
  2  3  1  0  0  0  0
  4 25  1  0  0  0  0
  5  6  1  0  0  0  0
  5 11  1  0  0  0  0
  7 10  1  0  0  0  0
  7  5  1  0  0  0  0
  8  7  1  0  0  0  0
  9  7  1  0  0  0  0
 11 12  1  0  0  0  0
 11 13  1  0  0  0  0
 14 11  1  0  0  0  0
 15 16  1  0  0  0  0
 15 21  1  0  0  0  0
 17 15  1  0  0  0  0
 17 20  1  0  0  0  0
 18 17  1  0  0  0  0
 19 17  1  0  0  0  0
 21 23  1  0  0  0  0
 21 22  1  0  0  0  0
 24 21  1  0  0  0  0
 25  2  1  1  0  0  0
 26 25  1  0  0  0  0
 26 27  1  0  0  0  0
 28 26  2  0  0  0  0
 29 28  1  0  0  0  0
 30 32  2  0  0  0  0
 30 28  1  0  0  0  0
 31 30  1  0  0  0  0
 32  4  1  0  0  0  0
 33 32  1  0  0  0  0
M  END
