6
q = 0.0, confidence = 1.0

 31 32  0  0  0  0  0  0  0  0999 V2000
    2.8333   -0.8355   -1.8730 O   0  0  0  0  0  0  0  0  0  0  0  0
    3.9704   -1.9120   -0.2105 O   0  0  0  0  0  0  0  0  0  0  0  0
    1.8077   -0.4150    1.0556 O   0  0  0  0  0  0  0  0  0  0  0  0
    1.9571    1.5940   -0.0769 N   0  0  0  0  0  0  0  0  0  0  0  0
    2.6373    2.1862   -0.5581 H   0  0  0  0  0  0  0  0  0  0  0  0
   -1.7133    1.1783   -0.3293 N   0  0  0  0  0  2  0  0  0  0  0  0
    4.6535   -0.7758    0.1742 C   0  0  0  0  0  0  0  0  0  0  0  0
    6.0511   -0.8582    0.2351 C   0  0  0  0  0  0  0  0  0  0  0  0
    6.5311   -1.8026   -0.0582 H   0  0  0  0  0  0  0  0  0  0  0  0
    6.8027    0.2466    0.6595 C   0  0  0  0  0  0  0  0  0  0  0  0
    7.8989    0.1696    0.7135 H   0  0  0  0  0  0  0  0  0  0  0  0
    6.1605    1.4447    1.0075 C   0  0  0  0  0  0  0  0  0  0  0  0
    6.7460    2.3126    1.3442 H   0  0  0  0  0  0  0  0  0  0  0  0
    4.7627    1.5267    0.9369 C   0  0  0  0  0  0  0  0  0  0  0  0
    4.2527    2.4550    1.2393 H   0  0  0  0  0  0  0  0  0  0  0  0
    3.9887    0.4226    0.5286 C   0  0  0  0  0  0  0  0  0  0  0  0
    2.4878    0.4687    0.5427 C   0  0  0  0  0  0  0  0  0  0  0  0
    0.6180    1.8349   -0.3932 C   0  0  0  0  0  0  0  0  0  0  0  0
    0.2846    2.9552   -1.1837 C   0  0  0  0  0  0  0  0  0  0  0  0
    1.0691    3.6453   -1.5314 H   0  0  0  0  0  0  0  0  0  0  0  0
   -1.0540    3.1631   -1.5213 C   0  0  0  0  0  0  0  0  0  0  0  0
   -1.3530    4.0249   -2.1344 H   0  0  0  0  0  0  0  0  0  0  0  0
   -2.0254    2.2552   -1.0858 C   0  0  0  0  0  3  0  0  0  0  0  0
   -3.0838    2.3827   -1.3515 H   0  0  0  0  0  0  0  0  0  0  0  0
   -0.4262    0.9813    0.0279 C   0  0  0  0  0  0  0  0  0  0  0  0
   -0.1899    0.1135    0.6518 H   0  0  0  0  0  0  0  0  0  0  0  0
    2.9997   -1.8290   -1.1998 C   0  0  0  0  0  0  0  0  0  0  0  0
    2.2082   -3.0998   -1.2660 C   0  0  0  0  0  0  0  0  0  0  0  0
    1.3183   -2.9692   -0.6141 H   0  0  0  0  0  0  0  0  0  0  0  0
    2.7854   -3.9672   -0.8994 H   0  0  0  0  0  0  0  0  0  0  0  0
    1.8496   -3.2604   -2.2983 H   0  0  0  0  0  0  0  0  0  0  0  0
  1 27  2  0  0  0  0
  2  7  1  0  0  0  0
  4 17  1  0  0  0  0
  5  4  1  0  0  0  0
  6 25  1  0  0  0  0
  7  8  2  0  0  0  0
  7 16  1  0  0  0  0
  8 10  1  0  0  0  0
  9  8  1  0  0  0  0
 10 11  1  0  0  0  0
 10 12  2  0  0  0  0
 12 13  1  0  0  0  0
 14 12  1  0  0  0  0
 14 15  1  0  0  0  0
 16 17  1  0  0  0  0
 16 14  2  0  0  0  0
 17  3  2  0  0  0  0
 18  4  1  0  0  0  0
 18 25  2  0  0  0  0
 19 18  1  0  0  0  0
 20 19  1  0  0  0  0
 21 19  2  0  0  0  0
 21 23  1  0  0  0  0
 22 21  1  0  0  0  0
 23  6  1  0  0  0  0
 24 23  1  0  0  0  0
 25 26  1  0  0  0  0
 27  2  1  0  0  0  0
 28 27  1  0  0  0  0
 28 30  1  0  0  0  0
 28 29  1  0  0  0  0
 31 28  1  0  0  0  0
M  END
