1
q = 0.0, confidence = 0.998

 20 20  0  0  1  0  0  0  0  0999 V2000
    4.4009   -0.4830    0.2372 N   0  0  0  0  0  2  0  0  0  0  0  0
    4.7835   -1.4939    1.0623 C   0  0  2  0  0  3  0  0  0  0  0  0
    6.1362   -1.6563    1.3942 C   0  0  0  0  0  0  0  0  0  0  0  0
    7.1145   -0.7885    0.8809 C   0  0  0  0  0  0  0  0  0  0  0  0
    6.6736    0.2360    0.0268 C   0  0  0  0  0  0  0  0  0  0  0  0
    5.3137    0.3804   -0.2832 C   0  0  0  0  0  0  0  0  0  0  0  0
    3.7249   -2.4192    1.5825 C   0  0  0  0  0  0  0  0  0  0  0  0
    8.5646   -0.9316    1.2525 C   0  0  0  0  0  0  0  0  0  0  0  0
    4.8179    1.4779   -1.1758 C   0  0  0  0  0  0  0  0  0  0  0  0
    6.4198   -2.4819    2.0631 H   0  0  0  0  0  0  0  0  0  0  0  0
    7.3925    0.9432   -0.4120 H   0  0  0  0  0  0  0  0  0  0  0  0
    2.9262   -1.8413    2.0914 H   0  0  0  0  0  0  0  0  0  0  0  0
    4.1508   -3.1560    2.2881 H   0  0  0  0  0  0  0  0  0  0  0  0
    3.2472   -2.9496    0.7322 H   0  0  0  0  0  0  0  0  0  0  0  0
    8.7896   -0.3321    2.1606 H   0  0  0  0  0  0  0  0  0  0  0  0
    9.2306   -0.5672    0.4466 H   0  0  0  0  0  0  0  0  0  0  0  0
    8.8261   -1.9829    1.4810 H   0  0  0  0  0  0  0  0  0  0  0  0
    4.2278    1.0544   -2.0144 H   0  0  0  0  0  0  0  0  0  0  0  0
    5.6573    2.0722   -1.5812 H   0  0  0  0  0  0  0  0  0  0  0  0
    4.1347    2.1392   -0.6029 H   0  0  0  0  0  0  0  0  0  0  0  0
  1  2  1  0  0  0  0
  2  3  1  0  0  0  0
  2  7  1  6  0  0  0
  3 10  1  0  0  0  0
  4  8  1  0  0  0  0
  4  3  2  0  0  0  0
  5  4  1  0  0  0  0
  6  5  2  0  0  0  0
  6  1  1  0  0  0  0
  7 12  1  0  0  0  0
  7 13  1  0  0  0  0
  8 17  1  0  0  0  0
  8 15  1  0  0  0  0
  9 20  1  0  0  0  0
  9  6  1  0  0  0  0
 11  5  1  0  0  0  0
 14  7  1  0  0  0  0
 16  8  1  0  0  0  0
 18  9  1  0  0  0  0
 19  9  1  0  0  0  0
M  END
