2
q = 0.0, confidence = 0.994

 24 24  0  0  0  0  0  0  0  0999 V2000
    0.6115    1.6962    0.7820 S   0  0  0  0  0  0  0  0  0  0  0  0
   -2.1256    1.8911   -0.5425 N   0  0  0  0  0  0  0  0  0  0  0  0
   -1.3055    3.1255   -0.6378 C   0  0  0  0  0  0  0  0  0  0  0  0
   -1.9522    4.0269   -0.7101 H   0  0  0  0  0  0  0  0  0  0  0  0
   -0.7225    3.0426   -1.5756 H   0  0  0  0  0  0  0  0  0  0  0  0
   -0.3762    3.2363    0.5583 C   0  0  0  0  0  0  0  0  0  0  0  0
   -0.9315    3.3637    1.5109 H   0  0  0  0  0  0  0  0  0  0  0  0
    0.3206    4.0920    0.4606 H   0  0  0  0  0  0  0  0  0  0  0  0
    2.0240    1.9452   -0.3983 C   0  0  0  0  0  0  0  0  0  0  0  0
    1.6035    1.9986   -1.4206 H   0  0  0  0  0  0  0  0  0  0  0  0
    2.4817    2.9114   -0.1045 H   0  0  0  0  0  0  0  0  0  0  0  0
    2.9737    0.7900   -0.2365 C   0  0  0  0  0  0  0  0  0  0  0  0
    3.8299    0.7212    0.8832 C   0  0  0  0  0  0  0  0  0  0  0  0
    3.8220    1.5333    1.6277 H   0  0  0  0  0  0  0  0  0  0  0  0
    4.6947   -0.3690    1.0506 C   0  0  0  0  0  0  0  0  0  0  0  0
    5.3648   -0.4084    1.9223 H   0  0  0  0  0  0  0  0  0  0  0  0
    4.7147   -1.4029    0.0989 C   0  0  0  0  0  0  0  0  0  0  0  0
    5.4011   -2.2537    0.2246 H   0  0  0  0  0  0  0  0  0  0  0  0
    3.8672   -1.3396   -1.0192 C   0  0  0  0  0  0  0  0  0  0  0  0
    3.8920   -2.1395   -1.7750 H   0  0  0  0  0  0  0  0  0  0  0  0
    2.9941   -0.2528   -1.1850 C   0  0  0  0  0  0  0  0  0  0  0  0
    2.3151   -0.2052   -2.0498 H   0  0  0  0  0  0  0  0  0  0  0  0
   -2.5457    1.6920   -1.4627 H   0  0  0  0  0  0  0  0  0  0  0  0
   -2.8933    2.0040    0.1356 H   0  0  0  0  0  0  0  0  0  0  0  0
  2 24  1  0  0  0  0
  3  2  1  0  0  0  0
  3  6  1  0  0  0  0
  4  3  1  0  0  0  0
  5  3  1  0  0  0  0
  6  1  1  0  0  0  0
  6  7  1  0  0  0  0
  8  6  1  0  0  0  0
  9 12  1  0  0  0  0
  9 11  1  0  0  0  0
  9  1  1  0  0  0  0
 10  9  1  0  0  0  0
 12 13  1  0  0  0  0
 13 15  2  0  0  0  0
 13 14  1  0  0  0  0
 15 16  1  0  0  0  0
 17 18  1  0  0  0  0
 17 15  1  0  0  0  0
 19 17  2  0  0  0  0
 20 19  1  0  0  0  0
 21 19  1  0  0  0  0
 21 12  2  0  0  0  0
 22 21  1  0  0  0  0
 23  2  1  0  0  0  0
M  END
