1
q = 0.0, confidence = 0.992

 29 30  0  0  0  0  0  0  0  0999 V2000
   -0.3965    2.0655   -1.6561 N   0  0  0  0  0  0  0  0  0  0  0  0
   -0.3046    2.1576   -2.6715 H   0  0  0  0  0  0  0  0  0  0  0  0
    0.4257    2.4445   -1.1628 H   0  0  0  0  0  0  0  0  0  0  0  0
   -1.6769    2.3595   -1.1402 C   0  0  0  0  0  0  0  0  0  0  0  0
   -1.8631    2.5188    0.2516 C   0  0  0  0  0  0  0  0  0  0  0  0
   -0.9872    2.5358    0.9169 H   0  0  0  0  0  0  0  0  0  0  0  0
   -3.1554    2.5754    0.7831 C   0  0  0  0  0  0  0  0  0  0  0  0
   -3.2849    2.6572    1.8742 H   0  0  0  0  0  0  0  0  0  0  0  0
   -4.2975    2.4792   -0.0398 C   0  0  0  0  0  0  0  0  0  0  0  0
   -5.6722    2.3379    0.5777 C   0  0  0  0  0  0  0  0  0  0  0  0
   -5.8608    3.1549    1.3055 H   0  0  0  0  0  0  0  0  0  0  0  0
   -6.4423    2.4422   -0.2175 H   0  0  0  0  0  0  0  0  0  0  0  0
   -5.8180    0.9986    1.2850 C   0  0  0  0  0  0  0  0  0  0  0  0
   -6.3146    0.9007    2.5978 C   0  0  0  0  0  0  0  0  0  0  0  0
   -6.6291    1.8149    3.1273 H   0  0  0  0  0  0  0  0  0  0  0  0
   -6.4185   -0.3338    3.2532 C   0  0  0  0  0  0  0  0  0  0  0  0
   -6.8073   -0.3760    4.2834 H   0  0  0  0  0  0  0  0  0  0  0  0
   -6.0140   -1.5289    2.6132 C   0  0  0  0  0  0  0  0  0  0  0  0
   -6.0513   -2.7496    3.2770 N   0  0  0  0  0  0  0  0  0  0  0  0
   -6.6999   -2.8157    4.0621 H   0  0  0  0  0  0  0  0  0  0  0  0
   -6.0610   -3.5801    2.6840 H   0  0  0  0  0  0  0  0  0  0  0  0
   -5.5115   -1.4327    1.2922 C   0  0  0  0  0  0  0  0  0  0  0  0
   -5.1737   -2.3373    0.7619 H   0  0  0  0  0  0  0  0  0  0  0  0
   -5.4218   -0.1967    0.6476 C   0  0  0  0  0  0  0  0  0  0  0  0
   -5.0073   -0.1778   -0.3725 H   0  0  0  0  0  0  0  0  0  0  0  0
   -4.0957    2.3784   -1.4278 C   0  0  0  0  0  0  0  0  0  0  0  0
   -4.9690    2.3090   -2.0958 H   0  0  0  0  0  0  0  0  0  0  0  0
   -2.8075    2.3243   -1.9780 C   0  0  0  0  0  0  0  0  0  0  0  0
   -2.6734    2.1953   -3.0629 H   0  0  0  0  0  0  0  0  0  0  0  0
  1  3  1  0  0  0  0
  1  4  1  0  0  0  0
  2  1  1  0  0  0  0
  4  5  1  0  0  0  0
  5  7  2  0  0  0  0
  5  6  1  0  0  0  0
  7  8  1  0  0  0  0
  9 10  1  0  0  0  0
  9  7  1  0  0  0  0
 10 13  1  0  0  0  0
 10 11  1  0  0  0  0
 12 10  1  0  0  0  0
 13 14  1  0  0  0  0
 14 15  1  0  0  0  0
 14 16  2  0  0  0  0
 16 17  1  0  0  0  0
 18 16  1  0  0  0  0
 18 19  1  0  0  0  0
 19 20  1  0  0  0  0
 21 19  1  0  0  0  0
 22 18  2  0  0  0  0
 23 22  1  0  0  0  0
 24 13  2  0  0  0  0
 24 22  1  0  0  0  0
 25 24  1  0  0  0  0
 26  9  2  0  0  0  0
 27 26  1  0  0  0  0
 28 26  1  0  0  0  0
 28  4  2  0  0  0  0
 29 28  1  0  0  0  0
M  END
