2
q = -1.0, confidence = 0.0

 16 17  0  0  0  0  0  0  0  0999 V2000
    9.3417    0.6145    0.8365 O   0  5  0  0  0  0  0  0  0  0  0  0
    1.9112   -0.5143   -0.3587 N   0  0  0  0  0  2  0  0  0  0  0  0
    2.3179   -1.4990   -1.1538 N   0  0  0  0  0  2  0  0  0  0  0  0
    3.6364   -1.5443   -1.1421 N   0  0  0  0  0  0  0  0  0  0  0  0
    2.9494    0.1107    0.1953 N   0  0  0  0  0  2  0  0  0  0  0  0
    8.1349    0.3535    0.5812 N   0  3  0  0  0  0  0  0  0  0  0  0
    4.0244   -0.5442   -0.3034 C   0  0  0  0  0  0  0  0  0  0  0  0
    5.4149   -0.2318    0.0038 C   0  0  0  0  0  0  0  0  0  0  0  0
    5.7741    0.8116    0.8849 C   0  0  0  0  0  0  0  0  0  0  0  0
    4.9975    1.4209    1.3687 H   0  0  0  0  0  0  0  0  0  0  0  0
    7.1044    1.0859    1.1575 C   0  0  0  0  0  0  0  0  0  0  0  0
    7.4595    1.8772    1.8296 H   0  0  0  0  0  0  0  0  0  0  0  0
    7.7898   -0.6765   -0.2859 C   0  0  0  0  0  0  0  0  0  0  0  0
    8.6591   -1.2058   -0.6960 H   0  0  0  0  0  0  0  0  0  0  0  0
    6.4689   -0.9729   -0.5763 C   0  0  0  0  0  0  0  0  0  0  0  0
    6.2378   -1.7962   -1.2670 H   0  0  0  0  0  0  0  0  0  0  0  0
  2  5  1  0  0  0  0
  3  4  1  0  0  0  0
  3  2  1  0  0  0  0
  4  7  2  0  0  0  0
  6  1  1  0  0  0  0
  6 11  1  0  0  0  0
  7  8  1  0  0  0  0
  7  5  1  0  0  0  0
  8  9  1  0  0  0  0
  9 11  2  0  0  0  0
  9 10  1  0  0  0  0
 11 12  1  0  0  0  0
 13  6  2  0  0  0  0
 14 13  1  0  0  0  0
 15 13  1  0  0  0  0
 15  8  2  0  0  0  0
 16 15  1  0  0  0  0
M  CHG  2   1  -1   6   1
M  END
