2
q = 0.0, confidence = 1.0

 18 19  0  0  0  0  0  0  0  0999 V2000
   -1.7022   -1.9556    0.4399 O   0  0  0  0  0  0  0  0  0  0  0  0
   -1.3900    0.8828    0.1351 N   0  0  0  0  0  2  0  0  0  0  0  0
   -2.4963    0.2285   -0.3441 C   0  0  0  0  0  0  0  0  0  0  0  0
   -2.6283   -1.2003   -0.1893 C   0  0  0  0  0  0  0  0  0  0  0  0
   -3.7241   -1.8376   -0.7763 C   0  0  0  0  0  0  0  0  0  0  0  0
   -3.7925   -2.9285   -0.6583 H   0  0  0  0  0  0  0  0  0  0  0  0
   -4.7167   -1.1183   -1.4811 C   0  0  0  0  0  0  0  0  0  0  0  0
   -5.5663   -1.6642   -1.9179 H   0  0  0  0  0  0  0  0  0  0  0  0
   -4.6347    0.2605   -1.6087 C   0  0  0  0  0  3  0  0  0  0  0  0
   -5.4088    0.8318   -2.1419 H   0  0  0  0  0  0  0  0  0  0  0  0
   -3.5257    0.9543   -1.0511 C   0  0  0  0  0  0  0  0  0  0  0  0
   -3.3696    2.3632   -1.1788 C   0  0  0  0  0  0  0  0  0  0  0  0
   -4.1505    2.9386   -1.7003 H   0  0  0  0  0  0  0  0  0  0  0  0
   -2.2460    2.9899   -0.6668 C   0  0  0  0  0  0  0  0  0  0  0  0
   -2.0966    4.0747   -0.7600 H   0  0  0  0  0  0  0  0  0  0  0  0
   -1.2627    2.2022   -0.0251 C   0  0  0  0  0  0  0  0  0  0  0  0
   -0.3255    2.6399    0.3614 H   0  0  0  0  0  0  0  0  0  0  0  0
   -1.4746   -1.6101    1.3673 H   0  0  0  0  0  0  0  0  0  0  0  0
  1 18  1  0  0  0  0
  3  4  2  0  0  0  0
  3  2  1  0  0  0  0
  4  1  1  0  0  0  0
  5  6  1  0  0  0  0
  5  4  1  0  0  0  0
  7  5  2  0  0  0  0
  8  7  1  0  0  0  0
  9  7  1  0  0  0  0
  9 11  1  0  0  0  0
 10  9  1  0  0  0  0
 11  3  1  0  0  0  0
 12 11  2  0  0  0  0
 12 14  1  0  0  0  0
 13 12  1  0  0  0  0
 14 16  2  0  0  0  0
 15 14  1  0  0  0  0
 16  2  1  0  0  0  0
 16 17  1  0  0  0  0
M  END
