7
q = 0.0, confidence = 1.0

 28 28  0  0  0  0  0  0  0  0999 V2000
   -3.0662   -0.4512   -0.2569 S   0  0  0  0  0  0  0  0  0  0  0  0
    6.0187   -0.4067   -0.2358 O   0  0  0  0  0  0  0  0  0  0  0  0
   -3.7331   -2.9927   -0.7324 N   0  0  0  0  0  0  0  0  0  0  0  0
   -3.5024   -3.9826   -0.8341 H   0  0  0  0  0  0  0  0  0  0  0  0
   -1.4856   -2.5905   -0.3088 N   0  0  0  0  0  0  0  0  0  0  0  0
   -1.2729   -3.5689   -0.5363 H   0  0  0  0  0  0  0  0  0  0  0  0
   -0.3951   -1.7586   -0.1331 N   0  0  0  0  0  2  0  0  0  0  0  0
   -5.1218   -2.5941   -0.9122 C   0  0  0  0  0  0  0  0  0  0  0  0
   -5.2102   -1.8366   -1.7182 H   0  0  0  0  0  0  0  0  0  0  0  0
   -5.5359   -2.1599    0.0215 H   0  0  0  0  0  0  0  0  0  0  0  0
   -5.7134   -3.4844   -1.1885 H   0  0  0  0  0  0  0  0  0  0  0  0
   -2.7528   -2.1132   -0.4470 C   0  0  0  0  0  0  0  0  0  0  0  0
    0.7628   -2.3861   -0.1306 C   0  0  0  0  0  3  0  0  0  0  0  0
    0.7200   -3.4957   -0.0969 H   0  0  0  0  0  0  0  0  0  0  0  0
    2.0886   -1.8095   -0.1826 C   0  0  0  0  0  0  0  0  0  0  0  0
    2.3951   -0.6377   -0.9197 C   0  0  0  0  0  0  0  0  0  0  0  0
    1.5957   -0.1398   -1.4935 H   0  0  0  0  0  0  0  0  0  0  0  0
    3.6990   -0.1425   -0.9634 C   0  0  0  0  0  0  0  0  0  0  0  0
    3.9112    0.7481   -1.5698 H   0  0  0  0  0  0  0  0  0  0  0  0
    4.7375   -0.8073   -0.2635 C   0  0  0  0  0  0  0  0  0  0  0  0
    4.4454   -1.9986    0.4495 C   0  0  0  0  0  0  0  0  0  0  0  0
    5.2693   -2.5124    0.9643 H   0  0  0  0  0  0  0  0  0  0  0  0
    3.1502   -2.4994    0.4681 C   0  0  0  0  0  0  0  0  0  0  0  0
    2.9423   -3.4327    1.0146 H   0  0  0  0  0  0  0  0  0  0  0  0
    6.4040    0.7621   -0.9543 C   0  0  0  0  0  0  0  0  0  0  0  0
    5.8690    1.6617   -0.5812 H   0  0  0  0  0  0  0  0  0  0  0  0
    6.2180    0.6472   -2.0435 H   0  0  0  0  0  0  0  0  0  0  0  0
    7.4876    0.8850   -0.7809 H   0  0  0  0  0  0  0  0  0  0  0  0
  3 12  1  0  0  0  0
  4  3  1  0  0  0  0
  5  7  1  0  0  0  0
  6  5  1  0  0  0  0
  7 13  1  0  0  0  0
  8  3  1  0  0  0  0
  8 10  1  0  0  0  0
  9  8  1  0  0  0  0
 11  8  1  0  0  0  0
 12  5  1  0  0  0  0
 12  1  2  0  0  0  0
 13 14  1  0  0  0  0
 15 13  1  0  0  0  0
 15 23  1  0  0  0  0
 16 15  2  0  0  0  0
 17 16  1  0  0  0  0
 18 16  1  0  0  0  0
 18 20  2  0  0  0  0
 19 18  1  0  0  0  0
 20  2  1  0  0  0  0
 20 21  1  0  0  0  0
 21 23  2  0  0  0  0
 21 22  1  0  0  0  0
 23 24  1  0  0  0  0
 25 28  1  0  0  0  0
 25 26  1  0  0  0  0
 25  2  1  0  0  0  0
 27 25  1  0  0  0  0
M  END
