1
q = 0.0, confidence = 0.998

 18 18  0  0  1  0  0  0  0  0999 V2000
    1.5518   -0.0493   -0.8838 N   0  0  0  0  0  2  0  0  0  0  0  0
    2.6266   -0.4555   -0.1886 C   0  0  2  0  0  3  0  0  0  0  0  0
    3.2482   -0.2830   -2.3361 C   0  0  0  0  0  0  0  0  0  0  0  0
    3.9135   -0.3289   -3.2031 H   0  0  0  0  0  0  0  0  0  0  0  0
    1.9164    0.0544   -2.2172 C   0  0  0  0  0  0  0  0  0  0  0  0
    1.2012    0.3363   -2.9956 H   0  0  0  0  0  0  0  0  0  0  0  0
    3.6673   -0.5979   -1.0574 N   0  0  0  0  0  0  0  0  0  0  0  0
    2.6641   -0.7755    1.2776 C   0  0  0  0  0  0  0  0  0  0  0  0
    1.7655   -0.2631    1.6898 H   0  0  0  0  0  0  0  0  0  0  0  0
    2.4862   -2.2877    1.5155 C   0  0  0  0  0  0  0  0  0  0  0  0
    1.5391   -2.6421    1.0618 H   0  0  0  0  0  0  0  0  0  0  0  0
    2.4648   -2.5018    2.6026 H   0  0  0  0  0  0  0  0  0  0  0  0
    3.3268   -2.8615    1.0743 H   0  0  0  0  0  0  0  0  0  0  0  0
    3.9227   -0.2212    1.9619 C   0  0  0  0  0  0  0  0  0  0  0  0
    4.8421   -0.7271    1.5978 H   0  0  0  0  0  0  0  0  0  0  0  0
    3.8768   -0.4031    3.0530 H   0  0  0  0  0  0  0  0  0  0  0  0
    4.0468    0.8685    1.7991 H   0  0  0  0  0  0  0  0  0  0  0  0
    4.6067   -0.9006   -0.7950 H   0  0  0  0  0  0  0  0  0  0  0  0
  1  2  1  0  0  0  0
  2  8  1  6  0  0  0
  3  5  2  0  0  0  0
  3  7  1  0  0  0  0
  4  3  1  0  0  0  0
  5  1  1  0  0  0  0
  6  5  1  0  0  0  0
  7 18  1  0  0  0  0
  7  2  1  0  0  0  0
  8 10  1  0  0  0  0
  8  9  1  0  0  0  0
  8 14  1  0  0  0  0
 10 12  1  0  0  0  0
 11 10  1  0  0  0  0
 13 10  1  0  0  0  0
 14 16  1  0  0  0  0
 15 14  1  0  0  0  0
 17 14  1  0  0  0  0
M  END
