3
q = 0.0, confidence = 0.99

 18 17  0  0  0  0  0  0  0  0999 V2000
    1.2193    0.8831   -1.9238 O   0  0  0  0  0  0  0  0  0  0  0  0
    0.5094    0.3126   -2.2967 H   0  0  0  0  0  0  0  0  0  0  0  0
    1.2808    0.4302   -0.6057 N   0  0  0  0  0  2  0  0  0  0  0  0
    3.5834   -0.5067    1.8920 C   0  0  0  0  0  0  0  0  0  0  0  0
    3.6069   -0.6402    2.9912 H   0  0  0  0  0  0  0  0  0  0  0  0
    4.5793   -0.1317    1.5805 H   0  0  0  0  0  0  0  0  0  0  0  0
    3.4042   -1.4917    1.4201 H   0  0  0  0  0  0  0  0  0  0  0  0
    2.4512    0.4566    1.5097 C   0  0  0  0  0  0  0  0  0  0  0  0
    1.4796    0.0355    1.8416 H   0  0  0  0  0  0  0  0  0  0  0  0
    2.5902    1.4305    2.0344 H   0  0  0  0  0  0  0  0  0  0  0  0
    2.3602    0.7696    0.0420 C   0  0  0  0  0  3  0  0  0  0  0  0
    3.4899    1.4855   -0.6492 C   0  0  0  0  0  0  0  0  0  0  0  0
    3.5412    1.1255   -1.6956 H   0  0  0  0  0  0  0  0  0  0  0  0
    4.4275    1.1782   -0.1437 H   0  0  0  0  0  0  0  0  0  0  0  0
    3.3836    3.0190   -0.6355 C   0  0  0  0  0  0  0  0  0  0  0  0
    4.2944    3.4675   -1.0786 H   0  0  0  0  0  0  0  0  0  0  0  0
    3.2825    3.4132    0.3960 H   0  0  0  0  0  0  0  0  0  0  0  0
    2.5130    3.3664   -1.2229 H   0  0  0  0  0  0  0  0  0  0  0  0
  1  3  1  0  0  0  0
  2  1  1  0  0  0  0
  3 11  1  0  0  0  0
  4  5  1  0  0  0  0
  6  4  1  0  0  0  0
  7  4  1  0  0  0  0
  8  9  1  0  0  0  0
  8  4  1  0  0  0  0
  8 10  1  0  0  0  0
 11  8  1  0  0  0  0
 12 15  1  0  0  0  0
 12 14  1  0  0  0  0
 12 11  1  0  0  0  0
 13 12  1  0  0  0  0
 15 17  1  0  0  0  0
 16 15  1  0  0  0  0
 18 15  1  0  0  0  0
M  END
