3
q = 0.0, confidence = 0.94

 12 11  0  0  0  0  0  0  0  0999 V2000
    2.3675    0.3733   -1.7300 O   0  0  0  0  0  0  0  0  0  0  0  0
    1.4842    0.4135   -2.1624 H   0  0  0  0  0  0  0  0  0  0  0  0
    2.0337   -0.0349   -0.4439 N   0  0  0  0  0  2  0  0  0  0  0  0
    2.8230   -0.8824    1.6751 C   0  0  0  0  0  0  0  0  0  0  0  0
    1.7650   -0.7691    1.9768 H   0  0  0  0  0  0  0  0  0  0  0  0
    3.4820   -0.3043    2.3575 H   0  0  0  0  0  0  0  0  0  0  0  0
    3.0953   -1.9534    1.7804 H   0  0  0  0  0  0  0  0  0  0  0  0
    3.0439   -0.4510    0.2634 C   0  0  0  0  0  3  0  0  0  0  0  0
    4.4133   -0.4980   -0.3441 C   0  0  0  0  0  0  0  0  0  0  0  0
    4.3852   -1.0537   -1.3033 H   0  0  0  0  0  0  0  0  0  0  0  0
    5.1344   -0.9752    0.3434 H   0  0  0  0  0  0  0  0  0  0  0  0
    4.7713    0.5239   -0.5902 H   0  0  0  0  0  0  0  0  0  0  0  0
  1  3  1  0  0  0  0
  2  1  1  0  0  0  0
  3  8  1  0  0  0  0
  4  7  1  0  0  0  0
  4  5  1  0  0  0  0
  4  6  1  0  0  0  0
  8  4  1  0  0  0  0
  9  8  1  0  0  0  0
  9 11  1  0  0  0  0
 10  9  1  0  0  0  0
 12  9  1  0  0  0  0
M  END
