1
q = 0.0, confidence = 1.0

 40 42  0  0  1  0  0  0  0  0999 V2000
   -0.3742    1.8255   -0.0005 N   0  0  0  0  0  2  0  0  0  0  0  0
   -2.7181    0.1125    0.0003 N   0  0  0  0  0  0  0  0  0  0  0  0
   -3.7030   -0.8809    0.0000 C   0  0  0  0  0  0  0  0  0  0  0  0
   -1.6528    2.2562    0.0001 C   0  0  1  0  0  3  0  0  0  0  0  0
   -0.9927    4.5768    0.0002 C   0  0  0  0  0  0  0  0  0  0  0  0
   -4.0969    2.3058    0.0001 C   0  0  0  0  0  0  0  0  0  0  0  0
   -2.0105    3.6127    0.0005 C   0  0  0  0  0  0  0  0  0  0  0  0
   -2.8442    1.3873    0.0002 C   0  0  0  0  0  0  0  0  0  0  0  0
    0.6112    2.7449   -0.0008 C   0  0  0  0  0  0  0  0  0  0  0  0
   -4.1064   -1.4575   -1.2416 C   0  0  0  0  0  0  0  0  0  0  0  0
    0.3354    4.1214   -0.0005 C   0  0  0  0  0  0  0  0  0  0  0  0
   -4.1067   -1.4579    1.2414 C   0  0  0  0  0  0  0  0  0  0  0  0
   -3.5419   -0.9485   -2.5412 C   0  0  0  0  0  0  0  0  0  0  0  0
   -4.9474    2.0667   -1.2598 C   0  0  0  0  0  0  0  0  0  0  0  0
   -3.5076    3.7603    0.0015 C   0  0  0  0  0  0  0  0  0  0  0  0
   -4.9496    2.0649    1.2580 C   0  0  0  0  0  0  0  0  0  0  0  0
   -5.0024   -2.5422    1.2094 C   0  0  0  0  0  0  0  0  0  0  0  0
   -5.0022   -2.5418   -1.2101 C   0  0  0  0  0  0  0  0  0  0  0  0
   -3.5427   -0.9490    2.5412 C   0  0  0  0  0  0  0  0  0  0  0  0
   -5.4652   -3.0777   -0.0005 C   0  0  0  0  0  0  0  0  0  0  0  0
   -3.8464    4.3329    0.8906 H   0  0  0  0  0  0  0  0  0  0  0  0
   -3.8476    4.3353   -0.8856 H   0  0  0  0  0  0  0  0  0  0  0  0
   -5.3245   -2.9822    2.1667 H   0  0  0  0  0  0  0  0  0  0  0  0
   -6.1636   -3.9279   -0.0007 H   0  0  0  0  0  0  0  0  0  0  0  0
   -5.3241   -2.9815   -2.1676 H   0  0  0  0  0  0  0  0  0  0  0  0
    1.6417    2.3616   -0.0014 H   0  0  0  0  0  0  0  0  0  0  0  0
    1.1787    4.8267   -0.0008 H   0  0  0  0  0  0  0  0  0  0  0  0
   -1.2220    5.6533    0.0005 H   0  0  0  0  0  0  0  0  0  0  0  0
   -3.7797   -1.6418   -3.3707 H   0  0  0  0  0  0  0  0  0  0  0  0
   -2.4393   -0.8199   -2.4832 H   0  0  0  0  0  0  0  0  0  0  0  0
   -3.9492    0.0469   -2.8149 H   0  0  0  0  0  0  0  0  0  0  0  0
   -5.3560    1.0378   -1.2725 H   0  0  0  0  0  0  0  0  0  0  0  0
   -4.3535    2.2198   -2.1829 H   0  0  0  0  0  0  0  0  0  0  0  0
   -5.8006    2.7755   -1.2770 H   0  0  0  0  0  0  0  0  0  0  0  0
   -4.3575    2.2168    2.1825 H   0  0  0  0  0  0  0  0  0  0  0  0
   -5.3581    1.0360    1.2686 H   0  0  0  0  0  0  0  0  0  0  0  0
   -5.8029    2.7736    1.2746 H   0  0  0  0  0  0  0  0  0  0  0  0
   -3.9512    0.0458    2.8154 H   0  0  0  0  0  0  0  0  0  0  0  0
   -2.4402   -0.8190    2.4833 H   0  0  0  0  0  0  0  0  0  0  0  0
   -3.7797   -1.6430    3.3704 H   0  0  0  0  0  0  0  0  0  0  0  0
  3  2  1  0  0  0  0
  3 12  1  0  0  0  0
  4  1  1  6  0  0  0
  4  8  1  0  0  0  0
  4  7  1  0  0  0  0
  5 28  1  0  0  0  0
  5  7  2  0  0  0  0
  6  8  1  0  0  0  0
  6 15  1  0  0  0  0
  6 16  1  0  0  0  0
  7 15  1  0  0  0  0
  8  2  2  0  0  0  0
  9 11  2  0  0  0  0
  9  1  1  0  0  0  0
 10 18  1  0  0  0  0
 10  3  2  0  0  0  0
 11  5  1  0  0  0  0
 12 19  1  0  0  0  0
 13 30  1  0  0  0  0
 13 10  1  0  0  0  0
 14  6  1  0  0  0  0
 15 21  1  0  0  0  0
 16 36  1  0  0  0  0
 16 37  1  0  0  0  0
 16 35  1  0  0  0  0
 17 12  2  0  0  0  0
 17 23  1  0  0  0  0
 18 20  2  0  0  0  0
 19 38  1  0  0  0  0
 19 40  1  0  0  0  0
 20 17  1  0  0  0  0
 22 15  1  0  0  0  0
 24 20  1  0  0  0  0
 25 18  1  0  0  0  0
 26  9  1  0  0  0  0
 27 11  1  0  0  0  0
 29 13  1  0  0  0  0
 31 13  1  0  0  0  0
 32 14  1  0  0  0  0
 33 14  1  0  0  0  0
 34 14  1  0  0  0  0
 39 19  1  0  0  0  0
M  END
