1
q = 0.0, confidence = 0.982

 16 15  0  0  1  0  0  0  0  0999 V2000
   -3.1115   -0.3900   -1.1947 N   0  0  0  0  0  0  0  0  0  0  0  0
   -3.2318   -1.4153   -1.2910 H   0  0  0  0  0  0  0  0  0  0  0  0
   -3.2142    0.0174   -2.1356 H   0  0  0  0  0  0  0  0  0  0  0  0
   -4.1277    0.1907   -0.2723 C   0  0  2  0  0  0  0  0  0  0  0  0
   -3.8775    1.2722   -0.2171 H   0  0  0  0  0  0  0  0  0  0  0  0
   -3.9404   -0.4142    1.1250 C   0  0  0  0  0  0  0  0  0  0  0  0
   -2.8678   -0.2876    1.3908 H   0  0  0  0  0  0  0  0  0  0  0  0
   -4.1134   -1.5129    1.0746 H   0  0  0  0  0  0  0  0  0  0  0  0
   -4.8209    0.2195    2.2002 C   0  0  0  0  0  0  0  0  0  0  0  0
   -4.5830   -0.1975    3.1987 H   0  0  0  0  0  0  0  0  0  0  0  0
   -5.9017    0.0453    2.0215 H   0  0  0  0  0  0  0  0  0  0  0  0
   -4.6611    1.3168    2.2510 H   0  0  0  0  0  0  0  0  0  0  0  0
   -5.5336    0.0101   -0.8457 C   0  0  0  0  0  0  0  0  0  0  0  0
   -5.6164    0.4505   -1.8607 H   0  0  0  0  0  0  0  0  0  0  0  0
   -6.2886    0.5107   -0.2088 H   0  0  0  0  0  0  0  0  0  0  0  0
   -5.8048   -1.0653   -0.9108 H   0  0  0  0  0  0  0  0  0  0  0  0
  1  4  1  0  0  0  0
  2  1  1  0  0  0  0
  3  1  1  0  0  0  0
  4  5  1  1  0  0  0
  4  6  1  0  0  0  0
  6  7  1  0  0  0  0
  6  9  1  0  0  0  0
  8  6  1  0  0  0  0
  9 12  1  0  0  0  0
  9 10  1  0  0  0  0
 11  9  1  0  0  0  0
 13  4  1  0  0  0  0
 13 15  1  0  0  0  0
 14 13  1  0  0  0  0
 16 13  1  0  0  0  0
M  END
