6
q = 0.0, confidence = 0.988

  9  8  0  0  0  0  0  0  0  0999 V2000
    2.1701   -2.3863   -0.1771 N   0  0  0  0  0  0  0  0  0  0  0  0
    2.6293   -3.6919   -0.6348 C   0  0  0  0  0  0  0  0  0  0  0  0
    1.8644   -4.5027   -0.5288 H   0  0  0  0  0  0  0  0  0  0  0  0
    3.5251   -3.9798   -0.0513 H   0  0  0  0  0  0  0  0  0  0  0  0
    2.9263   -3.6357   -1.7019 H   0  0  0  0  0  0  0  0  0  0  0  0
    0.9449   -1.9858   -0.7892 N   0  0  0  0  0  0  0  0  0  0  0  0
    0.2764   -2.7801   -0.8339 H   0  0  0  0  0  0  0  0  0  0  0  0
    1.1307   -1.7151   -1.7782 H   0  0  0  0  0  0  0  0  0  0  0  0
    1.9985   -2.3969    0.8337 H   0  0  0  0  0  0  0  0  0  0  0  0
  1  9  1  0  0  0  0
  2  3  1  0  0  0  0
  2  1  1  0  0  0  0
  2  4  1  0  0  0  0
  5  2  1  0  0  0  0
  6  1  1  0  0  0  0
  7  6  1  0  0  0  0
  8  6  1  0  0  0  0
M  END
