6
q = -1.0, confidence = 0.014

 26 28  0  0  0  0  0  0  0  0999 V2000
    0.1429    1.6627   -0.0349 N   0  0  0  0  0  0  0  0  0  0  0  0
   -1.0864    2.2335    0.0542 N   0  0  0  0  0  0  0  0  0  0  0  0
   -0.9815    3.5874    0.0449 C   0  0  0  0  0  0  0  0  0  0  0  0
    0.3712    3.9160   -0.0562 C   0  0  0  0  0  0  0  0  0  0  0  0
    1.0341    2.6739   -0.1013 C   0  0  0  0  0  0  0  0  0  0  0  0
   -1.1951   -0.4297    1.4658 N   0  0  0  0  0  2  0  0  0  0  0  0
   -2.2273    0.4460    1.3821 N   0  0  0  0  0  0  0  0  0  0  0  0
   -3.0246    0.3285    2.4715 C   0  0  0  0  0  3  0  0  0  0  0  0
   -2.4923   -0.6648    3.3001 C   0  0  0  0  0  0  0  0  0  0  0  0
   -1.3431   -1.1112    2.6230 C   0  0  0  0  0  0  0  0  0  0  0  0
   -1.5093   -0.4240   -1.3982 N   0  0  0  0  0  0  0  0  0  0  0  0
   -2.4759    0.4818   -1.1020 N   0  0  0  0  0  0  0  0  0  0  0  0
   -3.5231    0.3492   -1.9538 C   0  0  0  0  0  0  0  0  0  0  0  0
   -3.2316   -0.6860   -2.8457 C   0  0  0  0  0  0  0  0  0  0  0  0
   -1.9611   -1.1430   -2.4477 C   0  0  0  0  0  0  0  0  0  0  0  0
   -2.3580    1.3751    0.1531 B   0  0  0  0  0  0  0  0  0  0  0  0
   -1.8785    4.2119    0.1134 H   0  0  0  0  0  0  0  0  0  0  0  0
    0.8170    4.9148   -0.0880 H   0  0  0  0  0  0  0  0  0  0  0  0
    2.1010    2.4455   -0.1827 H   0  0  0  0  0  0  0  0  0  0  0  0
   -3.9133    0.9600    2.5770 H   0  0  0  0  0  0  0  0  0  0  0  0
   -2.8831   -1.0149    4.2601 H   0  0  0  0  0  0  0  0  0  0  0  0
   -0.6128   -1.8778    2.9043 H   0  0  0  0  0  0  0  0  0  0  0  0
   -4.4006    0.9974   -1.8572 H   0  0  0  0  0  0  0  0  0  0  0  0
   -3.8541   -1.0609   -3.6636 H   0  0  0  0  0  0  0  0  0  0  0  0
   -1.3608   -1.9618   -2.8561 H   0  0  0  0  0  0  0  0  0  0  0  0
   -3.3457    2.0834    0.2603 H   0  0  0  0  0  0  0  0  0  0  0  0
  1  2  1  0  0  0  0
  2 16  1  0  0  0  0
  3  2  1  0  0  0  0
  3 17  1  0  0  0  0
  4  3  2  0  0  0  0
  5  4  1  0  0  0  0
  5  1  2  0  0  0  0
  6 10  1  0  0  0  0
  7  6  1  0  0  0  0
  7  8  1  0  0  0  0
  8 20  1  0  0  0  0
  8  9  1  0  0  0  0
  9 21  1  0  0  0  0
 10 22  1  0  0  0  0
 10  9  2  0  0  0  0
 11 12  1  0  0  0  0
 12 16  1  0  0  0  0
 13 23  1  0  0  0  0
 13 12  1  0  0  0  0
 14 15  1  0  0  0  0
 14 13  2  0  0  0  0
 15 11  2  0  0  0  0
 16 26  1  0  0  0  0
 16  7  1  0  0  0  0
 18  4  1  0  0  0  0
 19  5  1  0  0  0  0
 24 14  1  0  0  0  0
 25 15  1  0  0  0  0
M  END
