9
q = 0.0, confidence = 0.984

 18 19  0  0  0  0  0  0  0  0999 V2000
    2.1108    2.4853   -0.0003 C   0  0  0  0  0  3  0  0  0  0  0  0
    1.1485    3.4878   -0.0000 C   0  0  0  0  0  0  0  0  0  0  0  0
   -0.0867    2.8073    0.0003 C   0  0  0  0  0  0  0  0  0  0  0  0
    2.0145   -0.0355   -0.0001 C   0  0  0  0  0  0  0  0  0  0  0  0
    3.4048   -0.2386   -0.0003 C   0  0  0  0  0  0  0  0  0  0  0  0
    3.8618   -1.5624   -0.0001 C   0  0  0  0  0  0  0  0  0  0  0  0
    2.9362   -2.6177    0.0002 C   0  0  0  0  0  0  0  0  0  0  0  0
    1.5722   -2.3018    0.0003 C   0  0  0  0  0  0  0  0  0  0  0  0
    0.1150    1.4774    0.0002 N   0  0  0  0  0  2  0  0  0  0  0  0
    1.4593    1.2811   -0.0001 N   0  0  0  0  0  0  0  0  0  0  0  0
    1.1256   -1.0328    0.0002 N   0  0  0  0  0  0  0  0  0  0  0  0
    3.2029    2.5488   -0.0005 H   0  0  0  0  0  0  0  0  0  0  0  0
    1.3194    4.5689   -0.0001 H   0  0  0  0  0  0  0  0  0  0  0  0
   -1.1064    3.2113    0.0006 H   0  0  0  0  0  0  0  0  0  0  0  0
    4.1179    0.5957   -0.0006 H   0  0  0  0  0  0  0  0  0  0  0  0
    4.9428   -1.7652   -0.0003 H   0  0  0  0  0  0  0  0  0  0  0  0
    3.2639   -3.6665    0.0004 H   0  0  0  0  0  0  0  0  0  0  0  0
    0.8031   -3.0910    0.0004 H   0  0  0  0  0  0  0  0  0  0  0  0
  1 10  1  0  0  0  0
  1  2  1  0  0  0  0
  2  3  2  0  0  0  0
  3 14  1  0  0  0  0
  4 11  1  0  0  0  0
  5  6  1  0  0  0  0
  5  4  2  0  0  0  0
  6  7  2  0  0  0  0
  7  8  1  0  0  0  0
  7 17  1  0  0  0  0
  8 18  1  0  0  0  0
  9  3  1  0  0  0  0
 10  4  1  0  0  0  0
 10  9  1  0  0  0  0
 11  8  2  0  0  0  0
 12  1  1  0  0  0  0
 13  2  1  0  0  0  0
 15  5  1  0  0  0  0
 16  6  1  0  0  0  0
M  END
