1
q = 0.0, confidence = 1.0

 38 41  0  0  1  0  0  0  0  0999 V2000
   -1.0008    1.3230   -1.1436 N   0  0  1  0  0  0  0  0  0  0  0  0
   -1.4623    0.6323   -2.3732 C   0  0  0  0  0  0  0  0  0  0  0  0
   -2.0371    1.3507   -3.0034 H   0  0  0  0  0  0  0  0  0  0  0  0
   -0.5757    0.3056   -2.9522 H   0  0  0  0  0  0  0  0  0  0  0  0
   -2.3415   -0.5497   -2.0123 C   0  0  0  0  0  0  0  0  0  0  0  0
   -1.7097   -1.3063   -1.4750 H   0  0  0  0  0  0  0  0  0  0  0  0
   -2.7030   -1.0344   -2.9425 H   0  0  0  0  0  0  0  0  0  0  0  0
   -3.4933   -0.1080   -1.2449 N   0  0  1  0  0  0  0  0  0  0  0  0
   -4.4532   -1.1683   -0.9353 C   0  0  0  0  0  0  0  0  0  0  0  0
   -5.4073   -0.6864   -0.6278 H   0  0  0  0  0  0  0  0  0  0  0  0
   -4.6645   -1.7425   -1.8597 H   0  0  0  0  0  0  0  0  0  0  0  0
   -3.9455   -2.0741    0.1943 C   0  0  0  0  0  0  0  0  0  0  0  0
   -3.0694   -2.6635   -0.1466 H   0  0  0  0  0  0  0  0  0  0  0  0
   -4.7242   -2.8052    0.4919 H   0  0  0  0  0  0  0  0  0  0  0  0
   -3.5658   -1.2175    1.4006 C   0  0  0  0  0  0  0  0  0  0  0  0
   -3.0942   -1.8318    2.1967 H   0  0  0  0  0  0  0  0  0  0  0  0
   -4.5013   -0.7875    1.8481 H   0  0  0  0  0  0  0  0  0  0  0  0
   -2.6397   -0.1259    1.0509 N   0  0  2  0  0  0  0  0  0  0  0  0
   -2.4312    0.7359    2.2165 C   0  0  0  0  0  0  0  0  0  0  0  0
   -3.4018    1.1764    2.5624 H   0  0  0  0  0  0  0  0  0  0  0  0
   -2.0376    0.1199    3.0521 H   0  0  0  0  0  0  0  0  0  0  0  0
   -1.4578    1.8566    1.8988 C   0  0  0  0  0  0  0  0  0  0  0  0
   -0.4381    1.4058    1.7411 H   0  0  0  0  0  0  0  0  0  0  0  0
   -1.3756    2.5422    2.7668 H   0  0  0  0  0  0  0  0  0  0  0  0
   -1.9131    2.6204    0.7470 N   0  0  1  0  0  0  0  0  0  0  0  0
   -1.0851    3.7779    0.4095 C   0  0  0  0  0  0  0  0  0  0  0  0
   -1.6842    4.4538   -0.2395 H   0  0  0  0  0  0  0  0  0  0  0  0
   -0.8580    4.3393    1.3375 H   0  0  0  0  0  0  0  0  0  0  0  0
    0.1960    3.3598   -0.3246 C   0  0  0  0  0  0  0  0  0  0  0  0
    0.8674    2.7960    0.3571 H   0  0  0  0  0  0  0  0  0  0  0  0
    0.7644    4.2476   -0.6685 H   0  0  0  0  0  0  0  0  0  0  0  0
   -0.1518    2.4879   -1.5262 C   0  0  0  0  0  0  0  0  0  0  0  0
   -2.2361    1.8382   -0.4103 C   0  0  2  0  0  0  0  0  0  0  0  0
   -2.7712    2.4953   -1.1361 H   0  0  0  0  0  0  0  0  0  0  0  0
   -3.1858    0.6785   -0.0703 C   0  0  1  0  0  0  0  0  0  0  0  0
   -4.1434    1.1589    0.2615 H   0  0  0  0  0  0  0  0  0  0  0  0
    0.7580    2.0935   -2.0196 H   0  0  0  0  0  0  0  0  0  0  0  0
   -0.7102    3.0943   -2.2803 H   0  0  0  0  0  0  0  0  0  0  0  0
  1  2  1  6  0  0  0
  1 33  1  0  0  0  0
  2  5  1  0  0  0  0
  3  2  1  0  0  0  0
  4  2  1  0  0  0  0
  5  6  1  0  0  0  0
  7  5  1  0  0  0  0
  8  5  1  1  0  0  0
  8  9  1  0  0  0  0
  8 35  1  0  0  0  0
  9 10  1  0  0  0  0
  9 12  1  0  0  0  0
 11  9  1  0  0  0  0
 12 14  1  0  0  0  0
 12 15  1  0  0  0  0
 13 12  1  0  0  0  0
 15 17  1  0  0  0  0
 15 16  1  0  0  0  0
 18 15  1  1  0  0  0
 18 19  1  0  0  0  0
 19 20  1  0  0  0  0
 19 21  1  0  0  0  0
 22 19  1  0  0  0  0
 22 24  1  0  0  0  0
 23 22  1  0  0  0  0
 25 26  1  6  0  0  0
 25 22  1  0  0  0  0
 26 28  1  0  0  0  0
 27 26  1  0  0  0  0
 29 30  1  0  0  0  0
 29 26  1  0  0  0  0
 31 29  1  0  0  0  0
 32  1  1  0  0  0  0
 32 29  1  0  0  0  0
 33 34  1  6  0  0  0
 33 35  1  0  0  0  0
 33 25  1  0  0  0  0
 35 36  1  1  0  0  0
 35 18  1  0  0  0  0
 37 32  1  0  0  0  0
 38 32  1  0  0  0  0
M  END
