3
q = 0.0, confidence = 0.998

 32 33  0  0  0  0  0  0  0  0999 V2000
   -2.5952   -1.0509   -1.2862 C   0  0  0  0  0  3  0  0  0  0  0  0
   -2.2196   -0.0292   -1.4114 H   0  0  0  0  0  0  0  0  0  0  0  0
   -1.9409   -2.0707   -0.7133 N   0  0  0  0  0  2  0  0  0  0  0  0
   -2.7835   -3.1680   -0.7692 C   0  0  0  0  0  0  0  0  0  0  0  0
   -2.4962   -4.1472   -0.3733 H   0  0  0  0  0  0  0  0  0  0  0  0
   -3.9589   -2.7918   -1.3868 C   0  0  0  0  0  0  0  0  0  0  0  0
   -4.8666   -3.3554   -1.6238 H   0  0  0  0  0  0  0  0  0  0  0  0
   -3.8192   -1.4547   -1.7107 N   0  0  0  0  0  0  0  0  0  0  0  0
   -4.8472   -0.5997   -2.3118 C   0  0  0  0  0  0  0  0  0  0  0  0
   -4.3279    0.2515   -2.7962 H   0  0  0  0  0  0  0  0  0  0  0  0
   -5.3348   -1.1805   -3.1208 H   0  0  0  0  0  0  0  0  0  0  0  0
   -5.8697   -0.1052   -1.2874 C   0  0  0  0  0  0  0  0  0  0  0  0
   -5.3489    0.4517   -0.4803 H   0  0  0  0  0  0  0  0  0  0  0  0
   -6.3685   -0.9711   -0.8030 H   0  0  0  0  0  0  0  0  0  0  0  0
   -6.9331    0.8070   -1.9163 C   0  0  0  0  0  0  0  0  0  0  0  0
   -7.5024    0.2493   -2.7013 H   0  0  0  0  0  0  0  0  0  0  0  0
   -6.4213    1.6525   -2.4322 H   0  0  0  0  0  0  0  0  0  0  0  0
   -7.8021    1.3425   -0.8982 N   0  0  0  0  0  0  0  0  0  0  0  0
   -9.0868    1.1500   -0.9650 C   0  0  0  0  0  0  0  0  0  0  0  0
   -9.5342    0.5782   -1.8132 H   0  0  0  0  0  0  0  0  0  0  0  0
   -9.9920    1.6631    0.0382 C   0  0  0  0  0  0  0  0  0  0  0  0
  -11.3886    1.4402   -0.0633 C   0  0  0  0  0  0  0  0  0  0  0  0
  -11.7696    0.8692   -0.9255 H   0  0  0  0  0  0  0  0  0  0  0  0
  -12.2652    1.9308    0.9010 C   0  0  0  0  0  0  0  0  0  0  0  0
  -13.3467    1.7547    0.8144 H   0  0  0  0  0  0  0  0  0  0  0  0
  -11.7465    2.6616    1.9941 C   0  0  0  0  0  0  0  0  0  0  0  0
  -12.4336    3.0536    2.7597 H   0  0  0  0  0  0  0  0  0  0  0  0
  -10.3774    2.8994    2.1239 C   0  0  0  0  0  0  0  0  0  0  0  0
   -9.9688    3.4687    2.9710 H   0  0  0  0  0  0  0  0  0  0  0  0
   -9.4738    2.4079    1.1537 C   0  0  0  0  0  0  0  0  0  0  0  0
   -8.1679    2.6395    1.2868 O   0  0  0  0  0  0  0  0  0  0  0  0
   -7.7211    2.2025    0.4733 H   0  0  0  0  0  0  0  0  0  0  0  0
  1  3  1  0  0  0  0
  2  1  1  0  0  0  0
  4  3  1  0  0  0  0
  4  5  1  0  0  0  0
  6  4  2  0  0  0  0
  7  6  1  0  0  0  0
  8  6  1  0  0  0  0
  8  1  1  0  0  0  0
  9  8  1  0  0  0  0
  9 12  1  0  0  0  0
 10  9  1  0  0  0  0
 11  9  1  0  0  0  0
 12 14  1  0  0  0  0
 12 13  1  0  0  0  0
 15 12  1  0  0  0  0
 15 18  1  0  0  0  0
 16 15  1  0  0  0  0
 17 15  1  0  0  0  0
 19 18  2  0  0  0  0
 19 21  1  0  0  0  0
 20 19  1  0  0  0  0
 21 30  1  0  0  0  0
 22 21  2  0  0  0  0
 22 24  1  0  0  0  0
 23 22  1  0  0  0  0
 24 26  2  0  0  0  0
 25 24  1  0  0  0  0
 26 28  1  0  0  0  0
 26 27  1  0  0  0  0
 28 29  1  0  0  0  0
 30 31  1  0  0  0  0
 30 28  2  0  0  0  0
 32 31  1  0  0  0  0
M  END
