2
q = 0.0, confidence = 0.992

 38 39  0  0  1  0  0  0  0  0999 V2000
   -4.4401    7.7154   -0.8137 Cl  0  0  0  0  0  0  0  0  0  0  0  0
   -2.0433   -2.5313   -0.6054 N   0  0  0  0  0  2  0  0  0  0  0  0
   -2.8249   -0.8187   -1.8404 N   0  0  0  0  0  0  0  0  0  0  0  0
   -2.6500   -0.4274   -0.5405 N   0  0  0  0  0  0  0  0  0  0  0  0
   -2.8408    0.9366   -0.1504 C   0  0  0  0  0  0  0  0  0  0  0  0
   -1.3333    0.6288    1.7711 O   0  0  0  0  0  0  0  0  0  0  0  0
   -0.5064    0.9608    1.3557 H   0  0  0  0  0  0  0  0  0  0  0  0
   -3.5802    3.2294   -0.9944 C   0  0  0  0  0  0  0  0  0  0  0  0
   -2.1789   -1.4737    0.1933 C   0  0  0  0  0  3  0  0  0  0  0  0
   -1.9140   -1.4420    1.2532 H   0  0  0  0  0  0  0  0  0  0  0  0
   -3.3547    1.7787   -1.0871 C   0  0  0  0  0  0  0  0  0  0  0  0
   -3.6759    1.2962   -2.0249 H   0  0  0  0  0  0  0  0  0  0  0  0
   -2.4484   -2.0888   -1.8349 C   0  0  0  0  0  0  0  0  0  0  0  0
   -2.4488   -2.7284   -2.7263 H   0  0  0  0  0  0  0  0  0  0  0  0
   -2.4763    1.3158    1.2872 C   0  0  2  0  0  0  0  0  0  0  0  0
   -2.2860    2.4087    1.2628 H   0  0  0  0  0  0  0  0  0  0  0  0
   -4.1103    6.0062   -0.8915 C   0  0  0  0  0  0  0  0  0  0  0  0
   -2.8729    5.5143   -0.4428 C   0  0  0  0  0  0  0  0  0  0  0  0
   -2.1139    6.2130   -0.0641 H   0  0  0  0  0  0  0  0  0  0  0  0
   -4.7993    3.7611   -1.4772 C   0  0  0  0  0  0  0  0  0  0  0  0
   -5.5561    3.0777   -1.8921 H   0  0  0  0  0  0  0  0  0  0  0  0
   -2.6170    4.1398   -0.4994 C   0  0  0  0  0  0  0  0  0  0  0  0
   -1.6307    3.7708   -0.1853 H   0  0  0  0  0  0  0  0  0  0  0  0
   -3.6384    1.1471    2.3305 C   0  0  0  0  0  0  0  0  0  0  0  0
   -5.0750    5.1316   -1.4184 C   0  0  0  0  0  0  0  0  0  0  0  0
   -6.0324    5.5307   -1.7816 H   0  0  0  0  0  0  0  0  0  0  0  0
   -3.1106    1.6894    3.6730 C   0  0  0  0  0  0  0  0  0  0  0  0
   -2.8187    2.7570    3.5853 H   0  0  0  0  0  0  0  0  0  0  0  0
   -2.2269    1.1160    4.0097 H   0  0  0  0  0  0  0  0  0  0  0  0
   -3.8972    1.6166    4.4507 H   0  0  0  0  0  0  0  0  0  0  0  0
   -4.0710   -0.3179    2.5120 C   0  0  0  0  0  0  0  0  0  0  0  0
   -4.8670   -0.3756    3.2819 H   0  0  0  0  0  0  0  0  0  0  0  0
   -3.2381   -0.9619    2.8562 H   0  0  0  0  0  0  0  0  0  0  0  0
   -4.4902   -0.7475    1.5800 H   0  0  0  0  0  0  0  0  0  0  0  0
   -4.8503    1.9858    1.8905 C   0  0  0  0  0  0  0  0  0  0  0  0
   -5.2897    1.6157    0.9432 H   0  0  0  0  0  0  0  0  0  0  0  0
   -4.5839    3.0526    1.7461 H   0  0  0  0  0  0  0  0  0  0  0  0
   -5.6385    1.9368    2.6685 H   0  0  0  0  0  0  0  0  0  0  0  0
  2  9  1  0  0  0  0
  3 13  2  0  0  0  0
  3  4  1  0  0  0  0
  4  5  1  0  0  0  0
  4  9  1  0  0  0  0
  5 15  1  0  0  0  0
  7  6  1  0  0  0  0
  8 22  1  0  0  0  0
  9 10  1  0  0  0  0
 11  8  1  0  0  0  0
 11  5  2  0  0  0  0
 12 11  1  0  0  0  0
 13  2  1  0  0  0  0
 14 13  1  0  0  0  0
 15 16  1  6  0  0  0
 15  6  1  0  0  0  0
 15 24  1  0  0  0  0
 17  1  1  0  0  0  0
 17 18  1  0  0  0  0
 18 19  1  0  0  0  0
 20 25  1  0  0  0  0
 20  8  2  0  0  0  0
 21 20  1  0  0  0  0
 22 18  2  0  0  0  0
 22 23  1  0  0  0  0
 24 31  1  0  0  0  0
 24 27  1  0  0  0  0
 25 17  2  0  0  0  0
 26 25  1  0  0  0  0
 27 29  1  0  0  0  0
 27 30  1  0  0  0  0
 28 27  1  0  0  0  0
 31 33  1  0  0  0  0
 31 32  1  0  0  0  0
 34 31  1  0  0  0  0
 35 24  1  0  0  0  0
 35 38  1  0  0  0  0
 36 35  1  0  0  0  0
 37 35  1  0  0  0  0
M  END
