1
q = 0.0, confidence = 0.994

 15 16  0  0  0  0  0  0  0  0999 V2000
    2.2204   -0.6103    0.1275 N   0  0  0  0  0  2  0  0  0  0  0  0
    4.3128   -1.3787    0.0202 N   0  0  0  0  0  0  0  0  0  0  0  0
    5.3319   -1.3645    0.0034 H   0  0  0  0  0  0  0  0  0  0  0  0
    3.5094   -0.2858    0.1821 C   0  0  0  0  0  3  0  0  0  0  0  0
    3.8843    0.7338    0.3121 H   0  0  0  0  0  0  0  0  0  0  0  0
    3.7867   -3.8455   -0.3806 C   0  0  0  0  0  0  0  0  0  0  0  0
    4.8201   -4.2189   -0.4256 H   0  0  0  0  0  0  0  0  0  0  0  0
    2.6899   -4.6983   -0.5531 C   0  0  0  0  0  0  0  0  0  0  0  0
    2.8667   -5.7690   -0.7347 H   0  0  0  0  0  0  0  0  0  0  0  0
    1.3621   -4.2074   -0.5204 C   0  0  0  0  0  0  0  0  0  0  0  0
    0.5263   -4.9010   -0.6969 H   0  0  0  0  0  0  0  0  0  0  0  0
    1.0724   -2.8565   -0.2960 C   0  0  0  0  0  0  0  0  0  0  0  0
    0.0293   -2.4993   -0.3390 H   0  0  0  0  0  0  0  0  0  0  0  0
    2.1649   -1.9900   -0.1018 C   0  0  0  0  0  0  0  0  0  0  0  0
    3.4997   -2.4892   -0.1614 C   0  0  0  0  0  0  0  0  0  0  0  0
  1  4  1  0  0  0  0
  2  4  1  0  0  0  0
  3  2  1  0  0  0  0
  4  5  1  0  0  0  0
  6 15  1  0  0  0  0
  7  6  1  0  0  0  0
  8 10  1  0  0  0  0
  8  6  2  0  0  0  0
  9  8  1  0  0  0  0
 10 12  2  0  0  0  0
 11 10  1  0  0  0  0
 12 14  1  0  0  0  0
 13 12  1  0  0  0  0
 14  1  1  0  0  0  0
 15 14  2  0  0  0  0
 15  2  1  0  0  0  0
M  END
