4
q = -1.0, confidence = 0.312

 20 21  0  0  1  0  0  0  0  0999 V2000
   -1.2989   -2.0554    1.5995 O   0  0  0  0  0  0  0  0  0  0  0  0
   -3.2686   -1.5911    0.4611 N   0  0  0  0  0  0  0  0  0  0  0  0
   -3.8710    0.5476   -0.1991 N   0  0  0  0  0  0  0  0  0  0  0  0
   -0.3229    0.7145    0.2551 N   0  0  0  0  0  2  0  0  0  0  0  0
   -1.9576    2.1198   -0.3584 N   0  0  0  0  0  0  0  0  0  0  0  0
   -5.5215   -1.1191   -0.0826 N   0  0  0  0  0  0  0  0  0  0  0  0
   -4.2206   -0.7433    0.0441 C   0  0  2  0  0  3  0  0  0  0  0  0
   -2.5371    0.9123   -0.0639 C   0  0  0  0  0  0  0  0  0  0  0  0
   -1.5265    0.0401    0.3515 C   0  0  0  0  0  0  0  0  0  0  0  0
   -1.8476   -1.2723    0.8689 C   0  0  0  0  0  0  0  0  0  0  0  0
   -0.6010    1.9626   -0.1334 C   0  0  0  0  0  3  0  0  0  0  0  0
   -2.6182    3.3258   -0.8223 C   0  0  0  0  0  0  0  0  0  0  0  0
   -3.5136   -2.5661    0.6595 H   0  0  0  0  0  0  0  0  0  0  0  0
   -4.5986    1.2457   -0.3629 H   0  0  0  0  0  0  0  0  0  0  0  0
    0.1674    2.7386   -0.2543 H   0  0  0  0  0  0  0  0  0  0  0  0
   -3.3039    3.7333   -0.0505 H   0  0  0  0  0  0  0  0  0  0  0  0
   -1.8472    4.0873   -1.0361 H   0  0  0  0  0  0  0  0  0  0  0  0
   -3.1786    3.1333   -1.7604 H   0  0  0  0  0  0  0  0  0  0  0  0
   -5.7635   -2.1012    0.0467 H   0  0  0  0  0  0  0  0  0  0  0  0
   -6.1444   -0.5913   -0.6946 H   0  0  0  0  0  0  0  0  0  0  0  0
  2 13  1  0  0  0  0
  2 10  1  0  0  0  0
  3  8  1  0  0  0  0
  3  7  1  0  0  0  0
  4  9  1  0  0  0  0
  5 11  1  0  0  0  0
  5  8  1  0  0  0  0
  6 19  1  0  0  0  0
  7  6  1  1  0  0  0
  7  2  1  0  0  0  0
  8  9  2  0  0  0  0
  9 10  1  0  0  0  0
 10  1  2  0  0  0  0
 11  4  1  0  0  0  0
 12  5  1  0  0  0  0
 12 16  1  0  0  0  0
 14  3  1  0  0  0  0
 15 11  1  0  0  0  0
 17 12  1  0  0  0  0
 18 12  1  0  0  0  0
 20  6  1  0  0  0  0
M  END
