1
q = 0.0, confidence = 1.0

 32 33  0  0  0  0  0  0  0  0999 V2000
   -0.5726    0.4171   -0.1154 N   0  0  0  0  0  2  0  0  0  0  0  0
    0.6080    0.9174   -0.0337 N   0  0  0  0  0  2  0  0  0  0  0  0
    1.5955    0.0667   -0.0218 N   0  0  0  0  0  0  0  0  0  0  0  0
    1.3821   -0.9255   -0.2923 H   0  0  0  0  0  0  0  0  0  0  0  0
   -1.6223    1.3747   -0.1817 C   0  0  0  0  0  0  0  0  0  0  0  0
   -1.4632    2.7109    0.2466 C   0  0  0  0  0  0  0  0  0  0  0  0
   -0.4939    3.0360    0.6468 H   0  0  0  0  0  0  0  0  0  0  0  0
   -2.5394    3.5969    0.1687 C   0  0  0  0  0  0  0  0  0  0  0  0
   -2.4050    4.6333    0.5174 H   0  0  0  0  0  0  0  0  0  0  0  0
   -3.7976    3.1958   -0.3361 C   0  0  0  0  0  0  0  0  0  0  0  0
   -3.9351    1.8618   -0.7656 C   0  0  0  0  0  0  0  0  0  0  0  0
   -4.8994    1.5203   -1.1727 H   0  0  0  0  0  0  0  0  0  0  0  0
   -2.8674    0.9587   -0.6905 C   0  0  0  0  0  0  0  0  0  0  0  0
   -2.9799   -0.0797   -1.0412 H   0  0  0  0  0  0  0  0  0  0  0  0
   -4.9481    4.1668   -0.3950 C   0  0  0  0  0  0  0  0  0  0  0  0
   -5.8242    3.7323   -0.9133 H   0  0  0  0  0  0  0  0  0  0  0  0
   -4.6637    5.0994   -0.9249 H   0  0  0  0  0  0  0  0  0  0  0  0
   -5.2736    4.4651    0.6243 H   0  0  0  0  0  0  0  0  0  0  0  0
    2.9344    0.4781    0.0485 C   0  0  0  0  0  0  0  0  0  0  0  0
    3.3008    1.8103    0.3297 C   0  0  0  0  0  0  0  0  0  0  0  0
    2.5189    2.5632    0.4949 H   0  0  0  0  0  0  0  0  0  0  0  0
    4.6546    2.1489    0.3902 C   0  0  0  0  0  0  0  0  0  0  0  0
    4.9333    3.1918    0.6096 H   0  0  0  0  0  0  0  0  0  0  0  0
    5.6729    1.1913    0.1811 C   0  0  0  0  0  0  0  0  0  0  0  0
    5.2797   -0.1324   -0.0985 C   0  0  0  0  0  0  0  0  0  0  0  0
    6.0496   -0.9003   -0.2717 H   0  0  0  0  0  0  0  0  0  0  0  0
    3.9295   -0.4950   -0.1667 C   0  0  0  0  0  0  0  0  0  0  0  0
    3.6369   -1.5302   -0.4004 H   0  0  0  0  0  0  0  0  0  0  0  0
    7.1259    1.5827    0.2627 C   0  0  0  0  0  0  0  0  0  0  0  0
    7.3606    2.4135   -0.4349 H   0  0  0  0  0  0  0  0  0  0  0  0
    7.7922    0.7339    0.0164 H   0  0  0  0  0  0  0  0  0  0  0  0
    7.3917    1.9360    1.2814 H   0  0  0  0  0  0  0  0  0  0  0  0
  1  2  1  0  0  0  0
  2  3  1  0  0  0  0
  3 19  1  0  0  0  0
  4  3  1  0  0  0  0
  5  1  1  0  0  0  0
  5  6  1  0  0  0  0
  6  7  1  0  0  0  0
  8  6  2  0  0  0  0
  8  9  1  0  0  0  0
 10  8  1  0  0  0  0
 11 13  1  0  0  0  0
 11 10  2  0  0  0  0
 12 11  1  0  0  0  0
 13  5  2  0  0  0  0
 14 13  1  0  0  0  0
 15 10  1  0  0  0  0
 15 18  1  0  0  0  0
 16 15  1  0  0  0  0
 17 15  1  0  0  0  0
 19 20  1  0  0  0  0
 20 22  2  0  0  0  0
 20 21  1  0  0  0  0
 22 23  1  0  0  0  0
 24 29  1  0  0  0  0
 24 22  1  0  0  0  0
 25 24  2  0  0  0  0
 26 25  1  0  0  0  0
 27 25  1  0  0  0  0
 27 19  2  0  0  0  0
 28 27  1  0  0  0  0
 29 32  1  0  0  0  0
 30 29  1  0  0  0  0
 31 29  1  0  0  0  0
M  END
