4
q = 0.0, confidence = 1.0

 35 35  0  0  1  0  0  0  0  0999 V2000
    1.9915   -2.8763    0.5685 O   0  0  0  0  0  0  0  0  0  0  0  0
    3.9803   -1.7097    0.4804 N   0  0  0  0  0  0  0  0  0  0  0  0
    3.9063    0.5327   -0.3851 N   0  0  0  0  0  0  0  0  0  0  0  0
    1.9043   -0.7579   -0.1911 N   0  0  0  0  0  2  0  0  0  0  0  0
    1.8419    1.3845   -1.0644 N   0  0  0  0  0  0  0  0  0  0  0  0
    5.8885   -0.4227    0.3522 N   0  0  0  0  0  0  0  0  0  0  0  0
    4.5511   -0.5207    0.1458 C   0  0  0  0  0  0  0  0  0  0  0  0
    2.5797    0.3837   -0.5468 C   0  0  1  0  0  3  0  0  0  0  0  0
    2.6693   -1.7630    0.2904 C   0  0  0  0  0  0  0  0  0  0  0  0
    2.6993   -3.9326    1.2181 C   0  0  0  0  0  0  0  0  0  0  0  0
    2.4096    2.5849   -1.6700 C   0  0  0  0  0  0  0  0  0  0  0  0
    6.6735    0.7908    0.1477 C   0  0  0  0  0  0  0  0  0  0  0  0
    1.3856    3.7172   -1.5660 C   0  0  0  0  0  0  0  0  0  0  0  0
    2.8411    2.3098   -3.1175 C   0  0  0  0  0  0  0  0  0  0  0  0
    6.5552    1.7470    1.3424 C   0  0  0  0  0  0  0  0  0  0  0  0
    8.1217    0.4084   -0.1603 C   0  0  0  0  0  0  0  0  0  0  0  0
    0.9079    1.0702   -1.3964 H   0  0  0  0  0  0  0  0  0  0  0  0
    6.3129   -1.2244    0.8219 H   0  0  0  0  0  0  0  0  0  0  0  0
    3.3095    2.8406   -1.0736 H   0  0  0  0  0  0  0  0  0  0  0  0
    6.2272    1.2912   -0.7370 H   0  0  0  0  0  0  0  0  0  0  0  0
    1.9594   -4.7401    1.3606 H   0  0  0  0  0  0  0  0  0  0  0  0
    3.5485   -4.2863    0.5999 H   0  0  0  0  0  0  0  0  0  0  0  0
    3.0912   -3.5949    2.1985 H   0  0  0  0  0  0  0  0  0  0  0  0
    1.1152    3.9098   -0.5093 H   0  0  0  0  0  0  0  0  0  0  0  0
    1.7878    4.6522   -2.0033 H   0  0  0  0  0  0  0  0  0  0  0  0
    0.4563    3.4576   -2.1160 H   0  0  0  0  0  0  0  0  0  0  0  0
    3.6184    1.5210   -3.1433 H   0  0  0  0  0  0  0  0  0  0  0  0
    1.9761    1.9618   -3.7188 H   0  0  0  0  0  0  0  0  0  0  0  0
    3.2550    3.2231   -3.5912 H   0  0  0  0  0  0  0  0  0  0  0  0
    7.1166    2.6846    1.1537 H   0  0  0  0  0  0  0  0  0  0  0  0
    5.4937    2.0087    1.5191 H   0  0  0  0  0  0  0  0  0  0  0  0
    6.9614    1.2817    2.2647 H   0  0  0  0  0  0  0  0  0  0  0  0
    8.7291    1.3125   -0.3606 H   0  0  0  0  0  0  0  0  0  0  0  0
    8.5867   -0.1178    0.7012 H   0  0  0  0  0  0  0  0  0  0  0  0
    8.1822   -0.2553   -1.0455 H   0  0  0  0  0  0  0  0  0  0  0  0
  1 10  1  0  0  0  0
  3  7  2  0  0  0  0
  4  9  1  0  0  0  0
  6 18  1  0  0  0  0
  7  6  1  0  0  0  0
  7  2  1  0  0  0  0
  8  5  1  1  0  0  0
  8  3  1  0  0  0  0
  8  4  1  0  0  0  0
  9  2  2  0  0  0  0
  9  1  1  0  0  0  0
 10 21  1  0  0  0  0
 10 23  1  0  0  0  0
 11 13  1  0  0  0  0
 11 19  1  0  0  0  0
 11  5  1  0  0  0  0
 12  6  1  0  0  0  0
 12 15  1  0  0  0  0
 13 24  1  0  0  0  0
 14 11  1  0  0  0  0
 15 31  1  0  0  0  0
 15 32  1  0  0  0  0
 16 12  1  0  0  0  0
 16 34  1  0  0  0  0
 17  5  1  0  0  0  0
 20 12  1  0  0  0  0
 22 10  1  0  0  0  0
 25 13  1  0  0  0  0
 26 13  1  0  0  0  0
 27 14  1  0  0  0  0
 28 14  1  0  0  0  0
 29 14  1  0  0  0  0
 30 15  1  0  0  0  0
 33 16  1  0  0  0  0
 35 16  1  0  0  0  0
M  END
