1
q = 0.0, confidence = 0.986

 11 11  0  0  0  0  0  0  0  0999 V2000
   -1.1628   -0.2318   -0.0001 N   0  0  0  0  0  2  0  0  0  0  0  0
   -1.7561   -1.4667   -0.0000 N   0  0  0  0  0  0  0  0  0  0  0  0
   -3.0571   -1.2559    0.0002 C   0  0  0  0  0  0  0  0  0  0  0  0
   -3.3369    0.0899    0.0003 N   0  0  0  0  0  0  0  0  0  0  0  0
   -2.1124    0.6985    0.0001 C   0  0  0  0  0  3  0  0  0  0  0  0
   -4.6407    0.7349   -0.0004 C   0  0  0  0  0  0  0  0  0  0  0  0
   -3.8302   -2.0338    0.0004 H   0  0  0  0  0  0  0  0  0  0  0  0
   -1.9556    1.7824    0.0001 H   0  0  0  0  0  0  0  0  0  0  0  0
   -4.7637    1.3666    0.9009 H   0  0  0  0  0  0  0  0  0  0  0  0
   -4.7648    1.3623   -0.9046 H   0  0  0  0  0  0  0  0  0  0  0  0
   -5.4253   -0.0430    0.0019 H   0  0  0  0  0  0  0  0  0  0  0  0
  1  2  1  0  0  0  0
  1  5  1  0  0  0  0
  2  3  2  0  0  0  0
  3  4  1  0  0  0  0
  3  7  1  0  0  0  0
  5  8  1  0  0  0  0
  5  4  1  0  0  0  0
  6  4  1  0  0  0  0
  6 11  1  0  0  0  0
  6  9  1  0  0  0  0
 10  6  1  0  0  0  0
M  END
