1
q = 0.0, confidence = 0.998

 22 23  0  0  0  0  0  0  0  0999 V2000
    1.5484    1.5435   -0.9793 N   0  0  0  0  0  2  0  0  0  0  0  0
    2.1891    2.1328   -2.0330 N   0  0  0  0  0  0  0  0  0  0  0  0
    3.4327    0.4639   -1.2471 N   0  0  0  0  0  0  0  0  0  0  0  0
    7.7705   -2.9643   -0.4332 O   0  0  0  0  0  0  0  0  0  0  0  0
    2.2889    0.5444   -0.5097 C   0  0  0  0  0  3  0  0  0  0  0  0
    2.0271   -0.1160    0.3264 H   0  0  0  0  0  0  0  0  0  0  0  0
    3.3208    1.4752   -2.1841 C   0  0  0  0  0  0  0  0  0  0  0  0
    4.0998    1.6967   -2.9222 H   0  0  0  0  0  0  0  0  0  0  0  0
    4.5367   -0.4151   -1.0196 C   0  0  0  0  0  0  0  0  0  0  0  0
    4.9656   -0.6529    0.2950 C   0  0  0  0  0  0  0  0  0  0  0  0
    4.4649   -0.1492    1.1413 H   0  0  0  0  0  0  0  0  0  0  0  0
    6.0469   -1.5128    0.5291 C   0  0  0  0  0  0  0  0  0  0  0  0
    6.3686   -1.6842    1.5646 H   0  0  0  0  0  0  0  0  0  0  0  0
    6.7129   -2.1251   -0.5547 C   0  0  0  0  0  0  0  0  0  0  0  0
    6.2748   -1.8699   -1.8751 C   0  0  0  0  0  0  0  0  0  0  0  0
    6.8020   -2.3620   -2.7045 H   0  0  0  0  0  0  0  0  0  0  0  0
    5.1894   -1.0260   -2.1075 C   0  0  0  0  0  0  0  0  0  0  0  0
    4.8352   -0.8524   -3.1344 H   0  0  0  0  0  0  0  0  0  0  0  0
    8.2556   -3.2592    0.8663 C   0  0  0  0  0  0  0  0  0  0  0  0
    8.6134   -2.3453    1.3903 H   0  0  0  0  0  0  0  0  0  0  0  0
    9.1052   -3.9531    0.7311 H   0  0  0  0  0  0  0  0  0  0  0  0
    7.4804   -3.7523    1.4939 H   0  0  0  0  0  0  0  0  0  0  0  0
  1  5  1  0  0  0  0
  2  1  1  0  0  0  0
  3  9  1  0  0  0  0
  3  5  1  0  0  0  0
  4 19  1  0  0  0  0
  5  6  1  0  0  0  0
  7  2  2  0  0  0  0
  7  3  1  0  0  0  0
  8  7  1  0  0  0  0
  9 10  1  0  0  0  0
 10 12  2  0  0  0  0
 10 11  1  0  0  0  0
 12 13  1  0  0  0  0
 14  4  1  0  0  0  0
 14 12  1  0  0  0  0
 15 14  2  0  0  0  0
 16 15  1  0  0  0  0
 17 15  1  0  0  0  0
 17  9  2  0  0  0  0
 18 17  1  0  0  0  0
 19 20  1  0  0  0  0
 19 22  1  0  0  0  0
 21 19  1  0  0  0  0
M  END
