1
q = 0.0, confidence = 0.998

 19 20  0  0  1  0  0  0  0  0999 V2000
   -1.3809   -0.4939    0.8348 N   0  0  0  0  0  2  0  0  0  0  0  0
   -1.2934   -1.8952    1.3967 C   0  0  0  0  0  0  0  0  0  0  0  0
   -0.7483   -2.6223    0.7667 H   0  0  0  0  0  0  0  0  0  0  0  0
   -1.1516   -1.9781    2.4906 H   0  0  0  0  0  0  0  0  0  0  0  0
   -2.4563   -1.1875    0.8501 C   0  0  2  0  0  3  0  0  0  0  0  0
   -3.8410   -1.1810    0.4744 C   0  0  0  0  0  0  0  0  0  0  0  0
   -4.4219   -0.0696   -0.1874 C   0  0  0  0  0  0  0  0  0  0  0  0
   -3.8057    0.8053   -0.4351 H   0  0  0  0  0  0  0  0  0  0  0  0
   -5.7707   -0.1004   -0.5383 C   0  0  0  0  0  0  0  0  0  0  0  0
   -6.2120    0.7653   -1.0565 H   0  0  0  0  0  0  0  0  0  0  0  0
   -6.5827   -1.2227   -0.2484 C   0  0  0  0  0  0  0  0  0  0  0  0
   -5.9933   -2.3230    0.4093 C   0  0  0  0  0  0  0  0  0  0  0  0
   -6.6095   -3.2054    0.6412 H   0  0  0  0  0  0  0  0  0  0  0  0
   -4.6423   -2.3088    0.7675 C   0  0  0  0  0  0  0  0  0  0  0  0
   -4.1892   -3.1717    1.2783 H   0  0  0  0  0  0  0  0  0  0  0  0
   -8.0344   -1.2341   -0.6457 C   0  0  0  0  0  0  0  0  0  0  0  0
   -8.5711   -0.3583   -0.2256 H   0  0  0  0  0  0  0  0  0  0  0  0
   -8.5492   -2.1514   -0.3024 H   0  0  0  0  0  0  0  0  0  0  0  0
   -8.1435   -1.1734   -1.7490 H   0  0  0  0  0  0  0  0  0  0  0  0
  1  5  1  0  0  0  0
  1  2  1  0  0  0  0
  2  4  1  0  0  0  0
  3  2  1  0  0  0  0
  5  6  1  6  0  0  0
  5  2  1  0  0  0  0
  6 14  1  0  0  0  0
  7  6  2  0  0  0  0
  8  7  1  0  0  0  0
  9 11  2  0  0  0  0
  9  7  1  0  0  0  0
 10  9  1  0  0  0  0
 11 12  1  0  0  0  0
 12 13  1  0  0  0  0
 12 14  2  0  0  0  0
 14 15  1  0  0  0  0
 16 18  1  0  0  0  0
 16 11  1  0  0  0  0
 16 17  1  0  0  0  0
 19 16  1  0  0  0  0
M  END
