2
q = 0.0, confidence = 0.996

 16 17  0  0  1  0  0  0  0  0999 V2000
   -8.1500   -1.4179   -0.5776 Cl  0  0  0  0  0  0  0  0  0  0  0  0
   -1.3717   -0.2304    0.9738 N   0  0  0  0  0  2  0  0  0  0  0  0
   -1.2803   -1.4996    1.7922 C   0  0  0  0  0  0  0  0  0  0  0  0
   -0.7054   -2.3209    1.3254 H   0  0  0  0  0  0  0  0  0  0  0  0
   -1.1719   -1.3723    2.8855 H   0  0  0  0  0  0  0  0  0  0  0  0
   -2.4356   -0.9324    1.0890 C   0  0  2  0  0  3  0  0  0  0  0  0
   -3.8064   -1.0288    0.6769 C   0  0  0  0  0  0  0  0  0  0  0  0
   -4.3825   -0.0764   -0.2013 C   0  0  0  0  0  0  0  0  0  0  0  0
   -3.7760    0.7514   -0.5928 H   0  0  0  0  0  0  0  0  0  0  0  0
   -5.7177   -0.1970   -0.5868 C   0  0  0  0  0  0  0  0  0  0  0  0
   -6.1730    0.5321   -1.2711 H   0  0  0  0  0  0  0  0  0  0  0  0
   -6.4877   -1.2703   -0.0969 C   0  0  0  0  0  0  0  0  0  0  0  0
   -5.9322   -2.2270    0.7733 C   0  0  0  0  0  0  0  0  0  0  0  0
   -6.5531   -3.0566    1.1383 H   0  0  0  0  0  0  0  0  0  0  0  0
   -4.5952   -2.1026    1.1558 C   0  0  0  0  0  0  0  0  0  0  0  0
   -4.1436   -2.8423    1.8335 H   0  0  0  0  0  0  0  0  0  0  0  0
  1 12  1  0  0  0  0
  2  6  1  0  0  0  0
  2  3  1  0  0  0  0
  3  5  1  0  0  0  0
  4  3  1  0  0  0  0
  6  7  1  6  0  0  0
  6  3  1  0  0  0  0
  7 15  1  0  0  0  0
  8  7  2  0  0  0  0
  9  8  1  0  0  0  0
 10  8  1  0  0  0  0
 10 12  2  0  0  0  0
 11 10  1  0  0  0  0
 12 13  1  0  0  0  0
 13 14  1  0  0  0  0
 13 15  2  0  0  0  0
 15 16  1  0  0  0  0
M  END
