2
q = 0.0, confidence = 0.994

 27 28  0  0  0  0  0  0  0  0999 V2000
    3.2436   -1.6400   -1.5045 O   0  0  0  0  0  0  0  0  0  0  0  0
   -0.9565   -1.9390   -0.6913 N   0  0  0  0  0  2  0  0  0  0  0  0
    1.1104   -0.8994   -0.9561 N   0  0  0  0  0  0  0  0  0  0  0  0
    2.9258    0.4709   -0.5918 N   0  0  0  0  0  0  0  0  0  0  0  0
   -1.7329   -3.0498   -0.6276 C   0  0  0  0  0  3  0  0  0  0  0  0
   -1.2232   -4.3341   -0.7815 C   0  0  0  0  0  0  0  0  0  0  0  0
    0.1523   -4.4748   -1.0406 C   0  0  0  0  0  0  0  0  0  0  0  0
    0.9600   -3.3463   -1.1295 C   0  0  0  0  0  0  0  0  0  0  0  0
    0.3822   -2.0670   -0.9343 C   0  0  0  0  0  0  0  0  0  0  0  0
    2.5161   -0.7603   -1.0529 C   0  0  0  0  0  0  0  0  0  0  0  0
    4.2281    1.0036   -0.6128 C   0  0  0  0  0  0  0  0  0  0  0  0
    5.3282    0.3712   -1.2332 C   0  0  0  0  0  0  0  0  0  0  0  0
    6.5836    0.9959   -1.2101 C   0  0  0  0  0  0  0  0  0  0  0  0
    6.7699    2.2352   -0.5787 C   0  0  0  0  0  0  0  0  0  0  0  0
    5.6736    2.8582    0.0405 C   0  0  0  0  0  0  0  0  0  0  0  0
    4.4125    2.2527    0.0264 C   0  0  0  0  0  0  0  0  0  0  0  0
    0.5513   -0.0746   -0.7074 H   0  0  0  0  0  0  0  0  0  0  0  0
    2.2536    1.0360   -0.0418 H   0  0  0  0  0  0  0  0  0  0  0  0
   -2.8031   -2.8641   -0.4666 H   0  0  0  0  0  0  0  0  0  0  0  0
   -1.8965   -5.1990   -0.7148 H   0  0  0  0  0  0  0  0  0  0  0  0
    0.5966   -5.4717   -1.1811 H   0  0  0  0  0  0  0  0  0  0  0  0
    2.0331   -3.3914   -1.3482 H   0  0  0  0  0  0  0  0  0  0  0  0
    5.1854   -0.6031   -1.7139 H   0  0  0  0  0  0  0  0  0  0  0  0
    7.4345    0.4946   -1.6969 H   0  0  0  0  0  0  0  0  0  0  0  0
    7.7614    2.7118   -0.5667 H   0  0  0  0  0  0  0  0  0  0  0  0
    5.7994    3.8293    0.5434 H   0  0  0  0  0  0  0  0  0  0  0  0
    3.5496    2.7361    0.5103 H   0  0  0  0  0  0  0  0  0  0  0  0
  1 10  2  0  0  0  0
  2  5  1  0  0  0  0
  3  9  1  0  0  0  0
  3 17  1  0  0  0  0
  4 18  1  0  0  0  0
  5 19  1  0  0  0  0
  6 20  1  0  0  0  0
  6  5  1  0  0  0  0
  7  6  2  0  0  0  0
  8  7  1  0  0  0  0
  8  9  2  0  0  0  0
  9  2  1  0  0  0  0
 10  3  1  0  0  0  0
 10  4  1  0  0  0  0
 11  4  1  0  0  0  0
 11 16  1  0  0  0  0
 12 13  1  0  0  0  0
 12 11  2  0  0  0  0
 13 14  2  0  0  0  0
 14 25  1  0  0  0  0
 14 15  1  0  0  0  0
 15 26  1  0  0  0  0
 16 15  2  0  0  0  0
 16 27  1  0  0  0  0
 21  7  1  0  0  0  0
 22  8  1  0  0  0  0
 23 12  1  0  0  0  0
 24 13  1  0  0  0  0
M  END
