1
q = 0.0, confidence = 1.0

 60 61  0  0  0  0  0  0  0  0999 V2000
    1.0315   -0.0631    0.2204 N   0  0  0  0  0  2  0  0  0  0  0  0
    1.1319    2.2382    0.6903 N   0  0  0  0  0  0  0  0  0  0  0  0
   -0.4596    0.9299    1.7795 N   0  0  0  0  0  0  0  0  0  0  0  0
   -3.5791   -0.0415    0.2861 N   0  0  0  0  0  2  0  0  0  0  0  0
   -5.6901   -0.1344   -0.8792 N   0  0  0  0  0  0  0  0  0  0  0  0
   -5.5485   -0.5098    1.4297 N   0  0  0  0  0  0  0  0  0  0  0  0
    0.2267   -1.2029   -0.0428 C   0  0  0  0  0  0  0  0  0  0  0  0
    0.7396   -2.4737    0.3000 C   0  0  0  0  0  0  0  0  0  0  0  0
    1.7434   -2.5190    0.7500 H   0  0  0  0  0  0  0  0  0  0  0  0
   -0.0064   -3.6364    0.0905 C   0  0  0  0  0  0  0  0  0  0  0  0
    0.4180   -4.6137    0.3658 H   0  0  0  0  0  0  0  0  0  0  0  0
   -1.2948   -3.5474   -0.4611 C   0  0  0  0  0  0  0  0  0  0  0  0
   -1.8957   -4.4537   -0.6290 H   0  0  0  0  0  0  0  0  0  0  0  0
   -1.8041   -2.2928   -0.8138 C   0  0  0  0  0  0  0  0  0  0  0  0
   -2.8027   -2.2210   -1.2675 H   0  0  0  0  0  0  0  0  0  0  0  0
   -1.0621   -1.1051   -0.6384 C   0  0  0  0  0  0  0  0  0  0  0  0
   -1.6040    0.1938   -1.1199 C   0  0  0  0  0  0  0  0  0  0  0  0
   -0.8648    0.9478   -2.0545 C   0  0  0  0  0  0  0  0  0  0  0  0
    0.0938    0.5355   -2.4106 H   0  0  0  0  0  0  0  0  0  0  0  0
   -1.3297    2.1829   -2.5278 C   0  0  0  0  0  0  0  0  0  0  0  0
   -0.7338    2.7530   -3.2562 H   0  0  0  0  0  0  0  0  0  0  0  0
   -2.5578    2.6821   -2.0617 C   0  0  0  0  0  0  0  0  0  0  0  0
   -2.9284    3.6590   -2.4101 H   0  0  0  0  0  0  0  0  0  0  0  0
   -3.3192    1.9362   -1.1541 C   0  0  0  0  0  0  0  0  0  0  0  0
   -4.2769    2.3304   -0.7797 H   0  0  0  0  0  0  0  0  0  0  0  0
   -2.8729    0.6756   -0.6779 C   0  0  0  0  0  0  0  0  0  0  0  0
    0.5646    1.0068    0.8765 C   0  0  0  0  0  3  0  0  0  0  0  0
    1.7675    2.6335   -0.5561 C   0  0  0  0  0  0  0  0  0  0  0  0
    2.8706    2.7009   -0.4379 H   0  0  0  0  0  0  0  0  0  0  0  0
    1.3797    3.6287   -0.8659 H   0  0  0  0  0  0  0  0  0  0  0  0
    1.5532    1.8992   -1.3497 H   0  0  0  0  0  0  0  0  0  0  0  0
    1.3916    3.1136    1.8220 C   0  0  0  0  0  0  0  0  0  0  0  0
    1.0875    2.6181    2.7597 H   0  0  0  0  0  0  0  0  0  0  0  0
    0.8608    4.0862    1.7273 H   0  0  0  0  0  0  0  0  0  0  0  0
    2.4839    3.3063    1.8876 H   0  0  0  0  0  0  0  0  0  0  0  0
   -1.4248    2.0066    1.9365 C   0  0  0  0  0  0  0  0  0  0  0  0
   -1.3134    2.7316    1.1113 H   0  0  0  0  0  0  0  0  0  0  0  0
   -1.3077    2.5353    2.9088 H   0  0  0  0  0  0  0  0  0  0  0  0
   -2.4458    1.5782    1.8773 H   0  0  0  0  0  0  0  0  0  0  0  0
   -0.6931   -0.2680    2.5734 C   0  0  0  0  0  0  0  0  0  0  0  0
   -1.5274   -0.8739    2.1606 H   0  0  0  0  0  0  0  0  0  0  0  0
   -0.9476    0.0397    3.6098 H   0  0  0  0  0  0  0  0  0  0  0  0
    0.2287   -0.8742    2.6079 H   0  0  0  0  0  0  0  0  0  0  0  0
   -4.8736   -0.2037    0.2515 C   0  0  0  0  0  3  0  0  0  0  0  0
   -5.1846   -0.4210   -2.2068 C   0  0  0  0  0  0  0  0  0  0  0  0
   -4.9551    0.5011   -2.7878 H   0  0  0  0  0  0  0  0  0  0  0  0
   -5.9404   -1.0120   -2.7692 H   0  0  0  0  0  0  0  0  0  0  0  0
   -4.2555   -1.0140   -2.1452 H   0  0  0  0  0  0  0  0  0  0  0  0
   -6.9795    0.5315   -0.8392 C   0  0  0  0  0  0  0  0  0  0  0  0
   -7.2107    0.8391    0.1964 H   0  0  0  0  0  0  0  0  0  0  0  0
   -7.8014   -0.1240   -1.2070 H   0  0  0  0  0  0  0  0  0  0  0  0
   -6.9659    1.4440   -1.4806 H   0  0  0  0  0  0  0  0  0  0  0  0
   -4.8511   -0.3092    2.6853 C   0  0  0  0  0  0  0  0  0  0  0  0
   -4.1356   -1.1340    2.9112 H   0  0  0  0  0  0  0  0  0  0  0  0
   -5.5926   -0.2490    3.5081 H   0  0  0  0  0  0  0  0  0  0  0  0
   -4.2740    0.6322    2.6496 H   0  0  0  0  0  0  0  0  0  0  0  0
   -6.5545   -1.5616    1.4543 C   0  0  0  0  0  0  0  0  0  0  0  0
   -6.8795   -1.7982    0.4259 H   0  0  0  0  0  0  0  0  0  0  0  0
   -7.4437   -1.2587    2.0480 H   0  0  0  0  0  0  0  0  0  0  0  0
   -6.1426   -2.4945    1.9058 H   0  0  0  0  0  0  0  0  0  0  0  0
  1 27  1  0  0  0  0
  2 27  1  0  0  0  0
  2 32  1  0  0  0  0
  3 36  1  0  0  0  0
  3 40  1  0  0  0  0
  5 49  1  0  0  0  0
  5 44  1  0  0  0  0
  6 57  1  0  0  0  0
  6 53  1  0  0  0  0
  7  1  1  0  0  0  0
  7  8  1  0  0  0  0
  8  9  1  0  0  0  0
 10  8  2  0  0  0  0
 10 11  1  0  0  0  0
 12 10  1  0  0  0  0
 13 12  1  0  0  0  0
 14 16  1  0  0  0  0
 14 12  2  0  0  0  0
 15 14  1  0  0  0  0
 16  7  2  0  0  0  0
 17 26  1  0  0  0  0
 17 16  1  0  0  0  0
 18 17  2  0  0  0  0
 19 18  1  0  0  0  0
 20 22  2  0  0  0  0
 20 18  1  0  0  0  0
 21 20  1  0  0  0  0
 22 24  1  0  0  0  0
 23 22  1  0  0  0  0
 24 25  1  0  0  0  0
 24 26  2  0  0  0  0
 26  4  1  0  0  0  0
 27  3  1  0  0  0  0
 28 29  1  0  0  0  0
 28  2  1  0  0  0  0
 30 28  1  0  0  0  0
 31 28  1  0  0  0  0
 32 35  1  0  0  0  0
 32 33  1  0  0  0  0
 34 32  1  0  0  0  0
 36 38  1  0  0  0  0
 37 36  1  0  0  0  0
 39 36  1  0  0  0  0
 40 43  1  0  0  0  0
 40 42  1  0  0  0  0
 41 40  1  0  0  0  0
 44  4  1  0  0  0  0
 44  6  1  0  0  0  0
 45 48  1  0  0  0  0
 45  5  1  0  0  0  0
 46 45  1  0  0  0  0
 47 45  1  0  0  0  0
 49 50  1  0  0  0  0
 51 49  1  0  0  0  0
 52 49  1  0  0  0  0
 53 54  1  0  0  0  0
 53 55  1  0  0  0  0
 56 53  1  0  0  0  0
 57 60  1  0  0  0  0
 57 59  1  0  0  0  0
 58 57  1  0  0  0  0
M  END
