1
q = 0.0, confidence = 0.99

 56 57  0  0  0  0  0  0  0  0999 V2000
   -0.4334    0.4065    0.4202 N   0  0  0  0  0  2  0  0  0  0  0  0
    0.3796    0.5450    2.6430 N   0  0  0  0  0  0  0  0  0  0  0  0
   -0.3159   -1.5103    1.7704 N   0  0  0  0  0  0  0  0  0  0  0  0
    2.2931   -0.5093    0.3985 N   0  0  0  0  0  2  0  0  0  0  0  0
    3.0276   -2.7061    0.1126 N   0  0  0  0  0  0  0  0  0  0  0  0
    3.1832   -1.2397   -1.7052 N   0  0  0  0  0  0  0  0  0  0  0  0
    0.1688    1.6265    0.0191 C   0  0  0  0  0  0  0  0  0  0  0  0
   -0.6962    2.6553   -0.3728 C   0  0  0  0  0  0  0  0  0  0  0  0
   -1.7754    2.4357   -0.3852 H   0  0  0  0  0  0  0  0  0  0  0  0
   -0.2290    3.9466   -0.6897 C   0  0  0  0  0  0  0  0  0  0  0  0
   -0.9476    4.7269   -0.9821 H   0  0  0  0  0  0  0  0  0  0  0  0
    1.1226    4.2287   -0.5949 C   0  0  0  0  0  0  0  0  0  0  0  0
    1.5060    5.2387   -0.8054 H   0  0  0  0  0  0  0  0  0  0  0  0
    2.0553    3.2084   -0.2482 C   0  0  0  0  0  0  0  0  0  0  0  0
    3.4458    3.5234   -0.2168 C   0  0  0  0  0  0  0  0  0  0  0  0
    3.7523    4.5617   -0.4140 H   0  0  0  0  0  0  0  0  0  0  0  0
    4.3845    2.5387    0.0393 C   0  0  0  0  0  0  0  0  0  0  0  0
    5.4579    2.7820    0.0674 H   0  0  0  0  0  0  0  0  0  0  0  0
    3.9640    1.2078    0.2411 C   0  0  0  0  0  0  0  0  0  0  0  0
    4.7076    0.4151    0.4152 H   0  0  0  0  0  0  0  0  0  0  0  0
    2.6078    0.8349    0.2184 C   0  0  0  0  0  0  0  0  0  0  0  0
    1.5974    1.8575    0.0292 C   0  0  0  0  0  0  0  0  0  0  0  0
   -0.1024   -0.1749    1.5810 C   0  0  0  0  0  3  0  0  0  0  0  0
    1.4547    0.0458    3.4791 C   0  0  0  0  0  0  0  0  0  0  0  0
    1.8175   -0.9105    3.0677 H   0  0  0  0  0  0  0  0  0  0  0  0
    1.1317   -0.0967    4.5346 H   0  0  0  0  0  0  0  0  0  0  0  0
    2.3020    0.7660    3.4664 H   0  0  0  0  0  0  0  0  0  0  0  0
   -0.0869    1.8966    2.9118 C   0  0  0  0  0  0  0  0  0  0  0  0
    0.6287    2.6723    2.5615 H   0  0  0  0  0  0  0  0  0  0  0  0
   -0.2243    2.0107    4.0081 H   0  0  0  0  0  0  0  0  0  0  0  0
   -1.0652    2.0515    2.4236 H   0  0  0  0  0  0  0  0  0  0  0  0
   -0.3650   -2.4405    0.6577 C   0  0  0  0  0  0  0  0  0  0  0  0
   -1.4135   -2.7009    0.3933 H   0  0  0  0  0  0  0  0  0  0  0  0
    0.1661   -3.3753    0.9404 H   0  0  0  0  0  0  0  0  0  0  0  0
    0.1133   -1.9926   -0.2294 H   0  0  0  0  0  0  0  0  0  0  0  0
   -0.8164   -2.0189    3.0353 C   0  0  0  0  0  0  0  0  0  0  0  0
   -0.9528   -1.1873    3.7472 H   0  0  0  0  0  0  0  0  0  0  0  0
   -0.1282   -2.7734    3.4771 H   0  0  0  0  0  0  0  0  0  0  0  0
   -1.8101   -2.4904    2.8765 H   0  0  0  0  0  0  0  0  0  0  0  0
    2.8247   -1.4214   -0.3753 C   0  0  0  0  0  3  0  0  0  0  0  0
    2.7704   -3.8839   -0.6958 C   0  0  0  0  0  0  0  0  0  0  0  0
    1.9556   -4.4968   -0.2472 H   0  0  0  0  0  0  0  0  0  0  0  0
    3.6690   -4.5343   -0.7892 H   0  0  0  0  0  0  0  0  0  0  0  0
    2.4500   -3.5747   -1.7069 H   0  0  0  0  0  0  0  0  0  0  0  0
    3.1446   -2.9204    1.5379 C   0  0  0  0  0  0  0  0  0  0  0  0
    3.5162   -1.9971    2.0176 H   0  0  0  0  0  0  0  0  0  0  0  0
    3.8591   -3.7477    1.7366 H   0  0  0  0  0  0  0  0  0  0  0  0
    2.1721   -3.1873    2.0149 H   0  0  0  0  0  0  0  0  0  0  0  0
    2.5387   -0.2206   -2.5174 C   0  0  0  0  0  0  0  0  0  0  0  0
    1.4984   -0.0582   -2.1798 H   0  0  0  0  0  0  0  0  0  0  0  0
    2.4952   -0.5792   -3.5673 H   0  0  0  0  0  0  0  0  0  0  0  0
    3.0848    0.7495   -2.4995 H   0  0  0  0  0  0  0  0  0  0  0  0
    4.4444   -1.7447   -2.2176 C   0  0  0  0  0  0  0  0  0  0  0  0
    5.1377   -0.9005   -2.4417 H   0  0  0  0  0  0  0  0  0  0  0  0
    4.3069   -2.3289   -3.1547 H   0  0  0  0  0  0  0  0  0  0  0  0
    4.9285   -2.3934   -1.4653 H   0  0  0  0  0  0  0  0  0  0  0  0
  1 23  1  0  0  0  0
  2 28  1  0  0  0  0
  2 24  1  0  0  0  0
  3 36  1  0  0  0  0
  5 45  1  0  0  0  0
  6 40  1  0  0  0  0
  7 22  1  0  0  0  0
  7  1  1  0  0  0  0
  8  7  2  0  0  0  0
  9  8  1  0  0  0  0
 10 12  2  0  0  0  0
 10  8  1  0  0  0  0
 11 10  1  0  0  0  0
 12 14  1  0  0  0  0
 13 12  1  0  0  0  0
 14 15  2  0  0  0  0
 14 22  1  0  0  0  0
 15 17  1  0  0  0  0
 16 15  1  0  0  0  0
 17 18  1  0  0  0  0
 17 19  2  0  0  0  0
 19 20  1  0  0  0  0
 21 19  1  0  0  0  0
 21  4  1  0  0  0  0
 22 21  2  0  0  0  0
 23  3  1  0  0  0  0
 23  2  1  0  0  0  0
 24 26  1  0  0  0  0
 25 24  1  0  0  0  0
 27 24  1  0  0  0  0
 28 30  1  0  0  0  0
 29 28  1  0  0  0  0
 31 28  1  0  0  0  0
 32 34  1  0  0  0  0
 32  3  1  0  0  0  0
 33 32  1  0  0  0  0
 35 32  1  0  0  0  0
 36 38  1  0  0  0  0
 36 37  1  0  0  0  0
 39 36  1  0  0  0  0
 40  5  1  0  0  0  0
 40  4  1  0  0  0  0
 41 42  1  0  0  0  0
 41  5  1  0  0  0  0
 43 41  1  0  0  0  0
 44 41  1  0  0  0  0
 45 47  1  0  0  0  0
 45 48  1  0  0  0  0
 45 46  1  0  0  0  0
 49 52  1  0  0  0  0
 49 50  1  0  0  0  0
 49  6  1  0  0  0  0
 51 49  1  0  0  0  0
 53  6  1  0  0  0  0
 53 56  1  0  0  0  0
 54 53  1  0  0  0  0
 55 53  1  0  0  0  0
M  END
