1
q = 0.0, confidence = 0.99

 20 21  0  0  1  0  0  0  0  0999 V2000
    1.6935    0.5240    1.2089 N   0  0  0  0  0  0  0  0  0  0  0  0
    2.2173   -0.5005    2.1120 C   0  0  0  0  0  0  0  0  0  0  0  0
    2.8876   -0.2338    0.7967 C   0  0  2  0  0  0  0  0  0  0  0  0
    4.1635    0.5726    0.8426 C   0  0  0  0  0  0  0  0  0  0  0  0
    4.1525    1.6487    1.4441 O   0  0  0  0  0  0  0  0  0  0  0  0
    5.3862    0.0396    0.1862 C   0  0  0  0  0  0  0  0  0  0  0  0
    5.4231   -1.2190   -0.4540 C   0  0  0  0  0  0  0  0  0  0  0  0
    6.6103   -1.6723   -1.0445 C   0  0  0  0  0  0  0  0  0  0  0  0
    7.7649   -0.8743   -1.0048 C   0  0  0  0  0  0  0  0  0  0  0  0
    7.7356    0.3805   -0.3694 C   0  0  0  0  0  0  0  0  0  0  0  0
    6.5546    0.8340    0.2241 C   0  0  0  0  0  0  0  0  0  0  0  0
    2.0242    1.4692    1.4836 H   0  0  0  0  0  0  0  0  0  0  0  0
    1.5964   -1.4088    2.1839 H   0  0  0  0  0  0  0  0  0  0  0  0
    2.7261   -0.1472    3.0235 H   0  0  0  0  0  0  0  0  0  0  0  0
    2.7072   -0.9547   -0.0158 H   0  0  0  0  0  0  0  0  0  0  0  0
    4.5267   -1.8541   -0.4941 H   0  0  0  0  0  0  0  0  0  0  0  0
    6.6337   -2.6532   -1.5420 H   0  0  0  0  0  0  0  0  0  0  0  0
    8.6944   -1.2313   -1.4738 H   0  0  0  0  0  0  0  0  0  0  0  0
    8.6414    1.0047   -0.3408 H   0  0  0  0  0  0  0  0  0  0  0  0
    6.4987    1.8094    0.7294 H   0  0  0  0  0  0  0  0  0  0  0  0
  1 12  1  0  0  0  0
  1  2  1  0  0  0  0
  2 13  1  0  0  0  0
  2 14  1  0  0  0  0
  3 15  1  6  0  0  0
  3  4  1  0  0  0  0
  3  1  1  0  0  0  0
  3  2  1  0  0  0  0
  4  5  2  0  0  0  0
  6 11  1  0  0  0  0
  6  4  1  0  0  0  0
  7  6  2  0  0  0  0
  8  9  2  0  0  0  0
  8  7  1  0  0  0  0
  9 10  1  0  0  0  0
 10 19  1  0  0  0  0
 10 11  2  0  0  0  0
 11 20  1  0  0  0  0
 16  7  1  0  0  0  0
 17  8  1  0  0  0  0
 18  9  1  0  0  0  0
M  END
