1
q = 0.0, confidence = 1.0

 21 22  0  0  1  0  0  0  0  0999 V2000
    1.6384    1.1292   -0.3503 N   0  0  0  0  0  2  0  0  0  0  0  0
    2.6218    0.2183   -0.1561 N   0  0  0  0  0  0  0  0  0  0  0  0
    2.4915   -0.3964    0.6858 H   0  0  0  0  0  0  0  0  0  0  0  0
    1.2722    2.9892   -1.7724 N   0  0  0  0  0  0  0  0  0  0  0  0
    0.3753    3.1077   -1.2787 H   0  0  0  0  0  0  0  0  0  0  0  0
    1.3216    3.2852   -2.7443 H   0  0  0  0  0  0  0  0  0  0  0  0
    3.6265    0.3642   -1.0526 C   0  0  1  0  0  3  0  0  0  0  0  0
    3.2704    1.4427   -1.8855 C   0  0  0  0  0  0  0  0  0  0  0  0
    3.8583    1.8727   -2.7010 H   0  0  0  0  0  0  0  0  0  0  0  0
    2.0193    1.9068   -1.3959 C   0  0  0  0  0  0  0  0  0  0  0  0
    4.8170   -0.4916   -1.0238 C   0  0  0  0  0  0  0  0  0  0  0  0
    5.0625   -1.3567    0.0692 C   0  0  0  0  0  0  0  0  0  0  0  0
    4.3633   -1.3869    0.9194 H   0  0  0  0  0  0  0  0  0  0  0  0
    6.2008   -2.1719    0.0877 C   0  0  0  0  0  0  0  0  0  0  0  0
    6.3766   -2.8377    0.9463 H   0  0  0  0  0  0  0  0  0  0  0  0
    7.1169   -2.1382   -0.9764 C   0  0  0  0  0  0  0  0  0  0  0  0
    8.0115   -2.7787   -0.9579 H   0  0  0  0  0  0  0  0  0  0  0  0
    6.8837   -1.2807   -2.0638 C   0  0  0  0  0  0  0  0  0  0  0  0
    7.5945   -1.2486   -2.9034 H   0  0  0  0  0  0  0  0  0  0  0  0
    5.7449   -0.4662   -2.0888 C   0  0  0  0  0  0  0  0  0  0  0  0
    5.5632    0.1929   -2.9504 H   0  0  0  0  0  0  0  0  0  0  0  0
  1  2  1  0  0  0  0
  2  3  1  0  0  0  0
  4 10  1  0  0  0  0
  4  5  1  0  0  0  0
  6  4  1  0  0  0  0
  7 11  1  1  0  0  0
  7  2  1  0  0  0  0
  8 10  2  0  0  0  0
  8  7  1  0  0  0  0
  9  8  1  0  0  0  0
 10  1  1  0  0  0  0
 11 12  1  0  0  0  0
 12 14  2  0  0  0  0
 12 13  1  0  0  0  0
 14 15  1  0  0  0  0
 16 17  1  0  0  0  0
 16 14  1  0  0  0  0
 18 16  2  0  0  0  0
 19 18  1  0  0  0  0
 20 18  1  0  0  0  0
 20 11  2  0  0  0  0
 21 20  1  0  0  0  0
M  END
