2
q = 0.0, confidence = 0.992

 11 11  0  0  0  0  0  0  0  0999 V2000
    5.9455   -0.9536   -0.8227 Cl  0  0  0  0  0  0  0  0  0  0  0  0
    1.5558   -0.1441   -0.0636 N   0  0  0  0  0  2  0  0  0  0  0  0
    1.9780   -0.5668   -1.2757 C   0  0  0  0  0  3  0  0  0  0  0  0
    3.3220   -0.8273   -1.5554 C   0  0  0  0  0  0  0  0  0  0  0  0
    4.2652   -0.6435   -0.5322 C   0  0  0  0  0  0  0  0  0  0  0  0
    3.8317   -0.2055    0.7291 C   0  0  0  0  0  0  0  0  0  0  0  0
    2.4680    0.0328    0.9176 C   0  0  0  0  0  0  0  0  0  0  0  0
    1.2026   -0.6997   -2.0460 H   0  0  0  0  0  0  0  0  0  0  0  0
    3.6265   -1.1686   -2.5537 H   0  0  0  0  0  0  0  0  0  0  0  0
    4.5426   -0.0507    1.5516 H   0  0  0  0  0  0  0  0  0  0  0  0
    2.0833    0.3838    1.8877 H   0  0  0  0  0  0  0  0  0  0  0  0
  1  5  1  0  0  0  0
  2  7  1  0  0  0  0
  3  2  1  0  0  0  0
  4  3  1  0  0  0  0
  4  5  2  0  0  0  0
  5  6  1  0  0  0  0
  6  7  2  0  0  0  0
  6 10  1  0  0  0  0
  7 11  1  0  0  0  0
  8  3  1  0  0  0  0
  9  4  1  0  0  0  0
M  END
