1
q = 0.0, confidence = 0.856

  5  4  0  0  0  0  0  0  0  0999 V2000
    0.0449    0.6883   -2.0415 N   0  0  0  0  0  2  0  0  0  0  0  0
   -0.5839    0.4546   -3.0810 O   0  0  0  0  0  1  0  0  0  0  0  0
    1.3297    1.1227   -2.1583 C   0  0  0  0  0  0  0  0  0  0  0  0
    2.4732    1.5660   -2.1786 C   0  0  0  0  0  0  0  0  0  0  0  0
    3.4796    1.9593   -2.1890 H   0  0  0  0  0  0  0  0  0  0  0  0
  2  1  1  0  0  0  0
  3  1  1  0  0  0  0
  4  3  3  0  0  0  0
  5  4  1  0  0  0  0
M  END
