13
q = 0.0, confidence = 0.994

 24 25  0  0  1  0  0  0  0  0999 V2000
   -1.8911    1.1626   -0.3928 C   0  0  2  0  0  3  0  0  0  0  0  0
   -3.1912    1.6799   -0.2479 C   0  0  0  0  0  0  0  0  0  0  0  0
   -4.2264    0.8713    0.2351 C   0  0  0  0  0  0  0  0  0  0  0  0
   -3.9479   -0.4606    0.5748 C   0  0  0  0  0  0  0  0  0  0  0  0
   -2.6406   -0.9217    0.4225 C   0  0  0  0  0  0  0  0  0  0  0  0
   -0.7856    2.0083   -0.9855 C   0  0  0  0  0  0  0  0  0  0  0  0
    0.5831    1.8697   -0.3493 C   0  0  0  0  0  0  0  0  0  0  0  0
    1.7333    1.7144   -1.1541 C   0  0  0  0  0  0  0  0  0  0  0  0
    3.0086    1.6226   -0.5713 C   0  0  0  0  0  0  0  0  0  0  0  0
    3.1500    1.6728    0.8241 C   0  0  0  0  0  0  0  0  0  0  0  0
    2.0130    1.8266    1.6367 C   0  0  0  0  0  0  0  0  0  0  0  0
    0.7395    1.9310    1.0561 C   0  0  0  0  0  0  0  0  0  0  0  0
   -1.6420   -0.1300   -0.0446 N   0  0  0  0  0  2  0  0  0  0  0  0
   -3.3796    2.7274   -0.5237 H   0  0  0  0  0  0  0  0  0  0  0  0
   -5.2424    1.2781    0.3477 H   0  0  0  0  0  0  0  0  0  0  0  0
   -4.7250   -1.1363    0.9581 H   0  0  0  0  0  0  0  0  0  0  0  0
   -2.3719   -1.9572    0.6832 H   0  0  0  0  0  0  0  0  0  0  0  0
   -0.7142    1.7633   -2.0685 H   0  0  0  0  0  0  0  0  0  0  0  0
   -1.1139    3.0675   -0.9462 H   0  0  0  0  0  0  0  0  0  0  0  0
    1.6287    1.6783   -2.2502 H   0  0  0  0  0  0  0  0  0  0  0  0
    3.8949    1.5129   -1.2137 H   0  0  0  0  0  0  0  0  0  0  0  0
    4.1481    1.6022    1.2813 H   0  0  0  0  0  0  0  0  0  0  0  0
    2.1202    1.8802    2.7303 H   0  0  0  0  0  0  0  0  0  0  0  0
   -0.1434    2.0698    1.7003 H   0  0  0  0  0  0  0  0  0  0  0  0
  1  6  1  6  0  0  0
  1  2  1  0  0  0  0
  1 13  1  0  0  0  0
  2  3  2  0  0  0  0
  3 15  1  0  0  0  0
  3  4  1  0  0  0  0
  4 16  1  0  0  0  0
  5  4  2  0  0  0  0
  5 17  1  0  0  0  0
  6 19  1  0  0  0  0
  6  7  1  0  0  0  0
  7 12  1  0  0  0  0
  8  9  1  0  0  0  0
  8  7  2  0  0  0  0
  9 10  2  0  0  0  0
 10 22  1  0  0  0  0
 10 11  1  0  0  0  0
 11 23  1  0  0  0  0
 12 11  2  0  0  0  0
 12 24  1  0  0  0  0
 13  5  1  0  0  0  0
 14  2  1  0  0  0  0
 18  6  1  0  0  0  0
 20  8  1  0  0  0  0
 21  9  1  0  0  0  0
M  END
