1
q = 0.0, confidence = 0.994

 15 15  0  0  1  0  0  0  0  0999 V2000
   -1.8785   -0.1885   -0.3425 N   0  0  0  0  0  2  0  0  0  0  0  0
   -2.5132    0.5412   -1.3174 C   0  0  1  0  0  3  0  0  0  0  0  0
   -2.5104   -1.0703    0.4611 C   0  0  0  0  0  0  0  0  0  0  0  0
   -3.8791    0.2584   -1.3344 C   0  0  0  0  0  3  0  0  0  0  0  0
   -1.7643    1.4983   -2.1809 C   0  0  0  0  0  0  0  0  0  0  0  0
   -3.9037   -1.3608    0.4307 C   0  0  0  0  0  0  0  0  0  0  0  0
   -1.8632   -1.6112    1.1698 H   0  0  0  0  0  0  0  0  0  0  0  0
   -4.4598   -0.5687   -0.5713 C   0  0  0  0  0  3  0  0  0  0  0  0
   -1.8240    2.5207   -1.7469 H   0  0  0  0  0  0  0  0  0  0  0  0
   -2.2124    1.5274   -3.1917 H   0  0  0  0  0  0  0  0  0  0  0  0
   -0.6971    1.2151   -2.2474 H   0  0  0  0  0  0  0  0  0  0  0  0
   -4.5632   -2.3538    1.3345 C   0  0  0  0  0  0  0  0  0  0  0  0
   -5.0654   -3.1477    0.7454 H   0  0  0  0  0  0  0  0  0  0  0  0
   -3.8293   -2.8327    2.0095 H   0  0  0  0  0  0  0  0  0  0  0  0
   -5.3416   -1.8643    1.9544 H   0  0  0  0  0  0  0  0  0  0  0  0
  1  3  1  0  0  0  0
  2  5  1  1  0  0  0
  2  1  1  0  0  0  0
  3  7  1  0  0  0  0
  4  2  1  0  0  0  0
  4  8  2  0  0  0  0
  5  9  1  0  0  0  0
  6  3  2  0  0  0  0
  6 12  1  0  0  0  0
  8  6  1  0  0  0  0
 10  5  1  0  0  0  0
 11  5  1  0  0  0  0
 12 15  1  0  0  0  0
 12 14  1  0  0  0  0
 13 12  1  0  0  0  0
M  END
