1
q = 0.0, confidence = 0.994

 29 30  0  0  0  0  0  0  0  0999 V2000
    0.4537    1.3574   -0.4342 N   0  0  0  0  0  2  0  0  0  0  0  0
   -0.6599    2.0586   -0.4005 C   0  0  0  0  0  0  0  0  0  0  0  0
   -1.9875    1.5314   -0.4604 C   0  0  0  0  0  0  0  0  0  0  0  0
   -3.0856    2.3487   -0.4612 C   0  0  0  0  0  3  0  0  0  0  0  0
    1.6462    2.1248   -0.2356 C   0  0  0  0  0  0  0  0  0  0  0  0
    2.6993    2.0860   -1.1701 C   0  0  0  0  0  0  0  0  0  0  0  0
    2.6127    1.4526   -2.0608 H   0  0  0  0  0  0  0  0  0  0  0  0
    3.8387    2.8770   -0.9734 C   0  0  0  0  0  0  0  0  0  0  0  0
    4.6512    2.8410   -1.7141 H   0  0  0  0  0  0  0  0  0  0  0  0
    3.9498    3.7040    0.1554 C   0  0  0  0  0  0  0  0  0  0  0  0
    4.8517    4.3151    0.3074 H   0  0  0  0  0  0  0  0  0  0  0  0
    2.9089    3.7334    1.0958 C   0  0  0  0  0  0  0  0  0  0  0  0
    2.9905    4.3650    1.9936 H   0  0  0  0  0  0  0  0  0  0  0  0
    1.7620    2.9491    0.9045 C   0  0  0  0  0  0  0  0  0  0  0  0
    0.9541    2.9445    1.6513 H   0  0  0  0  0  0  0  0  0  0  0  0
   -4.4745    1.9185   -0.5153 C   0  0  0  0  0  0  0  0  0  0  0  0
   -5.5036    2.8874   -0.4005 C   0  0  0  0  0  0  0  0  0  0  0  0
   -5.2287    3.9473   -0.2809 H   0  0  0  0  0  0  0  0  0  0  0  0
   -6.8515    2.5131   -0.4313 C   0  0  0  0  0  0  0  0  0  0  0  0
   -7.6367    3.2784   -0.3380 H   0  0  0  0  0  0  0  0  0  0  0  0
   -7.1987    1.1603   -0.5829 C   0  0  0  0  0  0  0  0  0  0  0  0
   -8.2579    0.8624   -0.6091 H   0  0  0  0  0  0  0  0  0  0  0  0
   -6.1894    0.1881   -0.7055 C   0  0  0  0  0  0  0  0  0  0  0  0
   -6.4552   -0.8728   -0.8247 H   0  0  0  0  0  0  0  0  0  0  0  0
   -4.8428    0.5575   -0.6740 C   0  0  0  0  0  0  0  0  0  0  0  0
   -4.0695   -0.2171   -0.7782 H   0  0  0  0  0  0  0  0  0  0  0  0
   -2.9223    3.4405   -0.4076 H   0  0  0  0  0  0  0  0  0  0  0  0
   -0.5648    3.1613   -0.3284 H   0  0  0  0  0  0  0  0  0  0  0  0
   -2.1037    0.4419   -0.4858 H   0  0  0  0  0  0  0  0  0  0  0  0
  1  2  1  0  0  0  0
  1  5  1  0  0  0  0
  2 28  1  0  0  0  0
  3  2  2  0  0  0  0
  4  3  1  0  0  0  0
  4 27  1  0  0  0  0
  5 14  1  0  0  0  0
  6  8  1  0  0  0  0
  6  5  2  0  0  0  0
  7  6  1  0  0  0  0
  8 10  2  0  0  0  0
  9  8  1  0  0  0  0
 10 11  1  0  0  0  0
 10 12  1  0  0  0  0
 12 13  1  0  0  0  0
 14 12  2  0  0  0  0
 14 15  1  0  0  0  0
 16  4  1  0  0  0  0
 16 17  1  0  0  0  0
 17 18  1  0  0  0  0
 19 17  2  0  0  0  0
 19 20  1  0  0  0  0
 21 19  1  0  0  0  0
 22 21  1  0  0  0  0
 23 25  1  0  0  0  0
 23 21  2  0  0  0  0
 24 23  1  0  0  0  0
 25 16  2  0  0  0  0
 26 25  1  0  0  0  0
 29  3  1  0  0  0  0
M  END
