2
q = 0.0, confidence = 1.0

 29 30  0  0  0  0  0  0  0  0999 V2000
    5.0910    3.8683    0.2531 F   0  0  0  0  0  0  0  0  0  0  0  0
    0.2406    1.2234   -0.4908 N   0  0  0  0  0  2  0  0  0  0  0  0
   -0.8239    1.9979   -0.4632 C   0  0  0  0  0  0  0  0  0  0  0  0
   -0.6553    3.0936   -0.4235 H   0  0  0  0  0  0  0  0  0  0  0  0
   -2.1837    1.5583   -0.4919 C   0  0  0  0  0  0  0  0  0  0  0  0
   -2.3718    0.4785   -0.4870 H   0  0  0  0  0  0  0  0  0  0  0  0
   -3.2253    2.4470   -0.5017 C   0  0  0  0  0  3  0  0  0  0  0  0
   -2.9886    3.5264   -0.4789 H   0  0  0  0  0  0  0  0  0  0  0  0
    1.4854    1.9070   -0.3187 C   0  0  0  0  0  0  0  0  0  0  0  0
    2.5348    1.7554   -1.2478 C   0  0  0  0  0  0  0  0  0  0  0  0
    2.3959    1.1148   -2.1264 H   0  0  0  0  0  0  0  0  0  0  0  0
    3.7456    2.4327   -1.0678 C   0  0  0  0  0  0  0  0  0  0  0  0
    4.5723    2.3207   -1.7830 H   0  0  0  0  0  0  0  0  0  0  0  0
    3.9119    3.2514    0.0554 C   0  0  0  0  0  0  0  0  0  0  0  0
    2.8850    3.4247    0.9900 C   0  0  0  0  0  0  0  0  0  0  0  0
    3.0537    4.0655    1.8672 H   0  0  0  0  0  0  0  0  0  0  0  0
    1.6721    2.7494    0.7984 C   0  0  0  0  0  0  0  0  0  0  0  0
    0.8668    2.8406    1.5421 H   0  0  0  0  0  0  0  0  0  0  0  0
   -4.6403    2.1106   -0.5297 C   0  0  0  0  0  0  0  0  0  0  0  0
   -5.6001    3.1502   -0.4324 C   0  0  0  0  0  0  0  0  0  0  0  0
   -5.2527    4.1918   -0.3446 H   0  0  0  0  0  0  0  0  0  0  0  0
   -6.9704    2.8678   -0.4414 C   0  0  0  0  0  0  0  0  0  0  0  0
   -7.7009    3.6869   -0.3625 H   0  0  0  0  0  0  0  0  0  0  0  0
   -7.4100    1.5382   -0.5531 C   0  0  0  0  0  0  0  0  0  0  0  0
   -8.4872    1.3125   -0.5624 H   0  0  0  0  0  0  0  0  0  0  0  0
   -6.4704    0.4964   -0.6573 C   0  0  0  0  0  0  0  0  0  0  0  0
   -6.8087   -0.5467   -0.7450 H   0  0  0  0  0  0  0  0  0  0  0  0
   -5.1016    0.7740   -0.6473 C   0  0  0  0  0  0  0  0  0  0  0  0
   -4.3839   -0.0541   -0.7362 H   0  0  0  0  0  0  0  0  0  0  0  0
  2  3  1  0  0  0  0
  2  9  1  0  0  0  0
  3  4  1  0  0  0  0
  5  6  1  0  0  0  0
  5  3  2  0  0  0  0
  7  5  1  0  0  0  0
  7  8  1  0  0  0  0
  9 17  1  0  0  0  0
 10 12  1  0  0  0  0
 10  9  2  0  0  0  0
 11 10  1  0  0  0  0
 12 14  2  0  0  0  0
 13 12  1  0  0  0  0
 14  1  1  0  0  0  0
 14 15  1  0  0  0  0
 15 16  1  0  0  0  0
 17 15  2  0  0  0  0
 17 18  1  0  0  0  0
 19  7  1  0  0  0  0
 19 20  1  0  0  0  0
 20 21  1  0  0  0  0
 22 20  2  0  0  0  0
 22 23  1  0  0  0  0
 24 22  1  0  0  0  0
 25 24  1  0  0  0  0
 26 28  1  0  0  0  0
 26 24  2  0  0  0  0
 27 26  1  0  0  0  0
 28 19  2  0  0  0  0
 29 28  1  0  0  0  0
M  END
