1
q = 0.0, confidence = 0.998

 24 26  0  0  0  0  0  0  0  0999 V2000
   -0.2768    0.2656   -0.3688 N   0  0  0  0  0  2  0  0  0  0  0  0
   -1.0915   -0.6290   -0.8686 N   0  0  0  0  0  2  0  0  0  0  0  0
   -2.3129   -0.0678   -0.9918 N   0  0  0  0  0  0  0  0  0  0  0  0
   -4.3631   -1.2097   -0.4402 N   0  0  0  0  0  0  0  0  0  0  0  0
   -5.4275   -0.4001   -0.2293 N   0  0  0  0  0  0  0  0  0  0  0  0
   -0.9682    1.4501   -0.1427 C   0  0  0  0  0  0  0  0  0  0  0  0
   -0.5624    2.6973    0.3730 C   0  0  0  0  0  0  0  0  0  0  0  0
    0.4768    2.8730    0.6789 H   0  0  0  0  0  0  0  0  0  0  0  0
   -1.5429    3.6846    0.4752 C   0  0  0  0  0  0  0  0  0  0  0  0
   -1.2698    4.6726    0.8736 H   0  0  0  0  0  0  0  0  0  0  0  0
   -2.8908    3.4478    0.0885 C   0  0  0  0  0  0  0  0  0  0  0  0
   -3.6272    4.2567    0.2056 H   0  0  0  0  0  0  0  0  0  0  0  0
   -3.3105    2.2186   -0.4238 C   0  0  0  0  0  0  0  0  0  0  0  0
   -4.3560    2.0070   -0.6871 H   0  0  0  0  0  0  0  0  0  0  0  0
   -2.3127    1.2323   -0.5390 C   0  0  0  0  0  0  0  0  0  0  0  0
   -3.4213   -0.8735   -1.4769 C   0  0  0  0  0  0  0  0  0  0  0  0
   -3.9735   -0.3119   -2.2538 H   0  0  0  0  0  0  0  0  0  0  0  0
   -2.9724   -1.7871   -1.9080 H   0  0  0  0  0  0  0  0  0  0  0  0
   -4.2597   -2.2088    0.4948 C   0  0  0  0  0  0  0  0  0  0  0  0
   -3.4398   -2.9358    0.4700 H   0  0  0  0  0  0  0  0  0  0  0  0
   -5.3385   -2.0467    1.3545 C   0  0  0  0  0  0  0  0  0  0  0  0
   -5.5971   -2.6700    2.2166 H   0  0  0  0  0  0  0  0  0  0  0  0
   -6.0269   -0.9073    0.8537 C   0  0  0  0  0  0  0  0  0  0  0  0
   -6.9424   -0.4392    1.2372 H   0  0  0  0  0  0  0  0  0  0  0  0
  1  6  1  0  0  0  0
  2  1  1  0  0  0  0
  3  2  1  0  0  0  0
  3 15  1  0  0  0  0
  4  5  1  0  0  0  0
  4 19  1  0  0  0  0
  5 23  2  0  0  0  0
  6  7  1  0  0  0  0
  7  9  2  0  0  0  0
  7  8  1  0  0  0  0
  9 10  1  0  0  0  0
 11 12  1  0  0  0  0
 11  9  1  0  0  0  0
 13 11  2  0  0  0  0
 14 13  1  0  0  0  0
 15 13  1  0  0  0  0
 15  6  2  0  0  0  0
 16  3  1  0  0  0  0
 16  4  1  0  0  0  0
 17 16  1  0  0  0  0
 18 16  1  0  0  0  0
 19 21  2  0  0  0  0
 20 19  1  0  0  0  0
 21 22  1  0  0  0  0
 23 24  1  0  0  0  0
 23 21  1  0  0  0  0
M  END
