3
q = 0.0, confidence = 1.0

 13 13  0  0  0  0  0  0  0  0999 V2000
   -0.3003   -1.9348   -1.6238 O   0  0  0  0  0  0  0  0  0  0  0  0
   -2.4452   -2.7386   -1.5249 N   0  0  0  0  0  0  0  0  0  0  0  0
   -1.8507   -0.7298   -0.4228 N   0  0  0  0  0  2  0  0  0  0  0  0
   -3.4036    0.4037    0.8644 N   0  0  0  0  0  0  0  0  0  0  0  0
   -1.4439   -1.7872   -1.2051 C   0  0  0  0  0  0  0  0  0  0  0  0
   -3.1015   -0.6286    0.0652 C   0  0  0  0  0  0  0  0  0  0  0  0
   -4.1097   -1.6094   -0.2766 C   0  0  0  0  0  0  0  0  0  0  0  0
   -3.7282   -2.6493   -1.0794 C   0  0  0  0  0  3  0  0  0  0  0  0
   -2.1380   -3.5104   -2.1200 H   0  0  0  0  0  0  0  0  0  0  0  0
   -5.1368   -1.5281    0.0989 H   0  0  0  0  0  0  0  0  0  0  0  0
   -4.4191   -3.4461   -1.3919 H   0  0  0  0  0  0  0  0  0  0  0  0
   -2.6454    1.0227    1.2398 H   0  0  0  0  0  0  0  0  0  0  0  0
   -4.3278    0.4564    1.2875 H   0  0  0  0  0  0  0  0  0  0  0  0
  1  5  2  0  0  0  0
  2  5  1  0  0  0  0
  2  8  1  0  0  0  0
  3  6  1  0  0  0  0
  4 12  1  0  0  0  0
  4 13  1  0  0  0  0
  5  3  1  0  0  0  0
  6  4  1  0  0  0  0
  7  6  2  0  0  0  0
  7 10  1  0  0  0  0
  8  7  1  0  0  0  0
  9  2  1  0  0  0  0
 11  8  1  0  0  0  0
M  END
