4
q = 0.0, confidence = 0.942

 10 10  0  0  0  0  0  0  0  0999 V2000
    1.1523    4.3767   -0.4578 N   0  0  0  0  0  0  0  0  0  0  0  0
    1.4146    3.6471    0.6332 C   0  0  0  0  0  0  0  0  0  0  0  0
    1.0060    2.3104    0.7720 C   0  0  0  0  0  3  0  0  0  0  0  0
    0.3149    1.6905   -0.2152 N   0  0  0  0  0  2  0  0  0  0  0  0
    0.0501    2.4236   -1.3248 C   0  0  0  0  0  0  0  0  0  0  0  0
    0.4672    3.7567   -1.4297 C   0  0  0  0  0  0  0  0  0  0  0  0
    1.9763    4.1308    1.4505 H   0  0  0  0  0  0  0  0  0  0  0  0
    1.1899    1.7269    1.6858 H   0  0  0  0  0  0  0  0  0  0  0  0
   -0.4954    1.9389   -2.1438 H   0  0  0  0  0  0  0  0  0  0  0  0
    0.2347    4.3328   -2.3416 H   0  0  0  0  0  0  0  0  0  0  0  0
  1  2  2  0  0  0  0
  2  3  1  0  0  0  0
  2  7  1  0  0  0  0
  3  8  1  0  0  0  0
  4  3  1  0  0  0  0
  5  4  1  0  0  0  0
  6  5  2  0  0  0  0
  6  1  1  0  0  0  0
  9  5  1  0  0  0  0
 10  6  1  0  0  0  0
M  END
