1
q = 0.0, confidence = 1.0

 25 26  0  0  0  0  0  0  0  0999 V2000
   -1.8231    0.7656   -1.3467 N   0  0  0  0  0  2  0  0  0  0  0  0
   -2.7362    1.6873   -1.2306 C   0  0  0  0  0  3  0  0  0  0  0  0
   -3.6826    1.5337   -1.7879 H   0  0  0  0  0  0  0  0  0  0  0  0
   -3.7584    3.8163   -0.5730 C   0  0  0  0  0  0  0  0  0  0  0  0
   -4.6063    3.5507   -1.2236 H   0  0  0  0  0  0  0  0  0  0  0  0
   -3.7700    5.0258    0.1305 C   0  0  0  0  0  0  0  0  0  0  0  0
   -4.6266    5.7089    0.0343 H   0  0  0  0  0  0  0  0  0  0  0  0
   -2.6862    5.3652    0.9568 C   0  0  0  0  0  0  0  0  0  0  0  0
   -2.6938    6.3152    1.5119 H   0  0  0  0  0  0  0  0  0  0  0  0
   -1.5928    4.4876    1.0779 C   0  0  0  0  0  0  0  0  0  0  0  0
   -0.7460    4.7533    1.7288 H   0  0  0  0  0  0  0  0  0  0  0  0
   -1.5794    3.2780    0.3788 C   0  0  0  0  0  0  0  0  0  0  0  0
   -0.7223    2.5830    0.4716 H   0  0  0  0  0  0  0  0  0  0  0  0
   -2.6616    2.9250   -0.4648 C   0  0  0  0  0  0  0  0  0  0  0  0
   -1.2121   -0.8769   -3.0575 C   0  0  0  0  0  0  0  0  0  0  0  0
   -0.2899   -0.3073   -3.2406 H   0  0  0  0  0  0  0  0  0  0  0  0
   -1.4924   -2.0476   -3.7738 C   0  0  0  0  0  0  0  0  0  0  0  0
   -0.7810   -2.4001   -4.5354 H   0  0  0  0  0  0  0  0  0  0  0  0
   -2.6722   -2.7701   -3.5218 C   0  0  0  0  0  0  0  0  0  0  0  0
   -2.8823   -3.6956   -4.0778 H   0  0  0  0  0  0  0  0  0  0  0  0
   -3.5801   -2.3069   -2.5567 C   0  0  0  0  0  0  0  0  0  0  0  0
   -4.4982   -2.8742   -2.3432 H   0  0  0  0  0  0  0  0  0  0  0  0
   -3.3204   -1.1256   -1.8463 C   0  0  0  0  0  0  0  0  0  0  0  0
   -4.0113   -0.7814   -1.0630 H   0  0  0  0  0  0  0  0  0  0  0  0
   -2.1323   -0.4076   -2.0953 C   0  0  0  0  0  0  0  0  0  0  0  0
  1  2  1  0  0  0  0
  2 14  1  0  0  0  0
  3  2  1  0  0  0  0
  4 14  2  0  0  0  0
  4  6  1  0  0  0  0
  5  4  1  0  0  0  0
  6  8  2  0  0  0  0
  7  6  1  0  0  0  0
  8 10  1  0  0  0  0
  8  9  1  0  0  0  0
 10 11  1  0  0  0  0
 12 13  1  0  0  0  0
 12 10  2  0  0  0  0
 14 12  1  0  0  0  0
 15 25  1  0  0  0  0
 16 15  1  0  0  0  0
 17 19  1  0  0  0  0
 17 15  2  0  0  0  0
 18 17  1  0  0  0  0
 19 21  2  0  0  0  0
 20 19  1  0  0  0  0
 21 22  1  0  0  0  0
 21 23  1  0  0  0  0
 23 24  1  0  0  0  0
 25 23  2  0  0  0  0
 25  1  1  0  0  0  0
M  END
