1
q = 0.0, confidence = 0.984

 11 10  0  0  0  0  0  0  0  0999 V2000
    0.1267    0.1438   -2.1207 N   0  0  0  0  0  0  0  0  0  0  0  0
    1.0897   -0.1097   -2.4021 H   0  0  0  0  0  0  0  0  0  0  0  0
   -0.5119   -0.5268   -2.5666 H   0  0  0  0  0  0  0  0  0  0  0  0
   -0.2463    1.5355   -2.4248 C   0  0  0  0  0  0  0  0  0  0  0  0
    0.4740    2.5003   -1.4841 C   0  0  0  0  0  0  0  0  0  0  0  0
    0.1864    2.1595   -0.1312 O   0  0  0  0  0  0  0  0  0  0  0  0
    1.0354    2.2897    0.4189 H   0  0  0  0  0  0  0  0  0  0  0  0
    0.1316    3.5358   -1.7034 H   0  0  0  0  0  0  0  0  0  0  0  0
    1.5740    2.4634   -1.6642 H   0  0  0  0  0  0  0  0  0  0  0  0
   -0.0380    1.8250   -3.4788 H   0  0  0  0  0  0  0  0  0  0  0  0
   -1.3363    1.6383   -2.2460 H   0  0  0  0  0  0  0  0  0  0  0  0
  2  1  1  0  0  0  0
  3  1  1  0  0  0  0
  4 11  1  0  0  0  0
  4  1  1  0  0  0  0
  4  5  1  0  0  0  0
  5  6  1  0  0  0  0
  6  7  1  0  0  0  0
  8  5  1  0  0  0  0
  9  5  1  0  0  0  0
 10  4  1  0  0  0  0
M  END
