1
q = 0.0, confidence = 0.994

 37 39  0  0  0  0  0  0  0  0999 V2000
    1.2113   -1.6800    1.1292 N   0  0  0  0  0  2  0  0  0  0  0  0
    1.3441    0.0179   -1.0251 N   0  0  0  0  0  0  0  0  0  0  0  0
    1.1322   -2.4663    2.2225 C   0  0  0  0  0  3  0  0  0  0  0  0
    0.2331   -3.1073    2.2608 H   0  0  0  0  0  0  0  0  0  0  0  0
    2.1166   -2.4628    3.2168 C   0  0  0  0  0  0  0  0  0  0  0  0
    2.0070   -3.1267    4.0859 H   0  0  0  0  0  0  0  0  0  0  0  0
    3.2258   -1.6189    3.0688 C   0  0  0  0  0  0  0  0  0  0  0  0
    4.0141   -1.5812    3.8351 H   0  0  0  0  0  0  0  0  0  0  0  0
    3.3232   -0.8354    1.9159 C   0  0  0  0  0  0  0  0  0  0  0  0
    4.1833   -0.1752    1.7432 H   0  0  0  0  0  0  0  0  0  0  0  0
    2.3041   -0.8828    0.9469 C   0  0  0  0  0  0  0  0  0  0  0  0
    2.4198   -0.1212   -0.3261 C   0  0  0  0  0  0  0  0  0  0  0  0
    3.7718    0.4130   -0.7013 C   0  0  0  0  0  0  0  0  0  0  0  0
    4.7003   -0.3971   -1.3878 C   0  0  0  0  0  0  0  0  0  0  0  0
    4.4356   -1.4440   -1.6073 H   0  0  0  0  0  0  0  0  0  0  0  0
    5.9433    0.1325   -1.7669 C   0  0  0  0  0  0  0  0  0  0  0  0
    6.6609   -0.5037   -2.3070 H   0  0  0  0  0  0  0  0  0  0  0  0
    6.2763    1.4608   -1.4559 C   0  0  0  0  0  0  0  0  0  0  0  0
    7.2537    1.8698   -1.7537 H   0  0  0  0  0  0  0  0  0  0  0  0
    5.3604    2.2643   -0.7584 C   0  0  0  0  0  0  0  0  0  0  0  0
    5.6184    3.3037   -0.5036 H   0  0  0  0  0  0  0  0  0  0  0  0
    4.1121    1.7447   -0.3833 C   0  0  0  0  0  0  0  0  0  0  0  0
    3.3942    2.3631    0.1754 H   0  0  0  0  0  0  0  0  0  0  0  0
    1.3480    0.6653   -2.3247 C   0  0  0  0  0  0  0  0  0  0  0  0
    0.9465   -0.0813   -3.0433 H   0  0  0  0  0  0  0  0  0  0  0  0
    2.3628    0.9647   -2.6695 H   0  0  0  0  0  0  0  0  0  0  0  0
    0.4253    1.8707   -2.2881 C   0  0  0  0  0  0  0  0  0  0  0  0
    0.9224    3.1315   -1.9054 C   0  0  0  0  0  0  0  0  0  0  0  0
    1.9998    3.2471   -1.7093 H   0  0  0  0  0  0  0  0  0  0  0  0
    0.0590    4.2296   -1.7692 C   0  0  0  0  0  0  0  0  0  0  0  0
    0.4611    5.2097   -1.4698 H   0  0  0  0  0  0  0  0  0  0  0  0
   -1.3160    4.0785   -2.0133 C   0  0  0  0  0  0  0  0  0  0  0  0
   -1.9959    4.9364   -1.8988 H   0  0  0  0  0  0  0  0  0  0  0  0
   -1.8171    2.8296   -2.4154 C   0  0  0  0  0  0  0  0  0  0  0  0
   -2.8916    2.7018   -2.6162 H   0  0  0  0  0  0  0  0  0  0  0  0
   -0.9500    1.7357   -2.5549 C   0  0  0  0  0  0  0  0  0  0  0  0
   -1.3445    0.7615   -2.8760 H   0  0  0  0  0  0  0  0  0  0  0  0
  1  3  1  0  0  0  0
  2 12  2  0  0  0  0
  3  4  1  0  0  0  0
  3  5  1  0  0  0  0
  5  6  1  0  0  0  0
  7  5  2  0  0  0  0
  7  8  1  0  0  0  0
  9  7  1  0  0  0  0
 10  9  1  0  0  0  0
 11  1  1  0  0  0  0
 11  9  2  0  0  0  0
 12 11  1  0  0  0  0
 13 22  1  0  0  0  0
 13 12  1  0  0  0  0
 14 13  2  0  0  0  0
 15 14  1  0  0  0  0
 16 18  2  0  0  0  0
 16 14  1  0  0  0  0
 17 16  1  0  0  0  0
 18 20  1  0  0  0  0
 19 18  1  0  0  0  0
 20 21  1  0  0  0  0
 20 22  2  0  0  0  0
 22 23  1  0  0  0  0
 24 27  1  0  0  0  0
 24  2  1  0  0  0  0
 25 24  1  0  0  0  0
 26 24  1  0  0  0  0
 27 28  1  0  0  0  0
 28 30  2  0  0  0  0
 28 29  1  0  0  0  0
 30 31  1  0  0  0  0
 32 33  1  0  0  0  0
 32 30  1  0  0  0  0
 34 32  2  0  0  0  0
 35 34  1  0  0  0  0
 36 34  1  0  0  0  0
 36 27  2  0  0  0  0
 37 36  1  0  0  0  0
M  END
