1
q = -1.0, confidence = 0.028

  6  5  0  0  0  0  0  0  0  0999 V2000
    0.8719   -1.8168   -0.5502 N   0  0  0  0  0  0  0  0  0  0  0  0
    0.5324   -2.8690   -1.0423 O   0  0  0  0  0  0  0  0  0  0  0  0
    2.7923   -1.8777    0.0876 S   0  0  0  0  0  0  0  0  0  0  0  0
    2.6780   -1.2047    1.4216 O   0  0  0  0  0  0  0  0  0  0  0  0
    3.0250   -3.3369    0.0904 O   0  0  0  0  0  0  0  0  0  0  0  0
    3.4529   -1.0663   -0.9766 O   0  0  0  0  0  0  0  0  0  0  0  0
  1  3  1  0  0  0  0
  2  1  1  0  0  0  0
  3  5  1  0  0  0  0
  3  4  1  0  0  0  0
  6  3  1  0  0  0  0
M  END
