1
q = 0.0, confidence = 0.994

 29 30  0  0  1  0  0  0  0  0999 V2000
   -1.8823    1.0158   -0.7138 N   0  0  0  0  0  2  0  0  0  0  0  0
   -2.0700    2.2035   -1.4026 O   0  0  0  0  0  0  0  0  0  0  0  0
   -1.1794    2.3094   -1.8459 H   0  0  0  0  0  0  0  0  0  0  0  0
   -3.1021   -1.0642    0.0625 C   0  0  2  0  0  0  0  0  0  0  0  0
   -2.9601    0.3308   -0.5228 C   0  0  2  0  0  3  0  0  0  0  0  0
   -4.3271    0.7959   -0.9701 C   0  0  0  0  0  0  0  0  0  0  0  0
   -5.2016   -0.4169   -0.6037 C   0  0  1  0  0  0  0  0  0  0  0  0
   -4.8577   -1.5230   -1.6255 C   0  0  0  0  0  0  0  0  0  0  0  0
   -3.4142   -1.9266   -1.2149 C   0  0  0  0  0  0  0  0  0  0  0  0
   -4.5359   -0.9301    0.7148 C   0  0  0  0  0  0  0  0  0  0  0  0
   -4.5634    0.0799    1.8726 C   0  0  0  0  0  0  0  0  0  0  0  0
   -5.1154   -2.2562    1.2220 C   0  0  0  0  0  0  0  0  0  0  0  0
   -1.9901   -1.6397    0.9173 C   0  0  0  0  0  0  0  0  0  0  0  0
   -4.5980    1.7216   -0.4218 H   0  0  0  0  0  0  0  0  0  0  0  0
   -4.3316    1.0614   -2.0471 H   0  0  0  0  0  0  0  0  0  0  0  0
   -6.2809   -0.1821   -0.5228 H   0  0  0  0  0  0  0  0  0  0  0  0
   -4.9187   -1.1457   -2.6653 H   0  0  0  0  0  0  0  0  0  0  0  0
   -5.5579   -2.3775   -1.5520 H   0  0  0  0  0  0  0  0  0  0  0  0
   -3.3439   -2.9980   -0.9400 H   0  0  0  0  0  0  0  0  0  0  0  0
   -2.6590   -1.7486   -2.0057 H   0  0  0  0  0  0  0  0  0  0  0  0
   -4.0256    1.0216    1.6507 H   0  0  0  0  0  0  0  0  0  0  0  0
   -4.0748   -0.3498    2.7696 H   0  0  0  0  0  0  0  0  0  0  0  0
   -5.6085    0.3297    2.1484 H   0  0  0  0  0  0  0  0  0  0  0  0
   -5.0980   -3.0686    0.4715 H   0  0  0  0  0  0  0  0  0  0  0  0
   -6.1706   -2.1116    1.5325 H   0  0  0  0  0  0  0  0  0  0  0  0
   -4.5582   -2.6108    2.1122 H   0  0  0  0  0  0  0  0  0  0  0  0
   -1.7934   -1.0249    1.8151 H   0  0  0  0  0  0  0  0  0  0  0  0
   -1.0404   -1.6958    0.3465 H   0  0  0  0  0  0  0  0  0  0  0  0
   -2.2551   -2.6702    1.2280 H   0  0  0  0  0  0  0  0  0  0  0  0
  2  1  1  0  0  0  0
  3  2  1  0  0  0  0
  4 10  1  0  0  0  0
  4 13  1  1  0  0  0
  5  1  1  6  0  0  0
  5  4  1  0  0  0  0
  6  7  1  0  0  0  0
  6  5  1  0  0  0  0
  6 14  1  0  0  0  0
  7 16  1  1  0  0  0
  7 10  1  0  0  0  0
  8 18  1  0  0  0  0
  8  9  1  0  0  0  0
  8  7  1  0  0  0  0
  9 19  1  0  0  0  0
  9  4  1  0  0  0  0
 10 12  1  0  0  0  0
 10 11  1  0  0  0  0
 11 23  1  0  0  0  0
 11 22  1  0  0  0  0
 12 25  1  0  0  0  0
 12 26  1  0  0  0  0
 13 29  1  0  0  0  0
 13 27  1  0  0  0  0
 15  6  1  0  0  0  0
 17  8  1  0  0  0  0
 20  9  1  0  0  0  0
 21 11  1  0  0  0  0
 24 12  1  0  0  0  0
 28 13  1  0  0  0  0
M  END
