4
q = 0.0, confidence = 0.992

 20 21  0  0  1  0  0  0  0  0999 V2000
   -2.9950   -2.7080   -0.3604 N   0  0  0  0  0  0  0  0  0  0  0  0
   -3.8781   -3.0238    0.0430 H   0  0  0  0  0  0  0  0  0  0  0  0
   -2.3944   -1.5787    0.1196 C   0  0  1  0  0  3  0  0  0  0  0  0
   -1.1200   -1.4990   -0.1524 N   0  0  0  0  0  2  0  0  0  0  0  0
   -0.7211   -2.6928   -0.9104 C   0  0  0  0  0  0  0  0  0  0  0  0
    0.2119   -3.1141   -0.4889 H   0  0  0  0  0  0  0  0  0  0  0  0
   -0.5153   -2.3944   -1.9610 H   0  0  0  0  0  0  0  0  0  0  0  0
   -1.9468   -3.6391   -0.8000 C   0  0  0  0  0  0  0  0  0  0  0  0
   -2.2079   -4.1231   -1.7617 H   0  0  0  0  0  0  0  0  0  0  0  0
   -1.7847   -4.4359   -0.0401 H   0  0  0  0  0  0  0  0  0  0  0  0
   -4.4422   -0.2308    0.4140 N   0  0  0  0  0  0  0  0  0  0  0  0
   -4.5183   -0.0951   -0.6084 H   0  0  0  0  0  0  0  0  0  0  0  0
   -3.1602   -0.5502    0.8543 C   0  0  1  0  0  3  0  0  0  0  0  0
   -2.7177    0.0062    1.9337 N   0  0  0  0  0  2  0  0  0  0  0  0
   -3.7884    0.9146    2.3672 C   0  0  0  0  0  0  0  0  0  0  0  0
   -3.3708    1.9129    2.6143 H   0  0  0  0  0  0  0  0  0  0  0  0
   -4.2338    0.5175    3.3072 H   0  0  0  0  0  0  0  0  0  0  0  0
   -4.8279    0.9534    1.2081 C   0  0  0  0  0  0  0  0  0  0  0  0
   -5.8765    0.8816    1.5599 H   0  0  0  0  0  0  0  0  0  0  0  0
   -4.7280    1.8665    0.5806 H   0  0  0  0  0  0  0  0  0  0  0  0
  1  2  1  0  0  0  0
  1  3  1  0  0  0  0
  3  4  1  6  0  0  0
  3 13  1  0  0  0  0
  5  8  1  0  0  0  0
  5  6  1  0  0  0  0
  5  4  1  0  0  0  0
  7  5  1  0  0  0  0
  8  1  1  0  0  0  0
  8 10  1  0  0  0  0
  9  8  1  0  0  0  0
 11 13  1  0  0  0  0
 11 18  1  0  0  0  0
 12 11  1  0  0  0  0
 13 14  1  1  0  0  0
 14 15  1  0  0  0  0
 15 16  1  0  0  0  0
 15 17  1  0  0  0  0
 18 19  1  0  0  0  0
 18 15  1  0  0  0  0
 20 18  1  0  0  0  0
M  END
