2
q = -1.0, confidence = 0.09

 13 13  0  0  0  0  0  0  0  0999 V2000
    0.1346    1.5396    0.5427 N   0  0  0  0  0  1  0  0  0  0  0  0
    0.7428    0.5181    0.2093 N   0  0  0  0  0  2  0  0  0  0  0  0
    2.1410    0.3199    0.0974 C   0  0  0  0  0  0  0  0  0  0  0  0
    3.0417    1.3873    0.2868 C   0  0  0  0  0  0  0  0  0  0  0  0
    2.6437    2.3825    0.5333 H   0  0  0  0  0  0  0  0  0  0  0  0
    4.4107    1.1406    0.1529 C   0  0  0  0  0  0  0  0  0  0  0  0
    5.1318    1.9598    0.2937 H   0  0  0  0  0  0  0  0  0  0  0  0
    4.8688   -0.1540   -0.1619 C   0  0  0  0  0  0  0  0  0  0  0  0
    5.9488   -0.3393   -0.2643 H   0  0  0  0  0  0  0  0  0  0  0  0
    3.9591   -1.2092   -0.3442 C   0  0  0  0  0  0  0  0  0  0  0  0
    4.3252   -2.2186   -0.5832 H   0  0  0  0  0  0  0  0  0  0  0  0
    2.5831   -0.9786   -0.2173 C   0  0  0  0  0  0  0  0  0  0  0  0
    1.8324   -1.7753   -0.3285 H   0  0  0  0  0  0  0  0  0  0  0  0
  2  1  1  0  0  0  0
  3  2  1  0  0  0  0
  3  4  1  0  0  0  0
  4  5  1  0  0  0  0
  6  4  2  0  0  0  0
  6  7  1  0  0  0  0
  8  6  1  0  0  0  0
  9  8  1  0  0  0  0
 10 12  1  0  0  0  0
 10  8  2  0  0  0  0
 11 10  1  0  0  0  0
 12  3  2  0  0  0  0
 13 12  1  0  0  0  0
M  END
