1
q = 0.0, confidence = 0.988

 20 19  0  0  0  0  0  0  0  0999 V2000
   -0.7741    0.7144   -0.2084 N   0  0  0  0  0  2  0  0  0  0  0  0
   -1.6920   -0.0851   -0.8739 N   0  0  0  0  0  0  0  0  0  0  0  0
   -1.0705    1.9876   -0.1152 C   0  0  0  0  0  3  0  0  0  0  0  0
   -0.1020    2.9586    0.4819 C   0  0  0  0  0  0  0  0  0  0  0  0
   -2.3805    2.5141   -0.6356 C   0  0  0  0  0  0  0  0  0  0  0  0
   -2.5842   -0.7244   -0.1877 C   0  0  0  0  0  0  0  0  0  0  0  0
   -2.7500   -0.6523    1.3056 C   0  0  0  0  0  0  0  0  0  0  0  0
   -3.4854   -1.6571   -0.9448 C   0  0  0  0  0  0  0  0  0  0  0  0
    0.3515    3.5902   -0.3141 H   0  0  0  0  0  0  0  0  0  0  0  0
    0.7089    2.4402    1.0208 H   0  0  0  0  0  0  0  0  0  0  0  0
   -0.6294    3.6499    1.1714 H   0  0  0  0  0  0  0  0  0  0  0  0
   -2.3389    3.6111   -0.7725 H   0  0  0  0  0  0  0  0  0  0  0  0
   -3.2124    2.2947    0.0690 H   0  0  0  0  0  0  0  0  0  0  0  0
   -2.6431    2.0230   -1.5948 H   0  0  0  0  0  0  0  0  0  0  0  0
   -2.0328    0.0435    1.7767 H   0  0  0  0  0  0  0  0  0  0  0  0
   -2.5942   -1.6607    1.7414 H   0  0  0  0  0  0  0  0  0  0  0  0
   -3.7858   -0.3450    1.5617 H   0  0  0  0  0  0  0  0  0  0  0  0
   -3.2837   -2.7036   -0.6310 H   0  0  0  0  0  0  0  0  0  0  0  0
   -4.5532   -1.4518   -0.7226 H   0  0  0  0  0  0  0  0  0  0  0  0
   -3.3077   -1.5700   -2.0321 H   0  0  0  0  0  0  0  0  0  0  0  0
  1  3  1  0  0  0  0
  2  1  1  0  0  0  0
  2  6  2  0  0  0  0
  3  4  1  0  0  0  0
  4 10  1  0  0  0  0
  4 11  1  0  0  0  0
  5  3  1  0  0  0  0
  5 13  1  0  0  0  0
  6  7  1  0  0  0  0
  7 17  1  0  0  0  0
  7 16  1  0  0  0  0
  7 15  1  0  0  0  0
  8 19  1  0  0  0  0
  8 18  1  0  0  0  0
  8  6  1  0  0  0  0
  9  4  1  0  0  0  0
 12  5  1  0  0  0  0
 14  5  1  0  0  0  0
 20  8  1  0  0  0  0
M  END
