1
q = -1.0, confidence = 0.018

 13 13  0  0  0  0  0  0  0  0999 V2000
    0.8129   -2.2204   -0.8371 N   0  0  0  0  0  2  0  0  0  0  0  0
    1.3259   -2.0633   -2.2084 C   0  0  0  0  0  0  0  0  0  0  0  0
    1.2846   -3.4636   -2.8263 C   0  0  0  0  0  0  0  0  0  0  0  0
    1.6673   -4.3440   -1.6296 C   0  0  0  0  0  0  0  0  0  0  0  0
    0.9525   -3.6428   -0.4628 C   0  0  0  0  0  0  0  0  0  0  0  0
    2.3833   -1.6949   -2.1775 H   0  0  0  0  0  0  0  0  0  0  0  0
    0.7648   -1.3077   -2.7854 H   0  0  0  0  0  0  0  0  0  0  0  0
    0.2514   -3.6979   -3.1625 H   0  0  0  0  0  0  0  0  0  0  0  0
    1.9592   -3.5756   -3.6988 H   0  0  0  0  0  0  0  0  0  0  0  0
    2.7687   -4.3167   -1.4820 H   0  0  0  0  0  0  0  0  0  0  0  0
    1.3754   -5.4072   -1.7405 H   0  0  0  0  0  0  0  0  0  0  0  0
   -0.0650   -4.0765   -0.3109 H   0  0  0  0  0  0  0  0  0  0  0  0
    1.4812   -3.7609    0.5064 H   0  0  0  0  0  0  0  0  0  0  0  0
  1  5  1  0  0  0  0
  2  6  1  0  0  0  0
  2  1  1  0  0  0  0
  3  2  1  0  0  0  0
  3  4  1  0  0  0  0
  4 10  1  0  0  0  0
  4  5  1  0  0  0  0
  5 12  1  0  0  0  0
  5 13  1  0  0  0  0
  7  2  1  0  0  0  0
  8  3  1  0  0  0  0
  9  3  1  0  0  0  0
 11  4  1  0  0  0  0
M  END
