3
q = 0.0, confidence = 0.996

 41 43  0  0  1  0  0  0  0  0999 V2000
    0.2004    0.9251   -0.0410 P   0  0  0  0  0  0  0  0  0  0  0  0
    0.2819    1.7574    1.5885 C   0  0  0  0  0  0  0  0  0  0  0  0
    0.5492   -1.5335    0.0986 N   0  0  0  0  0  2  0  0  0  0  0  0
    0.6859    2.1812   -1.2624 C   0  0  0  0  0  0  0  0  0  0  0  0
    4.7137   -2.0614    0.0582 N   0  0  0  0  0  0  0  0  0  0  0  0
    1.3996   -0.4666    0.0469 C   0  0  1  0  0  3  0  0  0  0  0  0
    0.5537    1.6214    4.0061 C   0  0  0  0  0  0  0  0  0  0  0  0
    0.8107    1.0387    4.9035 H   0  0  0  0  0  0  0  0  0  0  0  0
   -0.0784    3.1157    1.7096 C   0  0  0  0  0  0  0  0  0  0  0  0
   -0.3138    3.7078    0.8123 H   0  0  0  0  0  0  0  0  0  0  0  0
    3.3646   -1.8832    0.0764 C   0  0  0  0  0  0  0  0  0  0  0  0
    1.0796   -2.7731    0.1314 C   0  0  0  0  0  0  0  0  0  0  0  0
    0.3730   -3.6158    0.1338 H   0  0  0  0  0  0  0  0  0  0  0  0
    1.8330    2.9749   -1.0377 C   0  0  0  0  0  0  0  0  0  0  0  0
    2.4258    2.8513   -0.1179 H   0  0  0  0  0  0  0  0  0  0  0  0
    2.4545   -2.9858    0.1307 C   0  0  0  0  0  0  0  0  0  0  0  0
    2.8178   -4.0198    0.1495 H   0  0  0  0  0  0  0  0  0  0  0  0
    2.7773   -0.5755    0.0346 C   0  0  0  0  0  0  0  0  0  0  0  0
    3.3863    0.3344   -0.0211 H   0  0  0  0  0  0  0  0  0  0  0  0
    0.5953    1.0110    2.7449 C   0  0  0  0  0  0  0  0  0  0  0  0
    0.8781   -0.0493    2.6565 H   0  0  0  0  0  0  0  0  0  0  0  0
   -0.0929    2.3668   -2.4217 C   0  0  0  0  0  0  0  0  0  0  0  0
   -0.9650    1.7210   -2.5994 H   0  0  0  0  0  0  0  0  0  0  0  0
    0.1907    2.9740    4.1249 C   0  0  0  0  0  0  0  0  0  0  0  0
    0.1584    3.4503    5.1160 H   0  0  0  0  0  0  0  0  0  0  0  0
   -0.1234    3.7179    2.9771 C   0  0  0  0  0  0  0  0  0  0  0  0
   -0.4014    4.7788    3.0653 H   0  0  0  0  0  0  0  0  0  0  0  0
    5.6011   -0.9093   -0.0328 C   0  0  0  0  0  0  0  0  0  0  0  0
    5.4326   -0.3333   -0.9682 H   0  0  0  0  0  0  0  0  0  0  0  0
    6.6487   -1.2558   -0.0308 H   0  0  0  0  0  0  0  0  0  0  0  0
    5.4681   -0.2217    0.8298 H   0  0  0  0  0  0  0  0  0  0  0  0
    1.4252    4.1285   -3.1384 C   0  0  0  0  0  0  0  0  0  0  0  0
    1.7155    4.8925   -3.8752 H   0  0  0  0  0  0  0  0  0  0  0  0
    0.2804    3.3460   -3.3546 C   0  0  0  0  0  0  0  0  0  0  0  0
   -0.3251    3.4922   -4.2612 H   0  0  0  0  0  0  0  0  0  0  0  0
    2.2020    3.9423   -1.9818 C   0  0  0  0  0  0  0  0  0  0  0  0
    3.0961    4.5602   -1.8110 H   0  0  0  0  0  0  0  0  0  0  0  0
    5.2747   -3.4062    0.0833 C   0  0  0  0  0  0  0  0  0  0  0  0
    4.9633   -3.9606    0.9942 H   0  0  0  0  0  0  0  0  0  0  0  0
    6.3762   -3.3409    0.0863 H   0  0  0  0  0  0  0  0  0  0  0  0
    4.9680   -3.9968   -0.8068 H   0  0  0  0  0  0  0  0  0  0  0  0
  1  2  1  0  0  0  0
  2  9  2  0  0  0  0
  2 20  1  0  0  0  0
  3 12  1  0  0  0  0
  4 14  1  0  0  0  0
  4  1  1  0  0  0  0
  5 11  1  0  0  0  0
  5 38  1  0  0  0  0
  6  1  1  6  0  0  0
  6  3  1  0  0  0  0
  7 24  1  0  0  0  0
  7  8  1  0  0  0  0
  9 26  1  0  0  0  0
 10  9  1  0  0  0  0
 11 16  1  0  0  0  0
 12 13  1  0  0  0  0
 14 15  1  0  0  0  0
 16 12  2  0  0  0  0
 16 17  1  0  0  0  0
 18  6  1  0  0  0  0
 18 11  2  0  0  0  0
 19 18  1  0  0  0  0
 20  7  2  0  0  0  0
 21 20  1  0  0  0  0
 22  4  2  0  0  0  0
 23 22  1  0  0  0  0
 24 25  1  0  0  0  0
 26 27  1  0  0  0  0
 26 24  2  0  0  0  0
 28 30  1  0  0  0  0
 28  5  1  0  0  0  0
 28 31  1  0  0  0  0
 29 28  1  0  0  0  0
 32 36  1  0  0  0  0
 33 32  1  0  0  0  0
 34 32  2  0  0  0  0
 34 22  1  0  0  0  0
 35 34  1  0  0  0  0
 36 37  1  0  0  0  0
 36 14  2  0  0  0  0
 38 40  1  0  0  0  0
 38 39  1  0  0  0  0
 41 38  1  0  0  0  0
M  END
