1
q = 0.0, confidence = 0.996

 34 33  0  0  0  0  0  0  0  0999 V2000
    2.1211    0.0371   -0.0395 N   0  0  0  0  0  0  0  0  0  0  0  0
    2.2137    0.9545   -0.5433 H   0  0  0  0  0  0  0  0  0  0  0  0
    3.2469   -1.2728    3.4101 C   0  0  0  0  0  0  0  0  0  0  0  0
    2.9300   -2.1483    4.0109 H   0  0  0  0  0  0  0  0  0  0  0  0
    4.2982   -1.4458    3.0971 H   0  0  0  0  0  0  0  0  0  0  0  0
    3.2456   -0.3942    4.0874 H   0  0  0  0  0  0  0  0  0  0  0  0
    2.3317   -1.0772    2.2013 C   0  0  0  0  0  0  0  0  0  0  0  0
    2.3440   -1.9955    1.5816 H   0  0  0  0  0  0  0  0  0  0  0  0
    1.2751   -0.9532    2.5230 H   0  0  0  0  0  0  0  0  0  0  0  0
    2.7239    0.1244    1.3255 C   0  0  0  0  0  0  0  0  0  0  0  0
    3.8306    0.0973    1.2024 H   0  0  0  0  0  0  0  0  0  0  0  0
    2.3793    1.4699    1.9856 C   0  0  0  0  0  0  0  0  0  0  0  0
    2.5531    1.3620    3.0761 H   0  0  0  0  0  0  0  0  0  0  0  0
    1.2896    1.6491    1.8638 H   0  0  0  0  0  0  0  0  0  0  0  0
    3.1851    2.6642    1.4688 C   0  0  0  0  0  0  0  0  0  0  0  0
    2.8765    3.6004    1.9765 H   0  0  0  0  0  0  0  0  0  0  0  0
    3.0496    2.8213    0.3805 H   0  0  0  0  0  0  0  0  0  0  0  0
    4.2699    2.5257    1.6598 H   0  0  0  0  0  0  0  0  0  0  0  0
    4.8565    0.3015   -1.4619 C   0  0  0  0  0  0  0  0  0  0  0  0
    5.9594    0.2085   -1.5157 H   0  0  0  0  0  0  0  0  0  0  0  0
    4.6294    1.1392   -0.7717 H   0  0  0  0  0  0  0  0  0  0  0  0
    4.4970    0.6064   -2.4647 H   0  0  0  0  0  0  0  0  0  0  0  0
    4.2195   -1.0120   -1.0027 C   0  0  0  0  0  0  0  0  0  0  0  0
    4.5179   -1.8331   -1.6874 H   0  0  0  0  0  0  0  0  0  0  0  0
    4.6296   -1.3084   -0.0141 H   0  0  0  0  0  0  0  0  0  0  0  0
    2.6775   -1.0193   -0.9434 C   0  0  0  0  0  0  0  0  0  0  0  0
    2.3504   -1.9941   -0.5279 H   0  0  0  0  0  0  0  0  0  0  0  0
    2.0250   -0.8753   -2.3301 C   0  0  0  0  0  0  0  0  0  0  0  0
    2.3317    0.0849   -2.7945 H   0  0  0  0  0  0  0  0  0  0  0  0
    0.9286   -0.7843   -2.1662 H   0  0  0  0  0  0  0  0  0  0  0  0
    2.2996   -2.0479   -3.2691 C   0  0  0  0  0  0  0  0  0  0  0  0
    1.7277   -1.9390   -4.2122 H   0  0  0  0  0  0  0  0  0  0  0  0
    1.9992   -3.0111   -2.8056 H   0  0  0  0  0  0  0  0  0  0  0  0
    3.3707   -2.1293   -3.5467 H   0  0  0  0  0  0  0  0  0  0  0  0
  1 10  1  0  0  0  0
  2  1  1  0  0  0  0
  3  4  1  0  0  0  0
  3  6  1  0  0  0  0
  5  3  1  0  0  0  0
  7  9  1  0  0  0  0
  7  3  1  0  0  0  0
  8  7  1  0  0  0  0
 10 12  1  0  0  0  0
 10  7  1  0  0  0  0
 11 10  1  0  0  0  0
 12 13  1  0  0  0  0
 14 12  1  0  0  0  0
 15 18  1  0  0  0  0
 15 16  1  0  0  0  0
 15 12  1  0  0  0  0
 17 15  1  0  0  0  0
 19 23  1  0  0  0  0
 19 21  1  0  0  0  0
 20 19  1  0  0  0  0
 22 19  1  0  0  0  0
 23 26  1  0  0  0  0
 23 25  1  0  0  0  0
 24 23  1  0  0  0  0
 26 27  1  0  0  0  0
 26  1  1  0  0  0  0
 28 30  1  0  0  0  0
 28 26  1  0  0  0  0
 29 28  1  0  0  0  0
 31 33  1  0  0  0  0
 31 28  1  0  0  0  0
 32 31  1  0  0  0  0
 34 31  1  0  0  0  0
M  END
