1
q = -1.0, confidence = 0.006

 12 12  0  0  0  0  0  0  0  0999 V2000
    2.2412    0.0016   -0.3018 N   0  0  0  0  0  2  0  0  0  0  0  0
    3.1095   -0.4467    0.6842 C   0  0  0  0  0  0  0  0  0  0  0  0
    2.7929   -1.3571    1.2194 H   0  0  0  0  0  0  0  0  0  0  0  0
    4.2144    0.2698    1.0828 C   0  0  0  0  0  0  0  0  0  0  0  0
    4.8523   -0.1160    1.8901 H   0  0  0  0  0  0  0  0  0  0  0  0
    4.4081    1.6039    0.5445 C   0  0  0  0  0  0  0  0  0  0  0  0
    5.0717    2.3098    1.0691 H   0  0  0  0  0  0  0  0  0  0  0  0
    3.7158    1.9774   -0.5662 C   0  0  0  0  0  0  0  0  0  0  0  0
    3.7701    2.9967   -0.9793 H   0  0  0  0  0  0  0  0  0  0  0  0
    2.8952    0.9225   -1.2617 C   0  0  0  0  0  0  0  0  0  0  0  0
    2.1256    1.3530   -1.9285 H   0  0  0  0  0  0  0  0  0  0  0  0
    3.5569    0.2974   -1.9171 H   0  0  0  0  0  0  0  0  0  0  0  0
  1  2  1  0  0  0  0
  2  4  2  0  0  0  0
  2  3  1  0  0  0  0
  4  5  1  0  0  0  0
  6  7  1  0  0  0  0
  6  4  1  0  0  0  0
  8  6  2  0  0  0  0
  9  8  1  0  0  0  0
 10  8  1  0  0  0  0
 10  1  1  0  0  0  0
 11 10  1  0  0  0  0
 12 10  1  0  0  0  0
M  END
