1
q = 0.0, confidence = 0.978

 13 13  0  0  0  0  0  0  0  0999 V2000
    1.9793    0.0783    0.0212 N   0  0  0  0  0  2  0  0  0  0  0  0
    4.0505   -0.5776   -0.9753 N   0  0  0  0  0  0  0  0  0  0  0  0
    2.7189   -0.5482   -0.9223 C   0  0  0  0  0  3  0  0  0  0  0  0
    2.1432   -1.0518   -1.7179 H   0  0  0  0  0  0  0  0  0  0  0  0
    4.7332    0.0912   -0.0196 C   0  0  0  0  0  0  0  0  0  0  0  0
    4.0464    0.7846    0.9962 C   0  0  0  0  0  0  0  0  0  0  0  0
    4.5838    1.3342    1.7825 H   0  0  0  0  0  0  0  0  0  0  0  0
    2.6498    0.7428    0.9851 C   0  0  0  0  0  0  0  0  0  0  0  0
    2.0261    1.2079    1.7665 H   0  0  0  0  0  0  0  0  0  0  0  0
    6.2320    0.0505   -0.1016 C   0  0  0  0  0  0  0  0  0  0  0  0
    6.7137    0.6122    0.7199 H   0  0  0  0  0  0  0  0  0  0  0  0
    6.5667    0.4673   -1.0734 H   0  0  0  0  0  0  0  0  0  0  0  0
    6.5811   -1.0019   -0.0784 H   0  0  0  0  0  0  0  0  0  0  0  0
  1  8  1  0  0  0  0
  2  3  1  0  0  0  0
  2  5  2  0  0  0  0
  3  1  1  0  0  0  0
  4  3  1  0  0  0  0
  5  6  1  0  0  0  0
  6  7  1  0  0  0  0
  8  6  2  0  0  0  0
  8  9  1  0  0  0  0
 10 13  1  0  0  0  0
 10  5  1  0  0  0  0
 10 11  1  0  0  0  0
 12 10  1  0  0  0  0
M  END
