1
q = 0.0, confidence = 1.0

 19 20  0  0  1  0  0  0  0  0999 V2000
   -0.8663   -0.7928   -0.0862 N   0  0  0  0  0  2  0  0  0  0  0  0
   -1.1098   -2.0870   -0.3084 C   0  0  0  0  0  0  0  0  0  0  0  0
   -0.2350   -2.7547   -0.2859 H   0  0  0  0  0  0  0  0  0  0  0  0
   -2.4034   -2.5919   -0.5602 C   0  0  0  0  0  0  0  0  0  0  0  0
   -2.5370   -3.6635   -0.7626 H   0  0  0  0  0  0  0  0  0  0  0  0
   -3.4776   -1.7137   -0.5523 C   0  0  0  0  0  0  0  0  0  0  0  0
   -4.4877   -2.0869   -0.7780 H   0  0  0  0  0  0  0  0  0  0  0  0
   -3.2649   -0.3383   -0.2777 C   0  0  0  0  0  0  0  0  0  0  0  0
   -4.3422    0.6230   -0.2162 C   0  0  2  0  0  3  0  0  0  0  0  0
   -5.6486    0.2107   -0.4205 N   0  0  0  0  0  0  0  0  0  0  0  0
   -5.8917   -0.7301   -0.1090 H   0  0  0  0  0  0  0  0  0  0  0  0
   -6.3681    0.8961   -0.1889 H   0  0  0  0  0  0  0  0  0  0  0  0
   -4.0281    1.9699    0.0033 C   0  0  0  0  0  0  0  0  0  0  0  0
   -4.8422    2.7100    0.0479 H   0  0  0  0  0  0  0  0  0  0  0  0
   -2.6917    2.3867    0.1916 C   0  0  0  0  0  0  0  0  0  0  0  0
   -2.4893    3.4523    0.3773 H   0  0  0  0  0  0  0  0  0  0  0  0
   -1.6390    1.4822    0.1747 C   0  0  0  0  0  0  0  0  0  0  0  0
   -0.5939    1.7785    0.3536 H   0  0  0  0  0  0  0  0  0  0  0  0
   -1.9102    0.1102   -0.0626 C   0  0  0  0  0  0  0  0  0  0  0  0
  1 19  1  0  0  0  0
  2  3  1  0  0  0  0
  2  1  1  0  0  0  0
  4  6  1  0  0  0  0
  4  2  2  0  0  0  0
  5  4  1  0  0  0  0
  6  8  2  0  0  0  0
  7  6  1  0  0  0  0
  8  9  1  0  0  0  0
  8 19  1  0  0  0  0
  9 10  1  6  0  0  0
  9 13  1  0  0  0  0
 10 12  1  0  0  0  0
 10 11  1  0  0  0  0
 13 14  1  0  0  0  0
 13 15  2  0  0  0  0
 15 16  1  0  0  0  0
 17 15  1  0  0  0  0
 17 18  1  0  0  0  0
 19 17  2  0  0  0  0
M  END
