5
q = 0.0, confidence = 1.0

 32 34  0  0  0  0  0  0  0  0999 V2000
    2.7663   -2.0593   -0.5647 O   0  0  0  0  0  0  0  0  0  0  0  0
    1.8705   -1.8547   -0.9807 H   0  0  0  0  0  0  0  0  0  0  0  0
   -5.0226    1.3755   -0.1836 O   0  0  0  0  0  0  0  0  0  0  0  0
   -2.4720   -1.0980    0.2789 O   0  0  0  0  0  0  0  0  0  0  0  0
   -0.9876    1.0494   -0.1843 N   0  0  0  0  0  2  0  0  0  0  0  0
    1.6894    0.6013   -0.3139 N   0  0  0  0  0  0  0  0  0  0  0  0
   -2.3209    1.1440   -0.1858 N   0  0  0  0  0  0  0  0  0  0  0  0
   -2.8021    2.0405   -0.3344 H   0  0  0  0  0  0  0  0  0  0  0  0
    1.2415    1.8653   -0.2956 C   0  0  0  0  0  0  0  0  0  0  0  0
   -4.4922    0.1302    0.0611 C   0  0  0  0  0  0  0  0  0  0  0  0
    3.5146   -1.0051   -0.2716 C   0  0  0  0  0  0  0  0  0  0  0  0
   -3.0406   -0.0244    0.0671 C   0  0  0  0  0  0  0  0  0  0  0  0
    3.0179    0.3585   -0.2004 C   0  0  0  0  0  0  0  0  0  0  0  0
    3.9711    1.4368    0.0127 C   0  0  0  0  0  0  0  0  0  0  0  0
   -0.2038    2.0712   -0.3315 C   0  0  0  0  0  3  0  0  0  0  0  0
   -0.5987    3.1007   -0.4450 H   0  0  0  0  0  0  0  0  0  0  0  0
    3.4618    2.7665   -0.0163 C   0  0  0  0  0  0  0  0  0  0  0  0
    4.1612    3.6072    0.1103 H   0  0  0  0  0  0  0  0  0  0  0  0
    2.1108    2.9906   -0.1898 C   0  0  0  0  0  0  0  0  0  0  0  0
    1.6959    4.0093   -0.2093 H   0  0  0  0  0  0  0  0  0  0  0  0
    5.3392    1.1542    0.2357 C   0  0  0  0  0  0  0  0  0  0  0  0
    6.0416    1.9841    0.4016 H   0  0  0  0  0  0  0  0  0  0  0  0
    4.8752   -1.2290   -0.0068 C   0  0  0  0  0  0  0  0  0  0  0  0
    5.2235   -2.2713   -0.0324 H   0  0  0  0  0  0  0  0  0  0  0  0
    5.7682   -0.1711    0.2467 C   0  0  0  0  0  0  0  0  0  0  0  0
    6.8278   -0.4025    0.4350 H   0  0  0  0  0  0  0  0  0  0  0  0
   -6.7284   -0.0588    0.1384 C   0  0  0  0  0  0  0  0  0  0  0  0
   -7.7471   -0.4491    0.2354 H   0  0  0  0  0  0  0  0  0  0  0  0
   -6.3760    1.2464   -0.1338 C   0  0  0  0  0  0  0  0  0  0  0  0
   -6.9507    2.1614   -0.3105 H   0  0  0  0  0  0  0  0  0  0  0  0
   -5.5059   -0.7860    0.2657 C   0  0  0  0  0  0  0  0  0  0  0  0
   -5.3628   -1.8502    0.4799 H   0  0  0  0  0  0  0  0  0  0  0  0
  1 11  1  0  0  0  0
  2  1  1  0  0  0  0
  3 29  1  0  0  0  0
  3 10  1  0  0  0  0
  6  9  2  0  0  0  0
  6 13  1  0  0  0  0
  7  5  1  0  0  0  0
  7 12  1  0  0  0  0
  8  7  1  0  0  0  0
  9 19  1  0  0  0  0
 10 12  1  0  0  0  0
 10 31  2  0  0  0  0
 11 13  2  0  0  0  0
 11 23  1  0  0  0  0
 12  4  2  0  0  0  0
 13 14  1  0  0  0  0
 14 21  2  0  0  0  0
 15  9  1  0  0  0  0
 15  5  1  0  0  0  0
 16 15  1  0  0  0  0
 17 14  1  0  0  0  0
 17 18  1  0  0  0  0
 19 17  2  0  0  0  0
 20 19  1  0  0  0  0
 21 25  1  0  0  0  0
 21 22  1  0  0  0  0
 23 25  2  0  0  0  0
 24 23  1  0  0  0  0
 25 26  1  0  0  0  0
 27 28  1  0  0  0  0
 27 31  1  0  0  0  0
 29 27  2  0  0  0  0
 30 29  1  0  0  0  0
 31 32  1  0  0  0  0
M  END
