14
q = 0.0, confidence = 1.0

 26 27  0  0  1  0  0  0  0  0999 V2000
   -2.3729   -0.8607    1.6174 N   0  0  0  0  0  0  0  0  0  0  0  0
   -3.3309   -0.3105    0.8375 C   0  0  0  0  0  0  0  0  0  0  0  0
   -4.4219   -1.0456    0.3457 C   0  0  0  0  0  0  0  0  0  0  0  0
   -5.1374   -0.5730   -0.3434 H   0  0  0  0  0  0  0  0  0  0  0  0
   -4.5224   -2.4202    0.6319 C   0  0  0  0  0  0  0  0  0  0  0  0
   -3.5545   -2.9628    1.4958 C   0  0  0  0  0  0  0  0  0  0  0  0
   -3.5829   -4.0289    1.7672 H   0  0  0  0  0  0  0  0  0  0  0  0
   -2.5106   -2.1498    1.9558 C   0  0  0  0  0  0  0  0  0  0  0  0
   -1.7213   -2.5689    2.6043 H   0  0  0  0  0  0  0  0  0  0  0  0
   -5.5426   -3.2770   -0.0581 C   0  0  0  0  0  0  0  0  0  0  0  0
   -6.5048   -2.7467   -0.1995 H   0  0  0  0  0  0  0  0  0  0  0  0
   -5.7268   -4.2259    0.4811 H   0  0  0  0  0  0  0  0  0  0  0  0
   -5.1433   -3.5175   -1.0675 H   0  0  0  0  0  0  0  0  0  0  0  0
   -1.8569    1.4835    0.1758 N   0  0  0  0  0  2  0  0  0  0  0  0
   -3.1266    1.1163    0.4518 C   0  0  1  0  0  3  0  0  0  0  0  0
   -4.1928    2.0301    0.3745 C   0  0  0  0  0  0  0  0  0  0  0  0
   -5.2118    1.6988    0.6247 H   0  0  0  0  0  0  0  0  0  0  0  0
   -3.9529    3.3665    0.0052 C   0  0  0  0  0  0  0  0  0  0  0  0
   -2.6180    3.7261   -0.2654 C   0  0  0  0  0  0  0  0  0  0  0  0
   -2.3593    4.7569   -0.5511 H   0  0  0  0  0  0  0  0  0  0  0  0
   -1.6125    2.7557   -0.1703 C   0  0  0  0  0  0  0  0  0  0  0  0
   -0.5608    3.0090   -0.3885 H   0  0  0  0  0  0  0  0  0  0  0  0
   -5.0764    4.3601   -0.1167 C   0  0  0  0  0  0  0  0  0  0  0  0
   -5.4544    4.3875   -1.1612 H   0  0  0  0  0  0  0  0  0  0  0  0
   -4.7443    5.3857    0.1369 H   0  0  0  0  0  0  0  0  0  0  0  0
   -5.9311    4.0935    0.5346 H   0  0  0  0  0  0  0  0  0  0  0  0
  1  8  1  0  0  0  0
  2  1  2  0  0  0  0
  3  5  2  0  0  0  0
  3  2  1  0  0  0  0
  4  3  1  0  0  0  0
  5  6  1  0  0  0  0
  6  7  1  0  0  0  0
  6  8  2  0  0  0  0
  8  9  1  0  0  0  0
 10 12  1  0  0  0  0
 10  5  1  0  0  0  0
 11 10  1  0  0  0  0
 13 10  1  0  0  0  0
 14 15  1  0  0  0  0
 15  2  1  6  0  0  0
 16 15  1  0  0  0  0
 16 17  1  0  0  0  0
 18 16  2  0  0  0  0
 19 21  2  0  0  0  0
 19 18  1  0  0  0  0
 20 19  1  0  0  0  0
 21 14  1  0  0  0  0
 22 21  1  0  0  0  0
 23 18  1  0  0  0  0
 23 25  1  0  0  0  0
 23 26  1  0  0  0  0
 24 23  1  0  0  0  0
M  END
