1
q = 0.0, confidence = 0.982

 14 14  0  0  0  0  0  0  0  0999 V2000
    1.9233    0.6365   -0.1452 N   0  0  0  0  0  2  0  0  0  0  0  0
    2.9431   -0.2159    0.0863 C   0  0  0  0  0  3  0  0  0  0  0  0
    2.6846   -1.2587    0.3194 H   0  0  0  0  0  0  0  0  0  0  0  0
    4.2824    0.1971   -0.0011 C   0  0  0  0  0  0  0  0  0  0  0  0
    5.3399   -0.8170    0.2947 C   0  0  0  0  0  0  0  0  0  0  0  0
    5.1211   -1.9635    0.6376 O   0  0  0  0  0  0  0  0  0  0  0  0
    6.5898   -0.3120    0.1380 O   0  0  0  0  0  0  0  0  0  0  0  0
    7.2001   -1.0495    0.3547 H   0  0  0  0  0  0  0  0  0  0  0  0
    4.5667    1.5274   -0.3593 C   0  0  0  0  0  0  0  0  0  0  0  0
    5.6104    1.8619   -0.4399 H   0  0  0  0  0  0  0  0  0  0  0  0
    3.4977    2.3970   -0.6019 C   0  0  0  0  0  0  0  0  0  0  0  0
    3.6655    3.4464   -0.8817 H   0  0  0  0  0  0  0  0  0  0  0  0
    2.1872    1.9242   -0.4774 C   0  0  0  0  0  0  0  0  0  0  0  0
    1.3071    2.5699   -0.6078 H   0  0  0  0  0  0  0  0  0  0  0  0
  1  2  1  0  0  0  0
  2  3  1  0  0  0  0
  4  2  1  0  0  0  0
  4  5  1  0  0  0  0
  5  6  2  0  0  0  0
  7  5  1  0  0  0  0
  7  8  1  0  0  0  0
  9  4  2  0  0  0  0
 10  9  1  0  0  0  0
 11 13  2  0  0  0  0
 11  9  1  0  0  0  0
 12 11  1  0  0  0  0
 13  1  1  0  0  0  0
 14 13  1  0  0  0  0
M  END
