2
q = 0.0, confidence = 0.994

 21 21  0  0  0  0  0  0  0  0999 V2000
   -2.4192   -1.0985    0.9653 S   0  0  0  0  0  0  0  0  0  0  0  0
    0.1396   -1.5274   -0.4692 N   0  0  0  0  0  2  0  0  0  0  0  0
   -0.8245   -2.5071   -0.6185 N   0  0  0  0  0  0  0  0  0  0  0  0
   -0.5364   -3.3543   -1.1228 H   0  0  0  0  0  0  0  0  0  0  0  0
   -2.8574   -3.5015   -0.1126 N   0  0  0  0  0  0  0  0  0  0  0  0
   -2.6044   -4.3608   -0.6014 H   0  0  0  0  0  0  0  0  0  0  0  0
   -3.7388   -3.4927    0.4016 H   0  0  0  0  0  0  0  0  0  0  0  0
    3.0246   -0.6051    0.2604 C   0  0  0  0  0  0  0  0  0  0  0  0
    2.4326   -0.7730    1.1750 H   0  0  0  0  0  0  0  0  0  0  0  0
    2.5233   -1.0600   -0.9845 C   0  0  0  0  0  0  0  0  0  0  0  0
    1.2654   -1.7871   -1.0907 C   0  0  0  0  0  3  0  0  0  0  0  0
    1.2719   -2.6705   -1.7641 H   0  0  0  0  0  0  0  0  0  0  0  0
    3.3073   -0.9032   -2.1547 C   0  0  0  0  0  0  0  0  0  0  0  0
    2.9374   -1.2859   -3.1188 H   0  0  0  0  0  0  0  0  0  0  0  0
    4.5402   -0.2438   -2.0932 C   0  0  0  0  0  0  0  0  0  0  0  0
    5.1340   -0.1054   -3.0086 H   0  0  0  0  0  0  0  0  0  0  0  0
   -2.0175   -2.4566    0.0285 C   0  0  0  0  0  0  0  0  0  0  0  0
    4.2738    0.0235    0.3135 C   0  0  0  0  0  0  0  0  0  0  0  0
    4.6737    0.3514    1.2849 H   0  0  0  0  0  0  0  0  0  0  0  0
    5.0257    0.2207   -0.8585 C   0  0  0  0  0  0  0  0  0  0  0  0
    6.0055    0.7187   -0.8071 H   0  0  0  0  0  0  0  0  0  0  0  0
  3  2  1  0  0  0  0
  3 17  1  0  0  0  0
  4  3  1  0  0  0  0
  5 17  1  0  0  0  0
  5  7  1  0  0  0  0
  6  5  1  0  0  0  0
  8 18  1  0  0  0  0
  8  9  1  0  0  0  0
 10  8  2  0  0  0  0
 11 10  1  0  0  0  0
 11  2  1  0  0  0  0
 12 11  1  0  0  0  0
 13 15  2  0  0  0  0
 13 10  1  0  0  0  0
 14 13  1  0  0  0  0
 15 20  1  0  0  0  0
 16 15  1  0  0  0  0
 17  1  2  0  0  0  0
 18 19  1  0  0  0  0
 20 21  1  0  0  0  0
 20 18  2  0  0  0  0
M  END
