1
q = 0.0, confidence = 0.998

 19 20  0  0  0  0  0  0  0  0999 V2000
   -0.3845   -0.4817   -0.6585 N   0  0  0  0  0  2  0  0  0  0  0  0
   -0.6044   -0.0188   -1.9433 C   0  0  0  0  0  0  0  0  0  0  0  0
    0.1986    0.0614   -2.6822 H   0  0  0  0  0  0  0  0  0  0  0  0
   -1.9450    0.2712   -2.0961 C   0  0  0  0  0  0  0  0  0  0  0  0
   -2.5229    0.6197   -2.9570 H   0  0  0  0  0  0  0  0  0  0  0  0
   -2.5464   -0.0288   -0.8839 N   0  0  0  0  0  0  0  0  0  0  0  0
   -1.5706   -0.4789   -0.0429 C   0  0  0  0  0  3  0  0  0  0  0  0
   -1.7658   -0.7748    0.9926 H   0  0  0  0  0  0  0  0  0  0  0  0
   -3.9367    0.0969   -0.5645 C   0  0  0  0  0  0  0  0  0  0  0  0
   -4.6466    1.2319   -0.9922 C   0  0  0  0  0  0  0  0  0  0  0  0
   -4.1321    2.0284   -1.5493 H   0  0  0  0  0  0  0  0  0  0  0  0
   -6.0086    1.3450   -0.6805 C   0  0  0  0  0  0  0  0  0  0  0  0
   -6.5687    2.2308   -1.0141 H   0  0  0  0  0  0  0  0  0  0  0  0
   -6.6511    0.3425    0.0633 C   0  0  0  0  0  0  0  0  0  0  0  0
   -7.7191    0.4380    0.3079 H   0  0  0  0  0  0  0  0  0  0  0  0
   -5.9310   -0.7845    0.4900 C   0  0  0  0  0  0  0  0  0  0  0  0
   -6.4336   -1.5784    1.0616 H   0  0  0  0  0  0  0  0  0  0  0  0
   -4.5724   -0.9184    0.1714 C   0  0  0  0  0  0  0  0  0  0  0  0
   -4.0156   -1.8197    0.4668 H   0  0  0  0  0  0  0  0  0  0  0  0
  1  7  1  0  0  0  0
  2  1  1  0  0  0  0
  3  2  1  0  0  0  0
  4  2  2  0  0  0  0
  4  6  1  0  0  0  0
  5  4  1  0  0  0  0
  6  9  1  0  0  0  0
  6  7  1  0  0  0  0
  7  8  1  0  0  0  0
  9 18  1  0  0  0  0
 10 12  1  0  0  0  0
 10  9  2  0  0  0  0
 11 10  1  0  0  0  0
 12 14  2  0  0  0  0
 13 12  1  0  0  0  0
 14 15  1  0  0  0  0
 14 16  1  0  0  0  0
 16 17  1  0  0  0  0
 18 19  1  0  0  0  0
 18 16  2  0  0  0  0
M  END
