1
q = 0.0, confidence = 0.984

 28 29  0  0  1  0  0  0  0  0999 V2000
   -1.7056   -0.9963   -0.2907 N   0  0  0  0  0  2  0  0  0  0  0  0
   -1.5241   -2.1941   -0.9172 O   0  0  0  0  0  0  0  0  0  0  0  0
   -0.6058   -2.4465   -0.5950 H   0  0  0  0  0  0  0  0  0  0  0  0
   -2.9254   -0.5987   -0.1323 C   0  0  2  0  0  3  0  0  0  0  0  0
   -3.3447    0.5598    0.7471 C   0  0  0  0  0  0  0  0  0  0  0  0
   -4.8822    0.5499    0.6421 C   0  0  2  0  0  0  0  0  0  0  0  0
   -5.2795   -0.7001    1.4978 C   0  0  0  0  0  0  0  0  0  0  0  0
   -6.3752   -0.6930    1.6657 H   0  0  0  0  0  0  0  0  0  0  0  0
   -4.8016   -0.6680    2.4967 H   0  0  0  0  0  0  0  0  0  0  0  0
   -4.8279   -1.9174    0.6415 C   0  0  0  0  0  0  0  0  0  0  0  0
   -4.0986   -2.5689    1.1601 H   0  0  0  0  0  0  0  0  0  0  0  0
   -5.6808   -2.5568    0.3418 H   0  0  0  0  0  0  0  0  0  0  0  0
   -4.1931   -1.2478   -0.6107 C   0  0  1  0  0  0  0  0  0  0  0  0
   -4.0562   -1.9111   -1.4834 H   0  0  0  0  0  0  0  0  0  0  0  0
   -5.0834    0.0271   -0.8254 C   0  0  0  0  0  0  0  0  0  0  0  0
   -4.5144    0.9822   -1.8857 C   0  0  0  0  0  0  0  0  0  0  0  0
   -3.4701    1.2973   -1.6784 H   0  0  0  0  0  0  0  0  0  0  0  0
   -5.1317    1.9009   -1.9503 H   0  0  0  0  0  0  0  0  0  0  0  0
   -4.5263    0.5024   -2.8855 H   0  0  0  0  0  0  0  0  0  0  0  0
   -6.5367   -0.3040   -1.1811 C   0  0  0  0  0  0  0  0  0  0  0  0
   -7.0324   -0.9768   -0.4563 H   0  0  0  0  0  0  0  0  0  0  0  0
   -6.5845   -0.7885   -2.1777 H   0  0  0  0  0  0  0  0  0  0  0  0
   -7.1365    0.6268   -1.2371 H   0  0  0  0  0  0  0  0  0  0  0  0
   -5.5236    1.8558    1.0647 C   0  0  0  0  0  0  0  0  0  0  0  0
   -6.6292    1.7794    1.0682 H   0  0  0  0  0  0  0  0  0  0  0  0
   -5.2291    2.6840    0.3901 H   0  0  0  0  0  0  0  0  0  0  0  0
   -5.1880    2.1304    2.0844 H   0  0  0  0  0  0  0  0  0  0  0  0
   -2.6551    1.2398    1.4803 O   0  0  0  0  0  0  0  0  0  0  0  0
  2  3  1  0  0  0  0
  2  1  1  0  0  0  0
  4  1  1  1  0  0  0
  4  5  1  0  0  0  0
  5 28  2  0  0  0  0
  6  5  1  0  0  0  0
  6 24  1  1  0  0  0
  6  7  1  0  0  0  0
  7  8  1  0  0  0  0
  7  9  1  0  0  0  0
 10 11  1  0  0  0  0
 10  7  1  0  0  0  0
 12 10  1  0  0  0  0
 13 14  1  6  0  0  0
 13  4  1  0  0  0  0
 13 10  1  0  0  0  0
 15 13  1  0  0  0  0
 15  6  1  0  0  0  0
 16 17  1  0  0  0  0
 16 15  1  0  0  0  0
 18 16  1  0  0  0  0
 19 16  1  0  0  0  0
 20 15  1  0  0  0  0
 20 21  1  0  0  0  0
 22 20  1  0  0  0  0
 23 20  1  0  0  0  0
 24 25  1  0  0  0  0
 24 27  1  0  0  0  0
 26 24  1  0  0  0  0
M  END
