1
q = 0.0, confidence = 1.0

 23 23  0  0  0  0  0  0  0  0999 V2000
    1.8068    1.0822   -0.4870 N   0  0  0  0  0  2  0  0  0  0  0  0
    2.7310    1.2586   -1.4692 C   0  0  0  0  0  3  0  0  0  0  0  0
    4.0372    1.6547   -1.1938 C   0  0  0  0  0  0  0  0  0  0  0  0
    4.4630    1.8909    0.1306 C   0  0  0  0  0  0  0  0  0  0  0  0
    3.4679    1.7805    1.1209 C   0  0  0  0  0  0  0  0  0  0  0  0
    2.1716    1.3874    0.7860 C   0  0  0  0  0  0  0  0  0  0  0  0
    5.9222    2.2422    0.4352 C   0  0  0  0  0  0  0  0  0  0  0  0
    6.1803    2.3616    1.9466 C   0  0  0  0  0  0  0  0  0  0  0  0
    6.2571    3.5917   -0.2418 C   0  0  0  0  0  0  0  0  0  0  0  0
    6.8360    1.1319   -0.1346 C   0  0  0  0  0  0  0  0  0  0  0  0
    2.3734    1.0587   -2.4886 H   0  0  0  0  0  0  0  0  0  0  0  0
    4.7318    1.7468   -2.0406 H   0  0  0  0  0  0  0  0  0  0  0  0
    1.3901    1.2767    1.5513 H   0  0  0  0  0  0  0  0  0  0  0  0
    3.6875    1.9717    2.1787 H   0  0  0  0  0  0  0  0  0  0  0  0
    5.5813    3.1722    2.4085 H   0  0  0  0  0  0  0  0  0  0  0  0
    7.2483    2.5963    2.1255 H   0  0  0  0  0  0  0  0  0  0  0  0
    5.9536    1.4138    2.4754 H   0  0  0  0  0  0  0  0  0  0  0  0
    7.3138    3.8642   -0.0440 H   0  0  0  0  0  0  0  0  0  0  0  0
    5.6123    4.4050    0.1479 H   0  0  0  0  0  0  0  0  0  0  0  0
    6.1200    3.5457   -1.3403 H   0  0  0  0  0  0  0  0  0  0  0  0
    7.8984    1.3821    0.0625 H   0  0  0  0  0  0  0  0  0  0  0  0
    6.6233    0.1503    0.3338 H   0  0  0  0  0  0  0  0  0  0  0  0
    6.7176    1.0183   -1.2301 H   0  0  0  0  0  0  0  0  0  0  0  0
  1  6  1  0  0  0  0
  2  3  1  0  0  0  0
  2  1  1  0  0  0  0
  3  4  2  0  0  0  0
  4  7  1  0  0  0  0
  4  5  1  0  0  0  0
  5 14  1  0  0  0  0
  6  5  2  0  0  0  0
  6 13  1  0  0  0  0
  7  8  1  0  0  0  0
  8 16  1  0  0  0  0
  8 15  1  0  0  0  0
  8 17  1  0  0  0  0
  9 18  1  0  0  0  0
  9 19  1  0  0  0  0
  9  7  1  0  0  0  0
 10 21  1  0  0  0  0
 10 22  1  0  0  0  0
 10  7  1  0  0  0  0
 11  2  1  0  0  0  0
 12  3  1  0  0  0  0
 20  9  1  0  0  0  0
 23 10  1  0  0  0  0
M  END
