13
q = -2.0, confidence = 0.642

 24 25  0  0  0  0  0  0  0  0999 V2000
    1.2691    0.4423   -0.5329 N   0  0  0  0  0  2  0  0  0  0  0  0
    3.9649    2.7666    0.5848 C   0  0  0  0  0  0  0  0  0  0  0  0
    4.7808    2.7903    1.3252 H   0  0  0  0  0  0  0  0  0  0  0  0
    3.1298    1.6429    0.5318 C   0  0  0  0  0  0  0  0  0  0  0  0
    3.2956    0.7883    1.2020 H   0  0  0  0  0  0  0  0  0  0  0  0
    2.0581    1.5704   -0.4100 C   0  0  0  0  0  0  0  0  0  0  0  0
    1.9159    2.6594   -1.3168 C   0  0  0  0  0  0  0  0  0  0  0  0
    1.1323    2.6052   -2.0811 H   0  0  0  0  0  0  0  0  0  0  0  0
    2.7554    3.7746   -1.2494 C   0  0  0  0  0  0  0  0  0  0  0  0
    2.6087    4.6003   -1.9643 H   0  0  0  0  0  0  0  0  0  0  0  0
    3.7850    3.8508   -0.2906 C   0  0  0  0  0  0  0  0  0  0  0  0
    4.4459    4.7288   -0.2436 H   0  0  0  0  0  0  0  0  0  0  0  0
    1.2690   -0.4424    0.5329 N   0  0  0  0  0  2  0  0  0  0  0  0
    3.9645   -2.7671   -0.5848 C   0  0  0  0  0  0  0  0  0  0  0  0
    4.7805   -2.7908   -1.3252 H   0  0  0  0  0  0  0  0  0  0  0  0
    3.1297   -1.6432   -0.5318 C   0  0  0  0  0  0  0  0  0  0  0  0
    3.2956   -0.7886   -1.2020 H   0  0  0  0  0  0  0  0  0  0  0  0
    2.0579   -1.5706    0.4100 C   0  0  0  0  0  0  0  0  0  0  0  0
    1.9155   -2.6596    1.3167 C   0  0  0  0  0  0  0  0  0  0  0  0
    1.1318   -2.6053    2.0810 H   0  0  0  0  0  0  0  0  0  0  0  0
    2.7548   -3.7749    1.2493 C   0  0  0  0  0  0  0  0  0  0  0  0
    2.6080   -4.6006    1.9642 H   0  0  0  0  0  0  0  0  0  0  0  0
    3.7845   -3.8513    0.2906 C   0  0  0  0  0  0  0  0  0  0  0  0
    4.4452   -4.7294    0.2436 H   0  0  0  0  0  0  0  0  0  0  0  0
  1  6  1  0  0  0  0
  1 13  1  0  0  0  0
  2  3  1  0  0  0  0
  4  2  1  0  0  0  0
  4  5  1  0  0  0  0
  6  4  2  0  0  0  0
  7  9  2  0  0  0  0
  7  6  1  0  0  0  0
  8  7  1  0  0  0  0
  9 11  1  0  0  0  0
 10  9  1  0  0  0  0
 11 12  1  0  0  0  0
 11  2  2  0  0  0  0
 14 16  2  0  0  0  0
 14 23  1  0  0  0  0
 15 14  1  0  0  0  0
 16 18  1  0  0  0  0
 17 16  1  0  0  0  0
 18 13  1  0  0  0  0
 18 19  2  0  0  0  0
 19 20  1  0  0  0  0
 21 19  1  0  0  0  0
 21 22  1  0  0  0  0
 23 21  2  0  0  0  0
 24 23  1  0  0  0  0
M  END
