1
q = 0.0, confidence = 0.97

  7  6  0  0  0  0  0  0  0  0999 V2000
    2.0110    0.5305   -0.1134 N   0  0  0  0  0  0  0  0  0  0  0  0
    2.0898    1.4836    0.2775 H   0  0  0  0  0  0  0  0  0  0  0  0
    2.3157    0.6214   -1.0964 H   0  0  0  0  0  0  0  0  0  0  0  0
    2.9419   -0.3836    0.6132 C   0  0  0  0  0  0  0  0  0  0  0  0
    2.6410   -0.4466    1.6742 H   0  0  0  0  0  0  0  0  0  0  0  0
    3.9820   -0.0081    0.5484 H   0  0  0  0  0  0  0  0  0  0  0  0
    2.8887   -1.3925    0.1666 H   0  0  0  0  0  0  0  0  0  0  0  0
  1  2  1  0  0  0  0
  1  4  1  0  0  0  0
  3  1  1  0  0  0  0
  4  5  1  0  0  0  0
  6  4  1  0  0  0  0
  7  4  1  0  0  0  0
M  END
