1
q = 0.0, confidence = 0.994

 15 15  0  0  0  0  0  0  0  0999 V2000
   -1.7537   -1.6791   -0.0391 N   0  0  0  0  0  2  0  0  0  0  0  0
   -2.4021   -2.0760   -1.1572 C   0  0  0  0  0  3  0  0  0  0  0  0
   -2.1025   -1.6004   -2.1058 H   0  0  0  0  0  0  0  0  0  0  0  0
   -3.4185   -3.0293   -1.1411 C   0  0  0  0  0  0  0  0  0  0  0  0
   -3.9309   -3.3288   -2.0656 H   0  0  0  0  0  0  0  0  0  0  0  0
   -3.7919   -3.6133    0.0893 C   0  0  0  0  0  0  0  0  0  0  0  0
   -3.1195   -3.1941    1.2569 C   0  0  0  0  0  0  0  0  0  0  0  0
   -3.3593   -3.5968    2.2493 H   0  0  0  0  0  0  0  0  0  0  0  0
   -2.1148   -2.2260    1.1351 C   0  0  0  0  0  0  0  0  0  0  0  0
   -1.5719   -1.8479    2.0188 H   0  0  0  0  0  0  0  0  0  0  0  0
   -4.7781   -4.5350    0.0523 O   0  0  0  0  0  0  0  0  0  0  0  0
   -5.1839   -5.1428    1.2698 C   0  0  0  0  0  0  0  0  0  0  0  0
   -5.5797   -4.3939    1.9904 H   0  0  0  0  0  0  0  0  0  0  0  0
   -5.9886   -5.8538    1.0084 H   0  0  0  0  0  0  0  0  0  0  0  0
   -4.3486   -5.6985    1.7496 H   0  0  0  0  0  0  0  0  0  0  0  0
  1  9  1  0  0  0  0
  2  4  1  0  0  0  0
  2  1  1  0  0  0  0
  3  2  1  0  0  0  0
  4  6  2  0  0  0  0
  5  4  1  0  0  0  0
  6  7  1  0  0  0  0
  7  8  1  0  0  0  0
  9  7  2  0  0  0  0
  9 10  1  0  0  0  0
 11  6  1  0  0  0  0
 11 12  1  0  0  0  0
 12 15  1  0  0  0  0
 12 13  1  0  0  0  0
 14 12  1  0  0  0  0
M  END
