2
q = 0.0, confidence = 0.996

 37 38  0  0  0  0  0  0  0  0999 V2000
   -0.5917    0.2507   -1.1997 Se  0  0  0  0  0  0  0  0  0  0  0  0
    1.0771   -0.8931    1.5731 N   0  0  0  0  0  0  0  0  0  0  0  0
   -2.4623   -3.5053   -1.1112 C   0  0  0  0  0  0  0  0  0  0  0  0
   -2.9736   -4.1395   -1.8508 H   0  0  0  0  0  0  0  0  0  0  0  0
   -1.6317   -3.1332    1.1396 C   0  0  0  0  0  0  0  0  0  0  0  0
   -1.4890   -3.4864    2.1731 H   0  0  0  0  0  0  0  0  0  0  0  0
   -1.3267   -1.4301   -0.5473 C   0  0  0  0  0  0  0  0  0  0  0  0
   -2.2958   -3.9466    0.2096 C   0  0  0  0  0  0  0  0  0  0  0  0
   -2.6764   -4.9320    0.5169 H   0  0  0  0  0  0  0  0  0  0  0  0
   -1.9772   -2.2445   -1.4894 C   0  0  0  0  0  0  0  0  0  0  0  0
   -2.1108   -1.8851   -2.5212 H   0  0  0  0  0  0  0  0  0  0  0  0
    1.7272   -2.2250    1.5561 C   0  0  0  0  0  0  0  0  0  0  0  0
    1.5350   -2.7606    2.5145 H   0  0  0  0  0  0  0  0  0  0  0  0
    2.8119   -2.0721    1.4057 H   0  0  0  0  0  0  0  0  0  0  0  0
    1.3252   -2.8217    0.7168 H   0  0  0  0  0  0  0  0  0  0  0  0
    1.6185   -0.0791    2.6910 C   0  0  0  0  0  0  0  0  0  0  0  0
    1.4226   -0.5886    3.6621 H   0  0  0  0  0  0  0  0  0  0  0  0
    1.1234    0.9103    2.6921 H   0  0  0  0  0  0  0  0  0  0  0  0
    2.7034    0.0581    2.5300 H   0  0  0  0  0  0  0  0  0  0  0  0
   -1.1258   -1.8685    0.7805 C   0  0  0  0  0  0  0  0  0  0  0  0
   -0.3961   -1.0298    1.7961 C   0  0  0  0  0  0  0  0  0  0  0  0
   -0.5439   -1.4815    2.8032 H   0  0  0  0  0  0  0  0  0  0  0  0
   -0.8138   -0.0045    1.8293 H   0  0  0  0  0  0  0  0  0  0  0  0
   -0.6849    2.4624    0.6417 C   0  0  0  0  0  0  0  0  0  0  0  0
    0.4097    2.4021    0.5207 H   0  0  0  0  0  0  0  0  0  0  0  0
   -1.5017    1.5344   -0.0308 C   0  0  0  0  0  0  0  0  0  0  0  0
   -2.9140    1.5891    0.0520 C   0  0  0  0  0  0  0  0  0  0  0  0
   -1.2672    3.4487    1.4498 C   0  0  0  0  0  0  0  0  0  0  0  0
   -0.6259    4.1738    1.9726 H   0  0  0  0  0  0  0  0  0  0  0  0
   -2.6629    3.5004    1.5808 C   0  0  0  0  0  0  0  0  0  0  0  0
   -3.1322    4.2656    2.2172 H   0  0  0  0  0  0  0  0  0  0  0  0
   -3.4659    2.5855    0.8859 C   0  0  0  0  0  0  0  0  0  0  0  0
   -4.5622    2.6448    0.9752 H   0  0  0  0  0  0  0  0  0  0  0  0
   -3.8173    0.6485   -0.7008 C   0  0  0  0  0  0  0  0  0  0  0  0
   -3.4712    0.5011   -1.7443 H   0  0  0  0  0  0  0  0  0  0  0  0
   -4.8526    1.0382   -0.7320 H   0  0  0  0  0  0  0  0  0  0  0  0
   -3.8470   -0.3566   -0.2312 H   0  0  0  0  0  0  0  0  0  0  0  0
  1  7  1  0  0  0  0
  1 26  1  0  0  0  0
  2 21  1  0  0  0  0
  2 16  1  0  0  0  0
  3  8  1  0  0  0  0
  4  3  1  0  0  0  0
  5  6  1  0  0  0  0
  7 20  2  0  0  0  0
  8  9  1  0  0  0  0
  8  5  2  0  0  0  0
 10  3  2  0  0  0  0
 10  7  1  0  0  0  0
 11 10  1  0  0  0  0
 12  2  1  0  0  0  0
 12 13  1  0  0  0  0
 14 12  1  0  0  0  0
 15 12  1  0  0  0  0
 16 18  1  0  0  0  0
 16 17  1  0  0  0  0
 19 16  1  0  0  0  0
 20  5  1  0  0  0  0
 20 21  1  0  0  0  0
 21 23  1  0  0  0  0
 21 22  1  0  0  0  0
 24 28  1  0  0  0  0
 25 24  1  0  0  0  0
 26 27  1  0  0  0  0
 26 24  2  0  0  0  0
 27 32  2  0  0  0  0
 28 30  2  0  0  0  0
 28 29  1  0  0  0  0
 30 31  1  0  0  0  0
 32 33  1  0  0  0  0
 32 30  1  0  0  0  0
 34 37  1  0  0  0  0
 34 27  1  0  0  0  0
 35 34  1  0  0  0  0
 36 34  1  0  0  0  0
M  END
