1
q = 0.0, confidence = 0.98

 44 45  0  0  1  0  0  0  0  0999 V2000
   -0.7345    0.7942    1.0450 N   0  0  0  0  0  0  0  0  0  0  0  0
    0.1477    0.3720    0.0041 C   0  0  1  0  0  3  0  0  0  0  0  0
   -0.3576    0.4656   -1.3146 C   0  0  0  0  0  0  0  0  0  0  0  0
   -1.7282    0.8201   -1.5387 C   0  0  0  0  0  0  0  0  0  0  0  0
   -2.5166    1.2800   -0.4694 C   0  0  1  0  0  3  0  0  0  0  0  0
   -1.7405    1.8288    0.7154 C   0  0  0  0  0  0  0  0  0  0  0  0
   -3.9673    1.6510   -0.6355 C   0  0  0  0  0  0  0  0  0  0  0  0
   -4.1771    3.1465   -0.9198 C   0  0  0  0  0  0  0  0  0  0  0  0
   -0.3556    0.6778    2.4502 C   0  0  0  0  0  0  0  0  0  0  0  0
    2.4503    1.2004   -0.0782 N   0  0  0  0  0  0  0  0  0  0  0  0
    1.6100    0.0434    0.2678 C   0  0  2  0  0  0  0  0  0  0  0  0
    2.1016   -1.1864   -0.5148 C   0  0  0  0  0  0  0  0  0  0  0  0
    3.5571   -1.5096   -0.1733 C   0  0  0  0  0  0  0  0  0  0  0  0
    4.4181   -0.2691   -0.2053 C   0  0  0  0  0  0  0  0  0  0  0  0
    3.8282    0.9535   -0.1662 C   0  0  0  0  0  0  0  0  0  0  0  0
    5.9089   -0.4679   -0.3213 C   0  0  0  0  0  0  0  0  0  0  0  0
    6.7751    0.7894   -0.2839 C   0  0  0  0  0  0  0  0  0  0  0  0
    2.0711    2.4784    0.4877 C   0  0  0  0  0  0  0  0  0  0  0  0
    0.2851    0.1483   -2.1441 H   0  0  0  0  0  0  0  0  0  0  0  0
   -2.1734    0.6404   -2.5288 H   0  0  0  0  0  0  0  0  0  0  0  0
   -1.2680    2.8265    0.5286 H   0  0  0  0  0  0  0  0  0  0  0  0
   -2.4049    1.9260    1.5959 H   0  0  0  0  0  0  0  0  0  0  0  0
   -4.3973    1.0403   -1.4559 H   0  0  0  0  0  0  0  0  0  0  0  0
   -4.5257    1.3645    0.2819 H   0  0  0  0  0  0  0  0  0  0  0  0
   -5.2539    3.3826   -1.0363 H   0  0  0  0  0  0  0  0  0  0  0  0
   -3.7885    3.7805   -0.0957 H   0  0  0  0  0  0  0  0  0  0  0  0
   -3.6576    3.4547   -1.8501 H   0  0  0  0  0  0  0  0  0  0  0  0
    0.3059    1.5115    2.7734 H   0  0  0  0  0  0  0  0  0  0  0  0
   -1.2792    0.6919    3.0584 H   0  0  0  0  0  0  0  0  0  0  0  0
    0.1511   -0.2866    2.6295 H   0  0  0  0  0  0  0  0  0  0  0  0
    1.7312   -0.1926    1.3532 H   0  0  0  0  0  0  0  0  0  0  0  0
    1.4376   -2.0419   -0.2989 H   0  0  0  0  0  0  0  0  0  0  0  0
    2.0232   -0.9701   -1.5999 H   0  0  0  0  0  0  0  0  0  0  0  0
    3.6269   -2.0112    0.8202 H   0  0  0  0  0  0  0  0  0  0  0  0
    3.9459   -2.2561   -0.9008 H   0  0  0  0  0  0  0  0  0  0  0  0
    4.4317    1.8722   -0.2201 H   0  0  0  0  0  0  0  0  0  0  0  0
    6.2303   -1.1606    0.4925 H   0  0  0  0  0  0  0  0  0  0  0  0
    6.1218   -1.0343   -1.2594 H   0  0  0  0  0  0  0  0  0  0  0  0
    6.5390    1.4735   -1.1250 H   0  0  0  0  0  0  0  0  0  0  0  0
    6.6291    1.3556    0.6592 H   0  0  0  0  0  0  0  0  0  0  0  0
    7.8505    0.5333   -0.3579 H   0  0  0  0  0  0  0  0  0  0  0  0
    2.7270    3.2711    0.0774 H   0  0  0  0  0  0  0  0  0  0  0  0
    1.0307    2.7391    0.2086 H   0  0  0  0  0  0  0  0  0  0  0  0
    2.1561    2.5188    1.6048 H   0  0  0  0  0  0  0  0  0  0  0  0
  1  9  1  0  0  0  0
  2  3  1  6  0  0  0
  2 11  1  0  0  0  0
  2  1  1  0  0  0  0
  4  3  2  0  0  0  0
  4  5  1  0  0  0  0
  5  7  1  6  0  0  0
  5  6  1  0  0  0  0
  6  1  1  0  0  0  0
  6 22  1  0  0  0  0
  7 24  1  0  0  0  0
  8  7  1  0  0  0  0
  8 26  1  0  0  0  0
  9 30  1  0  0  0  0
  9 28  1  0  0  0  0
  9 29  1  0  0  0  0
 10 11  1  0  0  0  0
 10 18  1  0  0  0  0
 11 31  1  1  0  0  0
 12 32  1  0  0  0  0
 12 13  1  0  0  0  0
 12 11  1  0  0  0  0
 13 34  1  0  0  0  0
 14 13  1  0  0  0  0
 14 15  2  0  0  0  0
 15 10  1  0  0  0  0
 16 17  1  0  0  0  0
 16 14  1  0  0  0  0
 16 37  1  0  0  0  0
 17 40  1  0  0  0  0
 18 44  1  0  0  0  0
 19  3  1  0  0  0  0
 20  4  1  0  0  0  0
 21  6  1  0  0  0  0
 23  7  1  0  0  0  0
 25  8  1  0  0  0  0
 27  8  1  0  0  0  0
 33 12  1  0  0  0  0
 35 13  1  0  0  0  0
 36 15  1  0  0  0  0
 38 16  1  0  0  0  0
 39 17  1  0  0  0  0
 41 17  1  0  0  0  0
 42 18  1  0  0  0  0
 43 18  1  0  0  0  0
M  END
