4
q = -1.0, confidence = 0.006

 38 40  0  0  0  0  0  0  0  0999 V2000
   -0.2192   -1.8009    0.5285 S   0  0  0  0  0  0  0  0  0  0  0  0
    2.2370    0.8587   -2.4661 S   0  0  0  0  0  1  0  0  0  0  0  0
    2.0584   -0.0061   -0.7090 P   0  0  0  0  0  4  0  0  0  0  0  0
   -0.7196    0.5089   -0.3584 N   0  0  0  0  0  2  0  0  0  0  0  0
    0.2977   -0.3197   -0.1952 C   0  0  0  0  0  0  0  0  0  0  0  0
   -0.6210    1.8569   -0.7990 C   0  0  0  0  0  0  0  0  0  0  0  0
   -1.2529    2.2544   -1.9919 C   0  0  0  0  0  0  0  0  0  0  0  0
   -1.1686    3.5856   -2.4171 C   0  0  0  0  0  0  0  0  0  0  0  0
   -0.4701    4.5324   -1.6499 C   0  0  0  0  0  0  0  0  0  0  0  0
    0.1354    4.1402   -0.4468 C   0  0  0  0  0  0  0  0  0  0  0  0
    0.0573    2.8096   -0.0149 C   0  0  0  0  0  0  0  0  0  0  0  0
    2.7837   -1.6941   -0.6185 C   0  0  0  0  0  0  0  0  0  0  0  0
    2.8983   -2.4171   -1.8212 C   0  0  0  0  0  0  0  0  0  0  0  0
    3.4185   -3.7182   -1.8069 C   0  0  0  0  0  0  0  0  0  0  0  0
    3.8322   -4.2981   -0.5961 C   0  0  0  0  0  0  0  0  0  0  0  0
    3.7301   -3.5728    0.6012 C   0  0  0  0  0  0  0  0  0  0  0  0
    3.2071   -2.2709    0.5949 C   0  0  0  0  0  0  0  0  0  0  0  0
    2.7605    0.9339    0.7066 C   0  0  0  0  0  0  0  0  0  0  0  0
    2.2991    0.7325    2.0243 C   0  0  0  0  0  0  0  0  0  0  0  0
    2.8374    1.4957    3.0716 C   0  0  0  0  0  0  0  0  0  0  0  0
    3.8294    2.4547    2.8074 C   0  0  0  0  0  0  0  0  0  0  0  0
    4.2818    2.6559    1.4929 C   0  0  0  0  0  0  0  0  0  0  0  0
    3.7459    1.9004    0.4396 C   0  0  0  0  0  0  0  0  0  0  0  0
   -1.7799    1.5048   -2.5969 H   0  0  0  0  0  0  0  0  0  0  0  0
   -1.6468    3.8850   -3.3620 H   0  0  0  0  0  0  0  0  0  0  0  0
   -0.4049    5.5775   -1.9877 H   0  0  0  0  0  0  0  0  0  0  0  0
    0.6735    4.8762    0.1693 H   0  0  0  0  0  0  0  0  0  0  0  0
    0.5123    2.5013    0.9357 H   0  0  0  0  0  0  0  0  0  0  0  0
    2.5902   -1.9320   -2.7613 H   0  0  0  0  0  0  0  0  0  0  0  0
    3.5081   -4.2812   -2.7484 H   0  0  0  0  0  0  0  0  0  0  0  0
    4.2447   -5.3186   -0.5868 H   0  0  0  0  0  0  0  0  0  0  0  0
    4.0628   -4.0210    1.5495 H   0  0  0  0  0  0  0  0  0  0  0  0
    3.1397   -1.7051    1.5350 H   0  0  0  0  0  0  0  0  0  0  0  0
    1.5023   -0.0010    2.2284 H   0  0  0  0  0  0  0  0  0  0  0  0
    2.4718    1.3459    4.0987 H   0  0  0  0  0  0  0  0  0  0  0  0
    4.2450    3.0555    3.6306 H   0  0  0  0  0  0  0  0  0  0  0  0
    5.0515    3.4146    1.2842 H   0  0  0  0  0  0  0  0  0  0  0  0
    4.0591    2.0644   -0.6040 H   0  0  0  0  0  0  0  0  0  0  0  0
  2  3  1  0  0  0  0
  3 12  1  0  0  0  0
  3  5  1  0  0  0  0
  3 18  1  0  0  0  0
  4  5  1  0  0  0  0
  5  1  2  0  0  0  0
  6  4  1  0  0  0  0
  6 11  1  0  0  0  0
  7  6  2  0  0  0  0
  8  7  1  0  0  0  0
  8  9  2  0  0  0  0
  9 10  1  0  0  0  0
 10 11  2  0  0  0  0
 10 27  1  0  0  0  0
 11 28  1  0  0  0  0
 12 17  1  0  0  0  0
 13 14  1  0  0  0  0
 13 12  2  0  0  0  0
 14 15  2  0  0  0  0
 15 31  1  0  0  0  0
 15 16  1  0  0  0  0
 16 32  1  0  0  0  0
 17 16  2  0  0  0  0
 17 33  1  0  0  0  0
 18 19  1  0  0  0  0
 19 34  1  0  0  0  0
 19 20  2  0  0  0  0
 20 35  1  0  0  0  0
 21 20  1  0  0  0  0
 21 36  1  0  0  0  0
 22 21  2  0  0  0  0
 23 18  2  0  0  0  0
 23 22  1  0  0  0  0
 24  7  1  0  0  0  0
 25  8  1  0  0  0  0
 26  9  1  0  0  0  0
 29 13  1  0  0  0  0
 30 14  1  0  0  0  0
 37 22  1  0  0  0  0
 38 23  1  0  0  0  0
M  END
