1
q = 0.0, confidence = 0.988

 13 12  0  0  0  0  0  0  0  0999 V2000
    2.6078   -0.2527   -1.2349 N   0  0  0  0  0  0  0  0  0  0  0  0
    3.7377   -0.7470   -0.4270 C   0  0  0  0  0  0  0  0  0  0  0  0
    5.0710   -0.7719   -1.1744 C   0  0  0  0  0  0  0  0  0  0  0  0
    6.2147   -1.2985   -0.3070 C   0  0  0  0  0  0  0  0  0  0  0  0
    2.4666   -0.8562   -2.0600 H   0  0  0  0  0  0  0  0  0  0  0  0
    2.8264    0.6831   -1.6096 H   0  0  0  0  0  0  0  0  0  0  0  0
    3.8009   -0.1093    0.4788 H   0  0  0  0  0  0  0  0  0  0  0  0
    3.4730   -1.7649   -0.0737 H   0  0  0  0  0  0  0  0  0  0  0  0
    5.3089    0.2559   -1.5299 H   0  0  0  0  0  0  0  0  0  0  0  0
    4.9677   -1.3976   -2.0893 H   0  0  0  0  0  0  0  0  0  0  0  0
    7.1744   -1.3040   -0.8599 H   0  0  0  0  0  0  0  0  0  0  0  0
    6.0173   -2.3364    0.0327 H   0  0  0  0  0  0  0  0  0  0  0  0
    6.3514   -0.6733    0.5993 H   0  0  0  0  0  0  0  0  0  0  0  0
  1  2  1  0  0  0  0
  2  8  1  0  0  0  0
  2  7  1  0  0  0  0
  3  2  1  0  0  0  0
  3  4  1  0  0  0  0
  4 12  1  0  0  0  0
  4 13  1  0  0  0  0
  5  1  1  0  0  0  0
  6  1  1  0  0  0  0
  9  3  1  0  0  0  0
 10  3  1  0  0  0  0
 11  4  1  0  0  0  0
M  END
