4
q = 0.0, confidence = 0.992

 11 11  0  0  0  0  0  0  0  0999 V2000
   -5.2056   -0.0810   -0.0009 Cl  0  0  0  0  0  0  0  0  0  0  0  0
   -3.5555   -0.0682   -2.7370 Cl  0  0  0  0  0  0  0  0  0  0  0  0
   -3.5577   -0.0073    2.7357 Cl  0  0  0  0  0  0  0  0  0  0  0  0
   -0.6816    0.0020    0.0000 N   0  0  0  0  0  2  0  0  0  0  0  0
   -1.3548   -0.0184   -1.1662 C   0  0  0  0  0  3  0  0  0  0  0  0
   -0.7647    0.0002   -2.0944 H   0  0  0  0  0  0  0  0  0  0  0  0
   -2.7552   -0.0434   -1.2088 C   0  0  0  0  0  0  0  0  0  0  0  0
   -3.4905   -0.0467   -0.0006 C   0  0  0  0  0  0  0  0  0  0  0  0
   -2.7561   -0.0163    1.2079 C   0  0  0  0  0  0  0  0  0  0  0  0
   -1.3557    0.0082    1.1659 C   0  0  0  0  0  0  0  0  0  0  0  0
   -0.7664    0.0448    2.0941 H   0  0  0  0  0  0  0  0  0  0  0  0
  1  8  1  0  0  0  0
  2  7  1  0  0  0  0
  4 10  1  0  0  0  0
  5  4  1  0  0  0  0
  6  5  1  0  0  0  0
  7  5  1  0  0  0  0
  7  8  2  0  0  0  0
  8  9  1  0  0  0  0
  9  3  1  0  0  0  0
 10  9  2  0  0  0  0
 10 11  1  0  0  0  0
M  END
