1
q = 0.0, confidence = 0.996

 26 28  0  0  1  0  0  0  0  0999 V2000
   -1.5858   -1.2333   -0.8473 N   0  0  0  0  0  2  0  0  0  0  0  0
   -0.4052   -0.7819   -1.3092 C   0  0  1  0  0  3  0  0  0  0  0  0
   -0.1023    0.4099   -1.8189 N   0  0  0  0  0  0  0  0  0  0  0  0
    1.1868    0.6478   -2.0886 C   0  0  0  0  0  0  0  0  0  0  0  0
    2.1945   -0.3300   -1.8507 C   0  0  0  0  0  0  0  0  0  0  0  0
    3.2389   -0.1033   -2.0973 H   0  0  0  0  0  0  0  0  0  0  0  0
    1.8894   -1.5804   -1.3078 C   0  0  0  0  0  0  0  0  0  0  0  0
    0.5498   -1.7933   -1.0674 N   0  0  0  0  0  0  0  0  0  0  0  0
   -0.0400   -2.8620   -0.4706 N   0  0  0  0  0  0  0  0  0  0  0  0
   -1.3123   -2.4691   -0.3554 C   0  0  0  0  0  0  0  0  0  0  0  0
   -2.0824   -3.0718    0.1458 H   0  0  0  0  0  0  0  0  0  0  0  0
    1.5309    2.0135   -2.6067 C   0  0  0  0  0  0  0  0  0  0  0  0
    1.2945    2.7647   -1.8230 H   0  0  0  0  0  0  0  0  0  0  0  0
    0.8937    2.2591   -3.4791 H   0  0  0  0  0  0  0  0  0  0  0  0
    2.5969    2.1042   -2.8836 H   0  0  0  0  0  0  0  0  0  0  0  0
    2.9011   -2.5926   -0.9535 C   0  0  0  0  0  0  0  0  0  0  0  0
    4.1940   -2.1593   -0.5713 C   0  0  0  0  0  0  0  0  0  0  0  0
    4.4115   -1.0828   -0.5124 H   0  0  0  0  0  0  0  0  0  0  0  0
    5.1884   -3.0846   -0.2362 C   0  0  0  0  0  0  0  0  0  0  0  0
    6.1835   -2.7297    0.0707 H   0  0  0  0  0  0  0  0  0  0  0  0
    4.9123   -4.4610   -0.2839 C   0  0  0  0  0  0  0  0  0  0  0  0
    5.6931   -5.1900   -0.0195 H   0  0  0  0  0  0  0  0  0  0  0  0
    3.6351   -4.9018   -0.6639 C   0  0  0  0  0  0  0  0  0  0  0  0
    3.4129   -5.9785   -0.7036 H   0  0  0  0  0  0  0  0  0  0  0  0
    2.6312   -3.9810   -0.9898 C   0  0  0  0  0  0  0  0  0  0  0  0
    1.6288   -4.3304   -1.2652 H   0  0  0  0  0  0  0  0  0  0  0  0
  1 10  1  0  0  0  0
  2  3  1  1  0  0  0
  2  8  1  0  0  0  0
  2  1  1  0  0  0  0
  4  5  1  0  0  0  0
  4  3  2  0  0  0  0
  5  7  2  0  0  0  0
  6  5  1  0  0  0  0
  7  8  1  0  0  0  0
  7 16  1  0  0  0  0
  8  9  1  0  0  0  0
  9 10  2  0  0  0  0
 10 11  1  0  0  0  0
 12  4  1  0  0  0  0
 12 13  1  0  0  0  0
 14 12  1  0  0  0  0
 15 12  1  0  0  0  0
 16 17  1  0  0  0  0
 17 18  1  0  0  0  0
 17 19  2  0  0  0  0
 19 20  1  0  0  0  0
 21 19  1  0  0  0  0
 21 22  1  0  0  0  0
 23 21  2  0  0  0  0
 24 23  1  0  0  0  0
 25 16  2  0  0  0  0
 25 23  1  0  0  0  0
 26 25  1  0  0  0  0
M  END
