1
q = -1.0, confidence = 0.0

 13 12  0  0  0  0  0  0  0  0999 V2000
   -0.0586    2.5607   -0.0273 N   0  0  0  0  0  0  0  0  0  0  0  0
    0.1902    2.3550   -1.5698 B   0  0  0  0  0  0  0  0  0  0  0  0
    1.0095    3.2690    0.6937 C   0  0  0  0  0  0  0  0  0  0  0  0
    1.0676    4.3342    0.3674 H   0  0  0  0  0  0  0  0  0  0  0  0
    1.9882    2.8114    0.5136 H   0  0  0  0  0  0  0  0  0  0  0  0
    0.8106    3.2679    1.7878 H   0  0  0  0  0  0  0  0  0  0  0  0
   -1.2828    3.3378    0.2208 C   0  0  0  0  0  0  0  0  0  0  0  0
   -1.5074    3.3928    1.3060 H   0  0  0  0  0  0  0  0  0  0  0  0
   -2.1437    2.9069   -0.3060 H   0  0  0  0  0  0  0  0  0  0  0  0
   -1.1518    4.3819   -0.1474 H   0  0  0  0  0  0  0  0  0  0  0  0
    0.0342    1.1074   -1.8539 H   0  0  0  0  0  0  0  0  0  0  0  0
   -0.6637    2.9087   -2.2613 H   0  0  0  0  0  0  0  0  0  0  0  0
    1.3285    2.6433   -1.9219 H   0  0  0  0  0  0  0  0  0  0  0  0
  1  7  1  0  0  0  0
  1  3  1  0  0  0  0
  2  1  1  0  0  0  0
  3  6  1  0  0  0  0
  4  3  1  0  0  0  0
  5  3  1  0  0  0  0
  7  8  1  0  0  0  0
  9  7  1  0  0  0  0
 10  7  1  0  0  0  0
 11  2  1  0  0  0  0
 12  2  1  0  0  0  0
 13  2  1  0  0  0  0
M  END
