1
q = 0.0, confidence = 0.996

 14 13  0  0  0  0  0  0  0  0999 V2000
   -0.7391   -0.8375   -1.5679 N   0  0  0  0  0  0  0  0  0  0  0  0
   -1.8965   -1.7446   -1.3749 C   0  0  0  0  0  0  0  0  0  0  0  0
   -0.9858   -0.0693   -2.2095 H   0  0  0  0  0  0  0  0  0  0  0  0
    0.0480   -1.3480   -1.9981 H   0  0  0  0  0  0  0  0  0  0  0  0
   -2.2440   -2.0861   -2.3751 H   0  0  0  0  0  0  0  0  0  0  0  0
   -2.7251   -1.1546   -0.9320 H   0  0  0  0  0  0  0  0  0  0  0  0
   -0.5997   -2.0230    1.5786 O   0  0  0  0  0  0  0  0  0  0  0  0
   -1.5835   -2.9745   -0.5155 C   0  0  0  0  0  0  0  0  0  0  0  0
   -1.6191   -2.8256    1.0114 C   0  0  0  0  0  0  0  0  0  0  0  0
    0.2374   -2.1723    1.0801 H   0  0  0  0  0  0  0  0  0  0  0  0
   -0.6047   -3.4075   -0.8260 H   0  0  0  0  0  0  0  0  0  0  0  0
   -2.3384   -3.7476   -0.7729 H   0  0  0  0  0  0  0  0  0  0  0  0
   -1.5991   -3.8549    1.4474 H   0  0  0  0  0  0  0  0  0  0  0  0
   -2.5878   -2.3714    1.3143 H   0  0  0  0  0  0  0  0  0  0  0  0
  1  2  1  0  0  0  0
  2  6  1  0  0  0  0
  2  8  1  0  0  0  0
  3  1  1  0  0  0  0
  4  1  1  0  0  0  0
  5  2  1  0  0  0  0
  8  9  1  0  0  0  0
  9 14  1  0  0  0  0
  9 13  1  0  0  0  0
  9  7  1  0  0  0  0
 10  7  1  0  0  0  0
 11  8  1  0  0  0  0
 12  8  1  0  0  0  0
M  END
