2
q = 0.0, confidence = 1.0

 15 15  0  0  1  0  0  0  0  0999 V2000
   -2.8617    2.5966    0.0063 O   0  0  0  0  0  0  0  0  0  0  0  0
   -2.0567    0.4108   -0.0024 N   0  0  0  0  0  2  0  0  0  0  0  0
   -4.0006   -0.7406   -0.0331 N   0  0  0  0  0  0  0  0  0  0  0  0
   -1.9508   -1.9532    0.0065 N   0  0  0  0  0  0  0  0  0  0  0  0
   -3.0468    1.3974    0.0029 C   0  0  0  0  0  0  0  0  0  0  0  0
   -4.4000    0.6598    0.0105 C   0  0  0  0  0  0  0  0  0  0  0  0
   -4.9224   -1.8573    0.0094 C   0  0  0  0  0  0  0  0  0  0  0  0
   -2.6473   -0.8090   -0.0082 C   0  0  1  0  0  3  0  0  0  0  0  0
   -4.9722    0.9089    0.9304 H   0  0  0  0  0  0  0  0  0  0  0  0
   -5.0136    0.9495   -0.8687 H   0  0  0  0  0  0  0  0  0  0  0  0
   -5.1360   -2.1939    1.0476 H   0  0  0  0  0  0  0  0  0  0  0  0
   -4.5279   -2.7122   -0.5763 H   0  0  0  0  0  0  0  0  0  0  0  0
   -5.8768   -1.5569   -0.4624 H   0  0  0  0  0  0  0  0  0  0  0  0
   -2.4200   -2.8561    0.0421 H   0  0  0  0  0  0  0  0  0  0  0  0
   -0.9173   -1.9382    0.0024 H   0  0  0  0  0  0  0  0  0  0  0  0
  2  5  1  0  0  0  0
  3  8  1  0  0  0  0
  3  7  1  0  0  0  0
  3  6  1  0  0  0  0
  4 14  1  0  0  0  0
  5  1  2  0  0  0  0
  5  6  1  0  0  0  0
  6  9  1  0  0  0  0
  7 11  1  0  0  0  0
  8  2  1  0  0  0  0
  8  4  1  6  0  0  0
 10  6  1  0  0  0  0
 12  7  1  0  0  0  0
 13  7  1  0  0  0  0
 15  4  1  0  0  0  0
M  END
