2
q = -1.0, confidence = 0.01

 56 58  0  0  0  0  0  0  0  0999 V2000
   -0.8598    0.8653   -0.7725 N   0  0  0  0  0  0  0  0  0  0  0  0
    1.2897    0.4465   -0.4827 N   0  0  0  0  0  2  0  0  0  0  0  0
    0.4184    1.2137   -1.1555 C   0  0  0  0  0  0  0  0  0  0  0  0
    0.6309    2.1879   -2.1698 C   0  0  0  0  0  0  0  0  0  0  0  0
    1.6537    2.4236   -2.4930 H   0  0  0  0  0  0  0  0  0  0  0  0
   -0.4904    2.7765   -2.7461 C   0  0  0  0  0  0  0  0  0  0  0  0
   -0.3636    3.5297   -3.5393 H   0  0  0  0  0  0  0  0  0  0  0  0
   -1.7915    2.4136   -2.3294 C   0  0  0  0  0  0  0  0  0  0  0  0
   -2.6845    2.8939   -2.7516 H   0  0  0  0  0  0  0  0  0  0  0  0
   -1.9450    1.4320   -1.3371 C   0  0  0  0  0  0  0  0  0  0  0  0
    2.6565    0.6897   -0.2928 C   0  0  0  0  0  0  0  0  0  0  0  0
    3.0828    1.8175    0.4771 C   0  0  0  0  0  0  0  0  0  0  0  0
    4.4634    2.0368    0.6437 C   0  0  0  0  0  0  0  0  0  0  0  0
    4.8030    2.9129    1.2180 H   0  0  0  0  0  0  0  0  0  0  0  0
    5.4106    1.1507    0.1188 C   0  0  0  0  0  0  0  0  0  0  0  0
    6.4851    1.3368    0.2687 H   0  0  0  0  0  0  0  0  0  0  0  0
    4.9830    0.0172   -0.5866 C   0  0  0  0  0  0  0  0  0  0  0  0
    5.7301   -0.6838   -0.9870 H   0  0  0  0  0  0  0  0  0  0  0  0
    3.6181   -0.2321   -0.8087 C   0  0  0  0  0  0  0  0  0  0  0  0
    2.0860    2.7566    1.1496 C   0  0  0  0  0  0  0  0  0  0  0  0
    1.0946    2.2594    1.1020 H   0  0  0  0  0  0  0  0  0  0  0  0
    1.9738    4.1086    0.4224 C   0  0  0  0  0  0  0  0  0  0  0  0
    2.9481    4.6407    0.4312 H   0  0  0  0  0  0  0  0  0  0  0  0
    1.2266    4.7621    0.9191 H   0  0  0  0  0  0  0  0  0  0  0  0
    1.6626    3.9809   -0.6312 H   0  0  0  0  0  0  0  0  0  0  0  0
    2.4235    2.9875    2.6335 C   0  0  0  0  0  0  0  0  0  0  0  0
    2.5873    2.0338    3.1751 H   0  0  0  0  0  0  0  0  0  0  0  0
    1.6026    3.5359    3.1397 H   0  0  0  0  0  0  0  0  0  0  0  0
    3.3447    3.5933    2.7560 H   0  0  0  0  0  0  0  0  0  0  0  0
    3.1514   -1.4198   -1.6324 C   0  0  0  0  0  0  0  0  0  0  0  0
    2.1603   -1.7221   -1.2367 H   0  0  0  0  0  0  0  0  0  0  0  0
    4.0823   -2.6350   -1.5598 C   0  0  0  0  0  0  0  0  0  0  0  0
    5.0486   -2.4605   -2.0784 H   0  0  0  0  0  0  0  0  0  0  0  0
    3.6041   -3.5066   -2.0506 H   0  0  0  0  0  0  0  0  0  0  0  0
    4.3132   -2.9181   -0.5115 H   0  0  0  0  0  0  0  0  0  0  0  0
    2.9088   -0.9942   -3.0924 C   0  0  0  0  0  0  0  0  0  0  0  0
    2.1749   -0.1674   -3.1479 H   0  0  0  0  0  0  0  0  0  0  0  0
    2.4938   -1.8390   -3.6778 H   0  0  0  0  0  0  0  0  0  0  0  0
    3.8547   -0.6603   -3.5692 H   0  0  0  0  0  0  0  0  0  0  0  0
   -3.2962    1.0878   -0.7969 C   0  0  0  0  0  0  0  0  0  0  0  0
   -4.0807    0.0693   -1.3933 C   0  0  0  0  0  0  0  0  0  0  0  0
   -5.3540   -0.1973   -0.8488 C   0  0  0  0  0  0  0  0  0  0  0  0
   -5.9701   -0.9902   -1.3013 H   0  0  0  0  0  0  0  0  0  0  0  0
   -5.8449    0.5374    0.2390 C   0  0  0  0  0  0  0  0  0  0  0  0
   -6.8451    0.3193    0.6440 H   0  0  0  0  0  0  0  0  0  0  0  0
   -5.0653    1.5542    0.8065 C   0  0  0  0  0  0  0  0  0  0  0  0
   -5.4497    2.1352    1.6596 H   0  0  0  0  0  0  0  0  0  0  0  0
   -3.7822    1.8402    0.3027 C   0  0  0  0  0  0  0  0  0  0  0  0
   -3.5676   -0.7011   -2.5795 C   0  0  0  0  0  0  0  0  0  0  0  0
   -3.3307   -0.0205   -3.4231 H   0  0  0  0  0  0  0  0  0  0  0  0
   -4.3118   -1.4416   -2.9306 H   0  0  0  0  0  0  0  0  0  0  0  0
   -2.6190   -1.2298   -2.3407 H   0  0  0  0  0  0  0  0  0  0  0  0
   -2.9308    2.9201    0.9245 C   0  0  0  0  0  0  0  0  0  0  0  0
   -3.4242    3.3666    1.8090 H   0  0  0  0  0  0  0  0  0  0  0  0
   -2.7154    3.7324    0.2000 H   0  0  0  0  0  0  0  0  0  0  0  0
   -1.9419    2.5218    1.2325 H   0  0  0  0  0  0  0  0  0  0  0  0
  2 11  1  0  0  0  0
  3  1  1  0  0  0  0
  3  2  1  0  0  0  0
  4  3  2  0  0  0  0
  5  4  1  0  0  0  0
  6  8  2  0  0  0  0
  6  4  1  0  0  0  0
  7  6  1  0  0  0  0
  8 10  1  0  0  0  0
  9  8  1  0  0  0  0
 10 40  1  0  0  0  0
 10  1  2  0  0  0  0
 11 12  1  0  0  0  0
 12 13  2  0  0  0  0
 12 20  1  0  0  0  0
 13 14  1  0  0  0  0
 15 16  1  0  0  0  0
 15 13  1  0  0  0  0
 17 15  2  0  0  0  0
 18 17  1  0  0  0  0
 19 17  1  0  0  0  0
 19 11  2  0  0  0  0
 20 26  1  0  0  0  0
 21 20  1  0  0  0  0
 22 23  1  0  0  0  0
 22 24  1  0  0  0  0
 22 20  1  0  0  0  0
 25 22  1  0  0  0  0
 26 29  1  0  0  0  0
 26 28  1  0  0  0  0
 26 27  1  0  0  0  0
 30 32  1  0  0  0  0
 30 31  1  0  0  0  0
 30 19  1  0  0  0  0
 32 35  1  0  0  0  0
 33 32  1  0  0  0  0
 34 32  1  0  0  0  0
 36 30  1  0  0  0  0
 37 36  1  0  0  0  0
 38 36  1  0  0  0  0
 39 36  1  0  0  0  0
 40 48  1  0  0  0  0
 41 42  1  0  0  0  0
 41 40  2  0  0  0  0
 42 44  2  0  0  0  0
 43 42  1  0  0  0  0
 44 45  1  0  0  0  0
 44 46  1  0  0  0  0
 46 47  1  0  0  0  0
 48 46  2  0  0  0  0
 48 53  1  0  0  0  0
 49 52  1  0  0  0  0
 49 41  1  0  0  0  0
 50 49  1  0  0  0  0
 51 49  1  0  0  0  0
 53 56  1  0  0  0  0
 53 54  1  0  0  0  0
 55 53  1  0  0  0  0
M  END
