2
q = 0.0, confidence = 0.58

 13 13  0  0  0  0  0  0  0  0999 V2000
    1.5484   -1.0583    1.7359 S   0  0  0  0  0  1  0  0  0  0  0  0
    1.5180   -1.4126   -1.0451 N   0  0  0  0  0  2  0  0  0  0  0  0
    2.8479   -0.5597    0.7238 C   0  0  0  0  0  0  0  0  0  0  0  0
    5.0274    0.3997    0.2844 C   0  0  0  0  0  0  0  0  0  0  0  0
    5.9594    0.8609    0.6428 H   0  0  0  0  0  0  0  0  0  0  0  0
    4.8500    0.1791   -1.1147 C   0  0  0  0  0  0  0  0  0  0  0  0
    5.6430    0.4848   -1.8129 H   0  0  0  0  0  0  0  0  0  0  0  0
    3.6978   -0.4120   -1.6014 C   0  0  0  0  0  0  0  0  0  0  0  0
    3.5559   -0.5804   -2.6798 H   0  0  0  0  0  0  0  0  0  0  0  0
    4.0423    0.0421    1.1950 C   0  0  0  0  0  0  0  0  0  0  0  0
    4.1723    0.2167    2.2730 H   0  0  0  0  0  0  0  0  0  0  0  0
    2.6708   -0.8032   -0.6886 C   0  0  0  0  0  0  0  0  0  0  0  0
    1.4582   -1.6258   -2.0498 H   0  0  0  0  0  0  0  0  0  0  0  0
  2 12  1  0  0  0  0
  3 10  1  0  0  0  0
  3  1  1  0  0  0  0
  4  5  1  0  0  0  0
  4 10  2  0  0  0  0
  6  4  1  0  0  0  0
  7  6  1  0  0  0  0
  8  6  2  0  0  0  0
  8 12  1  0  0  0  0
  9  8  1  0  0  0  0
 10 11  1  0  0  0  0
 12  3  2  0  0  0  0
 13  2  1  0  0  0  0
M  END
