3
q = 0.0, confidence = 1.0

 31 33  0  0  0  0  0  0  0  0999 V2000
   -5.6688   -3.5511   -0.2162 Cl  0  0  0  0  0  0  0  0  0  0  0  0
   -4.4228    4.1322   -0.4774 Cl  0  0  0  0  0  0  0  0  0  0  0  0
   -1.6589   -1.6283    0.6382 N   0  0  0  0  0  2  0  0  0  0  0  0
   -1.4432    1.0654    0.9949 N   0  0  0  0  0  0  0  0  0  0  0  0
   -1.7882   -2.9650    0.6700 C   0  0  0  0  0  0  0  0  0  0  0  0
   -3.0468   -3.5769    0.4456 C   0  0  0  0  0  0  0  0  0  0  0  0
   -3.1401   -4.6699    0.4871 H   0  0  0  0  0  0  0  0  0  0  0  0
   -4.1438   -2.7905    0.1270 C   0  0  0  0  0  0  0  0  0  0  0  0
   -4.0190   -1.3722    0.0790 C   0  0  0  0  0  0  0  0  0  0  0  0
   -5.0848   -0.4915   -0.2745 C   0  0  0  0  0  3  0  0  0  0  0  0
   -6.0520   -0.9483   -0.5272 H   0  0  0  0  0  0  0  0  0  0  0  0
   -4.9565    0.8830   -0.3332 C   0  0  0  0  0  0  0  0  0  0  0  0
   -3.6841    1.4754    0.0533 C   0  0  0  0  0  0  0  0  0  0  0  0
   -3.3611    2.8723    0.1109 C   0  0  0  0  0  0  0  0  0  0  0  0
   -2.1578    3.3124    0.6521 C   0  0  0  0  0  0  0  0  0  0  0  0
   -1.9522    4.3904    0.7087 H   0  0  0  0  0  0  0  0  0  0  0  0
   -1.2245    2.3688    1.1466 C   0  0  0  0  0  0  0  0  0  0  0  0
   -2.6010    0.6167    0.4701 C   0  0  0  0  0  0  0  0  0  0  0  0
   -2.7396   -0.8346    0.3959 C   0  0  0  0  0  0  0  0  0  0  0  0
   -0.5637   -3.7972    0.9018 C   0  0  0  0  0  0  0  0  0  0  0  0
    0.0924   -3.7349    0.0076 H   0  0  0  0  0  0  0  0  0  0  0  0
   -0.8227   -4.8572    1.0820 H   0  0  0  0  0  0  0  0  0  0  0  0
    0.0181   -3.3859    1.7523 H   0  0  0  0  0  0  0  0  0  0  0  0
   -6.1673    1.6751   -0.7601 C   0  0  0  0  0  0  0  0  0  0  0  0
   -6.4777    2.4113    0.0067 H   0  0  0  0  0  0  0  0  0  0  0  0
   -7.0142    0.9871   -0.9439 H   0  0  0  0  0  0  0  0  0  0  0  0
   -5.9805    2.2491   -1.6886 H   0  0  0  0  0  0  0  0  0  0  0  0
    0.0167    2.7984    1.8775 C   0  0  0  0  0  0  0  0  0  0  0  0
    0.5286    1.9001    2.2697 H   0  0  0  0  0  0  0  0  0  0  0  0
   -0.2432    3.4688    2.7221 H   0  0  0  0  0  0  0  0  0  0  0  0
    0.7052    3.3565    1.2111 H   0  0  0  0  0  0  0  0  0  0  0  0
  1  8  1  0  0  0  0
  2 14  1  0  0  0  0
  3  5  1  0  0  0  0
  4 17  2  0  0  0  0
  5 20  1  0  0  0  0
  6  7  1  0  0  0  0
  6  5  2  0  0  0  0
  8  6  1  0  0  0  0
  9  8  2  0  0  0  0
  9 19  1  0  0  0  0
 10  9  1  0  0  0  0
 11 10  1  0  0  0  0
 12 10  1  0  0  0  0
 12 13  2  0  0  0  0
 13 14  1  0  0  0  0
 13 18  1  0  0  0  0
 14 15  2  0  0  0  0
 15 16  1  0  0  0  0
 15 17  1  0  0  0  0
 17 28  1  0  0  0  0
 18  4  1  0  0  0  0
 19 18  2  0  0  0  0
 19  3  1  0  0  0  0
 20 22  1  0  0  0  0
 20 23  1  0  0  0  0
 21 20  1  0  0  0  0
 24 12  1  0  0  0  0
 24 25  1  0  0  0  0
 26 24  1  0  0  0  0
 27 24  1  0  0  0  0
 28 29  1  0  0  0  0
 28 30  1  0  0  0  0
 31 28  1  0  0  0  0
M  END
