2
q = 0.0, confidence = 1.0

 33 36  0  0  1  0  0  0  0  0999 V2000
   -2.8324   -1.1145   -2.9013 O   0  0  0  0  0  0  0  0  0  0  0  0
   -1.8549    0.6066    0.2190 N   0  0  0  0  0  2  0  0  0  0  0  0
   -3.8128   -0.1516   -0.5420 N   0  0  0  0  0  0  0  0  0  0  0  0
   -2.4595   -0.0599   -0.7622 C   0  0  2  0  0  3  0  0  0  0  0  0
   -1.8221   -0.6780   -1.9813 C   0  0  2  0  0  0  0  0  0  0  0  0
   -0.8943    0.2735   -2.7047 C   0  0  0  0  0  0  0  0  0  0  0  0
   -1.2293    1.6334   -2.8524 C   0  0  0  0  0  0  0  0  0  0  0  0
   -0.3849    2.4941   -3.5629 C   0  0  0  0  0  0  0  0  0  0  0  0
    0.8008    2.0027   -4.1335 C   0  0  0  0  0  0  0  0  0  0  0  0
    1.1350    0.6480   -3.9982 C   0  0  0  0  0  0  0  0  0  0  0  0
    0.2845   -0.2142   -3.2904 C   0  0  0  0  0  0  0  0  0  0  0  0
   -3.8787   -1.8272   -2.2681 C   0  0  0  0  0  0  0  0  0  0  0  0
   -4.7203   -0.8744   -1.4194 C   0  0  0  0  0  0  0  0  0  0  0  0
   -4.0996    0.5167    0.6430 C   0  0  0  0  0  0  0  0  0  0  0  0
   -5.2965    0.7334    1.3427 C   0  0  0  0  0  0  0  0  0  0  0  0
   -5.1956    1.4410    2.5481 C   0  0  0  0  0  0  0  0  0  0  0  0
   -3.9495    1.9057    3.0363 C   0  0  0  0  0  0  0  0  0  0  0  0
   -2.7561    1.6898    2.3378 C   0  0  0  0  0  0  0  0  0  0  0  0
   -2.8477    0.9920    1.1212 C   0  0  0  0  0  0  0  0  0  0  0  0
   -1.2343   -1.5684   -1.6409 H   0  0  0  0  0  0  0  0  0  0  0  0
   -2.1421    2.0283   -2.3811 H   0  0  0  0  0  0  0  0  0  0  0  0
   -0.6310    3.5634   -3.6371 H   0  0  0  0  0  0  0  0  0  0  0  0
    1.4774    2.6874   -4.6661 H   0  0  0  0  0  0  0  0  0  0  0  0
    2.0744    0.2576   -4.4166 H   0  0  0  0  0  0  0  0  0  0  0  0
    0.5647   -1.2711   -3.1660 H   0  0  0  0  0  0  0  0  0  0  0  0
   -6.2645    0.3713    0.9679 H   0  0  0  0  0  0  0  0  0  0  0  0
   -6.1077    1.6375    3.1310 H   0  0  0  0  0  0  0  0  0  0  0  0
   -3.9193    2.4487    3.9923 H   0  0  0  0  0  0  0  0  0  0  0  0
   -1.7791    2.0202    2.7159 H   0  0  0  0  0  0  0  0  0  0  0  0
   -4.4986   -2.2780   -3.0675 H   0  0  0  0  0  0  0  0  0  0  0  0
   -3.4762   -2.6501   -1.6268 H   0  0  0  0  0  0  0  0  0  0  0  0
   -5.4570   -1.4291   -0.8021 H   0  0  0  0  0  0  0  0  0  0  0  0
   -5.2727   -0.1601   -2.0669 H   0  0  0  0  0  0  0  0  0  0  0  0
  1 12  1  0  0  0  0
  1  5  1  0  0  0  0
  2 19  1  0  0  0  0
  3 14  1  0  0  0  0
  4  3  1  0  0  0  0
  4  2  1  1  0  0  0
  5 20  1  1  0  0  0
  5  4  1  0  0  0  0
  6  5  1  0  0  0  0
  7  6  1  0  0  0  0
  7 21  1  0  0  0  0
  8  7  2  0  0  0  0
  9 10  2  0  0  0  0
  9  8  1  0  0  0  0
 10 11  1  0  0  0  0
 11 25  1  0  0  0  0
 11  6  2  0  0  0  0
 12 31  1  0  0  0  0
 12 13  1  0  0  0  0
 13 32  1  0  0  0  0
 13  3  1  0  0  0  0
 14 19  2  0  0  0  0
 14 15  1  0  0  0  0
 15 16  2  0  0  0  0
 16 17  1  0  0  0  0
 16 27  1  0  0  0  0
 17 28  1  0  0  0  0
 18 29  1  0  0  0  0
 18 17  2  0  0  0  0
 19 18  1  0  0  0  0
 22  8  1  0  0  0  0
 23  9  1  0  0  0  0
 24 10  1  0  0  0  0
 26 15  1  0  0  0  0
 30 12  1  0  0  0  0
 33 13  1  0  0  0  0
M  END
