1
q = 0.0, confidence = 1.0

 19 20  0  0  1  0  0  0  0  0999 V2000
   -1.8302   -0.8637   -0.0493 N   0  0  0  0  0  2  0  0  0  0  0  0
   -2.9398   -0.1068    0.0028 N   0  0  0  0  0  0  0  0  0  0  0  0
   -2.7738    0.9151    0.1044 H   0  0  0  0  0  0  0  0  0  0  0  0
   -4.0731   -0.8573   -0.0488 C   0  0  2  0  0  3  0  0  0  0  0  0
   -2.2356   -2.1481   -0.1385 C   0  0  0  0  0  0  0  0  0  0  0  0
   -1.4854   -2.9430   -0.2012 H   0  0  0  0  0  0  0  0  0  0  0  0
   -3.6410   -2.1952   -0.1390 C   0  0  0  0  0  0  0  0  0  0  0  0
   -4.2703   -3.0860   -0.2215 H   0  0  0  0  0  0  0  0  0  0  0  0
   -5.4122   -0.2630   -0.0254 C   0  0  0  0  0  0  0  0  0  0  0  0
   -6.5414   -1.0666    0.2512 C   0  0  0  0  0  0  0  0  0  0  0  0
   -6.4064   -2.1368    0.4661 H   0  0  0  0  0  0  0  0  0  0  0  0
   -7.8251   -0.5086    0.2733 C   0  0  0  0  0  0  0  0  0  0  0  0
   -8.6928   -1.1487    0.4931 H   0  0  0  0  0  0  0  0  0  0  0  0
   -6.8912    1.6701   -0.2501 C   0  0  0  0  0  0  0  0  0  0  0  0
   -7.0233    2.7436   -0.4521 H   0  0  0  0  0  0  0  0  0  0  0  0
   -8.0060    0.8619    0.0252 C   0  0  0  0  0  0  0  0  0  0  0  0
   -9.0152    1.2998    0.0454 H   0  0  0  0  0  0  0  0  0  0  0  0
   -5.6059    1.1149   -0.2796 C   0  0  0  0  0  0  0  0  0  0  0  0
   -4.7474    1.7596   -0.5231 H   0  0  0  0  0  0  0  0  0  0  0  0
  1  2  1  0  0  0  0
  2  3  1  0  0  0  0
  4  9  1  6  0  0  0
  4  2  1  0  0  0  0
  5  1  1  0  0  0  0
  6  5  1  0  0  0  0
  7  5  2  0  0  0  0
  7  4  1  0  0  0  0
  8  7  1  0  0  0  0
  9 10  1  0  0  0  0
 10 12  2  0  0  0  0
 10 11  1  0  0  0  0
 12 13  1  0  0  0  0
 14 16  2  0  0  0  0
 15 14  1  0  0  0  0
 16 17  1  0  0  0  0
 16 12  1  0  0  0  0
 18 14  1  0  0  0  0
 18  9  2  0  0  0  0
 19 18  1  0  0  0  0
M  END
