1
q = 0.0, confidence = 0.988

 17 17  0  0  0  0  0  0  0  0999 V2000
   -1.4304    1.2503   -0.1368 N   0  0  0  0  0  2  0  0  0  0  0  0
   -1.6182    1.9700    0.9972 C   0  0  0  0  0  3  0  0  0  0  0  0
   -1.7926    1.3957    1.9188 H   0  0  0  0  0  0  0  0  0  0  0  0
   -1.6154    3.3646    1.0175 C   0  0  0  0  0  0  0  0  0  0  0  0
   -1.7855    3.8871    1.9706 H   0  0  0  0  0  0  0  0  0  0  0  0
   -1.4172    4.0911   -0.1745 C   0  0  0  0  0  0  0  0  0  0  0  0
   -1.2219    3.3314   -1.3460 C   0  0  0  0  0  0  0  0  0  0  0  0
   -1.0715    3.8268   -2.3167 H   0  0  0  0  0  0  0  0  0  0  0  0
   -1.2374    1.9378   -1.2897 C   0  0  0  0  0  0  0  0  0  0  0  0
   -1.1060    1.3382   -2.2022 H   0  0  0  0  0  0  0  0  0  0  0  0
   -1.3680    5.5951   -0.1874 C   0  0  0  0  0  0  0  0  0  0  0  0
   -2.0459    5.9898    0.5970 H   0  0  0  0  0  0  0  0  0  0  0  0
   -1.7510    5.9651   -1.1605 H   0  0  0  0  0  0  0  0  0  0  0  0
    0.0578    6.1270    0.0444 C   0  0  0  0  0  0  0  0  0  0  0  0
    0.4568    5.7964    1.0244 H   0  0  0  0  0  0  0  0  0  0  0  0
    0.0641    7.2341    0.0297 H   0  0  0  0  0  0  0  0  0  0  0  0
    0.7533    5.7714   -0.7422 H   0  0  0  0  0  0  0  0  0  0  0  0
  1  2  1  0  0  0  0
  2  4  1  0  0  0  0
  2  3  1  0  0  0  0
  4  5  1  0  0  0  0
  6  4  2  0  0  0  0
  7  9  2  0  0  0  0
  7  6  1  0  0  0  0
  8  7  1  0  0  0  0
  9  1  1  0  0  0  0
 10  9  1  0  0  0  0
 11  6  1  0  0  0  0
 11 14  1  0  0  0  0
 11 12  1  0  0  0  0
 13 11  1  0  0  0  0
 14 15  1  0  0  0  0
 16 14  1  0  0  0  0
 17 14  1  0  0  0  0
M  END
