2
q = -1.0, confidence = 0.0

 42 45  0  0  0  0  0  0  0  0999 V2000
    1.3651   -0.9950   -0.4009 P   0  0  0  0  0  0  0  0  0  0  0  0
   -1.3243   -0.1223   -0.4397 N   0  0  0  0  0  0  0  0  0  0  0  0
   -2.6083    0.1943   -0.1983 N   0  0  0  0  0  2  0  0  0  0  0  0
   -5.4637   -1.8990   -1.1031 N   0  0  0  0  0  0  0  0  0  0  0  0
   -1.2323   -1.3479   -1.0885 C   0  0  0  0  0  0  0  0  0  0  0  0
   -2.5246   -1.8347   -1.2537 C   0  0  0  0  0  0  0  0  0  0  0  0
   -3.3525   -0.8257   -0.6806 C   0  0  0  0  0  0  0  0  0  0  0  0
    0.1157   -1.8555   -1.4995 C   0  0  0  0  0  0  0  0  0  0  0  0
   -4.8173   -0.8266   -0.5898 C   0  0  0  0  0  0  0  0  0  0  0  0
   -5.5071    0.2544    0.0110 C   0  0  0  0  0  0  0  0  0  0  0  0
   -6.9017    0.2119    0.0760 C   0  0  0  0  0  0  0  0  0  0  0  0
   -7.5744   -0.9012   -0.4561 C   0  0  0  0  0  0  0  0  0  0  0  0
   -6.8007   -1.9225   -1.0316 C   0  0  0  0  0  0  0  0  0  0  0  0
    2.9446   -0.9145   -1.3263 C   0  0  0  0  0  0  0  0  0  0  0  0
    4.1785   -1.2574   -0.7367 C   0  0  0  0  0  0  0  0  0  0  0  0
    5.3765   -1.0589   -1.4415 C   0  0  0  0  0  0  0  0  0  0  0  0
    5.3552   -0.5167   -2.7352 C   0  0  0  0  0  0  0  0  0  0  0  0
    4.1296   -0.1585   -3.3217 C   0  0  0  0  0  0  0  0  0  0  0  0
    2.9319   -0.3462   -2.6193 C   0  0  0  0  0  0  0  0  0  0  0  0
    1.6424   -2.1713    0.9786 C   0  0  0  0  0  0  0  0  0  0  0  0
    2.1831   -3.4556    0.7550 C   0  0  0  0  0  0  0  0  0  0  0  0
    2.3337   -4.3494    1.8243 C   0  0  0  0  0  0  0  0  0  0  0  0
    1.9408   -3.9708    3.1197 C   0  0  0  0  0  0  0  0  0  0  0  0
    1.3952   -2.6978    3.3447 C   0  0  0  0  0  0  0  0  0  0  0  0
    1.2456   -1.7980    2.2780 C   0  0  0  0  0  0  0  0  0  0  0  0
   -2.8631   -2.7632   -1.7224 H   0  0  0  0  0  0  0  0  0  0  0  0
    0.3610   -1.5863   -2.5498 H   0  0  0  0  0  0  0  0  0  0  0  0
    0.2059   -2.9564   -1.4088 H   0  0  0  0  0  0  0  0  0  0  0  0
   -4.9262    1.0978    0.4099 H   0  0  0  0  0  0  0  0  0  0  0  0
   -7.4635    1.0390    0.5377 H   0  0  0  0  0  0  0  0  0  0  0  0
   -8.6715   -0.9785   -0.4274 H   0  0  0  0  0  0  0  0  0  0  0  0
   -7.2955   -2.8137   -1.4606 H   0  0  0  0  0  0  0  0  0  0  0  0
    4.2042   -1.6815    0.2779 H   0  0  0  0  0  0  0  0  0  0  0  0
    6.3341   -1.3315   -0.9726 H   0  0  0  0  0  0  0  0  0  0  0  0
    6.2957   -0.3648   -3.2861 H   0  0  0  0  0  0  0  0  0  0  0  0
    4.1067    0.2784   -4.3315 H   0  0  0  0  0  0  0  0  0  0  0  0
    1.9783   -0.0304   -3.0713 H   0  0  0  0  0  0  0  0  0  0  0  0
    2.4912   -3.7573   -0.2586 H   0  0  0  0  0  0  0  0  0  0  0  0
    2.7564   -5.3498    1.6459 H   0  0  0  0  0  0  0  0  0  0  0  0
    2.0573   -4.6762    3.9566 H   0  0  0  0  0  0  0  0  0  0  0  0
    1.0787   -2.4026    4.3564 H   0  0  0  0  0  0  0  0  0  0  0  0
    0.8041   -0.7990    2.4286 H   0  0  0  0  0  0  0  0  0  0  0  0
  1 20  1  0  0  0  0
  2  3  1  0  0  0  0
  4 13  2  0  0  0  0
  4  9  1  0  0  0  0
  5  2  2  0  0  0  0
  6  5  1  0  0  0  0
  6  7  2  0  0  0  0
  7  9  1  0  0  0  0
  7  3  1  0  0  0  0
  8 28  1  0  0  0  0
  8  5  1  0  0  0  0
  8  1  1  0  0  0  0
  9 10  2  0  0  0  0
 10 11  1  0  0  0  0
 10 29  1  0  0  0  0
 11 30  1  0  0  0  0
 12 31  1  0  0  0  0
 12 11  2  0  0  0  0
 13 12  1  0  0  0  0
 14 15  1  0  0  0  0
 14  1  1  0  0  0  0
 15 33  1  0  0  0  0
 16 34  1  0  0  0  0
 16 15  2  0  0  0  0
 17 16  1  0  0  0  0
 18 17  2  0  0  0  0
 18 19  1  0  0  0  0
 19 14  2  0  0  0  0
 20 25  1  0  0  0  0
 21 20  2  0  0  0  0
 21 22  1  0  0  0  0
 22 23  2  0  0  0  0
 23 24  1  0  0  0  0
 23 40  1  0  0  0  0
 24 41  1  0  0  0  0
 25 42  1  0  0  0  0
 25 24  2  0  0  0  0
 26  6  1  0  0  0  0
 27  8  1  0  0  0  0
 32 13  1  0  0  0  0
 35 17  1  0  0  0  0
 36 18  1  0  0  0  0
 37 19  1  0  0  0  0
 38 21  1  0  0  0  0
 39 22  1  0  0  0  0
M  END
