1
q = 0.0, confidence = 0.99

 29 31  0  0  0  0  0  0  0  0999 V2000
   -1.6733    0.0000   -2.0712 N   0  0  0  0  0  0  0  0  0  0  0  0
   -1.4904    0.8235   -2.6655 H   0  0  0  0  0  0  0  0  0  0  0  0
   -1.4903   -0.8234   -2.6656 H   0  0  0  0  0  0  0  0  0  0  0  0
   -3.1348   -0.0001   -1.7196 C   0  0  0  0  0  0  0  0  0  0  0  0
   -3.7194   -0.0002   -2.6646 H   0  0  0  0  0  0  0  0  0  0  0  0
   -3.5094   -1.2536   -0.9582 C   0  0  0  0  0  0  0  0  0  0  0  0
   -2.8952   -1.5583    0.2889 C   0  0  0  0  0  0  0  0  0  0  0  0
   -1.8702   -0.7085    0.9105 C   0  0  0  0  0  3  0  0  0  0  0  0
   -1.3162   -1.1761    1.7397 H   0  0  0  0  0  0  0  0  0  0  0  0
   -1.8704    0.7092    0.9104 C   0  0  0  0  0  3  0  0  0  0  0  0
   -1.3165    1.1771    1.7395 H   0  0  0  0  0  0  0  0  0  0  0  0
   -2.8956    1.5586    0.2887 C   0  0  0  0  0  0  0  0  0  0  0  0
   -3.5097    1.2535   -0.9584 C   0  0  0  0  0  0  0  0  0  0  0  0
   -4.4846   -2.1169   -1.4885 C   0  0  0  0  0  0  0  0  0  0  0  0
   -4.9511   -1.8651   -2.4547 H   0  0  0  0  0  0  0  0  0  0  0  0
   -4.8676   -3.2835   -0.8114 C   0  0  0  0  0  0  0  0  0  0  0  0
   -5.6310   -3.9476   -1.2435 H   0  0  0  0  0  0  0  0  0  0  0  0
   -4.2634   -3.5939    0.4167 C   0  0  0  0  0  0  0  0  0  0  0  0
   -4.5513   -4.5059    0.9615 H   0  0  0  0  0  0  0  0  0  0  0  0
   -3.2875   -2.7446    0.9520 C   0  0  0  0  0  0  0  0  0  0  0  0
   -2.8130   -2.9882    1.9132 H   0  0  0  0  0  0  0  0  0  0  0  0
   -3.2884    2.7448    0.9516 C   0  0  0  0  0  0  0  0  0  0  0  0
   -2.8141    2.9887    1.9128 H   0  0  0  0  0  0  0  0  0  0  0  0
   -4.2645    3.5937    0.4161 C   0  0  0  0  0  0  0  0  0  0  0  0
   -4.5527    4.5057    0.9607 H   0  0  0  0  0  0  0  0  0  0  0  0
   -4.8686    3.2830   -0.8120 C   0  0  0  0  0  0  0  0  0  0  0  0
   -5.6321    3.9468   -1.2442 H   0  0  0  0  0  0  0  0  0  0  0  0
   -4.4852    2.1164   -1.4889 C   0  0  0  0  0  0  0  0  0  0  0  0
   -4.9515    1.8643   -2.4551 H   0  0  0  0  0  0  0  0  0  0  0  0
  1  4  1  0  0  0  0
  2  1  1  0  0  0  0
  3  1  1  0  0  0  0
  4 13  1  0  0  0  0
  4  6  1  0  0  0  0
  5  4  1  0  0  0  0
  6  7  1  0  0  0  0
  7  8  1  0  0  0  0
  7 20  2  0  0  0  0
  8  9  1  0  0  0  0
 10  8  1  0  0  0  0
 10 11  1  0  0  0  0
 12 10  1  0  0  0  0
 12 22  1  0  0  0  0
 13 12  2  0  0  0  0
 14  6  2  0  0  0  0
 14 16  1  0  0  0  0
 15 14  1  0  0  0  0
 16 18  2  0  0  0  0
 17 16  1  0  0  0  0
 18 20  1  0  0  0  0
 18 19  1  0  0  0  0
 20 21  1  0  0  0  0
 22 23  1  0  0  0  0
 24 22  2  0  0  0  0
 24 25  1  0  0  0  0
 26 24  1  0  0  0  0
 27 26  1  0  0  0  0
 28 13  1  0  0  0  0
 28 26  2  0  0  0  0
 29 28  1  0  0  0  0
M  END
