1
q = -1.0, confidence = 0.0

 34 39  0  0  1  0  0  0  0  0999 V2000
   -0.8507    1.7512   -0.3970 N   0  0  0  0  0  0  0  0  0  0  0  0
    1.4176   -0.7872   -0.4748 C   0  0  2  0  0  0  0  0  0  0  0  0
    1.5760    0.8800   -0.2674 C   0  0  1  0  0  0  0  0  0  0  0  0
    0.5170    1.7077   -0.9801 C   0  0  0  0  0  0  0  0  0  0  0  0
    0.9068    2.7445   -1.0790 H   0  0  0  0  0  0  0  0  0  0  0  0
    0.4101    1.2797   -1.9949 H   0  0  0  0  0  0  0  0  0  0  0  0
   -0.8737    2.6022    0.8174 C   0  0  0  0  0  0  0  0  0  0  0  0
   -0.4722    3.6139    0.5858 H   0  0  0  0  0  0  0  0  0  0  0  0
   -0.2606    2.1492    1.6138 H   0  0  0  0  0  0  0  0  0  0  0  0
   -1.9123    2.7025    1.1799 H   0  0  0  0  0  0  0  0  0  0  0  0
   -1.7370    2.3512   -1.4294 C   0  0  0  0  0  0  0  0  0  0  0  0
   -1.3611    3.3559   -1.7295 H   0  0  0  0  0  0  0  0  0  0  0  0
   -2.7592    2.4575   -1.0249 H   0  0  0  0  0  0  0  0  0  0  0  0
   -1.7709    1.6907   -2.3154 H   0  0  0  0  0  0  0  0  0  0  0  0
    1.1806   -0.0941    1.0904 B   0  0  1  0  0  0  0  0  0  0  0  0
    0.0446   -0.0712    1.5086 H   0  0  0  0  0  0  0  0  0  0  0  0
    2.0769   -1.6050    0.8837 B   0  0  2  0  0  0  0  0  0  0  0  0
    1.5380   -2.6279    1.2201 H   0  0  0  0  0  0  0  0  0  0  0  0
    2.9621   -1.5067   -0.6581 B   0  0  2  0  0  0  0  0  0  0  0  0
    3.0366   -2.4674   -1.3808 H   0  0  0  0  0  0  0  0  0  0  0  0
    2.6117    0.0689   -1.3929 B   0  0  2  0  0  0  0  0  0  0  0  0
    2.3809    0.2361   -2.5616 H   0  0  0  0  0  0  0  0  0  0  0  0
    2.3359    1.2512    1.2135 B   0  0  1  0  0  0  0  0  0  0  0  0
    1.9958    2.2590    1.7827 H   0  0  0  0  0  0  0  0  0  0  0  0
    2.6986   -0.3228    1.9653 B   0  0  2  0  0  0  0  0  0  0  0  0
    2.6751   -0.4593    3.1651 H   0  0  0  0  0  0  0  0  0  0  0  0
    3.8120   -1.2014    0.8813 B   0  0  1  0  0  0  0  0  0  0  0  0
    4.6242   -1.9916    1.2999 H   0  0  0  0  0  0  0  0  0  0  0  0
    4.1355   -0.1642   -0.5415 B   0  0  0  0  0  0  0  0  0  0  0  0
    5.1692   -0.1803   -1.1658 H   0  0  0  0  0  0  0  0  0  0  0  0
    3.2214    1.3505   -0.3218 B   0  0  2  0  0  0  0  0  0  0  0  0
    3.4637    2.4270   -0.8113 H   0  0  0  0  0  0  0  0  0  0  0  0
    3.9768    0.5656    1.0856 B   0  0  0  0  0  2  0  0  0  0  0  0
    4.9067    1.0880    1.6528 H   0  0  0  0  0  0  0  0  0  0  0  0
  1  7  1  0  0  0  0
  2  3  1  0  0  0  0
  2 17  1  0  0  0  0
  2 15  1  0  0  0  0
  3 23  1  0  0  0  0
  4  1  1  0  0  0  0
  4  3  1  0  0  0  0
  5  4  1  0  0  0  0
  6  4  1  0  0  0  0
  7 10  1  0  0  0  0
  7  9  1  0  0  0  0
  8  7  1  0  0  0  0
 11 13  1  0  0  0  0
 11  1  1  0  0  0  0
 12 11  1  0  0  0  0
 14 11  1  0  0  0  0
 15 16  1  0  0  0  0
 15 25  1  0  0  0  0
 17 15  1  0  0  0  0
 17 18  1  0  0  0  0
 19  2  1  0  0  0  0
 19 17  1  0  0  0  0
 20 19  1  0  0  0  0
 21 19  1  0  0  0  0
 21 29  1  0  0  0  0
 21 31  1  0  0  0  0
 22 21  1  0  0  0  0
 23 24  1  0  0  0  0
 23 25  1  0  0  0  0
 25 26  1  0  0  0  0
 27 33  1  0  0  0  0
 27 28  1  0  0  0  0
 27 25  1  0  0  0  0
 29 27  1  0  0  0  0
 30 29  1  0  0  0  0
 31  3  1  0  0  0  0
 31 23  1  0  0  0  0
 32 31  1  0  0  0  0
 33 34  1  0  0  0  0
M  END
