1
q = -1.0, confidence = 0.0

 36 36  0  0  0  0  0  0  0  0999 V2000
   -0.4461    1.0082    0.3374 N   0  0  0  0  0  2  0  0  0  0  0  0
   -3.8649   -1.2624    1.1458 N   0  0  0  0  0  0  0  0  0  0  0  0
   -1.3407   -0.1430    0.3138 C   0  0  0  0  0  0  0  0  0  0  0  0
   -1.6548   -0.4483    1.3360 H   0  0  0  0  0  0  0  0  0  0  0  0
   -0.7506   -1.0295   -0.0638 H   0  0  0  0  0  0  0  0  0  0  0  0
   -2.5873   -0.0310   -0.5517 C   0  0  0  0  0  0  0  0  0  0  0  0
   -3.8289   -0.5473   -0.0831 C   0  0  0  0  0  0  0  0  0  0  0  0
   -4.9987   -0.3062   -0.8386 C   0  0  0  0  0  0  0  0  0  0  0  0
   -5.9666   -0.6809   -0.4771 H   0  0  0  0  0  0  0  0  0  0  0  0
   -4.9375    0.3815   -2.0580 C   0  0  0  0  0  0  0  0  0  0  0  0
   -5.8606    0.5504   -2.6336 H   0  0  0  0  0  0  0  0  0  0  0  0
   -3.7036    0.8319   -2.5506 C   0  0  0  0  0  0  0  0  0  0  0  0
   -3.6448    1.3554   -3.5163 H   0  0  0  0  0  0  0  0  0  0  0  0
   -2.5434    0.6279   -1.7912 C   0  0  0  0  0  0  0  0  0  0  0  0
   -1.5771    1.0160   -2.1443 H   0  0  0  0  0  0  0  0  0  0  0  0
   -3.2552   -2.5864    1.1231 C   0  0  0  0  0  0  0  0  0  0  0  0
   -3.9311   -3.3562    0.6712 H   0  0  0  0  0  0  0  0  0  0  0  0
   -3.0080   -2.9139    2.1555 H   0  0  0  0  0  0  0  0  0  0  0  0
   -2.3232   -2.5832    0.5289 H   0  0  0  0  0  0  0  0  0  0  0  0
   -5.1076   -1.2422    1.8927 C   0  0  0  0  0  0  0  0  0  0  0  0
   -5.5058   -0.2104    1.9423 H   0  0  0  0  0  0  0  0  0  0  0  0
   -4.9146   -1.5882    2.9295 H   0  0  0  0  0  0  0  0  0  0  0  0
   -5.9038   -1.9061    1.4676 H   0  0  0  0  0  0  0  0  0  0  0  0
   -0.8845    2.2492    1.0286 C   0  0  0  0  0  0  0  0  0  0  0  0
    0.3620    2.9273    1.6250 C   0  0  0  0  0  0  0  0  0  0  0  0
    0.8223    2.2887    2.4041 H   0  0  0  0  0  0  0  0  0  0  0  0
    0.0899    3.8941    2.0933 H   0  0  0  0  0  0  0  0  0  0  0  0
    1.1187    3.1270    0.8415 H   0  0  0  0  0  0  0  0  0  0  0  0
   -1.8795    1.9502    2.1661 C   0  0  0  0  0  0  0  0  0  0  0  0
   -2.8158    1.4920    1.7914 H   0  0  0  0  0  0  0  0  0  0  0  0
   -2.1481    2.8947    2.6793 H   0  0  0  0  0  0  0  0  0  0  0  0
   -1.4374    1.2690    2.9211 H   0  0  0  0  0  0  0  0  0  0  0  0
   -1.5338    3.2170    0.0151 C   0  0  0  0  0  0  0  0  0  0  0  0
   -0.8399    3.4058   -0.8279 H   0  0  0  0  0  0  0  0  0  0  0  0
   -1.7645    4.1865    0.5027 H   0  0  0  0  0  0  0  0  0  0  0  0
   -2.4746    2.8037   -0.3935 H   0  0  0  0  0  0  0  0  0  0  0  0
  1 24  1  0  0  0  0
  2 20  1  0  0  0  0
  3  1  1  0  0  0  0
  3  4  1  0  0  0  0
  5  3  1  0  0  0  0
  6  7  1  0  0  0  0
  6  3  1  0  0  0  0
  7  2  1  0  0  0  0
  8  9  1  0  0  0  0
  8  7  2  0  0  0  0
 10  8  1  0  0  0  0
 11 10  1  0  0  0  0
 12 10  2  0  0  0  0
 12 14  1  0  0  0  0
 13 12  1  0  0  0  0
 14  6  2  0  0  0  0
 15 14  1  0  0  0  0
 16  2  1  0  0  0  0
 16 18  1  0  0  0  0
 17 16  1  0  0  0  0
 19 16  1  0  0  0  0
 20 21  1  0  0  0  0
 20 22  1  0  0  0  0
 23 20  1  0  0  0  0
 24 25  1  0  0  0  0
 24 29  1  0  0  0  0
 25 27  1  0  0  0  0
 25 26  1  0  0  0  0
 28 25  1  0  0  0  0
 29 31  1  0  0  0  0
 29 32  1  0  0  0  0
 30 29  1  0  0  0  0
 33 35  1  0  0  0  0
 33 24  1  0  0  0  0
 34 33  1  0  0  0  0
 36 33  1  0  0  0  0
M  END
