6
q = 0.0, confidence = 1.0

 55 58  0  0  1  0  0  0  0  0999 V2000
   -1.9060    0.5703   -3.4219 O   0  0  0  0  0  0  0  0  0  0  0  0
   -7.4406    0.2651   -0.2443 O   0  0  0  0  0  0  0  0  0  0  0  0
   -6.3543    1.1153    1.9671 O   0  0  0  0  0  0  0  0  0  0  0  0
    4.0455    3.5689   -1.2385 O   0  0  0  0  0  0  0  0  0  0  0  0
    3.4068    5.5862    0.2890 O   0  0  0  0  0  0  0  0  0  0  0  0
   -1.1778   -1.3976   -0.3655 N   0  0  0  0  0  0  0  0  0  0  0  0
   -1.5017   -2.3562   -0.1678 H   0  0  0  0  0  0  0  0  0  0  0  0
   -0.9082    1.3161   -1.5285 N   0  0  0  0  0  0  0  0  0  0  0  0
   -0.8636    2.2217   -2.0039 H   0  0  0  0  0  0  0  0  0  0  0  0
   -1.8520   -0.5291    0.6494 C   0  0  1  0  0  0  0  0  0  0  0  0
   -1.7844   -1.1116    1.5902 H   0  0  0  0  0  0  0  0  0  0  0  0
   -1.0648    0.7906    0.8987 C   0  0  0  0  0  0  0  0  0  0  0  0
   -1.7884    1.5990    1.1245 H   0  0  0  0  0  0  0  0  0  0  0  0
   -0.4143    0.6550    1.7865 H   0  0  0  0  0  0  0  0  0  0  0  0
   -0.1662    1.1794   -0.2720 C   0  0  2  0  0  0  0  0  0  0  0  0
    0.5526    0.3423   -0.4093 H   0  0  0  0  0  0  0  0  0  0  0  0
   -1.4617    0.3348   -2.2981 C   0  0  0  0  0  0  0  0  0  0  0  0
   -1.6110   -1.1103   -1.7640 C   0  0  2  0  0  0  0  0  0  0  0  0
   -0.9744   -1.7206   -2.4340 H   0  0  0  0  0  0  0  0  0  0  0  0
   -3.0848   -1.5073   -1.9014 C   0  0  0  0  0  0  0  0  0  0  0  0
   -3.4195   -1.2355   -2.9212 H   0  0  0  0  0  0  0  0  0  0  0  0
   -3.1769   -2.6144   -1.8111 H   0  0  0  0  0  0  0  0  0  0  0  0
   -3.9192   -0.8062   -0.8537 C   0  0  0  0  0  0  0  0  0  0  0  0
   -5.3042   -0.6125   -1.0628 C   0  0  0  0  0  0  0  0  0  0  0  0
   -5.7436   -0.9719   -2.0034 H   0  0  0  0  0  0  0  0  0  0  0  0
   -6.1074    0.0333   -0.1175 C   0  0  0  0  0  0  0  0  0  0  0  0
   -5.5096    0.5064    1.0923 C   0  0  0  0  0  0  0  0  0  0  0  0
   -4.1387    0.3167    1.2932 C   0  0  0  0  0  0  0  0  0  0  0  0
   -3.6743    0.6669    2.2255 H   0  0  0  0  0  0  0  0  0  0  0  0
   -3.3301   -0.3321    0.3297 C   0  0  0  0  0  0  0  0  0  0  0  0
   -8.0765   -0.1739   -1.4271 C   0  0  0  0  0  0  0  0  0  0  0  0
   -9.1414    0.1099   -1.3348 H   0  0  0  0  0  0  0  0  0  0  0  0
   -8.0058   -1.2785   -1.5521 H   0  0  0  0  0  0  0  0  0  0  0  0
   -7.6491    0.3113   -2.3339 H   0  0  0  0  0  0  0  0  0  0  0  0
   -5.8119    1.6077    3.1739 C   0  0  0  0  0  0  0  0  0  0  0  0
   -5.0307    2.3816    2.9945 H   0  0  0  0  0  0  0  0  0  0  0  0
   -5.3667    0.7958    3.7933 H   0  0  0  0  0  0  0  0  0  0  0  0
   -6.6499    2.0658    3.7316 H   0  0  0  0  0  0  0  0  0  0  0  0
    0.7128    2.3941   -0.0589 C   0  0  0  0  0  0  0  0  0  0  0  0
    1.9459    2.4150   -0.7550 C   0  0  0  0  0  0  0  0  0  0  0  0
    2.1961    1.5491   -1.3857 H   0  0  0  0  0  0  0  0  0  0  0  0
    2.8349    3.4868   -0.6257 C   0  0  0  0  0  0  0  0  0  0  0  0
    2.4862    4.5889    0.2172 C   0  0  0  0  0  0  0  0  0  0  0  0
    1.2607    4.5658    0.8992 C   0  0  0  0  0  0  0  0  0  0  0  0
    0.9815    5.4035    1.5520 H   0  0  0  0  0  0  0  0  0  0  0  0
    0.3774    3.4753    0.7624 C   0  0  0  0  0  0  0  0  0  0  0  0
   -0.5728    3.4845    1.3156 H   0  0  0  0  0  0  0  0  0  0  0  0
    4.4248    2.4984   -2.0818 C   0  0  0  0  0  0  0  0  0  0  0  0
    5.4205    2.7568   -2.4873 H   0  0  0  0  0  0  0  0  0  0  0  0
    3.7114    2.3562   -2.9239 H   0  0  0  0  0  0  0  0  0  0  0  0
    4.4968    1.5360   -1.5245 H   0  0  0  0  0  0  0  0  0  0  0  0
    3.1135    6.7008    1.1056 C   0  0  0  0  0  0  0  0  0  0  0  0
    3.9768    7.3869    1.0222 H   0  0  0  0  0  0  0  0  0  0  0  0
    2.9827    6.4121    2.1736 H   0  0  0  0  0  0  0  0  0  0  0  0
    2.1947    7.2331    0.7694 H   0  0  0  0  0  0  0  0  0  0  0  0
  1 17  2  0  0  0  0
  2 26  1  0  0  0  0
  3 35  1  0  0  0  0
  4 42  1  0  0  0  0
  5 52  1  0  0  0  0
  6  7  1  0  0  0  0
  6 10  1  0  0  0  0
  8 15  1  0  0  0  0
  9  8  1  0  0  0  0
 10 12  1  0  0  0  0
 10 11  1  1  0  0  0
 12 13  1  0  0  0  0
 12 14  1  0  0  0  0
 15 16  1  6  0  0  0
 15 39  1  0  0  0  0
 15 12  1  0  0  0  0
 17 18  1  0  0  0  0
 17  8  1  0  0  0  0
 18 19  1  6  0  0  0
 18  6  1  0  0  0  0
 20 22  1  0  0  0  0
 20 18  1  0  0  0  0
 20 23  1  0  0  0  0
 21 20  1  0  0  0  0
 23 30  1  0  0  0  0
 24 23  2  0  0  0  0
 24 26  1  0  0  0  0
 25 24  1  0  0  0  0
 26 27  2  0  0  0  0
 27 28  1  0  0  0  0
 27  3  1  0  0  0  0
 28 29  1  0  0  0  0
 30 10  1  0  0  0  0
 30 28  2  0  0  0  0
 31 32  1  0  0  0  0
 31  2  1  0  0  0  0
 33 31  1  0  0  0  0
 34 31  1  0  0  0  0
 35 38  1  0  0  0  0
 35 37  1  0  0  0  0
 36 35  1  0  0  0  0
 39 46  1  0  0  0  0
 40 42  1  0  0  0  0
 40 39  2  0  0  0  0
 41 40  1  0  0  0  0
 42 43  2  0  0  0  0
 43  5  1  0  0  0  0
 43 44  1  0  0  0  0
 44 45  1  0  0  0  0
 46 44  2  0  0  0  0
 46 47  1  0  0  0  0
 48 51  1  0  0  0  0
 48  4  1  0  0  0  0
 49 48  1  0  0  0  0
 50 48  1  0  0  0  0
 52 54  1  0  0  0  0
 53 52  1  0  0  0  0
 55 52  1  0  0  0  0
M  END
