1
q = 0.0, confidence = 0.936

 18 18  0  0  0  0  0  0  0  0999 V2000
    1.9385    0.6143   -0.1017 N   0  0  0  0  0  2  0  0  0  0  0  0
    4.1224    0.5717   -0.4317 N   0  0  0  0  0  0  0  0  0  0  0  0
    2.9717   -0.1523   -0.4646 C   0  0  0  0  0  3  0  0  0  0  0  0
    3.8026    1.8560   -0.0174 C   0  0  0  0  0  0  0  0  0  0  0  0
    2.4371    1.8736    0.1801 C   0  0  0  0  0  0  0  0  0  0  0  0
    5.4614    0.0492   -0.6769 C   0  0  0  0  0  0  0  0  0  0  0  0
    6.2004   -0.3411    0.6078 C   0  0  0  0  0  0  0  0  0  0  0  0
    7.5989   -0.8887    0.3268 C   0  0  0  0  0  0  0  0  0  0  0  0
    2.8909   -1.2157   -0.7201 H   0  0  0  0  0  0  0  0  0  0  0  0
    4.5624    2.6363    0.0891 H   0  0  0  0  0  0  0  0  0  0  0  0
    1.7603    2.6835    0.4707 H   0  0  0  0  0  0  0  0  0  0  0  0
    5.3593   -0.8283   -1.3473 H   0  0  0  0  0  0  0  0  0  0  0  0
    6.0330    0.8173   -1.2388 H   0  0  0  0  0  0  0  0  0  0  0  0
    5.5899   -1.0930    1.1517 H   0  0  0  0  0  0  0  0  0  0  0  0
    6.2594    0.5475    1.2721 H   0  0  0  0  0  0  0  0  0  0  0  0
    8.2322   -0.1418   -0.1958 H   0  0  0  0  0  0  0  0  0  0  0  0
    7.5595   -1.7959   -0.3114 H   0  0  0  0  0  0  0  0  0  0  0  0
    8.1164   -1.1653    1.2661 H   0  0  0  0  0  0  0  0  0  0  0  0
  1  5  1  0  0  0  0
  2  4  1  0  0  0  0
  3  2  1  0  0  0  0
  3  1  1  0  0  0  0
  4 10  1  0  0  0  0
  4  5  2  0  0  0  0
  5 11  1  0  0  0  0
  6  2  1  0  0  0  0
  6  7  1  0  0  0  0
  7 14  1  0  0  0  0
  7 15  1  0  0  0  0
  8  7  1  0  0  0  0
  8 18  1  0  0  0  0
  9  3  1  0  0  0  0
 12  6  1  0  0  0  0
 13  6  1  0  0  0  0
 16  8  1  0  0  0  0
 17  8  1  0  0  0  0
M  END
