3
q = 0.0, confidence = 0.994

 52 55  0  0  0  0  0  0  0  0999 V2000
   -1.5119    0.1737    0.0206 S   0  0  0  0  0  0  0  0  0  0  0  0
   -7.3981    0.4201    0.0308 S   0  0  0  0  0  0  0  0  0  0  0  0
    6.4140   -0.2305   -0.0090 N   0  0  0  0  0  2  0  0  0  0  0  0
  -10.4054    0.4095    0.0481 N   0  0  0  0  0  0  0  0  0  0  0  0
  -15.8849   -0.9208   -0.0476 N   0  0  0  0  0  0  0  0  0  0  0  0
    5.8747   -1.4778   -0.0456 C   0  0  0  0  0  3  0  0  0  0  0  0
    6.5916   -2.3116   -0.0723 H   0  0  0  0  0  0  0  0  0  0  0  0
    4.5062   -1.7240   -0.0502 C   0  0  0  0  0  0  0  0  0  0  0  0
    4.1383   -2.7585   -0.0807 H   0  0  0  0  0  0  0  0  0  0  0  0
    3.5913   -0.6360   -0.0154 C   0  0  0  0  0  0  0  0  0  0  0  0
    4.1628    0.6657    0.0229 C   0  0  0  0  0  0  0  0  0  0  0  0
    3.5184    1.5547    0.0512 H   0  0  0  0  0  0  0  0  0  0  0  0
    5.5452    0.8146    0.0245 C   0  0  0  0  0  0  0  0  0  0  0  0
    5.9984    1.8165    0.0539 H   0  0  0  0  0  0  0  0  0  0  0  0
    2.1952   -0.8359   -0.0186 C   0  0  0  0  0  0  0  0  0  0  0  0
    0.9703   -1.0169   -0.0218 C   0  0  0  0  0  0  0  0  0  0  0  0
   -0.4130   -1.2055   -0.0254 C   0  0  0  0  0  0  0  0  0  0  0  0
   -1.1380   -2.4088   -0.0626 C   0  0  0  0  0  0  0  0  0  0  0  0
   -0.6389   -3.3861   -0.0947 H   0  0  0  0  0  0  0  0  0  0  0  0
   -2.5312   -2.2177   -0.0540 C   0  0  0  0  0  0  0  0  0  0  0  0
   -3.2676   -3.0327   -0.0787 H   0  0  0  0  0  0  0  0  0  0  0  0
   -2.9212   -0.8670   -0.0101 C   0  0  0  0  0  0  0  0  0  0  0  0
   -4.2643   -0.3667    0.0084 C   0  0  0  0  0  0  0  0  0  0  0  0
   -5.0469   -1.1447   -0.0157 H   0  0  0  0  0  0  0  0  0  0  0  0
   -4.6411    0.9539    0.0526 C   0  0  0  0  0  0  0  0  0  0  0  0
   -3.8555    1.7300    0.0777 H   0  0  0  0  0  0  0  0  0  0  0  0
   -5.9806    1.4593    0.0709 C   0  0  0  0  0  0  0  0  0  0  0  0
   -6.3574    2.8119    0.1219 C   0  0  0  0  0  0  0  0  0  0  0  0
   -5.6175    3.6241    0.1534 H   0  0  0  0  0  0  0  0  0  0  0  0
   -7.7537    3.0037    0.1299 C   0  0  0  0  0  0  0  0  0  0  0  0
   -8.2488    3.9840    0.1673 H   0  0  0  0  0  0  0  0  0  0  0  0
   -8.4717    1.8012    0.0860 C   0  0  0  0  0  0  0  0  0  0  0  0
   -9.8960    1.6048    0.0824 C   0  0  0  0  0  0  0  0  0  0  0  0
  -10.5025    2.5402    0.1223 H   0  0  0  0  0  0  0  0  0  0  0  0
  -11.7693    0.1625    0.0069 C   0  0  0  0  0  0  0  0  0  0  0  0
  -12.1882   -1.1766    0.2141 C   0  0  0  0  0  0  0  0  0  0  0  0
  -11.4045   -1.9272    0.3942 H   0  0  0  0  0  0  0  0  0  0  0  0
  -13.5310   -1.5421    0.2055 C   0  0  0  0  0  0  0  0  0  0  0  0
  -13.7944   -2.5927    0.3811 H   0  0  0  0  0  0  0  0  0  0  0  0
  -14.5496   -0.5733   -0.0328 C   0  0  0  0  0  0  0  0  0  0  0  0
  -14.1315    0.7719   -0.2679 C   0  0  0  0  0  0  0  0  0  0  0  0
  -14.8746    1.5505   -0.4831 H   0  0  0  0  0  0  0  0  0  0  0  0
  -12.7854    1.1238   -0.2441 C   0  0  0  0  0  0  0  0  0  0  0  0
  -12.5154    2.1708   -0.4486 H   0  0  0  0  0  0  0  0  0  0  0  0
  -16.2766   -2.3008    0.1599 C   0  0  0  0  0  0  0  0  0  0  0  0
  -17.3775   -2.3800    0.1158 H   0  0  0  0  0  0  0  0  0  0  0  0
  -15.9474   -2.6829    1.1523 H   0  0  0  0  0  0  0  0  0  0  0  0
  -15.8539   -2.9783   -0.6163 H   0  0  0  0  0  0  0  0  0  0  0  0
  -16.8969    0.0855   -0.3005 C   0  0  0  0  0  0  0  0  0  0  0  0
  -17.8973   -0.3801   -0.2477 H   0  0  0  0  0  0  0  0  0  0  0  0
  -16.7892    0.5483   -1.3078 H   0  0  0  0  0  0  0  0  0  0  0  0
  -16.8645    0.9064    0.4504 H   0  0  0  0  0  0  0  0  0  0  0  0
  2 27  1  0  0  0  0
  2 32  1  0  0  0  0
  3 13  1  0  0  0  0
  4 33  2  0  0  0  0
  5 40  1  0  0  0  0
  5 45  1  0  0  0  0
  6  3  1  0  0  0  0
  7  6  1  0  0  0  0
  8  6  1  0  0  0  0
  8 10  2  0  0  0  0
  9  8  1  0  0  0  0
 10 11  1  0  0  0  0
 11 13  2  0  0  0  0
 11 12  1  0  0  0  0
 13 14  1  0  0  0  0
 15 10  1  0  0  0  0
 16 15  3  0  0  0  0
 17 16  1  0  0  0  0
 17  1  1  0  0  0  0
 18 20  1  0  0  0  0
 18 17  2  0  0  0  0
 19 18  1  0  0  0  0
 20 22  2  0  0  0  0
 21 20  1  0  0  0  0
 22 23  1  0  0  0  0
 22  1  1  0  0  0  0
 23 25  2  0  0  0  0
 24 23  1  0  0  0  0
 25 27  1  0  0  0  0
 25 26  1  0  0  0  0
 27 28  2  0  0  0  0
 28 30  1  0  0  0  0
 28 29  1  0  0  0  0
 30 31  1  0  0  0  0
 32 30  2  0  0  0  0
 33 32  1  0  0  0  0
 33 34  1  0  0  0  0
 35  4  1  0  0  0  0
 35 36  1  0  0  0  0
 36 37  1  0  0  0  0
 38 36  2  0  0  0  0
 38 39  1  0  0  0  0
 40 38  1  0  0  0  0
 41 43  1  0  0  0  0
 41 40  2  0  0  0  0
 42 41  1  0  0  0  0
 43 35  2  0  0  0  0
 44 43  1  0  0  0  0
 45 47  1  0  0  0  0
 46 45  1  0  0  0  0
 48 45  1  0  0  0  0
 49 50  1  0  0  0  0
 49  5  1  0  0  0  0
 49 52  1  0  0  0  0
 51 49  1  0  0  0  0
M  END
