1
q = 0.0, confidence = 0.984

 20 20  0  0  0  0  0  0  0  0999 V2000
   -1.9422    0.0270   -0.7034 N   0  0  0  0  0  0  0  0  0  0  0  0
   -3.0450    0.4469    0.1742 C   0  0  0  0  0  0  0  0  0  0  0  0
   -1.9588    0.6201   -1.5497 H   0  0  0  0  0  0  0  0  0  0  0  0
   -2.1534   -0.9325   -1.0309 H   0  0  0  0  0  0  0  0  0  0  0  0
   -2.8863    0.3080    1.6798 C   0  0  0  0  0  0  0  0  0  0  0  0
   -2.8583    1.6686    1.0555 C   0  0  0  0  0  0  0  0  0  0  0  0
   -4.3722    0.1577   -0.4577 C   0  0  0  0  0  0  0  0  0  0  0  0
   -1.9305   -0.1387    1.9972 H   0  0  0  0  0  0  0  0  0  0  0  0
   -3.7837   -0.0047    2.2334 H   0  0  0  0  0  0  0  0  0  0  0  0
   -1.8848    2.1744    0.9414 H   0  0  0  0  0  0  0  0  0  0  0  0
   -3.7391    2.3172    1.1678 H   0  0  0  0  0  0  0  0  0  0  0  0
   -5.4084    0.5713    0.3014 O   0  0  0  0  0  0  0  0  0  0  0  0
   -4.4818   -0.3983   -1.5408 O   0  0  0  0  0  0  0  0  0  0  0  0
   -6.7347    0.2888   -0.2087 C   0  0  0  0  0  0  0  0  0  0  0  0
   -7.1850   -1.1128    0.1649 C   0  0  0  0  0  0  0  0  0  0  0  0
   -6.7257    0.4251   -1.3089 H   0  0  0  0  0  0  0  0  0  0  0  0
   -7.3776    1.0641    0.2511 H   0  0  0  0  0  0  0  0  0  0  0  0
   -8.2290   -1.2754   -0.1709 H   0  0  0  0  0  0  0  0  0  0  0  0
   -6.5458   -1.8727   -0.3250 H   0  0  0  0  0  0  0  0  0  0  0  0
   -7.1473   -1.2653    1.2618 H   0  0  0  0  0  0  0  0  0  0  0  0
  1  2  1  0  0  0  0
  2  6  1  0  0  0  0
  2  5  1  0  0  0  0
  3  1  1  0  0  0  0
  4  1  1  0  0  0  0
  5  8  1  0  0  0  0
  5  9  1  0  0  0  0
  6 11  1  0  0  0  0
  6  5  1  0  0  0  0
  7  2  1  0  0  0  0
  7 12  1  0  0  0  0
 10  6  1  0  0  0  0
 13  7  2  0  0  0  0
 14 15  1  0  0  0  0
 14 17  1  0  0  0  0
 14 12  1  0  0  0  0
 15 20  1  0  0  0  0
 16 14  1  0  0  0  0
 18 15  1  0  0  0  0
 19 15  1  0  0  0  0
M  END
