2
q = 0.0, confidence = 0.92

 36 38  0  0  0  0  0  0  0  0999 V2000
   -0.5124   -0.5154   -1.2733 N   0  0  0  0  0  0  0  0  0  0  0  0
    1.9139   -1.7710   -1.0552 N   0  0  0  0  0  2  0  0  0  0  0  0
    3.0989   -2.3872   -0.9514 C   0  0  0  0  0  3  0  0  0  0  0  0
    3.0944   -3.3766   -0.4692 H   0  0  0  0  0  0  0  0  0  0  0  0
    1.8556   -0.5451   -1.6319 C   0  0  0  0  0  0  0  0  0  0  0  0
   -1.7727    0.0822   -1.2217 C   0  0  0  0  0  0  0  0  0  0  0  0
   -2.9195   -0.7080   -1.4748 C   0  0  0  0  0  0  0  0  0  0  0  0
   -2.8103   -1.7469   -1.8200 H   0  0  0  0  0  0  0  0  0  0  0  0
    3.0107    0.1205   -2.0811 C   0  0  0  0  0  0  0  0  0  0  0  0
    2.9262    1.1272   -2.5159 H   0  0  0  0  0  0  0  0  0  0  0  0
   -9.6749    4.2988    0.4384 C   0  0  0  0  0  0  0  0  0  0  0  0
  -10.6789    4.7201    0.5991 H   0  0  0  0  0  0  0  0  0  0  0  0
   -5.6747    1.6111   -0.6631 N   0  0  0  0  0  0  0  0  0  0  0  0
   -3.2044    1.9726   -0.6243 C   0  0  0  0  0  0  0  0  0  0  0  0
   -3.3548    3.0073   -0.2850 H   0  0  0  0  0  0  0  0  0  0  0  0
    0.5310    0.0787   -1.7437 C   0  0  0  0  0  0  0  0  0  0  0  0
    0.4773    1.0664   -2.2509 H   0  0  0  0  0  0  0  0  0  0  0  0
   -1.9348    1.4366   -0.8178 C   0  0  0  0  0  0  0  0  0  0  0  0
   -1.0397    2.0466   -0.6231 H   0  0  0  0  0  0  0  0  0  0  0  0
    4.2975   -1.7937   -1.3837 C   0  0  0  0  0  0  0  0  0  0  0  0
    5.2460   -2.3325   -1.2508 H   0  0  0  0  0  0  0  0  0  0  0  0
   -4.1887   -0.1572   -1.3046 C   0  0  0  0  0  0  0  0  0  0  0  0
   -5.0905   -0.7553   -1.5015 H   0  0  0  0  0  0  0  0  0  0  0  0
   -8.5381    5.0221    0.8353 C   0  0  0  0  0  0  0  0  0  0  0  0
   -8.6492    6.0099    1.3072 H   0  0  0  0  0  0  0  0  0  0  0  0
    4.2550   -0.5085   -1.9382 C   0  0  0  0  0  0  0  0  0  0  0  0
    5.1786    0.0064   -2.2405 H   0  0  0  0  0  0  0  0  0  0  0  0
   -7.1156    3.2167    0.0220 C   0  0  0  0  0  0  0  0  0  0  0  0
   -9.5325    3.0343   -0.1679 C   0  0  0  0  0  0  0  0  0  0  0  0
  -10.4275    2.4736   -0.4790 H   0  0  0  0  0  0  0  0  0  0  0  0
   -4.3512    1.1721   -0.8518 C   0  0  0  0  0  0  0  0  0  0  0  0
   -5.7897    2.7638   -0.1430 N   0  0  0  0  0  0  0  0  0  0  0  0
   -7.2620    4.4840    0.6275 C   0  0  0  0  0  0  0  0  0  0  0  0
   -6.3484    5.0209    0.9228 H   0  0  0  0  0  0  0  0  0  0  0  0
   -8.2637    2.4906   -0.3781 C   0  0  0  0  0  0  0  0  0  0  0  0
   -8.1175    1.5085   -0.8494 H   0  0  0  0  0  0  0  0  0  0  0  0
  1  6  1  0  0  0  0
  2  3  1  0  0  0  0
  3  4  1  0  0  0  0
  5  2  1  0  0  0  0
  6 18  1  0  0  0  0
  7 22  1  0  0  0  0
  7  6  2  0  0  0  0
  8  7  1  0  0  0  0
  9 26  1  0  0  0  0
  9  5  2  0  0  0  0
 10  9  1  0  0  0  0
 11 12  1  0  0  0  0
 11 24  1  0  0  0  0
 13 32  2  0  0  0  0
 14 15  1  0  0  0  0
 16  5  1  0  0  0  0
 16  1  2  0  0  0  0
 17 16  1  0  0  0  0
 18 14  2  0  0  0  0
 18 19  1  0  0  0  0
 20 21  1  0  0  0  0
 20  3  1  0  0  0  0
 22 31  2  0  0  0  0
 23 22  1  0  0  0  0
 24 25  1  0  0  0  0
 26 20  2  0  0  0  0
 27 26  1  0  0  0  0
 28 33  1  0  0  0  0
 29 11  2  0  0  0  0
 30 29  1  0  0  0  0
 31 13  1  0  0  0  0
 31 14  1  0  0  0  0
 32 28  1  0  0  0  0
 33 24  2  0  0  0  0
 33 34  1  0  0  0  0
 35 29  1  0  0  0  0
 35 28  2  0  0  0  0
 36 35  1  0  0  0  0
M  END
