2
q = 0.0, confidence = 1.0

 24 25  0  0  0  0  0  0  0  0999 V2000
   -2.7621   -1.4041    0.7017 S   0  0  0  0  0  0  0  0  0  0  0  0
    0.4829   -2.0188   -0.1975 N   0  0  0  0  0  0  0  0  0  0  0  0
    0.1993   -2.1417   -1.1860 H   0  0  0  0  0  0  0  0  0  0  0  0
   -4.1406   -2.0306   -0.1325 C   0  0  0  0  0  0  0  0  0  0  0  0
   -5.0678   -1.4449   -0.1550 H   0  0  0  0  0  0  0  0  0  0  0  0
   -3.8828   -3.2576   -0.7157 C   0  0  0  0  0  0  0  0  0  0  0  0
   -4.6250   -3.8223   -1.2960 H   0  0  0  0  0  0  0  0  0  0  0  0
   -2.5452   -3.6966   -0.4786 C   0  0  0  0  0  0  0  0  0  0  0  0
   -2.1295   -4.6436   -0.8524 H   0  0  0  0  0  0  0  0  0  0  0  0
   -1.8051   -2.8035    0.2815 C   0  0  0  0  0  0  0  0  0  0  0  0
   -0.3632   -2.9039    0.6649 C   0  0  0  0  0  0  0  0  0  0  0  0
   -0.0187   -3.9530    0.5433 H   0  0  0  0  0  0  0  0  0  0  0  0
   -0.2017   -2.5921    1.7144 H   0  0  0  0  0  0  0  0  0  0  0  0
    1.9160   -2.1561   -0.0963 C   0  0  0  0  0  0  0  0  0  0  0  0
    2.5510   -2.2786    1.1526 C   0  0  0  0  0  0  0  0  0  0  0  0
    1.9589   -2.2625    2.0769 H   0  0  0  0  0  0  0  0  0  0  0  0
    3.9497   -2.3463    1.2082 C   0  0  0  0  0  0  0  0  0  0  0  0
    4.4443   -2.4324    2.1873 H   0  0  0  0  0  0  0  0  0  0  0  0
    4.7177   -2.2910    0.0337 C   0  0  0  0  0  0  0  0  0  0  0  0
    5.8155   -2.3434    0.0872 H   0  0  0  0  0  0  0  0  0  0  0  0
    4.0756   -2.1642   -1.2089 C   0  0  0  0  0  0  0  0  0  0  0  0
    4.6657   -2.1116   -2.1362 H   0  0  0  0  0  0  0  0  0  0  0  0
    2.6782   -2.0989   -1.2785 C   0  0  0  0  0  0  0  0  0  0  0  0
    2.1670   -1.9550   -2.2424 H   0  0  0  0  0  0  0  0  0  0  0  0
  2 14  1  0  0  0  0
  2 11  1  0  0  0  0
  3  2  1  0  0  0  0
  4  1  1  0  0  0  0
  5  4  1  0  0  0  0
  6  8  1  0  0  0  0
  6  4  2  0  0  0  0
  7  6  1  0  0  0  0
  8 10  2  0  0  0  0
  9  8  1  0  0  0  0
 10 11  1  0  0  0  0
 10  1  1  0  0  0  0
 11 13  1  0  0  0  0
 12 11  1  0  0  0  0
 14 15  1  0  0  0  0
 15 17  2  0  0  0  0
 15 16  1  0  0  0  0
 17 18  1  0  0  0  0
 19 20  1  0  0  0  0
 19 17  1  0  0  0  0
 21 19  2  0  0  0  0
 22 21  1  0  0  0  0
 23 21  1  0  0  0  0
 23 14  2  0  0  0  0
 24 23  1  0  0  0  0
M  END
