1
q = 0.0, confidence = 0.988

  8  7  0  0  0  0  0  0  0  0999 V2000
   -1.9626   -1.5652   -1.9312 N   0  0  0  0  0  0  0  0  0  0  0  0
   -2.8302   -1.1307   -1.5562 H   0  0  0  0  0  0  0  0  0  0  0  0
   -1.8976   -1.3227   -2.9374 H   0  0  0  0  0  0  0  0  0  0  0  0
   -2.0878   -2.9680   -1.8135 O   0  0  0  0  0  0  0  0  0  0  0  0
   -3.2380   -3.4502   -2.5069 C   0  0  0  0  0  0  0  0  0  0  0  0
   -4.1767   -3.0220   -2.0862 H   0  0  0  0  0  0  0  0  0  0  0  0
   -3.2345   -4.5459   -2.3568 H   0  0  0  0  0  0  0  0  0  0  0  0
   -3.1795   -3.2330   -3.5981 H   0  0  0  0  0  0  0  0  0  0  0  0
  1  4  1  0  0  0  0
  1  2  1  0  0  0  0
  3  1  1  0  0  0  0
  5  7  1  0  0  0  0
  5  6  1  0  0  0  0
  5  4  1  0  0  0  0
  8  5  1  0  0  0  0
M  END
