1
q = 0.0, confidence = 0.98

 11 11  0  0  1  0  0  0  0  0999 V2000
   -0.0620    1.6930    0.3498 N   0  0  0  0  0  2  0  0  0  0  0  0
    0.8224    1.9513    1.3229 C   0  0  1  0  0  3  0  0  0  0  0  0
    0.7766    3.1166    2.1062 C   0  0  0  0  0  0  0  0  0  0  0  0
    1.5283    3.2783    2.8899 H   0  0  0  0  0  0  0  0  0  0  0  0
   -0.2436    4.0389    1.8489 C   0  0  0  0  0  0  0  0  0  0  0  0
   -0.3083    4.9637    2.4417 H   0  0  0  0  0  0  0  0  0  0  0  0
   -1.1766    3.7702    0.8344 C   0  0  0  0  0  0  0  0  0  0  0  0
   -1.9933    4.4683    0.6046 H   0  0  0  0  0  0  0  0  0  0  0  0
   -1.0505    2.5840    0.1083 C   0  0  0  0  0  0  0  0  0  0  0  0
   -1.7484    2.2988   -0.6961 H   0  0  0  0  0  0  0  0  0  0  0  0
    2.0600    0.7739    1.6144 Cl  0  0  0  0  0  0  0  0  0  0  0  0
  1  2  1  0  0  0  0
  2 11  1  1  0  0  0
  2  3  1  0  0  0  0
  3  4  1  0  0  0  0
  5  3  2  0  0  0  0
  5  6  1  0  0  0  0
  7  5  1  0  0  0  0
  8  7  1  0  0  0  0
  9  1  1  0  0  0  0
  9  7  2  0  0  0  0
 10  9  1  0  0  0  0
M  END
