2
q = 0.0, confidence = 0.994

 27 27  0  0  1  0  0  0  0  0999 V2000
    3.3346   -2.5656   -0.7247 O   0  0  0  0  0  0  0  0  0  0  0  0
    0.4839   -2.0816   -0.6843 N   0  0  0  0  0  0  0  0  0  0  0  0
    0.4592   -2.1966   -2.1549 C   0  0  0  0  0  0  0  0  0  0  0  0
    1.5072   -1.1547   -0.1071 C   0  0  1  0  0  0  0  0  0  0  0  0
    1.6307   -1.4250    1.3897 C   0  0  0  0  0  0  0  0  0  0  0  0
    2.8624   -1.2304   -0.8420 C   0  0  1  0  0  0  0  0  0  0  0  0
    3.8207   -0.1809   -0.3020 C   0  0  0  0  0  0  0  0  0  0  0  0
    3.6047    1.1799   -0.6009 C   0  0  0  0  0  0  0  0  0  0  0  0
    4.4501    2.1664   -0.0748 C   0  0  0  0  0  0  0  0  0  0  0  0
    5.5285    1.8044    0.7504 C   0  0  0  0  0  0  0  0  0  0  0  0
    5.7519    0.4515    1.0471 C   0  0  0  0  0  0  0  0  0  0  0  0
    4.8989   -0.5359    0.5280 C   0  0  0  0  0  0  0  0  0  0  0  0
   -0.3871   -2.8493   -2.4381 H   0  0  0  0  0  0  0  0  0  0  0  0
    1.4020   -2.6390   -2.5400 H   0  0  0  0  0  0  0  0  0  0  0  0
    0.2949   -1.1942   -2.5930 H   0  0  0  0  0  0  0  0  0  0  0  0
    0.6158   -3.0236   -0.2810 H   0  0  0  0  0  0  0  0  0  0  0  0
    1.0985   -0.1359   -0.2713 H   0  0  0  0  0  0  0  0  0  0  0  0
    2.0756   -2.4232    1.5761 H   0  0  0  0  0  0  0  0  0  0  0  0
    0.6294   -1.3889    1.8626 H   0  0  0  0  0  0  0  0  0  0  0  0
    2.2759   -0.6636    1.8665 H   0  0  0  0  0  0  0  0  0  0  0  0
    4.1731   -2.6263   -1.2184 H   0  0  0  0  0  0  0  0  0  0  0  0
    2.6742   -0.9760   -1.9126 H   0  0  0  0  0  0  0  0  0  0  0  0
    2.7628    1.4696   -1.2509 H   0  0  0  0  0  0  0  0  0  0  0  0
    4.2688    3.2255   -0.3146 H   0  0  0  0  0  0  0  0  0  0  0  0
    6.1950    2.5784    1.1602 H   0  0  0  0  0  0  0  0  0  0  0  0
    6.5936    0.1607    1.6942 H   0  0  0  0  0  0  0  0  0  0  0  0
    5.0545   -1.5975    0.7720 H   0  0  0  0  0  0  0  0  0  0  0  0
  2 16  1  0  0  0  0
  2  4  1  0  0  0  0
  3  2  1  0  0  0  0
  4 17  1  6  0  0  0
  4  5  1  0  0  0  0
  5 18  1  0  0  0  0
  5 19  1  0  0  0  0
  5 20  1  0  0  0  0
  6 22  1  6  0  0  0
  6  1  1  0  0  0  0
  6  7  1  0  0  0  0
  6  4  1  0  0  0  0
  7 12  1  0  0  0  0
  8  7  2  0  0  0  0
  8  9  1  0  0  0  0
  9 10  2  0  0  0  0
 10 11  1  0  0  0  0
 10 25  1  0  0  0  0
 11 26  1  0  0  0  0
 12 27  1  0  0  0  0
 12 11  2  0  0  0  0
 13  3  1  0  0  0  0
 14  3  1  0  0  0  0
 15  3  1  0  0  0  0
 21  1  1  0  0  0  0
 23  8  1  0  0  0  0
 24  9  1  0  0  0  0
M  END
