6
q = -1.0, confidence = 0.036

 34 36  0  0  1  0  0  0  0  0999 V2000
    2.4446   -1.3660    0.6207 N   0  0  0  0  0  0  0  0  0  0  0  0
    2.9150    1.3186    0.1351 N   0  0  0  0  0  0  0  0  0  0  0  0
    6.3215    1.3238   -0.4247 N   0  0  0  0  0  0  0  0  0  0  0  0
    5.5262   -2.7548   -0.0921 N   0  0  0  0  0  0  0  0  0  0  0  0
   -0.2149   -2.3129    0.9244 N   0  0  0  0  0  0  0  0  0  0  0  0
   -0.6425    1.8356    0.0438 N   0  0  0  0  0  2  0  0  0  0  0  0
    1.4489   -0.4866    0.7086 C   0  0  0  0  0  0  0  0  0  0  0  0
    1.6627    0.9009    0.3760 C   0  0  0  0  0  0  0  0  0  0  0  0
    3.9118    0.4307    0.0430 C   0  0  0  0  0  0  0  0  0  0  0  0
    3.6623   -0.9566    0.2253 C   0  0  0  0  0  0  0  0  0  0  0  0
    5.2363    0.9295   -0.2191 C   0  0  0  0  0  0  0  0  0  0  0  0
    4.6856   -1.9489    0.0521 C   0  0  0  0  0  0  0  0  0  0  0  0
    0.1786   -1.0337    1.2675 C   0  0  2  0  0  3  0  0  0  0  0  0
   -0.4207   -0.4099    2.3836 C   0  0  0  0  0  0  0  0  0  0  0  0
   -0.0330    0.5660    2.7039 H   0  0  0  0  0  0  0  0  0  0  0  0
   -1.5243   -0.9837    3.0058 C   0  0  0  0  0  0  0  0  0  0  0  0
   -2.0234   -0.4690    3.8381 H   0  0  0  0  0  0  0  0  0  0  0  0
   -2.0000   -2.2193    2.5350 C   0  0  0  0  0  0  0  0  0  0  0  0
   -2.8968   -2.6919    2.9552 H   0  0  0  0  0  0  0  0  0  0  0  0
   -1.3248   -2.8512    1.5016 C   0  0  0  0  0  0  0  0  0  0  0  0
   -1.6484   -3.8155    1.0914 H   0  0  0  0  0  0  0  0  0  0  0  0
    0.6648    2.0103    0.4031 C   0  0  1  0  0  3  0  0  0  0  0  0
    1.1327    3.2790    0.8062 C   0  0  0  0  0  0  0  0  0  0  0  0
    2.1950    3.3734    1.0639 H   0  0  0  0  0  0  0  0  0  0  0  0
    0.2621    4.3687    0.8629 C   0  0  0  0  0  0  0  0  0  0  0  0
    0.6262    5.3574    1.1778 H   0  0  0  0  0  0  0  0  0  0  0  0
   -1.0792    4.1672    0.5098 C   0  0  0  0  0  0  0  0  0  0  0  0
   -1.8144    4.9837    0.5342 H   0  0  0  0  0  0  0  0  0  0  0  0
   -1.4907    2.8968    0.1072 C   0  0  0  0  0  0  0  0  0  0  0  0
   -2.5312    2.6773   -0.1684 H   0  0  0  0  0  0  0  0  0  0  0  0
    0.3747   -3.0328   -0.2197 C   0  0  0  0  0  0  0  0  0  0  0  0
    1.2710   -3.5881    0.1074 H   0  0  0  0  0  0  0  0  0  0  0  0
    0.6403   -2.3003   -1.0075 H   0  0  0  0  0  0  0  0  0  0  0  0
   -0.4025   -3.6982   -0.6305 H   0  0  0  0  0  0  0  0  0  0  0  0
  1  7  1  0  0  0  0
  2  8  1  0  0  0  0
  3 11  3  0  0  0  0
  4 12  3  0  0  0  0
  5 13  1  0  0  0  0
  5 20  1  0  0  0  0
  6 29  1  0  0  0  0
  6 22  1  0  0  0  0
  8  7  2  0  0  0  0
  9  2  2  0  0  0  0
  9 10  1  0  0  0  0
 10  1  2  0  0  0  0
 11  9  1  0  0  0  0
 12 10  1  0  0  0  0
 13  7  1  1  0  0  0
 13 14  1  0  0  0  0
 14 15  1  0  0  0  0
 14 16  2  0  0  0  0
 16 17  1  0  0  0  0
 18 19  1  0  0  0  0
 18 16  1  0  0  0  0
 20 18  2  0  0  0  0
 21 20  1  0  0  0  0
 22  8  1  6  0  0  0
 22 23  1  0  0  0  0
 23 25  2  0  0  0  0
 23 24  1  0  0  0  0
 25 26  1  0  0  0  0
 27 28  1  0  0  0  0
 27 25  1  0  0  0  0
 29 27  2  0  0  0  0
 30 29  1  0  0  0  0
 31 32  1  0  0  0  0
 31  5  1  0  0  0  0
 33 31  1  0  0  0  0
 34 31  1  0  0  0  0
M  END
