1
q = -2.0, confidence = 0.99

 59 67  0  0  1  0  0  0  0  0999 V2000
   -0.1125   -0.6617   -0.0005 N   0  0  0  0  0  2  0  0  0  0  0  0
    2.2102   -0.7846    0.0001 N   0  0  0  0  0  0  0  0  0  0  0  0
    0.9824    1.4477    0.0002 C   0  0  1  0  0  0  0  0  0  0  0  0
   -0.6496    1.9389   -0.0001 C   0  0  2  0  0  0  0  0  0  0  0  0
    1.1351   -0.0771   -0.0001 C   0  0  0  0  0  0  0  0  0  0  0  0
   -0.3245   -2.0890   -0.0001 C   0  0  0  0  0  0  0  0  0  0  0  0
   -1.4755   -2.2115   -0.0002 H   0  0  0  0  0  0  0  0  0  0  0  0
    0.1563   -2.8215    1.2682 C   0  0  0  0  0  0  0  0  0  0  0  0
    1.2612   -2.7198    1.2747 H   0  0  0  0  0  0  0  0  0  0  0  0
   -0.2150   -2.3001    2.1716 H   0  0  0  0  0  0  0  0  0  0  0  0
   -0.2569   -4.2968    1.2657 C   0  0  0  0  0  0  0  0  0  0  0  0
   -1.3683   -4.3742    1.3238 H   0  0  0  0  0  0  0  0  0  0  0  0
    0.1333   -4.7998    2.1746 H   0  0  0  0  0  0  0  0  0  0  0  0
    0.2283   -5.0155    0.0006 C   0  0  0  0  0  0  0  0  0  0  0  0
    1.3405   -5.0367    0.0007 H   0  0  0  0  0  0  0  0  0  0  0  0
   -0.1077   -6.0733    0.0008 H   0  0  0  0  0  0  0  0  0  0  0  0
   -0.2567   -4.2974   -1.2649 C   0  0  0  0  0  0  0  0  0  0  0  0
   -1.3681   -4.3748   -1.3232 H   0  0  0  0  0  0  0  0  0  0  0  0
    0.1337   -4.8008   -2.1735 H   0  0  0  0  0  0  0  0  0  0  0  0
    0.1565   -2.8221   -1.2680 C   0  0  0  0  0  0  0  0  0  0  0  0
   -0.2146   -2.3011   -2.1717 H   0  0  0  0  0  0  0  0  0  0  0  0
    1.2614   -2.7204   -1.2742 H   0  0  0  0  0  0  0  0  0  0  0  0
    3.5721   -0.3024    0.0003 C   0  0  0  0  0  0  0  0  0  0  0  0
    3.6456    0.8056    0.0010 H   0  0  0  0  0  0  0  0  0  0  0  0
    4.2933   -0.8053   -1.2648 C   0  0  0  0  0  0  0  0  0  0  0  0
    4.1928   -1.9131   -1.3057 H   0  0  0  0  0  0  0  0  0  0  0  0
    3.7743   -0.4046   -2.1610 H   0  0  0  0  0  0  0  0  0  0  0  0
    5.7734   -0.4055   -1.2661 C   0  0  0  0  0  0  0  0  0  0  0  0
    5.8517    0.7035   -1.3245 H   0  0  0  0  0  0  0  0  0  0  0  0
    6.2745   -0.7999   -2.1750 H   0  0  0  0  0  0  0  0  0  0  0  0
    6.4889   -0.8951   -0.0003 C   0  0  0  0  0  0  0  0  0  0  0  0
    6.5086   -2.0086   -0.0010 H   0  0  0  0  0  0  0  0  0  0  0  0
    7.5484   -0.5632   -0.0002 H   0  0  0  0  0  0  0  0  0  0  0  0
    5.7736   -0.4071    1.2662 C   0  0  0  0  0  0  0  0  0  0  0  0
    5.8519    0.7018    1.3259 H   0  0  0  0  0  0  0  0  0  0  0  0
    6.2748   -0.8026    2.1745 H   0  0  0  0  0  0  0  0  0  0  0  0
    4.2936   -0.8069    1.2646 C   0  0  0  0  0  0  0  0  0  0  0  0
    3.7746   -0.4074    2.1613 H   0  0  0  0  0  0  0  0  0  0  0  0
    4.1930   -1.9147    1.3041 H   0  0  0  0  0  0  0  0  0  0  0  0
    0.3185    2.1211   -1.4177 B   0  0  1  0  0  0  0  0  0  0  0  0
    0.1472    1.4015   -2.3646 H   0  0  0  0  0  0  0  0  0  0  0  0
   -0.7589    3.4133   -0.8773 B   0  0  2  0  0  0  0  0  0  0  0  0
   -1.7692    3.6514   -1.4935 H   0  0  0  0  0  0  0  0  0  0  0  0
   -0.7592    3.4130    0.8774 B   0  0  2  0  0  0  0  0  0  0  0  0
   -1.7698    3.6511    1.4932 H   0  0  0  0  0  0  0  0  0  0  0  0
    0.3179    2.1206    1.4180 B   0  0  2  0  0  0  0  0  0  0  0  0
    0.1461    1.4008    2.3646 H   0  0  0  0  0  0  0  0  0  0  0  0
    1.9722    2.5195   -0.8893 B   0  0  2  0  0  0  0  0  0  0  0  0
    2.8795    2.0602   -1.5343 H   0  0  0  0  0  0  0  0  0  0  0  0
    0.8831    3.8076   -1.4450 B   0  0  2  0  0  0  0  0  0  0  0  0
    1.0669    4.3610   -2.5043 H   0  0  0  0  0  0  0  0  0  0  0  0
    0.2181    4.6184    0.0005 B   0  0  1  0  0  0  0  0  0  0  0  0
   -0.0961    5.7864    0.0006 H   0  0  0  0  0  0  0  0  0  0  0  0
    0.8824    3.8072    1.4460 B   0  0  0  0  0  0  0  0  0  0  0  0
    1.0658    4.3602    2.5056 H   0  0  0  0  0  0  0  0  0  0  0  0
    1.9718    2.5191    0.8904 B   0  0  2  0  0  0  0  0  0  0  0  0
    2.8788    2.0597    1.5357 H   0  0  0  0  0  0  0  0  0  0  0  0
    1.9089    4.0587    0.0008 B   0  0  1  0  0  0  0  0  0  0  0  0
    2.8566    4.8101    0.0011 H   0  0  0  0  0  0  0  0  0  0  0  0
  1  6  1  0  0  0  0
  1  5  1  0  0  0  0
  2 23  1  0  0  0  0
  3  5  1  6  0  0  0
  3 46  1  0  0  0  0
  4  3  1  0  0  0  0
  4 44  1  0  0  0  0
  4 46  1  0  0  0  0
  5  2  2  0  0  0  0
  6  8  1  0  0  0  0
  7  6  1  0  0  0  0
  8  9  1  0  0  0  0
  8 10  1  0  0  0  0
 11  8  1  0  0  0  0
 11 12  1  0  0  0  0
 11 13  1  0  0  0  0
 14 15  1  0  0  0  0
 14 16  1  0  0  0  0
 14 11  1  0  0  0  0
 17 14  1  0  0  0  0
 18 17  1  0  0  0  0
 19 17  1  0  0  0  0
 20 17  1  0  0  0  0
 20  6  1  0  0  0  0
 21 20  1  0  0  0  0
 22 20  1  0  0  0  0
 23 24  1  0  0  0  0
 23 37  1  0  0  0  0
 25 23  1  0  0  0  0
 26 25  1  0  0  0  0
 27 25  1  0  0  0  0
 28 25  1  0  0  0  0
 28 31  1  0  0  0  0
 29 28  1  0  0  0  0
 30 28  1  0  0  0  0
 31 33  1  0  0  0  0
 31 34  1  0  0  0  0
 32 31  1  0  0  0  0
 34 35  1  0  0  0  0
 34 36  1  0  0  0  0
 37 34  1  0  0  0  0
 37 39  1  0  0  0  0
 37 38  1  0  0  0  0
 40 42  1  0  0  0  0
 40  3  1  0  0  0  0
 41 40  1  0  0  0  0
 42  4  1  0  0  0  0
 42 44  1  0  0  0  0
 43 42  1  0  0  0  0
 44 46  1  0  0  0  0
 44 45  1  0  0  0  0
 46 47  1  0  0  0  0
 48 58  1  0  0  0  0
 48 56  1  0  0  0  0
 49 48  1  0  0  0  0
 50 40  1  0  0  0  0
 50 48  1  0  0  0  0
 50 52  1  0  0  0  0
 51 50  1  0  0  0  0
 52 53  1  0  0  0  0
 52 58  1  0  0  0  0
 52 54  1  0  0  0  0
 54 55  1  0  0  0  0
 56 54  1  0  0  0  0
 56 57  1  0  0  0  0
 58 59  1  0  0  0  0
 58 56  1  0  0  0  0
M  END
