1
q = 0.0, confidence = 0.994

 25 26  0  0  1  0  0  0  0  0999 V2000
   -2.5826   -0.0142    0.2107 N   0  0  0  0  0  2  0  0  0  0  0  0
   -4.6884   -0.7432    0.3305 N   0  0  0  0  0  0  0  0  0  0  0  0
   -1.2348   -2.9259    0.0479 S   0  0  0  0  0  0  0  0  0  0  0  0
   -4.7613    0.6293    0.0940 C   0  0  0  0  0  0  0  0  0  0  0  0
   -5.8543    1.4970   -0.0568 C   0  0  0  0  0  0  0  0  0  0  0  0
   -6.8937    1.1466    0.0097 H   0  0  0  0  0  0  0  0  0  0  0  0
   -5.5529    2.8434   -0.2958 C   0  0  0  0  0  0  0  0  0  0  0  0
   -6.3758    3.5623   -0.4205 H   0  0  0  0  0  0  0  0  0  0  0  0
   -4.2155    3.3036   -0.3804 C   0  0  0  0  0  0  0  0  0  0  0  0
   -4.0295    4.3707   -0.5703 H   0  0  0  0  0  0  0  0  0  0  0  0
   -3.1298    2.4349   -0.2278 C   0  0  0  0  0  0  0  0  0  0  0  0
   -2.0885    2.7833   -0.2925 H   0  0  0  0  0  0  0  0  0  0  0  0
   -3.4202    1.0816    0.0157 C   0  0  0  0  0  0  0  0  0  0  0  0
   -5.8552   -1.5912    0.5143 C   0  0  0  0  0  0  0  0  0  0  0  0
   -5.5528   -2.6480    0.6072 H   0  0  0  0  0  0  0  0  0  0  0  0
   -6.5337   -1.4913   -0.3556 H   0  0  0  0  0  0  0  0  0  0  0  0
   -6.4039   -1.2980    1.4318 H   0  0  0  0  0  0  0  0  0  0  0  0
   -3.3613   -1.0900    0.3981 C   0  0  2  0  0  3  0  0  0  0  0  0
   -2.8858   -2.4848    0.6867 C   0  0  0  0  0  0  0  0  0  0  0  0
   -3.6237   -3.2249    0.3168 H   0  0  0  0  0  0  0  0  0  0  0  0
   -2.8083   -2.6377    1.7855 H   0  0  0  0  0  0  0  0  0  0  0  0
   -1.5272   -2.8405   -1.7459 C   0  0  0  0  0  0  0  0  0  0  0  0
   -0.5493   -3.0475   -2.2219 H   0  0  0  0  0  0  0  0  0  0  0  0
   -1.8617   -1.8297   -2.0533 H   0  0  0  0  0  0  0  0  0  0  0  0
   -2.2582   -3.6083   -2.0666 H   0  0  0  0  0  0  0  0  0  0  0  0
  1 18  1  0  0  0  0
  2 18  1  0  0  0  0
  2 14  1  0  0  0  0
  3 19  1  0  0  0  0
  4  2  1  0  0  0  0
  5  6  1  0  0  0  0
  5  4  2  0  0  0  0
  7  5  1  0  0  0  0
  8  7  1  0  0  0  0
  9  7  2  0  0  0  0
  9 11  1  0  0  0  0
 10  9  1  0  0  0  0
 11 13  2  0  0  0  0
 12 11  1  0  0  0  0
 13  4  1  0  0  0  0
 13  1  1  0  0  0  0
 14 15  1  0  0  0  0
 14 17  1  0  0  0  0
 16 14  1  0  0  0  0
 18 19  1  1  0  0  0
 19 21  1  0  0  0  0
 20 19  1  0  0  0  0
 22  3  1  0  0  0  0
 23 22  1  0  0  0  0
 24 22  1  0  0  0  0
 25 22  1  0  0  0  0
M  END
