1
q = 0.0, confidence = 0.996

 38 39  0  0  0  0  0  0  0  0999 V2000
   -0.3357    0.8777    0.0711 N   0  0  0  0  0  0  0  0  0  0  0  0
   -1.0043    0.5763   -0.6647 H   0  0  0  0  0  0  0  0  0  0  0  0
    2.3894   -0.2127   -1.2119 Se  0  0  0  0  0  0  0  0  0  0  0  0
   -3.2277    2.2623   -0.6295 Se  0  0  0  0  0  0  0  0  0  0  0  0
   -1.1174    1.3743    1.2227 C   0  0  0  0  0  0  0  0  0  0  0  0
   -0.4067    1.6390    2.0347 H   0  0  0  0  0  0  0  0  0  0  0  0
   -1.7291    0.5305    1.5952 H   0  0  0  0  0  0  0  0  0  0  0  0
   -2.0374    2.5609    0.9306 C   0  0  0  0  0  0  0  0  0  0  0  0
   -1.4863    3.4933    0.6936 H   0  0  0  0  0  0  0  0  0  0  0  0
   -2.6684    2.7670    1.8172 H   0  0  0  0  0  0  0  0  0  0  0  0
    0.5445    1.9049   -0.5145 C   0  0  0  0  0  0  0  0  0  0  0  0
    1.2386    2.2617    0.2759 H   0  0  0  0  0  0  0  0  0  0  0  0
   -0.0513    2.7813   -0.8596 H   0  0  0  0  0  0  0  0  0  0  0  0
    1.3118    1.3642   -1.7040 C   0  0  0  0  0  0  0  0  0  0  0  0
    1.9639    2.1263   -2.1702 H   0  0  0  0  0  0  0  0  0  0  0  0
    0.6306    0.9573   -2.4776 H   0  0  0  0  0  0  0  0  0  0  0  0
   -4.1028    0.6846    0.0753 C   0  0  0  0  0  0  0  0  0  0  0  0
   -3.7709   -0.5877   -0.4244 C   0  0  0  0  0  0  0  0  0  0  0  0
   -3.0100   -0.7028   -1.2125 H   0  0  0  0  0  0  0  0  0  0  0  0
   -4.3857   -1.7283    0.1169 C   0  0  0  0  0  0  0  0  0  0  0  0
   -4.1007   -2.7210   -0.2622 H   0  0  0  0  0  0  0  0  0  0  0  0
   -5.3298   -1.6017    1.1463 C   0  0  0  0  0  0  0  0  0  0  0  0
   -5.8027   -2.4987    1.5739 H   0  0  0  0  0  0  0  0  0  0  0  0
   -5.6678   -0.3287    1.6358 C   0  0  0  0  0  0  0  0  0  0  0  0
   -6.4126   -0.2251    2.4398 H   0  0  0  0  0  0  0  0  0  0  0  0
   -5.0614    0.8170    1.0990 C   0  0  0  0  0  0  0  0  0  0  0  0
   -5.3311    1.8173    1.4711 H   0  0  0  0  0  0  0  0  0  0  0  0
    3.7882    0.6518   -0.1641 C   0  0  0  0  0  0  0  0  0  0  0  0
    4.5007   -0.1744    0.7253 C   0  0  0  0  0  0  0  0  0  0  0  0
    4.2244   -1.2338    0.8422 H   0  0  0  0  0  0  0  0  0  0  0  0
    5.5571    0.3583    1.4769 C   0  0  0  0  0  0  0  0  0  0  0  0
    6.1056   -0.2922    2.1745 H   0  0  0  0  0  0  0  0  0  0  0  0
    5.9050    1.7126    1.3503 C   0  0  0  0  0  0  0  0  0  0  0  0
    6.7294    2.1300    1.9472 H   0  0  0  0  0  0  0  0  0  0  0  0
    5.1951    2.5315    0.4602 C   0  0  0  0  0  0  0  0  0  0  0  0
    5.4624    3.5937    0.3519 H   0  0  0  0  0  0  0  0  0  0  0  0
    4.1400    2.0050   -0.3036 C   0  0  0  0  0  0  0  0  0  0  0  0
    3.6068    2.6620   -1.0054 H   0  0  0  0  0  0  0  0  0  0  0  0
  1  5  1  0  0  0  0
  2  1  1  0  0  0  0
  3 28  1  0  0  0  0
  4 17  1  0  0  0  0
  4  8  1  0  0  0  0
  5  7  1  0  0  0  0
  5  6  1  0  0  0  0
  8  5  1  0  0  0  0
  8 10  1  0  0  0  0
  9  8  1  0  0  0  0
 11  1  1  0  0  0  0
 11 12  1  0  0  0  0
 13 11  1  0  0  0  0
 14  3  1  0  0  0  0
 14 11  1  0  0  0  0
 15 14  1  0  0  0  0
 16 14  1  0  0  0  0
 17 26  1  0  0  0  0
 18 17  2  0  0  0  0
 18 20  1  0  0  0  0
 19 18  1  0  0  0  0
 20 22  2  0  0  0  0
 21 20  1  0  0  0  0
 22 23  1  0  0  0  0
 22 24  1  0  0  0  0
 24 25  1  0  0  0  0
 26 27  1  0  0  0  0
 26 24  2  0  0  0  0
 28 29  1  0  0  0  0
 29 30  1  0  0  0  0
 29 31  2  0  0  0  0
 31 32  1  0  0  0  0
 33 31  1  0  0  0  0
 33 34  1  0  0  0  0
 35 33  2  0  0  0  0
 36 35  1  0  0  0  0
 37 28  2  0  0  0  0
 37 35  1  0  0  0  0
 38 37  1  0  0  0  0
M  END
