1
q = 0.0, confidence = 1.0

 23 24  0  0  1  0  0  0  0  0999 V2000
   -1.3156   -0.6839   -0.7479 N   0  0  0  0  0  2  0  0  0  0  0  0
   -2.2886    0.0983    1.2322 N   0  0  0  0  0  0  0  0  0  0  0  0
   -1.5411    0.8271    1.3353 H   0  0  0  0  0  0  0  0  0  0  0  0
   -3.3635   -1.5877    0.0151 N   0  0  2  0  0  0  0  0  0  0  0  0
   -2.3030   -0.7115    0.1511 C   0  0  2  0  0  3  0  0  0  0  0  0
   -1.2914   -1.6974   -1.7968 C   0  0  0  0  0  0  0  0  0  0  0  0
   -0.8634   -2.6498   -1.4048 H   0  0  0  0  0  0  0  0  0  0  0  0
   -0.6268   -1.3269   -2.5994 H   0  0  0  0  0  0  0  0  0  0  0  0
   -2.6991   -1.9096   -2.3363 C   0  0  0  0  0  0  0  0  0  0  0  0
   -3.0601   -0.9514   -2.7637 H   0  0  0  0  0  0  0  0  0  0  0  0
   -2.7062   -2.6649   -3.1473 H   0  0  0  0  0  0  0  0  0  0  0  0
   -3.5966   -2.3660   -1.1985 C   0  0  0  0  0  0  0  0  0  0  0  0
   -4.6713   -2.2664   -1.4734 H   0  0  0  0  0  0  0  0  0  0  0  0
   -3.4263   -3.4465   -0.9769 H   0  0  0  0  0  0  0  0  0  0  0  0
   -4.4028   -1.7461    1.0302 C   0  0  0  0  0  0  0  0  0  0  0  0
   -4.6165   -2.8336    1.1347 H   0  0  0  0  0  0  0  0  0  0  0  0
   -5.3475   -1.2756    0.6647 H   0  0  0  0  0  0  0  0  0  0  0  0
   -4.0107   -1.1461    2.3737 C   0  0  0  0  0  0  0  0  0  0  0  0
   -3.2490   -1.7809    2.8727 H   0  0  0  0  0  0  0  0  0  0  0  0
   -4.9000   -1.0984    3.0327 H   0  0  0  0  0  0  0  0  0  0  0  0
   -3.4200    0.2353    2.1232 C   0  0  0  0  0  0  0  0  0  0  0  0
   -4.2015    0.9140    1.7021 H   0  0  0  0  0  0  0  0  0  0  0  0
   -3.0575    0.7091    3.0558 H   0  0  0  0  0  0  0  0  0  0  0  0
  2  3  1  0  0  0  0
  2 21  1  0  0  0  0
  4 12  1  6  0  0  0
  4  5  1  0  0  0  0
  4 15  1  0  0  0  0
  5  1  1  1  0  0  0
  5  2  1  0  0  0  0
  6  7  1  0  0  0  0
  6  1  1  0  0  0  0
  8  6  1  0  0  0  0
  9  6  1  0  0  0  0
  9 12  1  0  0  0  0
 10  9  1  0  0  0  0
 11  9  1  0  0  0  0
 12 14  1  0  0  0  0
 13 12  1  0  0  0  0
 15 16  1  0  0  0  0
 15 18  1  0  0  0  0
 17 15  1  0  0  0  0
 18 19  1  0  0  0  0
 18 20  1  0  0  0  0
 21 18  1  0  0  0  0
 21 23  1  0  0  0  0
 22 21  1  0  0  0  0
M  END
