3
q = 0.0, confidence = 1.0

 15 15  0  0  1  0  0  0  0  0999 V2000
   -3.1532    0.9608   -0.8150 N   0  0  0  0  0  0  0  0  0  0  0  0
   -4.3753   -0.4951    0.1654 N   0  0  0  0  0  0  0  0  0  0  0  0
   -1.9920   -0.5805    0.6477 N   0  0  0  0  0  2  0  0  0  0  0  0
   -3.0649   -0.0910    0.0628 C   0  0  1  0  0  3  0  0  0  0  0  0
   -2.0944    1.8094   -1.3154 C   0  0  0  0  0  0  0  0  0  0  0  0
   -2.5634    2.5487   -1.9888 H   0  0  0  0  0  0  0  0  0  0  0  0
   -1.3501    1.2148   -1.8824 H   0  0  0  0  0  0  0  0  0  0  0  0
   -1.5905    2.3382   -0.4811 H   0  0  0  0  0  0  0  0  0  0  0  0
   -4.9080   -1.5788    0.9651 C   0  0  0  0  0  0  0  0  0  0  0  0
   -5.9989   -1.6044    0.7958 H   0  0  0  0  0  0  0  0  0  0  0  0
   -4.7116   -1.4033    2.0420 H   0  0  0  0  0  0  0  0  0  0  0  0
   -4.4690   -2.5478    0.6528 H   0  0  0  0  0  0  0  0  0  0  0  0
   -5.1785    0.2856   -0.6159 N   0  0  0  0  0  0  0  0  0  0  0  0
   -4.4522    1.1521   -1.1996 N   0  0  0  0  0  0  0  0  0  0  0  0
   -2.2096   -1.3646    1.2703 H   0  0  0  0  0  0  0  0  0  0  0  0
  1  4  1  0  0  0  0
  2  9  1  0  0  0  0
  3 15  1  0  0  0  0
  4  2  1  0  0  0  0
  4  3  1  6  0  0  0
  5  1  1  0  0  0  0
  5  8  1  0  0  0  0
  6  5  1  0  0  0  0
  7  5  1  0  0  0  0
  9 11  1  0  0  0  0
 10  9  1  0  0  0  0
 12  9  1  0  0  0  0
 13  2  1  0  0  0  0
 14  1  1  0  0  0  0
 14 13  2  0  0  0  0
M  END
