2
q = 0.0, confidence = 0.988

 23 25  0  0  0  0  0  0  0  0999 V2000
    7.2594    0.4872   -0.5202 N   0  0  0  0  0  0  0  0  0  0  0  0
    2.1549   -0.0967   -0.0440 N   0  0  0  0  0  2  0  0  0  0  0  0
    6.9903   -1.5479    0.4554 O   0  0  0  0  0  0  0  0  0  0  0  0
    2.7649   -1.1979    0.4482 C   0  0  0  0  0  3  0  0  0  0  0  0
    2.1078   -1.9881    0.8417 H   0  0  0  0  0  0  0  0  0  0  0  0
    4.1526   -1.3503    0.4681 C   0  0  0  0  0  0  0  0  0  0  0  0
    4.6066   -2.2622    0.8788 H   0  0  0  0  0  0  0  0  0  0  0  0
    4.9577   -0.3135   -0.0495 C   0  0  0  0  0  0  0  0  0  0  0  0
    4.3170    0.8350   -0.5608 C   0  0  0  0  0  0  0  0  0  0  0  0
    4.9173    1.6607   -0.9672 H   0  0  0  0  0  0  0  0  0  0  0  0
    2.9234    0.9060   -0.5383 C   0  0  0  0  0  0  0  0  0  0  0  0
    2.3651    1.7835   -0.9123 H   0  0  0  0  0  0  0  0  0  0  0  0
    6.4120   -0.4020   -0.0652 C   0  0  0  0  0  0  0  0  0  0  0  0
    8.3368   -1.3433    0.3060 C   0  0  0  0  0  0  0  0  0  0  0  0
    9.3927   -2.1821    0.6632 C   0  0  0  0  0  0  0  0  0  0  0  0
    9.2281   -3.1607    1.1343 H   0  0  0  0  0  0  0  0  0  0  0  0
   10.6778   -1.6907    0.3805 C   0  0  0  0  0  0  0  0  0  0  0  0
   11.5528   -2.3056    0.6388 H   0  0  0  0  0  0  0  0  0  0  0  0
   10.8789   -0.4268   -0.2267 C   0  0  0  0  0  0  0  0  0  0  0  0
   11.9075   -0.0908   -0.4253 H   0  0  0  0  0  0  0  0  0  0  0  0
    9.8056    0.4013   -0.5781 C   0  0  0  0  0  0  0  0  0  0  0  0
    9.9540    1.3831   -1.0488 H   0  0  0  0  0  0  0  0  0  0  0  0
    8.5091   -0.0735   -0.3029 C   0  0  0  0  0  0  0  0  0  0  0  0
  1 23  1  0  0  0  0
  1 13  2  0  0  0  0
  2  4  1  0  0  0  0
  4  6  1  0  0  0  0
  4  5  1  0  0  0  0
  6  7  1  0  0  0  0
  8  6  2  0  0  0  0
  9 11  2  0  0  0  0
  9  8  1  0  0  0  0
 10  9  1  0  0  0  0
 11  2  1  0  0  0  0
 12 11  1  0  0  0  0
 13  8  1  0  0  0  0
 13  3  1  0  0  0  0
 14  3  1  0  0  0  0
 14 15  1  0  0  0  0
 15 16  1  0  0  0  0
 17 18  1  0  0  0  0
 17 15  2  0  0  0  0
 19 17  1  0  0  0  0
 20 19  1  0  0  0  0
 21 23  1  0  0  0  0
 21 19  2  0  0  0  0
 22 21  1  0  0  0  0
 23 14  2  0  0  0  0
M  END
