1
q = 0.0, confidence = 1.0

 39 41  0  0  1  0  0  0  0  0999 V2000
   -1.7848   -0.7485   -1.1163 N   0  0  0  0  0  2  0  0  0  0  0  0
   -1.9120    0.2927   -1.9699 C   0  0  2  0  0  3  0  0  0  0  0  0
   -3.1550    0.5445   -2.6381 C   0  0  0  0  0  0  0  0  0  0  0  0
   -3.1747    1.6755   -3.3910 O   0  0  0  0  0  0  0  0  0  0  0  0
   -4.0225    1.7519   -3.8681 H   0  0  0  0  0  0  0  0  0  0  0  0
   -4.1969   -0.3670   -2.5085 C   0  0  0  0  0  0  0  0  0  0  0  0
   -5.1469   -0.2043   -3.0414 H   0  0  0  0  0  0  0  0  0  0  0  0
   -3.9860   -1.5285   -1.7365 C   0  0  0  0  0  0  0  0  0  0  0  0
   -4.7576   -2.3061   -1.6625 H   0  0  0  0  0  0  0  0  0  0  0  0
   -2.7802   -1.6853   -1.0686 C   0  0  0  0  0  0  0  0  0  0  0  0
   -2.5529   -2.5811   -0.4779 H   0  0  0  0  0  0  0  0  0  0  0  0
   -0.8610    1.1380   -2.2379 N   0  0  0  0  0  0  0  0  0  0  0  0
   -1.1092    1.8588   -2.9201 H   0  0  0  0  0  0  0  0  0  0  0  0
    0.5058    0.6535   -2.3028 C   0  0  0  0  0  0  0  0  0  0  0  0
    1.1294    1.4131   -2.8101 H   0  0  0  0  0  0  0  0  0  0  0  0
    0.5907   -0.3091   -2.8566 H   0  0  0  0  0  0  0  0  0  0  0  0
    1.1906    0.2994   -0.6104 P   0  0  0  0  0  0  0  0  0  0  0  0
    2.8635   -0.3693   -0.9435 C   0  0  0  0  0  0  0  0  0  0  0  0
    3.3104   -1.5786   -0.3791 C   0  0  0  0  0  0  0  0  0  0  0  0
    2.6181   -2.1870    0.2159 H   0  0  0  0  0  0  0  0  0  0  0  0
    4.6210   -2.0196   -0.6195 C   0  0  0  0  0  0  0  0  0  0  0  0
    4.9638   -2.9678   -0.1794 H   0  0  0  0  0  0  0  0  0  0  0  0
    5.4856   -1.2640   -1.4253 C   0  0  0  0  0  0  0  0  0  0  0  0
    6.5105   -1.6159   -1.6156 H   0  0  0  0  0  0  0  0  0  0  0  0
    5.0433   -0.0554   -1.9891 C   0  0  0  0  0  0  0  0  0  0  0  0
    5.7198    0.5430   -2.6172 H   0  0  0  0  0  0  0  0  0  0  0  0
    3.7402    0.3971   -1.7446 C   0  0  0  0  0  0  0  0  0  0  0  0
    3.4182    1.3632   -2.1639 H   0  0  0  0  0  0  0  0  0  0  0  0
    1.5729    1.9446    0.1198 C   0  0  0  0  0  0  0  0  0  0  0  0
    2.6723    2.0700    0.9973 C   0  0  0  0  0  0  0  0  0  0  0  0
    3.3405    1.2119    1.1692 H   0  0  0  0  0  0  0  0  0  0  0  0
    2.9359    3.2946    1.6293 C   0  0  0  0  0  0  0  0  0  0  0  0
    3.7966    3.3819    2.3091 H   0  0  0  0  0  0  0  0  0  0  0  0
    2.1152    4.4071    1.3846 C   0  0  0  0  0  0  0  0  0  0  0  0
    2.3274    5.3679    1.8766 H   0  0  0  0  0  0  0  0  0  0  0  0
    1.0288    4.2920    0.5024 C   0  0  0  0  0  0  0  0  0  0  0  0
    0.3892    5.1636    0.2976 H   0  0  0  0  0  0  0  0  0  0  0  0
    0.7520    3.0666   -0.1224 C   0  0  0  0  0  0  0  0  0  0  0  0
   -0.1100    2.9792   -0.7981 H   0  0  0  0  0  0  0  0  0  0  0  0
  1 10  1  0  0  0  0
  2 12  1  6  0  0  0
  2  1  1  0  0  0  0
  3  6  2  0  0  0  0
  3  2  1  0  0  0  0
  4  3  1  0  0  0  0
  5  4  1  0  0  0  0
  6  8  1  0  0  0  0
  7  6  1  0  0  0  0
  8  9  1  0  0  0  0
  8 10  2  0  0  0  0
 10 11  1  0  0  0  0
 13 12  1  0  0  0  0
 14 12  1  0  0  0  0
 14 17  1  0  0  0  0
 15 14  1  0  0  0  0
 16 14  1  0  0  0  0
 17 29  1  0  0  0  0
 18 17  1  0  0  0  0
 18 19  1  0  0  0  0
 19 20  1  0  0  0  0
 21 19  2  0  0  0  0
 21 22  1  0  0  0  0
 23 21  1  0  0  0  0
 24 23  1  0  0  0  0
 25 27  1  0  0  0  0
 25 23  2  0  0  0  0
 26 25  1  0  0  0  0
 27 18  2  0  0  0  0
 28 27  1  0  0  0  0
 29 30  1  0  0  0  0
 30 31  1  0  0  0  0
 30 32  2  0  0  0  0
 32 33  1  0  0  0  0
 34 32  1  0  0  0  0
 34 35  1  0  0  0  0
 36 34  2  0  0  0  0
 37 36  1  0  0  0  0
 38 29  2  0  0  0  0
 38 36  1  0  0  0  0
 39 38  1  0  0  0  0
M  END
