1
q = 0.0, confidence = 0.998

 40 41  0  0  0  0  0  0  0  0999 V2000
   -0.8076   -1.3673   -0.3941 N   0  0  0  0  0  2  0  0  0  0  0  0
    1.8084   -0.5256   -0.9985 P   0  0  0  0  0  0  0  0  0  0  0  0
   -0.1512   -2.4142   -0.9428 C   0  0  0  0  0  0  0  0  0  0  0  0
   -0.8353   -3.5543   -1.4396 C   0  0  0  0  0  0  0  0  0  0  0  0
   -0.2479   -4.3842   -1.8562 H   0  0  0  0  0  0  0  0  0  0  0  0
   -2.2162   -3.6074   -1.3938 C   0  0  0  0  0  0  0  0  0  0  0  0
   -2.7615   -4.4901   -1.7610 H   0  0  0  0  0  0  0  0  0  0  0  0
   -2.9395   -2.4935   -0.8921 C   0  0  0  0  0  0  0  0  0  0  0  0
   -4.3635   -2.4559   -0.8736 C   0  0  0  0  0  3  0  0  0  0  0  0
   -4.9170   -3.3341   -1.2390 H   0  0  0  0  0  0  0  0  0  0  0  0
   -5.0358   -1.3318   -0.4199 C   0  0  0  0  0  0  0  0  0  0  0  0
   -6.1352   -1.3074   -0.4148 H   0  0  0  0  0  0  0  0  0  0  0  0
   -4.2995   -0.2031    0.0242 C   0  0  0  0  0  0  0  0  0  0  0  0
   -4.8333    0.6994    0.3582 H   0  0  0  0  0  0  0  0  0  0  0  0
   -2.9110   -0.2169    0.0379 C   0  0  0  0  0  0  0  0  0  0  0  0
   -2.3236    0.6482    0.3711 H   0  0  0  0  0  0  0  0  0  0  0  0
   -2.1955   -1.3589   -0.4055 C   0  0  0  0  0  0  0  0  0  0  0  0
    1.3476   -2.3276   -1.0511 C   0  0  0  0  0  0  0  0  0  0  0  0
    1.7134   -2.8794   -1.9410 H   0  0  0  0  0  0  0  0  0  0  0  0
    1.8276   -2.7871   -0.1597 H   0  0  0  0  0  0  0  0  0  0  0  0
    3.6378   -0.4581   -0.6314 C   0  0  0  0  0  0  0  0  0  0  0  0
    3.6341   -0.6406    0.4628 H   0  0  0  0  0  0  0  0  0  0  0  0
    4.1512    0.9697   -0.8615 C   0  0  0  0  0  0  0  0  0  0  0  0
    5.1549    1.0926   -0.4071 H   0  0  0  0  0  0  0  0  0  0  0  0
    3.4775    1.7239   -0.4072 H   0  0  0  0  0  0  0  0  0  0  0  0
    4.2472    1.2043   -1.9402 H   0  0  0  0  0  0  0  0  0  0  0  0
    4.5157   -1.5411   -1.2704 C   0  0  0  0  0  0  0  0  0  0  0  0
    4.5893   -1.4434   -2.3689 H   0  0  0  0  0  0  0  0  0  0  0  0
    4.1562   -2.5635   -1.0407 H   0  0  0  0  0  0  0  0  0  0  0  0
    5.5449   -1.4601   -0.8638 H   0  0  0  0  0  0  0  0  0  0  0  0
    1.5362    0.1261   -2.7359 C   0  0  0  0  0  0  0  0  0  0  0  0
    1.6853    1.2203   -2.6043 H   0  0  0  0  0  0  0  0  0  0  0  0
    0.0877   -0.0963   -3.1902 C   0  0  0  0  0  0  0  0  0  0  0  0
   -0.0811    0.4425   -4.1445 H   0  0  0  0  0  0  0  0  0  0  0  0
   -0.6432    0.2820   -2.4545 H   0  0  0  0  0  0  0  0  0  0  0  0
   -0.1212   -1.1688   -3.3817 H   0  0  0  0  0  0  0  0  0  0  0  0
    2.5242   -0.4040   -3.7817 C   0  0  0  0  0  0  0  0  0  0  0  0
    2.4982   -1.5107   -3.8578 H   0  0  0  0  0  0  0  0  0  0  0  0
    3.5678   -0.0949   -3.5895 H   0  0  0  0  0  0  0  0  0  0  0  0
    2.2450   -0.0069   -4.7792 H   0  0  0  0  0  0  0  0  0  0  0  0
  2 21  1  0  0  0  0
  3  1  1  0  0  0  0
  4  6  1  0  0  0  0
  4  3  2  0  0  0  0
  5  4  1  0  0  0  0
  6  8  2  0  0  0  0
  7  6  1  0  0  0  0
  8  9  1  0  0  0  0
  8 17  1  0  0  0  0
  9 11  1  0  0  0  0
 10  9  1  0  0  0  0
 11 12  1  0  0  0  0
 11 13  2  0  0  0  0
 13 15  1  0  0  0  0
 13 14  1  0  0  0  0
 15 16  1  0  0  0  0
 17  1  1  0  0  0  0
 17 15  2  0  0  0  0
 18  2  1  0  0  0  0
 18  3  1  0  0  0  0
 18 20  1  0  0  0  0
 19 18  1  0  0  0  0
 21 22  1  0  0  0  0
 23 21  1  0  0  0  0
 23 25  1  0  0  0  0
 23 24  1  0  0  0  0
 26 23  1  0  0  0  0
 27 29  1  0  0  0  0
 27 30  1  0  0  0  0
 27 21  1  0  0  0  0
 28 27  1  0  0  0  0
 31 32  1  0  0  0  0
 31  2  1  0  0  0  0
 33 31  1  0  0  0  0
 33 35  1  0  0  0  0
 34 33  1  0  0  0  0
 36 33  1  0  0  0  0
 37 39  1  0  0  0  0
 37 31  1  0  0  0  0
 38 37  1  0  0  0  0
 40 37  1  0  0  0  0
M  END
