2
q = -1.0, confidence = 0.0

 29 32  0  0  1  0  0  0  0  0999 V2000
   -1.1682   -0.0473    0.0862 P   0  0  2  0  0  4  0  0  0  0  0  0
   -0.1309    0.3389    1.6457 N   0  0  1  0  0  0  0  0  0  0  0  0
   -1.7241   -1.4822    0.9032 N   0  0  2  0  0  0  0  0  0  0  0  0
   -2.2215   -0.4050   -1.3045 N   0  0  1  0  0  0  0  0  0  0  0  0
   -2.0172    1.4362    0.3606 N   0  0  1  0  0  0  0  0  0  0  0  0
   -0.4579    1.6787    2.1432 C   0  0  0  0  0  0  0  0  0  0  0  0
   -1.2159    2.4336    1.0365 C   0  0  0  0  0  0  0  0  0  0  0  0
   -0.2346   -0.7357    2.6327 C   0  0  0  0  0  0  0  0  0  0  0  0
   -0.9083   -1.9684    1.9864 C   0  0  0  0  0  0  0  0  0  0  0  0
   -2.4951   -2.4009    0.0868 C   0  0  0  0  0  0  0  0  0  0  0  0
   -2.4389   -1.8377   -1.3642 C   0  0  0  0  0  0  0  0  0  0  0  0
   -3.3807    0.4781   -1.3130 C   0  0  0  0  0  0  0  0  0  0  0  0
   -2.8638    1.8109   -0.7582 C   0  0  0  0  0  0  0  0  0  0  0  0
   -1.1347    1.5623    3.0199 H   0  0  0  0  0  0  0  0  0  0  0  0
    0.4375    2.2452    2.4743 H   0  0  0  0  0  0  0  0  0  0  0  0
   -0.5080    2.9457    0.3401 H   0  0  0  0  0  0  0  0  0  0  0  0
   -1.8605    3.2172    1.4898 H   0  0  0  0  0  0  0  0  0  0  0  0
   -0.8780   -0.3721    3.4644 H   0  0  0  0  0  0  0  0  0  0  0  0
    0.7490   -1.0060    3.0752 H   0  0  0  0  0  0  0  0  0  0  0  0
   -0.1485   -2.7092    1.6336 H   0  0  0  0  0  0  0  0  0  0  0  0
   -1.5238   -2.4951    2.7494 H   0  0  0  0  0  0  0  0  0  0  0  0
   -3.5451   -2.4793    0.4568 H   0  0  0  0  0  0  0  0  0  0  0  0
   -2.0653   -3.4287    0.1187 H   0  0  0  0  0  0  0  0  0  0  0  0
   -1.5911   -2.3143   -1.9049 H   0  0  0  0  0  0  0  0  0  0  0  0
   -3.3597   -2.0780   -1.9335 H   0  0  0  0  0  0  0  0  0  0  0  0
   -4.2131    0.1040   -0.6628 H   0  0  0  0  0  0  0  0  0  0  0  0
   -3.7850    0.6073   -2.3404 H   0  0  0  0  0  0  0  0  0  0  0  0
   -3.7042    2.4549   -0.4187 H   0  0  0  0  0  0  0  0  0  0  0  0
   -2.2974    2.3661   -1.5441 H   0  0  0  0  0  0  0  0  0  0  0  0
  1  5  1  0  0  0  0
  1  3  1  0  0  0  0
  1  2  1  0  0  0  0
  2  6  1  0  0  0  0
  2  8  1  0  0  0  0
  3  9  1  0  0  0  0
  4 11  1  1  0  0  0
  4  1  1  0  0  0  0
  5 13  1  6  0  0  0
  5  7  1  0  0  0  0
  6 15  1  0  0  0  0
  6 14  1  0  0  0  0
  7 17  1  0  0  0  0
  7  6  1  0  0  0  0
  8 19  1  0  0  0  0
  8 18  1  0  0  0  0
  9  8  1  0  0  0  0
  9 21  1  0  0  0  0
 10 23  1  0  0  0  0
 10 22  1  0  0  0  0
 10  3  1  0  0  0  0
 11 10  1  0  0  0  0
 12  4  1  0  0  0  0
 12 13  1  0  0  0  0
 12 26  1  0  0  0  0
 13 28  1  0  0  0  0
 16  7  1  0  0  0  0
 20  9  1  0  0  0  0
 24 11  1  0  0  0  0
 25 11  1  0  0  0  0
 27 12  1  0  0  0  0
 29 13  1  0  0  0  0
M  END
