3
q = 0.0, confidence = 0.992

 14 14  0  0  1  0  0  0  0  0999 V2000
    3.4367   -1.1511    1.7586 S   0  0  0  0  0  0  0  0  0  0  0  0
    2.6430    1.3593    0.2010 S   0  0  0  0  0  0  0  0  0  0  0  0
    1.2432   -0.9251    0.3131 N   0  0  0  0  0  2  0  0  0  0  0  0
    2.3203   -0.2865    0.6827 C   0  0  2  0  0  3  0  0  0  0  0  0
    2.4964   -2.6951    1.4220 C   0  0  0  0  0  0  0  0  0  0  0  0
    3.0073   -3.2397    0.6025 H   0  0  0  0  0  0  0  0  0  0  0  0
    2.4915   -3.3235    2.3319 H   0  0  0  0  0  0  0  0  0  0  0  0
    1.1026   -2.2049    1.0217 C   0  0  0  0  0  0  0  0  0  0  0  0
    0.5895   -2.9436    0.3773 H   0  0  0  0  0  0  0  0  0  0  0  0
    0.4674   -2.0392    1.9220 H   0  0  0  0  0  0  0  0  0  0  0  0
    4.3426    1.6234    0.7961 C   0  0  0  0  0  0  0  0  0  0  0  0
    5.0396    0.8944    0.3422 H   0  0  0  0  0  0  0  0  0  0  0  0
    4.3936    1.5850    1.9010 H   0  0  0  0  0  0  0  0  0  0  0  0
    4.6072    2.6434    0.4584 H   0  0  0  0  0  0  0  0  0  0  0  0
  2 11  1  0  0  0  0
  3  4  1  0  0  0  0
  3  8  1  0  0  0  0
  4  2  1  1  0  0  0
  4  1  1  0  0  0  0
  5  1  1  0  0  0  0
  5  7  1  0  0  0  0
  6  5  1  0  0  0  0
  8  5  1  0  0  0  0
  8 10  1  0  0  0  0
  9  8  1  0  0  0  0
 11 13  1  0  0  0  0
 12 11  1  0  0  0  0
 14 11  1  0  0  0  0
M  END
