17
q = 0.0, confidence = 0.976

 61 65  0  0  1  0  0  0  0  0999 V2000
   -2.5182   -0.3476    1.2291 C   0  0  1  0  0  0  0  0  0  0  0  0
   -3.6852   -0.3202    2.2447 C   0  0  0  0  0  0  0  0  0  0  0  0
    2.5182   -0.3482    1.2290 C   0  0  2  0  0  0  0  0  0  0  0  0
    3.6852   -0.3213    2.2446 C   0  0  0  0  0  0  0  0  0  0  0  0
   -1.8265   -1.4887   -0.8344 N   0  0  0  0  0  0  0  0  0  0  0  0
   -2.7546   -1.4206    0.1412 C   0  0  0  0  0  0  0  0  0  0  0  0
   -3.8615   -2.2893    0.1445 C   0  0  0  0  0  0  0  0  0  0  0  0
   -3.9962   -3.2332   -0.8851 C   0  0  0  0  0  0  0  0  0  0  0  0
   -3.0264   -3.2895   -1.8930 C   0  0  0  0  0  0  0  0  0  0  0  0
   -1.9559   -2.3870   -1.8211 C   0  0  0  0  0  0  0  0  0  0  0  0
   -2.4851    1.0695    0.6214 C   0  0  0  0  0  0  0  0  0  0  0  0
   -1.8521    2.1218    1.3162 C   0  0  0  0  0  0  0  0  0  0  0  0
   -1.8937    3.4340    0.8234 C   0  0  0  0  0  0  0  0  0  0  0  0
   -2.5811    3.7200   -0.3662 C   0  0  0  0  0  0  0  0  0  0  0  0
   -3.2391    2.6864   -1.0500 C   0  0  0  0  0  0  0  0  0  0  0  0
   -3.1946    1.3731   -0.5590 C   0  0  0  0  0  0  0  0  0  0  0  0
   -0.0000   -0.4128    1.3226 N   0  0  0  0  0  2  0  0  0  0  0  0
   -1.1832   -0.7166    1.9221 C   0  0  2  0  0  3  0  0  0  0  0  0
   -1.2025   -1.3912    3.1554 C   0  0  0  0  0  0  0  0  0  0  0  0
   -0.0002   -1.7415    3.7715 C   0  0  0  0  0  0  0  0  0  0  0  0
    1.2022   -1.3915    3.1554 C   0  0  0  0  0  0  0  0  0  0  0  0
    1.1831   -0.7168    1.9220 C   0  0  0  0  0  0  0  0  0  0  0  0
    1.8260   -1.4889   -0.8345 N   0  0  0  0  0  0  0  0  0  0  0  0
    2.7542   -1.4212    0.1410 C   0  0  0  0  0  0  0  0  0  0  0  0
    3.8609   -2.2902    0.1442 C   0  0  0  0  0  0  0  0  0  0  0  0
    3.9952   -3.2340   -0.8855 C   0  0  0  0  0  0  0  0  0  0  0  0
    3.0253   -3.2900   -1.8933 C   0  0  0  0  0  0  0  0  0  0  0  0
    1.9551   -2.3872   -1.8213 C   0  0  0  0  0  0  0  0  0  0  0  0
    2.4855    1.0690    0.6214 C   0  0  0  0  0  0  0  0  0  0  0  0
    1.8530    2.1215    1.3165 C   0  0  0  0  0  0  0  0  0  0  0  0
    1.8950    3.4336    0.8238 C   0  0  0  0  0  0  0  0  0  0  0  0
    2.5823    3.7195   -0.3659 C   0  0  0  0  0  0  0  0  0  0  0  0
    3.2397    2.6858   -1.0500 C   0  0  0  0  0  0  0  0  0  0  0  0
    3.1948    1.3724   -0.5591 C   0  0  0  0  0  0  0  0  0  0  0  0
   -3.8890   -1.3029    2.7106 H   0  0  0  0  0  0  0  0  0  0  0  0
   -3.4718    0.4103    3.0474 H   0  0  0  0  0  0  0  0  0  0  0  0
   -4.6081    0.0113    1.7331 H   0  0  0  0  0  0  0  0  0  0  0  0
    3.4722    0.4093    3.0473 H   0  0  0  0  0  0  0  0  0  0  0  0
    3.8887   -1.3040    2.7104 H   0  0  0  0  0  0  0  0  0  0  0  0
    4.6082    0.0100    1.7330 H   0  0  0  0  0  0  0  0  0  0  0  0
   -4.6223   -2.2342    0.9324 H   0  0  0  0  0  0  0  0  0  0  0  0
   -4.8592   -3.9157   -0.8974 H   0  0  0  0  0  0  0  0  0  0  0  0
   -3.0954   -4.0098   -2.7205 H   0  0  0  0  0  0  0  0  0  0  0  0
   -1.1713   -2.3809   -2.5965 H   0  0  0  0  0  0  0  0  0  0  0  0
   -1.3142    1.9136    2.2534 H   0  0  0  0  0  0  0  0  0  0  0  0
   -1.3880    4.2394    1.3763 H   0  0  0  0  0  0  0  0  0  0  0  0
   -2.6120    4.7486   -0.7547 H   0  0  0  0  0  0  0  0  0  0  0  0
   -3.7919    2.9017   -1.9766 H   0  0  0  0  0  0  0  0  0  0  0  0
   -3.7123    0.5741   -1.1099 H   0  0  0  0  0  0  0  0  0  0  0  0
   -2.1543   -1.6395    3.6370 H   0  0  0  0  0  0  0  0  0  0  0  0
   -0.0002   -2.2721    4.7350 H   0  0  0  0  0  0  0  0  0  0  0  0
    2.1540   -1.6400    3.6370 H   0  0  0  0  0  0  0  0  0  0  0  0
    4.6217   -2.2353    0.9321 H   0  0  0  0  0  0  0  0  0  0  0  0
    4.8581   -3.9168   -0.8980 H   0  0  0  0  0  0  0  0  0  0  0  0
    3.0942   -4.0102   -2.7210 H   0  0  0  0  0  0  0  0  0  0  0  0
    1.1704   -2.3809   -2.5966 H   0  0  0  0  0  0  0  0  0  0  0  0
    1.3152    1.9134    2.2538 H   0  0  0  0  0  0  0  0  0  0  0  0
    1.3898    4.2393    1.3769 H   0  0  0  0  0  0  0  0  0  0  0  0
    2.6135    4.7482   -0.7542 H   0  0  0  0  0  0  0  0  0  0  0  0
    3.7923    2.9009   -1.9766 H   0  0  0  0  0  0  0  0  0  0  0  0
    3.7120    0.5733   -1.1101 H   0  0  0  0  0  0  0  0  0  0  0  0
  1  2  1  1  0  0  0
  2 35  1  0  0  0  0
  2 36  1  0  0  0  0
  3 22  1  0  0  0  0
  3  4  1  1  0  0  0
  4 39  1  0  0  0  0
  4 38  1  0  0  0  0
  5  6  1  0  0  0  0
  6  7  2  0  0  0  0
  6  1  1  0  0  0  0
  7 41  1  0  0  0  0
  8  7  1  0  0  0  0
  9 10  1  0  0  0  0
  9  8  2  0  0  0  0
 10  5  2  0  0  0  0
 11  1  1  0  0  0  0
 11 12  1  0  0  0  0
 12 45  1  0  0  0  0
 13 12  2  0  0  0  0
 13 46  1  0  0  0  0
 14 13  1  0  0  0  0
 15 16  1  0  0  0  0
 15 14  2  0  0  0  0
 16 11  2  0  0  0  0
 17 22  1  0  0  0  0
 17 18  1  0  0  0  0
 18  1  1  6  0  0  0
 18 19  1  0  0  0  0
 19 50  1  0  0  0  0
 19 20  2  0  0  0  0
 20 51  1  0  0  0  0
 21 52  1  0  0  0  0
 21 20  1  0  0  0  0
 22 21  2  0  0  0  0
 23 24  1  0  0  0  0
 24 25  2  0  0  0  0
 24  3  1  0  0  0  0
 25 53  1  0  0  0  0
 26 25  1  0  0  0  0
 27 28  1  0  0  0  0
 27 26  2  0  0  0  0
 28 23  2  0  0  0  0
 29  3  1  0  0  0  0
 29 30  1  0  0  0  0
 30 57  1  0  0  0  0
 31 30  2  0  0  0  0
 31 58  1  0  0  0  0
 32 31  1  0  0  0  0
 33 34  1  0  0  0  0
 33 32  2  0  0  0  0
 34 29  2  0  0  0  0
 37  2  1  0  0  0  0
 40  4  1  0  0  0  0
 42  8  1  0  0  0  0
 43  9  1  0  0  0  0
 44 10  1  0  0  0  0
 47 14  1  0  0  0  0
 48 15  1  0  0  0  0
 49 16  1  0  0  0  0
 54 26  1  0  0  0  0
 55 27  1  0  0  0  0
 56 28  1  0  0  0  0
 59 32  1  0  0  0  0
 60 33  1  0  0  0  0
 61 34  1  0  0  0  0
M  END
