1
q = -1.0, confidence = 0.002

 31 32  0  0  1  0  0  0  0  0999 V2000
   -0.4741   -0.4502   -0.4957 N   0  0  0  0  0  0  0  0  0  0  0  0
   -0.3064    0.3393    0.6775 C   0  0  0  0  0  3  0  0  0  0  0  0
   -1.4457   -1.5698   -0.5136 C   0  0  2  0  0  0  0  0  0  0  0  0
   -1.3423   -2.2991   -1.8546 C   0  0  0  0  0  0  0  0  0  0  0  0
   -2.8672   -1.1087   -0.2235 C   0  0  0  0  0  0  0  0  0  0  0  0
   -3.3760    0.1017   -0.7351 C   0  0  0  0  0  0  0  0  0  0  0  0
   -4.7047    0.4771   -0.4858 C   0  0  0  0  0  0  0  0  0  0  0  0
   -5.5456   -0.3532    0.2717 C   0  0  0  0  0  0  0  0  0  0  0  0
   -5.0471   -1.5604    0.7858 C   0  0  0  0  0  0  0  0  0  0  0  0
   -3.7164   -1.9312    0.5419 C   0  0  0  0  0  0  0  0  0  0  0  0
   -0.4199    1.7932    0.4513 C   0  0  0  0  0  0  0  0  0  0  0  0
   -0.5890    2.1968   -0.8316 N   0  0  0  0  0  0  0  0  0  0  0  0
   -0.6522    3.5116   -1.0947 C   0  0  0  0  0  0  0  0  0  0  0  0
   -0.5604    4.5011   -0.1063 C   0  0  0  0  0  0  0  0  0  0  0  0
   -0.4049    4.0850    1.2296 C   0  0  0  0  0  0  0  0  0  0  0  0
   -0.3358    2.7207    1.5166 C   0  0  0  0  0  0  0  0  0  0  0  0
   -0.6066    0.2081   -1.2922 H   0  0  0  0  0  0  0  0  0  0  0  0
   -0.7798   -0.0504    1.5913 H   0  0  0  0  0  0  0  0  0  0  0  0
   -1.1292   -2.2582    0.2963 H   0  0  0  0  0  0  0  0  0  0  0  0
   -2.0238   -3.1706   -1.8681 H   0  0  0  0  0  0  0  0  0  0  0  0
   -0.3077   -2.6546   -2.0252 H   0  0  0  0  0  0  0  0  0  0  0  0
   -1.6391   -1.6275   -2.6867 H   0  0  0  0  0  0  0  0  0  0  0  0
   -2.7247    0.7754   -1.3141 H   0  0  0  0  0  0  0  0  0  0  0  0
   -5.0843    1.4303   -0.8846 H   0  0  0  0  0  0  0  0  0  0  0  0
   -6.5873   -0.0565    0.4669 H   0  0  0  0  0  0  0  0  0  0  0  0
   -5.6956   -2.2148    1.3880 H   0  0  0  0  0  0  0  0  0  0  0  0
   -3.3249   -2.8748    0.9552 H   0  0  0  0  0  0  0  0  0  0  0  0
   -0.7899    3.7908   -2.1544 H   0  0  0  0  0  0  0  0  0  0  0  0
   -0.6170    5.5658   -0.3743 H   0  0  0  0  0  0  0  0  0  0  0  0
   -0.3397    4.8263    2.0409 H   0  0  0  0  0  0  0  0  0  0  0  0
   -0.2057    2.3562    2.5463 H   0  0  0  0  0  0  0  0  0  0  0  0
  1  2  1  0  0  0  0
  2 18  1  0  0  0  0
  3  1  1  0  0  0  0
  3  5  1  0  0  0  0
  3 19  1  1  0  0  0
  4  3  1  0  0  0  0
  5 10  1  0  0  0  0
  6  7  1  0  0  0  0
  6  5  2  0  0  0  0
  7  8  2  0  0  0  0
  8 25  1  0  0  0  0
  8  9  1  0  0  0  0
  9 26  1  0  0  0  0
 10  9  2  0  0  0  0
 10 27  1  0  0  0  0
 11  2  1  0  0  0  0
 11 16  1  0  0  0  0
 12 11  2  0  0  0  0
 13 12  1  0  0  0  0
 13 14  2  0  0  0  0
 14 15  1  0  0  0  0
 15 16  2  0  0  0  0
 15 30  1  0  0  0  0
 16 31  1  0  0  0  0
 17  1  1  0  0  0  0
 20  4  1  0  0  0  0
 21  4  1  0  0  0  0
 22  4  1  0  0  0  0
 23  6  1  0  0  0  0
 24  7  1  0  0  0  0
 28 13  1  0  0  0  0
 29 14  1  0  0  0  0
M  END
