4
q = 0.0, confidence = 0.982

 63 67  0  0  1  0  0  0  0  0999 V2000
   -2.4262   -3.0358    1.4352 O   0  0  0  0  0  0  0  0  0  0  0  0
   -5.6661    0.2140    1.2728 O   0  0  0  0  0  0  0  0  0  0  0  0
    2.8952    5.1366    1.3098 O   0  0  0  0  0  0  0  0  0  0  0  0
    1.1366   -0.9293    0.3291 N   0  0  0  0  0  2  0  0  0  0  0  0
   -0.9059   -1.3017    1.0621 N   0  0  0  0  0  0  0  0  0  0  0  0
   -0.9420    0.0536    0.6020 N   0  0  1  0  0  0  0  0  0  0  0  0
   -4.3204   -1.2164    0.1057 N   0  0  0  0  0  0  0  0  0  0  0  0
   -4.2627   -1.9782   -0.5700 H   0  0  0  0  0  0  0  0  0  0  0  0
    0.3432    0.2563   -0.1047 C   0  0  1  0  0  0  0  0  0  0  0  0
    0.2411    0.1743   -1.2157 H   0  0  0  0  0  0  0  0  0  0  0  0
    0.3756   -1.7986    0.9436 C   0  0  2  0  0  3  0  0  0  0  0  0
   -2.1690   -1.8814    1.1376 C   0  0  0  0  0  0  0  0  0  0  0  0
   -3.1211   -0.7479    0.7177 C   0  0  1  0  0  0  0  0  0  0  0  0
   -3.4246   -0.1638    1.6170 H   0  0  0  0  0  0  0  0  0  0  0  0
   -2.1961    0.1576   -0.1543 C   0  0  1  0  0  0  0  0  0  0  0  0
   -2.0871   -0.3405   -1.1548 H   0  0  0  0  0  0  0  0  0  0  0  0
    0.7547   -3.1403    1.4669 C   0  0  0  0  0  0  0  0  0  0  0  0
    1.7705   -3.3575    1.0853 H   0  0  0  0  0  0  0  0  0  0  0  0
    0.0399   -3.8746    1.0384 H   0  0  0  0  0  0  0  0  0  0  0  0
    0.7159   -3.2116    3.0009 C   0  0  0  0  0  0  0  0  0  0  0  0
   -0.3023   -3.0086    3.3873 H   0  0  0  0  0  0  0  0  0  0  0  0
    1.4340   -2.4844    3.4257 H   0  0  0  0  0  0  0  0  0  0  0  0
    1.0077   -4.2269    3.3322 H   0  0  0  0  0  0  0  0  0  0  0  0
   -5.5545   -0.7142    0.4743 C   0  0  0  0  0  0  0  0  0  0  0  0
   -6.7403   -1.3623   -0.1830 C   0  0  0  0  0  0  0  0  0  0  0  0
   -6.7230   -2.6789   -0.6876 C   0  0  0  0  0  0  0  0  0  0  0  0
   -5.8211   -3.3039   -0.5900 H   0  0  0  0  0  0  0  0  0  0  0  0
   -7.8741   -3.2268   -1.2721 C   0  0  0  0  0  0  0  0  0  0  0  0
   -7.8560   -4.2591   -1.6528 H   0  0  0  0  0  0  0  0  0  0  0  0
   -9.0496   -2.4640   -1.3580 C   0  0  0  0  0  0  0  0  0  0  0  0
   -9.9516   -2.8942   -1.8194 H   0  0  0  0  0  0  0  0  0  0  0  0
   -9.0767   -1.1566   -0.8432 C   0  0  0  0  0  0  0  0  0  0  0  0
  -10.0003   -0.5609   -0.9014 H   0  0  0  0  0  0  0  0  0  0  0  0
   -7.9312   -0.6122   -0.2503 C   0  0  0  0  0  0  0  0  0  0  0  0
   -7.9267    0.4016    0.1761 H   0  0  0  0  0  0  0  0  0  0  0  0
   -2.6828    1.5682   -0.3523 C   0  0  0  0  0  0  0  0  0  0  0  0
   -3.4725    1.8776   -1.4730 C   0  0  0  0  0  0  0  0  0  0  0  0
   -3.6804    1.0997   -2.2247 H   0  0  0  0  0  0  0  0  0  0  0  0
   -3.9976    3.1666   -1.6410 C   0  0  0  0  0  0  0  0  0  0  0  0
   -4.6164    3.3898   -2.5244 H   0  0  0  0  0  0  0  0  0  0  0  0
   -3.7390    4.1848   -0.7036 C   0  0  0  0  0  0  0  0  0  0  0  0
   -4.2955    5.5753   -0.8774 C   0  0  0  0  0  0  0  0  0  0  0  0
   -4.9768    5.8412   -0.0420 H   0  0  0  0  0  0  0  0  0  0  0  0
   -4.8647    5.6740   -1.8218 H   0  0  0  0  0  0  0  0  0  0  0  0
   -3.4872    6.3359   -0.8849 H   0  0  0  0  0  0  0  0  0  0  0  0
   -2.9357    3.8655    0.4122 C   0  0  0  0  0  0  0  0  0  0  0  0
   -2.7081    4.6458    1.1558 H   0  0  0  0  0  0  0  0  0  0  0  0
   -2.4197    2.5785    0.5926 C   0  0  0  0  0  0  0  0  0  0  0  0
   -1.7895    2.3484    1.4632 H   0  0  0  0  0  0  0  0  0  0  0  0
    1.0067    1.5651    0.2467 C   0  0  0  0  0  0  0  0  0  0  0  0
    1.0641    2.0058    1.5842 C   0  0  0  0  0  0  0  0  0  0  0  0
    0.6018    1.3960    2.3746 H   0  0  0  0  0  0  0  0  0  0  0  0
    1.7015    3.2012    1.9095 C   0  0  0  0  0  0  0  0  0  0  0  0
    1.7587    3.5598    2.9472 H   0  0  0  0  0  0  0  0  0  0  0  0
    2.3024    3.9833    0.8965 C   0  0  0  0  0  0  0  0  0  0  0  0
    3.5252    5.9520    0.3415 C   0  0  0  0  0  0  0  0  0  0  0  0
    3.9390    6.8219    0.8847 H   0  0  0  0  0  0  0  0  0  0  0  0
    2.8070    6.3150   -0.4282 H   0  0  0  0  0  0  0  0  0  0  0  0
    4.3560    5.4190   -0.1737 H   0  0  0  0  0  0  0  0  0  0  0  0
    2.2602    3.5425   -0.4420 C   0  0  0  0  0  0  0  0  0  0  0  0
    2.7272    4.1255   -1.2465 H   0  0  0  0  0  0  0  0  0  0  0  0
    1.6153    2.3358   -0.7536 C   0  0  0  0  0  0  0  0  0  0  0  0
    1.6113    1.9689   -1.7913 H   0  0  0  0  0  0  0  0  0  0  0  0
  4 11  1  0  0  0  0
  5 12  1  0  0  0  0
  6  5  1  6  0  0  0
  7 24  1  0  0  0  0
  7 13  1  0  0  0  0
  8  7  1  0  0  0  0
  9 10  1  6  0  0  0
  9 50  1  0  0  0  0
  9  4  1  0  0  0  0
  9  6  1  0  0  0  0
 11  5  1  0  0  0  0
 11 17  1  1  0  0  0
 12  1  2  0  0  0  0
 13 12  1  0  0  0  0
 13 14  1  1  0  0  0
 15 16  1  6  0  0  0
 15  6  1  0  0  0  0
 15 13  1  0  0  0  0
 17 20  1  0  0  0  0
 18 17  1  0  0  0  0
 19 17  1  0  0  0  0
 20 23  1  0  0  0  0
 20 21  1  0  0  0  0
 20 22  1  0  0  0  0
 24  2  2  0  0  0  0
 25 24  1  0  0  0  0
 26 27  1  0  0  0  0
 26 25  2  0  0  0  0
 28 26  1  0  0  0  0
 29 28  1  0  0  0  0
 30 28  2  0  0  0  0
 30 32  1  0  0  0  0
 31 30  1  0  0  0  0
 32 34  2  0  0  0  0
 33 32  1  0  0  0  0
 34 25  1  0  0  0  0
 34 35  1  0  0  0  0
 36 15  1  0  0  0  0
 36 48  1  0  0  0  0
 37 36  2  0  0  0  0
 38 37  1  0  0  0  0
 39 37  1  0  0  0  0
 39 41  2  0  0  0  0
 40 39  1  0  0  0  0
 41 46  1  0  0  0  0
 42 41  1  0  0  0  0
 42 43  1  0  0  0  0
 44 42  1  0  0  0  0
 45 42  1  0  0  0  0
 46 48  2  0  0  0  0
 46 47  1  0  0  0  0
 48 49  1  0  0  0  0
 50 51  1  0  0  0  0
 51 53  2  0  0  0  0
 51 52  1  0  0  0  0
 53 54  1  0  0  0  0
 55  3  1  0  0  0  0
 55 53  1  0  0  0  0
 56 57  1  0  0  0  0
 56  3  1  0  0  0  0
 58 56  1  0  0  0  0
 59 56  1  0  0  0  0
 60 55  2  0  0  0  0
 61 60  1  0  0  0  0
 62 60  1  0  0  0  0
 62 50  2  0  0  0  0
 63 62  1  0  0  0  0
M  END
