1
q = 0.0, confidence = 0.998

 18 17  0  0  0  0  0  0  0  0999 V2000
   -1.6535   -0.2132   -1.0210 N   0  0  0  0  0  0  0  0  0  0  0  0
   -1.9812   -0.5139   -1.9506 H   0  0  0  0  0  0  0  0  0  0  0  0
   -2.4513   -0.3595   -0.3770 H   0  0  0  0  0  0  0  0  0  0  0  0
   -1.2867    1.1814   -1.1011 N   0  0  0  0  0  0  0  0  0  0  0  0
   -0.2946    1.2276   -0.7977 H   0  0  0  0  0  0  0  0  0  0  0  0
   -2.0879    2.0679   -0.2283 C   0  0  0  0  0  0  0  0  0  0  0  0
   -3.5602    2.0276   -0.6696 C   0  0  0  0  0  0  0  0  0  0  0  0
   -3.6409    2.2443   -1.7534 H   0  0  0  0  0  0  0  0  0  0  0  0
   -4.1527    2.7791   -0.1120 H   0  0  0  0  0  0  0  0  0  0  0  0
   -4.0298    1.0406   -0.4770 H   0  0  0  0  0  0  0  0  0  0  0  0
   -1.5146    3.4738   -0.4595 C   0  0  0  0  0  0  0  0  0  0  0  0
   -0.4353    3.5021   -0.2008 H   0  0  0  0  0  0  0  0  0  0  0  0
   -2.0353    4.2196    0.1730 H   0  0  0  0  0  0  0  0  0  0  0  0
   -1.6197    3.7662   -1.5222 H   0  0  0  0  0  0  0  0  0  0  0  0
   -1.9671    1.6952    1.2702 C   0  0  0  0  0  0  0  0  0  0  0  0
   -2.2003    0.6260    1.4658 H   0  0  0  0  0  0  0  0  0  0  0  0
   -2.6518    2.3032    1.8954 H   0  0  0  0  0  0  0  0  0  0  0  0
   -0.9349    1.8968    1.6293 H   0  0  0  0  0  0  0  0  0  0  0  0
  1  3  1  0  0  0  0
  2  1  1  0  0  0  0
  4  1  1  0  0  0  0
  4  5  1  0  0  0  0
  4  6  1  0  0  0  0
  6 15  1  0  0  0  0
  7 10  1  0  0  0  0
  7  6  1  0  0  0  0
  7  9  1  0  0  0  0
  8  7  1  0  0  0  0
 11  6  1  0  0  0  0
 11 12  1  0  0  0  0
 11 13  1  0  0  0  0
 14 11  1  0  0  0  0
 15 16  1  0  0  0  0
 15 18  1  0  0  0  0
 15 17  1  0  0  0  0
M  END
