1
q = 0.0, confidence = 1.0

 28 28  0  0  0  0  0  0  0  0999 V2000
    0.4578    1.4433    0.5296 N   0  0  0  0  0  2  0  0  0  0  0  0
    2.4352    0.8561   -0.4987 N   0  0  0  0  0  0  0  0  0  0  0  0
   -0.3272    2.3269    1.1847 C   0  0  0  0  0  3  0  0  0  0  0  0
   -1.2930    1.9251    1.5245 H   0  0  0  0  0  0  0  0  0  0  0  0
    0.0411    3.6476    1.4181 C   0  0  0  0  0  0  0  0  0  0  0  0
   -0.6454    4.3192    1.9525 H   0  0  0  0  0  0  0  0  0  0  0  0
    1.2965    4.0992    0.9494 C   0  0  0  0  0  0  0  0  0  0  0  0
    2.1205    3.1799    0.2932 C   0  0  0  0  0  0  0  0  0  0  0  0
    3.1098    3.4966   -0.0568 H   0  0  0  0  0  0  0  0  0  0  0  0
    1.7028    1.8360    0.0962 C   0  0  0  0  0  0  0  0  0  0  0  0
    3.7501    0.9086   -1.1520 C   0  0  0  0  0  0  0  0  0  0  0  0
    3.9660   -0.5026   -1.7302 C   0  0  0  0  0  0  0  0  0  0  0  0
    3.1753   -0.7464   -2.4676 H   0  0  0  0  0  0  0  0  0  0  0  0
    3.9290   -1.2661   -0.9272 H   0  0  0  0  0  0  0  0  0  0  0  0
    4.9503   -0.5701   -2.2323 H   0  0  0  0  0  0  0  0  0  0  0  0
    4.8739    1.2169   -0.1389 C   0  0  0  0  0  0  0  0  0  0  0  0
    4.7425    2.2054    0.3421 H   0  0  0  0  0  0  0  0  0  0  0  0
    5.8622    1.2134   -0.6412 H   0  0  0  0  0  0  0  0  0  0  0  0
    4.8906    0.4515    0.6625 H   0  0  0  0  0  0  0  0  0  0  0  0
    3.7551    1.9222   -2.3137 C   0  0  0  0  0  0  0  0  0  0  0  0
    2.9441    1.6869   -3.0308 H   0  0  0  0  0  0  0  0  0  0  0  0
    4.7226    1.8760   -2.8520 H   0  0  0  0  0  0  0  0  0  0  0  0
    3.6124    2.9648   -1.9722 H   0  0  0  0  0  0  0  0  0  0  0  0
    1.7319    5.5241    1.1633 C   0  0  0  0  0  0  0  0  0  0  0  0
    1.0365    6.2280    0.6602 H   0  0  0  0  0  0  0  0  0  0  0  0
    2.7506    5.7097    0.7725 H   0  0  0  0  0  0  0  0  0  0  0  0
    1.7217    5.7845    2.2420 H   0  0  0  0  0  0  0  0  0  0  0  0
    2.0356   -0.0910   -0.3150 H   0  0  0  0  0  0  0  0  0  0  0  0
  1  3  1  0  0  0  0
  2 28  1  0  0  0  0
  2 10  1  0  0  0  0
  3  5  1  0  0  0  0
  3  4  1  0  0  0  0
  5  6  1  0  0  0  0
  7 24  1  0  0  0  0
  7  5  2  0  0  0  0
  8  7  1  0  0  0  0
  9  8  1  0  0  0  0
 10  8  2  0  0  0  0
 10  1  1  0  0  0  0
 11  2  1  0  0  0  0
 11 16  1  0  0  0  0
 12 11  1  0  0  0  0
 12 14  1  0  0  0  0
 13 12  1  0  0  0  0
 15 12  1  0  0  0  0
 16 17  1  0  0  0  0
 16 19  1  0  0  0  0
 18 16  1  0  0  0  0
 20 23  1  0  0  0  0
 20 11  1  0  0  0  0
 21 20  1  0  0  0  0
 22 20  1  0  0  0  0
 24 27  1  0  0  0  0
 25 24  1  0  0  0  0
 26 24  1  0  0  0  0
M  END
