1
q = 0.0, confidence = 0.998

 20 20  0  0  1  0  0  0  0  0999 V2000
    0.3829   -0.6102    0.3832 N   0  0  0  0  0  0  0  0  0  0  0  0
    0.2941   -1.5634    0.7688 H   0  0  0  0  0  0  0  0  0  0  0  0
    0.8046   -0.7272   -0.5517 H   0  0  0  0  0  0  0  0  0  0  0  0
    1.3083    0.1878    1.2413 C   0  0  1  0  0  0  0  0  0  0  0  0
    1.0897    1.2499    1.0058 H   0  0  0  0  0  0  0  0  0  0  0  0
    0.9687   -0.0605    2.7050 C   0  0  0  0  0  0  0  0  0  0  0  0
   -0.1067    0.1301    2.8771 H   0  0  0  0  0  0  0  0  0  0  0  0
    1.5520    0.6072    3.3669 H   0  0  0  0  0  0  0  0  0  0  0  0
    1.1826   -1.1096    2.9992 H   0  0  0  0  0  0  0  0  0  0  0  0
    2.7515   -0.0676    0.8249 C   0  0  0  0  0  0  0  0  0  0  0  0
    3.1294    0.2459   -0.5009 C   0  0  0  0  0  0  0  0  0  0  0  0
    2.3869    0.6654   -1.2032 H   0  0  0  0  0  0  0  0  0  0  0  0
    4.4345    0.0250   -0.9544 C   0  0  0  0  0  0  0  0  0  0  0  0
    4.7227    0.2695   -1.9863 H   0  0  0  0  0  0  0  0  0  0  0  0
    5.3871   -0.5114   -0.0704 C   0  0  0  0  0  0  0  0  0  0  0  0
    5.0381   -0.8245    1.2517 C   0  0  0  0  0  0  0  0  0  0  0  0
    5.7953   -1.2405    1.9309 H   0  0  0  0  0  0  0  0  0  0  0  0
    3.7233   -0.6021    1.6892 C   0  0  0  0  0  0  0  0  0  0  0  0
    3.4643   -0.8492    2.7287 H   0  0  0  0  0  0  0  0  0  0  0  0
    7.0177   -0.7866   -0.6229 Cl  0  0  0  0  0  0  0  0  0  0  0  0
  1  2  1  0  0  0  0
  1  4  1  0  0  0  0
  3  1  1  0  0  0  0
  4  5  1  6  0  0  0
  4  6  1  0  0  0  0
  6  7  1  0  0  0  0
  6  9  1  0  0  0  0
  6  8  1  0  0  0  0
 10  4  1  0  0  0  0
 10 18  1  0  0  0  0
 11 10  2  0  0  0  0
 12 11  1  0  0  0  0
 13 11  1  0  0  0  0
 13 15  2  0  0  0  0
 14 13  1  0  0  0  0
 15 16  1  0  0  0  0
 16 18  2  0  0  0  0
 16 17  1  0  0  0  0
 18 19  1  0  0  0  0
 20 15  1  0  0  0  0
M  END
