1
q = 0.0, confidence = 1.0

 24 24  0  0  1  0  0  0  0  0999 V2000
   -0.5173   -1.2102    1.0734 N   0  0  0  0  0  0  0  0  0  0  0  0
   -0.1584   -0.7870    1.9436 H   0  0  0  0  0  0  0  0  0  0  0  0
   -1.3757   -1.7128    1.3444 H   0  0  0  0  0  0  0  0  0  0  0  0
    5.7236    0.0108    0.4347 O   0  0  0  0  0  0  0  0  0  0  0  0
    6.5518   -0.0950   -0.7086 C   0  0  0  0  0  0  0  0  0  0  0  0
    6.7837   -1.1551   -0.9566 H   0  0  0  0  0  0  0  0  0  0  0  0
    7.4930    0.4306   -0.4632 H   0  0  0  0  0  0  0  0  0  0  0  0
    6.0911    0.3862   -1.6006 H   0  0  0  0  0  0  0  0  0  0  0  0
    0.4537   -2.1853    0.5069 C   0  0  2  0  0  0  0  0  0  0  0  0
    0.1242   -2.3604   -0.5382 H   0  0  0  0  0  0  0  0  0  0  0  0
    0.4028   -3.5137    1.2748 C   0  0  0  0  0  0  0  0  0  0  0  0
    1.0945   -4.2467    0.8161 H   0  0  0  0  0  0  0  0  0  0  0  0
   -0.6181   -3.9499    1.2560 H   0  0  0  0  0  0  0  0  0  0  0  0
    0.7116   -3.3750    2.3317 H   0  0  0  0  0  0  0  0  0  0  0  0
    1.8542   -1.6062    0.4766 C   0  0  0  0  0  0  0  0  0  0  0  0
    2.6561   -1.7579   -0.6651 C   0  0  0  0  0  0  0  0  0  0  0  0
    2.2380   -2.2521   -1.5549 H   0  0  0  0  0  0  0  0  0  0  0  0
    3.9619   -1.2482   -0.7191 C   0  0  0  0  0  0  0  0  0  0  0  0
    4.5486   -1.3725   -1.6387 H   0  0  0  0  0  0  0  0  0  0  0  0
    4.4889   -0.5596    0.3924 C   0  0  0  0  0  0  0  0  0  0  0  0
    3.6998   -0.4175    1.5545 C   0  0  0  0  0  0  0  0  0  0  0  0
    4.1285    0.1137    2.4164 H   0  0  0  0  0  0  0  0  0  0  0  0
    2.4052   -0.9393    1.5911 C   0  0  0  0  0  0  0  0  0  0  0  0
    1.8177   -0.8010    2.5138 H   0  0  0  0  0  0  0  0  0  0  0  0
  1  3  1  0  0  0  0
  1  2  1  0  0  0  0
  5  7  1  0  0  0  0
  5  4  1  0  0  0  0
  6  5  1  0  0  0  0
  8  5  1  0  0  0  0
  9 10  1  6  0  0  0
  9  1  1  0  0  0  0
  9 11  1  0  0  0  0
 11 14  1  0  0  0  0
 12 11  1  0  0  0  0
 13 11  1  0  0  0  0
 15  9  1  0  0  0  0
 15 23  1  0  0  0  0
 16 15  2  0  0  0  0
 17 16  1  0  0  0  0
 18 16  1  0  0  0  0
 18 20  2  0  0  0  0
 19 18  1  0  0  0  0
 20  4  1  0  0  0  0
 20 21  1  0  0  0  0
 21 23  2  0  0  0  0
 21 22  1  0  0  0  0
 23 24  1  0  0  0  0
M  END
