1
q = nan, confidence = 0.0

 34 33  0  0  0  0  0  0  0  0999 V2000
   -0.2303   -0.4265    0.6458 N   0  0  0  0  0  0  0  0  0  0  0  0
   -0.2235    0.2054    1.4710 H   0  0  0  0  0  0  0  0  0  0  0  0
   -0.0834   -1.3818    1.0228 H   0  0  0  0  0  0  0  0  0  0  0  0
    5.0830    0.3029   -0.2845 Si  0  0  0  0  0  0  0  0  0  0  0  0
    0.7818   -0.0477   -0.3481 C   0  0  0  0  0  0  0  0  0  0  0  0
    0.5484    0.9779   -0.7023 H   0  0  0  0  0  0  0  0  0  0  0  0
    0.6815   -0.7216   -1.2249 H   0  0  0  0  0  0  0  0  0  0  0  0
    2.2143   -0.0984    0.1915 C   0  0  0  0  0  0  0  0  0  0  0  0
    2.4184   -1.1235    0.5715 H   0  0  0  0  0  0  0  0  0  0  0  0
    2.2836    0.5702    1.0774 H   0  0  0  0  0  0  0  0  0  0  0  0
    3.2606    0.2906   -0.8618 C   0  0  0  0  0  0  0  0  0  0  0  0
    3.0314    1.3003   -1.2724 H   0  0  0  0  0  0  0  0  0  0  0  0
    3.1868   -0.4047   -1.7285 H   0  0  0  0  0  0  0  0  0  0  0  0
    5.4894    1.9096    0.6527 C   0  0  0  0  0  0  0  0  0  0  0  0
    6.5811    1.8900    0.8690 H   0  0  0  0  0  0  0  0  0  0  0  0
    5.3501    2.7559   -0.0568 H   0  0  0  0  0  0  0  0  0  0  0  0
    4.7009    2.1610    1.9453 C   0  0  0  0  0  0  0  0  0  0  0  0
    5.0315    3.0849    2.4639 H   0  0  0  0  0  0  0  0  0  0  0  0
    4.8146    1.3249    2.6665 H   0  0  0  0  0  0  0  0  0  0  0  0
    3.6145    2.2734    1.7497 H   0  0  0  0  0  0  0  0  0  0  0  0
    5.3957   -1.2069    0.8327 C   0  0  0  0  0  0  0  0  0  0  0  0
    4.7203   -1.1358    1.7137 H   0  0  0  0  0  0  0  0  0  0  0  0
    5.0656   -2.1169    0.2835 H   0  0  0  0  0  0  0  0  0  0  0  0
    6.8524   -1.3582    1.2929 C   0  0  0  0  0  0  0  0  0  0  0  0
    6.9970   -2.2459    1.9431 H   0  0  0  0  0  0  0  0  0  0  0  0
    7.1926   -0.4731    1.8698 H   0  0  0  0  0  0  0  0  0  0  0  0
    7.5451   -1.4674    0.4324 H   0  0  0  0  0  0  0  0  0  0  0  0
    6.2046    0.2222   -1.8212 C   0  0  0  0  0  0  0  0  0  0  0  0
    5.9509    1.0893   -2.4712 H   0  0  0  0  0  0  0  0  0  0  0  0
    7.2499    0.4042   -1.4863 H   0  0  0  0  0  0  0  0  0  0  0  0
    6.1238   -1.0869   -2.6179 C   0  0  0  0  0  0  0  0  0  0  0  0
    6.7820   -1.0756   -3.5115 H   0  0  0  0  0  0  0  0  0  0  0  0
    5.0931   -1.2889   -2.9782 H   0  0  0  0  0  0  0  0  0  0  0  0
    6.4254   -1.9594   -2.0018 H   0  0  0  0  0  0  0  0  0  0  0  0
  1  3  1  0  0  0  0
  1  2  1  0  0  0  0
  4 14  1  0  0  0  0
  4 21  1  0  0  0  0
  5  8  1  0  0  0  0
  5  1  1  0  0  0  0
  6  5  1  0  0  0  0
  7  5  1  0  0  0  0
  8  9  1  0  0  0  0
  8 10  1  0  0  0  0
 11  4  1  0  0  0  0
 11  8  1  0  0  0  0
 12 11  1  0  0  0  0
 13 11  1  0  0  0  0
 14 15  1  0  0  0  0
 14 17  1  0  0  0  0
 16 14  1  0  0  0  0
 17 18  1  0  0  0  0
 17 19  1  0  0  0  0
 20 17  1  0  0  0  0
 21 24  1  0  0  0  0
 21 22  1  0  0  0  0
 23 21  1  0  0  0  0
 24 26  1  0  0  0  0
 24 25  1  0  0  0  0
 27 24  1  0  0  0  0
 28 30  1  0  0  0  0
 28  4  1  0  0  0  0
 29 28  1  0  0  0  0
 31 34  1  0  0  0  0
 31 28  1  0  0  0  0
 32 31  1  0  0  0  0
 33 31  1  0  0  0  0
M  END
