1
q = 0.0, confidence = 0.986

 27 27  0  0  0  0  0  0  0  0999 V2000
   -0.2043    0.1788   -0.0000 N   0  0  0  0  0  2  0  0  0  0  0  0
   -1.1239   -0.7103   -0.0007 N   0  0  0  0  0  0  0  0  0  0  0  0
   -3.6276   -2.1498    0.0005 O   0  0  0  0  0  0  0  0  0  0  0  0
   -0.8009    1.5641    0.0012 C   0  0  0  0  0  0  0  0  0  0  0  0
   -4.7244   -0.1539   -0.0016 O   0  0  0  0  0  0  0  0  0  0  0  0
   -2.2629    1.2654    0.0010 C   0  0  0  0  0  3  0  0  0  0  0  0
   -3.0688    2.0078    0.0016 H   0  0  0  0  0  0  0  0  0  0  0  0
   -2.3906   -0.0889   -0.0002 C   0  0  0  0  0  0  0  0  0  0  0  0
   -3.6139   -0.9360   -0.0004 C   0  0  0  0  0  0  0  0  0  0  0  0
   -5.9664   -0.8693   -0.0015 C   0  0  0  0  0  0  0  0  0  0  0  0
   -6.0489   -1.5150   -0.8989 H   0  0  0  0  0  0  0  0  0  0  0  0
   -6.7615   -0.1031   -0.0018 H   0  0  0  0  0  0  0  0  0  0  0  0
   -6.0491   -1.5144    0.8964 H   0  0  0  0  0  0  0  0  0  0  0  0
   -0.3637    2.3268   -1.2800 C   0  0  0  0  0  0  0  0  0  0  0  0
   -0.7300    3.3690   -1.1705 H   0  0  0  0  0  0  0  0  0  0  0  0
    0.7422    2.3809   -1.2671 H   0  0  0  0  0  0  0  0  0  0  0  0
   -0.8620    1.7217   -2.5908 C   0  0  0  0  0  0  0  0  0  0  0  0
   -0.3972    2.2372   -3.4538 H   0  0  0  0  0  0  0  0  0  0  0  0
   -1.9616    1.8102   -2.6952 H   0  0  0  0  0  0  0  0  0  0  0  0
   -0.6041    0.6481   -2.6734 H   0  0  0  0  0  0  0  0  0  0  0  0
   -0.3638    2.3241    1.2843 C   0  0  0  0  0  0  0  0  0  0  0  0
    0.7421    2.3780    1.2716 H   0  0  0  0  0  0  0  0  0  0  0  0
   -0.7300    3.3665    1.1769 H   0  0  0  0  0  0  0  0  0  0  0  0
   -0.8624    1.7162    2.5937 C   0  0  0  0  0  0  0  0  0  0  0  0
   -0.3971    2.2292    3.4579 H   0  0  0  0  0  0  0  0  0  0  0  0
   -0.6055    0.6422    2.6737 H   0  0  0  0  0  0  0  0  0  0  0  0
   -1.9620    1.8054    2.6984 H   0  0  0  0  0  0  0  0  0  0  0  0
  1  4  1  0  0  0  0
  2  8  2  0  0  0  0
  2  1  1  0  0  0  0
  4 21  1  0  0  0  0
  5 10  1  0  0  0  0
  5  9  1  0  0  0  0
  6  4  1  0  0  0  0
  6  7  1  0  0  0  0
  8  6  1  0  0  0  0
  9  8  1  0  0  0  0
  9  3  2  0  0  0  0
 10 13  1  0  0  0  0
 11 10  1  0  0  0  0
 12 10  1  0  0  0  0
 14 16  1  0  0  0  0
 14 15  1  0  0  0  0
 14  4  1  0  0  0  0
 17 14  1  0  0  0  0
 18 17  1  0  0  0  0
 19 17  1  0  0  0  0
 20 17  1  0  0  0  0
 21 24  1  0  0  0  0
 22 21  1  0  0  0  0
 23 21  1  0  0  0  0
 24 26  1  0  0  0  0
 24 27  1  0  0  0  0
 24 25  1  0  0  0  0
M  END
