3
q = -1.0, confidence = 0.118

 34 36  0  0  1  0  0  0  0  0999 V2000
   -1.0892    0.2307   -0.7720 N   0  0  0  0  0  0  0  0  0  0  0  0
   -0.3491   -0.3001   -1.3799 H   0  0  0  0  0  0  0  0  0  0  0  0
    1.5537    0.9903   -0.2864 N   0  0  0  0  0  2  0  0  0  0  0  0
    0.5069    1.8828   -0.3848 N   0  0  0  0  0  0  0  0  0  0  0  0
   -0.8059    1.4297   -0.2429 C   0  0  0  0  0  0  0  0  0  0  0  0
   -1.7845    2.1288    0.4962 C   0  0  0  0  0  0  0  0  0  0  0  0
   -1.5172    3.0832    0.9641 H   0  0  0  0  0  0  0  0  0  0  0  0
   -3.0484    1.5763    0.6992 C   0  0  0  0  0  0  0  0  0  0  0  0
   -3.3248    0.2692    0.1649 C   0  0  0  0  0  0  0  0  0  0  0  0
   -2.2931   -0.4014   -0.5701 C   0  0  2  0  0  3  0  0  0  0  0  0
   -2.4736   -1.7103   -1.0803 C   0  0  0  0  0  0  0  0  0  0  0  0
   -1.6319   -2.1903   -1.6038 H   0  0  0  0  0  0  0  0  0  0  0  0
   -3.6898   -2.3460   -0.8703 C   0  0  0  0  0  0  0  0  0  0  0  0
   -3.8386   -3.3678   -1.2489 H   0  0  0  0  0  0  0  0  0  0  0  0
   -4.7345   -1.6976   -0.1620 C   0  0  0  0  0  0  0  0  0  0  0  0
   -5.6901   -2.2194   -0.0059 H   0  0  0  0  0  0  0  0  0  0  0  0
   -4.5576   -0.4173    0.3478 C   0  0  0  0  0  0  0  0  0  0  0  0
   -5.3698    0.0670    0.9070 H   0  0  0  0  0  0  0  0  0  0  0  0
   -4.0780    2.3107    1.5063 C   0  0  0  0  0  0  0  0  0  0  0  0
   -3.7018    3.2920    1.8488 H   0  0  0  0  0  0  0  0  0  0  0  0
   -4.3731    1.7233    2.4003 H   0  0  0  0  0  0  0  0  0  0  0  0
   -5.0019    2.4799    0.9152 H   0  0  0  0  0  0  0  0  0  0  0  0
    2.6815    1.7025   -0.3814 C   0  0  1  0  0  3  0  0  0  0  0  0
    2.3597    3.0776   -0.5704 C   0  0  0  0  0  0  0  0  0  0  0  0
    3.0666    3.9018   -0.7098 H   0  0  0  0  0  0  0  0  0  0  0  0
    0.9771    3.1785   -0.5650 C   0  0  0  0  0  0  0  0  0  0  0  0
    4.0074    1.0402   -0.2372 C   0  0  0  0  0  0  0  0  0  0  0  0
    4.0740    0.5907    0.7764 H   0  0  0  0  0  0  0  0  0  0  0  0
    4.8316    1.7616   -0.3848 H   0  0  0  0  0  0  0  0  0  0  0  0
    4.1059    0.2080   -0.9628 H   0  0  0  0  0  0  0  0  0  0  0  0
    0.0992    4.3669   -0.7779 C   0  0  0  0  0  0  0  0  0  0  0  0
   -0.2786    4.7920    0.1760 H   0  0  0  0  0  0  0  0  0  0  0  0
   -0.7784    4.1287   -1.4113 H   0  0  0  0  0  0  0  0  0  0  0  0
    0.6800    5.1621   -1.2809 H   0  0  0  0  0  0  0  0  0  0  0  0
  1 10  1  0  0  0  0
  1  5  1  0  0  0  0
  2  1  1  0  0  0  0
  4  3  1  0  0  0  0
  4  5  1  0  0  0  0
  5  6  2  0  0  0  0
  6  8  1  0  0  0  0
  6  7  1  0  0  0  0
  8 19  1  0  0  0  0
  9 17  1  0  0  0  0
  9  8  2  0  0  0  0
 10 11  1  1  0  0  0
 10  9  1  0  0  0  0
 11 13  2  0  0  0  0
 12 11  1  0  0  0  0
 13 15  1  0  0  0  0
 14 13  1  0  0  0  0
 15 16  1  0  0  0  0
 15 17  2  0  0  0  0
 17 18  1  0  0  0  0
 19 20  1  0  0  0  0
 19 21  1  0  0  0  0
 22 19  1  0  0  0  0
 23  3  1  0  0  0  0
 23 27  1  1  0  0  0
 24 26  2  0  0  0  0
 24 23  1  0  0  0  0
 25 24  1  0  0  0  0
 26  4  1  0  0  0  0
 27 28  1  0  0  0  0
 29 27  1  0  0  0  0
 30 27  1  0  0  0  0
 31 26  1  0  0  0  0
 31 32  1  0  0  0  0
 33 31  1  0  0  0  0
 34 31  1  0  0  0  0
M  END
