2
q = 0.0, confidence = 0.998

 21 21  0  0  1  0  0  0  0  0999 V2000
    0.9281    3.1289   -1.6132 O   0  0  0  0  0  0  0  0  0  0  0  0
    1.5925   -0.9098   -0.3240 N   0  0  0  0  0  2  0  0  0  0  0  0
    2.4474   -0.6573   -1.3480 C   0  0  2  0  0  3  0  0  0  0  0  0
    3.6159   -1.4343   -1.4834 C   0  0  0  0  0  0  0  0  0  0  0  0
    4.2999   -1.2137   -2.3159 H   0  0  0  0  0  0  0  0  0  0  0  0
    3.8938   -2.4648   -0.5823 C   0  0  0  0  0  0  0  0  0  0  0  0
    4.8048   -3.0722   -0.6912 H   0  0  0  0  0  0  0  0  0  0  0  0
    2.9843   -2.7108    0.4555 C   0  0  0  0  0  0  0  0  0  0  0  0
    3.1408   -3.5147    1.1878 H   0  0  0  0  0  0  0  0  0  0  0  0
    1.8475   -1.9088    0.5558 C   0  0  0  0  0  0  0  0  0  0  0  0
    1.1011   -2.0789    1.3468 H   0  0  0  0  0  0  0  0  0  0  0  0
    2.1694    0.4578   -2.3209 C   0  0  0  0  0  0  0  0  0  0  0  0
    2.4667    0.0961   -3.3258 H   0  0  0  0  0  0  0  0  0  0  0  0
    1.0805    0.6573   -2.3579 H   0  0  0  0  0  0  0  0  0  0  0  0
    2.9282    1.7691   -2.0087 C   0  0  0  0  0  0  0  0  0  0  0  0
    3.1164    2.3083   -2.9647 H   0  0  0  0  0  0  0  0  0  0  0  0
    3.9317    1.5497   -1.5846 H   0  0  0  0  0  0  0  0  0  0  0  0
    2.1756    2.7069   -1.0659 C   0  0  0  0  0  0  0  0  0  0  0  0
    2.8202    3.5803   -0.8100 H   0  0  0  0  0  0  0  0  0  0  0  0
    1.9302    2.1948   -0.1151 H   0  0  0  0  0  0  0  0  0  0  0  0
    1.1070    3.5448   -2.4770 H   0  0  0  0  0  0  0  0  0  0  0  0
  1 18  1  0  0  0  0
  2 10  1  0  0  0  0
  3 12  1  1  0  0  0
  3  2  1  0  0  0  0
  4  3  1  0  0  0  0
  4  6  2  0  0  0  0
  5  4  1  0  0  0  0
  6  8  1  0  0  0  0
  7  6  1  0  0  0  0
  8 10  2  0  0  0  0
  8  9  1  0  0  0  0
 10 11  1  0  0  0  0
 12 15  1  0  0  0  0
 13 12  1  0  0  0  0
 14 12  1  0  0  0  0
 15 17  1  0  0  0  0
 15 18  1  0  0  0  0
 16 15  1  0  0  0  0
 18 19  1  0  0  0  0
 18 20  1  0  0  0  0
 21  1  1  0  0  0  0
M  END
