1
q = -1.0, confidence = 0.0

 28 28  0  0  0  0  0  0  0  0999 V2000
    1.1706    0.1226    0.3175 N   0  0  0  0  0  2  0  0  0  0  0  0
    0.7032    2.4558    0.7540 N   0  0  0  0  0  0  0  0  0  0  0  0
    2.5341   -0.1523    0.0800 C   0  0  0  0  0  0  0  0  0  0  0  0
    3.1522    0.3852   -1.0816 C   0  0  0  0  0  0  0  0  0  0  0  0
    4.5077    0.0825   -1.3050 C   0  0  0  0  0  0  0  0  0  0  0  0
    5.0001    0.4929   -2.2005 H   0  0  0  0  0  0  0  0  0  0  0  0
    5.2239   -0.7410   -0.4257 C   0  0  0  0  0  0  0  0  0  0  0  0
    6.2836   -0.9647   -0.6199 H   0  0  0  0  0  0  0  0  0  0  0  0
    4.5802   -1.3005    0.6865 C   0  0  0  0  0  0  0  0  0  0  0  0
    5.1303   -1.9721    1.3639 H   0  0  0  0  0  0  0  0  0  0  0  0
    3.2259   -1.0295    0.9502 C   0  0  0  0  0  0  0  0  0  0  0  0
    0.4288    1.1851    0.4678 C   0  0  0  0  0  2  0  0  0  0  0  0
   -0.3798    3.4309    0.7620 C   0  0  0  0  0  0  0  0  0  0  0  0
   -0.1164    4.2980    0.1203 H   0  0  0  0  0  0  0  0  0  0  0  0
   -0.5748    3.8075    1.7903 H   0  0  0  0  0  0  0  0  0  0  0  0
   -1.2883    2.9543    0.3519 H   0  0  0  0  0  0  0  0  0  0  0  0
    2.0332    2.9446    1.1059 C   0  0  0  0  0  0  0  0  0  0  0  0
    2.0157    3.4041    2.1174 H   0  0  0  0  0  0  0  0  0  0  0  0
    2.3743    3.7157    0.3826 H   0  0  0  0  0  0  0  0  0  0  0  0
    2.7583    2.1111    1.1013 H   0  0  0  0  0  0  0  0  0  0  0  0
    2.3581    1.2027   -2.0648 C   0  0  0  0  0  0  0  0  0  0  0  0
    2.9522    1.4149   -2.9734 H   0  0  0  0  0  0  0  0  0  0  0  0
    2.0254    2.1746   -1.6445 H   0  0  0  0  0  0  0  0  0  0  0  0
    1.4334    0.6659   -2.3627 H   0  0  0  0  0  0  0  0  0  0  0  0
    2.5006   -1.6761    2.0983 C   0  0  0  0  0  0  0  0  0  0  0  0
    1.6859   -2.3217    1.7076 H   0  0  0  0  0  0  0  0  0  0  0  0
    2.0271   -0.9256    2.7650 H   0  0  0  0  0  0  0  0  0  0  0  0
    3.1819   -2.3014    2.7058 H   0  0  0  0  0  0  0  0  0  0  0  0
  1 12  1  0  0  0  0
  2 13  1  0  0  0  0
  2 17  1  0  0  0  0
  3  1  1  0  0  0  0
  3 11  1  0  0  0  0
  4  3  2  0  0  0  0
  5  4  1  0  0  0  0
  5  7  2  0  0  0  0
  6  5  1  0  0  0  0
  7  9  1  0  0  0  0
  8  7  1  0  0  0  0
  9 11  2  0  0  0  0
  9 10  1  0  0  0  0
 11 25  1  0  0  0  0
 12  2  1  0  0  0  0
 13 15  1  0  0  0  0
 14 13  1  0  0  0  0
 16 13  1  0  0  0  0
 17 18  1  0  0  0  0
 19 17  1  0  0  0  0
 20 17  1  0  0  0  0
 21 23  1  0  0  0  0
 21  4  1  0  0  0  0
 22 21  1  0  0  0  0
 24 21  1  0  0  0  0
 25 28  1  0  0  0  0
 25 27  1  0  0  0  0
 26 25  1  0  0  0  0
M  END
