1
q = 0.0, confidence = 0.982

 16 16  0  0  1  0  0  0  0  0999 V2000
    1.4391    1.6847   -0.3396 N   0  0  0  0  0  2  0  0  0  0  0  0
    2.0357    1.9823    1.8869 N   0  0  0  0  0  0  0  0  0  0  0  0
    2.1395    0.9393    1.9468 H   0  0  0  0  0  0  0  0  0  0  0  0
    2.5779    2.5186    2.5647 H   0  0  0  0  0  0  0  0  0  0  0  0
    2.0116    2.4760    0.6189 C   0  0  2  0  0  3  0  0  0  0  0  0
    2.5246    3.7510    0.2645 C   0  0  0  0  0  0  0  0  0  0  0  0
    2.9516    4.3957    1.0460 H   0  0  0  0  0  0  0  0  0  0  0  0
    2.5013    4.1417   -1.0700 C   0  0  0  0  0  0  0  0  0  0  0  0
    2.8994    5.1262   -1.3596 H   0  0  0  0  0  0  0  0  0  0  0  0
    2.0030    3.2643   -2.0502 C   0  0  0  0  0  0  0  0  0  0  0  0
    2.0164    3.5301   -3.1157 H   0  0  0  0  0  0  0  0  0  0  0  0
    1.4807    2.0247   -1.6586 C   0  0  0  0  0  0  0  0  0  0  0  0
    0.9849    1.0097   -2.6403 C   0  0  0  0  0  0  0  0  0  0  0  0
   -0.0096    0.6060   -2.3453 H   0  0  0  0  0  0  0  0  0  0  0  0
    1.6689    0.1354   -2.6420 H   0  0  0  0  0  0  0  0  0  0  0  0
    0.9385    1.4305   -3.6618 H   0  0  0  0  0  0  0  0  0  0  0  0
  1  5  1  0  0  0  0
  2  3  1  0  0  0  0
  2  4  1  0  0  0  0
  5  2  1  1  0  0  0
  6  5  1  0  0  0  0
  6  7  1  0  0  0  0
  8  6  2  0  0  0  0
  9  8  1  0  0  0  0
 10 12  2  0  0  0  0
 10  8  1  0  0  0  0
 11 10  1  0  0  0  0
 12  1  1  0  0  0  0
 13 14  1  0  0  0  0
 13 12  1  0  0  0  0
 15 13  1  0  0  0  0
 16 13  1  0  0  0  0
M  END
