2
q = 0.0, confidence = 1.0

 50 52  0  0  0  0  0  0  0  0999 V2000
    2.9030    0.3518   -1.1431 Se  0  0  0  0  0  0  0  0  0  0  0  0
    0.2220   -0.7946   -0.3755 N   0  0  0  0  0  2  0  0  0  0  0  0
   -0.9287   -0.8222    0.2469 N   0  0  0  0  0  2  0  0  0  0  0  0
   -1.7928   -0.1674   -0.5455 N   0  0  0  0  0  0  0  0  0  0  0  0
    0.1307   -0.1133   -1.5736 C   0  0  0  0  0  0  0  0  0  0  0  0
    1.3474    0.1010   -2.3957 C   0  0  0  0  0  0  0  0  0  0  0  0
    1.2634    0.9709   -3.0730 H   0  0  0  0  0  0  0  0  0  0  0  0
    1.6314   -0.7977   -2.9806 H   0  0  0  0  0  0  0  0  0  0  0  0
   -1.1882    0.2981   -1.6824 C   0  0  0  0  0  0  0  0  0  0  0  0
   -1.7328    0.8591   -2.4463 H   0  0  0  0  0  0  0  0  0  0  0  0
   -3.4922    1.2612    0.4746 C   0  0  0  0  0  0  0  0  0  0  0  0
   -2.4569    2.3562    0.7039 C   0  0  0  0  0  0  0  0  0  0  0  0
   -1.4508    1.9061    0.5791 H   0  0  0  0  0  0  0  0  0  0  0  0
    2.2095    1.9910   -0.3398 C   0  0  0  0  0  0  0  0  0  0  0  0
   -3.1549    0.0270   -0.1272 C   0  0  0  0  0  0  0  0  0  0  0  0
   -4.8368    1.4373    0.8521 C   0  0  0  0  0  0  0  0  0  0  0  0
   -5.1479    2.3841    1.3178 H   0  0  0  0  0  0  0  0  0  0  0  0
    1.7586    1.9830    0.9908 C   0  0  0  0  0  0  0  0  0  0  0  0
    1.8047    1.0516    1.5784 H   0  0  0  0  0  0  0  0  0  0  0  0
   -5.7774    0.4184    0.6571 C   0  0  0  0  0  0  0  0  0  0  0  0
   -6.8227    0.5752    0.9638 H   0  0  0  0  0  0  0  0  0  0  0  0
   -3.6236   -2.3731   -0.8913 C   0  0  0  0  0  0  0  0  0  0  0  0
   -2.7420   -2.1792   -1.5396 H   0  0  0  0  0  0  0  0  0  0  0  0
   -4.0713   -1.0330   -0.3220 C   0  0  0  0  0  0  0  0  0  0  0  0
   -5.3983   -0.8041    0.0862 C   0  0  0  0  0  0  0  0  0  0  0  0
   -6.1475   -1.5975   -0.0452 H   0  0  0  0  0  0  0  0  0  0  0  0
    1.6408    4.3398   -0.5479 C   0  0  0  0  0  0  0  0  0  0  0  0
    1.6009    5.2612   -1.1484 H   0  0  0  0  0  0  0  0  0  0  0  0
    1.2464    3.1664    1.5469 C   0  0  0  0  0  0  0  0  0  0  0  0
    0.8957    3.1636    2.5899 H   0  0  0  0  0  0  0  0  0  0  0  0
    1.1790    4.3399    0.7791 C   0  0  0  0  0  0  0  0  0  0  0  0
    0.7728    5.2633    1.2190 H   0  0  0  0  0  0  0  0  0  0  0  0
    2.1691    3.1670   -1.1095 C   0  0  0  0  0  0  0  0  0  0  0  0
    2.5495    3.1729   -2.1430 H   0  0  0  0  0  0  0  0  0  0  0  0
   -3.1598   -3.3126    0.2419 C   0  0  0  0  0  0  0  0  0  0  0  0
   -2.2983   -2.8958    0.7993 H   0  0  0  0  0  0  0  0  0  0  0  0
   -2.8479   -4.2906   -0.1774 H   0  0  0  0  0  0  0  0  0  0  0  0
   -3.9878   -3.4944    0.9578 H   0  0  0  0  0  0  0  0  0  0  0  0
   -2.5149    2.9163    2.1333 C   0  0  0  0  0  0  0  0  0  0  0  0
   -1.6959    3.6470    2.2871 H   0  0  0  0  0  0  0  0  0  0  0  0
   -2.4047    2.1109    2.8860 H   0  0  0  0  0  0  0  0  0  0  0  0
   -3.4689    3.4454    2.3340 H   0  0  0  0  0  0  0  0  0  0  0  0
   -4.6943   -3.0410   -1.7652 C   0  0  0  0  0  0  0  0  0  0  0  0
   -5.5628   -3.3818   -1.1649 H   0  0  0  0  0  0  0  0  0  0  0  0
   -4.2733   -3.9399   -2.2578 H   0  0  0  0  0  0  0  0  0  0  0  0
   -5.0711   -2.3594   -2.5543 H   0  0  0  0  0  0  0  0  0  0  0  0
   -2.5938    3.4778   -0.3413 C   0  0  0  0  0  0  0  0  0  0  0  0
   -3.5743    3.9896   -0.2518 H   0  0  0  0  0  0  0  0  0  0  0  0
   -2.5160    3.0863   -1.3755 H   0  0  0  0  0  0  0  0  0  0  0  0
   -1.7942    4.2340   -0.2044 H   0  0  0  0  0  0  0  0  0  0  0  0
  1 14  1  0  0  0  0
  2  3  1  0  0  0  0
  4 15  1  0  0  0  0
  4  3  1  0  0  0  0
  5  2  1  0  0  0  0
  6  5  1  0  0  0  0
  6  1  1  0  0  0  0
  7  6  1  0  0  0  0
  8  6  1  0  0  0  0
  9  5  2  0  0  0  0
  9  4  1  0  0  0  0
 10  9  1  0  0  0  0
 11 12  1  0  0  0  0
 11 16  1  0  0  0  0
 12 39  1  0  0  0  0
 13 12  1  0  0  0  0
 14 18  1  0  0  0  0
 15 11  2  0  0  0  0
 16 17  1  0  0  0  0
 18 29  2  0  0  0  0
 18 19  1  0  0  0  0
 20 16  2  0  0  0  0
 20 21  1  0  0  0  0
 22 24  1  0  0  0  0
 22 35  1  0  0  0  0
 23 22  1  0  0  0  0
 24 15  1  0  0  0  0
 24 25  2  0  0  0  0
 25 20  1  0  0  0  0
 26 25  1  0  0  0  0
 27 31  2  0  0  0  0
 28 27  1  0  0  0  0
 29 30  1  0  0  0  0
 31 32  1  0  0  0  0
 31 29  1  0  0  0  0
 33 27  1  0  0  0  0
 33 14  2  0  0  0  0
 34 33  1  0  0  0  0
 35 36  1  0  0  0  0
 35 38  1  0  0  0  0
 37 35  1  0  0  0  0
 39 40  1  0  0  0  0
 39 42  1  0  0  0  0
 39 41  1  0  0  0  0
 43 44  1  0  0  0  0
 43 22  1  0  0  0  0
 45 43  1  0  0  0  0
 46 43  1  0  0  0  0
 47 48  1  0  0  0  0
 47 50  1  0  0  0  0
 47 12  1  0  0  0  0
 49 47  1  0  0  0  0
M  END
