1
q = -1.0, confidence = 0.002

 21 20  0  0  0  0  0  0  0  0999 V2000
   -0.7718    1.6628    0.5814 N   0  0  0  0  0  2  0  0  0  0  0  0
   -0.6866    1.8311    2.0333 C   0  0  0  0  0  0  0  0  0  0  0  0
   -0.3135    0.8589    2.4322 H   0  0  0  0  0  0  0  0  0  0  0  0
   -2.0444    2.0881    2.7195 C   0  0  0  0  0  0  0  0  0  0  0  0
   -2.7540    1.2584    2.5335 H   0  0  0  0  0  0  0  0  0  0  0  0
   -2.5103    3.0246    2.3484 H   0  0  0  0  0  0  0  0  0  0  0  0
   -1.9262    2.1901    3.8181 H   0  0  0  0  0  0  0  0  0  0  0  0
    0.3349    2.8967    2.4816 C   0  0  0  0  0  0  0  0  0  0  0  0
    0.0365    3.9103    2.1419 H   0  0  0  0  0  0  0  0  0  0  0  0
    1.3369    2.6821    2.0645 H   0  0  0  0  0  0  0  0  0  0  0  0
    0.4207    2.9305    3.5876 H   0  0  0  0  0  0  0  0  0  0  0  0
   -1.2182    2.8419   -0.1766 C   0  0  0  0  0  0  0  0  0  0  0  0
   -1.4206    3.6757    0.5363 H   0  0  0  0  0  0  0  0  0  0  0  0
   -0.1395    3.3453   -1.1539 C   0  0  0  0  0  0  0  0  0  0  0  0
    0.0545    2.5841   -1.9383 H   0  0  0  0  0  0  0  0  0  0  0  0
    0.8105    3.5491   -0.6208 H   0  0  0  0  0  0  0  0  0  0  0  0
   -0.4604    4.2785   -1.6626 H   0  0  0  0  0  0  0  0  0  0  0  0
   -2.5304    2.5775   -0.9376 C   0  0  0  0  0  0  0  0  0  0  0  0
   -2.3983    1.7313   -1.6449 H   0  0  0  0  0  0  0  0  0  0  0  0
   -2.8443    3.4648   -1.5262 H   0  0  0  0  0  0  0  0  0  0  0  0
   -3.3533    2.3268   -0.2385 H   0  0  0  0  0  0  0  0  0  0  0  0
  1  2  1  0  0  0  0
  2  3  1  0  0  0  0
  2  8  1  0  0  0  0
  2  4  1  0  0  0  0
  4  7  1  0  0  0  0
  5  4  1  0  0  0  0
  6  4  1  0  0  0  0
  8 11  1  0  0  0  0
  9  8  1  0  0  0  0
 10  8  1  0  0  0  0
 12 13  1  0  0  0  0
 12  1  1  0  0  0  0
 14 16  1  0  0  0  0
 14 12  1  0  0  0  0
 15 14  1  0  0  0  0
 17 14  1  0  0  0  0
 18 21  1  0  0  0  0
 18 12  1  0  0  0  0
 19 18  1  0  0  0  0
 20 18  1  0  0  0  0
M  END
