2
q = 0.0, confidence = 0.998

 40 42  0  0  1  0  0  0  0  0999 V2000
   -2.0145   -3.3744   -1.1002 O   0  0  0  0  0  0  0  0  0  0  0  0
   -1.2014   -1.4361   -0.3074 N   0  0  0  0  0  2  0  0  0  0  0  0
   -2.8409   -2.3356   -1.7087 N   0  0  0  0  0  0  0  0  0  0  0  0
    0.0406   -3.5027   -0.0857 N   0  0  0  0  0  0  0  0  0  0  0  0
   -2.5599   -1.1794   -0.8267 C   0  0  1  0  0  0  0  0  0  0  0  0
   -2.5226   -0.2685   -1.4603 H   0  0  0  0  0  0  0  0  0  0  0  0
   -0.9885   -2.7265   -0.4673 C   0  0  1  0  0  3  0  0  0  0  0  0
   -3.6299   -1.0208    0.2444 C   0  0  0  0  0  0  0  0  0  0  0  0
   -4.9828   -1.0513   -0.1490 C   0  0  0  0  0  0  0  0  0  0  0  0
   -5.2324   -1.2523   -1.2022 H   0  0  0  0  0  0  0  0  0  0  0  0
   -6.0018   -0.8555    0.7888 C   0  0  0  0  0  0  0  0  0  0  0  0
   -7.0540   -0.8879    0.4624 H   0  0  0  0  0  0  0  0  0  0  0  0
   -5.7044   -0.6232    2.1498 C   0  0  0  0  0  0  0  0  0  0  0  0
   -4.3498   -0.5977    2.5286 C   0  0  0  0  0  0  0  0  0  0  0  0
   -4.0860   -0.4198    3.5835 H   0  0  0  0  0  0  0  0  0  0  0  0
   -3.3199   -0.7941    1.5938 C   0  0  0  0  0  0  0  0  0  0  0  0
   -2.2694   -0.7616    1.9214 H   0  0  0  0  0  0  0  0  0  0  0  0
   -6.8101   -0.4274    3.1569 C   0  0  0  0  0  0  0  0  0  0  0  0
   -7.5285    0.3512    2.8264 H   0  0  0  0  0  0  0  0  0  0  0  0
   -6.4127   -0.1282    4.1462 H   0  0  0  0  0  0  0  0  0  0  0  0
   -7.3948   -1.3613    3.2990 H   0  0  0  0  0  0  0  0  0  0  0  0
   -2.3540   -2.1720   -3.0784 C   0  0  0  0  0  0  0  0  0  0  0  0
   -1.3014   -1.8109   -3.1403 H   0  0  0  0  0  0  0  0  0  0  0  0
   -3.0096   -1.4251   -3.5679 H   0  0  0  0  0  0  0  0  0  0  0  0
   -2.4744   -3.1357   -3.6084 H   0  0  0  0  0  0  0  0  0  0  0  0
    0.3413   -4.7422   -0.8180 C   0  0  0  0  0  0  0  0  0  0  0  0
   -0.5688   -5.0863   -1.3394 H   0  0  0  0  0  0  0  0  0  0  0  0
    0.6122   -5.5157   -0.0664 H   0  0  0  0  0  0  0  0  0  0  0  0
    1.5082   -4.5101   -1.7880 C   0  0  0  0  0  0  0  0  0  0  0  0
    1.1748   -3.7947   -2.5717 H   0  0  0  0  0  0  0  0  0  0  0  0
    1.7545   -5.4631   -2.3018 H   0  0  0  0  0  0  0  0  0  0  0  0
    2.7318   -3.9437   -1.0537 C   0  0  0  0  0  0  0  0  0  0  0  0
    3.5392   -3.7030   -1.7757 H   0  0  0  0  0  0  0  0  0  0  0  0
    3.1415   -4.7281   -0.3765 H   0  0  0  0  0  0  0  0  0  0  0  0
    2.3635   -2.7040   -0.2288 C   0  0  0  0  0  0  0  0  0  0  0  0
    3.2237   -2.3572    0.3762 H   0  0  0  0  0  0  0  0  0  0  0  0
    2.0867   -1.8569   -0.8941 H   0  0  0  0  0  0  0  0  0  0  0  0
    1.1744   -2.9874    0.6930 C   0  0  0  0  0  0  0  0  0  0  0  0
    1.4351   -3.7755    1.4346 H   0  0  0  0  0  0  0  0  0  0  0  0
    0.8573   -2.0905    1.2580 H   0  0  0  0  0  0  0  0  0  0  0  0
  1  7  1  0  0  0  0
  3  1  1  0  0  0  0
  3  5  1  0  0  0  0
  4 38  1  0  0  0  0
  5  6  1  6  0  0  0
  5  2  1  0  0  0  0
  5  8  1  0  0  0  0
  7  2  1  0  0  0  0
  7  4  1  1  0  0  0
  8 16  1  0  0  0  0
  9  8  2  0  0  0  0
  9 11  1  0  0  0  0
 10  9  1  0  0  0  0
 11 13  2  0  0  0  0
 12 11  1  0  0  0  0
 13 14  1  0  0  0  0
 13 18  1  0  0  0  0
 14 15  1  0  0  0  0
 16 17  1  0  0  0  0
 16 14  2  0  0  0  0
 18 21  1  0  0  0  0
 18 20  1  0  0  0  0
 19 18  1  0  0  0  0
 22  3  1  0  0  0  0
 23 22  1  0  0  0  0
 24 22  1  0  0  0  0
 25 22  1  0  0  0  0
 26  4  1  0  0  0  0
 26 28  1  0  0  0  0
 27 26  1  0  0  0  0
 29 32  1  0  0  0  0
 29 26  1  0  0  0  0
 30 29  1  0  0  0  0
 31 29  1  0  0  0  0
 32 34  1  0  0  0  0
 32 35  1  0  0  0  0
 33 32  1  0  0  0  0
 35 36  1  0  0  0  0
 35 38  1  0  0  0  0
 37 35  1  0  0  0  0
 38 40  1  0  0  0  0
 38 39  1  0  0  0  0
M  END
