1
q = 0.0, confidence = 1.0

 16 16  0  0  0  0  0  0  0  0999 V2000
   -1.8397    0.7992   -0.1127 N   0  0  0  0  0  2  0  0  0  0  0  0
   -2.9211    0.3240    0.5402 N   0  0  0  0  0  0  0  0  0  0  0  0
   -4.0390    0.9833    0.1359 C   0  0  0  0  0  3  0  0  0  0  0  0
   -3.6544    1.9415   -0.8015 C   0  0  0  0  0  0  0  0  0  0  0  0
   -2.2613    1.7819   -0.9294 C   0  0  0  0  0  0  0  0  0  0  0  0
   -1.5417    2.3072   -1.5655 H   0  0  0  0  0  0  0  0  0  0  0  0
   -4.2966    2.6554   -1.3249 H   0  0  0  0  0  0  0  0  0  0  0  0
   -5.0179    0.7220    0.5499 H   0  0  0  0  0  0  0  0  0  0  0  0
   -2.8476   -0.8137    1.4486 C   0  0  0  0  0  0  0  0  0  0  0  0
   -2.3973   -2.1119    0.7339 C   0  0  0  0  0  0  0  0  0  0  0  0
   -2.9885   -2.2690   -0.5237 O   0  0  0  0  0  0  0  0  0  0  0  0
   -2.3241   -1.9487   -1.1820 H   0  0  0  0  0  0  0  0  0  0  0  0
   -2.6821   -2.9595    1.3987 H   0  0  0  0  0  0  0  0  0  0  0  0
   -1.2831   -2.1113    0.6692 H   0  0  0  0  0  0  0  0  0  0  0  0
   -2.1584   -0.5622    2.2822 H   0  0  0  0  0  0  0  0  0  0  0  0
   -3.8707   -0.9266    1.8544 H   0  0  0  0  0  0  0  0  0  0  0  0
  1  2  1  0  0  0  0
  2  9  1  0  0  0  0
  3  2  1  0  0  0  0
  3  8  1  0  0  0  0
  4  3  1  0  0  0  0
  5  4  2  0  0  0  0
  5  1  1  0  0  0  0
  6  5  1  0  0  0  0
  7  4  1  0  0  0  0
  9 16  1  0  0  0  0
  9 15  1  0  0  0  0
 10 13  1  0  0  0  0
 10  9  1  0  0  0  0
 11 10  1  0  0  0  0
 12 11  1  0  0  0  0
 14 10  1  0  0  0  0
M  END
