2
q = 0.0, confidence = 0.996

 26 27  0  0  1  0  0  0  0  0999 V2000
   -1.3067   -3.2549   -1.1243 O   0  0  0  0  0  0  0  0  0  0  0  0
    0.1801   -1.7528   -0.3411 N   0  0  0  0  0  2  0  0  0  0  0  0
   -3.3040   -1.2306   -1.3070 C   0  0  0  0  0  0  0  0  0  0  0  0
   -3.6376   -2.1694   -0.8435 H   0  0  0  0  0  0  0  0  0  0  0  0
   -4.2330   -0.2913   -1.7685 C   0  0  0  0  0  0  0  0  0  0  0  0
   -5.3099   -0.4919   -1.6653 H   0  0  0  0  0  0  0  0  0  0  0  0
   -3.7909    0.9020   -2.3629 C   0  0  0  0  0  0  0  0  0  0  0  0
   -4.5226    1.6353   -2.7351 H   0  0  0  0  0  0  0  0  0  0  0  0
   -2.4157    1.1516   -2.4985 C   0  0  0  0  0  0  0  0  0  0  0  0
   -2.0677    2.0700   -2.9942 H   0  0  0  0  0  0  0  0  0  0  0  0
   -1.4763    0.2264   -2.0238 C   0  0  0  0  0  0  0  0  0  0  0  0
   -0.3963    0.3990   -2.1597 H   0  0  0  0  0  0  0  0  0  0  0  0
   -1.9225   -0.9645   -1.4156 C   0  0  0  0  0  0  0  0  0  0  0  0
   -0.9561   -1.9642   -0.9329 C   0  0  2  0  0  3  0  0  0  0  0  0
   -0.1322   -4.0414   -0.8065 C   0  0  0  0  0  0  0  0  0  0  0  0
    0.3401   -4.3420   -1.7661 H   0  0  0  0  0  0  0  0  0  0  0  0
   -0.4543   -4.9431   -0.2523 H   0  0  0  0  0  0  0  0  0  0  0  0
    0.7638   -3.0869    0.0222 C   0  0  0  0  0  0  0  0  0  0  0  0
    2.2372   -3.1754   -0.3766 C   0  0  0  0  0  0  0  0  0  0  0  0
    2.6070   -4.2088   -0.2169 H   0  0  0  0  0  0  0  0  0  0  0  0
    2.8464   -2.4908    0.2466 H   0  0  0  0  0  0  0  0  0  0  0  0
    2.3796   -2.8940   -1.4378 H   0  0  0  0  0  0  0  0  0  0  0  0
    0.5712   -3.3219    1.5277 C   0  0  0  0  0  0  0  0  0  0  0  0
    0.9959   -4.3067    1.8091 H   0  0  0  0  0  0  0  0  0  0  0  0
   -0.5057   -3.3175    1.7898 H   0  0  0  0  0  0  0  0  0  0  0  0
    1.0921   -2.5342    2.1073 H   0  0  0  0  0  0  0  0  0  0  0  0
  1 14  1  0  0  0  0
  1 15  1  0  0  0  0
  2 18  1  0  0  0  0
  3  4  1  0  0  0  0
  5  6  1  0  0  0  0
  5  3  2  0  0  0  0
  7  5  1  0  0  0  0
  8  7  1  0  0  0  0
  9  7  2  0  0  0  0
  9 11  1  0  0  0  0
 10  9  1  0  0  0  0
 11 13  2  0  0  0  0
 12 11  1  0  0  0  0
 13  3  1  0  0  0  0
 14 13  1  1  0  0  0
 14  2  1  0  0  0  0
 15 17  1  0  0  0  0
 15 18  1  0  0  0  0
 16 15  1  0  0  0  0
 18 23  1  0  0  0  0
 19 20  1  0  0  0  0
 19 18  1  0  0  0  0
 19 21  1  0  0  0  0
 22 19  1  0  0  0  0
 23 25  1  0  0  0  0
 23 24  1  0  0  0  0
 23 26  1  0  0  0  0
M  END
