1
q = 0.0, confidence = 0.994

 26 26  0  0  1  0  0  0  0  0999 V2000
    2.0516   -0.6668   -1.0403 N   0  0  0  0  0  0  0  0  0  0  0  0
    2.1617    0.2052   -1.6197 H   0  0  0  0  0  0  0  0  0  0  0  0
    1.9631   -1.4899   -1.6507 H   0  0  0  0  0  0  0  0  0  0  0  0
    3.1638   -0.8428   -0.0776 C   0  0  1  0  0  0  0  0  0  0  0  0
    4.0894   -1.0573   -0.6629 H   0  0  0  0  0  0  0  0  0  0  0  0
    3.3841    0.4780    0.6723 C   0  0  0  0  0  0  0  0  0  0  0  0
    2.4630    0.7171    1.2464 H   0  0  0  0  0  0  0  0  0  0  0  0
    3.4930    1.2869   -0.0807 H   0  0  0  0  0  0  0  0  0  0  0  0
    4.6015    0.4831    1.6125 C   0  0  0  0  0  0  0  0  0  0  0  0
    4.6677    1.4889    2.0801 H   0  0  0  0  0  0  0  0  0  0  0  0
    4.4449   -0.2316    2.4465 H   0  0  0  0  0  0  0  0  0  0  0  0
    5.9088    0.1648    0.9177 C   0  0  0  0  0  0  0  0  0  0  0  0
    6.4117    1.0151   -0.0904 C   0  0  0  0  0  0  0  0  0  0  0  0
    5.8568    1.9299   -0.3540 H   0  0  0  0  0  0  0  0  0  0  0  0
    7.6060    0.7134   -0.7596 C   0  0  0  0  0  0  0  0  0  0  0  0
    7.9809    1.3921   -1.5411 H   0  0  0  0  0  0  0  0  0  0  0  0
    8.3243   -0.4493   -0.4342 C   0  0  0  0  0  0  0  0  0  0  0  0
    9.2618   -0.6869   -0.9595 H   0  0  0  0  0  0  0  0  0  0  0  0
    7.8384   -1.3032    0.5670 C   0  0  0  0  0  0  0  0  0  0  0  0
    8.3940   -2.2158    0.8323 H   0  0  0  0  0  0  0  0  0  0  0  0
    6.6415   -0.9963    1.2341 C   0  0  0  0  0  0  0  0  0  0  0  0
    6.2671   -1.6696    2.0221 H   0  0  0  0  0  0  0  0  0  0  0  0
    2.8890   -2.0282    0.8454 C   0  0  0  0  0  0  0  0  0  0  0  0
    2.0381   -1.8051    1.5216 H   0  0  0  0  0  0  0  0  0  0  0  0
    3.7807   -2.2673    1.4563 H   0  0  0  0  0  0  0  0  0  0  0  0
    2.6196   -2.9331    0.2657 H   0  0  0  0  0  0  0  0  0  0  0  0
  1  4  1  0  0  0  0
  2  1  1  0  0  0  0
  3  1  1  0  0  0  0
  4  5  1  6  0  0  0
  4  6  1  0  0  0  0
  4 23  1  0  0  0  0
  6  7  1  0  0  0  0
  6  9  1  0  0  0  0
  8  6  1  0  0  0  0
  9 10  1  0  0  0  0
  9 11  1  0  0  0  0
 12 21  1  0  0  0  0
 12  9  1  0  0  0  0
 13 12  2  0  0  0  0
 14 13  1  0  0  0  0
 15 17  2  0  0  0  0
 15 13  1  0  0  0  0
 16 15  1  0  0  0  0
 17 19  1  0  0  0  0
 18 17  1  0  0  0  0
 19 20  1  0  0  0  0
 19 21  2  0  0  0  0
 21 22  1  0  0  0  0
 23 25  1  0  0  0  0
 23 24  1  0  0  0  0
 26 23  1  0  0  0  0
M  END
