1
q = -1.0, confidence = 0.002

 17 18  0  0  0  0  0  0  0  0999 V2000
   -2.7788   -0.6720   -0.0260 N   0  0  0  0  0  0  0  0  0  0  0  0
   -4.7757   -1.7766   -0.0090 N   0  0  0  0  0  0  0  0  0  0  0  0
   -3.7721    0.2981   -0.0139 C   0  0  0  0  0  3  0  0  0  0  0  0
   -3.7223    1.7028   -0.0116 C   0  0  0  0  0  0  0  0  0  0  0  0
   -4.9435    2.3919    0.0029 C   0  0  0  0  0  0  0  0  0  0  0  0
   -6.1800    1.7003    0.0139 C   0  0  0  0  0  0  0  0  0  0  0  0
   -6.2312    0.3001    0.0106 C   0  0  0  0  0  0  0  0  0  0  0  0
   -5.0161   -0.4129   -0.0033 C   0  0  0  0  0  0  0  0  0  0  0  0
   -3.4512   -1.8855   -0.0217 C   0  0  0  0  0  0  0  0  0  0  0  0
   -2.7224   -3.1918   -0.0282 C   0  0  0  0  0  0  0  0  0  0  0  0
   -2.7614    2.2419   -0.0224 H   0  0  0  0  0  0  0  0  0  0  0  0
   -4.9423    3.4931    0.0047 H   0  0  0  0  0  0  0  0  0  0  0  0
   -7.1169    2.2785    0.0248 H   0  0  0  0  0  0  0  0  0  0  0  0
   -7.1878   -0.2435    0.0187 H   0  0  0  0  0  0  0  0  0  0  0  0
   -2.0785   -3.3039    0.8705 H   0  0  0  0  0  0  0  0  0  0  0  0
   -2.0657   -3.2895   -0.9187 H   0  0  0  0  0  0  0  0  0  0  0  0
   -3.4598   -4.0145   -0.0385 H   0  0  0  0  0  0  0  0  0  0  0  0
  1  9  2  0  0  0  0
  1  3  1  0  0  0  0
  2  8  2  0  0  0  0
  3  4  1  0  0  0  0
  3  8  1  0  0  0  0
  4  5  2  0  0  0  0
  5 12  1  0  0  0  0
  5  6  1  0  0  0  0
  6 13  1  0  0  0  0
  7  6  2  0  0  0  0
  7 14  1  0  0  0  0
  8  7  1  0  0  0  0
  9  2  1  0  0  0  0
 10  9  1  0  0  0  0
 10 15  1  0  0  0  0
 11  4  1  0  0  0  0
 16 10  1  0  0  0  0
 17 10  1  0  0  0  0
M  END
