5
q = -1.0, confidence = 0.0

 23 25  0  0  0  0  0  0  0  0999 V2000
    2.9727    2.7254   -0.6465 F   0  0  0  0  0  0  0  0  0  0  0  0
    5.4805    3.5376   -1.3880 F   0  0  0  0  0  0  0  0  0  0  0  0
    7.6124    1.9079   -1.1775 F   0  0  0  0  0  0  0  0  0  0  0  0
    7.3639   -0.6447   -0.1972 F   0  0  0  0  0  0  0  0  0  0  0  0
    2.7432   -0.1716    0.2710 N   0  0  0  0  0  0  0  0  0  0  0  0
    4.5996   -1.5078    0.5920 N   0  0  0  0  0  0  0  0  0  0  0  0
    1.0819   -1.9089    1.4480 N   0  0  0  0  0  0  0  0  0  0  0  0
    3.2798   -1.3630    0.7295 C   0  0  0  0  0  3  0  0  0  0  0  0
    3.8468    0.5356   -0.1566 C   0  0  0  0  0  0  0  0  0  0  0  0
    3.9977    1.8619   -0.6030 C   0  0  0  0  0  0  0  0  0  0  0  0
    5.2823    2.2875   -0.9589 C   0  0  0  0  0  0  0  0  0  0  0  0
    6.4118    1.4311   -0.8281 C   0  0  0  0  0  0  0  0  0  0  0  0
    6.2831    0.1286   -0.3382 C   0  0  0  0  0  0  0  0  0  0  0  0
    4.9931   -0.3210    0.0269 C   0  0  0  0  0  0  0  0  0  0  0  0
    2.3884   -2.2963    1.3959 C   0  0  0  0  0  0  0  0  0  0  0  0
    2.8399   -3.4876    1.9970 C   0  0  0  0  0  0  0  0  0  0  0  0
    3.9035   -3.7456    1.9012 H   0  0  0  0  0  0  0  0  0  0  0  0
    1.9235   -4.2726    2.6982 C   0  0  0  0  0  0  0  0  0  0  0  0
    2.2463   -5.2075    3.1806 H   0  0  0  0  0  0  0  0  0  0  0  0
    0.5846   -3.8484    2.7883 C   0  0  0  0  0  0  0  0  0  0  0  0
   -0.1661   -4.4264    3.3444 H   0  0  0  0  0  0  0  0  0  0  0  0
    0.2071   -2.6693    2.1397 C   0  0  0  0  0  0  0  0  0  0  0  0
   -0.8338   -2.3170    2.1616 H   0  0  0  0  0  0  0  0  0  0  0  0
  1 10  1  0  0  0  0
  2 11  1  0  0  0  0
  3 12  1  0  0  0  0
  5  8  1  0  0  0  0
  6  8  1  0  0  0  0
  7 22  1  0  0  0  0
  8 15  1  0  0  0  0
  9 14  1  0  0  0  0
  9  5  2  0  0  0  0
 10  9  1  0  0  0  0
 11 12  1  0  0  0  0
 11 10  2  0  0  0  0
 12 13  2  0  0  0  0
 13  4  1  0  0  0  0
 13 14  1  0  0  0  0
 14  6  2  0  0  0  0
 15  7  2  0  0  0  0
 15 16  1  0  0  0  0
 16 18  2  0  0  0  0
 17 16  1  0  0  0  0
 18 20  1  0  0  0  0
 18 19  1  0  0  0  0
 20 21  1  0  0  0  0
 22 23  1  0  0  0  0
 22 20  2  0  0  0  0
M  END
