2
q = -1.0, confidence = 0.0

 28 28  0  0  0  0  0  0  0  0999 V2000
   -0.8144    0.1733    2.5287 Si  0  0  0  0  0  0  0  0  0  0  0  0
   -1.5248    0.4002    0.9818 N   0  0  0  0  0  2  0  0  0  0  0  0
    0.4602   -0.7447    2.0663 H   0  0  0  0  0  0  0  0  0  0  0  0
   -2.6250    1.0765    0.4370 C   0  0  0  0  0  0  0  0  0  0  0  0
   -3.8746    0.4120    0.2553 C   0  0  0  0  0  0  0  0  0  0  0  0
   -4.9192    1.0875   -0.4037 C   0  0  0  0  0  0  0  0  0  0  0  0
   -5.8753    0.5612   -0.5568 H   0  0  0  0  0  0  0  0  0  0  0  0
   -4.7653    2.4047   -0.8597 C   0  0  0  0  0  0  0  0  0  0  0  0
   -5.5908    2.9123   -1.3813 H   0  0  0  0  0  0  0  0  0  0  0  0
   -3.5541    3.0712   -0.6325 C   0  0  0  0  0  0  0  0  0  0  0  0
   -3.4265    4.1123   -0.9708 H   0  0  0  0  0  0  0  0  0  0  0  0
   -2.4817    2.4329    0.0174 C   0  0  0  0  0  0  0  0  0  0  0  0
   -1.1968    3.1723    0.2780 C   0  0  0  0  0  0  0  0  0  0  0  0
   -1.1056    4.0669   -0.3685 H   0  0  0  0  0  0  0  0  0  0  0  0
   -0.3183    2.5159    0.1258 H   0  0  0  0  0  0  0  0  0  0  0  0
   -1.1428    3.5230    1.3307 H   0  0  0  0  0  0  0  0  0  0  0  0
   -4.0773   -0.9832    0.7812 C   0  0  0  0  0  0  0  0  0  0  0  0
   -5.0123   -1.4290    0.3891 H   0  0  0  0  0  0  0  0  0  0  0  0
   -4.1516   -0.9787    1.8905 H   0  0  0  0  0  0  0  0  0  0  0  0
   -3.2223   -1.6487    0.5496 H   0  0  0  0  0  0  0  0  0  0  0  0
   -0.0819    1.6917    3.3774 C   0  0  0  0  0  0  0  0  0  0  0  0
   -0.9052    2.3465    3.7318 H   0  0  0  0  0  0  0  0  0  0  0  0
    0.5503    2.2778    2.6833 H   0  0  0  0  0  0  0  0  0  0  0  0
    0.5217    1.4058    4.2632 H   0  0  0  0  0  0  0  0  0  0  0  0
   -1.6941   -0.9319    3.7690 C   0  0  0  0  0  0  0  0  0  0  0  0
   -2.6174   -0.4374    4.1352 H   0  0  0  0  0  0  0  0  0  0  0  0
   -1.0471   -1.1449    4.6446 H   0  0  0  0  0  0  0  0  0  0  0  0
   -1.9644   -1.8854    3.2759 H   0  0  0  0  0  0  0  0  0  0  0  0
  1 21  1  0  0  0  0
  1 25  1  0  0  0  0
  2  1  1  0  0  0  0
  3  1  1  0  0  0  0
  4  2  1  0  0  0  0
  5  4  1  0  0  0  0
  5 17  1  0  0  0  0
  6  5  2  0  0  0  0
  7  6  1  0  0  0  0
  8 10  2  0  0  0  0
  8  6  1  0  0  0  0
  9  8  1  0  0  0  0
 10 12  1  0  0  0  0
 11 10  1  0  0  0  0
 12 13  1  0  0  0  0
 12  4  2  0  0  0  0
 13 16  1  0  0  0  0
 14 13  1  0  0  0  0
 15 13  1  0  0  0  0
 17 19  1  0  0  0  0
 18 17  1  0  0  0  0
 20 17  1  0  0  0  0
 21 22  1  0  0  0  0
 21 24  1  0  0  0  0
 23 21  1  0  0  0  0
 25 26  1  0  0  0  0
 25 27  1  0  0  0  0
 28 25  1  0  0  0  0
M  END
