1
q = -1.0, confidence = 0.094

 27 27  0  0  1  0  0  0  0  0999 V2000
   -2.0910    0.8116   -0.0972 N   0  0  0  0  0  2  0  0  0  0  0  0
   -2.6152    0.9119    1.2917 C   0  0  0  0  0  0  0  0  0  0  0  0
   -2.2885   -0.3908    2.0501 C   0  0  0  0  0  0  0  0  0  0  0  0
   -1.1925   -0.5045    2.1082 H   0  0  0  0  0  0  0  0  0  0  0  0
   -2.7046   -1.2816    1.5408 H   0  0  0  0  0  0  0  0  0  0  0  0
   -2.6905   -0.3360    3.0795 H   0  0  0  0  0  0  0  0  0  0  0  0
   -1.9632    2.1007    1.9991 C   0  0  0  0  0  0  0  0  0  0  0  0
   -0.8830    1.8941    2.1234 H   0  0  0  0  0  0  0  0  0  0  0  0
   -2.4098    2.2507    3.0023 H   0  0  0  0  0  0  0  0  0  0  0  0
   -2.0538    3.0338    1.4149 H   0  0  0  0  0  0  0  0  0  0  0  0
   -4.1726    1.0460    1.0406 C   0  0  0  0  0  0  0  0  0  0  0  0
   -4.6000    2.4942    0.7474 C   0  0  0  0  0  0  0  0  0  0  0  0
   -5.6245    2.4846    0.3264 H   0  0  0  0  0  0  0  0  0  0  0  0
   -3.9201    2.9829    0.0233 H   0  0  0  0  0  0  0  0  0  0  0  0
   -4.6050    3.0873    1.6810 H   0  0  0  0  0  0  0  0  0  0  0  0
   -5.1047    0.4026    2.0579 C   0  0  0  0  0  0  0  0  0  0  0  0
   -6.1535    0.5184    1.7239 H   0  0  0  0  0  0  0  0  0  0  0  0
   -4.9937    0.9062    3.0378 H   0  0  0  0  0  0  0  0  0  0  0  0
   -4.9022   -0.6757    2.1886 H   0  0  0  0  0  0  0  0  0  0  0  0
   -4.2765    0.3142   -0.2825 N   0  0  0  0  0  0  0  0  0  0  0  0
   -5.3858    0.0462   -0.8215 O   0  0  0  0  0  1  0  0  0  0  0  0
   -3.0393    0.3123   -0.8736 C   0  0  1  0  0  3  0  0  0  0  0  0
   -2.7314   -0.0950   -2.2908 C   0  0  0  0  0  0  0  0  0  0  0  0
   -1.5641   -0.0230   -2.6860 O   0  0  0  0  0  0  0  0  0  0  0  0
   -3.7951   -0.5100   -3.0111 N   0  0  0  0  0  0  0  0  0  0  0  0
   -3.6470   -0.8175   -3.9728 H   0  0  0  0  0  0  0  0  0  0  0  0
   -4.7244   -0.5084   -2.5663 H   0  0  0  0  0  0  0  0  0  0  0  0
  1  2  1  0  0  0  0
  2  7  1  0  0  0  0
  2  3  1  0  0  0  0
  3  4  1  0  0  0  0
  3  6  1  0  0  0  0
  5  3  1  0  0  0  0
  7  8  1  0  0  0  0
  7  9  1  0  0  0  0
 10  7  1  0  0  0  0
 11  2  1  0  0  0  0
 11 16  1  0  0  0  0
 12 11  1  0  0  0  0
 12 15  1  0  0  0  0
 13 12  1  0  0  0  0
 14 12  1  0  0  0  0
 16 19  1  0  0  0  0
 16 18  1  0  0  0  0
 17 16  1  0  0  0  0
 20 11  1  0  0  0  0
 21 20  1  0  0  0  0
 22 23  1  6  0  0  0
 22 20  1  0  0  0  0
 22  1  1  0  0  0  0
 24 23  2  0  0  0  0
 25 27  1  0  0  0  0
 25 23  1  0  0  0  0
 26 25  1  0  0  0  0
M  END
