1
q = 0.0, confidence = 0.968

 15 15  0  0  0  0  0  0  0  0999 V2000
   -0.6113    0.5299    0.1095 N   0  0  0  0  0  2  0  0  0  0  0  0
   -2.9313   -0.1911    0.0339 C   0  0  0  0  0  0  0  0  0  0  0  0
   -3.3597    1.1321   -0.1571 C   0  0  0  0  0  0  0  0  0  0  0  0
   -4.4301    1.3641   -0.2609 H   0  0  0  0  0  0  0  0  0  0  0  0
   -3.8894   -1.3702    0.1301 C   0  0  0  0  0  0  0  0  0  0  0  0
   -3.5790   -2.1731   -0.5728 H   0  0  0  0  0  0  0  0  0  0  0  0
   -3.8330   -1.8195    1.1461 H   0  0  0  0  0  0  0  0  0  0  0  0
   -6.3960   -0.7373   -0.3623 N   0  0  0  0  0  0  0  0  0  0  0  0
   -5.2842   -1.0313   -0.1424 C   0  0  0  0  0  0  0  0  0  0  0  0
   -1.5560   -0.4417    0.1563 C   0  0  0  0  0  3  0  0  0  0  0  0
   -1.1827   -1.4650    0.3091 H   0  0  0  0  0  0  0  0  0  0  0  0
   -1.0392    1.8110   -0.0636 C   0  0  0  0  0  0  0  0  0  0  0  0
   -0.2519    2.5772   -0.0786 H   0  0  0  0  0  0  0  0  0  0  0  0
   -2.3865    2.1420   -0.2043 C   0  0  0  0  0  0  0  0  0  0  0  0
   -2.6703    3.1949   -0.3434 H   0  0  0  0  0  0  0  0  0  0  0  0
  1 10  1  0  0  0  0
  2  5  1  0  0  0  0
  2 10  1  0  0  0  0
  3  2  2  0  0  0  0
  4  3  1  0  0  0  0
  5  7  1  0  0  0  0
  6  5  1  0  0  0  0
  8  9  3  0  0  0  0
  9  5  1  0  0  0  0
 10 11  1  0  0  0  0
 12  1  1  0  0  0  0
 13 12  1  0  0  0  0
 14  3  1  0  0  0  0
 14 12  2  0  0  0  0
 15 14  1  0  0  0  0
M  END
