2
q = 0.0, confidence = 0.994

 27 28  0  0  0  0  0  0  0  0999 V2000
    0.3533    2.4362   -0.7129 N   0  0  0  0  0  0  0  0  0  0  0  0
    1.1846   -0.1046   -1.3647 N   0  0  0  0  0  2  0  0  0  0  0  0
   -0.0935    3.6617   -0.4293 C   0  0  0  0  0  0  0  0  0  0  0  0
   -0.7867    3.7376    0.4270 H   0  0  0  0  0  0  0  0  0  0  0  0
    0.2844    4.8044   -1.1590 C   0  0  0  0  0  0  0  0  0  0  0  0
   -0.1171    5.7921   -0.8892 H   0  0  0  0  0  0  0  0  0  0  0  0
    1.1843    4.6519   -2.2250 C   0  0  0  0  0  0  0  0  0  0  0  0
    1.5089    5.5217   -2.8150 H   0  0  0  0  0  0  0  0  0  0  0  0
    1.6625    3.3704   -2.5261 C   0  0  0  0  0  0  0  0  0  0  0  0
    2.3692    3.2064   -3.3533 H   0  0  0  0  0  0  0  0  0  0  0  0
    1.2130    2.2827   -1.7465 C   0  0  0  0  0  0  0  0  0  0  0  0
    1.6568    0.9221   -2.0210 C   0  0  0  0  0  3  0  0  0  0  0  0
    2.4022    0.7554   -2.8202 H   0  0  0  0  0  0  0  0  0  0  0  0
    1.7316   -1.3942   -1.5892 C   0  0  0  0  0  0  0  0  0  0  0  0
    3.1270   -1.5967   -1.5917 C   0  0  0  0  0  0  0  0  0  0  0  0
    3.8004   -0.7494   -1.3947 H   0  0  0  0  0  0  0  0  0  0  0  0
    3.6433   -2.8825   -1.7981 C   0  0  0  0  0  0  0  0  0  0  0  0
    4.7337   -3.0337   -1.7803 H   0  0  0  0  0  0  0  0  0  0  0  0
    2.7954   -3.9866   -2.0218 C   0  0  0  0  0  0  0  0  0  0  0  0
    1.3999   -3.7577   -2.0270 C   0  0  0  0  0  0  0  0  0  0  0  0
    0.7161   -4.6012   -2.2106 H   0  0  0  0  0  0  0  0  0  0  0  0
    0.8669   -2.4874   -1.8027 C   0  0  0  0  0  0  0  0  0  0  0  0
   -0.2161   -2.3110   -1.8138 H   0  0  0  0  0  0  0  0  0  0  0  0
    3.3478   -5.3662   -2.2605 C   0  0  0  0  0  0  0  0  0  0  0  0
    3.1485   -5.6962   -3.3020 H   0  0  0  0  0  0  0  0  0  0  0  0
    2.8711   -6.1135   -1.5940 H   0  0  0  0  0  0  0  0  0  0  0  0
    4.4414   -5.4066   -2.0987 H   0  0  0  0  0  0  0  0  0  0  0  0
  1  3  1  0  0  0  0
  3  4  1  0  0  0  0
  5  6  1  0  0  0  0
  5  3  2  0  0  0  0
  7  5  1  0  0  0  0
  8  7  1  0  0  0  0
  9  7  2  0  0  0  0
  9 11  1  0  0  0  0
 10  9  1  0  0  0  0
 11  1  2  0  0  0  0
 12 11  1  0  0  0  0
 12  2  1  0  0  0  0
 13 12  1  0  0  0  0
 14  2  1  0  0  0  0
 15 14  1  0  0  0  0
 15 16  1  0  0  0  0
 17 18  1  0  0  0  0
 17 15  2  0  0  0  0
 19 17  1  0  0  0  0
 20 19  2  0  0  0  0
 20 22  1  0  0  0  0
 21 20  1  0  0  0  0
 22 14  2  0  0  0  0
 23 22  1  0  0  0  0
 24 27  1  0  0  0  0
 24 19  1  0  0  0  0
 24 26  1  0  0  0  0
 25 24  1  0  0  0  0
M  END
