1
q = 0.0, confidence = 0.95

  7  7  0  0  0  0  0  0  0  0999 V2000
   -0.3622    1.3854   -0.9699 N   0  0  0  0  0  2  0  0  0  0  0  0
   -0.8365    3.0691   -2.0952 N   0  0  0  0  0  0  0  0  0  0  0  0
   -1.0706    4.0421   -2.3141 H   0  0  0  0  0  0  0  0  0  0  0  0
   -0.4245    1.0590   -2.2950 C   0  0  0  0  0  0  0  0  0  0  0  0
   -0.2383    0.0438   -2.6592 H   0  0  0  0  0  0  0  0  0  0  0  0
   -0.7275    2.1276   -3.0284 N   0  0  0  0  0  0  0  0  0  0  0  0
   -0.6264    2.6676   -0.8481 N   0  0  0  0  0  2  0  0  0  0  0  0
  1  7  1  0  0  0  0
  2  7  1  0  0  0  0
  3  2  1  0  0  0  0
  4  1  1  0  0  0  0
  5  4  1  0  0  0  0
  6  4  2  0  0  0  0
  6  2  1  0  0  0  0
M  END
