28
q = 0.0, confidence = 0.99

 28 30  0  0  1  0  0  0  0  0999 V2000
    2.7816   -0.7812   -0.9117 C   0  0  0  0  0  0  0  0  0  0  0  0
    2.4008   -1.7905   -0.7278 H   0  0  0  0  0  0  0  0  0  0  0  0
    4.0764   -0.3355   -1.0664 C   0  0  0  0  0  0  0  0  0  0  0  0
    5.3843   -0.9701   -1.0492 C   0  0  0  0  0  0  0  0  0  0  0  0
    5.5100   -2.3158   -0.6302 C   0  0  0  0  0  0  0  0  0  0  0  0
    4.6201   -2.8691   -0.2972 H   0  0  0  0  0  0  0  0  0  0  0  0
    6.7642   -2.9345   -0.6128 C   0  0  0  0  0  0  0  0  0  0  0  0
    6.8489   -3.9804   -0.2819 H   0  0  0  0  0  0  0  0  0  0  0  0
    7.9121   -2.2240   -1.0040 C   0  0  0  0  0  0  0  0  0  0  0  0
    8.8975   -2.7134   -0.9859 H   0  0  0  0  0  0  0  0  0  0  0  0
    4.0023    1.0290   -1.2641 O   0  0  0  0  0  0  0  0  0  0  0  0
    7.7959   -0.8857   -1.4125 C   0  0  0  0  0  0  0  0  0  0  0  0
    8.6909   -0.3227   -1.7176 H   0  0  0  0  0  0  0  0  0  0  0  0
    6.5436   -0.2596   -1.4371 C   0  0  0  0  0  0  0  0  0  0  0  0
    6.4509    0.7866   -1.7616 H   0  0  0  0  0  0  0  0  0  0  0  0
    2.6862    1.3654   -1.2044 C   0  0  1  0  0  3  0  0  0  0  0  0
    2.3173    2.7640   -1.3790 C   0  0  0  0  0  0  0  0  0  0  0  0
    3.2771    3.7761   -1.1425 C   0  0  0  0  0  0  0  0  0  0  0  0
    4.2890    3.4965   -0.8169 H   0  0  0  0  0  0  0  0  0  0  0  0
    2.9283    5.1217   -1.2974 C   0  0  0  0  0  0  0  0  0  0  0  0
    3.6749    5.9046   -1.0971 H   0  0  0  0  0  0  0  0  0  0  0  0
    1.6281    5.4716   -1.6971 C   0  0  0  0  0  0  0  0  0  0  0  0
    1.3554    6.5312   -1.8154 H   0  0  0  0  0  0  0  0  0  0  0  0
    0.6763    4.4682   -1.9398 C   0  0  0  0  0  0  0  0  0  0  0  0
   -0.3438    4.7355   -2.2533 H   0  0  0  0  0  0  0  0  0  0  0  0
    1.0089    3.1186   -1.7818 C   0  0  0  0  0  0  0  0  0  0  0  0
    0.2529    2.3434   -1.9694 H   0  0  0  0  0  0  0  0  0  0  0  0
    1.9241    0.3021   -0.9856 N   0  0  0  0  0  2  0  0  0  0  0  0
  1  2  1  0  0  0  0
  3  4  1  0  0  0  0
  3  1  2  0  0  0  0
  4  5  1  0  0  0  0
  5  7  2  0  0  0  0
  5  6  1  0  0  0  0
  7  8  1  0  0  0  0
  9 10  1  0  0  0  0
  9  7  1  0  0  0  0
 11 16  1  0  0  0  0
 11  3  1  0  0  0  0
 12  9  2  0  0  0  0
 13 12  1  0  0  0  0
 14 12  1  0  0  0  0
 14  4  2  0  0  0  0
 15 14  1  0  0  0  0
 16 17  1  6  0  0  0
 16 28  1  0  0  0  0
 17 18  1  0  0  0  0
 18 19  1  0  0  0  0
 20 18  2  0  0  0  0
 20 21  1  0  0  0  0
 22 20  1  0  0  0  0
 23 22  1  0  0  0  0
 24 26  1  0  0  0  0
 24 22  2  0  0  0  0
 25 24  1  0  0  0  0
 26 17  2  0  0  0  0
 27 26  1  0  0  0  0
 28  1  1  0  0  0  0
M  END
