1
q = -1.0, confidence = 0.0

 35 40  0  0  1  0  0  0  0  0999 V2000
   -0.3180   -1.8408    0.7000 N   0  0  0  0  0  2  0  0  0  0  0  0
   -2.1324    0.7105   -1.5966 B   0  0  0  0  0  0  0  0  0  0  0  0
   -1.1593    0.7567   -2.3084 H   0  0  0  0  0  0  0  0  0  0  0  0
   -2.5733    1.8828   -0.3645 B   0  0  0  0  0  0  0  0  0  0  0  0
   -1.8941    2.8695   -0.2364 H   0  0  0  0  0  0  0  0  0  0  0  0
   -3.1792    0.9929    1.0336 B   0  0  1  0  0  0  0  0  0  0  0  0
   -2.9268    1.3402    2.1633 H   0  0  0  0  0  0  0  0  0  0  0  0
   -3.1455   -0.7269    0.6630 B   0  0  0  0  0  0  0  0  0  0  0  0
   -2.8475   -1.5880    1.4478 H   0  0  0  0  0  0  0  0  0  0  0  0
   -3.6102   -0.1426   -2.1129 B   0  0  0  0  0  0  0  0  0  0  0  0
   -3.6174   -0.6590   -3.2043 H   0  0  0  0  0  0  0  0  0  0  0  0
   -3.6632    1.5965   -1.7424 B   0  0  0  0  0  0  0  0  0  0  0  0
   -3.7986    2.4203   -2.6166 H   0  0  0  0  0  0  0  0  0  0  0  0
   -4.3265    1.7774   -0.0917 B   0  0  2  0  0  0  0  0  0  0  0  0
   -4.9576    2.7522    0.2464 H   0  0  0  0  0  0  0  0  0  0  0  0
   -4.6801    0.1484    0.5499 B   0  0  2  0  0  0  0  0  0  0  0  0
   -5.5578   -0.0820    1.3485 H   0  0  0  0  0  0  0  0  0  0  0  0
   -4.2391   -1.0329   -0.7058 B   0  0  1  0  0  0  0  0  0  0  0  0
   -4.6717   -2.1519   -0.8455 H   0  0  0  0  0  0  0  0  0  0  0  0
   -4.9740    0.5167   -1.1767 B   0  0  2  0  0  0  0  0  0  0  0  0
   -6.0861    0.5528   -1.6503 H   0  0  0  0  0  0  0  0  0  0  0  0
   -1.9204    0.3355    0.0699 C   0  0  2  0  0  0  0  0  0  0  0  0
   -2.5617   -0.8098   -0.9437 C   0  0  2  0  0  0  0  0  0  0  0  0
   -1.6512   -1.9809   -1.3281 C   0  0  0  0  0  0  0  0  0  0  0  0
   -2.2468   -2.7144   -1.8998 H   0  0  0  0  0  0  0  0  0  0  0  0
   -0.8509   -1.6056   -1.9965 H   0  0  0  0  0  0  0  0  0  0  0  0
   -1.0413   -2.6378   -0.1273 C   0  0  2  0  0  3  0  0  0  0  0  0
   -1.2454   -3.9918    0.1784 C   0  0  0  0  0  0  0  0  0  0  0  0
   -1.8236   -4.6134   -0.5194 H   0  0  0  0  0  0  0  0  0  0  0  0
   -0.7311   -4.5232    1.3661 C   0  0  0  0  0  0  0  0  0  0  0  0
   -0.8857   -5.5827    1.6175 H   0  0  0  0  0  0  0  0  0  0  0  0
   -0.0273   -3.6745    2.2322 C   0  0  0  0  0  0  0  0  0  0  0  0
    0.3883   -4.0345    3.1832 H   0  0  0  0  0  0  0  0  0  0  0  0
    0.1667   -2.3444    1.8589 C   0  0  0  0  0  0  0  0  0  0  0  0
    0.7529   -1.6553    2.4821 H   0  0  0  0  0  0  0  0  0  0  0  0
  1 34  1  0  0  0  0
  2  4  1  0  0  0  0
  3  2  1  0  0  0  0
  4  5  1  0  0  0  0
  4  6  1  0  0  0  0
  6  7  1  1  0  0  0
  8  6  1  0  0  0  0
  8  9  1  0  0  0  0
 10 12  1  0  0  0  0
 10 23  1  0  0  0  0
 11 10  1  0  0  0  0
 12 14  1  0  0  0  0
 13 12  1  0  0  0  0
 14 15  1  1  0  0  0
 14 16  1  0  0  0  0
 16 17  1  1  0  0  0
 18 19  1  6  0  0  0
 18 16  1  0  0  0  0
 20 21  1  6  0  0  0
 20 18  1  0  0  0  0
 20 14  1  0  0  0  0
 20 16  1  0  0  0  0
 22  2  1  1  0  0  0
 22  8  1  0  0  0  0
 22  6  1  0  0  0  0
 23 24  1  6  0  0  0
 23 18  1  0  0  0  0
 23 22  1  0  0  0  0
 25 24  1  0  0  0  0
 26 24  1  0  0  0  0
 27 24  1  1  0  0  0
 27 28  1  0  0  0  0
 27  1  1  0  0  0  0
 28 30  2  0  0  0  0
 29 28  1  0  0  0  0
 30 31  1  0  0  0  0
 30 32  1  0  0  0  0
 32 33  1  0  0  0  0
 34 32  2  0  0  0  0
 34 35  1  0  0  0  0
M  END
