1
q = 0.0, confidence = 1.0

 36 38  0  0  1  0  0  0  0  0999 V2000
   -0.8824   -1.1986   -1.1463 N   0  0  0  0  0  2  0  0  0  0  0  0
   -2.6223    0.8245    1.1186 O   0  0  0  0  0  0  0  0  0  0  0  0
   -2.4532   -2.1827   -2.4149 O   0  0  0  0  0  0  0  0  0  0  0  0
   -3.6434    0.2537    0.1494 P   0  0  0  0  0  0  0  0  0  0  0  0
   -2.0558   -1.1133   -1.6953 C   0  0  1  0  0  3  0  0  0  0  0  0
   -0.2642   -2.4727   -1.5485 C   0  0  0  0  0  0  0  0  0  0  0  0
    0.6019   -2.2509   -2.2054 H   0  0  0  0  0  0  0  0  0  0  0  0
    0.1168   -2.9805   -0.6417 H   0  0  0  0  0  0  0  0  0  0  0  0
   -1.4284   -3.2078   -2.2392 C   0  0  0  0  0  0  0  0  0  0  0  0
   -1.8711   -4.0070   -1.6088 H   0  0  0  0  0  0  0  0  0  0  0  0
   -1.1847   -3.6188   -3.2372 H   0  0  0  0  0  0  0  0  0  0  0  0
   -2.9980    0.0258   -1.5865 C   0  0  0  0  0  0  0  0  0  0  0  0
   -2.4440    0.9652   -1.8118 H   0  0  0  0  0  0  0  0  0  0  0  0
   -3.8407   -0.1229   -2.2860 H   0  0  0  0  0  0  0  0  0  0  0  0
   -5.0945    1.3500   -0.0579 C   0  0  0  0  0  0  0  0  0  0  0  0
   -5.2323    2.3666    0.9079 C   0  0  0  0  0  0  0  0  0  0  0  0
   -4.4678    2.4453    1.6962 H   0  0  0  0  0  0  0  0  0  0  0  0
   -6.3149    3.2554    0.8425 C   0  0  0  0  0  0  0  0  0  0  0  0
   -6.4187    4.0484    1.5988 H   0  0  0  0  0  0  0  0  0  0  0  0
   -7.2609    3.1383   -0.1885 C   0  0  0  0  0  0  0  0  0  0  0  0
   -8.1091    3.8379   -0.2406 H   0  0  0  0  0  0  0  0  0  0  0  0
   -7.1212    2.1338   -1.1599 C   0  0  0  0  0  0  0  0  0  0  0  0
   -7.8560    2.0472   -1.9747 H   0  0  0  0  0  0  0  0  0  0  0  0
   -6.0398    1.2419   -1.0982 C   0  0  0  0  0  0  0  0  0  0  0  0
   -5.9369    0.4668   -1.8736 H   0  0  0  0  0  0  0  0  0  0  0  0
   -4.2412   -1.4122    0.6133 C   0  0  0  0  0  0  0  0  0  0  0  0
   -3.3099   -2.2387    1.2765 C   0  0  0  0  0  0  0  0  0  0  0  0
   -2.3076   -1.8529    1.5315 H   0  0  0  0  0  0  0  0  0  0  0  0
   -3.6626   -3.5579    1.5992 C   0  0  0  0  0  0  0  0  0  0  0  0
   -2.9280   -4.1998    2.1096 H   0  0  0  0  0  0  0  0  0  0  0  0
   -4.9389   -4.0499    1.2817 C   0  0  0  0  0  0  0  0  0  0  0  0
   -5.2134   -5.0837    1.5424 H   0  0  0  0  0  0  0  0  0  0  0  0
   -5.8716   -3.2184    0.6396 C   0  0  0  0  0  0  0  0  0  0  0  0
   -6.8778   -3.5966    0.4023 H   0  0  0  0  0  0  0  0  0  0  0  0
   -5.5254   -1.9012    0.3027 C   0  0  0  0  0  0  0  0  0  0  0  0
   -6.2648   -1.2527   -0.1905 H   0  0  0  0  0  0  0  0  0  0  0  0
  3  9  1  0  0  0  0
  3  5  1  0  0  0  0
  4 26  1  0  0  0  0
  4  2  2  0  0  0  0
  5 12  1  1  0  0  0
  5  1  1  0  0  0  0
  6  1  1  0  0  0  0
  6  8  1  0  0  0  0
  7  6  1  0  0  0  0
  9 10  1  0  0  0  0
  9  6  1  0  0  0  0
 11  9  1  0  0  0  0
 12  4  1  0  0  0  0
 13 12  1  0  0  0  0
 14 12  1  0  0  0  0
 15  4  1  0  0  0  0
 15 16  1  0  0  0  0
 16 17  1  0  0  0  0
 18 16  2  0  0  0  0
 18 19  1  0  0  0  0
 20 18  1  0  0  0  0
 21 20  1  0  0  0  0
 22 24  1  0  0  0  0
 22 20  2  0  0  0  0
 23 22  1  0  0  0  0
 24 15  2  0  0  0  0
 25 24  1  0  0  0  0
 26 27  1  0  0  0  0
 27 28  1  0  0  0  0
 27 29  2  0  0  0  0
 29 30  1  0  0  0  0
 31 32  1  0  0  0  0
 31 29  1  0  0  0  0
 33 31  2  0  0  0  0
 34 33  1  0  0  0  0
 35 26  2  0  0  0  0
 35 33  1  0  0  0  0
 36 35  1  0  0  0  0
M  END
