1
q = 0.0, confidence = 0.998

 20 21  0  0  0  0  0  0  0  0999 V2000
   -0.7359    1.1047   -0.7185 N   0  0  0  0  0  2  0  0  0  0  0  0
   -2.9000    0.6297   -0.7735 N   0  0  0  0  0  0  0  0  0  0  0  0
   -8.9883   -1.7979    1.1712 N   0  0  0  0  0  0  0  0  0  0  0  0
   -1.7542    0.5816   -0.0308 C   0  0  0  0  0  3  0  0  0  0  0  0
   -1.7126    0.1767    0.9834 H   0  0  0  0  0  0  0  0  0  0  0  0
   -1.2368    1.5095   -1.9456 C   0  0  0  0  0  0  0  0  0  0  0  0
   -0.5731    1.9221   -2.7119 H   0  0  0  0  0  0  0  0  0  0  0  0
   -2.5845    1.2243   -1.9884 C   0  0  0  0  0  0  0  0  0  0  0  0
   -3.3276    1.3506   -2.7808 H   0  0  0  0  0  0  0  0  0  0  0  0
   -4.1725    0.1258   -0.3737 C   0  0  0  0  0  0  0  0  0  0  0  0
   -5.3390    0.8482   -0.6822 C   0  0  0  0  0  0  0  0  0  0  0  0
   -5.2714    1.8097   -1.2110 H   0  0  0  0  0  0  0  0  0  0  0  0
   -6.5843    0.3490   -0.2912 C   0  0  0  0  0  0  0  0  0  0  0  0
   -7.5016    0.9070   -0.5251 H   0  0  0  0  0  0  0  0  0  0  0  0
   -6.6698   -0.8692    0.4226 C   0  0  0  0  0  0  0  0  0  0  0  0
   -5.4886   -1.5850    0.7275 C   0  0  0  0  0  0  0  0  0  0  0  0
   -5.5572   -2.5397    1.2675 H   0  0  0  0  0  0  0  0  0  0  0  0
   -4.2447   -1.0939    0.3234 C   0  0  0  0  0  0  0  0  0  0  0  0
   -3.3304   -1.6755    0.5097 H   0  0  0  0  0  0  0  0  0  0  0  0
   -7.9458   -1.3788    0.8327 C   0  0  0  0  0  0  0  0  0  0  0  0
  1  4  1  0  0  0  0
  2 10  1  0  0  0  0
  2  4  1  0  0  0  0
  4  5  1  0  0  0  0
  6  1  1  0  0  0  0
  7  6  1  0  0  0  0
  8  6  2  0  0  0  0
  8  2  1  0  0  0  0
  9  8  1  0  0  0  0
 10 18  1  0  0  0  0
 11 10  2  0  0  0  0
 11 13  1  0  0  0  0
 12 11  1  0  0  0  0
 13 15  2  0  0  0  0
 14 13  1  0  0  0  0
 15 16  1  0  0  0  0
 15 20  1  0  0  0  0
 16 17  1  0  0  0  0
 18 19  1  0  0  0  0
 18 16  2  0  0  0  0
 20  3  3  0  0  0  0
M  END
