1
q = 0.0, confidence = 0.998

 29 30  0  0  1  0  0  0  0  0999 V2000
   -1.8996   -0.6354   -0.2300 N   0  0  0  0  0  2  0  0  0  0  0  0
   -3.0359   -0.0925    0.2679 N   0  0  0  0  0  0  0  0  0  0  0  0
   -2.8625    2.1599   -1.4143 O   0  0  0  0  0  0  0  0  0  0  0  0
   -2.1276    1.7005   -1.8892 H   0  0  0  0  0  0  0  0  0  0  0  0
   -2.2256   -1.7642   -0.8965 C   0  0  1  0  0  3  0  0  0  0  0  0
   -3.6227   -1.9356   -0.8309 C   0  0  0  0  0  0  0  0  0  0  0  0
   -4.2079   -2.7655   -1.2379 H   0  0  0  0  0  0  0  0  0  0  0  0
   -4.1176   -0.8560   -0.0874 C   0  0  0  0  0  0  0  0  0  0  0  0
   -5.5055   -0.5690    0.3092 C   0  0  0  0  0  0  0  0  0  0  0  0
   -6.5302   -0.6317   -0.6610 C   0  0  0  0  0  0  0  0  0  0  0  0
   -6.2633   -0.8430   -1.7071 H   0  0  0  0  0  0  0  0  0  0  0  0
   -7.8651   -0.4034   -0.3013 C   0  0  0  0  0  0  0  0  0  0  0  0
   -8.6518   -0.4484   -1.0695 H   0  0  0  0  0  0  0  0  0  0  0  0
   -8.1974   -0.1063    1.0301 C   0  0  0  0  0  0  0  0  0  0  0  0
   -9.2455    0.0774    1.3105 H   0  0  0  0  0  0  0  0  0  0  0  0
   -7.1872   -0.0484    2.0036 C   0  0  0  0  0  0  0  0  0  0  0  0
   -7.4424    0.1697    3.0517 H   0  0  0  0  0  0  0  0  0  0  0  0
   -5.8515   -0.2830    1.6499 C   0  0  0  0  0  0  0  0  0  0  0  0
   -5.0682   -0.2719    2.4227 H   0  0  0  0  0  0  0  0  0  0  0  0
   -3.0401    1.2400    0.8600 C   0  0  0  0  0  0  0  0  0  0  0  0
   -2.4784    1.2119    1.8176 H   0  0  0  0  0  0  0  0  0  0  0  0
   -4.1007    1.4667    1.0686 H   0  0  0  0  0  0  0  0  0  0  0  0
   -2.4425    2.3065   -0.0868 C   0  0  0  0  0  0  0  0  0  0  0  0
   -2.7637    3.2979    0.3086 H   0  0  0  0  0  0  0  0  0  0  0  0
   -1.3315    2.2712   -0.0005 H   0  0  0  0  0  0  0  0  0  0  0  0
   -1.1904   -2.6103   -1.5593 C   0  0  0  0  0  0  0  0  0  0  0  0
   -0.4096   -2.9196   -0.8349 H   0  0  0  0  0  0  0  0  0  0  0  0
   -0.6896   -2.0321   -2.3628 H   0  0  0  0  0  0  0  0  0  0  0  0
   -1.6500   -3.5169   -1.9941 H   0  0  0  0  0  0  0  0  0  0  0  0
  1  2  1  0  0  0  0
  2 20  1  0  0  0  0
  3 23  1  0  0  0  0
  4  3  1  0  0  0  0
  5 26  1  6  0  0  0
  5  6  1  0  0  0  0
  5  1  1  0  0  0  0
  6  8  2  0  0  0  0
  7  6  1  0  0  0  0
  8  2  1  0  0  0  0
  8  9  1  0  0  0  0
  9 18  1  0  0  0  0
 10 12  1  0  0  0  0
 10  9  2  0  0  0  0
 11 10  1  0  0  0  0
 12 14  2  0  0  0  0
 13 12  1  0  0  0  0
 14 15  1  0  0  0  0
 14 16  1  0  0  0  0
 16 17  1  0  0  0  0
 18 16  2  0  0  0  0
 18 19  1  0  0  0  0
 20 22  1  0  0  0  0
 20 21  1  0  0  0  0
 23 25  1  0  0  0  0
 23 24  1  0  0  0  0
 23 20  1  0  0  0  0
 26 27  1  0  0  0  0
 28 26  1  0  0  0  0
 29 26  1  0  0  0  0
M  END
