3
q = 0.0, confidence = 1.0

 32 33  0  0  0  0  0  0  0  0999 V2000
   -1.2357    0.1842   -1.4331 Se  0  0  0  0  0  0  0  0  0  0  0  0
    4.0398   -2.0924    0.6466 O   0  0  0  0  0  0  0  0  0  0  0  0
    1.4937   -0.8223   -0.0230 N   0  0  0  0  0  0  0  0  0  0  0  0
    2.7418   -0.6566   -0.8378 C   0  0  0  0  0  0  0  0  0  0  0  0
    3.2237    0.2640   -0.4504 H   0  0  0  0  0  0  0  0  0  0  0  0
    2.4656   -0.4775   -1.8956 H   0  0  0  0  0  0  0  0  0  0  0  0
    3.6966   -1.8447   -0.7032 C   0  0  0  0  0  0  0  0  0  0  0  0
    3.2681   -2.7677   -1.1733 H   0  0  0  0  0  0  0  0  0  0  0  0
    4.6362   -1.6117   -1.2431 H   0  0  0  0  0  0  0  0  0  0  0  0
    2.8828   -2.3424    1.4261 C   0  0  0  0  0  0  0  0  0  0  0  0
    3.2200   -2.4861    2.4721 H   0  0  0  0  0  0  0  0  0  0  0  0
    2.3935   -3.2967    1.1024 H   0  0  0  0  0  0  0  0  0  0  0  0
   -2.4699   -0.5653   -0.1161 C   0  0  0  0  0  0  0  0  0  0  0  0
    1.9105   -1.1640    1.3775 C   0  0  0  0  0  0  0  0  0  0  0  0
    0.9969   -1.3596    1.9730 H   0  0  0  0  0  0  0  0  0  0  0  0
    2.3958   -0.2513    1.7789 H   0  0  0  0  0  0  0  0  0  0  0  0
   -2.7404    0.1853    1.0417 C   0  0  0  0  0  0  0  0  0  0  0  0
   -2.2384    1.1553    1.1944 H   0  0  0  0  0  0  0  0  0  0  0  0
   -3.6562   -0.3180    1.9788 C   0  0  0  0  0  0  0  0  0  0  0  0
   -3.8698    0.2650    2.8874 H   0  0  0  0  0  0  0  0  0  0  0  0
   -3.1161   -1.7904   -0.3537 C   0  0  0  0  0  0  0  0  0  0  0  0
   -2.9313   -2.3616   -1.2762 H   0  0  0  0  0  0  0  0  0  0  0  0
   -4.0193   -2.2872    0.6004 C   0  0  0  0  0  0  0  0  0  0  0  0
   -4.5205   -3.2508    0.4228 H   0  0  0  0  0  0  0  0  0  0  0  0
   -4.2885   -1.5538    1.7665 C   0  0  0  0  0  0  0  0  0  0  0  0
   -4.9986   -1.9454    2.5103 H   0  0  0  0  0  0  0  0  0  0  0  0
   -0.1838   -1.4621   -1.7977 C   0  0  0  0  0  0  0  0  0  0  0  0
   -0.8567   -2.2700   -2.1442 H   0  0  0  0  0  0  0  0  0  0  0  0
    0.4737   -1.1839   -2.6452 H   0  0  0  0  0  0  0  0  0  0  0  0
    0.5797   -1.8788   -0.5582 C   0  0  0  0  0  0  0  0  0  0  0  0
    1.1472   -2.8116   -0.7707 H   0  0  0  0  0  0  0  0  0  0  0  0
   -0.1434   -2.1186    0.2475 H   0  0  0  0  0  0  0  0  0  0  0  0
  1 13  1  0  0  0  0
  2 10  1  0  0  0  0
  3 14  1  0  0  0  0
  4  7  1  0  0  0  0
  4  5  1  0  0  0  0
  4  3  1  0  0  0  0
  6  4  1  0  0  0  0
  7  2  1  0  0  0  0
  8  7  1  0  0  0  0
  9  7  1  0  0  0  0
 10 11  1  0  0  0  0
 12 10  1  0  0  0  0
 13 17  1  0  0  0  0
 14 10  1  0  0  0  0
 14 16  1  0  0  0  0
 14 15  1  0  0  0  0
 17 18  1  0  0  0  0
 17 19  2  0  0  0  0
 19 20  1  0  0  0  0
 21 13  2  0  0  0  0
 21 23  1  0  0  0  0
 22 21  1  0  0  0  0
 23 25  2  0  0  0  0
 24 23  1  0  0  0  0
 25 19  1  0  0  0  0
 25 26  1  0  0  0  0
 27  1  1  0  0  0  0
 27 30  1  0  0  0  0
 28 27  1  0  0  0  0
 29 27  1  0  0  0  0
 30  3  1  0  0  0  0
 30 32  1  0  0  0  0
 31 30  1  0  0  0  0
M  END
