2
q = 0.0, confidence = 0.998

 25 26  0  0  0  0  0  0  0  0999 V2000
    0.9533   -0.7124   -0.1555 S   0  0  0  0  0  0  0  0  0  0  0  0
   -0.6911    1.6007    0.4239 N   0  0  0  0  0  2  0  0  0  0  0  0
    2.8992    1.1466    0.1134 N   0  0  0  0  0  0  0  0  0  0  0  0
    3.1166    2.0910    0.4443 H   0  0  0  0  0  0  0  0  0  0  0  0
    7.5559   -1.7516   -0.6418 F   0  0  0  0  0  0  0  0  0  0  0  0
   -1.6114    2.5822    0.5697 C   0  0  0  0  0  3  0  0  0  0  0  0
   -2.6524    2.2512    0.6687 H   0  0  0  0  0  0  0  0  0  0  0  0
   -1.2874    3.9401    0.5699 C   0  0  0  0  0  0  0  0  0  0  0  0
   -2.0838    4.6856    0.7018 H   0  0  0  0  0  0  0  0  0  0  0  0
    0.0476    4.3170    0.3668 C   0  0  0  0  0  0  0  0  0  0  0  0
    0.3386    5.3763    0.3234 H   0  0  0  0  0  0  0  0  0  0  0  0
    1.0002    3.3119    0.1900 C   0  0  0  0  0  0  0  0  0  0  0  0
    2.0396    3.5926   -0.0344 H   0  0  0  0  0  0  0  0  0  0  0  0
    0.6217    1.9543    0.2427 C   0  0  0  0  0  0  0  0  0  0  0  0
    1.5803    0.8523    0.0673 C   0  0  0  0  0  0  0  0  0  0  0  0
    4.0471    0.3550   -0.1006 C   0  0  0  0  0  0  0  0  0  0  0  0
    4.0467   -0.8321   -0.8657 C   0  0  0  0  0  0  0  0  0  0  0  0
    3.1277   -1.1943   -1.3420 H   0  0  0  0  0  0  0  0  0  0  0  0
    5.2382   -1.5410   -1.0484 C   0  0  0  0  0  0  0  0  0  0  0  0
    5.2619   -2.4630   -1.6461 H   0  0  0  0  0  0  0  0  0  0  0  0
    6.4241   -1.0670   -0.4703 C   0  0  0  0  0  0  0  0  0  0  0  0
    6.4464    0.1183    0.2816 C   0  0  0  0  0  0  0  0  0  0  0  0
    7.3935    0.4684    0.7150 H   0  0  0  0  0  0  0  0  0  0  0  0
    5.2573    0.8252    0.4613 C   0  0  0  0  0  0  0  0  0  0  0  0
    5.2654    1.7557    1.0513 H   0  0  0  0  0  0  0  0  0  0  0  0
  1 15  2  0  0  0  0
  2  6  1  0  0  0  0
  3  4  1  0  0  0  0
  5 21  1  0  0  0  0
  6  8  1  0  0  0  0
  6  7  1  0  0  0  0
  8  9  1  0  0  0  0
 10  8  2  0  0  0  0
 11 10  1  0  0  0  0
 12 14  2  0  0  0  0
 12 10  1  0  0  0  0
 13 12  1  0  0  0  0
 14  2  1  0  0  0  0
 15  3  1  0  0  0  0
 15 14  1  0  0  0  0
 16  3  1  0  0  0  0
 16 24  1  0  0  0  0
 17 16  2  0  0  0  0
 18 17  1  0  0  0  0
 19 17  1  0  0  0  0
 19 21  2  0  0  0  0
 20 19  1  0  0  0  0
 21 22  1  0  0  0  0
 22 24  2  0  0  0  0
 22 23  1  0  0  0  0
 24 25  1  0  0  0  0
M  END
