1
q = -1.0, confidence = 0.048

  3  2  0  0  0  0  0  0  0  0999 V2000
   -0.0000    0.7663   -1.9545 N   0  0  0  0  0  2  0  0  0  0  0  0
    0.8247    0.8051   -2.5616 H   0  0  0  0  0  0  0  0  0  0  0  0
   -0.8245    0.8044   -2.5620 H   0  0  0  0  0  0  0  0  0  0  0  0
  2  1  1  0  0  0  0
  3  1  1  0  0  0  0
M  END
