1
q = 0.0, confidence = 0.986

 13 12  0  0  0  0  0  0  0  0999 V2000
   -1.4588   -0.6909    0.2599 N   0  0  0  0  0  0  0  0  0  0  0  0
   -1.5682   -1.6488   -0.1075 H   0  0  0  0  0  0  0  0  0  0  0  0
   -1.6717   -0.7664    1.2682 H   0  0  0  0  0  0  0  0  0  0  0  0
   -2.4815    0.2003   -0.3811 C   0  0  0  0  0  0  0  0  0  0  0  0
   -2.1941    0.2568   -1.4521 H   0  0  0  0  0  0  0  0  0  0  0  0
   -3.8785   -0.4107   -0.2648 C   0  0  0  0  0  0  0  0  0  0  0  0
   -4.1931   -0.4893    0.7977 H   0  0  0  0  0  0  0  0  0  0  0  0
   -3.9242   -1.4231   -0.7167 H   0  0  0  0  0  0  0  0  0  0  0  0
   -4.6237    0.2207   -0.7873 H   0  0  0  0  0  0  0  0  0  0  0  0
   -2.3953    1.5969    0.2270 C   0  0  0  0  0  0  0  0  0  0  0  0
   -2.6427    1.5762    1.3097 H   0  0  0  0  0  0  0  0  0  0  0  0
   -3.1150    2.2766   -0.2688 H   0  0  0  0  0  0  0  0  0  0  0  0
   -1.3773    2.0195    0.1119 H   0  0  0  0  0  0  0  0  0  0  0  0
  1  3  1  0  0  0  0
  2  1  1  0  0  0  0
  4  6  1  0  0  0  0
  4 10  1  0  0  0  0
  4  1  1  0  0  0  0
  5  4  1  0  0  0  0
  6  7  1  0  0  0  0
  8  6  1  0  0  0  0
  9  6  1  0  0  0  0
 10 11  1  0  0  0  0
 12 10  1  0  0  0  0
 13 10  1  0  0  0  0
M  END
