1
q = 0.0, confidence = 0.726

 28 29  0  0  0  0  0  0  0  0999 V2000
    0.9939   -0.0373   -0.7548 N   0  0  0  0  0  2  0  0  0  0  0  0
    2.1475   -0.4417   -1.5357 C   0  0  0  0  0  0  0  0  0  0  0  0
    3.1350   -1.1834   -0.6586 C   0  0  0  0  0  0  0  0  0  0  0  0
    4.2195   -0.5095   -0.0666 C   0  0  0  0  0  0  0  0  0  0  0  0
    5.0891   -1.1854    0.8042 C   0  0  0  0  0  0  0  0  0  0  0  0
    4.8758   -2.5414    1.0962 C   0  0  0  0  0  0  0  0  0  0  0  0
    3.7887   -3.2177    0.5176 C   0  0  0  0  0  0  0  0  0  0  0  0
    2.9207   -2.5416   -0.3508 C   0  0  0  0  0  0  0  0  0  0  0  0
    0.9629    0.8537    0.3402 C   0  0  0  0  0  3  0  0  0  0  0  0
    1.1837    2.3015    0.0925 C   0  0  0  0  0  0  0  0  0  0  0  0
    0.9532    2.8970   -1.1699 C   0  0  0  0  0  0  0  0  0  0  0  0
    1.1782    4.2651   -1.3706 C   0  0  0  0  0  0  0  0  0  0  0  0
    1.6372    5.0767   -0.3190 C   0  0  0  0  0  0  0  0  0  0  0  0
    1.8832    4.4980    0.9366 C   0  0  0  0  0  0  0  0  0  0  0  0
    1.6664    3.1271    1.1356 C   0  0  0  0  0  0  0  0  0  0  0  0
    1.7861   -1.0835   -2.3630 H   0  0  0  0  0  0  0  0  0  0  0  0
    2.6222    0.4653   -1.9713 H   0  0  0  0  0  0  0  0  0  0  0  0
    4.3808    0.5567   -0.2930 H   0  0  0  0  0  0  0  0  0  0  0  0
    5.9372   -0.6495    1.2575 H   0  0  0  0  0  0  0  0  0  0  0  0
    5.5568   -3.0729    1.7786 H   0  0  0  0  0  0  0  0  0  0  0  0
    3.6139   -4.2797    0.7484 H   0  0  0  0  0  0  0  0  0  0  0  0
    2.0590   -3.0633   -0.7954 H   0  0  0  0  0  0  0  0  0  0  0  0
    1.4699    0.4918    1.2632 H   0  0  0  0  0  0  0  0  0  0  0  0
    0.5792    2.2718   -1.9941 H   0  0  0  0  0  0  0  0  0  0  0  0
    0.9902    4.7053   -2.3623 H   0  0  0  0  0  0  0  0  0  0  0  0
    1.8108    6.1515   -0.4800 H   0  0  0  0  0  0  0  0  0  0  0  0
    2.2600    5.1173    1.7656 H   0  0  0  0  0  0  0  0  0  0  0  0
    1.8921    2.6730    2.1150 H   0  0  0  0  0  0  0  0  0  0  0  0
  1  9  1  0  0  0  0
  2  1  1  0  0  0  0
  2  3  1  0  0  0  0
  3  8  2  0  0  0  0
  3  4  1  0  0  0  0
  4  5  2  0  0  0  0
  5  6  1  0  0  0  0
  5 19  1  0  0  0  0
  6 20  1  0  0  0  0
  7 21  1  0  0  0  0
  7  6  2  0  0  0  0
  8  7  1  0  0  0  0
  9 23  1  0  0  0  0
 10  9  1  0  0  0  0
 10 15  1  0  0  0  0
 11 10  2  0  0  0  0
 12 11  1  0  0  0  0
 12 13  2  0  0  0  0
 13 14  1  0  0  0  0
 14 15  2  0  0  0  0
 14 27  1  0  0  0  0
 15 28  1  0  0  0  0
 16  2  1  0  0  0  0
 17  2  1  0  0  0  0
 18  4  1  0  0  0  0
 22  8  1  0  0  0  0
 24 11  1  0  0  0  0
 25 12  1  0  0  0  0
 26 13  1  0  0  0  0
M  END
