1
q = 0.0, confidence = 0.99

 21 21  0  0  0  0  0  0  0  0999 V2000
   -1.7301    1.0373   -0.0118 N   0  0  0  0  0  2  0  0  0  0  0  0
   -2.8831    0.1955    0.0229 C   0  0  0  0  0  0  0  0  0  0  0  0
   -1.7842    2.3328   -0.0286 C   0  0  0  0  0  3  0  0  0  0  0  0
   -3.5585   -0.1191   -1.1710 C   0  0  0  0  0  0  0  0  0  0  0  0
   -3.2908   -0.3607    1.2506 C   0  0  0  0  0  0  0  0  0  0  0  0
   -0.4962    3.1026   -0.0613 C   0  0  0  0  0  0  0  0  0  0  0  0
   -3.0759    3.0940    0.0108 C   0  0  0  0  0  0  0  0  0  0  0  0
   -4.6688   -0.9744   -1.1252 C   0  0  0  0  0  0  0  0  0  0  0  0
   -3.1812    0.2867   -2.1199 H   0  0  0  0  0  0  0  0  0  0  0  0
   -4.4045   -1.2111    1.2800 C   0  0  0  0  0  0  0  0  0  0  0  0
   -2.7037   -0.1327    2.1526 H   0  0  0  0  0  0  0  0  0  0  0  0
   -0.6660    4.1906   -0.1626 H   0  0  0  0  0  0  0  0  0  0  0  0
    0.0658    2.8954    0.8743 H   0  0  0  0  0  0  0  0  0  0  0  0
    0.1362    2.7362   -0.8958 H   0  0  0  0  0  0  0  0  0  0  0  0
   -3.1706    3.7114   -0.9073 H   0  0  0  0  0  0  0  0  0  0  0  0
   -3.9588    2.4366    0.0991 H   0  0  0  0  0  0  0  0  0  0  0  0
   -3.0556    3.8029    0.8648 H   0  0  0  0  0  0  0  0  0  0  0  0
   -5.0980   -1.5174    0.0968 C   0  0  0  0  0  0  0  0  0  0  0  0
   -5.1988   -1.2237   -2.0570 H   0  0  0  0  0  0  0  0  0  0  0  0
   -4.7297   -1.6438    2.2384 H   0  0  0  0  0  0  0  0  0  0  0  0
   -5.9695   -2.1887    0.1259 H   0  0  0  0  0  0  0  0  0  0  0  0
  1  2  1  0  0  0  0
  2  5  1  0  0  0  0
  3  1  1  0  0  0  0
  3  7  1  0  0  0  0
  4  8  1  0  0  0  0
  4  2  2  0  0  0  0
  5 10  2  0  0  0  0
  5 11  1  0  0  0  0
  6  3  1  0  0  0  0
  6 13  1  0  0  0  0
  7 16  1  0  0  0  0
  7 17  1  0  0  0  0
  8 18  2  0  0  0  0
  9  4  1  0  0  0  0
 10 20  1  0  0  0  0
 12  6  1  0  0  0  0
 14  6  1  0  0  0  0
 15  7  1  0  0  0  0
 18 21  1  0  0  0  0
 18 10  1  0  0  0  0
 19  8  1  0  0  0  0
M  END
