1
q = 0.0, confidence = 0.986

 17 17  0  0  0  0  0  0  0  0999 V2000
    2.1954   -0.2583   -0.0000 N   0  0  0  0  0  2  0  0  0  0  0  0
    3.0086    0.8182   -0.0000 C   0  0  0  0  0  3  0  0  0  0  0  0
    2.5029    1.7960   -0.0000 H   0  0  0  0  0  0  0  0  0  0  0  0
    4.4074    0.7278   -0.0000 C   0  0  0  0  0  0  0  0  0  0  0  0
    5.2476    1.9751   -0.0000 C   0  0  0  0  0  0  0  0  0  0  0  0
    4.6169    2.8840   -0.0000 H   0  0  0  0  0  0  0  0  0  0  0  0
    5.9097    2.0174   -0.8905 H   0  0  0  0  0  0  0  0  0  0  0  0
    5.9096    2.0174    0.8904 H   0  0  0  0  0  0  0  0  0  0  0  0
    4.9922   -0.5658    0.0000 C   0  0  0  0  0  0  0  0  0  0  0  0
    6.4843   -0.7370    0.0000 C   0  0  0  0  0  0  0  0  0  0  0  0
    6.7747   -1.8042    0.0000 H   0  0  0  0  0  0  0  0  0  0  0  0
    6.9415   -0.2519   -0.8881 H   0  0  0  0  0  0  0  0  0  0  0  0
    6.9415   -0.2519    0.8882 H   0  0  0  0  0  0  0  0  0  0  0  0
    4.1270   -1.6747    0.0000 C   0  0  0  0  0  0  0  0  0  0  0  0
    4.5323   -2.6976    0.0000 H   0  0  0  0  0  0  0  0  0  0  0  0
    2.7433   -1.4903    0.0000 C   0  0  0  0  0  0  0  0  0  0  0  0
    2.0368   -2.3331    0.0000 H   0  0  0  0  0  0  0  0  0  0  0  0
  1 16  1  0  0  0  0
  2  4  1  0  0  0  0
  2  1  1  0  0  0  0
  3  2  1  0  0  0  0
  4  9  2  0  0  0  0
  5  4  1  0  0  0  0
  5  8  1  0  0  0  0
  6  5  1  0  0  0  0
  7  5  1  0  0  0  0
  9 10  1  0  0  0  0
  9 14  1  0  0  0  0
 10 11  1  0  0  0  0
 10 13  1  0  0  0  0
 12 10  1  0  0  0  0
 14 15  1  0  0  0  0
 16 17  1  0  0  0  0
 16 14  2  0  0  0  0
M  END
