1
q = 0.0, confidence = 0.982

 23 23  0  0  1  0  0  0  0  0999 V2000
    0.5678    1.3160   -0.3516 N   0  0  0  0  0  2  0  0  0  0  0  0
    2.7167    2.2649   -0.1084 N   0  0  0  0  0  0  0  0  0  0  0  0
    1.8675    1.1885   -0.2205 C   0  0  1  0  0  3  0  0  0  0  0  0
    2.4593   -0.1759   -0.1174 C   0  0  0  0  0  0  0  0  0  0  0  0
    2.2660   -1.1082   -1.1559 C   0  0  0  0  0  0  0  0  0  0  0  0
    2.7774   -2.4072   -1.0371 C   0  0  0  0  0  0  0  0  0  0  0  0
    3.4736   -2.7864    0.1215 C   0  0  0  0  0  0  0  0  0  0  0  0
    3.6707   -1.8599    1.1580 C   0  0  0  0  0  0  0  0  0  0  0  0
    3.1723   -0.5560    1.0380 C   0  0  0  0  0  0  0  0  0  0  0  0
    4.1263    2.1922   -0.4694 C   0  0  0  0  0  0  0  0  0  0  0  0
    2.1681    3.6041    0.0099 C   0  0  0  0  0  0  0  0  0  0  0  0
    0.2862    2.2929   -0.4946 H   0  0  0  0  0  0  0  0  0  0  0  0
    1.7079   -0.8096   -2.0541 H   0  0  0  0  0  0  0  0  0  0  0  0
    2.6185   -3.1313   -1.8499 H   0  0  0  0  0  0  0  0  0  0  0  0
    3.8596   -3.8120    0.2206 H   0  0  0  0  0  0  0  0  0  0  0  0
    4.2054   -2.1592    2.0718 H   0  0  0  0  0  0  0  0  0  0  0  0
    3.3105    0.1709    1.8528 H   0  0  0  0  0  0  0  0  0  0  0  0
    4.4372    1.1403   -0.5872 H   0  0  0  0  0  0  0  0  0  0  0  0
    4.7545    2.6617    0.3164 H   0  0  0  0  0  0  0  0  0  0  0  0
    4.3182    2.7229   -1.4292 H   0  0  0  0  0  0  0  0  0  0  0  0
    2.9411    4.2758    0.4303 H   0  0  0  0  0  0  0  0  0  0  0  0
    1.3012    3.6067    0.7009 H   0  0  0  0  0  0  0  0  0  0  0  0
    1.8443    4.0287   -0.9696 H   0  0  0  0  0  0  0  0  0  0  0  0
  2 11  1  0  0  0  0
  3  1  1  1  0  0  0
  3  4  1  0  0  0  0
  3  2  1  0  0  0  0
  4  9  1  0  0  0  0
  5  6  1  0  0  0  0
  5  4  2  0  0  0  0
  6  7  2  0  0  0  0
  7 15  1  0  0  0  0
  7  8  1  0  0  0  0
  8 16  1  0  0  0  0
  9  8  2  0  0  0  0
  9 17  1  0  0  0  0
 10  2  1  0  0  0  0
 10 19  1  0  0  0  0
 11 21  1  0  0  0  0
 11 22  1  0  0  0  0
 12  1  1  0  0  0  0
 13  5  1  0  0  0  0
 14  6  1  0  0  0  0
 18 10  1  0  0  0  0
 20 10  1  0  0  0  0
 23 11  1  0  0  0  0
M  END
