2
q = 0.0, confidence = 1.0

 19 19  0  0  1  0  0  0  0  0999 V2000
   -1.5185    1.6463    0.0106 O   0  0  0  0  0  0  0  0  0  0  0  0
   -0.8112   -0.4869    0.1395 N   0  0  0  0  0  2  0  0  0  0  0  0
   -1.8144    0.3361    0.0391 C   0  0  1  0  0  3  0  0  0  0  0  0
   -3.2319   -0.0998    0.0540 C   0  0  0  0  0  0  0  0  0  0  0  0
   -4.1975    0.6339    0.7802 C   0  0  0  0  0  0  0  0  0  0  0  0
   -5.5241    0.1891    0.8348 C   0  0  0  0  0  0  0  0  0  0  0  0
   -5.9048   -0.9834    0.1606 C   0  0  0  0  0  0  0  0  0  0  0  0
   -4.9521   -1.7138   -0.5683 C   0  0  0  0  0  0  0  0  0  0  0  0
   -3.6225   -1.2762   -0.6232 C   0  0  0  0  0  0  0  0  0  0  0  0
   -2.2074    2.5421   -0.8719 C   0  0  0  0  0  0  0  0  0  0  0  0
   -1.1320   -1.4478    0.3085 H   0  0  0  0  0  0  0  0  0  0  0  0
   -3.8926    1.5407    1.3235 H   0  0  0  0  0  0  0  0  0  0  0  0
   -6.2666    0.7579    1.4143 H   0  0  0  0  0  0  0  0  0  0  0  0
   -6.9488   -1.3280    0.2024 H   0  0  0  0  0  0  0  0  0  0  0  0
   -5.2488   -2.6269   -1.1055 H   0  0  0  0  0  0  0  0  0  0  0  0
   -2.8808   -1.8352   -1.2145 H   0  0  0  0  0  0  0  0  0  0  0  0
   -1.6110    2.6504   -1.8010 H   0  0  0  0  0  0  0  0  0  0  0  0
   -2.2665    3.5205   -0.3604 H   0  0  0  0  0  0  0  0  0  0  0  0
   -3.2274    2.1861   -1.1175 H   0  0  0  0  0  0  0  0  0  0  0  0
  2 11  1  0  0  0  0
  3  1  1  1  0  0  0
  3  4  1  0  0  0  0
  3  2  1  0  0  0  0
  4  5  1  0  0  0  0
  5  6  2  0  0  0  0
  5 12  1  0  0  0  0
  6 13  1  0  0  0  0
  7 14  1  0  0  0  0
  7  6  1  0  0  0  0
  8  7  2  0  0  0  0
  9  8  1  0  0  0  0
  9  4  2  0  0  0  0
 10 18  1  0  0  0  0
 10  1  1  0  0  0  0
 15  8  1  0  0  0  0
 16  9  1  0  0  0  0
 17 10  1  0  0  0  0
 19 10  1  0  0  0  0
M  END
