4
q = 0.0, confidence = 0.994

 16 17  0  0  0  0  0  0  0  0999 V2000
    0.5815    0.8797   -1.6202 S   0  0  0  0  0  0  0  0  0  0  0  0
    3.2999    0.9264   -1.0669 N   0  0  0  0  0  0  0  0  0  0  0  0
    2.5836   -1.2782    2.1960 N   0  0  0  0  0  0  0  0  0  0  0  0
    0.7808   -0.6542    1.0257 N   0  0  0  0  0  2  0  0  0  0  0  0
    4.3185   -0.1707    0.8211 N   0  0  0  0  0  0  0  0  0  0  0  0
    1.9139   -0.1250    0.4599 C   0  0  0  0  0  0  0  0  0  0  0  0
    5.6209    0.9529   -0.7263 N   0  0  0  0  0  0  0  0  0  0  0  0
    4.4063    0.5510   -0.2958 C   0  0  0  0  0  0  0  0  0  0  0  0
    1.9961    0.5886   -0.7380 C   0  0  0  0  0  0  0  0  0  0  0  0
    3.0631   -0.4993    1.1630 C   0  0  0  0  0  0  0  0  0  0  0  0
    1.2057   -1.3549    2.0724 C   0  0  0  0  0  3  0  0  0  0  0  0
    5.7689    1.4745   -1.5877 H   0  0  0  0  0  0  0  0  0  0  0  0
    3.4475    1.4318   -1.9464 H   0  0  0  0  0  0  0  0  0  0  0  0
    6.4329    0.6558   -0.1850 H   0  0  0  0  0  0  0  0  0  0  0  0
    0.5778   -1.9401    2.7526 H   0  0  0  0  0  0  0  0  0  0  0  0
    3.1450   -1.7376    2.9174 H   0  0  0  0  0  0  0  0  0  0  0  0
  1  9  2  0  0  0  0
  2  9  1  0  0  0  0
  2  8  1  0  0  0  0
  3 16  1  0  0  0  0
  4 11  1  0  0  0  0
  5 10  1  0  0  0  0
  6  4  1  0  0  0  0
  6 10  2  0  0  0  0
  7  8  1  0  0  0  0
  7 14  1  0  0  0  0
  8  5  2  0  0  0  0
  9  6  1  0  0  0  0
 10  3  1  0  0  0  0
 11  3  1  0  0  0  0
 11 15  1  0  0  0  0
 12  7  1  0  0  0  0
 13  2  1  0  0  0  0
M  END
