1
q = 0.0, confidence = 0.934

 12 12  0  0  0  0  0  0  0  0999 V2000
   -0.0091   -1.2789   -0.0839 N   0  0  0  0  0  2  0  0  0  0  0  0
    0.0674   -2.0249   -1.3627 C   0  0  0  0  0  0  0  0  0  0  0  0
    0.7919   -1.5444   -2.0441 H   0  0  0  0  0  0  0  0  0  0  0  0
   -0.9369   -1.9705   -1.8345 H   0  0  0  0  0  0  0  0  0  0  0  0
    0.4384   -3.4555   -0.9422 C   0  0  0  0  0  0  0  0  0  0  0  0
    1.5417   -3.5652   -0.9332 H   0  0  0  0  0  0  0  0  0  0  0  0
    0.0236   -4.2238   -1.6201 H   0  0  0  0  0  0  0  0  0  0  0  0
   -0.1082   -3.5453    0.4986 C   0  0  0  0  0  0  0  0  0  0  0  0
   -1.1516   -3.9364    0.5432 H   0  0  0  0  0  0  0  0  0  0  0  0
    0.4918   -4.1747    1.1859 H   0  0  0  0  0  0  0  0  0  0  0  0
   -0.1271   -2.1051    0.9036 C   0  0  0  0  0  3  0  0  0  0  0  0
   -0.2655   -1.7333    1.9304 H   0  0  0  0  0  0  0  0  0  0  0  0
  1 11  1  0  0  0  0
  2  5  1  0  0  0  0
  2  1  1  0  0  0  0
  3  2  1  0  0  0  0
  4  2  1  0  0  0  0
  5  6  1  0  0  0  0
  5  8  1  0  0  0  0
  7  5  1  0  0  0  0
  8  9  1  0  0  0  0
  8 11  1  0  0  0  0
  8 10  1  0  0  0  0
 11 12  1  0  0  0  0
M  END
