4
q = -1.0, confidence = 0.0

 12 12  0  0  0  0  0  0  0  0999 V2000
   -2.7573    0.6317    1.6763 S   0  0  0  0  0  0  0  0  0  0  0  0
   -4.1356    2.1067   -0.3480 N   0  0  0  0  0  0  0  0  0  0  0  0
   -3.1474    1.2881    0.1285 C   0  0  0  0  0  0  0  0  0  0  0  0
   -2.3513    0.8989   -0.8818 N   0  0  0  0  0  2  0  0  0  0  0  0
   -2.8270    1.4734   -2.0434 C   0  0  0  0  0  0  0  0  0  0  0  0
   -2.3522    1.3087   -3.0161 H   0  0  0  0  0  0  0  0  0  0  0  0
   -3.9312    2.2388   -1.7229 C   0  0  0  0  0  0  0  0  0  0  0  0
   -4.5828    2.8641   -2.3407 H   0  0  0  0  0  0  0  0  0  0  0  0
   -5.1802    2.7158    0.4495 C   0  0  0  0  0  0  0  0  0  0  0  0
   -5.1909    2.2238    1.4408 H   0  0  0  0  0  0  0  0  0  0  0  0
   -6.1669    2.5713   -0.0321 H   0  0  0  0  0  0  0  0  0  0  0  0
   -5.0001    3.8014    0.5905 H   0  0  0  0  0  0  0  0  0  0  0  0
  2  3  1  0  0  0  0
  2  9  1  0  0  0  0
  3  1  2  0  0  0  0
  4  3  1  0  0  0  0
  5  7  2  0  0  0  0
  5  4  1  0  0  0  0
  6  5  1  0  0  0  0
  7  2  1  0  0  0  0
  8  7  1  0  0  0  0
  9 12  1  0  0  0  0
  9 10  1  0  0  0  0
 11  9  1  0  0  0  0
M  END
