2
q = -1.0, confidence = 0.0

 34 36  0  0  0  0  0  0  0  0999 V2000
   -0.9383    0.9936   -0.3541 P   0  0  0  0  0  0  0  0  0  0  0  0
   -1.9325   -1.6515   -0.4979 N   0  0  0  0  0  2  0  0  0  0  0  0
   -2.6511   -0.6892   -1.2156 C   0  0  0  0  0  0  0  0  0  0  0  0
   -2.2451    0.5899   -1.3052 N   0  0  0  0  0  0  0  0  0  0  0  0
   -3.8553   -1.1089   -1.8738 C   0  0  0  0  0  0  0  0  0  0  0  0
   -4.4004   -0.3462   -2.4458 H   0  0  0  0  0  0  0  0  0  0  0  0
   -4.3057   -2.4151   -1.7736 C   0  0  0  0  0  0  0  0  0  0  0  0
   -5.2356   -2.7151   -2.2817 H   0  0  0  0  0  0  0  0  0  0  0  0
   -3.5747   -3.3555   -1.0099 C   0  0  0  0  0  0  0  0  0  0  0  0
   -3.9052   -4.3961   -0.8922 H   0  0  0  0  0  0  0  0  0  0  0  0
   -2.4046   -2.9163   -0.4004 C   0  0  0  0  0  0  0  0  0  0  0  0
   -1.8001   -3.6084    0.2085 H   0  0  0  0  0  0  0  0  0  0  0  0
   -1.5187    2.1642    0.9348 C   0  0  0  0  0  0  0  0  0  0  0  0
   -2.6658    2.9371    0.6646 C   0  0  0  0  0  0  0  0  0  0  0  0
   -3.1856    2.7957   -0.2955 H   0  0  0  0  0  0  0  0  0  0  0  0
   -3.1332    3.8478    1.6225 C   0  0  0  0  0  0  0  0  0  0  0  0
   -4.0295    4.4512    1.4113 H   0  0  0  0  0  0  0  0  0  0  0  0
   -2.4650    3.9874    2.8510 C   0  0  0  0  0  0  0  0  0  0  0  0
   -2.8369    4.7013    3.6018 H   0  0  0  0  0  0  0  0  0  0  0  0
   -1.3307    3.2075    3.1259 C   0  0  0  0  0  0  0  0  0  0  0  0
   -0.8142    3.3044    4.0931 H   0  0  0  0  0  0  0  0  0  0  0  0
   -0.8581    2.2920    2.1723 C   0  0  0  0  0  0  0  0  0  0  0  0
    0.0193    1.6651    2.3916 H   0  0  0  0  0  0  0  0  0  0  0  0
    0.2114    1.9710   -1.3890 C   0  0  0  0  0  0  0  0  0  0  0  0
    0.2324    1.7290   -2.7766 C   0  0  0  0  0  0  0  0  0  0  0  0
   -0.5081    1.0357   -3.2044 H   0  0  0  0  0  0  0  0  0  0  0  0
    1.1734    2.3821   -3.5859 C   0  0  0  0  0  0  0  0  0  0  0  0
    1.1844    2.1957   -4.6708 H   0  0  0  0  0  0  0  0  0  0  0  0
    2.0951    3.2767   -3.0164 C   0  0  0  0  0  0  0  0  0  0  0  0
    2.8329    3.7880   -3.6534 H   0  0  0  0  0  0  0  0  0  0  0  0
    2.0677    3.5257   -1.6341 C   0  0  0  0  0  0  0  0  0  0  0  0
    2.7809    4.2340   -1.1858 H   0  0  0  0  0  0  0  0  0  0  0  0
    1.1274    2.8776   -0.8193 C   0  0  0  0  0  0  0  0  0  0  0  0
    1.1010    3.0857    0.2610 H   0  0  0  0  0  0  0  0  0  0  0  0
  1 13  1  0  0  0  0
  2 11  1  0  0  0  0
  3  2  1  0  0  0  0
  4  3  2  0  0  0  0
  4  1  1  0  0  0  0
  5  7  2  0  0  0  0
  5  3  1  0  0  0  0
  6  5  1  0  0  0  0
  7  9  1  0  0  0  0
  8  7  1  0  0  0  0
  9 10  1  0  0  0  0
  9 11  2  0  0  0  0
 11 12  1  0  0  0  0
 13 22  1  0  0  0  0
 14 13  2  0  0  0  0
 14 16  1  0  0  0  0
 15 14  1  0  0  0  0
 16 18  2  0  0  0  0
 17 16  1  0  0  0  0
 18 20  1  0  0  0  0
 18 19  1  0  0  0  0
 20 21  1  0  0  0  0
 22 23  1  0  0  0  0
 22 20  2  0  0  0  0
 24 33  1  0  0  0  0
 24  1  1  0  0  0  0
 25 24  2  0  0  0  0
 26 25  1  0  0  0  0
 27 29  2  0  0  0  0
 27 25  1  0  0  0  0
 28 27  1  0  0  0  0
 29 31  1  0  0  0  0
 30 29  1  0  0  0  0
 31 32  1  0  0  0  0
 31 33  2  0  0  0  0
 33 34  1  0  0  0  0
M  END
