1
q = 0.0, confidence = 0.96

 18 18  0  0  0  0  0  0  0  0999 V2000
   -1.4319   -0.1952   -1.4749 N   0  0  0  0  0  0  0  0  0  0  0  0
   -1.2783    0.6040   -2.1059 H   0  0  0  0  0  0  0  0  0  0  0  0
   -1.1839   -1.0733   -1.9541 H   0  0  0  0  0  0  0  0  0  0  0  0
   -6.6571   -0.4161    0.5593 O   0  0  0  0  0  0  0  0  0  0  0  0
   -2.7831   -0.2260   -0.9740 C   0  0  0  0  0  0  0  0  0  0  0  0
   -3.5073    0.9657   -0.8321 C   0  0  0  0  0  0  0  0  0  0  0  0
   -3.0310    1.9236   -1.0894 H   0  0  0  0  0  0  0  0  0  0  0  0
   -4.8138    0.9422   -0.3223 C   0  0  0  0  0  0  0  0  0  0  0  0
   -5.3612    1.8882   -0.2201 H   0  0  0  0  0  0  0  0  0  0  0  0
   -5.3989   -0.2835    0.0583 C   0  0  0  0  0  0  0  0  0  0  0  0
   -4.6532   -1.4771   -0.0689 C   0  0  0  0  0  0  0  0  0  0  0  0
   -5.1197   -2.4206    0.2480 H   0  0  0  0  0  0  0  0  0  0  0  0
   -3.3542   -1.4500   -0.5748 C   0  0  0  0  0  0  0  0  0  0  0  0
   -2.7557   -2.3715   -0.6340 H   0  0  0  0  0  0  0  0  0  0  0  0
   -7.4404    0.7501    0.7246 C   0  0  0  0  0  0  0  0  0  0  0  0
   -6.9699    1.4699    1.4319 H   0  0  0  0  0  0  0  0  0  0  0  0
   -8.4103    0.4202    1.1407 H   0  0  0  0  0  0  0  0  0  0  0  0
   -7.6210    1.2702   -0.2433 H   0  0  0  0  0  0  0  0  0  0  0  0
  1  5  1  0  0  0  0
  2  1  1  0  0  0  0
  3  1  1  0  0  0  0
  4 15  1  0  0  0  0
  5  6  2  0  0  0  0
  5 13  1  0  0  0  0
  6  8  1  0  0  0  0
  7  6  1  0  0  0  0
  8  9  1  0  0  0  0
  8 10  2  0  0  0  0
 10  4  1  0  0  0  0
 11 10  1  0  0  0  0
 11 12  1  0  0  0  0
 13 11  2  0  0  0  0
 14 13  1  0  0  0  0
 15 17  1  0  0  0  0
 15 16  1  0  0  0  0
 18 15  1  0  0  0  0
M  END
