1
q = 0.0, confidence = 1.0

 24 25  0  0  0  0  0  0  0  0999 V2000
   -0.8173   -0.3091    0.7057 N   0  0  0  0  0  2  0  0  0  0  0  0
   -2.2612   -0.9994    2.2715 N   0  0  0  0  0  0  0  0  0  0  0  0
   -2.1073   -0.1695    0.1920 C   0  0  0  0  0  0  0  0  0  0  0  0
   -2.5820    0.2985   -1.0453 C   0  0  0  0  0  0  0  0  0  0  0  0
   -3.9650    0.3203   -1.2772 C   0  0  0  0  0  0  0  0  0  0  0  0
   -4.4863    0.8218   -2.6005 C   0  0  0  0  0  0  0  0  0  0  0  0
   -6.3688   -0.0969   -0.5474 C   0  0  0  0  0  0  0  0  0  0  0  0
   -4.8873   -0.1273   -0.2725 C   0  0  0  0  0  0  0  0  0  0  0  0
   -4.4152   -0.5928    0.9650 C   0  0  0  0  0  0  0  0  0  0  0  0
   -3.0300   -0.6064    1.1801 C   0  0  0  0  0  0  0  0  0  0  0  0
   -2.7602   -1.5238    3.5258 C   0  0  0  0  0  0  0  0  0  0  0  0
   -0.9523   -0.8019    1.9341 C   0  0  0  0  0  3  0  0  0  0  0  0
   -1.8802    0.6490   -1.8128 H   0  0  0  0  0  0  0  0  0  0  0  0
   -3.6584    1.1405   -3.2611 H   0  0  0  0  0  0  0  0  0  0  0  0
   -5.0678    0.0410   -3.1353 H   0  0  0  0  0  0  0  0  0  0  0  0
   -5.1715    1.6864   -2.4713 H   0  0  0  0  0  0  0  0  0  0  0  0
   -6.9513   -0.4716    0.3157 H   0  0  0  0  0  0  0  0  0  0  0  0
   -6.7215    0.9315   -0.7748 H   0  0  0  0  0  0  0  0  0  0  0  0
   -6.6332   -0.7162   -1.4306 H   0  0  0  0  0  0  0  0  0  0  0  0
   -5.1202   -0.9352    1.7372 H   0  0  0  0  0  0  0  0  0  0  0  0
   -1.9073   -1.7455    4.1926 H   0  0  0  0  0  0  0  0  0  0  0  0
   -3.4205   -0.7849    4.0238 H   0  0  0  0  0  0  0  0  0  0  0  0
   -3.3353   -2.4572    3.3583 H   0  0  0  0  0  0  0  0  0  0  0  0
   -0.1135   -1.0360    2.6040 H   0  0  0  0  0  0  0  0  0  0  0  0
  1 12  1  0  0  0  0
  2 11  1  0  0  0  0
  3  1  1  0  0  0  0
  3 10  1  0  0  0  0
  4  3  2  0  0  0  0
  5  4  1  0  0  0  0
  5  8  2  0  0  0  0
  6 16  1  0  0  0  0
  6  5  1  0  0  0  0
  7  8  1  0  0  0  0
  7 17  1  0  0  0  0
  8  9  1  0  0  0  0
  9 10  2  0  0  0  0
  9 20  1  0  0  0  0
 10  2  1  0  0  0  0
 11 22  1  0  0  0  0
 11 21  1  0  0  0  0
 12  2  1  0  0  0  0
 12 24  1  0  0  0  0
 13  4  1  0  0  0  0
 14  6  1  0  0  0  0
 15  6  1  0  0  0  0
 18  7  1  0  0  0  0
 19  7  1  0  0  0  0
 23 11  1  0  0  0  0
M  END
