1
q = -1.0, confidence = 0.002

 34 37  0  0  1  0  0  0  0  0999 V2000
   -2.0341   -0.9212   -0.5355 N   0  0  0  0  0  2  0  0  0  0  0  0
    0.7008   -1.0072   -0.7456 C   0  0  0  0  0  3  0  0  0  0  0  0
    1.0202   -1.6597    0.5668 C   0  0  0  0  0  0  0  0  0  0  0  0
    0.2175   -2.4043    1.4561 C   0  0  0  0  0  0  0  0  0  0  0  0
   -0.8360   -2.6185    1.2241 H   0  0  0  0  0  0  0  0  0  0  0  0
    0.7697   -2.8721    2.6592 C   0  0  0  0  0  0  0  0  0  0  0  0
    0.1421   -3.4526    3.3530 H   0  0  0  0  0  0  0  0  0  0  0  0
    2.1129   -2.6037    2.9939 C   0  0  0  0  0  0  0  0  0  0  0  0
    2.5222   -2.9707    3.9474 H   0  0  0  0  0  0  0  0  0  0  0  0
    2.9321   -1.8842    2.1114 C   0  0  0  0  0  0  0  0  0  0  0  0
    3.9876   -1.6937    2.3617 H   0  0  0  0  0  0  0  0  0  0  0  0
    2.3972   -1.4298    0.8938 C   0  0  0  0  0  0  0  0  0  0  0  0
    3.0188   -0.7243   -0.2243 C   0  0  0  0  0  0  0  0  0  0  0  0
    4.3383   -0.2783   -0.4256 C   0  0  0  0  0  0  0  0  0  0  0  0
    5.1020   -0.4222    0.3547 H   0  0  0  0  0  0  0  0  0  0  0  0
    4.6729    0.3377   -1.6394 C   0  0  0  0  0  0  0  0  0  0  0  0
    5.7028    0.6852   -1.8127 H   0  0  0  0  0  0  0  0  0  0  0  0
    3.6990    0.5086   -2.6464 C   0  0  0  0  0  0  0  0  0  0  0  0
    3.9801    0.9846   -3.5986 H   0  0  0  0  0  0  0  0  0  0  0  0
    2.3762    0.0824   -2.4470 C   0  0  0  0  0  0  0  0  0  0  0  0
    1.6205    0.2393   -3.2335 H   0  0  0  0  0  0  0  0  0  0  0  0
    2.0224   -0.5251   -1.2296 C   0  0  0  0  0  0  0  0  0  0  0  0
   -0.1400   -1.7968   -1.7569 C   0  0  0  0  0  0  0  0  0  0  0  0
   -0.1533   -1.2382   -2.7198 H   0  0  0  0  0  0  0  0  0  0  0  0
    0.2941   -2.7970   -1.9804 H   0  0  0  0  0  0  0  0  0  0  0  0
   -1.5583   -1.9442   -1.3065 C   0  0  1  0  0  3  0  0  0  0  0  0
   -2.3748   -3.0422   -1.6251 C   0  0  0  0  0  0  0  0  0  0  0  0
   -1.9595   -3.8540   -2.2388 H   0  0  0  0  0  0  0  0  0  0  0  0
   -3.6915   -3.0925   -1.1542 C   0  0  0  0  0  0  0  0  0  0  0  0
   -4.3392   -3.9485   -1.3962 H   0  0  0  0  0  0  0  0  0  0  0  0
   -4.1655   -2.0377   -0.3586 C   0  0  0  0  0  0  0  0  0  0  0  0
   -5.1878   -2.0344    0.0448 H   0  0  0  0  0  0  0  0  0  0  0  0
   -3.3061   -0.9756   -0.0734 C   0  0  0  0  0  0  0  0  0  0  0  0
   -3.6309   -0.1320    0.5525 H   0  0  0  0  0  0  0  0  0  0  0  0
  1 33  1  0  0  0  0
  2  3  1  0  0  0  0
  3 12  2  0  0  0  0
  3  4  1  0  0  0  0
  4  6  2  0  0  0  0
  5  4  1  0  0  0  0
  6  8  1  0  0  0  0
  6  7  1  0  0  0  0
  8  9  1  0  0  0  0
 10 11  1  0  0  0  0
 10  8  2  0  0  0  0
 12 10  1  0  0  0  0
 13 12  1  0  0  0  0
 14 13  1  0  0  0  0
 14 15  1  0  0  0  0
 16 14  2  0  0  0  0
 17 16  1  0  0  0  0
 18 20  2  0  0  0  0
 18 16  1  0  0  0  0
 19 18  1  0  0  0  0
 20 22  1  0  0  0  0
 21 20  1  0  0  0  0
 22  2  1  0  0  0  0
 22 13  2  0  0  0  0
 23  2  1  0  0  0  0
 24 23  1  0  0  0  0
 25 23  1  0  0  0  0
 26 23  1  1  0  0  0
 26  1  1  0  0  0  0
 27 26  1  0  0  0  0
 27 29  2  0  0  0  0
 28 27  1  0  0  0  0
 29 31  1  0  0  0  0
 30 29  1  0  0  0  0
 31 33  2  0  0  0  0
 31 32  1  0  0  0  0
 33 34  1  0  0  0  0
M  END
