7
q = -1.0, confidence = 0.002

 25 26  0  0  0  0  0  0  0  0999 V2000
    7.2057   -1.8951   -0.4711 F   0  0  0  0  0  0  0  0  0  0  0  0
    5.5804   -3.3519   -0.3414 F   0  0  0  0  0  0  0  0  0  0  0  0
    5.2770    3.0264   -1.5713 F   0  0  0  0  0  0  0  0  0  0  0  0
    4.0430    3.6043    0.1312 F   0  0  0  0  0  0  0  0  0  0  0  0
    6.1075    2.9549    0.4418 F   0  0  0  0  0  0  0  0  0  0  0  0
    6.3364   -2.3927    1.4644 F   0  0  0  0  0  0  0  0  0  0  0  0
   -1.0025   -0.4176   -0.1646 N   0  0  0  0  0  0  0  0  0  0  0  0
    0.6526   -1.9646   -0.0942 C   0  0  0  0  0  0  0  0  0  0  0  0
    1.1672   -2.9318   -0.0675 H   0  0  0  0  0  0  0  0  0  0  0  0
    6.0393   -2.1778    0.1569 C   0  0  0  0  0  0  0  0  0  0  0  0
    3.6622   -1.3635   -0.0254 C   0  0  0  0  0  0  0  0  0  0  0  0
    3.3499   -2.4156    0.0138 H   0  0  0  0  0  0  0  0  0  0  0  0
    4.5206    1.2907   -0.1454 C   0  0  0  0  0  0  0  0  0  0  0  0
    5.0314   -1.0637   -0.0020 C   0  0  0  0  0  0  0  0  0  0  0  0
    1.2593   -0.6542   -0.1215 C   0  0  0  0  0  0  0  0  0  0  0  0
    2.6888   -0.3404   -0.1029 C   0  0  0  0  0  0  0  0  0  0  0  0
    4.9850    2.7220   -0.2810 C   0  0  0  0  0  0  0  0  0  0  0  0
    0.1968    0.2579   -0.1671 C   0  0  0  0  0  0  0  0  0  0  0  0
    0.2034    1.3529   -0.1954 H   0  0  0  0  0  0  0  0  0  0  0  0
   -0.7191   -1.7798   -0.1229 C   0  0  0  0  0  3  0  0  0  0  0  0
   -1.5172   -2.5320   -0.1318 H   0  0  0  0  0  0  0  0  0  0  0  0
    5.4772    0.2649   -0.0636 C   0  0  0  0  0  0  0  0  0  0  0  0
    6.5502    0.4981   -0.0478 H   0  0  0  0  0  0  0  0  0  0  0  0
    3.1524    0.9961   -0.1609 C   0  0  0  0  0  0  0  0  0  0  0  0
    2.4335    1.8248   -0.2163 H   0  0  0  0  0  0  0  0  0  0  0  0
  1 10  1  0  0  0  0
  2 10  1  0  0  0  0
  3 17  1  0  0  0  0
  7 20  1  0  0  0  0
  8  9  1  0  0  0  0
 10  6  1  0  0  0  0
 11 14  1  0  0  0  0
 11 12  1  0  0  0  0
 13 22  1  0  0  0  0
 14 10  1  0  0  0  0
 15 16  1  0  0  0  0
 15  8  2  0  0  0  0
 16 11  2  0  0  0  0
 17 13  1  0  0  0  0
 17  4  1  0  0  0  0
 17  5  1  0  0  0  0
 18  7  2  0  0  0  0
 18 15  1  0  0  0  0
 19 18  1  0  0  0  0
 20  8  1  0  0  0  0
 21 20  1  0  0  0  0
 22 23  1  0  0  0  0
 22 14  2  0  0  0  0
 24 13  2  0  0  0  0
 24 16  1  0  0  0  0
 25 24  1  0  0  0  0
M  END
