4
q = -1.0, confidence = 0.0

 25 24  0  0  0  0  0  0  0  0999 V2000
   -0.4139    1.0051   -1.8255 S   0  0  0  0  0  0  0  0  0  0  0  0
   -1.4836   -1.7272   -0.2317 S   0  0  0  0  0  0  0  0  0  0  0  0
   -1.6924    2.8627   -0.2693 N   0  0  0  0  0  0  0  0  0  0  0  0
   -0.3466    1.1230    0.6957 N   0  0  0  0  0  2  0  0  0  0  0  0
   -2.8172   -0.0948    1.5188 N   0  0  0  0  0  0  0  0  0  0  0  0
   -3.9834   -0.9156   -0.3047 N   0  0  0  0  0  0  0  0  0  0  0  0
   -2.0996    3.6020   -1.4546 C   0  0  0  0  0  0  0  0  0  0  0  0
   -1.2739    4.2104   -1.8842 H   0  0  0  0  0  0  0  0  0  0  0  0
   -2.9408    4.2717   -1.1959 H   0  0  0  0  0  0  0  0  0  0  0  0
   -2.4440    2.8928   -2.2323 H   0  0  0  0  0  0  0  0  0  0  0  0
   -0.8761    1.7767   -0.3361 C   0  0  0  0  0  0  0  0  0  0  0  0
   -0.7877    1.2300    2.0624 C   0  0  0  0  0  0  0  0  0  0  0  0
   -1.3362    2.1809    2.2491 H   0  0  0  0  0  0  0  0  0  0  0  0
    0.0840    1.2337    2.7521 H   0  0  0  0  0  0  0  0  0  0  0  0
   -1.6905    0.0338    2.4243 C   0  0  0  0  0  0  0  0  0  0  0  0
   -1.1002   -0.9018    2.3547 H   0  0  0  0  0  0  0  0  0  0  0  0
   -2.0714    0.1307    3.4609 H   0  0  0  0  0  0  0  0  0  0  0  0
   -2.8207   -0.8161    0.3742 C   0  0  0  0  0  0  0  0  0  0  0  0
   -5.2776   -0.4516    0.1608 C   0  0  0  0  0  0  0  0  0  0  0  0
   -5.4800   -0.8040    1.1946 H   0  0  0  0  0  0  0  0  0  0  0  0
   -6.0658   -0.8588   -0.4970 H   0  0  0  0  0  0  0  0  0  0  0  0
   -5.3594    0.6584    0.1349 H   0  0  0  0  0  0  0  0  0  0  0  0
   -1.6995    3.3722    0.6169 H   0  0  0  0  0  0  0  0  0  0  0  0
   -3.9085   -1.3757   -1.2143 H   0  0  0  0  0  0  0  0  0  0  0  0
   -3.6304    0.4989    1.7009 H   0  0  0  0  0  0  0  0  0  0  0  0
  1 11  2  0  0  0  0
  2 18  2  0  0  0  0
  3 23  1  0  0  0  0
  4 12  1  0  0  0  0
  5 25  1  0  0  0  0
  5 15  1  0  0  0  0
  6 19  1  0  0  0  0
  6 18  1  0  0  0  0
  7  9  1  0  0  0  0
  7  3  1  0  0  0  0
  8  7  1  0  0  0  0
 10  7  1  0  0  0  0
 11  3  1  0  0  0  0
 11  4  1  0  0  0  0
 12 13  1  0  0  0  0
 12 15  1  0  0  0  0
 12 14  1  0  0  0  0
 15 17  1  0  0  0  0
 16 15  1  0  0  0  0
 18  5  1  0  0  0  0
 19 20  1  0  0  0  0
 21 19  1  0  0  0  0
 22 19  1  0  0  0  0
 24  6  1  0  0  0  0
M  END
