1
q = 0.0, confidence = 0.902

 22 23  0  0  0  0  0  0  0  0999 V2000
   -0.1054   -0.6327   -0.0807 N   0  0  0  0  0  2  0  0  0  0  0  0
   -4.2833   -0.3539   -0.6729 N   0  0  0  0  0  2  0  0  0  0  0  0
   -4.9801   -0.0716    0.3485 N   0  0  0  0  0  2  0  0  0  0  0  0
   -9.1654    0.1563   -0.0896 N   0  0  0  0  0  0  0  0  0  0  0  0
   -0.9249   -0.4090    0.9828 C   0  0  0  0  0  3  0  0  0  0  0  0
   -0.4359   -0.3289    1.9647 H   0  0  0  0  0  0  0  0  0  0  0  0
   -2.3059   -0.2990    0.8672 C   0  0  0  0  0  0  0  0  0  0  0  0
   -2.9457   -0.1249    1.7429 H   0  0  0  0  0  0  0  0  0  0  0  0
   -2.8974   -0.4261   -0.4102 C   0  0  0  0  0  0  0  0  0  0  0  0
   -2.0512   -0.6625   -1.5111 C   0  0  0  0  0  0  0  0  0  0  0  0
   -2.4870   -0.7772   -2.5133 H   0  0  0  0  0  0  0  0  0  0  0  0
   -0.6754   -0.7570   -1.3055 C   0  0  0  0  0  0  0  0  0  0  0  0
    0.0057   -0.9526   -2.1462 H   0  0  0  0  0  0  0  0  0  0  0  0
   -6.3700   -0.0113    0.1308 C   0  0  0  0  0  0  0  0  0  0  0  0
   -7.0060   -0.2513   -1.1095 C   0  0  0  0  0  0  0  0  0  0  0  0
   -6.4066   -0.5058   -1.9942 H   0  0  0  0  0  0  0  0  0  0  0  0
   -8.4004   -0.1530   -1.1552 C   0  0  0  0  0  0  0  0  0  0  0  0
   -8.9372   -0.3333   -2.1031 H   0  0  0  0  0  0  0  0  0  0  0  0
   -8.5543    0.3808    1.0832 C   0  0  0  0  0  0  0  0  0  0  0  0
   -9.2059    0.6302    1.9387 H   0  0  0  0  0  0  0  0  0  0  0  0
   -7.1622    0.3109    1.2520 C   0  0  0  0  0  0  0  0  0  0  0  0
   -6.6789    0.4969    2.2220 H   0  0  0  0  0  0  0  0  0  0  0  0
  1  5  1  0  0  0  0
  2  9  1  0  0  0  0
  2  3  1  0  0  0  0
  4 19  1  0  0  0  0
  5  6  1  0  0  0  0
  7  5  1  0  0  0  0
  7  8  1  0  0  0  0
  9  7  2  0  0  0  0
 10 12  2  0  0  0  0
 10  9  1  0  0  0  0
 11 10  1  0  0  0  0
 12  1  1  0  0  0  0
 13 12  1  0  0  0  0
 14  3  1  0  0  0  0
 14 21  1  0  0  0  0
 15 14  2  0  0  0  0
 16 15  1  0  0  0  0
 17 15  1  0  0  0  0
 17  4  2  0  0  0  0
 18 17  1  0  0  0  0
 19 21  2  0  0  0  0
 19 20  1  0  0  0  0
 21 22  1  0  0  0  0
M  END
