4
q = 0.0, confidence = 0.994

 25 26  0  0  0  0  0  0  0  0999 V2000
    4.2101   -1.8463    1.2051 S   0  0  0  0  0  0  0  0  0  0  0  0
    4.4503   -0.9678   -1.3210 N   0  0  0  0  0  0  0  0  0  0  0  0
    2.2534   -1.6522   -0.6536 N   0  0  0  0  0  0  0  0  0  0  0  0
   -1.8151   -1.8686   -0.9540 N   0  0  0  0  0  2  0  0  0  0  0  0
    4.5541   -0.5633    1.8726 O   0  0  0  0  0  0  0  0  0  0  0  0
    5.2389   -2.8919    1.0294 O   0  0  0  0  0  0  0  0  0  0  0  0
    3.5462   -1.4355   -0.4631 C   0  0  0  0  0  0  0  0  0  0  0  0
    3.9661   -0.6676   -2.5346 C   0  0  0  0  0  0  0  0  0  0  0  0
    4.6820   -0.2572   -3.2673 H   0  0  0  0  0  0  0  0  0  0  0  0
    2.6168   -0.8530   -2.8763 C   0  0  0  0  0  0  0  0  0  0  0  0
    2.2481   -0.5753   -3.8732 H   0  0  0  0  0  0  0  0  0  0  0  0
    1.7637   -1.3595   -1.8793 C   0  0  0  0  0  0  0  0  0  0  0  0
    0.3101   -1.5856   -2.0599 C   0  0  0  0  0  0  0  0  0  0  0  0
   -0.3293   -1.7395   -3.3052 C   0  0  0  0  0  0  0  0  0  0  0  0
    0.2490   -1.6993   -4.2408 H   0  0  0  0  0  0  0  0  0  0  0  0
   -1.7109   -1.9802   -3.3449 C   0  0  0  0  0  0  0  0  0  0  0  0
   -2.2312   -2.1271   -4.3021 H   0  0  0  0  0  0  0  0  0  0  0  0
   -2.4267   -2.0433   -2.1428 C   0  0  0  0  0  3  0  0  0  0  0  0
   -3.5104   -2.2459   -2.0903 H   0  0  0  0  0  0  0  0  0  0  0  0
   -0.4917   -1.6605   -0.9043 C   0  0  0  0  0  0  0  0  0  0  0  0
   -0.0565   -1.5450    0.1017 H   0  0  0  0  0  0  0  0  0  0  0  0
    2.7919   -2.5693    2.0593 C   0  0  0  0  0  0  0  0  0  0  0  0
    3.1893   -2.8006    3.0656 H   0  0  0  0  0  0  0  0  0  0  0  0
    2.4881   -3.4915    1.5343 H   0  0  0  0  0  0  0  0  0  0  0  0
    1.9520   -1.8540    2.1175 H   0  0  0  0  0  0  0  0  0  0  0  0
  1  5  2  0  0  0  0
  1 22  1  0  0  0  0
  2  7  1  0  0  0  0
  3  7  2  0  0  0  0
  4 20  1  0  0  0  0
  6  1  2  0  0  0  0
  7  1  1  0  0  0  0
  8  2  2  0  0  0  0
  9  8  1  0  0  0  0
 10  8  1  0  0  0  0
 10 12  2  0  0  0  0
 11 10  1  0  0  0  0
 12  3  1  0  0  0  0
 13 12  1  0  0  0  0
 13 20  2  0  0  0  0
 14 13  1  0  0  0  0
 15 14  1  0  0  0  0
 16 14  2  0  0  0  0
 16 18  1  0  0  0  0
 17 16  1  0  0  0  0
 18 19  1  0  0  0  0
 18  4  1  0  0  0  0
 20 21  1  0  0  0  0
 22 25  1  0  0  0  0
 22 23  1  0  0  0  0
 24 22  1  0  0  0  0
M  END
