2
q = 0.0, confidence = 0.998

 46 49  0  0  0  0  0  0  0  0999 V2000
    0.0711    0.5254    0.0341 P   0  0  0  0  0  4  0  0  0  0  0  0
    0.2341   -0.8334   -0.8768 N   0  0  0  0  0  2  0  0  0  0  0  0
    1.4191   -1.6187   -0.8382 C   0  0  0  0  0  0  0  0  0  0  0  0
    2.5342   -1.2672   -1.6312 C   0  0  0  0  0  0  0  0  0  0  0  0
    3.6987   -2.0486   -1.6051 C   0  0  0  0  0  0  0  0  0  0  0  0
    3.7683   -3.1940   -0.7960 C   0  0  0  0  0  0  0  0  0  0  0  0
    2.6576   -3.5568   -0.0147 C   0  0  0  0  0  0  0  0  0  0  0  0
    1.4930   -2.7779   -0.0334 C   0  0  0  0  0  0  0  0  0  0  0  0
    1.5581    1.5775   -0.0585 C   0  0  0  0  0  0  0  0  0  0  0  0
    1.5377    2.7950   -0.7680 C   0  0  0  0  0  0  0  0  0  0  0  0
    2.7177    3.5399   -0.9133 C   0  0  0  0  0  0  0  0  0  0  0  0
    3.9194    3.0718   -0.3584 C   0  0  0  0  0  0  0  0  0  0  0  0
    3.9438    1.8566    0.3458 C   0  0  0  0  0  0  0  0  0  0  0  0
    2.7692    1.1074    0.4980 C   0  0  0  0  0  0  0  0  0  0  0  0
   -0.2755    0.2968    1.8226 C   0  0  0  0  0  0  0  0  0  0  0  0
    0.4050    1.0350    2.8140 C   0  0  0  0  0  0  0  0  0  0  0  0
    0.1025    0.8335    4.1697 C   0  0  0  0  0  0  0  0  0  0  0  0
   -0.8798   -0.0972    4.5419 C   0  0  0  0  0  0  0  0  0  0  0  0
   -1.5685   -0.8228    3.5555 C   0  0  0  0  0  0  0  0  0  0  0  0
   -1.2726   -0.6304    2.1997 C   0  0  0  0  0  0  0  0  0  0  0  0
   -1.3388    1.4233   -0.6664 C   0  0  0  0  0  0  0  0  0  0  0  0
   -1.6376    1.2664   -2.0370 C   0  0  0  0  0  0  0  0  0  0  0  0
   -2.7082    1.9757   -2.5954 C   0  0  0  0  0  0  0  0  0  0  0  0
   -3.4761    2.8406   -1.7963 C   0  0  0  0  0  0  0  0  0  0  0  0
   -3.1720    3.0011   -0.4356 C   0  0  0  0  0  0  0  0  0  0  0  0
   -2.1019    2.2949    0.1344 C   0  0  0  0  0  0  0  0  0  0  0  0
    2.4676   -0.3743   -2.2697 H   0  0  0  0  0  0  0  0  0  0  0  0
    4.5579   -1.7620   -2.2311 H   0  0  0  0  0  0  0  0  0  0  0  0
    4.6806   -3.8090   -0.7821 H   0  0  0  0  0  0  0  0  0  0  0  0
    2.6968   -4.4588    0.6152 H   0  0  0  0  0  0  0  0  0  0  0  0
    0.6125   -3.0563    0.5667 H   0  0  0  0  0  0  0  0  0  0  0  0
    0.5959    3.1586   -1.2061 H   0  0  0  0  0  0  0  0  0  0  0  0
    2.6970    4.4925   -1.4637 H   0  0  0  0  0  0  0  0  0  0  0  0
    4.8438    3.6574   -0.4754 H   0  0  0  0  0  0  0  0  0  0  0  0
    4.8856    1.4849    0.7763 H   0  0  0  0  0  0  0  0  0  0  0  0
    2.7951    0.1531    1.0450 H   0  0  0  0  0  0  0  0  0  0  0  0
    1.1698    1.7719    2.5291 H   0  0  0  0  0  0  0  0  0  0  0  0
    0.6389    1.4100    4.9385 H   0  0  0  0  0  0  0  0  0  0  0  0
   -1.1135   -0.2545    5.6060 H   0  0  0  0  0  0  0  0  0  0  0  0
   -2.3481   -1.5461    3.8381 H   0  0  0  0  0  0  0  0  0  0  0  0
   -1.8336   -1.1980    1.4304 H   0  0  0  0  0  0  0  0  0  0  0  0
   -1.0369    0.5711   -2.6421 H   0  0  0  0  0  0  0  0  0  0  0  0
   -2.9523    1.8445   -3.6601 H   0  0  0  0  0  0  0  0  0  0  0  0
   -4.3225    3.3883   -2.2376 H   0  0  0  0  0  0  0  0  0  0  0  0
   -3.7780    3.6725    0.1910 H   0  0  0  0  0  0  0  0  0  0  0  0
   -1.8708    2.4056    1.2046 H   0  0  0  0  0  0  0  0  0  0  0  0
  1 15  1  0  0  0  0
  2  3  1  0  0  0  0
  2  1  1  0  0  0  0
  3  8  1  0  0  0  0
  4  5  1  0  0  0  0
  4  3  2  0  0  0  0
  5  6  2  0  0  0  0
  6 29  1  0  0  0  0
  6  7  1  0  0  0  0
  7 30  1  0  0  0  0
  8  7  2  0  0  0  0
  8 31  1  0  0  0  0
  9  1  1  0  0  0  0
  9 14  1  0  0  0  0
 10  9  2  0  0  0  0
 11 10  1  0  0  0  0
 11 12  2  0  0  0  0
 12 13  1  0  0  0  0
 13 14  2  0  0  0  0
 13 35  1  0  0  0  0
 14 36  1  0  0  0  0
 15 20  2  0  0  0  0
 15 16  1  0  0  0  0
 16 17  2  0  0  0  0
 17 18  1  0  0  0  0
 17 38  1  0  0  0  0
 18 39  1  0  0  0  0
 19 40  1  0  0  0  0
 19 18  2  0  0  0  0
 20 19  1  0  0  0  0
 21  1  1  0  0  0  0
 21 26  1  0  0  0  0
 22 21  2  0  0  0  0
 23 22  1  0  0  0  0
 23 24  2  0  0  0  0
 24 25  1  0  0  0  0
 25 26  2  0  0  0  0
 25 45  1  0  0  0  0
 26 46  1  0  0  0  0
 27  4  1  0  0  0  0
 28  5  1  0  0  0  0
 32 10  1  0  0  0  0
 33 11  1  0  0  0  0
 34 12  1  0  0  0  0
 37 16  1  0  0  0  0
 41 20  1  0  0  0  0
 42 22  1  0  0  0  0
 43 23  1  0  0  0  0
 44 24  1  0  0  0  0
M  END
