7
q = 0.0, confidence = 0.994

 40 43  0  0  1  0  0  0  0  0999 V2000
    1.3378    0.7284   -0.5016 Si  0  0  0  0  0  0  0  0  0  0  0  0
    2.6372    1.2757   -1.4530 O   0  0  0  0  0  0  0  0  0  0  0  0
    0.7333   -0.8604   -0.8768 O   0  0  0  0  0  0  0  0  0  0  0  0
    1.0901    1.4132    1.0265 O   0  0  0  0  0  0  0  0  0  0  0  0
    2.8965   -0.4388    0.5407 N   0  3  1  0  0  0  0  0  0  0  0  0
   -1.2983    1.7654   -0.6571 N   0  0  0  0  0  0  0  0  0  0  0  0
   -1.9636    0.6504   -0.2734 N   0  0  0  0  0  2  0  0  0  0  0  0
   -0.0638    1.6637   -1.4195 C   0  0  0  0  0  0  0  0  0  0  0  0
   -1.9171    2.8870   -0.1906 C   0  0  1  0  0  3  0  0  0  0  0  0
    3.9640    1.0870   -1.0168 C   0  0  0  0  0  0  0  0  0  0  0  0
    1.5451   -2.0219   -0.6861 C   0  0  0  0  0  0  0  0  0  0  0  0
   -3.0395    1.0464    0.4420 C   0  0  0  0  0  0  0  0  0  0  0  0
   -3.0495    2.4546    0.5142 C   0  0  0  0  0  0  0  0  0  0  0  0
   -3.9583    0.0319    1.0411 C   0  0  0  0  0  0  0  0  0  0  0  0
    2.3557   -1.8148    0.5891 C   0  0  0  0  0  0  0  0  0  0  0  0
   -1.3859    4.2615   -0.4254 C   0  0  0  0  0  0  0  0  0  0  0  0
    1.6206    0.8067    2.1918 C   0  0  0  0  0  0  0  0  0  0  0  0
    4.0791   -0.2778   -0.3264 C   0  0  0  0  0  0  0  0  0  0  0  0
    3.0006    0.2290    1.8551 C   0  0  0  0  0  0  0  0  0  0  0  0
    4.6531    1.1337   -1.8867 H   0  0  0  0  0  0  0  0  0  0  0  0
    4.2653    1.9045   -0.3185 H   0  0  0  0  0  0  0  0  0  0  0  0
    0.8782   -2.9053   -0.6139 H   0  0  0  0  0  0  0  0  0  0  0  0
    2.1906   -2.1599   -1.5820 H   0  0  0  0  0  0  0  0  0  0  0  0
   -3.7846    3.0892    1.0191 H   0  0  0  0  0  0  0  0  0  0  0  0
    3.1620   -2.5704    0.7125 H   0  0  0  0  0  0  0  0  0  0  0  0
    1.6533   -1.8853    1.4448 H   0  0  0  0  0  0  0  0  0  0  0  0
    1.7145    1.5706    2.9919 H   0  0  0  0  0  0  0  0  0  0  0  0
    0.9207    0.0147    2.5430 H   0  0  0  0  0  0  0  0  0  0  0  0
    5.0286   -0.3908    0.2417 H   0  0  0  0  0  0  0  0  0  0  0  0
    4.0462   -1.0757   -1.0942 H   0  0  0  0  0  0  0  0  0  0  0  0
    3.3732   -0.4671    2.6376 H   0  0  0  0  0  0  0  0  0  0  0  0
    3.7340    1.0546    1.7535 H   0  0  0  0  0  0  0  0  0  0  0  0
   -3.4541   -0.4871    1.8841 H   0  0  0  0  0  0  0  0  0  0  0  0
   -4.8872    0.5037    1.4104 H   0  0  0  0  0  0  0  0  0  0  0  0
   -4.2248   -0.7457    0.2958 H   0  0  0  0  0  0  0  0  0  0  0  0
   -1.3024    4.5010   -1.5059 H   0  0  0  0  0  0  0  0  0  0  0  0
   -2.0590    5.0072    0.0353 H   0  0  0  0  0  0  0  0  0  0  0  0
   -0.3793    4.3839    0.0263 H   0  0  0  0  0  0  0  0  0  0  0  0
    0.2863    2.6885   -1.6388 H   0  0  0  0  0  0  0  0  0  0  0  0
   -0.2755    1.1719   -2.3922 H   0  0  0  0  0  0  0  0  0  0  0  0
  1  5  1  0  0  0  0
  1  4  1  0  0  0  0
  2 10  1  0  0  0  0
  2  1  1  0  0  0  0
  3 11  1  0  0  0  0
  3  1  1  0  0  0  0
  4 17  1  0  0  0  0
  5 18  1  6  0  0  0
  5 15  1  0  0  0  0
  5 19  1  0  0  0  0
  6  7  1  0  0  0  0
  6  9  1  0  0  0  0
  7 12  1  0  0  0  0
  8  6  1  0  0  0  0
  8  1  1  0  0  0  0
  9 16  1  1  0  0  0
  9 13  1  0  0  0  0
 10 18  1  0  0  0  0
 10 21  1  0  0  0  0
 11 22  1  0  0  0  0
 11 15  1  0  0  0  0
 12 13  2  0  0  0  0
 12 14  1  0  0  0  0
 13 24  1  0  0  0  0
 14 34  1  0  0  0  0
 14 33  1  0  0  0  0
 15 25  1  0  0  0  0
 15 26  1  0  0  0  0
 16 38  1  0  0  0  0
 16 37  1  0  0  0  0
 17 28  1  0  0  0  0
 17 27  1  0  0  0  0
 18 29  1  0  0  0  0
 19 17  1  0  0  0  0
 19 31  1  0  0  0  0
 20 10  1  0  0  0  0
 23 11  1  0  0  0  0
 30 18  1  0  0  0  0
 32 19  1  0  0  0  0
 35 14  1  0  0  0  0
 36 16  1  0  0  0  0
 39  8  1  0  0  0  0
 40  8  1  0  0  0  0
M  CHG  1   5   1
M  END
