1
q = 0.0, confidence = 0.968

 11 11  0  0  0  0  0  0  0  0999 V2000
    2.1388   -0.0471   -0.1194 N   0  0  0  0  0  2  0  0  0  0  0  0
    4.1423   -1.2392   -0.5642 N   0  0  0  0  0  0  0  0  0  0  0  0
    2.8185   -1.1586   -0.4811 C   0  0  0  0  0  3  0  0  0  0  0  0
    2.1798   -2.0285   -0.7163 H   0  0  0  0  0  0  0  0  0  0  0  0
    6.1811   -0.2840   -0.3746 O   0  0  0  0  0  0  0  0  0  0  0  0
    6.6169    0.5599   -0.1463 H   0  0  0  0  0  0  0  0  0  0  0  0
    4.8535   -0.1416   -0.2724 C   0  0  0  0  0  0  0  0  0  0  0  0
    4.2306    1.0703    0.1149 C   0  0  0  0  0  0  0  0  0  0  0  0
    4.7996    1.9806    0.3569 H   0  0  0  0  0  0  0  0  0  0  0  0
    2.8425    1.0690    0.1799 C   0  0  0  0  0  0  0  0  0  0  0  0
    2.2469    1.9518    0.4621 H   0  0  0  0  0  0  0  0  0  0  0  0
  1 10  1  0  0  0  0
  2  3  1  0  0  0  0
  2  7  2  0  0  0  0
  3  1  1  0  0  0  0
  4  3  1  0  0  0  0
  5  7  1  0  0  0  0
  5  6  1  0  0  0  0
  7  8  1  0  0  0  0
  8 10  2  0  0  0  0
  8  9  1  0  0  0  0
 10 11  1  0  0  0  0
M  END
