1
q = 0.0, confidence = 0.998

 22 21  0  0  1  0  0  0  0  0999 V2000
   -1.8361    0.1097   -0.3026 N   0  0  0  0  0  2  0  0  0  0  0  0
   -1.9258    0.5976   -1.1988 H   0  0  0  0  0  0  0  0  0  0  0  0
   -2.9024    0.1216    0.4672 C   0  0  1  0  0  3  0  0  0  0  0  0
   -2.8268   -0.5447    1.8126 C   0  0  0  0  0  0  0  0  0  0  0  0
   -3.4453   -1.4626    1.8320 H   0  0  0  0  0  0  0  0  0  0  0  0
   -3.1581    0.1370    2.6212 H   0  0  0  0  0  0  0  0  0  0  0  0
   -1.7799   -0.8516    1.9894 H   0  0  0  0  0  0  0  0  0  0  0  0
   -4.0623    0.7353    0.0871 N   0  0  0  0  0  0  0  0  0  0  0  0
   -5.2882    0.6474    0.8836 C   0  0  0  0  0  0  0  0  0  0  0  0
   -5.8534    1.5919    0.7358 H   0  0  0  0  0  0  0  0  0  0  0  0
   -5.0213    0.6206    1.9563 H   0  0  0  0  0  0  0  0  0  0  0  0
   -6.1534   -0.5615    0.5200 C   0  0  0  0  0  0  0  0  0  0  0  0
   -7.0605   -0.5967    1.1561 H   0  0  0  0  0  0  0  0  0  0  0  0
   -5.5913   -1.5067    0.6551 H   0  0  0  0  0  0  0  0  0  0  0  0
   -6.4837   -0.5193   -0.5376 H   0  0  0  0  0  0  0  0  0  0  0  0
   -4.1907    1.3069   -1.2550 C   0  0  0  0  0  0  0  0  0  0  0  0
   -5.2657    1.2847   -1.5233 H   0  0  0  0  0  0  0  0  0  0  0  0
   -3.6912    0.6290   -1.9825 H   0  0  0  0  0  0  0  0  0  0  0  0
   -3.6478    2.7332   -1.3678 C   0  0  0  0  0  0  0  0  0  0  0  0
   -3.7840    3.1184   -2.3981 H   0  0  0  0  0  0  0  0  0  0  0  0
   -2.5694    2.7876   -1.1207 H   0  0  0  0  0  0  0  0  0  0  0  0
   -4.1806    3.4140   -0.6738 H   0  0  0  0  0  0  0  0  0  0  0  0
  2  1  1  0  0  0  0
  3  1  1  1  0  0  0
  3  4  1  0  0  0  0
  4  5  1  0  0  0  0
  4  7  1  0  0  0  0
  4  6  1  0  0  0  0
  8  3  1  0  0  0  0
  8  9  1  0  0  0  0
  9 11  1  0  0  0  0
 10  9  1  0  0  0  0
 12 14  1  0  0  0  0
 12  9  1  0  0  0  0
 12 13  1  0  0  0  0
 15 12  1  0  0  0  0
 16  8  1  0  0  0  0
 17 16  1  0  0  0  0
 18 16  1  0  0  0  0
 19 16  1  0  0  0  0
 19 21  1  0  0  0  0
 19 22  1  0  0  0  0
 20 19  1  0  0  0  0
M  END
