2
q = 0.0, confidence = 0.998

 30 32  0  0  1  0  0  0  0  0999 V2000
    0.2980    2.8964   -0.2235 N   0  0  0  0  0  0  0  0  0  0  0  0
   -0.2749    0.7502    0.0475 N   0  0  0  0  0  2  0  0  0  0  0  0
    2.2275   -0.1768   -0.6107 N   0  0  0  0  0  0  0  0  0  0  0  0
   -1.4361    1.5001    0.1220 C   0  0  0  0  0  0  0  0  0  0  0  0
   -1.0829    2.8678   -0.0506 C   0  0  0  0  0  0  0  0  0  0  0  0
    0.7501    1.5948   -0.1472 C   0  0  2  0  0  3  0  0  0  0  0  0
    2.1345    1.1065   -0.2012 C   0  0  0  0  0  0  0  0  0  0  0  0
    3.4182   -0.7987   -0.5935 C   0  0  0  0  0  0  0  0  0  0  0  0
   -2.0439    3.8915   -0.0331 C   0  0  0  0  0  0  0  0  0  0  0  0
   -1.7722    4.9490   -0.1615 H   0  0  0  0  0  0  0  0  0  0  0  0
   -2.7727    1.1198    0.3417 C   0  0  0  0  0  0  0  0  0  0  0  0
   -3.0420    0.0623    0.4940 H   0  0  0  0  0  0  0  0  0  0  0  0
    3.2529    1.8473    0.2321 C   0  0  0  0  0  0  0  0  0  0  0  0
    3.1531    2.8727    0.6112 H   0  0  0  0  0  0  0  0  0  0  0  0
    1.0606    4.0851   -0.5521 C   0  0  0  0  0  0  0  0  0  0  0  0
    1.9491    3.8099   -1.1483 H   0  0  0  0  0  0  0  0  0  0  0  0
    1.3871    4.6312    0.3576 H   0  0  0  0  0  0  0  0  0  0  0  0
    0.4295    4.7604   -1.1612 H   0  0  0  0  0  0  0  0  0  0  0  0
   -3.7272    2.1415    0.3594 C   0  0  0  0  0  0  0  0  0  0  0  0
   -4.7832    1.8832    0.5284 H   0  0  0  0  0  0  0  0  0  0  0  0
   -3.3730    3.5011    0.1719 C   0  0  0  0  0  0  0  0  0  0  0  0
   -4.1587    4.2708    0.1976 H   0  0  0  0  0  0  0  0  0  0  0  0
    4.5011    1.2096    0.2300 C   0  0  0  0  0  0  0  0  0  0  0  0
    5.3974    1.7485    0.5719 H   0  0  0  0  0  0  0  0  0  0  0  0
    4.5895   -0.1257   -0.1824 C   0  0  0  0  0  0  0  0  0  0  0  0
    5.5554   -0.6522   -0.1822 H   0  0  0  0  0  0  0  0  0  0  0  0
    3.4159   -2.2375   -1.0259 C   0  0  0  0  0  0  0  0  0  0  0  0
    3.0709   -2.3187   -2.0770 H   0  0  0  0  0  0  0  0  0  0  0  0
    2.6767   -2.7975   -0.4174 H   0  0  0  0  0  0  0  0  0  0  0  0
    4.4132   -2.7059   -0.9334 H   0  0  0  0  0  0  0  0  0  0  0  0
  1  6  1  0  0  0  0
  1  5  1  0  0  0  0
  2  4  1  0  0  0  0
  3  8  2  0  0  0  0
  3  7  1  0  0  0  0
  4 11  1  0  0  0  0
  5  9  1  0  0  0  0
  5  4  2  0  0  0  0
  6  7  1  1  0  0  0
  6  2  1  0  0  0  0
  7 13  2  0  0  0  0
  8 25  1  0  0  0  0
  9 21  2  0  0  0  0
 10  9  1  0  0  0  0
 11 19  2  0  0  0  0
 11 12  1  0  0  0  0
 13 14  1  0  0  0  0
 15  1  1  0  0  0  0
 15 17  1  0  0  0  0
 16 15  1  0  0  0  0
 18 15  1  0  0  0  0
 19 20  1  0  0  0  0
 21 22  1  0  0  0  0
 21 19  1  0  0  0  0
 23 13  1  0  0  0  0
 23 24  1  0  0  0  0
 25 26  1  0  0  0  0
 25 23  2  0  0  0  0
 27 30  1  0  0  0  0
 27  8  1  0  0  0  0
 27 29  1  0  0  0  0
 28 27  1  0  0  0  0
M  END
