1
q = 0.0, confidence = 0.996

 26 28  0  0  0  0  0  0  0  0999 V2000
    0.3648    0.1476   -1.4145 N   0  0  0  0  0  2  0  0  0  0  0  0
   -1.8656    0.7405   -1.2188 N   0  0  0  0  0  0  0  0  0  0  0  0
    1.5718    0.3083   -1.9661 C   0  0  0  0  0  0  0  0  0  0  0  0
    2.3285   -0.4329   -1.6596 H   0  0  0  0  0  0  0  0  0  0  0  0
    1.8511    1.3370   -2.8985 C   0  0  0  0  0  0  0  0  0  0  0  0
    2.8700    1.4193   -3.3018 H   0  0  0  0  0  0  0  0  0  0  0  0
    0.8439    2.2126   -3.2776 C   0  0  0  0  0  0  0  0  0  0  0  0
    1.0292    3.0231   -4.0000 H   0  0  0  0  0  0  0  0  0  0  0  0
   -0.4539    2.0441   -2.7273 C   0  0  0  0  0  0  0  0  0  0  0  0
   -0.6707    0.9826   -1.7825 C   0  0  0  0  0  0  0  0  0  0  0  0
   -1.5881    2.8453   -3.0487 C   0  0  0  0  0  3  0  0  0  0  0  0
   -1.4775    3.6658   -3.7748 H   0  0  0  0  0  0  0  0  0  0  0  0
   -2.8115    2.5759   -2.4642 C   0  0  0  0  0  0  0  0  0  0  0  0
   -3.6940    3.1743   -2.7282 H   0  0  0  0  0  0  0  0  0  0  0  0
   -2.9234    1.4901   -1.5322 C   0  0  0  0  0  0  0  0  0  0  0  0
   -4.2007    1.1254   -0.8727 C   0  0  0  0  0  0  0  0  0  0  0  0
   -4.2943   -0.1306   -0.2266 C   0  0  0  0  0  0  0  0  0  0  0  0
   -3.4360   -0.8195   -0.2375 H   0  0  0  0  0  0  0  0  0  0  0  0
   -5.4698   -0.5018    0.4354 C   0  0  0  0  0  0  0  0  0  0  0  0
   -5.5036   -1.4819    0.9346 H   0  0  0  0  0  0  0  0  0  0  0  0
   -6.5740    0.3673    0.4578 C   0  0  0  0  0  0  0  0  0  0  0  0
   -7.4999    0.0758    0.9773 H   0  0  0  0  0  0  0  0  0  0  0  0
   -6.4940    1.6136   -0.1870 C   0  0  0  0  0  0  0  0  0  0  0  0
   -7.3538    2.3005   -0.1689 H   0  0  0  0  0  0  0  0  0  0  0  0
   -5.3176    1.9912   -0.8484 C   0  0  0  0  0  0  0  0  0  0  0  0
   -5.2677    2.9806   -1.3270 H   0  0  0  0  0  0  0  0  0  0  0  0
  3  4  1  0  0  0  0
  3  1  1  0  0  0  0
  5  3  2  0  0  0  0
  6  5  1  0  0  0  0
  7  5  1  0  0  0  0
  7  9  2  0  0  0  0
  8  7  1  0  0  0  0
  9 10  1  0  0  0  0
 10  1  1  0  0  0  0
 10  2  2  0  0  0  0
 11  9  1  0  0  0  0
 11 13  1  0  0  0  0
 12 11  1  0  0  0  0
 13 15  2  0  0  0  0
 14 13  1  0  0  0  0
 15  2  1  0  0  0  0
 15 16  1  0  0  0  0
 16 25  2  0  0  0  0
 16 17  1  0  0  0  0
 17 19  2  0  0  0  0
 18 17  1  0  0  0  0
 19 21  1  0  0  0  0
 19 20  1  0  0  0  0
 21 22  1  0  0  0  0
 23 24  1  0  0  0  0
 23 21  2  0  0  0  0
 25 23  1  0  0  0  0
 26 25  1  0  0  0  0
M  END
