1
q = 0.0, confidence = 1.0

 38 42  0  0  1  0  0  0  0  0999 V2000
   -0.8725    0.2536   -1.5261 N   0  0  0  0  0  2  0  0  0  0  0  0
   -1.5607    2.2541   -2.2299 N   0  0  0  0  0  0  0  0  0  0  0  0
   -1.5135    3.2322   -2.5118 H   0  0  0  0  0  0  0  0  0  0  0  0
    4.3682   -0.4504   -1.1248 N   0  0  0  0  0  0  0  0  0  0  0  0
    3.5302   -1.0571   -1.2286 H   0  0  0  0  0  0  0  0  0  0  0  0
    5.6104    1.3794   -0.6409 N   0  0  0  0  0  0  0  0  0  0  0  0
   -2.2115    0.1516   -1.8970 C   0  0  0  0  0  0  0  0  0  0  0  0
   -3.0916   -0.9465   -1.8738 C   0  0  0  0  0  0  0  0  0  0  0  0
   -2.7546   -1.9333   -1.5286 H   0  0  0  0  0  0  0  0  0  0  0  0
   -4.4125   -0.7224   -2.2743 C   0  0  0  0  0  0  0  0  0  0  0  0
   -5.1327   -1.5525   -2.2432 H   0  0  0  0  0  0  0  0  0  0  0  0
   -4.8566    0.5563   -2.6908 C   0  0  0  0  0  0  0  0  0  0  0  0
   -5.9115    0.6901   -2.9698 H   0  0  0  0  0  0  0  0  0  0  0  0
   -3.9912    1.6552   -2.7382 C   0  0  0  0  0  0  0  0  0  0  0  0
   -4.3400    2.6484   -3.0540 H   0  0  0  0  0  0  0  0  0  0  0  0
   -2.6674    1.4269   -2.3364 C   0  0  0  0  0  0  0  0  0  0  0  0
   -0.5018    1.5258   -1.7455 C   0  0  1  0  0  3  0  0  0  0  0  0
    0.8216    2.1064   -1.5050 C   0  0  0  0  0  0  0  0  0  0  0  0
    0.9859    3.4996   -1.3266 C   0  0  0  0  0  0  0  0  0  0  0  0
    0.1184    4.1747   -1.3653 H   0  0  0  0  0  0  0  0  0  0  0  0
    2.2573    4.0233   -1.0469 C   0  0  0  0  0  0  0  0  0  0  0  0
    2.3793    5.1085   -0.9094 H   0  0  0  0  0  0  0  0  0  0  0  0
    3.3660    3.1787   -0.9277 C   0  0  0  0  0  0  0  0  0  0  0  0
    4.3694    3.5619   -0.6925 H   0  0  0  0  0  0  0  0  0  0  0  0
    3.2230    1.7831   -1.1147 C   0  0  0  0  0  0  0  0  0  0  0  0
    1.9496    1.2650   -1.4221 C   0  0  0  0  0  0  0  0  0  0  0  0
    1.8241    0.1885   -1.5997 H   0  0  0  0  0  0  0  0  0  0  0  0
    4.4003    0.9236   -0.9673 C   0  0  0  0  0  0  0  0  0  0  0  0
    6.4065    0.2572   -0.5528 C   0  0  0  0  0  0  0  0  0  0  0  0
    7.7683    0.1230   -0.2069 C   0  0  0  0  0  0  0  0  0  0  0  0
    8.3719    1.0139    0.0197 H   0  0  0  0  0  0  0  0  0  0  0  0
    8.3080   -1.1662   -0.1583 C   0  0  0  0  0  0  0  0  0  0  0  0
    9.3665   -1.3004    0.1111 H   0  0  0  0  0  0  0  0  0  0  0  0
    7.5241   -2.3137   -0.4515 C   0  0  0  0  0  0  0  0  0  0  0  0
    7.9925   -3.3083   -0.4028 H   0  0  0  0  0  0  0  0  0  0  0  0
    6.1733   -2.2103   -0.8049 C   0  0  0  0  0  0  0  0  0  0  0  0
    5.5601   -3.0929   -1.0392 H   0  0  0  0  0  0  0  0  0  0  0  0
    5.6341   -0.9138   -0.8487 C   0  0  0  0  0  0  0  0  0  0  0  0
  2 17  1  0  0  0  0
  3  2  1  0  0  0  0
  4 28  1  0  0  0  0
  4 38  1  0  0  0  0
  5  4  1  0  0  0  0
  6 29  1  0  0  0  0
  7  8  1  0  0  0  0
  7  1  1  0  0  0  0
  8  9  1  0  0  0  0
 10 11  1  0  0  0  0
 10  8  2  0  0  0  0
 12 10  1  0  0  0  0
 13 12  1  0  0  0  0
 14 12  2  0  0  0  0
 14 16  1  0  0  0  0
 15 14  1  0  0  0  0
 16  2  1  0  0  0  0
 16  7  2  0  0  0  0
 17  1  1  0  0  0  0
 17 18  1  1  0  0  0
 18 26  2  0  0  0  0
 18 19  1  0  0  0  0
 19 21  2  0  0  0  0
 20 19  1  0  0  0  0
 21 23  1  0  0  0  0
 21 22  1  0  0  0  0
 23 24  1  0  0  0  0
 25 28  1  0  0  0  0
 25 23  2  0  0  0  0
 26 25  1  0  0  0  0
 27 26  1  0  0  0  0
 28  6  2  0  0  0  0
 29 30  1  0  0  0  0
 30 32  2  0  0  0  0
 30 31  1  0  0  0  0
 32 33  1  0  0  0  0
 34 35  1  0  0  0  0
 34 32  1  0  0  0  0
 36 34  2  0  0  0  0
 37 36  1  0  0  0  0
 38 36  1  0  0  0  0
 38 29  2  0  0  0  0
M  END
