1
q = 0.0, confidence = 1.0

 30 33  0  0  0  0  0  0  0  0999 V2000
   -0.7945    1.2661   -0.1192 N   0  0  0  0  0  2  0  0  0  0  0  0
    4.0720    2.0778    0.2132 O   0  0  0  0  0  0  0  0  0  0  0  0
    2.6067    3.7384    0.3921 O   0  0  0  0  0  0  0  0  0  0  0  0
   -3.5830    4.3326    0.0931 C   0  0  0  0  0  0  0  0  0  0  0  0
   -4.2849    5.1773    0.1557 H   0  0  0  0  0  0  0  0  0  0  0  0
    0.0111    3.3298    0.0962 N   0  0  0  0  0  0  0  0  0  0  0  0
    0.7672    4.0232    0.2165 H   0  0  0  0  0  0  0  0  0  0  0  0
   -1.3601    3.4658    0.0729 C   0  0  0  0  0  0  0  0  0  0  0  0
    2.7691    2.5408    0.1971 C   0  0  0  0  0  0  0  0  0  0  0  0
   -1.8688    2.1423   -0.0729 C   0  0  0  0  0  0  0  0  0  0  0  0
   -4.0953    3.0178   -0.0585 C   0  0  0  0  0  0  0  0  0  0  0  0
   -5.1842    2.8733   -0.1155 H   0  0  0  0  0  0  0  0  0  0  0  0
    1.7139    1.5440   -0.0624 C   0  0  0  0  0  0  0  0  0  0  0  0
    3.4258   -0.1833   -0.3463 C   0  0  0  0  0  0  0  0  0  0  0  0
    5.7794    0.4476    0.0054 C   0  0  0  0  0  0  0  0  0  0  0  0
    6.5146    1.2273    0.2481 H   0  0  0  0  0  0  0  0  0  0  0  0
   -3.2541    1.9058   -0.1438 C   0  0  0  0  0  0  0  0  0  0  0  0
   -3.6327    0.8838   -0.2797 H   0  0  0  0  0  0  0  0  0  0  0  0
    4.4182    0.7835   -0.0396 C   0  0  0  0  0  0  0  0  0  0  0  0
    0.3304    2.0038   -0.0254 C   0  0  0  0  0  0  0  0  0  0  0  0
    2.0616    0.2400   -0.3514 C   0  0  0  0  0  3  0  0  0  0  0  0
    1.2628   -0.4927   -0.5776 H   0  0  0  0  0  0  0  0  0  0  0  0
    3.8390   -1.5127   -0.6192 C   0  0  0  0  0  0  0  0  0  0  0  0
    3.0706   -2.2624   -0.8611 H   0  0  0  0  0  0  0  0  0  0  0  0
    5.1894   -1.8539   -0.5780 C   0  0  0  0  0  0  0  0  0  0  0  0
    5.5049   -2.8857   -0.7897 H   0  0  0  0  0  0  0  0  0  0  0  0
   -2.2085    4.5823    0.1602 C   0  0  0  0  0  0  0  0  0  0  0  0
   -1.8099    5.6003    0.2734 H   0  0  0  0  0  0  0  0  0  0  0  0
    6.1561   -0.8725   -0.2643 C   0  0  0  0  0  0  0  0  0  0  0  0
    7.2214   -1.1456   -0.2323 H   0  0  0  0  0  0  0  0  0  0  0  0
  1 10  1  0  0  0  0
  1 20  1  0  0  0  0
  4  5  1  0  0  0  0
  4 27  1  0  0  0  0
  6  7  1  0  0  0  0
  8  6  1  0  0  0  0
  8 27  2  0  0  0  0
  9  2  1  0  0  0  0
  9  3  2  0  0  0  0
 10  8  1  0  0  0  0
 11  4  2  0  0  0  0
 12 11  1  0  0  0  0
 13 20  2  0  0  0  0
 13  9  1  0  0  0  0
 14 19  1  0  0  0  0
 15 16  1  0  0  0  0
 17 10  2  0  0  0  0
 17 11  1  0  0  0  0
 18 17  1  0  0  0  0
 19 15  2  0  0  0  0
 19  2  1  0  0  0  0
 20  6  1  0  0  0  0
 21 14  1  0  0  0  0
 21 13  1  0  0  0  0
 22 21  1  0  0  0  0
 23 25  1  0  0  0  0
 23 14  2  0  0  0  0
 24 23  1  0  0  0  0
 25 29  2  0  0  0  0
 26 25  1  0  0  0  0
 27 28  1  0  0  0  0
 29 30  1  0  0  0  0
 29 15  1  0  0  0  0
M  END
