4
q = 0.0, confidence = 0.99

 30 33  0  0  0  0  0  0  0  0999 V2000
    2.9914    2.6156    0.1327 O   0  0  0  0  0  0  0  0  0  0  0  0
   -1.1951    3.3570    0.0192 N   0  0  0  0  0  0  0  0  0  0  0  0
   -0.5299    4.1437    0.0871 H   0  0  0  0  0  0  0  0  0  0  0  0
   -1.7476    1.2038   -0.0826 N   0  0  0  0  0  2  0  0  0  0  0  0
    1.2120    0.5109   -0.2515 C   0  0  0  0  0  3  0  0  0  0  0  0
    0.5054   -0.3267   -0.4080 H   0  0  0  0  0  0  0  0  0  0  0  0
    1.3372    4.0959    0.2230 O   0  0  0  0  0  0  0  0  0  0  0  0
    0.7100    1.7836   -0.0629 C   0  0  0  0  0  0  0  0  0  0  0  0
    5.4045   -0.0876   -0.1434 C   0  0  0  0  0  0  0  0  0  0  0  0
   -0.7184    2.0743   -0.0398 C   0  0  0  0  0  0  0  0  0  0  0  0
    2.6159    0.2578   -0.2332 C   0  0  0  0  0  0  0  0  0  0  0  0
   -2.5727    3.3263    0.0118 C   0  0  0  0  0  0  0  0  0  0  0  0
    3.4876    1.3579   -0.0233 C   0  0  0  0  0  0  0  0  0  0  0  0
    3.1898   -1.0282   -0.4005 C   0  0  0  0  0  0  0  0  0  0  0  0
    2.5211   -1.8869   -0.5623 H   0  0  0  0  0  0  0  0  0  0  0  0
   -2.9199    1.9459   -0.0578 C   0  0  0  0  0  0  0  0  0  0  0  0
   -4.2672    1.5400   -0.0824 C   0  0  0  0  0  0  0  0  0  0  0  0
   -4.5233    0.4736   -0.1443 H   0  0  0  0  0  0  0  0  0  0  0  0
    1.6379    2.9160    0.1080 C   0  0  0  0  0  0  0  0  0  0  0  0
    4.8800    1.1999    0.0247 C   0  0  0  0  0  0  0  0  0  0  0  0
    5.5220    2.0749    0.1895 H   0  0  0  0  0  0  0  0  0  0  0  0
   -3.5483    4.3363    0.0593 C   0  0  0  0  0  0  0  0  0  0  0  0
   -3.2741    5.3992    0.1134 H   0  0  0  0  0  0  0  0  0  0  0  0
    4.5694   -1.2088   -0.3572 C   0  0  0  0  0  0  0  0  0  0  0  0
    5.0139   -2.2049   -0.4850 H   0  0  0  0  0  0  0  0  0  0  0  0
   -5.2347    2.5464   -0.0356 C   0  0  0  0  0  0  0  0  0  0  0  0
   -6.2988    2.2686   -0.0550 H   0  0  0  0  0  0  0  0  0  0  0  0
   -4.8830    3.9196    0.0343 C   0  0  0  0  0  0  0  0  0  0  0  0
   -5.6811    4.6759    0.0693 H   0  0  0  0  0  0  0  0  0  0  0  0
    7.2816   -0.3349   -0.0838 Br  0  0  0  0  0  0  0  0  0  0  0  0
  2  3  1  0  0  0  0
  4 16  1  0  0  0  0
  4 10  1  0  0  0  0
  5 11  1  0  0  0  0
  5  8  1  0  0  0  0
  6  5  1  0  0  0  0
  8 10  2  0  0  0  0
  8 19  1  0  0  0  0
  9 30  1  0  0  0  0
  9 20  1  0  0  0  0
 10  2  1  0  0  0  0
 11 13  1  0  0  0  0
 12  2  1  0  0  0  0
 12 22  1  0  0  0  0
 13 20  2  0  0  0  0
 13  1  1  0  0  0  0
 14 24  1  0  0  0  0
 14 11  2  0  0  0  0
 15 14  1  0  0  0  0
 16 12  2  0  0  0  0
 17 16  1  0  0  0  0
 17 26  2  0  0  0  0
 18 17  1  0  0  0  0
 19  1  1  0  0  0  0
 19  7  2  0  0  0  0
 20 21  1  0  0  0  0
 22 23  1  0  0  0  0
 24  9  2  0  0  0  0
 25 24  1  0  0  0  0
 26 28  1  0  0  0  0
 27 26  1  0  0  0  0
 28 22  2  0  0  0  0
 28 29  1  0  0  0  0
M  END
