3
q = 0.0, confidence = 0.968

 30 33  0  0  0  0  0  0  0  0999 V2000
    4.7934   -2.9076   -0.2996 Br  0  0  0  0  0  0  0  0  0  0  0  0
    5.4647    2.7356    0.1696 Br  0  0  0  0  0  0  0  0  0  0  0  0
   -2.2942    1.1579   -0.0910 N   0  0  0  0  0  2  0  0  0  0  0  0
    2.4205    2.6630   -0.0295 O   0  0  0  0  0  0  0  0  0  0  0  0
   -1.7856    3.3225   -0.1590 N   0  0  0  0  0  0  0  0  0  0  0  0
   -1.1346    4.1246   -0.1555 H   0  0  0  0  0  0  0  0  0  0  0  0
    0.7407    4.1216   -0.0243 O   0  0  0  0  0  0  0  0  0  0  0  0
   -3.4803    1.8731   -0.0904 C   0  0  0  0  0  0  0  0  0  0  0  0
    0.1545    1.7869   -0.1704 C   0  0  0  0  0  0  0  0  0  0  0  0
   -1.2814    2.0500   -0.1405 C   0  0  0  0  0  0  0  0  0  0  0  0
    0.6835    0.5198   -0.3002 C   0  0  0  0  0  3  0  0  0  0  0  0
    0.0062   -0.3446   -0.4331 H   0  0  0  0  0  0  0  0  0  0  0  0
   -3.1626    3.2623   -0.1270 C   0  0  0  0  0  0  0  0  0  0  0  0
    2.0898    0.2802   -0.2431 C   0  0  0  0  0  0  0  0  0  0  0  0
    4.8727   -0.0573   -0.0885 C   0  0  0  0  0  0  0  0  0  0  0  0
    5.9607   -0.1933   -0.0296 H   0  0  0  0  0  0  0  0  0  0  0  0
   -4.8174    1.4378   -0.0587 C   0  0  0  0  0  0  0  0  0  0  0  0
   -5.0488    0.3642   -0.0441 H   0  0  0  0  0  0  0  0  0  0  0  0
    2.9359    1.4083   -0.0955 C   0  0  0  0  0  0  0  0  0  0  0  0
   -4.1607    4.2509   -0.1270 C   0  0  0  0  0  0  0  0  0  0  0  0
   -3.9108    5.3208   -0.1542 H   0  0  0  0  0  0  0  0  0  0  0  0
    4.0199   -1.1753   -0.2259 C   0  0  0  0  0  0  0  0  0  0  0  0
    1.0625    2.9424   -0.0665 C   0  0  0  0  0  0  0  0  0  0  0  0
    4.3333    1.2340   -0.0213 C   0  0  0  0  0  0  0  0  0  0  0  0
    2.6355   -1.0266   -0.3045 C   0  0  0  0  0  0  0  0  0  0  0  0
    1.9544   -1.8881   -0.3892 H   0  0  0  0  0  0  0  0  0  0  0  0
   -5.4860    3.8049   -0.0927 C   0  0  0  0  0  0  0  0  0  0  0  0
   -6.3003    4.5444   -0.0926 H   0  0  0  0  0  0  0  0  0  0  0  0
   -5.8077    2.4231   -0.0608 C   0  0  0  0  0  0  0  0  0  0  0  0
   -6.8657    2.1227   -0.0397 H   0  0  0  0  0  0  0  0  0  0  0  0
  1 22  1  0  0  0  0
  3  8  1  0  0  0  0
  5  6  1  0  0  0  0
  5 10  1  0  0  0  0
  5 13  1  0  0  0  0
  8 17  1  0  0  0  0
  9 10  2  0  0  0  0
  9 23  1  0  0  0  0
 10  3  1  0  0  0  0
 11 14  1  0  0  0  0
 11  9  1  0  0  0  0
 12 11  1  0  0  0  0
 13 20  1  0  0  0  0
 13  8  2  0  0  0  0
 14 19  1  0  0  0  0
 15 16  1  0  0  0  0
 15 24  1  0  0  0  0
 17 18  1  0  0  0  0
 19  4  1  0  0  0  0
 19 24  2  0  0  0  0
 20 27  2  0  0  0  0
 21 20  1  0  0  0  0
 22 15  2  0  0  0  0
 23  4  1  0  0  0  0
 23  7  2  0  0  0  0
 24  2  1  0  0  0  0
 25 14  2  0  0  0  0
 25 22  1  0  0  0  0
 26 25  1  0  0  0  0
 27 28  1  0  0  0  0
 27 29  1  0  0  0  0
 29 17  2  0  0  0  0
 29 30  1  0  0  0  0
M  END
