1
q = 0.0, confidence = 0.998

 42 45  0  0  1  0  0  0  0  0999 V2000
    1.4516   -0.4531   -0.7271 N   0  0  0  0  0  2  0  0  0  0  0  0
   -6.3543   -0.1620    0.2098 O   0  0  0  0  0  0  0  0  0  0  0  0
    1.1905    0.7931   -1.1984 C   0  0  0  0  0  3  0  0  0  0  0  0
    2.0728    1.4150   -1.4028 H   0  0  0  0  0  0  0  0  0  0  0  0
   -0.1026    1.2659   -1.3854 C   0  0  0  0  0  0  0  0  0  0  0  0
   -0.2453    2.2850   -1.7751 H   0  0  0  0  0  0  0  0  0  0  0  0
   -1.2345    0.4626   -1.0674 C   0  0  0  0  0  0  0  0  0  0  0  0
   -0.9254   -0.8523   -0.6161 C   0  0  0  0  0  0  0  0  0  0  0  0
   -1.7156   -1.5904   -0.4306 H   0  0  0  0  0  0  0  0  0  0  0  0
    0.3952   -1.2629   -0.4651 C   0  0  0  0  0  0  0  0  0  0  0  0
    0.6573   -2.2868   -0.1638 H   0  0  0  0  0  0  0  0  0  0  0  0
   -2.5602    0.9995   -1.2697 C   0  0  0  0  0  3  0  0  0  0  0  0
   -2.5998    1.8841   -1.9270 H   0  0  0  0  0  0  0  0  0  0  0  0
   -3.7813    0.5939   -0.7421 C   0  0  0  0  0  0  0  0  0  0  0  0
   -5.0075    1.2325   -1.1765 C   0  0  0  0  0  0  0  0  0  0  0  0
   -4.9537    2.0244   -1.9352 H   0  0  0  0  0  0  0  0  0  0  0  0
   -6.2361    0.8540   -0.7088 C   0  0  1  0  0  3  0  0  0  0  0  0
   -5.2309   -0.7574    0.7222 C   0  0  0  0  0  0  0  0  0  0  0  0
   -3.9809   -0.4117    0.2828 C   0  0  0  0  0  0  0  0  0  0  0  0
   -3.1204   -0.8721    0.7786 H   0  0  0  0  0  0  0  0  0  0  0  0
   -7.5399    1.4056   -1.1094 C   0  0  0  0  0  0  0  0  0  0  0  0
   -7.6342    2.6387   -1.7965 C   0  0  0  0  0  0  0  0  0  0  0  0
   -6.7253    3.2180   -2.0142 H   0  0  0  0  0  0  0  0  0  0  0  0
   -8.8793    3.1463   -2.1820 C   0  0  0  0  0  0  0  0  0  0  0  0
   -8.9327    4.1096   -2.7111 H   0  0  0  0  0  0  0  0  0  0  0  0
  -10.0569    2.4383   -1.8866 C   0  0  0  0  0  0  0  0  0  0  0  0
  -11.0352    2.8412   -2.1889 H   0  0  0  0  0  0  0  0  0  0  0  0
   -9.9761    1.2172   -1.1997 C   0  0  0  0  0  0  0  0  0  0  0  0
  -10.8924    0.6548   -0.9650 H   0  0  0  0  0  0  0  0  0  0  0  0
   -8.7318    0.7039   -0.8121 C   0  0  0  0  0  0  0  0  0  0  0  0
   -8.6700   -0.2581   -0.2853 H   0  0  0  0  0  0  0  0  0  0  0  0
   -5.5428   -1.7419    1.7712 C   0  0  0  0  0  0  0  0  0  0  0  0
   -6.8168   -1.7490    2.3858 C   0  0  0  0  0  0  0  0  0  0  0  0
   -7.5661   -1.0085    2.0745 H   0  0  0  0  0  0  0  0  0  0  0  0
   -7.1156   -2.6756    3.3929 C   0  0  0  0  0  0  0  0  0  0  0  0
   -8.1098   -2.6636    3.8645 H   0  0  0  0  0  0  0  0  0  0  0  0
   -6.1536   -3.6113    3.8033 C   0  0  0  0  0  0  0  0  0  0  0  0
   -6.3902   -4.3395    4.5935 H   0  0  0  0  0  0  0  0  0  0  0  0
   -4.8867   -3.6167    3.1948 C   0  0  0  0  0  0  0  0  0  0  0  0
   -4.1297   -4.3537    3.5020 H   0  0  0  0  0  0  0  0  0  0  0  0
   -4.5840   -2.6953    2.1870 C   0  0  0  0  0  0  0  0  0  0  0  0
   -3.5972   -2.7310    1.7030 H   0  0  0  0  0  0  0  0  0  0  0  0
  1 10  1  0  0  0  0
  2 18  1  0  0  0  0
  3  1  1  0  0  0  0
  4  3  1  0  0  0  0
  5  3  1  0  0  0  0
  5  7  2  0  0  0  0
  6  5  1  0  0  0  0
  7  8  1  0  0  0  0
  8 10  2  0  0  0  0
  8  9  1  0  0  0  0
 10 11  1  0  0  0  0
 12  7  1  0  0  0  0
 12 14  1  0  0  0  0
 13 12  1  0  0  0  0
 14 19  1  0  0  0  0
 15 14  2  0  0  0  0
 15 17  1  0  0  0  0
 16 15  1  0  0  0  0
 17 21  1  6  0  0  0
 17  2  1  0  0  0  0
 18 32  1  0  0  0  0
 19 18  2  0  0  0  0
 19 20  1  0  0  0  0
 21 30  1  0  0  0  0
 22 21  2  0  0  0  0
 23 22  1  0  0  0  0
 24 26  2  0  0  0  0
 24 22  1  0  0  0  0
 25 24  1  0  0  0  0
 26 28  1  0  0  0  0
 27 26  1  0  0  0  0
 28 29  1  0  0  0  0
 28 30  2  0  0  0  0
 30 31  1  0  0  0  0
 32 41  2  0  0  0  0
 32 33  1  0  0  0  0
 33 35  2  0  0  0  0
 34 33  1  0  0  0  0
 35 37  1  0  0  0  0
 35 36  1  0  0  0  0
 37 38  1  0  0  0  0
 39 40  1  0  0  0  0
 39 37  2  0  0  0  0
 41 39  1  0  0  0  0
 42 41  1  0  0  0  0
M  END
