1
q = 0.0, confidence = 0.846

 11 10  0  0  0  0  0  0  0  0999 V2000
    0.2878   -0.0546    1.6043 N   0  0  0  0  0  2  0  0  0  0  0  0
    1.5260   -0.3642    2.1337 C   0  0  0  0  0  0  0  0  0  0  0  0
    1.7761   -0.4119    3.5145 C   0  0  0  0  0  0  0  0  0  0  0  0
    3.1245   -0.7428    4.0637 C   0  0  0  0  0  0  0  0  0  0  0  0
    0.8319   -0.1707    4.3865 O   0  0  0  0  0  0  0  0  0  0  0  0
   -0.6371    0.2081    2.4790 O   0  0  0  0  0  1  0  0  0  0  0  0
    2.3369   -0.5457    1.4233 H   0  0  0  0  0  0  0  0  0  0  0  0
   -0.0011    0.0437    3.7711 H   0  0  0  0  0  0  0  0  0  0  0  0
    3.8718   -0.9125    3.2683 H   0  0  0  0  0  0  0  0  0  0  0  0
    3.0544   -1.6477    4.7022 H   0  0  0  0  0  0  0  0  0  0  0  0
    3.4685    0.0801    4.7236 H   0  0  0  0  0  0  0  0  0  0  0  0
  1  2  1  0  0  0  0
  1  6  1  0  0  0  0
  2  3  2  0  0  0  0
  3  4  1  0  0  0  0
  3  5  1  0  0  0  0
  4 10  1  0  0  0  0
  4 11  1  0  0  0  0
  7  2  1  0  0  0  0
  8  5  1  0  0  0  0
  9  4  1  0  0  0  0
M  END
