1
q = 0.0, confidence = 0.996

 16 16  0  0  0  0  0  0  0  0999 V2000
    1.4198   -0.4768    0.6659 N   0  0  0  0  0  2  0  0  0  0  0  0
    1.8028   -0.8900   -0.5359 N   0  0  0  0  0  2  0  0  0  0  0  0
    3.1092   -1.1355   -0.4771 N   0  0  0  0  0  0  0  0  0  0  0  0
    5.8634   -1.3732    0.2998 O   0  0  0  0  0  0  0  0  0  0  0  0
    2.4953   -0.4669    1.5062 C   0  0  0  0  0  0  0  0  0  0  0  0
    2.4201   -0.1496    2.5491 H   0  0  0  0  0  0  0  0  0  0  0  0
    3.6080   -0.8876    0.7784 C   0  0  0  0  0  0  0  0  0  0  0  0
    5.0453   -1.0226    1.1414 C   0  0  0  0  0  0  0  0  0  0  0  0
    5.4109   -0.6915    2.5692 C   0  0  0  0  0  0  0  0  0  0  0  0
    6.4935   -0.8523    2.7150 H   0  0  0  0  0  0  0  0  0  0  0  0
    4.8407   -1.3237    3.2807 H   0  0  0  0  0  0  0  0  0  0  0  0
    5.1609    0.3658    2.7971 H   0  0  0  0  0  0  0  0  0  0  0  0
    3.8027   -1.5800   -1.6785 C   0  0  0  0  0  0  0  0  0  0  0  0
    3.0279   -1.7832   -2.4378 H   0  0  0  0  0  0  0  0  0  0  0  0
    4.3920   -2.4869   -1.4590 H   0  0  0  0  0  0  0  0  0  0  0  0
    4.4906   -0.7874   -2.0272 H   0  0  0  0  0  0  0  0  0  0  0  0
  1  5  1  0  0  0  0
  2  3  1  0  0  0  0
  2  1  1  0  0  0  0
  3  7  1  0  0  0  0
  4  8  2  0  0  0  0
  5  6  1  0  0  0  0
  7  8  1  0  0  0  0
  7  5  2  0  0  0  0
  8  9  1  0  0  0  0
  9 10  1  0  0  0  0
  9 12  1  0  0  0  0
  9 11  1  0  0  0  0
 13 15  1  0  0  0  0
 13  3  1  0  0  0  0
 14 13  1  0  0  0  0
 16 13  1  0  0  0  0
M  END
