2
q = -1.0, confidence = 0.0

 12 12  0  0  0  0  0  0  0  0999 V2000
    0.9633    1.9371    2.2468 N   0  0  0  0  0  0  0  0  0  0  0  0
    0.7316    1.2168    1.1298 N   0  0  0  0  0  0  0  0  0  0  0  0
    1.2809    1.7371    0.0424 N   0  0  0  0  0  0  0  0  0  0  0  0
    3.2073    4.7796   -0.0675 O   0  0  0  0  0  0  0  0  0  0  0  0
    1.7070    2.9822    1.8407 C   0  0  0  0  0  3  0  0  0  0  0  0
    2.0567    3.7549    2.5342 H   0  0  0  0  0  0  0  0  0  0  0  0
    1.9154    2.8703    0.4497 C   0  0  0  0  0  0  0  0  0  0  0  0
    2.6606    3.7516   -0.4644 C   0  0  0  0  0  0  0  0  0  0  0  0
    2.7153    3.3131   -1.9203 C   0  0  0  0  0  0  0  0  0  0  0  0
    3.3018    4.0464   -2.5029 H   0  0  0  0  0  0  0  0  0  0  0  0
    1.6872    3.2305   -2.3295 H   0  0  0  0  0  0  0  0  0  0  0  0
    3.1714    2.3043   -1.9988 H   0  0  0  0  0  0  0  0  0  0  0  0
  2  1  2  0  0  0  0
  3  7  2  0  0  0  0
  3  2  1  0  0  0  0
  5  1  1  0  0  0  0
  5  6  1  0  0  0  0
  7  5  1  0  0  0  0
  8  4  2  0  0  0  0
  8  7  1  0  0  0  0
  9  8  1  0  0  0  0
 10  9  1  0  0  0  0
 11  9  1  0  0  0  0
 12  9  1  0  0  0  0
M  END
