5
q = 0.0, confidence = 1.0

 36 36  0  0  0  0  0  0  0  0999 V2000
    1.9756   -1.8873   -1.4206 O   0  0  0  0  0  0  0  0  0  0  0  0
    3.0741   -1.0456    1.0098 O   0  0  0  0  0  0  0  0  0  0  0  0
    2.7327    1.6824   -0.0198 O   0  0  0  0  0  0  0  0  0  0  0  0
    0.3065    2.3265   -1.4180 O   0  0  0  0  0  0  0  0  0  0  0  0
   -0.5248   -0.4816   -1.9605 N   0  0  0  0  0  0  0  0  0  0  0  0
    0.1670   -1.3905   -2.8859 C   0  0  0  0  0  0  0  0  0  0  0  0
    0.8933   -0.8046   -3.4865 H   0  0  0  0  0  0  0  0  0  0  0  0
   -0.5460   -1.8587   -3.6051 H   0  0  0  0  0  0  0  0  0  0  0  0
    0.9327   -2.4878   -2.1652 C   0  0  0  0  0  0  0  0  0  0  0  0
    0.2500   -3.0627   -1.4909 H   0  0  0  0  0  0  0  0  0  0  0  0
    1.3407   -3.2096   -2.9121 H   0  0  0  0  0  0  0  0  0  0  0  0
    2.7125   -2.7778   -0.6032 C   0  0  0  0  0  0  0  0  0  0  0  0
    3.2345   -3.5515   -1.2156 H   0  0  0  0  0  0  0  0  0  0  0  0
    2.0351   -3.3131    0.1054 H   0  0  0  0  0  0  0  0  0  0  0  0
    3.7410   -1.9722    0.1623 C   0  0  0  0  0  0  0  0  0  0  0  0
    4.3878   -2.6589    0.7581 H   0  0  0  0  0  0  0  0  0  0  0  0
    4.3919   -1.4472   -0.5728 H   0  0  0  0  0  0  0  0  0  0  0  0
    3.8568    0.0797    1.3834 C   0  0  0  0  0  0  0  0  0  0  0  0
    4.8732   -0.2298    1.7216 H   0  0  0  0  0  0  0  0  0  0  0  0
    3.3405    0.5380    2.2519 H   0  0  0  0  0  0  0  0  0  0  0  0
    3.9994    1.1174    0.2797 C   0  0  0  0  0  0  0  0  0  0  0  0
    4.7117    1.9090    0.6170 H   0  0  0  0  0  0  0  0  0  0  0  0
    4.4409    0.6560   -0.6361 H   0  0  0  0  0  0  0  0  0  0  0  0
    2.7504    2.4906   -1.1870 C   0  0  0  0  0  0  0  0  0  0  0  0
    2.9670    1.8621   -2.0853 H   0  0  0  0  0  0  0  0  0  0  0  0
    3.5564    3.2607   -1.1234 H   0  0  0  0  0  0  0  0  0  0  0  0
    1.4161    3.2078   -1.3222 C   0  0  0  0  0  0  0  0  0  0  0  0
    1.2439    3.8218   -0.4141 H   0  0  0  0  0  0  0  0  0  0  0  0
    1.4573    3.8988   -2.1954 H   0  0  0  0  0  0  0  0  0  0  0  0
    0.0299    1.8339   -2.7239 C   0  0  0  0  0  0  0  0  0  0  0  0
    0.9556    1.4390   -3.2061 H   0  0  0  0  0  0  0  0  0  0  0  0
   -0.3539    2.6575   -3.3707 H   0  0  0  0  0  0  0  0  0  0  0  0
   -1.0256    0.7443   -2.6090 C   0  0  0  0  0  0  0  0  0  0  0  0
   -1.8604    1.1307   -1.9903 H   0  0  0  0  0  0  0  0  0  0  0  0
   -1.4249    0.5276   -3.6280 H   0  0  0  0  0  0  0  0  0  0  0  0
   -1.3336   -0.9757   -1.5385 H   0  0  0  0  0  0  0  0  0  0  0  0
  1 12  1  0  0  0  0
  2 18  1  0  0  0  0
  3 21  1  0  0  0  0
  4 27  1  0  0  0  0
  5 36  1  0  0  0  0
  6  9  1  0  0  0  0
  6  5  1  0  0  0  0
  7  6  1  0  0  0  0
  8  6  1  0  0  0  0
  9 10  1  0  0  0  0
  9  1  1  0  0  0  0
 11  9  1  0  0  0  0
 12 14  1  0  0  0  0
 12 15  1  0  0  0  0
 13 12  1  0  0  0  0
 15 16  1  0  0  0  0
 15  2  1  0  0  0  0
 17 15  1  0  0  0  0
 18 19  1  0  0  0  0
 18 20  1  0  0  0  0
 21 22  1  0  0  0  0
 21 18  1  0  0  0  0
 23 21  1  0  0  0  0
 24 26  1  0  0  0  0
 24  3  1  0  0  0  0
 25 24  1  0  0  0  0
 27 24  1  0  0  0  0
 27 28  1  0  0  0  0
 29 27  1  0  0  0  0
 30 33  1  0  0  0  0
 30  4  1  0  0  0  0
 31 30  1  0  0  0  0
 32 30  1  0  0  0  0
 33 34  1  0  0  0  0
 33  5  1  0  0  0  0
 35 33  1  0  0  0  0
M  END
