2
q = 0.0, confidence = 0.98

 13 13  0  0  0  0  0  0  0  0999 V2000
    2.0940    0.2702    1.1535 O   0  0  0  0  0  0  0  0  0  0  0  0
    1.5233    0.1702   -0.1696 N   0  0  0  0  0  0  0  0  0  0  0  0
    3.2231    1.1496    1.1347 C   0  0  0  0  0  0  0  0  0  0  0  0
    4.1891    0.8111    0.0359 C   0  0  0  0  0  0  0  0  0  0  0  0
    3.8341   -0.0233   -0.9589 C   0  0  0  0  0  0  0  0  0  0  0  0
    2.4457   -0.5869   -1.0435 C   0  0  0  0  0  0  0  0  0  0  0  0
    1.4237    1.1608   -0.5054 H   0  0  0  0  0  0  0  0  0  0  0  0
    2.8867    2.2157    1.0705 H   0  0  0  0  0  0  0  0  0  0  0  0
    3.6846    1.0104    2.1348 H   0  0  0  0  0  0  0  0  0  0  0  0
    5.1914    1.2667    0.0736 H   0  0  0  0  0  0  0  0  0  0  0  0
    4.5474   -0.3050   -1.7493 H   0  0  0  0  0  0  0  0  0  0  0  0
    2.0299   -0.5091   -2.0704 H   0  0  0  0  0  0  0  0  0  0  0  0
    2.3693   -1.6575   -0.7524 H   0  0  0  0  0  0  0  0  0  0  0  0
  2  1  1  0  0  0  0
  3  1  1  0  0  0  0
  3  9  1  0  0  0  0
  4 10  1  0  0  0  0
  4  3  1  0  0  0  0
  5  4  2  0  0  0  0
  6  5  1  0  0  0  0
  6 13  1  0  0  0  0
  6  2  1  0  0  0  0
  7  2  1  0  0  0  0
  8  3  1  0  0  0  0
 11  5  1  0  0  0  0
 12  6  1  0  0  0  0
M  END
