2
q = 0.0, confidence = 0.998

 36 38  0  0  0  0  0  0  0  0999 V2000
   -3.2623   -0.4734   -0.1482 S   0  0  0  0  0  0  0  0  0  0  0  0
   -0.5938   -0.4481   -1.4223 N   0  0  0  0  0  2  0  0  0  0  0  0
   -1.6564   -0.7579   -2.2410 N   0  0  0  0  0  0  0  0  0  0  0  0
   -1.4250   -1.0431   -3.2000 H   0  0  0  0  0  0  0  0  0  0  0  0
   -3.9100   -1.1241   -2.6586 N   0  0  0  0  0  0  0  0  0  0  0  0
   -3.6725   -1.2353   -3.6465 H   0  0  0  0  0  0  0  0  0  0  0  0
    1.8388   -0.0922   -1.3474 C   0  0  0  0  0  0  0  0  0  0  0  0
    2.2242    1.2755   -1.3305 C   0  0  0  0  0  0  0  0  0  0  0  0
    1.4118    2.3208   -1.8826 C   0  0  0  0  0  0  0  0  0  0  0  0
    0.4529    2.0639   -2.3567 H   0  0  0  0  0  0  0  0  0  0  0  0
    1.8116    3.6430   -1.8178 C   0  0  0  0  0  0  0  0  0  0  0  0
    1.1747    4.4289   -2.2510 H   0  0  0  0  0  0  0  0  0  0  0  0
    3.0481    4.0010   -1.1999 C   0  0  0  0  0  0  0  0  0  0  0  0
    3.3504    5.0576   -1.1589 H   0  0  0  0  0  0  0  0  0  0  0  0
    3.8623    3.0229   -0.6642 C   0  0  0  0  0  0  0  0  0  0  0  0
    4.8202    3.2885   -0.1917 H   0  0  0  0  0  0  0  0  0  0  0  0
    3.4868    1.6400   -0.7116 C   0  0  0  0  0  0  0  0  0  0  0  0
    4.3048    0.6307   -0.1685 C   0  0  0  0  0  0  0  0  0  0  0  0
    5.2617    0.9134    0.2979 H   0  0  0  0  0  0  0  0  0  0  0  0
    3.9395   -0.7292   -0.2071 C   0  0  0  0  0  0  0  0  0  0  0  0
    4.7741   -1.7511    0.3527 C   0  0  0  0  0  0  0  0  0  0  0  0
    5.7321   -1.4561    0.8071 H   0  0  0  0  0  0  0  0  0  0  0  0
    4.3865   -3.0768    0.3212 C   0  0  0  0  0  0  0  0  0  0  0  0
    5.0367   -3.8529    0.7512 H   0  0  0  0  0  0  0  0  0  0  0  0
    3.1374   -3.4463   -0.2624 C   0  0  0  0  0  0  0  0  0  0  0  0
    2.8304   -4.5027   -0.2634 H   0  0  0  0  0  0  0  0  0  0  0  0
    2.3015   -2.4913   -0.8102 C   0  0  0  0  0  0  0  0  0  0  0  0
    1.3174   -2.7862   -1.2024 H   0  0  0  0  0  0  0  0  0  0  0  0
    2.6745   -1.1092   -0.8114 C   0  0  0  0  0  0  0  0  0  0  0  0
    0.5741   -0.4626   -2.0045 C   0  0  0  0  0  3  0  0  0  0  0  0
    0.6092   -0.7517   -3.0784 H   0  0  0  0  0  0  0  0  0  0  0  0
   -2.9381   -0.8112   -1.7828 C   0  0  0  0  0  0  0  0  0  0  0  0
   -5.3107   -1.2425   -2.2792 C   0  0  0  0  0  0  0  0  0  0  0  0
   -5.8685   -1.6986   -3.1160 H   0  0  0  0  0  0  0  0  0  0  0  0
   -5.7541   -0.2519   -2.0448 H   0  0  0  0  0  0  0  0  0  0  0  0
   -5.4069   -1.8901   -1.3844 H   0  0  0  0  0  0  0  0  0  0  0  0
  3 32  1  0  0  0  0
  3  2  1  0  0  0  0
  4  3  1  0  0  0  0
  5 33  1  0  0  0  0
  5 32  1  0  0  0  0
  6  5  1  0  0  0  0
  7  8  2  0  0  0  0
  7 29  1  0  0  0  0
  8 17  1  0  0  0  0
  9 11  2  0  0  0  0
  9  8  1  0  0  0  0
 10  9  1  0  0  0  0
 11 13  1  0  0  0  0
 12 11  1  0  0  0  0
 13 14  1  0  0  0  0
 13 15  2  0  0  0  0
 15 16  1  0  0  0  0
 17 15  1  0  0  0  0
 17 18  2  0  0  0  0
 18 19  1  0  0  0  0
 20 18  1  0  0  0  0
 20 21  1  0  0  0  0
 21 22  1  0  0  0  0
 23 21  2  0  0  0  0
 23 24  1  0  0  0  0
 25 23  1  0  0  0  0
 26 25  1  0  0  0  0
 27 25  2  0  0  0  0
 28 27  1  0  0  0  0
 29 27  1  0  0  0  0
 29 20  2  0  0  0  0
 30  2  1  0  0  0  0
 30  7  1  0  0  0  0
 31 30  1  0  0  0  0
 32  1  2  0  0  0  0
 33 35  1  0  0  0  0
 33 36  1  0  0  0  0
 34 33  1  0  0  0  0
M  END
