2
q = 0.0, confidence = 0.964

 51 54  0  0  0  0  0  0  0  0999 V2000
   -0.9983   -0.5352    0.3008 P   0  0  0  0  0  4  0  0  0  0  0  0
   -0.2514    0.8210   -0.2546 N   0  0  0  0  0  2  0  0  0  0  0  0
   -1.9570   -0.2416    1.8152 C   0  0  0  0  0  0  0  0  0  0  0  0
   -1.8425    1.0107    2.4514 C   0  0  0  0  0  0  0  0  0  0  0  0
   -1.2328    1.7997    1.9851 H   0  0  0  0  0  0  0  0  0  0  0  0
   -2.5213    1.2390    3.6572 C   0  0  0  0  0  0  0  0  0  0  0  0
   -2.4461    2.2188    4.1515 H   0  0  0  0  0  0  0  0  0  0  0  0
   -3.2998    0.2192    4.2287 C   0  0  0  0  0  0  0  0  0  0  0  0
   -3.8319    0.4011    5.1745 H   0  0  0  0  0  0  0  0  0  0  0  0
   -3.4076   -1.0314    3.5965 C   0  0  0  0  0  0  0  0  0  0  0  0
   -4.0210   -1.8261    4.0463 H   0  0  0  0  0  0  0  0  0  0  0  0
   -2.7397   -1.2672    2.3866 C   0  0  0  0  0  0  0  0  0  0  0  0
   -2.8334   -2.2436    1.8863 H   0  0  0  0  0  0  0  0  0  0  0  0
   -2.0594   -1.4529   -0.8493 C   0  0  0  0  0  0  0  0  0  0  0  0
   -3.4466   -1.1925   -0.9153 C   0  0  0  0  0  0  0  0  0  0  0  0
   -3.9148   -0.4867   -0.2134 H   0  0  0  0  0  0  0  0  0  0  0  0
   -4.2333   -1.8487   -1.8716 C   0  0  0  0  0  0  0  0  0  0  0  0
   -5.3127   -1.6434   -1.9234 H   0  0  0  0  0  0  0  0  0  0  0  0
   -3.6466   -2.7672   -2.7569 C   0  0  0  0  0  0  0  0  0  0  0  0
   -4.2685   -3.2819   -3.5044 H   0  0  0  0  0  0  0  0  0  0  0  0
   -2.2693   -3.0362   -2.6870 C   0  0  0  0  0  0  0  0  0  0  0  0
   -1.8134   -3.7644   -3.3738 H   0  0  0  0  0  0  0  0  0  0  0  0
   -1.4733   -2.3803   -1.7394 C   0  0  0  0  0  0  0  0  0  0  0  0
   -0.3960   -2.5965   -1.6849 H   0  0  0  0  0  0  0  0  0  0  0  0
   -0.7865    1.8639   -1.0250 C   0  0  0  0  0  0  0  0  0  0  0  0
   -2.1702    2.1696   -0.9830 C   0  0  0  0  0  0  0  0  0  0  0  0
   -2.8392    1.5944   -0.3263 H   0  0  0  0  0  0  0  0  0  0  0  0
   -2.6922    3.2190   -1.7495 C   0  0  0  0  0  0  0  0  0  0  0  0
   -3.7698    3.4366   -1.6988 H   0  0  0  0  0  0  0  0  0  0  0  0
   -1.8541    3.9965   -2.5645 C   0  0  0  0  0  0  0  0  0  0  0  0
   -2.2674    4.8229   -3.1603 H   0  0  0  0  0  0  0  0  0  0  0  0
   -0.4817    3.7064   -2.6042 C   0  0  0  0  0  0  0  0  0  0  0  0
    0.1892    4.3052   -3.2389 H   0  0  0  0  0  0  0  0  0  0  0  0
    0.0497    2.6525   -1.8482 C   0  0  0  0  0  0  0  0  0  0  0  0
    1.1214    2.4165   -1.8930 H   0  0  0  0  0  0  0  0  0  0  0  0
    0.5009   -1.3985    0.8017 C   0  0  0  0  0  3  0  0  0  0  0  0
    0.4531   -1.7417    1.8502 H   0  0  0  0  0  0  0  0  0  0  0  0
    1.6073   -1.9130    0.0555 C   0  0  0  0  0  0  0  0  0  0  0  0
    2.5648   -2.9327    0.6457 C   0  0  0  0  0  0  0  0  0  0  0  0
    2.1631   -3.9391    0.3902 H   0  0  0  0  0  0  0  0  0  0  0  0
    2.6159   -2.8852    1.7511 H   0  0  0  0  0  0  0  0  0  0  0  0
    3.9074   -2.6736   -0.0613 C   0  0  0  0  0  0  0  0  0  0  0  0
    4.5046   -1.9487    0.5279 H   0  0  0  0  0  0  0  0  0  0  0  0
    4.5220   -3.5874   -0.1662 H   0  0  0  0  0  0  0  0  0  0  0  0
    3.5132   -2.0540   -1.4139 C   0  0  0  0  0  0  0  0  0  0  0  0
    4.2602   -1.3508   -1.8314 H   0  0  0  0  0  0  0  0  0  0  0  0
    3.3610   -2.8408   -2.1866 H   0  0  0  0  0  0  0  0  0  0  0  0
    2.1638   -1.4009   -1.1801 C   0  0  0  0  0  0  0  0  0  0  0  0
    1.6212   -0.3255   -1.9344 C   0  0  0  0  0  3  0  0  0  0  0  0
    0.5526   -0.2640   -2.1807 H   0  0  0  0  0  0  0  0  0  0  0  0
    2.2886    0.1243   -2.6879 H   0  0  0  0  0  0  0  0  0  0  0  0
  1 36  1  0  0  0  0
  1  3  1  0  0  0  0
  2  1  1  0  0  0  0
  3 12  2  0  0  0  0
  3  4  1  0  0  0  0
  4  6  2  0  0  0  0
  5  4  1  0  0  0  0
  6  7  1  0  0  0  0
  6  8  1  0  0  0  0
  8  9  1  0  0  0  0
 10 11  1  0  0  0  0
 10  8  2  0  0  0  0
 12 10  1  0  0  0  0
 13 12  1  0  0  0  0
 14  1  1  0  0  0  0
 15 14  1  0  0  0  0
 15 16  1  0  0  0  0
 17 15  2  0  0  0  0
 18 17  1  0  0  0  0
 19 21  2  0  0  0  0
 19 17  1  0  0  0  0
 20 19  1  0  0  0  0
 21 23  1  0  0  0  0
 22 21  1  0  0  0  0
 23 24  1  0  0  0  0
 23 14  2  0  0  0  0
 25 26  1  0  0  0  0
 25  2  1  0  0  0  0
 26 27  1  0  0  0  0
 28 29  1  0  0  0  0
 28 26  2  0  0  0  0
 30 28  1  0  0  0  0
 31 30  1  0  0  0  0
 32 30  2  0  0  0  0
 32 34  1  0  0  0  0
 33 32  1  0  0  0  0
 34 25  2  0  0  0  0
 35 34  1  0  0  0  0
 36 37  1  0  0  0  0
 38 39  1  0  0  0  0
 38 36  1  0  0  0  0
 39 41  1  0  0  0  0
 40 39  1  0  0  0  0
 42 43  1  0  0  0  0
 42 39  1  0  0  0  0
 44 42  1  0  0  0  0
 45 48  1  0  0  0  0
 45 42  1  0  0  0  0
 46 45  1  0  0  0  0
 47 45  1  0  0  0  0
 48 38  2  0  0  0  0
 49 48  1  0  0  0  0
 50 49  1  0  0  0  0
 51 49  1  0  0  0  0
M  END
