2
q = -2.0, confidence = 0.896

 32 33  0  0  0  0  0  0  0  0999 V2000
   -0.9821   -1.6231   -0.1709 S   0  0  0  0  0  0  0  0  0  0  0  0
    0.4052    0.5022    0.0430 N   0  0  0  0  0  2  0  0  0  0  0  0
   -1.9330    0.9816    0.1788 N   0  0  0  0  0  2  0  0  0  0  0  0
   -0.9395    0.1754    0.0175 C   0  0  0  0  0  0  0  0  0  0  0  0
   -3.7892   -0.2074   -0.9473 C   0  0  0  0  0  0  0  0  0  0  0  0
   -5.1562   -0.5121   -1.0007 C   0  0  0  0  0  0  0  0  0  0  0  0
   -6.0612   -0.0285   -0.0364 C   0  0  0  0  0  0  0  0  0  0  0  0
   -5.5410    0.7936    0.9879 C   0  0  0  0  0  0  0  0  0  0  0  0
   -4.1826    1.1138    1.0481 C   0  0  0  0  0  0  0  0  0  0  0  0
   -3.2699    0.6066    0.0894 C   0  0  0  0  0  0  0  0  0  0  0  0
   -7.5317   -0.3606   -0.0920 C   0  0  0  0  0  0  0  0  0  0  0  0
    2.2784    2.0494    0.3053 C   0  0  0  0  0  0  0  0  0  0  0  0
    2.8267    3.3377    0.2585 C   0  0  0  0  0  0  0  0  0  0  0  0
    2.0465    4.4601   -0.0732 C   0  0  0  0  0  0  0  0  0  0  0  0
    0.6851    4.2249   -0.3597 C   0  0  0  0  0  0  0  0  0  0  0  0
    0.1192    2.9475   -0.3160 C   0  0  0  0  0  0  0  0  0  0  0  0
    0.9102    1.8143    0.0210 C   0  0  0  0  0  0  0  0  0  0  0  0
    2.6249    5.8520   -0.1096 C   0  0  0  0  0  0  0  0  0  0  0  0
   -3.1096   -0.5865   -1.7242 H   0  0  0  0  0  0  0  0  0  0  0  0
   -5.5329   -1.1441   -1.8217 H   0  0  0  0  0  0  0  0  0  0  0  0
   -6.2234    1.1966    1.7544 H   0  0  0  0  0  0  0  0  0  0  0  0
   -3.7879    1.7631    1.8437 H   0  0  0  0  0  0  0  0  0  0  0  0
   -7.8639   -0.8962    0.8228 H   0  0  0  0  0  0  0  0  0  0  0  0
   -7.7713   -1.0032   -0.9617 H   0  0  0  0  0  0  0  0  0  0  0  0
   -8.1558    0.5551   -0.1684 H   0  0  0  0  0  0  0  0  0  0  0  0
    2.9171    1.1955    0.5582 H   0  0  0  0  0  0  0  0  0  0  0  0
    3.8963    3.4714    0.4896 H   0  0  0  0  0  0  0  0  0  0  0  0
    0.0372    5.0760   -0.6274 H   0  0  0  0  0  0  0  0  0  0  0  0
   -0.9477    2.8025   -0.5195 H   0  0  0  0  0  0  0  0  0  0  0  0
    2.3998    6.3633   -1.0689 H   0  0  0  0  0  0  0  0  0  0  0  0
    3.7252    5.8405    0.0181 H   0  0  0  0  0  0  0  0  0  0  0  0
    2.2023    6.4893    0.6967 H   0  0  0  0  0  0  0  0  0  0  0  0
  1  4  2  0  0  0  0
  4  2  1  0  0  0  0
  4  3  1  0  0  0  0
  5 10  1  0  0  0  0
  6  5  2  0  0  0  0
  6  7  1  0  0  0  0
  7  8  2  0  0  0  0
  8  9  1  0  0  0  0
  8 21  1  0  0  0  0
  9 22  1  0  0  0  0
 10  3  1  0  0  0  0
 10  9  2  0  0  0  0
 11  7  1  0  0  0  0
 11 23  1  0  0  0  0
 12 26  1  0  0  0  0
 13 12  1  0  0  0  0
 13 27  1  0  0  0  0
 14 13  2  0  0  0  0
 15 16  2  0  0  0  0
 15 14  1  0  0  0  0
 16 17  1  0  0  0  0
 17  2  1  0  0  0  0
 17 12  2  0  0  0  0
 18 14  1  0  0  0  0
 18 31  1  0  0  0  0
 18 32  1  0  0  0  0
 19  5  1  0  0  0  0
 20  6  1  0  0  0  0
 24 11  1  0  0  0  0
 25 11  1  0  0  0  0
 28 15  1  0  0  0  0
 29 16  1  0  0  0  0
 30 18  1  0  0  0  0
M  END
