3
q = 0.0, confidence = 0.998

 32 34  0  0  1  0  0  0  0  0999 V2000
    0.5753   -1.3769    2.2090 O   0  0  0  0  0  0  0  0  0  0  0  0
    1.4039   -1.8718    2.3649 H   0  0  0  0  0  0  0  0  0  0  0  0
   -1.6042   -0.8473    0.5823 N   0  0  0  0  0  2  0  0  0  0  0  0
   -2.7118    0.8969    1.4520 N   0  0  0  0  0  0  0  0  0  0  0  0
    0.8366   -0.0498    2.1838 C   0  0  0  0  0  0  0  0  0  0  0  0
    2.0904    0.4647    2.5684 C   0  0  0  0  0  0  0  0  0  0  0  0
    2.8779   -0.2378    2.8835 H   0  0  0  0  0  0  0  0  0  0  0  0
    2.3386    1.8407    2.5358 C   0  0  0  0  0  0  0  0  0  0  0  0
    3.3264    2.2192    2.8386 H   0  0  0  0  0  0  0  0  0  0  0  0
    1.3380    2.7258    2.1036 C   0  0  0  0  0  0  0  0  0  0  0  0
    1.5286    3.8079    2.0603 H   0  0  0  0  0  0  0  0  0  0  0  0
    0.0969    2.2194    1.7022 C   0  0  0  0  0  0  0  0  0  0  0  0
   -0.6504    2.9076    1.2893 H   0  0  0  0  0  0  0  0  0  0  0  0
   -0.1910    0.8355    1.7394 C   0  0  0  0  0  0  0  0  0  0  0  0
   -1.4731    0.2974    1.2641 C   0  0  2  0  0  3  0  0  0  0  0  0
   -3.6641    0.0877    0.8402 C   0  0  0  0  0  0  0  0  0  0  0  0
   -5.0596    0.1936    0.7187 C   0  0  0  0  0  0  0  0  0  0  0  0
   -5.6223    1.0391    1.1393 H   0  0  0  0  0  0  0  0  0  0  0  0
   -5.7084   -0.8368    0.0251 C   0  0  0  0  0  0  0  0  0  0  0  0
   -6.8010   -0.7929   -0.0973 H   0  0  0  0  0  0  0  0  0  0  0  0
   -4.9955   -1.9327   -0.5231 C   0  0  0  0  0  0  0  0  0  0  0  0
   -5.5506   -2.7176   -1.0578 H   0  0  0  0  0  0  0  0  0  0  0  0
   -3.6075   -2.0408   -0.3942 C   0  0  0  0  0  0  0  0  0  0  0  0
   -3.0384   -2.8921   -0.7954 H   0  0  0  0  0  0  0  0  0  0  0  0
   -2.9463   -1.0107    0.2989 C   0  0  0  0  0  0  0  0  0  0  0  0
   -3.0389    2.1366    2.1473 C   0  0  0  0  0  0  0  0  0  0  0  0
   -2.2013    2.3727    2.8306 H   0  0  0  0  0  0  0  0  0  0  0  0
   -3.9228    1.9314    2.7874 H   0  0  0  0  0  0  0  0  0  0  0  0
   -3.3290    3.2949    1.1912 C   0  0  0  0  0  0  0  0  0  0  0  0
   -2.4710    3.4919    0.5167 H   0  0  0  0  0  0  0  0  0  0  0  0
   -3.5505    4.2173    1.7639 H   0  0  0  0  0  0  0  0  0  0  0  0
   -4.2003    3.0712    0.5452 H   0  0  0  0  0  0  0  0  0  0  0  0
  1  2  1  0  0  0  0
  3 15  1  0  0  0  0
  4 26  1  0  0  0  0
  5  1  1  0  0  0  0
  5  6  1  0  0  0  0
  6  7  1  0  0  0  0
  8  6  2  0  0  0  0
  8  9  1  0  0  0  0
 10  8  1  0  0  0  0
 11 10  1  0  0  0  0
 12 14  1  0  0  0  0
 12 10  2  0  0  0  0
 13 12  1  0  0  0  0
 14  5  2  0  0  0  0
 15  4  1  0  0  0  0
 15 14  1  6  0  0  0
 16  4  1  0  0  0  0
 17 16  1  0  0  0  0
 17 18  1  0  0  0  0
 19 17  2  0  0  0  0
 20 19  1  0  0  0  0
 21 23  2  0  0  0  0
 21 19  1  0  0  0  0
 22 21  1  0  0  0  0
 23 25  1  0  0  0  0
 24 23  1  0  0  0  0
 25  3  1  0  0  0  0
 25 16  2  0  0  0  0
 26 28  1  0  0  0  0
 26 27  1  0  0  0  0
 29 31  1  0  0  0  0
 29 26  1  0  0  0  0
 30 29  1  0  0  0  0
 32 29  1  0  0  0  0
M  END
