1
q = 0.0, confidence = 1.0

 35 35  0  0  1  0  0  0  0  0999 V2000
   -1.3237   -1.0910   -0.9754 N   0  0  0  0  0  2  0  0  0  0  0  0
   -3.6889   -1.5033   -1.0427 N   0  0  0  0  0  0  0  0  0  0  0  0
   -2.7955    0.6261   -0.5344 N   0  0  0  0  0  2  0  0  0  0  0  0
   -4.1629    0.2990    1.3986 N   0  0  0  0  0  0  0  0  0  0  0  0
   -4.3340    2.2488    0.1101 N   0  0  0  0  0  0  0  0  0  0  0  0
    0.3711   -2.7979   -1.3073 C   0  0  0  0  0  0  0  0  0  0  0  0
    1.0151   -1.9468   -1.6064 H   0  0  0  0  0  0  0  0  0  0  0  0
    0.5389   -3.6705   -1.9677 H   0  0  0  0  0  0  0  0  0  0  0  0
    0.6842   -3.0798   -0.2764 H   0  0  0  0  0  0  0  0  0  0  0  0
   -1.0654   -2.3777   -1.2985 C   0  0  1  0  0  3  0  0  0  0  0  0
   -2.1303   -3.2585   -1.5552 C   0  0  0  0  0  0  0  0  0  0  0  0
   -1.9341   -4.3017   -1.8396 H   0  0  0  0  0  0  0  0  0  0  0  0
   -3.4441   -2.7770   -1.4068 C   0  0  0  0  0  0  0  0  0  0  0  0
   -4.6460   -3.6558   -1.6267 C   0  0  0  0  0  0  0  0  0  0  0  0
   -5.3322   -3.1849   -2.3594 H   0  0  0  0  0  0  0  0  0  0  0  0
   -5.2182   -3.7593   -0.6813 H   0  0  0  0  0  0  0  0  0  0  0  0
   -4.3675   -4.6645   -1.9846 H   0  0  0  0  0  0  0  0  0  0  0  0
   -2.6267   -0.6968   -0.8470 C   0  0  0  0  0  0  0  0  0  0  0  0
   -3.7501    1.0126    0.2876 C   0  0  0  0  0  3  0  0  0  0  0  0
   -3.2875   -0.6935    2.0035 C   0  0  0  0  0  0  0  0  0  0  0  0
   -3.4894   -1.7176    1.6168 H   0  0  0  0  0  0  0  0  0  0  0  0
   -3.4548   -0.6994    3.1008 H   0  0  0  0  0  0  0  0  0  0  0  0
   -2.2227   -0.4535    1.8155 H   0  0  0  0  0  0  0  0  0  0  0  0
   -5.5777    0.1334    1.6892 C   0  0  0  0  0  0  0  0  0  0  0  0
   -6.1809    0.8241    1.0736 H   0  0  0  0  0  0  0  0  0  0  0  0
   -5.8010    0.3197    2.7624 H   0  0  0  0  0  0  0  0  0  0  0  0
   -5.8943   -0.9052    1.4402 H   0  0  0  0  0  0  0  0  0  0  0  0
   -4.7529    3.0813    1.2219 C   0  0  0  0  0  0  0  0  0  0  0  0
   -4.4878    2.5898    2.1752 H   0  0  0  0  0  0  0  0  0  0  0  0
   -5.8483    3.2792    1.2152 H   0  0  0  0  0  0  0  0  0  0  0  0
   -4.2324    4.0642    1.1759 H   0  0  0  0  0  0  0  0  0  0  0  0
   -4.3067    2.8859   -1.1923 C   0  0  0  0  0  0  0  0  0  0  0  0
   -3.5841    3.7322   -1.2209 H   0  0  0  0  0  0  0  0  0  0  0  0
   -5.3134    3.2849   -1.4448 H   0  0  0  0  0  0  0  0  0  0  0  0
   -3.9995    2.1443   -1.9503 H   0  0  0  0  0  0  0  0  0  0  0  0
  1 18  1  0  0  0  0
  2 18  2  0  0  0  0
  3 19  1  0  0  0  0
  4 24  1  0  0  0  0
  4 20  1  0  0  0  0
  5 19  1  0  0  0  0
  5 28  1  0  0  0  0
  6  9  1  0  0  0  0
  7  6  1  0  0  0  0
  8  6  1  0  0  0  0
 10  6  1  1  0  0  0
 10  1  1  0  0  0  0
 11 13  2  0  0  0  0
 11 10  1  0  0  0  0
 12 11  1  0  0  0  0
 13  2  1  0  0  0  0
 14 13  1  0  0  0  0
 14 16  1  0  0  0  0
 15 14  1  0  0  0  0
 17 14  1  0  0  0  0
 18  3  1  0  0  0  0
 19  4  1  0  0  0  0
 20 22  1  0  0  0  0
 21 20  1  0  0  0  0
 23 20  1  0  0  0  0
 24 26  1  0  0  0  0
 25 24  1  0  0  0  0
 27 24  1  0  0  0  0
 28 29  1  0  0  0  0
 30 28  1  0  0  0  0
 31 28  1  0  0  0  0
 32  5  1  0  0  0  0
 33 32  1  0  0  0  0
 34 32  1  0  0  0  0
 35 32  1  0  0  0  0
M  END
