35
q = -1.0, confidence = 0.0

 35 42  0  0  1  0  0  0  0  0999 V2000
   -1.4303   -0.4753   -0.2408 C   0  0  1  0  0  0  0  0  0  0  0  0
   -2.3141    0.5996    0.6780 C   0  0  2  0  0  0  0  0  0  0  0  0
   -2.2310   -1.0207    1.1933 B   0  0  1  0  0  0  0  0  0  0  0  0
   -1.5725   -1.2435    2.1738 H   0  0  0  0  0  0  0  0  0  0  0  0
   -2.2855   -1.9752   -0.2813 B   0  0  1  0  0  0  0  0  0  0  0  0
   -1.6485   -2.9938   -0.3641 H   0  0  0  0  0  0  0  0  0  0  0  0
   -2.3618   -0.8686   -1.6525 B   0  0  1  0  0  0  0  0  0  0  0  0
   -1.7808   -1.1156   -2.6745 H   0  0  0  0  0  0  0  0  0  0  0  0
   -2.3436    0.7786   -1.0259 B   0  0  0  0  0  0  0  0  0  0  0  0
   -1.7592    1.6981   -1.5280 H   0  0  0  0  0  0  0  0  0  0  0  0
   -3.7351   -0.0920    1.3377 B   0  0  1  0  0  0  0  0  0  0  0  0
   -4.0629    0.2801    2.4400 H   0  0  0  0  0  0  0  0  0  0  0  0
   -3.7593   -1.7559    0.7106 B   0  0  2  0  0  0  0  0  0  0  0  0
   -4.2196   -2.6628    1.3661 H   0  0  0  0  0  0  0  0  0  0  0  0
   -3.8518   -1.6563   -1.0674 B   0  0  2  0  0  0  0  0  0  0  0  0
   -4.3929   -2.5109   -1.7312 H   0  0  0  0  0  0  0  0  0  0  0  0
   -3.8806    0.0664   -1.5315 B   0  0  1  0  0  0  0  0  0  0  0  0
   -4.4360    0.4875   -2.5195 H   0  0  0  0  0  0  0  0  0  0  0  0
   -3.8026    1.0284   -0.0390 B   0  0  2  0  0  0  0  0  0  0  0  0
   -4.1874    2.1624    0.1267 H   0  0  0  0  0  0  0  0  0  0  0  0
   -4.7491   -0.4815   -0.0667 B   0  0  2  0  0  0  0  0  0  0  0  0
   -5.9558   -0.4581    0.0190 H   0  0  0  0  0  0  0  0  0  0  0  0
   -1.5043    1.5832    1.5202 C   0  0  0  0  0  0  0  0  0  0  0  0
   -2.2076    2.2206    2.0853 H   0  0  0  0  0  0  0  0  0  0  0  0
   -0.9176    0.9960    2.2544 H   0  0  0  0  0  0  0  0  0  0  0  0
   -0.5643    2.4495    0.7346 C   0  0  2  0  0  3  0  0  0  0  0  0
   -0.6387    3.8497    0.8040 C   0  0  0  0  0  0  0  0  0  0  0  0
   -1.4082    4.3069    1.4418 H   0  0  0  0  0  0  0  0  0  0  0  0
    0.2464    4.6396    0.0610 C   0  0  0  0  0  0  0  0  0  0  0  0
    0.1947    5.7373    0.1116 H   0  0  0  0  0  0  0  0  0  0  0  0
    1.1831    3.9984   -0.7588 C   0  0  0  0  0  0  0  0  0  0  0  0
    1.8893    4.5643   -1.3822 H   0  0  0  0  0  0  0  0  0  0  0  0
    1.2043    2.6023   -0.7979 C   0  0  0  0  0  0  0  0  0  0  0  0
    1.8700    2.0442   -1.4716 H   0  0  0  0  0  0  0  0  0  0  0  0
    0.3649    1.8407   -0.0524 N   0  0  0  0  0  2  0  0  0  0  0  0
  1  2  1  0  0  0  0
  1  3  1  0  0  0  0
  2  3  1  0  0  0  0
  2 23  1  0  0  0  0
  3  4  1  0  0  0  0
  5  1  1  0  0  0  0
  5  3  1  0  0  0  0
  6  5  1  0  0  0  0
  7  9  1  0  0  0  0
  7  5  1  0  0  0  0
  7  1  1  0  0  0  0
  8  7  1  0  0  0  0
 10  9  1  0  0  0  0
 11 12  1  0  0  0  0
 13 11  1  0  0  0  0
 13 14  1  0  0  0  0
 15 21  1  0  0  0  0
 15 13  1  0  0  0  0
 16 15  1  0  0  0  0
 17 15  1  0  0  0  0
 17  9  1  0  0  0  0
 17 19  1  0  0  0  0
 18 17  1  0  0  0  0
 19 20  1  0  0  0  0
 19  2  1  0  0  0  0
 19 11  1  0  0  0  0
 21 22  1  0  0  0  0
 21 13  1  0  0  0  0
 21 11  1  0  0  0  0
 23 24  1  0  0  0  0
 23 25  1  0  0  0  0
 26 27  1  0  0  0  0
 26 23  1  0  0  0  0
 27 28  1  0  0  0  0
 29 30  1  0  0  0  0
 29 27  2  0  0  0  0
 31 29  1  0  0  0  0
 32 31  1  0  0  0  0
 33 31  2  0  0  0  0
 33 35  1  0  0  0  0
 34 33  1  0  0  0  0
 35 26  1  0  0  0  0
M  END
