14
q = 0.0, confidence = 0.99

 14 14  0  0  0  0  0  0  0  0999 V2000
   -1.1633    2.3598   -1.5849 C   0  0  0  0  0  3  0  0  0  0  0  0
   -1.2899    1.6159   -2.3847 H   0  0  0  0  0  0  0  0  0  0  0  0
   -1.3514    3.7243   -1.8147 C   0  0  0  0  0  0  0  0  0  0  0  0
   -1.6281    4.0707   -2.8202 H   0  0  0  0  0  0  0  0  0  0  0  0
   -1.1843    4.6182   -0.7471 C   0  0  0  0  0  0  0  0  0  0  0  0
   -1.3263    5.6999   -0.8883 H   0  0  0  0  0  0  0  0  0  0  0  0
   -0.8411    4.1024    0.5073 C   0  0  0  0  0  0  0  0  0  0  0  0
   -0.7115    4.7640    1.3754 H   0  0  0  0  0  0  0  0  0  0  0  0
   -0.6551    2.7197    0.6769 C   0  0  0  0  0  0  0  0  0  0  0  0
   -0.3034    2.1429    2.0148 C   0  0  0  0  0  0  0  0  0  0  0  0
   -0.0040    2.9424    2.7157 H   0  0  0  0  0  0  0  0  0  0  0  0
    0.5258    1.4157    1.9152 H   0  0  0  0  0  0  0  0  0  0  0  0
   -1.7286    1.2939    2.7459 Cl  0  0  0  0  0  0  0  0  0  0  0  0
   -0.8137    1.8650   -0.3724 N   0  0  0  0  0  2  0  0  0  0  0  0
  1 14  1  0  0  0  0
  2  1  1  0  0  0  0
  3  1  1  0  0  0  0
  3  5  2  0  0  0  0
  4  3  1  0  0  0  0
  5  7  1  0  0  0  0
  6  5  1  0  0  0  0
  7  9  2  0  0  0  0
  7  8  1  0  0  0  0
  9 10  1  0  0  0  0
 10 11  1  0  0  0  0
 10 13  1  0  0  0  0
 12 10  1  0  0  0  0
 14  9  1  0  0  0  0
M  END
