2
q = 0.0, confidence = 0.77

 15 14  0  0  0  0  0  0  0  0999 V2000
   -0.4418   -2.6027   -1.7134 O   0  0  0  0  0  1  0  0  0  0  0  0
   -0.2271   -2.1463   -0.5931 N   0  0  0  0  0  2  0  0  0  0  0  0
   -0.1837   -3.2452    0.5162 C   0  0  0  0  0  0  0  0  0  0  0  0
    0.3860   -4.5218   -0.1125 C   0  0  0  0  0  0  0  0  0  0  0  0
   -0.2311   -4.8678   -0.9607 H   0  0  0  0  0  0  0  0  0  0  0  0
    0.4148   -5.3170    0.6581 H   0  0  0  0  0  0  0  0  0  0  0  0
    1.4214   -4.3549   -0.4715 H   0  0  0  0  0  0  0  0  0  0  0  0
   -1.6424   -3.4345    0.9504 C   0  0  0  0  0  0  0  0  0  0  0  0
   -2.0339   -2.5146    1.4218 H   0  0  0  0  0  0  0  0  0  0  0  0
   -1.6976   -4.2569    1.6915 H   0  0  0  0  0  0  0  0  0  0  0  0
   -2.2881   -3.6861    0.0864 H   0  0  0  0  0  0  0  0  0  0  0  0
    0.6900   -2.7933    1.6859 C   0  0  0  0  0  0  0  0  0  0  0  0
    1.7241   -2.5734    1.3595 H   0  0  0  0  0  0  0  0  0  0  0  0
    0.7319   -3.6159    2.4285 H   0  0  0  0  0  0  0  0  0  0  0  0
    0.2815   -1.9025    2.1954 H   0  0  0  0  0  0  0  0  0  0  0  0
  1  2  1  0  0  0  0
  2  3  1  0  0  0  0
  3  8  1  0  0  0  0
  3 12  1  0  0  0  0
  4  3  1  0  0  0  0
  4  6  1  0  0  0  0
  5  4  1  0  0  0  0
  7  4  1  0  0  0  0
  8  9  1  0  0  0  0
  8 10  1  0  0  0  0
 11  8  1  0  0  0  0
 12 15  1  0  0  0  0
 12 14  1  0  0  0  0
 13 12  1  0  0  0  0
M  END
