1
q = 0.0, confidence = 0.992

 25 26  0  0  0  0  0  0  0  0999 V2000
   -0.5857   -1.3515   -1.0814 N   0  0  0  0  0  2  0  0  0  0  0  0
   -2.5670    0.0518   -2.2515 F   0  0  0  0  0  0  0  0  0  0  0  0
   -5.1221   -0.0061   -1.4378 F   0  0  0  0  0  0  0  0  0  0  0  0
   -3.9937   -3.1857    1.9070 F   0  0  0  0  0  0  0  0  0  0  0  0
   -1.4334   -3.0923    1.1914 F   0  0  0  0  0  0  0  0  0  0  0  0
   -1.8690   -1.5083   -0.5841 C   0  0  0  0  0  0  0  0  0  0  0  0
   -2.3108   -2.3435    0.4831 C   0  0  0  0  0  0  0  0  0  0  0  0
   -3.6567   -2.3855    0.8803 C   0  0  0  0  0  0  0  0  0  0  0  0
   -4.6377   -1.6194    0.2440 C   0  0  0  0  0  0  0  0  0  0  0  0
   -5.6849   -1.6552    0.5681 H   0  0  0  0  0  0  0  0  0  0  0  0
   -4.2286   -0.7947   -0.8118 C   0  0  0  0  0  0  0  0  0  0  0  0
   -2.9000   -0.7705   -1.2394 C   0  0  0  0  0  0  0  0  0  0  0  0
    1.7509   -2.0311   -1.3370 C   0  0  0  0  0  0  0  0  0  0  0  0
    1.8263   -1.4612   -2.6322 C   0  0  0  0  0  0  0  0  0  0  0  0
    0.9252   -0.9777   -3.0374 H   0  0  0  0  0  0  0  0  0  0  0  0
    3.0131   -1.5287   -3.3733 C   0  0  0  0  0  0  0  0  0  0  0  0
    3.0530   -1.0789   -4.3778 H   0  0  0  0  0  0  0  0  0  0  0  0
    4.1489   -2.1705   -2.8484 C   0  0  0  0  0  0  0  0  0  0  0  0
    5.0803   -2.2198   -3.4324 H   0  0  0  0  0  0  0  0  0  0  0  0
    4.0774   -2.7629   -1.5754 C   0  0  0  0  0  0  0  0  0  0  0  0
    4.9539   -3.2859   -1.1617 H   0  0  0  0  0  0  0  0  0  0  0  0
    2.8927   -2.6966   -0.8311 C   0  0  0  0  0  0  0  0  0  0  0  0
    2.8383   -3.1671    0.1643 H   0  0  0  0  0  0  0  0  0  0  0  0
    0.5395   -1.9020   -0.5000 C   0  0  0  0  0  3  0  0  0  0  0  0
    0.4776   -2.5958    0.3547 H   0  0  0  0  0  0  0  0  0  0  0  0
  1  6  1  0  0  0  0
  1 24  1  0  0  0  0
  2 12  1  0  0  0  0
  3 11  1  0  0  0  0
  6  7  1  0  0  0  0
  7  8  2  0  0  0  0
  7  5  1  0  0  0  0
  8  4  1  0  0  0  0
  9 10  1  0  0  0  0
  9  8  1  0  0  0  0
 11  9  2  0  0  0  0
 12 11  1  0  0  0  0
 12  6  2  0  0  0  0
 13 22  1  0  0  0  0
 13 24  1  0  0  0  0
 14 13  2  0  0  0  0
 15 14  1  0  0  0  0
 16 18  2  0  0  0  0
 16 14  1  0  0  0  0
 17 16  1  0  0  0  0
 18 20  1  0  0  0  0
 19 18  1  0  0  0  0
 20 21  1  0  0  0  0
 20 22  2  0  0  0  0
 22 23  1  0  0  0  0
 24 25  1  0  0  0  0
M  END
