1
q = 0.0, confidence = 0.996

 22 23  0  0  1  0  0  0  0  0999 V2000
   -1.1542   -0.8321   -0.6846 N   0  0  0  0  0  2  0  0  0  0  0  0
   -1.5929   -0.7216   -1.9665 N   0  0  0  0  0  0  0  0  0  0  0  0
   -2.8691   -0.5810   -1.9776 N   0  0  0  0  0  0  0  0  0  0  0  0
   -3.2889   -0.6023   -0.6757 N   0  0  0  0  0  0  0  0  0  0  0  0
   -8.7682    0.2429    0.5600 N   0  0  0  0  0  0  0  0  0  0  0  0
   -9.2464   -0.4361    1.4633 O   0  0  0  0  0  0  0  0  0  0  0  0
   -9.3545    1.0951   -0.0992 O   0  0  0  0  0  0  0  0  0  0  0  0
   -2.2089   -0.7514    0.1375 C   0  0  2  0  0  3  0  0  0  0  0  0
   -2.1796   -0.7941    1.6186 C   0  0  0  0  0  0  0  0  0  0  0  0
   -2.9636   -0.1440    2.0505 H   0  0  0  0  0  0  0  0  0  0  0  0
   -1.1874   -0.4521    1.9667 H   0  0  0  0  0  0  0  0  0  0  0  0
   -2.3408   -1.8269    1.9902 H   0  0  0  0  0  0  0  0  0  0  0  0
   -4.6668   -0.4068   -0.3567 C   0  0  0  0  0  0  0  0  0  0  0  0
   -5.2762   -1.1806    0.6472 C   0  0  0  0  0  0  0  0  0  0  0  0
   -4.7159   -1.9678    1.1695 H   0  0  0  0  0  0  0  0  0  0  0  0
   -6.6249   -0.9622    0.9510 C   0  0  0  0  0  0  0  0  0  0  0  0
   -7.1506   -1.5396    1.7233 H   0  0  0  0  0  0  0  0  0  0  0  0
   -7.3282    0.0107    0.2329 C   0  0  0  0  0  0  0  0  0  0  0  0
   -6.7363    0.7701   -0.7832 C   0  0  0  0  0  0  0  0  0  0  0  0
   -7.3436    1.5135   -1.3172 H   0  0  0  0  0  0  0  0  0  0  0  0
   -5.3862    0.5617   -1.0812 C   0  0  0  0  0  0  0  0  0  0  0  0
   -4.8844    1.1351   -1.8727 H   0  0  0  0  0  0  0  0  0  0  0  0
  1  8  1  0  0  0  0
  2  1  1  0  0  0  0
  3  2  2  0  0  0  0
  3  4  1  0  0  0  0
  4 13  1  0  0  0  0
  4  8  1  0  0  0  0
  5  6  2  0  0  0  0
  7  5  2  0  0  0  0
  8  9  1  1  0  0  0
  9 11  1  0  0  0  0
  9 12  1  0  0  0  0
  9 10  1  0  0  0  0
 13 14  1  0  0  0  0
 14 16  2  0  0  0  0
 14 15  1  0  0  0  0
 16 17  1  0  0  0  0
 18  5  1  0  0  0  0
 18 16  1  0  0  0  0
 19 18  2  0  0  0  0
 20 19  1  0  0  0  0
 21 19  1  0  0  0  0
 21 13  2  0  0  0  0
 22 21  1  0  0  0  0
M  END
