1
q = 0.0, confidence = 0.996

 17 17  0  0  0  0  0  0  0  0999 V2000
    0.4841    1.2377    0.0859 N   0  0  0  0  0  2  0  0  0  0  0  0
    2.6347    1.7213   -0.7969 N   0  0  0  0  0  0  0  0  0  0  0  0
    1.4260    1.1047   -0.8098 C   0  0  0  0  0  3  0  0  0  0  0  0
    2.9712    2.6478    0.2800 C   0  0  0  0  0  0  0  0  0  0  0  0
    1.6934    3.2500    0.8612 C   0  0  0  0  0  0  0  0  0  0  0  0
    0.6870    2.1560    1.2102 C   0  0  0  0  0  0  0  0  0  0  0  0
    3.6663    1.3716   -1.7502 C   0  0  0  0  0  0  0  0  0  0  0  0
    1.2419    0.4286   -1.6590 H   0  0  0  0  0  0  0  0  0  0  0  0
    3.6323    3.4375   -0.1358 H   0  0  0  0  0  0  0  0  0  0  0  0
    3.5559    2.1134    1.0651 H   0  0  0  0  0  0  0  0  0  0  0  0
    1.9330    3.8538    1.7582 H   0  0  0  0  0  0  0  0  0  0  0  0
    1.2312    3.9306    0.1162 H   0  0  0  0  0  0  0  0  0  0  0  0
    1.0171    1.5656    2.0949 H   0  0  0  0  0  0  0  0  0  0  0  0
   -0.3042    2.5947    1.4406 H   0  0  0  0  0  0  0  0  0  0  0  0
    4.0517    2.2763   -2.2678 H   0  0  0  0  0  0  0  0  0  0  0  0
    4.5192    0.8610   -1.2502 H   0  0  0  0  0  0  0  0  0  0  0  0
    3.2558    0.6793   -2.5087 H   0  0  0  0  0  0  0  0  0  0  0  0
  1  6  1  0  0  0  0
  2  4  1  0  0  0  0
  3  2  1  0  0  0  0
  3  1  1  0  0  0  0
  4  5  1  0  0  0  0
  4 10  1  0  0  0  0
  5  6  1  0  0  0  0
  5 11  1  0  0  0  0
  6 14  1  0  0  0  0
  6 13  1  0  0  0  0
  7 16  1  0  0  0  0
  7  2  1  0  0  0  0
  8  3  1  0  0  0  0
  9  4  1  0  0  0  0
 12  5  1  0  0  0  0
 15  7  1  0  0  0  0
 17  7  1  0  0  0  0
M  END
