2
q = -1.0, confidence = 0.0

 51 53  0  0  1  0  0  0  0  0999 V2000
    1.3575   -1.9425    0.1897 P   0  0  0  0  0  0  0  0  0  0  0  0
   -0.8308   -0.1496   -0.0111 N   0  0  0  0  0  2  0  0  0  0  0  0
   -3.0501   -2.8886   -0.3144 N   0  0  0  0  0  0  0  0  0  0  0  0
   -2.4442   -1.6842   -0.2140 N   0  0  0  0  0  0  0  0  0  0  0  0
   -0.2120   -2.5191   -0.0223 N   0  0  0  0  0  2  0  0  0  0  0  0
   -1.0777   -1.5233   -0.0776 C   0  0  2  0  0  3  0  0  0  0  0  0
   -2.0543    0.5247   -0.0702 C   0  0  0  0  0  0  0  0  0  0  0  0
   -3.0780   -0.4086   -0.2013 C   0  0  0  0  0  0  0  0  0  0  0  0
   -4.5092   -0.3990   -0.2321 C   0  0  0  0  0  0  0  0  0  0  0  0
   -5.1303   -1.6297   -0.3267 C   0  0  0  0  0  0  0  0  0  0  0  0
   -6.2284   -1.6890   -0.3570 H   0  0  0  0  0  0  0  0  0  0  0  0
   -4.3619   -2.8573   -0.3779 C   0  0  0  0  0  0  0  0  0  0  0  0
   -5.0645   -4.1808   -0.4984 C   0  0  0  0  0  0  0  0  0  0  0  0
   -5.6663   -4.2271   -1.4303 H   0  0  0  0  0  0  0  0  0  0  0  0
   -5.7662   -4.3356    0.3480 H   0  0  0  0  0  0  0  0  0  0  0  0
   -4.3226   -4.9998   -0.5071 H   0  0  0  0  0  0  0  0  0  0  0  0
    1.8727   -2.5117    1.8985 C   0  0  0  0  0  0  0  0  0  0  0  0
    2.9551   -2.2648    1.9822 H   0  0  0  0  0  0  0  0  0  0  0  0
    1.0921   -1.6878    2.9302 C   0  0  0  0  0  0  0  0  0  0  0  0
    0.0031   -1.8747    2.8289 H   0  0  0  0  0  0  0  0  0  0  0  0
    1.2602   -0.6002    2.7870 H   0  0  0  0  0  0  0  0  0  0  0  0
    1.3917   -1.9659    3.9621 H   0  0  0  0  0  0  0  0  0  0  0  0
    1.6559   -4.0176    2.0791 C   0  0  0  0  0  0  0  0  0  0  0  0
    1.8662   -4.3165    3.1274 H   0  0  0  0  0  0  0  0  0  0  0  0
    2.3115   -4.6226    1.4214 H   0  0  0  0  0  0  0  0  0  0  0  0
    0.6037   -4.2774    1.8440 H   0  0  0  0  0  0  0  0  0  0  0  0
    2.3382   -2.9920   -1.0017 C   0  0  0  0  0  0  0  0  0  0  0  0
    1.9148   -4.0044   -0.8184 H   0  0  0  0  0  0  0  0  0  0  0  0
    1.9835   -2.5835   -2.4356 C   0  0  0  0  0  0  0  0  0  0  0  0
    2.3334   -1.5559   -2.6626 H   0  0  0  0  0  0  0  0  0  0  0  0
    0.8860   -2.6085   -2.5838 H   0  0  0  0  0  0  0  0  0  0  0  0
    2.4488   -3.2789   -3.1649 H   0  0  0  0  0  0  0  0  0  0  0  0
    3.8448   -3.0191   -0.7273 C   0  0  0  0  0  0  0  0  0  0  0  0
    4.3531   -3.6751   -1.4646 H   0  0  0  0  0  0  0  0  0  0  0  0
    4.0825   -3.4108    0.2815 H   0  0  0  0  0  0  0  0  0  0  0  0
    4.3050   -2.0139   -0.8143 H   0  0  0  0  0  0  0  0  0  0  0  0
   -2.2312    1.9731    0.1686 C   0  0  0  0  0  0  0  0  0  0  0  0
   -2.6372    2.8486   -0.8614 C   0  0  0  0  0  0  0  0  0  0  0  0
   -2.7702    2.4483   -1.8782 H   0  0  0  0  0  0  0  0  0  0  0  0
   -2.8622    4.2086   -0.5994 C   0  0  0  0  0  0  0  0  0  0  0  0
   -3.1756    4.8782   -1.4148 H   0  0  0  0  0  0  0  0  0  0  0  0
   -2.6848    4.7157    0.6972 C   0  0  0  0  0  0  0  0  0  0  0  0
   -2.8630    5.7821    0.9028 H   0  0  0  0  0  0  0  0  0  0  0  0
   -2.2802    3.8556    1.7322 C   0  0  0  0  0  0  0  0  0  0  0  0
   -2.1456    4.2457    2.7528 H   0  0  0  0  0  0  0  0  0  0  0  0
   -2.0537    2.4971    1.4697 C   0  0  0  0  0  0  0  0  0  0  0  0
   -1.7440    1.8156    2.2764 H   0  0  0  0  0  0  0  0  0  0  0  0
   -5.2852    0.8836   -0.1553 C   0  0  0  0  0  0  0  0  0  0  0  0
   -5.0889    1.5265   -1.0371 H   0  0  0  0  0  0  0  0  0  0  0  0
   -4.9849    1.4810    0.7291 H   0  0  0  0  0  0  0  0  0  0  0  0
   -6.3720    0.6834   -0.1009 H   0  0  0  0  0  0  0  0  0  0  0  0
  1 17  1  0  0  0  0
  3  4  1  0  0  0  0
  4  8  1  0  0  0  0
  4  6  1  0  0  0  0
  5  1  1  0  0  0  0
  6  5  1  1  0  0  0
  6  2  1  0  0  0  0
  7  2  1  0  0  0  0
  7 37  1  0  0  0  0
  8  7  2  0  0  0  0
  9  8  1  0  0  0  0
  9 48  1  0  0  0  0
 10  9  2  0  0  0  0
 11 10  1  0  0  0  0
 12 10  1  0  0  0  0
 12  3  2  0  0  0  0
 13 12  1  0  0  0  0
 13 15  1  0  0  0  0
 14 13  1  0  0  0  0
 16 13  1  0  0  0  0
 17 18  1  0  0  0  0
 17 23  1  0  0  0  0
 17 19  1  0  0  0  0
 19 22  1  0  0  0  0
 20 19  1  0  0  0  0
 21 19  1  0  0  0  0
 23 24  1  0  0  0  0
 25 23  1  0  0  0  0
 26 23  1  0  0  0  0
 27 28  1  0  0  0  0
 27 33  1  0  0  0  0
 27  1  1  0  0  0  0
 29 27  1  0  0  0  0
 30 29  1  0  0  0  0
 31 29  1  0  0  0  0
 32 29  1  0  0  0  0
 33 35  1  0  0  0  0
 34 33  1  0  0  0  0
 36 33  1  0  0  0  0
 37 46  1  0  0  0  0
 38 40  1  0  0  0  0
 38 37  2  0  0  0  0
 39 38  1  0  0  0  0
 40 42  2  0  0  0  0
 41 40  1  0  0  0  0
 42 43  1  0  0  0  0
 42 44  1  0  0  0  0
 44 45  1  0  0  0  0
 46 44  2  0  0  0  0
 46 47  1  0  0  0  0
 48 51  1  0  0  0  0
 48 50  1  0  0  0  0
 49 48  1  0  0  0  0
M  END
