9
q = 0.0, confidence = 0.998

 21 22  0  0  0  0  0  0  0  0999 V2000
   -1.8039    0.5700   -0.4405 C   0  0  0  0  0  0  0  0  0  0  0  0
   -1.4048    3.0629   -0.3427 C   0  0  0  0  0  0  0  0  0  0  0  0
   -2.4871    3.2199   -0.4373 H   0  0  0  0  0  0  0  0  0  0  0  0
   -2.3605   -1.5841   -1.4676 C   0  0  0  0  0  0  0  0  0  0  0  0
   -2.1570   -2.3853   -2.1906 H   0  0  0  0  0  0  0  0  0  0  0  0
   -2.9364    0.4295    0.3881 C   0  0  0  0  0  0  0  0  0  0  0  0
   -3.2158    1.3909    1.2841 F   0  0  0  0  0  0  0  0  0  0  0  0
   -4.2550   -2.7620   -0.6800 F   0  0  0  0  0  0  0  0  0  0  0  0
    0.4241    1.5356   -0.1802 N   0  0  0  0  0  2  0  0  0  0  0  0
    1.2952    2.5675   -0.1469 C   0  0  0  0  0  3  0  0  0  0  0  0
    2.3593    2.3009   -0.0755 H   0  0  0  0  0  0  0  0  0  0  0  0
   -3.7705   -0.6875    0.3253 C   0  0  0  0  0  0  0  0  0  0  0  0
   -4.6309   -0.7840    1.0000 H   0  0  0  0  0  0  0  0  0  0  0  0
   -0.5190    4.1409   -0.2737 C   0  0  0  0  0  0  0  0  0  0  0  0
   -0.9002    5.1725   -0.3006 H   0  0  0  0  0  0  0  0  0  0  0  0
    0.8595    3.8916   -0.1902 C   0  0  0  0  0  0  0  0  0  0  0  0
    1.5953    4.7063   -0.1507 H   0  0  0  0  0  0  0  0  0  0  0  0
   -3.4634   -1.6853   -0.6081 C   0  0  0  0  0  0  0  0  0  0  0  0
   -1.5370   -0.4587   -1.3741 C   0  0  0  0  0  0  0  0  0  0  0  0
   -0.6658   -0.3683   -2.0415 H   0  0  0  0  0  0  0  0  0  0  0  0
   -0.9148    1.7418   -0.3105 C   0  0  0  0  0  0  0  0  0  0  0  0
  1 21  1  0  0  0  0
  1  6  1  0  0  0  0
  2 21  2  0  0  0  0
  2 14  1  0  0  0  0
  3  2  1  0  0  0  0
  4 19  1  0  0  0  0
  4 18  2  0  0  0  0
  5  4  1  0  0  0  0
  6  7  1  0  0  0  0
  8 18  1  0  0  0  0
  9 10  1  0  0  0  0
 10 11  1  0  0  0  0
 12  6  2  0  0  0  0
 12 13  1  0  0  0  0
 14 16  2  0  0  0  0
 15 14  1  0  0  0  0
 16 17  1  0  0  0  0
 16 10  1  0  0  0  0
 18 12  1  0  0  0  0
 19  1  2  0  0  0  0
 20 19  1  0  0  0  0
 21  9  1  0  0  0  0
M  END
