7
q = 0.0, confidence = 0.998

 31 32  0  0  0  0  0  0  0  0999 V2000
    1.9402    0.1804    0.6710 S   0  0  0  0  0  0  0  0  0  0  0  0
   -6.8359   -1.5942   -0.2959 F   0  0  0  0  0  0  0  0  0  0  0  0
    3.1958   -1.6686   -0.8542 N   0  0  0  0  0  0  0  0  0  0  0  0
    3.1610   -2.2656   -1.6857 H   0  0  0  0  0  0  0  0  0  0  0  0
    0.8970   -1.5769   -1.0220 N   0  0  0  0  0  0  0  0  0  0  0  0
    0.9247   -2.4523   -1.5586 H   0  0  0  0  0  0  0  0  0  0  0  0
   -0.3582   -1.1169   -0.6786 N   0  0  0  0  0  2  0  0  0  0  0  0
    4.7507   -1.3327    1.0359 C   0  0  0  0  0  0  0  0  0  0  0  0
    3.9315   -1.4686    1.7553 H   0  0  0  0  0  0  0  0  0  0  0  0
    6.0578   -1.1005    1.4853 C   0  0  0  0  0  0  0  0  0  0  0  0
    6.2517   -1.0406    2.5663 H   0  0  0  0  0  0  0  0  0  0  0  0
    7.1146   -0.9670    0.5708 C   0  0  0  0  0  0  0  0  0  0  0  0
    8.1383   -0.7924    0.9328 H   0  0  0  0  0  0  0  0  0  0  0  0
    6.8639   -1.0680   -0.8069 C   0  0  0  0  0  0  0  0  0  0  0  0
    7.6876   -0.9714   -1.5292 H   0  0  0  0  0  0  0  0  0  0  0  0
    5.5598   -1.2849   -1.2709 C   0  0  0  0  0  0  0  0  0  0  0  0
    5.3580   -1.3498   -2.3515 H   0  0  0  0  0  0  0  0  0  0  0  0
    4.5053   -1.4113   -0.3476 C   0  0  0  0  0  0  0  0  0  0  0  0
    2.0381   -1.0927   -0.4518 C   0  0  0  0  0  0  0  0  0  0  0  0
   -1.3419   -1.7597   -1.2674 C   0  0  0  0  0  3  0  0  0  0  0  0
   -1.0577   -2.4724   -2.0701 H   0  0  0  0  0  0  0  0  0  0  0  0
   -2.7626   -1.6660   -0.9783 C   0  0  0  0  0  0  0  0  0  0  0  0
   -3.2635   -1.5420    0.3433 C   0  0  0  0  0  0  0  0  0  0  0  0
   -2.5559   -1.4904    1.1878 H   0  0  0  0  0  0  0  0  0  0  0  0
   -4.6406   -1.5247    0.5723 C   0  0  0  0  0  0  0  0  0  0  0  0
   -5.0513   -1.4602    1.5902 H   0  0  0  0  0  0  0  0  0  0  0  0
   -5.5216   -1.6206   -0.5179 C   0  0  0  0  0  0  0  0  0  0  0  0
   -5.0542   -1.7672   -1.8339 C   0  0  0  0  0  0  0  0  0  0  0  0
   -5.7765   -1.8598   -2.6570 H   0  0  0  0  0  0  0  0  0  0  0  0
   -3.6762   -1.8125   -2.0544 C   0  0  0  0  0  0  0  0  0  0  0  0
   -3.2998   -1.9453   -3.0805 H   0  0  0  0  0  0  0  0  0  0  0  0
  3 19  1  0  0  0  0
  3 18  1  0  0  0  0
  4  3  1  0  0  0  0
  5  7  1  0  0  0  0
  5 19  1  0  0  0  0
  6  5  1  0  0  0  0
  8 10  1  0  0  0  0
  8  9  1  0  0  0  0
 10 11  1  0  0  0  0
 12 13  1  0  0  0  0
 12 10  2  0  0  0  0
 14 12  1  0  0  0  0
 15 14  1  0  0  0  0
 16 14  2  0  0  0  0
 16 18  1  0  0  0  0
 17 16  1  0  0  0  0
 18  8  2  0  0  0  0
 19  1  2  0  0  0  0
 20 22  1  0  0  0  0
 20  7  1  0  0  0  0
 21 20  1  0  0  0  0
 22 23  1  0  0  0  0
 23 25  2  0  0  0  0
 23 24  1  0  0  0  0
 25 26  1  0  0  0  0
 27  2  1  0  0  0  0
 27 25  1  0  0  0  0
 28 27  2  0  0  0  0
 29 28  1  0  0  0  0
 30 28  1  0  0  0  0
 30 22  2  0  0  0  0
 31 30  1  0  0  0  0
M  END
