7
q = 0.0, confidence = 0.996

 28 29  0  0  0  0  0  0  0  0999 V2000
    4.0068   -2.8009    0.4127 S   0  0  0  0  0  0  0  0  0  0  0  0
   -1.8699    0.6373   -0.3332 S   0  0  0  0  0  0  0  0  0  0  0  0
   -3.1640   -1.7000    0.1207 N   0  0  0  0  0  0  0  0  0  0  0  0
   -3.1180   -2.7223    0.0787 H   0  0  0  0  0  0  0  0  0  0  0  0
   -0.8593   -1.7604    0.1837 N   0  0  0  0  0  0  0  0  0  0  0  0
   -0.9171   -2.7728    0.3491 H   0  0  0  0  0  0  0  0  0  0  0  0
    0.3962   -1.2496   -0.0573 N   0  0  0  0  0  2  0  0  0  0  0  0
    5.2001   -2.1421   -0.6407 C   0  0  0  0  0  0  0  0  0  0  0  0
    6.2563   -2.4010   -0.4916 H   0  0  0  0  0  0  0  0  0  0  0  0
    4.6450   -1.3258   -1.6178 C   0  0  0  0  0  0  0  0  0  0  0  0
    5.2426   -0.8458   -2.4047 H   0  0  0  0  0  0  0  0  0  0  0  0
    3.2365   -1.2097   -1.5059 C   0  0  0  0  0  0  0  0  0  0  0  0
    2.5739   -0.6553   -2.1908 H   0  0  0  0  0  0  0  0  0  0  0  0
    2.7241   -1.9451   -0.4315 C   0  0  0  0  0  0  0  0  0  0  0  0
    1.3645   -2.1428   -0.0127 C   0  0  0  0  0  3  0  0  0  0  0  0
    1.0980   -3.1521    0.3652 H   0  0  0  0  0  0  0  0  0  0  0  0
   -1.9950   -1.0225    0.0128 C   0  0  0  0  0  0  0  0  0  0  0  0
   -4.4836   -1.1600    0.0764 C   0  0  0  0  0  0  0  0  0  0  0  0
   -4.8269   -0.0004    0.7958 C   0  0  0  0  0  0  0  0  0  0  0  0
   -4.0749    0.5165    1.4069 H   0  0  0  0  0  0  0  0  0  0  0  0
   -6.1432    0.4772    0.7374 C   0  0  0  0  0  0  0  0  0  0  0  0
   -6.4126    1.3835    1.2993 H   0  0  0  0  0  0  0  0  0  0  0  0
   -7.1160   -0.2006   -0.0141 C   0  0  0  0  0  0  0  0  0  0  0  0
   -8.1477    0.1782   -0.0505 H   0  0  0  0  0  0  0  0  0  0  0  0
   -6.7701   -1.3680   -0.7128 C   0  0  0  0  0  0  0  0  0  0  0  0
   -7.5268   -1.9073   -1.3011 H   0  0  0  0  0  0  0  0  0  0  0  0
   -5.4547   -1.8481   -0.6745 C   0  0  0  0  0  0  0  0  0  0  0  0
   -5.1775   -2.7532   -1.2371 H   0  0  0  0  0  0  0  0  0  0  0  0
  2 17  2  0  0  0  0
  4  3  1  0  0  0  0
  5  6  1  0  0  0  0
  7 15  1  0  0  0  0
  7  5  1  0  0  0  0
  8  9  1  0  0  0  0
  8  1  1  0  0  0  0
 10 12  1  0  0  0  0
 10  8  2  0  0  0  0
 11 10  1  0  0  0  0
 12 14  2  0  0  0  0
 13 12  1  0  0  0  0
 14 15  1  0  0  0  0
 14  1  1  0  0  0  0
 15 16  1  0  0  0  0
 17  3  1  0  0  0  0
 17  5  1  0  0  0  0
 18  3  1  0  0  0  0
 18 19  1  0  0  0  0
 19 20  1  0  0  0  0
 21 19  2  0  0  0  0
 21 22  1  0  0  0  0
 23 21  1  0  0  0  0
 24 23  1  0  0  0  0
 25 27  1  0  0  0  0
 25 23  2  0  0  0  0
 26 25  1  0  0  0  0
 27 18  2  0  0  0  0
 28 27  1  0  0  0  0
M  END
