1
q = 0.0, confidence = 0.988

 15 15  0  0  0  0  0  0  0  0999 V2000
    2.0321   -0.4232   -0.0001 N   0  0  0  0  0  0  0  0  0  0  0  0
    1.9879   -1.4611   -0.0001 H   0  0  0  0  0  0  0  0  0  0  0  0
    2.7016    0.0261    1.2473 C   0  0  0  0  0  0  0  0  0  0  0  0
    2.6548    1.1329    1.2667 H   0  0  0  0  0  0  0  0  0  0  0  0
    2.0961   -0.3559    2.0944 H   0  0  0  0  0  0  0  0  0  0  0  0
    4.1426   -0.4690    1.3603 C   0  0  0  0  0  0  0  0  0  0  0  0
    4.5950   -0.0952    2.3002 H   0  0  0  0  0  0  0  0  0  0  0  0
    4.1793   -1.5807    1.3926 H   0  0  0  0  0  0  0  0  0  0  0  0
    5.2020    0.1416    0.0010 S   0  0  0  0  0  0  0  0  0  0  0  0
    4.1436   -0.4692   -1.3590 C   0  0  0  0  0  0  0  0  0  0  0  0
    4.1803   -1.5809   -1.3912 H   0  0  0  0  0  0  0  0  0  0  0  0
    4.5967   -0.0955   -2.2987 H   0  0  0  0  0  0  0  0  0  0  0  0
    2.7024    0.0260   -1.2471 C   0  0  0  0  0  0  0  0  0  0  0  0
    2.0976   -0.3561   -2.0946 H   0  0  0  0  0  0  0  0  0  0  0  0
    2.6558    1.1327   -1.2667 H   0  0  0  0  0  0  0  0  0  0  0  0
  1  2  1  0  0  0  0
  1  3  1  0  0  0  0
  3  4  1  0  0  0  0
  3  6  1  0  0  0  0
  3  5  1  0  0  0  0
  6  8  1  0  0  0  0
  6  7  1  0  0  0  0
  9  6  1  0  0  0  0
 10 13  1  0  0  0  0
 10  9  1  0  0  0  0
 11 10  1  0  0  0  0
 12 10  1  0  0  0  0
 13  1  1  0  0  0  0
 14 13  1  0  0  0  0
 15 13  1  0  0  0  0
M  END
