2
q = -1.0, confidence = 0.002

 45 44  0  0  0  0  0  0  0  0999 V2000
    1.1348   -0.0119   -0.6506 P   0  0  0  0  0  0  0  0  0  0  0  0
   -0.3400   -0.2563    0.2406 N   0  0  0  0  0  2  0  0  0  0  0  0
   -0.1356   -0.5903    1.1909 H   0  0  0  0  0  0  0  0  0  0  0  0
    2.1512   -1.2663    0.0089 N   0  0  0  0  0  0  0  0  0  0  0  0
    1.6801    1.4840    0.0738 N   0  0  0  0  0  0  0  0  0  0  0  0
    2.5200   -2.3828   -0.8857 C   0  0  0  0  0  0  0  0  0  0  0  0
    3.0809   -3.1050   -0.2538 H   0  0  0  0  0  0  0  0  0  0  0  0
    3.4722   -1.9331   -2.0025 C   0  0  0  0  0  0  0  0  0  0  0  0
    4.3897   -1.4793   -1.5793 H   0  0  0  0  0  0  0  0  0  0  0  0
    2.9799   -1.1785   -2.6496 H   0  0  0  0  0  0  0  0  0  0  0  0
    3.7681   -2.7898   -2.6422 H   0  0  0  0  0  0  0  0  0  0  0  0
    1.3023   -3.1282   -1.4555 C   0  0  0  0  0  0  0  0  0  0  0  0
    0.6171   -3.4578   -0.6517 H   0  0  0  0  0  0  0  0  0  0  0  0
    1.6151   -4.0186   -2.0395 H   0  0  0  0  0  0  0  0  0  0  0  0
    0.7239   -2.4651   -2.1312 H   0  0  0  0  0  0  0  0  0  0  0  0
    2.3644   -1.4486    1.4489 C   0  0  0  0  0  0  0  0  0  0  0  0
    1.9550   -0.5351    1.9304 H   0  0  0  0  0  0  0  0  0  0  0  0
    1.6064   -2.6525    2.0400 C   0  0  0  0  0  0  0  0  0  0  0  0
    0.5293   -2.6101    1.7810 H   0  0  0  0  0  0  0  0  0  0  0  0
    1.7041   -2.6801    3.1448 H   0  0  0  0  0  0  0  0  0  0  0  0
    2.0024   -3.6127    1.6503 H   0  0  0  0  0  0  0  0  0  0  0  0
    3.8586   -1.4925    1.8040 C   0  0  0  0  0  0  0  0  0  0  0  0
    4.3735   -0.5940    1.4117 H   0  0  0  0  0  0  0  0  0  0  0  0
    4.3520   -2.3854    1.3671 H   0  0  0  0  0  0  0  0  0  0  0  0
    4.0076   -1.5367    2.9025 H   0  0  0  0  0  0  0  0  0  0  0  0
    1.2715    1.9782    1.3956 C   0  0  0  0  0  0  0  0  0  0  0  0
    0.6785    1.1597    1.8522 H   0  0  0  0  0  0  0  0  0  0  0  0
    2.4518    2.2639    2.3387 C   0  0  0  0  0  0  0  0  0  0  0  0
    3.1062    1.3759    2.4414 H   0  0  0  0  0  0  0  0  0  0  0  0
    2.0860    2.5438    3.3479 H   0  0  0  0  0  0  0  0  0  0  0  0
    3.0778    3.1040    1.9737 H   0  0  0  0  0  0  0  0  0  0  0  0
    0.3217    3.1830    1.2881 C   0  0  0  0  0  0  0  0  0  0  0  0
   -0.5750    2.9041    0.7006 H   0  0  0  0  0  0  0  0  0  0  0  0
    0.8116    4.0450    0.7892 H   0  0  0  0  0  0  0  0  0  0  0  0
   -0.0090    3.5262    2.2906 H   0  0  0  0  0  0  0  0  0  0  0  0
    2.5877    2.3446   -0.7114 C   0  0  0  0  0  0  0  0  0  0  0  0
    2.7009    3.2804   -0.1231 H   0  0  0  0  0  0  0  0  0  0  0  0
    2.0026    2.7523   -2.0725 C   0  0  0  0  0  0  0  0  0  0  0  0
    1.0525    3.3082   -1.9435 H   0  0  0  0  0  0  0  0  0  0  0  0
    1.7965    1.8607   -2.6981 H   0  0  0  0  0  0  0  0  0  0  0  0
    2.7085    3.4050   -2.6255 H   0  0  0  0  0  0  0  0  0  0  0  0
    3.9905    1.7370   -0.8634 C   0  0  0  0  0  0  0  0  0  0  0  0
    4.4175    1.4802    0.1260 H   0  0  0  0  0  0  0  0  0  0  0  0
    4.6810    2.4439   -1.3685 H   0  0  0  0  0  0  0  0  0  0  0  0
    3.9531    0.8068   -1.4632 H   0  0  0  0  0  0  0  0  0  0  0  0
  1  4  1  0  0  0  0
  1  5  1  0  0  0  0
  1  2  1  0  0  0  0
  2  3  1  0  0  0  0
  4 16  1  0  0  0  0
  5 26  1  0  0  0  0
  6  7  1  0  0  0  0
  6  4  1  0  0  0  0
  8  9  1  0  0  0  0
  8  6  1  0  0  0  0
 10  8  1  0  0  0  0
 11  8  1  0  0  0  0
 12  6  1  0  0  0  0
 12 13  1  0  0  0  0
 14 12  1  0  0  0  0
 15 12  1  0  0  0  0
 16 22  1  0  0  0  0
 16 17  1  0  0  0  0
 16 18  1  0  0  0  0
 18 20  1  0  0  0  0
 19 18  1  0  0  0  0
 21 18  1  0  0  0  0
 22 25  1  0  0  0  0
 23 22  1  0  0  0  0
 24 22  1  0  0  0  0
 26 27  1  0  0  0  0
 26 28  1  0  0  0  0
 28 29  1  0  0  0  0
 28 30  1  0  0  0  0
 31 28  1  0  0  0  0
 32 26  1  0  0  0  0
 32 35  1  0  0  0  0
 33 32  1  0  0  0  0
 34 32  1  0  0  0  0
 36 37  1  0  0  0  0
 36  5  1  0  0  0  0
 38 39  1  0  0  0  0
 38 36  1  0  0  0  0
 40 38  1  0  0  0  0
 41 38  1  0  0  0  0
 42 36  1  0  0  0  0
 42 43  1  0  0  0  0
 44 42  1  0  0  0  0
 45 42  1  0  0  0  0
M  END
