2
q = -1.0, confidence = 0.0

 21 23  0  0  0  0  0  0  0  0999 V2000
   -0.5437   -0.8705   -0.0008 N   0  0  0  0  0  0  0  0  0  0  0  0
    0.6356   -1.4850   -0.0007 N   0  0  0  0  0  2  0  0  0  0  0  0
    0.4985   -2.8252   -0.0007 N   0  0  0  0  0  0  0  0  0  0  0  0
   -0.7936   -3.0900   -0.0008 N   0  0  0  0  0  0  0  0  0  0  0  0
   -3.3542   -0.4543   -0.0008 N   0  0  0  0  0  0  0  0  0  0  0  0
   -1.4268   -1.8836   -0.0008 C   0  0  0  0  0  0  0  0  0  0  0  0
   -2.8833   -1.7011   -0.0008 C   0  0  0  0  0  0  0  0  0  0  0  0
   -3.7258   -2.8607   -0.0007 C   0  0  0  0  0  0  0  0  0  0  0  0
   -3.2520   -3.8524   -0.0007 H   0  0  0  0  0  0  0  0  0  0  0  0
   -5.0955   -2.6889   -0.0005 C   0  0  0  0  0  0  0  0  0  0  0  0
   -5.7756   -3.5557   -0.0004 H   0  0  0  0  0  0  0  0  0  0  0  0
   -5.6411   -1.3714   -0.0004 C   0  0  0  0  0  0  0  0  0  0  0  0
   -7.0376   -1.0974   -0.0002 C   0  0  0  0  0  0  0  0  0  0  0  0
   -7.7447   -1.9422   -0.0001 H   0  0  0  0  0  0  0  0  0  0  0  0
   -7.5007    0.2115   -0.0002 C   0  0  0  0  0  0  0  0  0  0  0  0
   -8.5824    0.4139   -0.0000 H   0  0  0  0  0  0  0  0  0  0  0  0
   -6.5811    1.2961   -0.0003 C   0  0  0  0  0  0  0  0  0  0  0  0
   -6.9625    2.3289   -0.0002 H   0  0  0  0  0  0  0  0  0  0  0  0
   -5.2142    1.0606   -0.0005 C   0  0  0  0  0  0  0  0  0  0  0  0
   -4.4777    1.8781   -0.0006 H   0  0  0  0  0  0  0  0  0  0  0  0
   -4.7038   -0.2727   -0.0006 C   0  0  0  0  0  0  0  0  0  0  0  0
  1  2  1  0  0  0  0
  3  2  1  0  0  0  0
  4  3  2  0  0  0  0
  5 21  1  0  0  0  0
  6  1  2  0  0  0  0
  6  4  1  0  0  0  0
  6  7  1  0  0  0  0
  7  5  2  0  0  0  0
  7  8  1  0  0  0  0
  8 10  2  0  0  0  0
  9  8  1  0  0  0  0
 10 12  1  0  0  0  0
 10 11  1  0  0  0  0
 12 13  1  0  0  0  0
 13 15  2  0  0  0  0
 13 14  1  0  0  0  0
 15 16  1  0  0  0  0
 17 18  1  0  0  0  0
 17 15  1  0  0  0  0
 19 17  2  0  0  0  0
 20 19  1  0  0  0  0
 21 19  1  0  0  0  0
 21 12  2  0  0  0  0
M  END
