23
q = 0.0, confidence = 0.994

 32 34  0  0  0  0  0  0  0  0999 V2000
    2.7242   -0.7555   -0.8878 C   0  0  0  0  0  3  0  0  0  0  0  0
    2.1161   -1.3113   -1.6149 H   0  0  0  0  0  0  0  0  0  0  0  0
    4.1183   -0.7840   -0.9082 C   0  0  0  0  0  0  0  0  0  0  0  0
    4.6216   -1.4005   -1.6659 H   0  0  0  0  0  0  0  0  0  0  0  0
    4.8639    0.0001   -0.0000 C   0  0  0  0  0  0  0  0  0  0  0  0
    4.1184    0.7843    0.9081 C   0  0  0  0  0  0  0  0  0  0  0  0
    4.6217    1.4008    1.6658 H   0  0  0  0  0  0  0  0  0  0  0  0
    2.7243    0.7560    0.8876 C   0  0  0  0  0  0  0  0  0  0  0  0
    2.1162    1.3119    1.6148 H   0  0  0  0  0  0  0  0  0  0  0  0
    6.3433    0.0000   -0.0000 C   0  0  0  0  0  0  0  0  0  0  0  0
    7.0701   -1.1555   -0.3724 C   0  0  0  0  0  0  0  0  0  0  0  0
    6.5287   -2.0755   -0.6387 H   0  0  0  0  0  0  0  0  0  0  0  0
    8.4668   -1.1574   -0.3691 C   0  0  0  0  0  0  0  0  0  0  0  0
    9.0391   -2.0542   -0.6450 H   0  0  0  0  0  0  0  0  0  0  0  0
    9.1828   -0.0002    0.0000 C   0  0  0  0  0  0  0  0  0  0  0  0
    8.4669    1.1572    0.3691 C   0  0  0  0  0  0  0  0  0  0  0  0
    9.0394    2.0539    0.6450 H   0  0  0  0  0  0  0  0  0  0  0  0
    7.0702    1.1554    0.3724 C   0  0  0  0  0  0  0  0  0  0  0  0
    6.5290    2.0756    0.6387 H   0  0  0  0  0  0  0  0  0  0  0  0
   10.6715   -0.0003    0.0000 C   0  0  0  0  0  0  0  0  0  0  0  0
   12.6408   -1.0779   -0.3402 C   0  0  0  0  0  0  0  0  0  0  0  0
   12.6409    1.0771    0.3403 C   0  0  0  0  0  0  0  0  0  0  0  0
    2.0343    0.0003   -0.0001 N   0  0  0  0  0  2  0  0  0  0  0  0
   11.2871   -1.1392   -0.3598 N   0  0  0  0  0  4  0  0  0  0  0  0
   13.3747   -0.0005    0.0001 N   0  0  0  0  0  0  0  0  0  0  0  0
   11.2872    1.1386    0.3599 N   0  0  0  0  0  2  0  0  0  0  0  0
   13.3096   -2.2033   -0.6956 N   0  0  0  0  0  0  0  0  0  0  0  0
   14.3265   -2.2016   -0.6942 H   0  0  0  0  0  0  0  0  0  0  0  0
   12.7801   -3.0314   -0.9561 H   0  0  0  0  0  0  0  0  0  0  0  0
   13.3099    2.2024    0.6957 N   0  0  0  0  0  0  0  0  0  0  0  0
   12.7805    3.0305    0.9562 H   0  0  0  0  0  0  0  0  0  0  0  0
   14.3267    2.2006    0.6943 H   0  0  0  0  0  0  0  0  0  0  0  0
  1 23  1  0  0  0  0
  2  1  1  0  0  0  0
  3  1  1  0  0  0  0
  3  5  2  0  0  0  0
  4  3  1  0  0  0  0
  5 10  1  0  0  0  0
  5  6  1  0  0  0  0
  6  7  1  0  0  0  0
  8  6  2  0  0  0  0
  8  9  1  0  0  0  0
 10 18  1  0  0  0  0
 11 13  1  0  0  0  0
 11 10  2  0  0  0  0
 12 11  1  0  0  0  0
 13 15  2  0  0  0  0
 14 13  1  0  0  0  0
 15 20  1  0  0  0  0
 15 16  1  0  0  0  0
 16 18  2  0  0  0  0
 16 17  1  0  0  0  0
 18 19  1  0  0  0  0
 20 26  1  0  0  0  0
 21 25  1  0  0  0  0
 22 26  1  0  0  0  0
 22 30  1  0  0  0  0
 23  8  1  0  0  0  0
 24 21  2  0  0  0  0
 24 20  2  0  0  0  0
 25 22  2  0  0  0  0
 27 28  1  0  0  0  0
 27 21  1  0  0  0  0
 29 27  1  0  0  0  0
 30 31  1  0  0  0  0
 32 30  1  0  0  0  0
M  END
