3
q = -1.0, confidence = 0.0

 80 88  0  0  0  0  0  0  0  0999 V2000
    0.0003   -2.1598   -0.8618 N   0  0  0  0  0  0  0  0  0  0  0  0
    2.1046    0.0408   -0.3018 N   0  0  0  0  0  0  0  0  0  0  0  0
   -0.0004    2.1330   -0.0816 N   0  0  0  0  0  0  0  0  0  0  0  0
   -2.1047    0.0400   -0.3013 N   0  0  0  0  0  0  0  0  0  0  0  0
   -2.4841   -2.4000   -0.5247 C   0  0  0  0  0  0  0  0  0  0  0  0
   -1.1358   -2.8306   -0.3986 C   0  0  0  0  0  0  0  0  0  0  0  0
   -0.6906   -3.9829    0.3257 C   0  0  0  0  0  0  0  0  0  0  0  0
   -1.3587   -4.6543    0.8742 H   0  0  0  0  0  0  0  0  0  0  0  0
    0.6918   -3.9827    0.3257 C   0  0  0  0  0  0  0  0  0  0  0  0
    1.3601   -4.6538    0.8742 H   0  0  0  0  0  0  0  0  0  0  0  0
    1.1366   -2.8303   -0.3986 C   0  0  0  0  0  0  0  0  0  0  0  0
    2.4848   -2.3992   -0.5246 C   0  0  0  0  0  0  0  0  0  0  0  0
    2.8919   -1.0363   -0.6127 C   0  0  0  0  0  0  0  0  0  0  0  0
    4.2241   -0.5825   -0.9968 C   0  0  0  0  0  0  0  0  0  0  0  0
    5.0390   -1.2237   -1.3505 H   0  0  0  0  0  0  0  0  0  0  0  0
    4.2191    0.7859   -0.8817 C   0  0  0  0  0  0  0  0  0  0  0  0
    5.0306    1.4823   -1.1188 H   0  0  0  0  0  0  0  0  0  0  0  0
    2.8809    1.1630   -0.4344 C   0  0  0  0  0  0  0  0  0  0  0  0
    2.4597    2.5082   -0.2289 C   0  0  0  0  0  0  0  0  0  0  0  0
    1.1177    2.9461   -0.0708 C   0  0  0  0  0  0  0  0  0  0  0  0
    0.6876    4.3290    0.0234 C   0  0  0  0  0  0  0  0  0  0  0  0
    1.3518    5.1981    0.0687 H   0  0  0  0  0  0  0  0  0  0  0  0
   -0.6891    4.3288    0.0236 C   0  0  0  0  0  0  0  0  0  0  0  0
   -1.3535    5.1977    0.0691 H   0  0  0  0  0  0  0  0  0  0  0  0
   -1.1188    2.9458   -0.0705 C   0  0  0  0  0  3  0  0  0  0  0  0
   -2.4606    2.5074   -0.2283 C   0  0  0  0  0  0  0  0  0  0  0  0
   -2.8813    1.1620   -0.4339 C   0  0  0  0  0  0  0  0  0  0  0  0
   -4.2193    0.7846   -0.8814 C   0  0  0  0  0  0  0  0  0  0  0  0
   -5.0310    1.4808   -1.1185 H   0  0  0  0  0  0  0  0  0  0  0  0
   -4.2239   -0.5838   -0.9969 C   0  0  0  0  0  0  0  0  0  0  0  0
   -5.0385   -1.2252   -1.3509 H   0  0  0  0  0  0  0  0  0  0  0  0
   -2.8916   -1.0373   -0.6127 C   0  0  0  0  0  0  0  0  0  0  0  0
   -3.5254   -3.4518   -0.4304 C   0  0  0  0  0  0  0  0  0  0  0  0
   -4.6499   -3.2949    0.4155 C   0  0  0  0  0  0  0  0  0  0  0  0
   -4.7353   -2.3839    1.0257 H   0  0  0  0  0  0  0  0  0  0  0  0
   -5.6230   -4.2984    0.5068 C   0  0  0  0  0  0  0  0  0  0  0  0
   -6.4839   -4.1626    1.1791 H   0  0  0  0  0  0  0  0  0  0  0  0
   -5.4940   -5.4803   -0.2411 C   0  0  0  0  0  0  0  0  0  0  0  0
   -6.2593   -6.2678   -0.1677 H   0  0  0  0  0  0  0  0  0  0  0  0
   -4.3796   -5.6547   -1.0781 C   0  0  0  0  0  0  0  0  0  0  0  0
   -4.2728   -6.5765   -1.6699 H   0  0  0  0  0  0  0  0  0  0  0  0
   -3.4044   -4.6533   -1.1695 C   0  0  0  0  0  0  0  0  0  0  0  0
   -2.5384   -4.7840   -1.8355 H   0  0  0  0  0  0  0  0  0  0  0  0
    3.5264   -3.4506   -0.4300 C   0  0  0  0  0  0  0  0  0  0  0  0
    3.4062   -4.6521   -1.1691 C   0  0  0  0  0  0  0  0  0  0  0  0
    2.5404   -4.7831   -1.8354 H   0  0  0  0  0  0  0  0  0  0  0  0
    4.3817   -5.6531   -1.0774 C   0  0  0  0  0  0  0  0  0  0  0  0
    4.2754   -6.5750   -1.6692 H   0  0  0  0  0  0  0  0  0  0  0  0
    5.4957   -5.4784   -0.2400 C   0  0  0  0  0  0  0  0  0  0  0  0
    6.2613   -6.2656   -0.1664 H   0  0  0  0  0  0  0  0  0  0  0  0
    5.6240   -4.2965    0.5080 C   0  0  0  0  0  0  0  0  0  0  0  0
    6.4846   -4.1603    1.1806 H   0  0  0  0  0  0  0  0  0  0  0  0
    4.6506   -3.2933    0.4164 C   0  0  0  0  0  0  0  0  0  0  0  0
    4.7354   -2.3823    1.0266 H   0  0  0  0  0  0  0  0  0  0  0  0
    3.5284    3.5518   -0.2559 C   0  0  0  0  0  0  0  0  0  0  0  0
    4.5527    3.5427    0.7166 C   0  0  0  0  0  0  0  0  0  0  0  0
    4.5372    2.7698    1.4998 H   0  0  0  0  0  0  0  0  0  0  0  0
    5.5691    4.5085    0.6957 C   0  0  0  0  0  0  0  0  0  0  0  0
    6.3544    4.4906    1.4669 H   0  0  0  0  0  0  0  0  0  0  0  0
    5.5839    5.4966   -0.3016 C   0  0  0  0  0  0  0  0  0  0  0  0
    6.3828    6.2534   -0.3192 H   0  0  0  0  0  0  0  0  0  0  0  0
    4.5761    5.5112   -1.2792 C   0  0  0  0  0  0  0  0  0  0  0  0
    4.5873    6.2749   -2.0719 H   0  0  0  0  0  0  0  0  0  0  0  0
    3.5571    4.5481   -1.2567 C   0  0  0  0  0  0  0  0  0  0  0  0
    2.7774    4.5489   -2.0332 H   0  0  0  0  0  0  0  0  0  0  0  0
   -3.5297    3.5505   -0.2551 C   0  0  0  0  0  0  0  0  0  0  0  0
   -3.5588    4.5469   -1.2558 C   0  0  0  0  0  0  0  0  0  0  0  0
   -2.7792    4.5482   -2.0323 H   0  0  0  0  0  0  0  0  0  0  0  0
   -4.5783    5.5097   -1.2781 C   0  0  0  0  0  0  0  0  0  0  0  0
   -4.5898    6.2735   -2.0707 H   0  0  0  0  0  0  0  0  0  0  0  0
   -5.5860    5.4945   -0.3004 C   0  0  0  0  0  0  0  0  0  0  0  0
   -6.3852    6.2510   -0.3179 H   0  0  0  0  0  0  0  0  0  0  0  0
   -5.5708    4.5063    0.6967 C   0  0  0  0  0  0  0  0  0  0  0  0
   -6.3560    4.4879    1.4679 H   0  0  0  0  0  0  0  0  0  0  0  0
   -4.5540    3.5409    0.7175 C   0  0  0  0  0  0  0  0  0  0  0  0
   -4.5382    2.7679    1.5005 H   0  0  0  0  0  0  0  0  0  0  0  0
    0.0001   -1.2806   -2.0320 C   0  0  0  0  0  0  0  0  0  0  0  0
    0.9035   -1.4951   -2.6325 H   0  0  0  0  0  0  0  0  0  0  0  0
   -0.0003   -0.2095   -1.7577 H   0  0  0  0  0  0  0  0  0  0  0  0
   -0.9031   -1.4957   -2.6326 H   0  0  0  0  0  0  0  0  0  0  0  0
  1 11  1  0  0  0  0
  1  6  1  0  0  0  0
  3 20  2  0  0  0  0
  3 25  1  0  0  0  0
  5 33  1  0  0  0  0
  5  6  2  0  0  0  0
  6  7  1  0  0  0  0
  7  8  1  0  0  0  0
  9  7  2  0  0  0  0
  9 10  1  0  0  0  0
 11  9  1  0  0  0  0
 12 44  1  0  0  0  0
 12 11  2  0  0  0  0
 13 12  1  0  0  0  0
 13  2  2  0  0  0  0
 14 16  2  0  0  0  0
 14 13  1  0  0  0  0
 15 14  1  0  0  0  0
 16 18  1  0  0  0  0
 17 16  1  0  0  0  0
 18  2  1  0  0  0  0
 18 19  2  0  0  0  0
 19 20  1  0  0  0  0
 20 21  1  0  0  0  0
 21 23  2  0  0  0  0
 21 22  1  0  0  0  0
 23 24  1  0  0  0  0
 25 23  1  0  0  0  0
 26 25  1  0  0  0  0
 27  4  1  0  0  0  0
 27 26  2  0  0  0  0
 28 27  1  0  0  0  0
 29 28  1  0  0  0  0
 30 28  2  0  0  0  0
 30 32  1  0  0  0  0
 31 30  1  0  0  0  0
 32  5  1  0  0  0  0
 32  4  2  0  0  0  0
 33 34  1  0  0  0  0
 34 36  2  0  0  0  0
 34 35  1  0  0  0  0
 36 37  1  0  0  0  0
 38 39  1  0  0  0  0
 38 36  1  0  0  0  0
 40 38  2  0  0  0  0
 41 40  1  0  0  0  0
 42 40  1  0  0  0  0
 42 33  2  0  0  0  0
 43 42  1  0  0  0  0
 44 53  1  0  0  0  0
 45 47  1  0  0  0  0
 45 44  2  0  0  0  0
 46 45  1  0  0  0  0
 47 49  2  0  0  0  0
 48 47  1  0  0  0  0
 49 50  1  0  0  0  0
 49 51  1  0  0  0  0
 51 52  1  0  0  0  0
 53 51  2  0  0  0  0
 53 54  1  0  0  0  0
 55 19  1  0  0  0  0
 55 56  1  0  0  0  0
 56 57  1  0  0  0  0
 58 56  2  0  0  0  0
 58 59  1  0  0  0  0
 60 58  1  0  0  0  0
 61 60  1  0  0  0  0
 62 64  1  0  0  0  0
 62 60  2  0  0  0  0
 63 62  1  0  0  0  0
 64 55  2  0  0  0  0
 65 64  1  0  0  0  0
 66 26  1  0  0  0  0
 66 75  1  0  0  0  0
 67 66  2  0  0  0  0
 68 67  1  0  0  0  0
 69 67  1  0  0  0  0
 69 71  2  0  0  0  0
 70 69  1  0  0  0  0
 71 73  1  0  0  0  0
 72 71  1  0  0  0  0
 73 75  2  0  0  0  0
 73 74  1  0  0  0  0
 75 76  1  0  0  0  0
 77 79  1  0  0  0  0
 77  1  1  0  0  0  0
 78 77  1  0  0  0  0
 80 77  1  0  0  0  0
M  END
