34
q = 0.0, confidence = 0.996

 53 58  0  0  1  0  0  0  0  0999 V2000
   -1.5786    0.5052   -0.1484 P   0  0  0  0  0  0  0  0  0  0  0  0
   -1.0292    1.9093   -1.1985 C   0  0  0  0  0  0  0  0  0  0  0  0
    0.2445    2.4920   -0.9671 C   0  0  0  0  0  0  0  0  0  0  0  0
    0.5988    3.6744   -1.6521 C   0  0  0  0  0  0  0  0  0  0  0  0
    1.5844    4.1210   -1.4651 H   0  0  0  0  0  0  0  0  0  0  0  0
   -0.2802    4.2568   -2.5733 C   0  0  0  0  0  0  0  0  0  0  0  0
    0.0177    5.1687   -3.1107 H   0  0  0  0  0  0  0  0  0  0  0  0
   -1.5331    3.6744   -2.8058 C   0  0  0  0  0  0  0  0  0  0  0  0
   -2.2297    4.1245   -3.5286 H   0  0  0  0  0  0  0  0  0  0  0  0
   -1.9092    2.5140   -2.1096 C   0  0  0  0  0  0  0  0  0  0  0  0
   -2.9009    2.0730   -2.2844 H   0  0  0  0  0  0  0  0  0  0  0  0
   -3.0811   -0.1652   -0.9429 C   0  0  0  0  0  0  0  0  0  0  0  0
   -2.9876   -0.6079   -2.2828 C   0  0  0  0  0  0  0  0  0  0  0  0
   -2.0327   -0.5110   -2.8222 H   0  0  0  0  0  0  0  0  0  0  0  0
   -4.0992   -1.1940   -2.9028 C   0  0  0  0  0  0  0  0  0  0  0  0
   -4.0214   -1.5310   -3.9472 H   0  0  0  0  0  0  0  0  0  0  0  0
   -5.3019   -1.3599   -2.1956 C   0  0  0  0  0  0  0  0  0  0  0  0
   -6.1709   -1.8236   -2.6859 H   0  0  0  0  0  0  0  0  0  0  0  0
   -5.3939   -0.9317   -0.8621 C   0  0  0  0  0  0  0  0  0  0  0  0
   -6.3337   -1.0575   -0.3041 H   0  0  0  0  0  0  0  0  0  0  0  0
   -4.2905   -0.3330   -0.2341 C   0  0  0  0  0  0  0  0  0  0  0  0
   -4.3774    0.0049    0.8081 H   0  0  0  0  0  0  0  0  0  0  0  0
   -2.1107    1.4243    1.3535 C   0  0  0  0  0  0  0  0  0  0  0  0
   -1.3251    1.3454    2.5191 C   0  0  0  0  0  0  0  0  0  0  0  0
   -0.4460    0.6864    2.5227 H   0  0  0  0  0  0  0  0  0  0  0  0
   -1.6538    2.1125    3.6474 C   0  0  0  0  0  0  0  0  0  0  0  0
   -1.0365    2.0439    4.5559 H   0  0  0  0  0  0  0  0  0  0  0  0
   -2.7654    2.9680    3.6141 C   0  0  0  0  0  0  0  0  0  0  0  0
   -3.0263    3.5681    4.4986 H   0  0  0  0  0  0  0  0  0  0  0  0
   -3.5388    3.0681    2.4451 C   0  0  0  0  0  0  0  0  0  0  0  0
   -4.4015    3.7501    2.4113 H   0  0  0  0  0  0  0  0  0  0  0  0
   -3.2111    2.3082    1.3138 C   0  0  0  0  0  0  0  0  0  0  0  0
   -3.8097    2.4123    0.3963 H   0  0  0  0  0  0  0  0  0  0  0  0
    1.3470    0.6755    0.3687 N   0  0  0  0  0  2  0  0  0  0  0  0
    2.2088    2.7505    0.3586 O   0  0  0  0  0  0  0  0  0  0  0  0
    1.2390    1.9117   -0.0543 C   0  0  1  0  0  3  0  0  0  0  0  0
    2.6846    0.5690    0.9914 C   0  0  1  0  0  0  0  0  0  0  0  0
    2.6419   -0.0929    1.8774 H   0  0  0  0  0  0  0  0  0  0  0  0
    3.7754    0.1825   -0.0017 C   0  0  0  0  0  0  0  0  0  0  0  0
    3.8047   -0.8831   -0.9118 C   0  0  0  0  0  0  0  0  0  0  0  0
    2.9434   -1.5556   -1.0134 H   0  0  0  0  0  0  0  0  0  0  0  0
    4.9249   -1.0292   -1.7455 C   0  0  0  0  0  0  0  0  0  0  0  0
    4.9581   -1.8544   -2.4723 H   0  0  0  0  0  0  0  0  0  0  0  0
    5.9923   -0.1161   -1.6760 C   0  0  0  0  0  0  0  0  0  0  0  0
    6.8626   -0.2425   -2.3371 H   0  0  0  0  0  0  0  0  0  0  0  0
    5.9433    0.9734   -0.7911 C   0  0  0  0  0  0  0  0  0  0  0  0
    6.7644    1.7058   -0.7633 H   0  0  0  0  0  0  0  0  0  0  0  0
    4.8244    1.1241    0.0397 C   0  0  0  0  0  0  0  0  0  0  0  0
    4.5249    2.2298    1.0262 C   0  0  0  0  0  0  0  0  0  0  0  0
    4.7276    3.2465    0.6336 H   0  0  0  0  0  0  0  0  0  0  0  0
    5.1133    2.1249    1.9635 H   0  0  0  0  0  0  0  0  0  0  0  0
    3.0402    2.0338    1.3283 C   0  0  1  0  0  0  0  0  0  0  0  0
    2.7257    2.3789    2.3347 H   0  0  0  0  0  0  0  0  0  0  0  0
  1 23  1  0  0  0  0
  2  3  1  0  0  0  0
  2  1  1  0  0  0  0
  4  5  1  0  0  0  0
  4  3  2  0  0  0  0
  6  4  1  0  0  0  0
  7  6  1  0  0  0  0
  8  6  2  0  0  0  0
  8 10  1  0  0  0  0
  9  8  1  0  0  0  0
 10  2  2  0  0  0  0
 11 10  1  0  0  0  0
 12 21  1  0  0  0  0
 12  1  1  0  0  0  0
 13 12  2  0  0  0  0
 14 13  1  0  0  0  0
 15 13  1  0  0  0  0
 15 17  2  0  0  0  0
 16 15  1  0  0  0  0
 17 19  1  0  0  0  0
 18 17  1  0  0  0  0
 19 20  1  0  0  0  0
 19 21  2  0  0  0  0
 21 22  1  0  0  0  0
 23 24  1  0  0  0  0
 24 25  1  0  0  0  0
 24 26  2  0  0  0  0
 26 27  1  0  0  0  0
 28 26  1  0  0  0  0
 28 29  1  0  0  0  0
 30 28  2  0  0  0  0
 31 30  1  0  0  0  0
 32 23  2  0  0  0  0
 32 30  1  0  0  0  0
 33 32  1  0  0  0  0
 34 37  1  0  0  0  0
 35 52  1  0  0  0  0
 36  3  1  6  0  0  0
 36 35  1  0  0  0  0
 36 34  1  0  0  0  0
 37 52  1  0  0  0  0
 37 38  1  1  0  0  0
 39 48  1  0  0  0  0
 39 37  1  0  0  0  0
 40 39  2  0  0  0  0
 41 40  1  0  0  0  0
 42 44  2  0  0  0  0
 42 40  1  0  0  0  0
 43 42  1  0  0  0  0
 44 46  1  0  0  0  0
 45 44  1  0  0  0  0
 46 47  1  0  0  0  0
 46 48  2  0  0  0  0
 48 49  1  0  0  0  0
 49 52  1  0  0  0  0
 49 51  1  0  0  0  0
 50 49  1  0  0  0  0
 52 53  1  1  0  0  0
M  END
