1
q = 0.0, confidence = 1.0

 23 22  0  0  0  0  0  0  0  0999 V2000
   -1.0318    1.1016   -0.0749 N   0  0  0  0  0  2  0  0  0  0  0  0
   -3.1166   -0.1204    0.4119 N   0  0  0  0  0  2  0  0  0  0  0  0
   -1.0592    2.5965   -0.1509 C   0  0  0  0  0  0  0  0  0  0  0  0
    0.0058    2.8950   -0.1895 H   0  0  0  0  0  0  0  0  0  0  0  0
   -1.7000    3.2124    1.0936 C   0  0  0  0  0  0  0  0  0  0  0  0
   -1.1619    2.9163    2.0138 H   0  0  0  0  0  0  0  0  0  0  0  0
   -2.7605    2.9000    1.1942 H   0  0  0  0  0  0  0  0  0  0  0  0
   -1.6774    4.3181    1.0232 H   0  0  0  0  0  0  0  0  0  0  0  0
   -1.7530    3.0422   -1.4399 C   0  0  0  0  0  0  0  0  0  0  0  0
   -1.3022    2.5563   -2.3270 H   0  0  0  0  0  0  0  0  0  0  0  0
   -1.6738    4.1406   -1.5645 H   0  0  0  0  0  0  0  0  0  0  0  0
   -2.8316    2.7788   -1.4139 H   0  0  0  0  0  0  0  0  0  0  0  0
   -2.1106    0.4887    0.0997 C   0  0  0  0  0  2  0  0  0  0  0  0
   -4.1988   -0.7427   -0.3533 C   0  0  0  0  0  0  0  0  0  0  0  0
   -3.9016   -0.7855   -1.4262 H   0  0  0  0  0  0  0  0  0  0  0  0
   -4.4216   -2.1677    0.1561 C   0  0  0  0  0  0  0  0  0  0  0  0
   -3.5083   -2.7818    0.0357 H   0  0  0  0  0  0  0  0  0  0  0  0
   -5.2435   -2.6481   -0.4105 H   0  0  0  0  0  0  0  0  0  0  0  0
   -4.6956   -2.1551    1.2303 H   0  0  0  0  0  0  0  0  0  0  0  0
   -5.4535    0.1270   -0.2252 C   0  0  0  0  0  0  0  0  0  0  0  0
   -5.2750    1.1482   -0.6172 H   0  0  0  0  0  0  0  0  0  0  0  0
   -5.7600    0.2109    0.8368 H   0  0  0  0  0  0  0  0  0  0  0  0
   -6.2889   -0.3236   -0.7965 H   0  0  0  0  0  0  0  0  0  0  0  0
  1 13  1  0  0  0  0
  3  1  1  0  0  0  0
  3  5  1  0  0  0  0
  4  3  1  0  0  0  0
  5  7  1  0  0  0  0
  5  6  1  0  0  0  0
  8  5  1  0  0  0  0
  9 12  1  0  0  0  0
  9  3  1  0  0  0  0
 10  9  1  0  0  0  0
 11  9  1  0  0  0  0
 13  2  1  0  0  0  0
 14 20  1  0  0  0  0
 14 16  1  0  0  0  0
 14  2  1  0  0  0  0
 15 14  1  0  0  0  0
 16 19  1  0  0  0  0
 17 16  1  0  0  0  0
 18 16  1  0  0  0  0
 20 22  1  0  0  0  0
 21 20  1  0  0  0  0
 23 20  1  0  0  0  0
M  END
