3
q = 0.0, confidence = 0.992

 70 76  0  0  1  0  0  0  0  0999 V2000
   -0.9225   -0.6689    0.6754 P   0  0  0  0  0  0  0  0  0  0  0  0
    0.8922    2.9140   -1.6710 O   0  0  0  0  0  0  0  0  0  0  0  0
   -1.0127    1.7348   -1.5191 N   0  0  0  0  0  2  0  0  0  0  0  0
    1.4945    0.8261    0.7005 C   0  0  0  0  0  0  0  0  0  0  0  0
    0.3028    0.5252    1.3885 C   0  0  0  0  0  0  0  0  0  0  0  0
    0.0025    1.1918    2.6139 C   0  0  0  0  0  0  0  0  0  0  0  0
   -0.9143    0.9347    3.1620 H   0  0  0  0  0  0  0  0  0  0  0  0
    0.8633    2.1451    3.1312 C   0  0  0  0  0  0  0  0  0  0  0  0
    0.6245    2.6419    4.0841 H   0  0  0  0  0  0  0  0  0  0  0  0
    2.9499    3.4939    2.9565 C   0  0  0  0  0  0  0  0  0  0  0  0
    2.6982    3.9950    3.9038 H   0  0  0  0  0  0  0  0  0  0  0  0
    4.1054    3.8270    2.2673 C   0  0  0  0  0  0  0  0  0  0  0  0
    4.7830    4.5969    2.6652 H   0  0  0  0  0  0  0  0  0  0  0  0
    4.4179    3.1784    1.0418 C   0  0  0  0  0  0  0  0  0  0  0  0
    5.3329    3.4556    0.4976 H   0  0  0  0  0  0  0  0  0  0  0  0
    3.5795    2.2020    0.5264 C   0  0  0  0  0  0  0  0  0  0  0  0
    3.8237    1.7105   -0.4257 H   0  0  0  0  0  0  0  0  0  0  0  0
    2.3861    1.8284    1.2152 C   0  0  0  0  0  0  0  0  0  0  0  0
    2.0632    2.4980    2.4522 C   0  0  0  0  0  0  0  0  0  0  0  0
    1.8222    0.1363   -0.5861 C   0  0  0  0  0  0  0  0  0  0  0  0
    1.1366    0.5206   -1.7441 C   0  0  0  0  0  0  0  0  0  0  0  0
    1.3009   -0.1801   -2.9711 C   0  0  0  0  0  0  0  0  0  0  0  0
    0.7302    0.1360   -3.8563 H   0  0  0  0  0  0  0  0  0  0  0  0
    2.1971   -1.2334   -3.0417 C   0  0  0  0  0  0  0  0  0  0  0  0
    2.3361   -1.7783   -3.9877 H   0  0  0  0  0  0  0  0  0  0  0  0
    3.9594   -2.6420   -1.9891 C   0  0  0  0  0  0  0  0  0  0  0  0
    4.0973   -3.1680   -2.9461 H   0  0  0  0  0  0  0  0  0  0  0  0
    4.7339   -2.9705   -0.8868 C   0  0  0  0  0  0  0  0  0  0  0  0
    5.4950   -3.7611   -0.9641 H   0  0  0  0  0  0  0  0  0  0  0  0
    4.5520   -2.2859    0.3439 C   0  0  0  0  0  0  0  0  0  0  0  0
    5.1744   -2.5509    1.2115 H   0  0  0  0  0  0  0  0  0  0  0  0
    3.5934   -1.2908    0.4607 C   0  0  0  0  0  0  0  0  0  0  0  0
    3.4508   -0.7670    1.4165 H   0  0  0  0  0  0  0  0  0  0  0  0
    2.7936   -0.9165   -0.6585 C   0  0  0  0  0  0  0  0  0  0  0  0
    2.9826   -1.6070   -1.9119 C   0  0  0  0  0  0  0  0  0  0  0  0
   -0.0032   -2.2298    0.4448 C   0  0  0  0  0  0  0  0  0  0  0  0
    0.8357   -2.7278    1.4641 C   0  0  0  0  0  0  0  0  0  0  0  0
    0.9559   -2.1676    2.4041 H   0  0  0  0  0  0  0  0  0  0  0  0
    1.5378   -3.9242    1.2669 C   0  0  0  0  0  0  0  0  0  0  0  0
    2.1957   -4.3078    2.0607 H   0  0  0  0  0  0  0  0  0  0  0  0
    1.4198   -4.6206    0.0527 C   0  0  0  0  0  0  0  0  0  0  0  0
    1.9829   -5.5529   -0.1020 H   0  0  0  0  0  0  0  0  0  0  0  0
    0.5950   -4.1212   -0.9668 C   0  0  0  0  0  0  0  0  0  0  0  0
    0.5141   -4.6571   -1.9242 H   0  0  0  0  0  0  0  0  0  0  0  0
   -0.1171   -2.9293   -0.7729 C   0  0  0  0  0  0  0  0  0  0  0  0
   -0.7420   -2.5151   -1.5785 H   0  0  0  0  0  0  0  0  0  0  0  0
   -2.1427   -0.9643    2.0198 C   0  0  0  0  0  0  0  0  0  0  0  0
   -3.1291    0.0260    2.2323 C   0  0  0  0  0  0  0  0  0  0  0  0
   -3.1275    0.9405    1.6179 H   0  0  0  0  0  0  0  0  0  0  0  0
   -4.1114   -0.1518    3.2154 C   0  0  0  0  0  0  0  0  0  0  0  0
   -4.8700    0.6284    3.3783 H   0  0  0  0  0  0  0  0  0  0  0  0
   -4.1327   -1.3292    3.9825 C   0  0  0  0  0  0  0  0  0  0  0  0
   -4.9087   -1.4735    4.7488 H   0  0  0  0  0  0  0  0  0  0  0  0
   -3.1687   -2.3236    3.7613 C   0  0  0  0  0  0  0  0  0  0  0  0
   -3.1883   -3.2520    4.3514 H   0  0  0  0  0  0  0  0  0  0  0  0
   -2.1739   -2.1454    2.7856 C   0  0  0  0  0  0  0  0  0  0  0  0
   -1.4302   -2.9368    2.6159 H   0  0  0  0  0  0  0  0  0  0  0  0
    0.2776    1.7236   -1.6541 C   0  0  2  0  0  3  0  0  0  0  0  0
   -1.4779    3.1511   -1.4280 C   0  0  0  0  0  0  0  0  0  0  0  0
   -0.1175    3.9113   -1.3576 C   0  0  0  0  0  0  0  0  0  0  0  0
   -0.0293    4.7313   -2.0948 H   0  0  0  0  0  0  0  0  0  0  0  0
    0.1079    4.2996   -0.3432 H   0  0  0  0  0  0  0  0  0  0  0  0
   -2.3072    3.3431   -0.1554 C   0  0  0  0  0  0  0  0  0  0  0  0
   -1.7331    3.0334    0.7405 H   0  0  0  0  0  0  0  0  0  0  0  0
   -3.2372    2.7413   -0.2069 H   0  0  0  0  0  0  0  0  0  0  0  0
   -2.5964    4.4065   -0.0380 H   0  0  0  0  0  0  0  0  0  0  0  0
   -2.2745    3.5160   -2.6862 C   0  0  0  0  0  0  0  0  0  0  0  0
   -1.6688    3.3543   -3.5998 H   0  0  0  0  0  0  0  0  0  0  0  0
   -2.5761    4.5819   -2.6518 H   0  0  0  0  0  0  0  0  0  0  0  0
   -3.1917    2.9024   -2.7624 H   0  0  0  0  0  0  0  0  0  0  0  0
  1  5  1  0  0  0  0
  1 47  1  0  0  0  0
  2 58  1  0  0  0  0
  2 60  1  0  0  0  0
  3 59  1  0  0  0  0
  4 18  2  0  0  0  0
  4  5  1  0  0  0  0
  5  6  2  0  0  0  0
  6  8  1  0  0  0  0
  6  7  1  0  0  0  0
  8  9  1  0  0  0  0
 10 11  1  0  0  0  0
 12 13  1  0  0  0  0
 12 10  2  0  0  0  0
 14 12  1  0  0  0  0
 15 14  1  0  0  0  0
 16 14  2  0  0  0  0
 16 18  1  0  0  0  0
 17 16  1  0  0  0  0
 18 19  1  0  0  0  0
 19 10  1  0  0  0  0
 19  8  2  0  0  0  0
 20  4  1  0  0  0  0
 21 20  2  0  0  0  0
 22 21  1  0  0  0  0
 23 22  1  0  0  0  0
 24 22  2  0  0  0  0
 24 35  1  0  0  0  0
 25 24  1  0  0  0  0
 26 35  2  0  0  0  0
 26 28  1  0  0  0  0
 27 26  1  0  0  0  0
 28 30  2  0  0  0  0
 29 28  1  0  0  0  0
 30 32  1  0  0  0  0
 30 31  1  0  0  0  0
 32 33  1  0  0  0  0
 34 20  1  0  0  0  0
 34 32  2  0  0  0  0
 35 34  1  0  0  0  0
 36  1  1  0  0  0  0
 36 37  1  0  0  0  0
 37 38  1  0  0  0  0
 39 37  2  0  0  0  0
 39 40  1  0  0  0  0
 41 39  1  0  0  0  0
 42 41  1  0  0  0  0
 43 45  1  0  0  0  0
 43 41  2  0  0  0  0
 44 43  1  0  0  0  0
 45 36  2  0  0  0  0
 46 45  1  0  0  0  0
 47 48  2  0  0  0  0
 47 56  1  0  0  0  0
 48 50  1  0  0  0  0
 49 48  1  0  0  0  0
 50 51  1  0  0  0  0
 50 52  2  0  0  0  0
 52 53  1  0  0  0  0
 54 52  1  0  0  0  0
 54 55  1  0  0  0  0
 56 54  2  0  0  0  0
 57 56  1  0  0  0  0
 58 21  1  1  0  0  0
 58  3  1  0  0  0  0
 59 60  1  0  0  0  0
 59 63  1  0  0  0  0
 60 62  1  0  0  0  0
 61 60  1  0  0  0  0
 63 66  1  0  0  0  0
 63 64  1  0  0  0  0
 65 63  1  0  0  0  0
 67 69  1  0  0  0  0
 67 59  1  0  0  0  0
 68 67  1  0  0  0  0
 70 67  1  0  0  0  0
M  END
