1
q = 0.0, confidence = 1.0

 29 30  0  0  1  0  0  0  0  0999 V2000
   -1.0150   -1.8114   -0.1406 N   0  0  0  0  0  2  0  0  0  0  0  0
   -2.2015   -1.9920    0.4996 N   0  0  0  0  0  0  0  0  0  0  0  0
   -4.2147    1.7332   -2.2618 O   0  0  0  0  0  0  0  0  0  0  0  0
   -3.5066    0.3987   -0.4414 C   0  0  0  0  0  0  0  0  0  0  0  0
   -3.0884   -0.2999   -1.1789 H   0  0  0  0  0  0  0  0  0  0  0  0
   -4.1272    1.5737   -0.9151 C   0  0  0  0  0  0  0  0  0  0  0  0
   -4.6226    2.5243   -0.0017 C   0  0  0  0  0  0  0  0  0  0  0  0
   -5.1026    3.4449   -0.3729 H   0  0  0  0  0  0  0  0  0  0  0  0
   -4.5034    2.2901    1.3774 C   0  0  0  0  0  0  0  0  0  0  0  0
   -4.8925    3.0353    2.0879 H   0  0  0  0  0  0  0  0  0  0  0  0
   -3.8908    1.1243    1.8516 C   0  0  0  0  0  0  0  0  0  0  0  0
   -3.7865    0.9530    2.9340 H   0  0  0  0  0  0  0  0  0  0  0  0
   -3.3862    0.1760    0.9356 C   0  0  0  0  0  0  0  0  0  0  0  0
   -2.6787   -1.0442    1.4907 C   0  0  0  0  0  0  0  0  0  0  0  0
   -3.3513   -1.5987    2.1745 H   0  0  0  0  0  0  0  0  0  0  0  0
   -1.7889   -0.7349    2.0854 H   0  0  0  0  0  0  0  0  0  0  0  0
   -2.7796   -3.1720    0.1218 C   0  0  1  0  0  3  0  0  0  0  0  0
   -1.9044   -3.7686   -0.7888 C   0  0  0  0  0  0  0  0  0  0  0  0
   -2.0417   -4.7302   -1.2933 H   0  0  0  0  0  0  0  0  0  0  0  0
   -0.8081   -2.8860   -0.9289 C   0  0  0  0  0  0  0  0  0  0  0  0
   -4.0952   -3.6288    0.6579 C   0  0  0  0  0  0  0  0  0  0  0  0
   -4.8887   -2.8710    0.4939 H   0  0  0  0  0  0  0  0  0  0  0  0
   -4.4015   -4.5613    0.1495 H   0  0  0  0  0  0  0  0  0  0  0  0
   -4.0523   -3.8383    1.7478 H   0  0  0  0  0  0  0  0  0  0  0  0
    0.4105   -3.0101   -1.7796 C   0  0  0  0  0  0  0  0  0  0  0  0
    1.3283   -2.8582   -1.1767 H   0  0  0  0  0  0  0  0  0  0  0  0
    0.4508   -4.0065   -2.2572 H   0  0  0  0  0  0  0  0  0  0  0  0
    0.4008   -2.2224   -2.5608 H   0  0  0  0  0  0  0  0  0  0  0  0
   -4.6196    2.6013   -2.4435 H   0  0  0  0  0  0  0  0  0  0  0  0
  1  2  1  0  0  0  0
  2 14  1  0  0  0  0
  3  6  1  0  0  0  0
  4 13  1  0  0  0  0
  5  4  1  0  0  0  0
  6  4  2  0  0  0  0
  6  7  1  0  0  0  0
  7  9  2  0  0  0  0
  8  7  1  0  0  0  0
  9 11  1  0  0  0  0
  9 10  1  0  0  0  0
 11 12  1  0  0  0  0
 13 14  1  0  0  0  0
 13 11  2  0  0  0  0
 14 16  1  0  0  0  0
 14 15  1  0  0  0  0
 17  2  1  0  0  0  0
 17 21  1  1  0  0  0
 18 17  1  0  0  0  0
 19 18  1  0  0  0  0
 20 18  2  0  0  0  0
 20  1  1  0  0  0  0
 21 24  1  0  0  0  0
 22 21  1  0  0  0  0
 23 21  1  0  0  0  0
 25 26  1  0  0  0  0
 25 20  1  0  0  0  0
 27 25  1  0  0  0  0
 28 25  1  0  0  0  0
 29  3  1  0  0  0  0
M  END
