2
q = 0.0, confidence = 0.998

 25 25  0  0  1  0  0  0  0  0999 V2000
   -1.6745   -0.7061    0.2563 N   0  0  0  0  0  0  0  0  0  0  0  0
   -1.1123    1.0339   -1.8480 N   0  0  0  0  0  0  0  0  0  0  0  0
   -0.9292    1.9915   -2.1768 H   0  0  0  0  0  0  0  0  0  0  0  0
   -0.8437    0.3829   -2.6124 H   0  0  0  0  0  0  0  0  0  0  0  0
   -0.6432   -2.6042    1.6443 C   0  0  0  0  0  0  0  0  0  0  0  0
   -0.6199   -3.7105    1.6889 H   0  0  0  0  0  0  0  0  0  0  0  0
   -1.0347   -2.2529    2.6198 H   0  0  0  0  0  0  0  0  0  0  0  0
    0.3987   -2.2589    1.5264 H   0  0  0  0  0  0  0  0  0  0  0  0
   -1.4945   -2.1923    0.4592 C   0  0  0  0  0  0  0  0  0  0  0  0
   -1.0356   -2.5623   -0.4767 H   0  0  0  0  0  0  0  0  0  0  0  0
   -2.5029   -2.6493    0.5437 H   0  0  0  0  0  0  0  0  0  0  0  0
   -2.3949   -0.0977    1.4239 C   0  0  0  0  0  0  0  0  0  0  0  0
   -2.3045    1.0011    1.3372 H   0  0  0  0  0  0  0  0  0  0  0  0
   -1.9098   -0.3986    2.3684 H   0  0  0  0  0  0  0  0  0  0  0  0
   -3.8602   -0.5419    1.3004 C   0  0  0  0  0  0  0  0  0  0  0  0
   -4.5404    0.2121    1.7394 H   0  0  0  0  0  0  0  0  0  0  0  0
   -4.0371   -1.4854    1.8517 H   0  0  0  0  0  0  0  0  0  0  0  0
   -4.0793   -0.7354   -0.2226 C   0  0  0  0  0  0  0  0  0  0  0  0
   -4.4831   -1.7388   -0.4528 H   0  0  0  0  0  0  0  0  0  0  0  0
   -4.8030   -0.0061   -0.6364 H   0  0  0  0  0  0  0  0  0  0  0  0
   -2.6851   -0.5338   -0.8628 C   0  0  1  0  0  0  0  0  0  0  0  0
   -2.4466   -1.2921   -1.6338 H   0  0  0  0  0  0  0  0  0  0  0  0
   -2.5264    0.8498   -1.4761 C   0  0  0  0  0  0  0  0  0  0  0  0
   -3.1970    0.9489   -2.3560 H   0  0  0  0  0  0  0  0  0  0  0  0
   -2.8077    1.6437   -0.7544 H   0  0  0  0  0  0  0  0  0  0  0  0
  1  9  1  0  0  0  0
  1 12  1  0  0  0  0
  2 23  1  0  0  0  0
  3  2  1  0  0  0  0
  4  2  1  0  0  0  0
  5  6  1  0  0  0  0
  5  7  1  0  0  0  0
  8  5  1  0  0  0  0
  9 11  1  0  0  0  0
  9  5  1  0  0  0  0
 10  9  1  0  0  0  0
 12 14  1  0  0  0  0
 13 12  1  0  0  0  0
 15 12  1  0  0  0  0
 15 16  1  0  0  0  0
 15 17  1  0  0  0  0
 18 15  1  0  0  0  0
 19 18  1  0  0  0  0
 20 18  1  0  0  0  0
 21 22  1  6  0  0  0
 21 18  1  0  0  0  0
 21  1  1  0  0  0  0
 23 21  1  0  0  0  0
 23 25  1  0  0  0  0
 24 23  1  0  0  0  0
M  END
