4
q = 0.0, confidence = 0.998

 52 55  0  0  1  0  0  0  0  0999 V2000
    0.8937    0.5332   -0.1030 P   0  0  0  0  0  0  0  0  0  0  0  0
    0.6042   -0.3572   -1.5203 O   0  0  0  0  0  0  0  0  0  0  0  0
   -2.9020   -2.1711   -1.3567 O   0  0  0  0  0  0  0  0  0  0  0  0
   -1.8967   -0.9016    0.1934 N   0  0  0  0  0  2  0  0  0  0  0  0
    0.6314   -1.7373   -1.5027 C   0  0  0  0  0  0  0  0  0  0  0  0
    1.7977   -2.4024   -1.9103 C   0  0  0  0  0  0  0  0  0  0  0  0
    2.6839   -1.8039   -2.1634 H   0  0  0  0  0  0  0  0  0  0  0  0
    1.8028   -3.8003   -2.0160 C   0  0  0  0  0  0  0  0  0  0  0  0
    2.7187   -4.3158   -2.3409 H   0  0  0  0  0  0  0  0  0  0  0  0
    0.6422   -4.5386   -1.7296 C   0  0  0  0  0  0  0  0  0  0  0  0
    0.6434   -5.6334   -1.8291 H   0  0  0  0  0  0  0  0  0  0  0  0
   -0.5226   -3.8770   -1.3259 C   0  0  0  0  0  0  0  0  0  0  0  0
   -1.4406   -4.4425   -1.1105 H   0  0  0  0  0  0  0  0  0  0  0  0
   -0.5350   -2.4730   -1.1758 C   0  0  0  0  0  0  0  0  0  0  0  0
   -1.7704   -1.8030   -0.7412 C   0  0  1  0  0  3  0  0  0  0  0  0
   -3.9966   -1.4515   -0.7185 C   0  0  0  0  0  0  0  0  0  0  0  0
   -4.6077   -2.1922   -0.1657 H   0  0  0  0  0  0  0  0  0  0  0  0
   -4.6119   -0.9994   -1.5190 H   0  0  0  0  0  0  0  0  0  0  0  0
   -3.2964   -0.4220    0.2007 C   0  0  2  0  0  0  0  0  0  0  0  0
   -3.6871   -0.4902    1.2369 H   0  0  0  0  0  0  0  0  0  0  0  0
   -3.3769    1.0570   -0.2496 C   0  0  0  0  0  0  0  0  0  0  0  0
   -2.7028    1.6051    0.4498 H   0  0  0  0  0  0  0  0  0  0  0  0
   -4.7988    1.5973   -0.0638 C   0  0  0  0  0  0  0  0  0  0  0  0
   -5.1540    1.4778    0.9802 H   0  0  0  0  0  0  0  0  0  0  0  0
   -5.5221    1.0798   -0.7288 H   0  0  0  0  0  0  0  0  0  0  0  0
   -4.8436    2.6750   -0.3152 H   0  0  0  0  0  0  0  0  0  0  0  0
   -2.8539    1.2762   -1.6725 C   0  0  0  0  0  0  0  0  0  0  0  0
   -2.8099    2.3589   -1.9032 H   0  0  0  0  0  0  0  0  0  0  0  0
   -3.5145    0.8083   -2.4319 H   0  0  0  0  0  0  0  0  0  0  0  0
   -1.8321    0.8713   -1.8073 H   0  0  0  0  0  0  0  0  0  0  0  0
    2.6805    0.3289    0.1718 C   0  0  0  0  0  0  0  0  0  0  0  0
    3.1027   -0.7802    0.9383 C   0  0  0  0  0  0  0  0  0  0  0  0
    2.3530   -1.4520    1.3873 H   0  0  0  0  0  0  0  0  0  0  0  0
    4.4706   -1.0249    1.1198 C   0  0  0  0  0  0  0  0  0  0  0  0
    4.7994   -1.8916    1.7123 H   0  0  0  0  0  0  0  0  0  0  0  0
    5.4186   -0.1583    0.5505 C   0  0  0  0  0  0  0  0  0  0  0  0
    6.4923   -0.3451    0.7014 H   0  0  0  0  0  0  0  0  0  0  0  0
    5.0008    0.9506   -0.2044 C   0  0  0  0  0  0  0  0  0  0  0  0
    5.7456    1.6320   -0.6417 H   0  0  0  0  0  0  0  0  0  0  0  0
    3.6344    1.1971   -0.4001 C   0  0  0  0  0  0  0  0  0  0  0  0
    3.3088    2.0675   -0.9892 H   0  0  0  0  0  0  0  0  0  0  0  0
    0.6119    2.1958   -0.7686 C   0  0  0  0  0  0  0  0  0  0  0  0
    0.1725    3.2077    0.1098 C   0  0  0  0  0  0  0  0  0  0  0  0
    0.0042    2.9782    1.1735 H   0  0  0  0  0  0  0  0  0  0  0  0
   -0.0576    4.5023   -0.3767 C   0  0  0  0  0  0  0  0  0  0  0  0
   -0.3986    5.2922    0.3088 H   0  0  0  0  0  0  0  0  0  0  0  0
    0.1386    4.7853   -1.7382 C   0  0  0  0  0  0  0  0  0  0  0  0
   -0.0488    5.8000   -2.1201 H   0  0  0  0  0  0  0  0  0  0  0  0
    0.5684    3.7751   -2.6150 C   0  0  0  0  0  0  0  0  0  0  0  0
    0.7159    3.9975   -3.6824 H   0  0  0  0  0  0  0  0  0  0  0  0
    0.8086    2.4792   -2.1371 C   0  0  0  0  0  0  0  0  0  0  0  0
    1.1300    1.6819   -2.8225 H   0  0  0  0  0  0  0  0  0  0  0  0
  1 31  1  0  0  0  0
  2  5  1  0  0  0  0
  2  1  1  0  0  0  0
  3 15  1  0  0  0  0
  3 16  1  0  0  0  0
  4 19  1  0  0  0  0
  5 14  1  0  0  0  0
  6  5  2  0  0  0  0
  7  6  1  0  0  0  0
  8  6  1  0  0  0  0
  8 10  2  0  0  0  0
  9  8  1  0  0  0  0
 10 12  1  0  0  0  0
 11 10  1  0  0  0  0
 12 14  2  0  0  0  0
 12 13  1  0  0  0  0
 15 14  1  1  0  0  0
 15  4  1  0  0  0  0
 16 17  1  0  0  0  0
 16 19  1  0  0  0  0
 18 16  1  0  0  0  0
 19 20  1  1  0  0  0
 21 23  1  0  0  0  0
 21 19  1  0  0  0  0
 21 22  1  0  0  0  0
 23 24  1  0  0  0  0
 25 23  1  0  0  0  0
 26 23  1  0  0  0  0
 27 21  1  0  0  0  0
 28 27  1  0  0  0  0
 29 27  1  0  0  0  0
 30 27  1  0  0  0  0
 31 32  1  0  0  0  0
 32 34  2  0  0  0  0
 32 33  1  0  0  0  0
 34 35  1  0  0  0  0
 36 37  1  0  0  0  0
 36 34  1  0  0  0  0
 38 36  2  0  0  0  0
 39 38  1  0  0  0  0
 40 38  1  0  0  0  0
 40 31  2  0  0  0  0
 41 40  1  0  0  0  0
 42  1  1  0  0  0  0
 42 43  1  0  0  0  0
 43 44  1  0  0  0  0
 45 43  2  0  0  0  0
 45 46  1  0  0  0  0
 47 45  1  0  0  0  0
 48 47  1  0  0  0  0
 49 51  1  0  0  0  0
 49 47  2  0  0  0  0
 50 49  1  0  0  0  0
 51 42  2  0  0  0  0
 52 51  1  0  0  0  0
M  END
