1
q = 0.0, confidence = 0.972

  6  5  0  0  0  0  0  0  0  0999 V2000
    0.0114    0.1006    2.2352 N   0  0  0  0  0  0  0  0  0  0  0  0
   -0.9290   -0.7546    2.8969 N   0  0  0  0  0  0  0  0  0  0  0  0
   -0.7219   -0.8189    3.9066 H   0  0  0  0  0  0  0  0  0  0  0  0
   -0.7956   -1.6931    2.5025 H   0  0  0  0  0  0  0  0  0  0  0  0
   -0.2573    1.0686    2.4533 H   0  0  0  0  0  0  0  0  0  0  0  0
    0.9716   -0.0155    2.6009 H   0  0  0  0  0  0  0  0  0  0  0  0
  1  5  1  0  0  0  0
  1  6  1  0  0  0  0
  1  2  1  0  0  0  0
  2  3  1  0  0  0  0
  4  2  1  0  0  0  0
M  END
