2
q = -1.0, confidence = 0.0

 38 40  0  0  0  0  0  0  0  0999 V2000
   -0.8979   -0.0577   -0.0166 P   0  0  0  0  0  0  0  0  0  0  0  0
    0.8087    2.2476   -0.1149 N   0  0  0  0  0  2  0  0  0  0  0  0
   -1.5351    1.6041   -0.3330 C   0  0  0  0  0  0  0  0  0  0  0  0
   -0.5059    2.6044   -0.3317 C   0  0  0  0  0  0  0  0  0  0  0  0
   -0.9497    3.9477   -0.5563 C   0  0  0  0  0  0  0  0  0  0  0  0
   -0.2238    4.7698   -0.5840 H   0  0  0  0  0  0  0  0  0  0  0  0
   -2.3032    4.2417   -0.7496 C   0  0  0  0  0  0  0  0  0  0  0  0
   -2.5952    5.2901   -0.9219 H   0  0  0  0  0  0  0  0  0  0  0  0
   -3.2933    3.2414   -0.7290 C   0  0  0  0  0  0  0  0  0  0  0  0
   -4.3535    3.4906   -0.8788 H   0  0  0  0  0  0  0  0  0  0  0  0
   -2.8904    1.9162   -0.5117 C   0  0  0  0  0  0  0  0  0  0  0  0
   -3.6378    1.1068   -0.4853 H   0  0  0  0  0  0  0  0  0  0  0  0
    1.7412    3.3552   -0.0602 C   0  0  0  0  0  0  0  0  0  0  0  0
    1.4409    4.1177    0.6967 H   0  0  0  0  0  0  0  0  0  0  0  0
    1.8377    3.8919   -1.0355 H   0  0  0  0  0  0  0  0  0  0  0  0
    2.7519    3.0122    0.2228 H   0  0  0  0  0  0  0  0  0  0  0  0
   -1.7130   -0.6323    1.5288 C   0  0  0  0  0  0  0  0  0  0  0  0
   -1.0468   -0.4026    2.7511 C   0  0  0  0  0  0  0  0  0  0  0  0
   -0.0404    0.0467    2.7317 H   0  0  0  0  0  0  0  0  0  0  0  0
   -1.6621   -0.7421    3.9645 C   0  0  0  0  0  0  0  0  0  0  0  0
   -1.1361   -0.5591    4.9138 H   0  0  0  0  0  0  0  0  0  0  0  0
   -2.9424   -1.3194    3.9676 C   0  0  0  0  0  0  0  0  0  0  0  0
   -3.4228   -1.5911    4.9199 H   0  0  0  0  0  0  0  0  0  0  0  0
   -3.6082   -1.5526    2.7534 C   0  0  0  0  0  0  0  0  0  0  0  0
   -4.6120   -2.0044    2.7524 H   0  0  0  0  0  0  0  0  0  0  0  0
   -2.9992   -1.2100    1.5366 C   0  0  0  0  0  0  0  0  0  0  0  0
   -3.5242   -1.3983    0.5878 H   0  0  0  0  0  0  0  0  0  0  0  0
   -1.5365   -1.1655   -1.3288 C   0  0  0  0  0  0  0  0  0  0  0  0
   -1.5690   -2.5629   -1.1236 C   0  0  0  0  0  0  0  0  0  0  0  0
   -1.3082   -2.9812   -0.1391 H   0  0  0  0  0  0  0  0  0  0  0  0
   -1.9459   -3.4211   -2.1672 C   0  0  0  0  0  0  0  0  0  0  0  0
   -1.9741   -4.5080   -1.9954 H   0  0  0  0  0  0  0  0  0  0  0  0
   -2.2865   -2.8967   -3.4245 C   0  0  0  0  0  0  0  0  0  0  0  0
   -2.5833   -3.5716   -4.2417 H   0  0  0  0  0  0  0  0  0  0  0  0
   -2.2488   -1.5086   -3.6347 C   0  0  0  0  0  0  0  0  0  0  0  0
   -2.5158   -1.0920   -4.6179 H   0  0  0  0  0  0  0  0  0  0  0  0
   -1.8747   -0.6447   -2.5951 C   0  0  0  0  0  0  0  0  0  0  0  0
   -1.8470    0.4435   -2.7572 H   0  0  0  0  0  0  0  0  0  0  0  0
  1 17  1  0  0  0  0
  2 13  1  0  0  0  0
  3  4  1  0  0  0  0
  3  1  1  0  0  0  0
  4  2  1  0  0  0  0
  5  4  2  0  0  0  0
  6  5  1  0  0  0  0
  7  9  2  0  0  0  0
  7  5  1  0  0  0  0
  8  7  1  0  0  0  0
  9 11  1  0  0  0  0
 10  9  1  0  0  0  0
 11 12  1  0  0  0  0
 11  3  2  0  0  0  0
 13 16  1  0  0  0  0
 13 14  1  0  0  0  0
 15 13  1  0  0  0  0
 17 26  2  0  0  0  0
 17 18  1  0  0  0  0
 18 20  2  0  0  0  0
 19 18  1  0  0  0  0
 20 22  1  0  0  0  0
 20 21  1  0  0  0  0
 22 23  1  0  0  0  0
 24 22  2  0  0  0  0
 25 24  1  0  0  0  0
 26 24  1  0  0  0  0
 27 26  1  0  0  0  0
 28 29  1  0  0  0  0
 28  1  1  0  0  0  0
 29 30  1  0  0  0  0
 31 32  1  0  0  0  0
 31 29  2  0  0  0  0
 33 31  1  0  0  0  0
 34 33  1  0  0  0  0
 35 33  2  0  0  0  0
 35 37  1  0  0  0  0
 36 35  1  0  0  0  0
 37 28  2  0  0  0  0
 38 37  1  0  0  0  0
M  END
