15
q = 0.0, confidence = 0.996

 23 23  0  0  0  0  0  0  0  0999 V2000
   -1.2766   -1.3773    1.6259 I   0  0  0  0  0  0  0  0  0  0  0  0
   -2.9705   -1.8502    0.4227 C   0  0  0  0  0  0  0  0  0  0  0  0
   -3.0776   -3.1333   -0.1281 C   0  0  0  0  0  0  0  0  0  0  0  0
   -2.3106   -3.8944    0.0723 H   0  0  0  0  0  0  0  0  0  0  0  0
   -4.1751   -3.4271   -0.9520 C   0  0  0  0  0  0  0  0  0  0  0  0
   -4.2688   -4.4320   -1.3902 H   0  0  0  0  0  0  0  0  0  0  0  0
   -5.1387   -2.4428   -1.2161 C   0  0  0  0  0  0  0  0  0  0  0  0
   -5.9986   -2.6699   -1.8632 H   0  0  0  0  0  0  0  0  0  0  0  0
   -5.0037   -1.1643   -0.6581 C   0  0  0  0  0  0  0  0  0  0  0  0
   -5.7588   -0.3904   -0.8675 H   0  0  0  0  0  0  0  0  0  0  0  0
   -3.9138   -0.8324    0.1737 C   0  0  0  0  0  0  0  0  0  0  0  0
   -3.7930    0.5510    0.7628 C   0  0  0  0  0  0  0  0  0  0  0  0
   -3.4898    0.4837    1.8277 H   0  0  0  0  0  0  0  0  0  0  0  0
   -4.7954    1.0383    0.7348 H   0  0  0  0  0  0  0  0  0  0  0  0
   -2.8168    1.4549    0.0847 N   0  0  0  0  0  0  0  0  0  0  0  0
   -2.8232    2.7461    0.8070 C   0  0  0  0  0  0  0  0  0  0  0  0
   -3.8455    3.1920    0.8096 H   0  0  0  0  0  0  0  0  0  0  0  0
   -2.1134    3.4384    0.3172 H   0  0  0  0  0  0  0  0  0  0  0  0
   -2.4936    2.5856    1.8513 H   0  0  0  0  0  0  0  0  0  0  0  0
   -3.2186    1.6559   -1.3242 C   0  0  0  0  0  0  0  0  0  0  0  0
   -4.2587    2.0551   -1.3836 H   0  0  0  0  0  0  0  0  0  0  0  0
   -3.1644    0.6951   -1.8687 H   0  0  0  0  0  0  0  0  0  0  0  0
   -2.5173    2.3664   -1.7992 H   0  0  0  0  0  0  0  0  0  0  0  0
  2  1  1  0  0  0  0
  3  4  1  0  0  0  0
  3  2  2  0  0  0  0
  5  3  1  0  0  0  0
  6  5  1  0  0  0  0
  7  5  2  0  0  0  0
  7  9  1  0  0  0  0
  8  7  1  0  0  0  0
  9 11  2  0  0  0  0
 10  9  1  0  0  0  0
 11  2  1  0  0  0  0
 11 12  1  0  0  0  0
 12 13  1  0  0  0  0
 14 12  1  0  0  0  0
 15 12  1  0  0  0  0
 15 16  1  0  0  0  0
 16 17  1  0  0  0  0
 16 19  1  0  0  0  0
 18 16  1  0  0  0  0
 20 15  1  0  0  0  0
 21 20  1  0  0  0  0
 22 20  1  0  0  0  0
 23 20  1  0  0  0  0
M  END
