2
q = 0.0, confidence = 0.996

 29 29  0  0  1  0  0  0  0  0999 V2000
   -3.4567   -1.0208   -1.8274 Cl  0  0  0  0  0  0  0  0  0  0  0  0
    1.5907    1.7078    0.3295 N   0  0  0  0  0  2  0  0  0  0  0  0
    2.1720    2.1947    1.0144 H   0  0  0  0  0  0  0  0  0  0  0  0
    1.0488    1.4543   -1.8939 O   0  0  0  0  0  0  0  0  0  0  0  0
   -1.0745    0.6079   -3.0647 N   0  0  0  0  0  4  0  0  0  0  0  0
   -0.9489    1.6111   -2.9084 H   0  0  0  0  0  0  0  0  0  0  0  0
   -1.9939    0.3117   -3.3937 H   0  0  0  0  0  0  0  0  0  0  0  0
    0.6613    0.1247   -1.5292 N   0  0  0  0  0  2  0  0  0  0  0  0
    2.9628    4.1180   -0.3940 C   0  0  0  0  0  0  0  0  0  0  0  0
    2.2525    4.2798    0.4411 H   0  0  0  0  0  0  0  0  0  0  0  0
    3.1217    5.0918   -0.8940 H   0  0  0  0  0  0  0  0  0  0  0  0
    3.9369    3.7740    0.0207 H   0  0  0  0  0  0  0  0  0  0  0  0
    2.4117    3.1761   -1.3552 N   0  0  0  0  0  0  0  0  0  0  0  0
    1.7082    2.1067   -0.9052 C   0  0  1  0  0  3  0  0  0  0  0  0
   -1.3276   -4.4230   -1.9364 C   0  0  0  0  0  0  0  0  0  0  0  0
   -1.5525   -5.4992   -1.8903 H   0  0  0  0  0  0  0  0  0  0  0  0
   -0.0031   -3.9755   -2.0609 C   0  0  0  0  0  0  0  0  0  0  0  0
    0.8232   -4.7001   -2.1197 H   0  0  0  0  0  0  0  0  0  0  0  0
   -2.1066   -2.1211   -1.9698 C   0  0  0  0  0  0  0  0  0  0  0  0
    0.2615   -2.6040   -2.1509 C   0  0  0  0  0  0  0  0  0  0  0  0
    1.2892   -2.2318   -2.2641 H   0  0  0  0  0  0  0  0  0  0  0  0
   -0.7793   -1.6497   -2.1131 C   0  0  0  0  0  0  0  0  0  0  0  0
   -0.4052   -0.2137   -2.2304 C   0  0  0  0  0  0  0  0  0  0  0  0
   -2.3778   -3.4962   -1.8871 C   0  0  0  0  0  0  0  0  0  0  0  0
   -3.4208   -3.8273   -1.7861 H   0  0  0  0  0  0  0  0  0  0  0  0
    2.7400    3.3725   -2.7629 C   0  0  0  0  0  0  0  0  0  0  0  0
    2.2794    4.3053   -3.1509 H   0  0  0  0  0  0  0  0  0  0  0  0
    2.3722    2.5199   -3.3572 H   0  0  0  0  0  0  0  0  0  0  0  0
    3.8408    3.4469   -2.8899 H   0  0  0  0  0  0  0  0  0  0  0  0
  2  3  1  0  0  0  0
  4  8  1  0  0  0  0
  5  6  1  0  0  0  0
  5 23  2  0  0  0  0
  7  5  1  0  0  0  0
  9 12  1  0  0  0  0
  9 10  1  0  0  0  0
 11  9  1  0  0  0  0
 13 14  1  0  0  0  0
 13  9  1  0  0  0  0
 14  4  1  1  0  0  0
 14  2  1  0  0  0  0
 15 16  1  0  0  0  0
 15 24  1  0  0  0  0
 17 15  2  0  0  0  0
 18 17  1  0  0  0  0
 19 24  2  0  0  0  0
 19  1  1  0  0  0  0
 20 22  2  0  0  0  0
 20 17  1  0  0  0  0
 21 20  1  0  0  0  0
 22 19  1  0  0  0  0
 23 22  1  0  0  0  0
 23  8  1  0  0  0  0
 24 25  1  0  0  0  0
 26 13  1  0  0  0  0
 27 26  1  0  0  0  0
 28 26  1  0  0  0  0
 29 26  1  0  0  0  0
M  END
