1
q = -2.0, confidence = 0.508

 46 51  0  0  1  0  0  0  0  0999 V2000
   -1.6428    0.1372    0.1725 N   0  0  0  0  0  0  0  0  0  0  0  0
   -1.8917    0.3962   -0.7975 H   0  0  0  0  0  0  0  0  0  0  0  0
    1.3785    2.1456    1.0303 C   0  0  2  0  0  0  0  0  0  0  0  0
    0.2099    2.3737   -0.0159 C   0  0  1  0  0  0  0  0  0  0  0  0
    1.1093    2.1954    2.5320 C   0  0  0  0  0  0  0  0  0  0  0  0
    0.3070    2.9176    2.7763 H   0  0  0  0  0  0  0  0  0  0  0  0
    2.0238    2.5380    3.0497 H   0  0  0  0  0  0  0  0  0  0  0  0
    0.8367    1.2074    2.9449 H   0  0  0  0  0  0  0  0  0  0  0  0
   -1.2309    2.5707    0.4511 C   0  0  0  0  0  0  0  0  0  0  0  0
   -1.2978    3.3864    1.1981 H   0  0  0  0  0  0  0  0  0  0  0  0
   -1.8153    2.9133   -0.4266 H   0  0  0  0  0  0  0  0  0  0  0  0
   -1.8751    1.3210    1.0376 C   0  0  0  0  0  0  0  0  0  0  0  0
   -1.4517    1.0744    2.0319 H   0  0  0  0  0  0  0  0  0  0  0  0
   -2.9664    1.4855    1.1704 H   0  0  0  0  0  0  0  0  0  0  0  0
   -2.5250   -1.0106    0.5565 C   0  0  0  0  0  0  0  0  0  0  0  0
   -2.1293   -1.9100    0.0470 H   0  0  0  0  0  0  0  0  0  0  0  0
   -2.4103   -1.1607    1.6461 H   0  0  0  0  0  0  0  0  0  0  0  0
   -3.9656   -0.7793    0.1640 C   0  0  0  0  0  0  0  0  0  0  0  0
   -4.9488   -0.4474    1.1162 C   0  0  0  0  0  0  0  0  0  0  0  0
   -4.6737   -0.3928    2.1816 H   0  0  0  0  0  0  0  0  0  0  0  0
   -6.2721   -0.1970    0.7193 C   0  0  0  0  0  0  0  0  0  0  0  0
   -7.0311    0.0591    1.4739 H   0  0  0  0  0  0  0  0  0  0  0  0
   -6.6253   -0.2729   -0.6366 C   0  0  0  0  0  0  0  0  0  0  0  0
   -7.6620   -0.0756   -0.9486 H   0  0  0  0  0  0  0  0  0  0  0  0
   -5.6535   -0.6082   -1.5943 C   0  0  0  0  0  0  0  0  0  0  0  0
   -5.9282   -0.6800   -2.6576 H   0  0  0  0  0  0  0  0  0  0  0  0
   -4.3339   -0.8628   -1.1958 C   0  0  0  0  0  0  0  0  0  0  0  0
   -3.5754   -1.1442   -1.9453 H   0  0  0  0  0  0  0  0  0  0  0  0
    2.4396    3.7220   -1.0278 B   0  0  0  0  0  2  0  0  0  0  0  0
    2.9453    4.7724   -1.3487 H   0  0  0  0  0  0  0  0  0  0  0  0
    2.8346    2.9306    0.5213 B   0  0  2  0  0  0  0  0  0  0  0  0
    3.5748    3.3486    1.3796 H   0  0  0  0  0  0  0  0  0  0  0  0
    1.2698    3.7045    0.3076 B   0  0  2  0  0  0  0  0  0  0  0  0
    0.8597    4.6151    0.9853 H   0  0  0  0  0  0  0  0  0  0  0  0
    0.7129    3.3826   -1.3308 B   0  0  0  0  0  0  0  0  0  0  0  0
   -0.1012    4.1276   -1.8240 H   0  0  0  0  0  0  0  0  0  0  0  0
    1.9711    2.4504   -2.1823 B   0  0  2  0  0  0  0  0  0  0  0  0
    2.1226    2.5518   -3.3789 H   0  0  0  0  0  0  0  0  0  0  0  0
    3.3041    2.1540   -1.0034 B   0  0  2  0  0  0  0  0  0  0  0  0
    4.4711    2.0461   -1.3114 H   0  0  0  0  0  0  0  0  0  0  0  0
    0.5273    1.6416   -1.4860 B   0  0  1  0  0  0  0  0  0  0  0  0
   -0.4002    1.2554   -2.1755 H   0  0  0  0  0  0  0  0  0  0  0  0
    2.1166    0.9145   -1.3476 B   0  0  1  0  0  0  0  0  0  0  0  0
    2.2888   -0.1682   -1.9019 H   0  0  0  0  0  0  0  0  0  0  0  0
    2.5703    1.1927    0.3387 B   0  0  2  0  0  0  0  0  0  0  0  0
    3.2220    0.4651    1.0637 H   0  0  0  0  0  0  0  0  0  0  0  0
  1 15  1  0  0  0  0
  1 12  1  0  0  0  0
  2  1  1  0  0  0  0
  3  5  1  1  0  0  0
  4 33  1  0  0  0  0
  4  9  1  1  0  0  0
  4  3  1  0  0  0  0
  5  6  1  0  0  0  0
  5  8  1  0  0  0  0
  5  7  1  0  0  0  0
  9 12  1  0  0  0  0
  9 10  1  0  0  0  0
 11  9  1  0  0  0  0
 12 14  1  0  0  0  0
 12 13  1  0  0  0  0
 15 17  1  0  0  0  0
 16 15  1  0  0  0  0
 18 15  1  0  0  0  0
 18 19  1  0  0  0  0
 19 20  1  0  0  0  0
 21 19  2  0  0  0  0
 21 22  1  0  0  0  0
 23 21  1  0  0  0  0
 24 23  1  0  0  0  0
 25 27  1  0  0  0  0
 25 23  2  0  0  0  0
 26 25  1  0  0  0  0
 27 18  2  0  0  0  0
 28 27  1  0  0  0  0
 30 29  1  0  0  0  0
 31 32  1  1  0  0  0
 33 31  1  0  0  0  0
 33 34  1  1  0  0  0
 33  3  1  0  0  0  0
 36 35  1  0  0  0  0
 37 38  1  6  0  0  0
 37 43  1  0  0  0  0
 37 35  1  0  0  0  0
 37 29  1  0  0  0  0
 39 40  1  6  0  0  0
 39 45  1  0  0  0  0
 39 31  1  0  0  0  0
 41 42  1  6  0  0  0
 41 43  1  0  0  0  0
 41 35  1  0  0  0  0
 41  4  1  0  0  0  0
 43 44  1  6  0  0  0
 43 39  1  0  0  0  0
 45 31  1  0  0  0  0
 45  3  1  0  0  0  0
 45 46  1  1  0  0  0
M  END
