4
q = 0.0, confidence = 1.0

 19 20  0  0  1  0  0  0  0  0999 V2000
   -2.9871    0.1359    0.0142 C   0  0  2  0  0  3  0  0  0  0  0  0
   -4.2342   -0.1697   -0.5861 C   0  0  0  0  0  0  0  0  0  0  0  0
   -3.9586   -1.2087   -1.4788 C   0  0  0  0  0  0  0  0  0  0  0  0
   -2.0196   -0.6671   -0.4838 N   0  0  0  0  0  2  0  0  0  0  0  0
   -5.4999    0.5689   -0.2539 C   0  0  0  0  0  0  0  0  0  0  0  0
   -5.7394    1.2715   -1.0825 H   0  0  0  0  0  0  0  0  0  0  0  0
   -6.3578   -0.1306   -0.1885 H   0  0  0  0  0  0  0  0  0  0  0  0
   -2.6299   -1.4752   -1.3854 N   0  0  0  0  0  0  0  0  0  0  0  0
   -5.3292    1.3546    1.0597 C   0  0  0  0  0  0  0  0  0  0  0  0
   -6.1804    2.0518    1.1881 H   0  0  0  0  0  0  0  0  0  0  0  0
   -5.3686    0.6505    1.9197 H   0  0  0  0  0  0  0  0  0  0  0  0
   -4.0018    2.1283    1.0990 C   0  0  0  0  0  0  0  0  0  0  0  0
   -3.9506    2.8176    0.2283 H   0  0  0  0  0  0  0  0  0  0  0  0
   -3.9502    2.7625    2.0055 H   0  0  0  0  0  0  0  0  0  0  0  0
   -2.7877    1.1791    1.0685 C   0  0  0  0  0  0  0  0  0  0  0  0
   -2.6759    0.6773    2.0561 H   0  0  0  0  0  0  0  0  0  0  0  0
   -1.8426    1.7366    0.8936 H   0  0  0  0  0  0  0  0  0  0  0  0
   -4.6012   -1.7707   -2.1659 H   0  0  0  0  0  0  0  0  0  0  0  0
   -2.0910   -2.1707   -1.9019 H   0  0  0  0  0  0  0  0  0  0  0  0
  1  2  1  1  0  0  0
  1 15  1  0  0  0  0
  2  5  1  0  0  0  0
  3  8  1  0  0  0  0
  3  2  2  0  0  0  0
  4  1  1  0  0  0  0
  5  7  1  0  0  0  0
  5  9  1  0  0  0  0
  6  5  1  0  0  0  0
  8  4  1  0  0  0  0
  9 12  1  0  0  0  0
  9 10  1  0  0  0  0
  9 11  1  0  0  0  0
 12 14  1  0  0  0  0
 13 12  1  0  0  0  0
 15 12  1  0  0  0  0
 15 16  1  0  0  0  0
 17 15  1  0  0  0  0
 18  3  1  0  0  0  0
 19  8  1  0  0  0  0
M  END
