1
q = 0.0, confidence = 1.0

 28 29  0  0  1  0  0  0  0  0999 V2000
   -1.7883    1.3294   -0.9672 N   0  0  0  0  0  2  0  0  0  0  0  0
   -6.1887   -0.5335   -1.5197 O   0  0  0  0  0  0  0  0  0  0  0  0
   -2.7545    0.4601   -0.6083 C   0  0  0  0  0  3  0  0  0  0  0  0
   -2.5199   -0.2539    0.1933 H   0  0  0  0  0  0  0  0  0  0  0  0
   -4.0039    0.4374   -1.2545 C   0  0  0  0  0  0  0  0  0  0  0  0
   -4.2380    1.3294   -2.3170 C   0  0  0  0  0  0  0  0  0  0  0  0
   -5.2067    1.3151   -2.8359 H   0  0  0  0  0  0  0  0  0  0  0  0
   -3.2204    2.2187   -2.6813 C   0  0  0  0  0  0  0  0  0  0  0  0
   -3.3560    2.9360   -3.5027 H   0  0  0  0  0  0  0  0  0  0  0  0
   -2.0105    2.2025   -1.9820 C   0  0  0  0  0  0  0  0  0  0  0  0
   -1.1943    2.9078   -2.1908 H   0  0  0  0  0  0  0  0  0  0  0  0
   -5.0251   -0.5202   -0.8014 C   0  0  0  0  0  0  0  0  0  0  0  0
   -6.1460   -2.1082    0.2568 C   0  0  2  0  0  0  0  0  0  0  0  0
   -5.8993   -3.1644   -0.0075 H   0  0  0  0  0  0  0  0  0  0  0  0
   -7.0574   -1.4639   -0.8300 C   0  0  0  0  0  0  0  0  0  0  0  0
   -7.4628   -2.1795   -1.5711 H   0  0  0  0  0  0  0  0  0  0  0  0
   -7.9002   -0.8870   -0.3895 H   0  0  0  0  0  0  0  0  0  0  0  0
   -6.7570   -2.1211    1.6727 C   0  0  0  0  0  0  0  0  0  0  0  0
   -7.0062   -1.0623    1.9168 H   0  0  0  0  0  0  0  0  0  0  0  0
   -5.7439   -2.6282    2.7025 C   0  0  0  0  0  0  0  0  0  0  0  0
   -4.8104   -2.0359    2.6616 H   0  0  0  0  0  0  0  0  0  0  0  0
   -5.4791   -3.6886    2.5039 H   0  0  0  0  0  0  0  0  0  0  0  0
   -6.1599   -2.5723    3.7287 H   0  0  0  0  0  0  0  0  0  0  0  0
   -8.0490   -2.9464    1.6985 C   0  0  0  0  0  0  0  0  0  0  0  0
   -7.8445   -4.0055    1.4321 H   0  0  0  0  0  0  0  0  0  0  0  0
   -8.8139   -2.5627    0.9921 H   0  0  0  0  0  0  0  0  0  0  0  0
   -8.5017   -2.9396    2.7102 H   0  0  0  0  0  0  0  0  0  0  0  0
   -4.9038   -1.3312    0.1876 N   0  0  0  0  0  0  0  0  0  0  0  0
  1  3  1  0  0  0  0
  2 15  1  0  0  0  0
  2 12  1  0  0  0  0
  3  4  1  0  0  0  0
  5 12  1  0  0  0  0
  5  3  1  0  0  0  0
  6  5  2  0  0  0  0
  7  6  1  0  0  0  0
  8  6  1  0  0  0  0
  8 10  2  0  0  0  0
  9  8  1  0  0  0  0
 10  1  1  0  0  0  0
 11 10  1  0  0  0  0
 12 28  2  0  0  0  0
 13 14  1  6  0  0  0
 13 18  1  0  0  0  0
 15 17  1  0  0  0  0
 15 13  1  0  0  0  0
 16 15  1  0  0  0  0
 18 24  1  0  0  0  0
 18 19  1  0  0  0  0
 18 20  1  0  0  0  0
 20 23  1  0  0  0  0
 21 20  1  0  0  0  0
 22 20  1  0  0  0  0
 24 27  1  0  0  0  0
 25 24  1  0  0  0  0
 26 24  1  0  0  0  0
 28 13  1  0  0  0  0
M  END
