1
q = -1.0, confidence = 0.014

 33 34  0  0  0  0  0  0  0  0999 V2000
    0.8115   -0.3962   -0.7624 N   0  0  0  0  0  2  0  0  0  0  0  0
    0.4315    0.8890   -0.4095 N   0  0  0  0  0  0  0  0  0  0  0  0
   -3.0283   -2.1470   -0.6516 O   0  0  0  0  0  0  0  0  0  0  0  0
   -1.5598    2.0132    0.1438 O   0  0  0  0  0  0  0  0  0  0  0  0
   -0.2935   -1.1605   -0.7646 C   0  0  0  0  0  0  0  0  0  0  0  0
   -1.4444   -0.3947   -0.4411 C   0  0  0  0  0  0  0  0  0  0  0  0
   -0.9916    0.9742   -0.1768 C   0  0  0  0  0  0  0  0  0  0  0  0
   -0.2030   -2.6211   -1.0460 C   0  0  0  0  0  0  0  0  0  0  0  0
   -0.8323   -2.8909   -1.9165 H   0  0  0  0  0  0  0  0  0  0  0  0
    0.8509   -2.9121   -1.2407 H   0  0  0  0  0  0  0  0  0  0  0  0
   -0.6040   -3.2124   -0.1992 H   0  0  0  0  0  0  0  0  0  0  0  0
    1.3334    1.9552   -0.5009 C   0  0  0  0  0  0  0  0  0  0  0  0
    2.4204    1.9071   -1.4079 C   0  0  0  0  0  0  0  0  0  0  0  0
    2.5040    1.0642   -2.1093 H   0  0  0  0  0  0  0  0  0  0  0  0
    3.3461    2.9606   -1.4551 C   0  0  0  0  0  0  0  0  0  0  0  0
    4.1770    2.9148   -2.1769 H   0  0  0  0  0  0  0  0  0  0  0  0
    3.1959    4.0810   -0.6224 C   0  0  0  0  0  0  0  0  0  0  0  0
    3.9176    4.9101   -0.6680 H   0  0  0  0  0  0  0  0  0  0  0  0
    2.0923    4.1436    0.2475 C   0  0  0  0  0  0  0  0  0  0  0  0
    1.9502    5.0259    0.8905 H   0  0  0  0  0  0  0  0  0  0  0  0
    1.1650    3.0971    0.3185 C   0  0  0  0  0  0  0  0  0  0  0  0
    0.2941    3.1457    0.9834 H   0  0  0  0  0  0  0  0  0  0  0  0
   -2.7714   -0.9674   -0.3856 C   0  0  0  0  0  0  0  0  0  0  0  0
   -3.9396   -0.0263    0.0451 C   0  0  0  0  0  0  0  0  0  0  0  0
   -5.3176   -0.7500    0.1111 C   0  0  0  0  0  0  0  0  0  0  0  0
   -6.5122    0.1526    0.5601 C   0  0  0  0  0  0  0  0  0  0  0  0
   -4.0579    1.0010   -0.8426 F   0  0  0  0  0  0  0  0  0  0  0  0
   -3.6910    0.4876    1.2844 F   0  0  0  0  0  0  0  0  0  0  0  0
   -5.6361   -1.2304   -1.1160 F   0  0  0  0  0  0  0  0  0  0  0  0
   -5.2508   -1.7703    1.0029 F   0  0  0  0  0  0  0  0  0  0  0  0
   -6.3280    0.6220    1.8045 F   0  0  0  0  0  0  0  0  0  0  0  0
   -6.6819    1.1899   -0.2750 F   0  0  0  0  0  0  0  0  0  0  0  0
   -7.6387   -0.5878    0.5502 F   0  0  0  0  0  0  0  0  0  0  0  0
  1  2  1  0  0  0  0
  2  7  1  0  0  0  0
  3 23  2  0  0  0  0
  5  1  1  0  0  0  0
  5  6  2  0  0  0  0
  6 23  1  0  0  0  0
  6  7  1  0  0  0  0
  7  4  2  0  0  0  0
  8  5  1  0  0  0  0
  8 11  1  0  0  0  0
  9  8  1  0  0  0  0
 10  8  1  0  0  0  0
 12  2  1  0  0  0  0
 12 21  1  0  0  0  0
 13 12  2  0  0  0  0
 14 13  1  0  0  0  0
 15 13  1  0  0  0  0
 15 17  2  0  0  0  0
 16 15  1  0  0  0  0
 17 19  1  0  0  0  0
 18 17  1  0  0  0  0
 19 21  2  0  0  0  0
 19 20  1  0  0  0  0
 21 22  1  0  0  0  0
 23 24  1  0  0  0  0
 24 25  1  0  0  0  0
 24 28  1  0  0  0  0
 25 26  1  0  0  0  0
 25 30  1  0  0  0  0
 26 31  1  0  0  0  0
 27 24  1  0  0  0  0
 29 25  1  0  0  0  0
 32 26  1  0  0  0  0
 33 26  1  0  0  0  0
M  END
