1
q = 0.0, confidence = 0.988

 44 46  0  0  0  0  0  0  0  0999 V2000
    4.0689   -0.0390   -0.0082 N   0  0  0  0  0  2  0  0  0  0  0  0
   -7.8838    0.2851   -0.0178 N   0  0  0  0  0  0  0  0  0  0  0  0
  -13.5233    0.3204    0.0506 N   0  0  0  0  0  0  0  0  0  0  0  0
    3.4357   -1.2335   -0.1461 C   0  0  0  0  0  3  0  0  0  0  0  0
    4.0865   -2.1148   -0.2433 H   0  0  0  0  0  0  0  0  0  0  0  0
    2.0514   -1.3707   -0.1670 C   0  0  0  0  0  0  0  0  0  0  0  0
    1.6034   -2.3670   -0.2816 H   0  0  0  0  0  0  0  0  0  0  0  0
    1.2250   -0.2224   -0.0400 C   0  0  0  0  0  0  0  0  0  0  0  0
    1.8940    1.0224    0.1034 C   0  0  0  0  0  0  0  0  0  0  0  0
    1.3194    1.9527    0.2066 H   0  0  0  0  0  0  0  0  0  0  0  0
    3.2846    1.0641    0.1135 C   0  0  0  0  0  0  0  0  0  0  0  0
    3.8145    2.0217    0.2241 H   0  0  0  0  0  0  0  0  0  0  0  0
   -0.1865   -0.3135   -0.0550 C   0  0  0  0  0  0  0  0  0  0  0  0
   -1.4187   -0.3937   -0.0675 C   0  0  0  0  0  0  0  0  0  0  0  0
   -2.8332   -0.4827   -0.0818 C   0  0  0  0  0  0  0  0  0  0  0  0
   -3.6369    0.6877    0.0452 C   0  0  0  0  0  0  0  0  0  0  0  0
   -3.1411    1.6633    0.1539 H   0  0  0  0  0  0  0  0  0  0  0  0
   -5.0237    0.5986    0.0332 C   0  0  0  0  0  0  0  0  0  0  0  0
   -5.6588    1.4911    0.1310 H   0  0  0  0  0  0  0  0  0  0  0  0
   -5.6693   -0.6567   -0.1081 C   0  0  0  0  0  0  0  0  0  0  0  0
   -4.8710   -1.8196   -0.2355 C   0  0  0  0  0  0  0  0  0  0  0  0
   -5.3625   -2.7993   -0.3457 H   0  0  0  0  0  0  0  0  0  0  0  0
   -3.4795   -1.7407   -0.2228 C   0  0  0  0  0  0  0  0  0  0  0  0
   -2.8671   -2.6484   -0.3221 H   0  0  0  0  0  0  0  0  0  0  0  0
   -7.1263   -0.7603   -0.1231 C   0  0  0  0  0  0  0  0  0  0  0  0
   -7.5322   -1.7934   -0.2445 H   0  0  0  0  0  0  0  0  0  0  0  0
   -9.2703    0.2171    0.0174 C   0  0  0  0  0  0  0  0  0  0  0  0
  -10.0367   -0.9498    0.2800 C   0  0  0  0  0  0  0  0  0  0  0  0
   -9.5304   -1.9006    0.5043 H   0  0  0  0  0  0  0  0  0  0  0  0
  -11.4278   -0.9181    0.2995 C   0  0  0  0  0  0  0  0  0  0  0  0
  -11.9717   -1.8431    0.5304 H   0  0  0  0  0  0  0  0  0  0  0  0
  -12.1441    0.2906    0.0438 C   0  0  0  0  0  0  0  0  0  0  0  0
  -11.3759    1.4662   -0.2027 C   0  0  0  0  0  0  0  0  0  0  0  0
  -11.8741    2.4256   -0.3906 H   0  0  0  0  0  0  0  0  0  0  0  0
   -9.9847    1.4218   -0.2007 C   0  0  0  0  0  0  0  0  0  0  0  0
   -9.3965    2.3329   -0.3849 H   0  0  0  0  0  0  0  0  0  0  0  0
  -14.2768   -0.8894    0.3145 C   0  0  0  0  0  0  0  0  0  0  0  0
  -15.3573   -0.6690    0.2502 H   0  0  0  0  0  0  0  0  0  0  0  0
  -14.0728   -1.3010    1.3292 H   0  0  0  0  0  0  0  0  0  0  0  0
  -14.0493   -1.6903   -0.4239 H   0  0  0  0  0  0  0  0  0  0  0  0
  -14.2222    1.5710   -0.1706 C   0  0  0  0  0  0  0  0  0  0  0  0
  -15.3118    1.3933   -0.1340 H   0  0  0  0  0  0  0  0  0  0  0  0
  -13.9826    2.0117   -1.1642 H   0  0  0  0  0  0  0  0  0  0  0  0
  -13.9739    2.3333    0.6023 H   0  0  0  0  0  0  0  0  0  0  0  0
  1 11  1  0  0  0  0
  2 27  1  0  0  0  0
  3 37  1  0  0  0  0
  4  1  1  0  0  0  0
  5  4  1  0  0  0  0
  6  4  1  0  0  0  0
  6  8  2  0  0  0  0
  7  6  1  0  0  0  0
  8  9  1  0  0  0  0
  9 11  2  0  0  0  0
  9 10  1  0  0  0  0
 11 12  1  0  0  0  0
 13  8  1  0  0  0  0
 14 13  3  0  0  0  0
 15 14  1  0  0  0  0
 15 16  1  0  0  0  0
 16 17  1  0  0  0  0
 18 16  2  0  0  0  0
 18 19  1  0  0  0  0
 20 18  1  0  0  0  0
 21 23  1  0  0  0  0
 21 20  2  0  0  0  0
 22 21  1  0  0  0  0
 23 15  2  0  0  0  0
 24 23  1  0  0  0  0
 25 20  1  0  0  0  0
 25  2  2  0  0  0  0
 26 25  1  0  0  0  0
 27 28  1  0  0  0  0
 28 30  2  0  0  0  0
 28 29  1  0  0  0  0
 30 31  1  0  0  0  0
 32  3  1  0  0  0  0
 32 30  1  0  0  0  0
 33 35  1  0  0  0  0
 33 32  2  0  0  0  0
 34 33  1  0  0  0  0
 35 27  2  0  0  0  0
 36 35  1  0  0  0  0
 37 39  1  0  0  0  0
 38 37  1  0  0  0  0
 40 37  1  0  0  0  0
 41 42  1  0  0  0  0
 41  3  1  0  0  0  0
 41 44  1  0  0  0  0
 43 41  1  0  0  0  0
M  END
