5
q = 0.0, confidence = 0.86

 21 21  0  0  1  0  0  0  0  0999 V2000
   -0.7298   -0.4395    2.9672 C   0  0  0  0  0  0  0  0  0  0  0  0
   -1.7217   -0.0834    3.3229 H   0  0  0  0  0  0  0  0  0  0  0  0
    0.0526    0.2789    3.2800 H   0  0  0  0  0  0  0  0  0  0  0  0
   -0.5246   -1.4166    3.4614 H   0  0  0  0  0  0  0  0  0  0  0  0
   -0.7058   -0.5773    1.5363 N   0  0  0  0  0  2  0  0  0  0  0  0
   -1.5264   -1.3565    0.7115 C   0  0  1  0  0  3  0  0  0  0  0  0
   -1.4810   -2.8626    0.9147 C   0  0  0  0  0  0  0  0  0  0  0  0
   -0.4789   -3.1680    1.2726 H   0  0  0  0  0  0  0  0  0  0  0  0
   -1.6838   -3.4193   -0.0210 H   0  0  0  0  0  0  0  0  0  0  0  0
   -2.2429   -3.1773    1.6614 H   0  0  0  0  0  0  0  0  0  0  0  0
   -2.8296   -0.7671    0.2806 C   0  0  0  0  0  0  0  0  0  0  0  0
   -3.2147    0.5288    0.6990 C   0  0  0  0  0  0  0  0  0  0  0  0
   -2.5350    1.1048    1.3440 H   0  0  0  0  0  0  0  0  0  0  0  0
   -4.4325    1.0876    0.2934 C   0  0  0  0  0  0  0  0  0  0  0  0
   -4.7142    2.0932    0.6439 H   0  0  0  0  0  0  0  0  0  0  0  0
   -5.2940    0.3713   -0.5552 C   0  0  0  0  0  0  0  0  0  0  0  0
   -6.2491    0.8116   -0.8793 H   0  0  0  0  0  0  0  0  0  0  0  0
   -4.9234   -0.9132   -0.9827 C   0  0  0  0  0  0  0  0  0  0  0  0
   -5.5867   -1.4839   -1.6507 H   0  0  0  0  0  0  0  0  0  0  0  0
   -3.7113   -1.4798   -0.5636 C   0  0  0  0  0  0  0  0  0  0  0  0
   -3.4360   -2.4834   -0.9166 H   0  0  0  0  0  0  0  0  0  0  0  0
  1  3  1  0  0  0  0
  1  2  1  0  0  0  0
  1  4  1  0  0  0  0
  5  1  1  0  0  0  0
  6  7  1  0  0  0  0
  6  5  1  1  0  0  0
  7  8  1  0  0  0  0
  7 10  1  0  0  0  0
  9  7  1  0  0  0  0
 11 12  1  0  0  0  0
 11  6  1  0  0  0  0
 12 13  1  0  0  0  0
 14 15  1  0  0  0  0
 14 12  2  0  0  0  0
 16 14  1  0  0  0  0
 17 16  1  0  0  0  0
 18 20  1  0  0  0  0
 18 16  2  0  0  0  0
 19 18  1  0  0  0  0
 20 11  2  0  0  0  0
 21 20  1  0  0  0  0
M  END
