8
q = 0.0, confidence = 0.99

 50 52  0  0  0  0  0  0  0  0999 V2000
   -0.8580    0.0837    0.0228 P   0  0  0  0  0  0  0  0  0  0  0  0
   -0.6843    0.6458    1.7479 C   0  0  0  0  0  0  0  0  0  0  0  0
   -0.4169    3.8361   -2.6670 C   0  0  0  0  0  0  0  0  0  0  0  0
   -0.3105    4.7182   -3.3159 H   0  0  0  0  0  0  0  0  0  0  0  0
   -1.1175    1.7098    3.8500 C   0  0  0  0  0  0  0  0  0  0  0  0
   -1.2550    2.7929    3.6530 H   0  0  0  0  0  0  0  0  0  0  0  0
   -1.5419    1.5049    4.8508 H   0  0  0  0  0  0  0  0  0  0  0  0
    2.1684    0.1197    0.6169 N   0  0  0  0  0  2  0  0  0  0  0  0
   -3.0064   -1.5929    0.6191 C   0  0  0  0  0  0  0  0  0  0  0  0
   -2.2890   -2.1240    1.2649 H   0  0  0  0  0  0  0  0  0  0  0  0
   -0.3023    1.4278   -2.3550 C   0  0  0  0  0  0  0  0  0  0  0  0
   -0.0989    0.4204   -2.7517 H   0  0  0  0  0  0  0  0  0  0  0  0
    1.8336    0.8460    1.6386 C   0  0  0  0  0  3  0  0  0  0  0  0
    2.5806    1.5505    2.0528 H   0  0  0  0  0  0  0  0  0  0  0  0
   -2.5933   -0.4653   -0.1239 C   0  0  0  0  0  0  0  0  0  0  0  0
   -0.7930    3.9961   -1.3232 C   0  0  0  0  0  0  0  0  0  0  0  0
   -0.9833    5.0018   -0.9197 H   0  0  0  0  0  0  0  0  0  0  0  0
   -1.8065    0.8990    2.7260 C   0  0  0  0  0  0  0  0  0  0  0  0
   -2.2043   -0.0765    3.0898 H   0  0  0  0  0  0  0  0  0  0  0  0
   -2.6734    1.4134    2.2624 H   0  0  0  0  0  0  0  0  0  0  0  0
   -0.6863    1.5862   -1.0066 C   0  0  0  0  0  0  0  0  0  0  0  0
    3.5186    0.3338   -0.0146 C   0  0  0  0  0  0  0  0  0  0  0  0
   -0.9306    2.8752   -0.4909 C   0  0  0  0  0  0  0  0  0  0  0  0
   -1.2238    3.0064    0.5615 H   0  0  0  0  0  0  0  0  0  0  0  0
    0.5378    0.8883    2.3108 C   0  0  0  0  0  0  0  0  0  0  0  0
    4.1000    1.7296    0.2682 C   0  0  0  0  0  0  0  0  0  0  0  0
    3.3939    2.5318   -0.0271 H   0  0  0  0  0  0  0  0  0  0  0  0
    5.0238    1.8569   -0.3277 H   0  0  0  0  0  0  0  0  0  0  0  0
    4.3887    1.8748    1.3280 H   0  0  0  0  0  0  0  0  0  0  0  0
   -0.1740    2.5525   -3.1829 C   0  0  0  0  0  0  0  0  0  0  0  0
    0.1232    2.4265   -4.2347 H   0  0  0  0  0  0  0  0  0  0  0  0
    3.3325    0.1806   -1.5334 C   0  0  0  0  0  0  0  0  0  0  0  0
    2.6412    0.9525   -1.9264 H   0  0  0  0  0  0  0  0  0  0  0  0
    2.9218   -0.8169   -1.7886 H   0  0  0  0  0  0  0  0  0  0  0  0
    4.3079    0.2920   -2.0455 H   0  0  0  0  0  0  0  0  0  0  0  0
   -4.3326   -2.0368    0.5382 C   0  0  0  0  0  0  0  0  0  0  0  0
   -4.6533   -2.9115    1.1234 H   0  0  0  0  0  0  0  0  0  0  0  0
   -5.2480   -1.3704   -0.2945 C   0  0  0  0  0  0  0  0  0  0  0  0
   -6.2873   -1.7248   -0.3623 H   0  0  0  0  0  0  0  0  0  0  0  0
    0.3844    1.3578    3.7446 C   0  0  0  0  0  0  0  0  0  0  0  0
    1.0538    2.2070    3.9944 H   0  0  0  0  0  0  0  0  0  0  0  0
    0.6692    0.5283    4.4316 H   0  0  0  0  0  0  0  0  0  0  0  0
   -3.5119    0.2023   -0.9578 C   0  0  0  0  0  0  0  0  0  0  0  0
   -3.1947    1.0802   -1.5399 H   0  0  0  0  0  0  0  0  0  0  0  0
    4.4626   -0.7459    0.5432 C   0  0  0  0  0  0  0  0  0  0  0  0
    4.6227   -0.6021    1.6303 H   0  0  0  0  0  0  0  0  0  0  0  0
    5.4454   -0.6862    0.0364 H   0  0  0  0  0  0  0  0  0  0  0  0
    4.0499   -1.7586    0.3855 H   0  0  0  0  0  0  0  0  0  0  0  0
   -4.8363   -0.2562   -1.0411 C   0  0  0  0  0  0  0  0  0  0  0  0
   -5.5514    0.2657   -1.6943 H   0  0  0  0  0  0  0  0  0  0  0  0
  1  2  1  0  0  0  0
  2 25  2  0  0  0  0
  2 18  1  0  0  0  0
  3 16  1  0  0  0  0
  4  3  1  0  0  0  0
  5  7  1  0  0  0  0
  6  5  1  0  0  0  0
  8 13  1  0  0  0  0
  9 10  1  0  0  0  0
 11 21  2  0  0  0  0
 12 11  1  0  0  0  0
 13 14  1  0  0  0  0
 13 25  1  0  0  0  0
 15  1  1  0  0  0  0
 15  9  2  0  0  0  0
 16 17  1  0  0  0  0
 16 23  2  0  0  0  0
 18 19  1  0  0  0  0
 18  5  1  0  0  0  0
 20 18  1  0  0  0  0
 21 23  1  0  0  0  0
 21  1  1  0  0  0  0
 22 26  1  0  0  0  0
 22 45  1  0  0  0  0
 22  8  1  0  0  0  0
 23 24  1  0  0  0  0
 25 40  1  0  0  0  0
 26 29  1  0  0  0  0
 27 26  1  0  0  0  0
 28 26  1  0  0  0  0
 30  3  2  0  0  0  0
 30 11  1  0  0  0  0
 31 30  1  0  0  0  0
 32 22  1  0  0  0  0
 33 32  1  0  0  0  0
 34 32  1  0  0  0  0
 35 32  1  0  0  0  0
 36  9  1  0  0  0  0
 36 37  1  0  0  0  0
 38 36  2  0  0  0  0
 39 38  1  0  0  0  0
 40  5  1  0  0  0  0
 40 41  1  0  0  0  0
 40 42  1  0  0  0  0
 43 15  1  0  0  0  0
 44 43  1  0  0  0  0
 45 46  1  0  0  0  0
 47 45  1  0  0  0  0
 48 45  1  0  0  0  0
 49 43  2  0  0  0  0
 49 38  1  0  0  0  0
 50 49  1  0  0  0  0
M  END
