1
q = 0.0, confidence = 0.998

 21 22  0  0  1  0  0  0  0  0999 V2000
   -1.8841   -1.3627   -0.3420 N   0  0  0  0  0  2  0  0  0  0  0  0
   -2.7022    0.8920    0.3051 C   0  0  0  0  0  0  0  0  0  0  0  0
   -2.8072   -0.4344   -0.3307 C   0  0  1  0  0  3  0  0  0  0  0  0
   -3.9407   -0.7844   -1.0314 N   0  0  0  0  0  0  0  0  0  0  0  0
   -2.0579    1.0425    1.5523 C   0  0  0  0  0  0  0  0  0  0  0  0
   -2.3553   -2.4877   -1.1650 C   0  0  0  0  0  0  0  0  0  0  0  0
   -3.2728    2.0152   -0.3318 C   0  0  0  0  0  0  0  0  0  0  0  0
   -3.1924    3.2798    0.2674 C   0  0  0  0  0  0  0  0  0  0  0  0
   -3.8668   -2.2156   -1.3488 C   0  0  0  0  0  0  0  0  0  0  0  0
   -2.5521    3.4292    1.5084 C   0  0  0  0  0  0  0  0  0  0  0  0
   -1.9894    2.3101    2.1460 C   0  0  0  0  0  0  0  0  0  0  0  0
   -4.8299   -0.3693   -0.7472 H   0  0  0  0  0  0  0  0  0  0  0  0
   -1.7951   -2.4449   -2.1245 H   0  0  0  0  0  0  0  0  0  0  0  0
   -1.6141    0.1609    2.0461 H   0  0  0  0  0  0  0  0  0  0  0  0
   -4.4826   -2.8107   -0.6369 H   0  0  0  0  0  0  0  0  0  0  0  0
   -2.1311   -3.4530   -0.6716 H   0  0  0  0  0  0  0  0  0  0  0  0
   -4.2218   -2.4265   -2.3770 H   0  0  0  0  0  0  0  0  0  0  0  0
   -1.4891    2.4226    3.1198 H   0  0  0  0  0  0  0  0  0  0  0  0
   -3.6257    4.1542   -0.2412 H   0  0  0  0  0  0  0  0  0  0  0  0
   -2.4919    4.4218    1.9807 H   0  0  0  0  0  0  0  0  0  0  0  0
   -3.7515    1.8954   -1.3154 H   0  0  0  0  0  0  0  0  0  0  0  0
  1  3  1  0  0  0  0
  2  5  1  0  0  0  0
  3  2  1  6  0  0  0
  4 12  1  0  0  0  0
  4  3  1  0  0  0  0
  5 14  1  0  0  0  0
  5 11  2  0  0  0  0
  6 16  1  0  0  0  0
  6  1  1  0  0  0  0
  7  8  1  0  0  0  0
  7  2  2  0  0  0  0
  8 10  2  0  0  0  0
  9  6  1  0  0  0  0
  9  4  1  0  0  0  0
  9 15  1  0  0  0  0
 10 20  1  0  0  0  0
 10 11  1  0  0  0  0
 11 18  1  0  0  0  0
 13  6  1  0  0  0  0
 17  9  1  0  0  0  0
 19  8  1  0  0  0  0
 21  7  1  0  0  0  0
M  END
