6
q = -1.0, confidence = 0.0

 20 21  0  0  0  0  0  0  0  0999 V2000
   -0.8218   -1.1756    2.9927 Br  0  0  0  0  0  0  0  0  0  0  0  0
    5.6268    0.4551   -0.4169 O   0  0  0  0  0  0  0  0  0  0  0  0
    1.3092    1.0093   -2.0275 O   0  0  0  0  0  0  0  0  0  0  0  0
    3.4732    0.7105   -1.2059 N   0  0  0  0  0  0  0  0  0  0  0  0
    3.9159   -0.1638    0.9814 N   0  0  0  0  0  0  0  0  0  0  0  0
    0.3716   -0.1447    0.6449 N   0  0  0  0  0  0  0  0  0  0  0  0
    1.8998   -0.7465    2.2551 N   0  0  0  0  0  0  0  0  0  0  0  0
    4.4197    0.3386   -0.2209 C   0  0  0  0  0  0  0  0  0  0  0  0
    2.5517   -0.2856    1.1603 C   0  0  0  0  0  0  0  0  0  0  0  0
    1.6479    0.0897    0.1538 C   0  0  0  0  0  0  0  0  0  0  0  0
    2.0533    0.6306   -1.1061 C   0  0  0  0  0  0  0  0  0  0  0  0
    0.6077   -0.6358    1.8790 C   0  0  0  0  0  3  0  0  0  0  0  0
    4.0440    1.2397   -2.4395 C   0  0  0  0  0  0  0  0  0  0  0  0
    4.6568    2.1380   -2.2287 H   0  0  0  0  0  0  0  0  0  0  0  0
    3.1998    1.4918   -3.1047 H   0  0  0  0  0  0  0  0  0  0  0  0
    4.7058    0.4884   -2.9135 H   0  0  0  0  0  0  0  0  0  0  0  0
    4.8608   -0.5524    2.0184 C   0  0  0  0  0  0  0  0  0  0  0  0
    5.5348   -1.3510    1.6500 H   0  0  0  0  0  0  0  0  0  0  0  0
    4.2749   -0.9134    2.8822 H   0  0  0  0  0  0  0  0  0  0  0  0
    5.4894    0.3110    2.3130 H   0  0  0  0  0  0  0  0  0  0  0  0
  2  8  2  0  0  0  0
  3 11  2  0  0  0  0
  4 11  1  0  0  0  0
  4  8  1  0  0  0  0
  5  9  1  0  0  0  0
  5 17  1  0  0  0  0
  6 12  1  0  0  0  0
  8  5  1  0  0  0  0
  9  7  2  0  0  0  0
 10  6  2  0  0  0  0
 10  9  1  0  0  0  0
 11 10  1  0  0  0  0
 12  7  1  0  0  0  0
 12  1  1  0  0  0  0
 13 14  1  0  0  0  0
 13  4  1  0  0  0  0
 15 13  1  0  0  0  0
 16 13  1  0  0  0  0
 17 20  1  0  0  0  0
 17 19  1  0  0  0  0
 18 17  1  0  0  0  0
M  END
