1
q = -1.0, confidence = 0.028

 15 14  0  0  0  0  0  0  0  0999 V2000
    0.7350    0.0004   -0.0003 N   0  0  0  0  0  2  0  0  0  0  0  0
    1.9664    2.1778   -0.0156 C   0  0  0  0  0  0  0  0  0  0  0  0
    2.7138    1.8724    1.0773 F   0  0  0  0  0  0  0  0  0  0  0  0
    2.7092    2.9726   -0.8130 F   0  0  0  0  0  0  0  0  0  0  0  0
    0.8989    2.8802    0.4089 F   0  0  0  0  0  0  0  0  0  0  0  0
    1.9718   -2.1740    0.0154 C   0  0  0  0  0  0  0  0  0  0  0  0
    2.7203   -1.8662   -1.0762 F   0  0  0  0  0  0  0  0  0  0  0  0
    0.9067   -2.8786   -0.4111 F   0  0  0  0  0  0  0  0  0  0  0  0
    2.7152   -2.9674    0.8136 F   0  0  0  0  0  0  0  0  0  0  0  0
    1.5541   -0.9218    0.7919 C   0  0  0  0  0  0  0  0  0  0  0  0
    1.0015   -1.2693    1.6828 H   0  0  0  0  0  0  0  0  0  0  0  0
    2.4770   -0.4195    1.1412 H   0  0  0  0  0  0  0  0  0  0  0  0
    1.5529    0.9241   -0.7920 C   0  0  0  0  0  0  0  0  0  0  0  0
    1.0006    1.2698   -1.6838 H   0  0  0  0  0  0  0  0  0  0  0  0
    2.4775    0.4240   -1.1397 H   0  0  0  0  0  0  0  0  0  0  0  0
  1 10  1  0  0  0  0
  2  5  1  0  0  0  0
  2  3  1  0  0  0  0
  4  2  1  0  0  0  0
  6 10  1  0  0  0  0
  6  9  1  0  0  0  0
  7  6  1  0  0  0  0
  8  6  1  0  0  0  0
 10 12  1  0  0  0  0
 10 11  1  0  0  0  0
 13  2  1  0  0  0  0
 13  1  1  0  0  0  0
 14 13  1  0  0  0  0
 15 13  1  0  0  0  0
M  END
