1
q = 0.0, confidence = 1.0

 18 18  0  0  1  0  0  0  0  0999 V2000
    1.0783   -0.1438    0.1154 N   0  0  0  0  0  2  0  0  0  0  0  0
    2.0441    0.7112   -0.0126 C   0  0  2  0  0  3  0  0  0  0  0  0
    1.7448    2.1668   -0.2143 C   0  0  0  0  0  0  0  0  0  0  0  0
    0.6971    2.2806   -0.5435 H   0  0  0  0  0  0  0  0  0  0  0  0
    2.4112    2.5994   -0.9848 H   0  0  0  0  0  0  0  0  0  0  0  0
    1.9122    2.7341    0.7262 H   0  0  0  0  0  0  0  0  0  0  0  0
    3.4553    0.2459    0.0325 C   0  0  0  0  0  0  0  0  0  0  0  0
    3.7848   -1.0783   -0.3424 C   0  0  0  0  0  0  0  0  0  0  0  0
    2.9972   -1.7558   -0.7105 H   0  0  0  0  0  0  0  0  0  0  0  0
    5.1112   -1.5214   -0.2919 C   0  0  0  0  0  0  0  0  0  0  0  0
    5.3528   -2.5498   -0.5995 H   0  0  0  0  0  0  0  0  0  0  0  0
    6.1314   -0.6534    0.1327 C   0  0  0  0  0  0  0  0  0  0  0  0
    7.1740   -1.0036    0.1707 H   0  0  0  0  0  0  0  0  0  0  0  0
    5.8181    0.6659    0.4951 C   0  0  0  0  0  0  0  0  0  0  0  0
    6.6133    1.3520    0.8237 H   0  0  0  0  0  0  0  0  0  0  0  0
    4.4923    1.1162    0.4363 C   0  0  0  0  0  0  0  0  0  0  0  0
    4.2588    2.1521    0.7222 H   0  0  0  0  0  0  0  0  0  0  0  0
    1.3682   -1.1303    0.2244 H   0  0  0  0  0  0  0  0  0  0  0  0
  1 18  1  0  0  0  0
  2  7  1  0  0  0  0
  2  1  1  6  0  0  0
  3  2  1  0  0  0  0
  3  6  1  0  0  0  0
  4  3  1  0  0  0  0
  5  3  1  0  0  0  0
  7 16  1  0  0  0  0
  8 10  1  0  0  0  0
  8  7  2  0  0  0  0
  9  8  1  0  0  0  0
 10 12  2  0  0  0  0
 11 10  1  0  0  0  0
 12 13  1  0  0  0  0
 12 14  1  0  0  0  0
 14 15  1  0  0  0  0
 16 14  2  0  0  0  0
 16 17  1  0  0  0  0
M  END
