1
q = -1.0, confidence = 0.002

 15 14  0  0  0  0  0  0  0  0999 V2000
    1.8275   -0.7114    0.0148 N   0  0  0  0  0  2  0  0  0  0  0  0
    2.4449   -1.5132    1.3702 S   0  0  0  0  0  0  0  0  0  0  0  0
    2.6673   -0.5901   -1.4412 S   0  0  0  0  0  0  0  0  0  0  0  0
    1.3129   -1.5451    2.3251 O   0  0  0  0  0  0  0  0  0  0  0  0
    3.0913   -2.7758    0.9404 O   0  0  0  0  0  0  0  0  0  0  0  0
    3.6902   -0.3897    2.0048 C   0  0  0  0  0  0  0  0  0  0  0  0
    4.1096   -0.3680   -1.1680 O   0  0  0  0  0  0  0  0  0  0  0  0
    1.9103    0.4104   -2.2355 O   0  0  0  0  0  0  0  0  0  0  0  0
    2.4472   -2.1984   -2.1975 C   0  0  0  0  0  0  0  0  0  0  0  0
    4.0858   -0.8372    2.9351 H   0  0  0  0  0  0  0  0  0  0  0  0
    3.1700    0.5696    2.1885 H   0  0  0  0  0  0  0  0  0  0  0  0
    4.4671   -0.2944    1.2244 H   0  0  0  0  0  0  0  0  0  0  0  0
    2.9702   -2.1791   -3.1713 H   0  0  0  0  0  0  0  0  0  0  0  0
    1.3525   -2.3268   -2.3074 H   0  0  0  0  0  0  0  0  0  0  0  0
    2.8874   -2.9374   -1.5022 H   0  0  0  0  0  0  0  0  0  0  0  0
  1  2  1  0  0  0  0
  2  6  1  0  0  0  0
  2  4  2  0  0  0  0
  3  7  2  0  0  0  0
  3  1  1  0  0  0  0
  5  2  2  0  0  0  0
  6 11  1  0  0  0  0
  6 10  1  0  0  0  0
  8  3  2  0  0  0  0
  9 15  1  0  0  0  0
  9  3  1  0  0  0  0
 12  6  1  0  0  0  0
 13  9  1  0  0  0  0
 14  9  1  0  0  0  0
M  END
