1
q = 0.0, confidence = 0.988

 12 12  0  0  0  0  0  0  0  0999 V2000
    1.9037    0.1065   -0.2547 N   0  0  0  0  0  2  0  0  0  0  0  0
    3.8605    1.1578   -0.1584 C   0  0  0  0  0  3  0  0  0  0  0  0
    4.5244    2.0153   -0.0011 H   0  0  0  0  0  0  0  0  0  0  0  0
    2.5190    1.2774   -0.0147 N   0  0  0  0  0  0  0  0  0  0  0  0
    1.9022    2.0907    0.2842 H   0  0  0  0  0  0  0  0  0  0  0  0
    4.1377   -0.1673   -0.5220 C   0  0  0  0  0  0  0  0  0  0  0  0
    2.8647   -0.7858   -0.5717 C   0  0  0  0  0  0  0  0  0  0  0  0
    2.5690   -1.8062   -0.8432 H   0  0  0  0  0  0  0  0  0  0  0  0
    5.4701   -0.7828   -0.8248 C   0  0  0  0  0  0  0  0  0  0  0  0
    6.2980   -0.0927   -0.5718 H   0  0  0  0  0  0  0  0  0  0  0  0
    5.5642   -1.0372   -1.9011 H   0  0  0  0  0  0  0  0  0  0  0  0
    5.6269   -1.7213   -0.2552 H   0  0  0  0  0  0  0  0  0  0  0  0
  1  4  1  0  0  0  0
  2  4  1  0  0  0  0
  2  3  1  0  0  0  0
  4  5  1  0  0  0  0
  6  2  1  0  0  0  0
  7  6  2  0  0  0  0
  7  1  1  0  0  0  0
  8  7  1  0  0  0  0
  9 10  1  0  0  0  0
  9  6  1  0  0  0  0
  9 12  1  0  0  0  0
 11  9  1  0  0  0  0
M  END
