3
q = 0.0, confidence = 0.896

 13 13  0  0  0  0  0  0  0  0999 V2000
    5.3590    0.3840   -0.6091 Br  0  0  0  0  0  0  0  0  0  0  0  0
   -0.5310   -0.3879    2.6361 O   0  0  0  0  0  1  0  0  0  0  0  0
   -0.3499   -0.4432    1.4143 N   0  0  0  0  0  2  0  0  0  0  0  0
    1.0009   -0.2606    0.9514 C   0  0  0  0  0  0  0  0  0  0  0  0
    1.3282   -0.6504   -0.3626 C   0  0  0  0  0  0  0  0  0  0  0  0
    2.6344   -0.4645   -0.8280 C   0  0  0  0  0  0  0  0  0  0  0  0
    3.5925    0.1150    0.0230 C   0  0  0  0  0  0  0  0  0  0  0  0
    3.2695    0.4962    1.3424 C   0  0  0  0  0  0  0  0  0  0  0  0
    1.9708    0.2958    1.8101 C   0  0  0  0  0  0  0  0  0  0  0  0
    0.5576   -1.1349   -0.9843 H   0  0  0  0  0  0  0  0  0  0  0  0
    2.9148   -0.7770   -1.8434 H   0  0  0  0  0  0  0  0  0  0  0  0
    4.0369    0.9475    1.9868 H   0  0  0  0  0  0  0  0  0  0  0  0
    1.6718    0.5688    2.8319 H   0  0  0  0  0  0  0  0  0  0  0  0
  1  7  1  0  0  0  0
  3  2  1  0  0  0  0
  4  3  1  0  0  0  0
  4  9  1  0  0  0  0
  5  4  2  0  0  0  0
  6  5  1  0  0  0  0
  6  7  2  0  0  0  0
  7  8  1  0  0  0  0
  8  9  2  0  0  0  0
  8 12  1  0  0  0  0
  9 13  1  0  0  0  0
 10  5  1  0  0  0  0
 11  6  1  0  0  0  0
M  END
