2
q = 0.0, confidence = 0.992

 42 42  0  0  1  0  0  0  0  0999 V2000
    1.1904    1.1998   -0.1066 P   0  0  0  0  0  0  0  0  0  0  0  0
   -1.3025   -0.5423   -0.0580 N   0  0  0  0  0  2  0  0  0  0  0  0
   -1.8929   -1.3849   -0.0426 H   0  0  0  0  0  0  0  0  0  0  0  0
   -2.0573    0.5521   -0.0496 C   0  0  0  0  0  0  0  0  0  0  0  0
   -3.5342    0.3861   -0.0719 C   0  0  0  0  0  0  0  0  0  0  0  0
   -4.1348   -0.6755   -0.7916 C   0  0  0  0  0  0  0  0  0  0  0  0
   -3.5049   -1.3505   -1.3928 H   0  0  0  0  0  0  0  0  0  0  0  0
   -5.5236   -0.8560   -0.7877 C   0  0  0  0  0  0  0  0  0  0  0  0
   -5.9665   -1.6826   -1.3641 H   0  0  0  0  0  0  0  0  0  0  0  0
   -6.3498    0.0235   -0.0692 C   0  0  0  0  0  0  0  0  0  0  0  0
   -7.4410   -0.1169   -0.0671 H   0  0  0  0  0  0  0  0  0  0  0  0
   -5.7701    1.0857    0.6433 C   0  0  0  0  0  0  0  0  0  0  0  0
   -6.4066    1.7760    1.2178 H   0  0  0  0  0  0  0  0  0  0  0  0
   -4.3811    1.2675    0.6408 C   0  0  0  0  0  0  0  0  0  0  0  0
   -3.9391    2.0855    1.2291 H   0  0  0  0  0  0  0  0  0  0  0  0
   -1.5241    1.8967   -0.1009 C   0  0  0  0  0  0  0  0  0  0  0  0
   -2.3054    2.6746   -0.1518 H   0  0  0  0  0  0  0  0  0  0  0  0
   -0.2335    2.3497   -0.2076 C   0  0  2  0  0  3  0  0  0  0  0  0
    0.0149    3.8216   -0.4250 C   0  0  0  0  0  0  0  0  0  0  0  0
    0.3779    4.0274   -1.4547 H   0  0  0  0  0  0  0  0  0  0  0  0
    0.7835    4.2272    0.2651 H   0  0  0  0  0  0  0  0  0  0  0  0
   -0.9168    4.4058   -0.2828 H   0  0  0  0  0  0  0  0  0  0  0  0
    2.1936    1.5409   -1.6891 C   0  0  0  0  0  0  0  0  0  0  0  0
    2.8479    0.6439   -1.7207 H   0  0  0  0  0  0  0  0  0  0  0  0
    1.2530    1.4873   -2.8995 C   0  0  0  0  0  0  0  0  0  0  0  0
    0.6386    2.4074   -2.9761 H   0  0  0  0  0  0  0  0  0  0  0  0
    0.5542    0.6298   -2.8323 H   0  0  0  0  0  0  0  0  0  0  0  0
    1.8330    1.3955   -3.8418 H   0  0  0  0  0  0  0  0  0  0  0  0
    3.1055    2.7720   -1.7209 C   0  0  0  0  0  0  0  0  0  0  0  0
    3.6335    2.8150   -2.6973 H   0  0  0  0  0  0  0  0  0  0  0  0
    3.8826    2.7440   -0.9328 H   0  0  0  0  0  0  0  0  0  0  0  0
    2.5453    3.7214   -1.6139 H   0  0  0  0  0  0  0  0  0  0  0  0
    2.2494    1.9851    1.2476 C   0  0  0  0  0  0  0  0  0  0  0  0
    2.6370    2.9168    0.7814 H   0  0  0  0  0  0  0  0  0  0  0  0
    3.4285    1.0637    1.5760 C   0  0  0  0  0  0  0  0  0  0  0  0
    4.1092    1.5577    2.3007 H   0  0  0  0  0  0  0  0  0  0  0  0
    4.0258    0.8055    0.6770 H   0  0  0  0  0  0  0  0  0  0  0  0
    3.0544    0.1236    2.0290 H   0  0  0  0  0  0  0  0  0  0  0  0
    1.4473    2.3696    2.4960 C   0  0  0  0  0  0  0  0  0  0  0  0
    1.0295    1.4678    2.9817 H   0  0  0  0  0  0  0  0  0  0  0  0
    0.6071    3.0522    2.2608 H   0  0  0  0  0  0  0  0  0  0  0  0
    2.1144    2.8885    3.2168 H   0  0  0  0  0  0  0  0  0  0  0  0
  1 33  1  0  0  0  0
  2  4  1  0  0  0  0
  2  3  1  0  0  0  0
  5  4  1  0  0  0  0
  5 14  1  0  0  0  0
  6  8  1  0  0  0  0
  6  5  2  0  0  0  0
  7  6  1  0  0  0  0
  8 10  2  0  0  0  0
  9  8  1  0  0  0  0
 10 11  1  0  0  0  0
 10 12  1  0  0  0  0
 12 13  1  0  0  0  0
 14 12  2  0  0  0  0
 14 15  1  0  0  0  0
 16  4  2  0  0  0  0
 17 16  1  0  0  0  0
 18  1  1  0  0  0  0
 18 16  1  6  0  0  0
 19 22  1  0  0  0  0
 19 18  1  0  0  0  0
 19 21  1  0  0  0  0
 20 19  1  0  0  0  0
 23  1  1  0  0  0  0
 24 23  1  0  0  0  0
 25 27  1  0  0  0  0
 25 23  1  0  0  0  0
 26 25  1  0  0  0  0
 28 25  1  0  0  0  0
 29 23  1  0  0  0  0
 29 32  1  0  0  0  0
 29 31  1  0  0  0  0
 30 29  1  0  0  0  0
 33 35  1  0  0  0  0
 33 39  1  0  0  0  0
 34 33  1  0  0  0  0
 35 38  1  0  0  0  0
 35 36  1  0  0  0  0
 37 35  1  0  0  0  0
 39 40  1  0  0  0  0
 39 42  1  0  0  0  0
 41 39  1  0  0  0  0
M  END
