1
q = 0.0, confidence = 0.99

 56 59  0  0  1  0  0  0  0  0999 V2000
    1.1868   -0.4101   -0.3673 N   0  0  0  0  0  2  0  0  0  0  0  0
   -1.6589    0.1422   -0.1411 P   0  0  0  0  0  0  0  0  0  0  0  0
    0.9095    0.7011   -1.0028 C   0  0  2  0  0  3  0  0  0  0  0  0
   -0.5298    0.9179   -1.4095 C   0  0  0  0  0  0  0  0  0  0  0  0
    2.5053   -0.7537    0.0765 C   0  0  0  0  0  0  0  0  0  0  0  0
    3.2060   -1.7584   -0.6362 C   0  0  0  0  0  0  0  0  0  0  0  0
    4.4708   -2.1411   -0.1559 C   0  0  0  0  0  0  0  0  0  0  0  0
    5.0123   -1.5542    0.9969 C   0  0  0  0  0  0  0  0  0  0  0  0
    4.2896   -0.5754    1.6911 C   0  0  0  0  0  0  0  0  0  0  0  0
    3.0203   -0.1541    1.2509 C   0  0  0  0  0  0  0  0  0  0  0  0
    2.2343    0.8862    2.0041 C   0  0  0  0  0  0  0  0  0  0  0  0
    2.6114   -2.3705   -1.8768 C   0  0  0  0  0  0  0  0  0  0  0  0
    1.8989    1.7482   -1.3488 C   0  0  0  0  0  0  0  0  0  0  0  0
    3.1799    1.4405   -1.8634 C   0  0  0  0  0  0  0  0  0  0  0  0
    4.0875    2.4654   -2.1545 C   0  0  0  0  0  0  0  0  0  0  0  0
    3.7457    3.8063   -1.9152 C   0  0  0  0  0  0  0  0  0  0  0  0
    2.4798    4.1236   -1.3973 C   0  0  0  0  0  0  0  0  0  0  0  0
    1.5562    3.1059   -1.1315 C   0  0  0  0  0  0  0  0  0  0  0  0
   -1.8267    1.4092    1.1623 C   0  0  0  0  0  0  0  0  0  0  0  0
   -1.6869    1.0224    2.5110 C   0  0  0  0  0  0  0  0  0  0  0  0
   -1.7889    1.9791    3.5321 C   0  0  0  0  0  0  0  0  0  0  0  0
   -2.0287    3.3244    3.2124 C   0  0  0  0  0  0  0  0  0  0  0  0
   -2.1733    3.7153    1.8704 C   0  0  0  0  0  0  0  0  0  0  0  0
   -2.0738    2.7635    0.8456 C   0  0  0  0  0  0  0  0  0  0  0  0
   -3.2763   -0.0520   -0.9588 C   0  0  0  0  0  0  0  0  0  0  0  0
   -3.3710   -1.0050   -1.9975 C   0  0  0  0  0  0  0  0  0  0  0  0
   -4.5921   -1.2063   -2.6532 C   0  0  0  0  0  0  0  0  0  0  0  0
   -5.7276   -0.4744   -2.2647 C   0  0  0  0  0  0  0  0  0  0  0  0
   -5.6401    0.4572   -1.2193 C   0  0  0  0  0  0  0  0  0  0  0  0
   -4.4180    0.6729   -0.5630 C   0  0  0  0  0  0  0  0  0  0  0  0
   -0.7038    0.3695   -2.3610 H   0  0  0  0  0  0  0  0  0  0  0  0
   -0.7643    1.9779   -1.6160 H   0  0  0  0  0  0  0  0  0  0  0  0
    5.0368   -2.9121   -0.7010 H   0  0  0  0  0  0  0  0  0  0  0  0
    6.0023   -1.8672    1.3597 H   0  0  0  0  0  0  0  0  0  0  0  0
    4.7110   -0.1228    2.6017 H   0  0  0  0  0  0  0  0  0  0  0  0
    2.7099    1.1146    2.9759 H   0  0  0  0  0  0  0  0  0  0  0  0
    1.1927    0.5545    2.1983 H   0  0  0  0  0  0  0  0  0  0  0  0
    2.1619    1.8375    1.4358 H   0  0  0  0  0  0  0  0  0  0  0  0
    3.2494   -3.1837   -2.2697 H   0  0  0  0  0  0  0  0  0  0  0  0
    1.5978   -2.7822   -1.6799 H   0  0  0  0  0  0  0  0  0  0  0  0
    2.4834   -1.6225   -2.6889 H   0  0  0  0  0  0  0  0  0  0  0  0
    3.4624    0.3982   -2.0548 H   0  0  0  0  0  0  0  0  0  0  0  0
    5.0736    2.2130   -2.5712 H   0  0  0  0  0  0  0  0  0  0  0  0
    4.4667    4.6070   -2.1370 H   0  0  0  0  0  0  0  0  0  0  0  0
    2.2078    5.1715   -1.2032 H   0  0  0  0  0  0  0  0  0  0  0  0
    0.5733    3.3662   -0.7104 H   0  0  0  0  0  0  0  0  0  0  0  0
   -1.4924   -0.0334    2.7554 H   0  0  0  0  0  0  0  0  0  0  0  0
   -1.6776    1.6719    4.5825 H   0  0  0  0  0  0  0  0  0  0  0  0
   -2.1055    4.0747    4.0133 H   0  0  0  0  0  0  0  0  0  0  0  0
   -2.3678    4.7689    1.6204 H   0  0  0  0  0  0  0  0  0  0  0  0
   -2.2036    3.0795   -0.2013 H   0  0  0  0  0  0  0  0  0  0  0  0
   -2.4878   -1.5988   -2.2861 H   0  0  0  0  0  0  0  0  0  0  0  0
   -4.6617   -1.9445   -3.4659 H   0  0  0  0  0  0  0  0  0  0  0  0
   -6.6877   -0.6384   -2.7762 H   0  0  0  0  0  0  0  0  0  0  0  0
   -6.5306    1.0232   -0.9082 H   0  0  0  0  0  0  0  0  0  0  0  0
   -4.3569    1.4017    0.2584 H   0  0  0  0  0  0  0  0  0  0  0  0
  1  5  1  0  0  0  0
  2 19  1  0  0  0  0
  3  1  1  6  0  0  0
  4  3  1  0  0  0  0
  4  2  1  0  0  0  0
  5 10  1  0  0  0  0
  6  7  1  0  0  0  0
  6  5  2  0  0  0  0
  7  8  2  0  0  0  0
  8 34  1  0  0  0  0
  8  9  1  0  0  0  0
  9 35  1  0  0  0  0
 10  9  2  0  0  0  0
 10 11  1  0  0  0  0
 11 37  1  0  0  0  0
 11 36  1  0  0  0  0
 12 40  1  0  0  0  0
 12  6  1  0  0  0  0
 13 18  1  0  0  0  0
 13  3  1  0  0  0  0
 14 13  2  0  0  0  0
 15 16  2  0  0  0  0
 15 14  1  0  0  0  0
 16 17  1  0  0  0  0
 17 45  1  0  0  0  0
 17 18  2  0  0  0  0
 18 46  1  0  0  0  0
 19 20  1  0  0  0  0
 20 47  1  0  0  0  0
 20 21  2  0  0  0  0
 21 48  1  0  0  0  0
 22 21  1  0  0  0  0
 22 49  1  0  0  0  0
 23 22  2  0  0  0  0
 24 19  2  0  0  0  0
 24 23  1  0  0  0  0
 25 30  1  0  0  0  0
 25  2  1  0  0  0  0
 26 25  2  0  0  0  0
 27 28  2  0  0  0  0
 27 26  1  0  0  0  0
 28 29  1  0  0  0  0
 29 55  1  0  0  0  0
 29 30  2  0  0  0  0
 30 56  1  0  0  0  0
 31  4  1  0  0  0  0
 32  4  1  0  0  0  0
 33  7  1  0  0  0  0
 38 11  1  0  0  0  0
 39 12  1  0  0  0  0
 41 12  1  0  0  0  0
 42 14  1  0  0  0  0
 43 15  1  0  0  0  0
 44 16  1  0  0  0  0
 50 23  1  0  0  0  0
 51 24  1  0  0  0  0
 52 26  1  0  0  0  0
 53 27  1  0  0  0  0
 54 28  1  0  0  0  0
M  END
