2
q = 0.0, confidence = 0.998

 25 25  0  0  1  0  0  0  0  0999 V2000
    1.6589    1.3491   -0.5376 N   0  0  0  0  0  0  0  0  0  0  0  0
    1.3986   -1.1614    0.7012 N   0  0  0  0  0  0  0  0  0  0  0  0
    2.7757    0.3721   -0.6067 C   0  0  0  0  0  0  0  0  0  0  0  0
    3.7521    0.8951   -0.6995 H   0  0  0  0  0  0  0  0  0  0  0  0
    2.6151   -0.2192   -1.5304 H   0  0  0  0  0  0  0  0  0  0  0  0
    1.6286    2.1404   -1.8091 C   0  0  0  0  0  0  0  0  0  0  0  0
    2.6607    2.5179   -1.9824 H   0  0  0  0  0  0  0  0  0  0  0  0
    1.3913    1.4181   -2.6140 H   0  0  0  0  0  0  0  0  0  0  0  0
    1.5069   -2.5197    0.0820 C   0  0  0  0  0  0  0  0  0  0  0  0
    0.6535   -3.1416    0.4121 H   0  0  0  0  0  0  0  0  0  0  0  0
    1.4279   -2.3985   -1.0156 H   0  0  0  0  0  0  0  0  0  0  0  0
    2.7755   -0.5543    0.5946 C   0  0  2  0  0  0  0  0  0  0  0  0
    2.9537    0.0283    1.5232 H   0  0  0  0  0  0  0  0  0  0  0  0
    0.6417    3.2911   -1.8246 C   0  0  0  0  0  0  0  0  0  0  0  0
    0.8130    3.8990   -2.7340 H   0  0  0  0  0  0  0  0  0  0  0  0
    0.7635    3.9695   -0.9538 H   0  0  0  0  0  0  0  0  0  0  0  0
   -0.4016    2.9277   -1.8636 H   0  0  0  0  0  0  0  0  0  0  0  0
    3.7638   -1.7424    0.4436 C   0  0  0  0  0  0  0  0  0  0  0  0
    4.2667   -1.6871   -0.5429 H   0  0  0  0  0  0  0  0  0  0  0  0
    4.5583   -1.7227    1.2125 H   0  0  0  0  0  0  0  0  0  0  0  0
    2.8833   -3.0080    0.5340 C   0  0  0  0  0  0  0  0  0  0  0  0
    3.2617   -3.8392   -0.0908 H   0  0  0  0  0  0  0  0  0  0  0  0
    2.8373   -3.3811    1.5791 H   0  0  0  0  0  0  0  0  0  0  0  0
    1.8513    2.0089    0.2325 H   0  0  0  0  0  0  0  0  0  0  0  0
    1.2253   -1.3199    1.7031 H   0  0  0  0  0  0  0  0  0  0  0  0
  1 24  1  0  0  0  0
  2 25  1  0  0  0  0
  3  1  1  0  0  0  0
  3 12  1  0  0  0  0
  4  3  1  0  0  0  0
  5  3  1  0  0  0  0
  6  1  1  0  0  0  0
  7  6  1  0  0  0  0
  8  6  1  0  0  0  0
  9 10  1  0  0  0  0
  9 21  1  0  0  0  0
  9  2  1  0  0  0  0
 11  9  1  0  0  0  0
 12  2  1  0  0  0  0
 12 13  1  1  0  0  0
 14  6  1  0  0  0  0
 14 16  1  0  0  0  0
 15 14  1  0  0  0  0
 17 14  1  0  0  0  0
 18 21  1  0  0  0  0
 18 12  1  0  0  0  0
 18 20  1  0  0  0  0
 19 18  1  0  0  0  0
 21 23  1  0  0  0  0
 22 21  1  0  0  0  0
M  END
