3
q = 0.0, confidence = 1.0

 32 33  0  0  1  0  0  0  0  0999 V2000
    0.3828   -1.8661   -0.2165 N   0  0  0  0  0  0  0  0  0  0  0  0
    0.7889   -2.1876    0.6760 H   0  0  0  0  0  0  0  0  0  0  0  0
   -2.2205   -1.0484    0.4235 N   0  0  0  0  0  0  0  0  0  0  0  0
   -2.5639   -0.8395    1.3708 H   0  0  0  0  0  0  0  0  0  0  0  0
    1.4483   -2.0051   -1.2670 C   0  0  0  0  0  0  0  0  0  0  0  0
    1.6477   -3.0922   -1.3955 H   0  0  0  0  0  0  0  0  0  0  0  0
    1.0092   -1.6160   -2.2042 H   0  0  0  0  0  0  0  0  0  0  0  0
   -0.7636   -2.7417   -0.5636 C   0  0  0  0  0  0  0  0  0  0  0  0
   -0.4569   -3.8101   -0.5792 H   0  0  0  0  0  0  0  0  0  0  0  0
   -1.0725   -2.4587   -1.5900 H   0  0  0  0  0  0  0  0  0  0  0  0
   -3.3879   -0.8533   -0.4918 C   0  0  0  0  0  0  0  0  0  0  0  0
   -3.0011   -0.8075   -1.5282 H   0  0  0  0  0  0  0  0  0  0  0  0
   -3.8683    0.1185   -0.2711 H   0  0  0  0  0  0  0  0  0  0  0  0
   -1.9222   -2.5273    0.3925 C   0  0  2  0  0  0  0  0  0  0  0  0
   -1.6250   -2.8267    1.4198 H   0  0  0  0  0  0  0  0  0  0  0  0
   -4.2570   -2.0836   -0.2299 C   0  0  0  0  0  0  0  0  0  0  0  0
   -4.9821   -2.2690   -1.0450 H   0  0  0  0  0  0  0  0  0  0  0  0
   -4.8435   -1.9508    0.7038 H   0  0  0  0  0  0  0  0  0  0  0  0
    3.5869   -1.7695    0.0659 C   0  0  0  0  0  0  0  0  0  0  0  0
    3.3643   -2.7277    0.5654 H   0  0  0  0  0  0  0  0  0  0  0  0
   -3.2292   -3.2254   -0.0719 C   0  0  0  0  0  0  0  0  0  0  0  0
   -3.5630   -4.0007    0.6425 H   0  0  0  0  0  0  0  0  0  0  0  0
   -3.0575   -3.7323   -1.0428 H   0  0  0  0  0  0  0  0  0  0  0  0
    4.7465   -1.0603    0.4158 C   0  0  0  0  0  0  0  0  0  0  0  0
    5.4184   -1.4526    1.1938 H   0  0  0  0  0  0  0  0  0  0  0  0
    2.7193   -1.2775   -0.9310 C   0  0  0  0  0  0  0  0  0  0  0  0
    3.0507   -0.0836   -1.6016 C   0  0  0  0  0  0  0  0  0  0  0  0
    2.3734    0.2962   -2.3822 H   0  0  0  0  0  0  0  0  0  0  0  0
    5.0599    0.1392   -0.2460 C   0  0  0  0  0  0  0  0  0  0  0  0
    5.9737    0.6912    0.0197 H   0  0  0  0  0  0  0  0  0  0  0  0
    4.2173    0.6192   -1.2632 C   0  0  0  0  0  0  0  0  0  0  0  0
    4.4734    1.5469   -1.7969 H   0  0  0  0  0  0  0  0  0  0  0  0
  1  2  1  0  0  0  0
  3  4  1  0  0  0  0
  5 26  1  0  0  0  0
  5  1  1  0  0  0  0
  6  5  1  0  0  0  0
  7  5  1  0  0  0  0
  8  1  1  0  0  0  0
  8 14  1  0  0  0  0
  9  8  1  0  0  0  0
 10  8  1  0  0  0  0
 11 13  1  0  0  0  0
 11 16  1  0  0  0  0
 11  3  1  0  0  0  0
 12 11  1  0  0  0  0
 14  3  1  0  0  0  0
 14 15  1  1  0  0  0
 16 21  1  0  0  0  0
 16 18  1  0  0  0  0
 17 16  1  0  0  0  0
 19 24  1  0  0  0  0
 19 20  1  0  0  0  0
 21 14  1  0  0  0  0
 21 22  1  0  0  0  0
 23 21  1  0  0  0  0
 24 25  1  0  0  0  0
 26 19  2  0  0  0  0
 27 31  2  0  0  0  0
 27 26  1  0  0  0  0
 28 27  1  0  0  0  0
 29 30  1  0  0  0  0
 29 24  2  0  0  0  0
 31 29  1  0  0  0  0
 32 31  1  0  0  0  0
M  END
