1
q = 0.0, confidence = 0.986

 35 35  0  0  0  0  0  0  0  0999 V2000
    1.3201    1.5811   -1.0258 N   0  0  0  0  0  0  0  0  0  0  0  0
   -2.1915    0.1631   -0.1681 N   0  0  0  0  0  0  0  0  0  0  0  0
   -0.8610    0.2364   -0.6924 B   0  0  0  0  0  0  0  0  0  0  0  0
    0.0873    1.4336   -0.3974 C   0  0  0  0  0  0  0  0  0  0  0  0
   -0.0954    2.2507    0.3153 H   0  0  0  0  0  0  0  0  0  0  0  0
   -0.1049   -0.8680   -1.4708 C   0  0  0  0  0  3  0  0  0  0  0  0
   -0.4745   -1.8930   -1.6090 H   0  0  0  0  0  0  0  0  0  0  0  0
    1.1211   -0.5835   -2.1053 C   0  0  0  0  0  0  0  0  0  0  0  0
    1.6338   -1.3404   -2.7204 H   0  0  0  0  0  0  0  0  0  0  0  0
    1.8285    0.6322   -1.9207 C   0  0  0  0  0  0  0  0  0  0  0  0
    2.7762    0.8778   -2.4123 H   0  0  0  0  0  0  0  0  0  0  0  0
    2.0847    2.8237   -0.8385 C   0  0  0  0  0  0  0  0  0  0  0  0
    1.7379    3.5810   -1.5695 H   0  0  0  0  0  0  0  0  0  0  0  0
    3.1606    2.6194   -0.9803 H   0  0  0  0  0  0  0  0  0  0  0  0
    1.9256    3.1907    0.1905 H   0  0  0  0  0  0  0  0  0  0  0  0
   -2.7872    1.2802    0.5855 C   0  0  0  0  0  0  0  0  0  0  0  0
   -2.0433    2.1000    0.5621 H   0  0  0  0  0  0  0  0  0  0  0  0
   -3.0290    0.9372    2.0642 C   0  0  0  0  0  0  0  0  0  0  0  0
   -2.1002    0.5695    2.5419 H   0  0  0  0  0  0  0  0  0  0  0  0
   -3.8041    0.1514    2.1801 H   0  0  0  0  0  0  0  0  0  0  0  0
   -3.3836    1.8298    2.6188 H   0  0  0  0  0  0  0  0  0  0  0  0
   -4.0517    1.8354   -0.0903 C   0  0  0  0  0  0  0  0  0  0  0  0
   -3.8428    2.1202   -1.1407 H   0  0  0  0  0  0  0  0  0  0  0  0
   -4.4180    2.7324    0.4490 H   0  0  0  0  0  0  0  0  0  0  0  0
   -4.8797    1.0968   -0.0940 H   0  0  0  0  0  0  0  0  0  0  0  0
   -3.0428   -1.0404   -0.2850 C   0  0  0  0  0  0  0  0  0  0  0  0
   -3.9997   -0.7887    0.2186 H   0  0  0  0  0  0  0  0  0  0  0  0
   -2.4779   -2.2520    0.4718 C   0  0  0  0  0  0  0  0  0  0  0  0
   -2.2809   -1.9961    1.5301 H   0  0  0  0  0  0  0  0  0  0  0  0
   -1.5219   -2.6076    0.0417 H   0  0  0  0  0  0  0  0  0  0  0  0
   -3.1970   -3.0960    0.4424 H   0  0  0  0  0  0  0  0  0  0  0  0
   -3.4059   -1.3582   -1.7432 C   0  0  0  0  0  0  0  0  0  0  0  0
   -3.8842   -0.4823   -2.2240 H   0  0  0  0  0  0  0  0  0  0  0  0
   -4.1128   -2.2116   -1.7931 H   0  0  0  0  0  0  0  0  0  0  0  0
   -2.5139   -1.6224   -2.3434 H   0  0  0  0  0  0  0  0  0  0  0  0
  1 12  1  0  0  0  0
  1  4  1  0  0  0  0
  2 16  1  0  0  0  0
  3  4  2  0  0  0  0
  3  2  1  0  0  0  0
  4  5  1  0  0  0  0
  6  3  1  0  0  0  0
  7  6  1  0  0  0  0
  8 10  2  0  0  0  0
  8  6  1  0  0  0  0
  9  8  1  0  0  0  0
 10  1  1  0  0  0  0
 11 10  1  0  0  0  0
 12 15  1  0  0  0  0
 13 12  1  0  0  0  0
 14 12  1  0  0  0  0
 16 18  1  0  0  0  0
 17 16  1  0  0  0  0
 18 20  1  0  0  0  0
 18 19  1  0  0  0  0
 18 21  1  0  0  0  0
 22 24  1  0  0  0  0
 22 16  1  0  0  0  0
 23 22  1  0  0  0  0
 25 22  1  0  0  0  0
 26  2  1  0  0  0  0
 26 27  1  0  0  0  0
 26 28  1  0  0  0  0
 28 29  1  0  0  0  0
 30 28  1  0  0  0  0
 31 28  1  0  0  0  0
 32 26  1  0  0  0  0
 33 32  1  0  0  0  0
 34 32  1  0  0  0  0
 35 32  1  0  0  0  0
M  END
