4
q = -2.0, confidence = 0.564

 13 13  0  0  0  0  0  0  0  0999 V2000
   -0.5796    0.3401    1.2261 S   0  0  0  0  0  1  0  0  0  0  0  0
   -1.9897   -3.5035   -2.3378 Cl  0  0  0  0  0  0  0  0  0  0  0  0
   -1.3774   -1.6631   -0.4206 C   0  0  0  0  0  0  0  0  0  0  0  0
   -0.0973   -1.6594   -0.8299 N   0  0  0  0  0  2  0  0  0  0  0  0
    0.0744   -2.1489   -1.7119 H   0  0  0  0  0  0  0  0  0  0  0  0
   -1.7924   -0.8267    0.6636 C   0  0  0  0  0  0  0  0  0  0  0  0
   -2.4069   -2.5023   -0.9639 C   0  0  0  0  0  0  0  0  0  0  0  0
   -5.6207   -1.8546    1.3806 Cl  0  0  0  0  0  0  0  0  0  0  0  0
   -3.0711   -0.8846    1.2440 C   0  0  0  0  0  0  0  0  0  0  0  0
   -3.3297   -0.2423    2.0960 H   0  0  0  0  0  0  0  0  0  0  0  0
   -4.0172   -1.7538    0.6959 C   0  0  0  0  0  0  0  0  0  0  0  0
   -3.6877   -2.5526   -0.4237 C   0  0  0  0  0  0  0  0  0  0  0  0
   -4.4389   -3.2221   -0.8629 H   0  0  0  0  0  0  0  0  0  0  0  0
  2  7  1  0  0  0  0
  3  6  1  0  0  0  0
  4  3  1  0  0  0  0
  5  4  1  0  0  0  0
  6  1  1  0  0  0  0
  6  9  2  0  0  0  0
  7 12  1  0  0  0  0
  7  3  2  0  0  0  0
  9 10  1  0  0  0  0
 11  9  1  0  0  0  0
 11  8  1  0  0  0  0
 12 11  2  0  0  0  0
 13 12  1  0  0  0  0
M  END
