1
q = 0.0, confidence = 1.0

 25 26  0  0  1  0  0  0  0  0999 V2000
   -2.3643   -1.1155    0.0825 N   0  0  0  0  0  2  0  0  0  0  0  0
   -3.3584   -0.2031   -0.0708 N   0  0  0  0  0  0  0  0  0  0  0  0
   -2.9213   -2.3343   -0.0166 C   0  0  1  0  0  3  0  0  0  0  0  0
   -4.3152   -2.1910   -0.2293 C   0  0  0  0  0  0  0  0  0  0  0  0
   -5.0527   -2.9925   -0.3393 H   0  0  0  0  0  0  0  0  0  0  0  0
   -4.5708   -0.8185   -0.2594 C   0  0  0  0  0  0  0  0  0  0  0  0
   -2.0823   -3.5669    0.0681 C   0  0  0  0  0  0  0  0  0  0  0  0
   -1.4802   -3.6934   -0.8559 H   0  0  0  0  0  0  0  0  0  0  0  0
   -2.7142   -4.4652    0.1976 H   0  0  0  0  0  0  0  0  0  0  0  0
   -1.3764   -3.4902    0.9198 H   0  0  0  0  0  0  0  0  0  0  0  0
   -5.8480   -0.0611   -0.4104 C   0  0  0  0  0  0  0  0  0  0  0  0
   -5.9331    0.7464    0.3448 H   0  0  0  0  0  0  0  0  0  0  0  0
   -6.7067   -0.7466   -0.2883 H   0  0  0  0  0  0  0  0  0  0  0  0
   -5.9346    0.4154   -1.4089 H   0  0  0  0  0  0  0  0  0  0  0  0
   -3.0865    1.1897    0.0814 C   0  0  0  0  0  0  0  0  0  0  0  0
   -2.5580    1.6532    1.3000 C   0  0  0  0  0  0  0  0  0  0  0  0
   -2.3436    0.9370    2.1070 H   0  0  0  0  0  0  0  0  0  0  0  0
   -2.2846    3.0201    1.4484 C   0  0  0  0  0  0  0  0  0  0  0  0
   -1.8715    3.3870    2.3998 H   0  0  0  0  0  0  0  0  0  0  0  0
   -2.5353    3.9129    0.3927 C   0  0  0  0  0  0  0  0  0  0  0  0
   -2.3202    4.9853    0.5153 H   0  0  0  0  0  0  0  0  0  0  0  0
   -3.0551    3.4365   -0.8218 C   0  0  0  0  0  0  0  0  0  0  0  0
   -3.2334    4.1296   -1.6573 H   0  0  0  0  0  0  0  0  0  0  0  0
   -3.3267    2.0705   -0.9853 C   0  0  0  0  0  0  0  0  0  0  0  0
   -3.6874    1.6743   -1.9445 H   0  0  0  0  0  0  0  0  0  0  0  0
  2 15  1  0  0  0  0
  2  1  1  0  0  0  0
  3  7  1  6  0  0  0
  3  1  1  0  0  0  0
  4  3  1  0  0  0  0
  5  4  1  0  0  0  0
  6  4  2  0  0  0  0
  6  2  1  0  0  0  0
  7  9  1  0  0  0  0
  7 10  1  0  0  0  0
  8  7  1  0  0  0  0
 11 13  1  0  0  0  0
 11  6  1  0  0  0  0
 11 12  1  0  0  0  0
 14 11  1  0  0  0  0
 15 16  1  0  0  0  0
 16 18  2  0  0  0  0
 16 17  1  0  0  0  0
 18 19  1  0  0  0  0
 20 21  1  0  0  0  0
 20 18  1  0  0  0  0
 22 20  2  0  0  0  0
 23 22  1  0  0  0  0
 24 22  1  0  0  0  0
 24 15  2  0  0  0  0
 25 24  1  0  0  0  0
M  END
