2
q = 0.0, confidence = 1.0

 25 26  0  0  1  0  0  0  0  0999 V2000
   -5.7345   -1.6777   -0.1844 Br  0  0  0  0  0  0  0  0  0  0  0  0
   -1.9659   -0.2127    0.1976 N   0  0  0  0  0  2  0  0  0  0  0  0
   -2.6696    0.9359    0.0282 N   0  0  0  0  0  0  0  0  0  0  0  0
   -2.8324   -1.2377    0.1483 C   0  0  1  0  0  3  0  0  0  0  0  0
   -4.1330   -0.7054   -0.0542 C   0  0  0  0  0  0  0  0  0  0  0  0
   -4.0095    0.6876   -0.1261 C   0  0  0  0  0  0  0  0  0  0  0  0
   -2.3797   -2.6524    0.2621 C   0  0  0  0  0  0  0  0  0  0  0  0
   -1.6422   -2.7490    1.0838 H   0  0  0  0  0  0  0  0  0  0  0  0
   -1.8867   -2.9787   -0.6775 H   0  0  0  0  0  0  0  0  0  0  0  0
   -3.2409   -3.3190    0.4545 H   0  0  0  0  0  0  0  0  0  0  0  0
   -5.0393    1.7509   -0.2838 C   0  0  0  0  0  0  0  0  0  0  0  0
   -6.0353    1.3345   -0.0422 H   0  0  0  0  0  0  0  0  0  0  0  0
   -5.0794    2.1373   -1.3236 H   0  0  0  0  0  0  0  0  0  0  0  0
   -4.8365    2.6119    0.3834 H   0  0  0  0  0  0  0  0  0  0  0  0
   -2.0128    2.2002    0.1187 C   0  0  0  0  0  0  0  0  0  0  0  0
   -2.0333    3.0773   -0.9772 C   0  0  0  0  0  0  0  0  0  0  0  0
   -2.5270    2.7693   -1.9091 H   0  0  0  0  0  0  0  0  0  0  0  0
   -1.3798    4.3137   -0.8766 C   0  0  0  0  0  0  0  0  0  0  0  0
   -1.3846    5.0021   -1.7347 H   0  0  0  0  0  0  0  0  0  0  0  0
   -0.7022    4.6605    0.3037 C   0  0  0  0  0  0  0  0  0  0  0  0
   -0.1875    5.6305    0.3767 H   0  0  0  0  0  0  0  0  0  0  0  0
   -0.6773    3.7682    1.3888 C   0  0  0  0  0  0  0  0  0  0  0  0
   -0.1437    4.0331    2.3137 H   0  0  0  0  0  0  0  0  0  0  0  0
   -1.3326    2.5318    1.3043 C   0  0  0  0  0  0  0  0  0  0  0  0
   -1.3027    1.8115    2.1352 H   0  0  0  0  0  0  0  0  0  0  0  0
  1  5  1  0  0  0  0
  3 15  1  0  0  0  0
  3  2  1  0  0  0  0
  4  2  1  0  0  0  0
  4  7  1  6  0  0  0
  5  4  1  0  0  0  0
  6  5  2  0  0  0  0
  6  3  1  0  0  0  0
  7 10  1  0  0  0  0
  7  8  1  0  0  0  0
  9  7  1  0  0  0  0
 11  6  1  0  0  0  0
 11 12  1  0  0  0  0
 11 14  1  0  0  0  0
 13 11  1  0  0  0  0
 15 24  1  0  0  0  0
 16 18  1  0  0  0  0
 16 15  2  0  0  0  0
 17 16  1  0  0  0  0
 18 20  2  0  0  0  0
 19 18  1  0  0  0  0
 20 21  1  0  0  0  0
 20 22  1  0  0  0  0
 22 23  1  0  0  0  0
 24 22  2  0  0  0  0
 24 25  1  0  0  0  0
M  END
