2
q = -1.0, confidence = 0.048

 39 45  0  0  1  0  0  0  0  0999 V2000
   -1.1956   -1.2186    0.3594 N   0  0  0  0  0  0  0  0  0  0  0  0
   -0.0871    1.6063    0.9488 N   0  0  0  0  0  2  0  0  0  0  0  0
   -2.0842   -2.0472   -0.2662 C   0  0  0  0  0  3  0  0  0  0  0  0
   -3.4585   -1.9346   -0.0913 C   0  0  0  0  0  0  0  0  0  0  0  0
   -3.9679   -0.9460    0.7688 C   0  0  0  0  0  0  0  0  0  0  0  0
   -3.0554   -0.0826    1.3868 C   0  0  0  0  0  0  0  0  0  0  0  0
   -1.6769   -0.2172    1.1615 C   0  0  0  0  0  0  0  0  0  0  0  0
   -0.7447    0.7669    1.7820 C   0  0  2  0  0  3  0  0  0  0  0  0
   -0.6491    0.8686    3.1800 C   0  0  0  0  0  0  0  0  0  0  0  0
    0.1515    1.8741    3.7340 C   0  0  0  0  0  0  0  0  0  0  0  0
    0.8214    2.7508    2.8694 C   0  0  0  0  0  0  0  0  0  0  0  0
    0.6773    2.5768    1.4889 C   0  0  0  0  0  0  0  0  0  0  0  0
    1.0630   -0.8671   -1.2556 B   0  0  1  0  0  0  0  0  0  0  0  0
    0.2951   -1.5294    0.1195 B   0  0  1  0  0  0  0  0  0  0  0  0
    1.9133   -0.6362    0.2301 B   0  0  0  0  0  0  0  0  0  0  0  0
    2.5412   -1.7162   -1.1080 B   0  0  1  0  0  0  0  0  0  0  0  0
    0.9174   -2.5800   -1.2215 B   0  0  1  0  0  0  0  0  0  0  0  0
    1.4130   -1.8509    1.4883 B   0  0  2  0  0  0  0  0  0  0  0  0
    3.0195   -2.0070    0.6058 B   0  0  2  0  0  0  0  0  0  0  0  0
    2.3293   -3.3777   -0.4263 B   0  0  0  0  0  0  0  0  0  0  0  0
    0.7376   -3.2438    0.4545 B   0  0  1  0  0  0  0  0  0  0  0  0
    2.2160   -3.3579    1.2959 B   0  0  2  0  0  0  0  0  0  0  0  0
    0.6705   -0.1718   -2.2031 H   0  0  0  0  0  0  0  0  0  0  0  0
    2.2613    0.4545    0.6324 H   0  0  0  0  0  0  0  0  0  0  0  0
    3.3852   -1.5081   -1.9633 H   0  0  0  0  0  0  0  0  0  0  0  0
    0.3247   -3.1338   -2.1308 H   0  0  0  0  0  0  0  0  0  0  0  0
    1.1096   -1.4590    2.6012 H   0  0  0  0  0  0  0  0  0  0  0  0
    4.1495   -1.7275    0.9605 H   0  0  0  0  0  0  0  0  0  0  0  0
    2.8551   -4.3144   -0.9933 H   0  0  0  0  0  0  0  0  0  0  0  0
   -0.1796   -4.0157    0.6777 H   0  0  0  0  0  0  0  0  0  0  0  0
    2.5696   -4.1521    2.1372 H   0  0  0  0  0  0  0  0  0  0  0  0
   -1.6168   -2.8133   -0.9000 H   0  0  0  0  0  0  0  0  0  0  0  0
   -4.1181   -2.6412   -0.6145 H   0  0  0  0  0  0  0  0  0  0  0  0
   -5.0478   -0.8499    0.9533 H   0  0  0  0  0  0  0  0  0  0  0  0
   -3.3941    0.7278    2.0472 H   0  0  0  0  0  0  0  0  0  0  0  0
   -1.1831    0.1465    3.8132 H   0  0  0  0  0  0  0  0  0  0  0  0
    0.2569    1.9656    4.8251 H   0  0  0  0  0  0  0  0  0  0  0  0
    1.4604    3.5580    3.2549 H   0  0  0  0  0  0  0  0  0  0  0  0
    1.1998    3.2281    0.7710 H   0  0  0  0  0  0  0  0  0  0  0  0
  1  7  1  0  0  0  0
  2 12  1  0  0  0  0
  2  8  1  0  0  0  0
  3  4  1  0  0  0  0
  3  1  1  0  0  0  0
  4  5  2  0  0  0  0
  5 34  1  0  0  0  0
  5  6  1  0  0  0  0
  6 35  1  0  0  0  0
  7  6  2  0  0  0  0
  8  7  1  1  0  0  0
  8  9  1  0  0  0  0
  9 10  2  0  0  0  0
  9 36  1  0  0  0  0
 10 37  1  0  0  0  0
 11 38  1  0  0  0  0
 11 10  1  0  0  0  0
 12 11  2  0  0  0  0
 13 23  1  6  0  0  0
 13 17  1  0  0  0  0
 13 16  1  0  0  0  0
 13 14  1  0  0  0  0
 14  1  1  1  0  0  0
 14 21  1  0  0  0  0
 14 18  1  0  0  0  0
 15 19  1  0  0  0  0
 15 24  1  0  0  0  0
 15 18  1  0  0  0  0
 16 25  1  6  0  0  0
 16 20  1  0  0  0  0
 16 19  1  0  0  0  0
 17 26  1  6  0  0  0
 17 20  1  0  0  0  0
 17 21  1  0  0  0  0
 18 27  1  1  0  0  0
 19 28  1  1  0  0  0
 19 22  1  0  0  0  0
 21 30  1  1  0  0  0
 21 22  1  0  0  0  0
 22 18  1  0  0  0  0
 22 31  1  1  0  0  0
 29 20  1  0  0  0  0
 32  3  1  0  0  0  0
 33  4  1  0  0  0  0
 39 12  1  0  0  0  0
M  END
