4
q = 0.0, confidence = 0.998

 16 15  0  0  1  0  0  0  0  0999 V2000
    1.7471    2.3873    1.0641 O   0  0  0  0  0  0  0  0  0  0  0  0
   -2.9730    0.3193   -0.5452 O   0  0  0  0  0  0  0  0  0  0  0  0
    0.4661    1.9297    0.8286 N   0  0  0  0  0  0  0  0  0  0  0  0
   -1.6888    0.6866   -0.3035 N   0  0  0  0  0  2  0  0  0  0  0  0
    0.4627    3.6211   -0.9830 C   0  0  0  0  0  0  0  0  0  0  0  0
   -0.1297    2.4987   -0.1746 C   0  0  0  0  0  0  0  0  0  0  0  0
   -1.4726    1.9642   -0.4801 C   0  0  2  0  0  3  0  0  0  0  0  0
   -2.5718    2.8608   -0.9714 C   0  0  0  0  0  0  0  0  0  0  0  0
    2.0335    1.7477    1.7580 H   0  0  0  0  0  0  0  0  0  0  0  0
    0.2909    4.6032   -0.4926 H   0  0  0  0  0  0  0  0  0  0  0  0
    0.0350    3.6665   -2.0019 H   0  0  0  0  0  0  0  0  0  0  0  0
    1.5596    3.4866   -1.0479 H   0  0  0  0  0  0  0  0  0  0  0  0
   -2.2264    3.8984   -1.1237 H   0  0  0  0  0  0  0  0  0  0  0  0
   -3.4026    2.8628   -0.2351 H   0  0  0  0  0  0  0  0  0  0  0  0
   -3.0041    2.4661   -1.9137 H   0  0  0  0  0  0  0  0  0  0  0  0
   -2.9315   -0.6837   -0.4306 H   0  0  0  0  0  0  0  0  0  0  0  0
  1  9  1  0  0  0  0
  2 16  1  0  0  0  0
  2  4  1  0  0  0  0
  3  1  1  0  0  0  0
  5 10  1  0  0  0  0
  5  6  1  0  0  0  0
  6  3  2  0  0  0  0
  7  4  1  1  0  0  0
  7  6  1  0  0  0  0
  8  7  1  0  0  0  0
  8 14  1  0  0  0  0
 11  5  1  0  0  0  0
 12  5  1  0  0  0  0
 13  8  1  0  0  0  0
 15  8  1  0  0  0  0
M  END
