8
q = -1.0, confidence = 0.0

 17 17  0  0  0  0  0  0  0  0999 V2000
   -0.4268    5.2138    1.3967 F   0  0  0  0  0  0  0  0  0  0  0  0
   -2.5601    5.4264    0.9834 F   0  0  0  0  0  0  0  0  0  0  0  0
   -1.8893    4.1578    2.6249 F   0  0  0  0  0  0  0  0  0  0  0  0
   -2.8247    1.0836   -3.6023 F   0  0  0  0  0  0  0  0  0  0  0  0
   -3.2078    3.2368   -3.4958 F   0  0  0  0  0  0  0  0  0  0  0  0
   -4.4593    1.8563   -2.3744 F   0  0  0  0  0  0  0  0  0  0  0  0
    0.2226    2.3161    1.6735 O   0  0  0  0  0  0  0  0  0  0  0  0
   -0.4156    1.3533   -0.3141 N   0  0  0  0  0  2  0  0  0  0  0  0
   -0.5261    2.3465    0.6843 C   0  0  0  0  0  0  0  0  0  0  0  0
   -1.5313    3.3704    0.4102 C   0  0  0  0  0  0  0  0  0  0  0  0
   -2.3677    3.2843   -0.6864 C   0  0  0  0  0  0  0  0  0  0  0  0
   -3.1235    4.0658   -0.8536 H   0  0  0  0  0  0  0  0  0  0  0  0
   -2.2490    2.2042   -1.5975 C   0  0  0  0  0  0  0  0  0  0  0  0
   -1.2478    1.2639   -1.3700 C   0  0  0  0  0  0  0  0  0  0  0  0
   -1.0897    0.4151   -2.0539 H   0  0  0  0  0  0  0  0  0  0  0  0
   -1.6045    4.5360    1.3619 C   0  0  0  0  0  0  0  0  0  0  0  0
   -3.1801    2.0884   -2.7675 C   0  0  0  0  0  0  0  0  0  0  0  0
  2 16  1  0  0  0  0
  4 17  1  0  0  0  0
  5 17  1  0  0  0  0
  8  9  1  0  0  0  0
  9  7  2  0  0  0  0
 10  9  1  0  0  0  0
 10 16  1  0  0  0  0
 11 10  2  0  0  0  0
 12 11  1  0  0  0  0
 13 14  2  0  0  0  0
 13 11  1  0  0  0  0
 14  8  1  0  0  0  0
 15 14  1  0  0  0  0
 16  1  1  0  0  0  0
 16  3  1  0  0  0  0
 17  6  1  0  0  0  0
 17 13  1  0  0  0  0
M  END
