1
q = 0.0, confidence = 0.998

 13 12  0  0  0  0  0  0  0  0999 V2000
    0.9728    0.5929    0.3626 N   0  0  0  0  0  0  0  0  0  0  0  0
    1.0334    1.2428   -0.4469 H   0  0  0  0  0  0  0  0  0  0  0  0
    1.1198    1.1976    1.1831 H   0  0  0  0  0  0  0  0  0  0  0  0
    3.5592    1.4506   -0.0120 O   0  0  0  0  0  0  0  0  0  0  0  0
    4.3822   -0.6652    0.1140 O   0  0  0  0  0  0  0  0  0  0  0  0
    2.0420   -0.4111    0.2880 C   0  0  0  0  0  0  0  0  0  0  0  0
    1.8235   -1.0802   -0.5726 H   0  0  0  0  0  0  0  0  0  0  0  0
    2.0411   -1.0483    1.1951 H   0  0  0  0  0  0  0  0  0  0  0  0
    3.3978    0.2506    0.1156 C   0  0  0  0  0  0  0  0  0  0  0  0
    5.7099   -0.1490   -0.0769 C   0  0  0  0  0  0  0  0  0  0  0  0
    6.3830   -1.0234   -0.0512 H   0  0  0  0  0  0  0  0  0  0  0  0
    5.9710    0.5672    0.7275 H   0  0  0  0  0  0  0  0  0  0  0  0
    5.7888    0.3735   -1.0510 H   0  0  0  0  0  0  0  0  0  0  0  0
  1  3  1  0  0  0  0
  2  1  1  0  0  0  0
  4  9  2  0  0  0  0
  5  9  1  0  0  0  0
  6  1  1  0  0  0  0
  6  8  1  0  0  0  0
  7  6  1  0  0  0  0
  9  6  1  0  0  0  0
 10 11  1  0  0  0  0
 10  5  1  0  0  0  0
 10 12  1  0  0  0  0
 13 10  1  0  0  0  0
M  END
