2
q = 0.0, confidence = 0.994

 32 34  0  0  1  0  0  0  0  0999 V2000
    2.6704   -3.1245    0.9042 O   0  0  0  0  0  0  0  0  0  0  0  0
    1.0726   -1.6170    0.5280 N   0  0  0  0  0  2  0  0  0  0  0  0
    1.4664   -3.6929    1.5246 N   0  0  0  0  0  0  0  0  0  0  0  0
    2.3484   -1.8855    0.4698 C   0  0  1  0  0  3  0  0  0  0  0  0
    3.4590   -1.0460    0.0139 C   0  0  0  0  0  0  0  0  0  0  0  0
    4.6744   -1.6623   -0.3623 C   0  0  0  0  0  0  0  0  0  0  0  0
    5.7572   -0.8773   -0.7738 C   0  0  0  0  0  0  0  0  0  0  0  0
    5.6451    0.5230   -0.7932 C   0  0  0  0  0  0  0  0  0  0  0  0
    4.4447    1.1371   -0.4003 C   0  0  0  0  0  0  0  0  0  0  0  0
    3.3501    0.3620   -0.0028 C   0  0  0  0  0  0  0  0  0  0  0  0
    0.3695   -2.8021    1.0538 C   0  0  2  0  0  0  0  0  0  0  0  0
   -0.5329   -3.4530    0.0245 C   0  0  0  0  0  0  0  0  0  0  0  0
   -1.8184   -3.8693    0.4136 C   0  0  0  0  0  0  0  0  0  0  0  0
   -2.6704   -4.5001   -0.5063 C   0  0  0  0  0  0  0  0  0  0  0  0
   -2.2412   -4.7093   -1.8260 C   0  0  0  0  0  0  0  0  0  0  0  0
   -0.9600   -4.2889   -2.2197 C   0  0  0  0  0  0  0  0  0  0  0  0
   -0.1075   -3.6647   -1.2994 C   0  0  0  0  0  0  0  0  0  0  0  0
    1.6876   -3.5970    2.9652 C   0  0  0  0  0  0  0  0  0  0  0  0
    4.7557   -2.7580   -0.3383 H   0  0  0  0  0  0  0  0  0  0  0  0
    6.6967   -1.3614   -1.0796 H   0  0  0  0  0  0  0  0  0  0  0  0
    6.5004    1.1383   -1.1117 H   0  0  0  0  0  0  0  0  0  0  0  0
    4.3522    2.2328   -0.3968 H   0  0  0  0  0  0  0  0  0  0  0  0
    2.4038    0.8388    0.3014 H   0  0  0  0  0  0  0  0  0  0  0  0
   -0.2425   -2.4784    1.9242 H   0  0  0  0  0  0  0  0  0  0  0  0
   -2.1556   -3.6865    1.4465 H   0  0  0  0  0  0  0  0  0  0  0  0
   -3.6741   -4.8263   -0.1927 H   0  0  0  0  0  0  0  0  0  0  0  0
   -2.9097   -5.1956   -2.5528 H   0  0  0  0  0  0  0  0  0  0  0  0
   -0.6257   -4.4357   -3.2576 H   0  0  0  0  0  0  0  0  0  0  0  0
    0.8805   -3.3074   -1.6239 H   0  0  0  0  0  0  0  0  0  0  0  0
    2.5951   -4.1717    3.2285 H   0  0  0  0  0  0  0  0  0  0  0  0
    1.7788   -2.5481    3.3339 H   0  0  0  0  0  0  0  0  0  0  0  0
    0.8193   -4.0778    3.4570 H   0  0  0  0  0  0  0  0  0  0  0  0
  1  3  1  0  0  0  0
  2 11  1  0  0  0  0
  3 18  1  0  0  0  0
  4  5  1  1  0  0  0
  4  2  1  0  0  0  0
  4  1  1  0  0  0  0
  6 19  1  0  0  0  0
  6  5  2  0  0  0  0
  7  6  1  0  0  0  0
  8  7  2  0  0  0  0
  8  9  1  0  0  0  0
  9 22  1  0  0  0  0
  9 10  2  0  0  0  0
 10  5  1  0  0  0  0
 10 23  1  0  0  0  0
 11  3  1  0  0  0  0
 11 24  1  1  0  0  0
 12 13  1  0  0  0  0
 12 11  1  0  0  0  0
 13 25  1  0  0  0  0
 14 26  1  0  0  0  0
 14 13  2  0  0  0  0
 15 14  1  0  0  0  0
 16 15  2  0  0  0  0
 16 17  1  0  0  0  0
 17 12  2  0  0  0  0
 18 30  1  0  0  0  0
 18 31  1  0  0  0  0
 18 32  1  0  0  0  0
 20  7  1  0  0  0  0
 21  8  1  0  0  0  0
 27 15  1  0  0  0  0
 28 16  1  0  0  0  0
 29 17  1  0  0  0  0
M  END
