2
q = 0.0, confidence = 0.996

 32 34  0  0  1  0  0  0  0  0999 V2000
    3.3071    1.9718   -0.6014 O   0  0  0  0  0  0  0  0  0  0  0  0
    0.1559    0.8808   -0.4710 N   0  0  0  0  0  2  0  0  0  0  0  0
    0.1285    2.2213   -1.0741 C   0  0  0  0  0  0  0  0  0  0  0  0
    1.3025    0.3375   -0.2811 C   0  0  2  0  0  3  0  0  0  0  0  0
    1.7873   -0.9856    0.2602 C   0  0  1  0  0  0  0  0  0  0  0  0
    2.4274   -1.5726   -1.0474 C   0  0  2  0  0  0  0  0  0  0  0  0
    3.2250   -2.8260   -0.8280 C   0  0  0  0  0  0  0  0  0  0  0  0
    4.2697   -2.9549    0.0307 C   0  0  0  0  0  0  0  0  0  0  0  0
    4.8185   -1.9340    0.9160 C   0  0  0  0  0  0  0  0  0  0  0  0
    4.2694   -0.7444    1.2848 C   0  0  0  0  0  0  0  0  0  0  0  0
    2.9497   -0.1659    0.9068 C   0  0  1  0  0  0  0  0  0  0  0  0
    2.7997    0.7023   -0.4290 C   0  0  2  0  0  0  0  0  0  0  0  0
    3.2401   -0.3083   -1.5089 C   0  0  0  0  0  0  0  0  0  0  0  0
    3.1598    2.8561    0.5143 C   0  0  0  0  0  0  0  0  0  0  0  0
    3.5608    4.2504    0.0759 C   0  0  0  0  0  0  0  0  0  0  0  0
   -0.5525    2.2014   -1.9469 H   0  0  0  0  0  0  0  0  0  0  0  0
   -0.2972    2.9431   -0.3487 H   0  0  0  0  0  0  0  0  0  0  0  0
    1.1329    2.5567   -1.3979 H   0  0  0  0  0  0  0  0  0  0  0  0
    1.1545   -1.6603    0.8558 H   0  0  0  0  0  0  0  0  0  0  0  0
    1.6153   -1.7898   -1.7673 H   0  0  0  0  0  0  0  0  0  0  0  0
    2.9230   -3.7103   -1.4118 H   0  0  0  0  0  0  0  0  0  0  0  0
    4.7826   -3.9308    0.0585 H   0  0  0  0  0  0  0  0  0  0  0  0
    5.8007   -2.1751    1.3568 H   0  0  0  0  0  0  0  0  0  0  0  0
    4.8590   -0.1150    1.9730 H   0  0  0  0  0  0  0  0  0  0  0  0
    2.5417    0.4193    1.7565 H   0  0  0  0  0  0  0  0  0  0  0  0
    2.9758    0.0389   -2.5261 H   0  0  0  0  0  0  0  0  0  0  0  0
    4.3347   -0.4668   -1.4592 H   0  0  0  0  0  0  0  0  0  0  0  0
    3.8042    2.5032    1.3527 H   0  0  0  0  0  0  0  0  0  0  0  0
    2.1071    2.8424    0.8840 H   0  0  0  0  0  0  0  0  0  0  0  0
    4.5967    4.2504   -0.3169 H   0  0  0  0  0  0  0  0  0  0  0  0
    2.8899    4.6253   -0.7225 H   0  0  0  0  0  0  0  0  0  0  0  0
    3.5105    4.9525    0.9312 H   0  0  0  0  0  0  0  0  0  0  0  0
  1 14  1  0  0  0  0
  3  2  1  0  0  0  0
  3 17  1  0  0  0  0
  4  2  1  1  0  0  0
  4  5  1  0  0  0  0
  5 19  1  1  0  0  0
  5 11  1  0  0  0  0
  6 20  1  6  0  0  0
  6  7  1  0  0  0  0
  6  5  1  0  0  0  0
  7  8  2  0  0  0  0
  8 22  1  0  0  0  0
  8  9  1  0  0  0  0
  9 10  2  0  0  0  0
  9 23  1  0  0  0  0
 10 24  1  0  0  0  0
 11 10  1  0  0  0  0
 11 25  1  1  0  0  0
 12  1  1  6  0  0  0
 12  4  1  0  0  0  0
 12 11  1  0  0  0  0
 13 27  1  0  0  0  0
 13  6  1  0  0  0  0
 13 12  1  0  0  0  0
 14 29  1  0  0  0  0
 14 28  1  0  0  0  0
 15 14  1  0  0  0  0
 15 32  1  0  0  0  0
 16  3  1  0  0  0  0
 18  3  1  0  0  0  0
 21  7  1  0  0  0  0
 26 13  1  0  0  0  0
 30 15  1  0  0  0  0
 31 15  1  0  0  0  0
M  END
