5
q = -1.0, confidence = 0.002

 49 50  0  0  0  0  0  0  0  0999 V2000
    0.3581    1.3483   -0.6804 Si  0  0  0  0  0  0  0  0  0  0  0  0
   -1.4693   -0.1451    1.4100 Si  0  0  0  0  0  0  0  0  0  0  0  0
    2.3120    1.1949    1.5695 O   0  0  0  0  0  0  0  0  0  0  0  0
   -2.8831   -0.8233   -1.0998 O   0  0  0  0  0  0  0  0  0  0  0  0
   -0.1240   -0.1752    0.1927 N   0  0  0  0  0  2  0  0  0  0  0  0
    2.2392    1.4972   -0.7633 C   0  0  0  0  0  0  0  0  0  0  0  0
    3.0200    1.3837    0.4157 C   0  0  0  0  0  0  0  0  0  0  0  0
    4.4253    1.4557    0.3652 C   0  0  0  0  0  0  0  0  0  0  0  0
    5.0305    1.3440    1.2746 H   0  0  0  0  0  0  0  0  0  0  0  0
    5.0599    1.6745   -0.8684 C   0  0  0  0  0  0  0  0  0  0  0  0
    6.1589    1.7301   -0.9033 H   0  0  0  0  0  0  0  0  0  0  0  0
    4.3102    1.8180   -2.0432 C   0  0  0  0  0  0  0  0  0  0  0  0
    4.8118    1.9883   -3.0071 H   0  0  0  0  0  0  0  0  0  0  0  0
    2.9103    1.7226   -1.9794 C   0  0  0  0  0  0  0  0  0  0  0  0
    2.3265    1.8028   -2.9097 H   0  0  0  0  0  0  0  0  0  0  0  0
    3.0165    0.9419    2.7713 C   0  0  0  0  0  0  0  0  0  0  0  0
    3.6257    0.0152    2.6965 H   0  0  0  0  0  0  0  0  0  0  0  0
    2.2507    0.8032    3.5561 H   0  0  0  0  0  0  0  0  0  0  0  0
    3.6734    1.7948    3.0529 H   0  0  0  0  0  0  0  0  0  0  0  0
   -0.2750    2.9073    0.1717 C   0  0  0  0  0  0  0  0  0  0  0  0
    0.2242    3.0482    1.1492 H   0  0  0  0  0  0  0  0  0  0  0  0
   -1.3724    2.9325    0.3040 H   0  0  0  0  0  0  0  0  0  0  0  0
    0.0179    3.7570   -0.4799 H   0  0  0  0  0  0  0  0  0  0  0  0
   -0.3629    1.2204   -2.4168 C   0  0  0  0  0  0  0  0  0  0  0  0
    0.0064    0.3101   -2.9299 H   0  0  0  0  0  0  0  0  0  0  0  0
   -0.0982    2.1056   -3.0302 H   0  0  0  0  0  0  0  0  0  0  0  0
   -1.4673    1.1655   -2.3527 H   0  0  0  0  0  0  0  0  0  0  0  0
   -0.8547    0.7488    2.9513 C   0  0  0  0  0  0  0  0  0  0  0  0
   -0.5247    1.7860    2.7592 H   0  0  0  0  0  0  0  0  0  0  0  0
    0.0072    0.1760    3.3484 H   0  0  0  0  0  0  0  0  0  0  0  0
   -1.6444    0.7621    3.7303 H   0  0  0  0  0  0  0  0  0  0  0  0
   -1.9966   -1.8755    1.9394 C   0  0  0  0  0  0  0  0  0  0  0  0
   -2.4541   -2.4396    1.1070 H   0  0  0  0  0  0  0  0  0  0  0  0
   -2.7572   -1.7349    2.7363 H   0  0  0  0  0  0  0  0  0  0  0  0
   -1.1636   -2.4700    2.3642 H   0  0  0  0  0  0  0  0  0  0  0  0
   -2.9597    0.7380    0.6507 C   0  0  0  0  0  0  0  0  0  0  0  0
   -3.5105    0.2627   -0.5693 C   0  0  0  0  0  0  0  0  0  0  0  0
   -4.6208    0.8971   -1.1611 C   0  0  0  0  0  0  0  0  0  0  0  0
   -5.0393    0.5337   -2.1093 H   0  0  0  0  0  0  0  0  0  0  0  0
   -5.2002    2.0063   -0.5231 C   0  0  0  0  0  0  0  0  0  0  0  0
   -6.0685    2.4986   -0.9878 H   0  0  0  0  0  0  0  0  0  0  0  0
   -4.6874    2.4846    0.6904 C   0  0  0  0  0  0  0  0  0  0  0  0
   -5.1486    3.3505    1.1876 H   0  0  0  0  0  0  0  0  0  0  0  0
   -3.5726    1.8476    1.2629 C   0  0  0  0  0  0  0  0  0  0  0  0
   -3.1638    2.2326    2.2109 H   0  0  0  0  0  0  0  0  0  0  0  0
   -3.3252   -1.3586   -2.3337 C   0  0  0  0  0  0  0  0  0  0  0  0
   -4.3759   -1.7196   -2.2730 H   0  0  0  0  0  0  0  0  0  0  0  0
   -2.6557   -2.2114   -2.5476 H   0  0  0  0  0  0  0  0  0  0  0  0
   -3.2464   -0.6126   -3.1557 H   0  0  0  0  0  0  0  0  0  0  0  0
  1 20  1  0  0  0  0
  1  5  1  0  0  0  0
  2 32  1  0  0  0  0
  2 28  1  0  0  0  0
  3 16  1  0  0  0  0
  4 37  1  0  0  0  0
  5  2  1  0  0  0  0
  6  1  1  0  0  0  0
  6  7  1  0  0  0  0
  7  3  1  0  0  0  0
  8  7  2  0  0  0  0
  8  9  1  0  0  0  0
 10  8  1  0  0  0  0
 11 10  1  0  0  0  0
 12 14  1  0  0  0  0
 12 10  2  0  0  0  0
 13 12  1  0  0  0  0
 14  6  2  0  0  0  0
 15 14  1  0  0  0  0
 16 19  1  0  0  0  0
 16 18  1  0  0  0  0
 17 16  1  0  0  0  0
 20 22  1  0  0  0  0
 20 21  1  0  0  0  0
 23 20  1  0  0  0  0
 24 27  1  0  0  0  0
 24  1  1  0  0  0  0
 25 24  1  0  0  0  0
 26 24  1  0  0  0  0
 28 30  1  0  0  0  0
 28 31  1  0  0  0  0
 29 28  1  0  0  0  0
 32 35  1  0  0  0  0
 32 34  1  0  0  0  0
 33 32  1  0  0  0  0
 36 44  1  0  0  0  0
 36  2  1  0  0  0  0
 37 36  2  0  0  0  0
 38 37  1  0  0  0  0
 38 40  2  0  0  0  0
 39 38  1  0  0  0  0
 40 42  1  0  0  0  0
 41 40  1  0  0  0  0
 42 43  1  0  0  0  0
 42 44  2  0  0  0  0
 44 45  1  0  0  0  0
 46 47  1  0  0  0  0
 46  4  1  0  0  0  0
 48 46  1  0  0  0  0
 49 46  1  0  0  0  0
M  END
