1
q = 0.0, confidence = 0.998

 16 16  0  0  0  0  0  0  0  0999 V2000
    2.0051   -0.2174   -0.0676 N   0  0  0  0  0  2  0  0  0  0  0  0
    2.5867   -1.3493   -0.7821 C   0  0  0  0  0  0  0  0  0  0  0  0
    2.8476    0.6219    0.4262 C   0  0  0  0  0  3  0  0  0  0  0  0
    4.3965   -1.3299   -0.4606 S   0  0  0  0  0  0  0  0  0  0  0  0
    2.1159   -2.2838   -0.4157 H   0  0  0  0  0  0  0  0  0  0  0  0
    2.3473   -1.2361   -1.8614 H   0  0  0  0  0  0  0  0  0  0  0  0
    4.3251    0.4075    0.2196 C   0  0  0  0  0  0  0  0  0  0  0  0
    2.4612    1.5294    0.9219 H   0  0  0  0  0  0  0  0  0  0  0  0
    4.8470    1.4396   -0.7987 C   0  0  0  0  0  0  0  0  0  0  0  0
    5.0978    0.4833    1.5444 C   0  0  0  0  0  0  0  0  0  0  0  0
    5.9212    1.2570   -0.9997 H   0  0  0  0  0  0  0  0  0  0  0  0
    4.7364    2.4714   -0.4035 H   0  0  0  0  0  0  0  0  0  0  0  0
    4.2948    1.3707   -1.7553 H   0  0  0  0  0  0  0  0  0  0  0  0
    5.0287    1.5044    1.9740 H   0  0  0  0  0  0  0  0  0  0  0  0
    6.1701    0.2607    1.3742 H   0  0  0  0  0  0  0  0  0  0  0  0
    4.7039   -0.2449    2.2784 H   0  0  0  0  0  0  0  0  0  0  0  0
  1  3  1  0  0  0  0
  2  4  1  0  0  0  0
  2  5  1  0  0  0  0
  2  1  1  0  0  0  0
  3  8  1  0  0  0  0
  4  7  1  0  0  0  0
  6  2  1  0  0  0  0
  7  3  1  0  0  0  0
  7 10  1  0  0  0  0
  9 12  1  0  0  0  0
  9  7  1  0  0  0  0
 10 14  1  0  0  0  0
 10 16  1  0  0  0  0
 11  9  1  0  0  0  0
 13  9  1  0  0  0  0
 15 10  1  0  0  0  0
M  END
