2
q = 0.0, confidence = 0.992

 16 17  0  0  1  0  0  0  0  0999 V2000
   -2.7685    1.3684   -0.6059 S   0  0  0  0  0  0  0  0  0  0  0  0
   -1.3475   -1.4885   -0.0319 N   0  0  0  0  0  2  0  0  0  0  0  0
   -3.2373   -2.6081    0.0177 N   0  0  0  0  0  0  0  0  0  0  0  0
   -2.6841   -1.3539   -0.0085 C   0  0  2  0  0  3  0  0  0  0  0  0
   -2.2261   -3.5488    0.0037 C   0  0  0  0  0  0  0  0  0  0  0  0
   -2.4246   -4.6239    0.0168 H   0  0  0  0  0  0  0  0  0  0  0  0
   -1.0470   -2.8311   -0.0336 C   0  0  0  0  0  0  0  0  0  0  0  0
   -0.0111   -3.1797   -0.0646 H   0  0  0  0  0  0  0  0  0  0  0  0
   -3.4557   -0.1325   -0.0354 C   0  0  0  0  0  0  0  0  0  0  0  0
   -4.2744    2.1900   -0.3830 C   0  0  0  0  0  0  0  0  0  0  0  0
   -4.3427    3.2600   -0.6147 H   0  0  0  0  0  0  0  0  0  0  0  0
   -5.2636    1.3579    0.1120 C   0  0  0  0  0  0  0  0  0  0  0  0
   -6.2843    1.6932    0.3402 H   0  0  0  0  0  0  0  0  0  0  0  0
   -4.7977    0.0287    0.3071 C   0  0  0  0  0  0  0  0  0  0  0  0
   -5.4179   -0.7798    0.7199 H   0  0  0  0  0  0  0  0  0  0  0  0
   -4.2375   -2.7990   -0.0203 H   0  0  0  0  0  0  0  0  0  0  0  0
  1 10  1  0  0  0  0
  1  9  1  0  0  0  0
  2  4  1  0  0  0  0
  4  9  1  6  0  0  0
  4  3  1  0  0  0  0
  5  6  1  0  0  0  0
  5  3  1  0  0  0  0
  7  2  1  0  0  0  0
  7  5  2  0  0  0  0
  8  7  1  0  0  0  0
  9 14  2  0  0  0  0
 10 12  2  0  0  0  0
 11 10  1  0  0  0  0
 12 14  1  0  0  0  0
 12 13  1  0  0  0  0
 14 15  1  0  0  0  0
 16  3  1  0  0  0  0
M  END
