4
q = 0.0, confidence = 0.966

 35 36  0  0  1  0  0  0  0  0999 V2000
   -4.4795   -3.2169   -0.1035 S   0  0  0  0  0  0  0  0  0  0  0  0
    0.0845   -0.6590   -1.0391 O   0  0  0  0  0  0  0  0  0  0  0  0
   -0.9307   -0.6826   -0.9690 H   0  0  0  0  0  0  0  0  0  0  0  0
   -4.3485   -0.6755   -0.6486 N   0  0  0  0  0  2  0  0  0  0  0  0
   -2.2055   -1.6937   -0.4497 N   0  0  0  0  0  2  0  0  0  0  0  0
   -1.6538   -2.8220   -0.1171 N   0  0  0  0  0  2  0  0  0  0  0  0
    3.8824   -3.5240   -0.5208 N   0  0  0  0  0  0  0  0  0  0  0  0
   -5.6835   -0.9872   -0.5750 C   0  0  0  0  0  0  0  0  0  0  0  0
   -6.4041   -0.1697   -0.7338 H   0  0  0  0  0  0  0  0  0  0  0  0
   -5.9493   -2.3088   -0.2923 C   0  0  0  0  0  0  0  0  0  0  0  0
   -6.9286   -2.7907   -0.1891 H   0  0  0  0  0  0  0  0  0  0  0  0
   -3.5717   -1.7299   -0.4268 C   0  0  2  0  0  3  0  0  0  0  0  0
   -0.2989   -2.8962   -0.1918 C   0  0  0  0  0  0  0  0  0  0  0  0
    0.3054   -4.1257    0.2008 C   0  0  0  0  0  0  0  0  0  0  0  0
   -0.3712   -4.9158    0.5579 H   0  0  0  0  0  0  0  0  0  0  0  0
    1.6671   -4.3293    0.1322 C   0  0  0  0  0  0  0  0  0  0  0  0
    2.0758   -5.2984    0.4399 H   0  0  0  0  0  0  0  0  0  0  0  0
    2.5343   -3.2920   -0.3695 C   0  0  0  0  0  0  0  0  0  0  0  0
    1.9530   -2.0486   -0.7281 C   0  0  0  0  0  0  0  0  0  0  0  0
    2.5543   -1.1995   -1.0749 H   0  0  0  0  0  0  0  0  0  0  0  0
    0.5684   -1.8336   -0.6620 C   0  0  0  0  0  0  0  0  0  0  0  0
    4.5106   -4.7352    0.0065 C   0  0  0  0  0  0  0  0  0  0  0  0
    3.9190   -5.6218   -0.3056 H   0  0  0  0  0  0  0  0  0  0  0  0
    5.4903   -4.8363   -0.5018 H   0  0  0  0  0  0  0  0  0  0  0  0
    4.7085   -4.7391    1.5256 C   0  0  0  0  0  0  0  0  0  0  0  0
    5.1748   -5.6910    1.8510 H   0  0  0  0  0  0  0  0  0  0  0  0
    3.7419   -4.6323    2.0566 H   0  0  0  0  0  0  0  0  0  0  0  0
    5.3642   -3.9070    1.8489 H   0  0  0  0  0  0  0  0  0  0  0  0
    4.7571   -2.5226   -1.1257 C   0  0  0  0  0  0  0  0  0  0  0  0
    5.5766   -3.0691   -1.6376 H   0  0  0  0  0  0  0  0  0  0  0  0
    4.1919   -2.0027   -1.9250 H   0  0  0  0  0  0  0  0  0  0  0  0
    5.3395   -1.5031   -0.1440 C   0  0  0  0  0  0  0  0  0  0  0  0
    5.9316   -0.7423   -0.6910 H   0  0  0  0  0  0  0  0  0  0  0  0
    6.0046   -1.9873    0.5987 H   0  0  0  0  0  0  0  0  0  0  0  0
    4.5374   -0.9717    0.4048 H   0  0  0  0  0  0  0  0  0  0  0  0
  2  3  1  0  0  0  0
  2 21  1  0  0  0  0
  4  8  1  0  0  0  0
  4 12  1  0  0  0  0
  5  6  1  0  0  0  0
  7 18  1  0  0  0  0
  7 22  1  0  0  0  0
  8 10  2  0  0  0  0
  9  8  1  0  0  0  0
 10 11  1  0  0  0  0
 10  1  1  0  0  0  0
 12  5  1  6  0  0  0
 12  1  1  0  0  0  0
 13  6  1  0  0  0  0
 13 14  1  0  0  0  0
 14 15  1  0  0  0  0
 16 14  2  0  0  0  0
 16 17  1  0  0  0  0
 18 16  1  0  0  0  0
 19 21  1  0  0  0  0
 19 18  2  0  0  0  0
 20 19  1  0  0  0  0
 21 13  2  0  0  0  0
 22 25  1  0  0  0  0
 23 22  1  0  0  0  0
 24 22  1  0  0  0  0
 25 28  1  0  0  0  0
 25 26  1  0  0  0  0
 25 27  1  0  0  0  0
 29  7  1  0  0  0  0
 29 32  1  0  0  0  0
 30 29  1  0  0  0  0
 31 29  1  0  0  0  0
 32 35  1  0  0  0  0
 32 34  1  0  0  0  0
 33 32  1  0  0  0  0
M  END
