19
q = 0.0, confidence = 1.0

 26 27  0  0  1  0  0  0  0  0999 V2000
    4.0630    0.4764   -0.1933 C   0  0  0  0  0  0  0  0  0  0  0  0
    4.9117    1.1759   -0.2009 H   0  0  0  0  0  0  0  0  0  0  0  0
    1.7596    0.0428   -0.6760 N   0  0  0  0  0  0  0  0  0  0  0  0
   -3.0172   -1.4380    0.1465 C   0  0  0  0  0  0  0  0  0  0  0  0
   -3.1784   -0.7470   -0.7084 H   0  0  0  0  0  0  0  0  0  0  0  0
   -2.9918   -0.8158    1.0653 H   0  0  0  0  0  0  0  0  0  0  0  0
   -3.8591   -2.1504    0.2142 H   0  0  0  0  0  0  0  0  0  0  0  0
   -1.6649   -3.5611   -0.1488 C   0  0  0  0  0  0  0  0  0  0  0  0
   -2.6039   -4.1306   -0.1215 H   0  0  0  0  0  0  0  0  0  0  0  0
    2.8040    0.8889   -0.6840 C   0  0  0  0  0  0  0  0  0  0  0  0
    1.8850   -1.1977   -0.1844 C   0  0  0  0  0  0  0  0  0  0  0  0
    0.7345   -3.4346   -0.3121 C   0  0  0  0  0  0  0  0  0  0  0  0
    1.7182   -3.9026   -0.4467 H   0  0  0  0  0  0  0  0  0  0  0  0
    3.1059   -1.6862    0.3220 C   0  0  0  0  0  0  0  0  0  0  0  0
    3.1867   -2.6944    0.7513 H   0  0  0  0  0  0  0  0  0  0  0  0
   -0.4327   -4.2024   -0.2977 C   0  0  0  0  0  0  0  0  0  0  0  0
   -0.3812   -5.2961   -0.4049 H   0  0  0  0  0  0  0  0  0  0  0  0
   -1.7182   -2.1604   -0.0283 C   0  0  2  0  0  3  0  0  0  0  0  0
   -0.5657   -1.4401   -0.0635 N   0  0  0  0  0  2  0  0  0  0  0  0
    4.2086   -0.8216    0.3113 C   0  0  0  0  0  0  0  0  0  0  0  0
    5.1769   -1.1568    0.7124 H   0  0  0  0  0  0  0  0  0  0  0  0
    2.5412    2.2667   -1.2176 C   0  0  0  0  0  0  0  0  0  0  0  0
    1.7552    2.7599   -0.6057 H   0  0  0  0  0  0  0  0  0  0  0  0
    2.1292    2.2033   -2.2447 H   0  0  0  0  0  0  0  0  0  0  0  0
    3.4514    2.8940   -1.2231 H   0  0  0  0  0  0  0  0  0  0  0  0
    0.6520   -2.0368   -0.1858 C   0  0  0  0  0  0  0  0  0  0  0  0
  1 20  1  0  0  0  0
  2  1  1  0  0  0  0
  3 11  2  0  0  0  0
  4  7  1  0  0  0  0
  4  6  1  0  0  0  0
  5  4  1  0  0  0  0
  8  9  1  0  0  0  0
  8 18  1  0  0  0  0
 10  3  1  0  0  0  0
 10  1  2  0  0  0  0
 11 14  1  0  0  0  0
 12 16  1  0  0  0  0
 12 26  2  0  0  0  0
 13 12  1  0  0  0  0
 14 15  1  0  0  0  0
 16  8  2  0  0  0  0
 17 16  1  0  0  0  0
 18  4  1  1  0  0  0
 19 18  1  0  0  0  0
 20 14  2  0  0  0  0
 20 21  1  0  0  0  0
 22 10  1  0  0  0  0
 22 23  1  0  0  0  0
 24 22  1  0  0  0  0
 25 22  1  0  0  0  0
 26 11  1  0  0  0  0
 26 19  1  0  0  0  0
M  END
