2
q = 0.0, confidence = 0.998

 24 24  0  0  0  0  0  0  0  0999 V2000
    0.2106    1.6319   -0.8427 O   0  0  0  0  0  0  0  0  0  0  0  0
    0.9054   -1.0457    0.0482 N   0  0  0  0  0  2  0  0  0  0  0  0
    1.1554   -2.2690   -0.4650 C   0  0  0  0  0  3  0  0  0  0  0  0
    2.4538   -2.7810   -0.5514 C   0  0  0  0  0  0  0  0  0  0  0  0
    3.5204   -1.9944   -0.0952 C   0  0  0  0  0  0  0  0  0  0  0  0
    3.2477   -0.7303    0.4451 C   0  0  0  0  0  0  0  0  0  0  0  0
    1.9231   -0.2681    0.5164 C   0  0  0  0  0  0  0  0  0  0  0  0
    1.5569    1.0659    1.1136 C   0  0  0  0  0  0  0  0  0  0  0  0
    1.1773    2.1877    0.1005 C   0  0  0  0  0  0  0  0  0  0  0  0
    2.3893    2.6259   -0.7229 C   0  0  0  0  0  0  0  0  0  0  0  0
    0.5314    3.3523    0.8516 C   0  0  0  0  0  0  0  0  0  0  0  0
    0.2645   -2.8268   -0.7972 H   0  0  0  0  0  0  0  0  0  0  0  0
    2.6157   -3.7822   -0.9747 H   0  0  0  0  0  0  0  0  0  0  0  0
    4.5555   -2.3629   -0.1526 H   0  0  0  0  0  0  0  0  0  0  0  0
    4.0579   -0.0930    0.8277 H   0  0  0  0  0  0  0  0  0  0  0  0
    2.3993    1.4365    1.7305 H   0  0  0  0  0  0  0  0  0  0  0  0
    0.6858    0.9077    1.7858 H   0  0  0  0  0  0  0  0  0  0  0  0
    2.8280    1.7640   -1.2633 H   0  0  0  0  0  0  0  0  0  0  0  0
    3.1692    3.0721   -0.0738 H   0  0  0  0  0  0  0  0  0  0  0  0
    2.0851    3.3810   -1.4734 H   0  0  0  0  0  0  0  0  0  0  0  0
    0.2892    4.1784    0.1527 H   0  0  0  0  0  0  0  0  0  0  0  0
    1.2167    3.7515    1.6250 H   0  0  0  0  0  0  0  0  0  0  0  0
   -0.4055    3.0218    1.3437 H   0  0  0  0  0  0  0  0  0  0  0  0
   -0.6296    2.1705   -0.8672 H   0  0  0  0  0  0  0  0  0  0  0  0
  1  9  1  0  0  0  0
  2  7  1  0  0  0  0
  3  2  1  0  0  0  0
  4  3  1  0  0  0  0
  4  5  2  0  0  0  0
  5  6  1  0  0  0  0
  6  7  2  0  0  0  0
  6 15  1  0  0  0  0
  7  8  1  0  0  0  0
  8 16  1  0  0  0  0
  8 17  1  0  0  0  0
  9 11  1  0  0  0  0
  9  8  1  0  0  0  0
 10 19  1  0  0  0  0
 10  9  1  0  0  0  0
 11 23  1  0  0  0  0
 11 22  1  0  0  0  0
 12  3  1  0  0  0  0
 13  4  1  0  0  0  0
 14  5  1  0  0  0  0
 18 10  1  0  0  0  0
 20 10  1  0  0  0  0
 21 11  1  0  0  0  0
 24  1  1  0  0  0  0
M  END
