1
q = -1.0, confidence = 0.034

 35 36  0  0  0  0  0  0  0  0999 V2000
   -1.1789   -1.6871   -0.4073 N   0  0  0  0  0  2  0  0  0  0  0  0
   -2.8207   -0.2721   -0.3856 N   0  0  0  0  0  2  0  0  0  0  0  0
   -2.4674   -1.4915   -0.4947 N   0  0  0  0  0  2  0  0  0  0  0  0
   -0.7064   -2.9995   -0.3006 C   0  0  0  0  0  0  0  0  0  0  0  0
    1.2001   -4.5288   -0.1260 C   0  0  0  0  0  0  0  0  0  0  0  0
    0.6827   -3.2311   -0.3040 C   0  0  0  0  0  0  0  0  0  0  0  0
    1.3880   -2.3972   -0.4334 H   0  0  0  0  0  0  0  0  0  0  0  0
   -1.5852   -4.1046   -0.1460 C   0  0  0  0  0  0  0  0  0  0  0  0
   -2.6677   -3.9220   -0.1444 H   0  0  0  0  0  0  0  0  0  0  0  0
    0.3158   -5.6195    0.0252 C   0  0  0  0  0  0  0  0  0  0  0  0
    0.6996   -6.6396    0.1629 H   0  0  0  0  0  0  0  0  0  0  0  0
   -1.0690   -5.3947    0.0047 C   0  0  0  0  0  0  0  0  0  0  0  0
   -1.7637   -6.2407    0.1198 H   0  0  0  0  0  0  0  0  0  0  0  0
   -4.1911    0.0009   -0.5471 C   0  0  0  0  0  0  0  0  0  0  0  0
   -5.1236   -0.9210   -1.0668 C   0  0  0  0  0  0  0  0  0  0  0  0
   -4.8101   -1.9243   -1.3866 H   0  0  0  0  0  0  0  0  0  0  0  0
   -6.4793   -0.5701   -1.1943 C   0  0  0  0  0  0  0  0  0  0  0  0
   -6.9084    0.7197   -0.8035 C   0  0  0  0  0  0  0  0  0  0  0  0
   -7.9644    1.0096   -0.9000 H   0  0  0  0  0  0  0  0  0  0  0  0
   -4.6304    1.2887   -0.1656 C   0  0  0  0  0  0  0  0  0  0  0  0
   -3.9161    2.0149    0.2467 H   0  0  0  0  0  0  0  0  0  0  0  0
   -5.9802    1.6381   -0.2920 C   0  0  0  0  0  0  0  0  0  0  0  0
   -6.2981    2.6440    0.0205 H   0  0  0  0  0  0  0  0  0  0  0  0
    2.6892   -4.6980   -0.0823 C   0  0  0  0  0  0  0  0  0  0  0  0
    3.4428   -3.7283   -0.1452 O   0  0  0  0  0  0  0  0  0  0  0  0
    3.2579   -6.0982    0.0602 C   0  0  0  0  0  0  0  0  0  0  0  0
    4.3605   -6.0376    0.0526 H   0  0  0  0  0  0  0  0  0  0  0  0
    2.9149   -6.7562   -0.7638 H   0  0  0  0  0  0  0  0  0  0  0  0
    2.9215   -6.5658    1.0084 H   0  0  0  0  0  0  0  0  0  0  0  0
   -7.4137   -1.6091   -1.7537 C   0  0  0  0  0  0  0  0  0  0  0  0
   -7.0023   -2.7205   -2.0705 O   0  0  0  0  0  0  0  0  0  0  0  0
   -8.8810   -1.2467   -1.9148 C   0  0  0  0  0  0  0  0  0  0  0  0
   -9.4186   -2.1154   -2.3345 H   0  0  0  0  0  0  0  0  0  0  0  0
   -9.0037   -0.3740   -2.5886 H   0  0  0  0  0  0  0  0  0  0  0  0
   -9.3317   -0.9679   -0.9401 H   0  0  0  0  0  0  0  0  0  0  0  0
  1  4  1  0  0  0  0
  3  1  1  0  0  0  0
  3  2  1  0  0  0  0
  4  8  1  0  0  0  0
  5 24  1  0  0  0  0
  5 10  2  0  0  0  0
  6  4  2  0  0  0  0
  6  5  1  0  0  0  0
  7  6  1  0  0  0  0
  8  9  1  0  0  0  0
  8 12  2  0  0  0  0
 10 11  1  0  0  0  0
 12 10  1  0  0  0  0
 12 13  1  0  0  0  0
 14  2  1  0  0  0  0
 14 20  1  0  0  0  0
 15 14  2  0  0  0  0
 16 15  1  0  0  0  0
 17 15  1  0  0  0  0
 17 18  2  0  0  0  0
 18 22  1  0  0  0  0
 19 18  1  0  0  0  0
 20 21  1  0  0  0  0
 22 20  2  0  0  0  0
 22 23  1  0  0  0  0
 24 26  1  0  0  0  0
 25 24  2  0  0  0  0
 26 29  1  0  0  0  0
 27 26  1  0  0  0  0
 28 26  1  0  0  0  0
 30 17  1  0  0  0  0
 31 30  2  0  0  0  0
 32 30  1  0  0  0  0
 32 35  1  0  0  0  0
 33 32  1  0  0  0  0
 34 32  1  0  0  0  0
M  END
