3
q = 0.0, confidence = 0.998

 39 41  0  0  1  0  0  0  0  0999 V2000
    0.1890   -0.4403   -0.1988 P   0  0  0  0  0  0  0  0  0  0  0  0
   -0.2905    1.3216    0.1417 C   0  0  2  0  0  3  0  0  0  0  0  0
    0.9070    1.9660   -0.0263 N   0  0  0  0  0  2  0  0  0  0  0  0
    0.9940    3.3007    0.1561 C   0  0  0  0  0  0  0  0  0  0  0  0
   -0.1288    4.0534    0.5224 C   0  0  0  0  0  0  0  0  0  0  0  0
   -1.3608    3.4099    0.6976 C   0  0  0  0  0  0  0  0  0  0  0  0
   -1.4570    2.0147    0.5044 C   0  0  0  0  0  0  0  0  0  0  0  0
   -2.7445    1.2637    0.6623 C   0  0  0  0  0  0  0  0  0  0  0  0
   -2.8507    0.0639    0.4721 O   0  0  0  0  0  0  0  0  0  0  0  0
   -3.7502    2.0723    1.0263 O   0  0  0  0  0  0  0  0  0  0  0  0
   -5.0340    1.4407    1.2006 C   0  0  0  0  0  0  0  0  0  0  0  0
    0.0016   -1.4659    1.2905 C   0  0  0  0  0  0  0  0  0  0  0  0
   -1.1789   -2.1733    1.6042 C   0  0  0  0  0  0  0  0  0  0  0  0
   -1.2240   -2.9446    2.7737 C   0  0  0  0  0  0  0  0  0  0  0  0
   -0.1116   -3.0070    3.6303 C   0  0  0  0  0  0  0  0  0  0  0  0
    1.0620   -2.3021    3.3178 C   0  0  0  0  0  0  0  0  0  0  0  0
    1.1231   -1.5378    2.1451 C   0  0  0  0  0  0  0  0  0  0  0  0
   -0.8139   -1.1027   -1.5552 C   0  0  0  0  0  0  0  0  0  0  0  0
   -1.4374   -0.2389   -2.4788 C   0  0  0  0  0  0  0  0  0  0  0  0
   -2.1276   -0.7724   -3.5749 C   0  0  0  0  0  0  0  0  0  0  0  0
   -2.1929   -2.1634   -3.7597 C   0  0  0  0  0  0  0  0  0  0  0  0
   -1.5623   -3.0232   -2.8471 C   0  0  0  0  0  0  0  0  0  0  0  0
   -0.8680   -2.4989   -1.7470 C   0  0  0  0  0  0  0  0  0  0  0  0
    1.9836    3.7555    0.0029 H   0  0  0  0  0  0  0  0  0  0  0  0
   -0.0327    5.1386    0.6685 H   0  0  0  0  0  0  0  0  0  0  0  0
   -2.2607    3.9724    0.9837 H   0  0  0  0  0  0  0  0  0  0  0  0
   -5.7321    2.2476    1.4803 H   0  0  0  0  0  0  0  0  0  0  0  0
   -4.9793    0.6752    1.9992 H   0  0  0  0  0  0  0  0  0  0  0  0
   -5.3529    0.9525    0.2591 H   0  0  0  0  0  0  0  0  0  0  0  0
   -2.0529   -2.1065    0.9434 H   0  0  0  0  0  0  0  0  0  0  0  0
   -2.1403   -3.5014    3.0207 H   0  0  0  0  0  0  0  0  0  0  0  0
   -0.1583   -3.6152    4.5461 H   0  0  0  0  0  0  0  0  0  0  0  0
    1.9357   -2.3567    3.9840 H   0  0  0  0  0  0  0  0  0  0  0  0
    2.0440   -0.9968    1.8746 H   0  0  0  0  0  0  0  0  0  0  0  0
   -1.3919    0.8523   -2.3410 H   0  0  0  0  0  0  0  0  0  0  0  0
   -2.6208   -0.0968   -4.2895 H   0  0  0  0  0  0  0  0  0  0  0  0
   -2.7376   -2.5786   -4.6206 H   0  0  0  0  0  0  0  0  0  0  0  0
   -1.6101   -4.1129   -2.9901 H   0  0  0  0  0  0  0  0  0  0  0  0
   -0.3760   -3.1794   -1.0354 H   0  0  0  0  0  0  0  0  0  0  0  0
  1 12  1  0  0  0  0
  2  1  1  1  0  0  0
  2  7  1  0  0  0  0
  3  2  1  0  0  0  0
  3  4  1  0  0  0  0
  4  5  2  0  0  0  0
  5 25  1  0  0  0  0
  5  6  1  0  0  0  0
  6 26  1  0  0  0  0
  7  8  1  0  0  0  0
  7  6  2  0  0  0  0
  8 10  1  0  0  0  0
  9  8  2  0  0  0  0
 10 11  1  0  0  0  0
 11 27  1  0  0  0  0
 11 28  1  0  0  0  0
 12 13  2  0  0  0  0
 12 17  1  0  0  0  0
 13 14  1  0  0  0  0
 14 31  1  0  0  0  0
 14 15  2  0  0  0  0
 15 32  1  0  0  0  0
 16 15  1  0  0  0  0
 16 33  1  0  0  0  0
 17 16  2  0  0  0  0
 18  1  1  0  0  0  0
 19 35  1  0  0  0  0
 19 18  2  0  0  0  0
 20 19  1  0  0  0  0
 21 20  2  0  0  0  0
 21 22  1  0  0  0  0
 22 23  2  0  0  0  0
 23 18  1  0  0  0  0
 23 39  1  0  0  0  0
 24  4  1  0  0  0  0
 29 11  1  0  0  0  0
 30 13  1  0  0  0  0
 34 17  1  0  0  0  0
 36 20  1  0  0  0  0
 37 21  1  0  0  0  0
 38 22  1  0  0  0  0
M  END
