3
q = 0.0, confidence = 0.992

 64 70  0  0  1  0  0  0  0  0999 V2000
    1.1392    0.1737    0.6215 P   0  0  0  0  0  0  0  0  0  0  0  0
   -1.4341   -2.3928   -2.4066 O   0  0  0  0  0  0  0  0  0  0  0  0
    0.6552   -1.6628   -2.0359 N   0  0  0  0  0  2  0  0  0  0  0  0
   -1.5156   -0.8422    0.5309 C   0  0  0  0  0  0  0  0  0  0  0  0
   -0.2661   -0.9000    1.1781 C   0  0  0  0  0  0  0  0  0  0  0  0
   -0.0548   -1.8427    2.2282 C   0  0  0  0  0  0  0  0  0  0  0  0
    0.9113   -1.8674    2.7506 H   0  0  0  0  0  0  0  0  0  0  0  0
   -1.0601   -2.7142    2.6111 C   0  0  0  0  0  0  0  0  0  0  0  0
   -0.8863   -3.4259    3.4328 H   0  0  0  0  0  0  0  0  0  0  0  0
   -3.3642   -3.6160    2.3226 C   0  0  0  0  0  0  0  0  0  0  0  0
   -3.1790   -4.3340    3.1362 H   0  0  0  0  0  0  0  0  0  0  0  0
   -4.5833   -3.5956    1.6634 C   0  0  0  0  0  0  0  0  0  0  0  0
   -5.3785   -4.2991    1.9515 H   0  0  0  0  0  0  0  0  0  0  0  0
   -4.8103   -2.6684    0.6103 C   0  0  0  0  0  0  0  0  0  0  0  0
   -5.7784   -2.6652    0.0878 H   0  0  0  0  0  0  0  0  0  0  0  0
   -3.8231   -1.7698    0.2364 C   0  0  0  0  0  0  0  0  0  0  0  0
   -4.0038   -1.0600   -0.5831 H   0  0  0  0  0  0  0  0  0  0  0  0
   -2.5587   -1.7587    0.8998 C   0  0  0  0  0  0  0  0  0  0  0  0
   -2.3252   -2.7098    1.9597 C   0  0  0  0  0  0  0  0  0  0  0  0
   -1.7658    0.1608   -0.5495 C   0  0  0  0  0  0  0  0  0  0  0  0
   -1.2294   -0.0642   -1.8214 C   0  0  0  0  0  0  0  0  0  0  0  0
   -1.3269    0.9125   -2.8516 C   0  0  0  0  0  0  0  0  0  0  0  0
   -0.8785    0.7105   -3.8352 H   0  0  0  0  0  0  0  0  0  0  0  0
   -2.0030    2.0964   -2.6100 C   0  0  0  0  0  0  0  0  0  0  0  0
   -2.0836    2.8577   -3.4006 H   0  0  0  0  0  0  0  0  0  0  0  0
   -3.3992    3.5181   -1.1177 C   0  0  0  0  0  0  0  0  0  0  0  0
   -3.4797    4.2661   -1.9212 H   0  0  0  0  0  0  0  0  0  0  0  0
   -4.0411    3.7156    0.0955 C   0  0  0  0  0  0  0  0  0  0  0  0
   -4.6377    4.6248    0.2616 H   0  0  0  0  0  0  0  0  0  0  0  0
   -3.9362    2.7438    1.1253 C   0  0  0  0  0  0  0  0  0  0  0  0
   -4.4545    2.9062    2.0822 H   0  0  0  0  0  0  0  0  0  0  0  0
   -3.1824    1.5955    0.9355 C   0  0  0  0  0  0  0  0  0  0  0  0
   -3.0984    0.8487    1.7377 H   0  0  0  0  0  0  0  0  0  0  0  0
   -2.5233    1.3549   -0.3054 C   0  0  0  0  0  0  0  0  0  0  0  0
   -2.6390    2.3364   -1.3569 C   0  0  0  0  0  0  0  0  0  0  0  0
    0.5368    1.8929    0.7421 C   0  0  0  0  0  0  0  0  0  0  0  0
   -0.1726    2.3318    1.8798 C   0  0  0  0  0  0  0  0  0  0  0  0
   -0.3882    1.6311    2.7010 H   0  0  0  0  0  0  0  0  0  0  0  0
   -0.6272    3.6553    1.9500 C   0  0  0  0  0  0  0  0  0  0  0  0
   -1.1864    3.9936    2.8348 H   0  0  0  0  0  0  0  0  0  0  0  0
   -0.3895    4.5415    0.8865 C   0  0  0  0  0  0  0  0  0  0  0  0
   -0.7589    5.5762    0.9417 H   0  0  0  0  0  0  0  0  0  0  0  0
    0.3092    4.1050   -0.2498 C   0  0  0  0  0  0  0  0  0  0  0  0
    0.4851    4.7943   -1.0890 H   0  0  0  0  0  0  0  0  0  0  0  0
    0.7730    2.7842   -0.3235 C   0  0  0  0  0  0  0  0  0  0  0  0
    1.2984    2.4258   -1.2219 H   0  0  0  0  0  0  0  0  0  0  0  0
    2.4333   -0.0277    1.9126 C   0  0  0  0  0  0  0  0  0  0  0  0
    3.2233   -1.1991    1.8660 C   0  0  0  0  0  0  0  0  0  0  0  0
    3.0354   -1.9557    1.0863 H   0  0  0  0  0  0  0  0  0  0  0  0
    4.2479   -1.4004    2.8001 C   0  0  0  0  0  0  0  0  0  0  0  0
    4.8527   -2.3187    2.7603 H   0  0  0  0  0  0  0  0  0  0  0  0
    4.5084   -0.4247    3.7776 C   0  0  0  0  0  0  0  0  0  0  0  0
    5.3187   -0.5776    4.5060 H   0  0  0  0  0  0  0  0  0  0  0  0
    3.7403    0.7481    3.8156 C   0  0  0  0  0  0  0  0  0  0  0  0
    3.9482    1.5196    4.5720 H   0  0  0  0  0  0  0  0  0  0  0  0
    2.7034    0.9494    2.8895 C   0  0  0  0  0  0  0  0  0  0  0  0
    2.1145    1.8769    2.9243 H   0  0  0  0  0  0  0  0  0  0  0  0
   -0.6125   -1.3841   -2.0886 C   0  0  2  0  0  3  0  0  0  0  0  0
    0.8334   -3.0825   -2.3884 C   0  0  0  0  0  0  0  0  0  0  0  0
    1.3880   -3.1587   -3.3474 H   0  0  0  0  0  0  0  0  0  0  0  0
    1.4293   -3.6005   -1.6115 H   0  0  0  0  0  0  0  0  0  0  0  0
   -0.6205   -3.6031   -2.4749 C   0  0  0  0  0  0  0  0  0  0  0  0
   -0.8650   -4.1244   -3.4188 H   0  0  0  0  0  0  0  0  0  0  0  0
   -0.9112   -4.2411   -1.6164 H   0  0  0  0  0  0  0  0  0  0  0  0
  1 36  1  0  0  0  0
  1  5  1  0  0  0  0
  1 47  1  0  0  0  0
  2 58  1  0  0  0  0
  4 18  2  0  0  0  0
  4  5  1  0  0  0  0
  5  6  2  0  0  0  0
  6  8  1  0  0  0  0
  6  7  1  0  0  0  0
  8  9  1  0  0  0  0
 10 11  1  0  0  0  0
 12 13  1  0  0  0  0
 12 10  2  0  0  0  0
 14 12  1  0  0  0  0
 15 14  1  0  0  0  0
 16 14  2  0  0  0  0
 16 18  1  0  0  0  0
 17 16  1  0  0  0  0
 18 19  1  0  0  0  0
 19 10  1  0  0  0  0
 19  8  2  0  0  0  0
 20 34  1  0  0  0  0
 20  4  1  0  0  0  0
 21 20  2  0  0  0  0
 22 24  2  0  0  0  0
 22 21  1  0  0  0  0
 23 22  1  0  0  0  0
 24 35  1  0  0  0  0
 25 24  1  0  0  0  0
 26 28  1  0  0  0  0
 27 26  1  0  0  0  0
 28 29  1  0  0  0  0
 28 30  2  0  0  0  0
 30 31  1  0  0  0  0
 32 30  1  0  0  0  0
 32 33  1  0  0  0  0
 34 32  2  0  0  0  0
 35 26  2  0  0  0  0
 35 34  1  0  0  0  0
 36 37  1  0  0  0  0
 37 39  2  0  0  0  0
 37 38  1  0  0  0  0
 39 40  1  0  0  0  0
 41 42  1  0  0  0  0
 41 39  1  0  0  0  0
 43 41  2  0  0  0  0
 44 43  1  0  0  0  0
 45 43  1  0  0  0  0
 45 36  2  0  0  0  0
 46 45  1  0  0  0  0
 47 56  1  0  0  0  0
 48 47  2  0  0  0  0
 48 50  1  0  0  0  0
 49 48  1  0  0  0  0
 50 52  2  0  0  0  0
 51 50  1  0  0  0  0
 52 54  1  0  0  0  0
 52 53  1  0  0  0  0
 54 55  1  0  0  0  0
 56 57  1  0  0  0  0
 56 54  2  0  0  0  0
 58  3  1  0  0  0  0
 58 21  1  1  0  0  0
 59  3  1  0  0  0  0
 59 61  1  0  0  0  0
 60 59  1  0  0  0  0
 62  2  1  0  0  0  0
 62 59  1  0  0  0  0
 62 64  1  0  0  0  0
 63 62  1  0  0  0  0
M  END
