1
q = -1.0, confidence = 0.004

 23 23  0  0  1  0  0  0  0  0999 V2000
   -1.1063    0.0832    1.0920 N   0  0  0  0  0  2  0  0  0  0  0  0
   -1.1245   -0.2159    2.5369 C   0  0  0  0  0  0  0  0  0  0  0  0
   -0.6696    0.6364    3.0965 H   0  0  0  0  0  0  0  0  0  0  0  0
   -0.5123   -1.1103    2.7719 H   0  0  0  0  0  0  0  0  0  0  0  0
   -3.0901   -0.5397   -0.2937 C   0  0  0  0  0  0  0  0  0  0  0  0
   -2.3177   -0.7647   -1.0602 H   0  0  0  0  0  0  0  0  0  0  0  0
   -3.2877   -1.4803    0.2627 H   0  0  0  0  0  0  0  0  0  0  0  0
   -2.4661    0.5005    0.6676 C   0  0  1  0  0  0  0  0  0  0  0  0
   -2.3801    1.4645    0.1272 H   0  0  0  0  0  0  0  0  0  0  0  0
   -3.2647    0.6579    1.9750 C   0  0  0  0  0  0  0  0  0  0  0  0
   -3.1317    1.6822    2.3812 H   0  0  0  0  0  0  0  0  0  0  0  0
   -4.3496    0.4926    1.8217 H   0  0  0  0  0  0  0  0  0  0  0  0
   -5.5359   -0.6607   -0.7806 C   0  0  0  0  0  0  0  0  0  0  0  0
   -6.4476   -0.3218   -1.2984 H   0  0  0  0  0  0  0  0  0  0  0  0
   -5.6349   -1.5185   -0.0959 H   0  0  0  0  0  0  0  0  0  0  0  0
   -2.6030   -0.3643    2.9097 C   0  0  0  0  0  0  0  0  0  0  0  0
   -2.9545   -1.3915    2.6763 H   0  0  0  0  0  0  0  0  0  0  0  0
   -2.7992   -0.1780    3.9837 H   0  0  0  0  0  0  0  0  0  0  0  0
   -4.3436   -0.0612   -0.9857 C   0  0  0  0  0  0  0  0  0  0  0  0
   -4.1783    1.1143   -1.9159 C   0  0  0  0  0  0  0  0  0  0  0  0
   -3.9685    2.0477   -1.3495 H   0  0  0  0  0  0  0  0  0  0  0  0
   -5.0860    1.2899   -2.5244 H   0  0  0  0  0  0  0  0  0  0  0  0
   -3.3070    0.9689   -2.5890 H   0  0  0  0  0  0  0  0  0  0  0  0
  1  2  1  0  0  0  0
  2  4  1  0  0  0  0
  2 16  1  0  0  0  0
  2  3  1  0  0  0  0
  5  7  1  0  0  0  0
  5  8  1  0  0  0  0
  6  5  1  0  0  0  0
  8  9  1  6  0  0  0
  8  1  1  0  0  0  0
  8 10  1  0  0  0  0
 10 11  1  0  0  0  0
 10 16  1  0  0  0  0
 12 10  1  0  0  0  0
 13 15  1  0  0  0  0
 14 13  1  0  0  0  0
 16 18  1  0  0  0  0
 17 16  1  0  0  0  0
 19 13  2  0  0  0  0
 19  5  1  0  0  0  0
 20 21  1  0  0  0  0
 20 19  1  0  0  0  0
 22 20  1  0  0  0  0
 23 20  1  0  0  0  0
M  END
