5
q = -1.0, confidence = 0.0

 23 24  0  0  1  0  0  0  0  0999 V2000
   -3.5516    1.9541    0.6757 N   0  0  0  0  0  0  0  0  0  0  0  0
   -4.0426    2.8403    0.7879 H   0  0  0  0  0  0  0  0  0  0  0  0
   -2.2215    1.9142    0.3462 C   0  0  0  0  0  0  0  0  0  0  0  0
   -1.5320    2.8946    0.0254 O   0  0  0  0  0  0  0  0  0  0  0  0
   -1.7636    0.5930    0.4610 N   0  0  0  0  0  2  0  0  0  0  0  0
   -2.7707   -0.1986    0.9182 C   0  0  0  0  0  0  0  0  0  0  0  0
   -2.7231   -1.4151    1.1613 O   0  0  0  0  0  0  0  0  0  0  0  0
   -4.0600    0.6598    1.0924 C   0  0  1  0  0  0  0  0  0  0  0  0
   -4.4837    0.6584    2.5720 C   0  0  0  0  0  0  0  0  0  0  0  0
   -5.3934    1.2753    2.7142 H   0  0  0  0  0  0  0  0  0  0  0  0
   -4.7030   -0.3723    2.9072 H   0  0  0  0  0  0  0  0  0  0  0  0
   -3.6675    1.0615    3.2034 H   0  0  0  0  0  0  0  0  0  0  0  0
   -5.1575    0.1164    0.1727 C   0  0  0  0  0  0  0  0  0  0  0  0
   -5.7129   -1.1568    0.4195 C   0  0  0  0  0  0  0  0  0  0  0  0
   -5.3317   -1.7624    1.2535 H   0  0  0  0  0  0  0  0  0  0  0  0
   -6.7130   -1.6700   -0.4177 C   0  0  0  0  0  0  0  0  0  0  0  0
   -7.1326   -2.6671   -0.2141 H   0  0  0  0  0  0  0  0  0  0  0  0
   -7.1759   -0.9216   -1.5122 C   0  0  0  0  0  0  0  0  0  0  0  0
   -7.9644   -1.3245   -2.1658 H   0  0  0  0  0  0  0  0  0  0  0  0
   -6.6195    0.3395   -1.7705 C   0  0  0  0  0  0  0  0  0  0  0  0
   -6.9662    0.9316   -2.6312 H   0  0  0  0  0  0  0  0  0  0  0  0
   -5.6136    0.8526   -0.9364 C   0  0  0  0  0  0  0  0  0  0  0  0
   -5.1674    1.8333   -1.1555 H   0  0  0  0  0  0  0  0  0  0  0  0
  1  2  1  0  0  0  0
  1  8  1  0  0  0  0
  3  5  1  0  0  0  0
  3  1  1  0  0  0  0
  4  3  2  0  0  0  0
  5  6  1  0  0  0  0
  6  8  1  0  0  0  0
  6  7  2  0  0  0  0
  8  9  1  1  0  0  0
  9 10  1  0  0  0  0
  9 11  1  0  0  0  0
  9 12  1  0  0  0  0
 13 14  1  0  0  0  0
 13  8  1  0  0  0  0
 14 15  1  0  0  0  0
 16 17  1  0  0  0  0
 16 14  2  0  0  0  0
 18 16  1  0  0  0  0
 19 18  1  0  0  0  0
 20 18  2  0  0  0  0
 20 22  1  0  0  0  0
 21 20  1  0  0  0  0
 22 13  2  0  0  0  0
 23 22  1  0  0  0  0
M  END
