1
q = 0.0, confidence = 0.994

 22 23  0  0  1  0  0  0  0  0999 V2000
    1.8431    2.2633    0.1677 N   0  0  0  0  0  2  0  0  0  0  0  0
    3.0248    1.6531   -0.1028 C   0  0  1  0  0  3  0  0  0  0  0  0
    2.8737    0.2725   -0.6904 C   0  0  0  0  0  0  0  0  0  0  0  0
    1.8579    0.0177   -1.3465 O   0  0  0  0  0  0  0  0  0  0  0  0
    4.2545    2.3061    0.1069 C   0  0  0  0  0  0  0  0  0  0  0  0
    4.2443    3.6210    0.5939 C   0  0  0  0  0  0  0  0  0  0  0  0
    3.0181    4.2376    0.8735 C   0  0  0  0  0  0  0  0  0  0  0  0
    1.8340    3.5173    0.6485 C   0  0  0  0  0  0  0  0  0  0  0  0
    5.0628   -0.5288    0.1256 N   0  0  0  0  0  0  0  0  0  0  0  0
    3.8752   -0.8200   -0.4446 C   0  0  0  0  0  0  0  0  0  0  0  0
    3.5043   -2.1318   -0.8139 C   0  0  0  0  0  0  0  0  0  0  0  0
    4.4052   -3.1730   -0.5720 C   0  0  0  0  0  0  0  0  0  0  0  0
    5.6451   -2.8715    0.0116 C   0  0  0  0  0  0  0  0  0  0  0  0
    5.9239   -1.5319    0.3359 C   0  0  0  0  0  0  0  0  0  0  0  0
    5.1860    1.7673   -0.1026 H   0  0  0  0  0  0  0  0  0  0  0  0
    5.1920    4.1571    0.7543 H   0  0  0  0  0  0  0  0  0  0  0  0
    2.9669    5.2643    1.2640 H   0  0  0  0  0  0  0  0  0  0  0  0
    0.8310    3.9352    0.8480 H   0  0  0  0  0  0  0  0  0  0  0  0
    2.5157   -2.3021   -1.2623 H   0  0  0  0  0  0  0  0  0  0  0  0
    4.1388   -4.2086   -0.8318 H   0  0  0  0  0  0  0  0  0  0  0  0
    6.3869   -3.6572    0.2185 H   0  0  0  0  0  0  0  0  0  0  0  0
    6.8912   -1.2603    0.7944 H   0  0  0  0  0  0  0  0  0  0  0  0
  1  8  1  0  0  0  0
  2  3  1  6  0  0  0
  2  5  1  0  0  0  0
  2  1  1  0  0  0  0
  3 10  1  0  0  0  0
  4  3  2  0  0  0  0
  5  6  2  0  0  0  0
  6 16  1  0  0  0  0
  6  7  1  0  0  0  0
  7 17  1  0  0  0  0
  8 18  1  0  0  0  0
  8  7  2  0  0  0  0
  9 14  1  0  0  0  0
 10  9  2  0  0  0  0
 11 12  2  0  0  0  0
 11 10  1  0  0  0  0
 12 13  1  0  0  0  0
 13 21  1  0  0  0  0
 13 14  2  0  0  0  0
 14 22  1  0  0  0  0
 15  5  1  0  0  0  0
 19 11  1  0  0  0  0
 20 12  1  0  0  0  0
M  END
