2
q = 0.0, confidence = 0.988

 27 28  0  0  0  0  0  0  0  0999 V2000
    8.0224    1.1147    0.8019 O   0  0  0  0  0  0  0  0  0  0  0  0
    1.9642    1.3082   -0.7079 N   0  0  0  0  0  2  0  0  0  0  0  0
    4.1780    1.3743   -0.7090 N   0  0  0  0  0  0  0  0  0  0  0  0
    3.7779    1.3601   -2.0326 C   0  0  0  0  0  0  0  0  0  0  0  0
    4.4964    1.3896   -2.8575 H   0  0  0  0  0  0  0  0  0  0  0  0
    2.3982    1.3207   -2.0226 C   0  0  0  0  0  0  0  0  0  0  0  0
    1.7033    1.3083   -2.8682 H   0  0  0  0  0  0  0  0  0  0  0  0
    3.0621    1.3396    0.0613 C   0  0  0  0  0  3  0  0  0  0  0  0
    3.0862    1.3461    1.1567 H   0  0  0  0  0  0  0  0  0  0  0  0
    5.5591    1.3842   -0.2195 C   0  0  0  0  0  0  0  0  0  0  0  0
    5.5470    1.6923    0.8423 H   0  0  0  0  0  0  0  0  0  0  0  0
    6.1183    2.1720   -0.7600 H   0  0  0  0  0  0  0  0  0  0  0  0
    6.2499    0.0302   -0.3704 C   0  0  0  0  0  0  0  0  0  0  0  0
    6.3216   -0.2667   -1.4382 H   0  0  0  0  0  0  0  0  0  0  0  0
    5.6589   -0.7683    0.1285 H   0  0  0  0  0  0  0  0  0  0  0  0
    7.6534    0.0831    0.2468 C   0  0  0  0  0  0  0  0  0  0  0  0
    8.5226   -1.1247    0.1556 C   0  0  0  0  0  0  0  0  0  0  0  0
    8.1096   -2.3245   -0.4660 C   0  0  0  0  0  0  0  0  0  0  0  0
    7.1089   -2.4097   -0.9148 H   0  0  0  0  0  0  0  0  0  0  0  0
    8.9738   -3.4259   -0.5171 C   0  0  0  0  0  0  0  0  0  0  0  0
    8.6477   -4.3580   -1.0020 H   0  0  0  0  0  0  0  0  0  0  0  0
   10.2561   -3.3391    0.0497 C   0  0  0  0  0  0  0  0  0  0  0  0
   10.9337   -4.2053    0.0071 H   0  0  0  0  0  0  0  0  0  0  0  0
   10.6754   -2.1489    0.6703 C   0  0  0  0  0  0  0  0  0  0  0  0
   11.6803   -2.0832    1.1133 H   0  0  0  0  0  0  0  0  0  0  0  0
    9.8145   -1.0488    0.7237 C   0  0  0  0  0  0  0  0  0  0  0  0
   10.1139   -0.1049    1.2025 H   0  0  0  0  0  0  0  0  0  0  0  0
  2  8  1  0  0  0  0
  3 10  1  0  0  0  0
  3  8  1  0  0  0  0
  4  6  2  0  0  0  0
  4  3  1  0  0  0  0
  5  4  1  0  0  0  0
  6  2  1  0  0  0  0
  7  6  1  0  0  0  0
  8  9  1  0  0  0  0
 10 11  1  0  0  0  0
 12 10  1  0  0  0  0
 13 10  1  0  0  0  0
 13 15  1  0  0  0  0
 13 16  1  0  0  0  0
 14 13  1  0  0  0  0
 16  1  2  0  0  0  0
 17 16  1  0  0  0  0
 17 26  1  0  0  0  0
 18 17  2  0  0  0  0
 19 18  1  0  0  0  0
 20 18  1  0  0  0  0
 20 22  2  0  0  0  0
 21 20  1  0  0  0  0
 22 24  1  0  0  0  0
 23 22  1  0  0  0  0
 24 26  2  0  0  0  0
 24 25  1  0  0  0  0
 26 27  1  0  0  0  0
M  END
