4
q = 0.0, confidence = 0.95

 48 48  0  0  0  0  0  0  0  0999 V2000
    2.5963   -1.0718    0.0785 P   0  0  0  0  0  4  0  0  0  0  0  0
    1.0068   -0.6277   -0.1349 N   0  0  0  0  0  2  0  0  0  0  0  0
    0.2550   -1.4763   -0.8912 N   0  0  0  0  0  2  0  0  0  0  0  0
   -0.8613   -0.8359   -0.9987 N   0  0  0  0  0  2  0  0  0  0  0  0
   -1.8938   -1.4783   -1.7843 C   0  0  0  0  0  0  0  0  0  0  0  0
   -1.4370   -2.3294   -2.3381 H   0  0  0  0  0  0  0  0  0  0  0  0
   -2.2565   -0.7446   -2.5334 H   0  0  0  0  0  0  0  0  0  0  0  0
   -3.0490   -1.9705   -0.9337 C   0  0  0  0  0  0  0  0  0  0  0  0
   -2.8160   -2.4852    0.3564 C   0  0  0  0  0  0  0  0  0  0  0  0
   -1.7868   -2.5033    0.7453 H   0  0  0  0  0  0  0  0  0  0  0  0
   -3.8816   -2.9391    1.1476 C   0  0  0  0  0  0  0  0  0  0  0  0
   -3.6850   -3.3302    2.1580 H   0  0  0  0  0  0  0  0  0  0  0  0
   -5.1972   -2.8879    0.6577 C   0  0  0  0  0  0  0  0  0  0  0  0
   -6.0347   -3.2374    1.2805 H   0  0  0  0  0  0  0  0  0  0  0  0
   -5.4371   -2.3849   -0.6308 C   0  0  0  0  0  0  0  0  0  0  0  0
   -6.4651   -2.3367   -1.0215 H   0  0  0  0  0  0  0  0  0  0  0  0
   -4.3693   -1.9279   -1.4183 C   0  0  0  0  0  0  0  0  0  0  0  0
   -4.5636   -1.5150   -2.4212 H   0  0  0  0  0  0  0  0  0  0  0  0
    3.4281    0.4511    0.6934 C   0  0  0  0  0  0  0  0  0  0  0  0
    2.6813    0.7796    1.4481 H   0  0  0  0  0  0  0  0  0  0  0  0
    3.5221    1.5509   -0.3729 C   0  0  0  0  0  0  0  0  0  0  0  0
    3.7334    2.5167    0.1304 H   0  0  0  0  0  0  0  0  0  0  0  0
    2.5815    1.6627   -0.9542 H   0  0  0  0  0  0  0  0  0  0  0  0
    4.3551    1.3559   -1.0769 H   0  0  0  0  0  0  0  0  0  0  0  0
    4.7693    0.1837    1.3883 C   0  0  0  0  0  0  0  0  0  0  0  0
    5.1543    1.1358    1.8067 H   0  0  0  0  0  0  0  0  0  0  0  0
    5.5333   -0.1905    0.6777 H   0  0  0  0  0  0  0  0  0  0  0  0
    4.6939   -0.5379    2.2254 H   0  0  0  0  0  0  0  0  0  0  0  0
    3.3034   -1.8240   -1.4609 C   0  0  0  0  0  0  0  0  0  0  0  0
    2.5482   -2.6229   -1.6374 H   0  0  0  0  0  0  0  0  0  0  0  0
    3.2480   -0.8649   -2.6581 C   0  0  0  0  0  0  0  0  0  0  0  0
    3.3328   -1.4527   -3.5947 H   0  0  0  0  0  0  0  0  0  0  0  0
    4.0916   -0.1479   -2.6375 H   0  0  0  0  0  0  0  0  0  0  0  0
    2.3037   -0.2803   -2.6938 H   0  0  0  0  0  0  0  0  0  0  0  0
    4.6857   -2.4573   -1.2604 C   0  0  0  0  0  0  0  0  0  0  0  0
    4.9832   -2.9921   -2.1857 H   0  0  0  0  0  0  0  0  0  0  0  0
    4.7153   -3.1910   -0.4304 H   0  0  0  0  0  0  0  0  0  0  0  0
    5.4602   -1.6877   -1.0678 H   0  0  0  0  0  0  0  0  0  0  0  0
    2.6782   -2.3609    1.4237 C   0  0  0  0  0  0  0  0  0  0  0  0
    3.7561   -2.5400    1.6316 H   0  0  0  0  0  0  0  0  0  0  0  0
    1.9929   -1.8113    2.6831 C   0  0  0  0  0  0  0  0  0  0  0  0
    1.9705   -2.5915    3.4706 H   0  0  0  0  0  0  0  0  0  0  0  0
    0.9500   -1.5115    2.4551 H   0  0  0  0  0  0  0  0  0  0  0  0
    2.5155   -0.9286    3.1015 H   0  0  0  0  0  0  0  0  0  0  0  0
    2.0224   -3.6663    0.9492 C   0  0  0  0  0  0  0  0  0  0  0  0
    1.9741   -4.3864    1.7914 H   0  0  0  0  0  0  0  0  0  0  0  0
    2.5862   -4.1505    0.1283 H   0  0  0  0  0  0  0  0  0  0  0  0
    0.9904   -3.4827    0.5877 H   0  0  0  0  0  0  0  0  0  0  0  0
  1 19  1  0  0  0  0
  1 39  1  0  0  0  0
  2  1  1  0  0  0  0
  3  2  1  0  0  0  0
  4  3  1  0  0  0  0
  5  4  1  0  0  0  0
  5  8  1  0  0  0  0
  6  5  1  0  0  0  0
  7  5  1  0  0  0  0
  8  9  1  0  0  0  0
  9 10  1  0  0  0  0
  9 11  2  0  0  0  0
 11 12  1  0  0  0  0
 13 11  1  0  0  0  0
 13 14  1  0  0  0  0
 15 13  2  0  0  0  0
 16 15  1  0  0  0  0
 17  8  2  0  0  0  0
 17 15  1  0  0  0  0
 18 17  1  0  0  0  0
 19 25  1  0  0  0  0
 19 20  1  0  0  0  0
 21 22  1  0  0  0  0
 21 19  1  0  0  0  0
 23 21  1  0  0  0  0
 24 21  1  0  0  0  0
 25 26  1  0  0  0  0
 25 28  1  0  0  0  0
 27 25  1  0  0  0  0
 29 35  1  0  0  0  0
 29  1  1  0  0  0  0
 30 29  1  0  0  0  0
 31 33  1  0  0  0  0
 31 29  1  0  0  0  0
 32 31  1  0  0  0  0
 34 31  1  0  0  0  0
 35 38  1  0  0  0  0
 35 37  1  0  0  0  0
 36 35  1  0  0  0  0
 39 40  1  0  0  0  0
 39 41  1  0  0  0  0
 41 44  1  0  0  0  0
 41 42  1  0  0  0  0
 43 41  1  0  0  0  0
 45 39  1  0  0  0  0
 45 46  1  0  0  0  0
 47 45  1  0  0  0  0
 48 45  1  0  0  0  0
M  END
