1
q = 0.0, confidence = 0.87

 23 24  0  0  0  0  0  0  0  0999 V2000
   -0.2175    0.5883    1.1489 N   0  0  0  0  0  2  0  0  0  0  0  0
   -4.0941   -0.0496    0.1254 N   0  0  0  0  0  2  0  0  0  0  0  0
   -3.9344    0.5883    1.2091 N   0  0  0  0  0  2  0  0  0  0  0  0
   -1.4905    0.4069    0.7595 C   0  0  0  0  0  3  0  0  0  0  0  0
   -1.6743   -0.0273   -0.2346 H   0  0  0  0  0  0  0  0  0  0  0  0
   -5.4278   -0.2227   -0.2914 C   0  0  0  0  0  0  0  0  0  0  0  0
   -2.5827    0.7586    1.5827 C   0  0  0  0  0  0  0  0  0  0  0  0
   -6.5564    0.2699    0.4078 C   0  0  0  0  0  0  0  0  0  0  0  0
   -6.3894    0.8262    1.3408 H   0  0  0  0  0  0  0  0  0  0  0  0
   -5.5980   -0.9428   -1.4944 C   0  0  0  0  0  0  0  0  0  0  0  0
   -4.6952   -1.3075   -2.0065 H   0  0  0  0  0  0  0  0  0  0  0  0
   -6.8846   -1.1707   -1.9977 C   0  0  0  0  0  0  0  0  0  0  0  0
   -7.0184   -1.7310   -2.9350 H   0  0  0  0  0  0  0  0  0  0  0  0
    0.0355    1.1264    2.3673 C   0  0  0  0  0  0  0  0  0  0  0  0
    1.0963    1.2563    2.6305 H   0  0  0  0  0  0  0  0  0  0  0  0
   -7.8351    0.0376   -0.1015 C   0  0  0  0  0  0  0  0  0  0  0  0
   -8.7177    0.4174    0.4359 H   0  0  0  0  0  0  0  0  0  0  0  0
   -0.9919    1.5074    3.2374 C   0  0  0  0  0  0  0  0  0  0  0  0
   -0.7381    1.9433    4.2140 H   0  0  0  0  0  0  0  0  0  0  0  0
   -2.3226    1.3272    2.8439 C   0  0  0  0  0  0  0  0  0  0  0  0
   -3.1730    1.6089    3.4822 H   0  0  0  0  0  0  0  0  0  0  0  0
   -8.0029   -0.6814   -1.3027 C   0  0  0  0  0  0  0  0  0  0  0  0
   -9.0152   -0.8591   -1.6968 H   0  0  0  0  0  0  0  0  0  0  0  0
  1 14  1  0  0  0  0
  2  3  1  0  0  0  0
  3  7  1  0  0  0  0
  4  1  1  0  0  0  0
  4  7  1  0  0  0  0
  5  4  1  0  0  0  0
  6  2  1  0  0  0  0
  6  8  1  0  0  0  0
  7 20  2  0  0  0  0
  8  9  1  0  0  0  0
 10  6  2  0  0  0  0
 11 10  1  0  0  0  0
 12 10  1  0  0  0  0
 12 22  2  0  0  0  0
 13 12  1  0  0  0  0
 14 15  1  0  0  0  0
 14 18  2  0  0  0  0
 16  8  2  0  0  0  0
 16 17  1  0  0  0  0
 18 19  1  0  0  0  0
 20 18  1  0  0  0  0
 20 21  1  0  0  0  0
 22 16  1  0  0  0  0
 23 22  1  0  0  0  0
M  END
