1
q = 0.0, confidence = 0.998

 25 25  0  0  1  0  0  0  0  0999 V2000
   -2.3335    0.6328   -0.9523 N   0  0  0  0  0  2  0  0  0  0  0  0
   -2.8548    1.5178   -0.8894 H   0  0  0  0  0  0  0  0  0  0  0  0
   -4.8250   -0.4278   -1.0050 S   0  0  0  0  0  0  0  0  0  0  0  0
   -3.0671   -0.4391   -1.0039 C   0  0  2  0  0  3  0  0  0  0  0  0
   -5.2550    1.3121   -0.6147 C   0  0  0  0  0  0  0  0  0  0  0  0
   -4.7533    1.9752   -1.3533 H   0  0  0  0  0  0  0  0  0  0  0  0
   -6.3359    1.3526   -0.8601 H   0  0  0  0  0  0  0  0  0  0  0  0
   -4.9888    1.7243    0.8311 C   0  0  0  0  0  0  0  0  0  0  0  0
   -5.4897    1.0324    1.5357 H   0  0  0  0  0  0  0  0  0  0  0  0
   -5.3866    2.7454    1.0044 H   0  0  0  0  0  0  0  0  0  0  0  0
   -3.9070    1.7466    1.0748 H   0  0  0  0  0  0  0  0  0  0  0  0
   -2.4813   -1.8302   -1.0064 C   0  0  0  0  0  0  0  0  0  0  0  0
   -3.1090   -2.4787   -1.6501 H   0  0  0  0  0  0  0  0  0  0  0  0
   -1.4705   -1.7623   -1.4612 H   0  0  0  0  0  0  0  0  0  0  0  0
   -2.4197   -2.4087    0.3991 C   0  0  0  0  0  0  0  0  0  0  0  0
   -1.4909   -1.9075    1.3328 C   0  0  0  0  0  0  0  0  0  0  0  0
   -0.8133   -1.0900    1.0288 H   0  0  0  0  0  0  0  0  0  0  0  0
   -1.4383   -2.4280    2.6333 C   0  0  0  0  0  0  0  0  0  0  0  0
   -0.7086   -2.0234    3.3514 H   0  0  0  0  0  0  0  0  0  0  0  0
   -2.3128   -3.4569    3.0194 C   0  0  0  0  0  0  0  0  0  0  0  0
   -2.2706   -3.8662    4.0403 H   0  0  0  0  0  0  0  0  0  0  0  0
   -3.2426   -3.9598    2.0962 C   0  0  0  0  0  0  0  0  0  0  0  0
   -3.9317   -4.7665    2.3894 H   0  0  0  0  0  0  0  0  0  0  0  0
   -3.2976   -3.4350    0.7956 C   0  0  0  0  0  0  0  0  0  0  0  0
   -4.0311   -3.8297    0.0747 H   0  0  0  0  0  0  0  0  0  0  0  0
  1  2  1  0  0  0  0
  3  5  1  0  0  0  0
  4  3  1  1  0  0  0
  4  1  1  0  0  0  0
  5  8  1  0  0  0  0
  6  5  1  0  0  0  0
  7  5  1  0  0  0  0
  8 10  1  0  0  0  0
  8 11  1  0  0  0  0
  8  9  1  0  0  0  0
 12  4  1  0  0  0  0
 12 15  1  0  0  0  0
 13 12  1  0  0  0  0
 14 12  1  0  0  0  0
 15 24  2  0  0  0  0
 15 16  1  0  0  0  0
 16 18  2  0  0  0  0
 17 16  1  0  0  0  0
 18 20  1  0  0  0  0
 18 19  1  0  0  0  0
 20 21  1  0  0  0  0
 22 23  1  0  0  0  0
 22 20  2  0  0  0  0
 24 22  1  0  0  0  0
 25 24  1  0  0  0  0
M  END
