1
q = 0.0, confidence = 0.99

 13 13  0  0  0  0  0  0  0  0999 V2000
   -1.2320    0.4973   -0.9405 N   0  0  0  0  0  2  0  0  0  0  0  0
   -1.1755    1.4949   -1.8570 C   0  0  0  0  0  3  0  0  0  0  0  0
   -0.2123    1.6424   -2.3656 H   0  0  0  0  0  0  0  0  0  0  0  0
   -2.2819    2.2946   -2.1616 C   0  0  0  0  0  0  0  0  0  0  0  0
   -2.1851    3.0866   -2.9175 H   0  0  0  0  0  0  0  0  0  0  0  0
   -3.4960    2.0674   -1.5082 C   0  0  0  0  0  0  0  0  0  0  0  0
   -4.3858    2.6741   -1.7285 H   0  0  0  0  0  0  0  0  0  0  0  0
   -3.5715    1.0272   -0.5502 C   0  0  0  0  0  0  0  0  0  0  0  0
   -2.4023    0.2729   -0.3059 C   0  0  0  0  0  0  0  0  0  0  0  0
   -2.4207   -0.5467    0.4251 H   0  0  0  0  0  0  0  0  0  0  0  0
   -4.7735    0.7307    0.1563 C   0  0  0  0  0  0  0  0  0  0  0  0
   -5.8081    0.4753    0.7594 C   0  0  0  0  0  0  0  0  0  0  0  0
   -6.7294    0.2526    1.2834 H   0  0  0  0  0  0  0  0  0  0  0  0
  1  9  1  0  0  0  0
  2  1  1  0  0  0  0
  3  2  1  0  0  0  0
  4  2  1  0  0  0  0
  4  6  2  0  0  0  0
  5  4  1  0  0  0  0
  6  8  1  0  0  0  0
  7  6  1  0  0  0  0
  8  9  2  0  0  0  0
  8 11  1  0  0  0  0
  9 10  1  0  0  0  0
 11 12  3  0  0  0  0
 12 13  1  0  0  0  0
M  END
