1
q = 0.0, confidence = 0.99

 14 14  0  0  0  0  0  0  0  0999 V2000
    1.4795   -0.4329   -0.0337 N   0  0  0  0  0  2  0  0  0  0  0  0
    3.6730   -0.7150   -0.2451 N   0  0  0  0  0  0  0  0  0  0  0  0
    2.4488   -1.2322   -0.5068 C   0  0  0  0  0  3  0  0  0  0  0  0
    2.2921   -2.1804   -1.0329 H   0  0  0  0  0  0  0  0  0  0  0  0
    2.1077    0.6412    0.5541 C   0  0  0  0  0  0  0  0  0  0  0  0
    1.5634    1.4587    1.0347 H   0  0  0  0  0  0  0  0  0  0  0  0
    3.4892    0.4916    0.4356 C   0  0  0  0  0  0  0  0  0  0  0  0
    4.9610   -1.2983   -0.5948 C   0  0  0  0  0  0  0  0  0  0  0  0
    4.7930   -2.2450   -1.1381 H   0  0  0  0  0  0  0  0  0  0  0  0
    5.5481   -1.4994    0.3217 H   0  0  0  0  0  0  0  0  0  0  0  0
    5.5317   -0.6008   -1.2373 H   0  0  0  0  0  0  0  0  0  0  0  0
    4.5633    1.3018    0.8657 C   0  0  0  0  0  0  0  0  0  0  0  0
    5.5051    1.9944    1.2331 C   0  0  0  0  0  0  0  0  0  0  0  0
    6.3338    2.6093    1.5614 H   0  0  0  0  0  0  0  0  0  0  0  0
  1  5  1  0  0  0  0
  2  7  1  0  0  0  0
  3  2  1  0  0  0  0
  3  1  1  0  0  0  0
  4  3  1  0  0  0  0
  5  6  1  0  0  0  0
  7  5  2  0  0  0  0
  7 12  1  0  0  0  0
  8  2  1  0  0  0  0
  8 10  1  0  0  0  0
  9  8  1  0  0  0  0
 11  8  1  0  0  0  0
 12 13  3  0  0  0  0
 13 14  1  0  0  0  0
M  END
