53
q = -1.0, confidence = 0.024

 56 60  0  0  1  0  0  0  0  0999 V2000
    1.6897    3.8119    1.0895 C   0  0  0  0  0  0  0  0  0  0  0  0
    1.0888    3.4830    1.9596 H   0  0  0  0  0  0  0  0  0  0  0  0
    1.8165    4.9122    1.1475 H   0  0  0  0  0  0  0  0  0  0  0  0
    2.6931    3.3538    1.1624 H   0  0  0  0  0  0  0  0  0  0  0  0
    0.9993    3.4386   -0.2201 C   0  0  0  0  0  0  0  0  0  0  0  0
    1.8851    3.7089   -1.4460 C   0  0  0  0  0  0  0  0  0  0  0  0
    2.7680    3.0432   -1.4438 H   0  0  0  0  0  0  0  0  0  0  0  0
    2.2306    4.7626   -1.4495 H   0  0  0  0  0  0  0  0  0  0  0  0
    1.3221    3.5199   -2.3819 H   0  0  0  0  0  0  0  0  0  0  0  0
   -0.3674    4.1537   -0.3616 C   0  0  0  0  0  0  0  0  0  0  0  0
   -0.8176    4.4047    0.6229 H   0  0  0  0  0  0  0  0  0  0  0  0
   -0.3388    5.0555   -1.0012 H   0  0  0  0  0  0  0  0  0  0  0  0
   -0.6459    1.9865   -0.7544 C   0  0  1  0  0  3  0  0  0  0  0  0
   -1.3130    0.7248   -1.2082 C   0  0  2  0  0  0  0  0  0  0  0  0
   -1.2160    0.7401   -2.7536 C   0  0  0  0  0  0  0  0  0  0  0  0
   -1.6505    1.6790   -3.1483 H   0  0  0  0  0  0  0  0  0  0  0  0
   -1.7827   -0.1100   -3.1699 H   0  0  0  0  0  0  0  0  0  0  0  0
   -0.1554    0.6696   -3.0638 H   0  0  0  0  0  0  0  0  0  0  0  0
   -4.6831    0.1968    1.7645 C   0  0  0  0  0  0  0  0  0  0  0  0
   -3.9314   -0.6148    1.8299 H   0  0  0  0  0  0  0  0  0  0  0  0
   -5.6865   -0.2264    1.9792 H   0  0  0  0  0  0  0  0  0  0  0  0
   -4.4388    0.9428    2.5455 H   0  0  0  0  0  0  0  0  0  0  0  0
   -4.6581    0.8526    0.3750 C   0  0  0  0  0  0  0  0  0  0  0  0
   -5.7030    1.9677    0.2682 C   0  0  0  0  0  0  0  0  0  0  0  0
   -5.5182    2.7393    1.0414 H   0  0  0  0  0  0  0  0  0  0  0  0
   -6.7278    1.5676    0.4123 H   0  0  0  0  0  0  0  0  0  0  0  0
   -5.6528    2.4584   -0.7244 H   0  0  0  0  0  0  0  0  0  0  0  0
   -4.8095   -0.2134   -0.7610 C   0  0  0  0  0  0  0  0  0  0  0  0
   -5.0907   -1.2187   -0.3892 H   0  0  0  0  0  0  0  0  0  0  0  0
   -5.5288    0.0963   -1.5494 H   0  0  0  0  0  0  0  0  0  0  0  0
   -2.7619    0.6903   -0.7716 C   0  0  0  0  0  0  0  0  0  0  0  0
   -0.5691   -0.4788   -0.5268 C   0  0  0  0  0  3  0  0  0  0  0  0
   -0.7450   -1.8440   -1.1211 C   0  0  0  0  0  0  0  0  0  0  0  0
   -0.5347   -2.3254   -2.4282 C   0  0  0  0  0  0  0  0  0  0  0  0
   -0.2170   -1.6523   -3.2350 H   0  0  0  0  0  0  0  0  0  0  0  0
   -0.7010   -3.6916   -2.7082 C   0  0  0  0  0  0  0  0  0  0  0  0
   -0.5378   -4.0551   -3.7345 H   0  0  0  0  0  0  0  0  0  0  0  0
   -1.0593   -4.6026   -1.6952 C   0  0  0  0  0  0  0  0  0  0  0  0
   -1.1799   -5.6701   -1.9341 H   0  0  0  0  0  0  0  0  0  0  0  0
   -1.2435   -4.1512   -0.3822 C   0  0  0  0  0  0  0  0  0  0  0  0
   -1.5021   -4.8593    0.4206 H   0  0  0  0  0  0  0  0  0  0  0  0
   -1.0896   -2.7824   -0.0976 C   0  0  0  0  0  0  0  0  0  0  0  0
   -1.1883   -2.0697    1.1706 C   0  0  0  0  0  0  0  0  0  0  0  0
   -1.4835   -2.5362    2.4634 C   0  0  0  0  0  0  0  0  0  0  0  0
   -1.6826   -3.6053    2.6367 H   0  0  0  0  0  0  0  0  0  0  0  0
   -1.5319   -1.6235    3.5268 C   0  0  0  0  0  0  0  0  0  0  0  0
   -1.7617   -1.9752    4.5441 H   0  0  0  0  0  0  0  0  0  0  0  0
   -1.3027   -0.2516    3.2929 C   0  0  0  0  0  0  0  0  0  0  0  0
   -1.3677    0.4613    4.1293 H   0  0  0  0  0  0  0  0  0  0  0  0
   -1.0003    0.2234    2.0085 C   0  0  0  0  0  0  0  0  0  0  0  0
   -0.8498    1.2986    1.8522 H   0  0  0  0  0  0  0  0  0  0  0  0
   -0.9086   -0.6872    0.9312 C   0  0  0  0  0  0  0  0  0  0  0  0
    0.5641    2.0028   -0.2643 N   0  0  0  0  0  2  0  0  0  0  0  0
   -3.3030    1.4050    0.1449 N   0  0  0  0  0  0  0  0  0  0  0  0
   -1.2213    3.1710   -0.9931 O   0  0  0  0  0  0  0  0  0  0  0  0
   -3.4965   -0.3012   -1.3548 O   0  0  0  0  0  0  0  0  0  0  0  0
  1  3  1  0  0  0  0
  1  4  1  0  0  0  0
  1  2  1  0  0  0  0
  5  1  1  0  0  0  0
  6  7  1  0  0  0  0
  6  5  1  0  0  0  0
  8  6  1  0  0  0  0
  9  6  1  0  0  0  0
 10  5  1  0  0  0  0
 10 11  1  0  0  0  0
 12 10  1  0  0  0  0
 13 14  1  6  0  0  0
 13 53  1  0  0  0  0
 14 15  1  6  0  0  0
 14 31  1  0  0  0  0
 14 32  1  0  0  0  0
 16 15  1  0  0  0  0
 17 15  1  0  0  0  0
 18 15  1  0  0  0  0
 19 20  1  0  0  0  0
 19 21  1  0  0  0  0
 19 22  1  0  0  0  0
 23 19  1  0  0  0  0
 24 23  1  0  0  0  0
 24 26  1  0  0  0  0
 24 25  1  0  0  0  0
 27 24  1  0  0  0  0
 28 29  1  0  0  0  0
 28 23  1  0  0  0  0
 30 28  1  0  0  0  0
 31 54  2  0  0  0  0
 32 52  1  0  0  0  0
 33 32  1  0  0  0  0
 33 42  1  0  0  0  0
 34 33  2  0  0  0  0
 35 34  1  0  0  0  0
 36 34  1  0  0  0  0
 36 38  2  0  0  0  0
 37 36  1  0  0  0  0
 38 40  1  0  0  0  0
 39 38  1  0  0  0  0
 40 42  2  0  0  0  0
 40 41  1  0  0  0  0
 42 43  1  0  0  0  0
 43 44  1  0  0  0  0
 44 45  1  0  0  0  0
 44 46  2  0  0  0  0
 46 47  1  0  0  0  0
 48 46  1  0  0  0  0
 48 49  1  0  0  0  0
 50 48  2  0  0  0  0
 51 50  1  0  0  0  0
 52 43  2  0  0  0  0
 52 50  1  0  0  0  0
 53  5  1  0  0  0  0
 54 23  1  0  0  0  0
 55 13  1  0  0  0  0
 55 10  1  0  0  0  0
 56 31  1  0  0  0  0
 56 28  1  0  0  0  0
M  END
