1
q = 0.0, confidence = 0.992

 15 14  0  0  1  0  0  0  0  0999 V2000
   -0.6185   -0.3790    1.6627 N   0  0  0  0  0  2  0  0  0  0  0  0
   -0.0104   -0.5376    2.4737 H   0  0  0  0  0  0  0  0  0  0  0  0
   -1.8058    0.0214    2.0177 C   0  0  1  0  0  3  0  0  0  0  0  0
   -2.6576    0.2778    1.0276 O   0  0  0  0  0  0  0  0  0  0  0  0
   -4.0641    0.5415    1.2737 C   0  0  0  0  0  0  0  0  0  0  0  0
   -4.1610    1.4308    1.9319 H   0  0  0  0  0  0  0  0  0  0  0  0
   -4.5034   -0.3327    1.7990 H   0  0  0  0  0  0  0  0  0  0  0  0
   -2.2357    0.1957    3.4439 C   0  0  0  0  0  0  0  0  0  0  0  0
   -1.4022   -0.0104    4.1385 H   0  0  0  0  0  0  0  0  0  0  0  0
   -3.0684   -0.4960    3.6855 H   0  0  0  0  0  0  0  0  0  0  0  0
   -2.6051    1.2250    3.6249 H   0  0  0  0  0  0  0  0  0  0  0  0
   -4.7265    0.7650   -0.0680 C   0  0  0  0  0  0  0  0  0  0  0  0
   -4.3104    1.6589   -0.5732 H   0  0  0  0  0  0  0  0  0  0  0  0
   -5.8121    0.9281    0.0765 H   0  0  0  0  0  0  0  0  0  0  0  0
   -4.5889   -0.1159   -0.7244 H   0  0  0  0  0  0  0  0  0  0  0  0
  1  3  1  0  0  0  0
  1  2  1  0  0  0  0
  3  4  1  1  0  0  0
  3  8  1  0  0  0  0
  4  5  1  0  0  0  0
  5  7  1  0  0  0  0
  5  6  1  0  0  0  0
  8 11  1  0  0  0  0
  8 10  1  0  0  0  0
  8  9  1  0  0  0  0
 12 14  1  0  0  0  0
 12  5  1  0  0  0  0
 13 12  1  0  0  0  0
 15 12  1  0  0  0  0
M  END
