1
q = 0.0, confidence = 0.998

 29 29  0  0  0  0  0  0  0  0999 V2000
   -1.2518    1.5044   -0.3626 N   0  0  0  0  0  0  0  0  0  0  0  0
   -2.2135    1.1417   -0.0139 H   0  0  0  0  0  0  0  0  0  0  0  0
    0.7657    0.5376   -2.1798 O   0  0  0  0  0  0  0  0  0  0  0  0
    2.4387    0.4022    0.1319 O   0  0  0  0  0  0  0  0  0  0  0  0
    0.5112    1.4388    2.0391 O   0  0  0  0  0  0  0  0  0  0  0  0
   -1.2870    1.6922   -1.8213 C   0  0  0  0  0  0  0  0  0  0  0  0
   -1.8486    2.6181   -2.0805 H   0  0  0  0  0  0  0  0  0  0  0  0
   -1.8426    0.8280   -2.2391 H   0  0  0  0  0  0  0  0  0  0  0  0
    0.1015    1.7566   -2.4531 C   0  0  0  0  0  0  0  0  0  0  0  0
   -0.0032    1.9117   -3.5526 H   0  0  0  0  0  0  0  0  0  0  0  0
    0.6726    2.6292   -2.0558 H   0  0  0  0  0  0  0  0  0  0  0  0
    2.1887    0.5532   -2.2251 C   0  0  0  0  0  0  0  0  0  0  0  0
    2.5534    1.0745   -3.1395 H   0  0  0  0  0  0  0  0  0  0  0  0
    2.4857   -0.5132   -2.2711 H   0  0  0  0  0  0  0  0  0  0  0  0
    2.8162    1.1837   -0.9854 C   0  0  0  0  0  0  0  0  0  0  0  0
    3.9268    1.1973   -1.1059 H   0  0  0  0  0  0  0  0  0  0  0  0
    2.4912    2.2473   -0.8724 H   0  0  0  0  0  0  0  0  0  0  0  0
    2.7681    0.9063    1.4177 C   0  0  0  0  0  0  0  0  0  0  0  0
    3.8132    1.2938    1.4427 H   0  0  0  0  0  0  0  0  0  0  0  0
    2.6996    0.0333    2.0982 H   0  0  0  0  0  0  0  0  0  0  0  0
    1.8129    1.9930    1.8984 C   0  0  0  0  0  0  0  0  0  0  0  0
    2.1715    2.3900    2.8779 H   0  0  0  0  0  0  0  0  0  0  0  0
    1.8126    2.8478    1.1822 H   0  0  0  0  0  0  0  0  0  0  0  0
   -0.5693    2.3471    1.8781 C   0  0  0  0  0  0  0  0  0  0  0  0
   -0.3924    3.2884    2.4467 H   0  0  0  0  0  0  0  0  0  0  0  0
   -1.4574    1.8462    2.3158 H   0  0  0  0  0  0  0  0  0  0  0  0
   -0.8442    2.6844    0.4096 C   0  0  0  0  0  0  0  0  0  0  0  0
   -1.6436    3.4598    0.3636 H   0  0  0  0  0  0  0  0  0  0  0  0
    0.0604    3.1371   -0.0492 H   0  0  0  0  0  0  0  0  0  0  0  0
  1  2  1  0  0  0  0
  1 27  1  0  0  0  0
  4 18  1  0  0  0  0
  6  1  1  0  0  0  0
  7  6  1  0  0  0  0
  8  6  1  0  0  0  0
  9  3  1  0  0  0  0
  9 11  1  0  0  0  0
  9  6  1  0  0  0  0
 10  9  1  0  0  0  0
 12  3  1  0  0  0  0
 12 15  1  0  0  0  0
 13 12  1  0  0  0  0
 14 12  1  0  0  0  0
 15 17  1  0  0  0  0
 15  4  1  0  0  0  0
 16 15  1  0  0  0  0
 18 19  1  0  0  0  0
 18 21  1  0  0  0  0
 18 20  1  0  0  0  0
 21  5  1  0  0  0  0
 21 22  1  0  0  0  0
 23 21  1  0  0  0  0
 24  5  1  0  0  0  0
 24 26  1  0  0  0  0
 24 25  1  0  0  0  0
 27 24  1  0  0  0  0
 28 27  1  0  0  0  0
 29 27  1  0  0  0  0
M  END
