1
q = 0.0, confidence = 1.0

 22 22  0  0  0  0  0  0  0  0999 V2000
    1.9033   -0.6208    0.1933 N   0  0  0  0  0  2  0  0  0  0  0  0
    5.7369    0.8424    0.1292 O   0  0  0  0  0  0  0  0  0  0  0  0
    3.8281   -1.0724   -0.4499 N   0  0  0  0  0  0  0  0  0  0  0  0
    7.1004    0.0275   -1.5105 O   0  0  0  0  0  0  0  0  0  0  0  0
    2.7156   -0.4608   -0.8249 N   0  0  0  0  0  2  0  0  0  0  0  0
    3.7932   -1.6067    0.7718 N   0  0  0  0  0  0  0  0  0  0  0  0
    2.5549   -1.3204    1.1792 C   0  0  0  0  0  0  0  0  0  0  0  0
    5.9777    0.0673   -0.7686 C   0  0  0  0  0  0  0  0  0  0  0  0
    5.0260   -1.0332   -1.2534 C   0  0  0  0  0  0  0  0  0  0  0  0
    4.7291   -0.8396   -2.3012 H   0  0  0  0  0  0  0  0  0  0  0  0
    5.5286   -2.0177   -1.2029 H   0  0  0  0  0  0  0  0  0  0  0  0
    1.9450   -1.6981    2.4759 C   0  0  0  0  0  0  0  0  0  0  0  0
    1.6377   -0.7873    3.0281 H   0  0  0  0  0  0  0  0  0  0  0  0
    2.6655   -2.2758    3.0810 H   0  0  0  0  0  0  0  0  0  0  0  0
    1.0281   -2.2907    2.2751 H   0  0  0  0  0  0  0  0  0  0  0  0
    8.1180    1.0130   -1.1878 C   0  0  0  0  0  0  0  0  0  0  0  0
    7.6141    1.9689   -0.9406 H   0  0  0  0  0  0  0  0  0  0  0  0
    8.6900    1.1329   -2.1278 H   0  0  0  0  0  0  0  0  0  0  0  0
    8.9993    0.5446   -0.0434 C   0  0  0  0  0  0  0  0  0  0  0  0
    8.4140    0.4581    0.8926 H   0  0  0  0  0  0  0  0  0  0  0  0
    9.8122    1.2785    0.1282 H   0  0  0  0  0  0  0  0  0  0  0  0
    9.4623   -0.4361   -0.2710 H   0  0  0  0  0  0  0  0  0  0  0  0
  1  7  1  0  0  0  0
  3  6  1  0  0  0  0
  4 16  1  0  0  0  0
  4  8  1  0  0  0  0
  5  3  1  0  0  0  0
  5  1  1  0  0  0  0
  6  7  2  0  0  0  0
  7 12  1  0  0  0  0
  8  2  2  0  0  0  0
  9 11  1  0  0  0  0
  9  8  1  0  0  0  0
  9  3  1  0  0  0  0
 10  9  1  0  0  0  0
 12 13  1  0  0  0  0
 12 14  1  0  0  0  0
 15 12  1  0  0  0  0
 16 17  1  0  0  0  0
 16 19  1  0  0  0  0
 18 16  1  0  0  0  0
 19 21  1  0  0  0  0
 19 20  1  0  0  0  0
 22 19  1  0  0  0  0
M  END
