1
q = 0.0, confidence = 0.998

 18 19  0  0  1  0  0  0  0  0999 V2000
   -1.9161    0.2626   -0.5797 N   0  0  0  0  0  2  0  0  0  0  0  0
   -3.6785    0.8061   -1.8091 N   0  0  0  0  0  0  0  0  0  0  0  0
   -4.2151    1.1371   -2.6094 H   0  0  0  0  0  0  0  0  0  0  0  0
   -1.4038    1.1406   -2.8669 C   0  0  0  0  0  0  0  0  0  0  0  0
   -0.7562    1.9737   -2.5200 H   0  0  0  0  0  0  0  0  0  0  0  0
   -1.9670    1.4580   -3.7643 H   0  0  0  0  0  0  0  0  0  0  0  0
   -0.7381    0.2936   -3.1307 H   0  0  0  0  0  0  0  0  0  0  0  0
   -2.3096    0.7354   -1.7627 C   0  0  1  0  0  3  0  0  0  0  0  0
   -4.1926    0.3574   -0.6001 C   0  0  0  0  0  0  0  0  0  0  0  0
   -5.4994    0.2135   -0.1112 C   0  0  0  0  0  0  0  0  0  0  0  0
   -6.3775    0.4821   -0.7160 H   0  0  0  0  0  0  0  0  0  0  0  0
   -5.6332   -0.2920    1.1886 C   0  0  0  0  0  0  0  0  0  0  0  0
   -6.6404   -0.4214    1.6118 H   0  0  0  0  0  0  0  0  0  0  0  0
   -4.5041   -0.6419    1.9685 C   0  0  0  0  0  0  0  0  0  0  0  0
   -4.6576   -1.0391    2.9827 H   0  0  0  0  0  0  0  0  0  0  0  0
   -3.2017   -0.4982    1.4781 C   0  0  0  0  0  0  0  0  0  0  0  0
   -2.3152   -0.7730    2.0658 H   0  0  0  0  0  0  0  0  0  0  0  0
   -3.0537    0.0108    0.1780 C   0  0  0  0  0  0  0  0  0  0  0  0
  1 18  1  0  0  0  0
  2  8  1  0  0  0  0
  2  9  1  0  0  0  0
  3  2  1  0  0  0  0
  4  5  1  0  0  0  0
  6  4  1  0  0  0  0
  7  4  1  0  0  0  0
  8  4  1  1  0  0  0
  8  1  1  0  0  0  0
  9 10  2  0  0  0  0
  9 18  1  0  0  0  0
 10 12  1  0  0  0  0
 11 10  1  0  0  0  0
 12 13  1  0  0  0  0
 12 14  2  0  0  0  0
 14 15  1  0  0  0  0
 16 14  1  0  0  0  0
 16 17  1  0  0  0  0
 18 16  2  0  0  0  0
M  END
