4
q = 0.0, confidence = 1.0

 22 23  0  0  0  0  0  0  0  0999 V2000
   -3.2699    1.5842   -1.1510 N   0  0  0  0  0  0  0  0  0  0  0  0
   -5.1413    0.8095    0.1684 N   0  0  0  0  0  0  0  0  0  0  0  0
   -4.6828   -1.2542    1.2412 N   0  0  0  0  0  0  0  0  0  0  0  0
   -1.7904   -0.0593   -0.7884 N   0  0  0  0  0  2  0  0  0  0  0  0
   -6.7549   -0.1829    1.5009 N   0  0  0  0  0  0  0  0  0  0  0  0
   -2.7318   -2.4549    1.1239 O   0  0  0  0  0  0  0  0  0  0  0  0
   -2.0136    1.1048   -1.4018 C   0  0  0  0  0  3  0  0  0  0  0  0
   -3.8924    0.6812   -0.3108 C   0  0  0  0  0  0  0  0  0  0  0  0
   -5.5169   -0.1918    0.9545 C   0  0  0  0  0  0  0  0  0  0  0  0
   -3.3494   -1.4495    0.7689 C   0  0  0  0  0  0  0  0  0  0  0  0
   -2.9585   -0.3543   -0.0884 C   0  0  0  0  0  0  0  0  0  0  0  0
   -3.8281    2.8686   -1.5859 C   0  0  0  0  0  0  0  0  0  0  0  0
   -3.5483    3.9900   -0.5893 C   0  0  0  0  0  0  0  0  0  0  0  0
   -1.2929    1.6335   -2.0349 H   0  0  0  0  0  0  0  0  0  0  0  0
   -4.9170    2.7092   -1.7094 H   0  0  0  0  0  0  0  0  0  0  0  0
   -3.4035    3.0918   -2.5846 H   0  0  0  0  0  0  0  0  0  0  0  0
   -3.9861    4.9380   -0.9579 H   0  0  0  0  0  0  0  0  0  0  0  0
   -4.0014    3.7630    0.3954 H   0  0  0  0  0  0  0  0  0  0  0  0
   -2.4599    4.1459   -0.4499 H   0  0  0  0  0  0  0  0  0  0  0  0
   -4.9975   -2.0116    1.8563 H   0  0  0  0  0  0  0  0  0  0  0  0
   -7.3629    0.6052    1.2817 H   0  0  0  0  0  0  0  0  0  0  0  0
   -7.1028   -0.9224    2.1064 H   0  0  0  0  0  0  0  0  0  0  0  0
  1  8  1  0  0  0  0
  2  9  2  0  0  0  0
  3 20  1  0  0  0  0
  4 11  1  0  0  0  0
  5 22  1  0  0  0  0
  7  1  1  0  0  0  0
  7  4  1  0  0  0  0
  8 11  2  0  0  0  0
  8  2  1  0  0  0  0
  9  3  1  0  0  0  0
  9  5  1  0  0  0  0
 10  6  2  0  0  0  0
 10  3  1  0  0  0  0
 11 10  1  0  0  0  0
 12  1  1  0  0  0  0
 12 13  1  0  0  0  0
 13 19  1  0  0  0  0
 13 18  1  0  0  0  0
 14  7  1  0  0  0  0
 15 12  1  0  0  0  0
 16 12  1  0  0  0  0
 17 13  1  0  0  0  0
 21  5  1  0  0  0  0
M  END
