3
q = 0.0, confidence = 0.992

 38 39  0  0  1  0  0  0  0  0999 V2000
    0.2046   -1.2747    0.4382 N   0  0  0  0  0  0  0  0  0  0  0  0
    0.1534   -1.0726    1.4536 H   0  0  0  0  0  0  0  0  0  0  0  0
   -2.4472   -0.9879   -0.1774 N   0  0  0  0  0  0  0  0  0  0  0  0
   -2.4325   -1.2607   -1.1741 H   0  0  0  0  0  0  0  0  0  0  0  0
   -3.8782   -0.8285    0.2164 C   0  0  0  0  0  0  0  0  0  0  0  0
   -4.4084   -0.2059   -0.5256 H   0  0  0  0  0  0  0  0  0  0  0  0
   -3.8794   -0.2992    1.1884 H   0  0  0  0  0  0  0  0  0  0  0  0
   -4.4220   -2.2790    0.3358 C   0  0  0  0  0  0  0  0  0  0  0  0
   -5.0895   -2.5364   -0.5087 H   0  0  0  0  0  0  0  0  0  0  0  0
   -5.0180   -2.3900    1.2613 H   0  0  0  0  0  0  0  0  0  0  0  0
   -3.1600   -3.1906    0.3542 C   0  0  0  0  0  0  0  0  0  0  0  0
   -3.0180   -3.7032   -0.6213 H   0  0  0  0  0  0  0  0  0  0  0  0
   -3.2063   -3.9742    1.1335 H   0  0  0  0  0  0  0  0  0  0  0  0
   -2.0281   -2.1944    0.6021 C   0  0  1  0  0  0  0  0  0  0  0  0
   -2.0530   -1.8652    1.6625 H   0  0  0  0  0  0  0  0  0  0  0  0
   -0.5990   -2.5200    0.2320 C   0  0  0  0  0  0  0  0  0  0  0  0
   -0.5237   -2.8409   -0.8235 H   0  0  0  0  0  0  0  0  0  0  0  0
   -0.1917   -3.3402    0.8587 H   0  0  0  0  0  0  0  0  0  0  0  0
    1.6099   -1.3607    0.0834 C   0  0  0  0  0  0  0  0  0  0  0  0
    2.0331   -1.6019   -1.2458 C   0  0  0  0  0  0  0  0  0  0  0  0
    3.4173   -1.6052   -1.5100 C   0  0  0  0  0  0  0  0  0  0  0  0
    3.7501   -1.7825   -2.5452 H   0  0  0  0  0  0  0  0  0  0  0  0
    4.3811   -1.3905   -0.5113 C   0  0  0  0  0  0  0  0  0  0  0  0
    3.9220   -1.1722    0.8017 C   0  0  0  0  0  0  0  0  0  0  0  0
    4.6534   -1.0116    1.6094 H   0  0  0  0  0  0  0  0  0  0  0  0
    2.5559   -1.1584    1.1242 C   0  0  0  0  0  0  0  0  0  0  0  0
    2.1169   -0.9513    2.5537 C   0  0  0  0  0  0  0  0  0  0  0  0
    1.6038   -1.8493    2.9610 H   0  0  0  0  0  0  0  0  0  0  0  0
    1.4155   -0.0995    2.6726 H   0  0  0  0  0  0  0  0  0  0  0  0
    2.9872   -0.7557    3.2066 H   0  0  0  0  0  0  0  0  0  0  0  0
    1.0845   -1.8639   -2.3917 C   0  0  0  0  0  0  0  0  0  0  0  0
    0.8771   -2.9496   -2.5063 H   0  0  0  0  0  0  0  0  0  0  0  0
    1.5268   -1.5283   -3.3497 H   0  0  0  0  0  0  0  0  0  0  0  0
    0.1125   -1.3508   -2.2638 H   0  0  0  0  0  0  0  0  0  0  0  0
    5.8547   -1.4171   -0.8202 C   0  0  0  0  0  0  0  0  0  0  0  0
    6.3850   -0.5698   -0.3413 H   0  0  0  0  0  0  0  0  0  0  0  0
    6.0482   -1.3773   -1.9088 H   0  0  0  0  0  0  0  0  0  0  0  0
    6.3213   -2.3470   -0.4317 H   0  0  0  0  0  0  0  0  0  0  0  0
  1  2  1  0  0  0  0
  3  5  1  0  0  0  0
  3 14  1  0  0  0  0
  4  3  1  0  0  0  0
  5  8  1  0  0  0  0
  5  7  1  0  0  0  0
  6  5  1  0  0  0  0
  8 11  1  0  0  0  0
  8 10  1  0  0  0  0
  9  8  1  0  0  0  0
 11 14  1  0  0  0  0
 11 13  1  0  0  0  0
 12 11  1  0  0  0  0
 14 15  1  1  0  0  0
 16  1  1  0  0  0  0
 16 14  1  0  0  0  0
 16 18  1  0  0  0  0
 17 16  1  0  0  0  0
 19  1  1  0  0  0  0
 19 26  1  0  0  0  0
 20 19  2  0  0  0  0
 21 20  1  0  0  0  0
 21 23  2  0  0  0  0
 22 21  1  0  0  0  0
 23 24  1  0  0  0  0
 24 26  2  0  0  0  0
 24 25  1  0  0  0  0
 26 27  1  0  0  0  0
 27 29  1  0  0  0  0
 27 28  1  0  0  0  0
 27 30  1  0  0  0  0
 31 34  1  0  0  0  0
 31 20  1  0  0  0  0
 32 31  1  0  0  0  0
 33 31  1  0  0  0  0
 35 23  1  0  0  0  0
 35 38  1  0  0  0  0
 35 36  1  0  0  0  0
 37 35  1  0  0  0  0
M  END
