3
q = -1.0, confidence = 0.0

  8  8  0  0  0  0  0  0  0  0999 V2000
    6.5256    0.3049    0.0118 Cl  0  0  0  0  0  0  0  0  0  0  0  0
    3.3271    1.8433    0.1089 Cl  0  0  0  0  0  0  0  0  0  0  0  0
    2.7771   -0.8252   -0.0068 N   0  0  0  0  0  0  0  0  0  0  0  0
    4.8128   -1.8145   -0.0674 N   0  0  0  0  0  0  0  0  0  0  0  0
    3.4928   -1.9960   -0.0646 C   0  0  0  0  0  0  0  0  0  0  0  0
    2.9981   -2.9755   -0.1032 H   0  0  0  0  0  0  0  0  0  0  0  0
    4.9762   -0.4641   -0.0099 C   0  0  0  0  0  0  0  0  0  0  0  0
    3.7356    0.1666    0.0278 C   0  0  0  0  0  3  0  0  0  0  0  0
  3  8  1  0  0  0  0
  4  5  1  0  0  0  0
  4  7  2  0  0  0  0
  5  3  2  0  0  0  0
  6  5  1  0  0  0  0
  7  1  1  0  0  0  0
  7  8  1  0  0  0  0
  8  2  1  0  0  0  0
M  END
