3
q = 0.0, confidence = 0.994

 46 50  0  0  1  0  0  0  0  0999 V2000
    3.8641   -2.1776   -1.4114 S   0  0  0  0  0  0  0  0  0  0  0  0
    0.5135    0.0965    0.6330 P   0  0  1  0  0  0  0  0  0  0  0  0
   -1.6288    1.9809    0.4979 N   0  0  0  0  0  2  0  0  0  0  0  0
    0.7299    1.8742    0.3133 C   0  0  0  0  0  0  0  0  0  0  0  0
    1.8486    2.0975   -0.4649 C   0  0  0  0  0  0  0  0  0  0  0  0
    2.2417    3.4305   -1.0488 C   0  0  0  0  0  0  0  0  0  0  0  0
    2.7545    4.0174   -0.2525 H   0  0  0  0  0  0  0  0  0  0  0  0
    1.3294    4.0121   -1.3011 H   0  0  0  0  0  0  0  0  0  0  0  0
    3.1866    3.3004   -2.2496 C   0  0  0  0  0  0  0  0  0  0  0  0
    2.6337    2.8943   -3.1263 H   0  0  0  0  0  0  0  0  0  0  0  0
    3.5523    4.3031   -2.5466 H   0  0  0  0  0  0  0  0  0  0  0  0
    4.3510    2.3734   -1.8982 C   0  0  0  0  0  0  0  0  0  0  0  0
    4.8717    2.7693   -0.9991 H   0  0  0  0  0  0  0  0  0  0  0  0
    5.1046    2.3527   -2.7097 H   0  0  0  0  0  0  0  0  0  0  0  0
    3.8588    0.9447   -1.6256 C   0  0  0  0  0  0  0  0  0  0  0  0
    3.6666    0.4245   -2.5932 H   0  0  0  0  0  0  0  0  0  0  0  0
    4.6591    0.3467   -1.1369 H   0  0  0  0  0  0  0  0  0  0  0  0
    2.6030    0.8776   -0.7932 C   0  0  0  0  0  0  0  0  0  0  0  0
    2.0240   -0.3080   -0.3436 C   0  0  0  0  0  0  0  0  0  0  0  0
    2.4440   -1.6727   -0.4915 C   0  0  0  0  0  0  0  0  0  0  0  0
    1.8049   -2.8048    0.0409 C   0  0  0  0  0  0  0  0  0  0  0  0
    0.9033   -2.7345    0.6639 H   0  0  0  0  0  0  0  0  0  0  0  0
    2.4448   -4.0258   -0.2834 C   0  0  0  0  0  0  0  0  0  0  0  0
    2.0968   -5.0128    0.0490 H   0  0  0  0  0  0  0  0  0  0  0  0
    3.5720   -3.8409   -1.0705 C   0  0  0  0  0  0  0  0  0  0  0  0
    4.2527   -4.6030   -1.4707 H   0  0  0  0  0  0  0  0  0  0  0  0
   -0.4461    2.6804    0.5835 C   0  0  2  0  0  3  0  0  0  0  0  0
   -0.4542    4.0450    0.9367 C   0  0  0  0  0  0  0  0  0  0  0  0
    0.4989    4.5841    1.0166 H   0  0  0  0  0  0  0  0  0  0  0  0
   -1.6683    4.6776    1.2258 C   0  0  0  0  0  0  0  0  0  0  0  0
   -1.6854    5.7407    1.5078 H   0  0  0  0  0  0  0  0  0  0  0  0
   -2.8566    3.9318    1.1821 C   0  0  0  0  0  0  0  0  0  0  0  0
   -3.8277    4.3805    1.4318 H   0  0  0  0  0  0  0  0  0  0  0  0
   -2.7931    2.5818    0.8216 C   0  0  0  0  0  0  0  0  0  0  0  0
   -3.6851    1.9393    0.7978 H   0  0  0  0  0  0  0  0  0  0  0  0
    0.9806   -0.2695    2.3620 C   0  0  0  0  0  0  0  0  0  0  0  0
    2.0973    0.3946    2.9130 C   0  0  0  0  0  0  0  0  0  0  0  0
    2.6391    1.1503    2.3235 H   0  0  0  0  0  0  0  0  0  0  0  0
    2.5138    0.0842    4.2134 C   0  0  0  0  0  0  0  0  0  0  0  0
    3.3820    0.6026    4.6470 H   0  0  0  0  0  0  0  0  0  0  0  0
    1.8257   -0.8879    4.9606 C   0  0  0  0  0  0  0  0  0  0  0  0
    2.1565   -1.1291    5.9819 H   0  0  0  0  0  0  0  0  0  0  0  0
    0.7174   -1.5468    4.4087 C   0  0  0  0  0  0  0  0  0  0  0  0
    0.1733   -2.3010    4.9963 H   0  0  0  0  0  0  0  0  0  0  0  0
    0.2870   -1.2410    3.1080 C   0  0  0  0  0  0  0  0  0  0  0  0
   -0.6059   -1.7230    2.6860 H   0  0  0  0  0  0  0  0  0  0  0  0
  1 25  1  0  0  0  0
  1 20  1  0  0  0  0
  2 36  1  1  0  0  0
  3 27  1  0  0  0  0
  3 34  1  0  0  0  0
  4  2  1  0  0  0  0
  5  4  2  0  0  0  0
  6  5  1  0  0  0  0
  6  7  1  0  0  0  0
  8  6  1  0  0  0  0
  9 12  1  0  0  0  0
  9  6  1  0  0  0  0
 10  9  1  0  0  0  0
 11  9  1  0  0  0  0
 12 15  1  0  0  0  0
 12 13  1  0  0  0  0
 14 12  1  0  0  0  0
 15 17  1  0  0  0  0
 15 18  1  0  0  0  0
 16 15  1  0  0  0  0
 18  5  1  0  0  0  0
 18 19  2  0  0  0  0
 19  2  1  0  0  0  0
 20 19  1  0  0  0  0
 20 21  2  0  0  0  0
 21 22  1  0  0  0  0
 23 21  1  0  0  0  0
 23 24  1  0  0  0  0
 25 23  2  0  0  0  0
 26 25  1  0  0  0  0
 27  4  1  1  0  0  0
 27 28  1  0  0  0  0
 28 29  1  0  0  0  0
 28 30  2  0  0  0  0
 30 31  1  0  0  0  0
 32 30  1  0  0  0  0
 32 33  1  0  0  0  0
 34 32  2  0  0  0  0
 35 34  1  0  0  0  0
 36 37  2  0  0  0  0
 36 45  1  0  0  0  0
 37 39  1  0  0  0  0
 38 37  1  0  0  0  0
 39 40  1  0  0  0  0
 39 41  2  0  0  0  0
 41 42  1  0  0  0  0
 43 41  1  0  0  0  0
 43 44  1  0  0  0  0
 45 43  2  0  0  0  0
 46 45  1  0  0  0  0
M  END
