3
q = 0.0, confidence = 1.0

 36 38  0  0  0  0  0  0  0  0999 V2000
    2.3487    0.6194   -1.0974 S   0  0  0  0  0  0  0  0  0  0  0  0
   -4.4218    0.1313   -1.4315 S   0  0  0  0  0  0  0  0  0  0  0  0
   -0.1063   -0.9252   -1.0056 N   0  0  0  0  0  2  0  0  0  0  0  0
   -0.0001   -0.2589   -2.2063 C   0  0  0  0  0  0  0  0  0  0  0  0
   -1.3120   -1.4116   -0.8329 N   0  0  0  0  0  2  0  0  0  0  0  0
   -2.0053   -1.0695   -1.9238 N   0  0  0  0  0  0  0  0  0  0  0  0
    1.7593    2.2352   -0.5538 C   0  0  0  0  0  0  0  0  0  0  0  0
    0.4168    2.4786   -0.2053 C   0  0  0  0  0  0  0  0  0  0  0  0
   -0.3260    1.6691   -0.2391 H   0  0  0  0  0  0  0  0  0  0  0  0
   -3.1340    1.4543    0.6231 C   0  0  0  0  0  0  0  0  0  0  0  0
   -2.9262    2.2204   -0.1394 H   0  0  0  0  0  0  0  0  0  0  0  0
   -3.8455    0.2949    0.2581 C   0  0  0  0  0  0  0  0  0  0  0  0
   -1.2487   -0.3412   -2.8017 C   0  0  0  0  0  0  0  0  0  0  0  0
   -1.6465    0.0502   -3.7427 H   0  0  0  0  0  0  0  0  0  0  0  0
   -3.4386   -1.3246   -1.9500 C   0  0  0  0  0  0  0  0  0  0  0  0
   -3.6193   -2.1973   -1.2954 H   0  0  0  0  0  0  0  0  0  0  0  0
   -3.7529   -1.5674   -2.9828 H   0  0  0  0  0  0  0  0  0  0  0  0
    2.7220    3.2582   -0.4796 C   0  0  0  0  0  0  0  0  0  0  0  0
    3.7663    3.0532   -0.7599 H   0  0  0  0  0  0  0  0  0  0  0  0
    0.9965    4.7956    0.2789 C   0  0  0  0  0  0  0  0  0  0  0  0
    0.6936    5.8021    0.6032 H   0  0  0  0  0  0  0  0  0  0  0  0
    0.0411    3.7670    0.1992 C   0  0  0  0  0  0  0  0  0  0  0  0
   -1.0086    3.9721    0.4586 H   0  0  0  0  0  0  0  0  0  0  0  0
    1.3072    0.3259   -2.6063 C   0  0  0  0  0  0  0  0  0  0  0  0
    1.2195    1.2763   -3.1657 H   0  0  0  0  0  0  0  0  0  0  0  0
    1.9039   -0.4047   -3.1896 H   0  0  0  0  0  0  0  0  0  0  0  0
    2.3347    4.5397   -0.0545 C   0  0  0  0  0  0  0  0  0  0  0  0
    3.0849    5.3418    0.0073 H   0  0  0  0  0  0  0  0  0  0  0  0
   -2.9911    0.6412    2.9136 C   0  0  0  0  0  0  0  0  0  0  0  0
   -2.6689    0.7810    3.9564 H   0  0  0  0  0  0  0  0  0  0  0  0
   -2.7174    1.6283    1.9533 C   0  0  0  0  0  0  0  0  0  0  0  0
   -2.1818    2.5454    2.2432 H   0  0  0  0  0  0  0  0  0  0  0  0
   -4.1397   -0.6864    1.2259 C   0  0  0  0  0  0  0  0  0  0  0  0
   -4.7267   -1.5746    0.9474 H   0  0  0  0  0  0  0  0  0  0  0  0
   -3.6988   -0.5174    2.5461 C   0  0  0  0  0  0  0  0  0  0  0  0
   -3.9342   -1.2828    3.3008 H   0  0  0  0  0  0  0  0  0  0  0  0
  1  7  1  0  0  0  0
  2 12  1  0  0  0  0
  3  5  1  0  0  0  0
  4  3  1  0  0  0  0
  6  5  1  0  0  0  0
  7 18  2  0  0  0  0
  7  8  1  0  0  0  0
  8 22  2  0  0  0  0
  9  8  1  0  0  0  0
 10 31  1  0  0  0  0
 11 10  1  0  0  0  0
 12 10  2  0  0  0  0
 12 33  1  0  0  0  0
 13  4  2  0  0  0  0
 13  6  1  0  0  0  0
 14 13  1  0  0  0  0
 15  6  1  0  0  0  0
 15  2  1  0  0  0  0
 15 16  1  0  0  0  0
 17 15  1  0  0  0  0
 18 27  1  0  0  0  0
 19 18  1  0  0  0  0
 20 21  1  0  0  0  0
 22 20  1  0  0  0  0
 22 23  1  0  0  0  0
 24  4  1  0  0  0  0
 24  1  1  0  0  0  0
 25 24  1  0  0  0  0
 26 24  1  0  0  0  0
 27 28  1  0  0  0  0
 27 20  2  0  0  0  0
 29 30  1  0  0  0  0
 31 32  1  0  0  0  0
 31 29  2  0  0  0  0
 33 35  2  0  0  0  0
 34 33  1  0  0  0  0
 35 29  1  0  0  0  0
 35 36  1  0  0  0  0
M  END
