1
q = 0.0, confidence = 0.982

  8  8  0  0  0  0  0  0  0  0999 V2000
   -2.0328   -0.0138   -0.0028 N   0  0  0  0  0  2  0  0  0  0  0  0
   -2.8200    1.0292    0.1777 C   0  0  0  0  0  3  0  0  0  0  0  0
   -2.5075    2.0678    0.3343 H   0  0  0  0  0  0  0  0  0  0  0  0
   -4.1171    0.6974    0.1228 O   0  0  0  0  0  0  0  0  0  0  0  0
   -4.1553   -0.6569   -0.1107 C   0  0  0  0  0  0  0  0  0  0  0  0
   -5.1432   -1.1180   -0.1892 H   0  0  0  0  0  0  0  0  0  0  0  0
   -2.8712   -1.1130   -0.1895 C   0  0  0  0  0  0  0  0  0  0  0  0
   -2.4499   -2.1125   -0.3416 H   0  0  0  0  0  0  0  0  0  0  0  0
  1  2  1  0  0  0  0
  2  3  1  0  0  0  0
  4  2  1  0  0  0  0
  5  4  1  0  0  0  0
  6  5  1  0  0  0  0
  7  5  2  0  0  0  0
  7  1  1  0  0  0  0
  8  7  1  0  0  0  0
M  END
