1
q = 0.0, confidence = 0.992

 29 31  0  0  0  0  0  0  0  0999 V2000
    2.0079    1.2325   -0.6070 N   0  0  0  0  0  2  0  0  0  0  0  0
    3.9109    1.9785   -1.4147 N   0  0  0  0  0  0  0  0  0  0  0  0
    2.5682    2.1574   -1.3921 C   0  0  0  0  0  3  0  0  0  0  0  0
    2.0435    2.9486   -1.9379 H   0  0  0  0  0  0  0  0  0  0  0  0
    3.0294    0.4270   -0.1092 C   0  0  0  0  0  0  0  0  0  0  0  0
    4.2466    0.8889   -0.6220 C   0  0  0  0  0  0  0  0  0  0  0  0
    2.7569   -0.6834    0.8195 C   0  0  0  0  0  0  0  0  0  0  0  0
    1.7470   -1.6242    0.5162 C   0  0  0  0  0  0  0  0  0  0  0  0
    1.2081   -1.5508   -0.4411 H   0  0  0  0  0  0  0  0  0  0  0  0
    1.4601   -2.6686    1.4075 C   0  0  0  0  0  0  0  0  0  0  0  0
    0.6781   -3.4026    1.1593 H   0  0  0  0  0  0  0  0  0  0  0  0
    2.1823   -2.7908    2.6051 C   0  0  0  0  0  0  0  0  0  0  0  0
    1.9598   -3.6123    3.3022 H   0  0  0  0  0  0  0  0  0  0  0  0
    3.1954   -1.8657    2.9076 C   0  0  0  0  0  0  0  0  0  0  0  0
    3.7631   -1.9579    3.8454 H   0  0  0  0  0  0  0  0  0  0  0  0
    3.4821   -0.8168    2.0237 C   0  0  0  0  0  0  0  0  0  0  0  0
    4.2678   -0.0863    2.2667 H   0  0  0  0  0  0  0  0  0  0  0  0
    5.6287    0.4204   -0.4738 C   0  0  0  0  0  0  0  0  0  0  0  0
    5.9092   -0.9597   -0.3469 C   0  0  0  0  0  0  0  0  0  0  0  0
    5.0845   -1.6862   -0.3658 H   0  0  0  0  0  0  0  0  0  0  0  0
    7.2313   -1.4013   -0.2176 C   0  0  0  0  0  0  0  0  0  0  0  0
    7.4374   -2.4779   -0.1248 H   0  0  0  0  0  0  0  0  0  0  0  0
    8.2916   -0.4797   -0.2192 C   0  0  0  0  0  0  0  0  0  0  0  0
    9.3290   -0.8316   -0.1197 H   0  0  0  0  0  0  0  0  0  0  0  0
    8.0235    0.8920   -0.3483 C   0  0  0  0  0  0  0  0  0  0  0  0
    8.8485    1.6197   -0.3422 H   0  0  0  0  0  0  0  0  0  0  0  0
    6.7020    1.3413   -0.4706 C   0  0  0  0  0  0  0  0  0  0  0  0
    6.5035    2.4232   -0.5328 H   0  0  0  0  0  0  0  0  0  0  0  0
    4.5752    2.5119   -1.9795 H   0  0  0  0  0  0  0  0  0  0  0  0
  1  5  1  0  0  0  0
  2  3  1  0  0  0  0
  2  6  1  0  0  0  0
  3  1  1  0  0  0  0
  4  3  1  0  0  0  0
  5  7  1  0  0  0  0
  6 18  1  0  0  0  0
  6  5  2  0  0  0  0
  7 16  1  0  0  0  0
  8  7  2  0  0  0  0
  8 10  1  0  0  0  0
  9  8  1  0  0  0  0
 10 12  2  0  0  0  0
 11 10  1  0  0  0  0
 12 14  1  0  0  0  0
 12 13  1  0  0  0  0
 14 15  1  0  0  0  0
 16 17  1  0  0  0  0
 16 14  2  0  0  0  0
 18 27  2  0  0  0  0
 18 19  1  0  0  0  0
 19 21  2  0  0  0  0
 20 19  1  0  0  0  0
 21 22  1  0  0  0  0
 23 21  1  0  0  0  0
 23 24  1  0  0  0  0
 25 26  1  0  0  0  0
 25 23  2  0  0  0  0
 27 25  1  0  0  0  0
 28 27  1  0  0  0  0
 29  2  1  0  0  0  0
M  END
