2
q = 0.0, confidence = 0.976

 21 22  0  0  1  0  0  0  0  0999 V2000
   -5.8922    3.4071   -0.0057 Cl  0  0  0  0  0  0  0  0  0  0  0  0
    1.4637   -0.8198   -1.5746 N   0  0  0  0  0  2  0  0  0  0  0  0
    2.3297    0.8994   -2.6817 N   0  0  0  0  0  0  0  0  0  0  0  0
    2.3909    1.8276   -3.1044 H   0  0  0  0  0  0  0  0  0  0  0  0
    0.0990    1.1885   -1.8707 N   0  0  0  0  0  2  0  0  0  0  0  0
   -0.8625    0.5587   -1.3175 N   0  0  0  0  0  2  0  0  0  0  0  0
    1.2294    0.4202   -2.0170 C   0  0  2  0  0  3  0  0  0  0  0  0
    2.7268   -1.1485   -1.9619 C   0  0  0  0  0  0  0  0  0  0  0  0
    3.1747   -2.1089   -1.6828 H   0  0  0  0  0  0  0  0  0  0  0  0
    3.2896   -0.0799   -2.6652 C   0  0  0  0  0  0  0  0  0  0  0  0
    4.2722    0.0517   -3.1285 H   0  0  0  0  0  0  0  0  0  0  0  0
   -2.0265    1.2914   -1.0625 C   0  0  0  0  0  0  0  0  0  0  0  0
   -2.0553    2.7044   -0.9656 C   0  0  0  0  0  0  0  0  0  0  0  0
   -1.1238    3.2644   -1.1303 H   0  0  0  0  0  0  0  0  0  0  0  0
   -3.2446    3.3549   -0.6406 C   0  0  0  0  0  0  0  0  0  0  0  0
   -3.2864    4.4489   -0.5409 H   0  0  0  0  0  0  0  0  0  0  0  0
   -4.4138    2.5927   -0.4299 C   0  0  0  0  0  0  0  0  0  0  0  0
   -4.4011    1.1908   -0.5431 C   0  0  0  0  0  0  0  0  0  0  0  0
   -5.3271    0.6213   -0.3828 H   0  0  0  0  0  0  0  0  0  0  0  0
   -3.2036    0.5366   -0.8456 C   0  0  0  0  0  0  0  0  0  0  0  0
   -3.1465   -0.5633   -0.9271 H   0  0  0  0  0  0  0  0  0  0  0  0
  3 10  1  0  0  0  0
  3  7  1  0  0  0  0
  4  3  1  0  0  0  0
  5  6  1  0  0  0  0
  6 12  1  0  0  0  0
  7  5  1  1  0  0  0
  7  2  1  0  0  0  0
  8  9  1  0  0  0  0
  8  2  1  0  0  0  0
 10  8  2  0  0  0  0
 11 10  1  0  0  0  0
 12 13  2  0  0  0  0
 12 20  1  0  0  0  0
 13 15  1  0  0  0  0
 14 13  1  0  0  0  0
 15 16  1  0  0  0  0
 15 17  2  0  0  0  0
 17  1  1  0  0  0  0
 18 17  1  0  0  0  0
 18 19  1  0  0  0  0
 20 18  2  0  0  0  0
 21 20  1  0  0  0  0
M  END
