1
q = -1.0, confidence = 0.0

  6  6  0  0  0  0  0  0  0  0999 V2000
    3.4788   -0.1102    0.0039 N   0  0  0  0  0  0  0  0  0  0  0  0
    4.1693    1.0473   -0.1903 N   0  0  0  0  0  0  0  0  0  0  0  0
    5.4412    0.7562   -0.1396 N   0  0  0  0  0  0  0  0  0  0  0  0
    5.6284   -0.5713    0.0845 N   0  0  0  0  0  0  0  0  0  0  0  0
    4.4058   -1.0873    0.1700 C   0  0  0  0  0  3  0  0  0  0  0  0
    4.1622   -2.1414    0.3477 H   0  0  0  0  0  0  0  0  0  0  0  0
  1  5  1  0  0  0  0
  2  3  1  0  0  0  0
  2  1  2  0  0  0  0
  3  4  2  0  0  0  0
  4  5  1  0  0  0  0
  5  6  1  0  0  0  0
M  END
