1
q = 0.0, confidence = 0.824

 28 29  0  0  1  0  0  0  0  0999 V2000
    0.6538    1.2326   -0.8127 N   0  0  0  0  0  2  0  0  0  0  0  0
    1.3989    2.3939   -0.8842 C   0  0  0  0  0  0  0  0  0  0  0  0
    2.3411    2.6987    0.1320 C   0  0  0  0  0  0  0  0  0  0  0  0
    2.4699    1.9887    0.9619 H   0  0  0  0  0  0  0  0  0  0  0  0
    3.0981    3.8738    0.0706 C   0  0  0  0  0  0  0  0  0  0  0  0
    3.8250    4.0902    0.8689 H   0  0  0  0  0  0  0  0  0  0  0  0
    2.9412    4.7703   -1.0012 C   0  0  0  0  0  0  0  0  0  0  0  0
    3.5391    5.6923   -1.0480 H   0  0  0  0  0  0  0  0  0  0  0  0
    2.0133    4.4712   -2.0137 C   0  0  0  0  0  0  0  0  0  0  0  0
    1.8806    5.1648   -2.8587 H   0  0  0  0  0  0  0  0  0  0  0  0
    1.2474    3.3003   -1.9649 C   0  0  0  0  0  0  0  0  0  0  0  0
    0.5132    3.0756   -2.7516 H   0  0  0  0  0  0  0  0  0  0  0  0
   -1.5387    1.0981   -1.9665 C   0  0  0  0  0  0  0  0  0  0  0  0
   -2.0438    2.1331   -1.1404 C   0  0  0  0  0  0  0  0  0  0  0  0
   -1.3866    2.5777   -0.3791 H   0  0  0  0  0  0  0  0  0  0  0  0
   -3.3588    2.5927   -1.2763 C   0  0  0  0  0  0  0  0  0  0  0  0
   -3.7207    3.3963   -0.6171 H   0  0  0  0  0  0  0  0  0  0  0  0
   -4.2139    2.0307   -2.2385 C   0  0  0  0  0  0  0  0  0  0  0  0
   -5.2498    2.3876   -2.3413 H   0  0  0  0  0  0  0  0  0  0  0  0
   -3.7261    1.0139   -3.0750 C   0  0  0  0  0  0  0  0  0  0  0  0
   -4.3793    0.5712   -3.8434 H   0  0  0  0  0  0  0  0  0  0  0  0
   -2.4050    0.5616   -2.9485 C   0  0  0  0  0  0  0  0  0  0  0  0
   -2.0426   -0.2275   -3.6219 H   0  0  0  0  0  0  0  0  0  0  0  0
   -0.1519    0.5847   -1.7844 C   0  0  1  0  0  3  0  0  0  0  0  0
    0.5485   -0.0087   -3.0043 C   0  0  0  0  0  0  0  0  0  0  0  0
    1.6038   -0.2465   -2.7682 H   0  0  0  0  0  0  0  0  0  0  0  0
    0.5379    0.6914   -3.8697 H   0  0  0  0  0  0  0  0  0  0  0  0
    0.0656   -0.9482   -3.3420 H   0  0  0  0  0  0  0  0  0  0  0  0
  2  1  1  0  0  0  0
  2  3  1  0  0  0  0
  3  4  1  0  0  0  0
  5  3  2  0  0  0  0
  5  6  1  0  0  0  0
  7  5  1  0  0  0  0
  8  7  1  0  0  0  0
  9 11  1  0  0  0  0
  9  7  2  0  0  0  0
 10  9  1  0  0  0  0
 11  2  2  0  0  0  0
 12 11  1  0  0  0  0
 13 24  1  0  0  0  0
 13 14  1  0  0  0  0
 14 15  1  0  0  0  0
 16 14  2  0  0  0  0
 16 17  1  0  0  0  0
 18 16  1  0  0  0  0
 19 18  1  0  0  0  0
 20 22  1  0  0  0  0
 20 18  2  0  0  0  0
 21 20  1  0  0  0  0
 22 13  2  0  0  0  0
 23 22  1  0  0  0  0
 24  1  1  6  0  0  0
 25 26  1  0  0  0  0
 25 24  1  0  0  0  0
 27 25  1  0  0  0  0
 28 25  1  0  0  0  0
M  END
