2
q = -2.0, confidence = 0.786

 54 56  0  0  1  0  0  0  0  0999 V2000
   -0.3458   -1.4131   -1.1918 Si  0  0  0  0  0  0  0  0  0  0  0  0
   -0.2777   -0.7792    0.4669 N   0  0  0  0  0  2  0  0  0  0  0  0
    1.3638   -0.7167   -1.6307 C   0  0  0  0  0  0  0  0  0  0  0  0
    2.5892   -1.2627   -1.0877 C   0  0  1  0  0  3  0  0  0  0  0  0
    3.5319   -0.1986   -0.9349 C   0  0  0  0  0  0  0  0  0  0  0  0
    2.9106    1.0172   -1.3994 C   0  0  0  0  0  0  0  0  0  0  0  0
    1.5867    0.6995   -1.8369 C   0  0  0  0  0  0  0  0  0  0  0  0
    2.8368   -2.7009   -0.7172 C   0  0  0  0  0  0  0  0  0  0  0  0
    3.8722   -2.8491   -0.3572 H   0  0  0  0  0  0  0  0  0  0  0  0
    2.6827   -3.3682   -1.5898 H   0  0  0  0  0  0  0  0  0  0  0  0
    2.1581   -3.0546    0.0855 H   0  0  0  0  0  0  0  0  0  0  0  0
    4.9596   -0.3152   -0.4860 C   0  0  0  0  0  0  0  0  0  0  0  0
    5.1182   -1.1926    0.1696 H   0  0  0  0  0  0  0  0  0  0  0  0
    5.2903    0.5809    0.0767 H   0  0  0  0  0  0  0  0  0  0  0  0
    5.6450   -0.4175   -1.3555 H   0  0  0  0  0  0  0  0  0  0  0  0
    3.5994    2.3471   -1.5014 C   0  0  0  0  0  0  0  0  0  0  0  0
    4.3062    2.5117   -0.6633 H   0  0  0  0  0  0  0  0  0  0  0  0
    2.8803    3.1882   -1.4957 H   0  0  0  0  0  0  0  0  0  0  0  0
    4.1928    2.4192   -2.4390 H   0  0  0  0  0  0  0  0  0  0  0  0
    0.5964    1.6921   -2.3869 C   0  0  0  0  0  0  0  0  0  0  0  0
    0.2503    1.3902   -3.3963 H   0  0  0  0  0  0  0  0  0  0  0  0
    1.0477    2.6985   -2.4721 H   0  0  0  0  0  0  0  0  0  0  0  0
   -0.3074    1.7919   -1.7515 H   0  0  0  0  0  0  0  0  0  0  0  0
   -0.4793   -3.3007   -1.2903 C   0  0  0  0  0  0  0  0  0  0  0  0
    0.1958   -3.8272   -0.5905 H   0  0  0  0  0  0  0  0  0  0  0  0
   -0.2528   -3.6489   -2.3199 H   0  0  0  0  0  0  0  0  0  0  0  0
   -1.5220   -3.6014   -1.0576 H   0  0  0  0  0  0  0  0  0  0  0  0
   -1.7247   -0.7472   -2.3022 C   0  0  0  0  0  0  0  0  0  0  0  0
   -2.6829   -1.2531   -2.0671 H   0  0  0  0  0  0  0  0  0  0  0  0
   -1.4718   -0.9649   -3.3615 H   0  0  0  0  0  0  0  0  0  0  0  0
   -1.8859    0.3409   -2.1992 H   0  0  0  0  0  0  0  0  0  0  0  0
   -1.2960   -0.9568    1.5144 C   0  0  2  0  0  0  0  0  0  0  0  0
   -1.1633   -0.1463    2.2679 H   0  0  0  0  0  0  0  0  0  0  0  0
   -1.0871   -2.2767    2.2680 C   0  0  0  0  0  0  0  0  0  0  0  0
   -1.1410   -3.1495    1.5873 H   0  0  0  0  0  0  0  0  0  0  0  0
   -1.8345   -2.4122    3.0763 H   0  0  0  0  0  0  0  0  0  0  0  0
   -0.0760   -2.2753    2.7206 H   0  0  0  0  0  0  0  0  0  0  0  0
   -2.6946   -0.7803    0.9246 C   0  0  0  0  0  0  0  0  0  0  0  0
   -3.5601   -1.8576    0.7590 C   0  0  0  0  0  0  0  0  0  0  0  0
   -3.2646   -2.8527    1.1201 H   0  0  0  0  0  0  0  0  0  0  0  0
   -4.8209   -1.7133    0.1212 C   0  0  0  0  0  0  0  0  0  0  0  0
   -5.4740   -2.5920    0.0083 H   0  0  0  0  0  0  0  0  0  0  0  0
   -5.2224   -0.4790   -0.3591 C   0  0  0  0  0  0  0  0  0  0  0  0
   -6.1942   -0.3585   -0.8628 H   0  0  0  0  0  0  0  0  0  0  0  0
   -4.3798    0.6616   -0.2086 C   0  0  0  0  0  0  0  0  0  0  0  0
   -4.7692    1.9399   -0.7079 C   0  0  0  0  0  0  0  0  0  0  0  0
   -5.7463    2.0321   -1.2076 H   0  0  0  0  0  0  0  0  0  0  0  0
   -3.9404    3.0431   -0.5758 C   0  0  0  0  0  0  0  0  0  0  0  0
   -4.2522    4.0217   -0.9712 H   0  0  0  0  0  0  0  0  0  0  0  0
   -2.6860    2.9082    0.0752 C   0  0  0  0  0  0  0  0  0  0  0  0
   -2.0276    3.7838    0.1839 H   0  0  0  0  0  0  0  0  0  0  0  0
   -2.2810    1.6788    0.5756 C   0  0  0  0  0  0  0  0  0  0  0  0
   -1.3001    1.5948    1.0596 H   0  0  0  0  0  0  0  0  0  0  0  0
   -3.1023    0.5178    0.4483 C   0  0  0  0  0  0  0  0  0  0  0  0
  1  2  1  0  0  0  0
  2 32  1  0  0  0  0
  3  1  1  0  0  0  0
  3  4  1  0  0  0  0
  4  5  1  0  0  0  0
  4  8  1  1  0  0  0
  5 12  1  0  0  0  0
  6  5  2  0  0  0  0
  7  3  2  0  0  0  0
  7  6  1  0  0  0  0
  8  9  1  0  0  0  0
  8 11  1  0  0  0  0
 10  8  1  0  0  0  0
 12 14  1  0  0  0  0
 12 13  1  0  0  0  0
 15 12  1  0  0  0  0
 16 18  1  0  0  0  0
 16  6  1  0  0  0  0
 16 17  1  0  0  0  0
 19 16  1  0  0  0  0
 20  7  1  0  0  0  0
 20 23  1  0  0  0  0
 21 20  1  0  0  0  0
 22 20  1  0  0  0  0
 24  1  1  0  0  0  0
 24 27  1  0  0  0  0
 24 25  1  0  0  0  0
 26 24  1  0  0  0  0
 28 31  1  0  0  0  0
 28 29  1  0  0  0  0
 28  1  1  0  0  0  0
 30 28  1  0  0  0  0
 32 33  1  1  0  0  0
 32 34  1  0  0  0  0
 34 37  1  0  0  0  0
 34 36  1  0  0  0  0
 35 34  1  0  0  0  0
 38 32  1  0  0  0  0
 39 38  1  0  0  0  0
 39 40  1  0  0  0  0
 41 39  2  0  0  0  0
 42 41  1  0  0  0  0
 43 45  2  0  0  0  0
 43 41  1  0  0  0  0
 44 43  1  0  0  0  0
 45 54  1  0  0  0  0
 46 48  2  0  0  0  0
 46 45  1  0  0  0  0
 47 46  1  0  0  0  0
 48 50  1  0  0  0  0
 49 48  1  0  0  0  0
 50 51  1  0  0  0  0
 50 52  2  0  0  0  0
 52 53  1  0  0  0  0
 54 52  1  0  0  0  0
 54 38  2  0  0  0  0
M  END
