1
q = 0.0, confidence = 0.994

 21 21  0  0  1  0  0  0  0  0999 V2000
    2.0232    0.0210   -0.0052 N   0  0  0  0  0  2  0  0  0  0  0  0
    4.2737   -0.3960    0.1695 N   0  0  0  0  0  0  0  0  0  0  0  0
    4.5113    0.9127   -0.1175 N   0  0  0  0  0  0  0  0  0  0  0  0
    2.9457   -0.8621    0.2028 C   0  0  2  0  0  3  0  0  0  0  0  0
    2.7244   -2.3247    0.4298 C   0  0  0  0  0  0  0  0  0  0  0  0
    1.6652   -2.4548    0.7211 H   0  0  0  0  0  0  0  0  0  0  0  0
    3.3374   -2.6375    1.3009 H   0  0  0  0  0  0  0  0  0  0  0  0
    3.0456   -3.1747   -0.8113 C   0  0  0  0  0  0  0  0  0  0  0  0
    2.3728   -2.8852   -1.6405 H   0  0  0  0  0  0  0  0  0  0  0  0
    2.8618   -4.2423   -0.5822 H   0  0  0  0  0  0  0  0  0  0  0  0
    4.0969   -3.0697   -1.1467 H   0  0  0  0  0  0  0  0  0  0  0  0
    5.8342    1.0612   -0.0634 C   0  0  0  0  0  0  0  0  0  0  0  0
    6.4728    2.3852   -0.3287 C   0  0  0  0  0  0  0  0  0  0  0  0
    7.1711    2.3258   -1.1885 H   0  0  0  0  0  0  0  0  0  0  0  0
    7.0604    2.7266    0.5479 H   0  0  0  0  0  0  0  0  0  0  0  0
    5.6985    3.1416   -0.5526 H   0  0  0  0  0  0  0  0  0  0  0  0
    6.4718   -0.1830    0.2692 C   0  0  0  0  0  0  0  0  0  0  0  0
    7.5433   -0.3755    0.3881 H   0  0  0  0  0  0  0  0  0  0  0  0
    5.4442   -1.0921    0.4118 C   0  0  0  0  0  0  0  0  0  0  0  0
    5.4453   -2.1560    0.6644 H   0  0  0  0  0  0  0  0  0  0  0  0
    2.4072    0.9725   -0.1634 H   0  0  0  0  0  0  0  0  0  0  0  0
  2  4  1  0  0  0  0
  2 19  1  0  0  0  0
  3 12  2  0  0  0  0
  3  2  1  0  0  0  0
  4  1  1  6  0  0  0
  4  5  1  0  0  0  0
  5  6  1  0  0  0  0
  5  7  1  0  0  0  0
  8 10  1  0  0  0  0
  8  5  1  0  0  0  0
  9  8  1  0  0  0  0
 11  8  1  0  0  0  0
 12 17  1  0  0  0  0
 13 12  1  0  0  0  0
 13 15  1  0  0  0  0
 14 13  1  0  0  0  0
 16 13  1  0  0  0  0
 17 18  1  0  0  0  0
 17 19  2  0  0  0  0
 19 20  1  0  0  0  0
 21  1  1  0  0  0  0
M  END
