1
q = 0.0, confidence = 0.966

 18 18  0  0  1  0  0  0  0  0999 V2000
   -1.9705    0.2983   -0.2078 N   0  0  0  0  0  2  0  0  0  0  0  0
   -2.2379    1.2974   -0.2784 H   0  0  0  0  0  0  0  0  0  0  0  0
   -4.2783    0.1332   -0.0930 N   0  0  0  0  0  0  0  0  0  0  0  0
   -4.3717    1.4730   -0.2924 N   0  0  0  0  0  0  0  0  0  0  0  0
   -3.0017   -0.4731   -0.0815 C   0  0  2  0  0  3  0  0  0  0  0  0
   -2.9029   -1.9481    0.1604 C   0  0  0  0  0  0  0  0  0  0  0  0
   -2.0426   -2.3010   -0.4469 H   0  0  0  0  0  0  0  0  0  0  0  0
   -3.8079   -2.4584   -0.2225 H   0  0  0  0  0  0  0  0  0  0  0  0
   -2.6676   -2.2659    1.6469 C   0  0  0  0  0  0  0  0  0  0  0  0
   -1.7273   -1.7885    1.9886 H   0  0  0  0  0  0  0  0  0  0  0  0
   -2.5731   -3.3599    1.7904 H   0  0  0  0  0  0  0  0  0  0  0  0
   -3.4952   -1.9017    2.2889 H   0  0  0  0  0  0  0  0  0  0  0  0
   -5.6721    1.7450   -0.2142 C   0  0  0  0  0  0  0  0  0  0  0  0
   -6.0193    2.7779   -0.3461 H   0  0  0  0  0  0  0  0  0  0  0  0
   -6.4444    0.5738    0.0426 C   0  0  0  0  0  0  0  0  0  0  0  0
   -7.5296    0.4890    0.1590 H   0  0  0  0  0  0  0  0  0  0  0  0
   -5.5139   -0.4484    0.1153 C   0  0  0  0  0  0  0  0  0  0  0  0
   -5.6269   -1.5196    0.3026 H   0  0  0  0  0  0  0  0  0  0  0  0
  2  1  1  0  0  0  0
  3  5  1  0  0  0  0
  3 17  1  0  0  0  0
  4 13  2  0  0  0  0
  4  3  1  0  0  0  0
  5  1  1  1  0  0  0
  5  6  1  0  0  0  0
  6  9  1  0  0  0  0
  7  6  1  0  0  0  0
  8  6  1  0  0  0  0
  9 11  1  0  0  0  0
  9 10  1  0  0  0  0
  9 12  1  0  0  0  0
 13 15  1  0  0  0  0
 14 13  1  0  0  0  0
 15 17  2  0  0  0  0
 15 16  1  0  0  0  0
 17 18  1  0  0  0  0
M  END
