1
q = 0.0, confidence = 0.98

 30 33  0  0  0  0  0  0  0  0999 V2000
    2.0090   -1.0761   -0.5357 N   0  0  0  0  0  2  0  0  0  0  0  0
    4.1674   -0.5978   -0.6098 N   0  0  0  0  0  0  0  0  0  0  0  0
    7.8934    1.2535    0.3002 N   0  0  0  0  0  0  0  0  0  0  0  0
    2.9778   -0.3118   -0.0159 C   0  0  0  0  0  3  0  0  0  0  0  0
    2.8690    0.4434    0.7700 H   0  0  0  0  0  0  0  0  0  0  0  0
    2.6005   -1.8807   -1.4973 C   0  0  0  0  0  0  0  0  0  0  0  0
    2.0290   -2.6093   -2.0811 H   0  0  0  0  0  0  0  0  0  0  0  0
    3.9481   -1.5904   -1.5523 C   0  0  0  0  0  0  0  0  0  0  0  0
    4.7631   -1.9912   -2.1620 H   0  0  0  0  0  0  0  0  0  0  0  0
    5.4279    0.0255   -0.3045 C   0  0  0  0  0  0  0  0  0  0  0  0
    6.1926   -0.4649    0.7742 C   0  0  0  0  0  0  0  0  0  0  0  0
    5.8082   -1.5688    1.5990 C   0  0  0  0  0  0  0  0  0  0  0  0
    4.8635   -2.0953    1.3962 H   0  0  0  0  0  0  0  0  0  0  0  0
    6.6248   -1.9766    2.6370 C   0  0  0  0  0  0  0  0  0  0  0  0
    6.3253   -2.8289    3.2650 H   0  0  0  0  0  0  0  0  0  0  0  0
    7.8594   -1.3085    2.9049 C   0  0  0  0  0  0  0  0  0  0  0  0
    8.4898   -1.6536    3.7377 H   0  0  0  0  0  0  0  0  0  0  0  0
    8.2638   -0.2428    2.1264 C   0  0  0  0  0  0  0  0  0  0  0  0
    9.2090    0.2894    2.3036 H   0  0  0  0  0  0  0  0  0  0  0  0
    7.4541    0.2168    1.0356 C   0  0  0  0  0  0  0  0  0  0  0  0
    7.1496    1.6968   -0.7289 C   0  0  0  0  0  0  0  0  0  0  0  0
    7.6375    2.8011   -1.5029 C   0  0  0  0  0  0  0  0  0  0  0  0
    8.6075    3.2257   -1.2081 H   0  0  0  0  0  0  0  0  0  0  0  0
    6.9084    3.2938   -2.5663 C   0  0  0  0  0  0  0  0  0  0  0  0
    7.2934    4.1405   -3.1537 H   0  0  0  0  0  0  0  0  0  0  0  0
    5.6503    2.7130   -2.9157 C   0  0  0  0  0  0  0  0  0  0  0  0
    5.0854    3.1214   -3.7670 H   0  0  0  0  0  0  0  0  0  0  0  0
    5.1375    1.6474   -2.1999 C   0  0  0  0  0  0  0  0  0  0  0  0
    4.1693    1.2055   -2.4790 H   0  0  0  0  0  0  0  0  0  0  0  0
    5.8669    1.1088   -1.0935 C   0  0  0  0  0  0  0  0  0  0  0  0
  1  4  1  0  0  0  0
  2 10  1  0  0  0  0
  2  4  1  0  0  0  0
  3 20  1  0  0  0  0
  4  5  1  0  0  0  0
  6  1  1  0  0  0  0
  7  6  1  0  0  0  0
  8  6  2  0  0  0  0
  8  2  1  0  0  0  0
  9  8  1  0  0  0  0
 10 11  1  0  0  0  0
 11 20  2  0  0  0  0
 11 12  1  0  0  0  0
 12 14  2  0  0  0  0
 13 12  1  0  0  0  0
 14 16  1  0  0  0  0
 14 15  1  0  0  0  0
 16 17  1  0  0  0  0
 18 19  1  0  0  0  0
 18 16  2  0  0  0  0
 20 18  1  0  0  0  0
 21  3  2  0  0  0  0
 22 23  1  0  0  0  0
 22 21  1  0  0  0  0
 24 22  2  0  0  0  0
 25 24  1  0  0  0  0
 26 24  1  0  0  0  0
 26 28  2  0  0  0  0
 27 26  1  0  0  0  0
 28 30  1  0  0  0  0
 29 28  1  0  0  0  0
 30 21  1  0  0  0  0
 30 10  2  0  0  0  0
M  END
