2
q = 0.0, confidence = 1.0

 27 27  0  0  1  0  0  0  0  0999 V2000
   -0.0551    2.4355   -1.0614 S   0  0  0  0  0  0  0  0  0  0  0  0
    1.6097   -0.0054   -0.8415 N   0  0  0  0  0  2  0  0  0  0  0  0
    2.2059    1.1863   -0.4674 N   0  0  0  0  0  0  0  0  0  0  0  0
    3.1537    1.0986   -0.0725 H   0  0  0  0  0  0  0  0  0  0  0  0
    2.2118    3.4691   -0.0649 N   0  0  0  0  0  0  0  0  0  0  0  0
    3.1879    3.3766    0.2207 H   0  0  0  0  0  0  0  0  0  0  0  0
    2.3697   -1.0731   -0.6751 C   0  0  2  0  0  3  0  0  0  0  0  0
    3.7418   -0.9828   -0.0962 C   0  0  0  0  0  0  0  0  0  0  0  0
    3.9252   -0.6176    1.2591 C   0  0  0  0  0  0  0  0  0  0  0  0
    3.0501   -0.4001    1.8899 H   0  0  0  0  0  0  0  0  0  0  0  0
    5.2160   -0.5659    1.8062 C   0  0  0  0  0  0  0  0  0  0  0  0
    5.3456   -0.2952    2.8650 H   0  0  0  0  0  0  0  0  0  0  0  0
    6.3330   -0.8755    1.0140 C   0  0  0  0  0  0  0  0  0  0  0  0
    7.3440   -0.8368    1.4461 H   0  0  0  0  0  0  0  0  0  0  0  0
    6.1571   -1.2440   -0.3298 C   0  0  0  0  0  0  0  0  0  0  0  0
    7.0298   -1.4905   -0.9528 H   0  0  0  0  0  0  0  0  0  0  0  0
    4.8701   -1.3034   -0.8832 C   0  0  0  0  0  0  0  0  0  0  0  0
    4.7385   -1.5925   -1.9370 H   0  0  0  0  0  0  0  0  0  0  0  0
    1.8799   -2.4252   -1.0651 C   0  0  0  0  0  0  0  0  0  0  0  0
    0.8267   -2.3758   -1.3891 H   0  0  0  0  0  0  0  0  0  0  0  0
    1.9839   -3.1225   -0.2080 H   0  0  0  0  0  0  0  0  0  0  0  0
    2.4996   -2.8461   -1.8858 H   0  0  0  0  0  0  0  0  0  0  0  0
    1.5515    2.3745   -0.5043 C   0  0  0  0  0  0  0  0  0  0  0  0
    1.6268    4.7995   -0.0903 C   0  0  0  0  0  0  0  0  0  0  0  0
    2.3289    5.5069    0.3856 H   0  0  0  0  0  0  0  0  0  0  0  0
    0.6674    4.8135    0.4670 H   0  0  0  0  0  0  0  0  0  0  0  0
    1.4231    5.1341   -1.1295 H   0  0  0  0  0  0  0  0  0  0  0  0
  1 23  2  0  0  0  0
  2  3  1  0  0  0  0
  3  4  1  0  0  0  0
  5  6  1  0  0  0  0
  7  2  1  6  0  0  0
  7  8  1  0  0  0  0
  8  9  1  0  0  0  0
  9 11  2  0  0  0  0
  9 10  1  0  0  0  0
 11 12  1  0  0  0  0
 13 14  1  0  0  0  0
 13 11  1  0  0  0  0
 15 13  2  0  0  0  0
 16 15  1  0  0  0  0
 17 15  1  0  0  0  0
 17  8  2  0  0  0  0
 18 17  1  0  0  0  0
 19  7  1  0  0  0  0
 19 21  1  0  0  0  0
 20 19  1  0  0  0  0
 22 19  1  0  0  0  0
 23  3  1  0  0  0  0
 23  5  1  0  0  0  0
 24  5  1  0  0  0  0
 24 25  1  0  0  0  0
 24 26  1  0  0  0  0
 27 24  1  0  0  0  0
M  END
