2
q = -1.0, confidence = 0.0

 36 38  0  0  0  0  0  0  0  0999 V2000
   -0.3792    2.1889   -0.0758 N   0  0  0  0  0  0  0  0  0  0  0  0
    0.8973   -0.1495   -0.4039 N   0  0  0  0  0  2  0  0  0  0  0  0
    2.9262   -1.2044    1.3925 N   0  0  0  0  0  0  0  0  0  0  0  0
   -1.0732    3.3110    0.1258 C   0  0  0  0  0  0  0  0  0  0  0  0
   -0.4655    4.5874    0.0965 C   0  0  0  0  0  0  0  0  0  0  0  0
    0.8955    4.6815   -0.1603 C   0  0  0  0  0  0  0  0  0  0  0  0
    1.6671    3.5055   -0.3804 C   0  0  0  0  0  0  0  0  0  0  0  0
    3.0597    3.5074   -0.6600 C   0  0  0  0  0  0  0  0  0  0  0  0
    3.7061    2.2904   -0.8725 C   0  0  0  0  0  0  0  0  0  0  0  0
    3.0320    1.0537   -0.8005 C   0  0  0  0  0  0  0  0  0  0  0  0
    1.6534    0.9928   -0.5019 C   0  0  0  0  0  0  0  0  0  0  0  0
    0.9683    2.2496   -0.3130 C   0  0  0  0  0  0  0  0  0  0  0  0
    1.5026   -1.4130   -0.6159 C   0  0  0  0  0  0  0  0  0  0  0  0
    1.0982   -2.1746   -1.7288 C   0  0  0  0  0  0  0  0  0  0  0  0
    1.6820   -3.4124   -2.0281 C   0  0  0  0  0  0  0  0  0  0  0  0
    2.7002   -3.9035   -1.1979 C   0  0  0  0  0  0  0  0  0  0  0  0
    3.0991   -3.1772   -0.0682 C   0  0  0  0  0  0  0  0  0  0  0  0
    2.5063   -1.9342    0.2670 C   0  0  0  0  0  0  0  0  0  0  0  0
    4.2107   -1.5191    1.9766 C   0  0  0  0  0  0  0  0  0  0  0  0
    1.9346   -0.7864    2.3711 C   0  0  0  0  0  0  0  0  0  0  0  0
   -2.1528    3.2011    0.3163 H   0  0  0  0  0  0  0  0  0  0  0  0
   -1.0788    5.4829    0.2710 H   0  0  0  0  0  0  0  0  0  0  0  0
    1.3944    5.6626   -0.1976 H   0  0  0  0  0  0  0  0  0  0  0  0
    3.6023    4.4623   -0.7107 H   0  0  0  0  0  0  0  0  0  0  0  0
    4.7828    2.2850   -1.1037 H   0  0  0  0  0  0  0  0  0  0  0  0
    3.5785    0.1197   -0.9834 H   0  0  0  0  0  0  0  0  0  0  0  0
    0.3101   -1.7499   -2.3685 H   0  0  0  0  0  0  0  0  0  0  0  0
    1.3534   -3.9795   -2.9116 H   0  0  0  0  0  0  0  0  0  0  0  0
    3.1801   -4.8698   -1.4165 H   0  0  0  0  0  0  0  0  0  0  0  0
    3.8719   -3.5976    0.5899 H   0  0  0  0  0  0  0  0  0  0  0  0
    4.5186   -0.6836    2.6384 H   0  0  0  0  0  0  0  0  0  0  0  0
    4.2111   -2.4517    2.5979 H   0  0  0  0  0  0  0  0  0  0  0  0
    4.9789   -1.6322    1.1864 H   0  0  0  0  0  0  0  0  0  0  0  0
    0.9858   -0.5121    1.8745 H   0  0  0  0  0  0  0  0  0  0  0  0
    2.2999    0.1045    2.9234 H   0  0  0  0  0  0  0  0  0  0  0  0
    1.7200   -1.5922    3.1171 H   0  0  0  0  0  0  0  0  0  0  0  0
  1  4  1  0  0  0  0
  3 19  1  0  0  0  0
  3 20  1  0  0  0  0
  4 21  1  0  0  0  0
  5  4  2  0  0  0  0
  5 22  1  0  0  0  0
  6  5  1  0  0  0  0
  7 12  1  0  0  0  0
  7  6  2  0  0  0  0
  8  7  1  0  0  0  0
  9 10  1  0  0  0  0
  9  8  2  0  0  0  0
 10 11  2  0  0  0  0
 11  2  1  0  0  0  0
 11 12  1  0  0  0  0
 12  1  2  0  0  0  0
 13  2  1  0  0  0  0
 13 18  1  0  0  0  0
 14 13  2  0  0  0  0
 15 14  1  0  0  0  0
 15 16  2  0  0  0  0
 16 17  1  0  0  0  0
 17 18  2  0  0  0  0
 17 30  1  0  0  0  0
 18  3  1  0  0  0  0
 19 32  1  0  0  0  0
 19 31  1  0  0  0  0
 20 35  1  0  0  0  0
 20 36  1  0  0  0  0
 23  6  1  0  0  0  0
 24  8  1  0  0  0  0
 25  9  1  0  0  0  0
 26 10  1  0  0  0  0
 27 14  1  0  0  0  0
 28 15  1  0  0  0  0
 29 16  1  0  0  0  0
 33 19  1  0  0  0  0
 34 20  1  0  0  0  0
M  END
