4
q = 0.0, confidence = 0.994

 30 31  0  0  1  0  0  0  0  0999 V2000
   -1.1718    0.1078   -0.6864 S   0  0  0  0  0  0  0  0  0  0  0  0
   -0.1683    2.2933    0.5752 N   0  0  0  0  0  0  0  0  0  0  0  0
   -0.3751    3.1268    1.1332 H   0  0  0  0  0  0  0  0  0  0  0  0
    1.6915    1.0997   -0.3440 N   0  0  0  0  0  2  0  0  0  0  0  0
   -2.4562    2.2284    0.3127 N   0  0  0  0  0  0  0  0  0  0  0  0
   -2.4334    3.2494    0.4052 H   0  0  0  0  0  0  0  0  0  0  0  0
   -1.2680    1.5990    0.1131 C   0  0  0  0  0  0  0  0  0  0  0  0
   -3.7593    1.6560    0.1785 C   0  0  0  0  0  0  0  0  0  0  0  0
    1.1439    2.2649    0.0660 C   0  0  2  0  0  3  0  0  0  0  0  0
   -4.0918    0.4642    0.8493 C   0  0  0  0  0  0  0  0  0  0  0  0
   -3.3397   -0.0460    1.4671 H   0  0  0  0  0  0  0  0  0  0  0  0
    1.8557    3.4784    0.0177 C   0  0  0  0  0  0  0  0  0  0  0  0
    1.3651    4.4035    0.3568 H   0  0  0  0  0  0  0  0  0  0  0  0
    2.9324    1.1393   -0.9011 C   0  0  0  0  0  0  0  0  0  0  0  0
    3.2887    0.1814   -1.3058 H   0  0  0  0  0  0  0  0  0  0  0  0
    3.6898    2.3038   -0.9753 C   0  0  0  0  0  0  0  0  0  0  0  0
    4.6941    2.2607   -1.4209 H   0  0  0  0  0  0  0  0  0  0  0  0
   -5.3858   -0.0553    0.7259 C   0  0  0  0  0  0  0  0  0  0  0  0
   -5.6485   -0.9858    1.2504 H   0  0  0  0  0  0  0  0  0  0  0  0
   -4.7192    2.3328   -0.5930 C   0  0  0  0  0  0  0  0  0  0  0  0
   -4.4487    3.2616   -1.1182 H   0  0  0  0  0  0  0  0  0  0  0  0
   -6.3502    0.6139   -0.0468 C   0  0  0  0  0  0  0  0  0  0  0  0
   -7.3664    0.2030   -0.1355 H   0  0  0  0  0  0  0  0  0  0  0  0
   -6.0166    1.8105   -0.6983 C   0  0  0  0  0  0  0  0  0  0  0  0
   -6.7674    2.3411   -1.3018 H   0  0  0  0  0  0  0  0  0  0  0  0
    3.1632    3.5207   -0.4894 C   0  0  0  0  0  0  0  0  0  0  0  0
    3.9506    4.7963   -0.5517 C   0  0  0  0  0  0  0  0  0  0  0  0
    4.9144    4.6882   -0.0133 H   0  0  0  0  0  0  0  0  0  0  0  0
    4.2023    5.0472   -1.6028 H   0  0  0  0  0  0  0  0  0  0  0  0
    3.4007    5.6498   -0.1140 H   0  0  0  0  0  0  0  0  0  0  0  0
  1  7  2  0  0  0  0
  2  3  1  0  0  0  0
  4  9  1  0  0  0  0
  5  6  1  0  0  0  0
  7  5  1  0  0  0  0
  7  2  1  0  0  0  0
  8  5  1  0  0  0  0
  8 10  1  0  0  0  0
  9  2  1  1  0  0  0
 10 11  1  0  0  0  0
 12  9  1  0  0  0  0
 12 13  1  0  0  0  0
 14  4  1  0  0  0  0
 15 14  1  0  0  0  0
 16 14  2  0  0  0  0
 16 26  1  0  0  0  0
 17 16  1  0  0  0  0
 18 10  2  0  0  0  0
 18 19  1  0  0  0  0
 20  8  2  0  0  0  0
 21 20  1  0  0  0  0
 22 18  1  0  0  0  0
 23 22  1  0  0  0  0
 24 20  1  0  0  0  0
 24 22  2  0  0  0  0
 25 24  1  0  0  0  0
 26 12  2  0  0  0  0
 27 26  1  0  0  0  0
 27 30  1  0  0  0  0
 27 28  1  0  0  0  0
 29 27  1  0  0  0  0
M  END
