3
q = 0.0, confidence = 0.988

 22 23  0  0  0  0  0  0  0  0999 V2000
   -5.3088   -1.0869    0.8775 S   0  0  0  0  0  0  0  0  0  0  0  0
   -5.1675    1.6034   -1.7616 S   0  0  0  0  0  0  0  0  0  0  0  0
   -2.0839   -0.4059    0.7483 N   0  0  0  0  0  2  0  0  0  0  0  0
   -3.0078    0.2208   -0.0267 N   0  0  0  0  0  0  0  0  0  0  0  0
   -6.3755   -2.1363    1.7329 C   0  0  0  0  0  0  0  0  0  0  0  0
   -7.4528   -2.1037    1.5210 H   0  0  0  0  0  0  0  0  0  0  0  0
   -5.7221   -2.9552    2.6486 C   0  0  0  0  0  0  0  0  0  0  0  0
   -6.2368   -3.6875    3.2845 H   0  0  0  0  0  0  0  0  0  0  0  0
   -4.3296   -2.7275    2.6571 C   0  0  0  0  0  0  0  0  0  0  0  0
   -3.6166   -3.2604    3.3020 H   0  0  0  0  0  0  0  0  0  0  0  0
   -3.9259   -1.7335    1.7452 C   0  0  0  0  0  0  0  0  0  0  0  0
   -2.5726   -1.3248    1.5707 C   0  0  0  0  0  3  0  0  0  0  0  0
   -1.8255   -1.8350    2.2000 H   0  0  0  0  0  0  0  0  0  0  0  0
   -2.5769    1.1410   -0.8418 C   0  0  0  0  0  0  0  0  0  0  0  0
   -1.4870    1.3876   -0.8827 H   0  0  0  0  0  0  0  0  0  0  0  0
   -3.4380    1.8778   -1.7132 C   0  0  0  0  0  0  0  0  0  0  0  0
   -3.0626    2.8808   -2.6168 C   0  0  0  0  0  0  0  0  0  0  0  0
   -2.0205    3.2065   -2.7425 H   0  0  0  0  0  0  0  0  0  0  0  0
   -4.1617    3.4137   -3.3328 C   0  0  0  0  0  0  0  0  0  0  0  0
   -4.0869    4.2074   -4.0877 H   0  0  0  0  0  0  0  0  0  0  0  0
   -5.3624    2.8154   -2.9714 C   0  0  0  0  0  0  0  0  0  0  0  0
   -6.3646    3.0325   -3.3636 H   0  0  0  0  0  0  0  0  0  0  0  0
  1  5  1  0  0  0  0
  1 11  1  0  0  0  0
  2 16  1  0  0  0  0
  3 12  1  0  0  0  0
  4  3  1  0  0  0  0
  5  7  2  0  0  0  0
  6  5  1  0  0  0  0
  7  9  1  0  0  0  0
  7  8  1  0  0  0  0
  9 10  1  0  0  0  0
 11  9  2  0  0  0  0
 12 11  1  0  0  0  0
 12 13  1  0  0  0  0
 14  4  2  0  0  0  0
 15 14  1  0  0  0  0
 16 14  1  0  0  0  0
 17 16  2  0  0  0  0
 18 17  1  0  0  0  0
 19 21  2  0  0  0  0
 19 17  1  0  0  0  0
 20 19  1  0  0  0  0
 21  2  1  0  0  0  0
 22 21  1  0  0  0  0
M  END
