24
q = 0.0, confidence = 0.998

 25 26  0  0  0  0  0  0  0  0999 V2000
   -1.0339    2.7157   -0.3134 C   0  0  0  0  0  3  0  0  0  0  0  0
   -2.0220    2.6782   -0.7937 H   0  0  0  0  0  0  0  0  0  0  0  0
   -0.3170    3.9036   -0.1708 C   0  0  0  0  0  0  0  0  0  0  0  0
   -0.7419    4.8423   -0.5515 H   0  0  0  0  0  0  0  0  0  0  0  0
    0.9387    3.8586    0.4536 C   0  0  0  0  0  0  0  0  0  0  0  0
    1.5355    4.7747    0.5762 H   0  0  0  0  0  0  0  0  0  0  0  0
    1.4192    2.6374    0.9338 C   0  0  0  0  0  0  0  0  0  0  0  0
    2.3869    2.5658    1.4471 H   0  0  0  0  0  0  0  0  0  0  0  0
    0.6523    1.4671    0.7758 C   0  0  0  0  0  0  0  0  0  0  0  0
    1.0768    0.1589    1.3268 C   0  0  0  0  0  0  0  0  0  0  0  0
    2.3146   -0.4160    0.9631 C   0  0  0  0  0  0  0  0  0  0  0  0
    2.6989   -1.6700    1.4573 C   0  0  0  0  0  0  0  0  0  0  0  0
    3.6624   -2.1073    1.1675 H   0  0  0  0  0  0  0  0  0  0  0  0
    1.8354   -2.3601    2.3202 C   0  0  0  0  0  0  0  0  0  0  0  0
    2.1358   -3.3484    2.6986 H   0  0  0  0  0  0  0  0  0  0  0  0
    0.6061   -1.8031    2.7015 C   0  0  0  0  0  0  0  0  0  0  0  0
   -0.0670   -2.3463    3.3796 H   0  0  0  0  0  0  0  0  0  0  0  0
    0.2304   -0.5482    2.2078 C   0  0  0  0  0  0  0  0  0  0  0  0
   -0.7376   -0.1076    2.4928 H   0  0  0  0  0  0  0  0  0  0  0  0
    3.9577   -0.2462   -0.7820 C   0  0  0  0  0  0  0  0  0  0  0  0
    4.3559    0.7045   -1.6286 F   0  0  0  0  0  0  0  0  0  0  0  0
    3.3856   -1.2458   -1.4647 F   0  0  0  0  0  0  0  0  0  0  0  0
    5.0557   -0.7462   -0.1614 F   0  0  0  0  0  0  0  0  0  0  0  0
   -0.5426    1.5386    0.1311 N   0  0  0  0  0  2  0  0  0  0  0  0
    3.0988    0.3452    0.1055 O   0  0  0  0  0  0  0  0  0  0  0  0
  1  3  1  0  0  0  0
  1 24  1  0  0  0  0
  2  1  1  0  0  0  0
  3  5  2  0  0  0  0
  4  3  1  0  0  0  0
  5  6  1  0  0  0  0
  5  7  1  0  0  0  0
  7  8  1  0  0  0  0
  9  7  2  0  0  0  0
  9 10  1  0  0  0  0
 10 18  1  0  0  0  0
 11 10  2  0  0  0  0
 11 12  1  0  0  0  0
 12 14  2  0  0  0  0
 13 12  1  0  0  0  0
 14 15  1  0  0  0  0
 14 16  1  0  0  0  0
 16 17  1  0  0  0  0
 18 19  1  0  0  0  0
 18 16  2  0  0  0  0
 20 23  1  0  0  0  0
 20 25  1  0  0  0  0
 21 20  1  0  0  0  0
 22 20  1  0  0  0  0
 24  9  1  0  0  0  0
 25 11  1  0  0  0  0
M  END
