1
q = 0.0, confidence = 0.992

 24 25  0  0  0  0  0  0  0  0999 V2000
    0.6531    1.4808   -0.1056 N   0  0  0  0  0  2  0  0  0  0  0  0
    1.7319    2.2940   -0.0990 C   0  0  0  0  0  3  0  0  0  0  0  0
    2.7125    1.7974   -0.1179 H   0  0  0  0  0  0  0  0  0  0  0  0
    1.6014    3.6818   -0.0593 C   0  0  0  0  0  0  0  0  0  0  0  0
    2.5014    4.3115   -0.0472 H   0  0  0  0  0  0  0  0  0  0  0  0
    0.3103    4.2315   -0.0289 C   0  0  0  0  0  0  0  0  0  0  0  0
    0.1674    5.3218    0.0080 H   0  0  0  0  0  0  0  0  0  0  0  0
   -0.7948    3.3781   -0.0708 C   0  0  0  0  0  0  0  0  0  0  0  0
   -1.8198    3.7727   -0.0951 H   0  0  0  0  0  0  0  0  0  0  0  0
   -0.6137    1.9799   -0.1237 C   0  0  0  0  0  0  0  0  0  0  0  0
   -1.7599    1.0534   -0.2190 C   0  0  0  0  0  0  0  0  0  0  0  0
   -1.7841    0.0306   -1.1946 C   0  0  0  0  0  0  0  0  0  0  0  0
   -0.9542   -0.0708   -1.9112 H   0  0  0  0  0  0  0  0  0  0  0  0
   -2.8737   -0.8428   -1.2660 C   0  0  0  0  0  0  0  0  0  0  0  0
   -2.8778   -1.6311   -2.0347 H   0  0  0  0  0  0  0  0  0  0  0  0
   -3.9614   -0.7351   -0.3739 C   0  0  0  0  0  0  0  0  0  0  0  0
   -3.9330    0.3006    0.5829 C   0  0  0  0  0  0  0  0  0  0  0  0
   -4.7685    0.4033    1.2927 H   0  0  0  0  0  0  0  0  0  0  0  0
   -2.8539    1.1872    0.6596 C   0  0  0  0  0  0  0  0  0  0  0  0
   -2.8366    1.9653    1.4374 H   0  0  0  0  0  0  0  0  0  0  0  0
   -5.1011   -1.7178   -0.4253 C   0  0  0  0  0  0  0  0  0  0  0  0
   -5.3469   -2.0033   -1.4673 H   0  0  0  0  0  0  0  0  0  0  0  0
   -6.0145   -1.3144    0.0530 H   0  0  0  0  0  0  0  0  0  0  0  0
   -4.8318   -2.6532    0.1109 H   0  0  0  0  0  0  0  0  0  0  0  0
  1  2  1  0  0  0  0
  2  4  1  0  0  0  0
  3  2  1  0  0  0  0
  4  5  1  0  0  0  0
  4  6  2  0  0  0  0
  6  7  1  0  0  0  0
  8  6  1  0  0  0  0
  9  8  1  0  0  0  0
 10  1  1  0  0  0  0
 10  8  2  0  0  0  0
 11 10  1  0  0  0  0
 11 19  1  0  0  0  0
 12 11  2  0  0  0  0
 13 12  1  0  0  0  0
 14 12  1  0  0  0  0
 14 16  2  0  0  0  0
 15 14  1  0  0  0  0
 16 17  1  0  0  0  0
 17 19  2  0  0  0  0
 17 18  1  0  0  0  0
 19 20  1  0  0  0  0
 21 16  1  0  0  0  0
 21 23  1  0  0  0  0
 21 24  1  0  0  0  0
 22 21  1  0  0  0  0
M  END
