2
q = 0.0, confidence = 0.998

 24 26  0  0  0  0  0  0  0  0999 V2000
   -1.4682   -0.1673   -1.1691 S   0  0  0  0  0  0  0  0  0  0  0  0
    1.1161    1.4463   -0.1185 N   0  0  0  0  0  2  0  0  0  0  0  0
    2.2595    2.1674   -0.1537 C   0  0  0  0  0  3  0  0  0  0  0  0
    2.2535    3.5607   -0.1103 C   0  0  0  0  0  0  0  0  0  0  0  0
    1.0167    4.2221   -0.0427 C   0  0  0  0  0  0  0  0  0  0  0  0
   -0.1583    3.4703   -0.0590 C   0  0  0  0  0  0  0  0  0  0  0  0
   -0.1034    2.0582   -0.1045 C   0  0  0  0  0  0  0  0  0  0  0  0
   -1.3364    1.2760   -0.1638 C   0  0  0  0  0  0  0  0  0  0  0  0
   -2.5211    1.5723    0.4861 C   0  0  0  0  0  0  0  0  0  0  0  0
   -3.5646    0.6296    0.2174 C   0  0  0  0  0  0  0  0  0  0  0  0
   -4.8912    0.5860    0.7130 C   0  0  0  0  0  0  0  0  0  0  0  0
   -5.7419   -0.4404    0.3053 C   0  0  0  0  0  0  0  0  0  0  0  0
   -5.2950   -1.4385   -0.5945 C   0  0  0  0  0  0  0  0  0  0  0  0
   -3.9914   -1.4259   -1.0990 C   0  0  0  0  0  0  0  0  0  0  0  0
   -3.1327   -0.3919   -0.6864 C   0  0  0  0  0  0  0  0  0  0  0  0
    3.1897    1.5854   -0.2225 H   0  0  0  0  0  0  0  0  0  0  0  0
    3.2055    4.1082   -0.1311 H   0  0  0  0  0  0  0  0  0  0  0  0
    0.9694    5.3206   -0.0064 H   0  0  0  0  0  0  0  0  0  0  0  0
   -1.1434    3.9553   -0.0748 H   0  0  0  0  0  0  0  0  0  0  0  0
   -2.6253    2.4150    1.1831 H   0  0  0  0  0  0  0  0  0  0  0  0
   -5.2373    1.3596    1.4148 H   0  0  0  0  0  0  0  0  0  0  0  0
   -6.7726   -0.4799    0.6876 H   0  0  0  0  0  0  0  0  0  0  0  0
   -5.9821   -2.2423   -0.8985 H   0  0  0  0  0  0  0  0  0  0  0  0
   -3.6439   -2.2067   -1.7907 H   0  0  0  0  0  0  0  0  0  0  0  0
  1 15  1  0  0  0  0
  1  8  1  0  0  0  0
  2  7  1  0  0  0  0
  3  2  1  0  0  0  0
  3  4  1  0  0  0  0
  4  5  2  0  0  0  0
  5 18  1  0  0  0  0
  6  5  1  0  0  0  0
  7  6  2  0  0  0  0
  8  7  1  0  0  0  0
  8  9  2  0  0  0  0
  9 20  1  0  0  0  0
 10  9  1  0  0  0  0
 10 11  1  0  0  0  0
 11 21  1  0  0  0  0
 12 22  1  0  0  0  0
 12 11  2  0  0  0  0
 13 12  1  0  0  0  0
 14 15  1  0  0  0  0
 14 13  2  0  0  0  0
 15 10  2  0  0  0  0
 16  3  1  0  0  0  0
 17  4  1  0  0  0  0
 19  6  1  0  0  0  0
 23 13  1  0  0  0  0
 24 14  1  0  0  0  0
M  END
