1
q = 0.0, confidence = 0.984

 49 51  0  0  1  0  0  0  0  0999 V2000
   -0.5041   -0.1694    0.4247 N   0  0  0  0  0  2  0  0  0  0  0  0
   -1.4502    0.2523    0.3816 H   0  0  0  0  0  0  0  0  0  0  0  0
    0.3994   -2.4232    0.2333 N   0  0  0  0  0  0  0  0  0  0  0  0
   -1.7931   -2.1824    0.1469 N   0  0  0  0  0  0  0  0  0  0  0  0
   -0.6059   -1.4723    0.2550 C   0  0  1  0  0  3  0  0  0  0  0  0
   -0.1687   -3.6993    0.0975 C   0  0  0  0  0  0  0  0  0  0  0  0
    0.4570   -4.5944    0.0720 H   0  0  0  0  0  0  0  0  0  0  0  0
   -1.5233   -3.5487    0.0515 C   0  0  0  0  0  0  0  0  0  0  0  0
   -2.3280   -4.2830   -0.0372 H   0  0  0  0  0  0  0  0  0  0  0  0
    1.7880   -2.2000    0.4979 C   0  0  0  0  0  0  0  0  0  0  0  0
    2.1771   -1.8048    1.8002 C   0  0  0  0  0  0  0  0  0  0  0  0
    3.5496   -1.6318    2.0549 C   0  0  0  0  0  0  0  0  0  0  0  0
    3.8644   -1.3200    3.0638 H   0  0  0  0  0  0  0  0  0  0  0  0
    4.5253   -1.8593    1.0661 C   0  0  0  0  0  0  0  0  0  0  0  0
    4.0958   -2.2790   -0.2072 C   0  0  0  0  0  0  0  0  0  0  0  0
    4.8445   -2.4690   -0.9932 H   0  0  0  0  0  0  0  0  0  0  0  0
    2.7352   -2.4563   -0.5212 C   0  0  0  0  0  0  0  0  0  0  0  0
    1.1544   -1.5754    2.8796 C   0  0  0  0  0  0  0  0  0  0  0  0
    0.4450   -2.4253    2.9520 H   0  0  0  0  0  0  0  0  0  0  0  0
    0.5412   -0.6786    2.6479 H   0  0  0  0  0  0  0  0  0  0  0  0
    1.6366   -1.4370    3.8654 H   0  0  0  0  0  0  0  0  0  0  0  0
    5.9870   -1.6249    1.3521 C   0  0  0  0  0  0  0  0  0  0  0  0
    6.6346   -2.2829    0.7401 H   0  0  0  0  0  0  0  0  0  0  0  0
    6.2275   -1.7951    2.4199 H   0  0  0  0  0  0  0  0  0  0  0  0
    6.2715   -0.5766    1.1168 H   0  0  0  0  0  0  0  0  0  0  0  0
    2.3018   -2.8652   -1.9016 C   0  0  0  0  0  0  0  0  0  0  0  0
    3.1657   -2.9006   -2.5919 H   0  0  0  0  0  0  0  0  0  0  0  0
    1.5548   -2.1400   -2.2945 H   0  0  0  0  0  0  0  0  0  0  0  0
    1.8219   -3.8657   -1.9094 H   0  0  0  0  0  0  0  0  0  0  0  0
   -3.0821   -1.5551    0.1713 C   0  0  0  0  0  0  0  0  0  0  0  0
   -3.6268   -1.1905    1.4236 C   0  0  0  0  0  0  0  0  0  0  0  0
   -4.8644   -0.5247    1.4331 C   0  0  0  0  0  0  0  0  0  0  0  0
   -5.3027   -0.2315    2.4005 H   0  0  0  0  0  0  0  0  0  0  0  0
   -5.5488   -0.2199    0.2423 C   0  0  0  0  0  0  0  0  0  0  0  0
   -4.9726   -0.6081   -0.9813 C   0  0  0  0  0  0  0  0  0  0  0  0
   -5.4929   -0.3709   -1.9228 H   0  0  0  0  0  0  0  0  0  0  0  0
   -3.7359   -1.2717   -1.0497 C   0  0  0  0  0  0  0  0  0  0  0  0
   -2.8819   -1.4773    2.7019 C   0  0  0  0  0  0  0  0  0  0  0  0
   -2.5210   -2.5252    2.7440 H   0  0  0  0  0  0  0  0  0  0  0  0
   -3.5205   -1.2921    3.5860 H   0  0  0  0  0  0  0  0  0  0  0  0
   -1.9840   -0.8285    2.7895 H   0  0  0  0  0  0  0  0  0  0  0  0
   -6.8502    0.5406    0.2692 C   0  0  0  0  0  0  0  0  0  0  0  0
   -7.3431    0.4782    1.2590 H   0  0  0  0  0  0  0  0  0  0  0  0
   -7.5581    0.1661   -0.4969 H   0  0  0  0  0  0  0  0  0  0  0  0
   -6.6773    1.6164    0.0514 H   0  0  0  0  0  0  0  0  0  0  0  0
   -3.1028   -1.6239   -2.3650 C   0  0  0  0  0  0  0  0  0  0  0  0
   -3.7929   -1.4190   -3.2046 H   0  0  0  0  0  0  0  0  0  0  0  0
   -2.8035   -2.6911   -2.4103 H   0  0  0  0  0  0  0  0  0  0  0  0
   -2.1756   -1.0266   -2.5185 H   0  0  0  0  0  0  0  0  0  0  0  0
  2  1  1  0  0  0  0
  3  5  1  0  0  0  0
  3 10  1  0  0  0  0
  4 30  1  0  0  0  0
  4  5  1  0  0  0  0
  5  1  1  1  0  0  0
  6  3  1  0  0  0  0
  7  6  1  0  0  0  0
  8  6  2  0  0  0  0
  8  4  1  0  0  0  0
  9  8  1  0  0  0  0
 10 11  1  0  0  0  0
 11 12  2  0  0  0  0
 11 18  1  0  0  0  0
 12 13  1  0  0  0  0
 14 22  1  0  0  0  0
 14 12  1  0  0  0  0
 15 14  2  0  0  0  0
 16 15  1  0  0  0  0
 17 15  1  0  0  0  0
 17 10  2  0  0  0  0
 18 19  1  0  0  0  0
 18 21  1  0  0  0  0
 20 18  1  0  0  0  0
 22 24  1  0  0  0  0
 23 22  1  0  0  0  0
 25 22  1  0  0  0  0
 26 17  1  0  0  0  0
 27 26  1  0  0  0  0
 28 26  1  0  0  0  0
 29 26  1  0  0  0  0
 30 31  1  0  0  0  0
 31 32  2  0  0  0  0
 31 38  1  0  0  0  0
 32 33  1  0  0  0  0
 34 42  1  0  0  0  0
 34 32  1  0  0  0  0
 35 34  2  0  0  0  0
 36 35  1  0  0  0  0
 37 35  1  0  0  0  0
 37 30  2  0  0  0  0
 38 39  1  0  0  0  0
 38 41  1  0  0  0  0
 38 40  1  0  0  0  0
 42 43  1  0  0  0  0
 44 42  1  0  0  0  0
 45 42  1  0  0  0  0
 46 37  1  0  0  0  0
 47 46  1  0  0  0  0
 48 46  1  0  0  0  0
 49 46  1  0  0  0  0
M  END
