3
q = 0.0, confidence = 1.0

 25 26  0  0  1  0  0  0  0  0999 V2000
   -2.9348   -1.7583    1.6445 O   0  0  0  0  0  0  0  0  0  0  0  0
   -2.2206    1.0284   -0.5082 N   0  0  0  0  0  0  0  0  0  0  0  0
   -0.9740   -1.0308    0.7918 N   0  0  0  0  0  2  0  0  0  0  0  0
   -2.7507    1.8187   -1.4529 C   0  0  0  0  0  0  0  0  0  0  0  0
   -4.0840    1.7060   -1.8790 C   0  0  0  0  0  0  0  0  0  0  0  0
   -4.9091    0.7364   -1.2851 C   0  0  0  0  0  0  0  0  0  0  0  0
   -4.3559   -0.1221   -0.3231 C   0  0  0  0  0  0  0  0  0  0  0  0
   -3.0011    0.0470    0.0043 C   0  0  0  0  0  0  0  0  0  0  0  0
   -2.2662   -0.9017    0.8476 C   0  0  1  0  0  3  0  0  0  0  0  0
   -1.9190   -2.5178    2.3482 C   0  0  0  0  0  0  0  0  0  0  0  0
   -0.5875   -2.2210    1.5950 C   0  0  0  0  0  0  0  0  0  0  0  0
    0.5640   -1.9039    2.5500 C   0  0  0  0  0  0  0  0  0  0  0  0
   -0.2045   -3.3623    0.6419 C   0  0  0  0  0  0  0  0  0  0  0  0
   -2.0598    2.5583   -1.8929 H   0  0  0  0  0  0  0  0  0  0  0  0
   -4.4708    2.3792   -2.6584 H   0  0  0  0  0  0  0  0  0  0  0  0
   -5.9623    0.6329   -1.5854 H   0  0  0  0  0  0  0  0  0  0  0  0
   -4.9394   -0.9276    0.1444 H   0  0  0  0  0  0  0  0  0  0  0  0
   -1.8970   -2.1603    3.4001 H   0  0  0  0  0  0  0  0  0  0  0  0
   -2.2096   -3.5856    2.3296 H   0  0  0  0  0  0  0  0  0  0  0  0
    0.3118   -1.0599    3.2212 H   0  0  0  0  0  0  0  0  0  0  0  0
    0.7991   -2.7907    3.1726 H   0  0  0  0  0  0  0  0  0  0  0  0
    1.4646   -1.6385    1.9658 H   0  0  0  0  0  0  0  0  0  0  0  0
    0.6995   -3.0811    0.0732 H   0  0  0  0  0  0  0  0  0  0  0  0
   -0.0006   -4.2844    1.2243 H   0  0  0  0  0  0  0  0  0  0  0  0
   -1.0084   -3.5483   -0.0949 H   0  0  0  0  0  0  0  0  0  0  0  0
  1 10  1  0  0  0  0
  2  8  1  0  0  0  0
  3  9  1  0  0  0  0
  3 11  1  0  0  0  0
  4  2  2  0  0  0  0
  5  4  1  0  0  0  0
  5  6  2  0  0  0  0
  6  7  1  0  0  0  0
  7  8  2  0  0  0  0
  7 17  1  0  0  0  0
  9  8  1  6  0  0  0
  9  1  1  0  0  0  0
 10 18  1  0  0  0  0
 11 10  1  0  0  0  0
 11 12  1  0  0  0  0
 12 21  1  0  0  0  0
 12 20  1  0  0  0  0
 13 24  1  0  0  0  0
 13 11  1  0  0  0  0
 14  4  1  0  0  0  0
 15  5  1  0  0  0  0
 16  6  1  0  0  0  0
 19 10  1  0  0  0  0
 22 12  1  0  0  0  0
 23 13  1  0  0  0  0
 25 13  1  0  0  0  0
M  END
