2
q = -1.0, confidence = 0.0

 17 18  0  0  0  0  0  0  0  0999 V2000
   -1.9139   -0.1966   -0.6376 N   0  0  0  0  0  0  0  0  0  0  0  0
   -0.6472   -0.5583   -0.4187 N   0  0  0  0  0  0  0  0  0  0  0  0
   -0.5767   -1.7191    0.2483 N   0  0  0  0  0  0  0  0  0  0  0  0
   -1.8093   -2.1394    0.4679 N   0  0  0  0  0  0  0  0  0  0  0  0
   -2.6266   -1.1973   -0.0782 C   0  0  0  0  0  3  0  0  0  0  0  0
   -4.0898   -1.2589   -0.0508 C   0  0  0  0  0  0  0  0  0  0  0  0
   -4.7468   -2.3413    0.5712 C   0  0  0  0  0  0  0  0  0  0  0  0
   -4.1368   -3.1352    1.0261 H   0  0  0  0  0  0  0  0  0  0  0  0
   -6.1439   -2.4038    0.6067 C   0  0  0  0  0  0  0  0  0  0  0  0
   -6.6470   -3.2559    1.0945 H   0  0  0  0  0  0  0  0  0  0  0  0
   -6.9165   -1.3817    0.0185 C   0  0  0  0  0  0  0  0  0  0  0  0
   -8.2798   -1.3933    0.0248 O   0  0  0  0  0  0  0  0  0  0  0  0
   -6.2688   -0.2964   -0.6067 C   0  0  0  0  0  0  0  0  0  0  0  0
   -6.8843    0.4908   -1.0658 H   0  0  0  0  0  0  0  0  0  0  0  0
   -4.8735   -0.2406   -0.6389 C   0  0  0  0  0  0  0  0  0  0  0  0
   -4.3622    0.6004   -1.1299 H   0  0  0  0  0  0  0  0  0  0  0  0
   -8.5742   -2.2050    0.4780 H   0  0  0  0  0  0  0  0  0  0  0  0
  1  2  2  0  0  0  0
  1  5  1  0  0  0  0
  2  3  1  0  0  0  0
  3  4  2  0  0  0  0
  5  6  1  0  0  0  0
  5  4  1  0  0  0  0
  6  7  1  0  0  0  0
  7  9  2  0  0  0  0
  7  8  1  0  0  0  0
  9 10  1  0  0  0  0
 11 12  1  0  0  0  0
 11  9  1  0  0  0  0
 12 17  1  0  0  0  0
 13 11  2  0  0  0  0
 14 13  1  0  0  0  0
 15 13  1  0  0  0  0
 15  6  2  0  0  0  0
 16 15  1  0  0  0  0
M  END
