1
q = 0.0, confidence = 0.998

 21 20  0  0  0  0  0  0  0  0999 V2000
    1.0672   -0.6921   -0.8789 N   0  0  0  0  0  0  0  0  0  0  0  0
    1.9334    0.0134    1.4125 N   0  0  0  0  0  0  0  0  0  0  0  0
    0.8857   -1.9636   -1.6134 C   0  0  0  0  0  0  0  0  0  0  0  0
    0.3531   -1.7541   -2.5606 H   0  0  0  0  0  0  0  0  0  0  0  0
    0.2685   -2.6500   -1.0040 H   0  0  0  0  0  0  0  0  0  0  0  0
    1.8776   -2.4206   -1.8553 H   0  0  0  0  0  0  0  0  0  0  0  0
    1.8664    0.1879   -1.7528 C   0  0  0  0  0  0  0  0  0  0  0  0
    1.9796    1.1853   -1.3035 H   0  0  0  0  0  0  0  0  0  0  0  0
    1.3226    0.3393   -2.7039 H   0  0  0  0  0  0  0  0  0  0  0  0
    2.8575   -0.2853   -1.9603 H   0  0  0  0  0  0  0  0  0  0  0  0
    1.8247   -0.9941    0.4197 C   0  0  0  0  0  0  0  0  0  0  0  0
    2.8515   -1.3169    0.1055 H   0  0  0  0  0  0  0  0  0  0  0  0
    1.2721   -1.8540    0.8475 H   0  0  0  0  0  0  0  0  0  0  0  0
    0.7903    0.2751    2.2757 C   0  0  0  0  0  0  0  0  0  0  0  0
    0.2167   -0.6573    2.4373 H   0  0  0  0  0  0  0  0  0  0  0  0
    0.0720    1.0135    1.8444 H   0  0  0  0  0  0  0  0  0  0  0  0
    1.1586    0.6605    3.2564 H   0  0  0  0  0  0  0  0  0  0  0  0
    2.7513    1.1818    1.1675 C   0  0  0  0  0  0  0  0  0  0  0  0
    3.1278    1.5837    2.1374 H   0  0  0  0  0  0  0  0  0  0  0  0
    2.1926    2.0041    0.6551 H   0  0  0  0  0  0  0  0  0  0  0  0
    3.6323    0.9103    0.5490 H   0  0  0  0  0  0  0  0  0  0  0  0
  1 11  1  0  0  0  0
  2 14  1  0  0  0  0
  3  5  1  0  0  0  0
  3  1  1  0  0  0  0
  4  3  1  0  0  0  0
  6  3  1  0  0  0  0
  7  8  1  0  0  0  0
  7  1  1  0  0  0  0
  9  7  1  0  0  0  0
 10  7  1  0  0  0  0
 11 13  1  0  0  0  0
 11  2  1  0  0  0  0
 12 11  1  0  0  0  0
 14 15  1  0  0  0  0
 14 17  1  0  0  0  0
 16 14  1  0  0  0  0
 18  2  1  0  0  0  0
 18 19  1  0  0  0  0
 20 18  1  0  0  0  0
 21 18  1  0  0  0  0
M  END
