2
q = -1.0, confidence = 0.014

 31 32  0  0  1  0  0  0  0  0999 V2000
   -0.7048   -1.8989   -1.2577 S   0  0  0  0  0  0  0  0  0  0  0  0
   -0.4802    0.0287    0.3300 N   0  0  0  0  0  2  0  0  0  0  0  0
   -1.4198   -0.6403   -0.3038 C   0  0  0  0  0  0  0  0  0  0  0  0
   -2.8831   -0.4355   -0.2274 C   0  0  0  0  0  0  0  0  0  0  0  0
   -3.6366   -0.3397   -1.4178 C   0  0  0  0  0  0  0  0  0  0  0  0
   -5.0258   -0.1663   -1.3638 C   0  0  0  0  0  0  0  0  0  0  0  0
   -5.6804   -0.0979   -0.1230 C   0  0  0  0  0  0  0  0  0  0  0  0
   -4.9405   -0.2126    1.0652 C   0  0  0  0  0  0  0  0  0  0  0  0
   -3.5499   -0.3814    1.0174 C   0  0  0  0  0  0  0  0  0  0  0  0
   -0.6906    1.1893    1.1972 C   0  0  2  0  0  0  0  0  0  0  0  0
   -0.0088    2.3997    0.5600 C   0  0  0  0  0  0  0  0  0  0  0  0
   -0.3799    2.7633   -0.7521 C   0  0  0  0  0  0  0  0  0  0  0  0
    0.2442    3.8327   -1.4069 C   0  0  0  0  0  0  0  0  0  0  0  0
    1.2567    4.5619   -0.7578 C   0  0  0  0  0  0  0  0  0  0  0  0
    1.6228    4.2191    0.5517 C   0  0  0  0  0  0  0  0  0  0  0  0
    0.9907    3.1478    1.2072 C   0  0  0  0  0  0  0  0  0  0  0  0
   -0.2629    0.8853    2.6319 C   0  0  0  0  0  0  0  0  0  0  0  0
   -3.1136   -0.4021   -2.3842 H   0  0  0  0  0  0  0  0  0  0  0  0
   -5.6031   -0.0855   -2.2973 H   0  0  0  0  0  0  0  0  0  0  0  0
   -6.7720    0.0360   -0.0817 H   0  0  0  0  0  0  0  0  0  0  0  0
   -5.4523   -0.1818    2.0390 H   0  0  0  0  0  0  0  0  0  0  0  0
   -2.9738   -0.5119    1.9453 H   0  0  0  0  0  0  0  0  0  0  0  0
   -1.7812    1.4085    1.1970 H   0  0  0  0  0  0  0  0  0  0  0  0
   -1.1578    2.1802   -1.2698 H   0  0  0  0  0  0  0  0  0  0  0  0
   -0.0570    4.0992   -2.4316 H   0  0  0  0  0  0  0  0  0  0  0  0
    1.7538    5.3985   -1.2716 H   0  0  0  0  0  0  0  0  0  0  0  0
    2.4089    4.7883    1.0711 H   0  0  0  0  0  0  0  0  0  0  0  0
    1.2906    2.8921    2.2333 H   0  0  0  0  0  0  0  0  0  0  0  0
    0.8180    0.6511    2.6841 H   0  0  0  0  0  0  0  0  0  0  0  0
   -0.4839    1.7438    3.2963 H   0  0  0  0  0  0  0  0  0  0  0  0
   -0.7905   -0.0126    3.0029 H   0  0  0  0  0  0  0  0  0  0  0  0
  1  3  2  0  0  0  0
  2 10  1  0  0  0  0
  3  4  1  0  0  0  0
  3  2  1  0  0  0  0
  4  9  1  0  0  0  0
  5  6  1  0  0  0  0
  5  4  2  0  0  0  0
  6  7  2  0  0  0  0
  7 20  1  0  0  0  0
  7  8  1  0  0  0  0
  8 21  1  0  0  0  0
  9  8  2  0  0  0  0
  9 22  1  0  0  0  0
 10 23  1  1  0  0  0
 10 17  1  0  0  0  0
 11 10  1  0  0  0  0
 11 16  1  0  0  0  0
 12 11  2  0  0  0  0
 13 14  2  0  0  0  0
 13 12  1  0  0  0  0
 14 15  1  0  0  0  0
 15 27  1  0  0  0  0
 15 16  2  0  0  0  0
 16 28  1  0  0  0  0
 17 29  1  0  0  0  0
 17 31  1  0  0  0  0
 17 30  1  0  0  0  0
 18  5  1  0  0  0  0
 19  6  1  0  0  0  0
 24 12  1  0  0  0  0
 25 13  1  0  0  0  0
 26 14  1  0  0  0  0
M  END
