4
q = -1.0, confidence = 0.0

 35 35  0  0  0  0  0  0  0  0999 V2000
   -2.3556   -2.6860   -0.0995 S   0  0  0  0  0  0  0  0  0  0  0  0
    2.7696   -2.5060    0.3279 O   0  0  0  0  0  0  0  0  0  0  0  0
    1.7675   -2.6024    0.0460 H   0  0  0  0  0  0  0  0  0  0  0  0
    0.0388   -1.3241   -1.0584 N   0  0  0  0  0  2  0  0  0  0  0  0
    0.3239   -2.4872   -0.3983 N   0  0  0  0  0  2  0  0  0  0  0  0
   -0.4171   -4.3209    0.7872 N   0  0  0  0  0  0  0  0  0  0  0  0
   -1.1841   -4.9771    0.9270 H   0  0  0  0  0  0  0  0  0  0  0  0
    0.5135   -4.7271    0.6776 H   0  0  0  0  0  0  0  0  0  0  0  0
    6.4976    0.4531    0.0747 N   0  0  0  0  0  0  0  0  0  0  0  0
   -0.6996   -3.1871    0.0648 C   0  0  0  0  0  0  0  0  0  0  0  0
    1.0401   -0.5035   -1.3359 C   0  0  0  0  0  3  0  0  0  0  0  0
    0.6982    0.3645   -1.9197 H   0  0  0  0  0  0  0  0  0  0  0  0
    2.4449   -0.4562   -0.9823 C   0  0  0  0  0  0  0  0  0  0  0  0
    3.1200    0.7156   -1.4309 C   0  0  0  0  0  0  0  0  0  0  0  0
    2.5509    1.4181   -2.0615 H   0  0  0  0  0  0  0  0  0  0  0  0
    4.4327    1.0342   -1.1166 C   0  0  0  0  0  0  0  0  0  0  0  0
    4.8676    1.9567   -1.5195 H   0  0  0  0  0  0  0  0  0  0  0  0
    5.1948    0.1563   -0.2853 C   0  0  0  0  0  0  0  0  0  0  0  0
    4.5581   -1.0273    0.1552 C   0  0  0  0  0  0  0  0  0  0  0  0
    5.0687   -1.7500    0.8027 H   0  0  0  0  0  0  0  0  0  0  0  0
    3.2273   -1.3588   -0.1676 C   0  0  0  0  0  0  0  0  0  0  0  0
    7.2867   -0.4614    0.8887 C   0  0  0  0  0  0  0  0  0  0  0  0
    7.0730   -1.5049    0.5776 H   0  0  0  0  0  0  0  0  0  0  0  0
    8.3570   -0.2921    0.6458 H   0  0  0  0  0  0  0  0  0  0  0  0
    7.0591   -0.2960    2.3951 C   0  0  0  0  0  0  0  0  0  0  0  0
    7.3186    0.7303    2.7263 H   0  0  0  0  0  0  0  0  0  0  0  0
    7.6836   -1.0090    2.9710 H   0  0  0  0  0  0  0  0  0  0  0  0
    5.9973   -0.4772    2.6558 H   0  0  0  0  0  0  0  0  0  0  0  0
    7.1279    1.7108   -0.3024 C   0  0  0  0  0  0  0  0  0  0  0  0
    7.8718    1.9643    0.4825 H   0  0  0  0  0  0  0  0  0  0  0  0
    6.3744    2.5249   -0.2670 H   0  0  0  0  0  0  0  0  0  0  0  0
    7.8095    1.6732   -1.6738 C   0  0  0  0  0  0  0  0  0  0  0  0
    8.5967    0.8925   -1.7047 H   0  0  0  0  0  0  0  0  0  0  0  0
    8.2852    2.6477   -1.9072 H   0  0  0  0  0  0  0  0  0  0  0  0
    7.0774    1.4436   -2.4734 H   0  0  0  0  0  0  0  0  0  0  0  0
  1 10  2  0  0  0  0
  3  2  1  0  0  0  0
  4  5  1  0  0  0  0
  5 10  1  0  0  0  0
  6  7  1  0  0  0  0
  8  6  1  0  0  0  0
  9 22  1  0  0  0  0
 10  6  1  0  0  0  0
 11  4  1  0  0  0  0
 11 13  1  0  0  0  0
 12 11  1  0  0  0  0
 13 21  1  0  0  0  0
 14 16  1  0  0  0  0
 14 13  2  0  0  0  0
 15 14  1  0  0  0  0
 16 18  2  0  0  0  0
 17 16  1  0  0  0  0
 18  9  1  0  0  0  0
 18 19  1  0  0  0  0
 19 20  1  0  0  0  0
 21 19  2  0  0  0  0
 21  2  1  0  0  0  0
 22 25  1  0  0  0  0
 23 22  1  0  0  0  0
 24 22  1  0  0  0  0
 25 28  1  0  0  0  0
 25 26  1  0  0  0  0
 25 27  1  0  0  0  0
 29 31  1  0  0  0  0
 29  9  1  0  0  0  0
 29 30  1  0  0  0  0
 32 29  1  0  0  0  0
 33 32  1  0  0  0  0
 34 32  1  0  0  0  0
 35 32  1  0  0  0  0
M  END
