9
q = 0.0, confidence = 0.998

 28 30  0  0  1  0  0  0  0  0999 V2000
    3.2599    1.6382   -0.8345 S   0  0  0  0  0  0  0  0  0  0  0  0
    1.3580    3.6411   -1.0694 N   0  0  0  0  0  0  0  0  0  0  0  0
   -1.2017    2.8628   -0.9434 N   0  0  0  0  0  0  0  0  0  0  0  0
   -2.1588    2.8963   -0.5406 H   0  0  0  0  0  0  0  0  0  0  0  0
   -0.4992    3.6169   -0.8720 H   0  0  0  0  0  0  0  0  0  0  0  0
    0.3382   -2.5466   -2.6270 C   0  0  0  0  0  0  0  0  0  0  0  0
    0.1720   -3.6007   -2.8973 H   0  0  0  0  0  0  0  0  0  0  0  0
    0.6769    1.4763   -1.5565 N   0  0  0  0  0  0  0  0  0  0  0  0
   -1.3964    0.5408   -1.4216 N   0  0  0  0  0  2  0  0  0  0  0  0
   -0.7037    1.6750   -1.2821 C   0  0  2  0  0  3  0  0  0  0  0  0
    0.8086    0.1196   -1.9552 C   0  0  0  0  0  0  0  0  0  0  0  0
    1.6790    2.4030   -1.1886 C   0  0  0  0  0  0  0  0  0  0  0  0
   -0.4967   -0.4349   -1.8370 C   0  0  0  0  0  0  0  0  0  0  0  0
    1.6179   -1.9802   -2.7915 C   0  0  0  0  0  0  0  0  0  0  0  0
    2.4345   -2.5886   -3.2093 H   0  0  0  0  0  0  0  0  0  0  0  0
    1.8738   -0.6357   -2.4616 C   0  0  0  0  0  0  0  0  0  0  0  0
    2.8709   -0.2041   -2.6101 H   0  0  0  0  0  0  0  0  0  0  0  0
   -0.7399   -1.7796   -2.1586 C   0  0  0  0  0  0  0  0  0  0  0  0
   -1.7532   -2.1936   -2.0460 H   0  0  0  0  0  0  0  0  0  0  0  0
    2.2411    4.6739   -0.5677 C   0  0  0  0  0  0  0  0  0  0  0  0
    1.6242    5.3844    0.0230 H   0  0  0  0  0  0  0  0  0  0  0  0
    2.6103    5.2620   -1.4401 H   0  0  0  0  0  0  0  0  0  0  0  0
    3.4213    4.1893    0.2735 C   0  0  0  0  0  0  0  0  0  0  0  0
    4.0673    5.0546    0.5305 H   0  0  0  0  0  0  0  0  0  0  0  0
    3.0511    3.7526    1.2243 H   0  0  0  0  0  0  0  0  0  0  0  0
    4.2398    3.1477   -0.4763 C   0  0  0  0  0  0  0  0  0  0  0  0
    5.0926    2.7746    0.1240 H   0  0  0  0  0  0  0  0  0  0  0  0
    4.6426    3.5490   -1.4291 H   0  0  0  0  0  0  0  0  0  0  0  0
  1 26  1  0  0  0  0
  2 20  1  0  0  0  0
  3  5  1  0  0  0  0
  3  4  1  0  0  0  0
  6 18  1  0  0  0  0
  7  6  1  0  0  0  0
  8 10  1  0  0  0  0
  8 12  1  0  0  0  0
  9 10  1  0  0  0  0
 10  3  1  6  0  0  0
 11 13  1  0  0  0  0
 11  8  1  0  0  0  0
 12  2  2  0  0  0  0
 12  1  1  0  0  0  0
 13  9  1  0  0  0  0
 14  6  2  0  0  0  0
 14 16  1  0  0  0  0
 15 14  1  0  0  0  0
 16 11  2  0  0  0  0
 17 16  1  0  0  0  0
 18 19  1  0  0  0  0
 18 13  2  0  0  0  0
 20 21  1  0  0  0  0
 20 23  1  0  0  0  0
 22 20  1  0  0  0  0
 23 24  1  0  0  0  0
 23 25  1  0  0  0  0
 26 27  1  0  0  0  0
 26 23  1  0  0  0  0
 28 26  1  0  0  0  0
M  END
