4
q = 0.0, confidence = 1.0

 44 46  0  0  1  0  0  0  0  0999 V2000
   -0.9456   -2.7173   -0.4650 S   0  0  0  0  0  0  0  0  0  0  0  0
   -2.5115    3.3228   -0.6274 S   0  0  0  0  0  0  0  0  0  0  0  0
    0.0686    0.2428   -1.7223 N   0  0  0  0  0  0  0  0  0  0  0  0
    1.9810    1.2622    0.1850 N   0  0  0  0  0  2  0  0  0  0  0  0
   -3.0548   -0.0492    0.7434 C   0  0  0  0  0  0  0  0  0  0  0  0
   -2.1965    0.1078    1.4126 H   0  0  0  0  0  0  0  0  0  0  0  0
   -3.3454   -1.3496    0.2831 C   0  0  0  0  0  0  0  0  0  0  0  0
   -2.4488   -2.4966    0.6348 C   0  0  0  0  0  0  0  0  0  0  0  0
   -2.9896   -3.4616    0.5980 H   0  0  0  0  0  0  0  0  0  0  0  0
   -1.9982   -2.3679    1.6399 H   0  0  0  0  0  0  0  0  0  0  0  0
   -1.3342   -1.8585   -2.0411 C   0  0  0  0  0  0  0  0  0  0  0  0
   -1.5049   -2.6410   -2.8062 H   0  0  0  0  0  0  0  0  0  0  0  0
   -2.2925   -1.3197   -1.9040 H   0  0  0  0  0  0  0  0  0  0  0  0
   -0.2120   -0.9420   -2.5454 C   0  0  0  0  0  0  0  0  0  0  0  0
    0.7302   -1.5257   -2.6150 H   0  0  0  0  0  0  0  0  0  0  0  0
   -0.4911   -0.6405   -3.5868 H   0  0  0  0  0  0  0  0  0  0  0  0
    1.3099    0.8983   -2.1474 C   0  0  0  0  0  0  0  0  0  0  0  0
    1.1421    1.5394   -3.0466 H   0  0  0  0  0  0  0  0  0  0  0  0
    2.0373    0.1144   -2.4478 H   0  0  0  0  0  0  0  0  0  0  0  0
   -1.0769    1.1747   -1.7036 C   0  0  0  0  0  0  0  0  0  0  0  0
   -1.9824    0.5937   -1.4590 H   0  0  0  0  0  0  0  0  0  0  0  0
   -1.2337    1.5934   -2.7300 H   0  0  0  0  0  0  0  0  0  0  0  0
   -0.9729    2.3327   -0.7062 C   0  0  0  0  0  0  0  0  0  0  0  0
   -0.1831    3.0539   -0.9933 H   0  0  0  0  0  0  0  0  0  0  0  0
   -0.7272    1.9864    0.3178 H   0  0  0  0  0  0  0  0  0  0  0  0
    1.9962    1.7258   -1.0763 C   0  0  2  0  0  3  0  0  0  0  0  0
    2.6160    1.9236    1.1663 C   0  0  0  0  0  0  0  0  0  0  0  0
    2.5492    1.4827    2.1744 H   0  0  0  0  0  0  0  0  0  0  0  0
    3.3184    3.1093    0.9252 C   0  0  0  0  0  0  0  0  0  0  0  0
    3.8233    3.6293    1.7513 H   0  0  0  0  0  0  0  0  0  0  0  0
    3.3576    3.6028   -0.3871 C   0  0  0  0  0  0  0  0  0  0  0  0
    3.9054    4.5281   -0.6202 H   0  0  0  0  0  0  0  0  0  0  0  0
    2.6866    2.9064   -1.3988 C   0  0  0  0  0  0  0  0  0  0  0  0
    2.6940    3.2662   -2.4382 H   0  0  0  0  0  0  0  0  0  0  0  0
   -3.4089    2.4509    0.7315 C   0  0  0  0  0  0  0  0  0  0  0  0
   -2.7561    2.4543    1.6279 H   0  0  0  0  0  0  0  0  0  0  0  0
   -4.2861    3.1006    0.9237 H   0  0  0  0  0  0  0  0  0  0  0  0
   -3.8262    1.0578    0.3436 C   0  0  0  0  0  0  0  0  0  0  0  0
   -4.9337    0.8403   -0.5040 C   0  0  0  0  0  0  0  0  0  0  0  0
   -5.5370    1.7005   -0.8333 H   0  0  0  0  0  0  0  0  0  0  0  0
   -5.2553   -0.4508   -0.9397 C   0  0  0  0  0  0  0  0  0  0  0  0
   -6.1292   -0.6103   -1.5894 H   0  0  0  0  0  0  0  0  0  0  0  0
   -4.4583   -1.5435   -0.5601 C   0  0  0  0  0  0  0  0  0  0  0  0
   -4.7007   -2.5563   -0.9189 H   0  0  0  0  0  0  0  0  0  0  0  0
  1  8  1  0  0  0  0
  2 35  1  0  0  0  0
  3 20  1  0  0  0  0
  4 27  1  0  0  0  0
  5  6  1  0  0  0  0
  7  8  1  0  0  0  0
  7  5  2  0  0  0  0
  8 10  1  0  0  0  0
  9  8  1  0  0  0  0
 11 13  1  0  0  0  0
 11  1  1  0  0  0  0
 12 11  1  0  0  0  0
 14 11  1  0  0  0  0
 14  3  1  0  0  0  0
 15 14  1  0  0  0  0
 16 14  1  0  0  0  0
 17  3  1  0  0  0  0
 18 17  1  0  0  0  0
 19 17  1  0  0  0  0
 20 21  1  0  0  0  0
 20 23  1  0  0  0  0
 22 20  1  0  0  0  0
 23  2  1  0  0  0  0
 23 25  1  0  0  0  0
 24 23  1  0  0  0  0
 26 17  1  6  0  0  0
 26  4  1  0  0  0  0
 27 28  1  0  0  0  0
 29 27  2  0  0  0  0
 29 30  1  0  0  0  0
 31 29  1  0  0  0  0
 32 31  1  0  0  0  0
 33 26  1  0  0  0  0
 33 31  2  0  0  0  0
 34 33  1  0  0  0  0
 35 37  1  0  0  0  0
 35 36  1  0  0  0  0
 38 35  1  0  0  0  0
 38  5  1  0  0  0  0
 39 38  2  0  0  0  0
 40 39  1  0  0  0  0
 41 43  2  0  0  0  0
 41 39  1  0  0  0  0
 42 41  1  0  0  0  0
 43  7  1  0  0  0  0
 44 43  1  0  0  0  0
M  END
