3
q = 0.0, confidence = 0.984

 11 11  0  0  0  0  0  0  0  0999 V2000
    4.1619    0.7144    0.3667 N   0  0  0  0  0  0  0  0  0  0  0  0
    2.7660    0.8370    0.6061 C   0  0  0  0  0  0  0  0  0  0  0  0
    2.0008   -0.1559   -0.0406 N   0  0  0  0  0  2  0  0  0  0  0  0
    2.5706   -1.1916   -0.6488 C   0  0  0  0  0  0  0  0  0  0  0  0
    3.9745   -1.3285   -0.7965 C   0  0  0  0  0  0  0  0  0  0  0  0
    4.7576   -0.3191   -0.2781 C   0  0  0  0  0  3  0  0  0  0  0  0
    4.7195    1.4592    0.7947 H   0  0  0  0  0  0  0  0  0  0  0  0
    1.8756   -1.9503   -1.0419 H   0  0  0  0  0  0  0  0  0  0  0  0
    4.4105   -2.1901   -1.3144 H   0  0  0  0  0  0  0  0  0  0  0  0
    5.8552   -0.2961   -0.3499 H   0  0  0  0  0  0  0  0  0  0  0  0
    2.3276    1.7175    1.3149 O   0  0  0  0  0  0  0  0  0  0  0  0
  1  2  1  0  0  0  0
  1  7  1  0  0  0  0
  2 11  2  0  0  0  0
  3  2  1  0  0  0  0
  4  3  1  0  0  0  0
  5  4  2  0  0  0  0
  5  6  1  0  0  0  0
  6  1  1  0  0  0  0
  8  4  1  0  0  0  0
  9  5  1  0  0  0  0
 10  6  1  0  0  0  0
M  END
