5
q = 0.0, confidence = 0.986

 22 24  0  0  0  0  0  0  0  0999 V2000
    4.3549   -1.8483   -0.6667 N   0  0  0  0  0  0  0  0  0  0  0  0
    5.2528    1.4346    0.7202 N   0  0  0  0  0  0  0  0  0  0  0  0
    6.4839    1.9219    0.9325 N   0  0  0  0  0  0  0  0  0  0  0  0
    6.6685   -0.1057   -0.0294 N   0  0  0  0  0  0  0  0  0  0  0  0
    1.7801   -0.7450   -0.2903 N   0  0  0  0  0  2  0  0  0  0  0  0
    3.2353   -2.5418   -0.9229 C   0  0  0  0  0  0  0  0  0  0  0  0
    3.3530   -3.5738   -1.2931 H   0  0  0  0  0  0  0  0  0  0  0  0
    1.9528   -2.0235   -0.7266 C   0  0  0  0  0  3  0  0  0  0  0  0
    1.0532   -2.6253   -0.8993 H   0  0  0  0  0  0  0  0  0  0  0  0
    2.8932   -0.0255   -0.0535 C   0  0  0  0  0  0  0  0  0  0  0  0
    2.7985    1.0265    0.2473 H   0  0  0  0  0  0  0  0  0  0  0  0
    4.1811   -0.5868   -0.2129 C   0  0  0  0  0  0  0  0  0  0  0  0
    5.3328    0.2249    0.1434 C   0  0  0  0  0  0  0  0  0  0  0  0
    7.3634    1.0063    0.4829 C   0  0  0  0  0  0  0  0  0  0  0  0
    8.7782    1.0067    0.4553 C   0  0  0  0  0  0  0  0  0  0  0  0
    9.3053    1.8825    0.8561 H   0  0  0  0  0  0  0  0  0  0  0  0
    9.4333   -0.0921   -0.0755 C   0  0  0  0  0  0  0  0  0  0  0  0
   10.5321   -0.1154   -0.1090 H   0  0  0  0  0  0  0  0  0  0  0  0
    8.6911   -1.2028   -0.5815 C   0  0  0  0  0  0  0  0  0  0  0  0
    9.2107   -2.0761   -0.9990 H   0  0  0  0  0  0  0  0  0  0  0  0
    7.3133   -1.2057   -0.5552 C   0  0  0  0  0  0  0  0  0  0  0  0
    6.6563   -2.0112   -0.9081 H   0  0  0  0  0  0  0  0  0  0  0  0
  1 12  1  0  0  0  0
  2  3  1  0  0  0  0
  4 13  1  0  0  0  0
  4 14  1  0  0  0  0
  5 10  1  0  0  0  0
  6  8  1  0  0  0  0
  6  1  2  0  0  0  0
  7  6  1  0  0  0  0
  8  5  1  0  0  0  0
  9  8  1  0  0  0  0
 10 11  1  0  0  0  0
 12 10  2  0  0  0  0
 12 13  1  0  0  0  0
 13  2  2  0  0  0  0
 14  3  2  0  0  0  0
 15 14  1  0  0  0  0
 15 16  1  0  0  0  0
 17 15  2  0  0  0  0
 18 17  1  0  0  0  0
 19 21  2  0  0  0  0
 19 17  1  0  0  0  0
 20 19  1  0  0  0  0
 21  4  1  0  0  0  0
 22 21  1  0  0  0  0
M  END
