1
q = -1.0, confidence = 0.092

 21 22  0  0  1  0  0  0  0  0999 V2000
   -1.9862   -0.9107    0.3383 N   0  0  0  0  0  0  0  0  0  0  0  0
   -1.7804    0.1404   -1.7843 C   0  0  0  0  0  3  0  0  0  0  0  0
   -2.0049    1.3923   -1.1694 C   0  0  0  0  0  3  0  0  0  0  0  0
   -2.3222    1.4496    0.1969 C   0  0  0  0  0  3  0  0  0  0  0  0
   -2.8974    0.1847    0.8126 C   0  0  1  0  0  0  0  0  0  0  0  0
   -4.2907   -0.1922    0.2472 C   0  0  0  0  0  0  0  0  0  0  0  0
   -3.9702   -1.0068   -1.0439 C   0  0  0  0  0  0  0  0  0  0  0  0
   -2.4189   -1.0551   -1.0876 C   0  0  2  0  0  0  0  0  0  0  0  0
   -2.0833   -2.1305    1.1416 C   0  0  0  0  0  0  0  0  0  0  0  0
   -1.5383    0.0811   -2.8549 H   0  0  0  0  0  0  0  0  0  0  0  0
   -1.7036    2.3129   -1.6918 H   0  0  0  0  0  0  0  0  0  0  0  0
   -2.4332    2.4116    0.7147 H   0  0  0  0  0  0  0  0  0  0  0  0
   -2.8539    0.2306    1.9163 H   0  0  0  0  0  0  0  0  0  0  0  0
   -4.8811    0.7201    0.0381 H   0  0  0  0  0  0  0  0  0  0  0  0
   -4.8720   -0.7982    0.9721 H   0  0  0  0  0  0  0  0  0  0  0  0
   -4.3675   -0.5290   -1.9597 H   0  0  0  0  0  0  0  0  0  0  0  0
   -4.4021   -2.0272   -0.9926 H   0  0  0  0  0  0  0  0  0  0  0  0
   -2.0318   -2.0120   -1.4895 H   0  0  0  0  0  0  0  0  0  0  0  0
   -3.1365   -2.4644    1.2710 H   0  0  0  0  0  0  0  0  0  0  0  0
   -1.5177   -2.9447    0.6514 H   0  0  0  0  0  0  0  0  0  0  0  0
   -1.6340   -1.9353    2.1336 H   0  0  0  0  0  0  0  0  0  0  0  0
  1  5  1  0  0  0  0
  1  9  1  0  0  0  0
  2  3  1  0  0  0  0
  2  8  1  0  0  0  0
  3  4  1  0  0  0  0
  4 12  1  0  0  0  0
  4  5  1  0  0  0  0
  5 13  1  1  0  0  0
  6  5  1  0  0  0  0
  6 15  1  0  0  0  0
  7 17  1  0  0  0  0
  7  6  1  0  0  0  0
  8 18  1  6  0  0  0
  8  7  1  0  0  0  0
  8  1  1  0  0  0  0
  9 19  1  0  0  0  0
  9 21  1  0  0  0  0
 10  2  1  0  0  0  0
 11  3  1  0  0  0  0
 14  6  1  0  0  0  0
 16  7  1  0  0  0  0
 20  9  1  0  0  0  0
M  END
