6
q = 0.0, confidence = 1.0

 62 66  0  0  1  0  0  0  0  0999 V2000
   -0.0750   -0.5331   -0.7222 P   0  0  1  0  0  0  0  0  0  0  0  0
    0.0369   -3.4232   -2.4908 N   0  0  2  0  0  0  0  0  0  0  0  0
    0.4732   -0.4400   -2.3903 N   0  0  0  0  0  0  0  0  0  0  0  0
   -1.5991   -1.3358   -0.9509 N   0  0  0  0  0  0  0  0  0  0  0  0
    0.8596   -1.8196    0.0012 N   0  0  0  0  0  0  0  0  0  0  0  0
    1.8510    1.8631   -0.9993 N   0  0  0  0  0  2  0  0  0  0  0  0
   -4.4036   -0.8153    1.4254 N   0  0  0  0  0  0  0  0  0  0  0  0
    3.6272   -1.8384    2.4447 N   0  0  0  0  0  0  0  0  0  0  0  0
    0.7731   -2.6730   -3.4783 C   0  0  0  0  0  0  0  0  0  0  0  0
    0.0788   -2.4114   -4.3051 H   0  0  0  0  0  0  0  0  0  0  0  0
    1.5785   -3.3056   -3.9311 H   0  0  0  0  0  0  0  0  0  0  0  0
    1.4321   -1.3888   -2.9491 C   0  0  0  0  0  0  0  0  0  0  0  0
    2.2105   -1.6677   -2.2015 H   0  0  0  0  0  0  0  0  0  0  0  0
    1.9796   -0.8939   -3.7800 H   0  0  0  0  0  0  0  0  0  0  0  0
   -1.4049   -3.3695   -2.4646 C   0  0  0  0  0  0  0  0  0  0  0  0
   -1.7588   -4.0900   -1.6964 H   0  0  0  0  0  0  0  0  0  0  0  0
   -1.8314   -3.7284   -3.4360 H   0  0  0  0  0  0  0  0  0  0  0  0
   -2.0124   -1.9761   -2.1909 C   0  0  0  0  0  0  0  0  0  0  0  0
   -1.7389   -1.3100   -3.0366 H   0  0  0  0  0  0  0  0  0  0  0  0
   -3.1219   -2.0593   -2.1969 H   0  0  0  0  0  0  0  0  0  0  0  0
    0.7489   -3.9707   -1.3615 C   0  0  0  0  0  0  0  0  0  0  0  0
    1.8329   -3.9702   -1.6027 H   0  0  0  0  0  0  0  0  0  0  0  0
    0.4707   -5.0434   -1.1981 H   0  0  0  0  0  0  0  0  0  0  0  0
    0.5118   -3.2339   -0.0322 C   0  0  0  0  0  0  0  0  0  0  0  0
   -0.5595   -3.3550    0.2374 H   0  0  0  0  0  0  0  0  0  0  0  0
    1.0795   -3.7526    0.7699 H   0  0  0  0  0  0  0  0  0  0  0  0
    0.5741    0.9352   -2.8744 C   0  0  0  0  0  0  0  0  0  0  0  0
   -0.3329    1.4871   -2.5468 H   0  0  0  0  0  0  0  0  0  0  0  0
    0.5837    0.9342   -3.9849 H   0  0  0  0  0  0  0  0  0  0  0  0
    1.7905    1.6682   -2.3536 C   0  0  2  0  0  3  0  0  0  0  0  0
    2.8111    2.0981   -3.2132 C   0  0  0  0  0  0  0  0  0  0  0  0
    2.7057    1.9150   -4.2935 H   0  0  0  0  0  0  0  0  0  0  0  0
    3.9367    2.7586   -2.7006 C   0  0  0  0  0  0  0  0  0  0  0  0
    4.7434    3.1044   -3.3636 H   0  0  0  0  0  0  0  0  0  0  0  0
    3.9968    2.9591   -1.3133 C   0  0  0  0  0  0  0  0  0  0  0  0
    4.8525    3.4637   -0.8416 H   0  0  0  0  0  0  0  0  0  0  0  0
    2.9494    2.4980   -0.5125 C   0  0  0  0  0  0  0  0  0  0  0  0
    2.9790    2.6301    0.5778 H   0  0  0  0  0  0  0  0  0  0  0  0
   -2.4181   -1.4988    0.2282 C   0  0  0  0  0  0  0  0  0  0  0  0
   -1.8174   -1.2170    1.1204 H   0  0  0  0  0  0  0  0  0  0  0  0
   -2.6976   -2.5658    0.4024 H   0  0  0  0  0  0  0  0  0  0  0  0
   -3.6978   -0.6784    0.2856 C   0  0  0  0  0  0  0  0  0  0  0  0
   -4.1056    0.1715   -0.7591 C   0  0  0  0  0  0  0  0  0  0  0  0
   -3.4865    0.2579   -1.6624 H   0  0  0  0  0  0  0  0  0  0  0  0
   -5.2877    0.9090   -0.6058 C   0  0  0  0  0  0  0  0  0  0  0  0
   -5.6293    1.5864   -1.4037 H   0  0  0  0  0  0  0  0  0  0  0  0
   -6.0184    0.7778    0.5832 C   0  0  0  0  0  0  0  0  0  0  0  0
   -6.9475    1.3422    0.7516 H   0  0  0  0  0  0  0  0  0  0  0  0
   -5.5282   -0.0999    1.5653 C   0  0  0  0  0  0  0  0  0  0  0  0
   -6.0748   -0.2280    2.5174 H   0  0  0  0  0  0  0  0  0  0  0  0
    2.1261   -1.4288    0.5899 C   0  0  0  0  0  0  0  0  0  0  0  0
    2.1477   -0.3107    0.5448 H   0  0  0  0  0  0  0  0  0  0  0  0
    3.0171   -1.7743    0.0140 H   0  0  0  0  0  0  0  0  0  0  0  0
    2.3431   -1.8329    2.0354 C   0  0  0  0  0  0  0  0  0  0  0  0
    1.2751   -2.1398    2.9044 C   0  0  0  0  0  0  0  0  0  0  0  0
    0.2434   -2.1289    2.5251 H   0  0  0  0  0  0  0  0  0  0  0  0
    1.5567   -2.4513    4.2405 C   0  0  0  0  0  0  0  0  0  0  0  0
    0.7413   -2.6940    4.9393 H   0  0  0  0  0  0  0  0  0  0  0  0
    2.8918   -2.4447    4.6702 C   0  0  0  0  0  0  0  0  0  0  0  0
    3.1618   -2.6822    5.7099 H   0  0  0  0  0  0  0  0  0  0  0  0
    3.8845   -2.1305    3.7277 C   0  0  0  0  0  0  0  0  0  0  0  0
    4.9487   -2.1193    4.0272 H   0  0  0  0  0  0  0  0  0  0  0  0
  1  3  1  6  0  0  0
  1  5  1  0  0  0  0
  2  9  1  1  0  0  0
  2 15  1  0  0  0  0
  2 21  1  0  0  0  0
  4  1  1  0  0  0  0
  4 39  1  0  0  0  0
  5 51  1  0  0  0  0
  6 37  1  0  0  0  0
  7 49  1  0  0  0  0
  8 61  1  0  0  0  0
  9 12  1  0  0  0  0
 10  9  1  0  0  0  0
 11  9  1  0  0  0  0
 12  3  1  0  0  0  0
 12 13  1  0  0  0  0
 14 12  1  0  0  0  0
 15 18  1  0  0  0  0
 15 16  1  0  0  0  0
 17 15  1  0  0  0  0
 18  4  1  0  0  0  0
 19 18  1  0  0  0  0
 20 18  1  0  0  0  0
 21 23  1  0  0  0  0
 21 24  1  0  0  0  0
 22 21  1  0  0  0  0
 24  5  1  0  0  0  0
 24 25  1  0  0  0  0
 24 26  1  0  0  0  0
 27 28  1  0  0  0  0
 27  3  1  0  0  0  0
 29 27  1  0  0  0  0
 30 27  1  1  0  0  0
 30  6  1  0  0  0  0
 31 33  2  0  0  0  0
 31 30  1  0  0  0  0
 32 31  1  0  0  0  0
 33 35  1  0  0  0  0
 34 33  1  0  0  0  0
 35 36  1  0  0  0  0
 35 37  2  0  0  0  0
 37 38  1  0  0  0  0
 39 42  1  0  0  0  0
 39 41  1  0  0  0  0
 39 40  1  0  0  0  0
 42  7  2  0  0  0  0
 43 45  2  0  0  0  0
 43 42  1  0  0  0  0
 44 43  1  0  0  0  0
 45 47  1  0  0  0  0
 46 45  1  0  0  0  0
 47 48  1  0  0  0  0
 47 49  2  0  0  0  0
 49 50  1  0  0  0  0
 51 54  1  0  0  0  0
 52 51  1  0  0  0  0
 53 51  1  0  0  0  0
 54  8  2  0  0  0  0
 54 55  1  0  0  0  0
 55 57  2  0  0  0  0
 56 55  1  0  0  0  0
 57 59  1  0  0  0  0
 57 58  1  0  0  0  0
 59 60  1  0  0  0  0
 61 62  1  0  0  0  0
 61 59  2  0  0  0  0
M  END
