2
q = -1.0, confidence = 0.0

 58 60  0  0  0  0  0  0  0  0999 V2000
   -0.2022   -1.4327   -1.4232 S   0  0  0  0  0  1  0  0  0  0  0  0
    0.6462   -1.8646    1.3241 N   0  0  0  0  0  2  0  0  0  0  0  0
   -0.8979   -0.4621    0.0430 C   0  0  0  0  0  0  0  0  0  0  0  0
    0.9811   -2.6502    2.3661 C   0  0  0  0  0  3  0  0  0  0  0  0
    0.0892   -2.9582    3.4000 C   0  0  0  0  0  0  0  0  0  0  0  0
   -1.1995   -2.4113    3.3500 C   0  0  0  0  0  0  0  0  0  0  0  0
   -1.5475   -1.5883    2.2704 C   0  0  0  0  0  0  0  0  0  0  0  0
   -0.6110   -1.3358    1.2542 C   0  0  0  0  0  0  0  0  0  0  0  0
   -0.1400    0.8718    0.1539 C   0  0  0  0  0  0  0  0  0  0  0  0
    0.3689    1.3558    1.3745 C   0  0  0  0  0  0  0  0  0  0  0  0
    1.0615    2.5739    1.4349 C   0  0  0  0  0  0  0  0  0  0  0  0
    1.2596    3.3733    0.2900 C   0  0  0  0  0  0  0  0  0  0  0  0
    0.7090    2.8990   -0.9203 C   0  0  0  0  0  0  0  0  0  0  0  0
    0.0262    1.6788   -0.9872 C   0  0  0  0  0  0  0  0  0  0  0  0
    2.0507    4.6890    0.3929 C   0  0  0  0  0  0  0  0  0  0  0  0
    3.4941    4.3786    0.8517 C   0  0  0  0  0  0  0  0  0  0  0  0
    2.1207    5.4303   -0.9534 C   0  0  0  0  0  0  0  0  0  0  0  0
    1.3706    5.6173    1.4246 C   0  0  0  0  0  0  0  0  0  0  0  0
   -2.4013   -0.2511   -0.1500 C   0  0  0  0  0  0  0  0  0  0  0  0
   -3.2110   -1.3083   -0.6164 C   0  0  0  0  0  0  0  0  0  0  0  0
   -4.5938   -1.1513   -0.7429 C   0  0  0  0  0  0  0  0  0  0  0  0
   -5.2386    0.0638   -0.4144 C   0  0  0  0  0  0  0  0  0  0  0  0
   -4.4233    1.1122    0.0503 C   0  0  0  0  0  0  0  0  0  0  0  0
   -3.0321    0.9601    0.1819 C   0  0  0  0  0  0  0  0  0  0  0  0
   -6.7624    0.1946   -0.5792 C   0  0  0  0  0  0  0  0  0  0  0  0
   -7.1345   -0.0429   -2.0607 C   0  0  0  0  0  0  0  0  0  0  0  0
   -7.4620   -0.8634    0.3043 C   0  0  0  0  0  0  0  0  0  0  0  0
   -7.2743    1.5856   -0.1673 C   0  0  0  0  0  0  0  0  0  0  0  0
    2.0072   -3.0470    2.3628 H   0  0  0  0  0  0  0  0  0  0  0  0
    0.4099   -3.6125    4.2226 H   0  0  0  0  0  0  0  0  0  0  0  0
   -1.9303   -2.6202    4.1459 H   0  0  0  0  0  0  0  0  0  0  0  0
   -2.5450   -1.1349    2.1975 H   0  0  0  0  0  0  0  0  0  0  0  0
    0.2399    0.7714    2.2976 H   0  0  0  0  0  0  0  0  0  0  0  0
    1.4594    2.9020    2.4078 H   0  0  0  0  0  0  0  0  0  0  0  0
    0.8189    3.4846   -1.8433 H   0  0  0  0  0  0  0  0  0  0  0  0
   -0.3643    1.3123   -1.9484 H   0  0  0  0  0  0  0  0  0  0  0  0
    4.0804    5.3156    0.9535 H   0  0  0  0  0  0  0  0  0  0  0  0
    3.5113    3.8603    1.8310 H   0  0  0  0  0  0  0  0  0  0  0  0
    4.0112    3.7275    0.1179 H   0  0  0  0  0  0  0  0  0  0  0  0
    2.6938    6.3720   -0.8349 H   0  0  0  0  0  0  0  0  0  0  0  0
    2.6301    4.8258   -1.7307 H   0  0  0  0  0  0  0  0  0  0  0  0
    1.1126    5.6969   -1.3299 H   0  0  0  0  0  0  0  0  0  0  0  0
    1.9294    6.5718    1.5161 H   0  0  0  0  0  0  0  0  0  0  0  0
    0.3314    5.8537    1.1184 H   0  0  0  0  0  0  0  0  0  0  0  0
    1.3285    5.1548    2.4306 H   0  0  0  0  0  0  0  0  0  0  0  0
   -2.7294   -2.2586   -0.8937 H   0  0  0  0  0  0  0  0  0  0  0  0
   -5.1862   -2.0011   -1.1161 H   0  0  0  0  0  0  0  0  0  0  0  0
   -4.8671    2.0809    0.3179 H   0  0  0  0  0  0  0  0  0  0  0  0
   -2.4304    1.8043    0.5485 H   0  0  0  0  0  0  0  0  0  0  0  0
   -6.6435    0.7045   -2.7160 H   0  0  0  0  0  0  0  0  0  0  0  0
   -6.8243   -1.0487   -2.4067 H   0  0  0  0  0  0  0  0  0  0  0  0
   -8.2321    0.0400   -2.2031 H   0  0  0  0  0  0  0  0  0  0  0  0
   -8.5641   -0.7942    0.1934 H   0  0  0  0  0  0  0  0  0  0  0  0
   -7.1600   -1.8936    0.0299 H   0  0  0  0  0  0  0  0  0  0  0  0
   -7.2131   -0.7122    1.3743 H   0  0  0  0  0  0  0  0  0  0  0  0
   -6.8269    2.3891   -0.7864 H   0  0  0  0  0  0  0  0  0  0  0  0
   -8.3740    1.6357   -0.2993 H   0  0  0  0  0  0  0  0  0  0  0  0
   -7.0551    1.8073    0.8967 H   0  0  0  0  0  0  0  0  0  0  0  0
  1  3  1  0  0  0  0
  2  4  1  0  0  0  0
  3  9  1  0  0  0  0
  3  8  1  0  0  0  0
  4  5  1  0  0  0  0
  5 30  1  0  0  0  0
  6  5  2  0  0  0  0
  6 31  1  0  0  0  0
  7  6  1  0  0  0  0
  8  2  1  0  0  0  0
  8  7  2  0  0  0  0
  9 10  1  0  0  0  0
 10 11  2  0  0  0  0
 10 33  1  0  0  0  0
 11 34  1  0  0  0  0
 12 15  1  0  0  0  0
 12 11  1  0  0  0  0
 13 12  2  0  0  0  0
 14 13  1  0  0  0  0
 14  9  2  0  0  0  0
 15 16  1  0  0  0  0
 15 18  1  0  0  0  0
 16 37  1  0  0  0  0
 16 38  1  0  0  0  0
 17 40  1  0  0  0  0
 17 15  1  0  0  0  0
 18 43  1  0  0  0  0
 18 45  1  0  0  0  0
 19  3  1  0  0  0  0
 19 24  1  0  0  0  0
 20 19  2  0  0  0  0
 21 20  1  0  0  0  0
 21 22  2  0  0  0  0
 22 23  1  0  0  0  0
 23 24  2  0  0  0  0
 23 48  1  0  0  0  0
 24 49  1  0  0  0  0
 25 22  1  0  0  0  0
 25 28  1  0  0  0  0
 25 27  1  0  0  0  0
 26 25  1  0  0  0  0
 27 55  1  0  0  0  0
 28 58  1  0  0  0  0
 29  4  1  0  0  0  0
 32  7  1  0  0  0  0
 35 13  1  0  0  0  0
 36 14  1  0  0  0  0
 39 16  1  0  0  0  0
 41 17  1  0  0  0  0
 42 17  1  0  0  0  0
 44 18  1  0  0  0  0
 46 20  1  0  0  0  0
 47 21  1  0  0  0  0
 50 26  1  0  0  0  0
 51 26  1  0  0  0  0
 52 26  1  0  0  0  0
 53 27  1  0  0  0  0
 54 27  1  0  0  0  0
 56 28  1  0  0  0  0
 57 28  1  0  0  0  0
M  END
