2
q = 0.0, confidence = 0.998

 14 14  0  0  1  0  0  0  0  0999 V2000
    6.2250   -1.1280   -0.0157 Br  0  0  0  0  0  0  0  0  0  0  0  0
    2.3814    0.2456    0.0037 N   0  0  0  0  0  2  0  0  0  0  0  0
    3.0885    1.4202    0.0165 N   0  0  0  0  0  0  0  0  0  0  0  0
    5.3820    2.1503    0.0508 N   0  0  0  0  0  0  0  0  0  0  0  0
    6.3443    1.8106   -0.0213 H   0  0  0  0  0  0  0  0  0  0  0  0
    5.2130    3.0343   -0.4312 H   0  0  0  0  0  0  0  0  0  0  0  0
    4.4317    1.1740   -0.0037 C   0  0  1  0  0  3  0  0  0  0  0  0
    4.5842   -0.2317    0.0006 C   0  0  0  0  0  0  0  0  0  0  0  0
    3.2853   -0.7575    0.0055 C   0  0  0  0  0  0  0  0  0  0  0  0
    2.9623   -1.8039    0.0058 H   0  0  0  0  0  0  0  0  0  0  0  0
    2.4419    2.7149    0.0272 C   0  0  0  0  0  0  0  0  0  0  0  0
    2.3160    3.1236   -0.9975 H   0  0  0  0  0  0  0  0  0  0  0  0
    3.0465    3.4139    0.6374 H   0  0  0  0  0  0  0  0  0  0  0  0
    1.4455    2.6113    0.4977 H   0  0  0  0  0  0  0  0  0  0  0  0
  1  8  1  0  0  0  0
  2  9  1  0  0  0  0
  2  3  1  0  0  0  0
  3 11  1  0  0  0  0
  5  4  1  0  0  0  0
  6  4  1  0  0  0  0
  7  8  1  0  0  0  0
  7  3  1  0  0  0  0
  7  4  1  1  0  0  0
  8  9  2  0  0  0  0
  9 10  1  0  0  0  0
 11 14  1  0  0  0  0
 11 13  1  0  0  0  0
 12 11  1  0  0  0  0
M  END
