8
q = 0.0, confidence = 0.996

 30 32  0  0  1  0  0  0  0  0999 V2000
    2.2082   -3.3654   -0.4877 S   0  0  0  0  0  0  0  0  0  0  0  0
   -1.3266   -0.2865    0.7748 S   0  0  0  0  0  0  0  0  0  0  0  0
   -2.5060   -2.4332   -0.3448 N   0  0  0  0  0  0  0  0  0  0  0  0
   -2.4017   -3.3301   -0.8304 H   0  0  0  0  0  0  0  0  0  0  0  0
   -0.2433   -2.2507   -0.7392 N   0  0  0  0  0  0  0  0  0  0  0  0
   -0.3827   -3.0510   -1.3640 H   0  0  0  0  0  0  0  0  0  0  0  0
   -3.8585   -2.0902   -0.0459 C   0  0  0  0  0  0  0  0  0  0  0  0
    1.5853   -0.8890    0.0594 N   0  0  0  0  0  2  0  0  0  0  0  0
    1.0770   -2.0284   -0.3717 C   0  0  2  0  0  3  0  0  0  0  0  0
   -4.2294   -1.4862    1.1698 C   0  0  0  0  0  0  0  0  0  0  0  0
   -3.4775   -1.2765    1.9412 H   0  0  0  0  0  0  0  0  0  0  0  0
   -1.3762   -1.7120   -0.1434 C   0  0  0  0  0  0  0  0  0  0  0  0
    4.8315   -2.6091    0.2978 C   0  0  0  0  0  0  0  0  0  0  0  0
    5.2331   -3.6057    0.0670 H   0  0  0  0  0  0  0  0  0  0  0  0
    2.9427   -1.0183    0.3829 C   0  0  0  0  0  0  0  0  0  0  0  0
    3.4774   -2.3038    0.0958 C   0  0  0  0  0  0  0  0  0  0  0  0
    3.7791   -0.0226    0.9237 C   0  0  0  0  0  0  0  0  0  0  0  0
    3.3431    0.9428    1.2131 H   0  0  0  0  0  0  0  0  0  0  0  0
    5.6514   -1.5998    0.8162 C   0  0  0  0  0  0  0  0  0  0  0  0
    6.7161   -1.8108    0.9930 H   0  0  0  0  0  0  0  0  0  0  0  0
   -4.8353   -2.4222   -1.0062 C   0  0  0  0  0  0  0  0  0  0  0  0
   -4.5379   -2.9006   -1.9525 H   0  0  0  0  0  0  0  0  0  0  0  0
   -5.5804   -1.1867    1.3998 C   0  0  0  0  0  0  0  0  0  0  0  0
   -5.8707   -0.7162    2.3507 H   0  0  0  0  0  0  0  0  0  0  0  0
   -6.5559   -1.5020    0.4425 C   0  0  0  0  0  0  0  0  0  0  0  0
   -7.6135   -1.2698    0.6354 H   0  0  0  0  0  0  0  0  0  0  0  0
    5.1270   -0.3271    1.1324 C   0  0  0  0  0  0  0  0  0  0  0  0
    5.7890    0.4370    1.5652 H   0  0  0  0  0  0  0  0  0  0  0  0
   -6.1812   -2.1289   -0.7575 C   0  0  0  0  0  0  0  0  0  0  0  0
   -6.9410   -2.3875   -1.5095 H   0  0  0  0  0  0  0  0  0  0  0  0
  1  9  1  0  0  0  0
  1 16  1  0  0  0  0
  3 12  1  0  0  0  0
  3  7  1  0  0  0  0
  4  3  1  0  0  0  0
  5 12  1  0  0  0  0
  6  5  1  0  0  0  0
  7 10  1  0  0  0  0
  8 15  1  0  0  0  0
  9  5  1  6  0  0  0
  9  8  1  0  0  0  0
 10 23  2  0  0  0  0
 10 11  1  0  0  0  0
 12  2  2  0  0  0  0
 13 19  1  0  0  0  0
 14 13  1  0  0  0  0
 15 17  2  0  0  0  0
 16 13  2  0  0  0  0
 16 15  1  0  0  0  0
 17 27  1  0  0  0  0
 17 18  1  0  0  0  0
 19 20  1  0  0  0  0
 19 27  2  0  0  0  0
 21 29  1  0  0  0  0
 21  7  2  0  0  0  0
 22 21  1  0  0  0  0
 23 24  1  0  0  0  0
 25 26  1  0  0  0  0
 25 23  1  0  0  0  0
 27 28  1  0  0  0  0
 29 25  2  0  0  0  0
 30 29  1  0  0  0  0
M  END
