2
q = -1.0, confidence = 0.0

  9  9  0  0  0  0  0  0  0  0999 V2000
    0.1949    2.5770   -0.8911 N   0  0  0  0  0  0  0  0  0  0  0  0
    0.4579    1.2752   -1.0397 N   0  0  0  0  0  2  0  0  0  0  0  0
    1.4990    1.0515   -1.8458 N   0  0  0  0  0  0  0  0  0  0  0  0
    1.9282    2.2316   -2.2591 N   0  0  0  0  0  0  0  0  0  0  0  0
    1.1260    3.1599   -1.6739 C   0  0  0  0  0  0  0  0  0  0  0  0
    1.2526    4.6289   -1.8901 C   0  0  0  0  0  0  0  0  0  0  0  0
    2.2592    4.8601   -2.2839 H   0  0  0  0  0  0  0  0  0  0  0  0
    1.0870    5.1877   -0.9493 H   0  0  0  0  0  0  0  0  0  0  0  0
    0.5081    4.9902   -2.6296 H   0  0  0  0  0  0  0  0  0  0  0  0
  2  1  1  0  0  0  0
  3  2  1  0  0  0  0
  4  3  2  0  0  0  0
  4  5  1  0  0  0  0
  5  1  2  0  0  0  0
  6  5  1  0  0  0  0
  6  8  1  0  0  0  0
  7  6  1  0  0  0  0
  9  6  1  0  0  0  0
M  END
