1
q = -1.0, confidence = 0.0

 14 14  0  0  0  0  0  0  0  0999 V2000
   -1.0080    0.2456    0.1578 N   0  0  0  0  0  0  0  0  0  0  0  0
   -1.7863   -0.8515    0.2709 N   0  0  0  0  0  2  0  0  0  0  0  0
   -3.0547   -0.4473    0.0505 C   0  0  0  0  0  0  0  0  0  0  0  0
   -3.0815    0.9465   -0.2239 C   0  0  0  0  0  0  0  0  0  0  0  0
   -1.7436    1.3592   -0.1517 C   0  0  0  0  0  0  0  0  0  0  0  0
   -4.1931   -1.4179    0.1327 C   0  0  0  0  0  0  0  0  0  0  0  0
   -1.1498    2.7180   -0.3462 C   0  0  0  0  0  0  0  0  0  0  0  0
   -3.9517    1.5810   -0.4300 H   0  0  0  0  0  0  0  0  0  0  0  0
   -3.7991   -2.4420    0.2790 H   0  0  0  0  0  0  0  0  0  0  0  0
   -4.8119   -1.4083   -0.7889 H   0  0  0  0  0  0  0  0  0  0  0  0
   -4.8724   -1.1884    0.9811 H   0  0  0  0  0  0  0  0  0  0  0  0
   -0.6523    3.0946    0.5720 H   0  0  0  0  0  0  0  0  0  0  0  0
   -1.9395    3.4432   -0.6195 H   0  0  0  0  0  0  0  0  0  0  0  0
   -0.3864    2.7333   -1.1537 H   0  0  0  0  0  0  0  0  0  0  0  0
  1  2  1  0  0  0  0
  3  6  1  0  0  0  0
  3  2  1  0  0  0  0
  4  5  1  0  0  0  0
  4  3  2  0  0  0  0
  5  1  2  0  0  0  0
  6  9  1  0  0  0  0
  6 11  1  0  0  0  0
  7  5  1  0  0  0  0
  7 12  1  0  0  0  0
  8  4  1  0  0  0  0
 10  6  1  0  0  0  0
 13  7  1  0  0  0  0
 14  7  1  0  0  0  0
M  END
