1
q = 0.0, confidence = 1.0

 31 32  0  0  1  0  0  0  0  0999 V2000
   -1.9417   -0.0655   -0.8792 N   0  0  0  0  0  0  0  0  0  0  0  0
   -3.0793    0.4759   -0.0824 C   0  0  2  0  0  0  0  0  0  0  0  0
   -2.5705    1.2232   -1.3006 C   0  0  0  0  0  0  0  0  0  0  0  0
   -1.7550    2.4883   -1.1350 C   0  0  0  0  0  0  0  0  0  0  0  0
   -3.3203    1.1574   -2.6163 C   0  0  0  0  0  0  0  0  0  0  0  0
   -2.7341    0.9662    1.3281 C   0  0  0  0  0  0  0  0  0  0  0  0
   -3.7151    1.9745    1.8546 C   0  0  0  0  0  0  0  0  0  0  0  0
   -3.4122    3.2434    2.1804 C   0  0  0  0  0  0  0  0  0  0  0  0
   -4.3606   -0.3114   -0.1485 C   0  0  0  0  0  0  0  0  0  0  0  0
   -5.5868    0.3275   -0.4214 C   0  0  0  0  0  0  0  0  0  0  0  0
   -6.7812   -0.4081   -0.4338 C   0  0  0  0  0  0  0  0  0  0  0  0
   -6.7613   -1.7876   -0.1719 C   0  0  0  0  0  0  0  0  0  0  0  0
   -5.5436   -2.4265    0.1117 C   0  0  0  0  0  0  0  0  0  0  0  0
   -4.3473   -1.6935    0.1298 C   0  0  0  0  0  0  0  0  0  0  0  0
   -2.2596   -0.8391   -1.4807 H   0  0  0  0  0  0  0  0  0  0  0  0
   -1.1024    2.6302   -2.0167 H   0  0  0  0  0  0  0  0  0  0  0  0
   -1.0943    2.4538   -0.2518 H   0  0  0  0  0  0  0  0  0  0  0  0
   -2.4394    3.3541   -1.0321 H   0  0  0  0  0  0  0  0  0  0  0  0
   -3.9327    0.2407   -2.7105 H   0  0  0  0  0  0  0  0  0  0  0  0
   -2.5905    1.1902   -3.4505 H   0  0  0  0  0  0  0  0  0  0  0  0
   -3.9976    2.0288   -2.7193 H   0  0  0  0  0  0  0  0  0  0  0  0
   -2.7024    0.0632    1.9749 H   0  0  0  0  0  0  0  0  0  0  0  0
   -1.7057    1.3752    1.3392 H   0  0  0  0  0  0  0  0  0  0  0  0
   -4.7550    1.6227    1.9803 H   0  0  0  0  0  0  0  0  0  0  0  0
   -2.3872    3.6363    2.0714 H   0  0  0  0  0  0  0  0  0  0  0  0
   -4.1728    3.9337    2.5773 H   0  0  0  0  0  0  0  0  0  0  0  0
   -5.6001    1.4086   -0.6276 H   0  0  0  0  0  0  0  0  0  0  0  0
   -7.7335    0.0988   -0.6520 H   0  0  0  0  0  0  0  0  0  0  0  0
   -7.6984   -2.3648   -0.1857 H   0  0  0  0  0  0  0  0  0  0  0  0
   -5.5237   -3.5055    0.3280 H   0  0  0  0  0  0  0  0  0  0  0  0
   -3.3893   -2.1791    0.3827 H   0  0  0  0  0  0  0  0  0  0  0  0
  1  2  1  0  0  0  0
  2  6  1  1  0  0  0
  3  4  1  0  0  0  0
  3  1  1  0  0  0  0
  3  2  1  0  0  0  0
  4 18  1  0  0  0  0
  4 17  1  0  0  0  0
  5  3  1  0  0  0  0
  6 23  1  0  0  0  0
  6  7  1  0  0  0  0
  6 22  1  0  0  0  0
  7 24  1  0  0  0  0
  7  8  2  0  0  0  0
  8 26  1  0  0  0  0
  9  2  1  0  0  0  0
  9 14  1  0  0  0  0
 10  9  2  0  0  0  0
 11 10  1  0  0  0  0
 11 12  2  0  0  0  0
 12 13  1  0  0  0  0
 13 14  2  0  0  0  0
 13 30  1  0  0  0  0
 14 31  1  0  0  0  0
 15  1  1  0  0  0  0
 16  4  1  0  0  0  0
 19  5  1  0  0  0  0
 20  5  1  0  0  0  0
 21  5  1  0  0  0  0
 25  8  1  0  0  0  0
 27 10  1  0  0  0  0
 28 11  1  0  0  0  0
 29 12  1  0  0  0  0
M  END
