1
q = 0.0, confidence = 0.996

 29 31  0  0  1  0  0  0  0  0999 V2000
    0.9499   -0.4204   -0.7251 N   0  0  0  0  0  2  0  0  0  0  0  0
    1.8911   -0.1593    0.1464 C   0  0  2  0  0  3  0  0  0  0  0  0
    3.2387   -0.7506    0.0179 C   0  0  0  0  0  0  0  0  0  0  0  0
    4.1358   -0.8022    1.1072 C   0  0  0  0  0  0  0  0  0  0  0  0
    3.8233   -0.4015    2.0821 H   0  0  0  0  0  0  0  0  0  0  0  0
    5.4052   -1.3739    0.9529 C   0  0  0  0  0  0  0  0  0  0  0  0
    6.0957   -1.4139    1.8084 H   0  0  0  0  0  0  0  0  0  0  0  0
    5.7893   -1.8993   -0.2910 C   0  0  0  0  0  0  0  0  0  0  0  0
    6.7858   -2.3496   -0.4160 H   0  0  0  0  0  0  0  0  0  0  0  0
    4.8984   -1.8621   -1.3765 C   0  0  0  0  0  0  0  0  0  0  0  0
    5.1969   -2.2831   -2.3495 H   0  0  0  0  0  0  0  0  0  0  0  0
    3.6225   -1.2993   -1.2357 C   0  0  0  0  0  0  0  0  0  0  0  0
    2.6229   -1.2205   -2.3609 C   0  0  0  0  0  0  0  0  0  0  0  0
    2.8232   -1.9944   -3.1282 H   0  0  0  0  0  0  0  0  0  0  0  0
    2.7149   -0.2324   -2.8681 H   0  0  0  0  0  0  0  0  0  0  0  0
    1.2057   -1.3641   -1.8162 C   0  0  0  0  0  0  0  0  0  0  0  0
    0.4542   -1.1805   -2.6061 H   0  0  0  0  0  0  0  0  0  0  0  0
    1.0134   -2.3857   -1.4185 H   0  0  0  0  0  0  0  0  0  0  0  0
    1.5483    0.7329    1.2803 C   0  0  0  0  0  0  0  0  0  0  0  0
    0.3516    0.5109    1.9998 C   0  0  0  0  0  0  0  0  0  0  0  0
   -0.2564   -0.3755    1.7683 H   0  0  0  0  0  0  0  0  0  0  0  0
   -0.0237    1.3941    3.0205 C   0  0  0  0  0  0  0  0  0  0  0  0
   -0.9519    1.2115    3.5824 H   0  0  0  0  0  0  0  0  0  0  0  0
    0.7748    2.5098    3.3193 C   0  0  0  0  0  0  0  0  0  0  0  0
    0.4687    3.2096    4.1119 H   0  0  0  0  0  0  0  0  0  0  0  0
    1.9662    2.7315    2.6099 C   0  0  0  0  0  0  0  0  0  0  0  0
    2.5904    3.6085    2.8380 H   0  0  0  0  0  0  0  0  0  0  0  0
    2.3583    1.8415    1.6000 C   0  0  0  0  0  0  0  0  0  0  0  0
    3.2800    2.0248    1.0278 H   0  0  0  0  0  0  0  0  0  0  0  0
  1  2  1  0  0  0  0
  2 19  1  1  0  0  0
  3  2  1  0  0  0  0
  3  4  1  0  0  0  0
  4  5  1  0  0  0  0
  6  4  2  0  0  0  0
  6  7  1  0  0  0  0
  8  6  1  0  0  0  0
  9  8  1  0  0  0  0
 10 12  1  0  0  0  0
 10  8  2  0  0  0  0
 11 10  1  0  0  0  0
 12  3  2  0  0  0  0
 13 16  1  0  0  0  0
 13 12  1  0  0  0  0
 14 13  1  0  0  0  0
 15 13  1  0  0  0  0
 16 18  1  0  0  0  0
 16  1  1  0  0  0  0
 17 16  1  0  0  0  0
 19 28  2  0  0  0  0
 19 20  1  0  0  0  0
 20 22  2  0  0  0  0
 21 20  1  0  0  0  0
 22 24  1  0  0  0  0
 22 23  1  0  0  0  0
 24 25  1  0  0  0  0
 26 27  1  0  0  0  0
 26 24  2  0  0  0  0
 28 26  1  0  0  0  0
 29 28  1  0  0  0  0
M  END
