1
q = -1.0, confidence = 0.0

 10 10  0  0  0  0  0  0  0  0999 V2000
    2.0273   -0.1077   -0.6740 N   0  0  0  0  0  2  0  0  0  0  0  0
    1.9449   -0.0538    0.6659 C   0  0  0  0  0  2  0  0  0  0  0  0
    3.1369   -0.0484    1.4180 C   0  0  0  0  0  0  0  0  0  0  0  0
    3.1144   -0.0056    2.5184 H   0  0  0  0  0  0  0  0  0  0  0  0
    4.3631   -0.1026    0.7346 C   0  0  0  0  0  0  0  0  0  0  0  0
    5.3107   -0.0999    1.2973 H   0  0  0  0  0  0  0  0  0  0  0  0
    4.3920   -0.1611   -0.6730 C   0  0  0  0  0  0  0  0  0  0  0  0
    5.3443   -0.2055   -1.2205 H   0  0  0  0  0  0  0  0  0  0  0  0
    3.1747   -0.1591   -1.3667 C   0  0  0  0  0  0  0  0  0  0  0  0
    3.0991   -0.1971   -2.4660 H   0  0  0  0  0  0  0  0  0  0  0  0
  1  2  1  0  0  0  0
  2  3  1  0  0  0  0
  3  4  1  0  0  0  0
  5  6  1  0  0  0  0
  5  3  2  0  0  0  0
  7  5  1  0  0  0  0
  8  7  1  0  0  0  0
  9  1  1  0  0  0  0
  9  7  2  0  0  0  0
 10  9  1  0  0  0  0
M  END
