7
q = 0.0, confidence = 1.0

 13 12  0  0  1  0  0  0  0  0999 V2000
   -1.2824    1.0856   -0.0001 As  0  0  0  0  0  0  0  0  0  0  0  0
   -0.0842    2.6090   -0.0001 O   0  0  0  0  0  0  0  0  0  0  0  0
   -2.1225    1.7408   -1.4201 O   0  0  0  0  0  0  0  0  0  0  0  0
   -2.8507    1.1065   -1.5919 H   0  0  0  0  0  0  0  0  0  0  0  0
   -2.1218    1.7407    1.4204 O   0  0  0  0  0  0  0  0  0  0  0  0
   -2.8504    1.1068    1.5921 H   0  0  0  0  0  0  0  0  0  0  0  0
    1.6391    1.0768   -0.0001 N   0  0  0  0  0  2  0  0  0  0  0  0
    2.6664    0.9475   -0.0001 H   0  0  0  0  0  0  0  0  0  0  0  0
    1.1953    2.3119   -0.0001 C   0  0  2  0  0  3  0  0  0  0  0  0
    2.1236    3.4903    0.0001 C   0  0  0  0  0  0  0  0  0  0  0  0
    1.9184    4.1158    0.8915 H   0  0  0  0  0  0  0  0  0  0  0  0
    1.9175    4.1169   -0.8902 H   0  0  0  0  0  0  0  0  0  0  0  0
    3.1831    3.1771   -0.0006 H   0  0  0  0  0  0  0  0  0  0  0  0
  1  5  1  0  0  0  0
  2  1  1  0  0  0  0
  3  1  1  0  0  0  0
  4  3  1  0  0  0  0
  5  6  1  0  0  0  0
  7  8  1  0  0  0  0
  7  9  1  0  0  0  0
  9  2  1  1  0  0  0
  9 10  1  0  0  0  0
 10 11  1  0  0  0  0
 12 10  1  0  0  0  0
 13 10  1  0  0  0  0
M  END
