4
q = -1.0, confidence = 0.0

 17 17  0  0  0  0  0  0  0  0999 V2000
   -1.5048   -0.3577    2.3868 O   0  0  0  0  0  0  0  0  0  0  0  0
   -1.4198    0.4477   -2.1278 O   0  0  0  0  0  0  0  0  0  0  0  0
   -3.5291   -0.2253    1.2712 N   0  0  0  0  0  0  0  0  0  0  0  0
   -1.4826    0.0315    0.1245 N   0  0  0  0  0  2  0  0  0  0  0  0
   -4.2732   -0.4479    2.5095 C   0  0  0  0  0  0  0  0  0  0  0  0
   -2.1201   -0.1855    1.3304 C   0  0  0  0  0  0  0  0  0  0  0  0
   -2.1035    0.2188   -1.0964 C   0  0  0  0  0  0  0  0  0  0  0  0
   -3.5607    0.1270   -1.1197 C   0  0  0  0  0  0  0  0  0  0  0  0
   -4.1958   -0.0830    0.0770 C   0  0  0  0  0  0  0  0  0  0  0  0
   -4.2717    0.2933   -2.4286 C   0  0  0  0  0  0  0  0  0  0  0  0
   -3.5367   -0.5327    3.3274 H   0  0  0  0  0  0  0  0  0  0  0  0
   -4.8644   -1.3833    2.4472 H   0  0  0  0  0  0  0  0  0  0  0  0
   -4.9563    0.4010    2.7114 H   0  0  0  0  0  0  0  0  0  0  0  0
   -5.2932   -0.1455    0.1436 H   0  0  0  0  0  0  0  0  0  0  0  0
   -3.9379   -0.4704   -3.1608 H   0  0  0  0  0  0  0  0  0  0  0  0
   -4.0337    1.2764   -2.8845 H   0  0  0  0  0  0  0  0  0  0  0  0
   -5.3691    0.2141   -2.3118 H   0  0  0  0  0  0  0  0  0  0  0  0
  2  7  2  0  0  0  0
  3  6  1  0  0  0  0
  3  5  1  0  0  0  0
  4  6  1  0  0  0  0
  5 13  1  0  0  0  0
  5 11  1  0  0  0  0
  6  1  2  0  0  0  0
  7  4  1  0  0  0  0
  8  7  1  0  0  0  0
  8  9  2  0  0  0  0
  9 14  1  0  0  0  0
  9  3  1  0  0  0  0
 10 17  1  0  0  0  0
 10  8  1  0  0  0  0
 12  5  1  0  0  0  0
 15 10  1  0  0  0  0
 16 10  1  0  0  0  0
M  END
