2
q = 0.0, confidence = 0.988

 17 17  0  0  0  0  0  0  0  0999 V2000
   -7.4107    0.0011   -0.4163 Cl  0  0  0  0  0  0  0  0  0  0  0  0
   -0.6974   -0.2841   -0.3079 N   0  0  0  0  0  0  0  0  0  0  0  0
   -0.9968    0.3099   -1.0974 H   0  0  0  0  0  0  0  0  0  0  0  0
   -0.8518   -1.2700   -0.5836 H   0  0  0  0  0  0  0  0  0  0  0  0
   -3.6031    1.1965    0.1000 C   0  0  0  0  0  0  0  0  0  0  0  0
   -3.0128    2.1148   -0.0516 H   0  0  0  0  0  0  0  0  0  0  0  0
   -4.9656    1.1907   -0.2240 C   0  0  0  0  0  0  0  0  0  0  0  0
   -5.4563    2.0872   -0.6279 H   0  0  0  0  0  0  0  0  0  0  0  0
   -5.7137    0.0186   -0.0203 C   0  0  0  0  0  0  0  0  0  0  0  0
   -5.1115   -1.1379    0.5029 C   0  0  0  0  0  0  0  0  0  0  0  0
   -5.7148   -2.0428    0.6600 H   0  0  0  0  0  0  0  0  0  0  0  0
   -3.7467   -1.1148    0.8193 C   0  0  0  0  0  0  0  0  0  0  0  0
   -3.2741   -2.0201    1.2330 H   0  0  0  0  0  0  0  0  0  0  0  0
   -2.9755    0.0481    0.6251 C   0  0  0  0  0  0  0  0  0  0  0  0
   -1.4937    0.0618    0.9060 C   0  0  0  0  0  0  0  0  0  0  0  0
   -1.2158   -0.6640    1.6940 H   0  0  0  0  0  0  0  0  0  0  0  0
   -1.1504    1.0652    1.2242 H   0  0  0  0  0  0  0  0  0  0  0  0
  1  9  1  0  0  0  0
  2 15  1  0  0  0  0
  3  2  1  0  0  0  0
  4  2  1  0  0  0  0
  5 14  1  0  0  0  0
  6  5  1  0  0  0  0
  7  9  1  0  0  0  0
  7  5  2  0  0  0  0
  8  7  1  0  0  0  0
  9 10  2  0  0  0  0
 10 11  1  0  0  0  0
 10 12  1  0  0  0  0
 12 13  1  0  0  0  0
 14 12  2  0  0  0  0
 14 15  1  0  0  0  0
 15 17  1  0  0  0  0
 15 16  1  0  0  0  0
M  END
