5
q = 0.0, confidence = 0.996

 19 19  0  0  1  0  0  0  0  0999 V2000
    3.8894   -2.8877    1.9226 O   0  0  0  0  0  0  0  0  0  0  0  0
    1.7241   -2.4030    0.2714 N   0  0  0  0  0  0  0  0  0  0  0  0
    1.1009   -2.6357   -0.5062 H   0  0  0  0  0  0  0  0  0  0  0  0
    2.3081   -3.1117    0.7338 H   0  0  0  0  0  0  0  0  0  0  0  0
    1.6966   -0.0871   -0.2888 N   0  0  0  0  0  2  0  0  0  0  0  0
    2.4762    0.9811    0.0612 N   0  0  0  0  0  0  0  0  0  0  0  0
    2.3233    1.9030   -0.3823 H   0  0  0  0  0  0  0  0  0  0  0  0
    5.3772   -1.1677    2.6787 C   0  0  0  0  0  0  0  0  0  0  0  0
    5.8373   -2.0116    3.2231 H   0  0  0  0  0  0  0  0  0  0  0  0
    5.0810   -0.3792    3.4001 H   0  0  0  0  0  0  0  0  0  0  0  0
    6.1289   -0.7210    1.9959 H   0  0  0  0  0  0  0  0  0  0  0  0
    4.1781   -1.6810    1.9032 C   0  0  0  0  0  0  0  0  0  0  0  0
    3.3701   -0.7416    1.1277 C   0  0  0  0  0  0  0  0  0  0  0  0
    2.2262   -1.1542    0.3506 C   0  0  1  0  0  3  0  0  0  0  0  0
    3.4843    0.6509    0.8887 C   0  0  0  0  0  0  0  0  0  0  0  0
    4.4548    1.6858    1.3526 C   0  0  0  0  0  0  0  0  0  0  0  0
    4.2206    2.6684    0.9002 H   0  0  0  0  0  0  0  0  0  0  0  0
    5.4927    1.4169    1.0733 H   0  0  0  0  0  0  0  0  0  0  0  0
    4.4299    1.7967    2.4551 H   0  0  0  0  0  0  0  0  0  0  0  0
  2  4  1  0  0  0  0
  3  2  1  0  0  0  0
  5  6  1  0  0  0  0
  5 14  1  0  0  0  0
  6 15  1  0  0  0  0
  7  6  1  0  0  0  0
  8  9  1  0  0  0  0
  8 10  1  0  0  0  0
 11  8  1  0  0  0  0
 12  1  2  0  0  0  0
 12  8  1  0  0  0  0
 13 12  1  0  0  0  0
 14  2  1  1  0  0  0
 14 13  1  0  0  0  0
 15 13  2  0  0  0  0
 15 16  1  0  0  0  0
 16 19  1  0  0  0  0
 17 16  1  0  0  0  0
 18 16  1  0  0  0  0
M  END
