3
q = 0.0, confidence = 0.996

 17 16  0  0  1  0  0  0  0  0999 V2000
    1.4964    1.9098    1.8221 O   0  0  0  0  0  0  0  0  0  0  0  0
    1.4495    2.2936    2.7156 H   0  0  0  0  0  0  0  0  0  0  0  0
    1.5799    0.1786   -0.4483 N   0  0  0  0  0  0  0  0  0  0  0  0
    1.9136   -0.3722   -1.2567 H   0  0  0  0  0  0  0  0  0  0  0  0
    1.4215    1.1643   -0.7506 H   0  0  0  0  0  0  0  0  0  0  0  0
    2.0404    0.5809    1.9525 C   0  0  0  0  0  0  0  0  0  0  0  0
    1.2450   -0.1379    2.2565 H   0  0  0  0  0  0  0  0  0  0  0  0
    2.8533    0.5665    2.7118 H   0  0  0  0  0  0  0  0  0  0  0  0
    2.6183    0.1236    0.6168 C   0  0  2  0  0  0  0  0  0  0  0  0
    2.8637   -0.9541    0.7361 H   0  0  0  0  0  0  0  0  0  0  0  0
    3.8788    0.9088    0.2170 C   0  0  0  0  0  0  0  0  0  0  0  0
    3.6286    1.9919    0.2037 H   0  0  0  0  0  0  0  0  0  0  0  0
    4.6249    0.7763    1.0298 H   0  0  0  0  0  0  0  0  0  0  0  0
    4.4930    0.4826   -1.1170 C   0  0  0  0  0  0  0  0  0  0  0  0
    4.7037   -0.6070   -1.1364 H   0  0  0  0  0  0  0  0  0  0  0  0
    5.4475    1.0129   -1.3037 H   0  0  0  0  0  0  0  0  0  0  0  0
    3.8265    0.7098   -1.9742 H   0  0  0  0  0  0  0  0  0  0  0  0
  1  6  1  0  0  0  0
  1  2  1  0  0  0  0
  3  9  1  0  0  0  0
  4  3  1  0  0  0  0
  5  3  1  0  0  0  0
  6  7  1  0  0  0  0
  6  8  1  0  0  0  0
  9 10  1  1  0  0  0
  9  6  1  0  0  0  0
 11  9  1  0  0  0  0
 11 13  1  0  0  0  0
 12 11  1  0  0  0  0
 14 11  1  0  0  0  0
 15 14  1  0  0  0  0
 16 14  1  0  0  0  0
 17 14  1  0  0  0  0
M  END
