1
q = 0.0, confidence = 1.0

 17 18  0  0  1  0  0  0  0  0999 V2000
   -1.3656    0.4368   -0.7212 N   0  0  0  0  0  2  0  0  0  0  0  0
   -1.0992    1.2939   -1.6872 C   0  0  1  0  0  3  0  0  0  0  0  0
   -2.1425    2.1233   -1.9751 O   0  0  0  0  0  0  0  0  0  0  0  0
   -3.1580    1.7587   -1.1164 C   0  0  0  0  0  0  0  0  0  0  0  0
   -2.6828    0.6958   -0.3210 C   0  0  0  0  0  0  0  0  0  0  0  0
   -4.4399    2.2955   -1.0056 C   0  0  0  0  0  0  0  0  0  0  0  0
   -4.7828    3.1219   -1.6426 H   0  0  0  0  0  0  0  0  0  0  0  0
   -5.2580    1.7046   -0.0281 C   0  0  0  0  0  0  0  0  0  0  0  0
   -6.2820    2.0822    0.1097 H   0  0  0  0  0  0  0  0  0  0  0  0
   -4.8006    0.6362    0.7788 C   0  0  0  0  0  0  0  0  0  0  0  0
   -5.4819    0.2047    1.5270 H   0  0  0  0  0  0  0  0  0  0  0  0
   -3.5081    0.1070    0.6512 C   0  0  0  0  0  0  0  0  0  0  0  0
   -3.1347   -0.7256    1.2672 H   0  0  0  0  0  0  0  0  0  0  0  0
    0.1599    1.4549   -2.4472 C   0  0  0  0  0  0  0  0  0  0  0  0
    0.8820    2.0813   -1.8821 H   0  0  0  0  0  0  0  0  0  0  0  0
   -0.0401    1.9411   -3.4189 H   0  0  0  0  0  0  0  0  0  0  0  0
    0.6206    0.4543   -2.5962 H   0  0  0  0  0  0  0  0  0  0  0  0
  1  5  1  0  0  0  0
  2 14  1  1  0  0  0
  2  1  1  0  0  0  0
  3  2  1  0  0  0  0
  3  4  1  0  0  0  0
  4  6  2  0  0  0  0
  4  5  1  0  0  0  0
  5 12  2  0  0  0  0
  6  8  1  0  0  0  0
  7  6  1  0  0  0  0
  8  9  1  0  0  0  0
  8 10  2  0  0  0  0
 10 11  1  0  0  0  0
 12 10  1  0  0  0  0
 12 13  1  0  0  0  0
 14 15  1  0  0  0  0
 16 14  1  0  0  0  0
 17 14  1  0  0  0  0
M  END
