1
q = 0.0, confidence = 0.996

 27 27  0  0  1  0  0  0  0  0999 V2000
   -1.6311   -1.1642   -0.2561 N   0  0  0  0  0  2  0  0  0  0  0  0
   -2.4963   -0.5963   -0.2976 H   0  0  0  0  0  0  0  0  0  0  0  0
   -1.8607   -2.4300   -0.3206 C   0  0  2  0  0  3  0  0  0  0  0  0
   -3.1568   -2.8860   -0.3496 O   0  0  0  0  0  0  0  0  0  0  0  0
   -4.0798   -1.8296   -0.2959 N   0  0  0  0  0  0  0  0  0  0  0  0
   -5.2778   -2.2180   -0.0542 C   0  0  0  0  0  0  0  0  0  0  0  0
   -5.5601   -3.2819    0.0715 H   0  0  0  0  0  0  0  0  0  0  0  0
   -6.4055   -1.2136   -0.0460 C   0  0  0  0  0  0  0  0  0  0  0  0
   -7.5331   -1.6692   -0.2269 O   0  0  0  0  0  0  0  0  0  0  0  0
   -6.1289    0.2438    0.1075 C   0  0  0  0  0  0  0  0  0  0  0  0
   -7.1382    1.1296   -0.3378 C   0  0  0  0  0  0  0  0  0  0  0  0
   -8.0623    0.6977   -0.7495 H   0  0  0  0  0  0  0  0  0  0  0  0
   -6.9466    2.5123   -0.2691 C   0  0  0  0  0  0  0  0  0  0  0  0
   -7.7312    3.1934   -0.6318 H   0  0  0  0  0  0  0  0  0  0  0  0
   -5.7475    3.0317    0.2525 C   0  0  0  0  0  0  0  0  0  0  0  0
   -5.5926    4.1208    0.2937 H   0  0  0  0  0  0  0  0  0  0  0  0
   -4.7505    2.1636    0.7241 C   0  0  0  0  0  0  0  0  0  0  0  0
   -3.8051    2.5483    1.1342 H   0  0  0  0  0  0  0  0  0  0  0  0
   -4.9420    0.7776    0.6632 C   0  0  0  0  0  0  0  0  0  0  0  0
   -4.1573    0.1263    1.0676 H   0  0  0  0  0  0  0  0  0  0  0  0
   -0.8742   -3.5463   -0.3392 C   0  0  0  0  0  0  0  0  0  0  0  0
   -0.9136   -4.3918    0.9432 C   0  0  0  0  0  0  0  0  0  0  0  0
   -1.9211   -4.8143    1.1259 H   0  0  0  0  0  0  0  0  0  0  0  0
   -0.1974   -5.2312    0.8559 H   0  0  0  0  0  0  0  0  0  0  0  0
   -0.6137   -3.7721    1.8099 H   0  0  0  0  0  0  0  0  0  0  0  0
    0.1266   -3.1052   -0.5037 H   0  0  0  0  0  0  0  0  0  0  0  0
   -1.1244   -4.1713   -1.2234 H   0  0  0  0  0  0  0  0  0  0  0  0
  2  1  1  0  0  0  0
  3  4  1  1  0  0  0
  3  1  1  0  0  0  0
  4  5  1  0  0  0  0
  5  6  2  0  0  0  0
  6  8  1  0  0  0  0
  6  7  1  0  0  0  0
  8 10  1  0  0  0  0
  9  8  2  0  0  0  0
 10 19  1  0  0  0  0
 11 13  1  0  0  0  0
 11 10  2  0  0  0  0
 12 11  1  0  0  0  0
 13 15  2  0  0  0  0
 14 13  1  0  0  0  0
 15 16  1  0  0  0  0
 15 17  1  0  0  0  0
 17 18  1  0  0  0  0
 19 17  2  0  0  0  0
 19 20  1  0  0  0  0
 21  3  1  0  0  0  0
 21 22  1  0  0  0  0
 22 23  1  0  0  0  0
 22 25  1  0  0  0  0
 24 22  1  0  0  0  0
 26 21  1  0  0  0  0
 27 21  1  0  0  0  0
M  END
