1
q = 0.0, confidence = 0.938

 24 25  0  0  0  0  0  0  0  0999 V2000
    0.0202   -0.6139   -0.1682 N   0  0  0  0  0  2  0  0  0  0  0  0
   -0.7397   -0.1374    0.8608 C   0  0  0  0  0  3  0  0  0  0  0  0
   -0.1872    0.1686    1.7613 H   0  0  0  0  0  0  0  0  0  0  0  0
   -2.1229   -0.0491    0.7863 C   0  0  0  0  0  0  0  0  0  0  0  0
   -2.7180    0.3344    1.6258 H   0  0  0  0  0  0  0  0  0  0  0  0
   -2.7855   -0.4716   -0.3945 C   0  0  0  0  0  0  0  0  0  0  0  0
   -1.9886   -0.9751   -1.4467 C   0  0  0  0  0  0  0  0  0  0  0  0
   -2.4735   -1.3188   -2.3708 H   0  0  0  0  0  0  0  0  0  0  0  0
   -0.6058   -1.0363   -1.2998 C   0  0  0  0  0  0  0  0  0  0  0  0
    0.0447   -1.4292   -2.0935 H   0  0  0  0  0  0  0  0  0  0  0  0
   -4.1711   -0.4460   -0.5956 N   0  0  0  0  0  2  0  0  0  0  0  0
   -4.8188    0.0753    0.3779 N   0  0  0  0  0  2  0  0  0  0  0  0
   -6.1980    0.1061    0.2472 C   0  0  0  0  0  0  0  0  0  0  0  0
   -6.9171    0.6921    1.3237 C   0  0  0  0  0  0  0  0  0  0  0  0
   -6.3407    1.0788    2.1765 H   0  0  0  0  0  0  0  0  0  0  0  0
   -8.3032    0.7700    1.2957 C   0  0  0  0  0  0  0  0  0  0  0  0
   -8.8766    1.2186    2.1188 H   0  0  0  0  0  0  0  0  0  0  0  0
   -9.0074    0.2575    0.1790 C   0  0  0  0  0  0  0  0  0  0  0  0
  -10.3470    0.3537    0.1959 O   0  0  0  0  0  0  0  0  0  0  0  0
  -10.7188   -0.0333   -0.6209 H   0  0  0  0  0  0  0  0  0  0  0  0
   -8.2982   -0.3308   -0.9040 C   0  0  0  0  0  0  0  0  0  0  0  0
   -8.8587   -0.7266   -1.7670 H   0  0  0  0  0  0  0  0  0  0  0  0
   -6.9138   -0.4058   -0.8717 C   0  0  0  0  0  0  0  0  0  0  0  0
   -6.3418   -0.8559   -1.6948 H   0  0  0  0  0  0  0  0  0  0  0  0
  1  2  1  0  0  0  0
  2  3  1  0  0  0  0
  4  2  1  0  0  0  0
  4  5  1  0  0  0  0
  6  4  2  0  0  0  0
  7  9  2  0  0  0  0
  7  6  1  0  0  0  0
  8  7  1  0  0  0  0
  9  1  1  0  0  0  0
 10  9  1  0  0  0  0
 11  6  1  0  0  0  0
 11 12  1  0  0  0  0
 13 12  1  0  0  0  0
 13 14  1  0  0  0  0
 14 15  1  0  0  0  0
 16 14  2  0  0  0  0
 16 17  1  0  0  0  0
 18 19  1  0  0  0  0
 18 16  1  0  0  0  0
 20 19  1  0  0  0  0
 21 23  1  0  0  0  0
 21 18  2  0  0  0  0
 22 21  1  0  0  0  0
 23 13  2  0  0  0  0
 24 23  1  0  0  0  0
M  END
