4
q = 0.0, confidence = 0.988

 13 13  0  0  0  0  0  0  0  0999 V2000
    4.2785    0.7664   -0.8489 C   0  0  0  0  0  0  0  0  0  0  0  0
    4.8151    1.6179   -1.2914 H   0  0  0  0  0  0  0  0  0  0  0  0
    6.0763   -2.8406    0.6159 O   0  0  0  0  0  0  0  0  0  0  0  0
    2.1585   -0.1913   -0.1943 N   0  0  0  0  0  2  0  0  0  0  0  0
    4.9553   -0.3686   -0.3985 C   0  0  0  0  0  0  0  0  0  0  0  0
    6.0495   -0.4748   -0.4614 H   0  0  0  0  0  0  0  0  0  0  0  0
    2.8104   -1.2878    0.2416 C   0  0  0  0  0  3  0  0  0  0  0  0
    2.1952   -2.0947    0.6731 H   0  0  0  0  0  0  0  0  0  0  0  0
    4.8740   -2.6559    0.6598 C   0  0  0  0  0  0  0  0  0  0  0  0
    4.1708   -3.4293    1.0920 H   0  0  0  0  0  0  0  0  0  0  0  0
    2.8802    0.8230   -0.7298 C   0  0  0  0  0  0  0  0  0  0  0  0
    2.2849    1.6968   -1.0557 H   0  0  0  0  0  0  0  0  0  0  0  0
    4.2056   -1.4223    0.1621 C   0  0  0  0  0  0  0  0  0  0  0  0
  1 11  2  0  0  0  0
  1  5  1  0  0  0  0
  2  1  1  0  0  0  0
  3  9  2  0  0  0  0
  4  7  1  0  0  0  0
  5 13  2  0  0  0  0
  6  5  1  0  0  0  0
  7  8  1  0  0  0  0
  9 10  1  0  0  0  0
 11  4  1  0  0  0  0
 12 11  1  0  0  0  0
 13  7  1  0  0  0  0
 13  9  1  0  0  0  0
M  END
