21
q = 0.0, confidence = 1.0

 44 45  0  0  1  0  0  0  0  0999 V2000
   -0.9695   -2.0112    0.3694 N   0  0  0  0  0  0  0  0  0  0  0  0
   -2.0635   -1.2362    0.2357 C   0  0  0  0  0  0  0  0  0  0  0  0
   -3.3612   -1.7798    0.3230 C   0  0  0  0  0  0  0  0  0  0  0  0
   -4.2366   -1.1250    0.2184 H   0  0  0  0  0  0  0  0  0  0  0  0
   -2.3593   -3.9502    0.6695 C   0  0  0  0  0  0  0  0  0  0  0  0
   -2.4262   -5.0341    0.8419 H   0  0  0  0  0  0  0  0  0  0  0  0
   -1.1050   -3.3235    0.5770 C   0  0  0  0  0  0  0  0  0  0  0  0
   -0.1713   -3.9030    0.6751 H   0  0  0  0  0  0  0  0  0  0  0  0
   -3.5062   -3.1566    0.5403 C   0  0  0  0  0  0  0  0  0  0  0  0
   -4.5092   -3.6035    0.6087 H   0  0  0  0  0  0  0  0  0  0  0  0
   -1.8568    0.2259    0.0010 C   0  0  1  0  0  3  0  0  0  0  0  0
   -3.0640    1.0989   -0.1055 C   0  0  0  0  0  0  0  0  0  0  0  0
   -3.4756    1.8546    1.0109 C   0  0  0  0  0  0  0  0  0  0  0  0
   -2.9050    1.7798    1.9509 H   0  0  0  0  0  0  0  0  0  0  0  0
   -4.8765    2.0320   -1.4262 C   0  0  0  0  0  0  0  0  0  0  0  0
   -5.4199    2.1091   -2.3802 H   0  0  0  0  0  0  0  0  0  0  0  0
   -5.2981    2.7781   -0.3130 C   0  0  0  0  0  0  0  0  0  0  0  0
   -6.1763    3.4366   -0.3939 H   0  0  0  0  0  0  0  0  0  0  0  0
   -4.5977    2.6898    0.9017 C   0  0  0  0  0  0  0  0  0  0  0  0
   -4.9256    3.2785    1.7719 H   0  0  0  0  0  0  0  0  0  0  0  0
   -0.6601    0.6896   -0.0919 N   0  0  0  0  0  2  0  0  0  0  0  0
    0.9086    2.2696   -1.1249 C   0  0  0  0  0  0  0  0  0  0  0  0
    0.7877    1.7490   -2.0973 H   0  0  0  0  0  0  0  0  0  0  0  0
    1.0239    3.3563   -1.3573 H   0  0  0  0  0  0  0  0  0  0  0  0
   -0.3825    2.0885   -0.3201 C   0  0  0  0  0  0  0  0  0  0  0  0
   -0.3029    2.5785    0.6761 H   0  0  0  0  0  0  0  0  0  0  0  0
   -1.2130    2.5969   -0.8558 H   0  0  0  0  0  0  0  0  0  0  0  0
    2.1049    1.7193   -0.4780 N   0  0  0  0  0  0  0  0  0  0  0  0
   -3.7600    1.1873   -1.3287 C   0  0  0  0  0  0  0  0  0  0  0  0
   -3.4014    0.6024   -2.1911 H   0  0  0  0  0  0  0  0  0  0  0  0
    3.2062    1.5730   -1.4465 C   0  0  0  0  0  0  0  0  0  0  0  0
    3.4819    2.5648   -1.8842 H   0  0  0  0  0  0  0  0  0  0  0  0
    2.8076    0.9573   -2.2802 H   0  0  0  0  0  0  0  0  0  0  0  0
    2.4765    2.4006    0.7784 C   0  0  0  0  0  0  0  0  0  0  0  0
    3.2166    1.7622    1.3001 H   0  0  0  0  0  0  0  0  0  0  0  0
    1.5876    2.3939    1.4396 H   0  0  0  0  0  0  0  0  0  0  0  0
    4.4469    0.8952   -0.8796 C   0  0  0  0  0  0  0  0  0  0  0  0
    4.9641    1.5086   -0.1155 H   0  0  0  0  0  0  0  0  0  0  0  0
    5.1702    0.7012   -1.6957 H   0  0  0  0  0  0  0  0  0  0  0  0
    4.1906   -0.0806   -0.4160 H   0  0  0  0  0  0  0  0  0  0  0  0
    3.0108    3.8289    0.6366 C   0  0  0  0  0  0  0  0  0  0  0  0
    2.2822    4.5062    0.1463 H   0  0  0  0  0  0  0  0  0  0  0  0
    3.9546    3.8706    0.0561 H   0  0  0  0  0  0  0  0  0  0  0  0
    3.2216    4.2470    1.6409 H   0  0  0  0  0  0  0  0  0  0  0  0
  1  7  1  0  0  0  0
  2  3  1  0  0  0  0
  2  1  2  0  0  0  0
  3  9  2  0  0  0  0
  4  3  1  0  0  0  0
  5  6  1  0  0  0  0
  7  5  2  0  0  0  0
  7  8  1  0  0  0  0
  9 10  1  0  0  0  0
  9  5  1  0  0  0  0
 11 21  1  1  0  0  0
 11  2  1  0  0  0  0
 12 11  1  0  0  0  0
 12 13  1  0  0  0  0
 13 14  1  0  0  0  0
 15 29  1  0  0  0  0
 15 17  2  0  0  0  0
 16 15  1  0  0  0  0
 17 19  1  0  0  0  0
 18 17  1  0  0  0  0
 19 13  2  0  0  0  0
 19 20  1  0  0  0  0
 22 28  1  0  0  0  0
 22 25  1  0  0  0  0
 23 22  1  0  0  0  0
 24 22  1  0  0  0  0
 25 21  1  0  0  0  0
 25 26  1  0  0  0  0
 27 25  1  0  0  0  0
 28 34  1  0  0  0  0
 29 12  2  0  0  0  0
 30 29  1  0  0  0  0
 31 37  1  0  0  0  0
 31 28  1  0  0  0  0
 32 31  1  0  0  0  0
 33 31  1  0  0  0  0
 34 35  1  0  0  0  0
 34 36  1  0  0  0  0
 37 40  1  0  0  0  0
 37 38  1  0  0  0  0
 39 37  1  0  0  0  0
 41 34  1  0  0  0  0
 41 44  1  0  0  0  0
 42 41  1  0  0  0  0
 43 41  1  0  0  0  0
M  END
