8
q = -1.0, confidence = 0.0

 31 31  0  0  0  0  0  0  0  0999 V2000
    1.3084   -1.9039   -1.5851 Si  0  0  0  0  0  0  0  0  0  0  0  0
   -3.1111   -2.5760    2.1171 F   0  0  0  0  0  0  0  0  0  0  0  0
   -3.8780   -2.9433    0.1105 F   0  0  0  0  0  0  0  0  0  0  0  0
   -4.8468   -1.4628    1.3898 F   0  0  0  0  0  0  0  0  0  0  0  0
   -2.2910    3.5676   -0.0296 F   0  0  0  0  0  0  0  0  0  0  0  0
   -4.1480    2.7634   -0.8547 F   0  0  0  0  0  0  0  0  0  0  0  0
   -2.3876    2.9905   -2.1294 F   0  0  0  0  0  0  0  0  0  0  0  0
    0.9068   -0.5726   -0.3760 N   0  0  0  0  0  2  0  0  0  0  0  0
   -0.4660   -0.2933   -0.2413 C   0  0  0  0  0  0  0  0  0  0  0  0
   -1.3597   -1.2220    0.3383 C   0  0  0  0  0  0  0  0  0  0  0  0
   -0.9734   -2.1868    0.6973 H   0  0  0  0  0  0  0  0  0  0  0  0
   -2.7212   -0.9140    0.4731 C   0  0  0  0  0  0  0  0  0  0  0  0
   -3.2211    0.3313    0.0616 C   0  0  0  0  0  0  0  0  0  0  0  0
   -4.2825    0.5777    0.1905 H   0  0  0  0  0  0  0  0  0  0  0  0
   -2.3368    1.2573   -0.5116 C   0  0  0  0  0  0  0  0  0  0  0  0
   -0.9816    0.9434   -0.6884 C   0  0  0  0  0  0  0  0  0  0  0  0
   -0.2915    1.6584   -1.1601 H   0  0  0  0  0  0  0  0  0  0  0  0
   -3.6482   -1.9705    1.0289 C   0  0  0  0  0  0  0  0  0  0  0  0
   -2.8035    2.6435   -0.8901 C   0  0  0  0  0  0  0  0  0  0  0  0
    1.6874   -3.4851   -0.6327 C   0  0  0  0  0  0  0  0  0  0  0  0
    2.5292   -3.3247    0.0691 H   0  0  0  0  0  0  0  0  0  0  0  0
    1.9711   -4.2965   -1.3347 H   0  0  0  0  0  0  0  0  0  0  0  0
    0.8056   -3.8293   -0.0552 H   0  0  0  0  0  0  0  0  0  0  0  0
    2.7293   -1.3786   -2.6997 C   0  0  0  0  0  0  0  0  0  0  0  0
    3.6951   -1.3386   -2.1623 H   0  0  0  0  0  0  0  0  0  0  0  0
    2.5365   -0.3791   -3.1368 H   0  0  0  0  0  0  0  0  0  0  0  0
    2.8152   -2.1151   -3.5259 H   0  0  0  0  0  0  0  0  0  0  0  0
   -0.2323   -2.1305   -2.6553 C   0  0  0  0  0  0  0  0  0  0  0  0
   -0.5284   -1.1762   -3.1363 H   0  0  0  0  0  0  0  0  0  0  0  0
   -1.1033   -2.5118   -2.0873 H   0  0  0  0  0  0  0  0  0  0  0  0
    0.0004   -2.8601   -3.4585 H   0  0  0  0  0  0  0  0  0  0  0  0
  1 20  1  0  0  0  0
  1  8  1  0  0  0  0
  3 18  1  0  0  0  0
  7 19  1  0  0  0  0
  8  9  1  0  0  0  0
  9 10  1  0  0  0  0
 10 12  2  0  0  0  0
 10 11  1  0  0  0  0
 12 18  1  0  0  0  0
 13 14  1  0  0  0  0
 13 12  1  0  0  0  0
 15 13  2  0  0  0  0
 16 15  1  0  0  0  0
 16  9  2  0  0  0  0
 17 16  1  0  0  0  0
 18  4  1  0  0  0  0
 18  2  1  0  0  0  0
 19  6  1  0  0  0  0
 19 15  1  0  0  0  0
 19  5  1  0  0  0  0
 20 23  1  0  0  0  0
 20 21  1  0  0  0  0
 22 20  1  0  0  0  0
 24 25  1  0  0  0  0
 24  1  1  0  0  0  0
 26 24  1  0  0  0  0
 27 24  1  0  0  0  0
 28 30  1  0  0  0  0
 28  1  1  0  0  0  0
 29 28  1  0  0  0  0
 31 28  1  0  0  0  0
M  END
