1
q = 0.0, confidence = 0.974

 26 28  0  0  0  0  0  0  0  0999 V2000
    0.5595    0.7324   -0.4607 N   0  0  0  0  0  2  0  0  0  0  0  0
    1.5169   -0.1643   -0.1681 C   0  0  0  0  0  0  0  0  0  0  0  0
    1.1547   -1.1575    0.1193 H   0  0  0  0  0  0  0  0  0  0  0  0
    2.9028    0.1574   -0.1857 C   0  0  0  0  0  0  0  0  0  0  0  0
    3.3202    1.3915   -0.4691 N   0  0  0  0  0  0  0  0  0  0  0  0
    2.3770    2.3243   -0.7659 C   0  0  0  0  0  0  0  0  0  0  0  0
    2.7992    3.6507   -1.0747 C   0  0  0  0  0  3  0  0  0  0  0  0
    3.8804    3.8481   -1.0511 H   0  0  0  0  0  0  0  0  0  0  0  0
    1.8724    4.6307   -1.3943 C   0  0  0  0  0  0  0  0  0  0  0  0
    2.2089    5.6508   -1.6335 H   0  0  0  0  0  0  0  0  0  0  0  0
    0.4880    4.3204   -1.4218 C   0  0  0  0  0  0  0  0  0  0  0  0
   -0.2411    5.1014   -1.6849 H   0  0  0  0  0  0  0  0  0  0  0  0
    0.0363    3.0394   -1.1257 C   0  0  0  0  0  0  0  0  0  0  0  0
   -1.0319    2.7925   -1.1377 H   0  0  0  0  0  0  0  0  0  0  0  0
    0.9660    2.0241   -0.7871 C   0  0  0  0  0  0  0  0  0  0  0  0
    3.9238   -0.8743    0.1343 C   0  0  0  0  0  0  0  0  0  0  0  0
    5.2690   -0.4771    0.3056 C   0  0  0  0  0  0  0  0  0  0  0  0
    5.5071    0.5896    0.1895 H   0  0  0  0  0  0  0  0  0  0  0  0
    6.2578   -1.4182    0.6122 C   0  0  0  0  0  0  0  0  0  0  0  0
    7.3003   -1.0912    0.7457 H   0  0  0  0  0  0  0  0  0  0  0  0
    5.9238   -2.7763    0.7503 C   0  0  0  0  0  0  0  0  0  0  0  0
    6.7014   -3.5169    0.9913 H   0  0  0  0  0  0  0  0  0  0  0  0
    4.5920   -3.1840    0.5748 C   0  0  0  0  0  0  0  0  0  0  0  0
    4.3225   -4.2466    0.6724 H   0  0  0  0  0  0  0  0  0  0  0  0
    3.5992   -2.2432    0.2694 C   0  0  0  0  0  0  0  0  0  0  0  0
    2.5665   -2.5894    0.1193 H   0  0  0  0  0  0  0  0  0  0  0  0
  1  2  1  0  0  0  0
  2  3  1  0  0  0  0
  4  2  2  0  0  0  0
  4 16  1  0  0  0  0
  5  4  1  0  0  0  0
  6  5  2  0  0  0  0
  7  8  1  0  0  0  0
  7  6  1  0  0  0  0
  9  7  1  0  0  0  0
 10  9  1  0  0  0  0
 11  9  2  0  0  0  0
 11 13  1  0  0  0  0
 12 11  1  0  0  0  0
 13 15  2  0  0  0  0
 14 13  1  0  0  0  0
 15  6  1  0  0  0  0
 15  1  1  0  0  0  0
 16 25  2  0  0  0  0
 16 17  1  0  0  0  0
 17 19  2  0  0  0  0
 18 17  1  0  0  0  0
 19 20  1  0  0  0  0
 19 21  1  0  0  0  0
 21 22  1  0  0  0  0
 23 24  1  0  0  0  0
 23 21  2  0  0  0  0
 25 23  1  0  0  0  0
 26 25  1  0  0  0  0
M  END
