2
q = -1.0, confidence = 0.026

 22 23  0  0  0  0  0  0  0  0999 V2000
    1.0986   -0.4847   -0.0001 N   0  0  0  0  0  0  0  0  0  0  0  0
   -0.1181    0.0597   -0.0002 N   0  0  0  0  0  2  0  0  0  0  0  0
   -0.0599    1.4021   -0.0005 N   0  0  0  0  0  0  0  0  0  0  0  0
    1.2099    1.7541   -0.0005 N   0  0  0  0  0  0  0  0  0  0  0  0
    1.9170    0.5883   -0.0002 C   0  0  0  0  0  0  0  0  0  0  0  0
    3.3796    0.5150   -0.0002 C   0  0  0  0  0  0  0  0  0  0  0  0
    4.0381   -0.7355    0.0001 C   0  0  0  0  0  0  0  0  0  0  0  0
    3.4309   -1.6521    0.0002 H   0  0  0  0  0  0  0  0  0  0  0  0
    5.4336   -0.7993    0.0001 C   0  0  0  0  0  0  0  0  0  0  0  0
    5.9481   -1.7701    0.0003 H   0  0  0  0  0  0  0  0  0  0  0  0
    6.1997    0.3864   -0.0001 C   0  0  0  0  0  0  0  0  0  0  0  0
    5.5430    1.6352   -0.0003 C   0  0  0  0  0  0  0  0  0  0  0  0
    6.1597    2.5460   -0.0004 H   0  0  0  0  0  0  0  0  0  0  0  0
    4.1489    1.7012   -0.0003 C   0  0  0  0  0  0  0  0  0  0  0  0
    3.6236    2.6670   -0.0005 H   0  0  0  0  0  0  0  0  0  0  0  0
    8.3939    1.3785   -0.0002 O   0  0  0  0  0  0  0  0  0  0  0  0
    7.6890    0.3814   -0.0000 C   0  0  0  0  0  0  0  0  0  0  0  0
    8.2003   -0.8813    0.0001 O   0  0  0  0  0  0  0  0  0  0  0  0
    9.6266   -0.9562    0.0001 C   0  0  0  0  0  0  0  0  0  0  0  0
   10.0512   -0.4591   -0.8962 H   0  0  0  0  0  0  0  0  0  0  0  0
    9.8791   -2.0318   -0.0006 H   0  0  0  0  0  0  0  0  0  0  0  0
   10.0512   -0.4604    0.8970 H   0  0  0  0  0  0  0  0  0  0  0  0
  2  1  1  0  0  0  0
  3  2  1  0  0  0  0
  4  3  2  0  0  0  0
  4  5  1  0  0  0  0
  5  6  1  0  0  0  0
  5  1  2  0  0  0  0
  6  7  1  0  0  0  0
  7  9  2  0  0  0  0
  7  8  1  0  0  0  0
  9 10  1  0  0  0  0
 11 17  1  0  0  0  0
 11  9  1  0  0  0  0
 12 11  2  0  0  0  0
 13 12  1  0  0  0  0
 14 12  1  0  0  0  0
 14  6  2  0  0  0  0
 15 14  1  0  0  0  0
 16 17  2  0  0  0  0
 17 18  1  0  0  0  0
 19 18  1  0  0  0  0
 19 22  1  0  0  0  0
 20 19  1  0  0  0  0
 21 19  1  0  0  0  0
M  END
