3
q = 0.0, confidence = 0.992

 30 32  0  0  1  0  0  0  0  0999 V2000
    0.4123    5.9815   -0.3175 Cl  0  0  0  0  0  0  0  0  0  0  0  0
    5.2514   -0.5669    0.0476 O   0  0  0  0  0  0  0  0  0  0  0  0
    0.7707   -0.8377   -0.0655 N   0  0  0  0  0  2  0  0  0  0  0  0
    4.1305    0.1919   -0.0151 N   0  0  0  0  0  0  0  0  0  0  0  0
    1.3887   -2.1103   -0.0214 C   0  0  0  0  0  0  0  0  0  0  0  0
    0.7716   -3.3617   -0.0329 C   0  0  0  0  0  0  0  0  0  0  0  0
   -0.3222   -3.4380   -0.1001 H   0  0  0  0  0  0  0  0  0  0  0  0
    1.6077   -4.4930    0.0240 C   0  0  0  0  0  0  0  0  0  0  0  0
    1.1543   -5.4955    0.0128 H   0  0  0  0  0  0  0  0  0  0  0  0
    3.0077   -4.3677    0.0917 C   0  0  0  0  0  0  0  0  0  0  0  0
    3.6318   -5.2725    0.1368 H   0  0  0  0  0  0  0  0  0  0  0  0
    3.6229   -3.1014    0.0999 C   0  0  0  0  0  0  0  0  0  0  0  0
    4.7137   -2.9964    0.1508 H   0  0  0  0  0  0  0  0  0  0  0  0
    2.7993   -1.9683    0.0407 C   0  0  0  0  0  0  0  0  0  0  0  0
    3.0378   -0.5246    0.0078 C   0  0  0  0  0  0  0  0  0  0  0  0
    1.6983    0.1167   -0.0608 C   0  0  1  0  0  3  0  0  0  0  0  0
    1.4108    1.5448   -0.1469 C   0  0  0  0  0  0  0  0  0  0  0  0
    2.2117    2.4906    0.5373 C   0  0  0  0  0  0  0  0  0  0  0  0
    3.0673    2.1476    1.1324 H   0  0  0  0  0  0  0  0  0  0  0  0
    1.9058    3.8525    0.4879 C   0  0  0  0  0  0  0  0  0  0  0  0
    2.5114    4.5863    1.0374 H   0  0  0  0  0  0  0  0  0  0  0  0
    0.7976    4.2851   -0.2619 C   0  0  0  0  0  0  0  0  0  0  0  0
    0.0012    3.3679   -0.9690 C   0  0  0  0  0  0  0  0  0  0  0  0
   -0.8555    3.7203   -1.5593 H   0  0  0  0  0  0  0  0  0  0  0  0
    0.3094    2.0076   -0.9102 C   0  0  0  0  0  0  0  0  0  0  0  0
   -0.3030    1.2908   -1.4784 H   0  0  0  0  0  0  0  0  0  0  0  0
    6.4198    0.2584   -0.0053 C   0  0  0  0  0  0  0  0  0  0  0  0
    7.2762   -0.4387    0.0357 H   0  0  0  0  0  0  0  0  0  0  0  0
    6.4486    0.9500    0.8615 H   0  0  0  0  0  0  0  0  0  0  0  0
    6.4437    0.8409   -0.9484 H   0  0  0  0  0  0  0  0  0  0  0  0
  1 22  1  0  0  0  0
  3 16  1  0  0  0  0
  3  5  1  0  0  0  0
  4 15  2  0  0  0  0
  4  2  1  0  0  0  0
  5 14  1  0  0  0  0
  6  5  2  0  0  0  0
  6  8  1  0  0  0  0
  7  6  1  0  0  0  0
  8 10  2  0  0  0  0
  9  8  1  0  0  0  0
 10 12  1  0  0  0  0
 10 11  1  0  0  0  0
 12 13  1  0  0  0  0
 14 12  2  0  0  0  0
 15 14  1  0  0  0  0
 16 17  1  6  0  0  0
 16 15  1  0  0  0  0
 17 18  1  0  0  0  0
 18 19  1  0  0  0  0
 20 18  2  0  0  0  0
 20 21  1  0  0  0  0
 22 20  1  0  0  0  0
 23 25  1  0  0  0  0
 23 22  2  0  0  0  0
 24 23  1  0  0  0  0
 25 17  2  0  0  0  0
 26 25  1  0  0  0  0
 27 28  1  0  0  0  0
 27  2  1  0  0  0  0
 27 29  1  0  0  0  0
 30 27  1  0  0  0  0
M  END
