3
q = 0.0, confidence = 0.98

 47 50  0  0  0  0  0  0  0  0999 V2000
   -7.1450    0.5953   -0.0545 Cl  0  0  0  0  0  0  0  0  0  0  0  0
    1.4434    0.2212    0.1428 P   0  0  0  0  0  0  0  0  0  0  0  0
   -1.2742   -0.4069    0.3408 N   0  0  0  0  0  2  0  0  0  0  0  0
   -0.7183   -1.6068    0.7368 C   0  0  0  0  0  3  0  0  0  0  0  0
   -1.3653   -2.5097    0.7412 H   0  0  0  0  0  0  0  0  0  0  0  0
    0.2934   -1.5600    1.8328 C   0  0  0  0  0  0  0  0  0  0  0  0
    0.1879   -2.3645    2.9827 C   0  0  0  0  0  0  0  0  0  0  0  0
   -0.6164   -3.1141    3.0456 H   0  0  0  0  0  0  0  0  0  0  0  0
    1.0845   -2.1973    4.0504 C   0  0  0  0  0  0  0  0  0  0  0  0
    0.9924   -2.8340    4.9435 H   0  0  0  0  0  0  0  0  0  0  0  0
    2.0859   -1.2139    3.9940 C   0  0  0  0  0  0  0  0  0  0  0  0
    2.7798   -1.0805    4.8373 H   0  0  0  0  0  0  0  0  0  0  0  0
    2.2131   -0.4127    2.8470 C   0  0  0  0  0  0  0  0  0  0  0  0
    3.0128    0.3412    2.7837 H   0  0  0  0  0  0  0  0  0  0  0  0
    1.3408   -0.6113    1.7664 C   0  0  0  0  0  0  0  0  0  0  0  0
    3.1888    0.1145   -0.4055 C   0  0  0  0  0  0  0  0  0  0  0  0
    4.0571   -0.8828    0.0806 C   0  0  0  0  0  0  0  0  0  0  0  0
    3.7205   -1.5682    0.8719 H   0  0  0  0  0  0  0  0  0  0  0  0
    5.3505   -1.0071   -0.4496 C   0  0  0  0  0  0  0  0  0  0  0  0
    6.0233   -1.7870   -0.0624 H   0  0  0  0  0  0  0  0  0  0  0  0
    5.7820   -0.1472   -1.4707 C   0  0  0  0  0  0  0  0  0  0  0  0
    6.7967   -0.2478   -1.8846 H   0  0  0  0  0  0  0  0  0  0  0  0
    4.9134    0.8380   -1.9692 C   0  0  0  0  0  0  0  0  0  0  0  0
    5.2431    1.5095   -2.7762 H   0  0  0  0  0  0  0  0  0  0  0  0
    3.6207    0.9680   -1.4444 C   0  0  0  0  0  0  0  0  0  0  0  0
    2.9418    1.7368   -1.8443 H   0  0  0  0  0  0  0  0  0  0  0  0
    1.1746    2.0144    0.4335 C   0  0  0  0  0  0  0  0  0  0  0  0
    2.2314    2.8234    0.9031 C   0  0  0  0  0  0  0  0  0  0  0  0
    3.2357    2.3964    1.0448 H   0  0  0  0  0  0  0  0  0  0  0  0
    2.0074    4.1813    1.1740 C   0  0  0  0  0  0  0  0  0  0  0  0
    2.8359    4.8075    1.5386 H   0  0  0  0  0  0  0  0  0  0  0  0
    0.7345    4.7392    0.9753 C   0  0  0  0  0  0  0  0  0  0  0  0
    0.5623    5.8059    1.1848 H   0  0  0  0  0  0  0  0  0  0  0  0
   -0.3167    3.9350    0.5070 C   0  0  0  0  0  0  0  0  0  0  0  0
   -1.3170    4.3656    0.3496 H   0  0  0  0  0  0  0  0  0  0  0  0
   -0.1021    2.5758    0.2385 C   0  0  0  0  0  0  0  0  0  0  0  0
   -0.9245    1.9369   -0.1073 H   0  0  0  0  0  0  0  0  0  0  0  0
   -2.6471   -0.2326    0.2017 C   0  0  0  0  0  0  0  0  0  0  0  0
   -3.5457   -0.7672    1.1620 C   0  0  0  0  0  0  0  0  0  0  0  0
   -3.1476   -1.3629    1.9966 H   0  0  0  0  0  0  0  0  0  0  0  0
   -4.9202   -0.5161    1.0843 C   0  0  0  0  0  0  0  0  0  0  0  0
   -5.6067   -0.9335    1.8347 H   0  0  0  0  0  0  0  0  0  0  0  0
   -5.4277    0.2799    0.0452 C   0  0  0  0  0  0  0  0  0  0  0  0
   -4.5591    0.8182   -0.9198 C   0  0  0  0  0  0  0  0  0  0  0  0
   -4.9669    1.4265   -1.7394 H   0  0  0  0  0  0  0  0  0  0  0  0
   -3.1878    0.5586   -0.8437 C   0  0  0  0  0  0  0  0  0  0  0  0
   -2.5122    0.9506   -1.6182 H   0  0  0  0  0  0  0  0  0  0  0  0
  1 43  1  0  0  0  0
  2 27  1  0  0  0  0
  2 15  1  0  0  0  0
  3  4  1  0  0  0  0
  4  5  1  0  0  0  0
  4  6  1  0  0  0  0
  6  7  1  0  0  0  0
  7  8  1  0  0  0  0
  7  9  2  0  0  0  0
  9 10  1  0  0  0  0
 11  9  1  0  0  0  0
 11 12  1  0  0  0  0
 13 11  2  0  0  0  0
 14 13  1  0  0  0  0
 15  6  2  0  0  0  0
 15 13  1  0  0  0  0
 16 17  1  0  0  0  0
 16  2  1  0  0  0  0
 17 18  1  0  0  0  0
 19 20  1  0  0  0  0
 19 17  2  0  0  0  0
 21 19  1  0  0  0  0
 22 21  1  0  0  0  0
 23 21  2  0  0  0  0
 23 25  1  0  0  0  0
 24 23  1  0  0  0  0
 25 16  2  0  0  0  0
 26 25  1  0  0  0  0
 27 28  1  0  0  0  0
 28 29  1  0  0  0  0
 28 30  2  0  0  0  0
 30 31  1  0  0  0  0
 32 30  1  0  0  0  0
 32 33  1  0  0  0  0
 34 32  2  0  0  0  0
 35 34  1  0  0  0  0
 36 27  2  0  0  0  0
 36 34  1  0  0  0  0
 37 36  1  0  0  0  0
 38  3  1  0  0  0  0
 38 39  1  0  0  0  0
 39 40  1  0  0  0  0
 41 39  2  0  0  0  0
 41 42  1  0  0  0  0
 43 41  1  0  0  0  0
 44 46  1  0  0  0  0
 44 43  2  0  0  0  0
 45 44  1  0  0  0  0
 46 38  2  0  0  0  0
 47 46  1  0  0  0  0
M  END
