1
q = 0.0, confidence = 0.61

 10  9  0  0  0  0  0  0  0  0999 V2000
    2.0672   -0.6481   -0.1846 N   0  0  0  0  0  2  0  0  0  0  0  0
    2.0834    0.5816    0.4800 N   0  0  0  0  0  2  0  0  0  0  0  0
    3.0358   -1.6657    0.1137 C   0  0  0  0  0  0  0  0  0  0  0  0
    3.0651    1.5088   -0.0628 C   0  0  0  0  0  0  0  0  0  0  0  0
    3.0517   -1.8771    1.2088 H   0  0  0  0  0  0  0  0  0  0  0  0
    2.7993   -2.5930   -0.4385 H   0  0  0  0  0  0  0  0  0  0  0  0
    4.0550   -1.3296   -0.1791 H   0  0  0  0  0  0  0  0  0  0  0  0
    4.0560    1.3162    0.4103 H   0  0  0  0  0  0  0  0  0  0  0  0
    3.1974    1.4353   -1.1673 H   0  0  0  0  0  0  0  0  0  0  0  0
    2.7812    2.5499    0.1918 H   0  0  0  0  0  0  0  0  0  0  0  0
  1  3  1  0  0  0  0
  1  2  1  0  0  0  0
  3  5  1  0  0  0  0
  4 10  1  0  0  0  0
  4  8  1  0  0  0  0
  4  2  1  0  0  0  0
  6  3  1  0  0  0  0
  7  3  1  0  0  0  0
  9  4  1  0  0  0  0
M  END
