2
q = -1.0, confidence = 0.0

 28 29  0  0  0  0  0  0  0  0999 V2000
    1.4204   -2.0062    1.3894 S   0  0  0  0  0  0  0  0  0  0  0  0
    1.6878    0.4696    0.5678 N   0  0  0  0  0  2  0  0  0  0  0  0
    2.2754   -0.5077    1.2340 C   0  0  0  0  0  0  0  0  0  0  0  0
    2.2374    1.7387    0.3042 C   0  0  0  0  0  0  0  0  0  0  0  0
    3.4089    1.9083   -0.4682 C   0  0  0  0  0  0  0  0  0  0  0  0
    3.9450    1.0220   -0.8341 H   0  0  0  0  0  0  0  0  0  0  0  0
    3.8669    3.1966   -0.7799 C   0  0  0  0  0  0  0  0  0  0  0  0
    4.7795    3.3121   -1.3846 H   0  0  0  0  0  0  0  0  0  0  0  0
    3.1684    4.3308   -0.3340 C   0  0  0  0  0  0  0  0  0  0  0  0
    3.5326    5.3390   -0.5821 H   0  0  0  0  0  0  0  0  0  0  0  0
    1.9943    4.1673    0.4198 C   0  0  0  0  0  0  0  0  0  0  0  0
    1.4312    5.0483    0.7639 H   0  0  0  0  0  0  0  0  0  0  0  0
    1.5230    2.8841    0.7287 C   0  0  0  0  0  0  0  0  0  0  0  0
    0.5869    2.7464    1.2904 H   0  0  0  0  0  0  0  0  0  0  0  0
    3.6390   -0.3647    1.8892 C   0  0  0  0  0  0  0  0  0  0  0  0
    3.7835    0.6907    2.1989 H   0  0  0  0  0  0  0  0  0  0  0  0
    3.6257   -0.9895    2.8060 H   0  0  0  0  0  0  0  0  0  0  0  0
    4.8063   -0.7896    1.0084 C   0  0  0  0  0  0  0  0  0  0  0  0
    5.9279    0.0520    0.8688 C   0  0  0  0  0  0  0  0  0  0  0  0
    5.9412    1.0229    1.3889 H   0  0  0  0  0  0  0  0  0  0  0  0
    7.0144   -0.3244    0.0647 C   0  0  0  0  0  0  0  0  0  0  0  0
    7.8811    0.3477   -0.0311 H   0  0  0  0  0  0  0  0  0  0  0  0
    6.9929   -1.5495   -0.6202 C   0  0  0  0  0  0  0  0  0  0  0  0
    7.8409   -1.8437   -1.2570 H   0  0  0  0  0  0  0  0  0  0  0  0
    5.8812   -2.3963   -0.4855 C   0  0  0  0  0  0  0  0  0  0  0  0
    5.8547   -3.3602   -1.0166 H   0  0  0  0  0  0  0  0  0  0  0  0
    4.7983   -2.0229    0.3250 C   0  0  0  0  0  0  0  0  0  0  0  0
    3.9258   -2.6864    0.4318 H   0  0  0  0  0  0  0  0  0  0  0  0
  2  3  1  0  0  0  0
  3  1  2  0  0  0  0
  3 15  1  0  0  0  0
  4  2  1  0  0  0  0
  4 13  1  0  0  0  0
  5  4  2  0  0  0  0
  6  5  1  0  0  0  0
  7  5  1  0  0  0  0
  7  9  2  0  0  0  0
  8  7  1  0  0  0  0
  9 11  1  0  0  0  0
 10  9  1  0  0  0  0
 11 13  2  0  0  0  0
 11 12  1  0  0  0  0
 13 14  1  0  0  0  0
 15 16  1  0  0  0  0
 15 17  1  0  0  0  0
 18 15  1  0  0  0  0
 19 18  1  0  0  0  0
 19 20  1  0  0  0  0
 21 19  2  0  0  0  0
 22 21  1  0  0  0  0
 23 25  2  0  0  0  0
 23 21  1  0  0  0  0
 24 23  1  0  0  0  0
 25 27  1  0  0  0  0
 26 25  1  0  0  0  0
 27 28  1  0  0  0  0
 27 18  2  0  0  0  0
M  END
