2
q = 0.0, confidence = 0.92

 14 14  0  0  0  0  0  0  0  0999 V2000
    0.3197    0.3343   -2.7613 O   0  0  0  0  0  0  0  0  0  0  0  0
    0.0868    0.7659   -0.4198 N   0  0  0  0  0  2  0  0  0  0  0  0
    0.1772    0.1210   -1.5643 C   0  0  0  0  0  3  0  0  0  0  0  0
    0.1060    2.1409   -0.1583 C   0  0  0  0  0  0  0  0  0  0  0  0
    0.1006    2.6252    1.1697 C   0  0  0  0  0  0  0  0  0  0  0  0
    0.1206    4.0056    1.4114 C   0  0  0  0  0  0  0  0  0  0  0  0
    0.1462    4.9213    0.3467 C   0  0  0  0  0  0  0  0  0  0  0  0
    0.1528    4.4412   -0.9735 C   0  0  0  0  0  0  0  0  0  0  0  0
    0.1338    3.0646   -1.2341 C   0  0  0  0  0  0  0  0  0  0  0  0
    0.0741    1.8955    1.9903 H   0  0  0  0  0  0  0  0  0  0  0  0
    0.1156    4.3692    2.4506 H   0  0  0  0  0  0  0  0  0  0  0  0
    0.1616    6.0036    0.5440 H   0  0  0  0  0  0  0  0  0  0  0  0
    0.1741    5.1482   -1.8172 H   0  0  0  0  0  0  0  0  0  0  0  0
    0.1462    2.6796   -2.2638 H   0  0  0  0  0  0  0  0  0  0  0  0
  1  3  2  0  0  0  0
  2  4  1  0  0  0  0
  3  2  1  0  0  0  0
  4  5  1  0  0  0  0
  5  6  2  0  0  0  0
  5 10  1  0  0  0  0
  6 11  1  0  0  0  0
  7 12  1  0  0  0  0
  7  6  1  0  0  0  0
  8  7  2  0  0  0  0
  9  8  1  0  0  0  0
  9  4  2  0  0  0  0
 13  8  1  0  0  0  0
 14  9  1  0  0  0  0
M  END
