6
q = 0.0, confidence = 0.996

 17 18  0  0  0  0  0  0  0  0999 V2000
   -2.3656   -1.8872   -0.6042 O   0  0  0  0  0  0  0  0  0  0  0  0
   -3.6006    1.8215    0.3665 N   0  0  0  0  0  0  0  0  0  0  0  0
   -3.8490    2.7906    0.5765 H   0  0  0  0  0  0  0  0  0  0  0  0
   -2.2903    1.5072    0.2707 C   0  0  0  0  0  3  0  0  0  0  0  0
   -1.5283    2.3237    0.3820 H   0  0  0  0  0  0  0  0  0  0  0  0
   -1.8633    0.2889   -0.0031 N   0  0  0  0  0  2  0  0  0  0  0  0
   -2.7578   -0.7701   -0.2720 C   0  0  0  0  0  0  0  0  0  0  0  0
   -4.1951   -0.4393   -0.1441 C   0  0  0  0  0  0  0  0  0  0  0  0
   -5.1794   -1.4279   -0.3498 C   0  0  0  0  0  0  0  0  0  0  0  0
   -4.8339   -2.4406   -0.6034 H   0  0  0  0  0  0  0  0  0  0  0  0
   -6.5330   -1.1118   -0.2300 C   0  0  0  0  0  0  0  0  0  0  0  0
   -7.2973   -1.8864   -0.3885 H   0  0  0  0  0  0  0  0  0  0  0  0
   -6.9246    0.2055    0.0949 C   0  0  0  0  0  0  0  0  0  0  0  0
   -7.9926    0.4533    0.1875 H   0  0  0  0  0  0  0  0  0  0  0  0
   -5.9701    1.2031    0.3008 C   0  0  0  0  0  0  0  0  0  0  0  0
   -6.2722    2.2311    0.5528 H   0  0  0  0  0  0  0  0  0  0  0  0
   -4.6033    0.8784    0.1811 C   0  0  0  0  0  0  0  0  0  0  0  0
  1  7  2  0  0  0  0
  2  3  1  0  0  0  0
  4  2  1  0  0  0  0
  4  5  1  0  0  0  0
  6  4  1  0  0  0  0
  7  8  1  0  0  0  0
  7  6  1  0  0  0  0
  8 17  1  0  0  0  0
  9 11  1  0  0  0  0
  9  8  2  0  0  0  0
 10  9  1  0  0  0  0
 11 13  2  0  0  0  0
 12 11  1  0  0  0  0
 13 14  1  0  0  0  0
 13 15  1  0  0  0  0
 15 16  1  0  0  0  0
 17 15  2  0  0  0  0
 17  2  1  0  0  0  0
M  END
