2
q = -2.0, confidence = 0.636

 36 42  0  0  1  0  0  0  0  0999 V2000
   -0.1431   -2.0417   -0.0000 N   0  0  0  0  0  2  0  0  0  0  0  0
    0.4620   -0.9207    0.0000 N   0  0  0  0  0  2  0  0  0  0  0  0
    1.6854   -0.5216    0.0001 N   0  0  0  0  0  2  0  0  0  0  0  0
   -1.9298   -0.0358    0.0001 C   0  0  1  0  0  0  0  0  0  0  0  0
   -1.5529   -1.7407    0.0000 C   0  0  1  0  0  0  0  0  0  0  0  0
    2.8482   -1.2893    0.0001 C   0  0  0  0  0  0  0  0  0  0  0  0
    4.0791   -0.5905    0.0002 C   0  0  0  0  0  0  0  0  0  0  0  0
    4.0646    0.5098    0.0003 H   0  0  0  0  0  0  0  0  0  0  0  0
    5.2838   -1.2995    0.0002 C   0  0  0  0  0  0  0  0  0  0  0  0
    6.2386   -0.7525    0.0003 H   0  0  0  0  0  0  0  0  0  0  0  0
    5.2763   -2.7059    0.0001 C   0  0  0  0  0  0  0  0  0  0  0  0
    6.2252   -3.2624    0.0001 H   0  0  0  0  0  0  0  0  0  0  0  0
    4.0534   -3.3973    0.0000 C   0  0  0  0  0  0  0  0  0  0  0  0
    4.0447   -4.4978   -0.0000 H   0  0  0  0  0  0  0  0  0  0  0  0
    2.8349   -2.7057    0.0000 C   0  0  0  0  0  0  0  0  0  0  0  0
    1.8747   -3.2381   -0.0000 H   0  0  0  0  0  0  0  0  0  0  0  0
   -2.1760   -1.0170   -1.4128 B   0  0  1  0  0  0  0  0  0  0  0  0
   -1.4414   -0.9052   -2.3568 H   0  0  0  0  0  0  0  0  0  0  0  0
   -3.3903    0.1455   -0.8791 B   0  0  1  0  0  0  0  0  0  0  0  0
   -3.5553    1.1651   -1.5067 H   0  0  0  0  0  0  0  0  0  0  0  0
   -3.3903    0.1454    0.8792 B   0  0  1  0  0  0  0  0  0  0  0  0
   -3.5554    1.1649    1.5068 H   0  0  0  0  0  0  0  0  0  0  0  0
   -2.1760   -1.0171    1.4129 B   0  0  1  0  0  0  0  0  0  0  0  0
   -1.4415   -0.9053    2.3569 H   0  0  0  0  0  0  0  0  0  0  0  0
   -2.6702   -2.6528   -0.8900 B   0  0  1  0  0  0  0  0  0  0  0  0
   -2.2460   -3.5961   -1.5099 H   0  0  0  0  0  0  0  0  0  0  0  0
   -3.8884   -1.4733   -1.4453 B   0  0  0  0  0  2  0  0  0  0  0  0
   -4.4548   -1.6203   -2.5035 H   0  0  0  0  0  0  0  0  0  0  0  0
   -4.6557   -0.7582   -0.0000 B   0  0  2  0  0  0  0  0  0  0  0  0
   -5.8029   -0.3757    0.0001 H   0  0  0  0  0  0  0  0  0  0  0  0
   -3.8884   -1.4734    1.4453 B   0  0  0  0  0  0  0  0  0  0  0  0
   -4.4549   -1.6205    2.5034 H   0  0  0  0  0  0  0  0  0  0  0  0
   -2.6701   -2.6528    0.8900 B   0  0  2  0  0  0  0  0  0  0  0  0
   -2.2461   -3.5962    1.5098 H   0  0  0  0  0  0  0  0  0  0  0  0
   -4.2041   -2.4822   -0.0000 B   0  0  2  0  0  0  0  0  0  0  0  0
   -5.0188   -3.3758   -0.0001 H   0  0  0  0  0  0  0  0  0  0  0  0
  1  5  1  0  0  0  0
  1  2  1  0  0  0  0
  2  3  1  0  0  0  0
  3  6  1  0  0  0  0
  4 21  1  0  0  0  0
  4 23  1  0  0  0  0
  5 33  1  0  0  0  0
  6  7  1  0  0  0  0
  7  9  2  0  0  0  0
  7  8  1  0  0  0  0
  9 10  1  0  0  0  0
 11 12  1  0  0  0  0
 11  9  1  0  0  0  0
 13 11  2  0  0  0  0
 14 13  1  0  0  0  0
 15 13  1  0  0  0  0
 15  6  2  0  0  0  0
 16 15  1  0  0  0  0
 17 19  1  0  0  0  0
 17  5  1  0  0  0  0
 17  4  1  0  0  0  0
 18 17  1  0  0  0  0
 19  4  1  0  0  0  0
 19 21  1  0  0  0  0
 20 19  1  0  0  0  0
 21 23  1  0  0  0  0
 21 22  1  0  0  0  0
 23 31  1  0  0  0  0
 23 24  1  0  0  0  0
 25 35  1  0  0  0  0
 25  5  1  0  0  0  0
 25 33  1  0  0  0  0
 26 25  1  0  0  0  0
 27 29  1  0  0  0  0
 28 27  1  0  0  0  0
 29 30  1  0  0  0  0
 29 31  1  0  0  0  0
 31 32  1  0  0  0  0
 33 34  1  0  0  0  0
 35 29  1  0  0  0  0
 35 33  1  0  0  0  0
 36 35  1  0  0  0  0
M  END
