1
q = 0.0, confidence = 0.994

 22 22  0  0  1  0  0  0  0  0999 V2000
    1.8257    0.8391   -0.1429 N   0  0  0  0  0  2  0  0  0  0  0  0
    1.8635    2.2900   -0.3963 C   0  0  0  0  0  0  0  0  0  0  0  0
    3.0401    0.3912   -0.0125 C   0  0  2  0  0  3  0  0  0  0  0  0
    3.3702    2.5764   -0.5378 C   0  0  0  0  0  0  0  0  0  0  0  0
    1.3821    2.8013    0.4629 H   0  0  0  0  0  0  0  0  0  0  0  0
    1.2820    2.5204   -1.3103 H   0  0  0  0  0  0  0  0  0  0  0  0
    4.0052    1.3178   -0.1877 O   0  0  0  0  0  0  0  0  0  0  0  0
    3.5199   -1.0233    0.2467 C   0  0  0  0  0  0  0  0  0  0  0  0
    3.6761    2.8323   -1.5725 H   0  0  0  0  0  0  0  0  0  0  0  0
    3.7503    3.3527    0.1540 H   0  0  0  0  0  0  0  0  0  0  0  0
    4.9071   -0.9739    0.9203 C   0  0  0  0  0  0  0  0  0  0  0  0
    2.5407   -1.7942    1.1498 C   0  0  0  0  0  0  0  0  0  0  0  0
    3.6276   -1.7156   -1.1362 C   0  0  0  0  0  0  0  0  0  0  0  0
    5.2635   -2.0096    1.0857 H   0  0  0  0  0  0  0  0  0  0  0  0
    5.6496   -0.4455    0.2932 H   0  0  0  0  0  0  0  0  0  0  0  0
    4.8612   -0.4656    1.9042 H   0  0  0  0  0  0  0  0  0  0  0  0
    1.5476   -1.8985    0.6668 H   0  0  0  0  0  0  0  0  0  0  0  0
    2.9531   -2.8044    1.3450 H   0  0  0  0  0  0  0  0  0  0  0  0
    2.3847   -1.2771    2.1169 H   0  0  0  0  0  0  0  0  0  0  0  0
    3.9943   -2.7528   -0.9957 H   0  0  0  0  0  0  0  0  0  0  0  0
    2.6403   -1.7438   -1.6399 H   0  0  0  0  0  0  0  0  0  0  0  0
    4.3460   -1.1824   -1.7911 H   0  0  0  0  0  0  0  0  0  0  0  0
  1  3  1  0  0  0  0
  2  1  1  0  0  0  0
  2  5  1  0  0  0  0
  3  8  1  6  0  0  0
  4  2  1  0  0  0  0
  4  7  1  0  0  0  0
  4 10  1  0  0  0  0
  6  2  1  0  0  0  0
  7  3  1  0  0  0  0
  8 11  1  0  0  0  0
  8 12  1  0  0  0  0
  9  4  1  0  0  0  0
 11 14  1  0  0  0  0
 11 16  1  0  0  0  0
 12 18  1  0  0  0  0
 12 19  1  0  0  0  0
 13 20  1  0  0  0  0
 13  8  1  0  0  0  0
 15 11  1  0  0  0  0
 17 12  1  0  0  0  0
 21 13  1  0  0  0  0
 22 13  1  0  0  0  0
M  END
