2
q = -2.0, confidence = 0.5

 35 39  0  0  1  0  0  0  0  0999 V2000
   -3.1972    2.1824    0.6193 O   0  0  0  0  0  0  0  0  0  0  0  0
    0.1950    1.5842   -0.3167 N   0  0  0  0  0  2  0  0  0  0  0  0
   -1.9649    0.0621    0.1964 C   0  0  1  0  0  0  0  0  0  0  0  0
   -1.5089   -1.1259    1.2134 C   0  0  2  0  0  0  0  0  0  0  0  0
   -1.2310   -0.8105    2.2281 H   0  0  0  0  0  0  0  0  0  0  0  0
   -1.9765    1.5018    0.7495 C   0  0  1  0  0  0  0  0  0  0  0  0
   -1.6677    1.4170    1.8233 H   0  0  0  0  0  0  0  0  0  0  0  0
   -0.8910    2.2995    0.0676 C   0  0  1  0  0  3  0  0  0  0  0  0
   -0.9766    3.6803   -0.1377 C   0  0  0  0  0  0  0  0  0  0  0  0
   -1.8923    4.1995    0.1747 H   0  0  0  0  0  0  0  0  0  0  0  0
    0.1017    4.3433   -0.7381 C   0  0  0  0  0  0  0  0  0  0  0  0
    0.0618    5.4286   -0.9135 H   0  0  0  0  0  0  0  0  0  0  0  0
    1.2300    3.5999   -1.1118 C   0  0  0  0  0  0  0  0  0  0  0  0
    2.1011    4.0750   -1.5844 H   0  0  0  0  0  0  0  0  0  0  0  0
    1.2356    2.2189   -0.8870 C   0  0  0  0  0  0  0  0  0  0  0  0
    2.0927    1.5978   -1.1829 H   0  0  0  0  0  0  0  0  0  0  0  0
   -1.4695   -0.3076   -1.4435 B   0  0  0  0  0  0  0  0  0  0  0  0
   -1.3036    0.5838   -2.2439 H   0  0  0  0  0  0  0  0  0  0  0  0
   -3.1614   -0.4995   -0.8732 B   0  0  2  0  0  0  0  0  0  0  0  0
   -3.9961    0.2828   -1.2539 H   0  0  0  0  0  0  0  0  0  0  0  0
   -3.1554   -0.9803    0.8354 B   0  0  1  0  0  0  0  0  0  0  0  0
   -3.9041   -0.5257    1.6703 H   0  0  0  0  0  0  0  0  0  0  0  0
   -0.6343   -2.3446    0.4303 B   0  0  0  0  0  2  0  0  0  0  0  0
    0.2033   -2.9803    1.0270 H   0  0  0  0  0  0  0  0  0  0  0  0
   -0.6694   -1.8835   -1.3145 B   0  0  0  0  0  0  0  0  0  0  0  0
    0.1554   -2.2840   -2.1036 H   0  0  0  0  0  0  0  0  0  0  0  0
   -2.3873   -1.7906   -1.8158 B   0  0  2  0  0  0  0  0  0  0  0  0
   -2.7355   -2.0242   -2.9510 H   0  0  0  0  0  0  0  0  0  0  0  0
   -3.4144   -2.2104   -0.4259 B   0  0  0  0  0  0  0  0  0  0  0  0
   -4.4921   -2.7451   -0.5384 H   0  0  0  0  0  0  0  0  0  0  0  0
   -2.3454   -2.5533    0.9623 B   0  0  1  0  0  0  0  0  0  0  0  0
   -2.5846   -3.2583    1.9117 H   0  0  0  0  0  0  0  0  0  0  0  0
   -1.8568   -3.0554   -0.6730 B   0  0  2  0  0  0  0  0  0  0  0  0
   -1.8037   -4.2258   -0.9749 H   0  0  0  0  0  0  0  0  0  0  0  0
   -3.8845    1.6277    1.0359 H   0  0  0  0  0  0  0  0  0  0  0  0
  1  6  1  0  0  0  0
  1 35  1  0  0  0  0
  2  8  1  0  0  0  0
  3  6  1  1  0  0  0
  3 21  1  0  0  0  0
  3  4  1  0  0  0  0
  4  5  1  1  0  0  0
  6  7  1  1  0  0  0
  8  6  1  1  0  0  0
  9  8  1  0  0  0  0
  9 10  1  0  0  0  0
 11  9  2  0  0  0  0
 12 11  1  0  0  0  0
 13 15  2  0  0  0  0
 13 11  1  0  0  0  0
 14 13  1  0  0  0  0
 15  2  1  0  0  0  0
 16 15  1  0  0  0  0
 17 25  1  0  0  0  0
 18 17  1  0  0  0  0
 19 20  1  6  0  0  0
 19  3  1  0  0  0  0
 19 21  1  0  0  0  0
 21 31  1  0  0  0  0
 21 22  1  1  0  0  0
 23 24  1  0  0  0  0
 23  4  1  0  0  0  0
 25 33  1  0  0  0  0
 26 25  1  0  0  0  0
 27 28  1  6  0  0  0
 27 17  1  0  0  0  0
 27 19  1  0  0  0  0
 27 29  1  0  0  0  0
 30 29  1  0  0  0  0
 31  4  1  0  0  0  0
 31 32  1  1  0  0  0
 33 34  1  6  0  0  0
 33 29  1  0  0  0  0
 33 31  1  0  0  0  0
M  END
