4
q = 0.0, confidence = 0.978

 17 18  0  0  0  0  0  0  0  0999 V2000
   -1.2885   -1.3940   -2.0951 Se  0  0  0  0  0  0  0  0  0  0  0  0
   -5.9804   -1.3368   -0.3052 Br  0  0  0  0  0  0  0  0  0  0  0  0
   -1.5272    0.0132    0.2010 N   0  0  0  0  0  2  0  0  0  0  0  0
   -0.6002   -0.4660   -0.5059 N   0  0  0  0  0  2  0  0  0  0  0  0
   -2.9329   -0.8852   -1.4034 C   0  0  0  0  0  0  0  0  0  0  0  0
   -3.8721   -1.1253   -1.9144 H   0  0  0  0  0  0  0  0  0  0  0  0
   -2.8302   -0.1685   -0.2154 C   0  0  0  0  0  0  0  0  0  0  0  0
   -5.2397    0.1295    0.6765 C   0  0  0  0  0  0  0  0  0  0  0  0
   -6.1395    0.8230    1.5036 C   0  0  0  0  0  0  0  0  0  0  0  0
   -7.1955    0.5191    1.5171 H   0  0  0  0  0  0  0  0  0  0  0  0
   -3.8670    0.4768    0.6210 C   0  0  0  0  0  0  0  0  0  0  0  0
   -3.4441    1.5430    1.4592 C   0  0  0  0  0  0  0  0  0  0  0  0
   -2.3778    1.8128    1.4431 H   0  0  0  0  0  0  0  0  0  0  0  0
   -4.3321    2.2332    2.2866 C   0  0  0  0  0  0  0  0  0  0  0  0
   -3.9579    3.0528    2.9177 H   0  0  0  0  0  0  0  0  0  0  0  0
   -5.6898    1.8781    2.3068 C   0  0  0  0  0  0  0  0  0  0  0  0
   -6.4038    2.4137    2.9503 H   0  0  0  0  0  0  0  0  0  0  0  0
  1  5  1  0  0  0  0
  1  4  1  0  0  0  0
  2  8  1  0  0  0  0
  4  3  1  0  0  0  0
  5  7  2  0  0  0  0
  6  5  1  0  0  0  0
  7  3  1  0  0  0  0
  7 11  1  0  0  0  0
  8  9  1  0  0  0  0
  9 10  1  0  0  0  0
  9 16  2  0  0  0  0
 11  8  2  0  0  0  0
 11 12  1  0  0  0  0
 12 14  2  0  0  0  0
 13 12  1  0  0  0  0
 14 16  1  0  0  0  0
 14 15  1  0  0  0  0
 16 17  1  0  0  0  0
M  END
