1
q = 0.0, confidence = 0.988

 19 20  0  0  1  0  0  0  0  0999 V2000
   -2.1718    0.0124   -0.8247 N   0  0  0  0  0  2  0  0  0  0  0  0
    0.1761    1.4858   -0.9158 O   0  0  0  0  0  0  0  0  0  0  0  0
    0.4020    2.5379    0.9958 O   0  0  0  0  0  0  0  0  0  0  0  0
   -0.2786    2.0794    0.0728 N   0  0  0  0  0  0  0  0  0  0  0  0
   -3.0403   -0.8626   -1.3316 C   0  0  0  0  0  0  0  0  0  0  0  0
   -2.5913   -1.8137   -1.6789 H   0  0  0  0  0  0  0  0  0  0  0  0
   -4.4354   -0.6160   -1.4023 C   0  0  0  0  0  0  0  0  0  0  0  0
   -5.0970   -1.3761   -1.8413 H   0  0  0  0  0  0  0  0  0  0  0  0
   -4.9312    0.5631   -0.8775 C   0  0  0  0  0  0  0  0  0  0  0  0
   -6.0113    0.7770   -0.8684 H   0  0  0  0  0  0  0  0  0  0  0  0
   -4.4929    2.7496    0.2268 C   0  0  0  0  0  0  0  0  0  0  0  0
   -5.5746    2.9537    0.2272 H   0  0  0  0  0  0  0  0  0  0  0  0
   -3.5997    3.6671    0.7597 C   0  0  0  0  0  0  0  0  0  0  0  0
   -3.9590    4.6088    1.1987 H   0  0  0  0  0  0  0  0  0  0  0  0
   -2.2130    3.3987    0.7224 C   0  0  0  0  0  0  0  0  0  0  0  0
   -1.4801    4.1097    1.1274 H   0  0  0  0  0  0  0  0  0  0  0  0
   -1.7364    2.2268    0.1491 C   0  0  0  0  0  0  0  0  0  0  0  0
   -2.6216    1.2173   -0.3638 C   0  0  2  0  0  3  0  0  0  0  0  0
   -4.0328    1.5235   -0.3311 C   0  0  0  0  0  0  0  0  0  0  0  0
  2  4  2  0  0  0  0
  4 17  1  0  0  0  0
  4  3  2  0  0  0  0
  5  1  1  0  0  0  0
  6  5  1  0  0  0  0
  7  5  2  0  0  0  0
  7  9  1  0  0  0  0
  8  7  1  0  0  0  0
  9 10  1  0  0  0  0
  9 19  2  0  0  0  0
 11 12  1  0  0  0  0
 11 13  2  0  0  0  0
 13 14  1  0  0  0  0
 15 13  1  0  0  0  0
 15 16  1  0  0  0  0
 17 15  2  0  0  0  0
 18  1  1  1  0  0  0
 18 19  1  0  0  0  0
 18 17  1  0  0  0  0
 19 11  1  0  0  0  0
M  END
