4
q = 0.0, confidence = 1.0

 22 24  0  0  1  0  0  0  0  0999 V2000
   -2.7752   -0.1419   -0.0465 C   0  0  0  0  0  0  0  0  0  0  0  0
   -2.6636   -2.3373    1.0227 C   0  0  0  0  0  0  0  0  0  0  0  0
   -2.0963   -3.1172    1.5543 H   0  0  0  0  0  0  0  0  0  0  0  0
   -2.1253    1.0080   -0.4098 N   0  0  0  0  0  2  0  0  0  0  0  0
   -6.1307   -1.7196   -0.2366 N   0  0  0  0  0  0  0  0  0  0  0  0
   -4.1609   -0.3302   -0.3403 C   0  0  0  0  0  0  0  0  0  0  0  0
   -2.0471   -1.1698    0.6434 C   0  0  0  0  0  0  0  0  0  0  0  0
   -0.9833   -0.9753    0.8577 H   0  0  0  0  0  0  0  0  0  0  0  0
   -4.0541   -2.5689    0.7427 C   0  0  0  0  0  0  0  0  0  0  0  0
   -6.7315   -2.8476    0.1283 C   0  0  0  0  0  0  0  0  0  0  0  0
   -7.8027   -2.9397   -0.1268 H   0  0  0  0  0  0  0  0  0  0  0  0
   -4.8162   -1.5658    0.0576 C   0  0  1  0  0  3  0  0  0  0  0  0
   -4.1722    1.8619   -1.3605 C   0  0  0  0  0  0  0  0  0  0  0  0
   -4.6748    2.6910   -1.8785 H   0  0  0  0  0  0  0  0  0  0  0  0
   -2.8013    1.9778   -1.0407 C   0  0  0  0  0  0  0  0  0  0  0  0
   -2.2082    2.8773   -1.2893 H   0  0  0  0  0  0  0  0  0  0  0  0
   -4.8555    0.7032   -1.0120 C   0  0  0  0  0  0  0  0  0  0  0  0
   -5.9218    0.5496   -1.2325 H   0  0  0  0  0  0  0  0  0  0  0  0
   -4.7293   -3.7595    1.1169 C   0  0  0  0  0  0  0  0  0  0  0  0
   -4.1772   -4.5520    1.6462 H   0  0  0  0  0  0  0  0  0  0  0  0
   -6.0764   -3.9038    0.8098 C   0  0  0  0  0  0  0  0  0  0  0  0
   -6.6321   -4.8123    1.0848 H   0  0  0  0  0  0  0  0  0  0  0  0
  1  7  2  0  0  0  0
  2  3  1  0  0  0  0
  4  1  1  0  0  0  0
  5 12  1  0  0  0  0
  5 10  2  0  0  0  0
  6  1  1  0  0  0  0
  7  8  1  0  0  0  0
  7  2  1  0  0  0  0
  9  2  2  0  0  0  0
  9 19  1  0  0  0  0
 10 21  1  0  0  0  0
 11 10  1  0  0  0  0
 12  6  1  1  0  0  0
 12  9  1  0  0  0  0
 13 15  2  0  0  0  0
 13 17  1  0  0  0  0
 14 13  1  0  0  0  0
 15  4  1  0  0  0  0
 16 15  1  0  0  0  0
 17  6  2  0  0  0  0
 18 17  1  0  0  0  0
 19 20  1  0  0  0  0
 21 22  1  0  0  0  0
 21 19  2  0  0  0  0
M  END
