1
q = -1.0, confidence = 0.0

 19 19  0  0  1  0  0  0  0  0999 V2000
   -1.2263    0.5082    1.6642 N   0  0  0  0  0  2  0  0  0  0  0  0
   -1.7271    1.2192    1.1154 H   0  0  0  0  0  0  0  0  0  0  0  0
   -2.2722   -0.3937    2.1456 C   0  0  1  0  0  0  0  0  0  0  0  0
   -1.7913   -1.2406    2.6748 H   0  0  0  0  0  0  0  0  0  0  0  0
   -3.1772    0.3200    3.1626 C   0  0  0  0  0  0  0  0  0  0  0  0
   -2.5614    0.6751    4.0121 H   0  0  0  0  0  0  0  0  0  0  0  0
   -3.9781   -0.3459    3.5470 H   0  0  0  0  0  0  0  0  0  0  0  0
   -3.6643    1.2128    2.7155 H   0  0  0  0  0  0  0  0  0  0  0  0
   -3.0524   -0.9841    0.9694 C   0  0  0  0  0  0  0  0  0  0  0  0
   -2.7921   -2.2923    0.5085 C   0  0  0  0  0  0  0  0  0  0  0  0
   -2.0855   -2.9229    1.0704 H   0  0  0  0  0  0  0  0  0  0  0  0
   -3.4138   -2.7997   -0.6433 C   0  0  0  0  0  0  0  0  0  0  0  0
   -3.1872   -3.8236   -0.9801 H   0  0  0  0  0  0  0  0  0  0  0  0
   -4.3267   -2.0099   -1.3601 C   0  0  0  0  0  0  0  0  0  0  0  0
   -4.8184   -2.4053   -2.2620 H   0  0  0  0  0  0  0  0  0  0  0  0
   -4.6142   -0.7118   -0.9045 C   0  0  0  0  0  0  0  0  0  0  0  0
   -5.3408   -0.0867   -1.4476 H   0  0  0  0  0  0  0  0  0  0  0  0
   -3.9860   -0.2101    0.2447 C   0  0  0  0  0  0  0  0  0  0  0  0
   -4.2293    0.8083    0.5890 H   0  0  0  0  0  0  0  0  0  0  0  0
  1  3  1  0  0  0  0
  2  1  1  0  0  0  0
  3  4  1  1  0  0  0
  3  5  1  0  0  0  0
  5  7  1  0  0  0  0
  5  6  1  0  0  0  0
  8  5  1  0  0  0  0
  9  3  1  0  0  0  0
 10  9  1  0  0  0  0
 10 11  1  0  0  0  0
 12 10  2  0  0  0  0
 13 12  1  0  0  0  0
 14 16  2  0  0  0  0
 14 12  1  0  0  0  0
 15 14  1  0  0  0  0
 16 18  1  0  0  0  0
 17 16  1  0  0  0  0
 18 19  1  0  0  0  0
 18  9  2  0  0  0  0
M  END
