1
q = 0.0, confidence = 0.972

 11 11  0  0  0  0  0  0  0  0999 V2000
   -2.5594    1.6625   -0.6738 N   0  0  0  0  0  0  0  0  0  0  0  0
   -3.0844    1.7240   -1.5595 H   0  0  0  0  0  0  0  0  0  0  0  0
   -1.8070    2.3805   -0.7287 H   0  0  0  0  0  0  0  0  0  0  0  0
   -3.4406    1.9632    0.4574 C   0  0  0  0  0  0  0  0  0  0  0  0
   -4.2567    1.2296    0.5546 H   0  0  0  0  0  0  0  0  0  0  0  0
   -2.8197    2.5134    1.7054 C   0  0  0  0  0  0  0  0  0  0  0  0
   -3.1960    2.1515    2.6738 H   0  0  0  0  0  0  0  0  0  0  0  0
   -1.7318    2.6882    1.6744 H   0  0  0  0  0  0  0  0  0  0  0  0
   -3.7063    3.3977    0.8503 C   0  0  0  0  0  0  0  0  0  0  0  0
   -3.2180    4.1888    0.2580 H   0  0  0  0  0  0  0  0  0  0  0  0
   -4.7126    3.6601    1.2120 H   0  0  0  0  0  0  0  0  0  0  0  0
  1  4  1  0  0  0  0
  2  1  1  0  0  0  0
  3  1  1  0  0  0  0
  4  5  1  0  0  0  0
  4  9  1  0  0  0  0
  4  6  1  0  0  0  0
  6  7  1  0  0  0  0
  8  6  1  0  0  0  0
  9 11  1  0  0  0  0
  9  6  1  0  0  0  0
 10  9  1  0  0  0  0
M  END
