1
q = 0.0, confidence = 1.0

 17 17  0  0  0  0  0  0  0  0999 V2000
    2.0176   -0.1838   -0.3098 N   0  0  0  0  0  0  0  0  0  0  0  0
    2.2758    0.4193   -1.1056 H   0  0  0  0  0  0  0  0  0  0  0  0
    2.1600   -1.1645   -0.6061 H   0  0  0  0  0  0  0  0  0  0  0  0
    2.8710    0.1479    0.8652 C   0  0  0  0  0  0  0  0  0  0  0  0
    2.5698    1.1614    1.1937 H   0  0  0  0  0  0  0  0  0  0  0  0
    2.6037   -0.5633    1.6707 H   0  0  0  0  0  0  0  0  0  0  0  0
    4.3421    0.0833    0.5330 C   0  0  0  0  0  0  0  0  0  0  0  0
    5.0530   -1.1313    0.6219 C   0  0  0  0  0  0  0  0  0  0  0  0
    4.5421   -2.0352    0.9907 H   0  0  0  0  0  0  0  0  0  0  0  0
    6.4038   -1.2068    0.2576 C   0  0  0  0  0  0  0  0  0  0  0  0
    6.9720   -2.1452    0.3284 H   0  0  0  0  0  0  0  0  0  0  0  0
    7.0442   -0.0491   -0.2031 C   0  0  0  0  0  0  0  0  0  0  0  0
    6.3679    1.1734   -0.3032 C   0  0  0  0  0  0  0  0  0  0  0  0
    6.9084    2.0609   -0.6620 H   0  0  0  0  0  0  0  0  0  0  0  0
    8.3406   -0.1122   -0.5526 F   0  0  0  0  0  0  0  0  0  0  0  0
    5.0173    1.2300    0.0662 C   0  0  0  0  0  0  0  0  0  0  0  0
    4.4758    2.1872   -0.0015 H   0  0  0  0  0  0  0  0  0  0  0  0
  1  4  1  0  0  0  0
  2  1  1  0  0  0  0
  3  1  1  0  0  0  0
  4  5  1  0  0  0  0
  4  6  1  0  0  0  0
  7  8  1  0  0  0  0
  7  4  1  0  0  0  0
  8  9  1  0  0  0  0
 10 11  1  0  0  0  0
 10  8  2  0  0  0  0
 12 10  1  0  0  0  0
 13 12  2  0  0  0  0
 13 16  1  0  0  0  0
 14 13  1  0  0  0  0
 15 12  1  0  0  0  0
 16  7  2  0  0  0  0
 17 16  1  0  0  0  0
M  END
