1
q = 0.0, confidence = 0.996

 28 30  0  0  0  0  0  0  0  0999 V2000
    2.4412   -1.7162   -0.5094 N   0  0  0  0  0  2  0  0  0  0  0  0
    4.6322   -1.7215   -0.8090 N   0  0  0  0  0  0  0  0  0  0  0  0
    3.6105   -1.2339   -0.0630 C   0  0  0  0  0  3  0  0  0  0  0  0
    3.7557   -0.5357    0.7677 H   0  0  0  0  0  0  0  0  0  0  0  0
    2.7299   -2.5445   -1.5806 C   0  0  0  0  0  0  0  0  0  0  0  0
    1.9507   -3.0726   -2.1394 H   0  0  0  0  0  0  0  0  0  0  0  0
    4.0962   -2.5528   -1.7754 C   0  0  0  0  0  0  0  0  0  0  0  0
    4.7225   -3.0734   -2.5065 H   0  0  0  0  0  0  0  0  0  0  0  0
    6.0705   -1.4425   -0.6080 C   0  0  0  0  0  0  0  0  0  0  0  0
    6.5287   -1.4017   -1.6168 H   0  0  0  0  0  0  0  0  0  0  0  0
    6.5171   -2.3059   -0.0753 H   0  0  0  0  0  0  0  0  0  0  0  0
    6.3167   -0.1719    0.1648 C   0  0  0  0  0  0  0  0  0  0  0  0
    6.8194   -0.2471    1.4610 C   0  0  0  0  0  0  0  0  0  0  0  0
    7.0366   -1.2341    1.8993 H   0  0  0  0  0  0  0  0  0  0  0  0
    7.0677    0.9226    2.2245 C   0  0  0  0  0  0  0  0  0  0  0  0
    7.4727    0.8320    3.2428 H   0  0  0  0  0  0  0  0  0  0  0  0
    6.8026    2.1691    1.6822 C   0  0  0  0  0  0  0  0  0  0  0  0
    6.9928    3.0832    2.2653 H   0  0  0  0  0  0  0  0  0  0  0  0
    6.2837    2.2978    0.3598 C   0  0  0  0  0  0  0  0  0  0  0  0
    6.0114    3.5762   -0.2099 C   0  0  0  0  0  0  0  0  0  0  0  0
    6.2116    4.4747    0.3939 H   0  0  0  0  0  0  0  0  0  0  0  0
    5.5113    3.6916   -1.4976 C   0  0  0  0  0  0  0  0  0  0  0  0
    5.3097    4.6844   -1.9265 H   0  0  0  0  0  0  0  0  0  0  0  0
    5.2641    2.5262   -2.2690 C   0  0  0  0  0  0  0  0  0  0  0  0
    4.8736    2.6232   -3.2932 H   0  0  0  0  0  0  0  0  0  0  0  0
    5.5170    1.2660   -1.7444 C   0  0  0  0  0  0  0  0  0  0  0  0
    5.3156    0.3807   -2.3652 H   0  0  0  0  0  0  0  0  0  0  0  0
    6.0332    1.1100   -0.4232 C   0  0  0  0  0  0  0  0  0  0  0  0
  1  3  1  0  0  0  0
  2  9  1  0  0  0  0
  2  3  1  0  0  0  0
  3  4  1  0  0  0  0
  5  1  1  0  0  0  0
  6  5  1  0  0  0  0
  7  5  2  0  0  0  0
  7  2  1  0  0  0  0
  8  7  1  0  0  0  0
  9 11  1  0  0  0  0
  9 12  1  0  0  0  0
 10  9  1  0  0  0  0
 12 13  1  0  0  0  0
 13 14  1  0  0  0  0
 13 15  2  0  0  0  0
 15 16  1  0  0  0  0
 17 15  1  0  0  0  0
 17 18  1  0  0  0  0
 19 17  2  0  0  0  0
 20 19  1  0  0  0  0
 20 21  1  0  0  0  0
 22 20  2  0  0  0  0
 23 22  1  0  0  0  0
 24 26  2  0  0  0  0
 24 22  1  0  0  0  0
 25 24  1  0  0  0  0
 26 28  1  0  0  0  0
 27 26  1  0  0  0  0
 28 12  2  0  0  0  0
 28 19  1  0  0  0  0
M  END
