1
q = 0.0, confidence = 0.994

 56 61  0  0  1  0  0  0  0  0999 V2000
    0.1704   -0.4482   -0.0091 N   0  0  0  0  0  2  0  0  0  0  0  0
   -1.4546    1.0643   -0.0932 N   0  0  0  0  0  0  0  0  0  0  0  0
   -0.0866    0.8650   -0.0630 C   0  0  2  0  0  3  0  0  0  0  0  0
   -1.0392   -1.1285    0.0017 C   0  0  0  0  0  0  0  0  0  0  0  0
   -2.0760   -0.1871   -0.0699 C   0  0  0  0  0  0  0  0  0  0  0  0
   -3.4637   -0.5545   -0.1803 C   0  0  0  0  0  0  0  0  0  0  0  0
   -4.5166    0.3690   -0.4195 C   0  0  0  0  0  0  0  0  0  0  0  0
   -4.2888    1.4343   -0.5416 H   0  0  0  0  0  0  0  0  0  0  0  0
   -5.8367   -0.0593   -0.5216 C   0  0  0  0  0  0  0  0  0  0  0  0
   -6.6356    0.6731   -0.7112 H   0  0  0  0  0  0  0  0  0  0  0  0
   -6.1418   -1.4292   -0.3904 C   0  0  0  0  0  0  0  0  0  0  0  0
   -7.1835   -1.7753   -0.4657 H   0  0  0  0  0  0  0  0  0  0  0  0
   -5.1195   -2.3520   -0.1851 C   0  0  0  0  0  0  0  0  0  0  0  0
   -5.3822   -3.4157   -0.1142 H   0  0  0  0  0  0  0  0  0  0  0  0
   -3.7586   -1.9615   -0.0847 C   0  0  0  0  0  0  0  0  0  0  0  0
   -2.6839   -2.9492    0.0801 C   0  0  0  0  0  0  0  0  0  0  0  0
   -2.9580   -4.3362    0.2113 C   0  0  0  0  0  0  0  0  0  0  0  0
   -3.9980   -4.6883    0.2144 H   0  0  0  0  0  0  0  0  0  0  0  0
   -1.9394   -5.2766    0.3414 C   0  0  0  0  0  0  0  0  0  0  0  0
   -2.1921   -6.3430    0.4420 H   0  0  0  0  0  0  0  0  0  0  0  0
   -0.5911   -4.8629    0.3456 C   0  0  0  0  0  0  0  0  0  0  0  0
    0.2177   -5.6016    0.4480 H   0  0  0  0  0  0  0  0  0  0  0  0
   -0.2823   -3.5127    0.2238 C   0  0  0  0  0  0  0  0  0  0  0  0
    0.7675   -3.1790    0.2318 H   0  0  0  0  0  0  0  0  0  0  0  0
   -1.3051   -2.5421    0.0936 C   0  0  0  0  0  0  0  0  0  0  0  0
   -2.0679    2.3508    0.0515 C   0  0  0  0  0  0  0  0  0  0  0  0
   -1.8954    3.3330   -0.9359 C   0  0  0  0  0  0  0  0  0  0  0  0
   -1.3087    3.1033   -1.8350 H   0  0  0  0  0  0  0  0  0  0  0  0
   -2.4778    4.5968   -0.7589 C   0  0  0  0  0  0  0  0  0  0  0  0
   -2.3396    5.3687   -1.5303 H   0  0  0  0  0  0  0  0  0  0  0  0
   -3.2339    4.8739    0.3905 C   0  0  0  0  0  0  0  0  0  0  0  0
   -3.6914    5.8656    0.5230 H   0  0  0  0  0  0  0  0  0  0  0  0
   -3.4051    3.8842    1.3726 C   0  0  0  0  0  0  0  0  0  0  0  0
   -3.9949    4.0967    2.2767 H   0  0  0  0  0  0  0  0  0  0  0  0
   -2.8166    2.6232    1.2115 C   0  0  0  0  0  0  0  0  0  0  0  0
   -2.9409    1.8379    1.9712 H   0  0  0  0  0  0  0  0  0  0  0  0
    0.8982    1.9693   -0.0988 C   0  0  0  0  0  0  0  0  0  0  0  0
    1.4505    2.3596   -1.3475 C   0  0  0  0  0  0  0  0  0  0  0  0
    2.3787    3.4161   -1.3619 C   0  0  0  0  0  0  0  0  0  0  0  0
    2.8103    3.7248   -2.3277 H   0  0  0  0  0  0  0  0  0  0  0  0
    2.7613    4.0897   -0.1889 C   0  0  0  0  0  0  0  0  0  0  0  0
    2.1730    3.6964    1.0270 C   0  0  0  0  0  0  0  0  0  0  0  0
    2.4464    4.2230    1.9556 H   0  0  0  0  0  0  0  0  0  0  0  0
    1.2408    2.6485    1.1005 C   0  0  0  0  0  0  0  0  0  0  0  0
    1.0633    1.6702   -2.6276 C   0  0  0  0  0  0  0  0  0  0  0  0
    1.4091    2.2421   -3.5098 H   0  0  0  0  0  0  0  0  0  0  0  0
   -0.0344    1.5307   -2.7141 H   0  0  0  0  0  0  0  0  0  0  0  0
    1.4961    0.6458   -2.6780 H   0  0  0  0  0  0  0  0  0  0  0  0
    3.7882    5.1932   -0.2261 C   0  0  0  0  0  0  0  0  0  0  0  0
    3.8720    5.6419   -1.2353 H   0  0  0  0  0  0  0  0  0  0  0  0
    4.7936    4.8058    0.0466 H   0  0  0  0  0  0  0  0  0  0  0  0
    3.5476    5.9997    0.4951 H   0  0  0  0  0  0  0  0  0  0  0  0
    0.6280    2.2558    2.4169 C   0  0  0  0  0  0  0  0  0  0  0  0
    1.0348    2.8686    3.2436 H   0  0  0  0  0  0  0  0  0  0  0  0
    0.8415    1.1875    2.6353 H   0  0  0  0  0  0  0  0  0  0  0  0
   -0.4729    2.3919    2.4072 H   0  0  0  0  0  0  0  0  0  0  0  0
  1  4  1  0  0  0  0
  2  5  1  0  0  0  0
  2  3  1  0  0  0  0
  2 26  1  0  0  0  0
  3 37  1  6  0  0  0
  3  1  1  0  0  0  0
  4 25  1  0  0  0  0
  5  4  2  0  0  0  0
  6 15  1  0  0  0  0
  6  5  1  0  0  0  0
  7  6  2  0  0  0  0
  8  7  1  0  0  0  0
  9  7  1  0  0  0  0
  9 11  2  0  0  0  0
 10  9  1  0  0  0  0
 11 13  1  0  0  0  0
 12 11  1  0  0  0  0
 13 14  1  0  0  0  0
 13 15  2  0  0  0  0
 15 16  1  0  0  0  0
 16 25  2  0  0  0  0
 16 17  1  0  0  0  0
 17 18  1  0  0  0  0
 17 19  2  0  0  0  0
 19 21  1  0  0  0  0
 19 20  1  0  0  0  0
 21 22  1  0  0  0  0
 23 24  1  0  0  0  0
 23 21  2  0  0  0  0
 25 23  1  0  0  0  0
 26 35  1  0  0  0  0
 27 29  1  0  0  0  0
 27 26  2  0  0  0  0
 28 27  1  0  0  0  0
 29 31  2  0  0  0  0
 30 29  1  0  0  0  0
 31 32  1  0  0  0  0
 31 33  1  0  0  0  0
 33 34  1  0  0  0  0
 35 33  2  0  0  0  0
 35 36  1  0  0  0  0
 37 44  1  0  0  0  0
 38 37  2  0  0  0  0
 39 38  1  0  0  0  0
 39 41  2  0  0  0  0
 40 39  1  0  0  0  0
 41 42  1  0  0  0  0
 42 44  2  0  0  0  0
 42 43  1  0  0  0  0
 44 53  1  0  0  0  0
 45 38  1  0  0  0  0
 46 45  1  0  0  0  0
 47 45  1  0  0  0  0
 48 45  1  0  0  0  0
 49 41  1  0  0  0  0
 49 51  1  0  0  0  0
 49 52  1  0  0  0  0
 50 49  1  0  0  0  0
 53 55  1  0  0  0  0
 53 54  1  0  0  0  0
 56 53  1  0  0  0  0
M  END
