13
q = 0.0, confidence = 0.994

 15 16  0  0  0  0  0  0  0  0999 V2000
    2.3882   -1.1228    1.6177 N   0  0  0  0  0  0  0  0  0  0  0  0
    2.0105   -2.0843    1.5340 H   0  0  0  0  0  0  0  0  0  0  0  0
    3.3648   -0.6644    2.4833 C   0  0  0  0  0  0  0  0  0  0  0  0
    3.6144   -1.2370    3.3833 H   0  0  0  0  0  0  0  0  0  0  0  0
    3.8975    0.5267    2.0163 C   0  0  0  0  0  0  0  0  0  0  0  0
    4.6711    1.1344    2.4955 H   0  0  0  0  0  0  0  0  0  0  0  0
    3.2449    0.8020    0.7699 C   0  0  0  0  0  0  0  0  0  0  0  0
    3.3282    1.7763   -0.2428 C   0  0  0  0  0  0  0  0  0  0  0  0
    2.5318    1.6267   -1.3863 C   0  0  0  0  0  0  0  0  0  0  0  0
    2.5966    2.3443   -2.2145 H   0  0  0  0  0  0  0  0  0  0  0  0
    1.6367    0.5473   -1.4812 C   0  0  0  0  0  3  0  0  0  0  0  0
    1.0265    0.4114   -2.3822 H   0  0  0  0  0  0  0  0  0  0  0  0
    1.4773   -0.3778   -0.5061 N   0  0  0  0  0  2  0  0  0  0  0  0
    2.3027   -0.2625    0.5608 C   0  0  0  0  0  0  0  0  0  0  0  0
    4.5185    3.2349   -0.0769 Br  0  0  0  0  0  0  0  0  0  0  0  0
  1  3  1  0  0  0  0
  2  1  1  0  0  0  0
  3  4  1  0  0  0  0
  5  3  2  0  0  0  0
  5  6  1  0  0  0  0
  7  5  1  0  0  0  0
  8 15  1  0  0  0  0
  8  7  1  0  0  0  0
  9  8  2  0  0  0  0
 10  9  1  0  0  0  0
 11  9  1  0  0  0  0
 11 13  1  0  0  0  0
 12 11  1  0  0  0  0
 13 14  1  0  0  0  0
 14  7  2  0  0  0  0
 14  1  1  0  0  0  0
M  END
