3
q = 0.0, confidence = 0.994

 12 12  0  0  0  0  0  0  0  0999 V2000
    5.5838    0.0369    0.3404 O   0  0  0  0  0  0  0  0  0  0  0  0
    5.9897    0.0537   -0.5478 H   0  0  0  0  0  0  0  0  0  0  0  0
    1.4581   -0.4705    0.0928 N   0  0  0  0  0  2  0  0  0  0  0  0
    2.0993   -0.3573    1.2826 C   0  0  0  0  0  3  0  0  0  0  0  0
    1.4697   -0.4212    2.1822 H   0  0  0  0  0  0  0  0  0  0  0  0
    3.4753   -0.1839    1.3947 C   0  0  0  0  0  0  0  0  0  0  0  0
    3.9560   -0.0961    2.3782 H   0  0  0  0  0  0  0  0  0  0  0  0
    4.2531   -0.1285    0.2189 C   0  0  0  0  0  0  0  0  0  0  0  0
    3.5899   -0.2518   -1.0186 C   0  0  0  0  0  0  0  0  0  0  0  0
    4.1435   -0.2167   -1.9697 H   0  0  0  0  0  0  0  0  0  0  0  0
    2.2055   -0.4160   -1.0364 C   0  0  0  0  0  0  0  0  0  0  0  0
    1.6463   -0.4886   -1.9817 H   0  0  0  0  0  0  0  0  0  0  0  0
  2  1  1  0  0  0  0
  3  4  1  0  0  0  0
  4  6  1  0  0  0  0
  4  5  1  0  0  0  0
  6  7  1  0  0  0  0
  8  1  1  0  0  0  0
  8  6  2  0  0  0  0
  9  8  1  0  0  0  0
 10  9  1  0  0  0  0
 11  9  2  0  0  0  0
 11  3  1  0  0  0  0
 12 11  1  0  0  0  0
M  END
