2
q = 0.0, confidence = 0.982

 42 45  0  0  0  0  0  0  0  0999 V2000
    0.6408    2.4243    0.4747 Cl  0  0  0  0  0  0  0  0  0  0  0  0
   -1.0286   -0.5715   -1.1058 N   0  0  0  0  0  2  0  0  0  0  0  0
    1.1442   -0.2125   -0.8546 N   0  0  0  0  0  0  0  0  0  0  0  0
   -0.5553    0.0448   -2.2496 C   0  0  0  0  0  0  0  0  0  0  0  0
   -1.2033    0.2764   -3.1008 H   0  0  0  0  0  0  0  0  0  0  0  0
    0.7973    0.2793   -2.1026 C   0  0  0  0  0  0  0  0  0  0  0  0
    1.5273    0.7611   -2.7587 H   0  0  0  0  0  0  0  0  0  0  0  0
    0.0184   -0.7184   -0.2889 C   0  0  0  0  0  3  0  0  0  0  0  0
   -0.0034   -1.1466    0.7138 H   0  0  0  0  0  0  0  0  0  0  0  0
    2.5052   -0.1009   -0.2340 C   0  0  0  0  0  0  0  0  0  0  0  0
    3.4313   -1.1792   -0.8420 C   0  0  0  0  0  0  0  0  0  0  0  0
    4.6666   -1.4373   -0.2077 C   0  0  0  0  0  0  0  0  0  0  0  0
    4.9366   -0.8834    0.7038 H   0  0  0  0  0  0  0  0  0  0  0  0
    5.5489   -2.3954   -0.7214 C   0  0  0  0  0  0  0  0  0  0  0  0
    6.5078   -2.5785   -0.2141 H   0  0  0  0  0  0  0  0  0  0  0  0
    5.2063   -3.1269   -1.8709 C   0  0  0  0  0  0  0  0  0  0  0  0
    5.8953   -3.8854   -2.2710 H   0  0  0  0  0  0  0  0  0  0  0  0
    3.9756   -2.8901   -2.4961 C   0  0  0  0  0  0  0  0  0  0  0  0
    3.6890   -3.4648   -3.3893 H   0  0  0  0  0  0  0  0  0  0  0  0
    3.0935   -1.9207   -1.9874 C   0  0  0  0  0  0  0  0  0  0  0  0
    2.1315   -1.7635   -2.4940 H   0  0  0  0  0  0  0  0  0  0  0  0
    3.0010    1.3336   -0.5456 C   0  0  0  0  0  0  0  0  0  0  0  0
    4.2498    1.5425   -1.1671 C   0  0  0  0  0  0  0  0  0  0  0  0
    4.8623    0.6682   -1.4224 H   0  0  0  0  0  0  0  0  0  0  0  0
    4.7304    2.8224   -1.4753 C   0  0  0  0  0  0  0  0  0  0  0  0
    5.7120    2.9305   -1.9587 H   0  0  0  0  0  0  0  0  0  0  0  0
    3.9583    3.9506   -1.1736 C   0  0  0  0  0  0  0  0  0  0  0  0
    4.3207    4.9620   -1.4091 H   0  0  0  0  0  0  0  0  0  0  0  0
    2.7052    3.7843   -0.5710 C   0  0  0  0  0  0  0  0  0  0  0  0
    2.0733    4.6503   -0.3298 H   0  0  0  0  0  0  0  0  0  0  0  0
    2.2362    2.4973   -0.2664 C   0  0  0  0  0  0  0  0  0  0  0  0
    2.4045   -0.3877    1.2849 C   0  0  0  0  0  0  0  0  0  0  0  0
    2.1101   -1.7059    1.7030 C   0  0  0  0  0  0  0  0  0  0  0  0
    1.9784   -2.4985    0.9509 H   0  0  0  0  0  0  0  0  0  0  0  0
    2.0185   -2.0262    3.0635 C   0  0  0  0  0  0  0  0  0  0  0  0
    1.7935   -3.0605    3.3646 H   0  0  0  0  0  0  0  0  0  0  0  0
    2.2509   -1.0395    4.0365 C   0  0  0  0  0  0  0  0  0  0  0  0
    2.2021   -1.2929    5.1064 H   0  0  0  0  0  0  0  0  0  0  0  0
    2.5826    0.2609    3.6324 C   0  0  0  0  0  0  0  0  0  0  0  0
    2.8007    1.0350    4.3834 H   0  0  0  0  0  0  0  0  0  0  0  0
    2.6598    0.5846    2.2668 C   0  0  0  0  0  0  0  0  0  0  0  0
    2.9442    1.6039    1.9745 H   0  0  0  0  0  0  0  0  0  0  0  0
  2  8  1  0  0  0  0
  3  8  1  0  0  0  0
  3 10  1  0  0  0  0
  4  6  2  0  0  0  0
  4  2  1  0  0  0  0
  5  4  1  0  0  0  0
  6  3  1  0  0  0  0
  7  6  1  0  0  0  0
  8  9  1  0  0  0  0
 10 32  1  0  0  0  0
 11 10  1  0  0  0  0
 11 12  1  0  0  0  0
 12 13  1  0  0  0  0
 14 15  1  0  0  0  0
 14 12  2  0  0  0  0
 16 14  1  0  0  0  0
 17 16  1  0  0  0  0
 18 20  1  0  0  0  0
 18 16  2  0  0  0  0
 19 18  1  0  0  0  0
 20 11  2  0  0  0  0
 21 20  1  0  0  0  0
 22 31  1  0  0  0  0
 22 10  1  0  0  0  0
 23 22  2  0  0  0  0
 24 23  1  0  0  0  0
 25 27  2  0  0  0  0
 25 23  1  0  0  0  0
 26 25  1  0  0  0  0
 27 29  1  0  0  0  0
 28 27  1  0  0  0  0
 29 30  1  0  0  0  0
 29 31  2  0  0  0  0
 31  1  1  0  0  0  0
 32 33  2  0  0  0  0
 32 41  1  0  0  0  0
 33 35  1  0  0  0  0
 34 33  1  0  0  0  0
 35 36  1  0  0  0  0
 35 37  2  0  0  0  0
 37 38  1  0  0  0  0
 39 37  1  0  0  0  0
 39 40  1  0  0  0  0
 41 39  2  0  0  0  0
 42 41  1  0  0  0  0
M  END
