3
q = 0.0, confidence = 0.544

 17 17  0  0  0  0  0  0  0  0999 V2000
   -0.5664   -0.2513    1.3471 S   0  0  0  0  0  1  0  0  0  0  0  0
   -4.8422    3.5014   -0.2180 O   0  0  0  0  0  0  0  0  0  0  0  0
   -0.3175    1.7461   -0.7460 N   0  0  0  0  0  2  0  0  0  0  0  0
   -0.2472    2.1811   -1.6682 H   0  0  0  0  0  0  0  0  0  0  0  0
   -2.6032    2.6282   -0.6096 C   0  0  0  0  0  0  0  0  0  0  0  0
   -2.4449    3.2397   -1.5079 H   0  0  0  0  0  0  0  0  0  0  0  0
   -1.5429    1.7754   -0.1759 C   0  0  0  0  0  0  0  0  0  0  0  0
   -1.7958    0.9514    0.9670 C   0  0  0  0  0  0  0  0  0  0  0  0
   -3.7959    2.7019    0.1207 C   0  0  0  0  0  0  0  0  0  0  0  0
   -2.9905    1.0561    1.7086 C   0  0  0  0  0  0  0  0  0  0  0  0
   -3.1322    0.4246    2.5979 H   0  0  0  0  0  0  0  0  0  0  0  0
   -3.9894    1.9316    1.3031 C   0  0  0  0  0  0  0  0  0  0  0  0
   -4.9344    2.0346    1.8522 H   0  0  0  0  0  0  0  0  0  0  0  0
   -4.7464    4.2790   -1.3951 C   0  0  0  0  0  0  0  0  0  0  0  0
   -3.9087    5.0108   -1.3417 H   0  0  0  0  0  0  0  0  0  0  0  0
   -5.7003    4.8310   -1.4856 H   0  0  0  0  0  0  0  0  0  0  0  0
   -4.6064    3.6450   -2.2992 H   0  0  0  0  0  0  0  0  0  0  0  0
  2  9  1  0  0  0  0
  3  7  1  0  0  0  0
  4  3  1  0  0  0  0
  5  7  2  0  0  0  0
  5  9  1  0  0  0  0
  6  5  1  0  0  0  0
  7  8  1  0  0  0  0
  8  1  1  0  0  0  0
  8 10  2  0  0  0  0
  9 12  2  0  0  0  0
 10 11  1  0  0  0  0
 12 10  1  0  0  0  0
 12 13  1  0  0  0  0
 14 15  1  0  0  0  0
 14  2  1  0  0  0  0
 16 14  1  0  0  0  0
 17 14  1  0  0  0  0
M  END
