3
q = -2.0, confidence = 0.628

 15 15  0  0  0  0  0  0  0  0999 V2000
   -0.7505    2.2288    0.1164 C   0  0  0  0  0  0  0  0  0  0  0  0
    0.7089    0.3098    1.3962 S   0  0  0  0  0  1  0  0  0  0  0  0
   -1.2923    1.1798   -0.5013 N   0  0  0  0  0  2  0  0  0  0  0  0
   -1.9478    1.4530   -1.2470 H   0  0  0  0  0  0  0  0  0  0  0  0
    0.7667    3.0278    1.9332 C   0  0  0  0  0  0  0  0  0  0  0  0
    1.4832    2.7806    2.7301 H   0  0  0  0  0  0  0  0  0  0  0  0
    0.2315    2.0068    1.1511 C   0  0  0  0  0  0  0  0  0  0  0  0
   -0.5042    4.6440    0.6588 C   0  0  0  0  0  0  0  0  0  0  0  0
   -0.8160    5.6707    0.4242 H   0  0  0  0  0  0  0  0  0  0  0  0
    0.4014    4.3664    1.6855 C   0  0  0  0  0  0  0  0  0  0  0  0
    0.8258    5.1790    2.2903 H   0  0  0  0  0  0  0  0  0  0  0  0
   -2.6111    3.0933   -1.7748 O   0  0  0  0  0  0  0  0  0  0  0  0
   -2.0410    4.0023   -1.1281 N   0  0  0  0  0  0  0  0  0  0  0  0
   -1.0776    3.6199   -0.1132 C   0  0  0  0  0  0  0  0  0  0  0  0
   -2.2742    5.1998   -1.3095 O   0  0  0  0  0  0  0  0  0  0  0  0
  1  7  1  0  0  0  0
  3  1  1  0  0  0  0
  4  3  1  0  0  0  0
  5  6  1  0  0  0  0
  7  2  1  0  0  0  0
  7  5  2  0  0  0  0
  8 10  2  0  0  0  0
  9  8  1  0  0  0  0
 10  5  1  0  0  0  0
 10 11  1  0  0  0  0
 12 13  2  0  0  0  0
 13 14  1  0  0  0  0
 14  1  2  0  0  0  0
 14  8  1  0  0  0  0
 15 13  2  0  0  0  0
M  END
