2
q = 0.0, confidence = 0.504

 16 16  0  0  0  0  0  0  0  0999 V2000
    0.6804    0.4333    1.3245 S   0  0  0  0  0  1  0  0  0  0  0  0
   -0.8731    1.7130   -0.7706 N   0  0  0  0  0  2  0  0  0  0  0  0
   -1.1951    1.9375   -1.7140 H   0  0  0  0  0  0  0  0  0  0  0  0
    0.0557    2.5540   -0.2550 C   0  0  0  0  0  0  0  0  0  0  0  0
    0.8214    2.1427    0.8786 C   0  0  0  0  0  0  0  0  0  0  0  0
    1.6737    3.0142    1.5807 C   0  0  0  0  0  0  0  0  0  0  0  0
    2.2139    2.6528    2.4677 H   0  0  0  0  0  0  0  0  0  0  0  0
    1.8380    4.3193    1.1146 C   0  0  0  0  0  0  0  0  0  0  0  0
    2.5021    5.0192    1.6406 H   0  0  0  0  0  0  0  0  0  0  0  0
    1.1562    4.7233   -0.0565 C   0  0  0  0  0  0  0  0  0  0  0  0
    1.3083    5.7458   -0.4388 H   0  0  0  0  0  0  0  0  0  0  0  0
    0.2827    3.8847   -0.7535 C   0  0  0  0  0  0  0  0  0  0  0  0
   -0.4510    4.3322   -1.9867 C   0  0  0  0  0  0  0  0  0  0  0  0
   -0.1852    5.3698   -2.2635 H   0  0  0  0  0  0  0  0  0  0  0  0
   -1.5539    4.2891   -1.8426 H   0  0  0  0  0  0  0  0  0  0  0  0
   -0.2185    3.6810   -2.8589 H   0  0  0  0  0  0  0  0  0  0  0  0
  2  4  1  0  0  0  0
  3  2  1  0  0  0  0
  4  5  1  0  0  0  0
  5  1  1  0  0  0  0
  5  6  2  0  0  0  0
  6  7  1  0  0  0  0
  8  6  1  0  0  0  0
  8  9  1  0  0  0  0
 10  8  2  0  0  0  0
 11 10  1  0  0  0  0
 12  4  2  0  0  0  0
 12 10  1  0  0  0  0
 13 15  1  0  0  0  0
 13 12  1  0  0  0  0
 14 13  1  0  0  0  0
 16 13  1  0  0  0  0
M  END
