4
q = 0.0, confidence = 0.844

 29 30  0  0  0  0  0  0  0  0999 V2000
    1.4130    0.0336    0.6577 N   0  0  0  0  0  4  0  0  0  0  0  0
    0.8885    0.9065    0.4609 H   0  0  0  0  0  0  0  0  0  0  0  0
   -1.7776    3.0176    2.8551 N   0  0  0  0  0  0  0  0  0  0  0  0
   -1.6292    1.0135    1.7917 N   0  0  0  0  0  0  0  0  0  0  0  0
    4.4756    1.1731   -0.8760 O   0  0  0  0  0  0  0  0  0  0  0  0
    3.6333    1.1728   -1.3829 H   0  0  0  0  0  0  0  0  0  0  0  0
    4.6532   -0.0205   -0.2469 C   0  0  0  0  0  0  0  0  0  0  0  0
    5.9456   -0.3275    0.2219 C   0  0  0  0  0  0  0  0  0  0  0  0
    6.7445    0.4117    0.0661 H   0  0  0  0  0  0  0  0  0  0  0  0
    6.1948   -1.5531    0.8506 C   0  0  0  0  0  0  0  0  0  0  0  0
    7.2117   -1.7775    1.2070 H   0  0  0  0  0  0  0  0  0  0  0  0
    5.1690   -2.5020    1.0053 C   0  0  0  0  0  0  0  0  0  0  0  0
    5.3749   -3.4761    1.4719 H   0  0  0  0  0  0  0  0  0  0  0  0
    3.8792   -2.2001    0.5493 C   0  0  0  0  0  0  0  0  0  0  0  0
    3.0567   -2.9343    0.6384 H   0  0  0  0  0  0  0  0  0  0  0  0
    3.6020   -0.9537   -0.0532 C   0  0  0  0  0  0  0  0  0  0  0  0
    2.1881   -0.6130   -0.4394 C   0  0  0  0  0  0  0  0  0  0  0  0
    2.1315    0.0669   -1.3070 H   0  0  0  0  0  0  0  0  0  0  0  0
    1.6399   -1.5416   -0.6948 H   0  0  0  0  0  0  0  0  0  0  0  0
    1.2700   -0.5183    1.8224 C   0  0  0  0  0  0  0  0  0  0  0  0
    1.8593   -1.4341    1.9972 H   0  0  0  0  0  0  0  0  0  0  0  0
    0.4324    0.0277    2.9185 C   0  0  0  0  0  0  0  0  0  0  0  0
   -0.0867   -0.8492    3.3723 H   0  0  0  0  0  0  0  0  0  0  0  0
    1.1460    0.3455    3.7150 H   0  0  0  0  0  0  0  0  0  0  0  0
   -0.5227    1.1396    2.6265 C   0  0  0  0  0  0  0  0  0  0  0  0
   -0.6422    2.3739    3.2694 C   0  0  0  0  0  3  0  0  0  0  0  0
    0.0314    2.8056    4.0236 H   0  0  0  0  0  0  0  0  0  0  0  0
   -2.3318    2.1757    1.9800 C   0  0  0  0  0  0  0  0  0  0  0  0
   -3.2717    2.3729    1.4433 H   0  0  0  0  0  0  0  0  0  0  0  0
  1 20  2  0  0  0  0
  2  1  1  0  0  0  0
  3 26  1  0  0  0  0
  4 28  1  0  0  0  0
  4 25  2  0  0  0  0
  5  7  1  0  0  0  0
  6  5  1  0  0  0  0
  7 16  2  0  0  0  0
  7  8  1  0  0  0  0
  8 10  2  0  0  0  0
  9  8  1  0  0  0  0
 10 12  1  0  0  0  0
 10 11  1  0  0  0  0
 12 13  1  0  0  0  0
 14 15  1  0  0  0  0
 14 12  2  0  0  0  0
 16 14  1  0  0  0  0
 17 16  1  0  0  0  0
 17  1  1  0  0  0  0
 18 17  1  0  0  0  0
 19 17  1  0  0  0  0
 20 21  1  0  0  0  0
 20 22  1  0  0  0  0
 22 23  1  0  0  0  0
 22 24  1  0  0  0  0
 25 22  1  0  0  0  0
 25 26  1  0  0  0  0
 26 27  1  0  0  0  0
 28  3  2  0  0  0  0
 29 28  1  0  0  0  0
M  END
