1
q = -1.0, confidence = 0.004

 16 16  0  0  1  0  0  0  0  0999 V2000
   -2.0416    0.2548   -0.3919 N   0  0  0  0  0  2  0  0  0  0  0  0
   -3.0292   -0.4000   -1.0497 C   0  0  2  0  0  3  0  0  0  0  0  0
   -2.6359   -1.4372   -2.0635 C   0  0  0  0  0  0  0  0  0  0  0  0
   -4.3862   -0.0986   -0.8061 C   0  0  0  0  0  0  0  0  0  0  0  0
   -4.9016    0.8908    0.1297 C   0  0  0  0  0  3  0  0  0  0  0  0
   -6.2874    0.8638    0.0654 C   0  0  0  0  0  0  0  0  0  0  0  0
   -6.6864   -0.1356   -0.9019 C   0  0  0  0  0  0  0  0  0  0  0  0
   -5.5444   -0.7157   -1.4323 C   0  0  0  0  0  0  0  0  0  0  0  0
   -2.4695    0.9663    0.2138 H   0  0  0  0  0  0  0  0  0  0  0  0
   -2.0159   -2.2332   -1.6093 H   0  0  0  0  0  0  0  0  0  0  0  0
   -2.0153   -0.9792   -2.8589 H   0  0  0  0  0  0  0  0  0  0  0  0
   -3.5195   -1.9032   -2.5289 H   0  0  0  0  0  0  0  0  0  0  0  0
   -4.3118    1.5620    0.7715 H   0  0  0  0  0  0  0  0  0  0  0  0
   -6.9718    1.4953    0.6492 H   0  0  0  0  0  0  0  0  0  0  0  0
   -7.7223   -0.3888   -1.1661 H   0  0  0  0  0  0  0  0  0  0  0  0
   -5.5180   -1.5088   -2.1902 H   0  0  0  0  0  0  0  0  0  0  0  0
  1  9  1  0  0  0  0
  2  4  1  0  0  0  0
  2  1  1  6  0  0  0
  3 10  1  0  0  0  0
  3  2  1  0  0  0  0
  4  5  1  0  0  0  0
  5 13  1  0  0  0  0
  6  5  1  0  0  0  0
  6 14  1  0  0  0  0
  7  6  2  0  0  0  0
  8  7  1  0  0  0  0
  8  4  2  0  0  0  0
 11  3  1  0  0  0  0
 12  3  1  0  0  0  0
 15  7  1  0  0  0  0
 16  8  1  0  0  0  0
M  END
