2
q = 0.0, confidence = 0.994

 33 34  0  0  1  0  0  0  0  0999 V2000
   -4.5460    0.4630   -2.3523 O   0  0  0  0  0  0  0  0  0  0  0  0
   -1.8431   -0.3429   -0.7468 N   0  0  0  0  0  2  0  0  0  0  0  0
   -2.8081    0.5183   -0.7197 C   0  0  1  0  0  3  0  0  0  0  0  0
   -2.0279   -1.6893   -1.3079 C   0  0  0  0  0  0  0  0  0  0  0  0
   -3.0899   -2.0021   -1.2149 H   0  0  0  0  0  0  0  0  0  0  0  0
   -1.4242   -2.3751   -0.6807 H   0  0  0  0  0  0  0  0  0  0  0  0
   -1.5813   -1.7287   -2.7693 C   0  0  0  0  0  0  0  0  0  0  0  0
   -1.6131   -2.7706   -3.1447 H   0  0  0  0  0  0  0  0  0  0  0  0
   -0.5525   -1.3324   -2.8737 H   0  0  0  0  0  0  0  0  0  0  0  0
   -2.2484   -1.1036   -3.3952 H   0  0  0  0  0  0  0  0  0  0  0  0
   -4.2081    0.1582   -1.2121 C   0  0  0  0  0  0  0  0  0  0  0  0
   -5.1077   -0.4956   -0.2229 C   0  0  0  0  0  0  0  0  0  0  0  0
   -4.6378   -0.9234    1.0406 C   0  0  0  0  0  0  0  0  0  0  0  0
   -3.5781   -0.8028    1.3220 H   0  0  0  0  0  0  0  0  0  0  0  0
   -5.5232   -1.5378    1.9362 C   0  0  0  0  0  0  0  0  0  0  0  0
   -5.1563   -1.8766    2.9164 H   0  0  0  0  0  0  0  0  0  0  0  0
   -6.8700   -1.7218    1.5823 C   0  0  0  0  0  0  0  0  0  0  0  0
   -7.5620   -2.2014    2.2915 H   0  0  0  0  0  0  0  0  0  0  0  0
   -7.3388   -1.2990    0.3243 C   0  0  0  0  0  0  0  0  0  0  0  0
   -8.3946   -1.4474    0.0516 H   0  0  0  0  0  0  0  0  0  0  0  0
   -6.4611   -0.6910   -0.5774 C   0  0  0  0  0  0  0  0  0  0  0  0
   -6.7924   -0.3501   -1.5696 H   0  0  0  0  0  0  0  0  0  0  0  0
   -2.6446    1.8964   -0.2067 C   0  0  0  0  0  0  0  0  0  0  0  0
   -3.1340    2.9817   -0.9658 C   0  0  0  0  0  0  0  0  0  0  0  0
   -3.6364    2.7863   -1.9242 H   0  0  0  0  0  0  0  0  0  0  0  0
   -2.9363    4.2934   -0.5147 C   0  0  0  0  0  0  0  0  0  0  0  0
   -3.2938    5.1376   -1.1231 H   0  0  0  0  0  0  0  0  0  0  0  0
   -2.2816    4.5302    0.7051 C   0  0  0  0  0  0  0  0  0  0  0  0
   -2.1319    5.5622    1.0573 H   0  0  0  0  0  0  0  0  0  0  0  0
   -1.8305    3.4497    1.4812 C   0  0  0  0  0  0  0  0  0  0  0  0
   -1.3372    3.6288    2.4487 H   0  0  0  0  0  0  0  0  0  0  0  0
   -2.0065    2.1345    1.0320 C   0  0  0  0  0  0  0  0  0  0  0  0
   -1.6761    1.2805    1.6433 H   0  0  0  0  0  0  0  0  0  0  0  0
  1 11  2  0  0  0  0
  2  3  1  0  0  0  0
  3 11  1  1  0  0  0
  3 23  1  0  0  0  0
  4  5  1  0  0  0  0
  4  2  1  0  0  0  0
  4  6  1  0  0  0  0
  7  4  1  0  0  0  0
  8  7  1  0  0  0  0
  9  7  1  0  0  0  0
 10  7  1  0  0  0  0
 11 12  1  0  0  0  0
 12 13  1  0  0  0  0
 13 14  1  0  0  0  0
 13 15  2  0  0  0  0
 15 16  1  0  0  0  0
 17 15  1  0  0  0  0
 17 18  1  0  0  0  0
 19 17  2  0  0  0  0
 20 19  1  0  0  0  0
 21 12  2  0  0  0  0
 21 19  1  0  0  0  0
 22 21  1  0  0  0  0
 23 32  1  0  0  0  0
 24 26  1  0  0  0  0
 24 23  2  0  0  0  0
 25 24  1  0  0  0  0
 26 28  2  0  0  0  0
 27 26  1  0  0  0  0
 28 29  1  0  0  0  0
 28 30  1  0  0  0  0
 30 31  1  0  0  0  0
 32 30  2  0  0  0  0
 32 33  1  0  0  0  0
M  END
