2
q = -1.0, confidence = 0.024

 39 41  0  0  0  0  0  0  0  0999 V2000
   -1.2962    2.6402   -0.7492 N   0  0  0  0  0  0  0  0  0  0  0  0
    1.0594   -1.8538   -1.1726 N   0  0  0  0  0  0  0  0  0  0  0  0
   -0.9993   -0.4985   -0.0417 N   0  0  0  0  0  0  0  0  0  0  0  0
   -0.1984   -2.4145   -1.3004 C   0  0  0  0  0  3  0  0  0  0  0  0
   -0.2121   -3.3021   -2.3803 C   0  0  0  0  0  0  0  0  0  0  0  0
   -1.0661   -3.8977   -2.7255 H   0  0  0  0  0  0  0  0  0  0  0  0
    1.1082   -3.2868   -2.9258 C   0  0  0  0  0  0  0  0  0  0  0  0
    1.4706   -3.8616   -3.7868 H   0  0  0  0  0  0  0  0  0  0  0  0
    1.8553   -2.3852   -2.1599 C   0  0  0  0  0  0  0  0  0  0  0  0
    2.9050   -2.0841   -2.2707 H   0  0  0  0  0  0  0  0  0  0  0  0
   -1.2235   -1.9637   -0.3173 C   0  0  0  0  0  0  0  0  0  0  0  0
   -1.1262   -2.4755    0.6661 H   0  0  0  0  0  0  0  0  0  0  0  0
   -2.2572   -2.1434   -0.6873 H   0  0  0  0  0  0  0  0  0  0  0  0
   -1.3148    0.2558   -1.2955 C   0  0  0  0  0  0  0  0  0  0  0  0
   -0.9466   -0.3734   -2.1272 H   0  0  0  0  0  0  0  0  0  0  0  0
   -2.4173    0.3483   -1.3965 H   0  0  0  0  0  0  0  0  0  0  0  0
   -0.6840    1.6226   -1.3883 C   0  0  0  0  0  0  0  0  0  0  0  0
    0.4868    1.8085   -2.1547 C   0  0  0  0  0  0  0  0  0  0  0  0
    0.9541    0.9445   -2.6502 H   0  0  0  0  0  0  0  0  0  0  0  0
    1.0205    3.0976   -2.2737 C   0  0  0  0  0  0  0  0  0  0  0  0
    1.9240    3.2744   -2.8769 H   0  0  0  0  0  0  0  0  0  0  0  0
    0.3845    4.1555   -1.6054 C   0  0  0  0  0  0  0  0  0  0  0  0
    0.7675    5.1848   -1.6667 H   0  0  0  0  0  0  0  0  0  0  0  0
   -0.7633    3.8699   -0.8511 C   0  0  0  0  0  0  0  0  0  0  0  0
   -1.2882    4.6755   -0.3078 H   0  0  0  0  0  0  0  0  0  0  0  0
   -1.8006   -0.0203    1.1275 C   0  0  0  0  0  0  0  0  0  0  0  0
   -1.5135    1.0332    1.3031 H   0  0  0  0  0  0  0  0  0  0  0  0
   -1.4660   -0.6209    1.9955 H   0  0  0  0  0  0  0  0  0  0  0  0
   -3.3054   -0.1185    0.9861 C   0  0  0  0  0  0  0  0  0  0  0  0
   -4.0463    0.9672    0.4710 C   0  0  0  0  0  0  0  0  0  0  0  0
   -3.5055    1.8819    0.1775 H   0  0  0  0  0  0  0  0  0  0  0  0
   -5.4389    0.8748    0.3268 C   0  0  0  0  0  0  0  0  0  0  0  0
   -6.0040    1.7294   -0.0761 H   0  0  0  0  0  0  0  0  0  0  0  0
   -6.1118   -0.3000    0.6981 C   0  0  0  0  0  0  0  0  0  0  0  0
   -7.2045   -0.3712    0.5860 H   0  0  0  0  0  0  0  0  0  0  0  0
   -5.3861   -1.3820    1.2215 C   0  0  0  0  0  0  0  0  0  0  0  0
   -5.9084   -2.3020    1.5252 H   0  0  0  0  0  0  0  0  0  0  0  0
   -3.9937   -1.2893    1.3652 C   0  0  0  0  0  0  0  0  0  0  0  0
   -3.4314   -2.1361    1.7897 H   0  0  0  0  0  0  0  0  0  0  0  0
  3 26  1  0  0  0  0
  4  2  1  0  0  0  0
  4 11  1  0  0  0  0
  5  4  1  0  0  0  0
  6  5  1  0  0  0  0
  7  5  2  0  0  0  0
  7  9  1  0  0  0  0
  8  7  1  0  0  0  0
  9  2  2  0  0  0  0
 10  9  1  0  0  0  0
 11  3  1  0  0  0  0
 11 12  1  0  0  0  0
 13 11  1  0  0  0  0
 14  3  1  0  0  0  0
 15 14  1  0  0  0  0
 16 14  1  0  0  0  0
 17 14  1  0  0  0  0
 17  1  2  0  0  0  0
 18 17  1  0  0  0  0
 19 18  1  0  0  0  0
 20 18  2  0  0  0  0
 20 22  1  0  0  0  0
 21 20  1  0  0  0  0
 22 24  2  0  0  0  0
 23 22  1  0  0  0  0
 24  1  1  0  0  0  0
 24 25  1  0  0  0  0
 26 27  1  0  0  0  0
 26 28  1  0  0  0  0
 29 26  1  0  0  0  0
 29 38  1  0  0  0  0
 30 29  2  0  0  0  0
 31 30  1  0  0  0  0
 32 30  1  0  0  0  0
 32 34  2  0  0  0  0
 33 32  1  0  0  0  0
 34 36  1  0  0  0  0
 35 34  1  0  0  0  0
 36 38  2  0  0  0  0
 36 37  1  0  0  0  0
 38 39  1  0  0  0  0
M  END
