1
q = 0.0, confidence = 1.0

 33 34  0  0  0  0  0  0  0  0999 V2000
   -1.6953   -0.9078   -0.6467 N   0  0  0  0  0  2  0  0  0  0  0  0
   -4.0646   -1.0577   -0.5701 N   0  0  0  0  0  0  0  0  0  0  0  0
   -1.6052   -2.0023   -1.6146 C   0  0  0  0  0  0  0  0  0  0  0  0
   -1.3472   -2.9344   -1.0669 H   0  0  0  0  0  0  0  0  0  0  0  0
   -0.7455   -1.7957   -2.2814 H   0  0  0  0  0  0  0  0  0  0  0  0
   -2.8965   -2.1481   -2.4206 C   0  0  0  0  0  0  0  0  0  0  0  0
   -2.8560   -3.0634   -3.0435 H   0  0  0  0  0  0  0  0  0  0  0  0
   -3.0066   -1.2827   -3.1075 H   0  0  0  0  0  0  0  0  0  0  0  0
   -4.1028   -2.2053   -1.4834 C   0  0  0  0  0  0  0  0  0  0  0  0
   -5.0573   -2.1644   -2.0447 H   0  0  0  0  0  0  0  0  0  0  0  0
   -4.0974   -3.1564   -0.9051 H   0  0  0  0  0  0  0  0  0  0  0  0
   -2.8653   -0.5079   -0.2308 C   0  0  0  0  0  3  0  0  0  0  0  0
   -2.9093    0.3567    0.4499 H   0  0  0  0  0  0  0  0  0  0  0  0
   -5.2794   -0.4224   -0.1447 C   0  0  0  0  0  0  0  0  0  0  0  0
   -6.0952   -1.0613    0.8170 C   0  0  0  0  0  0  0  0  0  0  0  0
   -7.2852   -0.4217    1.2110 C   0  0  0  0  0  0  0  0  0  0  0  0
   -7.9249   -0.9100    1.9640 H   0  0  0  0  0  0  0  0  0  0  0  0
   -7.6690    0.8240    0.6852 C   0  0  0  0  0  0  0  0  0  0  0  0
   -6.8306    1.4302   -0.2701 C   0  0  0  0  0  0  0  0  0  0  0  0
   -7.1190    2.4027   -0.7011 H   0  0  0  0  0  0  0  0  0  0  0  0
   -5.6369    0.8303   -0.7061 C   0  0  0  0  0  0  0  0  0  0  0  0
   -5.6987   -2.3874    1.4141 C   0  0  0  0  0  0  0  0  0  0  0  0
   -5.9291   -3.2313    0.7289 H   0  0  0  0  0  0  0  0  0  0  0  0
   -6.2421   -2.5768    2.3593 H   0  0  0  0  0  0  0  0  0  0  0  0
   -4.6105   -2.4297    1.6211 H   0  0  0  0  0  0  0  0  0  0  0  0
   -8.9321    1.5101    1.1419 C   0  0  0  0  0  0  0  0  0  0  0  0
   -8.6997    2.3840    1.7871 H   0  0  0  0  0  0  0  0  0  0  0  0
   -9.5815    0.8287    1.7248 H   0  0  0  0  0  0  0  0  0  0  0  0
   -9.5186    1.8942    0.2825 H   0  0  0  0  0  0  0  0  0  0  0  0
   -4.7729    1.4938   -1.7480 C   0  0  0  0  0  0  0  0  0  0  0  0
   -3.7999    1.8433   -1.3380 H   0  0  0  0  0  0  0  0  0  0  0  0
   -5.2882    2.3690   -2.1866 H   0  0  0  0  0  0  0  0  0  0  0  0
   -4.5215    0.7934   -2.5708 H   0  0  0  0  0  0  0  0  0  0  0  0
  1 12  1  0  0  0  0
  2 12  1  0  0  0  0
  2 14  1  0  0  0  0
  3  4  1  0  0  0  0
  3  1  1  0  0  0  0
  5  3  1  0  0  0  0
  6  3  1  0  0  0  0
  6  9  1  0  0  0  0
  7  6  1  0  0  0  0
  8  6  1  0  0  0  0
  9 11  1  0  0  0  0
  9  2  1  0  0  0  0
 10  9  1  0  0  0  0
 12 13  1  0  0  0  0
 14 15  1  0  0  0  0
 15 16  2  0  0  0  0
 15 22  1  0  0  0  0
 16 17  1  0  0  0  0
 18 26  1  0  0  0  0
 18 16  1  0  0  0  0
 19 18  2  0  0  0  0
 20 19  1  0  0  0  0
 21 19  1  0  0  0  0
 21 14  2  0  0  0  0
 22 25  1  0  0  0  0
 22 24  1  0  0  0  0
 23 22  1  0  0  0  0
 26 28  1  0  0  0  0
 26 27  1  0  0  0  0
 29 26  1  0  0  0  0
 30 31  1  0  0  0  0
 30 21  1  0  0  0  0
 32 30  1  0  0  0  0
 33 30  1  0  0  0  0
M  END
