2
q = 0.0, confidence = 0.996

 34 35  0  0  0  0  0  0  0  0999 V2000
   -0.5421   -1.5472    0.1487 S   0  0  0  0  0  0  0  0  0  0  0  0
    0.1869    1.4301    0.5137 N   0  0  0  0  0  2  0  0  0  0  0  0
    0.8857    2.2610    1.3287 C   0  0  0  0  0  3  0  0  0  0  0  0
    0.3066    3.3564    1.9711 C   0  0  0  0  0  0  0  0  0  0  0  0
   -1.0595    3.5991    1.7848 C   0  0  0  0  0  0  0  0  0  0  0  0
   -1.7792    2.7416    0.9493 C   0  0  0  0  0  0  0  0  0  0  0  0
   -1.1426    1.6601    0.3016 C   0  0  0  0  0  0  0  0  0  0  0  0
   -1.9511    0.7977   -0.6005 C   0  0  0  0  0  0  0  0  0  0  0  0
   -2.9348    1.4169   -1.4063 C   0  0  0  0  0  0  0  0  0  0  0  0
   -3.7753    0.6745   -2.2464 C   0  0  0  0  0  0  0  0  0  0  0  0
   -3.6602   -0.7215   -2.2944 C   0  0  0  0  0  0  0  0  0  0  0  0
   -2.6868   -1.3604   -1.5128 C   0  0  0  0  0  0  0  0  0  0  0  0
   -1.8340   -0.6155   -0.6776 C   0  0  0  0  0  0  0  0  0  0  0  0
   -1.1537   -1.8191    1.9537 C   0  0  0  0  0  0  0  0  0  0  0  0
   -1.1134   -0.5453    2.7883 C   0  0  0  0  0  0  0  0  0  0  0  0
   -0.1875   -2.8884    2.4754 C   0  0  0  0  0  0  0  0  0  0  0  0
   -2.5745   -2.3676    1.8120 C   0  0  0  0  0  0  0  0  0  0  0  0
    1.9404    1.9956    1.4850 H   0  0  0  0  0  0  0  0  0  0  0  0
    0.9278    3.9923    2.6169 H   0  0  0  0  0  0  0  0  0  0  0  0
   -1.5620    4.4370    2.2899 H   0  0  0  0  0  0  0  0  0  0  0  0
   -2.8593    2.8803    0.8102 H   0  0  0  0  0  0  0  0  0  0  0  0
   -3.0239    2.5130   -1.3924 H   0  0  0  0  0  0  0  0  0  0  0  0
   -4.5191    1.1932   -2.8687 H   0  0  0  0  0  0  0  0  0  0  0  0
   -4.3177   -1.3156   -2.9459 H   0  0  0  0  0  0  0  0  0  0  0  0
   -2.5741   -2.4541   -1.5477 H   0  0  0  0  0  0  0  0  0  0  0  0
   -0.0902   -0.1288    2.8351 H   0  0  0  0  0  0  0  0  0  0  0  0
   -1.4280   -0.8016    3.8215 H   0  0  0  0  0  0  0  0  0  0  0  0
   -1.8197    0.2190    2.4118 H   0  0  0  0  0  0  0  0  0  0  0  0
    0.8506   -2.5076    2.5173 H   0  0  0  0  0  0  0  0  0  0  0  0
   -0.2187   -3.8047    1.8533 H   0  0  0  0  0  0  0  0  0  0  0  0
   -0.4980   -3.1656    3.5038 H   0  0  0  0  0  0  0  0  0  0  0  0
   -3.2811   -1.6114    1.4179 H   0  0  0  0  0  0  0  0  0  0  0  0
   -2.9279   -2.6645    2.8212 H   0  0  0  0  0  0  0  0  0  0  0  0
   -2.6131   -3.2680    1.1669 H   0  0  0  0  0  0  0  0  0  0  0  0
  1 14  1  0  0  0  0
  2  3  1  0  0  0  0
  3 18  1  0  0  0  0
  3  4  1  0  0  0  0
  4 19  1  0  0  0  0
  5  4  2  0  0  0  0
  5 20  1  0  0  0  0
  6  5  1  0  0  0  0
  7  2  1  0  0  0  0
  7  6  2  0  0  0  0
  8  7  1  0  0  0  0
  9 22  1  0  0  0  0
  9  8  2  0  0  0  0
 10  9  1  0  0  0  0
 11 10  2  0  0  0  0
 11 12  1  0  0  0  0
 12 13  2  0  0  0  0
 13  8  1  0  0  0  0
 13  1  1  0  0  0  0
 14 16  1  0  0  0  0
 14 15  1  0  0  0  0
 15 26  1  0  0  0  0
 15 27  1  0  0  0  0
 16 29  1  0  0  0  0
 16 31  1  0  0  0  0
 17 14  1  0  0  0  0
 17 33  1  0  0  0  0
 21  6  1  0  0  0  0
 23 10  1  0  0  0  0
 24 11  1  0  0  0  0
 25 12  1  0  0  0  0
 28 15  1  0  0  0  0
 30 16  1  0  0  0  0
 32 17  1  0  0  0  0
 34 17  1  0  0  0  0
M  END
