5
q = 0.0, confidence = 1.0

 14 15  0  0  0  0  0  0  0  0999 V2000
    3.9870    1.8936    0.2494 N   0  0  0  0  0  0  0  0  0  0  0  0
    4.2782    2.8675    0.3846 H   0  0  0  0  0  0  0  0  0  0  0  0
    2.6943    1.6488   -0.0496 C   0  0  0  0  0  3  0  0  0  0  0  0
    2.0010    2.4965   -0.1604 H   0  0  0  0  0  0  0  0  0  0  0  0
    2.2121    0.4241   -0.2388 N   0  0  0  0  0  2  0  0  0  0  0  0
    3.1571   -0.5707   -0.1023 C   0  0  0  0  0  0  0  0  0  0  0  0
    4.5255   -0.3984    0.2005 C   0  0  0  0  0  0  0  0  0  0  0  0
    5.0638    0.9330    0.4116 C   0  0  0  0  0  0  0  0  0  0  0  0
    6.1862    1.3207    0.6792 O   0  0  0  0  0  0  0  0  0  0  0  0
    5.1585   -1.6154    0.2465 N   0  0  0  0  0  0  0  0  0  0  0  0
    4.2095   -2.4980   -0.0160 C   0  0  0  0  0  0  0  0  0  0  0  0
    4.3460   -3.5863   -0.0611 H   0  0  0  0  0  0  0  0  0  0  0  0
    2.9785   -1.9179   -0.2411 N   0  0  0  0  0  0  0  0  0  0  0  0
    2.0404   -2.3298   -0.4100 H   0  0  0  0  0  0  0  0  0  0  0  0
  1  2  1  0  0  0  0
  1  8  1  0  0  0  0
  3  1  1  0  0  0  0
  4  3  1  0  0  0  0
  5  6  1  0  0  0  0
  5  3  1  0  0  0  0
  6  7  2  0  0  0  0
  7 10  1  0  0  0  0
  7  8  1  0  0  0  0
  8  9  2  0  0  0  0
 11 10  2  0  0  0  0
 12 11  1  0  0  0  0
 13  6  1  0  0  0  0
 13 11  1  0  0  0  0
 14 13  1  0  0  0  0
M  END
