35
q = 0.0, confidence = 0.986

 77 85  0  0  0  0  0  0  0  0999 V2000
    1.3934    1.4062    0.0246 N   0  0  0  0  0  0  0  0  0  0  0  0
    4.3594    1.5308    0.0458 N   0  0  0  0  0  0  0  0  0  0  0  0
    3.6581    0.7776    0.0442 H   0  0  0  0  0  0  0  0  0  0  0  0
    4.3685   -1.3982   -0.0290 N   0  0  0  0  0  0  0  0  0  0  0  0
    1.3985   -1.5241   -0.0759 N   0  0  0  0  0  0  0  0  0  0  0  0
    2.0952   -0.7705   -0.1442 H   0  0  0  0  0  0  0  0  0  0  0  0
    0.0416    1.1996   -0.0695 C   0  0  0  0  0  0  0  0  0  0  0  0
   -0.6765    2.4629   -0.2581 C   0  0  0  0  0  0  0  0  0  0  0  0
   -1.7550    2.5751   -0.4116 H   0  0  0  0  0  0  0  0  0  0  0  0
    0.2746    3.4444   -0.2492 C   0  0  0  0  0  0  0  0  0  0  0  0
    0.1280    4.5207   -0.3874 H   0  0  0  0  0  0  0  0  0  0  0  0
    1.5590    2.7677   -0.0614 C   0  0  0  0  0  0  0  0  0  0  0  0
    2.7907    3.4701   -0.0119 C   0  0  0  0  0  0  0  0  0  0  0  0
    4.0745    2.8814    0.0448 C   0  0  0  0  0  0  0  0  0  0  0  0
    5.3371    3.5713    0.0871 C   0  0  0  0  0  0  0  0  0  0  0  0
    5.4474    4.6596    0.1115 H   0  0  0  0  0  0  0  0  0  0  0  0
    6.3420    2.6223    0.0807 C   0  0  0  0  0  0  0  0  0  0  0  0
    7.4226    2.7940    0.0837 H   0  0  0  0  0  0  0  0  0  0  0  0
    5.7224    1.3227    0.0585 C   0  0  0  0  0  0  0  0  0  0  0  0
    6.3764    0.0706    0.0112 C   0  0  0  0  0  0  0  0  0  0  0  0
    5.7235   -1.1901   -0.0409 C   0  0  0  0  0  0  0  0  0  0  0  0
    6.4520   -2.4602   -0.0697 C   0  0  0  0  0  0  0  0  0  0  0  0
    7.5408   -2.5771   -0.0722 H   0  0  0  0  0  0  0  0  0  0  0  0
    5.5020   -3.4439   -0.0838 C   0  0  0  0  0  0  0  0  0  0  0  0
    5.6567   -4.5273   -0.1214 H   0  0  0  0  0  0  0  0  0  0  0  0
    4.2069   -2.7620   -0.0399 C   0  0  0  0  0  0  0  0  0  0  0  0
    2.9735   -3.4617   -0.0053 C   0  0  0  0  0  0  0  0  0  0  0  0
    1.6888   -2.8700    0.0144 C   0  0  0  0  0  0  0  0  0  0  0  0
    0.4341   -3.5556    0.1771 C   0  0  0  0  0  0  0  0  0  0  0  0
    0.3301   -4.6372    0.3053 H   0  0  0  0  0  0  0  0  0  0  0  0
   -0.5722   -2.6085    0.1798 C   0  0  0  0  0  0  0  0  0  0  0  0
   -1.6447   -2.7765    0.3152 H   0  0  0  0  0  0  0  0  0  0  0  0
    0.0383   -1.3159    0.0114 C   0  0  0  0  0  0  0  0  0  0  0  0
   -0.6194   -0.0614   -0.0267 C   0  0  0  0  0  0  0  0  0  0  0  0
   -4.9241   -0.1117    0.0161 N   0  0  0  0  0  2  0  0  0  0  0  0
   -4.2403   -0.7849   -0.9379 C   0  0  0  0  0  3  0  0  0  0  0  0
   -4.8590   -1.2583   -1.7167 H   0  0  0  0  0  0  0  0  0  0  0  0
   -2.8458   -0.8013   -0.9762 C   0  0  0  0  0  0  0  0  0  0  0  0
   -2.3343   -1.3416   -1.7854 H   0  0  0  0  0  0  0  0  0  0  0  0
   -2.1030   -0.0818   -0.0127 C   0  0  0  0  0  0  0  0  0  0  0  0
   -2.8437    0.6221    0.9641 C   0  0  0  0  0  0  0  0  0  0  0  0
   -2.3261    1.1847    1.7538 H   0  0  0  0  0  0  0  0  0  0  0  0
   -4.2381    0.5854    0.9532 C   0  0  0  0  0  0  0  0  0  0  0  0
   -4.8592    1.0883    1.7091 H   0  0  0  0  0  0  0  0  0  0  0  0
    2.7431    4.9640   -0.0341 C   0  0  0  0  0  0  0  0  0  0  0  0
    2.1472    5.6780    1.0284 C   0  0  0  0  0  0  0  0  0  0  0  0
    1.7245    5.1174    1.8755 H   0  0  0  0  0  0  0  0  0  0  0  0
    2.0945    7.0793    1.0099 C   0  0  0  0  0  0  0  0  0  0  0  0
    1.6264    7.6181    1.8480 H   0  0  0  0  0  0  0  0  0  0  0  0
    2.6363    7.7925   -0.0714 C   0  0  0  0  0  0  0  0  0  0  0  0
    2.5916    8.8922   -0.0873 H   0  0  0  0  0  0  0  0  0  0  0  0
    3.2301    7.0942   -1.1348 C   0  0  0  0  0  0  0  0  0  0  0  0
    3.6476    7.6445   -1.9921 H   0  0  0  0  0  0  0  0  0  0  0  0
    3.2833    5.6927   -1.1162 C   0  0  0  0  0  0  0  0  0  0  0  0
    3.7347    5.1437   -1.9563 H   0  0  0  0  0  0  0  0  0  0  0  0
    7.8704    0.0983    0.0075 C   0  0  0  0  0  0  0  0  0  0  0  0
    8.5986   -0.3383   -1.1210 C   0  0  0  0  0  0  0  0  0  0  0  0
    8.0472   -0.6965   -2.0033 H   0  0  0  0  0  0  0  0  0  0  0  0
   10.0009   -0.3103   -1.1261 C   0  0  0  0  0  0  0  0  0  0  0  0
   10.5498   -0.6518   -2.0173 H   0  0  0  0  0  0  0  0  0  0  0  0
   10.7027    0.1581   -0.0037 C   0  0  0  0  0  0  0  0  0  0  0  0
   11.8033    0.1808   -0.0079 H   0  0  0  0  0  0  0  0  0  0  0  0
    9.9910    0.5973    1.1241 C   0  0  0  0  0  0  0  0  0  0  0  0
   10.5321    0.9606    2.0114 H   0  0  0  0  0  0  0  0  0  0  0  0
    8.5886    0.5669    1.1295 C   0  0  0  0  0  0  0  0  0  0  0  0
    8.0301    0.9002    2.0173 H   0  0  0  0  0  0  0  0  0  0  0  0
    3.0087   -4.9553    0.0398 C   0  0  0  0  0  0  0  0  0  0  0  0
    3.5700   -5.6327    1.1444 C   0  0  0  0  0  0  0  0  0  0  0  0
    3.9794   -5.0430    1.9782 H   0  0  0  0  0  0  0  0  0  0  0  0
    3.5963   -7.0343    1.1883 C   0  0  0  0  0  0  0  0  0  0  0  0
    4.0323   -7.5443    2.0612 H   0  0  0  0  0  0  0  0  0  0  0  0
    3.0606   -7.7847    0.1294 C   0  0  0  0  0  0  0  0  0  0  0  0
    3.0797   -8.8848    0.1648 H   0  0  0  0  0  0  0  0  0  0  0  0
    2.4972   -7.1233   -0.9734 C   0  0  0  0  0  0  0  0  0  0  0  0
    2.0771   -7.7029   -1.8098 H   0  0  0  0  0  0  0  0  0  0  0  0
    2.4705   -5.7216   -1.0171 C   0  0  0  0  0  0  0  0  0  0  0  0
    2.0347   -5.2021   -1.8838 H   0  0  0  0  0  0  0  0  0  0  0  0
  2 19  1  0  0  0  0
  3  2  1  0  0  0  0
  5 33  1  0  0  0  0
  5 28  1  0  0  0  0
  6  5  1  0  0  0  0
  7 34  2  0  0  0  0
  7  1  1  0  0  0  0
  8 10  2  0  0  0  0
  8  7  1  0  0  0  0
  9  8  1  0  0  0  0
 10 12  1  0  0  0  0
 11 10  1  0  0  0  0
 12 13  1  0  0  0  0
 12  1  2  0  0  0  0
 13 14  2  0  0  0  0
 14  2  1  0  0  0  0
 14 15  1  0  0  0  0
 15 16  1  0  0  0  0
 17 18  1  0  0  0  0
 17 15  2  0  0  0  0
 19 17  1  0  0  0  0
 20 19  2  0  0  0  0
 21  4  2  0  0  0  0
 21 20  1  0  0  0  0
 22 21  1  0  0  0  0
 23 22  1  0  0  0  0
 24 22  2  0  0  0  0
 24 26  1  0  0  0  0
 25 24  1  0  0  0  0
 26  4  1  0  0  0  0
 26 27  2  0  0  0  0
 27 28  1  0  0  0  0
 27 67  1  0  0  0  0
 28 29  2  0  0  0  0
 29 31  1  0  0  0  0
 29 30  1  0  0  0  0
 31 32  1  0  0  0  0
 33 31  2  0  0  0  0
 34 40  1  0  0  0  0
 34 33  1  0  0  0  0
 35 43  1  0  0  0  0
 36 35  1  0  0  0  0
 37 36  1  0  0  0  0
 38 36  1  0  0  0  0
 38 40  2  0  0  0  0
 39 38  1  0  0  0  0
 40 41  1  0  0  0  0
 41 42  1  0  0  0  0
 43 41  2  0  0  0  0
 43 44  1  0  0  0  0
 45 13  1  0  0  0  0
 45 46  1  0  0  0  0
 46 47  1  0  0  0  0
 48 46  2  0  0  0  0
 48 49  1  0  0  0  0
 50 48  1  0  0  0  0
 51 50  1  0  0  0  0
 52 54  1  0  0  0  0
 52 50  2  0  0  0  0
 53 52  1  0  0  0  0
 54 45  2  0  0  0  0
 55 54  1  0  0  0  0
 56 20  1  0  0  0  0
 56 65  1  0  0  0  0
 57 56  2  0  0  0  0
 58 57  1  0  0  0  0
 59 57  1  0  0  0  0
 59 61  2  0  0  0  0
 60 59  1  0  0  0  0
 61 63  1  0  0  0  0
 62 61  1  0  0  0  0
 63 65  2  0  0  0  0
 63 64  1  0  0  0  0
 65 66  1  0  0  0  0
 67 68  1  0  0  0  0
 68 70  2  0  0  0  0
 68 69  1  0  0  0  0
 70 71  1  0  0  0  0
 72 73  1  0  0  0  0
 72 70  1  0  0  0  0
 74 72  2  0  0  0  0
 75 74  1  0  0  0  0
 76 74  1  0  0  0  0
 76 67  2  0  0  0  0
 77 76  1  0  0  0  0
M  END
