4
q = 0.0, confidence = 0.992

 27 29  0  0  1  0  0  0  0  0999 V2000
    0.6983    0.8128    3.0192 N   0  0  0  0  0  0  0  0  0  0  0  0
    0.6495    1.5284    3.7479 H   0  0  0  0  0  0  0  0  0  0  0  0
    1.3604   -0.3400    3.2332 N   0  0  0  0  0  0  0  0  0  0  0  0
    0.3654   -0.3284    1.2057 N   0  0  0  0  0  2  0  0  0  0  0  0
    1.2459   -2.9423    0.6995 N   0  0  0  0  0  0  0  0  0  0  0  0
   -4.5258    2.5397   -0.2396 Br  0  0  0  0  0  0  0  0  0  0  0  0
   -0.1094    6.0497    0.6105 Br  0  0  0  0  0  0  0  0  0  0  0  0
    1.1498   -1.0217    2.1070 C   0  0  0  0  0  0  0  0  0  0  0  0
    0.0909    0.8417    1.8025 C   0  0  2  0  0  3  0  0  0  0  0  0
    1.7503   -2.3244    1.7848 C   0  0  0  0  0  0  0  0  0  0  0  0
    2.8282   -2.8301    2.5352 C   0  0  0  0  0  0  0  0  0  0  0  0
    3.1896   -2.2788    3.4143 H   0  0  0  0  0  0  0  0  0  0  0  0
    3.4391   -4.0106    2.0963 C   0  0  0  0  0  0  0  0  0  0  0  0
    4.3105   -4.4183    2.6299 H   0  0  0  0  0  0  0  0  0  0  0  0
    2.9422   -4.6416    0.9452 C   0  0  0  0  0  0  0  0  0  0  0  0
    3.4033   -5.5615    0.5567 H   0  0  0  0  0  0  0  0  0  0  0  0
    1.8348   -4.0734    0.2938 C   0  0  0  0  0  0  0  0  0  0  0  0
    1.4040   -4.5512   -0.6037 H   0  0  0  0  0  0  0  0  0  0  0  0
   -0.6963    1.9760    1.2986 C   0  0  0  0  0  0  0  0  0  0  0  0
   -2.0179    1.7547    0.8670 C   0  0  0  0  0  0  0  0  0  0  0  0
   -2.4282    0.7295    0.8761 H   0  0  0  0  0  0  0  0  0  0  0  0
   -2.7587    2.8418    0.3903 C   0  0  0  0  0  0  0  0  0  0  0  0
   -2.2166    4.1363    0.3306 C   0  0  0  0  0  0  0  0  0  0  0  0
   -2.8054    4.9768   -0.0597 H   0  0  0  0  0  0  0  0  0  0  0  0
   -0.8916    4.3248    0.7553 C   0  0  0  0  0  0  0  0  0  0  0  0
   -0.1206    3.2624    1.2491 C   0  0  0  0  0  0  0  0  0  0  0  0
    0.9257    3.4258    1.5418 H   0  0  0  0  0  0  0  0  0  0  0  0
  1  3  1  0  0  0  0
  1  2  1  0  0  0  0
  4  9  1  0  0  0  0
  4  8  1  0  0  0  0
  5 10  1  0  0  0  0
  6 22  1  0  0  0  0
  7 25  1  0  0  0  0
  8  3  2  0  0  0  0
  9 19  1  6  0  0  0
  9  1  1  0  0  0  0
 10  8  1  0  0  0  0
 10 11  2  0  0  0  0
 11 12  1  0  0  0  0
 13 11  1  0  0  0  0
 13 14  1  0  0  0  0
 15 13  2  0  0  0  0
 16 15  1  0  0  0  0
 17  5  2  0  0  0  0
 17 15  1  0  0  0  0
 18 17  1  0  0  0  0
 20 21  1  0  0  0  0
 20 19  2  0  0  0  0
 22 20  1  0  0  0  0
 23 22  2  0  0  0  0
 23 25  1  0  0  0  0
 24 23  1  0  0  0  0
 25 26  2  0  0  0  0
 26 19  1  0  0  0  0
 26 27  1  0  0  0  0
M  END
