1
q = 0.0, confidence = 0.994

 26 27  0  0  0  0  0  0  0  0999 V2000
   -0.1912    0.5768   -1.2957 N   0  0  0  0  0  0  0  0  0  0  0  0
   -0.3221   -0.7274    1.2663 N   0  0  0  0  0  0  0  0  0  0  0  0
   -2.2106    1.0632    0.0296 C   0  0  0  0  0  0  0  0  0  0  0  0
   -1.0919    1.5323   -0.7032 C   0  0  0  0  0  0  0  0  0  0  0  0
   -0.8521    2.9082   -0.8478 C   0  0  0  0  0  0  0  0  0  0  0  0
   -1.7208    3.8371   -0.2584 C   0  0  0  0  0  0  0  0  0  0  0  0
   -2.8343    3.3911    0.4706 C   0  0  0  0  0  0  0  0  0  0  0  0
   -3.0761    2.0166    0.6048 C   0  0  0  0  0  0  0  0  0  0  0  0
   -2.4842   -0.3968    0.1287 C   0  0  0  0  0  0  0  0  0  0  0  0
   -1.5421   -1.2760    0.7115 C   0  0  0  0  0  0  0  0  0  0  0  0
   -1.7788   -2.6566    0.7702 C   0  0  0  0  0  0  0  0  0  0  0  0
   -2.9767   -3.1786    0.2649 C   0  0  0  0  0  0  0  0  0  0  0  0
   -3.9355   -2.3209   -0.2958 C   0  0  0  0  0  0  0  0  0  0  0  0
   -3.6885   -0.9428   -0.3621 C   0  0  0  0  0  0  0  0  0  0  0  0
    0.2506    0.9565   -2.1434 H   0  0  0  0  0  0  0  0  0  0  0  0
   -0.6618   -0.3066   -1.5740 H   0  0  0  0  0  0  0  0  0  0  0  0
    0.0734   -1.3978    1.9384 H   0  0  0  0  0  0  0  0  0  0  0  0
   -0.5463    0.1351    1.7866 H   0  0  0  0  0  0  0  0  0  0  0  0
    0.0038    3.2568   -1.4469 H   0  0  0  0  0  0  0  0  0  0  0  0
   -1.5327    4.9136   -0.3822 H   0  0  0  0  0  0  0  0  0  0  0  0
   -3.5220    4.1164    0.9289 H   0  0  0  0  0  0  0  0  0  0  0  0
   -3.9522    1.6606    1.1673 H   0  0  0  0  0  0  0  0  0  0  0  0
   -1.0245   -3.3231    1.2140 H   0  0  0  0  0  0  0  0  0  0  0  0
   -3.1595   -4.2618    0.3117 H   0  0  0  0  0  0  0  0  0  0  0  0
   -4.8786   -2.7273   -0.6889 H   0  0  0  0  0  0  0  0  0  0  0  0
   -4.4299   -0.2669   -0.8137 H   0  0  0  0  0  0  0  0  0  0  0  0
  1  4  1  0  0  0  0
  2 18  1  0  0  0  0
  2 17  1  0  0  0  0
  3  9  1  0  0  0  0
  3  8  1  0  0  0  0
  4  3  2  0  0  0  0
  5  4  1  0  0  0  0
  5  6  2  0  0  0  0
  6  7  1  0  0  0  0
  7  8  2  0  0  0  0
  7 21  1  0  0  0  0
  8 22  1  0  0  0  0
  9 10  1  0  0  0  0
 10 11  2  0  0  0  0
 10  2  1  0  0  0  0
 11 23  1  0  0  0  0
 12 24  1  0  0  0  0
 12 11  1  0  0  0  0
 13 12  2  0  0  0  0
 14 13  1  0  0  0  0
 14  9  2  0  0  0  0
 15  1  1  0  0  0  0
 16  1  1  0  0  0  0
 19  5  1  0  0  0  0
 20  6  1  0  0  0  0
 25 13  1  0  0  0  0
 26 14  1  0  0  0  0
M  END
