3
q = 0.0, confidence = 0.99

 11 11  0  0  1  0  0  0  0  0999 V2000
   -1.8387    2.6312   -0.0019 Cl  0  0  0  0  0  0  0  0  0  0  0  0
   -1.8384   -2.6311   -0.0048 Cl  0  0  0  0  0  0  0  0  0  0  0  0
   -2.0376    0.0001   -0.0022 N   0  0  0  0  0  2  0  0  0  0  0  0
   -2.7314   -1.1616   -0.0022 C   0  0  1  0  0  3  0  0  0  0  0  0
   -4.1325   -1.2082   -0.0003 C   0  0  0  0  0  0  0  0  0  0  0  0
   -4.8369   -0.0001    0.0014 C   0  0  0  0  0  0  0  0  0  0  0  0
   -4.1326    1.2080    0.0010 C   0  0  0  0  0  0  0  0  0  0  0  0
   -2.7315    1.1616   -0.0010 C   0  0  0  0  0  0  0  0  0  0  0  0
   -4.6373   -2.1820   -0.0003 H   0  0  0  0  0  0  0  0  0  0  0  0
   -5.9366   -0.0002    0.0031 H   0  0  0  0  0  0  0  0  0  0  0  0
   -4.6376    2.1818    0.0021 H   0  0  0  0  0  0  0  0  0  0  0  0
  1  8  1  0  0  0  0
  3  4  1  0  0  0  0
  3  8  1  0  0  0  0
  4  2  1  6  0  0  0
  4  5  1  0  0  0  0
  5  9  1  0  0  0  0
  5  6  2  0  0  0  0
  6 10  1  0  0  0  0
  7  6  1  0  0  0  0
  7 11  1  0  0  0  0
  8  7  2  0  0  0  0
M  END
