4
q = -1.0, confidence = 0.022

 19 19  0  0  0  0  0  0  0  0999 V2000
    0.4724   -1.0863   -2.1565 S   0  0  0  0  0  0  0  0  0  0  0  0
    0.6079   -2.1454   -1.0843 O   0  0  0  0  0  0  0  0  0  0  0  0
    0.4289   -1.5371   -3.5676 O   0  0  0  0  0  0  0  0  0  0  0  0
   -0.8087   -0.1603   -1.7972 N   0  0  0  0  0  2  0  0  0  0  0  0
    1.9785   -0.0985   -1.9686 C   0  0  0  0  0  0  0  0  0  0  0  0
    3.2114   -0.7737   -1.9148 C   0  0  0  0  0  0  0  0  0  0  0  0
    4.3874   -0.0402   -1.7385 C   0  0  0  0  0  0  0  0  0  0  0  0
    4.3609    1.3679   -1.6212 C   0  0  0  0  0  0  0  0  0  0  0  0
    3.1142    2.0179   -1.6885 C   0  0  0  0  0  0  0  0  0  0  0  0
    1.9227    1.2948   -1.8584 C   0  0  0  0  0  0  0  0  0  0  0  0
    5.6404    2.1377   -1.4167 C   0  0  0  0  0  0  0  0  0  0  0  0
   -1.0749    0.4348   -2.5891 H   0  0  0  0  0  0  0  0  0  0  0  0
    3.2366   -1.8709   -1.9848 H   0  0  0  0  0  0  0  0  0  0  0  0
    5.3498   -0.5712   -1.6668 H   0  0  0  0  0  0  0  0  0  0  0  0
    3.0673    3.1137   -1.5857 H   0  0  0  0  0  0  0  0  0  0  0  0
    0.9489    1.8067   -1.8652 H   0  0  0  0  0  0  0  0  0  0  0  0
    6.2064    1.7426   -0.5475 H   0  0  0  0  0  0  0  0  0  0  0  0
    5.4487    3.2145   -1.2446 H   0  0  0  0  0  0  0  0  0  0  0  0
    6.3076    2.0504   -2.2999 H   0  0  0  0  0  0  0  0  0  0  0  0
  1  5  1  0  0  0  0
  1  4  1  0  0  0  0
  1  2  2  0  0  0  0
  3  1  2  0  0  0  0
  5  6  2  0  0  0  0
  5 10  1  0  0  0  0
  6  7  1  0  0  0  0
  7 14  1  0  0  0  0
  7  8  2  0  0  0  0
  8 11  1  0  0  0  0
  9  8  1  0  0  0  0
  9 15  1  0  0  0  0
 10  9  2  0  0  0  0
 11 18  1  0  0  0  0
 11 17  1  0  0  0  0
 12  4  1  0  0  0  0
 13  6  1  0  0  0  0
 16 10  1  0  0  0  0
 19 11  1  0  0  0  0
M  END
