1
q = 0.0, confidence = 0.988

 59 61  0  0  0  0  0  0  0  0999 V2000
   -5.6017    1.4606   -0.0071 N   0  0  0  0  0  2  0  0  0  0  0  0
   -6.9043    1.8023    0.1065 C   0  0  0  0  0  3  0  0  0  0  0  0
   -7.6120    0.9629    0.1572 H   0  0  0  0  0  0  0  0  0  0  0  0
   -7.3195    3.1330    0.1705 C   0  0  0  0  0  0  0  0  0  0  0  0
   -8.3887    3.3649    0.2695 H   0  0  0  0  0  0  0  0  0  0  0  0
   -6.3457    4.1417    0.1116 C   0  0  0  0  0  0  0  0  0  0  0  0
   -6.6329    5.2026    0.1629 H   0  0  0  0  0  0  0  0  0  0  0  0
   -5.0042    3.7806   -0.0352 C   0  0  0  0  0  0  0  0  0  0  0  0
   -4.2168    4.5412   -0.1264 H   0  0  0  0  0  0  0  0  0  0  0  0
   -4.6375    2.4205   -0.1080 C   0  0  0  0  0  0  0  0  0  0  0  0
   -3.2304    2.0106   -0.3005 C   0  0  0  0  0  0  0  0  0  0  0  0
   -2.8868    1.0320   -1.2615 C   0  0  0  0  0  0  0  0  0  0  0  0
   -3.6610    0.6015   -1.9138 H   0  0  0  0  0  0  0  0  0  0  0  0
   -1.5573    0.6229   -1.3962 C   0  0  0  0  0  0  0  0  0  0  0  0
   -1.3018   -0.1516   -2.1358 H   0  0  0  0  0  0  0  0  0  0  0  0
   -0.5430    1.1765   -0.5841 C   0  0  0  0  0  0  0  0  0  0  0  0
   -0.8885    2.1739    0.3586 C   0  0  0  0  0  0  0  0  0  0  0  0
   -0.0877    2.5899    0.9869 H   0  0  0  0  0  0  0  0  0  0  0  0
   -2.2123    2.5879    0.4934 C   0  0  0  0  0  0  0  0  0  0  0  0
   -2.4801    3.3308    1.2598 H   0  0  0  0  0  0  0  0  0  0  0  0
    0.8401    0.7134   -0.7243 C   0  0  0  0  0  0  0  0  0  0  0  0
    1.0032   -0.0870   -1.4861 H   0  0  0  0  0  0  0  0  0  0  0  0
    1.8055    1.2089   -0.0239 N   0  0  0  0  0  0  0  0  0  0  0  0
    3.1074    0.7159   -0.1126 C   0  0  0  0  0  0  0  0  0  0  0  0
    4.1641    1.5952    0.2144 C   0  0  0  0  0  0  0  0  0  0  0  0
    3.9017    2.6199    0.5159 H   0  0  0  0  0  0  0  0  0  0  0  0
    5.5036    1.1954    0.1411 C   0  0  0  0  0  0  0  0  0  0  0  0
    6.2947    1.9157    0.3878 H   0  0  0  0  0  0  0  0  0  0  0  0
    5.8179   -0.1292   -0.2331 C   0  0  0  0  0  0  0  0  0  0  0  0
    4.7697   -1.0326   -0.5267 C   0  0  0  0  0  0  0  0  0  0  0  0
    5.0356   -2.0682   -0.7846 H   0  0  0  0  0  0  0  0  0  0  0  0
    3.4413   -0.6181   -0.4727 C   0  0  0  0  0  0  0  0  0  0  0  0
    2.6414   -1.3452   -0.6776 H   0  0  0  0  0  0  0  0  0  0  0  0
    7.0785   -0.6297   -0.3201 O   0  0  0  0  0  0  0  0  0  0  0  0
    8.1801    0.2204   -0.0186 C   0  0  0  0  0  0  0  0  0  0  0  0
    8.0958    0.6013    1.0269 H   0  0  0  0  0  0  0  0  0  0  0  0
    8.1742    1.1095   -0.6929 H   0  0  0  0  0  0  0  0  0  0  0  0
    9.4620   -0.5777   -0.1964 C   0  0  0  0  0  0  0  0  0  0  0  0
    9.4946   -0.9681   -1.2364 H   0  0  0  0  0  0  0  0  0  0  0  0
    9.4206   -1.4678    0.4677 H   0  0  0  0  0  0  0  0  0  0  0  0
   10.7179    0.2451    0.0991 C   0  0  0  0  0  0  0  0  0  0  0  0
   10.6671    0.6428    1.1381 H   0  0  0  0  0  0  0  0  0  0  0  0
   10.7410    1.1403   -0.5628 H   0  0  0  0  0  0  0  0  0  0  0  0
   12.0189   -0.5431   -0.0749 C   0  0  0  0  0  0  0  0  0  0  0  0
   11.9975   -1.4377    0.5876 H   0  0  0  0  0  0  0  0  0  0  0  0
   12.0697   -0.9426   -1.1129 H   0  0  0  0  0  0  0  0  0  0  0  0
   13.2795    0.2747    0.2165 C   0  0  0  0  0  0  0  0  0  0  0  0
   13.2266    0.6750    1.2545 H   0  0  0  0  0  0  0  0  0  0  0  0
   13.2987    1.1696   -0.4463 H   0  0  0  0  0  0  0  0  0  0  0  0
   14.5818   -0.5109    0.0432 C   0  0  0  0  0  0  0  0  0  0  0  0
   14.5630   -1.4057    0.7064 H   0  0  0  0  0  0  0  0  0  0  0  0
   14.6343   -0.9122   -0.9945 H   0  0  0  0  0  0  0  0  0  0  0  0
   15.8442    0.3067    0.3333 C   0  0  0  0  0  0  0  0  0  0  0  0
   15.7876    0.7074    1.3701 H   0  0  0  0  0  0  0  0  0  0  0  0
   15.8590    1.2002   -0.3301 H   0  0  0  0  0  0  0  0  0  0  0  0
   17.1392   -0.4870    0.1577 C   0  0  0  0  0  0  0  0  0  0  0  0
   17.1681   -1.3662    0.8350 H   0  0  0  0  0  0  0  0  0  0  0  0
   18.0340    0.1308    0.3744 H   0  0  0  0  0  0  0  0  0  0  0  0
   17.2402   -0.8692   -0.8798 H   0  0  0  0  0  0  0  0  0  0  0  0
  1  2  1  0  0  0  0
  2  3  1  0  0  0  0
  2  4  1  0  0  0  0
  4  5  1  0  0  0  0
  6  7  1  0  0  0  0
  6  4  2  0  0  0  0
  8  6  1  0  0  0  0
  9  8  1  0  0  0  0
 10  8  2  0  0  0  0
 10  1  1  0  0  0  0
 11 10  1  0  0  0  0
 11 19  1  0  0  0  0
 12 11  2  0  0  0  0
 13 12  1  0  0  0  0
 14 12  1  0  0  0  0
 14 16  2  0  0  0  0
 15 14  1  0  0  0  0
 16 17  1  0  0  0  0
 17 19  2  0  0  0  0
 17 18  1  0  0  0  0
 19 20  1  0  0  0  0
 21 16  1  0  0  0  0
 21 23  2  0  0  0  0
 22 21  1  0  0  0  0
 24 23  1  0  0  0  0
 24 25  1  0  0  0  0
 25 26  1  0  0  0  0
 27 25  2  0  0  0  0
 27 28  1  0  0  0  0
 29 27  1  0  0  0  0
 30 32  1  0  0  0  0
 30 29  2  0  0  0  0
 31 30  1  0  0  0  0
 32 24  2  0  0  0  0
 33 32  1  0  0  0  0
 34 29  1  0  0  0  0
 34 35  1  0  0  0  0
 35 36  1  0  0  0  0
 37 35  1  0  0  0  0
 38 35  1  0  0  0  0
 38 41  1  0  0  0  0
 38 40  1  0  0  0  0
 39 38  1  0  0  0  0
 41 42  1  0  0  0  0
 43 41  1  0  0  0  0
 44 41  1  0  0  0  0
 44 47  1  0  0  0  0
 44 45  1  0  0  0  0
 46 44  1  0  0  0  0
 47 48  1  0  0  0  0
 49 47  1  0  0  0  0
 50 47  1  0  0  0  0
 50 53  1  0  0  0  0
 50 51  1  0  0  0  0
 52 50  1  0  0  0  0
 53 54  1  0  0  0  0
 55 53  1  0  0  0  0
 56 53  1  0  0  0  0
 56 58  1  0  0  0  0
 56 57  1  0  0  0  0
 59 56  1  0  0  0  0
M  END
