1
q = 0.0, confidence = 1.0

 25 26  0  0  0  0  0  0  0  0999 V2000
   -1.5604    0.8842   -0.6181 N   0  0  0  0  0  2  0  0  0  0  0  0
   -2.7796    0.4612   -0.2469 C   0  0  0  0  0  3  0  0  0  0  0  0
   -2.8314   -0.3527    0.4881 H   0  0  0  0  0  0  0  0  0  0  0  0
   -3.9604    1.0502   -0.7498 C   0  0  0  0  0  0  0  0  0  0  0  0
   -3.8255    2.1058   -1.6803 C   0  0  0  0  0  0  0  0  0  0  0  0
   -4.7177    2.5585   -2.1377 H   0  0  0  0  0  0  0  0  0  0  0  0
   -2.5436    2.5399   -2.0378 C   0  0  0  0  0  0  0  0  0  0  0  0
   -2.4045    3.3574   -2.7594 H   0  0  0  0  0  0  0  0  0  0  0  0
   -1.4229    1.9113   -1.4878 C   0  0  0  0  0  0  0  0  0  0  0  0
   -0.3938    2.2116   -1.7278 H   0  0  0  0  0  0  0  0  0  0  0  0
   -5.1728    0.5088   -0.3364 N   0  0  0  0  0  0  0  0  0  0  0  0
   -6.2649    1.2193   -0.2322 C   0  0  0  0  0  0  0  0  0  0  0  0
   -6.2523    2.3228   -0.3845 H   0  0  0  0  0  0  0  0  0  0  0  0
   -7.5246    0.6120    0.1086 C   0  0  0  0  0  0  0  0  0  0  0  0
   -7.6035   -0.8111    0.3227 C   0  0  0  0  0  0  0  0  0  0  0  0
   -8.8567   -1.3789    0.6579 C   0  0  0  0  0  0  0  0  0  0  0  0
   -8.9024   -2.4655    0.8183 H   0  0  0  0  0  0  0  0  0  0  0  0
   -9.9873   -0.5718    0.7758 C   0  0  0  0  0  0  0  0  0  0  0  0
  -10.9517   -1.0350    1.0360 H   0  0  0  0  0  0  0  0  0  0  0  0
   -9.9191    0.8265    0.5688 C   0  0  0  0  0  0  0  0  0  0  0  0
  -10.8213    1.4467    0.6674 H   0  0  0  0  0  0  0  0  0  0  0  0
   -8.6965    1.4028    0.2404 C   0  0  0  0  0  0  0  0  0  0  0  0
   -8.6164    2.4894    0.0752 H   0  0  0  0  0  0  0  0  0  0  0  0
   -6.5386   -1.5961    0.2162 O   0  0  0  0  0  0  0  0  0  0  0  0
   -5.7474   -0.9888   -0.0211 H   0  0  0  0  0  0  0  0  0  0  0  0
  1  2  1  0  0  0  0
  2  3  1  0  0  0  0
  4 11  1  0  0  0  0
  4  2  1  0  0  0  0
  5  4  2  0  0  0  0
  6  5  1  0  0  0  0
  7  5  1  0  0  0  0
  7  9  2  0  0  0  0
  8  7  1  0  0  0  0
  9  1  1  0  0  0  0
 10  9  1  0  0  0  0
 11 12  2  0  0  0  0
 12 14  1  0  0  0  0
 13 12  1  0  0  0  0
 14 22  2  0  0  0  0
 14 15  1  0  0  0  0
 15 16  2  0  0  0  0
 16 18  1  0  0  0  0
 16 17  1  0  0  0  0
 18 19  1  0  0  0  0
 20 21  1  0  0  0  0
 20 18  2  0  0  0  0
 22 20  1  0  0  0  0
 23 22  1  0  0  0  0
 24 15  1  0  0  0  0
 25 24  1  0  0  0  0
M  END
