1
q = 0.0, confidence = 0.986

 20 20  0  0  1  0  0  0  0  0999 V2000
   -1.5286   -1.1666   -0.1881 N   0  0  0  0  0  0  0  0  0  0  0  0
   -2.1377   -1.1710   -1.5567 C   0  0  0  0  0  0  0  0  0  0  0  0
   -3.2893   -2.1689   -1.6720 C   0  0  0  0  0  0  0  0  0  0  0  0
   -4.3541   -1.9133   -0.6011 C   0  0  0  0  0  0  0  0  0  0  0  0
   -3.7343   -1.9122    0.8050 C   0  0  2  0  0  0  0  0  0  0  0  0
   -4.7571   -1.5929    1.8971 C   0  0  0  0  0  0  0  0  0  0  0  0
   -2.5656   -0.9190    0.8607 C   0  0  0  0  0  0  0  0  0  0  0  0
   -1.1542   -2.1155   -0.0211 H   0  0  0  0  0  0  0  0  0  0  0  0
   -1.3264   -1.3834   -2.2799 H   0  0  0  0  0  0  0  0  0  0  0  0
   -2.4732   -0.1295   -1.7341 H   0  0  0  0  0  0  0  0  0  0  0  0
   -3.7226   -2.0965   -2.6908 H   0  0  0  0  0  0  0  0  0  0  0  0
   -2.8988   -3.2081   -1.5736 H   0  0  0  0  0  0  0  0  0  0  0  0
   -5.1639   -2.6702   -0.6616 H   0  0  0  0  0  0  0  0  0  0  0  0
   -4.8297   -0.9236   -0.7819 H   0  0  0  0  0  0  0  0  0  0  0  0
   -3.3236   -2.9334    0.9969 H   0  0  0  0  0  0  0  0  0  0  0  0
   -4.3012   -1.6255    2.9075 H   0  0  0  0  0  0  0  0  0  0  0  0
   -5.5971   -2.3158    1.8798 H   0  0  0  0  0  0  0  0  0  0  0  0
   -5.1827   -0.5781    1.7526 H   0  0  0  0  0  0  0  0  0  0  0  0
   -2.9169    0.1202    0.6975 H   0  0  0  0  0  0  0  0  0  0  0  0
   -2.0568   -0.9440    1.8448 H   0  0  0  0  0  0  0  0  0  0  0  0
  1  8  1  0  0  0  0
  1  7  1  0  0  0  0
  2  1  1  0  0  0  0
  3 12  1  0  0  0  0
  3  2  1  0  0  0  0
  3  4  1  0  0  0  0
  4  5  1  0  0  0  0
  5  7  1  0  0  0  0
  5 15  1  1  0  0  0
  5  6  1  0  0  0  0
  6 16  1  0  0  0  0
  7 20  1  0  0  0  0
  9  2  1  0  0  0  0
 10  2  1  0  0  0  0
 11  3  1  0  0  0  0
 13  4  1  0  0  0  0
 14  4  1  0  0  0  0
 17  6  1  0  0  0  0
 18  6  1  0  0  0  0
 19  7  1  0  0  0  0
M  END
