3
q = 0.0, confidence = 1.0

 26 27  0  0  1  0  0  0  0  0999 V2000
    2.9931   -2.2548   -1.5531 S   0  0  0  0  0  0  0  0  0  0  0  0
    7.1087   -0.7260   -1.2948 S   0  0  0  0  0  0  0  0  0  0  0  0
    1.0878   -1.2278   -0.0291 N   0  0  0  0  0  2  0  0  0  0  0  0
    4.4854   -0.2344   -0.1523 N   0  0  0  0  0  2  0  0  0  0  0  0
    3.1977   -0.2334    0.2331 N   0  0  0  0  0  0  0  0  0  0  0  0
    2.7909    0.3942    0.9797 H   0  0  0  0  0  0  0  0  0  0  0  0
    2.3571   -1.1402   -0.3313 C   0  0  2  0  0  3  0  0  0  0  0  0
    4.9371    1.6488    1.4220 C   0  0  0  0  0  0  0  0  0  0  0  0
    4.1154    2.3052    1.0660 H   0  0  0  0  0  0  0  0  0  0  0  0
    5.8229    2.2606    1.6663 H   0  0  0  0  0  0  0  0  0  0  0  0
    4.5602    1.1628    2.3467 H   0  0  0  0  0  0  0  0  0  0  0  0
    5.3025    0.6267    0.3857 C   0  0  0  0  0  0  0  0  0  0  0  0
    1.4031   -3.1902   -1.4271 C   0  0  0  0  0  0  0  0  0  0  0  0
    1.1297   -3.5796   -2.4255 H   0  0  0  0  0  0  0  0  0  0  0  0
    1.5626   -4.0436   -0.7375 H   0  0  0  0  0  0  0  0  0  0  0  0
    6.6939    0.5364   -0.0837 C   0  0  0  0  0  0  0  0  0  0  0  0
    0.3805   -2.1875   -0.8744 C   0  0  0  0  0  0  0  0  0  0  0  0
   -0.1228   -1.6345   -1.7020 H   0  0  0  0  0  0  0  0  0  0  0  0
   -0.4108   -2.6835   -0.2756 H   0  0  0  0  0  0  0  0  0  0  0  0
    8.9316    0.9196   -0.1818 C   0  0  0  0  0  0  0  0  0  0  0  0
    9.4643    0.3379    0.6076 H   0  0  0  0  0  0  0  0  0  0  0  0
    9.5495    1.8216   -0.3747 H   0  0  0  0  0  0  0  0  0  0  0  0
    7.6355    1.2983    0.3545 N   0  0  0  0  0  2  0  0  0  0  0  0
    8.7590    0.0717   -1.4643 C   0  0  0  0  0  0  0  0  0  0  0  0
    9.5394   -0.7052   -1.5744 H   0  0  0  0  0  0  0  0  0  0  0  0
    8.7560    0.7003   -2.3789 H   0  0  0  0  0  0  0  0  0  0  0  0
  1 13  1  0  0  0  0
  1  7  1  0  0  0  0
  2 16  1  0  0  0  0
  4  5  1  0  0  0  0
  4 12  1  0  0  0  0
  5  6  1  0  0  0  0
  7  3  1  0  0  0  0
  7  5  1  6  0  0  0
  8 10  1  0  0  0  0
  8 11  1  0  0  0  0
  9  8  1  0  0  0  0
 12  8  1  0  0  0  0
 13 17  1  0  0  0  0
 13 15  1  0  0  0  0
 14 13  1  0  0  0  0
 16 23  1  0  0  0  0
 16 12  2  0  0  0  0
 17 19  1  0  0  0  0
 17  3  1  0  0  0  0
 18 17  1  0  0  0  0
 20 23  1  0  0  0  0
 20 21  1  0  0  0  0
 22 20  1  0  0  0  0
 24  2  1  0  0  0  0
 24 20  1  0  0  0  0
 25 24  1  0  0  0  0
 26 24  1  0  0  0  0
M  END
