2
q = 0.0, confidence = 0.992

 46 48  0  0  0  0  0  0  0  0999 V2000
    0.7796   -0.1382   -0.0789 P   0  0  0  0  0  0  0  0  0  0  0  0
   -2.2027   -0.3534    0.3515 N   0  0  0  0  0  2  0  0  0  0  0  0
    0.6074   -0.7040    1.6654 C   0  0  0  0  0  0  0  0  0  0  0  0
    1.7291   -0.8022    2.5041 C   0  0  0  0  0  0  0  0  0  0  0  0
    1.6068   -1.2827    3.8206 C   0  0  0  0  0  0  0  0  0  0  0  0
    0.3595   -1.7015    4.3013 C   0  0  0  0  0  0  0  0  0  0  0  0
   -0.7618   -1.6331    3.4638 C   0  0  0  0  0  0  0  0  0  0  0  0
   -0.6694   -1.1119    2.1538 C   0  0  0  0  0  0  0  0  0  0  0  0
   -1.9137   -1.0942    1.3732 C   0  0  0  0  0  3  0  0  0  0  0  0
   -3.5125   -0.5913   -0.3342 C   0  0  0  0  0  0  0  0  0  0  0  0
   -4.6773   -0.1654    0.5638 C   0  0  0  0  0  0  0  0  0  0  0  0
   -3.6242   -2.0325   -0.8415 C   0  0  0  0  0  0  0  0  0  0  0  0
    2.4748    0.5246   -0.2146 C   0  0  0  0  0  0  0  0  0  0  0  0
    2.7695    1.7435    0.4362 C   0  0  0  0  0  0  0  0  0  0  0  0
    4.0556    2.2912    0.3476 C   0  0  0  0  0  0  0  0  0  0  0  0
    5.0483    1.6376   -0.4037 C   0  0  0  0  0  0  0  0  0  0  0  0
    4.7544    0.4324   -1.0587 C   0  0  0  0  0  0  0  0  0  0  0  0
    3.4711   -0.1302   -0.9647 C   0  0  0  0  0  0  0  0  0  0  0  0
    0.7238   -1.6817   -1.0610 C   0  0  0  0  0  0  0  0  0  0  0  0
    1.1880   -2.9078   -0.5419 C   0  0  0  0  0  0  0  0  0  0  0  0
    1.1232   -4.0670   -1.3293 C   0  0  0  0  0  0  0  0  0  0  0  0
    0.5979   -4.0086   -2.6308 C   0  0  0  0  0  0  0  0  0  0  0  0
    0.1348   -2.7884   -3.1502 C   0  0  0  0  0  0  0  0  0  0  0  0
    0.1934   -1.6262   -2.3672 C   0  0  0  0  0  0  0  0  0  0  0  0
    2.7166   -0.5008    2.1248 H   0  0  0  0  0  0  0  0  0  0  0  0
    2.4977   -1.3402    4.4636 H   0  0  0  0  0  0  0  0  0  0  0  0
    0.2587   -2.0910    5.3247 H   0  0  0  0  0  0  0  0  0  0  0  0
   -1.7403   -1.9783    3.8327 H   0  0  0  0  0  0  0  0  0  0  0  0
   -2.6790   -1.8137    1.7296 H   0  0  0  0  0  0  0  0  0  0  0  0
   -3.4941    0.0785   -1.2150 H   0  0  0  0  0  0  0  0  0  0  0  0
   -4.7683   -0.8222    1.4528 H   0  0  0  0  0  0  0  0  0  0  0  0
   -4.5493    0.8778    0.9141 H   0  0  0  0  0  0  0  0  0  0  0  0
   -5.6294   -0.2277    0.0019 H   0  0  0  0  0  0  0  0  0  0  0  0
   -2.7413   -2.3071   -1.4528 H   0  0  0  0  0  0  0  0  0  0  0  0
   -3.7150   -2.7621   -0.0116 H   0  0  0  0  0  0  0  0  0  0  0  0
   -4.5289   -2.1356   -1.4718 H   0  0  0  0  0  0  0  0  0  0  0  0
    1.9897    2.2576    1.0209 H   0  0  0  0  0  0  0  0  0  0  0  0
    4.2851    3.2363    0.8620 H   0  0  0  0  0  0  0  0  0  0  0  0
    6.0555    2.0736   -0.4795 H   0  0  0  0  0  0  0  0  0  0  0  0
    5.5297   -0.0789   -1.6484 H   0  0  0  0  0  0  0  0  0  0  0  0
    3.2455   -1.0777   -1.4762 H   0  0  0  0  0  0  0  0  0  0  0  0
    1.5952   -2.9586    0.4794 H   0  0  0  0  0  0  0  0  0  0  0  0
    1.4843   -5.0234   -0.9228 H   0  0  0  0  0  0  0  0  0  0  0  0
    0.5472   -4.9209   -3.2436 H   0  0  0  0  0  0  0  0  0  0  0  0
   -0.2772   -2.7421   -4.1693 H   0  0  0  0  0  0  0  0  0  0  0  0
   -0.1774   -0.6679   -2.7653 H   0  0  0  0  0  0  0  0  0  0  0  0
  1  3  1  0  0  0  0
  2  9  1  0  0  0  0
  3  8  2  0  0  0  0
  3  4  1  0  0  0  0
  4  5  2  0  0  0  0
  5  6  1  0  0  0  0
  5 26  1  0  0  0  0
  6 27  1  0  0  0  0
  7 28  1  0  0  0  0
  7  6  2  0  0  0  0
  8  7  1  0  0  0  0
  9 29  1  0  0  0  0
  9  8  1  0  0  0  0
 10  2  1  0  0  0  0
 10 11  1  0  0  0  0
 11 32  1  0  0  0  0
 11 31  1  0  0  0  0
 12 10  1  0  0  0  0
 12 35  1  0  0  0  0
 13  1  1  0  0  0  0
 13 14  1  0  0  0  0
 14 37  1  0  0  0  0
 15 14  2  0  0  0  0
 15 38  1  0  0  0  0
 16 15  1  0  0  0  0
 17 18  1  0  0  0  0
 17 16  2  0  0  0  0
 18 13  2  0  0  0  0
 19 20  1  0  0  0  0
 19  1  1  0  0  0  0
 20 42  1  0  0  0  0
 21 43  1  0  0  0  0
 21 20  2  0  0  0  0
 22 21  1  0  0  0  0
 23 22  2  0  0  0  0
 23 24  1  0  0  0  0
 24 19  2  0  0  0  0
 25  4  1  0  0  0  0
 30 10  1  0  0  0  0
 33 11  1  0  0  0  0
 34 12  1  0  0  0  0
 36 12  1  0  0  0  0
 39 16  1  0  0  0  0
 40 17  1  0  0  0  0
 41 18  1  0  0  0  0
 44 22  1  0  0  0  0
 45 23  1  0  0  0  0
 46 24  1  0  0  0  0
M  END
