1
q = 0.0, confidence = 0.996

 21 22  0  0  1  0  0  0  0  0999 V2000
    1.8662   -1.4688   -0.3255 N   0  0  0  0  0  2  0  0  0  0  0  0
    4.0990    1.7374   -1.2637 F   0  0  0  0  0  0  0  0  0  0  0  0
    4.0105   -1.0544   -0.8353 N   0  0  0  0  0  0  0  0  0  0  0  0
    4.6953   -0.3644   -1.1446 H   0  0  0  0  0  0  0  0  0  0  0  0
    2.7862    0.6969    0.4393 C   0  0  0  0  0  0  0  0  0  0  0  0
    2.8523   -0.6107   -0.2437 C   0  0  2  0  0  3  0  0  0  0  0  0
    2.3384   -2.6614   -1.0477 C   0  0  0  0  0  0  0  0  0  0  0  0
    1.5890   -2.9482   -1.8094 H   0  0  0  0  0  0  0  0  0  0  0  0
    2.4466   -3.4967   -0.3220 H   0  0  0  0  0  0  0  0  0  0  0  0
    2.0302    2.0867    2.3023 C   0  0  0  0  0  0  0  0  0  0  0  0
    1.4883    2.1758    3.2550 H   0  0  0  0  0  0  0  0  0  0  0  0
    3.4116    1.8399   -0.0991 C   0  0  0  0  0  0  0  0  0  0  0  0
    2.0946    0.8423    1.6626 C   0  0  0  0  0  0  0  0  0  0  0  0
    1.6069   -0.0452    2.1030 H   0  0  0  0  0  0  0  0  0  0  0  0
    3.3501    3.0898    0.5218 C   0  0  0  0  0  0  0  0  0  0  0  0
    3.8502    3.9447    0.0455 H   0  0  0  0  0  0  0  0  0  0  0  0
    3.6920   -2.2253   -1.6579 C   0  0  0  0  0  0  0  0  0  0  0  0
    4.4730   -3.0066   -1.5764 H   0  0  0  0  0  0  0  0  0  0  0  0
    3.5852   -1.9408   -2.7292 H   0  0  0  0  0  0  0  0  0  0  0  0
    2.6520    3.2107    1.7325 C   0  0  0  0  0  0  0  0  0  0  0  0
    2.6008    4.1895    2.2330 H   0  0  0  0  0  0  0  0  0  0  0  0
  1  6  1  0  0  0  0
  2 12  1  0  0  0  0
  3  6  1  0  0  0  0
  4  3  1  0  0  0  0
  5 13  1  0  0  0  0
  6  5  1  1  0  0  0
  7  1  1  0  0  0  0
  7  9  1  0  0  0  0
  8  7  1  0  0  0  0
 10 11  1  0  0  0  0
 12  5  2  0  0  0  0
 12 15  1  0  0  0  0
 13 14  1  0  0  0  0
 13 10  2  0  0  0  0
 15 20  2  0  0  0  0
 16 15  1  0  0  0  0
 17 18  1  0  0  0  0
 17  7  1  0  0  0  0
 17  3  1  0  0  0  0
 19 17  1  0  0  0  0
 20 21  1  0  0  0  0
 20 10  1  0  0  0  0
M  END
