1
q = 0.0, confidence = 1.0

 24 25  0  0  1  0  0  0  0  0999 V2000
    0.1693    0.0336   -1.4275 N   0  0  0  0  0  2  0  0  0  0  0  0
   -0.1224    2.0088   -2.4569 N   0  0  0  0  0  0  0  0  0  0  0  0
   -0.7930    2.5835   -2.9704 H   0  0  0  0  0  0  0  0  0  0  0  0
   -4.0559    0.0597   -0.4407 C   0  0  0  0  0  0  0  0  0  0  0  0
   -4.7076   -0.8207   -0.5374 H   0  0  0  0  0  0  0  0  0  0  0  0
   -2.7923    0.0572   -1.0411 C   0  0  0  0  0  0  0  0  0  0  0  0
   -2.4411   -0.8208   -1.6056 H   0  0  0  0  0  0  0  0  0  0  0  0
   -1.9393    1.1807   -0.9243 C   0  0  0  0  0  0  0  0  0  0  0  0
    1.3301    0.1598   -2.3191 C   0  0  0  0  0  0  0  0  0  0  0  0
    1.4103   -0.7715   -2.9149 H   0  0  0  0  0  0  0  0  0  0  0  0
    2.2498    0.2620   -1.7086 H   0  0  0  0  0  0  0  0  0  0  0  0
   -2.3445    2.3214   -0.1835 C   0  0  0  0  0  0  0  0  0  0  0  0
   -0.6180    1.0645   -1.5822 C   0  0  1  0  0  3  0  0  0  0  0  0
   -4.4732    1.1860    0.2866 C   0  0  0  0  0  0  0  0  0  0  0  0
   -5.4648    1.2007    0.7644 H   0  0  0  0  0  0  0  0  0  0  0  0
    1.0371    1.4322   -3.1593 C   0  0  0  0  0  0  0  0  0  0  0  0
    1.8910    2.1390   -3.1699 H   0  0  0  0  0  0  0  0  0  0  0  0
    0.7756    1.1847   -4.2110 H   0  0  0  0  0  0  0  0  0  0  0  0
   -3.6248    2.2947    0.4103 C   0  0  0  0  0  0  0  0  0  0  0  0
   -3.9535    3.1695    0.9936 H   0  0  0  0  0  0  0  0  0  0  0  0
   -1.4366    3.4991    0.0784 C   0  0  0  0  0  0  0  0  0  0  0  0
   -0.9139    3.3545    1.0494 H   0  0  0  0  0  0  0  0  0  0  0  0
   -2.0147    4.4410    0.1527 H   0  0  0  0  0  0  0  0  0  0  0  0
   -0.6590    3.6179   -0.6977 H   0  0  0  0  0  0  0  0  0  0  0  0
  2 13  1  0  0  0  0
  3  2  1  0  0  0  0
  4 14  1  0  0  0  0
  5  4  1  0  0  0  0
  6  8  1  0  0  0  0
  6  4  2  0  0  0  0
  7  6  1  0  0  0  0
  8 12  2  0  0  0  0
  9 11  1  0  0  0  0
  9  1  1  0  0  0  0
 10  9  1  0  0  0  0
 12 21  1  0  0  0  0
 12 19  1  0  0  0  0
 13  1  1  0  0  0  0
 13  8  1  6  0  0  0
 14 19  2  0  0  0  0
 14 15  1  0  0  0  0
 16  2  1  0  0  0  0
 16  9  1  0  0  0  0
 17 16  1  0  0  0  0
 18 16  1  0  0  0  0
 19 20  1  0  0  0  0
 21 23  1  0  0  0  0
 21 22  1  0  0  0  0
 24 21  1  0  0  0  0
M  END
