1
q = 0.0, confidence = 0.99

 24 24  0  0  0  0  0  0  0  0999 V2000
    0.4567    0.2489    1.6588 N   0  0  0  0  0  2  0  0  0  0  0  0
   -0.3762    0.5326    2.8282 C   0  0  0  0  0  0  0  0  0  0  0  0
   -1.2700    1.7652    2.6522 C   0  0  0  0  0  0  0  0  0  0  0  0
   -2.1981    1.9830    3.8461 C   0  0  0  0  0  0  0  0  0  0  0  0
    1.7404    0.2031    1.8249 C   0  0  0  0  0  3  0  0  0  0  0  0
    2.7523   -0.1014    0.8127 C   0  0  0  0  0  0  0  0  0  0  0  0
    4.1120    0.0358    1.1854 C   0  0  0  0  0  0  0  0  0  0  0  0
    5.1354   -0.2302    0.2676 C   0  0  0  0  0  0  0  0  0  0  0  0
    4.8175   -0.6470   -1.0352 C   0  0  0  0  0  0  0  0  0  0  0  0
    3.4712   -0.7988   -1.4165 C   0  0  0  0  0  0  0  0  0  0  0  0
    2.4478   -0.5301   -0.5027 C   0  0  0  0  0  0  0  0  0  0  0  0
    0.2575    0.6456    3.7376 H   0  0  0  0  0  0  0  0  0  0  0  0
   -1.0294   -0.3529    2.9964 H   0  0  0  0  0  0  0  0  0  0  0  0
   -0.6254    2.6572    2.4988 H   0  0  0  0  0  0  0  0  0  0  0  0
   -1.8616    1.6367    1.7175 H   0  0  0  0  0  0  0  0  0  0  0  0
   -1.6268    2.1253    4.7861 H   0  0  0  0  0  0  0  0  0  0  0  0
   -2.8298    2.8809    3.7027 H   0  0  0  0  0  0  0  0  0  0  0  0
   -2.8759    1.1173    3.9951 H   0  0  0  0  0  0  0  0  0  0  0  0
    4.3624    0.3590    2.2081 H   0  0  0  0  0  0  0  0  0  0  0  0
    6.1866   -0.1151    0.5696 H   0  0  0  0  0  0  0  0  0  0  0  0
    5.6208   -0.8605   -1.7562 H   0  0  0  0  0  0  0  0  0  0  0  0
    3.2211   -1.1348   -2.4343 H   0  0  0  0  0  0  0  0  0  0  0  0
    1.3880   -0.6457   -0.7998 H   0  0  0  0  0  0  0  0  0  0  0  0
    2.1438    0.4129    2.8405 H   0  0  0  0  0  0  0  0  0  0  0  0
  1  5  1  0  0  0  0
  1  2  1  0  0  0  0
  2 13  1  0  0  0  0
  2 12  1  0  0  0  0
  3  2  1  0  0  0  0
  3  4  1  0  0  0  0
  4 18  1  0  0  0  0
  4 16  1  0  0  0  0
  5 24  1  0  0  0  0
  6  7  1  0  0  0  0
  6  5  1  0  0  0  0
  7 19  1  0  0  0  0
  8 20  1  0  0  0  0
  8  7  2  0  0  0  0
  9  8  1  0  0  0  0
 10  9  2  0  0  0  0
 10 11  1  0  0  0  0
 11  6  2  0  0  0  0
 14  3  1  0  0  0  0
 15  3  1  0  0  0  0
 17  4  1  0  0  0  0
 21  9  1  0  0  0  0
 22 10  1  0  0  0  0
 23 11  1  0  0  0  0
M  END
