2
q = 0.0, confidence = 0.992

 41 44  0  0  0  0  0  0  0  0999 V2000
   -0.9511    0.5027   -0.0347 P   0  0  0  0  0  0  0  0  0  0  0  0
    0.4194   -2.1239    0.1489 N   0  0  0  0  0  2  0  0  0  0  0  0
   -1.1454   -3.7101    0.4345 C   0  0  0  0  0  3  0  0  0  0  0  0
   -2.0650   -4.1379    0.8461 H   0  0  0  0  0  0  0  0  0  0  0  0
   -0.7393   -2.4554    0.7972 N   0  0  0  0  0  0  0  0  0  0  0  0
   -0.2284   -4.2071   -0.4835 C   0  0  0  0  0  0  0  0  0  0  0  0
   -0.2513   -5.1783   -0.9864 H   0  0  0  0  0  0  0  0  0  0  0  0
    0.7268   -3.1836   -0.6294 C   0  0  0  0  0  0  0  0  0  0  0  0
    1.6159   -3.1527   -1.2667 H   0  0  0  0  0  0  0  0  0  0  0  0
   -1.4046   -1.6218    1.7496 C   0  0  0  0  0  0  0  0  0  0  0  0
   -1.8740   -2.2254    2.9277 C   0  0  0  0  0  0  0  0  0  0  0  0
   -1.6332   -3.2789    3.1299 H   0  0  0  0  0  0  0  0  0  0  0  0
   -2.6306   -1.4822    3.8446 C   0  0  0  0  0  0  0  0  0  0  0  0
   -2.9912   -1.9612    4.7663 H   0  0  0  0  0  0  0  0  0  0  0  0
   -2.9156   -0.1353    3.5838 C   0  0  0  0  0  0  0  0  0  0  0  0
   -3.5182    0.4516    4.2922 H   0  0  0  0  0  0  0  0  0  0  0  0
   -2.4288    0.4725    2.4163 C   0  0  0  0  0  0  0  0  0  0  0  0
   -2.6595    1.5285    2.2170 H   0  0  0  0  0  0  0  0  0  0  0  0
   -1.6620   -0.2523    1.4847 C   0  0  0  0  0  0  0  0  0  0  0  0
   -1.3960    2.2745   -0.0052 C   0  0  0  0  0  0  0  0  0  0  0  0
   -2.0654    2.8625   -1.0984 C   0  0  0  0  0  0  0  0  0  0  0  0
   -2.3884    2.2413   -1.9467 H   0  0  0  0  0  0  0  0  0  0  0  0
   -2.3230    4.2420   -1.1019 C   0  0  0  0  0  0  0  0  0  0  0  0
   -2.8467    4.6942   -1.9572 H   0  0  0  0  0  0  0  0  0  0  0  0
   -1.9205    5.0402   -0.0204 C   0  0  0  0  0  0  0  0  0  0  0  0
   -2.1274    6.1207   -0.0261 H   0  0  0  0  0  0  0  0  0  0  0  0
   -1.2527    4.4593    1.0705 C   0  0  0  0  0  0  0  0  0  0  0  0
   -0.9369    5.0820    1.9207 H   0  0  0  0  0  0  0  0  0  0  0  0
   -0.9821    3.0840    1.0784 C   0  0  0  0  0  0  0  0  0  0  0  0
   -0.4598    2.6370    1.9384 H   0  0  0  0  0  0  0  0  0  0  0  0
   -1.9172   -0.2532   -1.3936 C   0  0  0  0  0  0  0  0  0  0  0  0
   -1.2513   -0.6258   -2.5792 C   0  0  0  0  0  0  0  0  0  0  0  0
   -0.1640   -0.4640   -2.6607 H   0  0  0  0  0  0  0  0  0  0  0  0
   -1.9735   -1.2048   -3.6335 C   0  0  0  0  0  0  0  0  0  0  0  0
   -1.4542   -1.4942   -4.5592 H   0  0  0  0  0  0  0  0  0  0  0  0
   -3.3555   -1.4159   -3.5048 C   0  0  0  0  0  0  0  0  0  0  0  0
   -3.9204   -1.8722   -4.3315 H   0  0  0  0  0  0  0  0  0  0  0  0
   -4.0200   -1.0478   -2.3222 C   0  0  0  0  0  0  0  0  0  0  0  0
   -5.1030   -1.2152   -2.2233 H   0  0  0  0  0  0  0  0  0  0  0  0
   -3.3056   -0.4668   -1.2653 C   0  0  0  0  0  0  0  0  0  0  0  0
   -3.8264   -0.1803   -0.3385 H   0  0  0  0  0  0  0  0  0  0  0  0
  1 20  1  0  0  0  0
  1 19  1  0  0  0  0
  2  5  1  0  0  0  0
  3  5  1  0  0  0  0
  3  4  1  0  0  0  0
  5 10  1  0  0  0  0
  6  3  1  0  0  0  0
  7  6  1  0  0  0  0
  8  6  2  0  0  0  0
  8  2  1  0  0  0  0
  9  8  1  0  0  0  0
 10 11  1  0  0  0  0
 11 12  1  0  0  0  0
 11 13  2  0  0  0  0
 13 14  1  0  0  0  0
 15 13  1  0  0  0  0
 15 16  1  0  0  0  0
 17 15  2  0  0  0  0
 18 17  1  0  0  0  0
 19 10  2  0  0  0  0
 19 17  1  0  0  0  0
 20 29  1  0  0  0  0
 21 20  2  0  0  0  0
 22 21  1  0  0  0  0
 23 21  1  0  0  0  0
 23 25  2  0  0  0  0
 24 23  1  0  0  0  0
 25 27  1  0  0  0  0
 26 25  1  0  0  0  0
 27 29  2  0  0  0  0
 27 28  1  0  0  0  0
 29 30  1  0  0  0  0
 31 40  1  0  0  0  0
 31  1  1  0  0  0  0
 32 31  2  0  0  0  0
 33 32  1  0  0  0  0
 34 36  2  0  0  0  0
 34 32  1  0  0  0  0
 35 34  1  0  0  0  0
 36 38  1  0  0  0  0
 37 36  1  0  0  0  0
 38 39  1  0  0  0  0
 38 40  2  0  0  0  0
 40 41  1  0  0  0  0
M  END
