2
q = 0.0, confidence = 0.998

 17 18  0  0  1  0  0  0  0  0999 V2000
    2.1244   -1.2631   -0.7798 N   0  0  0  0  0  0  0  0  0  0  0  0
    1.2559    1.3803   -0.5896 N   0  0  0  0  0  2  0  0  0  0  0  0
    2.9416   -0.2038   -1.0298 N   0  0  0  0  0  0  0  0  0  0  0  0
    2.4169    1.0865   -1.0602 C   0  0  1  0  0  3  0  0  0  0  0  0
    3.3701    2.3897   -1.8035 S   0  0  0  0  0  0  0  0  0  0  0  0
    2.1812    3.5809   -1.0433 C   0  0  0  0  0  0  0  0  0  0  0  0
    2.6112    3.9271   -0.0821 H   0  0  0  0  0  0  0  0  0  0  0  0
    2.0565    4.4447   -1.7223 H   0  0  0  0  0  0  0  0  0  0  0  0
    4.2706   -0.5746   -1.1149 C   0  0  0  0  0  0  0  0  0  0  0  0
    5.0576    0.1702   -1.2748 H   0  0  0  0  0  0  0  0  0  0  0  0
    0.8895    2.7700   -0.8446 C   0  0  0  0  0  0  0  0  0  0  0  0
    0.2894    3.1455    0.0084 H   0  0  0  0  0  0  0  0  0  0  0  0
    0.2448    2.7942   -1.7516 H   0  0  0  0  0  0  0  0  0  0  0  0
    2.9433   -2.3114   -0.7066 C   0  0  0  0  0  0  0  0  0  0  0  0
    2.5317   -3.3034   -0.4830 H   0  0  0  0  0  0  0  0  0  0  0  0
    4.3051   -1.9412   -0.9161 C   0  0  0  0  0  0  0  0  0  0  0  0
    5.1893   -2.5856   -0.8983 H   0  0  0  0  0  0  0  0  0  0  0  0
  1 14  2  0  0  0  0
  3  1  1  0  0  0  0
  4  3  1  6  0  0  0
  4  2  1  0  0  0  0
  5  4  1  0  0  0  0
  5  6  1  0  0  0  0
  6 11  1  0  0  0  0
  6  7  1  0  0  0  0
  8  6  1  0  0  0  0
  9  3  1  0  0  0  0
  9 16  2  0  0  0  0
 10  9  1  0  0  0  0
 11  2  1  0  0  0  0
 11 12  1  0  0  0  0
 13 11  1  0  0  0  0
 14 15  1  0  0  0  0
 16 17  1  0  0  0  0
 16 14  1  0  0  0  0
M  END
