4
q = 0.0, confidence = 1.0

 26 27  0  0  1  0  0  0  0  0999 V2000
   -3.9689    0.5563    1.4782 S   0  0  0  0  0  0  0  0  0  0  0  0
   -2.6570   -1.3800   -0.0162 N   0  0  0  0  0  0  0  0  0  0  0  0
   -2.8302    0.7237   -0.9567 N   0  0  0  0  0  0  0  0  0  0  0  0
   -1.5806    0.7082   -1.4847 N   0  0  0  0  0  2  0  0  0  0  0  0
   -3.1267   -0.2038    0.1042 C   0  0  0  0  0  0  0  0  0  0  0  0
   -3.5956   -0.7425    2.7256 C   0  0  0  0  0  0  0  0  0  0  0  0
   -2.5534   -0.5627    3.0604 H   0  0  0  0  0  0  0  0  0  0  0  0
   -4.3022   -0.5485    3.5551 H   0  0  0  0  0  0  0  0  0  0  0  0
   -3.7628   -2.1398    2.1344 C   0  0  0  0  0  0  0  0  0  0  0  0
   -4.8083   -2.2733    1.7841 H   0  0  0  0  0  0  0  0  0  0  0  0
   -3.5915   -2.8908    2.9338 H   0  0  0  0  0  0  0  0  0  0  0  0
   -2.7735   -2.4064    0.9968 C   0  0  0  0  0  0  0  0  0  0  0  0
   -3.0267   -3.3523    0.4718 H   0  0  0  0  0  0  0  0  0  0  0  0
   -1.7453   -2.5666    1.3863 H   0  0  0  0  0  0  0  0  0  0  0  0
   -1.5541    1.6275   -2.4591 C   0  0  1  0  0  3  0  0  0  0  0  0
   -2.8308    2.2422   -2.5615 C   0  0  0  0  0  0  0  0  0  0  0  0
   -3.1450    3.0129   -3.2733 H   0  0  0  0  0  0  0  0  0  0  0  0
   -3.6328    1.6469   -1.5862 C   0  0  0  0  0  0  0  0  0  0  0  0
   -0.2968    1.9016   -3.2191 C   0  0  0  0  0  0  0  0  0  0  0  0
    0.2170    2.8031   -2.8248 H   0  0  0  0  0  0  0  0  0  0  0  0
   -0.5112    2.0760   -4.2911 H   0  0  0  0  0  0  0  0  0  0  0  0
    0.4044    1.0501   -3.1307 H   0  0  0  0  0  0  0  0  0  0  0  0
   -5.0723    1.8699   -1.2580 C   0  0  0  0  0  0  0  0  0  0  0  0
   -5.5570    2.4191   -2.0865 H   0  0  0  0  0  0  0  0  0  0  0  0
   -5.1979    2.4678   -0.3319 H   0  0  0  0  0  0  0  0  0  0  0  0
   -5.6134    0.9154   -1.1045 H   0  0  0  0  0  0  0  0  0  0  0  0
  1  6  1  0  0  0  0
  2  5  2  0  0  0  0
  2 12  1  0  0  0  0
  3  5  1  0  0  0  0
  4  3  1  0  0  0  0
  5  1  1  0  0  0  0
  6  7  1  0  0  0  0
  6  8  1  0  0  0  0
  9  6  1  0  0  0  0
  9 11  1  0  0  0  0
 10  9  1  0  0  0  0
 12 14  1  0  0  0  0
 12  9  1  0  0  0  0
 13 12  1  0  0  0  0
 15 19  1  1  0  0  0
 15  4  1  0  0  0  0
 16 15  1  0  0  0  0
 16 18  2  0  0  0  0
 17 16  1  0  0  0  0
 18 23  1  0  0  0  0
 18  3  1  0  0  0  0
 19 22  1  0  0  0  0
 19 20  1  0  0  0  0
 21 19  1  0  0  0  0
 23 26  1  0  0  0  0
 23 25  1  0  0  0  0
 24 23  1  0  0  0  0
M  END
