1
q = -1.0, confidence = 0.0

 15 15  0  0  0  0  0  0  0  0999 V2000
    0.5969   -0.0152    0.8798 N   0  0  0  0  0  2  0  0  0  0  0  0
    0.6541    0.2660    1.8717 H   0  0  0  0  0  0  0  0  0  0  0  0
    1.8140   -0.1661    0.3397 C   0  0  0  0  0  0  0  0  0  0  0  0
    3.0547    0.0129    1.0682 C   0  0  0  0  0  0  0  0  0  0  0  0
    3.0702    0.4520    2.4421 N   0  0  0  0  0  0  0  0  0  0  0  0
    4.1535    0.5997    3.0186 O   0  0  0  0  0  0  0  0  0  0  0  0
    1.9705    0.6848    3.0131 O   0  0  0  0  0  0  0  0  0  0  0  0
    4.3116   -0.2025    0.4588 C   0  0  0  0  0  0  0  0  0  0  0  0
    5.2074   -0.0559    1.0747 H   0  0  0  0  0  0  0  0  0  0  0  0
    4.3888   -0.5728   -0.8758 C   0  0  0  0  0  0  0  0  0  0  0  0
    5.9395   -0.8418   -1.6381 Cl  0  0  0  0  0  0  0  0  0  0  0  0
    3.2003   -0.7252   -1.6373 C   0  0  0  0  0  0  0  0  0  0  0  0
    3.2724   -1.0023   -2.6991 H   0  0  0  0  0  0  0  0  0  0  0  0
    1.9651   -0.5236   -1.0478 C   0  0  0  0  0  0  0  0  0  0  0  0
    1.0368   -0.6308   -1.6292 H   0  0  0  0  0  0  0  0  0  0  0  0
  1  2  1  0  0  0  0
  3  1  1  0  0  0  0
  3  4  1  0  0  0  0
  4  5  1  0  0  0  0
  5  7  2  0  0  0  0
  5  6  2  0  0  0  0
  8  4  2  0  0  0  0
  8  9  1  0  0  0  0
 10  8  1  0  0  0  0
 11 10  1  0  0  0  0
 12 14  1  0  0  0  0
 12 10  2  0  0  0  0
 13 12  1  0  0  0  0
 14  3  2  0  0  0  0
 15 14  1  0  0  0  0
M  END
