1
q = 0.0, confidence = 0.95

 17 17  0  0  0  0  0  0  0  0999 V2000
    1.8660    0.8815   -0.1308 N   0  0  0  0  0  2  0  0  0  0  0  0
    2.1984   -0.0337   -1.0212 N   0  0  0  0  0  2  0  0  0  0  0  0
    3.8638    0.4950    1.1050 N   0  0  0  0  0  0  0  0  0  0  0  0
    2.4505    2.2721    1.6505 N   0  0  0  0  0  0  0  0  0  0  0  0
    1.8560    3.0070    1.2005 H   0  0  0  0  0  0  0  0  0  0  0  0
    3.1851    2.5561    2.2999 H   0  0  0  0  0  0  0  0  0  0  0  0
    3.3419   -0.7093   -0.8956 C   0  0  0  0  0  0  0  0  0  0  0  0
    4.1610   -0.4841    0.2570 C   0  0  0  0  0  0  0  0  0  0  0  0
    2.7480    1.2196    0.8674 C   0  0  0  0  0  0  0  0  0  0  0  0
    3.6682   -1.7232   -1.9492 C   0  0  0  0  0  0  0  0  0  0  0  0
    2.8791   -1.7140   -2.7229 H   0  0  0  0  0  0  0  0  0  0  0  0
    3.7249   -2.7438   -1.5171 H   0  0  0  0  0  0  0  0  0  0  0  0
    4.6457   -1.5118   -2.4304 H   0  0  0  0  0  0  0  0  0  0  0  0
    5.3530   -1.3453    0.5461 C   0  0  0  0  0  0  0  0  0  0  0  0
    5.8320   -1.0210    1.4871 H   0  0  0  0  0  0  0  0  0  0  0  0
    6.0935   -1.2910   -0.2788 H   0  0  0  0  0  0  0  0  0  0  0  0
    5.0501   -2.4096    0.6329 H   0  0  0  0  0  0  0  0  0  0  0  0
  1  9  1  0  0  0  0
  2  7  1  0  0  0  0
  2  1  1  0  0  0  0
  4  6  1  0  0  0  0
  5  4  1  0  0  0  0
  7  8  2  0  0  0  0
  8 14  1  0  0  0  0
  8  3  1  0  0  0  0
  9  3  2  0  0  0  0
  9  4  1  0  0  0  0
 10 12  1  0  0  0  0
 10  7  1  0  0  0  0
 11 10  1  0  0  0  0
 13 10  1  0  0  0  0
 14 17  1  0  0  0  0
 14 15  1  0  0  0  0
 16 14  1  0  0  0  0
M  END
