1
q = 0.0, confidence = 0.994

 15 16  0  0  0  0  0  0  0  0999 V2000
   -1.6421    1.3844   -0.7094 N   0  0  0  0  0  2  0  0  0  0  0  0
   -3.2086    2.9328   -0.2711 N   0  0  0  0  0  0  0  0  0  0  0  0
   -3.3582    2.5675   -1.5976 C   0  0  0  0  0  0  0  0  0  0  0  0
   -4.1245    3.0094   -2.2404 H   0  0  0  0  0  0  0  0  0  0  0  0
   -2.3873    1.6161   -1.8451 C   0  0  0  0  0  0  0  0  0  0  0  0
   -2.1548    1.0846   -2.7739 H   0  0  0  0  0  0  0  0  0  0  0  0
   -3.9114    3.8417    0.4895 C   0  0  0  0  0  3  0  0  0  0  0  0
   -4.7309    4.3691   -0.0168 H   0  0  0  0  0  0  0  0  0  0  0  0
   -3.5578    4.0345    1.8061 C   0  0  0  0  0  0  0  0  0  0  0  0
   -4.1226    4.7611    2.4057 H   0  0  0  0  0  0  0  0  0  0  0  0
   -2.4779    3.2984    2.3766 C   0  0  0  0  0  0  0  0  0  0  0  0
   -2.2070    3.4605    3.4295 H   0  0  0  0  0  0  0  0  0  0  0  0
   -1.7708    2.3806    1.6147 C   0  0  0  0  0  0  0  0  0  0  0  0
   -0.9432    1.7745    2.0074 H   0  0  0  0  0  0  0  0  0  0  0  0
   -2.1387    2.1919    0.2627 C   0  0  0  0  0  0  0  0  0  0  0  0
  1 15  1  0  0  0  0
  2 15  1  0  0  0  0
  2  7  1  0  0  0  0
  3  2  1  0  0  0  0
  4  3  1  0  0  0  0
  5  3  2  0  0  0  0
  5  1  1  0  0  0  0
  6  5  1  0  0  0  0
  7  9  1  0  0  0  0
  8  7  1  0  0  0  0
  9 11  2  0  0  0  0
  9 10  1  0  0  0  0
 11 12  1  0  0  0  0
 13 14  1  0  0  0  0
 13 11  1  0  0  0  0
 15 13  2  0  0  0  0
M  END
