5
q = -1.0, confidence = 0.024

 18 19  0  0  0  0  0  0  0  0999 V2000
    7.5626    0.5037   -2.5063 O   0  0  0  0  0  0  0  0  0  0  0  0
    1.1961    0.2317    0.5455 N   0  0  0  0  0  0  0  0  0  0  0  0
    2.1599   -0.2452    2.5032 N   0  0  0  0  0  0  0  0  0  0  0  0
    3.6785    0.1315    0.5621 C   0  0  0  0  0  0  0  0  0  0  0  0
    0.2760    0.0070    1.4820 N   0  0  0  0  0  2  0  0  0  0  0  0
    8.4994   -0.0536   -0.6106 O   0  0  0  0  0  0  0  0  0  0  0  0
    0.8508   -0.2757    2.6717 N   0  0  0  0  0  0  0  0  0  0  0  0
    7.5175    0.2164   -1.3069 N   0  0  0  0  0  0  0  0  0  0  0  0
    4.8441   -0.1635    1.3092 C   0  0  0  0  0  0  0  0  0  0  0  0
    4.7308   -0.4214    2.3718 H   0  0  0  0  0  0  0  0  0  0  0  0
    2.3678    0.0599    1.1958 C   0  0  0  0  0  0  0  0  0  0  0  0
    5.0541    0.4954   -1.4226 C   0  0  0  0  0  0  0  0  0  0  0  0
    5.1819    0.7492   -2.4831 H   0  0  0  0  0  0  0  0  0  0  0  0
    6.1008   -0.1350    0.7035 C   0  0  0  0  0  0  0  0  0  0  0  0
    7.0222   -0.3624    1.2557 H   0  0  0  0  0  0  0  0  0  0  0  0
    6.1925    0.1920   -0.6593 C   0  0  0  0  0  0  0  0  0  0  0  0
    3.8015    0.4640   -0.8085 C   0  0  0  0  0  0  0  0  0  0  0  0
    2.8928    0.6978   -1.3806 H   0  0  0  0  0  0  0  0  0  0  0  0
  1  8  2  0  0  0  0
  2 11  2  0  0  0  0
  2  5  1  0  0  0  0
  3  7  2  0  0  0  0
  4 11  1  0  0  0  0
  4  9  1  0  0  0  0
  5  7  1  0  0  0  0
  8 16  1  0  0  0  0
  8  6  2  0  0  0  0
  9 10  1  0  0  0  0
 11  3  1  0  0  0  0
 12 17  1  0  0  0  0
 12 16  2  0  0  0  0
 13 12  1  0  0  0  0
 14 15  1  0  0  0  0
 14  9  2  0  0  0  0
 16 14  1  0  0  0  0
 17  4  2  0  0  0  0
 18 17  1  0  0  0  0
M  END
