22
q = 0.0, confidence = 0.998

 24 24  0  0  0  0  0  0  0  0999 V2000
    1.9854   -3.0096   -1.2737 C   0  0  0  0  0  0  0  0  0  0  0  0
    2.7970   -2.2549   -1.2874 H   0  0  0  0  0  0  0  0  0  0  0  0
    2.1879   -3.7322   -2.1125 H   0  0  0  0  0  0  0  0  0  0  0  0
    2.0206   -3.7632    0.0602 C   0  0  0  0  0  0  0  0  0  0  0  0
    2.9896   -4.2896    0.1627 H   0  0  0  0  0  0  0  0  0  0  0  0
    1.9926   -3.0137    0.8788 H   0  0  0  0  0  0  0  0  0  0  0  0
   -0.3589   -4.0430   -0.0284 C   0  0  0  0  0  0  0  0  0  0  0  0
   -0.5546   -3.3027    0.7792 H   0  0  0  0  0  0  0  0  0  0  0  0
   -1.1804   -4.7885    0.0105 H   0  0  0  0  0  0  0  0  0  0  0  0
   -0.4083   -3.2949   -1.3668 C   0  0  0  0  0  0  0  0  0  0  0  0
   -0.3708   -4.0398   -2.2106 H   0  0  0  0  0  0  0  0  0  0  0  0
   -1.3737   -2.7565   -1.4445 H   0  0  0  0  0  0  0  0  0  0  0  0
    0.6656   -1.5649   -2.7011 C   0  0  0  0  0  0  0  0  0  0  0  0
    0.6443   -2.2273   -3.6084 H   0  0  0  0  0  0  0  0  0  0  0  0
    1.6146   -0.9892   -2.7574 H   0  0  0  0  0  0  0  0  0  0  0  0
   -0.5102   -0.5935   -2.8035 C   0  0  0  0  0  0  0  0  0  0  0  0
   -0.5385   -0.1765   -3.8339 H   0  0  0  0  0  0  0  0  0  0  0  0
   -1.4761   -1.1164   -2.6580 H   0  0  0  0  0  0  0  0  0  0  0  0
    0.6953   -2.3416   -1.4702 N   0  0  0  0  0  0  0  0  0  0  0  0
    0.9132   -4.6984    0.2428 N   0  0  0  0  0  0  0  0  0  0  0  0
    1.0282   -5.4937   -0.3998 H   0  0  0  0  0  0  0  0  0  0  0  0
   -0.4548    0.5025   -1.8171 N   0  0  0  0  0  0  0  0  0  0  0  0
   -1.4067    0.9326   -1.7275 H   0  0  0  0  0  0  0  0  0  0  0  0
    0.2451    1.2093   -2.0840 H   0  0  0  0  0  0  0  0  0  0  0  0
  1  4  1  0  0  0  0
  2  1  1  0  0  0  0
  3  1  1  0  0  0  0
  4  5  1  0  0  0  0
  4 20  1  0  0  0  0
  4  6  1  0  0  0  0
  7  9  1  0  0  0  0
  7 20  1  0  0  0  0
  7  8  1  0  0  0  0
 10  7  1  0  0  0  0
 11 10  1  0  0  0  0
 12 10  1  0  0  0  0
 13 19  1  0  0  0  0
 14 13  1  0  0  0  0
 15 13  1  0  0  0  0
 16 13  1  0  0  0  0
 16 18  1  0  0  0  0
 16 22  1  0  0  0  0
 17 16  1  0  0  0  0
 19 10  1  0  0  0  0
 19  1  1  0  0  0  0
 21 20  1  0  0  0  0
 22 23  1  0  0  0  0
 24 22  1  0  0  0  0
M  END
