1
q = 0.0, confidence = 1.0

 22 23  0  0  1  0  0  0  0  0999 V2000
    1.3277    0.2784    0.8181 N   0  0  0  0  0  2  0  0  0  0  0  0
    2.4024   -0.0741    0.0919 N   0  0  0  0  0  0  0  0  0  0  0  0
    1.7989    0.7859    1.9865 C   0  0  2  0  0  3  0  0  0  0  0  0
    3.2123    0.7345    1.9714 C   0  0  0  0  0  0  0  0  0  0  0  0
    3.8823    1.0578    2.7740 H   0  0  0  0  0  0  0  0  0  0  0  0
    3.5738    0.1691    0.7340 C   0  0  0  0  0  0  0  0  0  0  0  0
    0.9078    1.2905    3.0743 C   0  0  0  0  0  0  0  0  0  0  0  0
    0.3260    2.1762    2.7502 H   0  0  0  0  0  0  0  0  0  0  0  0
    1.5100    1.5702    3.9586 H   0  0  0  0  0  0  0  0  0  0  0  0
    0.1623    0.5299    3.3775 H   0  0  0  0  0  0  0  0  0  0  0  0
    4.8734   -0.1593    0.1423 C   0  0  0  0  0  0  0  0  0  0  0  0
    6.0701    0.2674    0.7619 C   0  0  0  0  0  0  0  0  0  0  0  0
    6.0205    0.8590    1.6878 H   0  0  0  0  0  0  0  0  0  0  0  0
    7.3154   -0.0455    0.2035 C   0  0  0  0  0  0  0  0  0  0  0  0
    8.2359    0.2969    0.7001 H   0  0  0  0  0  0  0  0  0  0  0  0
    7.3915   -0.7879   -0.9864 C   0  0  0  0  0  0  0  0  0  0  0  0
    8.3705   -1.0322   -1.4254 H   0  0  0  0  0  0  0  0  0  0  0  0
    6.2092   -1.2163   -1.6115 C   0  0  0  0  0  0  0  0  0  0  0  0
    6.2573   -1.8011   -2.5425 H   0  0  0  0  0  0  0  0  0  0  0  0
    4.9614   -0.9093   -1.0550 C   0  0  0  0  0  0  0  0  0  0  0  0
    4.0480   -1.2664   -1.5559 H   0  0  0  0  0  0  0  0  0  0  0  0
    2.1732   -0.5100   -0.8401 H   0  0  0  0  0  0  0  0  0  0  0  0
  1  3  1  0  0  0  0
  2  6  1  0  0  0  0
  2  1  1  0  0  0  0
  3  7  1  1  0  0  0
  4  3  1  0  0  0  0
  4  5  1  0  0  0  0
  6  4  2  0  0  0  0
  7 10  1  0  0  0  0
  7  9  1  0  0  0  0
  8  7  1  0  0  0  0
 11  6  1  0  0  0  0
 11 12  1  0  0  0  0
 12 13  1  0  0  0  0
 14 15  1  0  0  0  0
 14 12  2  0  0  0  0
 16 14  1  0  0  0  0
 17 16  1  0  0  0  0
 18 20  1  0  0  0  0
 18 16  2  0  0  0  0
 19 18  1  0  0  0  0
 20 11  2  0  0  0  0
 21 20  1  0  0  0  0
 22  2  1  0  0  0  0
M  END
