1
q = 0.0, confidence = 1.0

 31 31  0  0  1  0  0  0  0  0999 V2000
    1.3521    1.4839   -0.0199 N   0  0  0  0  0  2  0  0  0  0  0  0
    1.1680    2.7702   -0.3637 C   0  0  1  0  0  3  0  0  0  0  0  0
    2.4000    3.4579   -0.2226 C   0  0  0  0  0  0  0  0  0  0  0  0
    2.5809    4.5231   -0.3984 H   0  0  0  0  0  0  0  0  0  0  0  0
    3.3357    2.5189    0.2086 C   0  0  0  0  0  0  0  0  0  0  0  0
    2.6635    1.3211    0.2905 N   0  0  0  0  0  0  0  0  0  0  0  0
    3.1382    0.0692    0.8838 C   0  0  0  0  0  0  0  0  0  0  0  0
    2.6475   -0.3372    1.9257 O   0  0  0  0  0  0  0  0  0  0  0  0
    4.1927   -0.4964    0.2319 N   0  0  0  0  0  0  0  0  0  0  0  0
    4.8627   -1.5927    0.9450 C   0  0  0  0  0  0  0  0  0  0  0  0
    5.8821   -1.6829    0.5168 H   0  0  0  0  0  0  0  0  0  0  0  0
    4.9731   -1.2763    2.0024 H   0  0  0  0  0  0  0  0  0  0  0  0
    4.1213   -2.9295    0.8968 C   0  0  0  0  0  0  0  0  0  0  0  0
    3.9899   -3.2935   -0.1394 H   0  0  0  0  0  0  0  0  0  0  0  0
    4.6865   -3.6939    1.4671 H   0  0  0  0  0  0  0  0  0  0  0  0
    3.1225   -2.8195    1.3584 H   0  0  0  0  0  0  0  0  0  0  0  0
    4.5996   -0.1923   -1.1456 C   0  0  0  0  0  0  0  0  0  0  0  0
    3.8653    0.5252   -1.5543 H   0  0  0  0  0  0  0  0  0  0  0  0
    5.5953    0.3087   -1.1238 H   0  0  0  0  0  0  0  0  0  0  0  0
    4.6589   -1.4078   -2.0690 C   0  0  0  0  0  0  0  0  0  0  0  0
    3.6670   -1.8963   -2.1184 H   0  0  0  0  0  0  0  0  0  0  0  0
    4.9283   -1.0684   -3.0890 H   0  0  0  0  0  0  0  0  0  0  0  0
    5.4228   -2.1459   -1.7532 H   0  0  0  0  0  0  0  0  0  0  0  0
   -0.1656    3.2702   -0.8074 C   0  0  0  0  0  0  0  0  0  0  0  0
   -0.9076    3.1165    0.0025 H   0  0  0  0  0  0  0  0  0  0  0  0
   -0.1140    4.3421   -1.0726 H   0  0  0  0  0  0  0  0  0  0  0  0
   -0.5237    2.6930   -1.6844 H   0  0  0  0  0  0  0  0  0  0  0  0
    4.7700    2.6792    0.5890 C   0  0  0  0  0  0  0  0  0  0  0  0
    5.4589    2.2714   -0.1788 H   0  0  0  0  0  0  0  0  0  0  0  0
    5.0003    3.7539    0.7083 H   0  0  0  0  0  0  0  0  0  0  0  0
    4.9975    2.1706    1.5473 H   0  0  0  0  0  0  0  0  0  0  0  0
  1  6  1  0  0  0  0
  2 24  1  6  0  0  0
  2  3  1  0  0  0  0
  2  1  1  0  0  0  0
  3  5  2  0  0  0  0
  4  3  1  0  0  0  0
  5  6  1  0  0  0  0
  5 28  1  0  0  0  0
  6  7  1  0  0  0  0
  7  8  2  0  0  0  0
  9  7  1  0  0  0  0
  9 10  1  0  0  0  0
 10 12  1  0  0  0  0
 11 10  1  0  0  0  0
 13 10  1  0  0  0  0
 13 16  1  0  0  0  0
 13 15  1  0  0  0  0
 14 13  1  0  0  0  0
 17 19  1  0  0  0  0
 17  9  1  0  0  0  0
 18 17  1  0  0  0  0
 20 23  1  0  0  0  0
 20 17  1  0  0  0  0
 21 20  1  0  0  0  0
 22 20  1  0  0  0  0
 24 25  1  0  0  0  0
 26 24  1  0  0  0  0
 27 24  1  0  0  0  0
 28 30  1  0  0  0  0
 28 31  1  0  0  0  0
 29 28  1  0  0  0  0
M  END
