24
q = 0.0, confidence = 0.978

 25 25  0  0  0  0  0  0  0  0999 V2000
    1.1005    2.8008   -0.0462 C   0  0  0  0  0  3  0  0  0  0  0  0
    0.0995    3.1268    0.2523 H   0  0  0  0  0  0  0  0  0  0  0  0
    2.2503    3.5503   -0.3776 C   0  0  0  0  0  0  0  0  0  0  0  0
    2.3539    4.6391   -0.3950 H   0  0  0  0  0  0  0  0  0  0  0  0
    3.2238    2.6037   -0.6773 C   0  0  0  0  0  0  0  0  0  0  0  0
    4.2668    2.6869   -0.9986 H   0  0  0  0  0  0  0  0  0  0  0  0
    2.6643    1.3711   -0.5046 N   0  0  0  0  0  0  0  0  0  0  0  0
    3.3854    0.1168   -0.7744 C   0  0  0  0  0  0  0  0  0  0  0  0
    2.9790   -0.5069    1.6246 C   0  0  0  0  0  0  0  0  0  0  0  0
    2.1080    0.1712    1.6844 H   0  0  0  0  0  0  0  0  0  0  0  0
    2.6295   -1.4561    2.0777 H   0  0  0  0  0  0  0  0  0  0  0  0
    4.1644    0.0636    2.4028 C   0  0  0  0  0  0  0  0  0  0  0  0
    4.4770    1.0427    1.9859 H   0  0  0  0  0  0  0  0  0  0  0  0
    3.8818    0.2232    3.4625 H   0  0  0  0  0  0  0  0  0  0  0  0
    5.0421   -0.6145    2.3808 H   0  0  0  0  0  0  0  0  0  0  0  0
    3.8653   -2.1342   -0.0651 C   0  0  0  0  0  0  0  0  0  0  0  0
    4.4950   -2.0363   -0.9694 H   0  0  0  0  0  0  0  0  0  0  0  0
    4.5326   -2.4221    0.7751 H   0  0  0  0  0  0  0  0  0  0  0  0
    2.7688   -3.1758   -0.2823 C   0  0  0  0  0  0  0  0  0  0  0  0
    2.1196   -2.8670   -1.1260 H   0  0  0  0  0  0  0  0  0  0  0  0
    3.2159   -4.1642   -0.5101 H   0  0  0  0  0  0  0  0  0  0  0  0
    2.1365   -3.2907    0.6225 H   0  0  0  0  0  0  0  0  0  0  0  0
    4.0216    0.0407   -1.8111 O   0  0  0  0  0  0  0  0  0  0  0  0
    1.3627    1.4859   -0.1394 N   0  0  0  0  0  2  0  0  0  0  0  0
    3.3128   -0.8052    0.2234 N   0  0  0  0  0  0  0  0  0  0  0  0
  1  2  1  0  0  0  0
  3  1  1  0  0  0  0
  4  3  1  0  0  0  0
  5  7  1  0  0  0  0
  5  3  2  0  0  0  0
  6  5  1  0  0  0  0
  7 24  1  0  0  0  0
  8  7  1  0  0  0  0
  8 25  1  0  0  0  0
  9 10  1  0  0  0  0
  9 11  1  0  0  0  0
  9 12  1  0  0  0  0
 12 14  1  0  0  0  0
 13 12  1  0  0  0  0
 15 12  1  0  0  0  0
 16 25  1  0  0  0  0
 16 18  1  0  0  0  0
 17 16  1  0  0  0  0
 19 16  1  0  0  0  0
 19 22  1  0  0  0  0
 20 19  1  0  0  0  0
 21 19  1  0  0  0  0
 23  8  2  0  0  0  0
 24  1  1  0  0  0  0
 25  9  1  0  0  0  0
M  END
