6
q = 0.0, confidence = 0.998

 24 23  0  0  0  0  0  0  0  0999 V2000
    3.1798   -2.9093   -2.1251 C   0  0  0  0  0  0  0  0  0  0  0  0
    4.6692   -1.1051   -2.6860 C   0  0  0  0  0  0  0  0  0  0  0  0
    3.9495   -1.7763   -1.6015 N   0  0  0  0  0  0  0  0  0  0  0  0
    4.8813   -2.1758   -0.5401 C   0  0  0  0  0  0  0  0  0  0  0  0
    4.1864   -2.6360    0.7387 C   0  0  0  0  0  0  0  0  0  0  0  0
    3.4412   -1.5726    1.4365 N   0  0  0  0  0  0  0  0  0  0  0  0
    4.3303   -0.6592    2.1685 C   0  0  0  0  0  0  0  0  0  0  0  0
    2.4476   -2.1645    2.3473 C   0  0  0  0  0  0  0  0  0  0  0  0
    3.8560   -3.7017   -2.5344 H   0  0  0  0  0  0  0  0  0  0  0  0
    2.5139   -3.3337   -1.3494 H   0  0  0  0  0  0  0  0  0  0  0  0
    2.5204   -2.5472   -2.9355 H   0  0  0  0  0  0  0  0  0  0  0  0
    5.4110   -1.7890   -3.1695 H   0  0  0  0  0  0  0  0  0  0  0  0
    3.9488   -0.7677   -3.4559 H   0  0  0  0  0  0  0  0  0  0  0  0
    5.1881   -0.2070   -2.2985 H   0  0  0  0  0  0  0  0  0  0  0  0
    5.5373   -1.3060   -0.3273 H   0  0  0  0  0  0  0  0  0  0  0  0
    5.5513   -3.0023   -0.8922 H   0  0  0  0  0  0  0  0  0  0  0  0
    4.9493   -3.0820    1.4232 H   0  0  0  0  0  0  0  0  0  0  0  0
    3.4623   -3.4388    0.4991 H   0  0  0  0  0  0  0  0  0  0  0  0
    4.8945   -1.2005    2.9667 H   0  0  0  0  0  0  0  0  0  0  0  0
    5.0462   -0.1719    1.4791 H   0  0  0  0  0  0  0  0  0  0  0  0
    3.7240    0.1429    2.6322 H   0  0  0  0  0  0  0  0  0  0  0  0
    2.9476   -2.7792    3.1350 H   0  0  0  0  0  0  0  0  0  0  0  0
    1.8676   -1.3546    2.8301 H   0  0  0  0  0  0  0  0  0  0  0  0
    1.7480   -2.7929    1.7632 H   0  0  0  0  0  0  0  0  0  0  0  0
  1  3  1  0  0  0  0
  1 10  1  0  0  0  0
  2 14  1  0  0  0  0
  2  3  1  0  0  0  0
  3  4  1  0  0  0  0
  4 15  1  0  0  0  0
  4  5  1  0  0  0  0
  5 17  1  0  0  0  0
  5  6  1  0  0  0  0
  6  7  1  0  0  0  0
  6  8  1  0  0  0  0
  7 21  1  0  0  0  0
  7 19  1  0  0  0  0
  8 23  1  0  0  0  0
  8 22  1  0  0  0  0
  9  1  1  0  0  0  0
 11  1  1  0  0  0  0
 12  2  1  0  0  0  0
 13  2  1  0  0  0  0
 16  4  1  0  0  0  0
 18  5  1  0  0  0  0
 20  7  1  0  0  0  0
 24  8  1  0  0  0  0
M  END
