2
q = 0.0, confidence = 0.986

 13 13  0  0  1  0  0  0  0  0999 V2000
   -0.6760   -1.1035   -2.1608 Cl  0  0  0  0  0  0  0  0  0  0  0  0
   -1.6550    0.1169   -0.0376 N   0  0  0  0  0  2  0  0  0  0  0  0
   -5.1769   -2.1547    0.0540 N   0  0  0  0  0  0  0  0  0  0  0  0
   -5.9230   -1.9171    0.7035 H   0  0  0  0  0  0  0  0  0  0  0  0
   -5.4048   -2.7851   -0.7112 H   0  0  0  0  0  0  0  0  0  0  0  0
   -1.8946   -0.8345   -0.9500 C   0  0  2  0  0  3  0  0  0  0  0  0
   -3.7710   -0.4096    0.9940 C   0  0  0  0  0  0  0  0  0  0  0  0
   -4.4924   -0.2019    1.7976 H   0  0  0  0  0  0  0  0  0  0  0  0
   -3.0479   -1.6206   -0.9744 C   0  0  0  0  0  0  0  0  0  0  0  0
   -3.1726   -2.3825   -1.7557 H   0  0  0  0  0  0  0  0  0  0  0  0
   -2.5893    0.3141    0.9247 C   0  0  0  0  0  0  0  0  0  0  0  0
   -2.3214    1.0983    1.6574 H   0  0  0  0  0  0  0  0  0  0  0  0
   -4.0357   -1.4110    0.0204 C   0  0  0  0  0  0  0  0  0  0  0  0
  2 11  1  0  0  0  0
  3  4  1  0  0  0  0
  5  3  1  0  0  0  0
  6  1  1  1  0  0  0
  6  2  1  0  0  0  0
  7  8  1  0  0  0  0
  9  6  1  0  0  0  0
  9 13  2  0  0  0  0
 10  9  1  0  0  0  0
 11  7  2  0  0  0  0
 11 12  1  0  0  0  0
 13  3  1  0  0  0  0
 13  7  1  0  0  0  0
M  END
