2
q = 0.0, confidence = 0.99

 13 13  0  0  0  0  0  0  0  0999 V2000
    7.0827    0.1704   -0.0258 S   0  0  0  0  0  0  0  0  0  0  0  0
    0.7829   -0.6683    0.7746 N   0  0  0  0  0  2  0  0  0  0  0  0
    4.3110   -0.1487    0.0220 N   0  0  0  0  0  0  0  0  0  0  0  0
    0.8146   -0.8052    2.1235 C   0  0  0  0  0  3  0  0  0  0  0  0
    2.0087   -0.7331    2.8500 C   0  0  0  0  0  0  0  0  0  0  0  0
    3.2147   -0.5121    2.1816 C   0  0  0  0  0  0  0  0  0  0  0  0
    3.1884   -0.3670    0.7734 C   0  0  0  0  0  0  0  0  0  0  0  0
    1.9406   -0.4549    0.1170 C   0  0  0  0  0  0  0  0  0  0  0  0
    5.5264   -0.0163    0.0580 C   0  0  0  0  0  0  0  0  0  0  0  0
   -0.1455   -0.9909    2.6244 H   0  0  0  0  0  0  0  0  0  0  0  0
    1.9859   -0.8589    3.9418 H   0  0  0  0  0  0  0  0  0  0  0  0
    4.1704   -0.4566    2.7230 H   0  0  0  0  0  0  0  0  0  0  0  0
    1.9018   -0.3582   -0.9770 H   0  0  0  0  0  0  0  0  0  0  0  0
  1  9  2  0  0  0  0
  2  4  1  0  0  0  0
  3  9  2  0  0  0  0
  3  7  1  0  0  0  0
  4 10  1  0  0  0  0
  4  5  1  0  0  0  0
  5 11  1  0  0  0  0
  6 12  1  0  0  0  0
  6  5  2  0  0  0  0
  7  6  1  0  0  0  0
  8  7  2  0  0  0  0
  8  2  1  0  0  0  0
 13  8  1  0  0  0  0
M  END
