1
q = 0.0, confidence = 0.998

 25 26  0  0  0  0  0  0  0  0999 V2000
    1.8290    0.9728   -1.3648 N   0  0  0  0  0  2  0  0  0  0  0  0
    1.8676    0.3711    1.5801 N   0  0  0  0  0  0  0  0  0  0  0  0
    1.3577    1.3070    1.4888 H   0  0  0  0  0  0  0  0  0  0  0  0
    2.0142    1.6268   -2.5397 C   0  0  0  0  0  3  0  0  0  0  0  0
    1.0989    2.0117   -3.0113 H   0  0  0  0  0  0  0  0  0  0  0  0
    3.2731    1.7834   -3.1195 C   0  0  0  0  0  0  0  0  0  0  0  0
    3.3651    2.3090   -4.0798 H   0  0  0  0  0  0  0  0  0  0  0  0
    4.3911    1.2561   -2.4537 C   0  0  0  0  0  0  0  0  0  0  0  0
    5.3996    1.3556   -2.8815 H   0  0  0  0  0  0  0  0  0  0  0  0
    4.2097    0.6265   -1.2212 C   0  0  0  0  0  0  0  0  0  0  0  0
    5.0607    0.2333   -0.6507 H   0  0  0  0  0  0  0  0  0  0  0  0
    2.9155    0.5028   -0.6715 C   0  0  0  0  0  0  0  0  0  0  0  0
    2.7059   -0.1464    0.6250 C   0  0  0  0  0  0  0  0  0  0  0  0
    3.2226   -1.3624    1.1279 C   0  0  0  0  0  0  0  0  0  0  0  0
    2.6531   -1.5677    2.4112 C   0  0  0  0  0  0  0  0  0  0  0  0
    2.8107   -2.4235    3.0737 H   0  0  0  0  0  0  0  0  0  0  0  0
    1.8269   -0.4687    2.6546 C   0  0  0  0  0  0  0  0  0  0  0  0
    4.1640   -2.2971    0.4444 C   0  0  0  0  0  0  0  0  0  0  0  0
    0.9337   -0.1850    3.8211 C   0  0  0  0  0  0  0  0  0  0  0  0
    3.8382   -2.4956   -0.8681 F   0  0  0  0  0  0  0  0  0  0  0  0
    4.1889   -3.5047    1.0425 F   0  0  0  0  0  0  0  0  0  0  0  0
    5.4504   -1.8314    0.4389 F   0  0  0  0  0  0  0  0  0  0  0  0
   -0.3751   -0.2274    3.4668 F   0  0  0  0  0  0  0  0  0  0  0  0
    1.1603    1.0472    4.3379 F   0  0  0  0  0  0  0  0  0  0  0  0
    1.1285   -1.0956    4.7990 F   0  0  0  0  0  0  0  0  0  0  0  0
  1 12  1  0  0  0  0
  2 17  1  0  0  0  0
  3  2  1  0  0  0  0
  4  1  1  0  0  0  0
  5  4  1  0  0  0  0
  6  4  1  0  0  0  0
  6  8  2  0  0  0  0
  7  6  1  0  0  0  0
  8 10  1  0  0  0  0
  9  8  1  0  0  0  0
 10 12  2  0  0  0  0
 10 11  1  0  0  0  0
 12 13  1  0  0  0  0
 13 14  2  0  0  0  0
 13  2  1  0  0  0  0
 14 15  1  0  0  0  0
 15 17  2  0  0  0  0
 15 16  1  0  0  0  0
 17 19  1  0  0  0  0
 18 21  1  0  0  0  0
 18 14  1  0  0  0  0
 19 24  1  0  0  0  0
 19 25  1  0  0  0  0
 20 18  1  0  0  0  0
 22 18  1  0  0  0  0
 23 19  1  0  0  0  0
M  END
