3
q = 0.0, confidence = 1.0

 61 65  0  0  1  0  0  0  0  0999 V2000
    2.4776    0.1235    0.2226 P   0  0  0  0  0  0  0  0  0  0  0  0
   -1.9292   -0.9328   -0.1131 P   0  0  0  0  0  0  0  0  0  0  0  0
    0.4520   -1.5402    1.3953 N   0  0  0  0  0  2  0  0  0  0  0  0
    3.6207   -1.1127   -0.4941 C   0  0  0  0  0  0  0  0  0  0  0  0
    3.0982   -2.0728   -1.3841 C   0  0  0  0  0  0  0  0  0  0  0  0
    3.9366   -3.0635   -1.9188 C   0  0  0  0  0  0  0  0  0  0  0  0
    5.2946   -3.0974   -1.5669 C   0  0  0  0  0  0  0  0  0  0  0  0
    5.8192   -2.1408   -0.6800 C   0  0  0  0  0  0  0  0  0  0  0  0
    4.9875   -1.1490   -0.1426 C   0  0  0  0  0  0  0  0  0  0  0  0
    3.3255    1.7376    0.0886 C   0  0  0  0  0  0  0  0  0  0  0  0
    3.0206    2.7809    0.9905 C   0  0  0  0  0  0  0  0  0  0  0  0
    3.5713    4.0568    0.8064 C   0  0  0  0  0  0  0  0  0  0  0  0
    4.4168    4.3096   -0.2865 C   0  0  0  0  0  0  0  0  0  0  0  0
    4.7110    3.2813   -1.1948 C   0  0  0  0  0  0  0  0  0  0  0  0
    4.1691    1.9999   -1.0125 C   0  0  0  0  0  0  0  0  0  0  0  0
   -3.0055   -1.2207   -1.5650 C   0  0  0  0  0  0  0  0  0  0  0  0
   -2.4857   -1.9713   -2.6430 C   0  0  0  0  0  0  0  0  0  0  0  0
   -3.2460   -2.1571   -3.8056 C   0  0  0  0  0  0  0  0  0  0  0  0
   -4.5230   -1.5809   -3.9107 C   0  0  0  0  0  0  0  0  0  0  0  0
   -5.0360   -0.8180   -2.8502 C   0  0  0  0  0  0  0  0  0  0  0  0
   -4.2832   -0.6346   -1.6801 C   0  0  0  0  0  0  0  0  0  0  0  0
   -2.9938   -0.2541    1.2131 C   0  0  0  0  0  0  0  0  0  0  0  0
   -2.6106    0.9424    1.8493 C   0  0  0  0  0  0  0  0  0  0  0  0
   -3.3911    1.4636    2.8925 C   0  0  0  0  0  0  0  0  0  0  0  0
   -4.5521    0.7933    3.3058 C   0  0  0  0  0  0  0  0  0  0  0  0
   -4.1618   -0.9286    1.6329 C   0  0  0  0  0  0  0  0  0  0  0  0
   -4.9370   -0.4030    2.6754 C   0  0  0  0  0  0  0  0  0  0  0  0
   -1.5399   -2.6562    0.5128 C   0  0  0  0  0  0  0  0  0  0  0  0
   -0.4461   -2.5628    1.5369 C   0  0  1  0  0  3  0  0  0  0  0  0
   -0.3219   -3.4919    2.5800 C   0  0  0  0  0  0  0  0  0  0  0  0
    0.7537   -3.3929    3.4700 C   0  0  0  0  0  0  0  0  0  0  0  0
    1.6824   -2.3588    3.3010 C   0  0  0  0  0  0  0  0  0  0  0  0
    1.5065   -1.4349    2.2616 C   0  0  0  0  0  0  0  0  0  0  0  0
    2.4485   -0.2841    2.0494 C   0  0  0  0  0  0  0  0  0  0  0  0
    2.0276   -2.0279   -1.6445 H   0  0  0  0  0  0  0  0  0  0  0  0
    3.5283   -3.8104   -2.6159 H   0  0  0  0  0  0  0  0  0  0  0  0
    5.9525   -3.8724   -1.9879 H   0  0  0  0  0  0  0  0  0  0  0  0
    6.8849   -2.1674   -0.4077 H   0  0  0  0  0  0  0  0  0  0  0  0
    5.4055   -0.3947    0.5427 H   0  0  0  0  0  0  0  0  0  0  0  0
    2.3442    2.6060    1.8413 H   0  0  0  0  0  0  0  0  0  0  0  0
    3.3374    4.8600    1.5211 H   0  0  0  0  0  0  0  0  0  0  0  0
    4.8457    5.3123   -0.4304 H   0  0  0  0  0  0  0  0  0  0  0  0
    5.3703    3.4752   -2.0540 H   0  0  0  0  0  0  0  0  0  0  0  0
    4.4078    1.1984   -1.7277 H   0  0  0  0  0  0  0  0  0  0  0  0
   -1.4736   -2.4034   -2.5794 H   0  0  0  0  0  0  0  0  0  0  0  0
   -2.8367   -2.7490   -4.6378 H   0  0  0  0  0  0  0  0  0  0  0  0
   -5.1173   -1.7231   -4.8255 H   0  0  0  0  0  0  0  0  0  0  0  0
   -6.0333   -0.3604   -2.9321 H   0  0  0  0  0  0  0  0  0  0  0  0
   -4.6876   -0.0294   -0.8557 H   0  0  0  0  0  0  0  0  0  0  0  0
   -1.7044    1.4676    1.5120 H   0  0  0  0  0  0  0  0  0  0  0  0
   -3.0908    2.4039    3.3781 H   0  0  0  0  0  0  0  0  0  0  0  0
   -5.1645    1.2035    4.1228 H   0  0  0  0  0  0  0  0  0  0  0  0
   -4.4769   -1.8610    1.1383 H   0  0  0  0  0  0  0  0  0  0  0  0
   -5.8483   -0.9286    2.9978 H   0  0  0  0  0  0  0  0  0  0  0  0
   -1.1782   -3.2298   -0.3677 H   0  0  0  0  0  0  0  0  0  0  0  0
   -2.4315   -3.1812    0.9080 H   0  0  0  0  0  0  0  0  0  0  0  0
   -1.0639   -4.2967    2.6756 H   0  0  0  0  0  0  0  0  0  0  0  0
    0.8705   -4.1195    4.2874 H   0  0  0  0  0  0  0  0  0  0  0  0
    2.5412   -2.2527    3.9781 H   0  0  0  0  0  0  0  0  0  0  0  0
    3.4571   -0.4911    2.4578 H   0  0  0  0  0  0  0  0  0  0  0  0
    2.0525    0.6169    2.5651 H   0  0  0  0  0  0  0  0  0  0  0  0
  1 34  1  0  0  0  0
  2 28  1  0  0  0  0
  2 22  1  0  0  0  0
  3 29  1  0  0  0  0
  3 33  1  0  0  0  0
  4  9  1  0  0  0  0
  4  1  1  0  0  0  0
  5  4  2  0  0  0  0
  6  7  2  0  0  0  0
  6  5  1  0  0  0  0
  7  8  1  0  0  0  0
  8 38  1  0  0  0  0
  8  9  2  0  0  0  0
  9 39  1  0  0  0  0
 10  1  1  0  0  0  0
 10 11  1  0  0  0  0
 11 40  1  0  0  0  0
 12 11  2  0  0  0  0
 12 41  1  0  0  0  0
 13 12  1  0  0  0  0
 14 15  1  0  0  0  0
 14 13  2  0  0  0  0
 15 10  2  0  0  0  0
 16  2  1  0  0  0  0
 17 45  1  0  0  0  0
 17 16  2  0  0  0  0
 18 17  1  0  0  0  0
 19 18  2  0  0  0  0
 19 20  1  0  0  0  0
 20 21  2  0  0  0  0
 21 16  1  0  0  0  0
 21 49  1  0  0  0  0
 22 26  2  0  0  0  0
 22 23  1  0  0  0  0
 23 24  2  0  0  0  0
 24 25  1  0  0  0  0
 24 51  1  0  0  0  0
 25 52  1  0  0  0  0
 26 27  1  0  0  0  0
 27 54  1  0  0  0  0
 27 25  2  0  0  0  0
 28 56  1  0  0  0  0
 29 28  1  6  0  0  0
 29 30  1  0  0  0  0
 30 57  1  0  0  0  0
 30 31  2  0  0  0  0
 31 58  1  0  0  0  0
 32 31  1  0  0  0  0
 32 59  1  0  0  0  0
 33 32  2  0  0  0  0
 34 33  1  0  0  0  0
 34 60  1  0  0  0  0
 34 61  1  0  0  0  0
 35  5  1  0  0  0  0
 36  6  1  0  0  0  0
 37  7  1  0  0  0  0
 42 13  1  0  0  0  0
 43 14  1  0  0  0  0
 44 15  1  0  0  0  0
 46 18  1  0  0  0  0
 47 19  1  0  0  0  0
 48 20  1  0  0  0  0
 50 23  1  0  0  0  0
 53 26  1  0  0  0  0
 55 28  1  0  0  0  0
M  END
