2
q = 0.0, confidence = 0.994

 29 31  0  0  1  0  0  0  0  0999 V2000
    0.9877    2.8604   -0.0060 S   0  0  0  0  0  0  0  0  0  0  0  0
   -0.8917    1.0885   -0.5347 N   0  0  0  0  0  2  0  0  0  0  0  0
    2.6106    0.4564   -0.2668 N   0  0  0  0  0  0  0  0  0  0  0  0
    1.3101    0.2227   -0.5154 N   0  0  0  0  0  0  0  0  0  0  0  0
    0.9405   -0.6642   -0.9833 H   0  0  0  0  0  0  0  0  0  0  0  0
    8.9531   -0.0333    0.4319 F   0  0  0  0  0  0  0  0  0  0  0  0
   -1.5526    2.3112   -0.3860 C   0  0  0  0  0  0  0  0  0  0  0  0
    0.4225    1.2361   -0.3957 C   0  0  2  0  0  3  0  0  0  0  0  0
   -2.9354    2.5416   -0.5161 C   0  0  0  0  0  0  0  0  0  0  0  0
   -3.5783    1.7065   -0.8316 H   0  0  0  0  0  0  0  0  0  0  0  0
    3.4454   -0.5139   -0.4972 C   0  0  0  0  0  0  0  0  0  0  0  0
    3.0882   -1.4883   -0.8958 H   0  0  0  0  0  0  0  0  0  0  0  0
   -0.6908    3.3970   -0.0597 C   0  0  0  0  0  0  0  0  0  0  0  0
    4.8751   -0.3690   -0.2492 C   0  0  0  0  0  0  0  0  0  0  0  0
   -1.1855    4.6893    0.1641 C   0  0  0  0  0  0  0  0  0  0  0  0
   -0.5069    5.5168    0.4170 H   0  0  0  0  0  0  0  0  0  0  0  0
    5.4259    0.8336    0.2604 C   0  0  0  0  0  0  0  0  0  0  0  0
    4.7491    1.6745    0.4697 H   0  0  0  0  0  0  0  0  0  0  0  0
    5.7439   -1.4515   -0.5216 C   0  0  0  0  0  0  0  0  0  0  0  0
    5.3294   -2.3905   -0.9206 H   0  0  0  0  0  0  0  0  0  0  0  0
   -3.4266    3.8341   -0.2954 C   0  0  0  0  0  0  0  0  0  0  0  0
   -4.5054    4.0218   -0.4041 H   0  0  0  0  0  0  0  0  0  0  0  0
   -2.5675    4.8981    0.0484 C   0  0  0  0  0  0  0  0  0  0  0  0
   -2.9781    5.9050    0.2153 H   0  0  0  0  0  0  0  0  0  0  0  0
    6.7974    0.9494    0.4904 C   0  0  0  0  0  0  0  0  0  0  0  0
    7.2414    1.8749    0.8843 H   0  0  0  0  0  0  0  0  0  0  0  0
    7.1212   -1.3468   -0.2950 C   0  0  0  0  0  0  0  0  0  0  0  0
    7.8075   -2.1797   -0.5035 H   0  0  0  0  0  0  0  0  0  0  0  0
    7.6319   -0.1447    0.2097 C   0  0  0  0  0  0  0  0  0  0  0  0
  2  8  1  0  0  0  0
  2  7  1  0  0  0  0
  4  3  1  0  0  0  0
  5  4  1  0  0  0  0
  7 13  1  0  0  0  0
  8  4  1  1  0  0  0
  8  1  1  0  0  0  0
  9  7  2  0  0  0  0
  9 21  1  0  0  0  0
 10  9  1  0  0  0  0
 11  3  2  0  0  0  0
 11 14  1  0  0  0  0
 12 11  1  0  0  0  0
 13  1  1  0  0  0  0
 13 15  2  0  0  0  0
 14 17  1  0  0  0  0
 15 16  1  0  0  0  0
 17 18  1  0  0  0  0
 17 25  2  0  0  0  0
 19 27  1  0  0  0  0
 19 14  2  0  0  0  0
 20 19  1  0  0  0  0
 21 23  2  0  0  0  0
 22 21  1  0  0  0  0
 23 15  1  0  0  0  0
 23 24  1  0  0  0  0
 25 26  1  0  0  0  0
 27 29  2  0  0  0  0
 28 27  1  0  0  0  0
 29  6  1  0  0  0  0
 29 25  1  0  0  0  0
M  END
