1
q = 0.0, confidence = 0.972

 13 12  0  0  0  0  0  0  0  0999 V2000
   -0.1161   -1.6607    1.8998 N   0  0  0  0  0  0  0  0  0  0  0  0
    1.1990   -2.0861    2.4373 C   0  0  0  0  0  0  0  0  0  0  0  0
   -1.1493   -2.6389    2.3135 C   0  0  0  0  0  0  0  0  0  0  0  0
   -0.4569   -0.3517    2.5084 C   0  0  0  0  0  0  0  0  0  0  0  0
    1.4343   -3.1100    2.0950 H   0  0  0  0  0  0  0  0  0  0  0  0
    1.9887   -1.3995    2.0805 H   0  0  0  0  0  0  0  0  0  0  0  0
    1.1773   -2.0805    3.5507 H   0  0  0  0  0  0  0  0  0  0  0  0
   -2.1358   -2.3168    1.9311 H   0  0  0  0  0  0  0  0  0  0  0  0
   -0.9063   -3.6381    1.9076 H   0  0  0  0  0  0  0  0  0  0  0  0
   -1.1970   -2.7038    3.4245 H   0  0  0  0  0  0  0  0  0  0  0  0
    0.2745    0.4090    2.1841 H   0  0  0  0  0  0  0  0  0  0  0  0
   -1.4650   -0.0380    2.1889 H   0  0  0  0  0  0  0  0  0  0  0  0
   -0.4329   -0.4420    3.6175 H   0  0  0  0  0  0  0  0  0  0  0  0
  1  3  1  0  0  0  0
  1  2  1  0  0  0  0
  1  4  1  0  0  0  0
  2  7  1  0  0  0  0
  3 10  1  0  0  0  0
  4 13  1  0  0  0  0
  5  2  1  0  0  0  0
  6  2  1  0  0  0  0
  8  3  1  0  0  0  0
  9  3  1  0  0  0  0
 11  4  1  0  0  0  0
 12  4  1  0  0  0  0
M  END
