7
q = 0.0, confidence = 0.992

 14 15  0  0  1  0  0  0  0  0999 V2000
   -0.6438    1.0605   -1.5741 Se  0  0  0  0  0  1  0  0  0  0  0  0
   -3.4831    1.1993   -0.8766 N   0  0  0  0  0  0  0  0  0  0  0  0
   -2.8264   -1.2845    2.1818 N   0  0  0  0  0  0  0  0  0  0  0  0
   -2.1215   -0.0488    0.5090 C   0  0  0  0  0  0  0  0  0  0  0  0
   -3.2732   -0.4107    1.2160 C   0  0  0  0  0  0  0  0  0  0  0  0
   -4.5230    0.0195    0.9278 N   0  0  0  0  0  0  0  0  0  0  0  0
   -1.0131   -0.6713    1.0212 N   0  0  0  0  0  2  0  0  0  0  0  0
   -2.1889    0.7763   -0.6260 C   0  0  1  0  0  3  0  0  0  0  0  0
   -1.4637   -1.4235    2.0279 C   0  0  0  0  0  3  0  0  0  0  0  0
   -4.5716    0.8181   -0.1140 C   0  0  0  0  0  0  0  0  0  0  0  0
   -5.5395    1.2316   -0.4415 H   0  0  0  0  0  0  0  0  0  0  0  0
   -0.8550   -2.0861    2.6523 H   0  0  0  0  0  0  0  0  0  0  0  0
   -3.4049   -1.7607    2.8800 H   0  0  0  0  0  0  0  0  0  0  0  0
   -3.6536    1.7990   -1.6923 H   0  0  0  0  0  0  0  0  0  0  0  0
  2  8  1  0  0  0  0
  2 10  1  0  0  0  0
  3 13  1  0  0  0  0
  4  7  1  0  0  0  0
  4  5  2  0  0  0  0
  5  3  1  0  0  0  0
  6  5  1  0  0  0  0
  7  9  1  0  0  0  0
  8  1  1  6  0  0  0
  8  4  1  0  0  0  0
  9  3  1  0  0  0  0
  9 12  1  0  0  0  0
 10  6  2  0  0  0  0
 11 10  1  0  0  0  0
 14  2  1  0  0  0  0
M  END
