3
q = 0.0, confidence = 0.99

 19 19  0  0  1  0  0  0  0  0999 V2000
   -0.4475    2.0160   -1.1384 O   0  0  0  0  0  0  0  0  0  0  0  0
   -0.4481   -2.0155    1.1387 O   0  0  0  0  0  0  0  0  0  0  0  0
    0.9889   -0.0001   -0.0003 N   0  0  0  0  0  2  0  0  0  0  0  0
    0.7833    2.3610   -0.5313 C   0  0  0  0  0  0  0  0  0  0  0  0
    0.6031    2.8343    0.4630 H   0  0  0  0  0  0  0  0  0  0  0  0
    1.3429    3.0911   -1.1566 H   0  0  0  0  0  0  0  0  0  0  0  0
    1.6473    1.1381   -0.2921 C   0  0  1  0  0  3  0  0  0  0  0  0
    3.0498    1.1707   -0.3093 C   0  0  0  0  0  0  0  0  0  0  0  0
    3.5748    2.1038   -0.5608 H   0  0  0  0  0  0  0  0  0  0  0  0
    3.7548   -0.0006    0.0003 C   0  0  0  0  0  0  0  0  0  0  0  0
    4.8553   -0.0008    0.0006 H   0  0  0  0  0  0  0  0  0  0  0  0
    3.0492   -1.1716    0.3097 C   0  0  0  0  0  0  0  0  0  0  0  0
    3.5738   -2.1049    0.5615 H   0  0  0  0  0  0  0  0  0  0  0  0
    1.6468   -1.1385    0.2919 C   0  0  0  0  0  0  0  0  0  0  0  0
    0.7821   -2.3610    0.5306 C   0  0  0  0  0  0  0  0  0  0  0  0
    0.6008   -2.8331   -0.4641 H   0  0  0  0  0  0  0  0  0  0  0  0
    1.3415   -3.0922    1.1548 H   0  0  0  0  0  0  0  0  0  0  0  0
   -1.1656   -2.3075    0.5117 H   0  0  0  0  0  0  0  0  0  0  0  0
   -1.1645    2.3079   -0.5108 H   0  0  0  0  0  0  0  0  0  0  0  0
  1  4  1  0  0  0  0
  1 19  1  0  0  0  0
  3 14  1  0  0  0  0
  4  5  1  0  0  0  0
  6  4  1  0  0  0  0
  7  4  1  1  0  0  0
  7  3  1  0  0  0  0
  8  7  1  0  0  0  0
  8 10  2  0  0  0  0
  9  8  1  0  0  0  0
 10 11  1  0  0  0  0
 10 12  1  0  0  0  0
 12 13  1  0  0  0  0
 14 12  2  0  0  0  0
 14 15  1  0  0  0  0
 15  2  1  0  0  0  0
 15 17  1  0  0  0  0
 16 15  1  0  0  0  0
 18  2  1  0  0  0  0
M  END
