5
q = 0.0, confidence = 0.996

 51 53  0  0  1  0  0  0  0  0999 V2000
   -2.1189    1.1757    0.4447 O   0  0  0  0  0  0  0  0  0  0  0  0
    2.1188    1.1757    0.4447 O   0  0  0  0  0  0  0  0  0  0  0  0
   -2.8243    1.8381    0.5688 H   0  0  0  0  0  0  0  0  0  0  0  0
    2.8245    1.8376    0.5695 H   0  0  0  0  0  0  0  0  0  0  0  0
    0.0000    0.1246   -0.6600 N   0  0  0  0  0  2  0  0  0  0  0  0
   -2.0933   -1.5083    1.7060 C   0  0  0  0  0  0  0  0  0  0  0  0
   -1.2669   -1.9676    1.1225 H   0  0  0  0  0  0  0  0  0  0  0  0
   -2.2256   -2.1235    2.6162 H   0  0  0  0  0  0  0  0  0  0  0  0
   -1.7398   -0.5029    2.0091 H   0  0  0  0  0  0  0  0  0  0  0  0
   -3.3704   -1.4754    0.9013 C   0  0  0  0  0  0  0  0  0  0  0  0
   -4.4316   -2.3241    1.2759 C   0  0  0  0  0  0  0  0  0  0  0  0
   -4.2993   -2.9642    2.1624 H   0  0  0  0  0  0  0  0  0  0  0  0
   -5.6359   -2.3785    0.5597 C   0  0  0  0  0  0  0  0  0  0  0  0
   -6.4395   -3.0562    0.8859 H   0  0  0  0  0  0  0  0  0  0  0  0
   -5.8053   -1.5675   -0.5685 C   0  0  0  0  0  0  0  0  0  0  0  0
   -6.7415   -1.5961   -1.1459 H   0  0  0  0  0  0  0  0  0  0  0  0
   -4.7683   -0.7063   -0.9568 C   0  0  0  0  0  0  0  0  0  0  0  0
   -4.9136   -0.0695   -1.8402 H   0  0  0  0  0  0  0  0  0  0  0  0
   -3.5573   -0.6416   -0.2420 C   0  0  0  0  0  0  0  0  0  0  0  0
   -2.4527    0.3327   -0.6713 C   0  0  1  0  0  0  0  0  0  0  0  0
   -2.7892    1.2358   -1.8722 C   0  0  0  0  0  0  0  0  0  0  0  0
   -3.7094    1.8214   -1.6708 H   0  0  0  0  0  0  0  0  0  0  0  0
   -2.9407    0.6551   -2.8019 H   0  0  0  0  0  0  0  0  0  0  0  0
   -1.9470    1.9447   -2.0093 H   0  0  0  0  0  0  0  0  0  0  0  0
   -1.1689   -0.4236   -1.0383 C   0  0  1  0  0  3  0  0  0  0  0  0
   -1.2100   -1.5872   -1.8212 C   0  0  0  0  0  0  0  0  0  0  0  0
   -2.1796   -2.0223   -2.1006 H   0  0  0  0  0  0  0  0  0  0  0  0
    0.0000   -2.1756   -2.2107 C   0  0  0  0  0  0  0  0  0  0  0  0
    0.0000   -3.0946   -2.8158 H   0  0  0  0  0  0  0  0  0  0  0  0
    1.2100   -1.5872   -1.8212 C   0  0  0  0  0  0  0  0  0  0  0  0
    2.1797   -2.0223   -2.1007 H   0  0  0  0  0  0  0  0  0  0  0  0
    1.1689   -0.4236   -1.0383 C   0  0  0  0  0  0  0  0  0  0  0  0
    2.4527    0.3327   -0.6713 C   0  0  1  0  0  0  0  0  0  0  0  0
    2.7891    1.2360   -1.8721 C   0  0  0  0  0  0  0  0  0  0  0  0
    1.9469    1.9448   -2.0091 H   0  0  0  0  0  0  0  0  0  0  0  0
    2.9407    0.6553   -2.8019 H   0  0  0  0  0  0  0  0  0  0  0  0
    3.7093    1.8216   -1.6706 H   0  0  0  0  0  0  0  0  0  0  0  0
    3.5573   -0.6416   -0.2420 C   0  0  0  0  0  0  0  0  0  0  0  0
    4.7683   -0.7062   -0.9568 C   0  0  0  0  0  0  0  0  0  0  0  0
    4.9136   -0.0693   -1.8402 H   0  0  0  0  0  0  0  0  0  0  0  0
    5.8054   -1.5674   -0.5686 C   0  0  0  0  0  0  0  0  0  0  0  0
    6.7415   -1.5960   -1.1460 H   0  0  0  0  0  0  0  0  0  0  0  0
    5.6360   -2.3785    0.5596 C   0  0  0  0  0  0  0  0  0  0  0  0
    6.4395   -3.0561    0.8858 H   0  0  0  0  0  0  0  0  0  0  0  0
    4.4317   -2.3240    1.2758 C   0  0  0  0  0  0  0  0  0  0  0  0
    4.2994   -2.9642    2.1623 H   0  0  0  0  0  0  0  0  0  0  0  0
    3.3704   -1.4754    0.9013 C   0  0  0  0  0  0  0  0  0  0  0  0
    2.0934   -1.5084    1.7059 C   0  0  0  0  0  0  0  0  0  0  0  0
    1.2671   -1.9681    1.1226 H   0  0  0  0  0  0  0  0  0  0  0  0
    1.7396   -0.5030    2.0088 H   0  0  0  0  0  0  0  0  0  0  0  0
    2.2258   -2.1234    2.6163 H   0  0  0  0  0  0  0  0  0  0  0  0
  1  3  1  0  0  0  0
  2  4  1  0  0  0  0
  6  9  1  0  0  0  0
  6  8  1  0  0  0  0
  7  6  1  0  0  0  0
 10 11  1  0  0  0  0
 10  6  1  0  0  0  0
 11 12  1  0  0  0  0
 13 14  1  0  0  0  0
 13 11  2  0  0  0  0
 15 13  1  0  0  0  0
 16 15  1  0  0  0  0
 17 15  2  0  0  0  0
 17 19  1  0  0  0  0
 18 17  1  0  0  0  0
 19 10  2  0  0  0  0
 20 19  1  0  0  0  0
 20  1  1  1  0  0  0
 21 22  1  0  0  0  0
 21 20  1  0  0  0  0
 23 21  1  0  0  0  0
 24 21  1  0  0  0  0
 25 20  1  6  0  0  0
 25  5  1  0  0  0  0
 26 25  1  0  0  0  0
 27 26  1  0  0  0  0
 28 30  1  0  0  0  0
 28 26  2  0  0  0  0
 29 28  1  0  0  0  0
 30 32  2  0  0  0  0
 31 30  1  0  0  0  0
 32 33  1  0  0  0  0
 32  5  1  0  0  0  0
 33 38  1  0  0  0  0
 33  2  1  1  0  0  0
 34 37  1  0  0  0  0
 34 33  1  0  0  0  0
 35 34  1  0  0  0  0
 36 34  1  0  0  0  0
 38 47  1  0  0  0  0
 39 41  1  0  0  0  0
 39 38  2  0  0  0  0
 40 39  1  0  0  0  0
 41 43  2  0  0  0  0
 42 41  1  0  0  0  0
 43 44  1  0  0  0  0
 43 45  1  0  0  0  0
 45 46  1  0  0  0  0
 47 45  2  0  0  0  0
 47 48  1  0  0  0  0
 48 50  1  0  0  0  0
 48 51  1  0  0  0  0
 49 48  1  0  0  0  0
M  END
