4
q = 0.0, confidence = 0.988

 29 28  0  0  1  0  0  0  0  0999 V2000
   -5.3592   -2.2092   -0.0093 O   0  0  0  0  0  0  0  0  0  0  0  0
   -3.2388    1.1397   -1.1858 O   0  0  0  0  0  0  0  0  0  0  0  0
   -4.0224    2.6796    0.2981 O   0  0  0  0  0  0  0  0  0  0  0  0
   -0.3444   -1.2516   -1.1908 N   0  0  0  0  0  2  0  0  0  0  0  0
   -1.7940   -2.5814    0.0281 N   0  0  0  0  0  0  0  0  0  0  0  0
   -3.7616   -0.7860    0.8320 N   0  0  0  0  0  0  0  0  0  0  0  0
   -1.4700   -1.9291   -1.1065 C   0  0  1  0  0  3  0  0  0  0  0  0
   -2.4326   -1.9334   -2.2622 C   0  0  0  0  0  0  0  0  0  0  0  0
   -3.1189   -3.0801    0.3266 C   0  0  0  0  0  0  0  0  0  0  0  0
   -4.2090   -1.9847    0.3627 C   0  0  0  0  0  0  0  0  0  0  0  0
   -4.5467    0.4149    0.7359 C   0  0  0  0  0  0  0  0  0  0  0  0
   -3.8565    1.4294   -0.1718 C   0  0  0  0  0  0  0  0  0  0  0  0
   -3.3078    3.7503   -0.3659 C   0  0  0  0  0  0  0  0  0  0  0  0
   -2.0735    4.1158    0.4415 C   0  0  0  0  0  0  0  0  0  0  0  0
   -0.1940   -0.8454   -2.1190 H   0  0  0  0  0  0  0  0  0  0  0  0
   -1.0574   -2.5748    0.7663 H   0  0  0  0  0  0  0  0  0  0  0  0
   -2.7579   -0.6553    1.0567 H   0  0  0  0  0  0  0  0  0  0  0  0
   -1.8983   -1.7223   -3.2072 H   0  0  0  0  0  0  0  0  0  0  0  0
   -3.1668   -1.1160   -2.0988 H   0  0  0  0  0  0  0  0  0  0  0  0
   -2.9783   -2.8897   -2.3611 H   0  0  0  0  0  0  0  0  0  0  0  0
   -3.0784   -3.5807    1.3147 H   0  0  0  0  0  0  0  0  0  0  0  0
   -3.4703   -3.8383   -0.4032 H   0  0  0  0  0  0  0  0  0  0  0  0
   -5.5288    0.1316    0.2970 H   0  0  0  0  0  0  0  0  0  0  0  0
   -4.7328    0.8839    1.7236 H   0  0  0  0  0  0  0  0  0  0  0  0
   -3.0501    3.4212   -1.3925 H   0  0  0  0  0  0  0  0  0  0  0  0
   -4.0277    4.5908   -0.4269 H   0  0  0  0  0  0  0  0  0  0  0  0
   -1.5086    4.9215   -0.0695 H   0  0  0  0  0  0  0  0  0  0  0  0
   -1.4064    3.2384    0.5589 H   0  0  0  0  0  0  0  0  0  0  0  0
   -2.3533    4.4727    1.4524 H   0  0  0  0  0  0  0  0  0  0  0  0
  1 10  2  0  0  0  0
  2 12  2  0  0  0  0
  5  9  1  0  0  0  0
  5 16  1  0  0  0  0
  6 17  1  0  0  0  0
  7  4  1  1  0  0  0
  7  5  1  0  0  0  0
  8 19  1  0  0  0  0
  8  7  1  0  0  0  0
  9 10  1  0  0  0  0
  9 21  1  0  0  0  0
 10  6  1  0  0  0  0
 11  6  1  0  0  0  0
 11 24  1  0  0  0  0
 12  3  1  0  0  0  0
 12 11  1  0  0  0  0
 13  3  1  0  0  0  0
 13 14  1  0  0  0  0
 14 28  1  0  0  0  0
 14 29  1  0  0  0  0
 15  4  1  0  0  0  0
 18  8  1  0  0  0  0
 20  8  1  0  0  0  0
 22  9  1  0  0  0  0
 23 11  1  0  0  0  0
 25 13  1  0  0  0  0
 26 13  1  0  0  0  0
 27 14  1  0  0  0  0
M  END
