2
q = 0.0, confidence = 0.986

 39 41  0  0  1  0  0  0  0  0999 V2000
    1.0949   -0.0716    0.2071 P   0  0  0  0  0  0  0  0  0  0  0  0
   -1.1118    1.5868    0.7434 N   0  0  0  0  0  2  0  0  0  0  0  0
    0.7713    0.5943    1.9371 C   0  0  0  0  0  0  0  0  0  0  0  0
   -2.6863    2.5673   -0.8887 C   0  0  0  0  0  0  0  0  0  0  0  0
    2.0196    1.2709   -0.6195 C   0  0  0  0  0  0  0  0  0  0  0  0
    1.4342    1.9021   -1.7355 C   0  0  0  0  0  0  0  0  0  0  0  0
    2.0934    2.9680   -2.3668 C   0  0  0  0  0  0  0  0  0  0  0  0
    3.3368    3.4055   -1.8850 C   0  0  0  0  0  0  0  0  0  0  0  0
    3.9255    2.7772   -0.7736 C   0  0  0  0  0  0  0  0  0  0  0  0
    3.2721    1.7116   -0.1399 C   0  0  0  0  0  0  0  0  0  0  0  0
   -0.2145    1.7184    1.7702 C   0  0  1  0  0  3  0  0  0  0  0  0
   -0.1659    2.8797    2.5501 C   0  0  0  0  0  0  0  0  0  0  0  0
   -1.0379    3.9364    2.2566 C   0  0  0  0  0  0  0  0  0  0  0  0
   -1.8808    3.8249    1.1479 C   0  0  0  0  0  0  0  0  0  0  0  0
   -1.8887    2.6447    0.3821 C   0  0  0  0  0  0  0  0  0  0  0  0
    2.2626   -1.4579    0.4128 C   0  0  0  0  0  0  0  0  0  0  0  0
    3.3063   -1.6547   -0.5167 C   0  0  0  0  0  0  0  0  0  0  0  0
    4.1423   -2.7758   -0.4054 C   0  0  0  0  0  0  0  0  0  0  0  0
    3.9449   -3.7058    0.6270 C   0  0  0  0  0  0  0  0  0  0  0  0
    2.9018   -3.5190    1.5495 C   0  0  0  0  0  0  0  0  0  0  0  0
    2.0580   -2.4054    1.4410 C   0  0  0  0  0  0  0  0  0  0  0  0
    0.3395   -0.2411    2.5268 H   0  0  0  0  0  0  0  0  0  0  0  0
    1.6964    0.9319    2.4457 H   0  0  0  0  0  0  0  0  0  0  0  0
   -2.4999    3.4733   -1.4992 H   0  0  0  0  0  0  0  0  0  0  0  0
   -3.7772    2.5315   -0.6922 H   0  0  0  0  0  0  0  0  0  0  0  0
   -2.4018    1.6752   -1.4800 H   0  0  0  0  0  0  0  0  0  0  0  0
    0.4579    1.5482   -2.1054 H   0  0  0  0  0  0  0  0  0  0  0  0
    1.6366    3.4560   -3.2406 H   0  0  0  0  0  0  0  0  0  0  0  0
    3.8552    4.2400   -2.3806 H   0  0  0  0  0  0  0  0  0  0  0  0
    4.9023    3.1195   -0.4003 H   0  0  0  0  0  0  0  0  0  0  0  0
    3.7431    1.2155    0.7233 H   0  0  0  0  0  0  0  0  0  0  0  0
    0.5613    2.9529    3.3706 H   0  0  0  0  0  0  0  0  0  0  0  0
   -1.0281    4.8542    2.8627 H   0  0  0  0  0  0  0  0  0  0  0  0
   -2.5260    4.6614    0.8433 H   0  0  0  0  0  0  0  0  0  0  0  0
    3.4703   -0.9271   -1.3257 H   0  0  0  0  0  0  0  0  0  0  0  0
    4.9564   -2.9208   -1.1311 H   0  0  0  0  0  0  0  0  0  0  0  0
    4.6048   -4.5817    0.7132 H   0  0  0  0  0  0  0  0  0  0  0  0
    2.7435   -4.2467    2.3593 H   0  0  0  0  0  0  0  0  0  0  0  0
    1.2337   -2.2807    2.1603 H   0  0  0  0  0  0  0  0  0  0  0  0
  1 16  1  0  0  0  0
  1  3  1  0  0  0  0
  2 11  1  0  0  0  0
  3 23  1  0  0  0  0
  3 22  1  0  0  0  0
  4 25  1  0  0  0  0
  4 15  1  0  0  0  0
  5 10  1  0  0  0  0
  5  1  1  0  0  0  0
  6  5  2  0  0  0  0
  7  8  2  0  0  0  0
  7  6  1  0  0  0  0
  8  9  1  0  0  0  0
  9 30  1  0  0  0  0
  9 10  2  0  0  0  0
 10 31  1  0  0  0  0
 11  3  1  6  0  0  0
 11 12  1  0  0  0  0
 12 32  1  0  0  0  0
 13 12  2  0  0  0  0
 13 33  1  0  0  0  0
 14 13  1  0  0  0  0
 15  2  1  0  0  0  0
 15 14  2  0  0  0  0
 16 21  1  0  0  0  0
 17 18  1  0  0  0  0
 17 16  2  0  0  0  0
 18 19  2  0  0  0  0
 19 37  1  0  0  0  0
 19 20  1  0  0  0  0
 20 38  1  0  0  0  0
 21 20  2  0  0  0  0
 21 39  1  0  0  0  0
 24  4  1  0  0  0  0
 26  4  1  0  0  0  0
 27  6  1  0  0  0  0
 28  7  1  0  0  0  0
 29  8  1  0  0  0  0
 34 14  1  0  0  0  0
 35 17  1  0  0  0  0
 36 18  1  0  0  0  0
M  END
