1
q = 0.0, confidence = 0.992

 23 23  0  0  0  0  0  0  0  0999 V2000
    2.0253    0.1069   -0.3198 N   0  0  0  0  0  0  0  0  0  0  0  0
    6.5009   -0.2906    0.1238 C   0  0  0  0  0  0  0  0  0  0  0  0
    7.3987   -0.1012    1.1938 C   0  0  0  0  0  0  0  0  0  0  0  0
    8.7700    0.0803    0.9604 C   0  0  0  0  0  0  0  0  0  0  0  0
    9.2677    0.0772   -0.3523 C   0  0  0  0  0  0  0  0  0  0  0  0
    8.3849   -0.1105   -1.4274 C   0  0  0  0  0  0  0  0  0  0  0  0
    7.0144   -0.2921   -1.1888 C   0  0  0  0  0  0  0  0  0  0  0  0
    5.0169   -0.4282    0.3756 C   0  0  0  0  0  0  0  0  0  0  0  0
    4.2941    0.9316    0.4012 C   0  0  0  0  0  0  0  0  0  0  0  0
    2.7970    0.8497    0.7034 C   0  0  0  0  0  0  0  0  0  0  0  0
    7.0149   -0.1023    2.2269 H   0  0  0  0  0  0  0  0  0  0  0  0
    9.4558    0.2208    1.8100 H   0  0  0  0  0  0  0  0  0  0  0  0
   10.3437    0.2164   -0.5370 H   0  0  0  0  0  0  0  0  0  0  0  0
    8.7668   -0.1201   -2.4598 H   0  0  0  0  0  0  0  0  0  0  0  0
    6.3274   -0.4445   -2.0372 H   0  0  0  0  0  0  0  0  0  0  0  0
    4.8438   -0.9472    1.3428 H   0  0  0  0  0  0  0  0  0  0  0  0
    4.5744   -1.0762   -0.4117 H   0  0  0  0  0  0  0  0  0  0  0  0
    4.7655    1.5794    1.1704 H   0  0  0  0  0  0  0  0  0  0  0  0
    4.4547    1.4556   -0.5677 H   0  0  0  0  0  0  0  0  0  0  0  0
    2.6157    0.3452    1.6743 H   0  0  0  0  0  0  0  0  0  0  0  0
    2.3459    1.8593    0.7693 H   0  0  0  0  0  0  0  0  0  0  0  0
    2.3046   -0.8884   -0.3654 H   0  0  0  0  0  0  0  0  0  0  0  0
    2.1753    0.5214   -1.2521 H   0  0  0  0  0  0  0  0  0  0  0  0
  1 10  1  0  0  0  0
  2  8  1  0  0  0  0
  2  3  1  0  0  0  0
  3 11  1  0  0  0  0
  4  3  2  0  0  0  0
  4 12  1  0  0  0  0
  5  4  1  0  0  0  0
  6  7  1  0  0  0  0
  6  5  2  0  0  0  0
  7  2  2  0  0  0  0
  8  9  1  0  0  0  0
  8 16  1  0  0  0  0
  9 10  1  0  0  0  0
  9 18  1  0  0  0  0
 10 21  1  0  0  0  0
 10 20  1  0  0  0  0
 13  5  1  0  0  0  0
 14  6  1  0  0  0  0
 15  7  1  0  0  0  0
 17  8  1  0  0  0  0
 19  9  1  0  0  0  0
 22  1  1  0  0  0  0
 23  1  1  0  0  0  0
M  END
