1
q = 0.0, confidence = 0.98

 23 22  0  0  0  0  0  0  0  0999 V2000
   -1.6185    0.5710   -1.1616 N   0  0  0  0  0  0  0  0  0  0  0  0
   -2.8118    0.9340   -0.4420 C   0  0  0  0  0  0  0  0  0  0  0  0
   -1.2118    1.3246   -1.7399 H   0  0  0  0  0  0  0  0  0  0  0  0
   -1.8708   -0.2386   -1.7597 H   0  0  0  0  0  0  0  0  0  0  0  0
   -2.9516    2.1451    0.1718 C   0  0  0  0  0  0  0  0  0  0  0  0
   -3.7687   -0.2117   -0.4894 C   0  0  0  0  0  0  0  0  0  0  0  0
   -1.8407    3.1596    0.1492 C   0  0  0  0  0  0  0  0  0  0  0  0
   -4.1792    2.5728    0.9275 C   0  0  0  0  0  0  0  0  0  0  0  0
   -3.6372   -1.1120   -1.3136 O   0  0  0  0  0  0  0  0  0  0  0  0
   -4.7411   -0.1815    0.4384 O   0  0  0  0  0  0  0  0  0  0  0  0
   -1.6793    3.5484    1.1773 H   0  0  0  0  0  0  0  0  0  0  0  0
   -0.8690    2.7788   -0.2209 H   0  0  0  0  0  0  0  0  0  0  0  0
   -2.1341    4.0393   -0.4654 H   0  0  0  0  0  0  0  0  0  0  0  0
   -4.3342    3.6647    0.8111 H   0  0  0  0  0  0  0  0  0  0  0  0
   -5.0923    2.0344    0.6263 H   0  0  0  0  0  0  0  0  0  0  0  0
   -4.0322    2.3843    2.0139 H   0  0  0  0  0  0  0  0  0  0  0  0
   -5.6266   -1.3272    0.4671 C   0  0  0  0  0  0  0  0  0  0  0  0
   -6.7335   -1.2199   -0.5682 C   0  0  0  0  0  0  0  0  0  0  0  0
   -5.0168   -2.2395    0.3112 H   0  0  0  0  0  0  0  0  0  0  0  0
   -6.0287   -1.3304    1.4986 H   0  0  0  0  0  0  0  0  0  0  0  0
   -7.4295   -2.0766   -0.4629 H   0  0  0  0  0  0  0  0  0  0  0  0
   -7.3165   -0.2862   -0.4370 H   0  0  0  0  0  0  0  0  0  0  0  0
   -6.3141   -1.2422   -1.5923 H   0  0  0  0  0  0  0  0  0  0  0  0
  1  2  1  0  0  0  0
  2  5  2  0  0  0  0
  3  1  1  0  0  0  0
  4  1  1  0  0  0  0
  5  8  1  0  0  0  0
  6  2  1  0  0  0  0
  6 10  1  0  0  0  0
  7  5  1  0  0  0  0
  7 11  1  0  0  0  0
  8 16  1  0  0  0  0
  9  6  2  0  0  0  0
 10 17  1  0  0  0  0
 12  7  1  0  0  0  0
 13  7  1  0  0  0  0
 14  8  1  0  0  0  0
 15  8  1  0  0  0  0
 17 20  1  0  0  0  0
 18 21  1  0  0  0  0
 18 22  1  0  0  0  0
 18 17  1  0  0  0  0
 19 17  1  0  0  0  0
 23 18  1  0  0  0  0
M  END
