2
q = 0.0, confidence = 0.988

 16 15  0  0  1  0  0  0  0  0999 V2000
   -2.7695    2.0010   -1.4614 Cl  0  0  0  0  0  0  0  0  0  0  0  0
   -2.0086   -0.8239   -0.4037 N   0  0  0  0  0  0  0  0  0  0  0  0
   -2.9113    0.0022    0.4166 C   0  0  1  0  0  0  0  0  0  0  0  0
   -2.6041    1.4827    0.2625 C   0  0  0  0  0  0  0  0  0  0  0  0
   -4.3590   -0.3852    0.1157 C   0  0  0  0  0  0  0  0  0  0  0  0
   -4.6720   -1.3988   -0.4816 O   0  0  0  0  0  0  0  0  0  0  0  0
   -5.2289    0.4966    0.6373 O   0  0  0  0  0  0  0  0  0  0  0  0
   -6.6186    0.1908    0.4353 C   0  0  0  0  0  0  0  0  0  0  0  0
   -2.3667   -1.7929   -0.4125 H   0  0  0  0  0  0  0  0  0  0  0  0
   -2.0519   -0.5065   -1.3907 H   0  0  0  0  0  0  0  0  0  0  0  0
   -2.6981   -0.2434    1.4846 H   0  0  0  0  0  0  0  0  0  0  0  0
   -3.3108    2.0826    0.8621 H   0  0  0  0  0  0  0  0  0  0  0  0
   -1.5634    1.6803    0.5827 H   0  0  0  0  0  0  0  0  0  0  0  0
   -7.1833    0.9892    0.9471 H   0  0  0  0  0  0  0  0  0  0  0  0
   -6.8662   -0.8004    0.8639 H   0  0  0  0  0  0  0  0  0  0  0  0
   -6.8580    0.1777   -0.6464 H   0  0  0  0  0  0  0  0  0  0  0  0
  1  4  1  0  0  0  0
  2  3  1  0  0  0  0
  3 11  1  1  0  0  0
  4  3  1  0  0  0  0
  4 13  1  0  0  0  0
  4 12  1  0  0  0  0
  5  3  1  0  0  0  0
  5  7  1  0  0  0  0
  6  5  2  0  0  0  0
  8  7  1  0  0  0  0
  8 15  1  0  0  0  0
  8 14  1  0  0  0  0
  9  2  1  0  0  0  0
 10  2  1  0  0  0  0
 16  8  1  0  0  0  0
M  END
