6
q = 0.0, confidence = 0.978

 61 64  0  0  1  0  0  0  0  0999 V2000
   -0.0989    1.9429    0.5418 O   0  0  0  0  0  0  0  0  0  0  0  0
    2.2122    2.4194   -0.9312 O   0  0  0  0  0  0  0  0  0  0  0  0
    3.6115   -0.1038   -1.0418 O   0  0  0  0  0  0  0  0  0  0  0  0
    1.8833   -2.4167   -0.6927 O   0  0  0  0  0  0  0  0  0  0  0  0
   -0.8781   -1.7841   -1.3715 O   0  0  0  0  0  0  0  0  0  0  0  0
   -0.4278   -0.5477    1.5053 N   0  0  0  0  0  2  0  0  0  0  0  0
   -1.8330    0.6200   -2.0418 N   0  0  0  0  0  0  0  0  0  0  0  0
   -0.5160   -1.7430    2.0889 C   0  0  0  0  0  0  0  0  0  0  0  0
    0.3792   -2.3828    2.0211 H   0  0  0  0  0  0  0  0  0  0  0  0
   -1.6795   -2.1715    2.7713 C   0  0  0  0  0  0  0  0  0  0  0  0
   -1.6980   -3.1629    3.2450 H   0  0  0  0  0  0  0  0  0  0  0  0
   -2.7773   -1.3256    2.8182 C   0  0  0  0  0  0  0  0  0  0  0  0
   -3.7067   -1.6333    3.3214 H   0  0  0  0  0  0  0  0  0  0  0  0
   -2.7085   -0.0336    2.2263 C   0  0  0  0  0  0  0  0  0  0  0  0
   -3.7852    0.8982    2.2598 C   0  0  0  0  0  0  0  0  0  0  0  0
   -4.7287    0.6097    2.7447 H   0  0  0  0  0  0  0  0  0  0  0  0
   -3.6261    2.1524    1.6953 C   0  0  0  0  0  0  0  0  0  0  0  0
   -4.4538    2.8762    1.7181 H   0  0  0  0  0  0  0  0  0  0  0  0
   -2.3990    2.5418    1.0951 C   0  0  0  0  0  0  0  0  0  0  0  0
   -2.3064    3.5511    0.6734 H   0  0  0  0  0  0  0  0  0  0  0  0
   -1.3280    1.6560    1.0497 C   0  0  0  0  0  0  0  0  0  0  0  0
   -1.4724    0.3282    1.5873 C   0  0  1  0  0  3  0  0  0  0  0  0
    0.2274    3.2676    0.1113 C   0  0  0  0  0  0  0  0  0  0  0  0
   -0.1338    4.0132    0.8516 H   0  0  0  0  0  0  0  0  0  0  0  0
   -0.2661    3.4719   -0.8655 H   0  0  0  0  0  0  0  0  0  0  0  0
    1.7359    3.3779    0.0092 C   0  0  0  0  0  0  0  0  0  0  0  0
    1.9926    4.4139   -0.3139 H   0  0  0  0  0  0  0  0  0  0  0  0
    2.1969    3.1870    1.0033 H   0  0  0  0  0  0  0  0  0  0  0  0
    3.6388    2.2987   -0.9806 C   0  0  0  0  0  0  0  0  0  0  0  0
    4.0382    2.2177    0.0542 H   0  0  0  0  0  0  0  0  0  0  0  0
    4.0852    3.1910   -1.4764 H   0  0  0  0  0  0  0  0  0  0  0  0
    4.0014    1.0578   -1.7695 C   0  0  0  0  0  0  0  0  0  0  0  0
    3.5039    1.0701   -2.7684 H   0  0  0  0  0  0  0  0  0  0  0  0
    5.1027    1.0502   -1.9384 H   0  0  0  0  0  0  0  0  0  0  0  0
    3.8333   -1.3285   -1.7367 C   0  0  0  0  0  0  0  0  0  0  0  0
    4.9243   -1.4799   -1.9099 H   0  0  0  0  0  0  0  0  0  0  0  0
    3.3305   -1.2985   -2.7318 H   0  0  0  0  0  0  0  0  0  0  0  0
    3.3064   -2.4692   -0.8802 C   0  0  0  0  0  0  0  0  0  0  0  0
    3.5926   -3.4424   -1.3350 H   0  0  0  0  0  0  0  0  0  0  0  0
    3.7391   -2.4010    0.1375 H   0  0  0  0  0  0  0  0  0  0  0  0
    1.1180   -3.0223   -1.7339 C   0  0  0  0  0  0  0  0  0  0  0  0
    1.4912   -4.0563   -1.9121 H   0  0  0  0  0  0  0  0  0  0  0  0
    1.1959   -2.4461   -2.6830 H   0  0  0  0  0  0  0  0  0  0  0  0
   -0.3335   -3.0988   -1.3122 C   0  0  0  0  0  0  0  0  0  0  0  0
   -0.8901   -3.7723   -2.0015 H   0  0  0  0  0  0  0  0  0  0  0  0
   -0.4051   -3.5120   -0.2810 H   0  0  0  0  0  0  0  0  0  0  0  0
   -2.1941   -1.5850   -1.1198 C   0  0  0  0  0  0  0  0  0  0  0  0
   -3.0587   -2.5283   -0.5706 C   0  0  0  0  0  0  0  0  0  0  0  0
   -2.6949   -3.5298   -0.3065 H   0  0  0  0  0  0  0  0  0  0  0  0
   -4.4213   -2.2020   -0.3384 C   0  0  0  0  0  0  0  0  0  0  0  0
   -5.0792   -2.9665    0.1008 H   0  0  0  0  0  0  0  0  0  0  0  0
   -4.9297   -0.9552   -0.6642 C   0  0  0  0  0  0  0  0  0  0  0  0
   -5.9886   -0.7127   -0.4934 H   0  0  0  0  0  0  0  0  0  0  0  0
   -4.0775    0.0239   -1.2506 C   0  0  0  0  0  0  0  0  0  0  0  0
   -4.5320    1.3101   -1.6560 C   0  0  0  0  0  0  0  0  0  0  0  0
   -5.5889    1.5775   -1.5025 H   0  0  0  0  0  0  0  0  0  0  0  0
   -3.6502    2.2017   -2.2470 C   0  0  0  0  0  0  0  0  0  0  0  0
   -3.9789    3.1949   -2.5846 H   0  0  0  0  0  0  0  0  0  0  0  0
   -2.2998    1.8074   -2.4149 C   0  0  0  0  0  0  0  0  0  0  0  0
   -1.5744    2.4960   -2.8836 H   0  0  0  0  0  0  0  0  0  0  0  0
   -2.6892   -0.2798   -1.4764 C   0  0  0  0  0  0  0  0  0  0  0  0
  1 21  1  0  0  0  0
  2 26  1  0  0  0  0
  5 44  1  0  0  0  0
  5 47  1  0  0  0  0
  6 22  1  0  0  0  0
  6  8  1  0  0  0  0
  7 61  1  0  0  0  0
  8 10  2  0  0  0  0
  9  8  1  0  0  0  0
 10 12  1  0  0  0  0
 10 11  1  0  0  0  0
 12 13  1  0  0  0  0
 14 15  1  0  0  0  0
 14 12  2  0  0  0  0
 15 16  1  0  0  0  0
 17 18  1  0  0  0  0
 17 15  2  0  0  0  0
 19 17  1  0  0  0  0
 20 19  1  0  0  0  0
 21 19  2  0  0  0  0
 22 21  1  1  0  0  0
 22 14  1  0  0  0  0
 23  1  1  0  0  0  0
 23 24  1  0  0  0  0
 25 23  1  0  0  0  0
 26 23  1  0  0  0  0
 26 28  1  0  0  0  0
 27 26  1  0  0  0  0
 29  2  1  0  0  0  0
 29 30  1  0  0  0  0
 31 29  1  0  0  0  0
 32  3  1  0  0  0  0
 32 29  1  0  0  0  0
 33 32  1  0  0  0  0
 34 32  1  0  0  0  0
 35  3  1  0  0  0  0
 35 38  1  0  0  0  0
 36 35  1  0  0  0  0
 37 35  1  0  0  0  0
 38  4  1  0  0  0  0
 38 40  1  0  0  0  0
 39 38  1  0  0  0  0
 41 44  1  0  0  0  0
 41  4  1  0  0  0  0
 42 41  1  0  0  0  0
 43 41  1  0  0  0  0
 44 46  1  0  0  0  0
 45 44  1  0  0  0  0
 47 48  1  0  0  0  0
 48 50  2  0  0  0  0
 48 49  1  0  0  0  0
 50 51  1  0  0  0  0
 52 53  1  0  0  0  0
 52 50  1  0  0  0  0
 54 52  2  0  0  0  0
 55 56  1  0  0  0  0
 55 54  1  0  0  0  0
 57 55  2  0  0  0  0
 58 57  1  0  0  0  0
 59 57  1  0  0  0  0
 59  7  2  0  0  0  0
 60 59  1  0  0  0  0
 61 54  1  0  0  0  0
 61 47  2  0  0  0  0
M  END
