1
q = 0.0, confidence = 0.998

 19 20  0  0  1  0  0  0  0  0999 V2000
    1.8833    0.6940   -0.1476 N   0  0  0  0  0  2  0  0  0  0  0  0
    2.2353    1.9379   -0.3668 C   0  0  2  0  0  3  0  0  0  0  0  0
    3.7371    2.0914   -0.3383 C   0  0  0  0  0  0  0  0  0  0  0  0
    4.1996    0.6873   -0.0664 C   0  0  0  0  0  0  0  0  0  0  0  0
    5.4618    0.1083    0.0830 C   0  0  0  0  0  0  0  0  0  0  0  0
    5.5370   -1.2764    0.3279 C   0  0  0  0  0  0  0  0  0  0  0  0
    4.3711   -2.0607    0.4157 C   0  0  0  0  0  0  0  0  0  0  0  0
    3.0969   -1.4888    0.2660 C   0  0  0  0  0  0  0  0  0  0  0  0
    3.0387   -0.1117    0.0312 C   0  0  0  0  0  0  0  0  0  0  0  0
    1.2598    3.0380   -0.5840 C   0  0  0  0  0  0  0  0  0  0  0  0
    4.0339    2.8203    0.4487 H   0  0  0  0  0  0  0  0  0  0  0  0
    4.1099    2.5068   -1.3009 H   0  0  0  0  0  0  0  0  0  0  0  0
    6.3777    0.7144    0.0107 H   0  0  0  0  0  0  0  0  0  0  0  0
    6.5214   -1.7529    0.4484 H   0  0  0  0  0  0  0  0  0  0  0  0
    4.4588   -3.1420    0.5995 H   0  0  0  0  0  0  0  0  0  0  0  0
    2.1746   -2.0832    0.3051 H   0  0  0  0  0  0  0  0  0  0  0  0
    1.7645    4.0002   -0.7876 H   0  0  0  0  0  0  0  0  0  0  0  0
    0.5838    2.7872   -1.4278 H   0  0  0  0  0  0  0  0  0  0  0  0
    0.6171    3.1213    0.3202 H   0  0  0  0  0  0  0  0  0  0  0  0
  1  9  1  0  0  0  0
  2 10  1  1  0  0  0
  2  3  1  0  0  0  0
  2  1  1  0  0  0  0
  3  4  1  0  0  0  0
  3 11  1  0  0  0  0
  4  9  2  0  0  0  0
  4  5  1  0  0  0  0
  5  6  2  0  0  0  0
  6  7  1  0  0  0  0
  6 14  1  0  0  0  0
  7 15  1  0  0  0  0
  8 16  1  0  0  0  0
  8  7  2  0  0  0  0
  9  8  1  0  0  0  0
 10 19  1  0  0  0  0
 12  3  1  0  0  0  0
 13  5  1  0  0  0  0
 17 10  1  0  0  0  0
 18 10  1  0  0  0  0
M  END
