2
q = -1.0, confidence = 0.0

 17 17  0  0  0  0  0  0  0  0999 V2000
    4.2433    1.2157   -1.3131 S   0  0  0  0  0  0  0  0  0  0  0  0
    1.4443    0.2898   -0.5633 N   0  0  0  0  0  2  0  0  0  0  0  0
    1.8146    1.4849    0.0252 C   0  0  0  0  0  0  0  0  0  0  0  0
    3.1049    2.0588   -0.2204 C   0  0  0  0  0  0  0  0  0  0  0  0
    3.4644    3.2884    0.3576 C   0  0  0  0  0  0  0  0  0  0  0  0
    2.5737    3.9722    1.1984 C   0  0  0  0  0  0  0  0  0  0  0  0
    1.3083    3.4143    1.4551 C   0  0  0  0  0  0  0  0  0  0  0  0
    0.9318    2.1965    0.8803 C   0  0  0  0  0  0  0  0  0  0  0  0
    4.7511   -0.1790   -0.2384 C   0  0  0  0  0  0  0  0  0  0  0  0
    2.0989    0.1052   -1.3412 H   0  0  0  0  0  0  0  0  0  0  0  0
    4.4631    3.6982    0.1432 H   0  0  0  0  0  0  0  0  0  0  0  0
    2.8647    4.9330    1.6481 H   0  0  0  0  0  0  0  0  0  0  0  0
    0.5947    3.9474    2.1027 H   0  0  0  0  0  0  0  0  0  0  0  0
   -0.0753    1.7811    1.0356 H   0  0  0  0  0  0  0  0  0  0  0  0
    5.4330   -0.8155   -0.8352 H   0  0  0  0  0  0  0  0  0  0  0  0
    3.8687   -0.7749    0.0700 H   0  0  0  0  0  0  0  0  0  0  0  0
    5.2865    0.1947    0.6555 H   0  0  0  0  0  0  0  0  0  0  0  0
  1  9  1  0  0  0  0
  1  4  1  0  0  0  0
  2  3  1  0  0  0  0
  3  8  1  0  0  0  0
  4  3  2  0  0  0  0
  4  5  1  0  0  0  0
  5  6  2  0  0  0  0
  6  7  1  0  0  0  0
  6 12  1  0  0  0  0
  7 13  1  0  0  0  0
  8 14  1  0  0  0  0
  8  7  2  0  0  0  0
  9 16  1  0  0  0  0
  9 17  1  0  0  0  0
 10  2  1  0  0  0  0
 11  5  1  0  0  0  0
 15  9  1  0  0  0  0
M  END
