1
q = 0.0, confidence = 0.996

 36 39  0  0  0  0  0  0  0  0999 V2000
    1.6057   -0.5813   -0.8423 N   0  0  0  0  0  2  0  0  0  0  0  0
    4.0472   -1.7297   -1.6205 N   0  0  0  0  0  0  0  0  0  0  0  0
    1.6304   -1.8481   -1.3674 C   0  0  0  0  0  0  0  0  0  0  0  0
    0.4346   -2.5937   -1.5296 C   0  0  0  0  0  0  0  0  0  0  0  0
   -0.5143   -2.1598   -1.1803 H   0  0  0  0  0  0  0  0  0  0  0  0
    0.4799   -3.8513   -2.1111 C   0  0  0  0  0  0  0  0  0  0  0  0
   -0.4515   -4.4252   -2.2264 H   0  0  0  0  0  0  0  0  0  0  0  0
    1.7143   -4.4047   -2.5517 C   0  0  0  0  0  0  0  0  0  0  0  0
    1.7270   -5.4053   -3.0094 H   0  0  0  0  0  0  0  0  0  0  0  0
    2.8968   -3.6965   -2.4021 C   0  0  0  0  0  3  0  0  0  0  0  0
    3.8693   -4.0981   -2.7208 H   0  0  0  0  0  0  0  0  0  0  0  0
    2.8830   -2.4054   -1.7998 C   0  0  0  0  0  0  0  0  0  0  0  0
    2.7486    0.0962   -0.7064 C   0  0  0  0  0  0  0  0  0  0  0  0
    2.6728    1.5244   -0.2888 C   0  0  0  0  0  0  0  0  0  0  0  0
    2.1228    1.9038    0.9552 C   0  0  0  0  0  0  0  0  0  0  0  0
    1.7603    1.1343    1.6584 H   0  0  0  0  0  0  0  0  0  0  0  0
    2.0619    3.2630    1.3046 C   0  0  0  0  0  0  0  0  0  0  0  0
    1.6423    3.5470    2.2816 H   0  0  0  0  0  0  0  0  0  0  0  0
    2.5298    4.2487    0.4218 C   0  0  0  0  0  0  0  0  0  0  0  0
    2.4818    5.3120    0.7033 H   0  0  0  0  0  0  0  0  0  0  0  0
    3.0719    3.8726   -0.8192 C   0  0  0  0  0  0  0  0  0  0  0  0
    3.4409    4.6388   -1.5177 H   0  0  0  0  0  0  0  0  0  0  0  0
    3.1543    2.5184   -1.1684 C   0  0  0  0  0  0  0  0  0  0  0  0
    3.5937    2.2232   -2.1331 H   0  0  0  0  0  0  0  0  0  0  0  0
    4.0114   -0.5289   -1.0546 C   0  0  0  0  0  0  0  0  0  0  0  0
    5.3183    0.1347   -0.8064 C   0  0  0  0  0  0  0  0  0  0  0  0
    5.5748    0.8533    0.3818 C   0  0  0  0  0  0  0  0  0  0  0  0
    4.7987    0.9238    1.1557 H   0  0  0  0  0  0  0  0  0  0  0  0
    6.8312    1.4348    0.5957 C   0  0  0  0  0  0  0  0  0  0  0  0
    7.0238    1.9806    1.5316 H   0  0  0  0  0  0  0  0  0  0  0  0
    7.8418    1.3155   -0.3719 C   0  0  0  0  0  0  0  0  0  0  0  0
    8.8245    1.7820   -0.2041 H   0  0  0  0  0  0  0  0  0  0  0  0
    7.5989    0.5876   -1.5487 C   0  0  0  0  0  0  0  0  0  0  0  0
    8.3911    0.4811   -2.3054 H   0  0  0  0  0  0  0  0  0  0  0  0
    6.3496   -0.0087   -1.7596 C   0  0  0  0  0  0  0  0  0  0  0  0
    6.1489   -0.5993   -2.6653 H   0  0  0  0  0  0  0  0  0  0  0  0
  1 13  1  0  0  0  0
  2 25  1  0  0  0  0
  3  1  1  0  0  0  0
  4  3  2  0  0  0  0
  4  5  1  0  0  0  0
  6  4  1  0  0  0  0
  7  6  1  0  0  0  0
  8 10  1  0  0  0  0
  8  6  2  0  0  0  0
  9  8  1  0  0  0  0
 10 12  1  0  0  0  0
 11 10  1  0  0  0  0
 12  2  2  0  0  0  0
 12  3  1  0  0  0  0
 13 14  1  0  0  0  0
 14 15  1  0  0  0  0
 15 17  2  0  0  0  0
 15 16  1  0  0  0  0
 17 18  1  0  0  0  0
 19 20  1  0  0  0  0
 19 17  1  0  0  0  0
 21 19  2  0  0  0  0
 22 21  1  0  0  0  0
 23 21  1  0  0  0  0
 23 14  2  0  0  0  0
 24 23  1  0  0  0  0
 25 26  1  0  0  0  0
 25 13  2  0  0  0  0
 26 27  1  0  0  0  0
 27 29  2  0  0  0  0
 27 28  1  0  0  0  0
 29 30  1  0  0  0  0
 31 32  1  0  0  0  0
 31 29  1  0  0  0  0
 33 31  2  0  0  0  0
 34 33  1  0  0  0  0
 35 33  1  0  0  0  0
 35 26  2  0  0  0  0
 36 35  1  0  0  0  0
M  END
