2
q = 0.0, confidence = 1.0

 32 34  0  0  0  0  0  0  0  0999 V2000
    2.0587    0.5818   -1.1011 Se  0  0  0  0  0  0  0  0  0  0  0  0
   -0.6736   -0.4371   -0.4078 N   0  0  0  0  0  2  0  0  0  0  0  0
   -1.8527   -0.6073    0.1243 N   0  0  0  0  0  2  0  0  0  0  0  0
    0.4073    0.8664   -2.1720 C   0  0  0  0  0  0  0  0  0  0  0  0
    0.3444    1.9292   -2.4682 H   0  0  0  0  0  0  0  0  0  0  0  0
    0.5260    0.1887   -3.0394 H   0  0  0  0  0  0  0  0  0  0  0  0
   -0.7510    0.5006   -1.3891 N   0  0  0  0  0  0  0  0  0  0  0  0
   -2.0356    0.9346   -1.4836 C   0  0  0  0  0  0  0  0  0  0  0  0
   -2.3393    1.6829   -2.2209 H   0  0  0  0  0  0  0  0  0  0  0  0
   -2.7446    0.2169   -0.5082 C   0  0  0  0  0  0  0  0  0  0  0  0
   -4.1662    0.2667   -0.1506 C   0  0  0  0  0  0  0  0  0  0  0  0
   -5.0335    1.1974   -0.7643 C   0  0  0  0  0  0  0  0  0  0  0  0
   -4.6514    1.9030   -1.5176 H   0  0  0  0  0  0  0  0  0  0  0  0
   -4.6832   -0.6239    0.8159 C   0  0  0  0  0  0  0  0  0  0  0  0
   -4.0101   -1.3529    1.2888 H   0  0  0  0  0  0  0  0  0  0  0  0
    1.9432    2.1717    0.0133 C   0  0  0  0  0  0  0  0  0  0  0  0
    0.9088    2.3542    0.9501 C   0  0  0  0  0  0  0  0  0  0  0  0
    0.1343    1.5856    1.0874 H   0  0  0  0  0  0  0  0  0  0  0  0
   -6.0396   -0.5817    1.1592 C   0  0  0  0  0  0  0  0  0  0  0  0
   -6.4341   -1.2815    1.9107 H   0  0  0  0  0  0  0  0  0  0  0  0
    2.9514    3.1379   -0.1542 C   0  0  0  0  0  0  0  0  0  0  0  0
    3.7573    2.9862   -0.8887 H   0  0  0  0  0  0  0  0  0  0  0  0
   -6.3893    1.2352   -0.4177 C   0  0  0  0  0  0  0  0  0  0  0  0
   -7.0561    1.9636   -0.9020 H   0  0  0  0  0  0  0  0  0  0  0  0
   -6.8960    0.3464    0.5446 C   0  0  0  0  0  0  0  0  0  0  0  0
   -7.9620    0.3767    0.8147 H   0  0  0  0  0  0  0  0  0  0  0  0
    1.8855    4.5008    1.5569 C   0  0  0  0  0  0  0  0  0  0  0  0
    1.8623    5.4168    2.1656 H   0  0  0  0  0  0  0  0  0  0  0  0
    2.9181    4.3047    0.6273 C   0  0  0  0  0  0  0  0  0  0  0  0
    3.7051    5.0634    0.5043 H   0  0  0  0  0  0  0  0  0  0  0  0
    0.8822    3.5292    1.7157 C   0  0  0  0  0  0  0  0  0  0  0  0
    0.0737    3.6847    2.4456 H   0  0  0  0  0  0  0  0  0  0  0  0
  1 16  1  0  0  0  0
  2  3  1  0  0  0  0
  4  7  1  0  0  0  0
  4  1  1  0  0  0  0
  5  4  1  0  0  0  0
  6  4  1  0  0  0  0
  7  2  1  0  0  0  0
  8  7  1  0  0  0  0
  8 10  2  0  0  0  0
  9  8  1  0  0  0  0
 10 11  1  0  0  0  0
 10  3  1  0  0  0  0
 11 14  1  0  0  0  0
 12 23  1  0  0  0  0
 12 11  2  0  0  0  0
 13 12  1  0  0  0  0
 14 19  2  0  0  0  0
 14 15  1  0  0  0  0
 16 17  1  0  0  0  0
 17 18  1  0  0  0  0
 17 31  2  0  0  0  0
 19 20  1  0  0  0  0
 21 16  2  0  0  0  0
 21 29  1  0  0  0  0
 22 21  1  0  0  0  0
 23 25  2  0  0  0  0
 24 23  1  0  0  0  0
 25 26  1  0  0  0  0
 25 19  1  0  0  0  0
 27 31  1  0  0  0  0
 27 28  1  0  0  0  0
 29 27  2  0  0  0  0
 30 29  1  0  0  0  0
 31 32  1  0  0  0  0
M  END
