4
q = 0.0, confidence = 0.996

 32 34  0  0  0  0  0  0  0  0999 V2000
   -1.5614    1.1188   -1.6702 S   0  0  0  0  0  0  0  0  0  0  0  0
    1.1193    1.5979   -0.0650 N   0  0  0  0  0  0  0  0  0  0  0  0
   -1.1005    2.5335   -0.6683 C   0  0  0  0  0  0  0  0  0  0  0  0
    0.8465    0.2514   -0.0491 N   0  0  0  0  0  2  0  0  0  0  0  0
    1.9594   -0.4144    0.0065 N   0  0  0  0  0  2  0  0  0  0  0  0
    4.6942   -1.3594   -0.1352 C   0  0  0  0  0  0  0  0  0  0  0  0
    3.8676   -2.0610   -0.3180 H   0  0  0  0  0  0  0  0  0  0  0  0
    6.0210   -1.8050   -0.1089 C   0  0  0  0  0  0  0  0  0  0  0  0
    6.2409   -2.8715   -0.2654 H   0  0  0  0  0  0  0  0  0  0  0  0
    5.4611    0.9186    0.2800 C   0  0  0  0  0  0  0  0  0  0  0  0
    5.2513    1.9865    0.4460 H   0  0  0  0  0  0  0  0  0  0  0  0
   -0.5626    4.7449    0.9897 C   0  0  0  0  0  0  0  0  0  0  0  0
   -0.3469    5.6030    1.6426 H   0  0  0  0  0  0  0  0  0  0  0  0
    2.4783    1.7567   -0.0221 C   0  0  0  0  0  0  0  0  0  0  0  0
    2.9420    2.7453   -0.0704 H   0  0  0  0  0  0  0  0  0  0  0  0
    6.7859    0.4667    0.3033 C   0  0  0  0  0  0  0  0  0  0  0  0
    7.6039    1.1811    0.4776 H   0  0  0  0  0  0  0  0  0  0  0  0
   -2.0477    3.5615   -0.5213 C   0  0  0  0  0  0  0  0  0  0  0  0
   -2.9968    3.4892   -1.0730 H   0  0  0  0  0  0  0  0  0  0  0  0
   -0.3577    1.2132   -3.0421 C   0  0  0  0  0  0  0  0  0  0  0  0
   -0.4757    0.2620   -3.5934 H   0  0  0  0  0  0  0  0  0  0  0  0
    0.6773    1.2811   -2.6629 H   0  0  0  0  0  0  0  0  0  0  0  0
   -0.6252    2.0878   -3.6629 H   0  0  0  0  0  0  0  0  0  0  0  0
    4.4034    0.0094    0.0595 C   0  0  0  0  0  0  0  0  0  0  0  0
    0.3847    3.7199    0.8634 C   0  0  0  0  0  0  0  0  0  0  0  0
    1.3256    3.7635    1.4302 H   0  0  0  0  0  0  0  0  0  0  0  0
    0.1270    2.6136    0.0336 C   0  0  0  0  0  0  0  0  0  0  0  0
    7.0690   -0.8956    0.1093 C   0  0  0  0  0  0  0  0  0  0  0  0
    8.1108   -1.2487    0.1280 H   0  0  0  0  0  0  0  0  0  0  0  0
   -1.7820    4.6665    0.3012 C   0  0  0  0  0  0  0  0  0  0  0  0
   -2.5295    5.4669    0.4004 H   0  0  0  0  0  0  0  0  0  0  0  0
    3.0108    0.4653    0.0234 C   0  0  0  0  0  0  0  0  0  0  0  0
  1  3  1  0  0  0  0
  2  4  1  0  0  0  0
  2 14  1  0  0  0  0
  2 27  1  0  0  0  0
  3 18  2  0  0  0  0
  3 27  1  0  0  0  0
  4  5  1  0  0  0  0
  5 32  1  0  0  0  0
  6  8  2  0  0  0  0
  6 24  1  0  0  0  0
  7  6  1  0  0  0  0
  8 28  1  0  0  0  0
  9  8  1  0  0  0  0
 10 16  1  0  0  0  0
 10 11  1  0  0  0  0
 12 13  1  0  0  0  0
 14 32  2  0  0  0  0
 15 14  1  0  0  0  0
 16 17  1  0  0  0  0
 18 30  1  0  0  0  0
 19 18  1  0  0  0  0
 20 22  1  0  0  0  0
 20  1  1  0  0  0  0
 21 20  1  0  0  0  0
 23 20  1  0  0  0  0
 24 10  2  0  0  0  0
 25 12  1  0  0  0  0
 25 26  1  0  0  0  0
 27 25  2  0  0  0  0
 28 29  1  0  0  0  0
 28 16  2  0  0  0  0
 30 31  1  0  0  0  0
 30 12  2  0  0  0  0
 32 24  1  0  0  0  0
M  END
