2
q = -1.0, confidence = 0.0

 14 15  0  0  0  0  0  0  0  0999 V2000
    3.3543    0.9220   -0.5325 N   0  0  0  0  0  0  0  0  0  0  0  0
    1.0304    1.7183   -0.3155 N   0  0  0  0  0  0  0  0  0  0  0  0
    4.9826    2.5491    0.2341 N   0  0  0  0  0  0  0  0  0  0  0  0
    4.3870    4.6302    1.1184 N   0  0  0  0  0  0  0  0  0  0  0  0
    2.3980    1.8197   -0.1911 C   0  0  0  0  0  0  0  0  0  0  0  0
    1.4911    3.8002    0.5540 N   0  0  0  0  0  0  0  0  0  0  0  0
    2.6611    3.1033    0.3588 C   0  0  0  0  0  0  0  0  0  0  0  0
    4.0241    3.4379    0.5717 C   0  0  0  0  0  0  0  0  0  0  0  0
    4.5960    1.3682   -0.2873 C   0  0  0  0  0  0  0  0  0  0  0  0
    5.4179    0.6756   -0.5511 H   0  0  0  0  0  0  0  0  0  0  0  0
    0.5608    2.9394    0.1263 C   0  0  0  0  0  3  0  0  0  0  0  0
   -0.5143    3.1653    0.1104 H   0  0  0  0  0  0  0  0  0  0  0  0
    5.3735    4.8820    1.1216 H   0  0  0  0  0  0  0  0  0  0  0  0
    3.6721    5.3442    1.2415 H   0  0  0  0  0  0  0  0  0  0  0  0
  1  9  2  0  0  0  0
  1  5  1  0  0  0  0
  2  5  2  0  0  0  0
  2 11  1  0  0  0  0
  3  8  2  0  0  0  0
  4 13  1  0  0  0  0
  4 14  1  0  0  0  0
  5  7  1  0  0  0  0
  7  6  2  0  0  0  0
  7  8  1  0  0  0  0
  8  4  1  0  0  0  0
  9  3  1  0  0  0  0
 10  9  1  0  0  0  0
 11  6  1  0  0  0  0
 12 11  1  0  0  0  0
M  END
