6
q = 0.0, confidence = 0.992

 18 19  0  0  0  0  0  0  0  0999 V2000
   -3.7639    1.7674    0.2647 N   0  0  0  0  0  0  0  0  0  0  0  0
   -4.3833   -0.5043   -0.0521 N   0  0  0  0  0  0  0  0  0  0  0  0
   -1.5842    2.5313    0.2584 N   0  0  0  0  0  0  0  0  0  0  0  0
   -0.5561    2.4093    0.0966 H   0  0  0  0  0  0  0  0  0  0  0  0
   -2.0022    3.4540    0.3829 H   0  0  0  0  0  0  0  0  0  0  0  0
   -0.8379   -0.5673   -0.1241 N   0  0  0  0  0  0  0  0  0  0  0  0
   -2.5507   -2.0829   -0.3126 N   0  0  0  0  0  0  0  0  0  0  0  0
   -4.6568    0.8149    0.1591 C   0  0  0  0  0  3  0  0  0  0  0  0
   -5.7280    1.0694    0.2402 H   0  0  0  0  0  0  0  0  0  0  0  0
   -5.4087   -1.5352   -0.1720 C   0  0  0  0  0  0  0  0  0  0  0  0
   -6.4042   -1.0700   -0.0570 H   0  0  0  0  0  0  0  0  0  0  0  0
   -5.2578   -2.3070    0.6071 H   0  0  0  0  0  0  0  0  0  0  0  0
   -5.3333   -2.0293   -1.1598 H   0  0  0  0  0  0  0  0  0  0  0  0
   -3.0489   -0.8451   -0.1350 C   0  0  0  0  0  0  0  0  0  0  0  0
   -2.0290    0.1335   -0.0160 C   0  0  0  0  0  3  0  0  0  0  0  0
   -2.4192    1.4961    0.1699 C   0  0  0  0  0  0  0  0  0  0  0  0
   -1.2188   -1.8660   -0.2911 C   0  0  0  0  0  0  0  0  0  0  0  0
   -0.4654   -2.6606   -0.3713 H   0  0  0  0  0  0  0  0  0  0  0  0
  2  8  1  0  0  0  0
  3  5  1  0  0  0  0
  4  3  1  0  0  0  0
  6 15  1  0  0  0  0
  7 17  1  0  0  0  0
  7 14  2  0  0  0  0
  8  9  1  0  0  0  0
  8  1  1  0  0  0  0
 10 11  1  0  0  0  0
 10  2  1  0  0  0  0
 10 12  1  0  0  0  0
 13 10  1  0  0  0  0
 14  2  1  0  0  0  0
 14 15  1  0  0  0  0
 15 16  1  0  0  0  0
 16  3  1  0  0  0  0
 16  1  2  0  0  0  0
 17  6  2  0  0  0  0
 18 17  1  0  0  0  0
M  END
