1
q = 0.0, confidence = 1.0

 28 31  0  0  1  0  0  0  0  0999 V2000
    1.1988   -1.4585   -0.0561 N   0  0  0  0  0  0  0  0  0  0  0  0
    1.9823   -1.9642    1.0938 N   0  0  0  0  0  0  0  0  0  0  0  0
    2.4447   -0.8107    0.3363 C   0  0  0  0  0  0  0  0  0  0  0  0
    2.3722    0.6067    0.8939 C   0  0  1  0  0  0  0  0  0  0  0  0
    3.6563    0.8626    1.7104 C   0  0  0  0  0  0  0  0  0  0  0  0
    4.8930    0.6974    0.8053 C   0  0  1  0  0  0  0  0  0  0  0  0
    4.9267   -0.7453    0.2639 C   0  0  0  0  0  0  0  0  0  0  0  0
    3.6555   -1.0145   -0.5651 C   0  0  2  0  0  0  0  0  0  0  0  0
    2.2926    1.5937   -0.2888 C   0  0  0  0  0  0  0  0  0  0  0  0
    3.5299    1.4226   -1.1915 C   0  0  1  0  0  0  0  0  0  0  0  0
    4.8092    1.6893   -0.3731 C   0  0  0  0  0  0  0  0  0  0  0  0
    3.5548   -0.0186   -1.7400 C   0  0  0  0  0  0  0  0  0  0  0  0
    1.3142   -2.0957   -0.8600 H   0  0  0  0  0  0  0  0  0  0  0  0
    1.4242   -1.6316    1.9102 H   0  0  0  0  0  0  0  0  0  0  0  0
    1.4727    0.6917    1.5366 H   0  0  0  0  0  0  0  0  0  0  0  0
    3.7119    0.1596    2.5690 H   0  0  0  0  0  0  0  0  0  0  0  0
    3.6201    1.8882    2.1349 H   0  0  0  0  0  0  0  0  0  0  0  0
    5.8135    0.8923    1.3953 H   0  0  0  0  0  0  0  0  0  0  0  0
    4.9863   -1.4722    1.1014 H   0  0  0  0  0  0  0  0  0  0  0  0
    5.8242   -0.9015   -0.3714 H   0  0  0  0  0  0  0  0  0  0  0  0
    3.6519   -2.0644   -0.9278 H   0  0  0  0  0  0  0  0  0  0  0  0
    2.2375    2.6322    0.1026 H   0  0  0  0  0  0  0  0  0  0  0  0
    1.3626    1.4060   -0.8661 H   0  0  0  0  0  0  0  0  0  0  0  0
    3.4704    2.1365   -2.0398 H   0  0  0  0  0  0  0  0  0  0  0  0
    5.7067    1.5858   -1.0208 H   0  0  0  0  0  0  0  0  0  0  0  0
    4.8061    2.7330    0.0086 H   0  0  0  0  0  0  0  0  0  0  0  0
    2.6320   -0.2143   -2.3269 H   0  0  0  0  0  0  0  0  0  0  0  0
    4.4202   -0.1606   -2.4216 H   0  0  0  0  0  0  0  0  0  0  0  0
  1  3  1  0  0  0  0
  1  2  1  0  0  0  0
  2 14  1  0  0  0  0
  3  4  1  0  0  0  0
  3  2  1  0  0  0  0
  4 15  1  1  0  0  0
  4  5  1  0  0  0  0
  5 17  1  0  0  0  0
  5 16  1  0  0  0  0
  6 18  1  1  0  0  0
  6  5  1  0  0  0  0
  7  6  1  0  0  0  0
  7 19  1  0  0  0  0
  8 21  1  6  0  0  0
  8  7  1  0  0  0  0
  8  3  1  0  0  0  0
  9 22  1  0  0  0  0
  9  4  1  0  0  0  0
 10 24  1  6  0  0  0
 10 11  1  0  0  0  0
 10  9  1  0  0  0  0
 11 26  1  0  0  0  0
 11  6  1  0  0  0  0
 12 10  1  0  0  0  0
 12  8  1  0  0  0  0
 13  1  1  0  0  0  0
 20  7  1  0  0  0  0
 23  9  1  0  0  0  0
 25 11  1  0  0  0  0
 27 12  1  0  0  0  0
 28 12  1  0  0  0  0
M  END
