1
q = -1.0, confidence = 0.0

 31 31  0  0  0  0  0  0  0  0999 V2000
   -0.2454   -1.2098   -0.0049 N   0  0  0  0  0  2  0  0  0  0  0  0
   -1.4879   -0.5204   -0.0032 C   0  0  0  0  0  0  0  0  0  0  0  0
   -2.1052   -0.1245   -1.2166 C   0  0  0  0  0  0  0  0  0  0  0  0
   -1.6409   -0.4397   -2.1624 H   0  0  0  0  0  0  0  0  0  0  0  0
   -3.2690    0.6635   -1.2316 C   0  0  0  0  0  0  0  0  0  0  0  0
   -3.8352    1.0441    0.0008 C   0  0  0  0  0  0  0  0  0  0  0  0
   -4.7456    1.6661    0.0025 H   0  0  0  0  0  0  0  0  0  0  0  0
   -3.2733    0.6506    1.2313 C   0  0  0  0  0  0  0  0  0  0  0  0
   -2.1093   -0.1369    1.2123 C   0  0  0  0  0  0  0  0  0  0  0  0
   -1.6482   -0.4614    2.1565 H   0  0  0  0  0  0  0  0  0  0  0  0
   -3.8665    1.1301   -2.5362 C   0  0  0  0  0  0  0  0  0  0  0  0
   -4.9555    1.3129   -2.4482 H   0  0  0  0  0  0  0  0  0  0  0  0
   -3.7029    0.3933   -3.3474 H   0  0  0  0  0  0  0  0  0  0  0  0
   -3.4007    2.0850   -2.8638 H   0  0  0  0  0  0  0  0  0  0  0  0
   -3.8762    1.1032    2.5384 C   0  0  0  0  0  0  0  0  0  0  0  0
   -3.7068    0.3625    3.3449 H   0  0  0  0  0  0  0  0  0  0  0  0
   -4.9668    1.2766    2.4504 H   0  0  0  0  0  0  0  0  0  0  0  0
   -3.4197    2.0602    2.8727 H   0  0  0  0  0  0  0  0  0  0  0  0
   -0.2674   -2.6871   -0.0103 C   0  0  0  0  0  0  0  0  0  0  0  0
    1.1801   -3.2042   -0.0096 C   0  0  0  0  0  0  0  0  0  0  0  0
    1.7311   -2.8542   -0.9031 H   0  0  0  0  0  0  0  0  0  0  0  0
    1.1933   -4.3122   -0.0137 H   0  0  0  0  0  0  0  0  0  0  0  0
    1.7277   -2.8609    0.8886 H   0  0  0  0  0  0  0  0  0  0  0  0
   -0.9938   -3.2358    1.2389 C   0  0  0  0  0  0  0  0  0  0  0  0
   -0.4985   -2.8924    2.1693 H   0  0  0  0  0  0  0  0  0  0  0  0
   -0.9943   -4.3451    1.2402 H   0  0  0  0  0  0  0  0  0  0  0  0
   -2.0484   -2.8970    1.2682 H   0  0  0  0  0  0  0  0  0  0  0  0
   -0.9894   -3.2260   -1.2663 C   0  0  0  0  0  0  0  0  0  0  0  0
   -2.0437   -2.8863   -1.2968 H   0  0  0  0  0  0  0  0  0  0  0  0
   -0.9906   -4.3352   -1.2762 H   0  0  0  0  0  0  0  0  0  0  0  0
   -0.4906   -2.8756   -2.1923 H   0  0  0  0  0  0  0  0  0  0  0  0
  1  2  1  0  0  0  0
  2  9  1  0  0  0  0
  3  2  2  0  0  0  0
  4  3  1  0  0  0  0
  5  3  1  0  0  0  0
  5  6  2  0  0  0  0
  6  7  1  0  0  0  0
  6  8  1  0  0  0  0
  8 15  1  0  0  0  0
  9  8  2  0  0  0  0
  9 10  1  0  0  0  0
 11 12  1  0  0  0  0
 11  5  1  0  0  0  0
 13 11  1  0  0  0  0
 14 11  1  0  0  0  0
 15 18  1  0  0  0  0
 15 16  1  0  0  0  0
 17 15  1  0  0  0  0
 19 20  1  0  0  0  0
 19  1  1  0  0  0  0
 19 24  1  0  0  0  0
 20 23  1  0  0  0  0
 21 20  1  0  0  0  0
 22 20  1  0  0  0  0
 24 26  1  0  0  0  0
 24 27  1  0  0  0  0
 24 25  1  0  0  0  0
 28 19  1  0  0  0  0
 29 28  1  0  0  0  0
 30 28  1  0  0  0  0
 31 28  1  0  0  0  0
M  END
