9
q = 0.0, confidence = 0.998

 40 42  0  0  0  0  0  0  0  0999 V2000
    5.6971   -3.5041   -0.0975 F   0  0  0  0  0  0  0  0  0  0  0  0
   10.0348   -0.8468    0.2883 O   0  0  0  0  0  0  0  0  0  0  0  0
   11.6930    1.1605    0.1807 O   0  0  0  0  0  0  0  0  0  0  0  0
   11.2849    0.2405    0.2915 H   0  0  0  0  0  0  0  0  0  0  0  0
   10.8936    3.1914   -0.3756 O   0  0  0  0  0  0  0  0  0  0  0  0
    7.0155    1.7652   -0.8090 N   0  0  0  0  0  0  0  0  0  0  0  0
    5.4120    0.0609   -0.6966 N   0  0  0  0  0  0  0  0  0  0  0  0
    3.7073   -1.5361   -0.6903 N   0  0  0  0  0  0  0  0  0  0  0  0
    0.9268   -2.0923   -1.0529 N   0  0  0  0  0  0  0  0  0  0  0  0
    0.1664   -2.5348   -1.5888 H   0  0  0  0  0  0  0  0  0  0  0  0
    9.1292   -0.0453   -0.0408 C   0  0  0  0  0  0  0  0  0  0  0  0
    9.3520    1.3692   -0.2905 C   0  0  0  0  0  0  0  0  0  0  0  0
    8.3050    2.1864   -0.6543 C   0  0  0  0  0  0  0  0  0  0  0  0
    8.5133    3.2527   -0.8382 H   0  0  0  0  0  0  0  0  0  0  0  0
    6.7003    0.4283   -0.5742 C   0  0  0  0  0  0  0  0  0  0  0  0
    7.7314   -0.4775   -0.2081 C   0  0  0  0  0  0  0  0  0  0  0  0
    5.0564   -1.2131   -0.5100 C   0  0  0  0  0  0  0  0  0  0  0  0
    6.0447   -2.2005   -0.1970 C   0  0  0  0  0  0  0  0  0  0  0  0
    7.3634   -1.8270   -0.0288 C   0  0  0  0  0  0  0  0  0  0  0  0
    8.1433   -2.5637    0.2161 H   0  0  0  0  0  0  0  0  0  0  0  0
    3.0342   -2.5151    0.1519 C   0  0  0  0  0  0  0  0  0  0  0  0
    2.6390   -2.0192    1.0808 H   0  0  0  0  0  0  0  0  0  0  0  0
    3.7377   -3.3007    0.4721 H   0  0  0  0  0  0  0  0  0  0  0  0
    1.8687   -3.1532   -0.5935 C   0  0  0  0  0  0  0  0  0  0  0  0
    2.2543   -3.7135   -1.4728 H   0  0  0  0  0  0  0  0  0  0  0  0
    1.3254   -3.8584    0.0650 H   0  0  0  0  0  0  0  0  0  0  0  0
    1.6480   -1.1392   -1.9462 C   0  0  0  0  0  0  0  0  0  0  0  0
    0.9387   -0.3597   -2.2867 H   0  0  0  0  0  0  0  0  0  0  0  0
    2.0255   -1.6859   -2.8376 H   0  0  0  0  0  0  0  0  0  0  0  0
    2.8174   -0.5071   -1.2002 C   0  0  0  0  0  0  0  0  0  0  0  0
    3.3872    0.1631   -1.8689 H   0  0  0  0  0  0  0  0  0  0  0  0
    2.4257    0.1374   -0.3673 H   0  0  0  0  0  0  0  0  0  0  0  0
   10.7196    2.0030   -0.1685 C   0  0  0  0  0  0  0  0  0  0  0  0
    5.9594    2.7343   -1.1481 C   0  0  0  0  0  0  0  0  0  0  0  0
    5.2658    2.2366   -1.8518 H   0  0  0  0  0  0  0  0  0  0  0  0
    6.4532    3.5627   -1.6913 H   0  0  0  0  0  0  0  0  0  0  0  0
    5.2133    3.2519    0.0784 C   0  0  0  0  0  0  0  0  0  0  0  0
    4.6978    2.4236    0.6028 H   0  0  0  0  0  0  0  0  0  0  0  0
    4.4545    3.9988   -0.2285 H   0  0  0  0  0  0  0  0  0  0  0  0
    5.9057    3.7431    0.7905 H   0  0  0  0  0  0  0  0  0  0  0  0
  3  4  1  0  0  0  0
  5 33  2  0  0  0  0
  6 13  1  0  0  0  0
  6 15  1  0  0  0  0
  7 15  2  0  0  0  0
  7 17  1  0  0  0  0
  8 17  1  0  0  0  0
  8 21  1  0  0  0  0
  9 24  1  0  0  0  0
 10  9  1  0  0  0  0
 11  2  2  0  0  0  0
 12 33  1  0  0  0  0
 12 11  1  0  0  0  0
 13 12  2  0  0  0  0
 14 13  1  0  0  0  0
 15 16  1  0  0  0  0
 16 11  1  0  0  0  0
 16 19  2  0  0  0  0
 17 18  2  0  0  0  0
 18  1  1  0  0  0  0
 18 19  1  0  0  0  0
 19 20  1  0  0  0  0
 21 23  1  0  0  0  0
 21 22  1  0  0  0  0
 24 26  1  0  0  0  0
 24 21  1  0  0  0  0
 25 24  1  0  0  0  0
 27 30  1  0  0  0  0
 27  9  1  0  0  0  0
 28 27  1  0  0  0  0
 29 27  1  0  0  0  0
 30  8  1  0  0  0  0
 30 32  1  0  0  0  0
 31 30  1  0  0  0  0
 33  3  1  0  0  0  0
 34  6  1  0  0  0  0
 34 37  1  0  0  0  0
 35 34  1  0  0  0  0
 36 34  1  0  0  0  0
 37 38  1  0  0  0  0
 37 40  1  0  0  0  0
 39 37  1  0  0  0  0
M  END
