2
q = -1.0, confidence = 0.0

 26 26  0  0  0  0  0  0  0  0999 V2000
    2.0128    0.5331    1.2895 S   0  0  0  0  0  0  0  0  0  0  0  0
    2.0089   -0.2650   -0.2308 N   0  0  0  0  0  2  0  0  0  0  0  0
    3.3234   -0.3660   -0.9530 C   0  0  0  0  0  0  0  0  0  0  0  0
    1.5153    2.2095    0.9044 C   0  0  0  0  0  0  0  0  0  0  0  0
    0.9635    2.5751   -0.3377 C   0  0  0  0  0  0  0  0  0  0  0  0
    0.5301    3.8942   -0.5387 C   0  0  0  0  0  0  0  0  0  0  0  0
    0.6324    4.8464    0.4888 C   0  0  0  0  0  0  0  0  0  0  0  0
    1.1813    4.4724    1.7270 C   0  0  0  0  0  0  0  0  0  0  0  0
    1.6263    3.1597    1.9388 C   0  0  0  0  0  0  0  0  0  0  0  0
    3.9593    1.0225   -1.1259 C   0  0  0  0  0  0  0  0  0  0  0  0
    3.0503   -0.9748   -2.3381 C   0  0  0  0  0  0  0  0  0  0  0  0
    4.2521   -1.2871   -0.1419 C   0  0  0  0  0  0  0  0  0  0  0  0
    0.8622    1.8217   -1.1325 H   0  0  0  0  0  0  0  0  0  0  0  0
    0.1002    4.1749   -1.5126 H   0  0  0  0  0  0  0  0  0  0  0  0
    0.2890    5.8787    0.3249 H   0  0  0  0  0  0  0  0  0  0  0  0
    1.2705    5.2112    2.5380 H   0  0  0  0  0  0  0  0  0  0  0  0
    2.0614    2.8709    2.9087 H   0  0  0  0  0  0  0  0  0  0  0  0
    4.9389    0.9189   -1.6338 H   0  0  0  0  0  0  0  0  0  0  0  0
    4.1333    1.5111   -0.1470 H   0  0  0  0  0  0  0  0  0  0  0  0
    3.3186    1.6856   -1.7383 H   0  0  0  0  0  0  0  0  0  0  0  0
    4.0038   -1.0572   -2.8966 H   0  0  0  0  0  0  0  0  0  0  0  0
    2.3537   -0.3451   -2.9241 H   0  0  0  0  0  0  0  0  0  0  0  0
    2.6224   -1.9938   -2.2591 H   0  0  0  0  0  0  0  0  0  0  0  0
    5.2233   -1.4159   -0.6609 H   0  0  0  0  0  0  0  0  0  0  0  0
    3.7848   -2.2829   -0.0100 H   0  0  0  0  0  0  0  0  0  0  0  0
    4.4519   -0.8539    0.8592 H   0  0  0  0  0  0  0  0  0  0  0  0
  2  1  1  0  0  0  0
  3  2  1  0  0  0  0
  3 12  1  0  0  0  0
  4  1  1  0  0  0  0
  4  9  1  0  0  0  0
  5  4  2  0  0  0  0
  6  5  1  0  0  0  0
  6  7  2  0  0  0  0
  7  8  1  0  0  0  0
  8  9  2  0  0  0  0
  8 16  1  0  0  0  0
  9 17  1  0  0  0  0
 10  3  1  0  0  0  0
 10 19  1  0  0  0  0
 11 23  1  0  0  0  0
 11  3  1  0  0  0  0
 12 25  1  0  0  0  0
 12 26  1  0  0  0  0
 13  5  1  0  0  0  0
 14  6  1  0  0  0  0
 15  7  1  0  0  0  0
 18 10  1  0  0  0  0
 20 10  1  0  0  0  0
 21 11  1  0  0  0  0
 22 11  1  0  0  0  0
 24 12  1  0  0  0  0
M  END
