1
q = 0.0, confidence = 1.0

 17 17  0  0  1  0  0  0  0  0999 V2000
    1.8591    0.8540    0.9470 N   0  0  0  0  0  2  0  0  0  0  0  0
    2.8811    0.2487    0.2953 C   0  0  1  0  0  3  0  0  0  0  0  0
    2.7381    0.0829   -1.1938 C   0  0  0  0  0  0  0  0  0  0  0  0
    1.8481    0.5824   -1.8645 O   0  0  0  0  0  0  0  0  0  0  0  0
    3.7265   -0.6721   -1.6993 O   0  0  0  0  0  0  0  0  0  0  0  0
    3.6849   -0.8926   -3.1191 C   0  0  0  0  0  0  0  0  0  0  0  0
    4.0314   -0.1964    0.9687 C   0  0  0  0  0  0  0  0  0  0  0  0
    4.1355    0.0064    2.3503 C   0  0  0  0  0  0  0  0  0  0  0  0
    3.0850    0.6501    3.0161 C   0  0  0  0  0  0  0  0  0  0  0  0
    1.9649    1.0509    2.2756 C   0  0  0  0  0  0  0  0  0  0  0  0
    3.6647    0.0718   -3.6630 H   0  0  0  0  0  0  0  0  0  0  0  0
    4.5970   -1.4628   -3.3644 H   0  0  0  0  0  0  0  0  0  0  0  0
    2.7804   -1.4739   -3.3888 H   0  0  0  0  0  0  0  0  0  0  0  0
    4.8263   -0.6894    0.3955 H   0  0  0  0  0  0  0  0  0  0  0  0
    5.0277   -0.3312    2.8981 H   0  0  0  0  0  0  0  0  0  0  0  0
    3.1199    0.8401    4.0982 H   0  0  0  0  0  0  0  0  0  0  0  0
    1.1079    1.5438    2.7605 H   0  0  0  0  0  0  0  0  0  0  0  0
  1 10  1  0  0  0  0
  2  3  1  6  0  0  0
  2  1  1  0  0  0  0
  2  7  1  0  0  0  0
  4  3  2  0  0  0  0
  5  3  1  0  0  0  0
  6  5  1  0  0  0  0
  7  8  2  0  0  0  0
  8 15  1  0  0  0  0
  8  9  1  0  0  0  0
  9 16  1  0  0  0  0
 10 17  1  0  0  0  0
 10  9  2  0  0  0  0
 11  6  1  0  0  0  0
 12  6  1  0  0  0  0
 13  6  1  0  0  0  0
 14  7  1  0  0  0  0
M  END
