2
q = -1.0, confidence = 0.0

 38 40  0  0  0  0  0  0  0  0999 V2000
    0.5768    1.3473   -0.0960 N   0  0  0  0  0  0  0  0  0  0  0  0
   -1.5886    1.0800    0.0152 N   0  0  0  0  0  2  0  0  0  0  0  0
   -0.6306    2.0152   -0.1270 C   0  0  0  0  0  0  0  0  0  0  0  0
   -0.6836    3.4154   -0.3502 C   0  0  0  0  0  0  0  0  0  0  0  0
   -1.6511    3.9288   -0.4194 H   0  0  0  0  0  0  0  0  0  0  0  0
    0.5258    4.0874   -0.5049 C   0  0  0  0  0  0  0  0  0  0  0  0
    0.5249    5.1739   -0.6835 H   0  0  0  0  0  0  0  0  0  0  0  0
    1.7535    3.3915   -0.4399 C   0  0  0  0  0  0  0  0  0  0  0  0
    2.7145    3.9142   -0.5373 H   0  0  0  0  0  0  0  0  0  0  0  0
    1.7486    2.0013   -0.2433 C   0  0  0  0  0  0  0  0  0  0  0  0
    3.0290    1.2409   -0.1237 C   0  0  0  0  0  0  0  0  0  0  0  0
    3.6960    1.2377    1.1286 C   0  0  0  0  0  0  0  0  0  0  0  0
    4.9184    0.5469    1.2427 C   0  0  0  0  0  0  0  0  0  0  0  0
    5.4396    0.5338    2.2129 H   0  0  0  0  0  0  0  0  0  0  0  0
    5.4697   -0.1173    0.1387 C   0  0  0  0  0  0  0  0  0  0  0  0
    6.4256   -0.6537    0.2403 H   0  0  0  0  0  0  0  0  0  0  0  0
    4.8082   -0.0920   -1.0960 C   0  0  0  0  0  0  0  0  0  0  0  0
    5.2481   -0.6027   -1.9670 H   0  0  0  0  0  0  0  0  0  0  0  0
    3.5834    0.5879   -1.2534 C   0  0  0  0  0  0  0  0  0  0  0  0
    3.1188    1.9750    2.3131 C   0  0  0  0  0  0  0  0  0  0  0  0
    3.2236    3.0734    2.1909 H   0  0  0  0  0  0  0  0  0  0  0  0
    3.6310    1.6893    3.2523 H   0  0  0  0  0  0  0  0  0  0  0  0
    2.0342    1.7814    2.4296 H   0  0  0  0  0  0  0  0  0  0  0  0
    2.8913    0.6383   -2.5883 C   0  0  0  0  0  0  0  0  0  0  0  0
    3.4937    0.1394   -3.3715 H   0  0  0  0  0  0  0  0  0  0  0  0
    2.7141    1.6875   -2.9026 H   0  0  0  0  0  0  0  0  0  0  0  0
    1.8869    0.1620   -2.5565 H   0  0  0  0  0  0  0  0  0  0  0  0
   -2.9681    1.2491    0.0217 C   0  0  0  0  0  0  0  0  0  0  0  0
   -3.7810    0.3535   -0.7154 C   0  0  0  0  0  0  0  0  0  0  0  0
   -3.2794   -0.3983   -1.3412 H   0  0  0  0  0  0  0  0  0  0  0  0
   -5.1757    0.4663   -0.6766 C   0  0  0  0  0  0  0  0  0  0  0  0
   -5.7908   -0.2340   -1.2633 H   0  0  0  0  0  0  0  0  0  0  0  0
   -5.7929    1.4740    0.0855 C   0  0  0  0  0  0  0  0  0  0  0  0
   -6.8893    1.5610    0.1115 H   0  0  0  0  0  0  0  0  0  0  0  0
   -4.9921    2.3713    0.8112 C   0  0  0  0  0  0  0  0  0  0  0  0
   -5.4618    3.1616    1.4174 H   0  0  0  0  0  0  0  0  0  0  0  0
   -3.5949    2.2620    0.7900 C   0  0  0  0  0  0  0  0  0  0  0  0
   -2.9760    2.9434    1.3921 H   0  0  0  0  0  0  0  0  0  0  0  0
  2 28  1  0  0  0  0
  3  1  1  0  0  0  0
  3  2  1  0  0  0  0
  4  3  2  0  0  0  0
  5  4  1  0  0  0  0
  6  8  2  0  0  0  0
  6  4  1  0  0  0  0
  7  6  1  0  0  0  0
  8 10  1  0  0  0  0
  9  8  1  0  0  0  0
 10 11  1  0  0  0  0
 10  1  2  0  0  0  0
 11 12  1  0  0  0  0
 12 13  2  0  0  0  0
 12 20  1  0  0  0  0
 13 14  1  0  0  0  0
 15 16  1  0  0  0  0
 15 13  1  0  0  0  0
 17 15  2  0  0  0  0
 18 17  1  0  0  0  0
 19 17  1  0  0  0  0
 19 11  2  0  0  0  0
 20 23  1  0  0  0  0
 20 22  1  0  0  0  0
 21 20  1  0  0  0  0
 24 27  1  0  0  0  0
 24 19  1  0  0  0  0
 25 24  1  0  0  0  0
 26 24  1  0  0  0  0
 28 37  1  0  0  0  0
 29 31  1  0  0  0  0
 29 28  2  0  0  0  0
 30 29  1  0  0  0  0
 31 33  2  0  0  0  0
 32 31  1  0  0  0  0
 33 34  1  0  0  0  0
 33 35  1  0  0  0  0
 35 36  1  0  0  0  0
 37 35  2  0  0  0  0
 37 38  1  0  0  0  0
M  END
