5
q = nan, confidence = 0.0

 36 35  0  0  0  0  0  0  0  0999 V2000
   -4.7146    0.2282    0.1764 Si  0  0  0  0  0  0  0  0  0  0  0  0
   -5.0959   -1.3093   -0.3530 O   0  0  0  0  0  0  0  0  0  0  0  0
   -5.3402    0.3879    1.7112 O   0  0  0  0  0  0  0  0  0  0  0  0
   -5.4262    1.2608   -0.9347 O   0  0  0  0  0  0  0  0  0  0  0  0
    1.9916   -1.7757   -1.6145 N   0  0  0  0  0  0  0  0  0  0  0  0
    2.5502   -1.6207   -2.4645 H   0  0  0  0  0  0  0  0  0  0  0  0
    2.3855   -2.5697   -1.0810 H   0  0  0  0  0  0  0  0  0  0  0  0
   -0.0046   -0.5758   -0.0205 N   0  0  0  0  0  0  0  0  0  0  0  0
   -0.3002    0.1868   -0.6592 H   0  0  0  0  0  0  0  0  0  0  0  0
    0.5679   -2.0138   -1.9436 C   0  0  0  0  0  0  0  0  0  0  0  0
    0.4078   -3.0164   -2.3963 H   0  0  0  0  0  0  0  0  0  0  0  0
    0.2741   -1.2417   -2.6814 H   0  0  0  0  0  0  0  0  0  0  0  0
   -0.2769   -1.8751   -0.6817 C   0  0  0  0  0  0  0  0  0  0  0  0
   -1.3518   -1.9853   -0.9448 H   0  0  0  0  0  0  0  0  0  0  0  0
   -0.0147   -2.6681    0.0478 H   0  0  0  0  0  0  0  0  0  0  0  0
   -0.6670   -0.4298    1.2917 C   0  0  0  0  0  0  0  0  0  0  0  0
   -0.3774    0.5641    1.6887 H   0  0  0  0  0  0  0  0  0  0  0  0
   -0.2242   -1.1937    1.9627 H   0  0  0  0  0  0  0  0  0  0  0  0
   -2.1956   -0.5363    1.2499 C   0  0  0  0  0  0  0  0  0  0  0  0
   -2.5036   -1.5633    0.9584 H   0  0  0  0  0  0  0  0  0  0  0  0
   -2.5775   -0.4019    2.2832 H   0  0  0  0  0  0  0  0  0  0  0  0
   -2.8683    0.4890    0.3224 C   0  0  0  0  0  0  0  0  0  0  0  0
   -2.4600    0.4271   -0.7125 H   0  0  0  0  0  0  0  0  0  0  0  0
   -2.6560    1.5256    0.6648 H   0  0  0  0  0  0  0  0  0  0  0  0
   -5.0104   -1.7398   -1.6974 C   0  0  0  0  0  0  0  0  0  0  0  0
   -5.4410   -0.9947   -2.4018 H   0  0  0  0  0  0  0  0  0  0  0  0
   -5.5714   -2.6912   -1.8051 H   0  0  0  0  0  0  0  0  0  0  0  0
   -3.9549   -1.9336   -2.0036 H   0  0  0  0  0  0  0  0  0  0  0  0
   -6.6827    0.0728    2.0465 C   0  0  0  0  0  0  0  0  0  0  0  0
   -7.4049    0.7530    1.5415 H   0  0  0  0  0  0  0  0  0  0  0  0
   -6.8080    0.1854    3.1427 H   0  0  0  0  0  0  0  0  0  0  0  0
   -6.9396   -0.9720    1.7656 H   0  0  0  0  0  0  0  0  0  0  0  0
   -5.2895    2.6689   -0.9146 C   0  0  0  0  0  0  0  0  0  0  0  0
   -5.5901    3.1069    0.0643 H   0  0  0  0  0  0  0  0  0  0  0  0
   -5.9449    3.1017   -1.6982 H   0  0  0  0  0  0  0  0  0  0  0  0
   -4.2450    2.9931   -1.1292 H   0  0  0  0  0  0  0  0  0  0  0  0
  1 22  1  0  0  0  0
  1  3  1  0  0  0  0
  2  1  1  0  0  0  0
  3 29  1  0  0  0  0
  4 33  1  0  0  0  0
  4  1  1  0  0  0  0
  5  7  1  0  0  0  0
  6  5  1  0  0  0  0
  8 16  1  0  0  0  0
  9  8  1  0  0  0  0
 10  5  1  0  0  0  0
 10 13  1  0  0  0  0
 11 10  1  0  0  0  0
 12 10  1  0  0  0  0
 13  8  1  0  0  0  0
 13 15  1  0  0  0  0
 14 13  1  0  0  0  0
 16 17  1  0  0  0  0
 16 18  1  0  0  0  0
 19 16  1  0  0  0  0
 19 21  1  0  0  0  0
 20 19  1  0  0  0  0
 22 24  1  0  0  0  0
 22 19  1  0  0  0  0
 23 22  1  0  0  0  0
 25  2  1  0  0  0  0
 26 25  1  0  0  0  0
 27 25  1  0  0  0  0
 28 25  1  0  0  0  0
 29 31  1  0  0  0  0
 30 29  1  0  0  0  0
 32 29  1  0  0  0  0
 33 34  1  0  0  0  0
 35 33  1  0  0  0  0
 36 33  1  0  0  0  0
M  END
