1
q = -1.0, confidence = 0.0

 17 17  0  0  1  0  0  0  0  0999 V2000
   -1.8337   -1.2717    0.3307 N   0  0  0  0  0  2  0  0  0  0  0  0
   -3.8235   -0.5370   -0.4021 N   0  0  0  0  0  0  0  0  0  0  0  0
   -4.3578    0.3291   -0.5856 H   0  0  0  0  0  0  0  0  0  0  0  0
   -0.4988    0.7321   -1.4313 N   0  0  0  0  0  0  0  0  0  0  0  0
   -2.5404    2.0678   -1.0207 N   0  0  0  0  0  0  0  0  0  0  0  0
   -3.7839    2.0472   -0.8065 O   0  0  0  0  0  0  0  0  0  0  0  0
   -1.9330    3.1175   -1.2398 O   0  0  0  0  0  0  0  0  0  0  0  0
    0.2355    1.7188   -1.5196 O   0  0  0  0  0  0  0  0  0  0  0  0
   -0.0923   -0.4392   -1.6830 O   0  0  0  0  0  0  0  0  0  0  0  0
   -2.8243   -2.2503    0.7936 C   0  0  0  0  0  0  0  0  0  0  0  0
   -2.6155   -2.5656    1.8346 H   0  0  0  0  0  0  0  0  0  0  0  0
   -2.8009   -3.1671    0.1565 H   0  0  0  0  0  0  0  0  0  0  0  0
   -4.1660   -1.5035    0.6367 C   0  0  0  0  0  0  0  0  0  0  0  0
   -4.9995   -2.1644    0.3293 H   0  0  0  0  0  0  0  0  0  0  0  0
   -4.4591   -0.9909    1.5833 H   0  0  0  0  0  0  0  0  0  0  0  0
   -2.4688   -0.3416   -0.3862 C   0  0  1  0  0  3  0  0  0  0  0  0
   -1.8531    0.8151   -1.0104 C   0  0  0  0  0  3  0  0  0  0  0  0
  1 10  1  0  0  0  0
  2 16  1  0  0  0  0
  2 13  1  0  0  0  0
  3  2  1  0  0  0  0
  4 17  1  0  0  0  0
  5 17  1  0  0  0  0
  5  6  2  0  0  0  0
  7  5  2  0  0  0  0
  8  4  2  0  0  0  0
  9  4  2  0  0  0  0
 10 11  1  0  0  0  0
 12 10  1  0  0  0  0
 13 10  1  0  0  0  0
 13 15  1  0  0  0  0
 14 13  1  0  0  0  0
 16 17  1  1  0  0  0
 16  1  1  0  0  0  0
M  END
