24
q = 0.0, confidence = 0.998

 27 28  0  0  0  0  0  0  0  0999 V2000
   -2.8550    0.1593   -0.0207 C   0  0  0  0  0  3  0  0  0  0  0  0
   -2.2857    1.0906   -0.1597 H   0  0  0  0  0  0  0  0  0  0  0  0
   -4.2440    0.1690   -0.0925 C   0  0  0  0  0  0  0  0  0  0  0  0
   -4.7934    1.0956   -0.2907 H   0  0  0  0  0  0  0  0  0  0  0  0
   -4.9508   -1.0467    0.0962 C   0  0  0  0  0  0  0  0  0  0  0  0
   -4.1754   -2.2083    0.3488 C   0  0  0  0  0  0  0  0  0  0  0  0
   -4.6556   -3.1861    0.5048 H   0  0  0  0  0  0  0  0  0  0  0  0
   -2.7898   -2.1196    0.4011 C   0  0  0  0  0  0  0  0  0  0  0  0
   -2.1843   -3.0169    0.5953 H   0  0  0  0  0  0  0  0  0  0  0  0
   -7.2643   -0.1182   -0.1739 C   0  0  0  0  0  0  0  0  0  0  0  0
   -9.7532    0.1478   -0.3578 C   0  0  0  0  0  0  0  0  0  0  0  0
   -9.7831    1.5408   -0.5782 C   0  0  0  0  0  0  0  0  0  0  0  0
   -8.8446    2.1042   -0.6151 H   0  0  0  0  0  0  0  0  0  0  0  0
  -11.0203    2.1791   -0.7475 C   0  0  0  0  0  0  0  0  0  0  0  0
  -11.0366    3.2659   -0.9195 H   0  0  0  0  0  0  0  0  0  0  0  0
  -12.2240    1.4599   -0.7019 C   0  0  0  0  0  0  0  0  0  0  0  0
  -13.1860    1.9752   -0.8369 H   0  0  0  0  0  0  0  0  0  0  0  0
  -12.1877    0.0739   -0.4825 C   0  0  0  0  0  0  0  0  0  0  0  0
  -13.1207   -0.5078   -0.4437 H   0  0  0  0  0  0  0  0  0  0  0  0
  -10.9625   -0.5796   -0.3113 C   0  0  0  0  0  0  0  0  0  0  0  0
  -10.9411   -1.6685   -0.1392 H   0  0  0  0  0  0  0  0  0  0  0  0
   -6.6833   -2.1072    0.1963 H   0  0  0  0  0  0  0  0  0  0  0  0
   -8.7074   -1.5882   -0.0355 H   0  0  0  0  0  0  0  0  0  0  0  0
   -2.1187   -0.9544    0.2216 N   0  0  0  0  0  2  0  0  0  0  0  0
   -6.3243   -1.1620    0.0470 N   0  0  0  0  0  0  0  0  0  0  0  0
   -8.5579   -0.5875   -0.1757 N   0  0  0  0  0  0  0  0  0  0  0  0
   -6.9260    1.0464   -0.3378 O   0  0  0  0  0  0  0  0  0  0  0  0
  1 24  1  0  0  0  0
  2  1  1  0  0  0  0
  3  1  1  0  0  0  0
  3  5  2  0  0  0  0
  4  3  1  0  0  0  0
  5  6  1  0  0  0  0
  6  8  2  0  0  0  0
  6  7  1  0  0  0  0
  8  9  1  0  0  0  0
 10 25  1  0  0  0  0
 11 20  1  0  0  0  0
 11 26  1  0  0  0  0
 12 11  2  0  0  0  0
 13 12  1  0  0  0  0
 14 16  2  0  0  0  0
 14 12  1  0  0  0  0
 15 14  1  0  0  0  0
 16 18  1  0  0  0  0
 17 16  1  0  0  0  0
 18 19  1  0  0  0  0
 18 20  2  0  0  0  0
 20 21  1  0  0  0  0
 24  8  1  0  0  0  0
 25  5  1  0  0  0  0
 25 22  1  0  0  0  0
 26 10  1  0  0  0  0
 26 23  1  0  0  0  0
 27 10  2  0  0  0  0
M  END
