2
q = -1.0, confidence = 0.002

 43 43  0  0  0  0  0  0  0  0999 V2000
   -1.5862   -1.0569   -2.0034 Si  0  0  0  0  0  0  0  0  0  0  0  0
   -0.9545   -0.2152   -0.4894 N   0  0  0  0  0  2  0  0  0  0  0  0
   -1.9847    0.4521    0.2565 C   0  0  0  0  0  0  0  0  0  0  0  0
   -2.1084    1.8797    0.1770 C   0  0  0  0  0  0  0  0  0  0  0  0
   -3.1747    2.5181    0.8361 C   0  0  0  0  0  0  0  0  0  0  0  0
   -4.1101    1.8011    1.5895 C   0  0  0  0  0  0  0  0  0  0  0  0
   -3.9604    0.4189    1.7094 C   0  0  0  0  0  0  0  0  0  0  0  0
   -2.9152   -0.2734    1.0662 C   0  0  0  0  0  0  0  0  0  0  0  0
   -1.1033    2.7313   -0.5911 C   0  0  0  0  0  0  0  0  0  0  0  0
   -0.9592    4.1608   -0.0507 C   0  0  0  0  0  0  0  0  0  0  0  0
   -1.3943    2.7797   -2.0987 C   0  0  0  0  0  0  0  0  0  0  0  0
   -2.8344   -1.7808    1.2916 C   0  0  0  0  0  0  0  0  0  0  0  0
   -2.7423   -2.1343    2.7889 C   0  0  0  0  0  0  0  0  0  0  0  0
   -4.0436   -2.5186    0.6860 C   0  0  0  0  0  0  0  0  0  0  0  0
   -0.4728   -0.7162   -3.4995 C   0  0  0  0  0  0  0  0  0  0  0  0
   -1.6686   -2.9418   -1.8508 C   0  0  0  0  0  0  0  0  0  0  0  0
   -3.3092   -0.3799   -2.3921 C   0  0  0  0  0  0  0  0  0  0  0  0
   -3.2743    3.6101    0.7594 H   0  0  0  0  0  0  0  0  0  0  0  0
   -4.9403    2.3210    2.0906 H   0  0  0  0  0  0  0  0  0  0  0  0
   -4.6768   -0.1499    2.3225 H   0  0  0  0  0  0  0  0  0  0  0  0
   -0.1100    2.2430   -0.4780 H   0  0  0  0  0  0  0  0  0  0  0  0
   -1.8398    4.7860   -0.3055 H   0  0  0  0  0  0  0  0  0  0  0  0
   -0.0738    4.6490   -0.5045 H   0  0  0  0  0  0  0  0  0  0  0  0
   -0.8407    4.1863    1.0510 H   0  0  0  0  0  0  0  0  0  0  0  0
   -1.3854    1.7714   -2.5461 H   0  0  0  0  0  0  0  0  0  0  0  0
   -0.6271    3.3830   -2.6243 H   0  0  0  0  0  0  0  0  0  0  0  0
   -2.3892    3.2341   -2.2867 H   0  0  0  0  0  0  0  0  0  0  0  0
   -1.9100   -2.1403    0.7945 H   0  0  0  0  0  0  0  0  0  0  0  0
   -1.9570   -1.5546    3.3114 H   0  0  0  0  0  0  0  0  0  0  0  0
   -2.5204   -3.2125    2.9242 H   0  0  0  0  0  0  0  0  0  0  0  0
   -3.6981   -1.9256    3.3117 H   0  0  0  0  0  0  0  0  0  0  0  0
   -4.9799   -2.2228    1.2028 H   0  0  0  0  0  0  0  0  0  0  0  0
   -3.9340   -3.6170    0.8000 H   0  0  0  0  0  0  0  0  0  0  0  0
   -4.1781   -2.2976   -0.3890 H   0  0  0  0  0  0  0  0  0  0  0  0
   -0.2774    0.3577   -3.6793 H   0  0  0  0  0  0  0  0  0  0  0  0
   -1.0054   -1.1252   -4.3843 H   0  0  0  0  0  0  0  0  0  0  0  0
    0.5018   -1.2376   -3.4334 H   0  0  0  0  0  0  0  0  0  0  0  0
   -2.4680   -3.3037   -1.1806 H   0  0  0  0  0  0  0  0  0  0  0  0
   -0.6999   -3.3524   -1.5069 H   0  0  0  0  0  0  0  0  0  0  0  0
   -1.8645   -3.3539   -2.8632 H   0  0  0  0  0  0  0  0  0  0  0  0
   -4.0129   -0.4934   -1.5459 H   0  0  0  0  0  0  0  0  0  0  0  0
   -3.7129   -0.9408   -3.2607 H   0  0  0  0  0  0  0  0  0  0  0  0
   -3.2803    0.6939   -2.6574 H   0  0  0  0  0  0  0  0  0  0  0  0
  1 16  1  0  0  0  0
  1  2  1  0  0  0  0
  2  3  1  0  0  0  0
  3  8  1  0  0  0  0
  4  3  2  0  0  0  0
  4  5  1  0  0  0  0
  5  6  2  0  0  0  0
  6  7  1  0  0  0  0
  6 19  1  0  0  0  0
  7 20  1  0  0  0  0
  8 12  1  0  0  0  0
  8  7  2  0  0  0  0
  9 21  1  0  0  0  0
  9 10  1  0  0  0  0
  9  4  1  0  0  0  0
 10 24  1  0  0  0  0
 11  9  1  0  0  0  0
 12 13  1  0  0  0  0
 13 30  1  0  0  0  0
 13 29  1  0  0  0  0
 13 31  1  0  0  0  0
 14 33  1  0  0  0  0
 14 32  1  0  0  0  0
 14 12  1  0  0  0  0
 15 37  1  0  0  0  0
 15  1  1  0  0  0  0
 16 39  1  0  0  0  0
 16 38  1  0  0  0  0
 17  1  1  0  0  0  0
 17 41  1  0  0  0  0
 18  5  1  0  0  0  0
 22 10  1  0  0  0  0
 23 10  1  0  0  0  0
 25 11  1  0  0  0  0
 26 11  1  0  0  0  0
 27 11  1  0  0  0  0
 28 12  1  0  0  0  0
 34 14  1  0  0  0  0
 35 15  1  0  0  0  0
 36 15  1  0  0  0  0
 40 16  1  0  0  0  0
 42 17  1  0  0  0  0
 43 17  1  0  0  0  0
M  END
