2
q = -2.0, confidence = 0.732

 10  9  0  0  0  0  0  0  0  0999 V2000
   -1.6906   -1.3636   -0.1385 S   0  0  0  0  0  0  0  0  0  0  0  0
   -1.3698    1.1453    0.1496 N   0  0  0  0  0  2  0  0  0  0  0  0
   -3.6709    0.6323    0.0578 N   0  0  0  0  0  2  0  0  0  0  0  0
   -5.6236   -0.9235   -0.1125 N   0  0  0  0  0  0  0  0  0  0  0  0
   -2.4144    0.2926    0.0378 C   0  0  0  0  0  0  0  0  0  0  0  0
   -4.6637   -0.2366   -0.0354 C   0  0  0  0  0  0  0  0  0  0  0  0
   -1.5261    2.5771    0.2672 C   0  0  0  0  0  0  0  0  0  0  0  0
   -1.3385    3.0987   -0.6986 H   0  0  0  0  0  0  0  0  0  0  0  0
   -0.8269    2.9895    1.0243 H   0  0  0  0  0  0  0  0  0  0  0  0
   -2.5646    2.8054    0.5807 H   0  0  0  0  0  0  0  0  0  0  0  0
  1  5  2  0  0  0  0
  2  7  1  0  0  0  0
  4  6  3  0  0  0  0
  5  3  1  0  0  0  0
  5  2  1  0  0  0  0
  6  3  1  0  0  0  0
  7 10  1  0  0  0  0
  7  9  1  0  0  0  0
  8  7  1  0  0  0  0
M  END
