3
 OpenBabel05122313063D

 31 32  0  0  1  0  0  0  0  0999 V2000
   -2.0217    0.3144   -0.6088 N   0  0  0  0  0  0  0  0  0  0  0  0
   -2.0372   -0.9513   -0.1500 N   0  0  0  0  0  0  0  0  0  0  0  0
    1.1239    0.6275    1.0500 N   0  0  0  0  0  2  0  0  0  0  0  0
   -0.1418    1.0778    0.9397 N   0  0  0  0  0  0  0  0  0  0  0  0
   -3.2898   -1.4014   -0.3220 C   0  0  0  0  0  0  0  0  0  0  0  0
   -4.1118   -0.4221   -0.9210 C   0  0  0  0  0  0  0  0  0  0  0  0
   -3.2547    0.6647   -1.0902 C   0  0  0  0  0  0  0  0  0  0  0  0
    1.4933    0.7657    2.3444 C   0  0  2  0  0  3  0  0  0  0  0  0
    0.4238    1.3030    3.0913 C   0  0  0  0  0  0  0  0  0  0  0  0
   -0.5961    1.4903    2.1597 C   0  0  0  0  0  0  0  0  0  0  0  0
   -3.6565   -2.8043    0.0598 C   0  0  0  0  0  0  0  0  0  0  0  0
   -3.5689    1.9939   -1.7145 C   0  0  0  0  0  0  0  0  0  0  0  0
    2.8615    0.4331    2.8616 C   0  0  0  0  0  0  0  0  0  0  0  0
   -1.9655    2.0577    2.3924 C   0  0  0  0  0  0  0  0  0  0  0  0
   -3.1629   -3.7120   -0.8304 F   0  0  0  0  0  0  0  0  0  0  0  0
   -4.9967   -2.9603    0.0868 F   0  0  0  0  0  0  0  0  0  0  0  0
   -3.1663   -3.1463    1.2743 F   0  0  0  0  0  0  0  0  0  0  0  0
   -2.7597    2.2542   -2.7728 F   0  0  0  0  0  0  0  0  0  0  0  0
   -4.8440    1.9934   -2.1662 F   0  0  0  0  0  0  0  0  0  0  0  0
   -3.4420    3.0229   -0.8488 F   0  0  0  0  0  0  0  0  0  0  0  0
    3.8156    1.2638    2.3672 F   0  0  0  0  0  0  0  0  0  0  0  0
    3.2514   -0.8314    2.5608 F   0  0  0  0  0  0  0  0  0  0  0  0
    2.8817    0.5554    4.2071 F   0  0  0  0  0  0  0  0  0  0  0  0
   -2.1742    3.1801    1.6683 F   0  0  0  0  0  0  0  0  0  0  0  0
   -2.9456    1.1802    2.0644 F   0  0  0  0  0  0  0  0  0  0  0  0
   -2.1142    2.3702    3.6980 F   0  0  0  0  0  0  0  0  0  0  0  0
   -0.7262    1.1395   -0.5072 B   0  0  0  0  0  0  0  0  0  0  0  0
    0.1032    0.6050   -1.3104 H   0  0  0  0  0  0  0  0  0  0  0  0
   -0.8988    2.2826   -0.8774 H   0  0  0  0  0  0  0  0  0  0  0  0
   -5.1699   -0.4856   -1.1878 H   0  0  0  0  0  0  0  0  0  0  0  0
    0.3978    1.5263    4.1605 H   0  0  0  0  0  0  0  0  0  0  0  0
  1 27  1  0  0  0  0
  1  2  1  0  0  0  0
  3  8  1  0  0  0  0
  4  3  1  0  0  0  0
  4 10  1  0  0  0  0
  5  2  2  0  0  0  0
  5 11  1  0  0  0  0
  6  5  1  0  0  0  0
  7  6  2  0  0  0  0
  7  1  1  0  0  0  0
  8 13  1  6  0  0  0
  8  9  1  0  0  0  0
  9 31  1  0  0  0  0
 10 14  1  0  0  0  0
 10  9  2  0  0  0  0
 11 16  1  0  0  0  0
 11 17  1  0  0  0  0
 12  7  1  0  0  0  0
 12 20  1  0  0  0  0
 13 23  1  0  0  0  0
 14 26  1  0  0  0  0
 15 11  1  0  0  0  0
 18 12  1  0  0  0  0
 19 12  1  0  0  0  0
 21 13  1  0  0  0  0
 22 13  1  0  0  0  0
 24 14  1  0  0  0  0
 25 14  1  0  0  0  0
 27  4  1  0  0  0  0
 28 27  1  0  0  0  0
 29 27  1  0  0  0  0
 30  6  1  0  0  0  0
M  END
