4
 OpenBabel05122313063D

 22 23  0  0  0  0  0  0  0  0999 V2000
   -3.8438   -0.8475   -0.8279 N   0  0  0  0  0  0  0  0  0  0  0  0
   -4.2104    0.2666    1.2595 N   0  0  0  0  0  0  0  0  0  0  0  0
   -1.7079   -1.4276   -1.6750 N   0  0  0  0  0  0  0  0  0  0  0  0
   -0.6611    0.0882    0.8434 N   0  0  0  0  0  2  0  0  0  0  0  0
   -2.1198    0.8619    2.3693 N   0  0  0  0  0  0  0  0  0  0  0  0
   -4.4817   -1.4763   -1.9885 C   0  0  0  0  0  0  0  0  0  0  0  0
   -4.6448   -0.3001    0.1675 C   0  0  0  0  0  3  0  0  0  0  0  0
   -2.8656    0.3113    1.3512 C   0  0  0  0  0  0  0  0  0  0  0  0
   -1.9392   -0.1814    0.4083 C   0  0  0  0  0  0  0  0  0  0  0  0
   -2.4516   -0.8422   -0.7481 C   0  0  0  0  0  0  0  0  0  0  0  0
   -0.8021    0.7042    2.0145 C   0  0  0  0  0  3  0  0  0  0  0  0
   -2.6505    1.4964    3.5714 C   0  0  0  0  0  0  0  0  0  0  0  0
   -5.7276   -0.3755   -0.0213 H   0  0  0  0  0  0  0  0  0  0  0  0
    0.0429    1.0707    2.6113 H   0  0  0  0  0  0  0  0  0  0  0  0
   -0.6498   -1.4742   -1.5310 H   0  0  0  0  0  0  0  0  0  0  0  0
   -2.1231   -1.8510   -2.5039 H   0  0  0  0  0  0  0  0  0  0  0  0
   -4.2219   -2.5532   -2.0380 H   0  0  0  0  0  0  0  0  0  0  0  0
   -4.1692   -0.9698   -2.9240 H   0  0  0  0  0  0  0  0  0  0  0  0
   -5.5771   -1.3856   -1.8924 H   0  0  0  0  0  0  0  0  0  0  0  0
   -3.7529    1.4927    3.4980 H   0  0  0  0  0  0  0  0  0  0  0  0
   -2.3404    0.9326    4.4718 H   0  0  0  0  0  0  0  0  0  0  0  0
   -2.2890    2.5395    3.6435 H   0  0  0  0  0  0  0  0  0  0  0  0
  1 10  1  0  0  0  0
  1  7  1  0  0  0  0
  2  8  2  0  0  0  0
  3 15  1  0  0  0  0
  3 10  1  0  0  0  0
  4 11  1  0  0  0  0
  5 12  1  0  0  0  0
  6 19  1  0  0  0  0
  6  1  1  0  0  0  0
  7  2  1  0  0  0  0
  8  5  1  0  0  0  0
  9  4  1  0  0  0  0
  9  8  1  0  0  0  0
 10  9  2  0  0  0  0
 11  5  1  0  0  0  0
 11 14  1  0  0  0  0
 12 22  1  0  0  0  0
 12 21  1  0  0  0  0
 13  7  1  0  0  0  0
 16  3  1  0  0  0  0
 17  6  1  0  0  0  0
 18  6  1  0  0  0  0
 20 12  1  0  0  0  0
M  END
