3
 OpenBabel05122313063D

 16 16  0  0  0  0  0  0  0  0999 V2000
    2.9806   -2.2817   -1.0355 O   0  0  0  0  0  0  0  0  0  0  0  0
    4.4686   -2.4085    0.5514 O   0  0  0  0  0  0  0  0  0  0  0  0
    1.6627    0.0140   -1.2896 N   0  0  0  0  0  0  0  0  0  0  0  0
    3.7582   -1.7723   -0.2130 N   0  0  0  0  0  0  0  0  0  0  0  0
    1.2881    0.5607   -2.0867 H   0  0  0  0  0  0  0  0  0  0  0  0
    1.7923   -0.9922   -1.5503 H   0  0  0  0  0  0  0  0  0  0  0  0
    2.8911    0.5396   -0.7808 C   0  0  0  0  0  0  0  0  0  0  0  0
    3.1038    1.9279   -0.7876 C   0  0  0  0  0  0  0  0  0  0  0  0
    2.3245    2.5791   -1.2074 H   0  0  0  0  0  0  0  0  0  0  0  0
    4.2714    2.4686   -0.2367 C   0  0  0  0  0  0  0  0  0  0  0  0
    4.4217    3.5577   -0.2544 H   0  0  0  0  0  0  0  0  0  0  0  0
    5.2309    1.6305    0.3545 C   0  0  0  0  0  0  0  0  0  0  0  0
    6.1425    2.0551    0.7988 H   0  0  0  0  0  0  0  0  0  0  0  0
    5.0273    0.2472    0.3767 C   0  0  0  0  0  0  0  0  0  0  0  0
    5.7519   -0.4443    0.8263 H   0  0  0  0  0  0  0  0  0  0  0  0
    3.8692   -0.2970   -0.1949 C   0  0  0  0  0  0  0  0  0  0  0  0
  1  4  2  0  0  0  0
  3  7  1  0  0  0  0
  4 16  1  0  0  0  0
  4  2  2  0  0  0  0
  5  3  1  0  0  0  0
  6  3  1  0  0  0  0
  7 16  1  0  0  0  0
  8  7  2  0  0  0  0
  8 10  1  0  0  0  0
  9  8  1  0  0  0  0
 10 12  2  0  0  0  0
 11 10  1  0  0  0  0
 12 14  1  0  0  0  0
 12 13  1  0  0  0  0
 14 15  1  0  0  0  0
 16 14  2  0  0  0  0
M  END
