3
 OpenBabel05122313063D

 25 25  0  0  1  0  0  0  0  0999 V2000
   -4.8950   -3.2166   -0.9137 O   0  0  0  0  0  0  0  0  0  0  0  0
   -6.9205   -2.6845   -0.2868 O   0  0  0  0  0  0  0  0  0  0  0  0
   -0.0636    1.8054   -0.3359 N   0  0  0  0  0  2  0  0  0  0  0  0
    0.3881    2.6838   -0.6084 H   0  0  0  0  0  0  0  0  0  0  0  0
   -2.0418    0.7054    0.0785 N   0  0  0  0  0  0  0  0  0  0  0  0
   -1.4488   -0.1505    0.0414 H   0  0  0  0  0  0  0  0  0  0  0  0
   -5.7232   -2.4450   -0.4348 N   0  0  0  0  0  0  0  0  0  0  0  0
   -1.3700    1.8388   -0.2348 C   0  0  2  0  0  3  0  0  0  0  0  0
   -2.1029    3.1354   -0.5082 C   0  0  0  0  0  0  0  0  0  0  0  0
   -2.4133    3.5636    0.4688 H   0  0  0  0  0  0  0  0  0  0  0  0
   -3.0433    2.8868   -1.0424 H   0  0  0  0  0  0  0  0  0  0  0  0
   -1.2967    4.1747   -1.2874 C   0  0  0  0  0  0  0  0  0  0  0  0
   -0.4176    4.5345   -0.7140 H   0  0  0  0  0  0  0  0  0  0  0  0
   -1.9260    5.0609   -1.4950 H   0  0  0  0  0  0  0  0  0  0  0  0
   -0.9394    3.7743   -2.2568 H   0  0  0  0  0  0  0  0  0  0  0  0
   -3.4129    0.4625    0.2409 C   0  0  0  0  0  0  0  0  0  0  0  0
   -3.8880   -0.8032   -0.1668 C   0  0  0  0  0  0  0  0  0  0  0  0
   -3.2161   -1.5485   -0.6146 H   0  0  0  0  0  0  0  0  0  0  0  0
   -5.2389   -1.1062    0.0035 C   0  0  0  0  0  0  0  0  0  0  0  0
   -6.1551   -0.2040    0.5589 C   0  0  0  0  0  0  0  0  0  0  0  0
   -7.2065   -0.4996    0.6634 H   0  0  0  0  0  0  0  0  0  0  0  0
   -5.6707    1.0426    0.9741 C   0  0  0  0  0  0  0  0  0  0  0  0
   -6.3562    1.7671    1.4379 H   0  0  0  0  0  0  0  0  0  0  0  0
   -4.3153    1.3758    0.8322 C   0  0  0  0  0  0  0  0  0  0  0  0
   -3.9556    2.3360    1.2207 H   0  0  0  0  0  0  0  0  0  0  0  0
  1  7  2  0  0  0  0
  4  3  1  0  0  0  0
  5 16  1  0  0  0  0
  6  5  1  0  0  0  0
  7  2  2  0  0  0  0
  7 19  1  0  0  0  0
  8  3  1  6  0  0  0
  8  5  1  0  0  0  0
  9  8  1  0  0  0  0
  9 10  1  0  0  0  0
 11  9  1  0  0  0  0
 12 13  1  0  0  0  0
 12  9  1  0  0  0  0
 14 12  1  0  0  0  0
 15 12  1  0  0  0  0
 16 24  1  0  0  0  0
 17 19  1  0  0  0  0
 17 16  2  0  0  0  0
 18 17  1  0  0  0  0
 19 20  2  0  0  0  0
 20 21  1  0  0  0  0
 20 22  1  0  0  0  0
 22 23  1  0  0  0  0
 24 22  2  0  0  0  0
 24 25  1  0  0  0  0
M  END
