1
 OpenBabel05122313063D

 37 41  0  0  1  0  0  0  0  0999 V2000
    3.1469    0.5086   -0.1434 N   0  0  0  0  0  2  0  0  0  0  0  0
    6.4581   -0.8442    0.1436 N   0  0  0  0  0  0  0  0  0  0  0  0
    3.8902    1.6800   -0.1027 C   0  0  2  0  0  3  0  0  0  0  0  0
    8.8555   -1.0528    0.3357 C   0  0  0  0  0  0  0  0  0  0  0  0
    9.8313   -0.5542    0.4109 H   0  0  0  0  0  0  0  0  0  0  0  0
    4.9621   -2.7997    0.0445 C   0  0  0  0  0  0  0  0  0  0  0  0
    7.7202   -0.2832    0.2411 C   0  0  0  0  0  0  0  0  0  0  0  0
    7.7404    0.8119    0.2379 H   0  0  0  0  0  0  0  0  0  0  0  0
    3.3027    3.0243   -0.1996 C   0  0  0  0  0  0  0  0  0  0  0  0
    1.6661    4.5926   -1.1162 C   0  0  0  0  0  0  0  0  0  0  0  0
    0.7982    4.7825   -1.7653 H   0  0  0  0  0  0  0  0  0  0  0  0
    2.1907    3.2966   -1.0302 C   0  0  0  0  0  0  0  0  0  0  0  0
    1.7425    2.4848   -1.6226 H   0  0  0  0  0  0  0  0  0  0  0  0
    5.2648    1.3984    0.0244 C   0  0  0  0  0  0  0  0  0  0  0  0
    6.0630    2.1462    0.0372 H   0  0  0  0  0  0  0  0  0  0  0  0
    3.8811    4.0929    0.5256 C   0  0  0  0  0  0  0  0  0  0  0  0
    4.7318    3.8914    1.1939 H   0  0  0  0  0  0  0  0  0  0  0  0
    2.2440    5.6422   -0.3846 C   0  0  0  0  0  0  0  0  0  0  0  0
    1.8265    6.6583   -0.4508 H   0  0  0  0  0  0  0  0  0  0  0  0
    3.3565    5.3880    0.4343 C   0  0  0  0  0  0  0  0  0  0  0  0
    3.8105    6.2031    1.0180 H   0  0  0  0  0  0  0  0  0  0  0  0
    4.0259   -0.5343   -0.0566 C   0  0  0  0  0  0  0  0  0  0  0  0
    6.2953   -2.2387    0.1425 C   0  0  0  0  0  0  0  0  0  0  0  0
    3.8009   -1.9490   -0.0580 C   0  0  0  0  0  0  0  0  0  0  0  0
    2.5155   -2.5459   -0.1616 C   0  0  0  0  0  0  0  0  0  0  0  0
    1.6348   -1.8846   -0.2372 H   0  0  0  0  0  0  0  0  0  0  0  0
    5.3525   -0.0084    0.0490 C   0  0  0  0  0  0  0  0  0  0  0  0
    4.7672   -4.2115    0.0434 C   0  0  0  0  0  0  0  0  0  0  0  0
    5.6282   -4.8881    0.1222 H   0  0  0  0  0  0  0  0  0  0  0  0
    3.4991   -4.7660   -0.0551 C   0  0  0  0  0  0  0  0  0  0  0  0
    3.3796   -5.8593   -0.0521 H   0  0  0  0  0  0  0  0  0  0  0  0
    7.4721   -3.0225    0.2387 C   0  0  0  0  0  0  0  0  0  0  0  0
    7.3640   -4.1129    0.2372 H   0  0  0  0  0  0  0  0  0  0  0  0
    8.7369   -2.4631    0.3341 C   0  0  0  0  0  0  0  0  0  0  0  0
    9.6264   -3.1038    0.4076 H   0  0  0  0  0  0  0  0  0  0  0  0
    2.3650   -3.9247   -0.1587 C   0  0  0  0  0  0  0  0  0  0  0  0
    1.3582   -4.3616   -0.2362 H   0  0  0  0  0  0  0  0  0  0  0  0
  1  3  1  0  0  0  0
  1 22  1  0  0  0  0
  2  7  1  0  0  0  0
  3  9  1  6  0  0  0
  3 14  1  0  0  0  0
  4  5  1  0  0  0  0
  6 23  2  0  0  0  0
  7  4  2  0  0  0  0
  8  7  1  0  0  0  0
  9 16  1  0  0  0  0
 10 12  1  0  0  0  0
 10 18  2  0  0  0  0
 11 10  1  0  0  0  0
 12  9  2  0  0  0  0
 13 12  1  0  0  0  0
 14 15  1  0  0  0  0
 14 27  2  0  0  0  0
 16 17  1  0  0  0  0
 18 20  1  0  0  0  0
 19 18  1  0  0  0  0
 20 16  2  0  0  0  0
 20 21  1  0  0  0  0
 22 27  1  0  0  0  0
 23  2  1  0  0  0  0
 23 32  1  0  0  0  0
 24 22  2  0  0  0  0
 24  6  1  0  0  0  0
 25 36  2  0  0  0  0
 25 24  1  0  0  0  0
 26 25  1  0  0  0  0
 27  2  1  0  0  0  0
 28  6  1  0  0  0  0
 28 29  1  0  0  0  0
 30 31  1  0  0  0  0
 30 28  2  0  0  0  0
 32 34  2  0  0  0  0
 33 32  1  0  0  0  0
 34  4  1  0  0  0  0
 34 35  1  0  0  0  0
 36 30  1  0  0  0  0
 37 36  1  0  0  0  0
M  END
