1
 OpenBabel05122313063D

 15 16  0  0  1  0  0  0  0  0999 V2000
    2.0569   -1.2080    0.1950 N   0  0  0  0  0  2  0  0  0  0  0  0
    2.9062   -1.2027   -0.8556 N   0  0  0  0  0  0  0  0  0  0  0  0
    2.5836   -0.6726   -1.6869 H   0  0  0  0  0  0  0  0  0  0  0  0
    2.6023   -1.9305    1.1780 C   0  0  0  0  0  0  0  0  0  0  0  0
    2.0524   -2.0450    2.1192 H   0  0  0  0  0  0  0  0  0  0  0  0
    3.8713   -2.4243    0.7525 C   0  0  0  0  0  0  0  0  0  0  0  0
    4.8916   -3.2212    1.3253 C   0  0  0  0  0  0  0  0  0  0  0  0
    4.7877   -3.6126    2.3480 H   0  0  0  0  0  0  0  0  0  0  0  0
    6.0244   -3.4942    0.5618 C   0  0  0  0  0  0  0  0  0  0  0  0
    6.8312   -4.1110    0.9845 H   0  0  0  0  0  0  0  0  0  0  0  0
    6.1628   -2.9898   -0.7617 C   0  0  0  0  0  0  0  0  0  0  0  0
    7.0737   -3.2288   -1.3312 H   0  0  0  0  0  0  0  0  0  0  0  0
    5.1779   -2.2021   -1.3563 C   0  0  0  0  0  0  0  0  0  0  0  0
    5.2886   -1.8142   -2.3788 H   0  0  0  0  0  0  0  0  0  0  0  0
    4.0302   -1.9252   -0.5831 C   0  0  2  0  0  3  0  0  0  0  0  0
  1  4  1  0  0  0  0
  2 15  1  0  0  0  0
  2  1  1  0  0  0  0
  3  2  1  0  0  0  0
  4  5  1  0  0  0  0
  6  4  2  0  0  0  0
  6  7  1  0  0  0  0
  7  8  1  0  0  0  0
  9 10  1  0  0  0  0
  9  7  2  0  0  0  0
 11  9  1  0  0  0  0
 12 11  1  0  0  0  0
 13 11  2  0  0  0  0
 14 13  1  0  0  0  0
 15 13  1  1  0  0  0
 15  6  1  0  0  0  0
M  END
