1
 OpenBabel05122313063D

 11 11  0  0  0  0  0  0  0  0999 V2000
   -0.9924    1.4991   -0.1976 N   0  0  0  0  0  2  0  0  0  0  0  0
   -2.0325    1.3455   -1.0529 C   0  0  0  0  0  3  0  0  0  0  0  0
   -2.0052    0.4341   -1.6680 H   0  0  0  0  0  0  0  0  0  0  0  0
   -3.0454    2.3017   -1.1828 C   0  0  0  0  0  0  0  0  0  0  0  0
   -3.8656    2.1202   -1.8921 H   0  0  0  0  0  0  0  0  0  0  0  0
   -2.9916    3.4689   -0.4089 C   0  0  0  0  0  0  0  0  0  0  0  0
   -3.7709    4.2411   -0.4943 H   0  0  0  0  0  0  0  0  0  0  0  0
   -1.9191    3.6235    0.4806 C   0  0  0  0  0  0  0  0  0  0  0  0
   -1.8255    4.5141    1.1183 H   0  0  0  0  0  0  0  0  0  0  0  0
   -0.9500    2.6188    0.5645 C   0  0  0  0  0  0  0  0  0  0  0  0
   -0.1264    2.6730    1.2889 H   0  0  0  0  0  0  0  0  0  0  0  0
  1 10  1  0  0  0  0
  2  1  1  0  0  0  0
  3  2  1  0  0  0  0
  4  2  1  0  0  0  0
  4  6  2  0  0  0  0
  5  4  1  0  0  0  0
  6  8  1  0  0  0  0
  7  6  1  0  0  0  0
  8 10  2  0  0  0  0
  8  9  1  0  0  0  0
 10 11  1  0  0  0  0
M  END
