1
 OpenBabel05122313063D

 16 16  0  0  0  0  0  0  0  0999 V2000
    1.6544    0.5036   -0.0076 N   0  0  0  0  0  2  0  0  0  0  0  0
    2.1801    0.1245   -1.1910 C   0  0  0  0  0  3  0  0  0  0  0  0
    3.2699   -0.7458   -1.2633 C   0  0  0  0  0  0  0  0  0  0  0  0
    3.8413   -1.2329   -0.0717 C   0  0  0  0  0  0  0  0  0  0  0  0
    3.2886   -0.8137    1.1539 C   0  0  0  0  0  0  0  0  0  0  0  0
    2.1929    0.0578    1.1425 C   0  0  0  0  0  0  0  0  0  0  0  0
    5.0236   -2.1759   -0.1790 C   0  0  0  0  0  0  0  0  0  0  0  0
    5.6584   -2.6772    1.1002 C   0  0  0  0  0  0  0  0  0  0  0  0
    5.4349   -2.5073   -1.2818 O   0  0  0  0  0  0  0  0  0  0  0  0
    1.6989    0.5707   -2.0792 H   0  0  0  0  0  0  0  0  0  0  0  0
    3.6996   -1.0586   -2.2260 H   0  0  0  0  0  0  0  0  0  0  0  0
    3.6979   -1.1496    2.1168 H   0  0  0  0  0  0  0  0  0  0  0  0
    1.7206    0.4488    2.0614 H   0  0  0  0  0  0  0  0  0  0  0  0
    6.4996   -3.3462    0.8474 H   0  0  0  0  0  0  0  0  0  0  0  0
    6.0292   -1.8313    1.7153 H   0  0  0  0  0  0  0  0  0  0  0  0
    4.9204   -3.2278    1.7196 H   0  0  0  0  0  0  0  0  0  0  0  0
  1  6  1  0  0  0  0
  2  1  1  0  0  0  0
  3  2  1  0  0  0  0
  3  4  2  0  0  0  0
  4  5  1  0  0  0  0
  5 12  1  0  0  0  0
  6  5  2  0  0  0  0
  6 13  1  0  0  0  0
  7  4  1  0  0  0  0
  7  8  1  0  0  0  0
  8 15  1  0  0  0  0
  8 16  1  0  0  0  0
  9  7  2  0  0  0  0
 10  2  1  0  0  0  0
 11  3  1  0  0  0  0
 14  8  1  0  0  0  0
M  END
