2
 OpenBabel05122313063D

 14 14  0  0  0  0  0  0  0  0999 V2000
    4.2843   -1.3273   -0.4352 Cl  0  0  0  0  0  0  0  0  0  0  0  0
    0.1923   -1.2295    1.1211 N   0  0  0  0  0  2  0  0  0  0  0  0
    1.4049   -1.6314    0.6840 C   0  0  0  0  0  3  0  0  0  0  0  0
    1.5511   -1.6760   -0.4036 H   0  0  0  0  0  0  0  0  0  0  0  0
    2.4708   -1.9492    1.5396 C   0  0  0  0  0  0  0  0  0  0  0  0
    2.2427   -1.8733    2.9243 C   0  0  0  0  0  0  0  0  0  0  0  0
    3.0479   -2.1106    3.6366 H   0  0  0  0  0  0  0  0  0  0  0  0
    0.9749   -1.4900    3.3853 C   0  0  0  0  0  0  0  0  0  0  0  0
    0.7564   -1.4273    4.4606 H   0  0  0  0  0  0  0  0  0  0  0  0
   -0.0202   -1.1688    2.4598 C   0  0  0  0  0  0  0  0  0  0  0  0
   -1.0214   -0.8528    2.7858 H   0  0  0  0  0  0  0  0  0  0  0  0
    3.8043   -2.3588    0.9696 C   0  0  0  0  0  0  0  0  0  0  0  0
    4.6042   -2.2784    1.7289 H   0  0  0  0  0  0  0  0  0  0  0  0
    3.7808   -3.4037    0.6001 H   0  0  0  0  0  0  0  0  0  0  0  0
  1 12  1  0  0  0  0
  2 10  1  0  0  0  0
  3  2  1  0  0  0  0
  3  5  1  0  0  0  0
  4  3  1  0  0  0  0
  5  6  2  0  0  0  0
  6  8  1  0  0  0  0
  6  7  1  0  0  0  0
  8  9  1  0  0  0  0
 10 11  1  0  0  0  0
 10  8  2  0  0  0  0
 12  5  1  0  0  0  0
 12 13  1  0  0  0  0
 14 12  1  0  0  0  0
M  END
