1
 OpenBabel05122313063D

 12 12  0  0  1  0  0  0  0  0999 V2000
    2.0742   -0.2075    0.1936 N   0  0  0  0  0  2  0  0  0  0  0  0
    4.2119    0.0989   -0.1921 N   0  0  0  0  0  0  0  0  0  0  0  0
    5.0744    0.4890   -0.5770 H   0  0  0  0  0  0  0  0  0  0  0  0
    2.7896   -1.1282    0.9453 C   0  0  0  0  0  0  0  0  0  0  0  0
    2.2987   -1.8588    1.5955 H   0  0  0  0  0  0  0  0  0  0  0  0
    4.1341   -0.9448    0.7099 C   0  0  0  0  0  0  0  0  0  0  0  0
    5.0190   -1.4610    1.0934 H   0  0  0  0  0  0  0  0  0  0  0  0
    2.9586    0.5356   -0.4942 C   0  0  2  0  0  3  0  0  0  0  0  0
    2.6543    1.6755   -1.4017 C   0  0  0  0  0  0  0  0  0  0  0  0
    3.3426    1.6996   -2.2689 H   0  0  0  0  0  0  0  0  0  0  0  0
    2.7396    2.6480   -0.8723 H   0  0  0  0  0  0  0  0  0  0  0  0
    1.6196    1.5881   -1.7836 H   0  0  0  0  0  0  0  0  0  0  0  0
  1  4  1  0  0  0  0
  2  6  1  0  0  0  0
  3  2  1  0  0  0  0
  4  5  1  0  0  0  0
  6  4  2  0  0  0  0
  6  7  1  0  0  0  0
  8  9  1  1  0  0  0
  8  2  1  0  0  0  0
  8  1  1  0  0  0  0
  9 11  1  0  0  0  0
 10  9  1  0  0  0  0
 12  9  1  0  0  0  0
M  END
