1
 OpenBabel05122313063D

 45 46  0  0  0  0  0  0  0  0999 V2000
    0.2164    0.0973   -0.3769 N   0  0  0  0  0  2  0  0  0  0  0  0
    0.9420   -0.5451   -1.4167 C   0  0  0  0  0  0  0  0  0  0  0  0
    0.3905   -0.7992   -2.6364 C   0  0  0  0  0  0  0  0  0  0  0  0
    2.3543   -1.0171   -1.1856 C   0  0  0  0  0  0  0  0  0  0  0  0
    3.4352   -0.1407   -0.9362 C   0  0  0  0  0  0  0  0  0  0  0  0
    4.7433   -0.6321   -0.8119 C   0  0  0  0  0  0  0  0  0  0  0  0
    5.0042   -2.0068   -0.9232 C   0  0  0  0  0  0  0  0  0  0  0  0
    3.9423   -2.8896   -1.1714 C   0  0  0  0  0  0  0  0  0  0  0  0
    2.6355   -2.3972   -1.3056 C   0  0  0  0  0  0  0  0  0  0  0  0
    0.9976    0.9853    0.4398 C   0  0  0  0  0  0  0  0  0  0  0  0
    1.6011    0.5350    1.6511 C   0  0  0  0  0  0  0  0  0  0  0  0
    2.3459    1.4534    2.4160 C   0  0  0  0  0  0  0  0  0  0  0  0
    2.5154    2.7789    2.0024 C   0  0  0  0  0  0  0  0  0  0  0  0
    1.9350    3.2076    0.8019 C   0  0  0  0  0  0  0  0  0  0  0  0
    1.1758    2.3329    0.0020 C   0  0  0  0  0  0  0  0  0  0  0  0
    1.4902   -0.9089    2.1374 C   0  0  0  0  0  0  0  0  0  0  0  0
    0.7084   -1.0312    3.4584 C   0  0  0  0  0  0  0  0  0  0  0  0
    2.8687   -1.5742    2.2943 C   0  0  0  0  0  0  0  0  0  0  0  0
    0.5951    2.8218   -1.3241 C   0  0  0  0  0  0  0  0  0  0  0  0
    0.0675    4.2645   -1.2636 C   0  0  0  0  0  0  0  0  0  0  0  0
    1.6207    2.6976   -2.4684 C   0  0  0  0  0  0  0  0  0  0  0  0
    0.9660   -1.3575   -3.3880 H   0  0  0  0  0  0  0  0  0  0  0  0
   -0.6054   -0.4230   -2.9080 H   0  0  0  0  0  0  0  0  0  0  0  0
    3.2593    0.9386   -0.8496 H   0  0  0  0  0  0  0  0  0  0  0  0
    5.5675    0.0728   -0.6243 H   0  0  0  0  0  0  0  0  0  0  0  0
    6.0313   -2.3880   -0.8187 H   0  0  0  0  0  0  0  0  0  0  0  0
    4.1301   -3.9702   -1.2651 H   0  0  0  0  0  0  0  0  0  0  0  0
    1.8111   -3.0941   -1.5203 H   0  0  0  0  0  0  0  0  0  0  0  0
    2.8139    1.1149    3.3536 H   0  0  0  0  0  0  0  0  0  0  0  0
    3.1041    3.4796    2.6138 H   0  0  0  0  0  0  0  0  0  0  0  0
    2.0755    4.2492    0.4764 H   0  0  0  0  0  0  0  0  0  0  0  0
    0.9332   -1.4621    1.3571 H   0  0  0  0  0  0  0  0  0  0  0  0
    0.6576   -2.0922    3.7801 H   0  0  0  0  0  0  0  0  0  0  0  0
   -0.3278   -0.6539    3.3752 H   0  0  0  0  0  0  0  0  0  0  0  0
    1.2050   -0.4644    4.2731 H   0  0  0  0  0  0  0  0  0  0  0  0
    3.4547   -1.0979    3.1079 H   0  0  0  0  0  0  0  0  0  0  0  0
    3.4641   -1.5118    1.3664 H   0  0  0  0  0  0  0  0  0  0  0  0
    2.7504   -2.6456    2.5568 H   0  0  0  0  0  0  0  0  0  0  0  0
   -0.2545    2.1516   -1.5724 H   0  0  0  0  0  0  0  0  0  0  0  0
   -0.6098    4.4369   -0.4023 H   0  0  0  0  0  0  0  0  0  0  0  0
   -0.4935    4.5033   -2.1894 H   0  0  0  0  0  0  0  0  0  0  0  0
    0.8915    5.0036   -1.1840 H   0  0  0  0  0  0  0  0  0  0  0  0
    2.5241    3.3073   -2.2550 H   0  0  0  0  0  0  0  0  0  0  0  0
    1.1811    3.0614   -3.4199 H   0  0  0  0  0  0  0  0  0  0  0  0
    1.9353    1.6501   -2.6286 H   0  0  0  0  0  0  0  0  0  0  0  0
  1 10  1  0  0  0  0
  2  4  1  0  0  0  0
  2  1  1  0  0  0  0
  3  2  2  0  0  0  0
  4  5  1  0  0  0  0
  5 24  1  0  0  0  0
  5  6  2  0  0  0  0
  6 25  1  0  0  0  0
  7 26  1  0  0  0  0
  7  6  1  0  0  0  0
  8  7  2  0  0  0  0
  9  4  2  0  0  0  0
  9  8  1  0  0  0  0
 10 11  1  0  0  0  0
 11 16  1  0  0  0  0
 11 12  2  0  0  0  0
 12 29  1  0  0  0  0
 13 12  1  0  0  0  0
 13 30  1  0  0  0  0
 14 13  2  0  0  0  0
 15 10  2  0  0  0  0
 15 14  1  0  0  0  0
 16 18  1  0  0  0  0
 16 17  1  0  0  0  0
 17 33  1  0  0  0  0
 17 35  1  0  0  0  0
 18 38  1  0  0  0  0
 18 36  1  0  0  0  0
 19 20  1  0  0  0  0
 19 15  1  0  0  0  0
 20 42  1  0  0  0  0
 20 40  1  0  0  0  0
 21 43  1  0  0  0  0
 21 19  1  0  0  0  0
 22  3  1  0  0  0  0
 23  3  1  0  0  0  0
 27  8  1  0  0  0  0
 28  9  1  0  0  0  0
 31 14  1  0  0  0  0
 32 16  1  0  0  0  0
 34 17  1  0  0  0  0
 37 18  1  0  0  0  0
 39 19  1  0  0  0  0
 41 20  1  0  0  0  0
 44 21  1  0  0  0  0
 45 21  1  0  0  0  0
M  END
