5
 OpenBabel05122313063D

 39 41  0  0  1  0  0  0  0  0999 V2000
   -5.6492    1.6814   -1.8977 O   0  0  0  0  0  0  0  0  0  0  0  0
   -6.8608   -0.2177   -2.0910 O   0  0  0  0  0  0  0  0  0  0  0  0
   -5.6936    0.4614    1.1897 O   0  0  0  0  0  0  0  0  0  0  0  0
   -5.9571    0.2056    2.0927 H   0  0  0  0  0  0  0  0  0  0  0  0
   -0.9116   -0.6016   -0.2474 N   0  0  0  0  0  2  0  0  0  0  0  0
   -0.9749   -2.6635   -1.0409 N   0  0  0  0  0  0  0  0  0  0  0  0
   -0.4829   -1.8514   -0.0709 C   0  0  0  0  0  3  0  0  0  0  0  0
    0.1720   -2.1665    0.7517 H   0  0  0  0  0  0  0  0  0  0  0  0
   -1.7641   -1.8863   -1.8766 C   0  0  0  0  0  0  0  0  0  0  0  0
   -2.2846   -2.3095   -2.7414 H   0  0  0  0  0  0  0  0  0  0  0  0
   -1.7206   -0.5957   -1.3746 C   0  0  0  0  0  0  0  0  0  0  0  0
   -0.8106   -4.1028   -1.1166 C   0  0  0  0  0  0  0  0  0  0  0  0
   -0.4873   -4.4034   -2.1321 H   0  0  0  0  0  0  0  0  0  0  0  0
   -1.7631   -4.6130   -0.8687 H   0  0  0  0  0  0  0  0  0  0  0  0
   -0.0429   -4.4184   -0.3874 H   0  0  0  0  0  0  0  0  0  0  0  0
   -2.4935    0.6157   -1.7813 C   0  0  0  0  0  0  0  0  0  0  0  0
   -2.8632    0.4978   -2.8211 H   0  0  0  0  0  0  0  0  0  0  0  0
   -1.8242    1.5017   -1.7644 H   0  0  0  0  0  0  0  0  0  0  0  0
   -3.6715    0.8694   -0.8128 C   0  0  1  0  0  0  0  0  0  0  0  0
   -3.2461    1.0032    0.1996 H   0  0  0  0  0  0  0  0  0  0  0  0
   -4.4873    2.1248   -1.1700 C   0  0  0  0  0  0  0  0  0  0  0  0
   -4.8208    2.6484   -0.2520 H   0  0  0  0  0  0  0  0  0  0  0  0
   -3.9372    2.8381   -1.8166 H   0  0  0  0  0  0  0  0  0  0  0  0
   -5.8819    0.3576   -1.6759 C   0  0  0  0  0  0  0  0  0  0  0  0
   -4.7303   -0.2406   -0.8562 C   0  0  2  0  0  0  0  0  0  0  0  0
   -4.3760   -1.1463   -1.3891 H   0  0  0  0  0  0  0  0  0  0  0  0
   -5.2497   -0.7075    0.5197 C   0  0  1  0  0  0  0  0  0  0  0  0
   -6.1035   -1.3963    0.3034 H   0  0  0  0  0  0  0  0  0  0  0  0
   -4.1930   -1.4793    1.2953 C   0  0  0  0  0  0  0  0  0  0  0  0
   -4.0223   -2.8605    1.0730 C   0  0  0  0  0  0  0  0  0  0  0  0
   -4.6907   -3.3823    0.3680 H   0  0  0  0  0  0  0  0  0  0  0  0
   -3.0259   -3.5747    1.7557 C   0  0  0  0  0  0  0  0  0  0  0  0
   -2.9187   -4.6589    1.5918 H   0  0  0  0  0  0  0  0  0  0  0  0
   -2.1806   -2.9121    2.6633 C   0  0  0  0  0  0  0  0  0  0  0  0
   -1.3930   -3.4664    3.1965 H   0  0  0  0  0  0  0  0  0  0  0  0
   -2.3468   -1.5378    2.8922 C   0  0  0  0  0  0  0  0  0  0  0  0
   -1.6690   -1.0074    3.5771 H   0  0  0  0  0  0  0  0  0  0  0  0
   -3.3507   -0.8264    2.2161 C   0  0  0  0  0  0  0  0  0  0  0  0
   -3.4614    0.2554    2.3852 H   0  0  0  0  0  0  0  0  0  0  0  0
  1 24  1  0  0  0  0
  1 21  1  0  0  0  0
  2 24  2  0  0  0  0
  3  4  1  0  0  0  0
  5  7  1  0  0  0  0
  6  7  1  0  0  0  0
  7  8  1  0  0  0  0
  9 11  2  0  0  0  0
  9  6  1  0  0  0  0
 10  9  1  0  0  0  0
 11  5  1  0  0  0  0
 12  6  1  0  0  0  0
 12 14  1  0  0  0  0
 12 15  1  0  0  0  0
 13 12  1  0  0  0  0
 16 18  1  0  0  0  0
 16 11  1  0  0  0  0
 16 19  1  0  0  0  0
 17 16  1  0  0  0  0
 19 20  1  1  0  0  0
 21 19  1  0  0  0  0
 21 22  1  0  0  0  0
 23 21  1  0  0  0  0
 24 25  1  0  0  0  0
 25 26  1  6  0  0  0
 25 19  1  0  0  0  0
 25 27  1  0  0  0  0
 27 28  1  6  0  0  0
 27  3  1  0  0  0  0
 27 29  1  0  0  0  0
 29 38  1  0  0  0  0
 30 29  2  0  0  0  0
 30 32  1  0  0  0  0
 31 30  1  0  0  0  0
 32 34  2  0  0  0  0
 33 32  1  0  0  0  0
 34 36  1  0  0  0  0
 34 35  1  0  0  0  0
 36 37  1  0  0  0  0
 38 39  1  0  0  0  0
 38 36  2  0  0  0  0
M  END
