1
 OpenBabel05122313063D

 22 21  0  0  0  0  0  0  0  0999 V2000
    3.4252   -0.2064    0.2557 N   0  0  0  0  0  0  0  0  0  0  0  0
    3.7492   -1.6340   -0.0322 C   0  0  0  0  0  0  0  0  0  0  0  0
    4.8439   -1.7932    0.1041 H   0  0  0  0  0  0  0  0  0  0  0  0
    3.2286   -2.2231    0.7474 H   0  0  0  0  0  0  0  0  0  0  0  0
    3.3062   -2.1069   -1.4097 C   0  0  0  0  0  0  0  0  0  0  0  0
    2.2242   -1.9069   -1.5608 H   0  0  0  0  0  0  0  0  0  0  0  0
    3.4646   -3.2004   -1.4902 H   0  0  0  0  0  0  0  0  0  0  0  0
    3.8648   -1.6254   -2.2366 H   0  0  0  0  0  0  0  0  0  0  0  0
    4.0711    0.7203   -0.7178 C   0  0  0  0  0  0  0  0  0  0  0  0
    3.7060    1.7382   -0.4910 H   0  0  0  0  0  0  0  0  0  0  0  0
    3.6485    0.4945   -1.7132 H   0  0  0  0  0  0  0  0  0  0  0  0
    5.5989    0.6929   -0.7578 C   0  0  0  0  0  0  0  0  0  0  0  0
    6.0606    0.9782    0.2088 H   0  0  0  0  0  0  0  0  0  0  0  0
    5.9459    1.4249   -1.5141 H   0  0  0  0  0  0  0  0  0  0  0  0
    6.0043   -0.2964   -1.0508 H   0  0  0  0  0  0  0  0  0  0  0  0
    3.8110    0.1030    1.6627 C   0  0  0  0  0  0  0  0  0  0  0  0
    4.9073   -0.0575    1.7837 H   0  0  0  0  0  0  0  0  0  0  0  0
    3.2931   -0.6490    2.2888 H   0  0  0  0  0  0  0  0  0  0  0  0
    3.4186    1.5000    2.1209 C   0  0  0  0  0  0  0  0  0  0  0  0
    3.9749    2.3041    1.5999 H   0  0  0  0  0  0  0  0  0  0  0  0
    3.6194    1.6008    3.2057 H   0  0  0  0  0  0  0  0  0  0  0  0
    2.3330    1.6674    1.9574 H   0  0  0  0  0  0  0  0  0  0  0  0
  1 16  1  0  0  0  0
  2  3  1  0  0  0  0
  2  1  1  0  0  0  0
  2  4  1  0  0  0  0
  5  2  1  0  0  0  0
  6  5  1  0  0  0  0
  7  5  1  0  0  0  0
  8  5  1  0  0  0  0
  9 10  1  0  0  0  0
  9  1  1  0  0  0  0
 11  9  1  0  0  0  0
 12  9  1  0  0  0  0
 12 13  1  0  0  0  0
 14 12  1  0  0  0  0
 15 12  1  0  0  0  0
 16 17  1  0  0  0  0
 16 19  1  0  0  0  0
 16 18  1  0  0  0  0
 19 21  1  0  0  0  0
 20 19  1  0  0  0  0
 22 19  1  0  0  0  0
M  END
