1
 OpenBabel05122313063D

 21 22  0  0  0  0  0  0  0  0999 V2000
   -1.9536   -1.4080   -1.2925 N   0  0  0  0  0  2  0  0  0  0  0  0
   -1.8086   -1.4176   -2.6383 C   0  0  0  0  0  3  0  0  0  0  0  0
   -1.9251   -0.4423   -3.1323 H   0  0  0  0  0  0  0  0  0  0  0  0
   -1.4923   -2.5830   -3.3416 C   0  0  0  0  0  0  0  0  0  0  0  0
   -1.3887   -2.5428   -4.4346 H   0  0  0  0  0  0  0  0  0  0  0  0
   -1.3099   -3.7750   -2.6259 C   0  0  0  0  0  0  0  0  0  0  0  0
   -1.0589   -4.7113   -3.1469 H   0  0  0  0  0  0  0  0  0  0  0  0
   -1.4248   -3.7507   -1.2324 C   0  0  0  0  0  0  0  0  0  0  0  0
   -1.2445   -4.6517   -0.6299 H   0  0  0  0  0  0  0  0  0  0  0  0
   -1.7419   -2.5463   -0.5729 C   0  0  0  0  0  0  0  0  0  0  0  0
   -1.8487   -2.4813    0.9033 C   0  0  0  0  0  0  0  0  0  0  0  0
   -2.6127   -3.4401    1.6002 C   0  0  0  0  0  0  0  0  0  0  0  0
   -3.1488   -4.2199    1.0380 H   0  0  0  0  0  0  0  0  0  0  0  0
   -2.7310   -3.3737    2.9955 C   0  0  0  0  0  0  0  0  0  0  0  0
   -3.3483   -4.1131    3.5275 H   0  0  0  0  0  0  0  0  0  0  0  0
   -2.0715   -2.3600    3.7084 C   0  0  0  0  0  0  0  0  0  0  0  0
   -2.1629   -2.3089    4.8040 H   0  0  0  0  0  0  0  0  0  0  0  0
   -1.2914   -1.4152    3.0223 C   0  0  0  0  0  0  0  0  0  0  0  0
   -0.7582   -0.6289    3.5774 H   0  0  0  0  0  0  0  0  0  0  0  0
   -1.1809   -1.4651    1.6257 C   0  0  0  0  0  0  0  0  0  0  0  0
   -0.5497   -0.7345    1.0981 H   0  0  0  0  0  0  0  0  0  0  0  0
  1 10  1  0  0  0  0
  2  1  1  0  0  0  0
  3  2  1  0  0  0  0
  4  2  1  0  0  0  0
  4  6  2  0  0  0  0
  5  4  1  0  0  0  0
  6  8  1  0  0  0  0
  7  6  1  0  0  0  0
  8  9  1  0  0  0  0
  8 10  2  0  0  0  0
 10 11  1  0  0  0  0
 11 12  2  0  0  0  0
 11 20  1  0  0  0  0
 12 14  1  0  0  0  0
 13 12  1  0  0  0  0
 14 15  1  0  0  0  0
 14 16  2  0  0  0  0
 16 17  1  0  0  0  0
 18 19  1  0  0  0  0
 18 16  1  0  0  0  0
 20 18  2  0  0  0  0
 21 20  1  0  0  0  0
M  END
