4
 OpenBabel05122313063D

 27 28  0  0  0  0  0  0  0  0999 V2000
   -3.8311    2.1947   -0.5821 F   0  0  0  0  0  0  0  0  0  0  0  0
    6.9048    3.6510   -0.2689 O   0  0  0  0  0  0  0  0  0  0  0  0
    7.1204    1.4752   -0.1870 O   0  0  0  0  0  0  0  0  0  0  0  0
    0.8125    1.8910   -0.1000 N   0  0  0  0  0  2  0  0  0  0  0  0
    0.0276    2.9426   -0.0964 N   0  0  0  0  0  2  0  0  0  0  0  0
   -1.2260    2.6442   -0.0778 N   0  0  0  0  0  2  0  0  0  0  0  0
    6.4427    2.5069   -0.2188 N   0  0  0  0  0  0  0  0  0  0  0  0
    2.1903    2.0958   -0.1408 C   0  0  0  0  0  0  0  0  0  0  0  0
    2.7857    3.3855   -0.2015 C   0  0  0  0  0  0  0  0  0  0  0  0
    2.1370    4.2700   -0.2283 H   0  0  0  0  0  0  0  0  0  0  0  0
    4.1724    3.5130   -0.2279 C   0  0  0  0  0  0  0  0  0  0  0  0
    4.6613    4.4954   -0.2743 H   0  0  0  0  0  0  0  0  0  0  0  0
    4.9804    2.3622   -0.1950 C   0  0  0  0  0  0  0  0  0  0  0  0
    4.4152    1.0784   -0.1395 C   0  0  0  0  0  0  0  0  0  0  0  0
    5.0715    0.1989   -0.1114 H   0  0  0  0  0  0  0  0  0  0  0  0
    3.0281    0.9488   -0.1159 C   0  0  0  0  0  0  0  0  0  0  0  0
    2.5693   -0.0524   -0.0740 H   0  0  0  0  0  0  0  0  0  0  0  0
   -2.0997    3.7315   -0.0140 C   0  0  0  0  0  0  0  0  0  0  0  0
   -3.4706    3.4591   -0.2545 C   0  0  0  0  0  0  0  0  0  0  0  0
   -4.4542    4.4458   -0.1858 C   0  0  0  0  0  0  0  0  0  0  0  0
   -5.4991    4.1676   -0.3853 H   0  0  0  0  0  0  0  0  0  0  0  0
   -4.0809    5.7620    0.1306 C   0  0  0  0  0  0  0  0  0  0  0  0
   -4.8491    6.5469    0.1905 H   0  0  0  0  0  0  0  0  0  0  0  0
   -2.7287    6.0673    0.3707 C   0  0  0  0  0  0  0  0  0  0  0  0
   -2.4358    7.0978    0.6222 H   0  0  0  0  0  0  0  0  0  0  0  0
   -1.7515    5.0688    0.3011 C   0  0  0  0  0  0  0  0  0  0  0  0
   -0.6938    5.2918    0.4979 H   0  0  0  0  0  0  0  0  0  0  0  0
  1 19  1  0  0  0  0
  2  7  2  0  0  0  0
  4  5  1  0  0  0  0
  5  6  1  0  0  0  0
  6 18  1  0  0  0  0
  7 13  1  0  0  0  0
  7  3  2  0  0  0  0
  8 16  1  0  0  0  0
  8  4  1  0  0  0  0
  9  8  2  0  0  0  0
 10  9  1  0  0  0  0
 11  9  1  0  0  0  0
 11 13  2  0  0  0  0
 12 11  1  0  0  0  0
 13 14  1  0  0  0  0
 14 16  2  0  0  0  0
 14 15  1  0  0  0  0
 16 17  1  0  0  0  0
 18 26  1  0  0  0  0
 19 20  1  0  0  0  0
 19 18  2  0  0  0  0
 20 22  2  0  0  0  0
 21 20  1  0  0  0  0
 22 23  1  0  0  0  0
 22 24  1  0  0  0  0
 24 25  1  0  0  0  0
 26 24  2  0  0  0  0
 26 27  1  0  0  0  0
M  END
