5
 OpenBabel05122313063D

 53 57  0  0  0  0  0  0  0  0999 V2000
    2.4600    0.8054    2.1387 S   0  0  0  0  0  1  0  0  0  0  0  0
   -2.6756    1.2829   -1.2485 S   0  0  0  0  0  1  0  0  0  0  0  0
    2.4427   -0.4679    0.6225 P   0  0  0  0  0  4  0  0  0  0  0  0
   -1.0724    1.2138    0.0215 P   0  0  0  0  0  4  0  0  0  0  0  0
   -1.2934   -1.4270   -0.4393 N   0  0  0  0  0  0  0  0  0  0  0  0
   -0.6628   -2.6073   -0.4708 N   0  0  0  0  0  0  0  0  0  0  0  0
    0.6024   -2.4392   -0.1155 N   0  0  0  0  0  0  0  0  0  0  0  0
   -0.4132   -0.4542   -0.0484 C   0  0  0  0  0  3  0  0  0  0  0  0
    0.8097   -1.1197    0.1654 C   0  0  0  0  0  0  0  0  0  0  0  0
    2.6521   -0.2285   -2.2003 C   0  0  0  0  0  0  0  0  0  0  0  0
    1.8773   -1.0087   -2.2565 H   0  0  0  0  0  0  0  0  0  0  0  0
    3.2061    0.3009   -3.3757 C   0  0  0  0  0  0  0  0  0  0  0  0
    2.8672   -0.0719   -4.3543 H   0  0  0  0  0  0  0  0  0  0  0  0
    4.1854    1.3049   -3.3033 C   0  0  0  0  0  0  0  0  0  0  0  0
    4.6187    1.7177   -4.2272 H   0  0  0  0  0  0  0  0  0  0  0  0
    4.6052    1.7881   -2.0531 C   0  0  0  0  0  0  0  0  0  0  0  0
    5.3633    2.5840   -1.9953 H   0  0  0  0  0  0  0  0  0  0  0  0
    4.0533    1.2662   -0.8746 C   0  0  0  0  0  0  0  0  0  0  0  0
    4.3494    1.6475    0.1156 H   0  0  0  0  0  0  0  0  0  0  0  0
    3.0838    0.2504   -0.9473 C   0  0  0  0  0  0  0  0  0  0  0  0
    3.6632   -2.9349   -0.0801 C   0  0  0  0  0  0  0  0  0  0  0  0
    3.1559   -2.8439   -1.0498 H   0  0  0  0  0  0  0  0  0  0  0  0
    4.4854   -4.0400    0.1775 C   0  0  0  0  0  0  0  0  0  0  0  0
    4.6240   -4.8073   -0.5992 H   0  0  0  0  0  0  0  0  0  0  0  0
    5.1262   -4.1716    1.4210 C   0  0  0  0  0  0  0  0  0  0  0  0
    5.7716   -5.0416    1.6168 H   0  0  0  0  0  0  0  0  0  0  0  0
    4.9437   -3.1949    2.4119 C   0  0  0  0  0  0  0  0  0  0  0  0
    5.4445   -3.2947    3.3870 H   0  0  0  0  0  0  0  0  0  0  0  0
    4.1214   -2.0858    2.1616 C   0  0  0  0  0  0  0  0  0  0  0  0
    3.9634   -1.3015    2.9197 H   0  0  0  0  0  0  0  0  0  0  0  0
    3.4815   -1.9560    0.9173 C   0  0  0  0  0  0  0  0  0  0  0  0
    0.5200    2.4811   -1.8673 C   0  0  0  0  0  0  0  0  0  0  0  0
    0.0106    1.8209   -2.5853 H   0  0  0  0  0  0  0  0  0  0  0  0
    1.4876    3.3950   -2.2997 C   0  0  0  0  0  0  0  0  0  0  0  0
    1.7586    3.4393   -3.3644 H   0  0  0  0  0  0  0  0  0  0  0  0
    2.1163    4.2436   -1.3728 C   0  0  0  0  0  0  0  0  0  0  0  0
    2.8791    4.9590   -1.7161 H   0  0  0  0  0  0  0  0  0  0  0  0
    1.7797    4.1797   -0.0127 C   0  0  0  0  0  0  0  0  0  0  0  0
    2.2774    4.8391    0.7136 H   0  0  0  0  0  0  0  0  0  0  0  0
    0.8153    3.2640    0.4327 C   0  0  0  0  0  0  0  0  0  0  0  0
    0.5602    3.1982    1.4991 H   0  0  0  0  0  0  0  0  0  0  0  0
    0.1860    2.4171   -0.4984 C   0  0  0  0  0  0  0  0  0  0  0  0
   -0.9715    0.9081    2.8233 C   0  0  0  0  0  0  0  0  0  0  0  0
   -0.1914    0.1521    2.6521 H   0  0  0  0  0  0  0  0  0  0  0  0
   -1.3655    1.2337    4.1304 C   0  0  0  0  0  0  0  0  0  0  0  0
   -0.9065    0.7060    4.9797 H   0  0  0  0  0  0  0  0  0  0  0  0
   -2.3329    2.2259    4.3523 C   0  0  0  0  0  0  0  0  0  0  0  0
   -2.6383    2.4753    5.3800 H   0  0  0  0  0  0  0  0  0  0  0  0
   -2.9178    2.8982    3.2652 C   0  0  0  0  0  0  0  0  0  0  0  0
   -3.6820    3.6709    3.4382 H   0  0  0  0  0  0  0  0  0  0  0  0
   -2.5363    2.5782    1.9557 C   0  0  0  0  0  0  0  0  0  0  0  0
   -3.0073    3.0752    1.0935 H   0  0  0  0  0  0  0  0  0  0  0  0
   -1.5573    1.5875    1.7383 C   0  0  0  0  0  0  0  0  0  0  0  0
  2  4  1  0  0  0  0
  3 31  1  0  0  0  0
  3  1  1  0  0  0  0
  4 53  1  0  0  0  0
  5  8  1  0  0  0  0
  6  5  2  0  0  0  0
  6  7  1  0  0  0  0
  7  9  2  0  0  0  0
  8  4  1  0  0  0  0
  8  9  1  0  0  0  0
  9  3  1  0  0  0  0
 10 20  1  0  0  0  0
 11 10  1  0  0  0  0
 12 14  1  0  0  0  0
 12 10  2  0  0  0  0
 13 12  1  0  0  0  0
 14 16  2  0  0  0  0
 15 14  1  0  0  0  0
 16 17  1  0  0  0  0
 16 18  1  0  0  0  0
 18 19  1  0  0  0  0
 20 18  2  0  0  0  0
 20  3  1  0  0  0  0
 21 23  2  0  0  0  0
 21 31  1  0  0  0  0
 22 21  1  0  0  0  0
 23 25  1  0  0  0  0
 24 23  1  0  0  0  0
 25 26  1  0  0  0  0
 25 27  2  0  0  0  0
 27 28  1  0  0  0  0
 29 27  1  0  0  0  0
 29 30  1  0  0  0  0
 31 29  2  0  0  0  0
 32 42  1  0  0  0  0
 33 32  1  0  0  0  0
 34 32  2  0  0  0  0
 34 36  1  0  0  0  0
 35 34  1  0  0  0  0
 36 38  2  0  0  0  0
 37 36  1  0  0  0  0
 38 40  1  0  0  0  0
 38 39  1  0  0  0  0
 40 41  1  0  0  0  0
 42  4  1  0  0  0  0
 42 40  2  0  0  0  0
 43 45  1  0  0  0  0
 44 43  1  0  0  0  0
 45 47  2  0  0  0  0
 45 46  1  0  0  0  0
 47 48  1  0  0  0  0
 49 50  1  0  0  0  0
 49 47  1  0  0  0  0
 51 49  2  0  0  0  0
 52 51  1  0  0  0  0
 53 51  1  0  0  0  0
 53 43  2  0  0  0  0
M  END
