1
 OpenBabel05122313063D

 25 24  0  0  1  0  0  0  0  0999 V2000
   -0.9023   -0.1130   -0.2230 N   0  0  0  0  0  2  0  0  0  0  0  0
   -3.1414   -0.6028    0.3312 N   0  0  0  0  0  0  0  0  0  0  0  0
   -1.7867   -0.8056    0.4535 C   0  0  2  0  0  3  0  0  0  0  0  0
   -1.2844   -1.8333    1.4340 C   0  0  0  0  0  0  0  0  0  0  0  0
   -0.8870   -2.7190    0.8986 H   0  0  0  0  0  0  0  0  0  0  0  0
   -2.0474   -2.1215    2.1775 H   0  0  0  0  0  0  0  0  0  0  0  0
   -0.4116   -1.3935    1.9544 H   0  0  0  0  0  0  0  0  0  0  0  0
   -4.0253   -1.7550    0.4922 C   0  0  0  0  0  0  0  0  0  0  0  0
   -3.4318   -2.6654    0.6760 H   0  0  0  0  0  0  0  0  0  0  0  0
   -4.6008   -1.9356   -0.4405 H   0  0  0  0  0  0  0  0  0  0  0  0
   -4.7467   -1.6326    1.3255 H   0  0  0  0  0  0  0  0  0  0  0  0
   -3.7370    0.6532   -0.2466 C   0  0  0  0  0  0  0  0  0  0  0  0
   -3.0650    1.9022    0.3655 C   0  0  0  0  0  0  0  0  0  0  0  0
   -3.1799    1.8855    1.4675 H   0  0  0  0  0  0  0  0  0  0  0  0
   -3.5796    2.8050   -0.0176 H   0  0  0  0  0  0  0  0  0  0  0  0
   -1.9852    2.0223    0.1571 H   0  0  0  0  0  0  0  0  0  0  0  0
   -5.2262    0.7257    0.1544 C   0  0  0  0  0  0  0  0  0  0  0  0
   -5.8414   -0.0692   -0.3080 H   0  0  0  0  0  0  0  0  0  0  0  0
   -5.6336    1.6958   -0.1881 H   0  0  0  0  0  0  0  0  0  0  0  0
   -5.3497    0.6794    1.2543 H   0  0  0  0  0  0  0  0  0  0  0  0
   -3.6551    0.6416   -1.7891 C   0  0  0  0  0  0  0  0  0  0  0  0
   -2.6175    0.6686   -2.1759 H   0  0  0  0  0  0  0  0  0  0  0  0
   -4.1822    1.5231   -2.2048 H   0  0  0  0  0  0  0  0  0  0  0  0
   -4.1377   -0.2678   -2.2015 H   0  0  0  0  0  0  0  0  0  0  0  0
   -1.2847    0.5555   -0.8958 H   0  0  0  0  0  0  0  0  0  0  0  0
  2  3  1  0  0  0  0
  2  8  1  0  0  0  0
  3  1  1  1  0  0  0
  3  4  1  0  0  0  0
  4  7  1  0  0  0  0
  4  6  1  0  0  0  0
  5  4  1  0  0  0  0
  8  9  1  0  0  0  0
  8 11  1  0  0  0  0
 10  8  1  0  0  0  0
 12 17  1  0  0  0  0
 12  2  1  0  0  0  0
 12 13  1  0  0  0  0
 13 14  1  0  0  0  0
 15 13  1  0  0  0  0
 16 13  1  0  0  0  0
 17 20  1  0  0  0  0
 18 17  1  0  0  0  0
 19 17  1  0  0  0  0
 21 12  1  0  0  0  0
 22 21  1  0  0  0  0
 23 21  1  0  0  0  0
 24 21  1  0  0  0  0
 25  1  1  0  0  0  0
M  END
