1
 OpenBabel05122313063D

 18 18  0  0  1  0  0  0  0  0999 V2000
   -1.8116    0.1842   -0.4195 N   0  0  0  0  0  2  0  0  0  0  0  0
   -2.7324   -0.1922    0.5141 C   0  0  2  0  0  3  0  0  0  0  0  0
   -2.2794   -1.0537    1.6637 C   0  0  0  0  0  0  0  0  0  0  0  0
   -2.6294   -0.6115    2.6200 H   0  0  0  0  0  0  0  0  0  0  0  0
   -1.1669   -1.0384    1.6756 H   0  0  0  0  0  0  0  0  0  0  0  0
   -2.8088   -2.4945    1.5598 C   0  0  0  0  0  0  0  0  0  0  0  0
   -2.3001   -3.1305    2.3115 H   0  0  0  0  0  0  0  0  0  0  0  0
   -3.8992   -2.5286    1.7887 H   0  0  0  0  0  0  0  0  0  0  0  0
   -2.5596   -3.0973    0.2877 O   0  0  0  0  0  0  0  0  0  0  0  0
   -3.1614   -2.6723   -0.3537 H   0  0  0  0  0  0  0  0  0  0  0  0
   -4.0777    0.1983    0.3789 C   0  0  0  0  0  0  0  0  0  0  0  0
   -4.7985   -0.1075    1.1521 H   0  0  0  0  0  0  0  0  0  0  0  0
   -4.4843    0.9816   -0.7072 C   0  0  0  0  0  0  0  0  0  0  0  0
   -5.5342    1.2934   -0.8115 H   0  0  0  0  0  0  0  0  0  0  0  0
   -3.5192    1.3745   -1.6453 C   0  0  0  0  0  0  0  0  0  0  0  0
   -3.7750    2.0037   -2.5091 H   0  0  0  0  0  0  0  0  0  0  0  0
   -2.1971    0.9672   -1.4609 C   0  0  0  0  0  0  0  0  0  0  0  0
   -1.3928    1.2686   -2.1466 H   0  0  0  0  0  0  0  0  0  0  0  0
  1  2  1  0  0  0  0
  2  3  1  6  0  0  0
  3  5  1  0  0  0  0
  3  4  1  0  0  0  0
  6  3  1  0  0  0  0
  6  8  1  0  0  0  0
  6  7  1  0  0  0  0
  9  6  1  0  0  0  0
 10  9  1  0  0  0  0
 11  2  1  0  0  0  0
 11 12  1  0  0  0  0
 13 11  2  0  0  0  0
 14 13  1  0  0  0  0
 15 17  2  0  0  0  0
 15 13  1  0  0  0  0
 16 15  1  0  0  0  0
 17  1  1  0  0  0  0
 18 17  1  0  0  0  0
M  END
