1
 OpenBabel05122313063D

 26 27  0  0  0  0  0  0  0  0999 V2000
    0.3502   -1.4867   -0.2896 N   0  0  0  0  0  2  0  0  0  0  0  0
   -3.7736   -0.6932    0.2389 N   0  0  0  0  0  0  0  0  0  0  0  0
   -3.4421   -0.8869    1.1855 H   0  0  0  0  0  0  0  0  0  0  0  0
    0.6728   -2.7526    0.0725 C   0  0  0  0  0  3  0  0  0  0  0  0
    1.7448   -2.9340    0.2396 H   0  0  0  0  0  0  0  0  0  0  0  0
   -0.2970   -3.7524    0.1824 C   0  0  0  0  0  0  0  0  0  0  0  0
    0.0064   -4.7667    0.4783 H   0  0  0  0  0  0  0  0  0  0  0  0
   -1.6407   -3.4415   -0.0796 C   0  0  0  0  0  0  0  0  0  0  0  0
   -2.4273   -4.2058    0.0211 H   0  0  0  0  0  0  0  0  0  0  0  0
   -1.9700   -2.1379   -0.4831 C   0  0  0  0  0  0  0  0  0  0  0  0
   -0.9332   -1.1971   -0.5897 C   0  0  0  0  0  0  0  0  0  0  0  0
   -1.1212   -0.1735   -0.9466 H   0  0  0  0  0  0  0  0  0  0  0  0
   -3.3856   -1.6837   -0.7479 C   0  0  0  0  0  0  0  0  0  0  0  0
   -3.4319   -1.2168   -1.7558 H   0  0  0  0  0  0  0  0  0  0  0  0
   -4.0725   -2.5654   -0.7761 H   0  0  0  0  0  0  0  0  0  0  0  0
   -4.9664    0.0203    0.1711 C   0  0  0  0  0  0  0  0  0  0  0  0
   -5.3725    0.7979    1.2857 C   0  0  0  0  0  0  0  0  0  0  0  0
   -4.7469    0.8022    2.1932 H   0  0  0  0  0  0  0  0  0  0  0  0
   -6.5436    1.5587    1.2379 C   0  0  0  0  0  0  0  0  0  0  0  0
   -6.8348    2.1530    2.1178 H   0  0  0  0  0  0  0  0  0  0  0  0
   -7.3449    1.5717    0.0821 C   0  0  0  0  0  0  0  0  0  0  0  0
   -8.2652    2.1725    0.0463 H   0  0  0  0  0  0  0  0  0  0  0  0
   -6.9521    0.8007   -1.0211 C   0  0  0  0  0  0  0  0  0  0  0  0
   -7.5690    0.7909   -1.9329 H   0  0  0  0  0  0  0  0  0  0  0  0
   -5.7835    0.0250   -0.9849 C   0  0  0  0  0  0  0  0  0  0  0  0
   -5.5104   -0.5782   -1.8616 H   0  0  0  0  0  0  0  0  0  0  0  0
  1  4  1  0  0  0  0
  2  3  1  0  0  0  0
  4  6  1  0  0  0  0
  4  5  1  0  0  0  0
  6  7  1  0  0  0  0
  8  9  1  0  0  0  0
  8  6  2  0  0  0  0
 10  8  1  0  0  0  0
 11 10  2  0  0  0  0
 11  1  1  0  0  0  0
 12 11  1  0  0  0  0
 13 10  1  0  0  0  0
 13  2  1  0  0  0  0
 14 13  1  0  0  0  0
 15 13  1  0  0  0  0
 16  2  1  0  0  0  0
 16 17  1  0  0  0  0
 17 18  1  0  0  0  0
 19 17  2  0  0  0  0
 19 20  1  0  0  0  0
 21 19  1  0  0  0  0
 22 21  1  0  0  0  0
 23 25  1  0  0  0  0
 23 21  2  0  0  0  0
 24 23  1  0  0  0  0
 25 16  2  0  0  0  0
 26 25  1  0  0  0  0
M  END
