6
 OpenBabel05122313063D

 11 11  0  0  0  0  0  0  0  0999 V2000
    4.8425   -1.3649    0.0693 C   0  0  0  0  0  3  0  0  0  0  0  0
    5.4959   -2.2402    0.1316 H   0  0  0  0  0  0  0  0  0  0  0  0
    5.1449    0.0003   -0.0103 C   0  0  0  0  0  0  0  0  0  0  0  0
    3.9130    0.6899   -0.0691 C   0  0  0  0  0  0  0  0  0  0  0  0
    3.6839    1.7591   -0.1344 H   0  0  0  0  0  0  0  0  0  0  0  0
    2.9270   -0.2150   -0.0279 N   0  0  0  0  0  2  0  0  0  0  0  0
    3.4991   -1.4346    0.0550 N   0  0  0  0  0  0  0  0  0  0  0  0
    2.8191   -2.2305    0.0944 H   0  0  0  0  0  0  0  0  0  0  0  0
    6.4727    0.5719   -0.0270 N   0  0  0  0  0  0  0  0  0  0  0  0
    6.5535    1.7981   -0.1008 O   0  0  0  0  0  0  0  0  0  0  0  0
    7.4194   -0.2172    0.0344 O   0  0  0  0  0  0  0  0  0  0  0  0
  1  2  1  0  0  0  0
  3  1  1  0  0  0  0
  4  6  1  0  0  0  0
  4  3  2  0  0  0  0
  5  4  1  0  0  0  0
  6  7  1  0  0  0  0
  7  1  1  0  0  0  0
  7  8  1  0  0  0  0
  9  3  1  0  0  0  0
  9 11  2  0  0  0  0
 10  9  2  0  0  0  0
M  END
