1
 OpenBabel05122313063D

 35 36  0  0  1  0  0  0  0  0999 V2000
   -1.7125    1.0275   -0.4667 N   0  0  0  0  0  2  0  0  0  0  0  0
   -1.6010    2.1611   -1.1859 N   0  0  0  0  0  0  0  0  0  0  0  0
   -0.3410    2.4279   -1.8590 C   0  0  0  0  0  0  0  0  0  0  0  0
    0.1000    1.4819   -2.2162 H   0  0  0  0  0  0  0  0  0  0  0  0
    0.3915    2.9140   -1.1787 H   0  0  0  0  0  0  0  0  0  0  0  0
   -0.5493    3.0870   -2.7256 H   0  0  0  0  0  0  0  0  0  0  0  0
   -2.4296    3.3081   -0.8541 C   0  0  0  0  0  0  0  0  0  0  0  0
   -2.9343    3.1321    0.1150 H   0  0  0  0  0  0  0  0  0  0  0  0
   -3.1988    3.5302   -1.6263 H   0  0  0  0  0  0  0  0  0  0  0  0
   -1.7731    4.1961   -0.7477 H   0  0  0  0  0  0  0  0  0  0  0  0
   -2.9057    0.5708   -0.1524 C   0  0  1  0  0  3  0  0  0  0  0  0
   -4.2356    0.8268   -0.8378 C   0  0  1  0  0  0  0  0  0  0  0  0
   -4.4072    1.8336   -1.2554 H   0  0  0  0  0  0  0  0  0  0  0  0
   -4.3175   -0.3228   -1.8891 C   0  0  0  0  0  0  0  0  0  0  0  0
   -3.3899   -0.3841   -2.4903 H   0  0  0  0  0  0  0  0  0  0  0  0
   -5.1630   -0.1471   -2.5838 H   0  0  0  0  0  0  0  0  0  0  0  0
   -4.5299   -1.5836   -1.0057 C   0  0  0  0  0  0  0  0  0  0  0  0
   -3.7037   -2.3135   -1.1158 H   0  0  0  0  0  0  0  0  0  0  0  0
   -5.4761   -2.1100   -1.2444 H   0  0  0  0  0  0  0  0  0  0  0  0
   -4.5899   -1.0283    0.4558 C   0  0  1  0  0  0  0  0  0  0  0  0
   -3.1370   -0.6057    0.7353 C   0  0  0  0  0  0  0  0  0  0  0  0
   -5.2575    0.3810    0.2551 C   0  0  0  0  0  0  0  0  0  0  0  0
   -5.1572   -1.9754    1.4923 C   0  0  0  0  0  0  0  0  0  0  0  0
   -6.1834   -2.2990    1.2261 H   0  0  0  0  0  0  0  0  0  0  0  0
   -5.1835   -1.5074    2.4966 H   0  0  0  0  0  0  0  0  0  0  0  0
   -4.5173   -2.8765    1.5732 H   0  0  0  0  0  0  0  0  0  0  0  0
   -5.2052    1.2635    1.5106 C   0  0  0  0  0  0  0  0  0  0  0  0
   -4.1825    1.3508    1.9312 H   0  0  0  0  0  0  0  0  0  0  0  0
   -5.8592    0.8553    2.3075 H   0  0  0  0  0  0  0  0  0  0  0  0
   -5.5645    2.2881    1.2814 H   0  0  0  0  0  0  0  0  0  0  0  0
   -6.7051    0.3211   -0.2445 C   0  0  0  0  0  0  0  0  0  0  0  0
   -6.8404   -0.3317   -1.1268 H   0  0  0  0  0  0  0  0  0  0  0  0
   -7.0594    1.3365   -0.5189 H   0  0  0  0  0  0  0  0  0  0  0  0
   -7.3736   -0.0567    0.5554 H   0  0  0  0  0  0  0  0  0  0  0  0
   -2.3654   -1.1270    1.5268 O   0  0  0  0  0  0  0  0  0  0  0  0
  2  7  1  0  0  0  0
  2  1  1  0  0  0  0
  3  2  1  0  0  0  0
  3  5  1  0  0  0  0
  4  3  1  0  0  0  0
  6  3  1  0  0  0  0
  7 10  1  0  0  0  0
  7  8  1  0  0  0  0
  9  7  1  0  0  0  0
 11  1  1  6  0  0  0
 11 21  1  0  0  0  0
 12 13  1  6  0  0  0
 12 11  1  0  0  0  0
 12 22  1  0  0  0  0
 14 17  1  0  0  0  0
 14 12  1  0  0  0  0
 15 14  1  0  0  0  0
 16 14  1  0  0  0  0
 17 20  1  0  0  0  0
 18 17  1  0  0  0  0
 19 17  1  0  0  0  0
 20 21  1  0  0  0  0
 20 23  1  1  0  0  0
 21 35  2  0  0  0  0
 22 20  1  0  0  0  0
 22 27  1  0  0  0  0
 23 26  1  0  0  0  0
 23 25  1  0  0  0  0
 24 23  1  0  0  0  0
 27 28  1  0  0  0  0
 27 29  1  0  0  0  0
 30 27  1  0  0  0  0
 31 22  1  0  0  0  0
 31 34  1  0  0  0  0
 32 31  1  0  0  0  0
 33 31  1  0  0  0  0
M  END
