1
 OpenBabel05122313063D

 23 23  0  0  1  0  0  0  0  0999 V2000
    1.5549    0.0247   -0.1874 N   0  0  0  0  0  2  0  0  0  0  0  0
    1.5669   -1.0624   -0.9897 C   0  0  2  0  0  3  0  0  0  0  0  0
    2.6982   -1.9264   -1.0042 C   0  0  0  0  0  0  0  0  0  0  0  0
    3.8249   -1.6363   -0.1978 C   0  0  0  0  0  0  0  0  0  0  0  0
    3.7803   -0.4728    0.6063 C   0  0  0  0  0  0  0  0  0  0  0  0
    2.6330    0.3225    0.5765 C   0  0  0  0  0  0  0  0  0  0  0  0
    2.5690    1.2622    1.1446 H   0  0  0  0  0  0  0  0  0  0  0  0
    0.4116   -1.3533   -1.8972 C   0  0  0  0  0  0  0  0  0  0  0  0
   -0.1538   -0.4263   -2.1050 H   0  0  0  0  0  0  0  0  0  0  0  0
   -0.2846   -2.0893   -1.4411 H   0  0  0  0  0  0  0  0  0  0  0  0
    0.7738   -1.7988   -2.8425 H   0  0  0  0  0  0  0  0  0  0  0  0
    5.0815   -2.4698   -0.2838 C   0  0  0  0  0  0  0  0  0  0  0  0
    5.7526   -2.0275   -1.0571 H   0  0  0  0  0  0  0  0  0  0  0  0
    5.6444   -2.4243    0.6730 H   0  0  0  0  0  0  0  0  0  0  0  0
    4.9668   -0.0417    1.4410 C   0  0  0  0  0  0  0  0  0  0  0  0
    4.7001    0.8802    2.0075 H   0  0  0  0  0  0  0  0  0  0  0  0
    5.2055   -0.8217    2.1964 H   0  0  0  0  0  0  0  0  0  0  0  0
    2.6337   -2.9969   -1.8209 O   0  0  0  0  0  0  0  0  0  0  0  0
    3.4211   -3.5660   -1.5939 H   0  0  0  0  0  0  0  0  0  0  0  0
    4.7462   -3.8303   -0.6029 O   0  0  0  0  0  0  0  0  0  0  0  0
    5.5602   -4.2913   -0.8743 H   0  0  0  0  0  0  0  0  0  0  0  0
    6.1493    0.1208    0.6688 O   0  0  0  0  0  0  0  0  0  0  0  0
    5.9792    0.8488    0.0412 H   0  0  0  0  0  0  0  0  0  0  0  0
  1  6  1  0  0  0  0
  2  8  1  6  0  0  0
  2  1  1  0  0  0  0
  3  2  1  0  0  0  0
  3  4  2  0  0  0  0
  4  5  1  0  0  0  0
  5 15  1  0  0  0  0
  6  5  2  0  0  0  0
  6  7  1  0  0  0  0
  8 10  1  0  0  0  0
  9  8  1  0  0  0  0
 11  8  1  0  0  0  0
 12  4  1  0  0  0  0
 12 14  1  0  0  0  0
 13 12  1  0  0  0  0
 15 16  1  0  0  0  0
 15 17  1  0  0  0  0
 18 19  1  0  0  0  0
 18  3  1  0  0  0  0
 20 12  1  0  0  0  0
 21 20  1  0  0  0  0
 22 15  1  0  0  0  0
 23 22  1  0  0  0  0
M  END
