1
 OpenBabel05122313063D

 16 16  0  0  0  0  0  0  0  0999 V2000
   -1.5566   -0.9371    0.1918 N   0  0  0  0  0  2  0  0  0  0  0  0
   -1.7710   -1.9315   -0.0080 H   0  0  0  0  0  0  0  0  0  0  0  0
   -2.6769   -0.1319    0.1037 C   0  0  0  0  0  0  0  0  0  0  0  0
   -2.5709    1.2837    0.1559 C   0  0  0  0  0  0  0  0  0  0  0  0
   -1.5762    1.7322    0.2564 H   0  0  0  0  0  0  0  0  0  0  0  0
   -3.7092    2.0844    0.0609 C   0  0  0  0  0  0  0  0  0  0  0  0
   -3.6090    3.1793    0.0986 H   0  0  0  0  0  0  0  0  0  0  0  0
   -4.9747    1.4914   -0.0876 C   0  0  0  0  0  0  0  0  0  0  0  0
   -5.8761    2.1178   -0.1631 H   0  0  0  0  0  0  0  0  0  0  0  0
   -5.0884    0.0927   -0.1485 C   0  0  0  0  0  0  0  0  0  0  0  0
   -6.0810   -0.3684   -0.2705 H   0  0  0  0  0  0  0  0  0  0  0  0
   -3.9647   -0.7432   -0.0630 C   0  0  0  0  0  0  0  0  0  0  0  0
   -4.1053   -2.2417   -0.1296 C   0  0  0  0  0  0  0  0  0  0  0  0
   -5.1527   -2.5305   -0.3369 H   0  0  0  0  0  0  0  0  0  0  0  0
   -3.8056   -2.7266    0.8239 H   0  0  0  0  0  0  0  0  0  0  0  0
   -3.4698   -2.6862   -0.9255 H   0  0  0  0  0  0  0  0  0  0  0  0
  2  1  1  0  0  0  0
  3  4  1  0  0  0  0
  3  1  1  0  0  0  0
  4  5  1  0  0  0  0
  6  7  1  0  0  0  0
  6  4  2  0  0  0  0
  8  6  1  0  0  0  0
  9  8  1  0  0  0  0
 10  8  2  0  0  0  0
 10 12  1  0  0  0  0
 11 10  1  0  0  0  0
 12  3  2  0  0  0  0
 13 12  1  0  0  0  0
 13 15  1  0  0  0  0
 14 13  1  0  0  0  0
 16 13  1  0  0  0  0
M  END
