1
 OpenBabel05122313063D

 20 22  0  0  0  0  0  0  0  0999 V2000
   -1.8478    0.6351   -1.5685 N   0  0  0  0  0  2  0  0  0  0  0  0
   -1.9448   -2.0059   -0.0532 N   0  0  0  0  0  0  0  0  0  0  0  0
   -5.6120    0.7432    1.4138 O   0  0  0  0  0  0  0  0  0  0  0  0
   -1.9909    1.8687   -2.1118 C   0  0  0  0  0  3  0  0  0  0  0  0
   -1.2257    2.1653   -2.8455 H   0  0  0  0  0  0  0  0  0  0  0  0
   -3.0370    2.7412   -1.7712 C   0  0  0  0  0  0  0  0  0  0  0  0
   -3.0907    3.7261   -2.2567 H   0  0  0  0  0  0  0  0  0  0  0  0
   -3.9940    2.3526   -0.8102 C   0  0  0  0  0  0  0  0  0  0  0  0
   -4.8187    3.0145   -0.5053 H   0  0  0  0  0  0  0  0  0  0  0  0
   -3.8436    1.0883   -0.2472 C   0  0  0  0  0  0  0  0  0  0  0  0
   -2.7608    0.2793   -0.6556 C   0  0  0  0  0  0  0  0  0  0  0  0
   -2.7935   -0.9890    0.0955 C   0  0  0  0  0  0  0  0  0  0  0  0
   -3.8875   -0.9501    0.9924 C   0  0  0  0  0  0  0  0  0  0  0  0
   -4.0918   -2.0363    1.8419 C   0  0  0  0  0  0  0  0  0  0  0  0
   -4.9213   -2.0446    2.5653 H   0  0  0  0  0  0  0  0  0  0  0  0
   -3.1822   -3.1066    1.7305 C   0  0  0  0  0  0  0  0  0  0  0  0
   -3.2730   -3.9928    2.3753 H   0  0  0  0  0  0  0  0  0  0  0  0
   -2.1446   -3.0480    0.7789 C   0  0  0  0  0  0  0  0  0  0  0  0
   -1.4361   -3.8881    0.6843 H   0  0  0  0  0  0  0  0  0  0  0  0
   -4.6163    0.3547    0.8231 C   0  0  0  0  0  0  0  0  0  0  0  0
  1 11  1  0  0  0  0
  2 12  2  0  0  0  0
  2 18  1  0  0  0  0
  4  6  1  0  0  0  0
  4  1  1  0  0  0  0
  5  4  1  0  0  0  0
  6  8  2  0  0  0  0
  7  6  1  0  0  0  0
  8  9  1  0  0  0  0
  8 10  1  0  0  0  0
 10 20  1  0  0  0  0
 11 10  2  0  0  0  0
 11 12  1  0  0  0  0
 12 13  1  0  0  0  0
 13 14  2  0  0  0  0
 14 15  1  0  0  0  0
 16 14  1  0  0  0  0
 16 17  1  0  0  0  0
 18 16  2  0  0  0  0
 19 18  1  0  0  0  0
 20 13  1  0  0  0  0
 20  3  2  0  0  0  0
M  END
