2
 OpenBabel05122313063D

 39 41  0  0  1  0  0  0  0  0999 V2000
   -5.6861   -1.5076   -0.6037 O   0  0  0  0  0  0  0  0  0  0  0  0
   -1.3964   -0.9439   -0.5064 N   0  0  0  0  0  2  0  0  0  0  0  0
   -3.3601   -1.7624   -1.0930 N   0  0  0  0  0  0  0  0  0  0  0  0
   -2.5147   -0.6999   -1.1929 C   0  0  0  0  0  3  0  0  0  0  0  0
   -2.7167    0.2342   -1.7309 H   0  0  0  0  0  0  0  0  0  0  0  0
   -1.5192   -2.2048    0.0550 C   0  0  0  0  0  0  0  0  0  0  0  0
   -0.7002   -2.6304    0.6438 H   0  0  0  0  0  0  0  0  0  0  0  0
   -2.7472   -2.7215   -0.3000 C   0  0  0  0  0  0  0  0  0  0  0  0
   -3.2392   -3.6669   -0.0532 H   0  0  0  0  0  0  0  0  0  0  0  0
   -4.7422   -1.7969   -1.5785 C   0  0  0  0  0  0  0  0  0  0  0  0
   -4.7929   -1.0939   -2.4407 H   0  0  0  0  0  0  0  0  0  0  0  0
   -4.9438   -2.8270   -1.9344 H   0  0  0  0  0  0  0  0  0  0  0  0
   -5.9411   -0.1219   -0.3176 C   0  0  1  0  0  0  0  0  0  0  0  0
   -5.4616    0.4896   -1.1164 H   0  0  0  0  0  0  0  0  0  0  0  0
   -7.4710    0.1386   -0.3279 C   0  0  1  0  0  0  0  0  0  0  0  0
   -8.1186   -0.8598    0.6714 C   0  0  0  0  0  0  0  0  0  0  0  0
   -7.7540   -1.8894    0.4921 H   0  0  0  0  0  0  0  0  0  0  0  0
   -9.2180   -0.8691    0.5262 H   0  0  0  0  0  0  0  0  0  0  0  0
   -7.7246   -0.2977    2.0675 C   0  0  0  0  0  0  0  0  0  0  0  0
   -8.6151    0.0729    2.6145 H   0  0  0  0  0  0  0  0  0  0  0  0
   -7.2381   -1.0467    2.7202 H   0  0  0  0  0  0  0  0  0  0  0  0
   -6.8027    0.8878    1.7144 C   0  0  1  0  0  0  0  0  0  0  0  0
   -6.6402    1.5936    2.5530 H   0  0  0  0  0  0  0  0  0  0  0  0
   -5.4518    0.3842    1.1020 C   0  0  0  0  0  0  0  0  0  0  0  0
   -7.5290    1.4546    0.4771 C   0  0  0  0  0  0  0  0  0  0  0  0
   -8.5709    1.7734    0.6871 H   0  0  0  0  0  0  0  0  0  0  0  0
   -7.0015    2.2946   -0.0179 H   0  0  0  0  0  0  0  0  0  0  0  0
   -8.0786    0.1231   -1.7214 C   0  0  0  0  0  0  0  0  0  0  0  0
   -7.9421   -0.8708   -2.1965 H   0  0  0  0  0  0  0  0  0  0  0  0
   -7.6068    0.8837   -2.3783 H   0  0  0  0  0  0  0  0  0  0  0  0
   -9.1676    0.3309   -1.6875 H   0  0  0  0  0  0  0  0  0  0  0  0
   -4.4767    1.5665    0.9585 C   0  0  0  0  0  0  0  0  0  0  0  0
   -4.1798    1.9432    1.9589 H   0  0  0  0  0  0  0  0  0  0  0  0
   -4.9229    2.4164    0.4045 H   0  0  0  0  0  0  0  0  0  0  0  0
   -3.5454    1.2857    0.4267 H   0  0  0  0  0  0  0  0  0  0  0  0
   -4.7702   -0.7122    1.9297 C   0  0  0  0  0  0  0  0  0  0  0  0
   -4.6561   -0.3759    2.9807 H   0  0  0  0  0  0  0  0  0  0  0  0
   -3.7544   -0.9265    1.5428 H   0  0  0  0  0  0  0  0  0  0  0  0
   -5.3303   -1.6657    1.9268 H   0  0  0  0  0  0  0  0  0  0  0  0
  1 13  1  0  0  0  0
  2  6  1  0  0  0  0
  3  8  1  0  0  0  0
  4  3  1  0  0  0  0
  4  2  1  0  0  0  0
  5  4  1  0  0  0  0
  6  7  1  0  0  0  0
  8  9  1  0  0  0  0
  8  6  2  0  0  0  0
 10  3  1  0  0  0  0
 10  1  1  0  0  0  0
 11 10  1  0  0  0  0
 12 10  1  0  0  0  0
 13 14  1  6  0  0  0
 13 24  1  0  0  0  0
 15 28  1  6  0  0  0
 15 13  1  0  0  0  0
 15 25  1  0  0  0  0
 15 16  1  0  0  0  0
 16 19  1  0  0  0  0
 17 16  1  0  0  0  0
 18 16  1  0  0  0  0
 19 20  1  0  0  0  0
 19 21  1  0  0  0  0
 22 19  1  0  0  0  0
 22 23  1  1  0  0  0
 24 22  1  0  0  0  0
 24 36  1  0  0  0  0
 25 26  1  0  0  0  0
 25 22  1  0  0  0  0
 27 25  1  0  0  0  0
 28 31  1  0  0  0  0
 29 28  1  0  0  0  0
 30 28  1  0  0  0  0
 32 24  1  0  0  0  0
 32 33  1  0  0  0  0
 34 32  1  0  0  0  0
 35 32  1  0  0  0  0
 36 37  1  0  0  0  0
 38 36  1  0  0  0  0
 39 36  1  0  0  0  0
M  END
