2
 OpenBabel05122313063D

 16 17  0  0  1  0  0  0  0  0999 V2000
   -3.9423   -1.0475   -1.0867 S   0  0  0  0  0  0  0  0  0  0  0  0
   -1.5339   -0.6064   -0.1730 N   0  0  0  0  0  2  0  0  0  0  0  0
   -1.6156   -2.2810   -1.8372 N   0  0  0  0  0  0  0  0  0  0  0  0
   -0.7631   -2.7055   -1.3937 H   0  0  0  0  0  0  0  0  0  0  0  0
   -2.2284   -2.9223   -2.3414 H   0  0  0  0  0  0  0  0  0  0  0  0
   -2.3737    0.2192    0.5704 C   0  0  0  0  0  0  0  0  0  0  0  0
   -1.9888    1.0887    1.6074 C   0  0  0  0  0  0  0  0  0  0  0  0
   -0.9290    1.1404    1.8940 H   0  0  0  0  0  0  0  0  0  0  0  0
   -2.9690    1.8659    2.2358 C   0  0  0  0  0  0  0  0  0  0  0  0
   -2.6750    2.5475    3.0476 H   0  0  0  0  0  0  0  0  0  0  0  0
   -4.7241    0.9245    0.8186 C   0  0  0  0  0  0  0  0  0  0  0  0
   -5.7789    0.8554    0.5163 H   0  0  0  0  0  0  0  0  0  0  0  0
   -2.2002   -1.3586   -1.0462 C   0  0  1  0  0  3  0  0  0  0  0  0
   -3.7426    0.1423    0.1964 C   0  0  0  0  0  0  0  0  0  0  0  0
   -4.3219    1.7910    1.8462 C   0  0  0  0  0  0  0  0  0  0  0  0
   -5.0746    2.4117    2.3542 H   0  0  0  0  0  0  0  0  0  0  0  0
  1 13  1  0  0  0  0
  1 14  1  0  0  0  0
  2  6  1  0  0  0  0
  3  4  1  0  0  0  0
  5  3  1  0  0  0  0
  6  7  1  0  0  0  0
  7  8  1  0  0  0  0
  7  9  2  0  0  0  0
  9 10  1  0  0  0  0
 11 15  2  0  0  0  0
 12 11  1  0  0  0  0
 13  3  1  1  0  0  0
 13  2  1  0  0  0  0
 14  6  2  0  0  0  0
 14 11  1  0  0  0  0
 15  9  1  0  0  0  0
 15 16  1  0  0  0  0
M  END
