2
 OpenBabel05122313063D

 12 12  0  0  1  0  0  0  0  0999 V2000
    4.2968   -0.1006    0.7192 N   0  0  0  0  0  0  0  0  0  0  0  0
    2.0886   -0.0826   -0.2271 N   0  0  0  0  0  2  0  0  0  0  0  0
    3.0061   -0.5067    0.7079 C   0  0  2  0  0  3  0  0  0  0  0  0
    4.7140    0.6706   -0.2824 C   0  0  0  0  0  0  0  0  0  0  0  0
    5.7690    0.9975   -0.2429 H   0  0  0  0  0  0  0  0  0  0  0  0
    2.5859   -1.3445    1.6775 N   0  0  0  0  0  0  0  0  0  0  0  0
    3.3289   -1.7249    2.2651 H   0  0  0  0  0  0  0  0  0  0  0  0
    1.7871   -1.9629    1.4253 H   0  0  0  0  0  0  0  0  0  0  0  0
    2.5457    0.6638   -1.2551 C   0  0  0  0  0  0  0  0  0  0  0  0
    1.7934    0.9641   -1.9990 H   0  0  0  0  0  0  0  0  0  0  0  0
    3.8801    1.0591   -1.3467 C   0  0  0  0  0  0  0  0  0  0  0  0
    4.2386    1.6679   -2.1864 H   0  0  0  0  0  0  0  0  0  0  0  0
  2  3  1  0  0  0  0
  3  1  1  0  0  0  0
  3  6  1  1  0  0  0
  4  5  1  0  0  0  0
  4  1  2  0  0  0  0
  6  7  1  0  0  0  0
  8  6  1  0  0  0  0
  9  2  1  0  0  0  0
 10  9  1  0  0  0  0
 11  9  2  0  0  0  0
 11  4  1  0  0  0  0
 12 11  1  0  0  0  0
M  END
