1
 OpenBabel05122313063D

 16 16  0  0  0  0  0  0  0  0999 V2000
    1.8574   -0.0092   -0.4080 N   0  0  0  0  0  2  0  0  0  0  0  0
    2.4145   -1.1996    1.5194 N   0  0  0  0  0  0  0  0  0  0  0  0
    1.6080   -1.8172    1.2888 H   0  0  0  0  0  0  0  0  0  0  0  0
    3.1586   -1.6499    2.0515 H   0  0  0  0  0  0  0  0  0  0  0  0
    2.2075    0.7443   -1.4791 C   0  0  0  0  0  3  0  0  0  0  0  0
    1.3870    1.0037   -2.1626 H   0  0  0  0  0  0  0  0  0  0  0  0
    3.5088    1.1848   -1.6918 C   0  0  0  0  0  0  0  0  0  0  0  0
    3.7475    1.7942   -2.5733 H   0  0  0  0  0  0  0  0  0  0  0  0
    4.4878    0.8401   -0.7403 C   0  0  0  0  0  0  0  0  0  0  0  0
    5.5262    1.1870   -0.8618 H   0  0  0  0  0  0  0  0  0  0  0  0
    4.1639    0.0471    0.3598 C   0  0  0  0  0  0  0  0  0  0  0  0
    2.8094   -0.4023    0.4878 C   0  0  0  0  0  0  0  0  0  0  0  0
    5.1783   -0.3613    1.3911 C   0  0  0  0  0  0  0  0  0  0  0  0
    6.1699    0.0774    1.1724 H   0  0  0  0  0  0  0  0  0  0  0  0
    5.3038   -1.4665    1.4266 H   0  0  0  0  0  0  0  0  0  0  0  0
    4.8795   -0.0353    2.4109 H   0  0  0  0  0  0  0  0  0  0  0  0
  1 12  1  0  0  0  0
  2  4  1  0  0  0  0
  3  2  1  0  0  0  0
  5  1  1  0  0  0  0
  6  5  1  0  0  0  0
  7  5  1  0  0  0  0
  7  9  2  0  0  0  0
  8  7  1  0  0  0  0
  9 11  1  0  0  0  0
 10  9  1  0  0  0  0
 11 12  2  0  0  0  0
 11 13  1  0  0  0  0
 12  2  1  0  0  0  0
 13 15  1  0  0  0  0
 13 16  1  0  0  0  0
 14 13  1  0  0  0  0
M  END
