3
 OpenBabel05122313063D

 11 11  0  0  0  0  0  0  0  0999 V2000
    2.3170    1.3885   -2.2074 O   0  0  0  0  0  0  0  0  0  0  0  0
    1.5969    1.8725    2.3096 O   0  0  0  0  0  0  0  0  0  0  0  0
    1.6662    1.4477    0.0237 N   0  0  0  0  0  2  0  0  0  0  0  0
    2.3692    1.8827   -1.0810 C   0  0  0  0  0  0  0  0  0  0  0  0
    3.2498    3.0752   -0.6767 C   0  0  0  0  0  0  0  0  0  0  0  0
    4.2983    2.8603   -0.9660 H   0  0  0  0  0  0  0  0  0  0  0  0
    2.9362    3.9586   -1.2698 H   0  0  0  0  0  0  0  0  0  0  0  0
    3.0276    3.2248    0.8303 C   0  0  0  0  0  0  0  0  0  0  0  0
    2.5977    4.2019    1.1310 H   0  0  0  0  0  0  0  0  0  0  0  0
    3.9425    3.0837    1.4402 H   0  0  0  0  0  0  0  0  0  0  0  0
    2.0176    2.1201    1.1878 C   0  0  0  0  0  0  0  0  0  0  0  0
  1  4  2  0  0  0  0
  3 11  1  0  0  0  0
  4  5  1  0  0  0  0
  4  3  1  0  0  0  0
  5  8  1  0  0  0  0
  6  5  1  0  0  0  0
  7  5  1  0  0  0  0
  8  9  1  0  0  0  0
  8 11  1  0  0  0  0
  8 10  1  0  0  0  0
 11  2  2  0  0  0  0
M  END
