21
 OpenBabel05122313063D

 22 23  0  0  0  0  0  0  0  0999 V2000
    8.6163    2.3701   -2.0009 O   0  0  0  0  0  0  0  0  0  0  0  0
    9.4228    2.8221   -2.3296 H   0  0  0  0  0  0  0  0  0  0  0  0
   10.1629    1.6905   -0.4955 O   0  0  0  0  0  0  0  0  0  0  0  0
    8.6360   -1.4163    3.2235 O   0  0  0  0  0  0  0  0  0  0  0  0
    6.4540   -2.0132    3.2641 O   0  0  0  0  0  0  0  0  0  0  0  0
    6.8078   -2.4898    4.0455 H   0  0  0  0  0  0  0  0  0  0  0  0
    4.1994    0.2524   -0.6934 C   0  0  0  0  0  0  0  0  0  0  0  0
    5.5603    0.2160   -0.1473 C   0  0  0  0  0  0  0  0  0  0  0  0
    6.5868    0.9467   -0.7797 C   0  0  0  0  0  0  0  0  0  0  0  0
    6.3529    1.5349   -1.6772 H   0  0  0  0  0  0  0  0  0  0  0  0
    7.8950    0.9203   -0.2638 C   0  0  0  0  0  0  0  0  0  0  0  0
    8.1851    0.1650    0.8855 C   0  0  0  0  0  0  0  0  0  0  0  0
    9.2081    0.1454    1.2874 H   0  0  0  0  0  0  0  0  0  0  0  0
    7.1653   -0.5655    1.5190 C   0  0  0  0  0  0  0  0  0  0  0  0
    5.8565   -0.5407    1.0031 C   0  0  0  0  0  0  0  0  0  0  0  0
    5.0646   -1.1168    1.4998 H   0  0  0  0  0  0  0  0  0  0  0  0
    9.0145    1.6799   -0.9020 C   0  0  0  0  0  0  0  0  0  0  0  0
    7.5210   -1.3548    2.7374 C   0  0  0  0  0  0  0  0  0  0  0  0
    3.8440    0.9394   -1.8099 N   0  0  0  0  0  0  0  0  0  0  0  0
    2.5506    0.7168   -1.9633 N   0  0  0  0  0  2  0  0  0  0  0  0
    2.1312   -0.0755   -0.9836 N   0  0  0  0  0  2  0  0  0  0  0  0
    3.1311   -0.3859   -0.1613 N   0  0  0  0  0  2  0  0  0  0  0  0
  1 17  1  0  0  0  0
  2  1  1  0  0  0  0
  5  6  1  0  0  0  0
  7 22  1  0  0  0  0
  7  8  1  0  0  0  0
  8 15  1  0  0  0  0
  9 11  1  0  0  0  0
  9  8  2  0  0  0  0
 10  9  1  0  0  0  0
 11 12  2  0  0  0  0
 12 13  1  0  0  0  0
 12 14  1  0  0  0  0
 14 18  1  0  0  0  0
 15 16  1  0  0  0  0
 15 14  2  0  0  0  0
 17  3  2  0  0  0  0
 17 11  1  0  0  0  0
 18  4  2  0  0  0  0
 18  5  1  0  0  0  0
 19  7  2  0  0  0  0
 20 19  1  0  0  0  0
 20 21  1  0  0  0  0
 21 22  1  0  0  0  0
M  END
