3
 OpenBabel05122313063D

 18 19  0  0  1  0  0  0  0  0999 V2000
   -3.0697   -2.7181    1.2176 S   0  0  0  0  0  0  0  0  0  0  0  0
   -3.0873    2.6167   -2.4662 S   0  0  0  0  0  0  0  0  0  0  0  0
   -1.3216   -1.0219    0.3643 N   0  0  0  0  0  2  0  0  0  0  0  0
   -1.2935    0.9681   -1.5398 N   0  0  0  0  0  0  0  0  0  0  0  0
   -0.4275   -2.6244    1.8778 N   0  0  0  0  0  0  0  0  0  0  0  0
   -0.3722    2.6976   -2.8644 N   0  0  0  0  0  0  0  0  0  0  0  0
   -1.4338   -2.0747    1.1801 C   0  0  2  0  0  3  0  0  0  0  0  0
   -3.5832   -1.4852    0.0968 C   0  0  0  0  0  0  0  0  0  0  0  0
   -4.6225   -1.4368   -0.2434 H   0  0  0  0  0  0  0  0  0  0  0  0
   -2.5359   -0.6571   -0.2306 C   0  0  0  0  0  0  0  0  0  0  0  0
   -2.5275    0.5240   -1.0932 C   0  0  0  0  0  0  0  0  0  0  0  0
   -3.6140    1.2796   -1.4851 C   0  0  0  0  0  0  0  0  0  0  0  0
   -4.6698    1.1616   -1.2189 H   0  0  0  0  0  0  0  0  0  0  0  0
   -1.4146    2.0585   -2.2681 C   0  0  0  0  0  0  0  0  0  0  0  0
    0.5065   -2.1612    1.9442 H   0  0  0  0  0  0  0  0  0  0  0  0
   -0.6375   -3.3689    2.5410 H   0  0  0  0  0  0  0  0  0  0  0  0
    0.5641    2.4150   -2.5736 H   0  0  0  0  0  0  0  0  0  0  0  0
   -0.4858    3.6464   -3.2161 H   0  0  0  0  0  0  0  0  0  0  0  0
  2 14  1  0  0  0  0
  2 12  1  0  0  0  0
  3  7  1  0  0  0  0
  4 11  1  0  0  0  0
  5 15  1  0  0  0  0
  5 16  1  0  0  0  0
  6 17  1  0  0  0  0
  6 14  1  0  0  0  0
  7  1  1  0  0  0  0
  7  5  1  6  0  0  0
  8  1  1  0  0  0  0
  9  8  1  0  0  0  0
 10  8  2  0  0  0  0
 10  3  1  0  0  0  0
 11 10  1  0  0  0  0
 12 13  1  0  0  0  0
 12 11  2  0  0  0  0
 14  4  2  0  0  0  0
 18  6  1  0  0  0  0
M  END
