1
 OpenBabel05122313063D

 15 14  0  0  0  0  0  0  0  0999 V2000
   -0.2487   -2.0927   -2.3281 N   0  0  0  0  0  2  0  0  0  0  0  0
    0.8700   -2.7632   -2.9789 C   0  0  0  0  0  0  0  0  0  0  0  0
    2.1483   -2.8379   -2.1476 C   0  0  0  0  0  0  0  0  0  0  0  0
   -1.4021   -2.0115   -3.2125 C   0  0  0  0  0  0  0  0  0  0  0  0
   -2.6367   -1.3333   -2.6274 C   0  0  0  0  0  0  0  0  0  0  0  0
    0.5519   -3.7996   -3.2596 H   0  0  0  0  0  0  0  0  0  0  0  0
    1.0930   -2.2536   -3.9498 H   0  0  0  0  0  0  0  0  0  0  0  0
    2.9124   -3.4347   -2.6834 H   0  0  0  0  0  0  0  0  0  0  0  0
    2.5735   -1.8332   -1.9584 H   0  0  0  0  0  0  0  0  0  0  0  0
    1.9677   -3.3183   -1.1642 H   0  0  0  0  0  0  0  0  0  0  0  0
   -1.1052   -1.4758   -4.1495 H   0  0  0  0  0  0  0  0  0  0  0  0
   -1.6740   -3.0465   -3.5406 H   0  0  0  0  0  0  0  0  0  0  0  0
   -3.4672   -1.3769   -3.3593 H   0  0  0  0  0  0  0  0  0  0  0  0
   -2.9802   -1.8274   -1.6967 H   0  0  0  0  0  0  0  0  0  0  0  0
   -2.4552   -0.2653   -2.3950 H   0  0  0  0  0  0  0  0  0  0  0  0
  2  1  1  0  0  0  0
  2  3  1  0  0  0  0
  3  9  1  0  0  0  0
  3 10  1  0  0  0  0
  4  5  1  0  0  0  0
  4  1  1  0  0  0  0
  5 15  1  0  0  0  0
  5 14  1  0  0  0  0
  6  2  1  0  0  0  0
  7  2  1  0  0  0  0
  8  3  1  0  0  0  0
 11  4  1  0  0  0  0
 12  4  1  0  0  0  0
 13  5  1  0  0  0  0
M  END
