1
 OpenBabel05122313063D

 27 28  0  0  1  0  0  0  0  0999 V2000
    1.2412   -0.9329    0.7534 N   0  0  0  0  0  2  0  0  0  0  0  0
    1.3494   -1.1308    2.1966 C   0  0  0  0  0  0  0  0  0  0  0  0
    0.7433   -2.0198    2.4863 H   0  0  0  0  0  0  0  0  0  0  0  0
    0.8809   -0.2589    2.6941 H   0  0  0  0  0  0  0  0  0  0  0  0
    2.8057   -1.2971    2.6205 C   0  0  0  0  0  0  0  0  0  0  0  0
    2.8856   -1.5001    3.7066 H   0  0  0  0  0  0  0  0  0  0  0  0
    3.3458   -0.3493    2.4170 H   0  0  0  0  0  0  0  0  0  0  0  0
    3.4329   -2.4386    1.8318 C   0  0  0  0  0  0  0  0  0  0  0  0
    4.5375   -2.4337    1.9525 H   0  0  0  0  0  0  0  0  0  0  0  0
    3.0710   -3.4219    2.2138 H   0  0  0  0  0  0  0  0  0  0  0  0
    3.1276   -2.3199    0.4044 N   0  0  1  0  0  0  0  0  0  0  0  0
    3.9631   -3.0950   -0.5132 C   0  0  0  0  0  0  0  0  0  0  0  0
    3.3200   -3.6943   -1.1944 H   0  0  0  0  0  0  0  0  0  0  0  0
    4.5099   -3.8297    0.1103 H   0  0  0  0  0  0  0  0  0  0  0  0
    4.9608   -2.2609   -1.3303 C   0  0  0  0  0  0  0  0  0  0  0  0
    5.7660   -2.9354   -1.6922 H   0  0  0  0  0  0  0  0  0  0  0  0
    5.4470   -1.5295   -0.6479 H   0  0  0  0  0  0  0  0  0  0  0  0
    4.3335   -1.5421   -2.5292 C   0  0  0  0  0  0  0  0  0  0  0  0
    3.9749   -2.3106   -3.2513 H   0  0  0  0  0  0  0  0  0  0  0  0
    5.1195   -0.9672   -3.0631 H   0  0  0  0  0  0  0  0  0  0  0  0
    3.1649   -0.6125   -2.1868 C   0  0  0  0  0  0  0  0  0  0  0  0
    3.5053    0.2156   -1.5305 H   0  0  0  0  0  0  0  0  0  0  0  0
    2.8094   -0.1252   -3.1180 H   0  0  0  0  0  0  0  0  0  0  0  0
    1.9594   -1.3076   -1.5282 C   0  0  0  0  0  0  0  0  0  0  0  0
    1.0457   -0.6729   -1.6271 H   0  0  0  0  0  0  0  0  0  0  0  0
    1.7337   -2.2692   -2.0387 H   0  0  0  0  0  0  0  0  0  0  0  0
    2.0986   -1.5330   -0.0427 C   0  0  2  0  0  3  0  0  0  0  0  0
  1  2  1  0  0  0  0
  2  3  1  0  0  0  0
  2  5  1  0  0  0  0
  2  4  1  0  0  0  0
  5  6  1  0  0  0  0
  7  5  1  0  0  0  0
  8  9  1  0  0  0  0
  8 10  1  0  0  0  0
  8  5  1  0  0  0  0
 11 12  1  1  0  0  0
 11  8  1  0  0  0  0
 12 14  1  0  0  0  0
 13 12  1  0  0  0  0
 15 17  1  0  0  0  0
 15 12  1  0  0  0  0
 16 15  1  0  0  0  0
 18 21  1  0  0  0  0
 18 15  1  0  0  0  0
 19 18  1  0  0  0  0
 20 18  1  0  0  0  0
 21 22  1  0  0  0  0
 21 24  1  0  0  0  0
 23 21  1  0  0  0  0
 24 27  1  0  0  0  0
 25 24  1  0  0  0  0
 26 24  1  0  0  0  0
 27 11  1  0  0  0  0
 27  1  1  1  0  0  0
M  END
