1
 OpenBabel05122313063D

 21 20  0  0  0  0  0  0  0  0999 V2000
    1.2367   -1.1073    1.4955 N   0  0  0  0  0  0  0  0  0  0  0  0
    0.7672   -2.0076    1.2719 H   0  0  0  0  0  0  0  0  0  0  0  0
    2.0484   -0.2680   -1.0912 N   0  0  0  0  0  0  0  0  0  0  0  0
    2.6589   -1.2339    1.0969 C   0  0  0  0  0  0  0  0  0  0  0  0
    3.1947   -0.3237    1.4363 H   0  0  0  0  0  0  0  0  0  0  0  0
    3.1359   -2.0981    1.6087 H   0  0  0  0  0  0  0  0  0  0  0  0
    2.7323   -1.4078   -0.4068 C   0  0  0  0  0  0  0  0  0  0  0  0
    2.2032   -2.3337   -0.7028 H   0  0  0  0  0  0  0  0  0  0  0  0
    3.7870   -1.4805   -0.7502 H   0  0  0  0  0  0  0  0  0  0  0  0
    1.7954   -0.6212   -2.5140 C   0  0  0  0  0  0  0  0  0  0  0  0
    1.3199    0.2371   -3.0226 H   0  0  0  0  0  0  0  0  0  0  0  0
    1.1166   -1.4910   -2.5565 H   0  0  0  0  0  0  0  0  0  0  0  0
    2.7545   -0.8563   -3.0238 H   0  0  0  0  0  0  0  0  0  0  0  0
    2.9299    0.9238   -1.0558 C   0  0  0  0  0  0  0  0  0  0  0  0
    3.1172    1.2422   -0.0158 H   0  0  0  0  0  0  0  0  0  0  0  0
    2.4549    1.7554   -1.6025 H   0  0  0  0  0  0  0  0  0  0  0  0
    3.9004    0.6945   -1.5470 H   0  0  0  0  0  0  0  0  0  0  0  0
    1.0775   -0.8306    2.9336 C   0  0  0  0  0  0  0  0  0  0  0  0
    0.0047   -0.8386    3.1977 H   0  0  0  0  0  0  0  0  0  0  0  0
    1.5071    0.1588    3.1798 H   0  0  0  0  0  0  0  0  0  0  0  0
    1.5993   -1.5991    3.5422 H   0  0  0  0  0  0  0  0  0  0  0  0
  1 18  1  0  0  0  0
  2  1  1  0  0  0  0
  3 14  1  0  0  0  0
  3  7  1  0  0  0  0
  4  5  1  0  0  0  0
  4  1  1  0  0  0  0
  4  6  1  0  0  0  0
  7  4  1  0  0  0  0
  8  7  1  0  0  0  0
  9  7  1  0  0  0  0
 10  3  1  0  0  0  0
 11 10  1  0  0  0  0
 12 10  1  0  0  0  0
 13 10  1  0  0  0  0
 14 15  1  0  0  0  0
 16 14  1  0  0  0  0
 17 14  1  0  0  0  0
 18 20  1  0  0  0  0
 18 19  1  0  0  0  0
 18 21  1  0  0  0  0
M  END
