1
 OpenBabel05122313063D

 33 33  0  0  1  0  0  0  0  0999 V2000
    1.7455    0.9279   -0.3626 N   0  0  0  0  0  2  0  0  0  0  0  0
    4.2531    1.4121   -0.4220 N   0  0  0  0  0  0  0  0  0  0  0  0
    7.6105    0.9087    0.4622 N   0  0  0  0  0  0  0  0  0  0  0  0
    8.5067   -0.0482    0.6629 N   0  0  0  0  0  0  0  0  0  0  0  0
    3.4048    2.5349   -0.5225 O   0  0  0  0  0  0  0  0  0  0  0  0
    2.0875    2.1659   -0.4904 C   0  0  2  0  0  3  0  0  0  0  0  0
    1.1560    3.3348   -0.5403 C   0  0  0  0  0  0  0  0  0  0  0  0
    0.3754    3.0916   -1.2911 H   0  0  0  0  0  0  0  0  0  0  0  0
    1.7322    4.2153   -0.8863 H   0  0  0  0  0  0  0  0  0  0  0  0
    0.4858    3.6016    0.8170 C   0  0  0  0  0  0  0  0  0  0  0  0
   -0.1042    2.7157    1.1290 H   0  0  0  0  0  0  0  0  0  0  0  0
   -0.2013    4.4670    0.7389 H   0  0  0  0  0  0  0  0  0  0  0  0
    1.2324    3.8205    1.6066 H   0  0  0  0  0  0  0  0  0  0  0  0
    5.4648    1.7422   -0.0754 C   0  0  0  0  0  0  0  0  0  0  0  0
    5.9188    3.1539    0.1537 C   0  0  0  0  0  0  0  0  0  0  0  0
    5.7518    3.7589   -0.7596 H   0  0  0  0  0  0  0  0  0  0  0  0
    6.9858    3.1718    0.4308 H   0  0  0  0  0  0  0  0  0  0  0  0
    5.3101    3.6190    0.9554 H   0  0  0  0  0  0  0  0  0  0  0  0
    6.3808    0.6055    0.1144 C   0  0  0  0  0  0  0  0  0  0  0  0
    5.8804   -0.7917   -0.0709 C   0  0  0  0  0  0  0  0  0  0  0  0
    6.5279   -1.6633   -0.9764 C   0  0  0  0  0  0  0  0  0  0  0  0
    7.3968   -1.3043   -1.5495 H   0  0  0  0  0  0  0  0  0  0  0  0
    6.0511   -2.9681   -1.1769 C   0  0  0  0  0  0  0  0  0  0  0  0
    6.5603   -3.6298   -1.8943 H   0  0  0  0  0  0  0  0  0  0  0  0
    4.9166   -3.4185   -0.4840 C   0  0  0  0  0  0  0  0  0  0  0  0
    4.5334   -4.4361   -0.6554 H   0  0  0  0  0  0  0  0  0  0  0  0
    4.2650   -2.5623    0.4188 C   0  0  0  0  0  0  0  0  0  0  0  0
    3.3516   -2.8751    0.9472 H   0  0  0  0  0  0  0  0  0  0  0  0
    4.7488   -1.2648    0.6320 C   0  0  0  0  0  0  0  0  0  0  0  0
    4.2134   -0.6100    1.3340 H   0  0  0  0  0  0  0  0  0  0  0  0
    2.5808    0.3180   -0.2993 H   0  0  0  0  0  0  0  0  0  0  0  0
    8.2009   -1.0274    0.7808 H   0  0  0  0  0  0  0  0  0  0  0  0
    9.3385    0.2514    1.1718 H   0  0  0  0  0  0  0  0  0  0  0  0
  1 31  1  0  0  0  0
  2 14  2  0  0  0  0
  3  4  1  0  0  0  0
  4 32  1  0  0  0  0
  4 33  1  0  0  0  0
  5  2  1  0  0  0  0
  6  5  1  1  0  0  0
  6  1  1  0  0  0  0
  7  6  1  0  0  0  0
  7 10  1  0  0  0  0
  8  7  1  0  0  0  0
  9  7  1  0  0  0  0
 10 11  1  0  0  0  0
 10 13  1  0  0  0  0
 12 10  1  0  0  0  0
 14 19  1  0  0  0  0
 14 15  1  0  0  0  0
 15 17  1  0  0  0  0
 15 18  1  0  0  0  0
 16 15  1  0  0  0  0
 19  3  2  0  0  0  0
 20 19  1  0  0  0  0
 20 29  1  0  0  0  0
 21 20  2  0  0  0  0
 22 21  1  0  0  0  0
 23 21  1  0  0  0  0
 23 25  2  0  0  0  0
 24 23  1  0  0  0  0
 25 27  1  0  0  0  0
 26 25  1  0  0  0  0
 27 29  2  0  0  0  0
 27 28  1  0  0  0  0
 29 30  1  0  0  0  0
M  END
