1
 OpenBabel05122313063D

 27 28  0  0  0  0  0  0  0  0999 V2000
   -0.0198    0.6715   -0.8397 N   0  0  0  0  0  2  0  0  0  0  0  0
   -2.0004    1.9455   -0.5779 N   0  0  0  0  0  0  0  0  0  0  0  0
   -1.3141    0.7802   -0.6852 C   0  0  0  0  0  3  0  0  0  0  0  0
    0.7655    1.8664   -0.8510 C   0  0  0  0  0  0  0  0  0  0  0  0
    0.9953    2.5735    0.3483 C   0  0  0  0  0  0  0  0  0  0  0  0
    1.7966    3.7238    0.3413 C   0  0  0  0  0  0  0  0  0  0  0  0
    2.3697    4.1791   -0.8562 C   0  0  0  0  0  0  0  0  0  0  0  0
    2.1303    3.4818   -2.0518 C   0  0  0  0  0  0  0  0  0  0  0  0
    1.3294    2.3312   -2.0553 C   0  0  0  0  0  0  0  0  0  0  0  0
   -3.3751    2.0762   -0.2968 C   0  0  0  0  0  0  0  0  0  0  0  0
   -4.1382    1.0058    0.2179 C   0  0  0  0  0  0  0  0  0  0  0  0
   -5.5031    1.1898    0.4731 C   0  0  0  0  0  0  0  0  0  0  0  0
   -6.1209    2.4293    0.2428 C   0  0  0  0  0  0  0  0  0  0  0  0
   -5.3543    3.4967   -0.2517 C   0  0  0  0  0  0  0  0  0  0  0  0
   -3.9917    3.3243   -0.5254 C   0  0  0  0  0  0  0  0  0  0  0  0
   -1.9187   -0.1381   -0.6574 H   0  0  0  0  0  0  0  0  0  0  0  0
    0.5663    2.1943    1.2866 H   0  0  0  0  0  0  0  0  0  0  0  0
    1.9900    4.2537    1.2860 H   0  0  0  0  0  0  0  0  0  0  0  0
    3.0078    5.0753   -0.8575 H   0  0  0  0  0  0  0  0  0  0  0  0
    2.5769    3.8312   -2.9948 H   0  0  0  0  0  0  0  0  0  0  0  0
    1.1469    1.7722   -2.9833 H   0  0  0  0  0  0  0  0  0  0  0  0
   -3.6785    0.0332    0.4416 H   0  0  0  0  0  0  0  0  0  0  0  0
   -6.0819    0.3440    0.8741 H   0  0  0  0  0  0  0  0  0  0  0  0
   -7.1917    2.5654    0.4534 H   0  0  0  0  0  0  0  0  0  0  0  0
   -5.8211    4.4763   -0.4344 H   0  0  0  0  0  0  0  0  0  0  0  0
   -3.3966    4.1593   -0.9277 H   0  0  0  0  0  0  0  0  0  0  0  0
   -1.4576    2.8099   -0.6809 H   0  0  0  0  0  0  0  0  0  0  0  0
  1  3  1  0  0  0  0
  2 10  1  0  0  0  0
  3 16  1  0  0  0  0
  3  2  1  0  0  0  0
  4  1  1  0  0  0  0
  4  5  1  0  0  0  0
  5 17  1  0  0  0  0
  6  5  2  0  0  0  0
  6 18  1  0  0  0  0
  7  6  1  0  0  0  0
  8  7  2  0  0  0  0
  9  8  1  0  0  0  0
  9  4  2  0  0  0  0
 10 11  1  0  0  0  0
 11 22  1  0  0  0  0
 11 12  2  0  0  0  0
 12 23  1  0  0  0  0
 13 24  1  0  0  0  0
 13 12  1  0  0  0  0
 14 13  2  0  0  0  0
 15 10  2  0  0  0  0
 15 14  1  0  0  0  0
 19  7  1  0  0  0  0
 20  8  1  0  0  0  0
 21  9  1  0  0  0  0
 25 14  1  0  0  0  0
 26 15  1  0  0  0  0
 27  2  1  0  0  0  0
M  END
