13
 OpenBabel05122313063D

 18 19  0  0  0  0  0  0  0  0999 V2000
    2.0901   -1.4853   -0.0826 N   0  0  0  0  0  0  0  0  0  0  0  0
    1.3889   -2.1200    0.3601 H   0  0  0  0  0  0  0  0  0  0  0  0
    3.4198   -1.7639   -0.3795 C   0  0  0  0  0  0  0  0  0  0  0  0
    4.7370    2.7490   -0.3211 Cl  0  0  0  0  0  0  0  0  0  0  0  0
    3.2109    0.4876   -0.1670 C   0  0  0  0  0  0  0  0  0  0  0  0
    4.1291   -0.5713   -0.4693 C   0  0  0  0  0  0  0  0  0  0  0  0
    5.1905   -0.4649   -0.7144 H   0  0  0  0  0  0  0  0  0  0  0  0
    3.2583    1.8868   -0.0302 C   0  0  0  0  0  0  0  0  0  0  0  0
    2.0951    2.5632    0.3679 C   0  0  0  0  0  0  0  0  0  0  0  0
    2.1081    3.6508    0.5165 H   0  0  0  0  0  0  0  0  0  0  0  0
    0.9036    1.8486    0.5766 C   0  0  0  0  0  3  0  0  0  0  0  0
   -0.0145    2.3404    0.9303 H   0  0  0  0  0  0  0  0  0  0  0  0
    0.8013    0.5106    0.3984 N   0  0  0  0  0  2  0  0  0  0  0  0
    1.9405   -0.1350    0.0760 C   0  0  0  0  0  0  0  0  0  0  0  0
    3.8820   -3.1724   -0.5412 C   0  0  0  0  0  0  0  0  0  0  0  0
    4.9641   -3.2024   -0.7639 H   0  0  0  0  0  0  0  0  0  0  0  0
    3.3435   -3.6868   -1.3652 H   0  0  0  0  0  0  0  0  0  0  0  0
    3.7032   -3.7629    0.3824 H   0  0  0  0  0  0  0  0  0  0  0  0
  1 14  1  0  0  0  0
  1  2  1  0  0  0  0
  3  1  1  0  0  0  0
  4  8  1  0  0  0  0
  5  8  1  0  0  0  0
  5 14  2  0  0  0  0
  6  3  2  0  0  0  0
  6  5  1  0  0  0  0
  7  6  1  0  0  0  0
  8  9  2  0  0  0  0
  9 10  1  0  0  0  0
  9 11  1  0  0  0  0
 11 12  1  0  0  0  0
 13 11  1  0  0  0  0
 14 13  1  0  0  0  0
 15  3  1  0  0  0  0
 15 18  1  0  0  0  0
 16 15  1  0  0  0  0
 17 15  1  0  0  0  0
M  END
