9
 OpenBabel05122313063D

 23 24  0  0  0  0  0  0  0  0999 V2000
    2.4689    1.2882    0.1508 O   0  0  0  0  0  0  0  0  0  0  0  0
    4.8015    1.0847    0.1423 N   0  0  0  0  0  0  0  0  0  0  0  0
    5.8848    0.2618    0.1243 C   0  0  0  0  0  0  0  0  0  0  0  0
    6.8638    0.7754    0.1475 H   0  0  0  0  0  0  0  0  0  0  0  0
    5.9038   -1.0664    0.0802 N   0  0  0  0  0  0  0  0  0  0  0  0
    4.6738   -1.6452    0.0499 C   0  0  0  0  0  0  0  0  0  0  0  0
    3.4622   -0.8766    0.0662 C   0  0  0  0  0  3  0  0  0  0  0  0
    3.5949    0.5257    0.1186 C   0  0  0  0  0  0  0  0  0  0  0  0
    2.3708   -1.7170    0.0261 N   0  0  0  0  0  0  0  0  0  0  0  0
    2.8734   -3.0047   -0.0160 C   0  0  0  0  0  0  0  0  0  0  0  0
    2.1851   -3.8584   -0.0547 H   0  0  0  0  0  0  0  0  0  0  0  0
    4.2677   -3.0162   -0.0025 C   0  0  0  0  0  0  0  0  0  0  0  0
    4.9205   -3.8950   -0.0271 H   0  0  0  0  0  0  0  0  0  0  0  0
    2.6187    2.7318    0.1485 C   0  0  0  0  0  0  0  0  0  0  0  0
    3.5243    2.9695    0.7450 H   0  0  0  0  0  0  0  0  0  0  0  0
    2.8246    3.2264   -1.2794 C   0  0  0  0  0  0  0  0  0  0  0  0
    2.9319    4.3301   -1.2933 H   0  0  0  0  0  0  0  0  0  0  0  0
    1.9580    2.9523   -1.9150 H   0  0  0  0  0  0  0  0  0  0  0  0
    3.7457    2.7849   -1.7052 H   0  0  0  0  0  0  0  0  0  0  0  0
    1.3674    3.2908    0.8106 C   0  0  0  0  0  0  0  0  0  0  0  0
    0.4584    3.0117    0.2403 H   0  0  0  0  0  0  0  0  0  0  0  0
    1.4198    4.3968    0.8558 H   0  0  0  0  0  0  0  0  0  0  0  0
    1.2632    2.9077    1.8450 H   0  0  0  0  0  0  0  0  0  0  0  0
  3  2  1  0  0  0  0
  3  4  1  0  0  0  0
  5  3  2  0  0  0  0
  6  7  1  0  0  0  0
  6  5  1  0  0  0  0
  7  8  1  0  0  0  0
  8  2  2  0  0  0  0
  8  1  1  0  0  0  0
  9  7  1  0  0  0  0
 10 12  1  0  0  0  0
 10  9  2  0  0  0  0
 11 10  1  0  0  0  0
 12  6  2  0  0  0  0
 13 12  1  0  0  0  0
 14  1  1  0  0  0  0
 14 15  1  0  0  0  0
 14 20  1  0  0  0  0
 16 14  1  0  0  0  0
 17 16  1  0  0  0  0
 18 16  1  0  0  0  0
 19 16  1  0  0  0  0
 20 22  1  0  0  0  0
 20 23  1  0  0  0  0
 21 20  1  0  0  0  0
M  END
