8
 OpenBabel05122313063D

 10 10  0  0  0  0  0  0  0  0999 V2000
   -4.4651    0.4165    0.0002 S   0  0  0  0  0  0  0  0  0  0  0  0
   -2.5122   -1.2412   -0.0007 N   0  0  0  0  0  0  0  0  0  0  0  0
   -4.6809   -2.4348   -0.0016 C   0  0  0  0  0  0  0  0  0  0  0  0
   -5.3418   -2.4632    0.8884 H   0  0  0  0  0  0  0  0  0  0  0  0
   -4.0360   -3.3331    0.0029 H   0  0  0  0  0  0  0  0  0  0  0  0
   -5.3340   -2.4670   -0.8974 H   0  0  0  0  0  0  0  0  0  0  0  0
   -3.8257   -1.2139   -0.0006 C   0  0  0  0  0  3  0  0  0  0  0  0
   -1.9442   -0.0017   -0.0004 N   0  0  0  0  0  0  0  0  0  0  0  0
   -2.8060    1.0506    0.0000 C   0  0  0  0  0  0  0  0  0  0  0  0
   -2.4657    2.7115    0.0004 S   0  0  0  0  0  0  0  0  0  0  0  0
  2  7  1  0  0  0  0
  2  8  2  0  0  0  0
  3  7  1  0  0  0  0
  3  5  1  0  0  0  0
  3  4  1  0  0  0  0
  6  3  1  0  0  0  0
  7  1  1  0  0  0  0
  8  9  1  0  0  0  0
  9  1  1  0  0  0  0
  9 10  2  0  0  0  0
M  END
