2
 OpenBabel05122313063D

 15 15  0  0  0  0  0  0  0  0999 V2000
   -4.5787   -2.3736    0.2954 O   0  0  0  0  0  0  0  0  0  0  0  0
   -1.8643    0.5910   -0.5194 N   0  0  0  0  0  2  0  0  0  0  0  0
   -6.0391   -1.7042   -1.3337 N   0  0  0  0  0  0  0  0  0  0  0  0
   -2.7193   -0.4447   -0.4317 C   0  0  0  0  0  3  0  0  0  0  0  0
   -4.0510   -0.3616   -0.8640 C   0  0  0  0  0  0  0  0  0  0  0  0
   -4.9069   -1.5799   -0.5838 C   0  0  0  0  0  0  0  0  0  0  0  0
   -4.4971    0.8494   -1.4198 C   0  0  0  0  0  0  0  0  0  0  0  0
   -3.5963    1.9199   -1.5177 C   0  0  0  0  0  0  0  0  0  0  0  0
   -2.2869    1.7600   -1.0551 C   0  0  0  0  0  0  0  0  0  0  0  0
   -2.3625   -1.3818    0.0173 H   0  0  0  0  0  0  0  0  0  0  0  0
   -6.2000   -1.1584   -2.1789 H   0  0  0  0  0  0  0  0  0  0  0  0
   -6.6158   -2.5338   -1.1817 H   0  0  0  0  0  0  0  0  0  0  0  0
   -5.5410    0.9763   -1.7450 H   0  0  0  0  0  0  0  0  0  0  0  0
   -3.9051    2.8877   -1.9373 H   0  0  0  0  0  0  0  0  0  0  0  0
   -1.5549    2.5788   -1.1004 H   0  0  0  0  0  0  0  0  0  0  0  0
  2  4  1  0  0  0  0
  3 12  1  0  0  0  0
  3  6  1  0  0  0  0
  4 10  1  0  0  0  0
  5  6  1  0  0  0  0
  5  4  1  0  0  0  0
  6  1  2  0  0  0  0
  7  5  2  0  0  0  0
  8  7  1  0  0  0  0
  8  9  2  0  0  0  0
  9  2  1  0  0  0  0
 11  3  1  0  0  0  0
 13  7  1  0  0  0  0
 14  8  1  0  0  0  0
 15  9  1  0  0  0  0
M  END
