4
 OpenBabel05122313063D

 18 19  0  0  0  0  0  0  0  0999 V2000
    5.4599   -2.2171    1.1162 N   0  0  0  0  0  0  0  0  0  0  0  0
    2.1673    0.5352   -1.1885 C   0  0  0  0  0  3  0  0  0  0  0  0
    1.6946    0.9662   -2.0888 H   0  0  0  0  0  0  0  0  0  0  0  0
    1.6445    0.9497   -0.0181 N   0  0  0  0  0  2  0  0  0  0  0  0
    3.8133   -0.8352   -0.0477 C   0  0  0  0  0  0  0  0  0  0  0  0
    4.9452   -1.7693   -0.0498 C   0  0  0  0  0  0  0  0  0  0  0  0
    3.2436   -0.3526   -1.2461 C   0  0  0  0  0  0  0  0  0  0  0  0
    3.6358   -0.6599   -2.2258 H   0  0  0  0  0  0  0  0  0  0  0  0
    3.2567   -0.3771    1.1683 C   0  0  0  0  0  0  0  0  0  0  0  0
    3.6796   -0.7202    2.1223 H   0  0  0  0  0  0  0  0  0  0  0  0
    6.6227   -3.1366   -0.5955 C   0  0  0  0  0  0  0  0  0  0  0  0
    7.4020   -3.7659   -1.0386 H   0  0  0  0  0  0  0  0  0  0  0  0
    6.4572   -3.0293    0.7576 N   0  0  0  0  0  0  0  0  0  0  0  0
    7.0048   -3.4922    1.4847 H   0  0  0  0  0  0  0  0  0  0  0  0
    2.1820    0.5112    1.1394 C   0  0  0  0  0  0  0  0  0  0  0  0
    1.7205    0.9260    2.0527 H   0  0  0  0  0  0  0  0  0  0  0  0
    5.6489   -2.3247   -1.1624 C   0  0  0  0  0  0  0  0  0  0  0  0
    5.4756   -2.1572   -2.2296 H   0  0  0  0  0  0  0  0  0  0  0  0
  2  4  1  0  0  0  0
  3  2  1  0  0  0  0
  4 15  1  0  0  0  0
  5  9  1  0  0  0  0
  6  5  1  0  0  0  0
  6  1  2  0  0  0  0
  7  2  1  0  0  0  0
  7  5  2  0  0  0  0
  8  7  1  0  0  0  0
  9 10  1  0  0  0  0
 11 13  1  0  0  0  0
 12 11  1  0  0  0  0
 13  1  1  0  0  0  0
 13 14  1  0  0  0  0
 15  9  2  0  0  0  0
 15 16  1  0  0  0  0
 17 11  2  0  0  0  0
 17  6  1  0  0  0  0
 18 17  1  0  0  0  0
M  END
