46
 OpenBabel05122313063D

 48 50  0  0  1  0  0  0  0  0999 V2000
    3.8292    1.2075   -0.2867 C   0  0  0  0  0  0  0  0  0  0  0  0
    3.9762    1.7779   -1.2138 H   0  0  0  0  0  0  0  0  0  0  0  0
    4.8104    1.2665    0.7150 C   0  0  0  0  0  0  0  0  0  0  0  0
    5.7135    1.8744    0.5548 H   0  0  0  0  0  0  0  0  0  0  0  0
    4.6437    0.5533    1.9116 C   0  0  0  0  0  0  0  0  0  0  0  0
    5.4154    0.6001    2.6946 H   0  0  0  0  0  0  0  0  0  0  0  0
    3.4889   -0.2225    2.1035 C   0  0  0  0  0  0  0  0  0  0  0  0
    3.3483   -0.7905    3.0350 H   0  0  0  0  0  0  0  0  0  0  0  0
    2.5041   -0.2777    1.1090 C   0  0  0  0  0  0  0  0  0  0  0  0
    1.6036   -0.8966    1.2636 H   0  0  0  0  0  0  0  0  0  0  0  0
    2.6657    0.4348   -0.1001 C   0  0  0  0  0  0  0  0  0  0  0  0
    1.5765    0.3336   -1.1750 C   0  0  2  0  0  0  0  0  0  0  0  0
    1.8961    1.0680   -2.4794 C   0  0  0  0  0  0  0  0  0  0  0  0
    2.8243    0.6599   -2.9235 H   0  0  0  0  0  0  0  0  0  0  0  0
    2.0165    2.1551   -2.3202 H   0  0  0  0  0  0  0  0  0  0  0  0
    1.0683    0.9084   -3.1959 H   0  0  0  0  0  0  0  0  0  0  0  0
   -1.1214    2.8577   -1.2137 C   0  0  0  0  0  0  0  0  0  0  0  0
   -1.8044    2.2149   -1.7847 H   0  0  0  0  0  0  0  0  0  0  0  0
   -1.3452    4.2388   -1.1585 C   0  0  0  0  0  0  0  0  0  0  0  0
   -2.2089    4.6692   -1.6869 H   0  0  0  0  0  0  0  0  0  0  0  0
   -0.4772    5.0680   -0.4302 C   0  0  0  0  0  0  0  0  0  0  0  0
   -0.6600    6.1520   -0.3820 H   0  0  0  0  0  0  0  0  0  0  0  0
    0.6232    4.5089    0.2370 C   0  0  0  0  0  0  0  0  0  0  0  0
    1.3043    5.1508    0.8156 H   0  0  0  0  0  0  0  0  0  0  0  0
    0.8603    3.1283    0.1768 C   0  0  0  0  0  0  0  0  0  0  0  0
    1.7185    2.6979    0.7112 H   0  0  0  0  0  0  0  0  0  0  0  0
   -0.0154    2.2863   -0.5460 C   0  0  0  0  0  0  0  0  0  0  0  0
    0.2256    0.8197   -0.6145 C   0  0  1  0  0  3  0  0  0  0  0  0
   -2.0187    0.7499    1.6336 C   0  0  0  0  0  0  0  0  0  0  0  0
   -3.2864    1.1288    2.1109 C   0  0  0  0  0  0  0  0  0  0  0  0
   -3.3774    1.4743    3.1523 H   0  0  0  0  0  0  0  0  0  0  0  0
   -4.4213    1.0509    1.2939 C   0  0  0  0  0  0  0  0  0  0  0  0
   -5.4034    1.3542    1.6865 H   0  0  0  0  0  0  0  0  0  0  0  0
   -4.3119    0.5547   -0.0123 C   0  0  0  0  0  0  0  0  0  0  0  0
   -5.2084    0.4550   -0.6436 H   0  0  0  0  0  0  0  0  0  0  0  0
   -3.0689    0.1576   -0.5345 C   0  0  0  0  0  0  0  0  0  0  0  0
   -1.9314    0.3156    0.2912 C   0  0  0  0  0  0  0  0  0  0  0  0
   -0.8155    0.7197    2.5355 C   0  0  0  0  0  0  0  0  0  0  0  0
   -0.4434   -0.3241    2.6180 H   0  0  0  0  0  0  0  0  0  0  0  0
   -1.0731    1.0763    3.5502 H   0  0  0  0  0  0  0  0  0  0  0  0
    0.0211    1.3426    2.1589 H   0  0  0  0  0  0  0  0  0  0  0  0
   -2.9462   -0.4593   -1.9008 C   0  0  0  0  0  0  0  0  0  0  0  0
   -2.1647    0.0243   -2.5240 H   0  0  0  0  0  0  0  0  0  0  0  0
   -3.9055   -0.4129   -2.4497 H   0  0  0  0  0  0  0  0  0  0  0  0
   -2.6485   -1.5264   -1.8012 H   0  0  0  0  0  0  0  0  0  0  0  0
   -0.6573   -0.0696   -0.2399 N   0  0  0  0  0  2  0  0  0  0  0  0
    1.3877   -1.0772   -1.5371 O   0  0  0  0  0  0  0  0  0  0  0  0
    2.2163   -1.5861   -1.3870 H   0  0  0  0  0  0  0  0  0  0  0  0
  1 11  2  0  0  0  0
  1  3  1  0  0  0  0
  2  1  1  0  0  0  0
  3  5  2  0  0  0  0
  4  3  1  0  0  0  0
  5  7  1  0  0  0  0
  5  6  1  0  0  0  0
  7  8  1  0  0  0  0
  9 10  1  0  0  0  0
  9  7  2  0  0  0  0
 11  9  1  0  0  0  0
 12 47  1  6  0  0  0
 12 28  1  0  0  0  0
 12 11  1  0  0  0  0
 13 15  1  0  0  0  0
 13 12  1  0  0  0  0
 14 13  1  0  0  0  0
 16 13  1  0  0  0  0
 17 19  2  0  0  0  0
 17 27  1  0  0  0  0
 18 17  1  0  0  0  0
 19 21  1  0  0  0  0
 20 19  1  0  0  0  0
 21 22  1  0  0  0  0
 21 23  2  0  0  0  0
 23 24  1  0  0  0  0
 25 23  1  0  0  0  0
 25 26  1  0  0  0  0
 27 25  2  0  0  0  0
 28 27  1  0  0  0  0
 28 46  1  6  0  0  0
 29 30  1  0  0  0  0
 29 38  1  0  0  0  0
 30 31  1  0  0  0  0
 32 33  1  0  0  0  0
 32 30  2  0  0  0  0
 34 32  1  0  0  0  0
 35 34  1  0  0  0  0
 36 34  2  0  0  0  0
 36 37  1  0  0  0  0
 37 29  2  0  0  0  0
 38 39  1  0  0  0  0
 38 40  1  0  0  0  0
 41 38  1  0  0  0  0
 42 45  1  0  0  0  0
 42 36  1  0  0  0  0
 43 42  1  0  0  0  0
 44 42  1  0  0  0  0
 46 37  1  0  0  0  0
 47 48  1  0  0  0  0
M  END
