3
 OpenBabel05122313063D

 31 31  0  0  0  0  0  0  0  0999 V2000
   -2.6083   -0.1485   -0.8204 S   0  0  0  0  0  0  0  0  0  0  0  0
    3.1788    2.7706    0.8814 O   0  0  0  0  0  0  0  0  0  0  0  0
    0.0882    1.0745   -0.6724 N   0  0  0  0  0  2  0  0  0  0  0  0
   -0.9604    1.9280   -0.9602 N   0  0  0  0  0  0  0  0  0  0  0  0
   -3.1673    2.3869   -1.4999 N   0  0  0  0  0  0  0  0  0  0  0  0
   -5.3724    2.2194   -0.3281 C   0  0  0  0  0  0  0  0  0  0  0  0
   -4.5940    2.0766   -1.6346 C   0  0  0  0  0  0  0  0  0  0  0  0
   -2.2400    1.4898   -1.1134 C   0  0  0  0  0  0  0  0  0  0  0  0
    1.2604    1.6636   -0.6326 C   0  0  0  0  0  3  0  0  0  0  0  0
    2.5611    1.0264   -0.5748 C   0  0  0  0  0  0  0  0  0  0  0  0
    2.8878   -0.1207   -1.3361 C   0  0  0  0  0  0  0  0  0  0  0  0
    4.1913   -0.6251   -1.3265 C   0  0  0  0  0  0  0  0  0  0  0  0
    5.1814    0.0097   -0.5549 C   0  0  0  0  0  0  0  0  0  0  0  0
    4.8882    1.1580    0.1960 C   0  0  0  0  0  0  0  0  0  0  0  0
    3.5802    1.6781    0.1863 C   0  0  0  0  0  0  0  0  0  0  0  0
    4.1509    3.5269    1.5999 C   0  0  0  0  0  0  0  0  0  0  0  0
    5.6793    1.6392    0.7852 H   0  0  0  0  0  0  0  0  0  0  0  0
    6.2083   -0.3857   -0.5447 H   0  0  0  0  0  0  0  0  0  0  0  0
    4.4442   -1.5019   -1.9399 H   0  0  0  0  0  0  0  0  0  0  0  0
    2.1010   -0.5850   -1.9536 H   0  0  0  0  0  0  0  0  0  0  0  0
   -0.7003    2.8819   -1.2373 H   0  0  0  0  0  0  0  0  0  0  0  0
   -2.8932    3.3683   -1.5888 H   0  0  0  0  0  0  0  0  0  0  0  0
   -6.4378    1.9672   -0.4960 H   0  0  0  0  0  0  0  0  0  0  0  0
   -4.9767    1.5318    0.4455 H   0  0  0  0  0  0  0  0  0  0  0  0
   -5.3269    3.2557    0.0624 H   0  0  0  0  0  0  0  0  0  0  0  0
   -4.9966    2.7486   -2.4185 H   0  0  0  0  0  0  0  0  0  0  0  0
   -4.6670    1.0429   -2.0311 H   0  0  0  0  0  0  0  0  0  0  0  0
    1.2693    2.7731   -0.6569 H   0  0  0  0  0  0  0  0  0  0  0  0
    3.6112    4.3847    2.0394 H   0  0  0  0  0  0  0  0  0  0  0  0
    4.6059    2.9260    2.4160 H   0  0  0  0  0  0  0  0  0  0  0  0
    4.9524    3.9013    0.9282 H   0  0  0  0  0  0  0  0  0  0  0  0
  2 16  1  0  0  0  0
  3  9  1  0  0  0  0
  4  3  1  0  0  0  0
  5  8  1  0  0  0  0
  6 25  1  0  0  0  0
  6 24  1  0  0  0  0
  7  5  1  0  0  0  0
  7  6  1  0  0  0  0
  8  4  1  0  0  0  0
  8  1  2  0  0  0  0
  9 10  1  0  0  0  0
 10 15  1  0  0  0  0
 11 12  1  0  0  0  0
 11 10  2  0  0  0  0
 12 13  2  0  0  0  0
 13 18  1  0  0  0  0
 13 14  1  0  0  0  0
 14 17  1  0  0  0  0
 15 14  2  0  0  0  0
 15  2  1  0  0  0  0
 16 29  1  0  0  0  0
 16 30  1  0  0  0  0
 19 12  1  0  0  0  0
 20 11  1  0  0  0  0
 21  4  1  0  0  0  0
 22  5  1  0  0  0  0
 23  6  1  0  0  0  0
 26  7  1  0  0  0  0
 27  7  1  0  0  0  0
 28  9  1  0  0  0  0
 31 16  1  0  0  0  0
M  END
