3
 OpenBabel05122313063D

 14 14  0  0  0  0  0  0  0  0999 V2000
   -5.9814   -0.1615   -1.5517 O   0  0  0  0  0  0  0  0  0  0  0  0
   -6.2454    0.1249    0.6807 O   0  0  0  0  0  0  0  0  0  0  0  0
   -1.2309    0.0056    0.0075 N   0  0  0  0  0  2  0  0  0  0  0  0
   -1.8191   -0.1466   -1.2006 C   0  0  0  0  0  3  0  0  0  0  0  0
   -3.2075   -0.1576   -1.3588 C   0  0  0  0  0  0  0  0  0  0  0  0
   -4.0235   -0.0058   -0.2235 C   0  0  0  0  0  0  0  0  0  0  0  0
   -3.4046    0.1504    1.0292 C   0  0  0  0  0  0  0  0  0  0  0  0
   -2.0110    0.1507    1.1038 C   0  0  0  0  0  0  0  0  0  0  0  0
   -5.5194   -0.0037   -0.2880 C   0  0  0  0  0  0  0  0  0  0  0  0
   -6.9605   -0.1456   -1.4819 H   0  0  0  0  0  0  0  0  0  0  0  0
   -1.1427   -0.2740   -2.0592 H   0  0  0  0  0  0  0  0  0  0  0  0
   -3.6489   -0.2845   -2.3562 H   0  0  0  0  0  0  0  0  0  0  0  0
   -4.0216    0.2707    1.9308 H   0  0  0  0  0  0  0  0  0  0  0  0
   -1.4840    0.2780    2.0615 H   0  0  0  0  0  0  0  0  0  0  0  0
  1 10  1  0  0  0  0
  1  9  1  0  0  0  0
  3  8  1  0  0  0  0
  4  3  1  0  0  0  0
  5  4  1  0  0  0  0
  5  6  2  0  0  0  0
  6  7  1  0  0  0  0
  7  8  2  0  0  0  0
  7 13  1  0  0  0  0
  8 14  1  0  0  0  0
  9  6  1  0  0  0  0
  9  2  2  0  0  0  0
 11  4  1  0  0  0  0
 12  5  1  0  0  0  0
M  END
