1
 OpenBabel05122313063D

 14 14  0  0  0  0  0  0  0  0999 V2000
    1.0438   -1.7815    0.2460 N   0  0  0  0  0  2  0  0  0  0  0  0
    2.0343   -1.9912   -0.6552 C   0  0  0  0  0  3  0  0  0  0  0  0
    2.7832   -3.1782   -0.7028 C   0  0  0  0  0  0  0  0  0  0  0  0
    2.4645   -4.1799    0.2364 C   0  0  0  0  0  0  0  0  0  0  0  0
    1.4395   -3.9612    1.1631 C   0  0  0  0  0  0  0  0  0  0  0  0
    0.7458   -2.7475    1.1469 C   0  0  0  0  0  0  0  0  0  0  0  0
    3.8734   -3.3587   -1.7227 C   0  0  0  0  0  0  0  0  0  0  0  0
    2.2029   -1.1815   -1.3794 H   0  0  0  0  0  0  0  0  0  0  0  0
    3.0221   -5.1295    0.2384 H   0  0  0  0  0  0  0  0  0  0  0  0
    1.1716   -4.7225    1.9091 H   0  0  0  0  0  0  0  0  0  0  0  0
   -0.0416   -2.5090    1.8745 H   0  0  0  0  0  0  0  0  0  0  0  0
    3.6699   -4.2368   -2.3689 H   0  0  0  0  0  0  0  0  0  0  0  0
    3.9758   -2.4711   -2.3748 H   0  0  0  0  0  0  0  0  0  0  0  0
    4.8509   -3.5404   -1.2307 H   0  0  0  0  0  0  0  0  0  0  0  0
  1  6  1  0  0  0  0
  2  1  1  0  0  0  0
  3  2  1  0  0  0  0
  3  4  2  0  0  0  0
  4  9  1  0  0  0  0
  4  5  1  0  0  0  0
  5 10  1  0  0  0  0
  6  5  2  0  0  0  0
  6 11  1  0  0  0  0
  7 14  1  0  0  0  0
  7  3  1  0  0  0  0
  8  2  1  0  0  0  0
 12  7  1  0  0  0  0
 13  7  1  0  0  0  0
M  END
