1
 OpenBabel05122313063D

 46 50  0  0  1  0  0  0  0  0999 V2000
   -0.6531   -1.2624    0.0771 N   0  0  0  0  0  2  0  0  0  0  0  0
   -2.9831   -1.5276   -0.1487 N   0  0  0  0  0  0  0  0  0  0  0  0
   -2.7868   -2.5217   -0.2739 H   0  0  0  0  0  0  0  0  0  0  0  0
   -1.5325    1.4633   -1.5133 B   0  0  0  0  0  2  0  0  0  0  0  0
   -1.3458    0.7427   -2.4506 H   0  0  0  0  0  0  0  0  0  0  0  0
   -0.5484    2.8528   -1.0491 B   0  0  1  0  0  0  0  0  0  0  0  0
    0.3874    3.1571   -1.7472 H   0  0  0  0  0  0  0  0  0  0  0  0
   -0.4281    2.8861    0.7142 B   0  0  1  0  0  0  0  0  0  0  0  0
    0.5777    3.2389    1.2667 H   0  0  0  0  0  0  0  0  0  0  0  0
   -1.3014    1.5028    1.3588 B   0  0  2  0  0  0  0  0  0  0  0  0
   -0.9492    0.8011    2.2703 H   0  0  0  0  0  0  0  0  0  0  0  0
   -3.0237    1.6988    0.9484 B   0  0  0  0  0  0  0  0  0  0  0  0
   -3.8263    1.1440    1.6576 H   0  0  0  0  0  0  0  0  0  0  0  0
   -3.1595    1.6728   -0.8282 B   0  0  2  0  0  0  0  0  0  0  0  0
   -4.0647    1.1065   -1.3873 H   0  0  0  0  0  0  0  0  0  0  0  0
   -2.2740    3.0686   -1.4757 B   0  0  0  0  0  0  0  0  0  0  0  0
   -2.6123    3.5868   -2.5141 H   0  0  0  0  0  0  0  0  0  0  0  0
   -1.5859    3.9606   -0.0949 B   0  0  2  0  0  0  0  0  0  0  0  0
   -1.4090    5.1570   -0.1219 H   0  0  0  0  0  0  0  0  0  0  0  0
   -2.0520    3.1074    1.4056 B   0  0  0  0  0  0  0  0  0  0  0  0
   -2.2106    3.6526    2.4736 H   0  0  0  0  0  0  0  0  0  0  0  0
   -3.2058    3.2188    0.0448 B   0  0  2  0  0  0  0  0  0  0  0  0
   -4.2319    3.8556    0.1136 H   0  0  0  0  0  0  0  0  0  0  0  0
   -0.4388    1.4009   -0.1512 C   0  0  2  0  0  0  0  0  0  0  0  0
   -1.9694    0.7422   -0.0159 C   0  0  1  0  0  0  0  0  0  0  0  0
   -1.8729   -0.7612   -0.0049 C   0  0  2  0  0  3  0  0  0  0  0  0
   -0.4168   -2.7276    0.1175 C   0  0  0  0  0  0  0  0  0  0  0  0
    0.6796   -2.8028    0.2140 H   0  0  0  0  0  0  0  0  0  0  0  0
   -1.0110   -3.3971    1.3686 C   0  0  0  0  0  0  0  0  0  0  0  0
   -0.7650   -2.8170    2.2786 H   0  0  0  0  0  0  0  0  0  0  0  0
   -0.5809   -4.4126    1.4791 H   0  0  0  0  0  0  0  0  0  0  0  0
   -2.1123   -3.5127    1.3370 H   0  0  0  0  0  0  0  0  0  0  0  0
   -0.7502   -3.4525   -1.1980 C   0  0  0  0  0  0  0  0  0  0  0  0
   -1.8352   -3.5955   -1.3859 H   0  0  0  0  0  0  0  0  0  0  0  0
   -0.2973   -4.4640   -1.1780 H   0  0  0  0  0  0  0  0  0  0  0  0
   -0.3242   -2.8806   -2.0455 H   0  0  0  0  0  0  0  0  0  0  0  0
   -4.3960   -1.2491    0.1418 C   0  0  0  0  0  0  0  0  0  0  0  0
   -4.5192   -0.1541    0.1606 H   0  0  0  0  0  0  0  0  0  0  0  0
   -4.7791   -1.8092    1.5165 C   0  0  0  0  0  0  0  0  0  0  0  0
   -5.8355   -1.5704    1.7518 H   0  0  0  0  0  0  0  0  0  0  0  0
   -4.1429   -1.3734    2.3120 H   0  0  0  0  0  0  0  0  0  0  0  0
   -4.6694   -2.9142    1.5469 H   0  0  0  0  0  0  0  0  0  0  0  0
   -5.2555   -1.8161   -0.9892 C   0  0  0  0  0  0  0  0  0  0  0  0
   -4.9824   -1.3567   -1.9590 H   0  0  0  0  0  0  0  0  0  0  0  0
   -6.3283   -1.6185   -0.7973 H   0  0  0  0  0  0  0  0  0  0  0  0
   -5.1290   -2.9167   -1.0769 H   0  0  0  0  0  0  0  0  0  0  0  0
  1 27  1  0  0  0  0
  2 26  1  0  0  0  0
  2 37  1  0  0  0  0
  3  2  1  0  0  0  0
  4  6  1  0  0  0  0
  5  4  1  0  0  0  0
  6  7  1  6  0  0  0
  6 24  1  0  0  0  0
  6  8  1  0  0  0  0
  8  9  1  1  0  0  0
  8 10  1  0  0  0  0
 10 11  1  1  0  0  0
 12 20  1  0  0  0  0
 12 13  1  0  0  0  0
 14 15  1  6  0  0  0
 14 25  1  0  0  0  0
 14 22  1  0  0  0  0
 16 14  1  0  0  0  0
 16 18  1  0  0  0  0
 17 16  1  0  0  0  0
 18 19  1  6  0  0  0
 18 22  1  0  0  0  0
 18 20  1  0  0  0  0
 20 21  1  0  0  0  0
 22 23  1  1  0  0  0
 22 12  1  0  0  0  0
 24 25  1  0  0  0  0
 24  8  1  0  0  0  0
 24 10  1  0  0  0  0
 25 26  1  0  0  0  0
 25 10  1  0  0  0  0
 26  1  1  0  0  0  0
 27 28  1  0  0  0  0
 27 29  1  0  0  0  0
 29 31  1  0  0  0  0
 29 30  1  0  0  0  0
 32 29  1  0  0  0  0
 33 35  1  0  0  0  0
 33 27  1  0  0  0  0
 34 33  1  0  0  0  0
 36 33  1  0  0  0  0
 37 38  1  0  0  0  0
 37 39  1  0  0  0  0
 39 42  1  0  0  0  0
 39 40  1  0  0  0  0
 39 41  1  0  0  0  0
 43 45  1  0  0  0  0
 43 37  1  0  0  0  0
 44 43  1  0  0  0  0
 46 43  1  0  0  0  0
M  END
