1
q = 0.0, confidence = 1.0

 12 12  0  0  1  0  0  0  0  0999 V2000
   -1.5573   -0.3364   -0.4299 N   0  0  0  0  0  2  0  0  0  0  0  0
   -1.5830   -1.1663   -1.5342 N   0  0  0  0  0  0  0  0  0  0  0  0
   -2.7482   -1.7576   -1.5398 C   0  0  0  0  0  0  0  0  0  0  0  0
   -3.5102   -1.3392   -0.4561 N   0  0  0  0  0  0  0  0  0  0  0  0
   -2.7155   -0.4419    0.2313 C   0  0  1  0  0  3  0  0  0  0  0  0
   -4.7741   -1.7939   -0.1152 N   0  0  0  0  0  0  0  0  0  0  0  0
   -3.0510    0.1255    1.4104 N   0  0  0  0  0  0  0  0  0  0  0  0
   -3.1221   -2.4770   -2.2766 H   0  0  0  0  0  0  0  0  0  0  0  0
   -4.7629   -2.1504    0.8507 H   0  0  0  0  0  0  0  0  0  0  0  0
   -5.4593   -1.0286   -0.1800 H   0  0  0  0  0  0  0  0  0  0  0  0
   -2.3681    0.8548    1.7452 H   0  0  0  0  0  0  0  0  0  0  0  0
   -4.0420    0.3007    1.5815 H   0  0  0  0  0  0  0  0  0  0  0  0
  1  5  1  0  0  0  0
  2  1  1  0  0  0  0
  3  2  2  0  0  0  0
  3  4  1  0  0  0  0
  4  6  1  0  0  0  0
  4  5  1  0  0  0  0
  5  7  1  1  0  0  0
  6  9  1  0  0  0  0
  7 12  1  0  0  0  0
  7 11  1  0  0  0  0
  8  3  1  0  0  0  0
 10  6  1  0  0  0  0
M  END
