1
 OpenBabel05122313063D

 13 13  0  0  0  0  0  0  0  0999 V2000
    1.2476   -1.3755   -0.5491 N   0  0  0  0  0  2  0  0  0  0  0  0
    2.4436   -0.9718   -1.0680 C   0  0  0  0  0  3  0  0  0  0  0  0
    1.2020   -2.5881    0.0781 C   0  0  0  0  0  0  0  0  0  0  0  0
    3.5853   -1.7472   -1.0154 C   0  0  0  0  0  0  0  0  0  0  0  0
    2.4558   -0.0014   -1.5850 H   0  0  0  0  0  0  0  0  0  0  0  0
    2.2946   -3.4238    0.1820 C   0  0  0  0  0  0  0  0  0  0  0  0
    0.2204   -2.8750    0.4799 H   0  0  0  0  0  0  0  0  0  0  0  0
    3.5728   -3.0383   -0.3692 C   0  0  0  0  0  0  0  0  0  0  0  0
    4.5001   -1.3856   -1.5076 H   0  0  0  0  0  0  0  0  0  0  0  0
    2.1749   -4.4054    0.6627 H   0  0  0  0  0  0  0  0  0  0  0  0
    4.6951   -3.8522   -0.3025 C   0  0  0  0  0  3  0  0  0  0  0  0
    4.6559   -4.8298    0.1995 H   0  0  0  0  0  0  0  0  0  0  0  0
    5.6514   -3.5344   -0.7429 H   0  0  0  0  0  0  0  0  0  0  0  0
  1  3  1  0  0  0  0
  2  4  1  0  0  0  0
  2  1  1  0  0  0  0
  3  6  2  0  0  0  0
  3  7  1  0  0  0  0
  4  8  2  0  0  0  0
  5  2  1  0  0  0  0
  6 10  1  0  0  0  0
  8 11  1  0  0  0  0
  8  6  1  0  0  0  0
  9  4  1  0  0  0  0
 11 12  1  0  0  0  0
 13 11  1  0  0  0  0
M  END
