2
 OpenBabel05122313063D

 15 15  0  0  0  0  0  0  0  0999 V2000
    1.3156   -1.0793   -0.5437 N   0  0  0  0  0  2  0  0  0  0  0  0
    0.7236   -0.6773   -1.7398 N   0  0  0  0  0  0  0  0  0  0  0  0
    2.6838   -0.8802   -0.4153 C   0  0  0  0  0  0  0  0  0  0  0  0
    3.5440   -0.6344   -1.5189 C   0  0  0  0  0  0  0  0  0  0  0  0
    3.1539   -0.6361   -2.5488 H   0  0  0  0  0  0  0  0  0  0  0  0
    4.9197   -0.4335   -1.3202 C   0  0  0  0  0  0  0  0  0  0  0  0
    5.5648   -0.2453   -2.1921 H   0  0  0  0  0  0  0  0  0  0  0  0
    5.4764   -0.4897   -0.0353 C   0  0  0  0  0  0  0  0  0  0  0  0
    6.5541   -0.3331    0.1139 H   0  0  0  0  0  0  0  0  0  0  0  0
    4.6379   -0.7849    1.0571 C   0  0  0  0  0  0  0  0  0  0  0  0
    5.0640   -0.8667    2.0688 H   0  0  0  0  0  0  0  0  0  0  0  0
    3.2683   -0.9852    0.8738 C   0  0  0  0  0  0  0  0  0  0  0  0
    2.6188   -1.2362    1.7234 H   0  0  0  0  0  0  0  0  0  0  0  0
    1.2755   -0.0005   -2.2996 H   0  0  0  0  0  0  0  0  0  0  0  0
    0.4339   -1.4580   -2.3506 H   0  0  0  0  0  0  0  0  0  0  0  0
  1  3  1  0  0  0  0
  2  1  1  0  0  0  0
  3 12  1  0  0  0  0
  4  6  1  0  0  0  0
  4  3  2  0  0  0  0
  5  4  1  0  0  0  0
  6  8  2  0  0  0  0
  7  6  1  0  0  0  0
  8  9  1  0  0  0  0
  8 10  1  0  0  0  0
 10 11  1  0  0  0  0
 12 10  2  0  0  0  0
 12 13  1  0  0  0  0
 14  2  1  0  0  0  0
 15  2  1  0  0  0  0
M  END
