1
 OpenBabel05122313063D

 14 14  0  0  0  0  0  0  0  0999 V2000
    1.8463    0.9704   -0.5399 N   0  0  0  0  0  0  0  0  0  0  0  0
    1.5148    1.8123   -1.0274 H   0  0  0  0  0  0  0  0  0  0  0  0
    2.8582    1.3274    0.5026 C   0  0  0  0  0  0  0  0  0  0  0  0
    3.2847    0.7181   -0.7948 C   0  0  0  0  0  0  0  0  0  0  0  0
    3.7562    1.3578   -1.5587 H   0  0  0  0  0  0  0  0  0  0  0  0
    3.5260   -0.3575   -0.8233 H   0  0  0  0  0  0  0  0  0  0  0  0
    3.0540    2.8126    0.7266 C   0  0  0  0  0  0  0  0  0  0  0  0
    4.0218    3.0003    1.2341 H   0  0  0  0  0  0  0  0  0  0  0  0
    2.2480    3.2197    1.3715 H   0  0  0  0  0  0  0  0  0  0  0  0
    3.0582    3.3787   -0.2273 H   0  0  0  0  0  0  0  0  0  0  0  0
    2.8390    0.4717    1.7510 C   0  0  0  0  0  0  0  0  0  0  0  0
    2.6750   -0.5927    1.4919 H   0  0  0  0  0  0  0  0  0  0  0  0
    2.0280    0.8046    2.4310 H   0  0  0  0  0  0  0  0  0  0  0  0
    3.8051    0.5705    2.2866 H   0  0  0  0  0  0  0  0  0  0  0  0
  1  3  1  0  0  0  0
  2  1  1  0  0  0  0
  3  7  1  0  0  0  0
  3 11  1  0  0  0  0
  4  1  1  0  0  0  0
  4  3  1  0  0  0  0
  5  4  1  0  0  0  0
  6  4  1  0  0  0  0
  7  8  1  0  0  0  0
  7  9  1  0  0  0  0
 10  7  1  0  0  0  0
 11 14  1  0  0  0  0
 11 13  1  0  0  0  0
 12 11  1  0  0  0  0
M  END
