1
 OpenBabel05122313063D

 34 35  0  0  0  0  0  0  0  0999 V2000
   -0.9902   -1.4509   -0.6975 N   0  0  0  0  0  2  0  0  0  0  0  0
   -0.2953   -2.5221   -1.1199 C   0  0  0  0  0  3  0  0  0  0  0  0
    0.7953   -2.3860   -1.1869 H   0  0  0  0  0  0  0  0  0  0  0  0
   -0.9316   -3.7235   -1.4533 C   0  0  0  0  0  0  0  0  0  0  0  0
   -0.3349   -4.5791   -1.7995 H   0  0  0  0  0  0  0  0  0  0  0  0
   -2.3232   -3.8057   -1.3156 C   0  0  0  0  0  0  0  0  0  0  0  0
   -2.8556   -4.7427   -1.5364 H   0  0  0  0  0  0  0  0  0  0  0  0
   -3.0366   -2.6749   -0.8934 C   0  0  0  0  0  0  0  0  0  0  0  0
   -4.1281   -2.7267   -0.7654 H   0  0  0  0  0  0  0  0  0  0  0  0
   -2.3404   -1.4874   -0.6137 C   0  0  0  0  0  0  0  0  0  0  0  0
   -3.0099   -0.1882   -0.2013 C   0  0  0  0  0  0  0  0  0  0  0  0
   -2.4220    0.6606    0.4663 O   0  0  0  0  0  0  0  0  0  0  0  0
   -4.3138   -0.0828   -0.6271 N   0  0  0  0  0  0  0  0  0  0  0  0
   -4.7848   -0.9510   -0.9235 H   0  0  0  0  0  0  0  0  0  0  0  0
   -5.2314    0.9210   -0.2731 C   0  0  0  0  0  0  0  0  0  0  0  0
   -4.9194    2.3016   -0.4087 C   0  0  0  0  0  0  0  0  0  0  0  0
   -5.8878    3.2342    0.0109 C   0  0  0  0  0  0  0  0  0  0  0  0
   -5.6522    4.3052   -0.0931 H   0  0  0  0  0  0  0  0  0  0  0  0
   -7.1390    2.8487    0.5124 C   0  0  0  0  0  0  0  0  0  0  0  0
   -7.8693    3.6100    0.8236 H   0  0  0  0  0  0  0  0  0  0  0  0
   -7.4653    1.4931    0.5769 C   0  0  0  0  0  0  0  0  0  0  0  0
   -8.4516    1.1638    0.9290 H   0  0  0  0  0  0  0  0  0  0  0  0
   -6.5276    0.5175    0.1798 C   0  0  0  0  0  0  0  0  0  0  0  0
   -3.6504    2.7818   -1.0556 C   0  0  0  0  0  0  0  0  0  0  0  0
   -2.8149    2.8065   -0.3280 H   0  0  0  0  0  0  0  0  0  0  0  0
   -3.7918    3.7984   -1.4705 H   0  0  0  0  0  0  0  0  0  0  0  0
   -3.3173    2.1020   -1.8648 H   0  0  0  0  0  0  0  0  0  0  0  0
   -6.9082   -0.9187    0.2044 C   0  0  0  0  0  0  0  0  0  0  0  0
   -6.2923   -1.8375   -0.3442 O   0  0  0  0  0  0  0  0  0  0  0  0
   -8.0511   -1.1482    0.8838 O   0  0  0  0  0  0  0  0  0  0  0  0
   -8.4978   -2.5089    0.9085 C   0  0  0  0  0  0  0  0  0  0  0  0
   -8.6720   -2.8860   -0.1193 H   0  0  0  0  0  0  0  0  0  0  0  0
   -9.4388   -2.5084    1.4861 H   0  0  0  0  0  0  0  0  0  0  0  0
   -7.7451   -3.1605    1.3957 H   0  0  0  0  0  0  0  0  0  0  0  0
  1 10  1  0  0  0  0
  2  1  1  0  0  0  0
  3  2  1  0  0  0  0
  4  6  2  0  0  0  0
  4  2  1  0  0  0  0
  5  4  1  0  0  0  0
  6  8  1  0  0  0  0
  7  6  1  0  0  0  0
  8  9  1  0  0  0  0
  8 10  2  0  0  0  0
 10 11  1  0  0  0  0
 11 12  2  0  0  0  0
 13 15  1  0  0  0  0
 13 11  1  0  0  0  0
 14 13  1  0  0  0  0
 15 23  1  0  0  0  0
 16 15  2  0  0  0  0
 16 17  1  0  0  0  0
 17 19  2  0  0  0  0
 18 17  1  0  0  0  0
 19 21  1  0  0  0  0
 19 20  1  0  0  0  0
 21 22  1  0  0  0  0
 23 28  1  0  0  0  0
 23 21  2  0  0  0  0
 24 16  1  0  0  0  0
 24 25  1  0  0  0  0
 26 24  1  0  0  0  0
 27 24  1  0  0  0  0
 28 30  1  0  0  0  0
 29 28  2  0  0  0  0
 30 31  1  0  0  0  0
 31 34  1  0  0  0  0
 31 33  1  0  0  0  0
 32 31  1  0  0  0  0
M  END
