1
 OpenBabel05122313063D

 11 11  0  0  0  0  0  0  0  0999 V2000
    2.0638   -1.6399    0.4769 N   0  0  0  0  0  2  0  0  0  0  0  0
    3.0949   -1.4133   -0.3624 C   0  0  0  0  0  3  0  0  0  0  0  0
    2.9060   -0.7248   -1.2003 H   0  0  0  0  0  0  0  0  0  0  0  0
    4.3269   -2.0628   -0.1940 C   0  0  0  0  0  0  0  0  0  0  0  0
    5.6269   -1.7215   -1.2950 Cl  0  0  0  0  0  0  0  0  0  0  0  0
    4.4964   -2.9796    0.8542 C   0  0  0  0  0  0  0  0  0  0  0  0
    5.4571   -3.4968    0.9887 H   0  0  0  0  0  0  0  0  0  0  0  0
    3.4091   -3.2044    1.7079 C   0  0  0  0  0  0  0  0  0  0  0  0
    3.4882   -3.9134    2.5444 H   0  0  0  0  0  0  0  0  0  0  0  0
    2.2103   -2.5140    1.4970 C   0  0  0  0  0  0  0  0  0  0  0  0
    1.3381   -2.6142    2.1617 H   0  0  0  0  0  0  0  0  0  0  0  0
  1 10  1  0  0  0  0
  2  4  1  0  0  0  0
  2  1  1  0  0  0  0
  3  2  1  0  0  0  0
  4  6  2  0  0  0  0
  5  4  1  0  0  0  0
  6  7  1  0  0  0  0
  6  8  1  0  0  0  0
  8  9  1  0  0  0  0
 10  8  2  0  0  0  0
 10 11  1  0  0  0  0
M  END
