1
 OpenBabel05122313063D

 22 21  0  0  0  0  0  0  0  0999 V2000
   -2.0953   -0.9254   -0.1210 N   0  0  0  0  0  2  0  0  0  0  0  0
   -1.3526   -1.2576    0.8678 C   0  0  0  0  0  2  0  0  0  0  0  0
   -1.4938   -2.3340    1.9001 C   0  0  0  0  0  0  0  0  0  0  0  0
   -0.1820   -2.7042    2.5941 C   0  0  0  0  0  0  0  0  0  0  0  0
   -3.3515   -1.4282   -0.7244 C   0  0  0  0  0  0  0  0  0  0  0  0
   -3.9652   -0.2676   -1.5234 C   0  0  0  0  0  0  0  0  0  0  0  0
   -2.9519   -2.5725   -1.6756 C   0  0  0  0  0  0  0  0  0  0  0  0
   -4.3423   -1.9072    0.3501 C   0  0  0  0  0  0  0  0  0  0  0  0
   -2.2350   -1.9686    2.6478 H   0  0  0  0  0  0  0  0  0  0  0  0
   -1.9608   -3.2358    1.4445 H   0  0  0  0  0  0  0  0  0  0  0  0
   -0.3429   -3.4885    3.3599 H   0  0  0  0  0  0  0  0  0  0  0  0
    0.2668   -1.8220    3.0874 H   0  0  0  0  0  0  0  0  0  0  0  0
    0.5592   -3.0830    1.8634 H   0  0  0  0  0  0  0  0  0  0  0  0
   -4.8632   -0.6132   -2.0730 H   0  0  0  0  0  0  0  0  0  0  0  0
   -3.2223    0.1278   -2.2426 H   0  0  0  0  0  0  0  0  0  0  0  0
   -4.2708    0.5536   -0.8447 H   0  0  0  0  0  0  0  0  0  0  0  0
   -3.8465   -2.9555   -2.2068 H   0  0  0  0  0  0  0  0  0  0  0  0
   -2.4932   -3.4133   -1.1165 H   0  0  0  0  0  0  0  0  0  0  0  0
   -2.2214   -2.1993   -2.4197 H   0  0  0  0  0  0  0  0  0  0  0  0
   -3.9926   -2.8154    0.8759 H   0  0  0  0  0  0  0  0  0  0  0  0
   -5.3142   -2.1493   -0.1248 H   0  0  0  0  0  0  0  0  0  0  0  0
   -4.5229   -1.1121    1.1016 H   0  0  0  0  0  0  0  0  0  0  0  0
  1  2  1  0  0  0  0
  2  3  1  0  0  0  0
  3  4  1  0  0  0  0
  3  9  1  0  0  0  0
  4 12  1  0  0  0  0
  4 11  1  0  0  0  0
  5  1  1  0  0  0  0
  5  8  1  0  0  0  0
  6 16  1  0  0  0  0
  6  5  1  0  0  0  0
  7 18  1  0  0  0  0
  7  5  1  0  0  0  0
  8 20  1  0  0  0  0
  8 22  1  0  0  0  0
 10  3  1  0  0  0  0
 13  4  1  0  0  0  0
 14  6  1  0  0  0  0
 15  6  1  0  0  0  0
 17  7  1  0  0  0  0
 19  7  1  0  0  0  0
 21  8  1  0  0  0  0
M  END
