1
 OpenBabel05122313063D

 24 24  0  0  1  0  0  0  0  0999 V2000
    1.9394   -0.9690   -0.6743 N   0  0  0  0  0  2  0  0  0  0  0  0
    2.0080   -1.1655   -2.1119 C   0  0  0  0  0  0  0  0  0  0  0  0
    2.8062   -0.1635   -0.1009 C   0  0  1  0  0  3  0  0  0  0  0  0
    1.4207   -2.0678   -2.3669 H   0  0  0  0  0  0  0  0  0  0  0  0
    1.5782   -0.3035   -2.6771 H   0  0  0  0  0  0  0  0  0  0  0  0
    3.0569   -1.3274   -2.4484 H   0  0  0  0  0  0  0  0  0  0  0  0
    2.9648   -0.0762    1.2209 O   0  0  0  0  0  0  0  0  0  0  0  0
    3.6715    0.6289   -0.7927 N   0  0  0  0  0  0  0  0  0  0  0  0
    2.3204   -1.0297    2.0734 C   0  0  0  0  0  0  0  0  0  0  0  0
    4.5828    1.5676   -0.1714 C   0  0  0  0  0  0  0  0  0  0  0  0
    3.4356    0.7827   -1.7730 H   0  0  0  0  0  0  0  0  0  0  0  0
    2.8660   -0.9802    3.0339 H   0  0  0  0  0  0  0  0  0  0  0  0
    1.2551   -0.7539    2.2207 H   0  0  0  0  0  0  0  0  0  0  0  0
    2.3601   -2.0476    1.6374 H   0  0  0  0  0  0  0  0  0  0  0  0
    4.5634    2.9603   -0.7628 C   0  0  0  0  0  0  0  0  0  0  0  0
    3.9531    2.7117    0.5970 C   0  0  0  0  0  0  0  0  0  0  0  0
    5.8889    0.9607    0.3020 C   0  0  0  0  0  0  0  0  0  0  0  0
    5.5255    3.4914   -0.8306 H   0  0  0  0  0  0  0  0  0  0  0  0
    4.4827    3.0759    1.4908 H   0  0  0  0  0  0  0  0  0  0  0  0
    2.8547    2.7033    0.6731 H   0  0  0  0  0  0  0  0  0  0  0  0
    3.8757    3.1565   -1.6015 H   0  0  0  0  0  0  0  0  0  0  0  0
    5.6948    0.1853    1.0701 H   0  0  0  0  0  0  0  0  0  0  0  0
    6.5420    1.7332    0.7528 H   0  0  0  0  0  0  0  0  0  0  0  0
    6.4364    0.4895   -0.5401 H   0  0  0  0  0  0  0  0  0  0  0  0
  2  1  1  0  0  0  0
  3  1  1  6  0  0  0
  3  7  1  0  0  0  0
  4  2  1  0  0  0  0
  5  2  1  0  0  0  0
  6  2  1  0  0  0  0
  7  9  1  0  0  0  0
  8 10  1  0  0  0  0
  8  3  1  0  0  0  0
  9 13  1  0  0  0  0
  9 12  1  0  0  0  0
 10 17  1  0  0  0  0
 10 16  1  0  0  0  0
 11  8  1  0  0  0  0
 14  9  1  0  0  0  0
 15 10  1  0  0  0  0
 15 16  1  0  0  0  0
 16 20  1  0  0  0  0
 16 19  1  0  0  0  0
 17 23  1  0  0  0  0
 17 22  1  0  0  0  0
 18 15  1  0  0  0  0
 21 15  1  0  0  0  0
 24 17  1  0  0  0  0
M  END
