1
 OpenBabel05122313063D

 16 15  0  0  0  0  0  0  0  0999 V2000
   -1.7726    0.7012   -1.2762 N   0  0  0  0  0  2  0  0  0  0  0  0
   -1.8623    1.7242   -1.3109 H   0  0  0  0  0  0  0  0  0  0  0  0
   -0.7938   -1.8568   -1.1237 N   0  0  0  0  0  0  0  0  0  0  0  0
   -0.1309   -2.6421   -1.1654 H   0  0  0  0  0  0  0  0  0  0  0  0
   -2.8924    0.1183   -1.6861 C   0  0  0  0  0  0  0  0  0  0  0  0
   -3.0384   -1.2855   -1.7977 C   0  0  0  0  0  0  0  0  0  0  0  0
   -3.9930   -1.6720   -2.1787 H   0  0  0  0  0  0  0  0  0  0  0  0
   -1.9754   -2.1991   -1.6339 C   0  0  0  0  0  0  0  0  0  0  0  0
   -4.0762    0.9950   -2.0425 C   0  0  0  0  0  0  0  0  0  0  0  0
   -4.8852    0.4322   -2.5445 H   0  0  0  0  0  0  0  0  0  0  0  0
   -3.7635    1.8267   -2.7075 H   0  0  0  0  0  0  0  0  0  0  0  0
   -4.4867    1.4482   -1.1151 H   0  0  0  0  0  0  0  0  0  0  0  0
   -2.1742   -3.6230   -2.1174 C   0  0  0  0  0  0  0  0  0  0  0  0
   -1.6806   -3.7656   -3.1025 H   0  0  0  0  0  0  0  0  0  0  0  0
   -3.2451   -3.8717   -2.2417 H   0  0  0  0  0  0  0  0  0  0  0  0
   -1.7237   -4.3525   -1.4125 H   0  0  0  0  0  0  0  0  0  0  0  0
  2  1  1  0  0  0  0
  4  3  1  0  0  0  0
  5  1  1  0  0  0  0
  6  5  2  0  0  0  0
  6  8  1  0  0  0  0
  7  6  1  0  0  0  0
  8  3  2  0  0  0  0
  9  5  1  0  0  0  0
  9 12  1  0  0  0  0
 10  9  1  0  0  0  0
 11  9  1  0  0  0  0
 13  8  1  0  0  0  0
 13 16  1  0  0  0  0
 14 13  1  0  0  0  0
 15 13  1  0  0  0  0
M  END
