1
 OpenBabel05122313063D

 14 14  0  0  1  0  0  0  0  0999 V2000
   -1.1087    0.1492   -0.0002 N   0  0  0  0  0  2  0  0  0  0  0  0
   -1.9363   -0.9480   -0.0001 N   0  0  0  0  0  0  0  0  0  0  0  0
   -3.1646    0.8728   -0.0001 N   0  0  0  0  0  0  0  0  0  0  0  0
   -3.9698    1.5001   -0.0002 H   0  0  0  0  0  0  0  0  0  0  0  0
   -1.8476    1.2586   -0.0002 C   0  0  1  0  0  3  0  0  0  0  0  0
   -1.3860    2.6730   -0.0001 C   0  0  0  0  0  0  0  0  0  0  0  0
   -0.7627    2.8841   -0.8908 H   0  0  0  0  0  0  0  0  0  0  0  0
   -0.7632    2.8840    0.8911 H   0  0  0  0  0  0  0  0  0  0  0  0
   -2.2454    3.3694   -0.0003 H   0  0  0  0  0  0  0  0  0  0  0  0
   -3.1799   -0.5045   -0.0001 C   0  0  0  0  0  0  0  0  0  0  0  0
   -4.4058   -1.3478   -0.0000 C   0  0  0  0  0  0  0  0  0  0  0  0
   -4.0963   -2.4081   -0.0005 H   0  0  0  0  0  0  0  0  0  0  0  0
   -5.0317   -1.1632   -0.8973 H   0  0  0  0  0  0  0  0  0  0  0  0
   -5.0310   -1.1638    0.8978 H   0  0  0  0  0  0  0  0  0  0  0  0
  1  5  1  0  0  0  0
  1  2  1  0  0  0  0
  2 10  2  0  0  0  0
  4  3  1  0  0  0  0
  5  3  1  0  0  0  0
  5  6  1  1  0  0  0
  6  8  1  0  0  0  0
  7  6  1  0  0  0  0
  9  6  1  0  0  0  0
 10  3  1  0  0  0  0
 10 11  1  0  0  0  0
 11 14  1  0  0  0  0
 12 11  1  0  0  0  0
 13 11  1  0  0  0  0
M  END
