1
 OpenBabel05122313063D

 23 23  0  0  0  0  0  0  0  0999 V2000
    0.8056    2.1388   -0.4446 N   0  0  0  0  0  2  0  0  0  0  0  0
   -0.9593    0.8051    1.2256 O   0  0  0  0  0  0  0  0  0  0  0  0
   -2.1270    2.7270    1.5125 O   0  0  0  0  0  0  0  0  0  0  0  0
    1.6591    2.7900   -1.2469 C   0  0  0  0  0  3  0  0  0  0  0  0
    2.4372    2.1666   -1.7241 H   0  0  0  0  0  0  0  0  0  0  0  0
    1.5551    4.1708   -1.4839 C   0  0  0  0  0  0  0  0  0  0  0  0
    2.2784    4.6671   -2.1468 H   0  0  0  0  0  0  0  0  0  0  0  0
    0.5211    4.8858   -0.8657 C   0  0  0  0  0  0  0  0  0  0  0  0
    0.4109    5.9686   -1.0284 H   0  0  0  0  0  0  0  0  0  0  0  0
   -0.3768    4.1997   -0.0357 C   0  0  0  0  0  0  0  0  0  0  0  0
   -1.2085    4.7094    0.4677 H   0  0  0  0  0  0  0  0  0  0  0  0
   -0.1948    2.8182    0.1487 C   0  0  0  0  0  0  0  0  0  0  0  0
   -1.1117    1.9971    1.0103 C   0  0  0  0  0  0  0  0  0  0  0  0
   -3.0848    2.0067    2.3237 C   0  0  0  0  0  0  0  0  0  0  0  0
   -3.5411    2.7791    2.9733 H   0  0  0  0  0  0  0  0  0  0  0  0
   -2.5398    1.2739    2.9530 H   0  0  0  0  0  0  0  0  0  0  0  0
   -4.1365    1.3107    1.4659 C   0  0  0  0  0  0  0  0  0  0  0  0
   -3.6292    0.5857    0.7962 H   0  0  0  0  0  0  0  0  0  0  0  0
   -4.6223    2.0667    0.8123 H   0  0  0  0  0  0  0  0  0  0  0  0
   -5.1804    0.5861    2.3156 C   0  0  0  0  0  0  0  0  0  0  0  0
   -5.9396    0.0943    1.6763 H   0  0  0  0  0  0  0  0  0  0  0  0
   -5.7153    1.2841    2.9926 H   0  0  0  0  0  0  0  0  0  0  0  0
   -4.7134   -0.1991    2.9454 H   0  0  0  0  0  0  0  0  0  0  0  0
  1 12  1  0  0  0  0
  3 14  1  0  0  0  0
  4  1  1  0  0  0  0
  5  4  1  0  0  0  0
  6  4  1  0  0  0  0
  6  8  2  0  0  0  0
  7  6  1  0  0  0  0
  8 10  1  0  0  0  0
  9  8  1  0  0  0  0
 10 12  2  0  0  0  0
 10 11  1  0  0  0  0
 12 13  1  0  0  0  0
 13  2  2  0  0  0  0
 13  3  1  0  0  0  0
 14 16  1  0  0  0  0
 14 15  1  0  0  0  0
 17 20  1  0  0  0  0
 17 14  1  0  0  0  0
 18 17  1  0  0  0  0
 19 17  1  0  0  0  0
 20 23  1  0  0  0  0
 20 22  1  0  0  0  0
 21 20  1  0  0  0  0
M  END
