19
 OpenBabel05122313063D

 33 35  0  0  1  0  0  0  0  0999 V2000
    1.7212   -0.0117    1.1693 C   0  0  0  0  0  0  0  0  0  0  0  0
    2.8642   -0.0221    1.9863 C   0  0  0  0  0  0  0  0  0  0  0  0
    2.7042    0.2189    3.3584 C   0  0  0  0  0  0  0  0  0  0  0  0
    1.4214    0.4611    3.8685 C   0  0  0  0  0  0  0  0  0  0  0  0
    0.3412    0.4464    2.9767 C   0  0  0  0  0  0  0  0  0  0  0  0
    1.8391   -0.2515   -0.3539 C   0  0  0  0  0  0  0  0  0  0  0  0
    1.4007    1.0326   -1.1087 C   0  0  0  0  0  0  0  0  0  0  0  0
    2.3864    1.9337   -1.5570 C   0  0  0  0  0  0  0  0  0  0  0  0
    1.9870    3.0912   -2.2395 C   0  0  0  0  0  0  0  0  0  0  0  0
    0.6216    3.3233   -2.4514 C   0  0  0  0  0  0  0  0  0  0  0  0
   -0.2905    2.3907   -1.9423 C   0  0  0  0  0  0  0  0  0  0  0  0
    1.0421   -1.5258   -0.7471 C   0  0  1  0  0  3  0  0  0  0  0  0
    1.7583   -2.6606   -1.1721 C   0  0  0  0  0  0  0  0  0  0  0  0
    1.0750   -3.8290   -1.5301 C   0  0  0  0  0  0  0  0  0  0  0  0
   -0.3226   -3.8506   -1.4514 C   0  0  0  0  0  0  0  0  0  0  0  0
   -0.9707   -2.7016   -0.9937 C   0  0  0  0  0  0  0  0  0  0  0  0
    0.4917    0.2148    1.6604 N   0  0  0  0  0  0  0  0  0  0  0  0
    0.0929    1.2796   -1.2875 N   0  0  0  0  0  0  0  0  0  0  0  0
   -0.3081   -1.5738   -0.6465 N   0  0  0  0  0  2  0  0  0  0  0  0
    3.2134   -0.4768   -0.6019 O   0  0  0  0  0  0  0  0  0  0  0  0
    3.8498   -0.2147    1.5460 H   0  0  0  0  0  0  0  0  0  0  0  0
    3.5805    0.2173    4.0240 H   0  0  0  0  0  0  0  0  0  0  0  0
    1.2550    0.6569    4.9373 H   0  0  0  0  0  0  0  0  0  0  0  0
   -0.6881    0.6279    3.3290 H   0  0  0  0  0  0  0  0  0  0  0  0
    3.4477    1.7391   -1.3549 H   0  0  0  0  0  0  0  0  0  0  0  0
    2.7409    3.8084   -2.5972 H   0  0  0  0  0  0  0  0  0  0  0  0
    0.2648    4.2152   -2.9858 H   0  0  0  0  0  0  0  0  0  0  0  0
   -1.3773    2.5410   -2.0567 H   0  0  0  0  0  0  0  0  0  0  0  0
    2.8540   -2.6247   -1.1932 H   0  0  0  0  0  0  0  0  0  0  0  0
    1.6346   -4.7164   -1.8615 H   0  0  0  0  0  0  0  0  0  0  0  0
   -0.9069   -4.7407   -1.7234 H   0  0  0  0  0  0  0  0  0  0  0  0
   -2.0668   -2.6751   -0.8921 H   0  0  0  0  0  0  0  0  0  0  0  0
    3.3488   -0.4751   -1.5693 H   0  0  0  0  0  0  0  0  0  0  0  0
  1 17  2  0  0  0  0
  1  2  1  0  0  0  0
  2  3  2  0  0  0  0
  3  4  1  0  0  0  0
  3 22  1  0  0  0  0
  4 23  1  0  0  0  0
  5 24  1  0  0  0  0
  5  4  2  0  0  0  0
  6  1  1  0  0  0  0
  7  6  1  0  0  0  0
  8 25  1  0  0  0  0
  8  7  2  0  0  0  0
  9  8  1  0  0  0  0
 10  9  2  0  0  0  0
 10 11  1  0  0  0  0
 11 18  2  0  0  0  0
 12 19  1  0  0  0  0
 12  6  1  1  0  0  0
 13 12  1  0  0  0  0
 14 15  1  0  0  0  0
 14 13  2  0  0  0  0
 15 16  2  0  0  0  0
 16 32  1  0  0  0  0
 16 19  1  0  0  0  0
 17  5  1  0  0  0  0
 18  7  1  0  0  0  0
 20  6  1  0  0  0  0
 21  2  1  0  0  0  0
 26  9  1  0  0  0  0
 27 10  1  0  0  0  0
 28 11  1  0  0  0  0
 29 13  1  0  0  0  0
 30 14  1  0  0  0  0
 31 15  1  0  0  0  0
 33 20  1  0  0  0  0
M  END
