1
 OpenBabel05122313063D

 15 15  0  0  0  0  0  0  0  0999 V2000
   -1.5485    0.4250   -0.4478 N   0  0  0  0  0  2  0  0  0  0  0  0
   -2.7714    0.0744    0.0205 C   0  0  0  0  0  3  0  0  0  0  0  0
   -2.9350   -0.9959    0.2133 H   0  0  0  0  0  0  0  0  0  0  0  0
   -3.5814    2.3725   -0.0264 C   0  0  0  0  0  0  0  0  0  0  0  0
   -2.2994    2.7224   -0.5152 C   0  0  0  0  0  0  0  0  0  0  0  0
   -2.0468    3.7642   -0.7559 H   0  0  0  0  0  0  0  0  0  0  0  0
   -3.7901    0.9994    0.2410 C   0  0  0  0  0  0  0  0  0  0  0  0
   -4.7620    0.6472    0.6164 H   0  0  0  0  0  0  0  0  0  0  0  0
   -1.3322    1.7418   -0.7085 C   0  0  0  0  0  0  0  0  0  0  0  0
   -0.3376    2.0054   -1.0971 H   0  0  0  0  0  0  0  0  0  0  0  0
   -4.6632    3.3360    0.1997 C   0  0  0  0  0  0  0  0  0  0  0  0
   -5.6006    2.9043    0.5888 H   0  0  0  0  0  0  0  0  0  0  0  0
   -4.6058    4.6658   -0.0290 C   0  0  0  0  0  0  0  0  0  0  0  0
   -3.7056    5.1645   -0.4215 H   0  0  0  0  0  0  0  0  0  0  0  0
   -5.4760    5.3088    0.1694 H   0  0  0  0  0  0  0  0  0  0  0  0
  1  2  1  0  0  0  0
  2  3  1  0  0  0  0
  2  7  1  0  0  0  0
  4 11  1  0  0  0  0
  4  7  2  0  0  0  0
  5  4  1  0  0  0  0
  6  5  1  0  0  0  0
  7  8  1  0  0  0  0
  9  5  2  0  0  0  0
  9  1  1  0  0  0  0
 10  9  1  0  0  0  0
 11 12  1  0  0  0  0
 13 15  1  0  0  0  0
 13 11  2  0  0  0  0
 14 13  1  0  0  0  0
M  END
