13
 OpenBabel05122313063D

 57 58  0  0  1  0  0  0  0  0999 V2000
    4.7444   -0.4496    1.9176 O   0  0  0  0  0  0  0  0  0  0  0  0
   -5.2227   -1.6117   -0.7726 O   0  0  0  0  0  0  0  0  0  0  0  0
   -5.0388    0.0469    0.8883 O   0  0  0  0  0  0  0  0  0  0  0  0
    4.5850   -1.3513   -0.2506 O   0  0  0  0  0  0  0  0  0  0  0  0
   -1.1964   -0.9198   -1.2725 N   0  0  0  0  0  0  0  0  0  0  0  0
   -0.4716   -0.5807   -2.0041 H   0  0  0  0  0  0  0  0  0  0  0  0
    1.4956   -1.3734    0.5930 N   0  0  0  0  0  0  0  0  0  0  0  0
   -2.0147   -0.8236    0.7580 N   0  0  0  0  0  0  0  0  0  0  0  0
    1.6761   -4.4467   -1.7077 C   0  0  0  0  0  0  0  0  0  0  0  0
    2.0562   -4.6047   -2.7357 H   0  0  0  0  0  0  0  0  0  0  0  0
    0.5947   -4.7000   -1.7102 H   0  0  0  0  0  0  0  0  0  0  0  0
    2.1880   -5.1797   -1.0492 H   0  0  0  0  0  0  0  0  0  0  0  0
    0.8874    0.7627    0.8642 N   0  0  0  0  0  2  0  0  0  0  0  0
   -5.0490    1.1683   -0.0110 C   0  0  0  0  0  0  0  0  0  0  0  0
   -5.6174    0.9331   -0.9352 H   0  0  0  0  0  0  0  0  0  0  0  0
   -4.0204    1.4915   -0.2837 H   0  0  0  0  0  0  0  0  0  0  0  0
   -5.5564    1.9871    0.5310 H   0  0  0  0  0  0  0  0  0  0  0  0
    4.0076   -1.2565    1.0392 C   0  0  0  0  0  0  0  0  0  0  0  0
    3.9987   -2.3187    1.3911 H   0  0  0  0  0  0  0  0  0  0  0  0
    4.6150   -0.1247   -0.9995 C   0  0  0  0  0  0  0  0  0  0  0  0
    5.2733   -0.3153   -1.8671 H   0  0  0  0  0  0  0  0  0  0  0  0
    5.0344    0.7081   -0.3973 H   0  0  0  0  0  0  0  0  0  0  0  0
    3.6068    0.1695   -1.3636 H   0  0  0  0  0  0  0  0  0  0  0  0
    0.4699   -0.4631    0.5254 C   0  0  1  0  0  3  0  0  0  0  0  0
    2.6206   -0.6750    1.0053 C   0  0  0  0  0  0  0  0  0  0  0  0
   -6.5622   -1.9819   -0.4789 C   0  0  0  0  0  0  0  0  0  0  0  0
   -7.0242   -2.3056   -1.4299 H   0  0  0  0  0  0  0  0  0  0  0  0
   -7.1409   -1.1330   -0.0564 H   0  0  0  0  0  0  0  0  0  0  0  0
   -6.5970   -2.8269    0.2482 H   0  0  0  0  0  0  0  0  0  0  0  0
   -0.8736   -0.7498    0.0247 C   0  0  2  0  0  3  0  0  0  0  0  0
   -2.5530   -1.0686   -1.3841 C   0  0  0  0  0  0  0  0  0  0  0  0
   -3.0667   -1.1956   -2.3398 H   0  0  0  0  0  0  0  0  0  0  0  0
   -3.0819   -1.0196   -0.1072 C   0  0  0  0  0  0  0  0  0  0  0  0
   -2.0528    1.1510    4.0448 C   0  0  0  0  0  0  0  0  0  0  0  0
   -2.7325    0.5418    4.6775 H   0  0  0  0  0  0  0  0  0  0  0  0
   -2.2350    2.2151    4.2909 H   0  0  0  0  0  0  0  0  0  0  0  0
   -1.0099    0.9162    4.3442 H   0  0  0  0  0  0  0  0  0  0  0  0
    1.4170   -2.7741    0.1757 C   0  0  0  0  0  0  0  0  0  0  0  0
    0.3532   -3.0770    0.2711 H   0  0  0  0  0  0  0  0  0  0  0  0
    1.9876   -3.3864    0.9045 H   0  0  0  0  0  0  0  0  0  0  0  0
    1.9196   -3.0097   -1.2528 C   0  0  0  0  0  0  0  0  0  0  0  0
    2.9992   -2.7586   -1.2875 H   0  0  0  0  0  0  0  0  0  0  0  0
    1.4216   -2.2830   -1.9279 H   0  0  0  0  0  0  0  0  0  0  0  0
    6.0581   -0.9281    2.1578 C   0  0  0  0  0  0  0  0  0  0  0  0
    6.6497   -1.0018    1.2203 H   0  0  0  0  0  0  0  0  0  0  0  0
    6.0407   -1.9350    2.6389 H   0  0  0  0  0  0  0  0  0  0  0  0
    6.5432   -0.2096    2.8443 H   0  0  0  0  0  0  0  0  0  0  0  0
    2.2164    0.6427    1.1735 C   0  0  0  0  0  0  0  0  0  0  0  0
    2.8220    1.5206    1.4208 H   0  0  0  0  0  0  0  0  0  0  0  0
   -4.5170   -1.1403    0.3449 C   0  0  0  0  0  0  0  0  0  0  0  0
   -4.5912   -1.8670    1.1931 H   0  0  0  0  0  0  0  0  0  0  0  0
   -2.2751    0.8988    2.5554 C   0  0  0  0  0  0  0  0  0  0  0  0
   -3.3042    1.1806    2.2588 H   0  0  0  0  0  0  0  0  0  0  0  0
   -1.5881    1.5124    1.9372 H   0  0  0  0  0  0  0  0  0  0  0  0
   -2.0623   -0.5772    2.2056 C   0  0  0  0  0  0  0  0  0  0  0  0
   -1.0943   -0.9350    2.6117 H   0  0  0  0  0  0  0  0  0  0  0  0
   -2.8603   -1.2167    2.6330 H   0  0  0  0  0  0  0  0  0  0  0  0
  1 44  1  0  0  0  0
  2 26  1  0  0  0  0
  2 50  1  0  0  0  0
  4 18  1  0  0  0  0
  6  5  1  0  0  0  0
  7 25  1  0  0  0  0
  8 55  1  0  0  0  0
  9 41  1  0  0  0  0
  9 12  1  0  0  0  0
 10  9  1  0  0  0  0
 11  9  1  0  0  0  0
 13 48  1  0  0  0  0
 14 17  1  0  0  0  0
 14  3  1  0  0  0  0
 15 14  1  0  0  0  0
 16 14  1  0  0  0  0
 18 19  1  0  0  0  0
 18  1  1  0  0  0  0
 20 22  1  0  0  0  0
 20  4  1  0  0  0  0
 21 20  1  0  0  0  0
 23 20  1  0  0  0  0
 24  7  1  0  0  0  0
 24 13  1  6  0  0  0
 25 18  1  0  0  0  0
 25 48  2  0  0  0  0
 26 28  1  0  0  0  0
 26 29  1  0  0  0  0
 27 26  1  0  0  0  0
 30  5  1  6  0  0  0
 30 24  1  0  0  0  0
 30  8  1  0  0  0  0
 31  5  1  0  0  0  0
 31 33  2  0  0  0  0
 32 31  1  0  0  0  0
 33 50  1  0  0  0  0
 33  8  1  0  0  0  0
 34 36  1  0  0  0  0
 34 37  1  0  0  0  0
 34 35  1  0  0  0  0
 38 39  1  0  0  0  0
 38  7  1  0  0  0  0
 38 40  1  0  0  0  0
 41 38  1  0  0  0  0
 42 41  1  0  0  0  0
 43 41  1  0  0  0  0
 44 46  1  0  0  0  0
 44 47  1  0  0  0  0
 45 44  1  0  0  0  0
 48 49  1  0  0  0  0
 50  3  1  0  0  0  0
 50 51  1  0  0  0  0
 52 34  1  0  0  0  0
 53 52  1  0  0  0  0
 54 52  1  0  0  0  0
 55 52  1  0  0  0  0
 55 56  1  0  0  0  0
 55 57  1  0  0  0  0
M  END
