3
 OpenBabel05122313063D

 20 21  0  0  1  0  0  0  0  0999 V2000
   -1.9763   -0.7181   -1.3098 N   0  0  0  0  0  0  0  0  0  0  0  0
   -3.3959    1.6942   -1.5875 N   0  0  0  0  0  0  0  0  0  0  0  0
   -2.0000   -1.9431    1.2056 N   0  0  0  0  0  2  0  0  0  0  0  0
   -2.0700    2.7684   -4.6179 N   0  0  0  0  0  0  0  0  0  0  0  0
   -1.7697    0.0847   -2.3559 C   0  0  0  0  0  0  0  0  0  0  0  0
   -1.0125   -0.2180   -3.0958 H   0  0  0  0  0  0  0  0  0  0  0  0
   -2.4915    1.2934   -2.5042 C   0  0  0  0  0  0  0  0  0  0  0  0
   -3.5747    0.8949   -0.5362 C   0  0  0  0  0  0  0  0  0  0  0  0
   -4.2722    1.2495    0.2409 H   0  0  0  0  0  0  0  0  0  0  0  0
   -2.8747   -0.3258   -0.3838 C   0  0  0  0  0  0  0  0  0  0  0  0
   -3.0602   -1.1966    0.8071 C   0  0  2  0  0  3  0  0  0  0  0  0
   -4.2861   -1.2377    1.5003 C   0  0  0  0  0  0  0  0  0  0  0  0
   -5.1412   -0.6493    1.1401 H   0  0  0  0  0  0  0  0  0  0  0  0
   -4.4095   -2.0514    2.6328 C   0  0  0  0  0  0  0  0  0  0  0  0
   -5.3596   -2.0943    3.1856 H   0  0  0  0  0  0  0  0  0  0  0  0
   -3.3060   -2.8121    3.0408 C   0  0  0  0  0  0  0  0  0  0  0  0
   -3.3516   -3.4649    3.9242 H   0  0  0  0  0  0  0  0  0  0  0  0
   -2.1253   -2.7279    2.2895 C   0  0  0  0  0  0  0  0  0  0  0  0
   -1.2341   -3.3107    2.5724 H   0  0  0  0  0  0  0  0  0  0  0  0
   -2.2699    2.1271   -3.6564 C   0  0  0  0  0  0  0  0  0  0  0  0
  1 10  1  0  0  0  0
  2  8  1  0  0  0  0
  3 18  1  0  0  0  0
  4 20  3  0  0  0  0
  5  1  2  0  0  0  0
  6  5  1  0  0  0  0
  7  5  1  0  0  0  0
  7  2  2  0  0  0  0
  8 10  2  0  0  0  0
  8  9  1  0  0  0  0
 11 10  1  1  0  0  0
 11  3  1  0  0  0  0
 11 12  1  0  0  0  0
 12 14  2  0  0  0  0
 13 12  1  0  0  0  0
 14 16  1  0  0  0  0
 14 15  1  0  0  0  0
 16 17  1  0  0  0  0
 18 19  1  0  0  0  0
 18 16  2  0  0  0  0
 20  7  1  0  0  0  0
M  END
