1
 OpenBabel05122313063D

 20 21  0  0  1  0  0  0  0  0999 V2000
    0.8976    0.0001   -0.0000 N   0  0  2  0  0  0  0  0  0  0  0  0
    3.4865   -0.0000    0.0001 N   0  0  1  0  0  0  0  0  0  0  0  0
    1.4301    0.1705   -1.3916 C   0  0  0  0  0  0  0  0  0  0  0  0
    1.0186    1.1159   -1.7910 H   0  0  0  0  0  0  0  0  0  0  0  0
    1.0191   -0.6512   -2.0070 H   0  0  0  0  0  0  0  0  0  0  0  0
    2.9897    0.1680   -1.3664 C   0  0  0  0  0  0  0  0  0  0  0  0
    3.3925   -0.6548   -1.9916 H   0  0  0  0  0  0  0  0  0  0  0  0
    3.3919    1.1181   -1.7734 H   0  0  0  0  0  0  0  0  0  0  0  0
    1.4300    1.1201    0.8434 C   0  0  0  0  0  0  0  0  0  0  0  0
    1.0182    0.9934    1.8617 H   0  0  0  0  0  0  0  0  0  0  0  0
    1.0195    2.0640    0.4394 H   0  0  0  0  0  0  0  0  0  0  0  0
    2.9896    1.0993    0.8289 C   0  0  0  0  0  0  0  0  0  0  0  0
    3.3926    2.0521    0.4292 H   0  0  0  0  0  0  0  0  0  0  0  0
    3.3916    0.9765    1.8552 H   0  0  0  0  0  0  0  0  0  0  0  0
    1.4300   -1.2902    0.5483 C   0  0  0  0  0  0  0  0  0  0  0  0
    1.0181   -2.1088   -0.0705 H   0  0  0  0  0  0  0  0  0  0  0  0
    1.0193   -1.4121    1.5677 H   0  0  0  0  0  0  0  0  0  0  0  0
    2.9895   -1.2674    0.5376 C   0  0  0  0  0  0  0  0  0  0  0  0
    3.3925   -1.3979    1.5627 H   0  0  0  0  0  0  0  0  0  0  0  0
    3.3915   -2.0949   -0.0819 H   0  0  0  0  0  0  0  0  0  0  0  0
  1  3  1  6  0  0  0
  1 15  1  0  0  0  0
  1  9  1  0  0  0  0
  2  6  1  6  0  0  0
  2 18  1  0  0  0  0
  2 12  1  0  0  0  0
  3  6  1  0  0  0  0
  4  3  1  0  0  0  0
  5  3  1  0  0  0  0
  7  6  1  0  0  0  0
  8  6  1  0  0  0  0
  9 10  1  0  0  0  0
 11  9  1  0  0  0  0
 12  9  1  0  0  0  0
 12 14  1  0  0  0  0
 13 12  1  0  0  0  0
 15 17  1  0  0  0  0
 16 15  1  0  0  0  0
 18 15  1  0  0  0  0
 18 19  1  0  0  0  0
 20 18  1  0  0  0  0
M  END
