1
 OpenBabel05122313063D

 30 31  0  0  0  0  0  0  0  0999 V2000
   -0.5794    1.8900   -0.8379 N   0  0  0  0  0  2  0  0  0  0  0  0
   -0.0981    2.9133   -1.5839 C   0  0  0  0  0  3  0  0  0  0  0  0
   -0.7262    4.1584   -1.6394 C   0  0  0  0  0  0  0  0  0  0  0  0
   -1.9075    4.3477   -0.9083 C   0  0  0  0  0  0  0  0  0  0  0  0
   -2.4154    3.2776   -0.1640 C   0  0  0  0  0  0  0  0  0  0  0  0
   -1.7413    2.0410   -0.1403 C   0  0  0  0  0  0  0  0  0  0  0  0
   -2.3153    0.8749    0.5990 C   0  0  0  0  0  0  0  0  0  0  0  0
   -2.2047    0.7644    2.0089 C   0  0  0  0  0  0  0  0  0  0  0  0
   -2.7467   -0.3737    2.6413 C   0  0  0  0  0  0  0  0  0  0  0  0
   -3.4523   -1.3580    1.9317 C   0  0  0  0  0  0  0  0  0  0  0  0
   -3.6494   -1.1586    0.5506 C   0  0  0  0  0  0  0  0  0  0  0  0
   -3.1050   -0.0614   -0.1344 C   0  0  0  0  0  0  0  0  0  0  0  0
   -1.6161    1.8505    2.8814 C   0  0  0  0  0  0  0  0  0  0  0  0
   -4.0004   -2.5818    2.6168 C   0  0  0  0  0  0  0  0  0  0  0  0
   -3.4298    0.1632   -1.5872 C   0  0  0  0  0  0  0  0  0  0  0  0
    0.8148    2.7033   -2.1591 H   0  0  0  0  0  0  0  0  0  0  0  0
   -0.2942    4.9570   -2.2582 H   0  0  0  0  0  0  0  0  0  0  0  0
   -2.4347    5.3131   -0.9305 H   0  0  0  0  0  0  0  0  0  0  0  0
   -3.3515    3.3712    0.4044 H   0  0  0  0  0  0  0  0  0  0  0  0
   -2.6425   -0.4710    3.7342 H   0  0  0  0  0  0  0  0  0  0  0  0
   -4.2684   -1.8740   -0.0142 H   0  0  0  0  0  0  0  0  0  0  0  0
   -1.2452    2.7187    2.3063 H   0  0  0  0  0  0  0  0  0  0  0  0
   -0.7895    1.4735    3.5182 H   0  0  0  0  0  0  0  0  0  0  0  0
   -2.3910    2.2325    3.5776 H   0  0  0  0  0  0  0  0  0  0  0  0
   -3.4090   -3.4833    2.3466 H   0  0  0  0  0  0  0  0  0  0  0  0
   -5.0456   -2.7846    2.3089 H   0  0  0  0  0  0  0  0  0  0  0  0
   -3.9763   -2.4848    3.7188 H   0  0  0  0  0  0  0  0  0  0  0  0
   -4.0774   -0.6438   -1.9775 H   0  0  0  0  0  0  0  0  0  0  0  0
   -2.5221    0.2143   -2.2234 H   0  0  0  0  0  0  0  0  0  0  0  0
   -3.9693    1.1237   -1.7248 H   0  0  0  0  0  0  0  0  0  0  0  0
  1  6  1  0  0  0  0
  2  1  1  0  0  0  0
  3  2  1  0  0  0  0
  3  4  2  0  0  0  0
  4  5  1  0  0  0  0
  5  6  2  0  0  0  0
  5 19  1  0  0  0  0
  6  7  1  0  0  0  0
  7  8  1  0  0  0  0
  8  9  2  0  0  0  0
  8 13  1  0  0  0  0
  9 20  1  0  0  0  0
 10 14  1  0  0  0  0
 10  9  1  0  0  0  0
 11 10  2  0  0  0  0
 12 11  1  0  0  0  0
 12  7  2  0  0  0  0
 13 23  1  0  0  0  0
 13 24  1  0  0  0  0
 14 27  1  0  0  0  0
 15 12  1  0  0  0  0
 16  2  1  0  0  0  0
 17  3  1  0  0  0  0
 18  4  1  0  0  0  0
 21 11  1  0  0  0  0
 22 13  1  0  0  0  0
 25 14  1  0  0  0  0
 26 14  1  0  0  0  0
 28 15  1  0  0  0  0
 29 15  1  0  0  0  0
 30 15  1  0  0  0  0
M  END
