5
 OpenBabel05122313063D

 22 23  0  0  0  0  0  0  0  0999 V2000
   -1.9645    3.7683    0.0964 S   0  0  0  0  0  0  0  0  0  0  0  0
   -1.5336   -0.4337   -0.0470 S   0  0  0  0  0  0  0  0  0  0  0  0
   -0.7642   -0.8335    1.1817 O   0  0  0  0  0  0  0  0  0  0  0  0
   -0.8453   -0.6882   -1.3525 O   0  0  0  0  0  0  0  0  0  0  0  0
    0.1011    2.2064    0.0013 N   0  0  0  0  0  2  0  0  0  0  0  0
   -2.0951    1.1047    0.0677 N   0  0  0  0  0  0  0  0  0  0  0  0
   -1.2641    2.1324    0.0496 C   0  0  0  0  0  0  0  0  0  0  0  0
    0.5826    3.5105    0.0010 C   0  0  0  0  0  0  0  0  0  0  0  0
   -0.3711    4.4839    0.0502 C   0  0  0  0  0  0  0  0  0  0  0  0
   -3.0712   -1.3481   -0.0405 C   0  0  0  0  0  0  0  0  0  0  0  0
   -3.6651   -1.6696    1.1883 C   0  0  0  0  0  0  0  0  0  0  0  0
   -4.8690   -2.3879    1.1829 C   0  0  0  0  0  0  0  0  0  0  0  0
   -5.4541   -2.7759   -0.0346 C   0  0  0  0  0  0  0  0  0  0  0  0
   -4.8368   -2.4527   -1.2542 C   0  0  0  0  0  0  0  0  0  0  0  0
   -3.6327   -1.7331   -1.2652 C   0  0  0  0  0  0  0  0  0  0  0  0
    1.6667    3.6813   -0.0352 H   0  0  0  0  0  0  0  0  0  0  0  0
   -0.2279    5.5695    0.0629 H   0  0  0  0  0  0  0  0  0  0  0  0
   -3.1762   -1.3649    2.1246 H   0  0  0  0  0  0  0  0  0  0  0  0
   -5.3519   -2.6506    2.1361 H   0  0  0  0  0  0  0  0  0  0  0  0
   -6.3986   -3.3408   -0.0320 H   0  0  0  0  0  0  0  0  0  0  0  0
   -5.2939   -2.7656   -2.2050 H   0  0  0  0  0  0  0  0  0  0  0  0
   -3.1173   -1.4734   -2.2008 H   0  0  0  0  0  0  0  0  0  0  0  0
  2 10  1  0  0  0  0
  2  6  1  0  0  0  0
  2  3  2  0  0  0  0
  4  2  2  0  0  0  0
  5  7  1  0  0  0  0
  7  6  2  0  0  0  0
  7  1  1  0  0  0  0
  8  5  1  0  0  0  0
  8  9  2  0  0  0  0
  9 17  1  0  0  0  0
  9  1  1  0  0  0  0
 10 11  1  0  0  0  0
 11 18  1  0  0  0  0
 12 11  2  0  0  0  0
 12 19  1  0  0  0  0
 13 20  1  0  0  0  0
 13 12  1  0  0  0  0
 14 13  2  0  0  0  0
 15 14  1  0  0  0  0
 15 10  2  0  0  0  0
 16  8  1  0  0  0  0
 21 14  1  0  0  0  0
 22 15  1  0  0  0  0
M  END
