5
 OpenBabel05122313063D

 21 22  0  0  0  0  0  0  0  0999 V2000
   -2.1139    0.2495   -0.7182 N   0  0  0  0  0  0  0  0  0  0  0  0
   -3.5192    0.2689   -0.4981 C   0  0  0  0  0  0  0  0  0  0  0  0
   -7.6341    0.4271    0.0863 O   0  0  0  0  0  0  0  0  0  0  0  0
   -1.5646    0.6521   -1.9033 N   0  0  0  0  0  0  0  0  0  0  0  0
    0.0180    0.0112   -0.5701 N   0  0  0  0  0  2  0  0  0  0  0  0
   -6.2903    0.3251   -0.0543 C   0  0  0  0  0  0  0  0  0  0  0  0
   -4.3307    1.1297   -1.2627 C   0  0  0  0  0  0  0  0  0  0  0  0
   -3.8678    1.7712   -2.0244 H   0  0  0  0  0  0  0  0  0  0  0  0
   -4.0865   -0.5664    0.4754 C   0  0  0  0  0  0  0  0  0  0  0  0
   -3.4570   -1.2603    1.0507 H   0  0  0  0  0  0  0  0  0  0  0  0
   -0.2851    0.5048   -1.7953 N   0  0  0  0  0  0  0  0  0  0  0  0
   -5.4687   -0.5360    0.7047 C   0  0  0  0  0  0  0  0  0  0  0  0
   -5.8939   -1.1981    1.4697 H   0  0  0  0  0  0  0  0  0  0  0  0
   -5.7056    1.1515   -1.0422 C   0  0  0  0  0  0  0  0  0  0  0  0
   -6.3628    1.8140   -1.6230 H   0  0  0  0  0  0  0  0  0  0  0  0
   -1.1196   -0.1441    0.1080 C   0  0  0  0  0  3  0  0  0  0  0  0
   -8.2773   -0.3725    1.0646 C   0  0  0  0  0  0  0  0  0  0  0  0
   -9.3533   -0.1258    1.0099 H   0  0  0  0  0  0  0  0  0  0  0  0
   -8.1439   -1.4585    0.8623 H   0  0  0  0  0  0  0  0  0  0  0  0
   -7.9055   -0.1490    2.0892 H   0  0  0  0  0  0  0  0  0  0  0  0
   -1.1828   -0.4954    1.1419 H   0  0  0  0  0  0  0  0  0  0  0  0
  1  2  1  0  0  0  0
  1 16  1  0  0  0  0
  2  9  1  0  0  0  0
  3 17  1  0  0  0  0
  4 11  2  0  0  0  0
  4  1  1  0  0  0  0
  5 16  1  0  0  0  0
  6  3  1  0  0  0  0
  6 12  1  0  0  0  0
  7 14  1  0  0  0  0
  7  2  2  0  0  0  0
  8  7  1  0  0  0  0
  9 12  2  0  0  0  0
  9 10  1  0  0  0  0
 11  5  1  0  0  0  0
 12 13  1  0  0  0  0
 14  6  2  0  0  0  0
 15 14  1  0  0  0  0
 16 21  1  0  0  0  0
 17 20  1  0  0  0  0
 18 17  1  0  0  0  0
 19 17  1  0  0  0  0
M  END
