1
 OpenBabel05122313063D

 13 13  0  0  0  0  0  0  0  0999 V2000
    1.8701    0.1963   -0.0035 N   0  0  0  0  0  2  0  0  0  0  0  0
    2.3355    1.4673    0.0278 C   0  0  0  0  0  3  0  0  0  0  0  0
    1.5746    2.2628    0.0538 H   0  0  0  0  0  0  0  0  0  0  0  0
    3.6896    1.7941    0.0311 C   0  0  0  0  0  0  0  0  0  0  0  0
    3.9975    2.8505    0.0574 H   0  0  0  0  0  0  0  0  0  0  0  0
    4.6578    0.7579   -0.0019 C   0  0  0  0  0  0  0  0  0  0  0  0
    4.1627   -0.5714   -0.0343 C   0  0  0  0  0  0  0  0  0  0  0  0
    4.8561   -1.4261   -0.0599 H   0  0  0  0  0  0  0  0  0  0  0  0
    2.7915   -0.8031   -0.0334 C   0  0  0  0  0  0  0  0  0  0  0  0
    2.3560   -1.8210   -0.0519 H   0  0  0  0  0  0  0  0  0  0  0  0
    5.9991    1.0265   -0.0306 N   0  0  0  0  0  0  0  0  0  0  0  0
    6.3292    1.9686    0.1675 H   0  0  0  0  0  0  0  0  0  0  0  0
    6.6641    0.2696    0.1145 H   0  0  0  0  0  0  0  0  0  0  0  0
  1  2  1  0  0  0  0
  2  4  1  0  0  0  0
  2  3  1  0  0  0  0
  4  5  1  0  0  0  0
  6  4  2  0  0  0  0
  7  9  2  0  0  0  0
  7  6  1  0  0  0  0
  8  7  1  0  0  0  0
  9  1  1  0  0  0  0
 10  9  1  0  0  0  0
 11  6  1  0  0  0  0
 11 13  1  0  0  0  0
 11 12  1  0  0  0  0
M  END
