1
 OpenBabel05122313063D

 17 17  0  0  1  0  0  0  0  0999 V2000
    0.0004    1.4877   -0.0001 N   0  0  0  0  0  2  0  0  0  0  0  0
    0.4680    2.1582   -1.0900 C   0  0  2  0  0  3  0  0  0  0  0  0
    1.0267    1.3574   -2.2255 C   0  0  0  0  0  0  0  0  0  0  0  0
    0.4604    3.5630   -1.1135 C   0  0  0  0  0  0  0  0  0  0  0  0
    0.0012    4.2737   -0.0002 C   0  0  0  0  0  0  0  0  0  0  0  0
   -0.4584    3.5634    1.1131 C   0  0  0  0  0  0  0  0  0  0  0  0
   -0.4669    2.1586    1.0897 C   0  0  0  0  0  0  0  0  0  0  0  0
   -1.0260    1.3583    2.2254 C   0  0  0  0  0  0  0  0  0  0  0  0
    1.1748    1.9864   -3.1227 H   0  0  0  0  0  0  0  0  0  0  0  0
    2.0103    0.9347   -1.9290 H   0  0  0  0  0  0  0  0  0  0  0  0
    0.3689    0.4990   -2.4702 H   0  0  0  0  0  0  0  0  0  0  0  0
    0.8401    4.0819   -2.0043 H   0  0  0  0  0  0  0  0  0  0  0  0
    0.0016    5.3741   -0.0003 H   0  0  0  0  0  0  0  0  0  0  0  0
   -0.8379    4.0825    2.0039 H   0  0  0  0  0  0  0  0  0  0  0  0
   -2.0099    0.9362    1.9288 H   0  0  0  0  0  0  0  0  0  0  0  0
   -1.1738    1.9875    3.1224 H   0  0  0  0  0  0  0  0  0  0  0  0
   -0.3688    0.4995    2.4701 H   0  0  0  0  0  0  0  0  0  0  0  0
  1  7  1  0  0  0  0
  2  3  1  1  0  0  0
  2  1  1  0  0  0  0
  3 10  1  0  0  0  0
  4  2  1  0  0  0  0
  4  5  2  0  0  0  0
  5  6  1  0  0  0  0
  6 14  1  0  0  0  0
  7  6  2  0  0  0  0
  7  8  1  0  0  0  0
  8 17  1  0  0  0  0
  8 16  1  0  0  0  0
  9  3  1  0  0  0  0
 11  3  1  0  0  0  0
 12  4  1  0  0  0  0
 13  5  1  0  0  0  0
 15  8  1  0  0  0  0
M  END
