1
 OpenBabel05122313063D

 11 11  0  0  0  0  0  0  0  0999 V2000
   -1.4595    0.0200    0.1542 N   0  0  0  0  0  2  0  0  0  0  0  0
   -2.4615    0.8071   -0.3840 C   0  0  0  0  0  0  0  0  0  0  0  0
   -2.3598    2.0378   -0.5510 O   0  0  0  0  0  0  0  0  0  0  0  0
   -3.6299    0.1478   -0.7406 N   0  0  0  0  0  0  0  0  0  0  0  0
   -4.3685    0.7334   -1.1414 H   0  0  0  0  0  0  0  0  0  0  0  0
   -3.9285   -1.2357   -0.6291 C   0  0  0  0  0  0  0  0  0  0  0  0
   -5.0211   -1.6663   -0.9901 O   0  0  0  0  0  0  0  0  0  0  0  0
   -2.8167   -1.9861   -0.0659 C   0  0  0  0  0  0  0  0  0  0  0  0
   -2.9310   -3.0695    0.0600 H   0  0  0  0  0  0  0  0  0  0  0  0
   -1.6631   -1.3309    0.2857 C   0  0  0  0  0  0  0  0  0  0  0  0
   -0.8080   -1.8873    0.7090 H   0  0  0  0  0  0  0  0  0  0  0  0
  1 10  1  0  0  0  0
  2  1  1  0  0  0  0
  3  2  2  0  0  0  0
  4  6  1  0  0  0  0
  4  2  1  0  0  0  0
  5  4  1  0  0  0  0
  6  8  1  0  0  0  0
  7  6  2  0  0  0  0
  8  9  1  0  0  0  0
  8 10  2  0  0  0  0
 10 11  1  0  0  0  0
M  END
