3
 OpenBabel05122313063D

 15 16  0  0  0  0  0  0  0  0999 V2000
    2.9501    0.7730    2.2712 C   0  0  0  0  0  0  0  0  0  0  0  0
    2.0027    1.2375    1.3386 C   0  0  0  0  0  3  0  0  0  0  0  0
    1.6029    0.5030    0.2786 N   0  0  0  0  0  2  0  0  0  0  0  0
    2.1748   -0.7043    0.1284 C   0  0  0  0  0  0  0  0  0  0  0  0
    3.1473   -1.2766    1.0198 C   0  0  0  0  0  0  0  0  0  0  0  0
    3.5282   -0.4963    2.1277 C   0  0  0  0  0  0  0  0  0  0  0  0
    3.4837   -2.5618    0.4734 C   0  0  0  0  0  0  0  0  0  0  0  0
    2.7391   -2.7056   -0.6873 C   0  0  0  0  0  0  0  0  0  0  0  0
    1.9462   -1.5903   -0.8878 N   0  0  0  0  0  0  0  0  0  0  0  0
    3.2275    1.4242    3.1119 H   0  0  0  0  0  0  0  0  0  0  0  0
    1.5419    2.2369    1.4102 H   0  0  0  0  0  0  0  0  0  0  0  0
    4.2660   -0.8657    2.8562 H   0  0  0  0  0  0  0  0  0  0  0  0
    4.1921   -3.2906    0.8804 H   0  0  0  0  0  0  0  0  0  0  0  0
    2.7148   -3.5341   -1.4041 H   0  0  0  0  0  0  0  0  0  0  0  0
    1.3475   -1.3532   -1.7031 H   0  0  0  0  0  0  0  0  0  0  0  0
  1 10  1  0  0  0  0
  2 11  1  0  0  0  0
  2  1  1  0  0  0  0
  3  2  1  0  0  0  0
  4  3  1  0  0  0  0
  4  5  2  0  0  0  0
  5  6  1  0  0  0  0
  6  1  2  0  0  0  0
  6 12  1  0  0  0  0
  7 13  1  0  0  0  0
  7  5  1  0  0  0  0
  8  7  2  0  0  0  0
  9  8  1  0  0  0  0
  9  4  1  0  0  0  0
 14  8  1  0  0  0  0
 15  9  1  0  0  0  0
M  END
