1
 OpenBabel05122313063D

 20 20  0  0  0  0  0  0  0  0999 V2000
   -1.4540   -0.0555   -0.7549 N   0  0  0  0  0  2  0  0  0  0  0  0
   -1.3011   -1.0335   -1.6978 N   0  0  0  0  0  0  0  0  0  0  0  0
   -2.7079   -0.0596   -0.3154 C   0  0  0  0  0  3  0  0  0  0  0  0
   -2.4805   -1.6157   -1.8099 C   0  0  0  0  0  0  0  0  0  0  0  0
   -3.3997   -1.0372   -0.9599 N   0  0  0  0  0  0  0  0  0  0  0  0
   -3.1314    0.5963    0.4597 H   0  0  0  0  0  0  0  0  0  0  0  0
   -2.7070   -2.4452   -2.4865 H   0  0  0  0  0  0  0  0  0  0  0  0
   -4.8331   -1.3770   -0.6979 C   0  0  0  0  0  0  0  0  0  0  0  0
   -5.2657   -2.4802   -1.6697 C   0  0  0  0  0  0  0  0  0  0  0  0
   -4.9443   -1.8589    0.7595 C   0  0  0  0  0  0  0  0  0  0  0  0
   -5.6721   -0.1059   -0.9150 C   0  0  0  0  0  0  0  0  0  0  0  0
   -4.6820   -3.4107   -1.5228 H   0  0  0  0  0  0  0  0  0  0  0  0
   -6.3298   -2.7222   -1.4866 H   0  0  0  0  0  0  0  0  0  0  0  0
   -5.1704   -2.1574   -2.7256 H   0  0  0  0  0  0  0  0  0  0  0  0
   -5.9945   -2.1306    0.9833 H   0  0  0  0  0  0  0  0  0  0  0  0
   -4.6379   -1.0648    1.4701 H   0  0  0  0  0  0  0  0  0  0  0  0
   -4.3091   -2.7506    0.9306 H   0  0  0  0  0  0  0  0  0  0  0  0
   -6.7434   -0.3384   -0.7577 H   0  0  0  0  0  0  0  0  0  0  0  0
   -5.5467    0.2820   -1.9453 H   0  0  0  0  0  0  0  0  0  0  0  0
   -5.3924    0.6913   -0.1976 H   0  0  0  0  0  0  0  0  0  0  0  0
  1  3  1  0  0  0  0
  2  1  1  0  0  0  0
  3  6  1  0  0  0  0
  4  2  2  0  0  0  0
  4  5  1  0  0  0  0
  5  8  1  0  0  0  0
  5  3  1  0  0  0  0
  7  4  1  0  0  0  0
  8 10  1  0  0  0  0
  9 12  1  0  0  0  0
  9 13  1  0  0  0  0
  9  8  1  0  0  0  0
 10 17  1  0  0  0  0
 10 15  1  0  0  0  0
 10 16  1  0  0  0  0
 11 18  1  0  0  0  0
 11  8  1  0  0  0  0
 11 20  1  0  0  0  0
 14  9  1  0  0  0  0
 19 11  1  0  0  0  0
M  END
