1
 OpenBabel05122313063D

 23 23  0  0  0  0  0  0  0  0999 V2000
   -1.4370    1.0591   -0.8558 N   0  0  0  0  0  2  0  0  0  0  0  0
   -5.4503   -1.4425   -0.1716 N   0  0  0  0  0  0  0  0  0  0  0  0
   -6.5073   -1.8264    0.5443 N   0  0  0  0  0  0  0  0  0  0  0  0
   -6.7741   -1.3925    1.4386 H   0  0  0  0  0  0  0  0  0  0  0  0
   -6.9979   -3.4530   -1.0448 N   0  0  0  0  0  0  0  0  0  0  0  0
   -7.5358   -4.2499   -1.3748 H   0  0  0  0  0  0  0  0  0  0  0  0
   -6.1400   -3.1548   -1.5087 H   0  0  0  0  0  0  0  0  0  0  0  0
   -8.3207   -3.1866    0.8325 O   0  0  0  0  0  0  0  0  0  0  0  0
   -2.4924    0.7018   -0.1035 C   0  0  0  0  0  3  0  0  0  0  0  0
   -2.4760    1.1140    0.9197 H   0  0  0  0  0  0  0  0  0  0  0  0
   -3.5364   -0.1114   -0.5900 C   0  0  0  0  0  0  0  0  0  0  0  0
   -3.4208   -0.5582   -1.9289 C   0  0  0  0  0  0  0  0  0  0  0  0
   -4.2192   -1.1871   -2.3479 H   0  0  0  0  0  0  0  0  0  0  0  0
   -2.3208   -0.1777   -2.7011 C   0  0  0  0  0  0  0  0  0  0  0  0
   -2.2262   -0.5008   -3.7479 H   0  0  0  0  0  0  0  0  0  0  0  0
   -1.3394    0.6481   -2.1329 C   0  0  0  0  0  0  0  0  0  0  0  0
   -0.4637    1.0283   -2.6863 H   0  0  0  0  0  0  0  0  0  0  0  0
   -4.6880   -0.4712    0.2603 C   0  0  0  0  0  0  0  0  0  0  0  0
   -4.9595    0.2506    1.5560 C   0  0  0  0  0  0  0  0  0  0  0  0
   -6.0177    0.5895    1.5970 H   0  0  0  0  0  0  0  0  0  0  0  0
   -4.3295    1.1469    1.6895 H   0  0  0  0  0  0  0  0  0  0  0  0
   -4.7934   -0.4126    2.4334 H   0  0  0  0  0  0  0  0  0  0  0  0
   -7.3613   -2.8805    0.1360 C   0  0  0  0  0  0  0  0  0  0  0  0
  1  9  1  0  0  0  0
  2 18  2  0  0  0  0
  2  3  1  0  0  0  0
  3  4  1  0  0  0  0
  5 23  1  0  0  0  0
  6  5  1  0  0  0  0
  7  5  1  0  0  0  0
  9 10  1  0  0  0  0
 11  9  1  0  0  0  0
 11 18  1  0  0  0  0
 12 11  2  0  0  0  0
 13 12  1  0  0  0  0
 14 16  2  0  0  0  0
 14 12  1  0  0  0  0
 15 14  1  0  0  0  0
 16  1  1  0  0  0  0
 17 16  1  0  0  0  0
 18 19  1  0  0  0  0
 19 20  1  0  0  0  0
 19 21  1  0  0  0  0
 19 22  1  0  0  0  0
 23  3  1  0  0  0  0
 23  8  2  0  0  0  0
M  END
