1
 OpenBabel05122313063D

 26 27  0  0  0  0  0  0  0  0999 V2000
   -0.3802    0.7153   -0.1469 N   0  0  0  0  0  2  0  0  0  0  0  0
    0.8529    1.0574   -0.0412 N   0  0  0  0  0  2  0  0  0  0  0  0
    1.7185    0.0852    0.0183 N   0  0  0  0  0  0  0  0  0  0  0  0
    1.3825   -0.8780   -0.2356 H   0  0  0  0  0  0  0  0  0  0  0  0
   -1.2900    1.8051   -0.2613 C   0  0  0  0  0  0  0  0  0  0  0  0
   -2.5505    1.5497   -0.8382 C   0  0  0  0  0  0  0  0  0  0  0  0
   -2.7741    0.5328   -1.1985 H   0  0  0  0  0  0  0  0  0  0  0  0
   -3.4871    2.5841   -0.9615 C   0  0  0  0  0  0  0  0  0  0  0  0
   -4.4662    2.3763   -1.4182 H   0  0  0  0  0  0  0  0  0  0  0  0
   -3.1773    3.8763   -0.5095 C   0  0  0  0  0  0  0  0  0  0  0  0
   -3.9158    4.6866   -0.6004 H   0  0  0  0  0  0  0  0  0  0  0  0
   -1.9189    4.1285    0.0647 C   0  0  0  0  0  0  0  0  0  0  0  0
   -1.6732    5.1374    0.4294 H   0  0  0  0  0  0  0  0  0  0  0  0
   -0.9738    3.1045    0.1899 C   0  0  0  0  0  0  0  0  0  0  0  0
    0.0075    3.2917    0.6454 H   0  0  0  0  0  0  0  0  0  0  0  0
    3.0985    0.3203    0.1137 C   0  0  0  0  0  0  0  0  0  0  0  0
    3.6257    1.6028    0.3676 C   0  0  0  0  0  0  0  0  0  0  0  0
    2.9429    2.4539    0.4891 H   0  0  0  0  0  0  0  0  0  0  0  0
    5.0129    1.7636    0.4570 C   0  0  0  0  0  0  0  0  0  0  0  0
    5.4264    2.7640    0.6550 H   0  0  0  0  0  0  0  0  0  0  0  0
    5.8765    0.6653    0.3004 C   0  0  0  0  0  0  0  0  0  0  0  0
    6.9651    0.8027    0.3758 H   0  0  0  0  0  0  0  0  0  0  0  0
    5.3411   -0.6080    0.0474 C   0  0  0  0  0  0  0  0  0  0  0  0
    6.0079   -1.4735   -0.0813 H   0  0  0  0  0  0  0  0  0  0  0  0
    3.9559   -0.7878   -0.0475 C   0  0  0  0  0  0  0  0  0  0  0  0
    3.5273   -1.7794   -0.2592 H   0  0  0  0  0  0  0  0  0  0  0  0
  1  2  1  0  0  0  0
  2  3  1  0  0  0  0
  3 16  1  0  0  0  0
  4  3  1  0  0  0  0
  5  1  1  0  0  0  0
  5 14  1  0  0  0  0
  6  5  2  0  0  0  0
  7  6  1  0  0  0  0
  8  6  1  0  0  0  0
  8 10  2  0  0  0  0
  9  8  1  0  0  0  0
 10 12  1  0  0  0  0
 11 10  1  0  0  0  0
 12 14  2  0  0  0  0
 12 13  1  0  0  0  0
 14 15  1  0  0  0  0
 16 17  1  0  0  0  0
 17 19  2  0  0  0  0
 17 18  1  0  0  0  0
 19 20  1  0  0  0  0
 21 22  1  0  0  0  0
 21 19  1  0  0  0  0
 23 21  2  0  0  0  0
 24 23  1  0  0  0  0
 25 23  1  0  0  0  0
 25 16  2  0  0  0  0
 26 25  1  0  0  0  0
M  END
