1
 OpenBabel05122313063D

 23 24  0  0  0  0  0  0  0  0999 V2000
    1.6846    0.8716   -1.3617 N   0  0  0  0  0  2  0  0  0  0  0  0
   -0.7337   -0.6225   -1.3919 N   0  0  0  0  0  0  0  0  0  0  0  0
    3.6597    0.3141   -2.1564 N   0  0  0  0  0  0  0  0  0  0  0  0
    4.6638    0.3462   -2.3380 H   0  0  0  0  0  0  0  0  0  0  0  0
   -3.4102    0.4581   -1.4341 O   0  0  0  0  0  0  0  0  0  0  0  0
    2.9461    1.2483   -1.4571 C   0  0  0  0  0  3  0  0  0  0  0  0
    3.3727    2.1461   -0.9935 H   0  0  0  0  0  0  0  0  0  0  0  0
    0.3186   -1.0932   -1.9817 C   0  0  0  0  0  0  0  0  0  0  0  0
    0.3314   -2.0981   -2.4588 H   0  0  0  0  0  0  0  0  0  0  0  0
    1.5623   -0.3473   -2.0027 C   0  0  0  0  0  0  0  0  0  0  0  0
   -1.8558   -1.4252   -1.1705 C   0  0  0  0  0  0  0  0  0  0  0  0
   -3.1569   -0.8243   -1.1564 C   0  0  0  0  0  0  0  0  0  0  0  0
    2.8083   -0.7095   -2.5115 C   0  0  0  0  0  0  0  0  0  0  0  0
    3.1457   -1.5974   -3.0538 H   0  0  0  0  0  0  0  0  0  0  0  0
   -4.2727   -1.6392   -0.8499 C   0  0  0  0  0  0  0  0  0  0  0  0
   -5.2611   -1.1563   -0.8657 H   0  0  0  0  0  0  0  0  0  0  0  0
   -1.7394   -2.8038   -0.8626 C   0  0  0  0  0  0  0  0  0  0  0  0
   -0.7316   -3.2446   -0.8382 H   0  0  0  0  0  0  0  0  0  0  0  0
   -2.8520   -3.5870   -0.5423 C   0  0  0  0  0  0  0  0  0  0  0  0
   -2.7249   -4.6486   -0.2839 H   0  0  0  0  0  0  0  0  0  0  0  0
   -4.1286   -2.9948   -0.5423 C   0  0  0  0  0  0  0  0  0  0  0  0
   -5.0182   -3.5953   -0.2976 H   0  0  0  0  0  0  0  0  0  0  0  0
   -2.6054    1.0561   -1.5428 H   0  0  0  0  0  0  0  0  0  0  0  0
  2 11  1  0  0  0  0
  3  6  1  0  0  0  0
  4  3  1  0  0  0  0
  5 12  1  0  0  0  0
  6  1  1  0  0  0  0
  6  7  1  0  0  0  0
  8  2  2  0  0  0  0
  9  8  1  0  0  0  0
 10  8  1  0  0  0  0
 10  1  1  0  0  0  0
 11 12  2  0  0  0  0
 11 17  1  0  0  0  0
 12 15  1  0  0  0  0
 13  3  1  0  0  0  0
 13 10  2  0  0  0  0
 14 13  1  0  0  0  0
 15 21  2  0  0  0  0
 16 15  1  0  0  0  0
 17 18  1  0  0  0  0
 17 19  2  0  0  0  0
 19 20  1  0  0  0  0
 21 19  1  0  0  0  0
 21 22  1  0  0  0  0
 23  5  1  0  0  0  0
M  END
