3
 OpenBabel05122313063D

 14 15  0  0  0  0  0  0  0  0999 V2000
    2.8213    0.1342   -2.3582 N   0  0  0  0  0  0  0  0  0  0  0  0
    1.7189    0.7905   -1.9565 N   0  0  0  0  0  2  0  0  0  0  0  0
    1.5687    0.5630   -0.6828 N   0  0  0  0  0  2  0  0  0  0  0  0
    2.5814   -0.2576   -0.2200 C   0  0  0  0  0  0  0  0  0  0  0  0
    3.4210   -0.5491   -1.3279 C   0  0  0  0  0  0  0  0  0  0  0  0
    4.5597   -1.3686   -1.2097 C   0  0  0  0  0  0  0  0  0  0  0  0
    4.8132   -1.8788    0.0657 C   0  0  0  0  0  0  0  0  0  0  0  0
    3.9757   -1.5886    1.1791 C   0  0  0  0  0  0  0  0  0  0  0  0
    2.8477   -0.7769    1.0642 C   0  0  0  0  0  0  0  0  0  0  0  0
    3.1022    0.2087   -3.3374 H   0  0  0  0  0  0  0  0  0  0  0  0
    5.2124   -1.5940   -2.0645 H   0  0  0  0  0  0  0  0  0  0  0  0
    5.6922   -2.5239    0.2154 H   0  0  0  0  0  0  0  0  0  0  0  0
    4.2334   -2.0152    2.1599 H   0  0  0  0  0  0  0  0  0  0  0  0
    2.1867   -0.5067    1.9038 H   0  0  0  0  0  0  0  0  0  0  0  0
  1  2  1  0  0  0  0
  1  5  1  0  0  0  0
  2  3  1  0  0  0  0
  3  4  1  0  0  0  0
  4  9  1  0  0  0  0
  5  6  1  0  0  0  0
  5  4  2  0  0  0  0
  6  7  2  0  0  0  0
  7 12  1  0  0  0  0
  7  8  1  0  0  0  0
  8 13  1  0  0  0  0
  9  8  2  0  0  0  0
  9 14  1  0  0  0  0
 10  1  1  0  0  0  0
 11  6  1  0  0  0  0
M  END
