1
 OpenBabel05122313063D

 15 15  0  0  1  0  0  0  0  0999 V2000
    1.3707   -0.3675   -1.1338 N   0  0  0  0  0  2  0  0  0  0  0  0
    3.0802   -0.3364   -2.5159 N   0  0  0  0  0  0  0  0  0  0  0  0
    2.3180    0.4132   -1.6638 C   0  0  2  0  0  3  0  0  0  0  0  0
    2.6014   -1.6365   -2.5260 C   0  0  0  0  0  0  0  0  0  0  0  0
    1.5355   -1.6358   -1.6497 C   0  0  0  0  0  0  0  0  0  0  0  0
    2.5844    1.8433   -1.3220 C   0  0  0  0  0  0  0  0  0  0  0  0
    3.3213    2.0012    0.0206 C   0  0  0  0  0  0  0  0  0  0  0  0
    3.8769    0.0152   -3.0472 H   0  0  0  0  0  0  0  0  0  0  0  0
    3.0518   -2.4237   -3.1373 H   0  0  0  0  0  0  0  0  0  0  0  0
    0.8923   -2.4644   -1.3372 H   0  0  0  0  0  0  0  0  0  0  0  0
    1.6018    2.3540   -1.2543 H   0  0  0  0  0  0  0  0  0  0  0  0
    3.1613    2.3104   -2.1484 H   0  0  0  0  0  0  0  0  0  0  0  0
    4.3198    1.5176   -0.0023 H   0  0  0  0  0  0  0  0  0  0  0  0
    2.7330    1.5398    0.8400 H   0  0  0  0  0  0  0  0  0  0  0  0
    3.4650    3.0745    0.2559 H   0  0  0  0  0  0  0  0  0  0  0  0
  2  3  1  0  0  0  0
  3  6  1  1  0  0  0
  3  1  1  0  0  0  0
  4  2  1  0  0  0  0
  4  5  2  0  0  0  0
  5 10  1  0  0  0  0
  5  1  1  0  0  0  0
  6 11  1  0  0  0  0
  6  7  1  0  0  0  0
  7 15  1  0  0  0  0
  7 14  1  0  0  0  0
  8  2  1  0  0  0  0
  9  4  1  0  0  0  0
 12  6  1  0  0  0  0
 13  7  1  0  0  0  0
M  END
