1
 OpenBabel05122313063D

 14 14  0  0  0  0  0  0  0  0999 V2000
    0.3793    2.8731   -0.0806 N   0  0  0  0  0  2  0  0  0  0  0  0
   -0.6831    3.7148   -0.0357 C   0  0  0  0  0  3  0  0  0  0  0  0
   -1.6770    3.2435    0.0183 H   0  0  0  0  0  0  0  0  0  0  0  0
   -0.5401    5.1028   -0.0551 C   0  0  0  0  0  0  0  0  0  0  0  0
   -1.4296    5.7466   -0.0164 H   0  0  0  0  0  0  0  0  0  0  0  0
    0.7545    5.6378   -0.1232 C   0  0  0  0  0  0  0  0  0  0  0  0
    0.9106    6.7268   -0.1395 H   0  0  0  0  0  0  0  0  0  0  0  0
    1.8496    4.7663   -0.1703 C   0  0  0  0  0  0  0  0  0  0  0  0
    2.8759    5.1561   -0.2243 H   0  0  0  0  0  0  0  0  0  0  0  0
    1.6462    3.3756   -0.1491 C   0  0  0  0  0  0  0  0  0  0  0  0
    2.7790    2.3940   -0.2076 C   0  0  0  0  0  0  0  0  0  0  0  0
    2.7447    1.6875    0.6475 H   0  0  0  0  0  0  0  0  0  0  0  0
    3.7588    2.9050   -0.1961 H   0  0  0  0  0  0  0  0  0  0  0  0
    2.7222    1.7794   -1.1300 H   0  0  0  0  0  0  0  0  0  0  0  0
  1  2  1  0  0  0  0
  2  3  1  0  0  0  0
  4  2  1  0  0  0  0
  4  5  1  0  0  0  0
  6  4  2  0  0  0  0
  7  6  1  0  0  0  0
  8 10  2  0  0  0  0
  8  6  1  0  0  0  0
  9  8  1  0  0  0  0
 10  1  1  0  0  0  0
 11 13  1  0  0  0  0
 11 10  1  0  0  0  0
 11 12  1  0  0  0  0
 14 11  1  0  0  0  0
M  END
