2
 OpenBabel05122313063D

 16 17  0  0  1  0  0  0  0  0999 V2000
   -8.2863   -1.3583   -0.3882 Br  0  0  0  0  0  0  0  0  0  0  0  0
   -1.3555    0.0364    1.0294 N   0  0  0  0  0  2  0  0  0  0  0  0
   -1.2536   -1.1342    1.9828 C   0  0  0  0  0  0  0  0  0  0  0  0
   -0.6748   -1.9981    1.6069 H   0  0  0  0  0  0  0  0  0  0  0  0
   -1.1421   -0.8858    3.0548 H   0  0  0  0  0  0  0  0  0  0  0  0
   -2.4148   -0.6544    1.2262 C   0  0  2  0  0  3  0  0  0  0  0  0
   -3.7871   -0.8012    0.8336 C   0  0  0  0  0  0  0  0  0  0  0  0
   -4.3710    0.0472   -0.1404 C   0  0  0  0  0  0  0  0  0  0  0  0
   -3.7695    0.8287   -0.6239 H   0  0  0  0  0  0  0  0  0  0  0  0
   -5.7084   -0.1192   -0.5037 C   0  0  0  0  0  0  0  0  0  0  0  0
   -6.1642    0.5323   -1.2620 H   0  0  0  0  0  0  0  0  0  0  0  0
   -6.4706   -1.1347    0.1055 C   0  0  0  0  0  0  0  0  0  0  0  0
   -5.9082   -1.9888    1.0719 C   0  0  0  0  0  0  0  0  0  0  0  0
   -6.5189   -2.7774    1.5326 H   0  0  0  0  0  0  0  0  0  0  0  0
   -4.5691   -1.8187    1.4314 C   0  0  0  0  0  0  0  0  0  0  0  0
   -4.1116   -2.4783    2.1838 H   0  0  0  0  0  0  0  0  0  0  0  0
  1 12  1  0  0  0  0
  2  6  1  0  0  0  0
  2  3  1  0  0  0  0
  3  5  1  0  0  0  0
  4  3  1  0  0  0  0
  6  7  1  6  0  0  0
  6  3  1  0  0  0  0
  7 15  1  0  0  0  0
  8  7  2  0  0  0  0
  9  8  1  0  0  0  0
 10  8  1  0  0  0  0
 10 12  2  0  0  0  0
 11 10  1  0  0  0  0
 12 13  1  0  0  0  0
 13 15  2  0  0  0  0
 13 14  1  0  0  0  0
 15 16  1  0  0  0  0
M  END
