5
 OpenBabel05122313063D

 25 26  0  0  0  0  0  0  0  0999 V2000
    0.8907   -2.4188    0.0606 O   0  0  0  0  0  0  0  0  0  0  0  0
    2.9107   -1.3526    0.1773 N   0  0  0  0  0  0  0  0  0  0  0  0
    5.0903   -0.4846    0.2903 N   0  0  0  0  0  0  0  0  0  0  0  0
    3.2984    0.9691   -0.1217 N   0  0  0  0  0  0  0  0  0  0  0  0
   -0.2540    0.5445   -0.3241 N   0  0  0  0  0  2  0  0  0  0  0  0
    1.2424    2.2024   -0.4582 N   0  0  0  0  0  0  0  0  0  0  0  0
    3.7638   -0.2590    0.1120 C   0  0  0  0  0  0  0  0  0  0  0  0
    1.9682    1.0415   -0.2457 C   0  0  0  0  0  0  0  0  0  0  0  0
    1.0204   -0.0022   -0.1739 C   0  0  0  0  0  0  0  0  0  0  0  0
    1.5056   -1.3391    0.0253 C   0  0  0  0  0  0  0  0  0  0  0  0
   -0.0801    1.8595   -0.4957 C   0  0  0  0  0  3  0  0  0  0  0  0
    6.0472    0.6148    0.2091 C   0  0  0  0  0  0  0  0  0  0  0  0
    5.5993   -1.8228    0.5559 C   0  0  0  0  0  0  0  0  0  0  0  0
    1.8039    3.5374   -0.6145 C   0  0  0  0  0  0  0  0  0  0  0  0
    6.5902    0.7256    1.1704 H   0  0  0  0  0  0  0  0  0  0  0  0
    5.5027    1.5483   -0.0088 H   0  0  0  0  0  0  0  0  0  0  0  0
    6.7840    0.4254   -0.5986 H   0  0  0  0  0  0  0  0  0  0  0  0
    6.6897   -1.7628    0.7162 H   0  0  0  0  0  0  0  0  0  0  0  0
    5.4272   -2.5144   -0.2987 H   0  0  0  0  0  0  0  0  0  0  0  0
    5.1544   -2.2608    1.4760 H   0  0  0  0  0  0  0  0  0  0  0  0
    1.8706    3.8137   -1.6853 H   0  0  0  0  0  0  0  0  0  0  0  0
    2.8198    3.5321   -0.1806 H   0  0  0  0  0  0  0  0  0  0  0  0
    1.1761    4.2736   -0.0798 H   0  0  0  0  0  0  0  0  0  0  0  0
    3.2885   -2.2934    0.3219 H   0  0  0  0  0  0  0  0  0  0  0  0
   -0.8981    2.5828   -0.5835 H   0  0  0  0  0  0  0  0  0  0  0  0
  2 24  1  0  0  0  0
  3 13  1  0  0  0  0
  4  7  2  0  0  0  0
  5  9  1  0  0  0  0
  6  8  1  0  0  0  0
  7  2  1  0  0  0  0
  7  3  1  0  0  0  0
  8  9  2  0  0  0  0
  8  4  1  0  0  0  0
  9 10  1  0  0  0  0
 10  1  2  0  0  0  0
 10  2  1  0  0  0  0
 11  6  1  0  0  0  0
 11  5  1  0  0  0  0
 12  3  1  0  0  0  0
 12 15  1  0  0  0  0
 13 18  1  0  0  0  0
 13 20  1  0  0  0  0
 14  6  1  0  0  0  0
 14 22  1  0  0  0  0
 14 23  1  0  0  0  0
 16 12  1  0  0  0  0
 17 12  1  0  0  0  0
 19 13  1  0  0  0  0
 21 14  1  0  0  0  0
 25 11  1  0  0  0  0
M  END
