2
 OpenBabel05122313063D

 61 62  0  0  1  0  0  0  0  0999 V2000
   -2.1554   -0.2036    0.0421 P   0  0  0  0  0  0  0  0  0  0  0  0
   -0.0537    1.7005   -0.4374 N   0  0  0  0  0  2  0  0  0  0  0  0
    2.2461    0.3209   -0.0019 N   0  0  0  0  0  0  0  0  0  0  0  0
   -2.3931    1.3338   -1.0016 C   0  0  0  0  0  0  0  0  0  0  0  0
   -2.3267    0.9564   -2.0433 H   0  0  0  0  0  0  0  0  0  0  0  0
   -3.3708    1.8357   -0.8651 H   0  0  0  0  0  0  0  0  0  0  0  0
   -1.2369    2.2731   -0.7978 C   0  0  2  0  0  3  0  0  0  0  0  0
   -1.3250    3.6582   -0.9807 C   0  0  0  0  0  0  0  0  0  0  0  0
   -2.2880    4.1069   -1.2622 H   0  0  0  0  0  0  0  0  0  0  0  0
   -0.1754    4.4497   -0.8136 C   0  0  0  0  0  0  0  0  0  0  0  0
   -0.2226    5.5379   -0.9641 H   0  0  0  0  0  0  0  0  0  0  0  0
    1.0317    3.8396   -0.4651 C   0  0  0  0  0  0  0  0  0  0  0  0
    1.9425    4.4416   -0.3548 H   0  0  0  0  0  0  0  0  0  0  0  0
    1.0764    2.4434   -0.2764 C   0  0  0  0  0  0  0  0  0  0  0  0
    2.2901    1.6922    0.0942 C   0  0  0  0  0  0  0  0  0  0  0  0
    3.4378    2.3727    0.5372 C   0  0  0  0  0  0  0  0  0  0  0  0
    3.4282    3.4647    0.6436 H   0  0  0  0  0  0  0  0  0  0  0  0
    4.5717    1.6340    0.8700 C   0  0  0  0  0  0  0  0  0  0  0  0
    5.4745    2.1303    1.2555 H   0  0  0  0  0  0  0  0  0  0  0  0
    4.5433    0.2528    0.6800 C   0  0  0  0  0  0  0  0  0  0  0  0
    5.4359   -0.3438    0.9001 H   0  0  0  0  0  0  0  0  0  0  0  0
    3.3803   -0.4001    0.2072 C   0  0  0  0  0  0  0  0  0  0  0  0
    3.4721   -1.9183   -0.0466 C   0  0  0  0  0  0  0  0  0  0  0  0
    2.4508   -2.4193   -1.0790 C   0  0  0  0  0  0  0  0  0  0  0  0
    2.6643   -3.4838   -1.3035 H   0  0  0  0  0  0  0  0  0  0  0  0
    2.4926   -1.8447   -2.0236 H   0  0  0  0  0  0  0  0  0  0  0  0
    1.4216   -2.3613   -0.6886 H   0  0  0  0  0  0  0  0  0  0  0  0
    3.2641   -2.6537    1.2991 C   0  0  0  0  0  0  0  0  0  0  0  0
    2.2241   -2.5098    1.6480 H   0  0  0  0  0  0  0  0  0  0  0  0
    3.9719   -2.2906    2.0728 H   0  0  0  0  0  0  0  0  0  0  0  0
    3.4419   -3.7395    1.1531 H   0  0  0  0  0  0  0  0  0  0  0  0
    4.8797   -2.2630   -0.5977 C   0  0  0  0  0  0  0  0  0  0  0  0
    4.8913   -3.3322   -0.8870 H   0  0  0  0  0  0  0  0  0  0  0  0
    5.6907   -2.1285    0.1452 H   0  0  0  0  0  0  0  0  0  0  0  0
    5.1262   -1.6660   -1.4994 H   0  0  0  0  0  0  0  0  0  0  0  0
   -2.8234    0.2573    1.7717 C   0  0  0  0  0  0  0  0  0  0  0  0
   -4.2874    0.7312    1.7459 C   0  0  0  0  0  0  0  0  0  0  0  0
   -5.0033   -0.0755    1.5155 H   0  0  0  0  0  0  0  0  0  0  0  0
   -4.4523    1.5619    1.0295 H   0  0  0  0  0  0  0  0  0  0  0  0
   -4.5440    1.1211    2.7537 H   0  0  0  0  0  0  0  0  0  0  0  0
   -1.9484    1.4183    2.2895 C   0  0  0  0  0  0  0  0  0  0  0  0
   -2.0615    2.3393    1.6833 H   0  0  0  0  0  0  0  0  0  0  0  0
   -0.8829    1.1246    2.3236 H   0  0  0  0  0  0  0  0  0  0  0  0
   -2.2743    1.6620    3.3226 H   0  0  0  0  0  0  0  0  0  0  0  0
   -2.6340   -0.9511    2.7076 C   0  0  0  0  0  0  0  0  0  0  0  0
   -2.9830   -0.6719    3.7248 H   0  0  0  0  0  0  0  0  0  0  0  0
   -1.5619   -1.2200    2.7608 H   0  0  0  0  0  0  0  0  0  0  0  0
   -3.2148   -1.8377    2.3900 H   0  0  0  0  0  0  0  0  0  0  0  0
   -3.1281   -1.6447   -0.7827 C   0  0  0  0  0  0  0  0  0  0  0  0
   -2.2192   -2.8813   -0.6300 C   0  0  0  0  0  0  0  0  0  0  0  0
   -1.9430   -3.0739    0.4247 H   0  0  0  0  0  0  0  0  0  0  0  0
   -1.2801   -2.7377   -1.1986 H   0  0  0  0  0  0  0  0  0  0  0  0
   -2.7503   -3.7689   -1.0342 H   0  0  0  0  0  0  0  0  0  0  0  0
   -4.5060   -1.9188   -0.1581 C   0  0  0  0  0  0  0  0  0  0  0  0
   -5.2057   -1.0713   -0.2932 H   0  0  0  0  0  0  0  0  0  0  0  0
   -4.4590   -2.1778    0.9157 H   0  0  0  0  0  0  0  0  0  0  0  0
   -4.9465   -2.7917   -0.6846 H   0  0  0  0  0  0  0  0  0  0  0  0
   -3.3393   -1.3443   -2.2783 C   0  0  0  0  0  0  0  0  0  0  0  0
   -3.7852   -2.2464   -2.7483 H   0  0  0  0  0  0  0  0  0  0  0  0
   -2.3796   -1.1294   -2.7881 H   0  0  0  0  0  0  0  0  0  0  0  0
   -4.0475   -0.5063   -2.4405 H   0  0  0  0  0  0  0  0  0  0  0  0
  1 36  1  0  0  0  0
  2 14  1  0  0  0  0
  3 15  2  0  0  0  0
  3 22  1  0  0  0  0
  4  6  1  0  0  0  0
  4  1  1  0  0  0  0
  5  4  1  0  0  0  0
  7  4  1  6  0  0  0
  7  2  1  0  0  0  0
  8 10  2  0  0  0  0
  8  7  1  0  0  0  0
  9  8  1  0  0  0  0
 10 12  1  0  0  0  0
 11 10  1  0  0  0  0
 12 13  1  0  0  0  0
 12 14  2  0  0  0  0
 14 15  1  0  0  0  0
 15 16  1  0  0  0  0
 16 17  1  0  0  0  0
 16 18  2  0  0  0  0
 18 19  1  0  0  0  0
 20 18  1  0  0  0  0
 20 21  1  0  0  0  0
 22 20  2  0  0  0  0
 23 22  1  0  0  0  0
 23 28  1  0  0  0  0
 24 27  1  0  0  0  0
 24 23  1  0  0  0  0
 25 24  1  0  0  0  0
 26 24  1  0  0  0  0
 28 29  1  0  0  0  0
 28 30  1  0  0  0  0
 31 28  1  0  0  0  0
 32 23  1  0  0  0  0
 32 34  1  0  0  0  0
 33 32  1  0  0  0  0
 35 32  1  0  0  0  0
 36 41  1  0  0  0  0
 36 45  1  0  0  0  0
 37 36  1  0  0  0  0
 37 40  1  0  0  0  0
 38 37  1  0  0  0  0
 39 37  1  0  0  0  0
 41 43  1  0  0  0  0
 41 44  1  0  0  0  0
 42 41  1  0  0  0  0
 45 47  1  0  0  0  0
 45 46  1  0  0  0  0
 48 45  1  0  0  0  0
 49 50  1  0  0  0  0
 49 54  1  0  0  0  0
 49  1  1  0  0  0  0
 50 51  1  0  0  0  0
 52 50  1  0  0  0  0
 53 50  1  0  0  0  0
 54 56  1  0  0  0  0
 55 54  1  0  0  0  0
 57 54  1  0  0  0  0
 58 49  1  0  0  0  0
 59 58  1  0  0  0  0
 60 58  1  0  0  0  0
 61 58  1  0  0  0  0
M  END
