2
 OpenBabel05122313063D

 25 27  0  0  0  0  0  0  0  0999 V2000
   -3.3342   -0.7889    0.4355 N   0  0  0  0  0  0  0  0  0  0  0  0
    0.3236   -1.2109    0.2094 N   0  0  0  0  0  2  0  0  0  0  0  0
   -2.7808    1.3832   -0.2993 O   0  0  0  0  0  0  0  0  0  0  0  0
   -4.6152   -2.6745    1.0480 O   0  0  0  0  0  0  0  0  0  0  0  0
   -3.6164    0.5293   -0.0519 C   0  0  0  0  0  0  0  0  0  0  0  0
   -4.5553   -1.5356    0.6330 C   0  0  0  0  0  0  0  0  0  0  0  0
   -5.0939    0.6081   -0.1725 C   0  0  0  0  0  0  0  0  0  0  0  0
   -5.8957    1.6672   -0.6040 C   0  0  0  0  0  0  0  0  0  0  0  0
   -5.4505    2.6229   -0.9163 H   0  0  0  0  0  0  0  0  0  0  0  0
   -7.2878    1.4568   -0.6253 C   0  0  0  0  0  0  0  0  0  0  0  0
   -7.9538    2.2655   -0.9612 H   0  0  0  0  0  0  0  0  0  0  0  0
   -7.8453    0.2257   -0.2258 C   0  0  0  0  0  0  0  0  0  0  0  0
   -8.9372    0.0944   -0.2551 H   0  0  0  0  0  0  0  0  0  0  0  0
   -7.0299   -0.8371    0.2088 C   0  0  0  0  0  0  0  0  0  0  0  0
   -7.4529   -1.8023    0.5228 H   0  0  0  0  0  0  0  0  0  0  0  0
   -5.6509   -0.6191    0.2266 C   0  0  0  0  0  0  0  0  0  0  0  0
   -2.0475   -1.2935    0.6953 C   0  0  0  0  0  0  0  0  0  0  0  0
   -0.9396   -0.7895   -0.0158 C   0  0  0  0  0  3  0  0  0  0  0  0
   -1.0814   -0.0188   -0.7800 H   0  0  0  0  0  0  0  0  0  0  0  0
    0.5373   -2.1853    1.1254 C   0  0  0  0  0  0  0  0  0  0  0  0
    1.5767   -2.5146    1.2646 H   0  0  0  0  0  0  0  0  0  0  0  0
   -0.5116   -2.7551    1.8509 C   0  0  0  0  0  0  0  0  0  0  0  0
   -0.2991   -3.5511    2.5783 H   0  0  0  0  0  0  0  0  0  0  0  0
   -1.8215   -2.3053    1.6543 C   0  0  0  0  0  0  0  0  0  0  0  0
   -2.6602   -2.7401    2.2105 H   0  0  0  0  0  0  0  0  0  0  0  0
  1  6  1  0  0  0  0
  1 17  1  0  0  0  0
  2 20  1  0  0  0  0
  3  5  2  0  0  0  0
  5  1  1  0  0  0  0
  6  4  2  0  0  0  0
  7  5  1  0  0  0  0
  7 16  1  0  0  0  0
  8  7  2  0  0  0  0
  9  8  1  0  0  0  0
 10  8  1  0  0  0  0
 10 12  2  0  0  0  0
 11 10  1  0  0  0  0
 12 14  1  0  0  0  0
 13 12  1  0  0  0  0
 14 16  2  0  0  0  0
 14 15  1  0  0  0  0
 16  6  1  0  0  0  0
 17 24  2  0  0  0  0
 18  2  1  0  0  0  0
 18 17  1  0  0  0  0
 19 18  1  0  0  0  0
 20 21  1  0  0  0  0
 20 22  2  0  0  0  0
 22 23  1  0  0  0  0
 24 22  1  0  0  0  0
 24 25  1  0  0  0  0
M  END
