2
 OpenBabel05122313063D

 15 15  0  0  1  0  0  0  0  0999 V2000
    0.7085    0.8028    2.3832 O   0  0  0  0  0  0  0  0  0  0  0  0
    1.3548    1.2606   -0.3464 N   0  0  0  0  0  2  0  0  0  0  0  0
    3.4458    2.9395   -1.0637 C   0  0  0  0  0  0  0  0  0  0  0  0
    4.2749    3.6076   -1.3421 H   0  0  0  0  0  0  0  0  0  0  0  0
    2.1726    1.7340    0.6191 C   0  0  2  0  0  3  0  0  0  0  0  0
    2.5803    2.4301   -2.0446 C   0  0  0  0  0  0  0  0  0  0  0  0
    2.7093    2.6714   -3.1087 H   0  0  0  0  0  0  0  0  0  0  0  0
    3.2283    2.5988    0.2752 C   0  0  0  0  0  0  0  0  0  0  0  0
    3.8646    3.0049    1.0770 H   0  0  0  0  0  0  0  0  0  0  0  0
    1.9704    1.2901    2.0634 C   0  0  0  0  0  0  0  0  0  0  0  0
    2.7205    0.4885    2.2504 H   0  0  0  0  0  0  0  0  0  0  0  0
    2.2801    2.1528    2.7071 H   0  0  0  0  0  0  0  0  0  0  0  0
    1.5343    1.5984   -1.6439 C   0  0  0  0  0  0  0  0  0  0  0  0
    0.8094    1.1619   -2.3497 H   0  0  0  0  0  0  0  0  0  0  0  0
    0.0303    1.5201    2.1286 H   0  0  0  0  0  0  0  0  0  0  0  0
  2  5  1  0  0  0  0
  3  8  2  0  0  0  0
  4  3  1  0  0  0  0
  5 10  1  6  0  0  0
  6 13  2  0  0  0  0
  6  3  1  0  0  0  0
  7  6  1  0  0  0  0
  8  5  1  0  0  0  0
  8  9  1  0  0  0  0
 10 11  1  0  0  0  0
 10  1  1  0  0  0  0
 10 12  1  0  0  0  0
 13  2  1  0  0  0  0
 14 13  1  0  0  0  0
 15  1  1  0  0  0  0
M  END
