1
 OpenBabel05122313063D

 20 20  0  0  1  0  0  0  0  0999 V2000
    0.6736   -0.2518   -2.3773 N   0  0  0  0  0  0  0  0  0  0  0  0
    1.3098   -0.7661   -1.7172 H   0  0  0  0  0  0  0  0  0  0  0  0
    0.4302   -0.8834   -3.1562 H   0  0  0  0  0  0  0  0  0  0  0  0
    1.3962    0.9456   -2.9313 C   0  0  2  0  0  0  0  0  0  0  0  0
    0.6479    1.4668   -3.5603 H   0  0  0  0  0  0  0  0  0  0  0  0
    2.5559    0.4825   -3.8135 C   0  0  0  0  0  0  0  0  0  0  0  0
    2.1836   -0.1189   -4.6673 H   0  0  0  0  0  0  0  0  0  0  0  0
    3.2915   -0.1325   -3.2564 H   0  0  0  0  0  0  0  0  0  0  0  0
    3.0914    1.3582   -4.2283 H   0  0  0  0  0  0  0  0  0  0  0  0
    1.7865    1.8831   -1.7966 C   0  0  0  0  0  0  0  0  0  0  0  0
    0.8517    2.8428   -1.3529 C   0  0  0  0  0  0  0  0  0  0  0  0
   -0.1298    2.9013   -1.8503 H   0  0  0  0  0  0  0  0  0  0  0  0
    1.1747    3.7280   -0.3146 C   0  0  0  0  0  0  0  0  0  0  0  0
    0.4421    4.4861    0.0021 H   0  0  0  0  0  0  0  0  0  0  0  0
    2.4379    3.6666    0.2975 C   0  0  0  0  0  0  0  0  0  0  0  0
    2.7012    4.3751    1.0977 H   0  0  0  0  0  0  0  0  0  0  0  0
    3.3723    2.7122   -0.1327 C   0  0  0  0  0  0  0  0  0  0  0  0
    4.3691    2.6652    0.3315 H   0  0  0  0  0  0  0  0  0  0  0  0
    3.0488    1.8293   -1.1753 C   0  0  0  0  0  0  0  0  0  0  0  0
    3.8027    1.1029   -1.5113 H   0  0  0  0  0  0  0  0  0  0  0  0
  1  2  1  0  0  0  0
  3  1  1  0  0  0  0
  4  5  1  6  0  0  0
  4  1  1  0  0  0  0
  4 10  1  0  0  0  0
  6  8  1  0  0  0  0
  6  4  1  0  0  0  0
  7  6  1  0  0  0  0
  9  6  1  0  0  0  0
 10 11  2  0  0  0  0
 10 19  1  0  0  0  0
 11 13  1  0  0  0  0
 12 11  1  0  0  0  0
 13 14  1  0  0  0  0
 13 15  2  0  0  0  0
 15 16  1  0  0  0  0
 17 15  1  0  0  0  0
 17 18  1  0  0  0  0
 19 17  2  0  0  0  0
 20 19  1  0  0  0  0
M  END
