2
 OpenBabel05122313063D

 49 53  0  0  1  0  0  0  0  0999 V2000
   -1.0086   -0.1325    0.2257 P   0  0  1  0  0  0  0  0  0  0  0  0
    1.6694    1.0277    0.6113 N   0  0  0  0  0  2  0  0  0  0  0  0
   -1.3310   -0.9711    1.8127 C   0  0  0  0  0  0  0  0  0  0  0  0
   -0.3591   -1.8497    2.3325 C   0  0  0  0  0  0  0  0  0  0  0  0
    0.5629   -2.0398    1.7591 H   0  0  0  0  0  0  0  0  0  0  0  0
   -0.5744   -2.4761    3.5688 C   0  0  0  0  0  0  0  0  0  0  0  0
    0.1835   -3.1628    3.9743 H   0  0  0  0  0  0  0  0  0  0  0  0
   -1.7595   -2.2337    4.2806 C   0  0  0  0  0  0  0  0  0  0  0  0
   -1.9312   -2.7314    5.2468 H   0  0  0  0  0  0  0  0  0  0  0  0
   -2.7317   -1.3627    3.7592 C   0  0  0  0  0  0  0  0  0  0  0  0
   -3.6621   -1.1780    4.3164 H   0  0  0  0  0  0  0  0  0  0  0  0
   -2.5233   -0.7293    2.5272 C   0  0  0  0  0  0  0  0  0  0  0  0
   -3.2859   -0.0506    2.1169 H   0  0  0  0  0  0  0  0  0  0  0  0
   -3.0633   -2.1113   -1.2225 C   0  0  0  0  0  0  0  0  0  0  0  0
   -1.9749   -2.2591   -1.2911 H   0  0  0  0  0  0  0  0  0  0  0  0
   -3.9291   -3.1697   -1.5136 C   0  0  0  0  0  0  0  0  0  0  0  0
   -3.5192   -4.1490   -1.8025 H   0  0  0  0  0  0  0  0  0  0  0  0
   -5.3195   -2.9821   -1.4396 C   0  0  0  0  0  0  0  0  0  0  0  0
   -6.0030   -3.8129   -1.6688 H   0  0  0  0  0  0  0  0  0  0  0  0
   -5.8314   -1.7304   -1.0613 C   0  0  0  0  0  0  0  0  0  0  0  0
   -6.9186   -1.5819   -0.9814 H   0  0  0  0  0  0  0  0  0  0  0  0
   -4.9668   -0.6679   -0.7714 C   0  0  0  0  0  0  0  0  0  0  0  0
   -5.3882    0.2894   -0.4386 H   0  0  0  0  0  0  0  0  0  0  0  0
   -3.5603   -0.8333   -0.8580 C   0  0  0  0  0  0  0  0  0  0  0  0
   -2.6230    0.2407   -0.5278 C   0  0  0  0  0  0  0  0  0  0  0  0
   -2.7659    1.6194   -0.6178 C   0  0  0  0  0  0  0  0  0  0  0  0
   -3.9424    2.3272   -1.2440 C   0  0  0  0  0  0  0  0  0  0  0  0
   -4.7316    2.4558   -0.4674 H   0  0  0  0  0  0  0  0  0  0  0  0
   -4.3928    1.6839   -2.0267 H   0  0  0  0  0  0  0  0  0  0  0  0
   -3.5817    3.7138   -1.7932 C   0  0  0  0  0  0  0  0  0  0  0  0
   -2.9254    3.6077   -2.6848 H   0  0  0  0  0  0  0  0  0  0  0  0
   -4.5030    4.2231   -2.1392 H   0  0  0  0  0  0  0  0  0  0  0  0
   -2.8705    4.5408   -0.7231 C   0  0  0  0  0  0  0  0  0  0  0  0
   -2.6826    5.5743   -1.0760 H   0  0  0  0  0  0  0  0  0  0  0  0
   -3.5258    4.6288    0.1713 H   0  0  0  0  0  0  0  0  0  0  0  0
   -1.5382    3.8903   -0.3294 C   0  0  0  0  0  0  0  0  0  0  0  0
   -1.0961    4.4057    0.5447 H   0  0  0  0  0  0  0  0  0  0  0  0
   -0.8050    4.0344   -1.1568 H   0  0  0  0  0  0  0  0  0  0  0  0
   -1.6342    2.4029   -0.0791 C   0  0  0  0  0  0  0  0  0  0  0  0
   -0.6425    1.6317    0.4962 C   0  0  0  0  0  0  0  0  0  0  0  0
    0.7045    1.9453    0.9553 C   0  0  1  0  0  3  0  0  0  0  0  0
    1.0440    3.0603    1.7518 C   0  0  0  0  0  0  0  0  0  0  0  0
    0.2605    3.7711    2.0451 H   0  0  0  0  0  0  0  0  0  0  0  0
    2.3603    3.2273    2.1899 C   0  0  0  0  0  0  0  0  0  0  0  0
    2.6286    4.0910    2.8164 H   0  0  0  0  0  0  0  0  0  0  0  0
    3.3272    2.2732    1.8355 C   0  0  0  0  0  0  0  0  0  0  0  0
    4.3723    2.3588    2.1632 H   0  0  0  0  0  0  0  0  0  0  0  0
    2.9361    1.1875    1.0470 C   0  0  0  0  0  0  0  0  0  0  0  0
    3.6601    0.4176    0.7400 H   0  0  0  0  0  0  0  0  0  0  0  0
  1 40  1  0  0  0  0
  1  3  1  1  0  0  0
  2 41  1  0  0  0  0
  2 48  1  0  0  0  0
  3  4  2  0  0  0  0
  3 12  1  0  0  0  0
  4  6  1  0  0  0  0
  5  4  1  0  0  0  0
  6  7  1  0  0  0  0
  6  8  2  0  0  0  0
  8  9  1  0  0  0  0
 10  8  1  0  0  0  0
 10 11  1  0  0  0  0
 12 10  2  0  0  0  0
 13 12  1  0  0  0  0
 14 24  1  0  0  0  0
 15 14  1  0  0  0  0
 16 18  1  0  0  0  0
 16 14  2  0  0  0  0
 17 16  1  0  0  0  0
 18 20  2  0  0  0  0
 19 18  1  0  0  0  0
 20 21  1  0  0  0  0
 20 22  1  0  0  0  0
 22 23  1  0  0  0  0
 24 22  2  0  0  0  0
 24 25  1  0  0  0  0
 25  1  1  0  0  0  0
 26 25  2  0  0  0  0
 26 39  1  0  0  0  0
 27 26  1  0  0  0  0
 27 28  1  0  0  0  0
 29 27  1  0  0  0  0
 30 27  1  0  0  0  0
 30 33  1  0  0  0  0
 31 30  1  0  0  0  0
 32 30  1  0  0  0  0
 33 36  1  0  0  0  0
 33 35  1  0  0  0  0
 34 33  1  0  0  0  0
 36 39  1  0  0  0  0
 36 37  1  0  0  0  0
 38 36  1  0  0  0  0
 39 40  2  0  0  0  0
 41 40  1  1  0  0  0
 41 42  1  0  0  0  0
 42 43  1  0  0  0  0
 42 44  2  0  0  0  0
 44 45  1  0  0  0  0
 46 47  1  0  0  0  0
 46 44  1  0  0  0  0
 48 46  2  0  0  0  0
 49 48  1  0  0  0  0
M  END
