1
 OpenBabel05122313063D

 19 20  0  0  1  0  0  0  0  0999 V2000
    2.0252    1.2447    0.2179 N   0  0  0  0  0  2  0  0  0  0  0  0
    2.2831    2.1552   -0.7627 C   0  0  0  0  0  0  0  0  0  0  0  0
    3.2248    0.7066    0.4866 C   0  0  2  0  0  3  0  0  0  0  0  0
    3.5645    2.2548   -1.1308 N   0  0  0  0  0  0  0  0  0  0  0  0
    1.4818    2.7429   -1.2296 H   0  0  0  0  0  0  0  0  0  0  0  0
    4.1618    1.3296   -0.3397 N   0  0  0  0  0  0  0  0  0  0  0  0
    3.5453   -0.2690    1.3463 N   0  0  0  0  0  0  0  0  0  0  0  0
    5.4759    0.9449   -0.3605 C   0  0  0  0  0  0  0  0  0  0  0  0
    4.8165   -0.6836    1.3510 C   0  0  0  0  0  0  0  0  0  0  0  0
    5.8046   -0.0783    0.5175 C   0  0  0  0  0  0  0  0  0  0  0  0
    6.3764    1.6138   -1.3376 C   0  0  0  0  0  0  0  0  0  0  0  0
    5.1546   -1.8683    2.2045 C   0  0  0  0  0  0  0  0  0  0  0  0
    6.8386   -0.4469    0.5385 H   0  0  0  0  0  0  0  0  0  0  0  0
    6.3262    2.7154   -1.2263 H   0  0  0  0  0  0  0  0  0  0  0  0
    7.4176    1.2667   -1.2182 H   0  0  0  0  0  0  0  0  0  0  0  0
    6.0269    1.3884   -2.3669 H   0  0  0  0  0  0  0  0  0  0  0  0
    5.0456   -2.7830    1.5816 H   0  0  0  0  0  0  0  0  0  0  0  0
    6.1961   -1.8338    2.5763 H   0  0  0  0  0  0  0  0  0  0  0  0
    4.4521   -1.9524    3.0540 H   0  0  0  0  0  0  0  0  0  0  0  0
  2  1  1  0  0  0  0
  3  1  1  6  0  0  0
  3  7  1  0  0  0  0
  4  2  2  0  0  0  0
  4  6  1  0  0  0  0
  5  2  1  0  0  0  0
  6  3  1  0  0  0  0
  7  9  2  0  0  0  0
  8  6  1  0  0  0  0
  8 10  2  0  0  0  0
  9 12  1  0  0  0  0
 10 13  1  0  0  0  0
 10  9  1  0  0  0  0
 11 14  1  0  0  0  0
 11 15  1  0  0  0  0
 11  8  1  0  0  0  0
 12 18  1  0  0  0  0
 12 19  1  0  0  0  0
 16 11  1  0  0  0  0
 17 12  1  0  0  0  0
M  END
