1
 OpenBabel05122313063D

 26 29  0  0  0  0  0  0  0  0999 V2000
    1.8174   -1.1724    0.9780 N   0  0  0  0  0  2  0  0  0  0  0  0
    1.1520    1.0501   -0.4198 N   0  0  0  0  0  0  0  0  0  0  0  0
    6.3626   -0.9358   -0.6823 N   0  0  0  0  0  0  0  0  0  0  0  0
    5.6926    1.4175   -2.0891 N   0  0  0  0  0  2  0  0  0  0  0  0
    2.0935   -2.2717    1.6853 C   0  0  0  0  0  0  0  0  0  0  0  0
    1.2393   -2.6585    2.2744 H   0  0  0  0  0  0  0  0  0  0  0  0
    3.3758   -2.8624    1.6776 C   0  0  0  0  0  0  0  0  0  0  0  0
    3.5625   -3.7677    2.2729 H   0  0  0  0  0  0  0  0  0  0  0  0
    4.3880   -2.2760    0.9208 C   0  0  0  0  0  0  0  0  0  0  0  0
    5.4089   -2.6829    0.8819 H   0  0  0  0  0  0  0  0  0  0  0  0
    4.1031   -1.1079    0.1763 C   0  0  0  0  0  0  0  0  0  0  0  0
    5.1107   -0.4262   -0.6302 C   0  0  0  0  0  0  0  0  0  0  0  0
    4.7704    0.7655   -1.3445 C   0  0  0  0  0  0  0  0  0  0  0  0
    3.4121    1.2959   -1.2778 C   0  0  0  0  0  0  0  0  0  0  0  0
    3.0254    2.4763   -1.9524 C   0  0  0  0  0  0  0  0  0  0  0  0
    3.7800    3.0117   -2.5462 H   0  0  0  0  0  0  0  0  0  0  0  0
    1.7095    2.9185   -1.8354 C   0  0  0  0  0  0  0  0  0  0  0  0
    1.3713    3.8358   -2.3388 H   0  0  0  0  0  0  0  0  0  0  0  0
    0.8047    2.1670   -1.0538 C   0  0  0  0  0  0  0  0  0  0  0  0
   -0.2430    2.4891   -0.9297 H   0  0  0  0  0  0  0  0  0  0  0  0
    2.7833   -0.5887    0.2342 C   0  0  0  0  0  0  0  0  0  0  0  0
    2.4276    0.6172   -0.5107 C   0  0  0  0  0  0  0  0  0  0  0  0
    6.9193    0.9022   -2.1240 C   0  0  0  0  0  0  0  0  0  0  0  0
    7.6775    1.4310   -2.7284 H   0  0  0  0  0  0  0  0  0  0  0  0
    7.2551   -0.2788   -1.4195 C   0  0  0  0  0  0  0  0  0  0  0  0
    8.2795   -0.6889   -1.4654 H   0  0  0  0  0  0  0  0  0  0  0  0
  1  5  1  0  0  0  0
  3 12  2  0  0  0  0
  4 13  1  0  0  0  0
  5  6  1  0  0  0  0
  7  5  2  0  0  0  0
  7  8  1  0  0  0  0
  9  7  1  0  0  0  0
 10  9  1  0  0  0  0
 11 21  1  0  0  0  0
 11  9  2  0  0  0  0
 12 11  1  0  0  0  0
 13 14  2  0  0  0  0
 13 12  1  0  0  0  0
 14 22  1  0  0  0  0
 15 17  2  0  0  0  0
 15 14  1  0  0  0  0
 16 15  1  0  0  0  0
 17 19  1  0  0  0  0
 18 17  1  0  0  0  0
 19 20  1  0  0  0  0
 19  2  2  0  0  0  0
 21  1  1  0  0  0  0
 22  2  1  0  0  0  0
 22 21  2  0  0  0  0
 23  4  1  0  0  0  0
 23 25  2  0  0  0  0
 24 23  1  0  0  0  0
 25  3  1  0  0  0  0
 26 25  1  0  0  0  0
M  END
