1
q = 0.0, confidence = 1.0

 26 26  0  0  1  0  0  0  0  0999 V2000
   -1.0967    0.2675   -1.1083 N   0  0  0  0  0  0  0  0  0  0  0  0
   -0.7304    0.5393   -2.0322 H   0  0  0  0  0  0  0  0  0  0  0  0
   -1.4217   -0.7037   -1.2169 H   0  0  0  0  0  0  0  0  0  0  0  0
   -2.0749    2.4937   -1.4273 C   0  0  0  0  0  0  0  0  0  0  0  0
   -2.2555    2.4105   -2.5210 H   0  0  0  0  0  0  0  0  0  0  0  0
   -1.0475    2.8750   -1.2686 H   0  0  0  0  0  0  0  0  0  0  0  0
   -2.7733    3.2482   -1.0208 H   0  0  0  0  0  0  0  0  0  0  0  0
   -2.2466    1.1432   -0.7350 C   0  0  1  0  0  0  0  0  0  0  0  0
   -2.1798    1.3036    0.3613 H   0  0  0  0  0  0  0  0  0  0  0  0
   -3.5997    0.4493   -1.0151 C   0  0  0  0  0  0  0  0  0  0  0  0
   -3.6673    0.2552   -2.1140 H   0  0  0  0  0  0  0  0  0  0  0  0
   -4.7830    1.3547   -0.6221 C   0  0  0  0  0  0  0  0  0  0  0  0
   -4.7560    2.2964   -1.2064 H   0  0  0  0  0  0  0  0  0  0  0  0
   -4.6615    1.6441    0.4469 H   0  0  0  0  0  0  0  0  0  0  0  0
   -6.1425    0.6701   -0.8124 C   0  0  0  0  0  0  0  0  0  0  0  0
   -6.9560    1.3531   -0.4901 H   0  0  0  0  0  0  0  0  0  0  0  0
   -6.3066    0.4809   -1.8974 H   0  0  0  0  0  0  0  0  0  0  0  0
   -6.2194   -0.6584   -0.0538 C   0  0  0  0  0  0  0  0  0  0  0  0
   -6.1569   -0.4608    1.0398 H   0  0  0  0  0  0  0  0  0  0  0  0
   -7.1976   -1.1530   -0.2290 H   0  0  0  0  0  0  0  0  0  0  0  0
   -5.0679   -1.5811   -0.4653 C   0  0  0  0  0  0  0  0  0  0  0  0
   -5.1915   -1.8644   -1.5350 H   0  0  0  0  0  0  0  0  0  0  0  0
   -5.0986   -2.5288    0.1127 H   0  0  0  0  0  0  0  0  0  0  0  0
   -3.7066   -0.9016   -0.2759 C   0  0  0  0  0  0  0  0  0  0  0  0
   -2.9114   -1.6041   -0.6102 H   0  0  0  0  0  0  0  0  0  0  0  0
   -3.5144   -0.7245    0.8060 H   0  0  0  0  0  0  0  0  0  0  0  0
  1  8  1  0  0  0  0
  2  1  1  0  0  0  0
  3  1  1  0  0  0  0
  4  6  1  0  0  0  0
  4  7  1  0  0  0  0
  4  8  1  0  0  0  0
  5  4  1  0  0  0  0
  8  9  1  1  0  0  0
 10  8  1  0  0  0  0
 10 12  1  0  0  0  0
 10 24  1  0  0  0  0
 11 10  1  0  0  0  0
 12 14  1  0  0  0  0
 13 12  1  0  0  0  0
 15 12  1  0  0  0  0
 15 16  1  0  0  0  0
 15 18  1  0  0  0  0
 17 15  1  0  0  0  0
 18 19  1  0  0  0  0
 20 18  1  0  0  0  0
 21 24  1  0  0  0  0
 21 18  1  0  0  0  0
 21 23  1  0  0  0  0
 22 21  1  0  0  0  0
 24 26  1  0  0  0  0
 25 24  1  0  0  0  0
M  END
