1
 OpenBabel05122313063D

 15 15  0  0  0  0  0  0  0  0999 V2000
    1.0925   -0.1116    0.1184 N   0  0  0  0  0  2  0  0  0  0  0  0
    1.5993    1.1181    0.3784 C   0  0  0  0  0  3  0  0  0  0  0  0
    0.8742    1.8550    0.7540 H   0  0  0  0  0  0  0  0  0  0  0  0
    2.9569    1.4047    0.2301 C   0  0  0  0  0  0  0  0  0  0  0  0
    3.3480    2.4134    0.4236 H   0  0  0  0  0  0  0  0  0  0  0  0
    3.8431    0.3888   -0.1673 C   0  0  0  0  0  0  0  0  0  0  0  0
    3.3061   -0.8874   -0.4184 C   0  0  0  0  0  0  0  0  0  0  0  0
    3.9339   -1.7234   -0.7594 H   0  0  0  0  0  0  0  0  0  0  0  0
    1.9335   -1.1006   -0.2646 C   0  0  0  0  0  0  0  0  0  0  0  0
    1.4713   -2.0871   -0.4127 H   0  0  0  0  0  0  0  0  0  0  0  0
    5.3021    0.7475   -0.3300 C   0  0  0  0  0  0  0  0  0  0  0  0
    5.6586    1.9114   -0.4923 O   0  0  0  0  0  0  0  0  0  0  0  0
    6.1785   -0.3072   -0.3024 N   0  0  0  0  0  0  0  0  0  0  0  0
    7.1732   -0.0786   -0.3295 H   0  0  0  0  0  0  0  0  0  0  0  0
    5.9096   -1.2147    0.0752 H   0  0  0  0  0  0  0  0  0  0  0  0
  1  2  1  0  0  0  0
  2  3  1  0  0  0  0
  4  2  1  0  0  0  0
  4  5  1  0  0  0  0
  6  4  2  0  0  0  0
  7  9  2  0  0  0  0
  7  6  1  0  0  0  0
  8  7  1  0  0  0  0
  9  1  1  0  0  0  0
 10  9  1  0  0  0  0
 11 13  1  0  0  0  0
 11  6  1  0  0  0  0
 12 11  2  0  0  0  0
 13 15  1  0  0  0  0
 14 13  1  0  0  0  0
M  END
