4
 OpenBabel05122313063D

 36 38  0  0  1  0  0  0  0  0999 V2000
   -1.0826   -1.3216    1.9154 N   0  0  0  0  0  0  0  0  0  0  0  0
   -2.4689   -1.1372    2.3421 C   0  0  0  0  0  0  0  0  0  0  0  0
   -0.4548   -0.7095    0.8772 C   0  0  1  0  0  3  0  0  0  0  0  0
    0.8630   -0.9703    0.9362 N   0  0  0  0  0  2  0  0  0  0  0  0
    1.0861   -1.7645    2.0477 C   0  0  0  0  0  0  0  0  0  0  0  0
   -0.1243   -1.9836    2.6640 C   0  0  0  0  0  0  0  0  0  0  0  0
   -1.9307    2.5931   -0.1932 N   0  0  0  0  0  0  0  0  0  0  0  0
   -2.3164    2.7527   -1.5877 C   0  0  0  0  0  0  0  0  0  0  0  0
   -1.4402    1.4714    0.4378 C   0  0  0  0  0  0  0  0  0  0  0  0
   -1.1661    1.7108    1.7196 N   0  0  0  0  0  0  0  0  0  0  0  0
   -1.5012    3.0224    1.9379 C   0  0  0  0  0  0  0  0  0  0  0  0
   -1.9716    3.5891    0.7631 C   0  0  0  0  0  0  0  0  0  0  0  0
   -2.3352   -1.8542   -1.2664 N   0  0  0  0  0  0  0  0  0  0  0  0
   -1.2039   -2.7685   -1.3543 C   0  0  0  0  0  0  0  0  0  0  0  0
   -2.3505   -0.5678   -0.7591 C   0  0  0  0  0  0  0  0  0  0  0  0
   -3.5696   -0.0363   -0.8186 N   0  0  0  0  0  0  0  0  0  0  0  0
   -4.3734   -0.9977   -1.3761 C   0  0  0  0  0  0  0  0  0  0  0  0
   -3.6285   -2.1348   -1.6588 C   0  0  0  0  0  0  0  0  0  0  0  0
   -1.1295    0.1321   -0.1995 C   0  0  0  0  0  0  0  0  0  0  0  0
   -0.1222    0.2555   -1.2471 O   0  0  0  0  0  0  0  0  0  0  0  0
   -0.5369    0.7267   -1.9958 H   0  0  0  0  0  0  0  0  0  0  0  0
   -2.7643   -1.9948    2.9718 H   0  0  0  0  0  0  0  0  0  0  0  0
   -2.5369   -0.1897    2.9110 H   0  0  0  0  0  0  0  0  0  0  0  0
   -3.1385   -1.0681    1.4675 H   0  0  0  0  0  0  0  0  0  0  0  0
    2.0822   -2.1254    2.3228 H   0  0  0  0  0  0  0  0  0  0  0  0
   -0.3860   -2.5445    3.5665 H   0  0  0  0  0  0  0  0  0  0  0  0
   -2.8150    3.7304   -1.7127 H   0  0  0  0  0  0  0  0  0  0  0  0
   -1.4272    2.7431   -2.2539 H   0  0  0  0  0  0  0  0  0  0  0  0
   -3.0273    1.9516   -1.8649 H   0  0  0  0  0  0  0  0  0  0  0  0
   -1.3904    3.4964    2.9203 H   0  0  0  0  0  0  0  0  0  0  0  0
   -2.3288    4.5963    0.5225 H   0  0  0  0  0  0  0  0  0  0  0  0
   -0.3010   -2.2097   -1.6579 H   0  0  0  0  0  0  0  0  0  0  0  0
   -1.0140   -3.2687   -0.3829 H   0  0  0  0  0  0  0  0  0  0  0  0
   -1.4207   -3.5415   -2.1136 H   0  0  0  0  0  0  0  0  0  0  0  0
   -5.4423   -0.8288   -1.5530 H   0  0  0  0  0  0  0  0  0  0  0  0
   -3.8966   -3.0983   -2.1060 H   0  0  0  0  0  0  0  0  0  0  0  0
  1  2  1  0  0  0  0
  1  6  1  0  0  0  0
  2 23  1  0  0  0  0
  2 22  1  0  0  0  0
  3 19  1  6  0  0  0
  3  4  1  0  0  0  0
  3  1  1  0  0  0  0
  4  5  1  0  0  0  0
  5 25  1  0  0  0  0
  5  6  2  0  0  0  0
  6 26  1  0  0  0  0
  7  9  1  0  0  0  0
  7 12  1  0  0  0  0
  8  7  1  0  0  0  0
  9 10  2  0  0  0  0
 10 11  1  0  0  0  0
 11 30  1  0  0  0  0
 12 11  2  0  0  0  0
 13 15  1  0  0  0  0
 14 13  1  0  0  0  0
 14 33  1  0  0  0  0
 15 19  1  0  0  0  0
 16 15  2  0  0  0  0
 17 16  1  0  0  0  0
 18 17  2  0  0  0  0
 18 13  1  0  0  0  0
 19  9  1  0  0  0  0
 20 19  1  0  0  0  0
 21 20  1  0  0  0  0
 24  2  1  0  0  0  0
 27  8  1  0  0  0  0
 28  8  1  0  0  0  0
 29  8  1  0  0  0  0
 31 12  1  0  0  0  0
 32 14  1  0  0  0  0
 34 14  1  0  0  0  0
 35 17  1  0  0  0  0
 36 18  1  0  0  0  0
M  END
