5
 OpenBabel05122313063D

 37 37  0  0  0  0  0  0  0  0999 V2000
    2.7585   -2.3504    0.7657 O   0  0  0  0  0  0  0  0  0  0  0  0
    4.5975   -1.3923   -0.1581 O   0  0  0  0  0  0  0  0  0  0  0  0
    3.0481    1.4647   -1.8480 O   0  0  0  0  0  0  0  0  0  0  0  0
    4.5021    1.3851   -0.0984 O   0  0  0  0  0  0  0  0  0  0  0  0
    0.4581    0.8835   -0.0805 N   0  0  0  0  0  2  0  0  0  0  0  0
    1.3228   -0.0684    0.0363 N   0  0  0  0  0  2  0  0  0  0  0  0
    2.6494   -0.0947   -0.0777 C   0  0  0  0  0  3  0  0  0  0  0  0
    0.8040    2.2911   -0.2153 C   0  0  0  0  0  0  0  0  0  0  0  0
    3.3008   -1.3836    0.2398 C   0  0  0  0  0  0  0  0  0  0  0  0
    5.3361   -2.5987    0.1115 C   0  0  0  0  0  0  0  0  0  0  0  0
    6.7811   -2.3474   -0.2678 C   0  0  0  0  0  0  0  0  0  0  0  0
    3.3983    0.9945   -0.7715 C   0  0  0  0  0  0  0  0  0  0  0  0
    5.3524    2.3458   -0.7650 C   0  0  0  0  0  0  0  0  0  0  0  0
    4.8993    3.7704   -0.4897 C   0  0  0  0  0  0  0  0  0  0  0  0
   -0.3683    3.1657    0.1538 C   0  0  0  0  0  0  0  0  0  0  0  0
   -1.1869    3.7263   -0.8434 C   0  0  0  0  0  0  0  0  0  0  0  0
   -2.3196    4.4783   -0.4988 C   0  0  0  0  0  0  0  0  0  0  0  0
   -2.6446    4.6803    0.8515 C   0  0  0  0  0  0  0  0  0  0  0  0
   -1.8243    4.1398    1.8551 C   0  0  0  0  0  0  0  0  0  0  0  0
   -0.6921    3.3900    1.5055 C   0  0  0  0  0  0  0  0  0  0  0  0
    1.1596    2.4991   -1.2487 H   0  0  0  0  0  0  0  0  0  0  0  0
    1.6739    2.4942    0.4546 H   0  0  0  0  0  0  0  0  0  0  0  0
   -0.9380    3.5561   -1.9027 H   0  0  0  0  0  0  0  0  0  0  0  0
   -2.9572    4.9025   -1.2889 H   0  0  0  0  0  0  0  0  0  0  0  0
   -3.5371    5.2641    1.1231 H   0  0  0  0  0  0  0  0  0  0  0  0
   -2.0680    4.3047    2.9157 H   0  0  0  0  0  0  0  0  0  0  0  0
   -0.0457    2.9709    2.2928 H   0  0  0  0  0  0  0  0  0  0  0  0
    5.2195   -2.8616    1.1842 H   0  0  0  0  0  0  0  0  0  0  0  0
    4.8894   -3.4337   -0.4706 H   0  0  0  0  0  0  0  0  0  0  0  0
    6.8710   -2.0885   -1.3415 H   0  0  0  0  0  0  0  0  0  0  0  0
    7.3883   -3.2544   -0.0778 H   0  0  0  0  0  0  0  0  0  0  0  0
    7.2052   -1.5133    0.3257 H   0  0  0  0  0  0  0  0  0  0  0  0
    6.3642    2.1524   -0.3578 H   0  0  0  0  0  0  0  0  0  0  0  0
    5.3485    2.1321   -1.8530 H   0  0  0  0  0  0  0  0  0  0  0  0
    4.8533    3.9699    0.5995 H   0  0  0  0  0  0  0  0  0  0  0  0
    3.8995    3.9530   -0.9299 H   0  0  0  0  0  0  0  0  0  0  0  0
    5.6099    4.4906   -0.9430 H   0  0  0  0  0  0  0  0  0  0  0  0
  2 10  1  0  0  0  0
  2  9  1  0  0  0  0
  3 12  2  0  0  0  0
  5  6  1  0  0  0  0
  7  6  1  0  0  0  0
  7  9  1  0  0  0  0
  8  5  1  0  0  0  0
  8 15  1  0  0  0  0
  8 22  1  0  0  0  0
  9  1  2  0  0  0  0
 10 28  1  0  0  0  0
 11 31  1  0  0  0  0
 11 10  1  0  0  0  0
 11 32  1  0  0  0  0
 12  4  1  0  0  0  0
 12  7  1  0  0  0  0
 13 14  1  0  0  0  0
 13 33  1  0  0  0  0
 13  4  1  0  0  0  0
 14 35  1  0  0  0  0
 15 20  1  0  0  0  0
 16 17  1  0  0  0  0
 16 15  2  0  0  0  0
 17 18  2  0  0  0  0
 18 25  1  0  0  0  0
 18 19  1  0  0  0  0
 19 26  1  0  0  0  0
 20 19  2  0  0  0  0
 20 27  1  0  0  0  0
 21  8  1  0  0  0  0
 23 16  1  0  0  0  0
 24 17  1  0  0  0  0
 29 10  1  0  0  0  0
 30 11  1  0  0  0  0
 34 13  1  0  0  0  0
 36 14  1  0  0  0  0
 37 14  1  0  0  0  0
M  END
