2
 OpenBabel05122313063D

 24 23  0  0  0  0  0  0  0  0999 V2000
   -2.6544   -0.8627   -0.2228 N   0  0  0  0  0  0  0  0  0  0  0  0
   -0.3643    0.3088   -1.8795 N   0  0  0  0  0  0  0  0  0  0  0  0
   -2.5519   -0.8738   -1.6738 C   0  0  0  0  0  0  0  0  0  0  0  0
   -2.6932   -2.1976    0.3771 C   0  0  0  0  0  0  0  0  0  0  0  0
   -3.6618    0.0802    0.2659 C   0  0  0  0  0  0  0  0  0  0  0  0
   -1.8000    0.3334   -2.2415 C   0  0  0  0  0  0  0  0  0  0  0  0
    0.0899    1.1933   -2.1485 H   0  0  0  0  0  0  0  0  0  0  0  0
    0.1205   -0.4596   -2.3675 H   0  0  0  0  0  0  0  0  0  0  0  0
   -2.0126   -1.7971   -1.9751 H   0  0  0  0  0  0  0  0  0  0  0  0
   -3.5515   -0.9133   -2.1800 H   0  0  0  0  0  0  0  0  0  0  0  0
   -3.9580   -3.0274    0.1209 C   0  0  0  0  0  0  0  0  0  0  0  0
   -1.7961   -2.7400    0.0122 H   0  0  0  0  0  0  0  0  0  0  0  0
   -2.5471   -2.0844    1.4733 H   0  0  0  0  0  0  0  0  0  0  0  0
   -3.6063    0.3225    1.7702 C   0  0  0  0  0  0  0  0  0  0  0  0
   -4.6979   -0.2365   -0.0283 H   0  0  0  0  0  0  0  0  0  0  0  0
   -3.4904    1.0529   -0.2380 H   0  0  0  0  0  0  0  0  0  0  0  0
   -2.2272    1.2835   -1.8639 H   0  0  0  0  0  0  0  0  0  0  0  0
   -1.9124    0.3417   -3.3481 H   0  0  0  0  0  0  0  0  0  0  0  0
   -4.1259   -3.1952   -0.9629 H   0  0  0  0  0  0  0  0  0  0  0  0
   -4.8672   -2.5420    0.5309 H   0  0  0  0  0  0  0  0  0  0  0  0
   -3.8687   -4.0237    0.5993 H   0  0  0  0  0  0  0  0  0  0  0  0
   -3.9080   -0.5652    2.3621 H   0  0  0  0  0  0  0  0  0  0  0  0
   -4.2856    1.1538    2.0417 H   0  0  0  0  0  0  0  0  0  0  0  0
   -2.5810    0.6184    2.0693 H   0  0  0  0  0  0  0  0  0  0  0  0
  1  5  1  0  0  0  0
  1  4  1  0  0  0  0
  3  1  1  0  0  0  0
  4 13  1  0  0  0  0
  5 14  1  0  0  0  0
  6  2  1  0  0  0  0
  6 17  1  0  0  0  0
  6  3  1  0  0  0  0
  7  2  1  0  0  0  0
  8  2  1  0  0  0  0
  9  3  1  0  0  0  0
 10  3  1  0  0  0  0
 11  4  1  0  0  0  0
 11 20  1  0  0  0  0
 11 21  1  0  0  0  0
 12  4  1  0  0  0  0
 14 23  1  0  0  0  0
 14 24  1  0  0  0  0
 14 22  1  0  0  0  0
 15  5  1  0  0  0  0
 16  5  1  0  0  0  0
 18  6  1  0  0  0  0
 19 11  1  0  0  0  0
M  END
