1
q = 0.0, confidence = 0.954

 26 27  0  0  0  0  0  0  0  0999 V2000
    1.2780   -1.5069   -0.8387 N   0  0  0  0  0  0  0  0  0  0  0  0
    3.7213   -0.3532   -0.1480 N   0  0  0  0  0  0  0  0  0  0  0  0
    3.0069    0.2691   -0.5608 H   0  0  0  0  0  0  0  0  0  0  0  0
    2.0431   -2.0584    0.2581 C   0  0  0  0  0  0  0  0  0  0  0  0
    1.5296   -3.1282    0.9998 C   0  0  0  0  0  0  0  0  0  0  0  0
    0.5568   -3.5590    0.7151 H   0  0  0  0  0  0  0  0  0  0  0  0
    2.2424   -3.6363    2.0938 C   0  0  0  0  0  0  0  0  0  0  0  0
    1.8403   -4.4824    2.6687 H   0  0  0  0  0  0  0  0  0  0  0  0
    3.4653   -3.0418    2.4460 C   0  0  0  0  0  0  0  0  0  0  0  0
    4.0289   -3.4144    3.3144 H   0  0  0  0  0  0  0  0  0  0  0  0
    3.9723   -1.9595    1.7191 C   0  0  0  0  0  0  0  0  0  0  0  0
    4.9108   -1.4814    2.0292 H   0  0  0  0  0  0  0  0  0  0  0  0
    3.2768   -1.4389    0.6011 C   0  0  0  0  0  0  0  0  0  0  0  0
    5.0233    0.1601   -0.2332 C   0  0  0  0  0  0  0  0  0  0  0  0
    5.1810    1.5362   -0.5235 C   0  0  0  0  0  0  0  0  0  0  0  0
    4.2824    2.1607   -0.6435 H   0  0  0  0  0  0  0  0  0  0  0  0
    6.4587    2.0874   -0.6701 C   0  0  0  0  0  0  0  0  0  0  0  0
    6.5585    3.1596   -0.8984 H   0  0  0  0  0  0  0  0  0  0  0  0
    7.6049    1.2892   -0.5197 C   0  0  0  0  0  0  0  0  0  0  0  0
    8.6082    1.7273   -0.6253 H   0  0  0  0  0  0  0  0  0  0  0  0
    7.4511   -0.0784   -0.2422 C   0  0  0  0  0  0  0  0  0  0  0  0
    8.3380   -0.7229   -0.1415 H   0  0  0  0  0  0  0  0  0  0  0  0
    6.1774   -0.6472   -0.1068 C   0  0  0  0  0  0  0  0  0  0  0  0
    6.0766   -1.7267    0.0715 H   0  0  0  0  0  0  0  0  0  0  0  0
    0.6909   -2.2262   -1.2861 H   0  0  0  0  0  0  0  0  0  0  0  0
    1.9099   -1.1379   -1.5748 H   0  0  0  0  0  0  0  0  0  0  0  0
  1  4  1  0  0  0  0
  2 13  1  0  0  0  0
  3  2  1  0  0  0  0
  4 13  2  0  0  0  0
  4  5  1  0  0  0  0
  5  7  2  0  0  0  0
  6  5  1  0  0  0  0
  7  9  1  0  0  0  0
  7  8  1  0  0  0  0
  9 10  1  0  0  0  0
 11 12  1  0  0  0  0
 11  9  2  0  0  0  0
 13 11  1  0  0  0  0
 14  2  1  0  0  0  0
 14 23  1  0  0  0  0
 15 14  2  0  0  0  0
 16 15  1  0  0  0  0
 17 15  1  0  0  0  0
 17 19  2  0  0  0  0
 18 17  1  0  0  0  0
 19 21  1  0  0  0  0
 20 19  1  0  0  0  0
 21 22  1  0  0  0  0
 21 23  2  0  0  0  0
 23 24  1  0  0  0  0
 25  1  1  0  0  0  0
 26  1  1  0  0  0  0
M  END
