1
 OpenBabel05122313063D

 29 29  0  0  0  0  0  0  0  0999 V2000
   -0.9510   -0.0000   -0.4222 N   0  0  0  0  0  0  0  0  0  0  0  0
   -1.0097   -0.0000   -1.4540 H   0  0  0  0  0  0  0  0  0  0  0  0
   -1.6114   -1.3138   -0.0156 C   0  0  0  0  0  0  0  0  0  0  0  0
   -3.1237   -1.2493   -0.3271 C   0  0  0  0  0  0  0  0  0  0  0  0
   -3.2577   -1.2725   -1.4322 H   0  0  0  0  0  0  0  0  0  0  0  0
   -3.5990   -2.1735    0.0611 H   0  0  0  0  0  0  0  0  0  0  0  0
   -3.8069    0.0001    0.2265 C   0  0  0  0  0  0  0  0  0  0  0  0
   -4.8808    0.0001   -0.0507 H   0  0  0  0  0  0  0  0  0  0  0  0
   -3.7787    0.0001    1.3367 H   0  0  0  0  0  0  0  0  0  0  0  0
   -1.3540   -1.6343    1.4634 C   0  0  0  0  0  0  0  0  0  0  0  0
   -0.2763   -1.5213    1.6988 H   0  0  0  0  0  0  0  0  0  0  0  0
   -1.6476   -2.6835    1.6623 H   0  0  0  0  0  0  0  0  0  0  0  0
   -1.9285   -0.9923    2.1549 H   0  0  0  0  0  0  0  0  0  0  0  0
   -0.9615   -2.4047   -0.8791 C   0  0  0  0  0  0  0  0  0  0  0  0
    0.1195   -2.5024   -0.6512 H   0  0  0  0  0  0  0  0  0  0  0  0
   -1.0683   -2.1805   -1.9614 H   0  0  0  0  0  0  0  0  0  0  0  0
   -1.4542   -3.3779   -0.6869 H   0  0  0  0  0  0  0  0  0  0  0  0
   -3.1236    1.2494   -0.3271 C   0  0  0  0  0  0  0  0  0  0  0  0
   -1.6113    1.3138   -0.0156 C   0  0  0  0  0  0  0  0  0  0  0  0
   -1.3539    1.6342    1.4635 C   0  0  0  0  0  0  0  0  0  0  0  0
   -0.2762    1.5213    1.6987 H   0  0  0  0  0  0  0  0  0  0  0  0
   -1.6476    2.6834    1.6623 H   0  0  0  0  0  0  0  0  0  0  0  0
   -1.9283    0.9923    2.1549 H   0  0  0  0  0  0  0  0  0  0  0  0
   -0.9614    2.4047   -0.8791 C   0  0  0  0  0  0  0  0  0  0  0  0
    0.1196    2.5023   -0.6511 H   0  0  0  0  0  0  0  0  0  0  0  0
   -1.0682    2.1805   -1.9614 H   0  0  0  0  0  0  0  0  0  0  0  0
   -1.4541    3.3778   -0.6869 H   0  0  0  0  0  0  0  0  0  0  0  0
   -3.2576    1.2725   -1.4322 H   0  0  0  0  0  0  0  0  0  0  0  0
   -3.5989    2.1736    0.0611 H   0  0  0  0  0  0  0  0  0  0  0  0
  1  3  1  0  0  0  0
  1 19  1  0  0  0  0
  2  1  1  0  0  0  0
  3 10  1  0  0  0  0
  4  3  1  0  0  0  0
  4  6  1  0  0  0  0
  4  7  1  0  0  0  0
  5  4  1  0  0  0  0
  7  9  1  0  0  0  0
  8  7  1  0  0  0  0
 10 12  1  0  0  0  0
 10 11  1  0  0  0  0
 10 13  1  0  0  0  0
 14 17  1  0  0  0  0
 14 15  1  0  0  0  0
 14  3  1  0  0  0  0
 16 14  1  0  0  0  0
 18 19  1  0  0  0  0
 18 29  1  0  0  0  0
 18  7  1  0  0  0  0
 19 20  1  0  0  0  0
 20 22  1  0  0  0  0
 20 21  1  0  0  0  0
 20 23  1  0  0  0  0
 24 27  1  0  0  0  0
 24 25  1  0  0  0  0
 24 19  1  0  0  0  0
 26 24  1  0  0  0  0
 28 18  1  0  0  0  0
M  END
