1
 OpenBabel05122313063D

 20 20  0  0  0  0  0  0  0  0999 V2000
   -1.4566    0.0001   -1.4952 N   0  0  0  0  0  0  0  0  0  0  0  0
   -1.2896   -0.8221   -2.0984 H   0  0  0  0  0  0  0  0  0  0  0  0
   -1.2893    0.8226   -2.0980 H   0  0  0  0  0  0  0  0  0  0  0  0
   -2.8963    0.0002   -1.0571 C   0  0  0  0  0  0  0  0  0  0  0  0
   -3.5078    0.0004   -1.9881 H   0  0  0  0  0  0  0  0  0  0  0  0
   -3.2170   -1.2679   -0.2640 C   0  0  0  0  0  0  0  0  0  0  0  0
   -2.9993   -2.1706   -0.8748 H   0  0  0  0  0  0  0  0  0  0  0  0
   -2.5409   -1.3066    0.6215 H   0  0  0  0  0  0  0  0  0  0  0  0
   -4.6807   -1.2668    0.2002 C   0  0  0  0  0  0  0  0  0  0  0  0
   -4.8791   -2.1762    0.8020 H   0  0  0  0  0  0  0  0  0  0  0  0
   -5.3461   -1.3328   -0.6887 H   0  0  0  0  0  0  0  0  0  0  0  0
   -5.0142    0.0002    0.9978 C   0  0  0  0  0  0  0  0  0  0  0  0
   -6.0847    0.0002    1.2858 H   0  0  0  0  0  0  0  0  0  0  0  0
   -4.4359   -0.0000    1.9487 H   0  0  0  0  0  0  0  0  0  0  0  0
   -4.6805    1.2672    0.2006 C   0  0  0  0  0  0  0  0  0  0  0  0
   -4.8788    2.1765    0.8025 H   0  0  0  0  0  0  0  0  0  0  0  0
   -5.3459    1.3336   -0.6883 H   0  0  0  0  0  0  0  0  0  0  0  0
   -3.2168    1.2682   -0.2637 C   0  0  0  0  0  0  0  0  0  0  0  0
   -2.9989    2.1710   -0.8742 H   0  0  0  0  0  0  0  0  0  0  0  0
   -2.5407    1.3065    0.6219 H   0  0  0  0  0  0  0  0  0  0  0  0
  1  4  1  0  0  0  0
  2  1  1  0  0  0  0
  3  1  1  0  0  0  0
  4  6  1  0  0  0  0
  4 18  1  0  0  0  0
  5  4  1  0  0  0  0
  6  9  1  0  0  0  0
  6  8  1  0  0  0  0
  7  6  1  0  0  0  0
  9 10  1  0  0  0  0
  9 12  1  0  0  0  0
 11  9  1  0  0  0  0
 12 13  1  0  0  0  0
 12 14  1  0  0  0  0
 15 16  1  0  0  0  0
 15 12  1  0  0  0  0
 17 15  1  0  0  0  0
 18 15  1  0  0  0  0
 18 20  1  0  0  0  0
 19 18  1  0  0  0  0
M  END
