2
 OpenBabel05122313063D

 46 48  0  0  0  0  0  0  0  0999 V2000
    1.2843    1.8010   -1.0312 S   0  0  0  0  0  0  0  0  0  0  0  0
    0.4941   -0.2277    0.2669 N   0  0  0  0  0  2  0  0  0  0  0  0
   -1.3149    1.2809   -0.2339 N   0  0  0  0  0  0  0  0  0  0  0  0
   -3.5282    0.4783   -0.2683 N   0  0  0  0  0  0  0  0  0  0  0  0
    0.0356    0.9072   -0.2334 C   0  0  0  0  0  0  0  0  0  0  0  0
   -2.2730    0.2826   -0.4440 C   0  0  0  0  0  0  0  0  0  0  0  0
   -0.1682   -1.1817    1.0550 C   0  0  0  0  0  0  0  0  0  0  0  0
   -0.0300   -2.5488    0.7261 C   0  0  0  0  0  0  0  0  0  0  0  0
   -0.6495   -3.5224    1.5203 C   0  0  0  0  0  0  0  0  0  0  0  0
   -1.4062   -3.1513    2.6462 C   0  0  0  0  0  0  0  0  0  0  0  0
   -1.5424   -1.7916    2.9716 C   0  0  0  0  0  0  0  0  0  0  0  0
   -0.9277   -0.8062    2.1867 C   0  0  0  0  0  0  0  0  0  0  0  0
   -1.6576    2.6541   -0.0206 C   0  0  0  0  0  0  0  0  0  0  0  0
   -0.9966    3.3810    0.9847 C   0  0  0  0  0  0  0  0  0  0  0  0
   -1.3019    4.7327    1.1903 C   0  0  0  0  0  0  0  0  0  0  0  0
   -2.2775    5.3874    0.4147 C   0  0  0  0  0  0  0  0  0  0  0  0
   -2.6231    6.8372    0.6410 C   0  0  0  0  0  0  0  0  0  0  0  0
   -2.9337    4.6376   -0.5857 C   0  0  0  0  0  0  0  0  0  0  0  0
   -2.6325    3.2913   -0.8104 C   0  0  0  0  0  0  0  0  0  0  0  0
   -4.4160   -0.5949   -0.4137 C   0  0  0  0  0  0  0  0  0  0  0  0
   -4.1122   -1.9103    0.0122 C   0  0  0  0  0  0  0  0  0  0  0  0
   -5.0530   -2.9378   -0.1340 C   0  0  0  0  0  0  0  0  0  0  0  0
   -6.3200   -2.7043   -0.7039 C   0  0  0  0  0  0  0  0  0  0  0  0
   -7.3330   -3.8108   -0.8589 C   0  0  0  0  0  0  0  0  0  0  0  0
   -6.6202   -1.3860   -1.1126 C   0  0  0  0  0  0  0  0  0  0  0  0
   -5.6969   -0.3482   -0.9606 C   0  0  0  0  0  0  0  0  0  0  0  0
   -1.8257   -0.6668   -0.8044 H   0  0  0  0  0  0  0  0  0  0  0  0
    0.5449   -2.8037   -0.1777 H   0  0  0  0  0  0  0  0  0  0  0  0
   -0.5476   -4.5850    1.2512 H   0  0  0  0  0  0  0  0  0  0  0  0
   -1.8928   -3.9191    3.2658 H   0  0  0  0  0  0  0  0  0  0  0  0
   -2.1354   -1.4910    3.8486 H   0  0  0  0  0  0  0  0  0  0  0  0
   -1.0331    0.2587    2.4405 H   0  0  0  0  0  0  0  0  0  0  0  0
   -0.2317    2.8856    1.6009 H   0  0  0  0  0  0  0  0  0  0  0  0
   -0.7725    5.2907    1.9786 H   0  0  0  0  0  0  0  0  0  0  0  0
   -2.5263    7.4266   -0.2943 H   0  0  0  0  0  0  0  0  0  0  0  0
   -1.9679    7.2999    1.4041 H   0  0  0  0  0  0  0  0  0  0  0  0
   -3.6733    6.9517    0.9836 H   0  0  0  0  0  0  0  0  0  0  0  0
   -3.6977    5.1254   -1.2116 H   0  0  0  0  0  0  0  0  0  0  0  0
   -3.1539    2.7256   -1.5924 H   0  0  0  0  0  0  0  0  0  0  0  0
   -3.1445   -2.1199    0.4919 H   0  0  0  0  0  0  0  0  0  0  0  0
   -4.7964   -3.9516    0.2138 H   0  0  0  0  0  0  0  0  0  0  0  0
   -7.6446   -3.9298   -1.9180 H   0  0  0  0  0  0  0  0  0  0  0  0
   -8.2558   -3.6029   -0.2768 H   0  0  0  0  0  0  0  0  0  0  0  0
   -6.9305   -4.7833   -0.5147 H   0  0  0  0  0  0  0  0  0  0  0  0
   -7.6069   -1.1696   -1.5534 H   0  0  0  0  0  0  0  0  0  0  0  0
   -5.9415    0.6787   -1.2701 H   0  0  0  0  0  0  0  0  0  0  0  0
  1  5  2  0  0  0  0
  2  7  1  0  0  0  0
  3  5  1  0  0  0  0
  3 13  1  0  0  0  0
  5  2  1  0  0  0  0
  6  4  2  0  0  0  0
  6  3  1  0  0  0  0
  7 12  1  0  0  0  0
  8  7  2  0  0  0  0
  8  9  1  0  0  0  0
  9 10  2  0  0  0  0
 10 11  1  0  0  0  0
 10 30  1  0  0  0  0
 11 31  1  0  0  0  0
 12 32  1  0  0  0  0
 12 11  2  0  0  0  0
 13 14  1  0  0  0  0
 14 15  2  0  0  0  0
 14 33  1  0  0  0  0
 15 34  1  0  0  0  0
 16 17  1  0  0  0  0
 16 15  1  0  0  0  0
 17 37  1  0  0  0  0
 17 36  1  0  0  0  0
 18 16  2  0  0  0  0
 19 18  1  0  0  0  0
 19 13  2  0  0  0  0
 20  4  1  0  0  0  0
 20 21  1  0  0  0  0
 21 40  1  0  0  0  0
 22 21  2  0  0  0  0
 22 41  1  0  0  0  0
 23 22  1  0  0  0  0
 24 23  1  0  0  0  0
 24 44  1  0  0  0  0
 24 43  1  0  0  0  0
 25 26  1  0  0  0  0
 25 23  2  0  0  0  0
 26 20  2  0  0  0  0
 27  6  1  0  0  0  0
 28  8  1  0  0  0  0
 29  9  1  0  0  0  0
 35 17  1  0  0  0  0
 38 18  1  0  0  0  0
 39 19  1  0  0  0  0
 42 24  1  0  0  0  0
 45 25  1  0  0  0  0
 46 26  1  0  0  0  0
M  END
