2
 OpenBabel05122313063D

 22 22  0  0  0  0  0  0  0  0999 V2000
    1.8884    4.6914   -0.4059 O   0  0  0  0  0  0  0  0  0  0  0  0
   -2.2802    1.2707   -0.0813 N   0  0  0  0  0  2  0  0  0  0  0  0
    0.9181    3.5259    1.3130 N   0  0  0  0  0  0  0  0  0  0  0  0
    0.9994    2.7041    1.9176 H   0  0  0  0  0  0  0  0  0  0  0  0
    2.5003    0.6096    1.8216 N   0  0  0  0  0  0  0  0  0  0  0  0
    2.7992    1.5359    1.1667 C   0  0  0  0  0  0  0  0  0  0  0  0
    3.0312    2.7039    0.3377 C   0  0  0  0  0  0  0  0  0  0  0  0
    4.0040    3.1747    0.5838 H   0  0  0  0  0  0  0  0  0  0  0  0
    3.0967    2.3543   -0.7216 H   0  0  0  0  0  0  0  0  0  0  0  0
    1.8977    3.7539    0.3774 C   0  0  0  0  0  0  0  0  0  0  0  0
   -0.3438    4.2308    1.2835 C   0  0  0  0  0  0  0  0  0  0  0  0
   -0.5356    4.7646    2.2393 H   0  0  0  0  0  0  0  0  0  0  0  0
   -0.2360    5.0080    0.4946 H   0  0  0  0  0  0  0  0  0  0  0  0
   -1.5041    3.3059    0.9697 C   0  0  0  0  0  0  0  0  0  0  0  0
   -1.2957    2.1386    0.2181 C   0  0  0  0  0  3  0  0  0  0  0  0
   -0.2964    1.8767   -0.1628 H   0  0  0  0  0  0  0  0  0  0  0  0
   -3.5380    1.5159    0.3398 C   0  0  0  0  0  0  0  0  0  0  0  0
   -4.3085    0.7718    0.0773 H   0  0  0  0  0  0  0  0  0  0  0  0
   -3.8422    2.6613    1.0869 C   0  0  0  0  0  0  0  0  0  0  0  0
   -4.8755    2.8347    1.4191 H   0  0  0  0  0  0  0  0  0  0  0  0
   -2.8168    3.5606    1.4085 C   0  0  0  0  0  0  0  0  0  0  0  0
   -3.0331    4.4598    2.0073 H   0  0  0  0  0  0  0  0  0  0  0  0
  1 10  2  0  0  0  0
  2 15  1  0  0  0  0
  2 17  1  0  0  0  0
  3  4  1  0  0  0  0
  6  5  3  0  0  0  0
  7 10  1  0  0  0  0
  7  8  1  0  0  0  0
  7  6  1  0  0  0  0
  9  7  1  0  0  0  0
 10  3  1  0  0  0  0
 11  3  1  0  0  0  0
 11 12  1  0  0  0  0
 13 11  1  0  0  0  0
 14 11  1  0  0  0  0
 14 21  2  0  0  0  0
 15 14  1  0  0  0  0
 16 15  1  0  0  0  0
 17 19  2  0  0  0  0
 18 17  1  0  0  0  0
 19 21  1  0  0  0  0
 19 20  1  0  0  0  0
 21 22  1  0  0  0  0
M  END
