5
 OpenBabel05122313063D

 37 38  0  0  1  0  0  0  0  0999 V2000
   -3.6426    1.1003   -0.3834 P   0  0  0  0  0  0  0  0  0  0  0  0
   -3.2245    0.8910    1.1637 O   0  0  0  0  0  0  0  0  0  0  0  0
   -5.2967    1.0222   -0.3290 O   0  0  0  0  0  0  0  0  0  0  0  0
   -3.1595    2.3528   -1.0771 O   0  0  0  0  0  0  0  0  0  0  0  0
   -0.7318   -2.1103   -0.1416 N   0  0  0  0  0  2  0  0  0  0  0  0
    0.2677   -3.0028   -0.0600 C   0  0  0  0  0  0  0  0  0  0  0  0
    1.2814   -2.6529   -0.3276 H   0  0  0  0  0  0  0  0  0  0  0  0
    0.0773   -4.3252    0.3932 C   0  0  0  0  0  0  0  0  0  0  0  0
    0.9457   -4.9960    0.4420 H   0  0  0  0  0  0  0  0  0  0  0  0
   -1.1803   -4.7052    0.8214 C   0  0  0  0  0  0  0  0  0  0  0  0
   -1.3623   -5.7000    1.2571 H   0  0  0  0  0  0  0  0  0  0  0  0
   -2.2747   -3.8096    0.6757 C   0  0  0  0  0  0  0  0  0  0  0  0
   -2.0422   -2.5039    0.0960 C   0  0  2  0  0  3  0  0  0  0  0  0
   -3.1818   -1.6975   -0.2475 C   0  0  0  0  0  0  0  0  0  0  0  0
   -4.4484   -2.1341    0.1505 C   0  0  0  0  0  0  0  0  0  0  0  0
   -5.3104   -1.4948   -0.0941 H   0  0  0  0  0  0  0  0  0  0  0  0
   -4.6583   -3.3541    0.8311 C   0  0  0  0  0  0  0  0  0  0  0  0
   -5.6759   -3.6427    1.1334 H   0  0  0  0  0  0  0  0  0  0  0  0
   -3.5875   -4.1994    1.0605 C   0  0  0  0  0  0  0  0  0  0  0  0
   -3.7274   -5.1875    1.5246 H   0  0  0  0  0  0  0  0  0  0  0  0
   -3.1022   -0.4737   -1.1261 C   0  0  0  0  0  0  0  0  0  0  0  0
   -3.7571   -0.6141   -2.0114 H   0  0  0  0  0  0  0  0  0  0  0  0
   -2.0794   -0.2912   -1.5148 H   0  0  0  0  0  0  0  0  0  0  0  0
   -3.0608    2.0163    2.0564 C   0  0  0  0  0  0  0  0  0  0  0  0
   -2.9069    2.9372    1.4537 H   0  0  0  0  0  0  0  0  0  0  0  0
   -2.1244    1.7976    2.6084 H   0  0  0  0  0  0  0  0  0  0  0  0
   -4.2592    2.1391    2.9797 C   0  0  0  0  0  0  0  0  0  0  0  0
   -4.1045    2.9680    3.7003 H   0  0  0  0  0  0  0  0  0  0  0  0
   -4.4036    1.2026    3.5541 H   0  0  0  0  0  0  0  0  0  0  0  0
   -5.1869    2.3397    2.4075 H   0  0  0  0  0  0  0  0  0  0  0  0
   -6.0683    1.8604   -1.2150 C   0  0  0  0  0  0  0  0  0  0  0  0
   -7.0909    1.8657   -0.7861 H   0  0  0  0  0  0  0  0  0  0  0  0
   -5.6663    2.8947   -1.1783 H   0  0  0  0  0  0  0  0  0  0  0  0
   -6.0714    1.3464   -2.6459 C   0  0  0  0  0  0  0  0  0  0  0  0
   -6.7447    1.9635   -3.2749 H   0  0  0  0  0  0  0  0  0  0  0  0
   -6.4214    0.2953   -2.6955 H   0  0  0  0  0  0  0  0  0  0  0  0
   -5.0541    1.4093   -3.0824 H   0  0  0  0  0  0  0  0  0  0  0  0
  1  3  1  0  0  0  0
  1  2  1  0  0  0  0
  2 24  1  0  0  0  0
  4  1  2  0  0  0  0
  5  6  1  0  0  0  0
  5 13  1  0  0  0  0
  6  8  2  0  0  0  0
  7  6  1  0  0  0  0
  8  9  1  0  0  0  0
  8 10  1  0  0  0  0
 10 11  1  0  0  0  0
 12 10  2  0  0  0  0
 12 19  1  0  0  0  0
 13 14  1  6  0  0  0
 13 12  1  0  0  0  0
 14 15  2  0  0  0  0
 15 17  1  0  0  0  0
 16 15  1  0  0  0  0
 17 19  2  0  0  0  0
 17 18  1  0  0  0  0
 19 20  1  0  0  0  0
 21  1  1  0  0  0  0
 21 14  1  0  0  0  0
 22 21  1  0  0  0  0
 23 21  1  0  0  0  0
 24 26  1  0  0  0  0
 24 27  1  0  0  0  0
 25 24  1  0  0  0  0
 27 29  1  0  0  0  0
 27 28  1  0  0  0  0
 30 27  1  0  0  0  0
 31 33  1  0  0  0  0
 31 32  1  0  0  0  0
 31  3  1  0  0  0  0
 34 31  1  0  0  0  0
 35 34  1  0  0  0  0
 36 34  1  0  0  0  0
 37 34  1  0  0  0  0
M  END
