1
 OpenBabel05122313063D

 22 21  0  0  0  0  0  0  0  0999 V2000
    1.9301    0.6415   -0.0440 N   0  0  0  0  0  2  0  0  0  0  0  0
    2.9509   -0.0608   -0.0158 N   0  0  0  0  0  2  0  0  0  0  0  0
    2.1139    2.1121   -0.2102 C   0  0  0  0  0  0  0  0  0  0  0  0
    1.4360    2.8294    0.9620 C   0  0  0  0  0  0  0  0  0  0  0  0
    3.5692    2.5124   -0.4057 C   0  0  0  0  0  0  0  0  0  0  0  0
    2.7646   -1.5153    0.0518 C   0  0  0  0  0  0  0  0  0  0  0  0
    2.9150   -2.0414   -1.3832 C   0  0  0  0  0  0  0  0  0  0  0  0
    3.7916   -2.0849    1.0274 C   0  0  0  0  0  0  0  0  0  0  0  0
    1.5294    2.3108   -1.1378 H   0  0  0  0  0  0  0  0  0  0  0  0
    1.4992    3.9240    0.8064 H   0  0  0  0  0  0  0  0  0  0  0  0
    0.3695    2.5439    1.0471 H   0  0  0  0  0  0  0  0  0  0  0  0
    1.9327    2.5744    1.9193 H   0  0  0  0  0  0  0  0  0  0  0  0
    3.6197    3.6014   -0.6012 H   0  0  0  0  0  0  0  0  0  0  0  0
    4.0254    1.9767   -1.2593 H   0  0  0  0  0  0  0  0  0  0  0  0
    4.1721    2.2868    0.4958 H   0  0  0  0  0  0  0  0  0  0  0  0
    1.7337   -1.7312    0.4173 H   0  0  0  0  0  0  0  0  0  0  0  0
    3.9183   -1.8044   -1.7910 H   0  0  0  0  0  0  0  0  0  0  0  0
    2.1454   -1.5889   -2.0408 H   0  0  0  0  0  0  0  0  0  0  0  0
    2.7859   -3.1419   -1.3850 H   0  0  0  0  0  0  0  0  0  0  0  0
    3.6989   -3.1882    1.0664 H   0  0  0  0  0  0  0  0  0  0  0  0
    3.6189   -1.6883    2.0469 H   0  0  0  0  0  0  0  0  0  0  0  0
    4.8236   -1.8279    0.7143 H   0  0  0  0  0  0  0  0  0  0  0  0
  1  2  1  0  0  0  0
  2  6  1  0  0  0  0
  3  1  1  0  0  0  0
  3  4  1  0  0  0  0
  4 11  1  0  0  0  0
  4 12  1  0  0  0  0
  5  3  1  0  0  0  0
  5 15  1  0  0  0  0
  6 16  1  0  0  0  0
  6  8  1  0  0  0  0
  7  6  1  0  0  0  0
  8 20  1  0  0  0  0
  8 21  1  0  0  0  0
  9  3  1  0  0  0  0
 10  4  1  0  0  0  0
 13  5  1  0  0  0  0
 14  5  1  0  0  0  0
 17  7  1  0  0  0  0
 18  7  1  0  0  0  0
 19  7  1  0  0  0  0
 22  8  1  0  0  0  0
M  END
