2
 OpenBabel05122313063D

 44 45  0  0  1  0  0  0  0  0999 V2000
   -1.0493    0.9708    0.0027 P   0  0  0  0  0  0  0  0  0  0  0  0
    1.1865   -0.1549   -0.3036 N   0  0  0  0  0  2  0  0  0  0  0  0
    1.8599    1.9445    0.1151 N   0  0  0  0  0  0  0  0  0  0  0  0
    0.7871    1.0979   -0.0315 C   0  0  2  0  0  3  0  0  0  0  0  0
   -1.6676    1.9997   -1.4870 C   0  0  0  0  0  0  0  0  0  0  0  0
   -3.2017    1.8727   -1.5300 C   0  0  0  0  0  0  0  0  0  0  0  0
   -3.5790    2.3260   -2.4700 H   0  0  0  0  0  0  0  0  0  0  0  0
   -3.6974    2.3974   -0.6909 H   0  0  0  0  0  0  0  0  0  0  0  0
   -3.5297    0.8142   -1.5135 H   0  0  0  0  0  0  0  0  0  0  0  0
   -1.2324    3.4740   -1.4362 C   0  0  0  0  0  0  0  0  0  0  0  0
   -0.1315    3.5709   -1.5044 H   0  0  0  0  0  0  0  0  0  0  0  0
   -1.5864    4.0143   -0.5429 H   0  0  0  0  0  0  0  0  0  0  0  0
   -1.6537    3.9945   -2.3216 H   0  0  0  0  0  0  0  0  0  0  0  0
   -1.0560    1.3784   -2.7551 C   0  0  0  0  0  0  0  0  0  0  0  0
   -1.4310    0.3600   -2.9435 H   0  0  0  0  0  0  0  0  0  0  0  0
    0.0508    1.3371   -2.7094 H   0  0  0  0  0  0  0  0  0  0  0  0
   -1.3330    2.0092   -3.6250 H   0  0  0  0  0  0  0  0  0  0  0  0
   -1.7118    1.6340    1.6804 C   0  0  0  0  0  0  0  0  0  0  0  0
   -2.1788    3.0968    1.7127 C   0  0  0  0  0  0  0  0  0  0  0  0
   -2.5597    3.3148    2.7325 H   0  0  0  0  0  0  0  0  0  0  0  0
   -3.0045    3.3086    1.0085 H   0  0  0  0  0  0  0  0  0  0  0  0
   -1.3554    3.8113    1.5194 H   0  0  0  0  0  0  0  0  0  0  0  0
   -2.8968    0.7054    2.0169 C   0  0  0  0  0  0  0  0  0  0  0  0
   -3.2981    0.9692    3.0175 H   0  0  0  0  0  0  0  0  0  0  0  0
   -2.5903   -0.3586    2.0250 H   0  0  0  0  0  0  0  0  0  0  0  0
   -3.7240    0.8136    1.2870 H   0  0  0  0  0  0  0  0  0  0  0  0
   -0.5842    1.4634    2.7155 C   0  0  0  0  0  0  0  0  0  0  0  0
    0.2230    2.2073    2.5693 H   0  0  0  0  0  0  0  0  0  0  0  0
   -0.1326    0.4570    2.6877 H   0  0  0  0  0  0  0  0  0  0  0  0
   -1.0026    1.6260    3.7308 H   0  0  0  0  0  0  0  0  0  0  0  0
    3.0067    1.1772   -0.0881 C   0  0  0  0  0  0  0  0  0  0  0  0
    4.3698    1.5164   -0.0590 C   0  0  0  0  0  0  0  0  0  0  0  0
    4.7113    2.5415    0.1421 H   0  0  0  0  0  0  0  0  0  0  0  0
    5.2797    0.4816   -0.3044 C   0  0  0  0  0  0  0  0  0  0  0  0
    6.3568    0.7033   -0.2944 H   0  0  0  0  0  0  0  0  0  0  0  0
    4.8513   -0.8452   -0.5667 C   0  0  0  0  0  0  0  0  0  0  0  0
    5.6076   -1.6219   -0.7520 H   0  0  0  0  0  0  0  0  0  0  0  0
    3.4962   -1.1849   -0.5953 C   0  0  0  0  0  0  0  0  0  0  0  0
    3.1552   -2.2102   -0.7950 H   0  0  0  0  0  0  0  0  0  0  0  0
    2.5671   -0.1559   -0.3547 C   0  0  0  0  0  0  0  0  0  0  0  0
    1.8542    3.3535    0.4622 C   0  0  0  0  0  0  0  0  0  0  0  0
    0.8154    3.6852    0.6295 H   0  0  0  0  0  0  0  0  0  0  0  0
    2.2964    3.9600   -0.3535 H   0  0  0  0  0  0  0  0  0  0  0  0
    2.4387    3.5213    1.3888 H   0  0  0  0  0  0  0  0  0  0  0  0
  1 18  1  0  0  0  0
  2  4  1  0  0  0  0
  3 41  1  0  0  0  0
  4  1  1  1  0  0  0
  4  3  1  0  0  0  0
  5 10  1  0  0  0  0
  5  1  1  0  0  0  0
  6  9  1  0  0  0  0
  6  5  1  0  0  0  0
  6  8  1  0  0  0  0
  7  6  1  0  0  0  0
 10 12  1  0  0  0  0
 11 10  1  0  0  0  0
 13 10  1  0  0  0  0
 14 16  1  0  0  0  0
 14  5  1  0  0  0  0
 15 14  1  0  0  0  0
 17 14  1  0  0  0  0
 18 19  1  0  0  0  0
 18 23  1  0  0  0  0
 18 27  1  0  0  0  0
 19 20  1  0  0  0  0
 21 19  1  0  0  0  0
 22 19  1  0  0  0  0
 23 25  1  0  0  0  0
 23 24  1  0  0  0  0
 26 23  1  0  0  0  0
 27 30  1  0  0  0  0
 28 27  1  0  0  0  0
 29 27  1  0  0  0  0
 31 32  1  0  0  0  0
 31  3  1  0  0  0  0
 32 33  1  0  0  0  0
 34 35  1  0  0  0  0
 34 32  2  0  0  0  0
 36 34  1  0  0  0  0
 37 36  1  0  0  0  0
 38 36  2  0  0  0  0
 38 40  1  0  0  0  0
 39 38  1  0  0  0  0
 40  2  1  0  0  0  0
 40 31  2  0  0  0  0
 41 42  1  0  0  0  0
 41 44  1  0  0  0  0
 43 41  1  0  0  0  0
M  END
