1
 OpenBabel05122313063D

 44 45  0  0  1  0  0  0  0  0999 V2000
   -0.5193   -0.0230    1.5973 N   0  0  0  0  0  0  0  0  0  0  0  0
    0.4468   -0.2092    0.5703 C   0  0  1  0  0  3  0  0  0  0  0  0
    0.3632    0.6657   -0.5367 C   0  0  0  0  0  0  0  0  0  0  0  0
   -0.7350    1.5830   -0.6448 C   0  0  0  0  0  0  0  0  0  0  0  0
   -1.6088    1.7640    0.4404 C   0  0  1  0  0  3  0  0  0  0  0  0
   -1.0612    1.3403    1.7909 C   0  0  0  0  0  0  0  0  0  0  0  0
   -2.8114    2.6739    0.4186 C   0  0  0  0  0  0  0  0  0  0  0  0
   -3.3891    2.9618   -0.9649 C   0  0  0  0  0  0  0  0  0  0  0  0
   -0.5964   -0.9230    2.7441 C   0  0  0  0  0  0  0  0  0  0  0  0
    2.2850   -1.4498   -0.5022 N   0  0  0  0  0  0  0  0  0  0  0  0
    1.6214   -1.1684    0.7635 C   0  0  1  0  0  0  0  0  0  0  0  0
    2.6314   -0.5875    1.7855 C   0  0  0  0  0  0  0  0  0  0  0  0
    3.3171    0.6627    1.2286 C   0  0  0  0  0  0  0  0  0  0  0  0
    3.8506    0.4039   -0.1586 C   0  0  0  0  0  0  0  0  0  0  0  0
    3.3544   -0.6419   -0.8764 C   0  0  0  0  0  0  0  0  0  0  0  0
    4.8955    1.3284   -0.7272 C   0  0  0  0  0  0  0  0  0  0  0  0
    4.3842    2.7551   -0.9883 C   0  0  0  0  0  0  0  0  0  0  0  0
    2.1768   -2.7872   -1.0543 C   0  0  0  0  0  0  0  0  0  0  0  0
    1.0812    0.5258   -1.3522 H   0  0  0  0  0  0  0  0  0  0  0  0
   -0.9249    2.0646   -1.6141 H   0  0  0  0  0  0  0  0  0  0  0  0
   -0.2909    2.0388    2.2059 H   0  0  0  0  0  0  0  0  0  0  0  0
   -1.8837    1.2595    2.5281 H   0  0  0  0  0  0  0  0  0  0  0  0
   -3.5973    2.2210    1.0622 H   0  0  0  0  0  0  0  0  0  0  0  0
   -2.5389    3.6322    0.9236 H   0  0  0  0  0  0  0  0  0  0  0  0
   -4.3124    3.5684   -0.8869 H   0  0  0  0  0  0  0  0  0  0  0  0
   -2.6794    3.5251   -1.6040 H   0  0  0  0  0  0  0  0  0  0  0  0
   -3.6394    2.0174   -1.4892 H   0  0  0  0  0  0  0  0  0  0  0  0
   -0.3851   -1.9601    2.4306 H   0  0  0  0  0  0  0  0  0  0  0  0
    0.1058   -0.6282    3.5550 H   0  0  0  0  0  0  0  0  0  0  0  0
   -1.6294   -0.8969    3.1386 H   0  0  0  0  0  0  0  0  0  0  0  0
    1.2364   -2.1294    1.1577 H   0  0  0  0  0  0  0  0  0  0  0  0
    2.1267   -0.3737    2.7481 H   0  0  0  0  0  0  0  0  0  0  0  0
    3.3893   -1.3737    1.9846 H   0  0  0  0  0  0  0  0  0  0  0  0
    2.6044    1.5212    1.2344 H   0  0  0  0  0  0  0  0  0  0  0  0
    4.1486    0.9654    1.9027 H   0  0  0  0  0  0  0  0  0  0  0  0
    3.7686   -0.8837   -1.8702 H   0  0  0  0  0  0  0  0  0  0  0  0
    5.7639    1.3841   -0.0295 H   0  0  0  0  0  0  0  0  0  0  0  0
    5.2893    0.9004   -1.6741 H   0  0  0  0  0  0  0  0  0  0  0  0
    3.5400    2.7454   -1.7082 H   0  0  0  0  0  0  0  0  0  0  0  0
    4.0190    3.2343   -0.0565 H   0  0  0  0  0  0  0  0  0  0  0  0
    5.1825    3.4045   -1.4029 H   0  0  0  0  0  0  0  0  0  0  0  0
    2.4928   -2.7722   -2.1166 H   0  0  0  0  0  0  0  0  0  0  0  0
    2.8171   -3.5330   -0.5218 H   0  0  0  0  0  0  0  0  0  0  0  0
    1.1290   -3.1397   -1.0200 H   0  0  0  0  0  0  0  0  0  0  0  0
  1  6  1  0  0  0  0
  1  9  1  0  0  0  0
  2  3  1  1  0  0  0
  2 11  1  0  0  0  0
  2  1  1  0  0  0  0
  4  3  2  0  0  0  0
  4  5  1  0  0  0  0
  5  7  1  1  0  0  0
  5  6  1  0  0  0  0
  6 21  1  0  0  0  0
  6 22  1  0  0  0  0
  7 24  1  0  0  0  0
  7 23  1  0  0  0  0
  8 25  1  0  0  0  0
  8  7  1  0  0  0  0
  9 30  1  0  0  0  0
  9 29  1  0  0  0  0
 10 11  1  0  0  0  0
 11 31  1  1  0  0  0
 11 12  1  0  0  0  0
 12 33  1  0  0  0  0
 12 32  1  0  0  0  0
 13 34  1  0  0  0  0
 13 12  1  0  0  0  0
 13 35  1  0  0  0  0
 14 13  1  0  0  0  0
 15 10  1  0  0  0  0
 15 14  2  0  0  0  0
 16 14  1  0  0  0  0
 16 37  1  0  0  0  0
 17 16  1  0  0  0  0
 17 40  1  0  0  0  0
 18 44  1  0  0  0  0
 18 43  1  0  0  0  0
 18 10  1  0  0  0  0
 19  3  1  0  0  0  0
 20  4  1  0  0  0  0
 26  8  1  0  0  0  0
 27  8  1  0  0  0  0
 28  9  1  0  0  0  0
 36 15  1  0  0  0  0
 38 16  1  0  0  0  0
 39 17  1  0  0  0  0
 41 17  1  0  0  0  0
 42 18  1  0  0  0  0
M  END
