1
 OpenBabel05122313063D

 16 16  0  0  1  0  0  0  0  0999 V2000
    1.9620    0.4366   -0.1811 N   0  0  0  0  0  2  0  0  0  0  0  0
    2.9609   -0.4724   -0.0119 N   0  0  0  0  0  0  0  0  0  0  0  0
    3.4926   -2.7107    0.7694 C   0  0  0  0  0  0  0  0  0  0  0  0
    2.5286    1.6489   -0.3280 C   0  0  2  0  0  3  0  0  0  0  0  0
    3.9394    1.5065   -0.2569 C   0  0  0  0  0  0  0  0  0  0  0  0
    4.1756    0.1534   -0.0565 C   0  0  0  0  0  0  0  0  0  0  0  0
    2.6739   -1.8450    0.1484 C   0  0  0  0  0  0  0  0  0  0  0  0
    1.7065    2.8800   -0.5069 C   0  0  0  0  0  0  0  0  0  0  0  0
    3.2240   -3.7751    0.7994 H   0  0  0  0  0  0  0  0  0  0  0  0
    4.4285   -2.4022    1.2588 H   0  0  0  0  0  0  0  0  0  0  0  0
    4.6840    2.3011   -0.3634 H   0  0  0  0  0  0  0  0  0  0  0  0
    5.1021   -0.4237    0.0158 H   0  0  0  0  0  0  0  0  0  0  0  0
    1.7202   -2.1241   -0.3294 H   0  0  0  0  0  0  0  0  0  0  0  0
    2.3466    3.7423   -0.7691 H   0  0  0  0  0  0  0  0  0  0  0  0
    0.9500    2.7332   -1.3039 H   0  0  0  0  0  0  0  0  0  0  0  0
    1.1575    3.0972    0.4328 H   0  0  0  0  0  0  0  0  0  0  0  0
  1  2  1  0  0  0  0
  2  7  1  0  0  0  0
  3  9  1  0  0  0  0
  3 10  1  0  0  0  0
  4  8  1  1  0  0  0
  4  5  1  0  0  0  0
  4  1  1  0  0  0  0
  5  6  2  0  0  0  0
  6  2  1  0  0  0  0
  6 12  1  0  0  0  0
  7  3  2  0  0  0  0
  8 16  1  0  0  0  0
 11  5  1  0  0  0  0
 13  7  1  0  0  0  0
 14  8  1  0  0  0  0
 15  8  1  0  0  0  0
M  END
