1
 OpenBabel05122313063D

 16 16  0  0  1  0  0  0  0  0999 V2000
   -1.1816   -1.9184   -0.9093 N   0  0  0  0  0  2  0  0  0  0  0  0
   -1.5987   -1.6086   -2.2842 C   0  0  0  0  0  0  0  0  0  0  0  0
   -3.0087   -2.2020   -2.3939 C   0  0  0  0  0  0  0  0  0  0  0  0
   -2.8691   -3.5263   -1.6258 C   0  0  0  0  0  0  0  0  0  0  0  0
   -1.7111   -3.2717   -0.6141 C   0  0  1  0  0  0  0  0  0  0  0  0
   -0.6009   -4.3247   -0.7181 C   0  0  0  0  0  0  0  0  0  0  0  0
   -0.9376   -2.0996   -3.0400 H   0  0  0  0  0  0  0  0  0  0  0  0
   -1.5660   -0.5209   -2.4759 H   0  0  0  0  0  0  0  0  0  0  0  0
   -3.3389   -2.3370   -3.4437 H   0  0  0  0  0  0  0  0  0  0  0  0
   -3.7354   -1.5255   -1.8993 H   0  0  0  0  0  0  0  0  0  0  0  0
   -3.8057   -3.8343   -1.1196 H   0  0  0  0  0  0  0  0  0  0  0  0
   -2.5941   -4.3472   -2.3211 H   0  0  0  0  0  0  0  0  0  0  0  0
   -2.0852   -3.2819    0.4310 H   0  0  0  0  0  0  0  0  0  0  0  0
   -0.9912   -5.3389   -0.4918 H   0  0  0  0  0  0  0  0  0  0  0  0
    0.2180   -4.0967   -0.0088 H   0  0  0  0  0  0  0  0  0  0  0  0
   -0.1711   -4.3441   -1.7415 H   0  0  0  0  0  0  0  0  0  0  0  0
  1  5  1  0  0  0  0
  2  1  1  0  0  0  0
  3  2  1  0  0  0  0
  3 10  1  0  0  0  0
  3  4  1  0  0  0  0
  4 11  1  0  0  0  0
  4  5  1  0  0  0  0
  5 13  1  1  0  0  0
  6  5  1  0  0  0  0
  6 14  1  0  0  0  0
  6 15  1  0  0  0  0
  7  2  1  0  0  0  0
  8  2  1  0  0  0  0
  9  3  1  0  0  0  0
 12  4  1  0  0  0  0
 16  6  1  0  0  0  0
M  END
