1
 OpenBabel05122313063D

 12 11  0  0  0  0  0  0  0  0999 V2000
   -0.8490   -1.5575    1.6168 N   0  0  0  0  0  0  0  0  0  0  0  0
   -0.2871   -2.4200    1.7212 H   0  0  0  0  0  0  0  0  0  0  0  0
   -1.3192   -1.3007    2.4984 H   0  0  0  0  0  0  0  0  0  0  0  0
   -1.7550   -1.6834    0.5087 N   0  0  0  0  0  0  0  0  0  0  0  0
   -3.0726   -1.0803    0.7674 C   0  0  0  0  0  0  0  0  0  0  0  0
   -3.6786   -1.7321    1.4335 H   0  0  0  0  0  0  0  0  0  0  0  0
   -3.5813   -0.9831   -0.2092 H   0  0  0  0  0  0  0  0  0  0  0  0
   -2.9587   -0.0677    1.1945 H   0  0  0  0  0  0  0  0  0  0  0  0
   -1.8811   -3.0507   -0.0402 C   0  0  0  0  0  0  0  0  0  0  0  0
   -0.8744   -3.4832   -0.1824 H   0  0  0  0  0  0  0  0  0  0  0  0
   -2.3537   -2.9543   -1.0345 H   0  0  0  0  0  0  0  0  0  0  0  0
   -2.5098   -3.6793    0.6254 H   0  0  0  0  0  0  0  0  0  0  0  0
  1  2  1  0  0  0  0
  1  3  1  0  0  0  0
  4  5  1  0  0  0  0
  4  1  1  0  0  0  0
  5  8  1  0  0  0  0
  5  6  1  0  0  0  0
  7  5  1  0  0  0  0
  9  4  1  0  0  0  0
  9 12  1  0  0  0  0
 10  9  1  0  0  0  0
 11  9  1  0  0  0  0
M  END
