3
 OpenBabel05122313063D

 57 57  0  0  1  0  0  0  0  0999 V2000
    1.7182    0.0238   -0.0320 P   0  0  0  0  0  0  0  0  0  0  0  0
   -2.6874   -0.6814    0.0820 N   0  0  0  0  0  0  0  0  0  0  0  0
   -0.8159    1.3760   -0.0812 N   0  0  0  0  0  2  0  0  0  0  0  0
    1.4959    1.7494   -0.7494 C   0  0  0  0  0  0  0  0  0  0  0  0
    2.2941    2.4541   -0.4407 H   0  0  0  0  0  0  0  0  0  0  0  0
    1.5863    1.6360   -1.8507 H   0  0  0  0  0  0  0  0  0  0  0  0
    0.1311    2.2878   -0.4394 C   0  0  1  0  0  3  0  0  0  0  0  0
   -0.1993    3.6490   -0.5376 C   0  0  0  0  0  0  0  0  0  0  0  0
    0.5746    4.3772   -0.8177 H   0  0  0  0  0  0  0  0  0  0  0  0
   -1.5166    4.0572   -0.2929 C   0  0  0  0  0  0  0  0  0  0  0  0
   -1.7918    5.1192   -0.3741 H   0  0  0  0  0  0  0  0  0  0  0  0
   -2.4839    3.1000    0.0453 C   0  0  0  0  0  0  0  0  0  0  0  0
   -3.5278    3.3884    0.2330 H   0  0  0  0  0  0  0  0  0  0  0  0
   -2.0982    1.7582    0.1500 C   0  0  0  0  0  0  0  0  0  0  0  0
   -3.0334    0.6705    0.6048 C   0  0  0  0  0  0  0  0  0  0  0  0
   -2.9637    0.6205    1.7129 H   0  0  0  0  0  0  0  0  0  0  0  0
   -4.0840    0.9440    0.3629 H   0  0  0  0  0  0  0  0  0  0  0  0
    2.5025    0.3817    1.6830 C   0  0  0  0  0  0  0  0  0  0  0  0
    2.5162   -0.9017    2.5320 C   0  0  0  0  0  0  0  0  0  0  0  0
    2.9824   -0.6763    3.5136 H   0  0  0  0  0  0  0  0  0  0  0  0
    3.1024   -1.7190    2.0703 H   0  0  0  0  0  0  0  0  0  0  0  0
    1.4893   -1.2654    2.7228 H   0  0  0  0  0  0  0  0  0  0  0  0
    1.5695    1.3987    2.3717 C   0  0  0  0  0  0  0  0  0  0  0  0
    1.9105    1.5422    3.4179 H   0  0  0  0  0  0  0  0  0  0  0  0
    0.5228    1.0329    2.4017 H   0  0  0  0  0  0  0  0  0  0  0  0
    1.5828    2.3947    1.8869 H   0  0  0  0  0  0  0  0  0  0  0  0
    3.9211    0.9640    1.5954 C   0  0  0  0  0  0  0  0  0  0  0  0
    4.6635    0.2103    1.2721 H   0  0  0  0  0  0  0  0  0  0  0  0
    4.2274    1.3085    2.6054 H   0  0  0  0  0  0  0  0  0  0  0  0
    3.9918    1.8386    0.9185 H   0  0  0  0  0  0  0  0  0  0  0  0
    2.9377   -0.7659   -1.2740 C   0  0  0  0  0  0  0  0  0  0  0  0
    2.1354   -0.9686   -2.5771 C   0  0  0  0  0  0  0  0  0  0  0  0
    2.7554   -1.5433   -3.2960 H   0  0  0  0  0  0  0  0  0  0  0  0
    1.8841   -0.0067   -3.0682 H   0  0  0  0  0  0  0  0  0  0  0  0
    1.1901   -1.5180   -2.4127 H   0  0  0  0  0  0  0  0  0  0  0  0
    3.3987   -2.1271   -0.7234 C   0  0  0  0  0  0  0  0  0  0  0  0
    3.9993   -2.6499   -1.4964 H   0  0  0  0  0  0  0  0  0  0  0  0
    2.5507   -2.7888   -0.4600 H   0  0  0  0  0  0  0  0  0  0  0  0
    4.0429   -2.0156    0.1701 H   0  0  0  0  0  0  0  0  0  0  0  0
    4.1617    0.1117   -1.5923 C   0  0  0  0  0  0  0  0  0  0  0  0
    3.8837    1.1279   -1.9348 H   0  0  0  0  0  0  0  0  0  0  0  0
    4.7257   -0.3625   -2.4227 H   0  0  0  0  0  0  0  0  0  0  0  0
    4.8568    0.2094   -0.7410 H   0  0  0  0  0  0  0  0  0  0  0  0
   -3.2150   -1.7241    1.0185 C   0  0  0  0  0  0  0  0  0  0  0  0
   -2.6994   -1.5604    1.9863 H   0  0  0  0  0  0  0  0  0  0  0  0
   -2.8690   -2.7030    0.6324 H   0  0  0  0  0  0  0  0  0  0  0  0
   -4.7283   -1.7625    1.2287 C   0  0  0  0  0  0  0  0  0  0  0  0
   -5.2845   -1.9969    0.3004 H   0  0  0  0  0  0  0  0  0  0  0  0
   -5.1284   -0.8170    1.6457 H   0  0  0  0  0  0  0  0  0  0  0  0
   -4.9648   -2.5617    1.9583 H   0  0  0  0  0  0  0  0  0  0  0  0
   -3.2365   -0.8946   -1.2936 C   0  0  0  0  0  0  0  0  0  0  0  0
   -4.3321   -0.6991   -1.2799 H   0  0  0  0  0  0  0  0  0  0  0  0
   -3.1104   -1.9737   -1.5131 H   0  0  0  0  0  0  0  0  0  0  0  0
   -2.5768   -0.0730   -2.3919 C   0  0  0  0  0  0  0  0  0  0  0  0
   -1.4806   -0.2530   -2.4118 H   0  0  0  0  0  0  0  0  0  0  0  0
   -2.7486    1.0152   -2.2762 H   0  0  0  0  0  0  0  0  0  0  0  0
   -3.0016   -0.3706   -3.3706 H   0  0  0  0  0  0  0  0  0  0  0  0
  1 18  1  0  0  0  0
  2 15  1  0  0  0  0
  2 44  1  0  0  0  0
  3 14  1  0  0  0  0
  4  5  1  0  0  0  0
  4  1  1  0  0  0  0
  6  4  1  0  0  0  0
  7  4  1  6  0  0  0
  7  3  1  0  0  0  0
  8  7  1  0  0  0  0
  8 10  2  0  0  0  0
  9  8  1  0  0  0  0
 10 12  1  0  0  0  0
 11 10  1  0  0  0  0
 12 14  2  0  0  0  0
 12 13  1  0  0  0  0
 14 15  1  0  0  0  0
 15 16  1  0  0  0  0
 17 15  1  0  0  0  0
 18 23  1  0  0  0  0
 18 19  1  0  0  0  0
 19 22  1  0  0  0  0
 19 20  1  0  0  0  0
 21 19  1  0  0  0  0
 23 25  1  0  0  0  0
 23 24  1  0  0  0  0
 26 23  1  0  0  0  0
 27 18  1  0  0  0  0
 27 29  1  0  0  0  0
 28 27  1  0  0  0  0
 30 27  1  0  0  0  0
 31 36  1  0  0  0  0
 31  1  1  0  0  0  0
 32 35  1  0  0  0  0
 32 31  1  0  0  0  0
 33 32  1  0  0  0  0
 34 32  1  0  0  0  0
 36 38  1  0  0  0  0
 36 39  1  0  0  0  0
 37 36  1  0  0  0  0
 40 31  1  0  0  0  0
 40 43  1  0  0  0  0
 41 40  1  0  0  0  0
 42 40  1  0  0  0  0
 44 47  1  0  0  0  0
 44 45  1  0  0  0  0
 46 44  1  0  0  0  0
 47 49  1  0  0  0  0
 47 50  1  0  0  0  0
 48 47  1  0  0  0  0
 51 52  1  0  0  0  0
 51  2  1  0  0  0  0
 53 51  1  0  0  0  0
 54 56  1  0  0  0  0
 54 51  1  0  0  0  0
 55 54  1  0  0  0  0
 57 54  1  0  0  0  0
M  END
