1
 OpenBabel05122313063D

 19 20  0  0  0  0  0  0  0  0999 V2000
    1.0771    0.4716   -0.0183 N   0  0  0  0  0  2  0  0  0  0  0  0
    1.5013    1.7258   -0.1352 C   0  0  0  0  0  0  0  0  0  0  0  0
    0.7318    2.5109   -0.0575 H   0  0  0  0  0  0  0  0  0  0  0  0
    2.8704    2.0873   -0.3354 C   0  0  0  0  0  0  0  0  0  0  0  0
    3.2017    3.4185   -0.4793 N   0  0  0  0  0  0  0  0  0  0  0  0
    4.1819    3.6719   -0.3584 H   0  0  0  0  0  0  0  0  0  0  0  0
    2.5472    4.1056   -0.1049 H   0  0  0  0  0  0  0  0  0  0  0  0
    3.8005    1.0473   -0.4240 C   0  0  0  0  0  0  0  0  0  0  0  0
    4.8688    1.2641   -0.5820 H   0  0  0  0  0  0  0  0  0  0  0  0
    3.3754   -0.2984   -0.2947 C   0  0  0  0  0  0  0  0  0  0  0  0
    4.2764   -1.4040   -0.3552 C   0  0  0  0  0  3  0  0  0  0  0  0
    5.3458   -1.2041   -0.5238 H   0  0  0  0  0  0  0  0  0  0  0  0
    3.8167   -2.7022   -0.1972 C   0  0  0  0  0  0  0  0  0  0  0  0
    4.5252   -3.5432   -0.2431 H   0  0  0  0  0  0  0  0  0  0  0  0
    2.4371   -2.9570    0.0320 C   0  0  0  0  0  0  0  0  0  0  0  0
    2.0870   -3.9908    0.1689 H   0  0  0  0  0  0  0  0  0  0  0  0
    1.5324   -1.9077    0.0909 C   0  0  0  0  0  0  0  0  0  0  0  0
    0.4577   -2.0642    0.2793 H   0  0  0  0  0  0  0  0  0  0  0  0
    1.9779   -0.5690   -0.0779 C   0  0  0  0  0  0  0  0  0  0  0  0
  2  3  1  0  0  0  0
  2  1  1  0  0  0  0
  4  2  2  0  0  0  0
  5  6  1  0  0  0  0
  5  4  1  0  0  0  0
  5  7  1  0  0  0  0
  8  4  1  0  0  0  0
  8 10  2  0  0  0  0
  9  8  1  0  0  0  0
 10 19  1  0  0  0  0
 11 10  1  0  0  0  0
 11 13  1  0  0  0  0
 12 11  1  0  0  0  0
 13 15  2  0  0  0  0
 14 13  1  0  0  0  0
 15 17  1  0  0  0  0
 15 16  1  0  0  0  0
 17 18  1  0  0  0  0
 19  1  1  0  0  0  0
 19 17  2  0  0  0  0
M  END
