1
 OpenBabel05122313063D

 21 21  0  0  0  0  0  0  0  0999 V2000
    0.4979   -0.0295   -0.0921 N   0  0  0  0  0  2  0  0  0  0  0  0
    1.4802    0.8508    0.0345 N   0  0  0  0  0  0  0  0  0  0  0  0
    1.1244    2.2441    0.2332 C   0  0  0  0  0  0  0  0  0  0  0  0
    2.8314    0.4037    0.0333 C   0  0  0  0  0  0  0  0  0  0  0  0
    3.1612   -0.8396    0.6132 C   0  0  0  0  0  0  0  0  0  0  0  0
    4.4837   -1.2949    0.5713 C   0  0  0  0  0  0  0  0  0  0  0  0
    5.5075   -0.5306   -0.0273 C   0  0  0  0  0  0  0  0  0  0  0  0
    5.1544    0.7192   -0.5878 C   0  0  0  0  0  0  0  0  0  0  0  0
    3.8401    1.1890   -0.5652 C   0  0  0  0  0  0  0  0  0  0  0  0
    6.9306   -1.0117   -0.0632 C   0  0  0  0  0  0  0  0  0  0  0  0
    0.9364   -0.9442   -0.2986 H   0  0  0  0  0  0  0  0  0  0  0  0
    0.5863    2.6390   -0.6525 H   0  0  0  0  0  0  0  0  0  0  0  0
    2.0402    2.8271    0.4192 H   0  0  0  0  0  0  0  0  0  0  0  0
    0.4538    2.3270    1.1131 H   0  0  0  0  0  0  0  0  0  0  0  0
    2.4014   -1.4283    1.1504 H   0  0  0  0  0  0  0  0  0  0  0  0
    4.7332   -2.2575    1.0426 H   0  0  0  0  0  0  0  0  0  0  0  0
    5.9309    1.3350   -1.0668 H   0  0  0  0  0  0  0  0  0  0  0  0
    3.5946    2.1488   -1.0417 H   0  0  0  0  0  0  0  0  0  0  0  0
    7.6035   -0.2987    0.4567 H   0  0  0  0  0  0  0  0  0  0  0  0
    7.2963   -1.0877   -1.1083 H   0  0  0  0  0  0  0  0  0  0  0  0
    7.0450   -2.0025    0.4141 H   0  0  0  0  0  0  0  0  0  0  0  0
  1  2  1  0  0  0  0
  2  3  1  0  0  0  0
  3 13  1  0  0  0  0
  3 14  1  0  0  0  0
  4  2  1  0  0  0  0
  4  5  1  0  0  0  0
  5 15  1  0  0  0  0
  6  5  2  0  0  0  0
  6 16  1  0  0  0  0
  7  6  1  0  0  0  0
  8  9  1  0  0  0  0
  8  7  2  0  0  0  0
  9  4  2  0  0  0  0
 10  7  1  0  0  0  0
 10 21  1  0  0  0  0
 10 19  1  0  0  0  0
 11  1  1  0  0  0  0
 12  3  1  0  0  0  0
 17  8  1  0  0  0  0
 18  9  1  0  0  0  0
 20 10  1  0  0  0  0
M  END
