3
 OpenBabel05122313063D

 25 25  0  0  1  0  0  0  0  0999 V2000
    1.7572   -2.2469   -0.0009 O   0  0  0  0  0  0  0  0  0  0  0  0
    1.7571    2.2470    0.0026 O   0  0  0  0  0  0  0  0  0  0  0  0
    1.8762    0.0000    0.0005 N   0  0  0  0  0  2  0  0  0  0  0  0
    2.5604   -1.1695    0.0011 C   0  0  2  0  0  3  0  0  0  0  0  0
    3.9681   -1.2168    0.0010 C   0  0  0  0  0  0  0  0  0  0  0  0
    4.5080   -2.1704    0.0003 H   0  0  0  0  0  0  0  0  0  0  0  0
    4.6595    0.0001   -0.0010 C   0  0  0  0  0  0  0  0  0  0  0  0
    5.7597    0.0001   -0.0016 H   0  0  0  0  0  0  0  0  0  0  0  0
    3.9681    1.2170   -0.0021 C   0  0  0  0  0  0  0  0  0  0  0  0
    4.5079    2.1706   -0.0019 H   0  0  0  0  0  0  0  0  0  0  0  0
    2.5604    1.1696   -0.0006 C   0  0  0  0  0  0  0  0  0  0  0  0
    2.3377   -3.5678    0.0258 C   0  0  0  0  0  0  0  0  0  0  0  0
    2.9796   -3.6637    0.9292 H   0  0  0  0  0  0  0  0  0  0  0  0
    2.9845   -3.6994   -0.8696 H   0  0  0  0  0  0  0  0  0  0  0  0
    1.2042   -4.5711    0.0429 C   0  0  0  0  0  0  0  0  0  0  0  0
    0.5634   -4.4327    0.9357 H   0  0  0  0  0  0  0  0  0  0  0  0
    1.6146   -5.5991    0.0676 H   0  0  0  0  0  0  0  0  0  0  0  0
    0.5704   -4.4737   -0.8601 H   0  0  0  0  0  0  0  0  0  0  0  0
    2.3374    3.5679   -0.0254 C   0  0  0  0  0  0  0  0  0  0  0  0
    2.9783    3.6634   -0.9295 H   0  0  0  0  0  0  0  0  0  0  0  0
    2.9853    3.6999    0.8693 H   0  0  0  0  0  0  0  0  0  0  0  0
    1.2039    4.5711   -0.0417 C   0  0  0  0  0  0  0  0  0  0  0  0
    0.5622    4.4322   -0.9337 H   0  0  0  0  0  0  0  0  0  0  0  0
    1.6142    5.5992   -0.0672 H   0  0  0  0  0  0  0  0  0  0  0  0
    0.5711    4.4740    0.8621 H   0  0  0  0  0  0  0  0  0  0  0  0
  1 12  1  0  0  0  0
  3  4  1  0  0  0  0
  4  1  1  6  0  0  0
  5  4  1  0  0  0  0
  6  5  1  0  0  0  0
  7  5  2  0  0  0  0
  8  7  1  0  0  0  0
  9 10  1  0  0  0  0
  9  7  1  0  0  0  0
  9 11  2  0  0  0  0
 11  3  1  0  0  0  0
 11  2  1  0  0  0  0
 12 15  1  0  0  0  0
 12 13  1  0  0  0  0
 14 12  1  0  0  0  0
 15 17  1  0  0  0  0
 15 16  1  0  0  0  0
 18 15  1  0  0  0  0
 19  2  1  0  0  0  0
 19 21  1  0  0  0  0
 20 19  1  0  0  0  0
 22 19  1  0  0  0  0
 22 25  1  0  0  0  0
 23 22  1  0  0  0  0
 24 22  1  0  0  0  0
M  END
