1
 OpenBabel05122313063D

 20 21  0  0  0  0  0  0  0  0999 V2000
   -1.6872    1.3522   -0.0826 N   0  0  0  0  0  0  0  0  0  0  0  0
   -3.6531    0.8586   -1.0340 C   0  0  0  0  0  0  0  0  0  0  0  0
   -2.0573    2.2460   -1.0342 C   0  0  0  0  0  0  0  0  0  0  0  0
   -1.4270    3.1103   -1.2864 H   0  0  0  0  0  0  0  0  0  0  0  0
   -4.8056    0.1497   -1.2925 N   0  0  0  0  0  0  0  0  0  0  0  0
   -3.2398    1.9961   -1.6372 N   0  0  0  0  0  0  0  0  0  0  0  0
   -6.0797   -1.6986   -0.8090 O   0  0  0  0  0  0  0  0  0  0  0  0
   -2.7272    0.4306   -0.0647 C   0  0  0  0  0  3  0  0  0  0  0  0
   -2.1878   -1.1922    1.6298 O   0  0  0  0  0  0  0  0  0  0  0  0
   -4.1203   -1.4227    0.3792 N   0  0  0  0  0  0  0  0  0  0  0  0
   -2.9385   -0.7424    0.7148 C   0  0  0  0  0  0  0  0  0  0  0  0
   -5.0742   -1.0301   -0.5998 C   0  0  0  0  0  0  0  0  0  0  0  0
   -5.7622    0.5892   -2.3014 C   0  0  0  0  0  0  0  0  0  0  0  0
   -5.8864   -0.1915   -3.0768 H   0  0  0  0  0  0  0  0  0  0  0  0
   -5.3672    1.5186   -2.7478 H   0  0  0  0  0  0  0  0  0  0  0  0
   -6.7521    0.7714   -1.8391 H   0  0  0  0  0  0  0  0  0  0  0  0
   -4.4507   -2.6580    1.0878 C   0  0  0  0  0  0  0  0  0  0  0  0
   -3.6653   -2.8317    1.8419 H   0  0  0  0  0  0  0  0  0  0  0  0
   -4.4990   -3.5038    0.3750 H   0  0  0  0  0  0  0  0  0  0  0  0
   -5.4444   -2.5653    1.5662 H   0  0  0  0  0  0  0  0  0  0  0  0
  1  8  1  0  0  0  0
  2  8  1  0  0  0  0
  3  1  2  0  0  0  0
  4  3  1  0  0  0  0
  5  2  1  0  0  0  0
  5 12  1  0  0  0  0
  6  3  1  0  0  0  0
  6  2  2  0  0  0  0
  7 12  2  0  0  0  0
  8 11  1  0  0  0  0
 10 11  1  0  0  0  0
 10 17  1  0  0  0  0
 11  9  2  0  0  0  0
 12 10  1  0  0  0  0
 13 16  1  0  0  0  0
 13  5  1  0  0  0  0
 14 13  1  0  0  0  0
 15 13  1  0  0  0  0
 17 20  1  0  0  0  0
 17 18  1  0  0  0  0
 19 17  1  0  0  0  0
M  END
