4
 OpenBabel05122313063D

 30 32  0  0  1  0  0  0  0  0999 V2000
    6.6338   -1.8105    0.2789 O   0  0  0  0  0  0  0  0  0  0  0  0
    7.6063   -1.8140    0.4098 H   0  0  0  0  0  0  0  0  0  0  0  0
    7.1339    0.3838    0.2557 O   0  0  0  0  0  0  0  0  0  0  0  0
    2.0160   -0.1213   -0.3018 N   0  0  0  0  0  2  0  0  0  0  0  0
    2.7779    1.0273   -0.3378 C   0  0  1  0  0  3  0  0  0  0  0  0
    2.1294    2.2787   -0.5262 C   0  0  0  0  0  0  0  0  0  0  0  0
    1.0422    2.2813   -0.6830 H   0  0  0  0  0  0  0  0  0  0  0  0
    2.8677    3.4504   -0.5502 C   0  0  0  0  0  0  0  0  0  0  0  0
    2.3492    4.4080   -0.7042 H   0  0  0  0  0  0  0  0  0  0  0  0
    4.2746    3.4165   -0.3816 C   0  0  0  0  0  0  0  0  0  0  0  0
    4.8509    4.3538   -0.3975 H   0  0  0  0  0  0  0  0  0  0  0  0
    4.9369    2.2103   -0.2053 C   0  0  0  0  0  0  0  0  0  0  0  0
    6.0250    2.1726   -0.0799 H   0  0  0  0  0  0  0  0  0  0  0  0
    4.2152    0.9808   -0.1842 C   0  0  0  0  0  0  0  0  0  0  0  0
    4.8188   -0.3137   -0.0204 C   0  0  0  0  0  0  0  0  0  0  0  0
    6.2951   -0.4990    0.1802 C   0  0  0  0  0  0  0  0  0  0  0  0
    4.0043   -1.4390   -0.0636 C   0  0  0  0  0  0  0  0  0  0  0  0
    4.4437   -2.4404    0.0145 H   0  0  0  0  0  0  0  0  0  0  0  0
    2.5989   -1.3276   -0.2204 C   0  0  0  0  0  0  0  0  0  0  0  0
    1.7753   -2.5566   -0.3292 C   0  0  0  0  0  0  0  0  0  0  0  0
    0.8813   -2.7143   -1.4123 C   0  0  0  0  0  0  0  0  0  0  0  0
    0.7536   -1.8972   -2.1389 H   0  0  0  0  0  0  0  0  0  0  0  0
    0.1544   -3.9044   -1.5493 C   0  0  0  0  0  0  0  0  0  0  0  0
   -0.5371   -4.0202   -2.3971 H   0  0  0  0  0  0  0  0  0  0  0  0
    0.2994   -4.9367   -0.6077 C   0  0  0  0  0  0  0  0  0  0  0  0
   -0.2760   -5.8688   -0.7183 H   0  0  0  0  0  0  0  0  0  0  0  0
    1.1767   -4.7771    0.4774 C   0  0  0  0  0  0  0  0  0  0  0  0
    1.2811   -5.5759    1.2270 H   0  0  0  0  0  0  0  0  0  0  0  0
    1.9212   -3.5968    0.6115 C   0  0  0  0  0  0  0  0  0  0  0  0
    2.5931   -3.4600    1.4716 H   0  0  0  0  0  0  0  0  0  0  0  0
  1  2  1  0  0  0  0
  4 19  1  0  0  0  0
  5  6  1  1  0  0  0
  5  4  1  0  0  0  0
  5 14  1  0  0  0  0
  7  6  1  0  0  0  0
  8  6  2  0  0  0  0
  8 10  1  0  0  0  0
  9  8  1  0  0  0  0
 10 12  2  0  0  0  0
 11 10  1  0  0  0  0
 12 14  1  0  0  0  0
 12 13  1  0  0  0  0
 14 15  2  0  0  0  0
 15 16  1  0  0  0  0
 16  3  2  0  0  0  0
 16  1  1  0  0  0  0
 17 15  1  0  0  0  0
 17 18  1  0  0  0  0
 19 17  2  0  0  0  0
 20 19  1  0  0  0  0
 20 29  1  0  0  0  0
 21 20  2  0  0  0  0
 22 21  1  0  0  0  0
 23 21  1  0  0  0  0
 23 25  2  0  0  0  0
 24 23  1  0  0  0  0
 25 27  1  0  0  0  0
 26 25  1  0  0  0  0
 27 29  2  0  0  0  0
 27 28  1  0  0  0  0
 29 30  1  0  0  0  0
M  END
