2
 OpenBabel05122313063D

 31 32  0  0  0  0  0  0  0  0999 V2000
   -1.8588    0.6185   -0.2727 S   0  0  0  0  0  0  0  0  0  0  0  0
    0.3723   -1.3182    0.0456 N   0  0  0  0  0  2  0  0  0  0  0  0
   -0.8996   -1.7917    0.2827 N   0  0  0  0  0  0  0  0  0  0  0  0
   -0.9804   -2.7973    0.4769 H   0  0  0  0  0  0  0  0  0  0  0  0
   -3.2014   -1.6833    0.2081 N   0  0  0  0  0  0  0  0  0  0  0  0
   -3.1766   -2.7070    0.1908 H   0  0  0  0  0  0  0  0  0  0  0  0
    3.1484   -1.4249   -1.3633 C   0  0  0  0  0  0  0  0  0  0  0  0
    2.3922   -0.9992   -2.0433 H   0  0  0  0  0  0  0  0  0  0  0  0
    4.5136   -1.3499   -1.6608 C   0  0  0  0  0  0  0  0  0  0  0  0
    4.8393   -0.8560   -2.5889 H   0  0  0  0  0  0  0  0  0  0  0  0
    5.4668   -1.9170   -0.7955 C   0  0  0  0  0  0  0  0  0  0  0  0
    6.5383   -1.8499   -1.0362 H   0  0  0  0  0  0  0  0  0  0  0  0
    5.0498   -2.5962    0.3620 C   0  0  0  0  0  0  0  0  0  0  0  0
    5.7917   -3.0585    1.0296 H   0  0  0  0  0  0  0  0  0  0  0  0
    3.6854   -2.6989    0.6582 C   0  0  0  0  0  0  0  0  0  0  0  0
    3.3587   -3.2421    1.5588 H   0  0  0  0  0  0  0  0  0  0  0  0
    2.7248   -2.0825   -0.1816 C   0  0  0  0  0  0  0  0  0  0  0  0
    1.3167   -2.2222    0.1673 C   0  0  0  0  0  3  0  0  0  0  0  0
    1.0110   -3.2112    0.5694 H   0  0  0  0  0  0  0  0  0  0  0  0
   -2.0184   -1.0323    0.0952 C   0  0  0  0  0  0  0  0  0  0  0  0
   -4.5082   -1.1151    0.1372 C   0  0  0  0  0  0  0  0  0  0  0  0
   -5.4837   -1.7914   -0.6186 C   0  0  0  0  0  0  0  0  0  0  0  0
   -5.2195   -2.7107   -1.1640 H   0  0  0  0  0  0  0  0  0  0  0  0
   -6.7864   -1.2806   -0.6841 C   0  0  0  0  0  0  0  0  0  0  0  0
   -7.5470   -1.8102   -1.2762 H   0  0  0  0  0  0  0  0  0  0  0  0
   -7.1147   -0.0950   -0.0077 C   0  0  0  0  0  0  0  0  0  0  0  0
   -8.1364    0.3076   -0.0656 H   0  0  0  0  0  0  0  0  0  0  0  0
   -6.1376    0.5706    0.7490 C   0  0  0  0  0  0  0  0  0  0  0  0
   -6.3938    1.4914    1.2935 H   0  0  0  0  0  0  0  0  0  0  0  0
   -4.8342    0.0626    0.8346 C   0  0  0  0  0  0  0  0  0  0  0  0
   -4.0794    0.5699    1.4505 H   0  0  0  0  0  0  0  0  0  0  0  0
  1 20  2  0  0  0  0
  2 18  1  0  0  0  0
  2  3  1  0  0  0  0
  3  4  1  0  0  0  0
  6  5  1  0  0  0  0
  7 17  1  0  0  0  0
  8  7  1  0  0  0  0
  9  7  2  0  0  0  0
  9 11  1  0  0  0  0
 10  9  1  0  0  0  0
 11 13  2  0  0  0  0
 12 11  1  0  0  0  0
 13 15  1  0  0  0  0
 13 14  1  0  0  0  0
 15 16  1  0  0  0  0
 17 18  1  0  0  0  0
 17 15  2  0  0  0  0
 18 19  1  0  0  0  0
 20  5  1  0  0  0  0
 20  3  1  0  0  0  0
 21  5  1  0  0  0  0
 21 30  1  0  0  0  0
 22 21  2  0  0  0  0
 23 22  1  0  0  0  0
 24 22  1  0  0  0  0
 24 26  2  0  0  0  0
 25 24  1  0  0  0  0
 26 28  1  0  0  0  0
 27 26  1  0  0  0  0
 28 30  2  0  0  0  0
 28 29  1  0  0  0  0
 30 31  1  0  0  0  0
M  END
