1
 OpenBabel05122313063D

 25 26  0  0  0  0  0  0  0  0999 V2000
   -0.1100    0.3729    1.2610 N   0  0  0  0  0  2  0  0  0  0  0  0
   -2.1947    0.2721    0.3491 O   0  0  0  0  0  0  0  0  0  0  0  0
    0.7122    0.3615    2.3437 C   0  0  0  0  0  3  0  0  0  0  0  0
    1.7763    0.5190    2.1247 H   0  0  0  0  0  0  0  0  0  0  0  0
   -1.4369    0.1789    1.4605 C   0  0  0  0  0  0  0  0  0  0  0  0
   -1.1211   -0.0525    3.8442 C   0  0  0  0  0  0  0  0  0  0  0  0
   -1.5258   -0.2114    4.8546 H   0  0  0  0  0  0  0  0  0  0  0  0
   -3.4908   -0.2587    0.3397 C   0  0  0  0  0  0  0  0  0  0  0  0
    0.2547    0.1530    3.6424 C   0  0  0  0  0  0  0  0  0  0  0  0
    0.9677    0.1572    4.4777 H   0  0  0  0  0  0  0  0  0  0  0  0
   -1.9779   -0.0402    2.7437 C   0  0  0  0  0  0  0  0  0  0  0  0
   -3.0610   -0.1854    2.8506 H   0  0  0  0  0  0  0  0  0  0  0  0
   -3.6901   -1.6412    0.4764 C   0  0  0  0  0  0  0  0  0  0  0  0
   -2.8302   -2.3070    0.6392 H   0  0  0  0  0  0  0  0  0  0  0  0
   -6.0996   -1.3015    0.1526 C   0  0  0  0  0  0  0  0  0  0  0  0
   -4.5614    0.6093    0.1066 C   0  0  0  0  0  0  0  0  0  0  0  0
   -4.3771    1.6882   -0.0000 H   0  0  0  0  0  0  0  0  0  0  0  0
   -4.9921   -2.1475    0.3869 C   0  0  0  0  0  0  0  0  0  0  0  0
   -5.1530   -3.2317    0.4928 H   0  0  0  0  0  0  0  0  0  0  0  0
   -5.8580    0.0797    0.0125 C   0  0  0  0  0  0  0  0  0  0  0  0
   -6.7033    0.7602   -0.1718 H   0  0  0  0  0  0  0  0  0  0  0  0
   -7.4912   -1.8703    0.0532 C   0  0  0  0  0  0  0  0  0  0  0  0
   -7.5662   -2.6026   -0.7772 H   0  0  0  0  0  0  0  0  0  0  0  0
   -8.2459   -1.0806   -0.1220 H   0  0  0  0  0  0  0  0  0  0  0  0
   -7.7714   -2.4097    0.9814 H   0  0  0  0  0  0  0  0  0  0  0  0
  1  5  1  0  0  0  0
  1  3  1  0  0  0  0
  2  5  1  0  0  0  0
  3  9  1  0  0  0  0
  4  3  1  0  0  0  0
  5 11  2  0  0  0  0
  6  7  1  0  0  0  0
  8  2  1  0  0  0  0
  8 13  1  0  0  0  0
  9  6  2  0  0  0  0
  9 10  1  0  0  0  0
 11 12  1  0  0  0  0
 11  6  1  0  0  0  0
 13 14  1  0  0  0  0
 15 18  1  0  0  0  0
 16  8  2  0  0  0  0
 17 16  1  0  0  0  0
 18 13  2  0  0  0  0
 18 19  1  0  0  0  0
 20 16  1  0  0  0  0
 20 15  2  0  0  0  0
 21 20  1  0  0  0  0
 22 15  1  0  0  0  0
 22 25  1  0  0  0  0
 23 22  1  0  0  0  0
 24 22  1  0  0  0  0
M  END
