3
 OpenBabel05122313063D

  4  3  0  0  0  0  0  0  0  0999 V2000
    0.3867   -0.5724   -2.2296 N   0  0  0  0  0  2  0  0  0  0  0  0
   -0.2678   -1.3563   -2.4021 H   0  0  0  0  0  0  0  0  0  0  0  0
   -0.3866    0.5725   -2.2296 N   0  0  0  0  0  2  0  0  0  0  0  0
    0.2678    1.3565   -2.4019 H   0  0  0  0  0  0  0  0  0  0  0  0
  1  3  1  0  0  0  0
  2  1  1  0  0  0  0
  4  3  1  0  0  0  0
M  END
