2
 OpenBabel05122313063D

 20 20  0  0  1  0  0  0  0  0999 V2000
    7.0580    1.4824   -1.1606 F   0  0  0  0  0  0  0  0  0  0  0  0
    0.9324    0.4378   -0.2490 N   0  0  0  0  0  0  0  0  0  0  0  0
    1.3708   -0.1294   -0.9937 H   0  0  0  0  0  0  0  0  0  0  0  0
    0.8499    1.3920   -0.6366 H   0  0  0  0  0  0  0  0  0  0  0  0
    1.8858    0.4614    0.9222 C   0  0  1  0  0  0  0  0  0  0  0  0
    1.8748   -0.5835    1.2945 H   0  0  0  0  0  0  0  0  0  0  0  0
    3.2856    0.7687    0.4160 C   0  0  0  0  0  0  0  0  0  0  0  0
    4.0618   -0.2891   -0.1059 C   0  0  0  0  0  0  0  0  0  0  0  0
    3.6548   -1.3139   -0.0876 H   0  0  0  0  0  0  0  0  0  0  0  0
    5.3353   -0.0583   -0.6409 C   0  0  0  0  0  0  0  0  0  0  0  0
    5.9503   -0.8756   -1.0438 H   0  0  0  0  0  0  0  0  0  0  0  0
    5.8352    1.2503   -0.6523 C   0  0  0  0  0  0  0  0  0  0  0  0
    5.0925    2.3217   -0.1419 C   0  0  0  0  0  0  0  0  0  0  0  0
    5.5221    3.3334   -0.1629 H   0  0  0  0  0  0  0  0  0  0  0  0
    3.8186    2.0728    0.3889 C   0  0  0  0  0  0  0  0  0  0  0  0
    3.2407    2.9157    0.7963 H   0  0  0  0  0  0  0  0  0  0  0  0
    1.3579    1.3812    2.0145 C   0  0  0  0  0  0  0  0  0  0  0  0
    0.3515    1.0451    2.3317 H   0  0  0  0  0  0  0  0  0  0  0  0
    1.2703    2.4343    1.6766 H   0  0  0  0  0  0  0  0  0  0  0  0
    2.0375    1.3613    2.8877 H   0  0  0  0  0  0  0  0  0  0  0  0
  1 12  1  0  0  0  0
  2  5  1  0  0  0  0
  3  2  1  0  0  0  0
  4  2  1  0  0  0  0
  5  6  1  1  0  0  0
  5 17  1  0  0  0  0
  7  5  1  0  0  0  0
  8  9  1  0  0  0  0
  8  7  2  0  0  0  0
 10  8  1  0  0  0  0
 11 10  1  0  0  0  0
 12 10  2  0  0  0  0
 12 13  1  0  0  0  0
 13 15  2  0  0  0  0
 14 13  1  0  0  0  0
 15  7  1  0  0  0  0
 15 16  1  0  0  0  0
 17 18  1  0  0  0  0
 17 20  1  0  0  0  0
 19 17  1  0  0  0  0
M  END
