1
 OpenBabel05122313063D

 24 25  0  0  1  0  0  0  0  0999 V2000
    1.8380   -0.6147   -0.7822 N   0  0  0  0  0  2  0  0  0  0  0  0
    2.1404    0.7514    1.2145 C   0  0  0  0  0  0  0  0  0  0  0  0
    2.6973    0.1051   -0.0052 C   0  0  1  0  0  3  0  0  0  0  0  0
    2.2879   -1.2638   -1.8825 C   0  0  0  0  0  0  0  0  0  0  0  0
    1.5337   -1.8398   -2.4353 H   0  0  0  0  0  0  0  0  0  0  0  0
    2.1475    2.1542    1.3456 C   0  0  0  0  0  0  0  0  0  0  0  0
    2.5511    2.7761    0.5327 H   0  0  0  0  0  0  0  0  0  0  0  0
    3.6224   -1.1960   -2.2774 C   0  0  0  0  0  0  0  0  0  0  0  0
    3.9509   -1.7305   -3.1794 H   0  0  0  0  0  0  0  0  0  0  0  0
    4.0731    0.2045   -0.3391 C   0  0  0  0  0  0  0  0  0  0  0  0
    4.5184   -0.4549   -1.4977 C   0  0  0  0  0  0  0  0  0  0  0  0
    5.5827   -0.4004   -1.7749 H   0  0  0  0  0  0  0  0  0  0  0  0
    1.5870   -0.0426    2.2440 C   0  0  0  0  0  0  0  0  0  0  0  0
    1.5587   -1.1379    2.1309 H   0  0  0  0  0  0  0  0  0  0  0  0
    5.0370    0.9616    0.5370 C   0  0  0  0  0  0  0  0  0  0  0  0
    4.9418    2.0581    0.3994 H   0  0  0  0  0  0  0  0  0  0  0  0
    6.0824    0.6838    0.3019 H   0  0  0  0  0  0  0  0  0  0  0  0
    4.8463    0.7630    1.6097 H   0  0  0  0  0  0  0  0  0  0  0  0
    1.5969    2.7610    2.4834 C   0  0  0  0  0  0  0  0  0  0  0  0
    1.5845    3.8583    2.5651 H   0  0  0  0  0  0  0  0  0  0  0  0
    1.0547    1.9697    3.5079 C   0  0  0  0  0  0  0  0  0  0  0  0
    0.6244    2.4462    4.4020 H   0  0  0  0  0  0  0  0  0  0  0  0
    1.0569    0.5705    3.3879 C   0  0  0  0  0  0  0  0  0  0  0  0
    0.6284   -0.0541    4.1861 H   0  0  0  0  0  0  0  0  0  0  0  0
  1  3  1  0  0  0  0
  2  6  2  0  0  0  0
  2 13  1  0  0  0  0
  3  2  1  1  0  0  0
  4  1  1  0  0  0  0
  5  4  1  0  0  0  0
  6 19  1  0  0  0  0
  7  6  1  0  0  0  0
  8  4  2  0  0  0  0
  8 11  1  0  0  0  0
  9  8  1  0  0  0  0
 10  3  1  0  0  0  0
 10 15  1  0  0  0  0
 11 10  2  0  0  0  0
 12 11  1  0  0  0  0
 13 23  2  0  0  0  0
 14 13  1  0  0  0  0
 15 18  1  0  0  0  0
 16 15  1  0  0  0  0
 17 15  1  0  0  0  0
 19 20  1  0  0  0  0
 19 21  2  0  0  0  0
 21 22  1  0  0  0  0
 23 21  1  0  0  0  0
 23 24  1  0  0  0  0
M  END
