1
 OpenBabel05122313063D

  8  7  0  0  0  0  0  0  0  0999 V2000
    2.2124   -0.0003    0.4329 N   0  0  0  0  0  0  0  0  0  0  0  0
    5.6350    0.0001   -0.0952 N   0  0  0  0  0  0  0  0  0  0  0  0
    3.0891    0.0004   -0.7644 C   0  0  0  0  0  0  0  0  0  0  0  0
    4.5053    0.0002   -0.4035 C   0  0  0  0  0  0  0  0  0  0  0  0
    2.3665   -0.8342    1.0304 H   0  0  0  0  0  0  0  0  0  0  0  0
    2.8259    0.8905   -1.3732 H   0  0  0  0  0  0  0  0  0  0  0  0
    2.3665    0.8330    1.0314 H   0  0  0  0  0  0  0  0  0  0  0  0
    2.8259   -0.8889   -1.3743 H   0  0  0  0  0  0  0  0  0  0  0  0
  1  5  1  0  0  0  0
  1  7  1  0  0  0  0
  3  4  1  0  0  0  0
  3  1  1  0  0  0  0
  4  2  3  0  0  0  0
  6  3  1  0  0  0  0
  8  3  1  0  0  0  0
M  END
