2
 OpenBabel05122313063D

 36 38  0  0  1  0  0  0  0  0999 V2000
    1.1014    0.3691   -0.5332 P   0  0  0  0  0  0  0  0  0  0  0  0
   -1.6329    0.9412   -1.2672 N   0  0  0  0  0  2  0  0  0  0  0  0
    0.6425    1.1152   -2.1676 C   0  0  0  0  0  0  0  0  0  0  0  0
   -0.7944    1.5478   -2.1569 C   0  0  1  0  0  3  0  0  0  0  0  0
   -1.2808    2.4983   -3.0703 C   0  0  0  0  0  0  0  0  0  0  0  0
   -2.6458    2.8027   -3.1038 C   0  0  0  0  0  0  0  0  0  0  0  0
   -3.5030    2.1325   -2.2204 C   0  0  0  0  0  0  0  0  0  0  0  0
   -2.9565    1.2123   -1.3239 C   0  0  0  0  0  0  0  0  0  0  0  0
    2.5588   -0.6771   -0.8535 C   0  0  0  0  0  0  0  0  0  0  0  0
    3.8131   -0.0873   -1.1287 C   0  0  0  0  0  0  0  0  0  0  0  0
    4.9165   -0.9020   -1.4175 C   0  0  0  0  0  0  0  0  0  0  0  0
    4.7763   -2.3000   -1.4324 C   0  0  0  0  0  0  0  0  0  0  0  0
    3.5280   -2.8854   -1.1699 C   0  0  0  0  0  0  0  0  0  0  0  0
    2.4163   -2.0793   -0.8831 C   0  0  0  0  0  0  0  0  0  0  0  0
    1.6721    1.7560    0.5146 C   0  0  0  0  0  0  0  0  0  0  0  0
    2.7325    1.5983    1.4334 C   0  0  0  0  0  0  0  0  0  0  0  0
    3.0717    2.6450    2.3052 C   0  0  0  0  0  0  0  0  0  0  0  0
    2.3612    3.8549    2.2682 C   0  0  0  0  0  0  0  0  0  0  0  0
    1.3077    4.0189    1.3532 C   0  0  0  0  0  0  0  0  0  0  0  0
    0.9588    2.9754    0.4851 C   0  0  0  0  0  0  0  0  0  0  0  0
    1.3317    1.9216   -2.4845 H   0  0  0  0  0  0  0  0  0  0  0  0
    0.7414    0.2620   -2.8752 H   0  0  0  0  0  0  0  0  0  0  0  0
   -0.5772    2.9803   -3.7637 H   0  0  0  0  0  0  0  0  0  0  0  0
   -3.0364    3.5409   -3.8196 H   0  0  0  0  0  0  0  0  0  0  0  0
   -4.5871    2.3113   -2.2198 H   0  0  0  0  0  0  0  0  0  0  0  0
   -3.5944    0.6574   -0.6266 H   0  0  0  0  0  0  0  0  0  0  0  0
    3.9313    1.0070   -1.1158 H   0  0  0  0  0  0  0  0  0  0  0  0
    5.8922   -0.4417   -1.6333 H   0  0  0  0  0  0  0  0  0  0  0  0
    5.6458   -2.9356   -1.6573 H   0  0  0  0  0  0  0  0  0  0  0  0
    3.4143   -3.9793   -1.1972 H   0  0  0  0  0  0  0  0  0  0  0  0
    1.4245   -2.5263   -0.7244 H   0  0  0  0  0  0  0  0  0  0  0  0
    3.3066    0.6606    1.4592 H   0  0  0  0  0  0  0  0  0  0  0  0
    3.9034    2.5143    3.0134 H   0  0  0  0  0  0  0  0  0  0  0  0
    2.6324    4.6748    2.9496 H   0  0  0  0  0  0  0  0  0  0  0  0
    0.7529    4.9682    1.3153 H   0  0  0  0  0  0  0  0  0  0  0  0
    0.1214    3.1157   -0.2152 H   0  0  0  0  0  0  0  0  0  0  0  0
  1 15  1  0  0  0  0
  3  1  1  0  0  0  0
  4  3  1  6  0  0  0
  4  2  1  0  0  0  0
  5  4  1  0  0  0  0
  6  5  2  0  0  0  0
  6  7  1  0  0  0  0
  7 25  1  0  0  0  0
  7  8  2  0  0  0  0
  8  2  1  0  0  0  0
  8 26  1  0  0  0  0
  9  1  1  0  0  0  0
 10 27  1  0  0  0  0
 10  9  2  0  0  0  0
 11 10  1  0  0  0  0
 12 11  2  0  0  0  0
 12 13  1  0  0  0  0
 13 14  2  0  0  0  0
 14  9  1  0  0  0  0
 14 31  1  0  0  0  0
 15 16  1  0  0  0  0
 16 32  1  0  0  0  0
 16 17  2  0  0  0  0
 17 33  1  0  0  0  0
 18 17  1  0  0  0  0
 18 34  1  0  0  0  0
 19 18  2  0  0  0  0
 20 15  2  0  0  0  0
 20 19  1  0  0  0  0
 21  3  1  0  0  0  0
 22  3  1  0  0  0  0
 23  5  1  0  0  0  0
 24  6  1  0  0  0  0
 28 11  1  0  0  0  0
 29 12  1  0  0  0  0
 30 13  1  0  0  0  0
 35 19  1  0  0  0  0
 36 20  1  0  0  0  0
M  END
