2
 OpenBabel05122313063D

 26 28  0  0  1  0  0  0  0  0999 V2000
   -1.1603    0.6777   -0.5765 N   0  0  0  0  0  0  0  0  0  0  0  0
    1.5535    1.1389   -0.1056 N   0  0  0  0  0  2  0  0  0  0  0  0
   -0.7944    1.8701   -0.1251 C   0  0  0  0  0  0  0  0  0  0  0  0
   -1.7318    2.8258    0.3726 C   0  0  0  0  0  0  0  0  0  0  0  0
   -3.0736    2.4860    0.3943 C   0  0  0  0  0  0  0  0  0  0  0  0
   -3.4920    1.2048   -0.0619 C   0  0  0  0  0  0  0  0  0  0  0  0
   -2.4659    0.3084   -0.5400 C   0  0  0  0  0  0  0  0  0  0  0  0
   -4.8448    0.7639   -0.0507 C   0  0  0  0  0  0  0  0  0  0  0  0
   -5.1631   -0.5161   -0.4819 C   0  0  0  0  0  0  0  0  0  0  0  0
   -4.1468   -1.4044   -0.9334 C   0  0  0  0  0  0  0  0  0  0  0  0
   -2.8201   -1.0052   -0.9678 C   0  0  0  0  0  0  0  0  0  0  0  0
    0.6642    2.1672   -0.1629 C   0  0  2  0  0  3  0  0  0  0  0  0
    1.1463    3.4850   -0.2928 C   0  0  0  0  0  0  0  0  0  0  0  0
    2.5204    3.7298   -0.3667 C   0  0  0  0  0  0  0  0  0  0  0  0
    3.4080    2.6461   -0.3254 C   0  0  0  0  0  0  0  0  0  0  0  0
    2.8810    1.3586   -0.2016 C   0  0  0  0  0  0  0  0  0  0  0  0
   -1.3952    3.7946    0.7668 H   0  0  0  0  0  0  0  0  0  0  0  0
   -3.8237    3.1920    0.7835 H   0  0  0  0  0  0  0  0  0  0  0  0
   -5.6283    1.4476    0.3114 H   0  0  0  0  0  0  0  0  0  0  0  0
   -6.2101   -0.8548   -0.4668 H   0  0  0  0  0  0  0  0  0  0  0  0
   -4.4198   -2.4217   -1.2514 H   0  0  0  0  0  0  0  0  0  0  0  0
   -2.0131   -1.6808   -1.2862 H   0  0  0  0  0  0  0  0  0  0  0  0
    0.4268    4.3109   -0.3688 H   0  0  0  0  0  0  0  0  0  0  0  0
    2.8948    4.7588   -0.4728 H   0  0  0  0  0  0  0  0  0  0  0  0
    4.4959    2.7827   -0.3923 H   0  0  0  0  0  0  0  0  0  0  0  0
    3.5189    0.4635   -0.1896 H   0  0  0  0  0  0  0  0  0  0  0  0
  1  7  2  0  0  0  0
  1  3  1  0  0  0  0
  3  4  2  0  0  0  0
  4  5  1  0  0  0  0
  4 17  1  0  0  0  0
  5 18  1  0  0  0  0
  6  8  1  0  0  0  0
  6  5  2  0  0  0  0
  7  6  1  0  0  0  0
  8 19  1  0  0  0  0
  9 20  1  0  0  0  0
  9  8  2  0  0  0  0
 10  9  1  0  0  0  0
 11 10  2  0  0  0  0
 11  7  1  0  0  0  0
 12  3  1  6  0  0  0
 12  2  1  0  0  0  0
 13 12  1  0  0  0  0
 14 15  1  0  0  0  0
 14 13  2  0  0  0  0
 15 16  2  0  0  0  0
 16 26  1  0  0  0  0
 16  2  1  0  0  0  0
 21 10  1  0  0  0  0
 22 11  1  0  0  0  0
 23 13  1  0  0  0  0
 24 14  1  0  0  0  0
 25 15  1  0  0  0  0
M  END
