1
 OpenBabel05122313063D

  9  9  0  0  0  0  0  0  0  0999 V2000
    0.3324    1.6747    1.1385 N   0  0  0  0  0  2  0  0  0  0  0  0
    0.9368    2.2308    2.2298 C   0  0  0  0  0  0  0  0  0  0  0  0
    1.1801    1.5485    3.0584 H   0  0  0  0  0  0  0  0  0  0  0  0
    0.4073    3.8597    0.1648 N   0  0  0  0  0  0  0  0  0  0  0  0
    0.1022    2.5671    0.1293 C   0  0  0  0  0  3  0  0  0  0  0  0
   -0.3751    2.1777   -0.7796 H   0  0  0  0  0  0  0  0  0  0  0  0
    0.9836    4.2902    1.2952 C   0  0  0  0  0  0  0  0  0  0  0  0
    1.2507    5.3591    1.3624 H   0  0  0  0  0  0  0  0  0  0  0  0
    1.2651    3.5094    2.3540 N   0  0  0  0  0  0  0  0  0  0  0  0
  1  2  1  0  0  0  0
  2  9  2  0  0  0  0
  2  3  1  0  0  0  0
  4  7  2  0  0  0  0
  5  4  1  0  0  0  0
  5  1  1  0  0  0  0
  6  5  1  0  0  0  0
  7  8  1  0  0  0  0
  7  9  1  0  0  0  0
M  END
