1
 OpenBabel05122313063D

 15 14  0  0  0  0  0  0  0  0999 V2000
   -0.7743    1.6452   -0.3566 N   0  0  0  0  0  2  0  0  0  0  0  0
   -0.0640    2.3282   -0.6480 H   0  0  0  0  0  0  0  0  0  0  0  0
   -2.0375    2.3407   -0.0582 C   0  0  0  0  0  0  0  0  0  0  0  0
   -2.0738    2.6525    1.4535 C   0  0  0  0  0  0  0  0  0  0  0  0
   -2.0242    1.7102    2.0346 H   0  0  0  0  0  0  0  0  0  0  0  0
   -2.9996    3.1967    1.7328 H   0  0  0  0  0  0  0  0  0  0  0  0
   -1.1996    3.2698    1.7414 H   0  0  0  0  0  0  0  0  0  0  0  0
   -3.2399    1.4762   -0.4532 C   0  0  0  0  0  0  0  0  0  0  0  0
   -3.2111    1.2406   -1.5354 H   0  0  0  0  0  0  0  0  0  0  0  0
   -4.1900    2.0010   -0.2292 H   0  0  0  0  0  0  0  0  0  0  0  0
   -3.2309    0.5248    0.1067 H   0  0  0  0  0  0  0  0  0  0  0  0
   -2.0577    3.6526   -0.8639 C   0  0  0  0  0  0  0  0  0  0  0  0
   -2.0085    3.4438   -1.9517 H   0  0  0  0  0  0  0  0  0  0  0  0
   -1.1931    4.2947   -0.5945 H   0  0  0  0  0  0  0  0  0  0  0  0
   -2.9823    4.2295   -0.6619 H   0  0  0  0  0  0  0  0  0  0  0  0
  1  3  1  0  0  0  0
  2  1  1  0  0  0  0
  3  4  1  0  0  0  0
  4  6  1  0  0  0  0
  4  7  1  0  0  0  0
  4  5  1  0  0  0  0
  8 10  1  0  0  0  0
  8  3  1  0  0  0  0
  8 11  1  0  0  0  0
  9  8  1  0  0  0  0
 12 15  1  0  0  0  0
 12 14  1  0  0  0  0
 12  3  1  0  0  0  0
 13 12  1  0  0  0  0
M  END
