1
 OpenBabel05122313063D

 23 25  0  0  0  0  0  0  0  0999 V2000
   -0.3796    0.5289    0.9874 N   0  0  0  0  0  2  0  0  0  0  0  0
    1.8400    0.3664    1.2442 N   0  0  0  0  0  0  0  0  0  0  0  0
    3.3558    2.1124    0.9813 N   0  0  0  0  0  0  0  0  0  0  0  0
    4.1295   -0.1361    1.3328 N   0  0  0  0  0  0  0  0  0  0  0  0
    0.7747    1.1827    0.9398 C   0  0  0  0  0  3  0  0  0  0  0  0
    0.9124    2.2327    0.6646 H   0  0  0  0  0  0  0  0  0  0  0  0
    1.3261   -0.9156    1.5099 C   0  0  0  0  0  0  0  0  0  0  0  0
   -0.0843   -0.7983    1.3542 C   0  0  0  0  0  0  0  0  0  0  0  0
    3.1808    0.7975    1.1856 C   0  0  0  0  0  0  0  0  0  0  0  0
    5.3946    0.2989    1.2324 C   0  0  0  0  0  0  0  0  0  0  0  0
    6.1854   -0.4620    1.3525 H   0  0  0  0  0  0  0  0  0  0  0  0
    5.7109    1.6427    0.9888 C   0  0  0  0  0  0  0  0  0  0  0  0
    6.7501    1.9881    0.9015 H   0  0  0  0  0  0  0  0  0  0  0  0
    4.6234    2.5254    0.8795 C   0  0  0  0  0  0  0  0  0  0  0  0
    4.7767    3.6051    0.7068 H   0  0  0  0  0  0  0  0  0  0  0  0
    1.9378   -2.1244    1.8741 C   0  0  0  0  0  0  0  0  0  0  0  0
    3.0264   -2.1862    1.9767 H   0  0  0  0  0  0  0  0  0  0  0  0
    1.0911   -3.2192    2.0879 C   0  0  0  0  0  0  0  0  0  0  0  0
    1.5316   -4.1844    2.3797 H   0  0  0  0  0  0  0  0  0  0  0  0
   -0.3090   -3.1144    1.9322 C   0  0  0  0  0  0  0  0  0  0  0  0
   -0.9391   -3.9994    2.1041 H   0  0  0  0  0  0  0  0  0  0  0  0
   -0.9200   -1.9110    1.5600 C   0  0  0  0  0  0  0  0  0  0  0  0
   -2.0040   -1.8283    1.4167 H   0  0  0  0  0  0  0  0  0  0  0  0
  1  8  1  0  0  0  0
  2  7  1  0  0  0  0
  3  9  1  0  0  0  0
  5  1  1  0  0  0  0
  5  2  1  0  0  0  0
  6  5  1  0  0  0  0
  7 16  1  0  0  0  0
  8  7  2  0  0  0  0
  8 22  1  0  0  0  0
  9  2  1  0  0  0  0
  9  4  2  0  0  0  0
 10  4  1  0  0  0  0
 10 11  1  0  0  0  0
 12 10  2  0  0  0  0
 13 12  1  0  0  0  0
 14  3  2  0  0  0  0
 14 12  1  0  0  0  0
 15 14  1  0  0  0  0
 16 17  1  0  0  0  0
 16 18  2  0  0  0  0
 18 19  1  0  0  0  0
 20 18  1  0  0  0  0
 20 21  1  0  0  0  0
 22 20  2  0  0  0  0
 23 22  1  0  0  0  0
M  END
