1
 OpenBabel05122313063D

 21 21  0  0  1  0  0  0  0  0999 V2000
   -1.8924   -0.6995    0.0000 N   0  0  0  0  0  2  0  0  0  0  0  0
   -2.9380    0.1494    0.0004 N   0  0  0  0  0  0  0  0  0  0  0  0
   -2.6890    1.1590    0.0005 H   0  0  0  0  0  0  0  0  0  0  0  0
   -4.1268   -0.5020    0.0002 C   0  0  2  0  0  3  0  0  0  0  0  0
   -3.8125   -1.8722   -0.0003 C   0  0  0  0  0  0  0  0  0  0  0  0
   -4.5165   -2.7100   -0.0005 H   0  0  0  0  0  0  0  0  0  0  0  0
   -2.4061   -1.9464   -0.0004 C   0  0  0  0  0  0  0  0  0  0  0  0
   -1.7264   -2.8048   -0.0006 H   0  0  0  0  0  0  0  0  0  0  0  0
   -5.4609    0.2188    0.0001 C   0  0  0  0  0  0  0  0  0  0  0  0
   -6.2502   -0.1966    1.2614 C   0  0  0  0  0  0  0  0  0  0  0  0
   -5.7040    0.0843    2.1840 H   0  0  0  0  0  0  0  0  0  0  0  0
   -6.4207   -1.2913    1.2868 H   0  0  0  0  0  0  0  0  0  0  0  0
   -7.2398    0.3045    1.2771 H   0  0  0  0  0  0  0  0  0  0  0  0
   -5.2518    1.7447    0.0027 C   0  0  0  0  0  0  0  0  0  0  0  0
   -4.6976    2.0820    0.9024 H   0  0  0  0  0  0  0  0  0  0  0  0
   -6.2324    2.2600    0.0028 H   0  0  0  0  0  0  0  0  0  0  0  0
   -4.6963    2.0850   -0.8950 H   0  0  0  0  0  0  0  0  0  0  0  0
   -6.2477   -0.1925   -1.2642 C   0  0  0  0  0  0  0  0  0  0  0  0
   -7.2372    0.3087   -1.2803 H   0  0  0  0  0  0  0  0  0  0  0  0
   -6.4181   -1.2871   -1.2935 H   0  0  0  0  0  0  0  0  0  0  0  0
   -5.6996    0.0914   -2.1848 H   0  0  0  0  0  0  0  0  0  0  0  0
  1  2  1  0  0  0  0
  2  3  1  0  0  0  0
  4  9  1  6  0  0  0
  4  2  1  0  0  0  0
  5  4  1  0  0  0  0
  6  5  1  0  0  0  0
  7  5  2  0  0  0  0
  7  1  1  0  0  0  0
  8  7  1  0  0  0  0
  9 14  1  0  0  0  0
  9 10  1  0  0  0  0
 10 13  1  0  0  0  0
 10 12  1  0  0  0  0
 10 11  1  0  0  0  0
 14 16  1  0  0  0  0
 14 15  1  0  0  0  0
 17 14  1  0  0  0  0
 18  9  1  0  0  0  0
 19 18  1  0  0  0  0
 20 18  1  0  0  0  0
 21 18  1  0  0  0  0
M  END
