2
 OpenBabel05122313063D

 33 35  0  0  0  0  0  0  0  0999 V2000
   -2.2256   -2.3575    2.0886 P   0  0  0  0  0  0  0  0  0  0  0  0
    1.4652   -1.4170    0.4896 N   0  0  0  0  0  2  0  0  0  0  0  0
   -0.4422   -2.4170    1.5845 C   0  0  0  0  0  0  0  0  0  0  0  0
    0.2009   -1.3424    0.9449 C   0  0  0  0  0  3  0  0  0  0  0  0
   -0.3314   -0.3937    0.7670 H   0  0  0  0  0  0  0  0  0  0  0  0
    2.1753   -2.5455    0.6838 C   0  0  0  0  0  0  0  0  0  0  0  0
    3.1942   -2.5414    0.2579 H   0  0  0  0  0  0  0  0  0  0  0  0
    1.6324   -3.6553    1.3437 C   0  0  0  0  0  0  0  0  0  0  0  0
    2.2411   -4.5596    1.4889 H   0  0  0  0  0  0  0  0  0  0  0  0
    0.3037   -3.5950    1.7872 C   0  0  0  0  0  0  0  0  0  0  0  0
   -0.1634   -4.4597    2.2853 H   0  0  0  0  0  0  0  0  0  0  0  0
   -3.0591   -2.5622    0.4440 C   0  0  0  0  0  0  0  0  0  0  0  0
   -4.4510   -2.8049    0.4679 C   0  0  0  0  0  0  0  0  0  0  0  0
   -4.9745   -2.8703    1.4356 H   0  0  0  0  0  0  0  0  0  0  0  0
   -5.1715   -2.9579   -0.7258 C   0  0  0  0  0  0  0  0  0  0  0  0
   -6.2570   -3.1365   -0.6894 H   0  0  0  0  0  0  0  0  0  0  0  0
   -4.5061   -2.9007   -1.9622 C   0  0  0  0  0  0  0  0  0  0  0  0
   -5.0677   -3.0381   -2.8990 H   0  0  0  0  0  0  0  0  0  0  0  0
   -3.1206   -2.6761   -1.9941 C   0  0  0  0  0  0  0  0  0  0  0  0
   -2.5800   -2.6326   -2.9532 H   0  0  0  0  0  0  0  0  0  0  0  0
   -2.4008   -2.5003   -0.8010 C   0  0  0  0  0  0  0  0  0  0  0  0
   -1.3224   -2.2932   -0.8701 H   0  0  0  0  0  0  0  0  0  0  0  0
   -2.4112   -0.5378    2.3843 C   0  0  0  0  0  0  0  0  0  0  0  0
   -3.2399    0.2972    1.6116 C   0  0  0  0  0  0  0  0  0  0  0  0
   -3.7769   -0.1046    0.7408 H   0  0  0  0  0  0  0  0  0  0  0  0
   -3.3788    1.6564    1.9360 C   0  0  0  0  0  0  0  0  0  0  0  0
   -4.0244    2.2929    1.3139 H   0  0  0  0  0  0  0  0  0  0  0  0
   -2.6810    2.1975    3.0254 C   0  0  0  0  0  0  0  0  0  0  0  0
   -2.7859    3.2646    3.2737 H   0  0  0  0  0  0  0  0  0  0  0  0
   -1.8465    1.3718    3.7993 C   0  0  0  0  0  0  0  0  0  0  0  0
   -1.2959    1.7890    4.6566 H   0  0  0  0  0  0  0  0  0  0  0  0
   -1.7225    0.0110    3.4901 C   0  0  0  0  0  0  0  0  0  0  0  0
   -1.0786   -0.6338    4.1103 H   0  0  0  0  0  0  0  0  0  0  0  0
  1 23  1  0  0  0  0
  2  6  1  0  0  0  0
  2  4  1  0  0  0  0
  3 10  2  0  0  0  0
  3  1  1  0  0  0  0
  4  3  1  0  0  0  0
  5  4  1  0  0  0  0
  6  8  2  0  0  0  0
  7  6  1  0  0  0  0
  8  9  1  0  0  0  0
  8 10  1  0  0  0  0
 10 11  1  0  0  0  0
 12 13  1  0  0  0  0
 12  1  1  0  0  0  0
 13 14  1  0  0  0  0
 15 16  1  0  0  0  0
 15 13  2  0  0  0  0
 17 15  1  0  0  0  0
 18 17  1  0  0  0  0
 19 17  2  0  0  0  0
 19 21  1  0  0  0  0
 20 19  1  0  0  0  0
 21 12  2  0  0  0  0
 22 21  1  0  0  0  0
 23 32  1  0  0  0  0
 24 26  1  0  0  0  0
 24 23  2  0  0  0  0
 25 24  1  0  0  0  0
 26 28  2  0  0  0  0
 27 26  1  0  0  0  0
 28 29  1  0  0  0  0
 28 30  1  0  0  0  0
 30 31  1  0  0  0  0
 32 30  2  0  0  0  0
 32 33  1  0  0  0  0
M  END
