2
 OpenBabel05122313063D

 27 28  0  0  0  0  0  0  0  0999 V2000
   -4.0150    0.3486   -1.0803 N   0  0  0  0  0  0  0  0  0  0  0  0
   -1.8946    0.5720   -0.4074 N   0  0  0  0  0  2  0  0  0  0  0  0
   -5.8734   -3.1300    1.0630 C   0  0  0  0  0  0  0  0  0  0  0  0
   -6.8217   -3.5489    0.6654 H   0  0  0  0  0  0  0  0  0  0  0  0
   -5.2587   -3.9750    1.4309 H   0  0  0  0  0  0  0  0  0  0  0  0
   -6.1306   -2.5001    1.9399 H   0  0  0  0  0  0  0  0  0  0  0  0
   -5.1250   -2.3212    0.0035 C   0  0  0  0  0  0  0  0  0  0  0  0
   -4.1615   -1.9652    0.4293 H   0  0  0  0  0  0  0  0  0  0  0  0
   -4.8468   -2.9829   -0.8476 H   0  0  0  0  0  0  0  0  0  0  0  0
   -5.9386   -1.1375   -0.5293 C   0  0  0  0  0  0  0  0  0  0  0  0
   -6.8890   -1.5012   -0.9784 H   0  0  0  0  0  0  0  0  0  0  0  0
   -6.2319   -0.4711    0.3114 H   0  0  0  0  0  0  0  0  0  0  0  0
   -5.2131   -0.3050   -1.5940 C   0  0  0  0  0  0  0  0  0  0  0  0
   -5.8778    0.4810   -2.0066 H   0  0  0  0  0  0  0  0  0  0  0  0
   -4.9014   -0.9450   -2.4446 H   0  0  0  0  0  0  0  0  0  0  0  0
   -2.7516   -0.1684   -1.1055 C   0  0  0  0  0  3  0  0  0  0  0  0
   -2.4954   -1.1066   -1.6087 H   0  0  0  0  0  0  0  0  0  0  0  0
   -3.9744    1.4960   -0.2915 C   0  0  0  0  0  0  0  0  0  0  0  0
   -2.6194    1.6364    0.1230 C   0  0  0  0  0  0  0  0  0  0  0  0
   -2.2279    2.7133    0.9374 C   0  0  0  0  0  0  0  0  0  0  0  0
   -1.1750    2.8243    1.2300 H   0  0  0  0  0  0  0  0  0  0  0  0
   -3.2193    3.6232    1.3188 C   0  0  0  0  0  0  0  0  0  0  0  0
   -2.9471    4.4785    1.9549 H   0  0  0  0  0  0  0  0  0  0  0  0
   -4.5662    3.4758    0.9045 C   0  0  0  0  0  0  0  0  0  0  0  0
   -5.3132    4.2156    1.2287 H   0  0  0  0  0  0  0  0  0  0  0  0
   -4.9698    2.4096    0.0915 C   0  0  0  0  0  0  0  0  0  0  0  0
   -6.0158    2.2957   -0.2269 H   0  0  0  0  0  0  0  0  0  0  0  0
  1 18  1  0  0  0  0
  2 19  1  0  0  0  0
  3  5  1  0  0  0  0
  3  6  1  0  0  0  0
  4  3  1  0  0  0  0
  7  8  1  0  0  0  0
  7  3  1  0  0  0  0
  9  7  1  0  0  0  0
 10  7  1  0  0  0  0
 10 12  1  0  0  0  0
 11 10  1  0  0  0  0
 13  1  1  0  0  0  0
 13 10  1  0  0  0  0
 14 13  1  0  0  0  0
 15 13  1  0  0  0  0
 16  1  1  0  0  0  0
 16  2  1  0  0  0  0
 17 16  1  0  0  0  0
 18 26  2  0  0  0  0
 18 19  1  0  0  0  0
 19 20  2  0  0  0  0
 20 21  1  0  0  0  0
 20 22  1  0  0  0  0
 22 23  1  0  0  0  0
 24 25  1  0  0  0  0
 24 22  2  0  0  0  0
 26 24  1  0  0  0  0
 27 26  1  0  0  0  0
M  END
