11
 OpenBabel05122313063D

 21 22  0  0  0  0  0  0  0  0999 V2000
    3.5480    1.7135    0.1036 C   0  0  0  0  0  0  0  0  0  0  0  0
    2.2938   -0.0103   -0.4942 C   0  0  0  0  0  0  0  0  0  0  0  0
    1.1399    0.7898   -0.6093 C   0  0  0  0  0  0  0  0  0  0  0  0
    1.2892    2.1623   -0.2565 C   0  0  0  0  0  0  0  0  0  0  0  0
    0.5291   -1.2272   -1.0547 C   0  0  0  0  0  3  0  0  0  0  0  0
    2.6196   -2.5145   -0.4789 C   0  0  0  0  0  0  0  0  0  0  0  0
    2.6128   -2.7861    1.0273 C   0  0  0  0  0  0  0  0  0  0  0  0
    2.5353    2.5946    0.0768 N   0  0  0  0  0  0  0  0  0  0  0  0
    3.5275    0.3915   -0.1469 N   0  0  0  0  0  0  0  0  0  0  0  0
    0.2616    3.0343   -0.2428 N   0  0  0  0  0  0  0  0  0  0  0  0
    0.0562    0.0096   -0.9689 N   0  0  0  0  0  2  0  0  0  0  0  0
    1.8751   -1.3027   -0.7920 N   0  0  0  0  0  0  0  0  0  0  0  0
    4.5335    2.1331    0.3832 H   0  0  0  0  0  0  0  0  0  0  0  0
    0.4629    3.9431    0.1749 H   0  0  0  0  0  0  0  0  0  0  0  0
   -0.7270    2.6941   -0.2365 H   0  0  0  0  0  0  0  0  0  0  0  0
   -0.1192   -2.0994   -1.2331 H   0  0  0  0  0  0  0  0  0  0  0  0
    2.1504   -3.3449   -1.0446 H   0  0  0  0  0  0  0  0  0  0  0  0
    3.6542   -2.3841   -0.8572 H   0  0  0  0  0  0  0  0  0  0  0  0
    3.0654   -3.7736    1.2507 H   0  0  0  0  0  0  0  0  0  0  0  0
    1.5768   -2.7504    1.4229 H   0  0  0  0  0  0  0  0  0  0  0  0
    3.1941   -2.0030    1.5525 H   0  0  0  0  0  0  0  0  0  0  0  0
  1 13  1  0  0  0  0
  2  9  1  0  0  0  0
  3  2  2  0  0  0  0
  3  4  1  0  0  0  0
  4 10  1  0  0  0  0
  4  8  2  0  0  0  0
  5 11  1  0  0  0  0
  5 12  1  0  0  0  0
  6  7  1  0  0  0  0
  7 19  1  0  0  0  0
  7 20  1  0  0  0  0
  7 21  1  0  0  0  0
  8  1  1  0  0  0  0
  9  1  2  0  0  0  0
 10 15  1  0  0  0  0
 10 14  1  0  0  0  0
 11  3  1  0  0  0  0
 12  2  1  0  0  0  0
 12  6  1  0  0  0  0
 16  5  1  0  0  0  0
 17  6  1  0  0  0  0
 18  6  1  0  0  0  0
M  END
