1
 OpenBabel05122313063D

 24 25  0  0  0  0  0  0  0  0999 V2000
   -0.3994   -0.5619   -0.9133 N   0  0  0  0  0  2  0  0  0  0  0  0
   -0.4178   -1.9166   -0.9764 C   0  0  0  0  0  3  0  0  0  0  0  0
    0.5611   -2.4191   -0.9822 H   0  0  0  0  0  0  0  0  0  0  0  0
   -1.6017   -2.6509   -1.0343 C   0  0  0  0  0  0  0  0  0  0  0  0
   -1.5490   -3.7486   -1.0865 H   0  0  0  0  0  0  0  0  0  0  0  0
   -2.8467   -1.9887   -1.0301 C   0  0  0  0  0  0  0  0  0  0  0  0
   -2.8142   -0.5821   -0.9614 C   0  0  0  0  0  0  0  0  0  0  0  0
   -3.7497   -0.0046   -0.9482 H   0  0  0  0  0  0  0  0  0  0  0  0
   -1.5904    0.0855   -0.9101 C   0  0  0  0  0  0  0  0  0  0  0  0
   -1.5486    1.1842   -0.8670 H   0  0  0  0  0  0  0  0  0  0  0  0
   -4.1448   -2.7631   -1.1276 C   0  0  0  0  0  0  0  0  0  0  0  0
   -4.0257   -3.7212   -0.5796 H   0  0  0  0  0  0  0  0  0  0  0  0
   -4.2801   -3.0482   -2.1948 H   0  0  0  0  0  0  0  0  0  0  0  0
   -5.3647   -2.0153   -0.6391 C   0  0  0  0  0  0  0  0  0  0  0  0
   -6.2145   -1.3483   -1.5428 C   0  0  0  0  0  0  0  0  0  0  0  0
   -6.0110   -1.4056   -2.6241 H   0  0  0  0  0  0  0  0  0  0  0  0
   -7.3231   -0.6219   -1.0796 C   0  0  0  0  0  0  0  0  0  0  0  0
   -7.9827   -0.1133   -1.7987 H   0  0  0  0  0  0  0  0  0  0  0  0
   -7.5948   -0.5541    0.2953 C   0  0  0  0  0  0  0  0  0  0  0  0
   -8.4679    0.0082    0.6587 H   0  0  0  0  0  0  0  0  0  0  0  0
   -6.7545   -1.2169    1.2049 C   0  0  0  0  0  0  0  0  0  0  0  0
   -6.9703   -1.1776    2.2834 H   0  0  0  0  0  0  0  0  0  0  0  0
   -5.6468   -1.9402    0.7402 C   0  0  0  0  0  0  0  0  0  0  0  0
   -4.9947   -2.4644    1.4574 H   0  0  0  0  0  0  0  0  0  0  0  0
  1  9  1  0  0  0  0
  2  1  1  0  0  0  0
  3  2  1  0  0  0  0
  4  6  2  0  0  0  0
  4  2  1  0  0  0  0
  5  4  1  0  0  0  0
  6  7  1  0  0  0  0
  7  8  1  0  0  0  0
  7  9  2  0  0  0  0
  9 10  1  0  0  0  0
 11  6  1  0  0  0  0
 11 14  1  0  0  0  0
 11 12  1  0  0  0  0
 13 11  1  0  0  0  0
 14 23  1  0  0  0  0
 15 17  1  0  0  0  0
 15 14  2  0  0  0  0
 16 15  1  0  0  0  0
 17 19  2  0  0  0  0
 18 17  1  0  0  0  0
 19 20  1  0  0  0  0
 19 21  1  0  0  0  0
 21 22  1  0  0  0  0
 23 21  2  0  0  0  0
 23 24  1  0  0  0  0
M  END
