1
 OpenBabel05122313063D

 14 14  0  0  0  0  0  0  0  0999 V2000
   -1.4961   -0.0000   -1.4220 N   0  0  0  0  0  0  0  0  0  0  0  0
   -2.8214   -0.0000   -0.8556 C   0  0  0  0  0  0  0  0  0  0  0  0
   -1.3224    0.8438   -1.9872 H   0  0  0  0  0  0  0  0  0  0  0  0
   -1.3223   -0.8439   -1.9870 H   0  0  0  0  0  0  0  0  0  0  0  0
   -3.4513   -1.2212   -0.5577 C   0  0  0  0  0  0  0  0  0  0  0  0
   -3.4514    1.2211   -0.5578 C   0  0  0  0  0  0  0  0  0  0  0  0
   -4.7296   -1.2224    0.0131 C   0  0  0  0  0  0  0  0  0  0  0  0
   -2.9190   -2.1661   -0.7421 H   0  0  0  0  0  0  0  0  0  0  0  0
   -4.7297    1.2222    0.0130 C   0  0  0  0  0  0  0  0  0  0  0  0
   -2.9192    2.1661   -0.7423 H   0  0  0  0  0  0  0  0  0  0  0  0
   -5.3568   -0.0001    0.2874 C   0  0  0  0  0  0  0  0  0  0  0  0
   -5.2461   -2.1616    0.2561 H   0  0  0  0  0  0  0  0  0  0  0  0
   -5.2463    2.1614    0.2559 H   0  0  0  0  0  0  0  0  0  0  0  0
   -6.5860   -0.0001    0.8332 F   0  0  0  0  0  0  0  0  0  0  0  0
  1  2  1  0  0  0  0
  2  6  2  0  0  0  0
  2  5  1  0  0  0  0
  3  1  1  0  0  0  0
  4  1  1  0  0  0  0
  5  7  2  0  0  0  0
  6  9  1  0  0  0  0
  7 12  1  0  0  0  0
  7 11  1  0  0  0  0
  8  5  1  0  0  0  0
  9 13  1  0  0  0  0
  9 11  2  0  0  0  0
 10  6  1  0  0  0  0
 11 14  1  0  0  0  0
M  END
