32
 OpenBabel05122313063D

 34 35  0  0  1  0  0  0  0  0999 V2000
    1.8192   -3.1861    1.2740 C   0  0  0  0  0  0  0  0  0  0  0  0
    2.6843   -3.5731    0.7212 H   0  0  0  0  0  0  0  0  0  0  0  0
    0.9043   -3.8658    2.0804 C   0  0  0  0  0  0  0  0  0  0  0  0
    0.8384   -4.9166    2.3804 H   0  0  0  0  0  0  0  0  0  0  0  0
    0.3644   -1.7275    1.9476 C   0  0  1  0  0  3  0  0  0  0  0  0
   -1.2063   -3.1569    3.3176 C   0  0  0  0  0  0  0  0  0  0  0  0
   -1.4589   -2.1836    3.7810 H   0  0  0  0  0  0  0  0  0  0  0  0
   -0.9303   -3.8620    4.1275 H   0  0  0  0  0  0  0  0  0  0  0  0
   -2.3845   -3.6768    2.4981 C   0  0  0  0  0  0  0  0  0  0  0  0
   -2.6505   -2.9583    1.6990 H   0  0  0  0  0  0  0  0  0  0  0  0
   -3.2669   -3.8108    3.1550 H   0  0  0  0  0  0  0  0  0  0  0  0
   -2.1541   -4.6506    2.0223 H   0  0  0  0  0  0  0  0  0  0  0  0
   -0.3682   -0.5935    2.1857 N   0  0  0  0  0  2  0  0  0  0  0  0
    0.1028    0.4694    1.6564 N   0  0  0  0  0  2  0  0  0  0  0  0
   -0.6927    1.5970    1.7975 C   0  0  0  0  0  0  0  0  0  0  0  0
   -0.0333    2.8398    1.6257 C   0  0  0  0  0  0  0  0  0  0  0  0
    1.0574    2.8080    1.4707 H   0  0  0  0  0  0  0  0  0  0  0  0
   -0.7398    4.0380    1.6955 C   0  0  0  0  0  0  0  0  0  0  0  0
   -0.2129    4.9966    1.5827 H   0  0  0  0  0  0  0  0  0  0  0  0
   -2.1302    4.0045    1.9151 C   0  0  0  0  0  0  0  0  0  0  0  0
   -2.7046    4.9420    1.9695 H   0  0  0  0  0  0  0  0  0  0  0  0
   -2.8035    2.7869    2.0716 C   0  0  0  0  0  0  0  0  0  0  0  0
   -3.8866    2.8014    2.2477 H   0  0  0  0  0  0  0  0  0  0  0  0
   -2.1115    1.5548    2.0315 C   0  0  0  0  0  0  0  0  0  0  0  0
   -4.6854    0.4349    1.8237 C   0  0  0  0  0  0  0  0  0  0  0  0
   -5.0949    1.1241    2.5907 H   0  0  0  0  0  0  0  0  0  0  0  0
   -4.6951    0.9457    0.8386 H   0  0  0  0  0  0  0  0  0  0  0  0
   -5.4804   -0.8680    1.7933 C   0  0  0  0  0  0  0  0  0  0  0  0
   -5.0704   -1.5712    1.0401 H   0  0  0  0  0  0  0  0  0  0  0  0
   -6.5417   -0.6690    1.5421 H   0  0  0  0  0  0  0  0  0  0  0  0
   -5.4576   -1.3789    2.7775 H   0  0  0  0  0  0  0  0  0  0  0  0
    1.4699   -1.8713    1.2062 N   0  0  0  0  0  2  0  0  0  0  0  0
   -0.0099   -2.9304    2.5051 N   0  0  0  0  0  0  0  0  0  0  0  0
   -2.9401    0.0047    2.2249 S   0  0  0  0  0  0  0  0  0  0  0  0
  1  3  2  0  0  0  0
  2  1  1  0  0  0  0
  3  4  1  0  0  0  0
  3 33  1  0  0  0  0
  5 13  1  1  0  0  0
  5 33  1  0  0  0  0
  6  7  1  0  0  0  0
  6  8  1  0  0  0  0
  9 11  1  0  0  0  0
  9  6  1  0  0  0  0
 10  9  1  0  0  0  0
 12  9  1  0  0  0  0
 14 15  1  0  0  0  0
 14 13  1  0  0  0  0
 15 24  1  0  0  0  0
 16 18  1  0  0  0  0
 16 15  2  0  0  0  0
 17 16  1  0  0  0  0
 18 20  2  0  0  0  0
 19 18  1  0  0  0  0
 20 21  1  0  0  0  0
 20 22  1  0  0  0  0
 22 23  1  0  0  0  0
 24 22  2  0  0  0  0
 24 34  1  0  0  0  0
 25 34  1  0  0  0  0
 25 26  1  0  0  0  0
 27 25  1  0  0  0  0
 28 25  1  0  0  0  0
 28 31  1  0  0  0  0
 29 28  1  0  0  0  0
 30 28  1  0  0  0  0
 32  1  1  0  0  0  0
 32  5  1  0  0  0  0
 33  6  1  0  0  0  0
M  END
