3
 OpenBabel05122313063D

  9  9  0  0  0  0  0  0  0  0999 V2000
   -1.8942    2.2980   -0.1349 O   0  0  0  0  0  0  0  0  0  0  0  0
   -1.8941   -2.2983   -0.1346 O   0  0  0  0  0  0  0  0  0  0  0  0
   -1.4635   -0.0001   -0.2329 N   0  0  0  0  0  2  0  0  0  0  0  0
   -2.2776    1.1345   -0.1840 C   0  0  0  0  0  0  0  0  0  0  0  0
   -3.7151    0.6733   -0.1578 C   0  0  0  0  0  0  0  0  0  0  0  0
   -4.5558    1.3788   -0.1355 H   0  0  0  0  0  0  0  0  0  0  0  0
   -3.7151   -0.6737   -0.1577 C   0  0  0  0  0  0  0  0  0  0  0  0
   -4.5557   -1.3793   -0.1354 H   0  0  0  0  0  0  0  0  0  0  0  0
   -2.2775   -1.1348   -0.1838 C   0  0  0  0  0  0  0  0  0  0  0  0
  3  4  1  0  0  0  0
  3  9  1  0  0  0  0
  4  5  1  0  0  0  0
  4  1  2  0  0  0  0
  5  7  2  0  0  0  0
  5  6  1  0  0  0  0
  7  8  1  0  0  0  0
  9  7  1  0  0  0  0
  9  2  2  0  0  0  0
M  END
