6
 OpenBabel05122313063D

 14 14  0  0  1  0  0  0  0  0999 V2000
   -1.9790   -3.0571    0.0006 C   0  0  0  0  0  0  0  0  0  0  0  0
   -2.2600   -3.6516   -0.8927 H   0  0  0  0  0  0  0  0  0  0  0  0
   -2.2528   -3.6466    0.8995 H   0  0  0  0  0  0  0  0  0  0  0  0
   -0.8820   -2.9196   -0.0039 H   0  0  0  0  0  0  0  0  0  0  0  0
   -2.6552   -1.7336   -0.0001 C   0  0  2  0  0  3  0  0  0  0  0  0
   -2.0663   -0.5329   -0.0000 N   0  0  0  0  0  2  0  0  0  0  0  0
   -3.0718    0.4027   -0.0001 C   0  0  0  0  0  0  0  0  0  0  0  0
   -2.8095    1.8290    0.0001 N   0  0  0  0  0  0  0  0  0  0  0  0
   -1.6246    2.1916    0.0004 O   0  0  0  0  0  0  0  0  0  0  0  0
   -3.7863    2.5670    0.0000 O   0  0  0  0  0  0  0  0  0  0  0  0
   -4.3101   -0.2119   -0.0004 C   0  0  0  0  0  0  0  0  0  0  0  0
   -5.3226    0.2019   -0.0007 H   0  0  0  0  0  0  0  0  0  0  0  0
   -4.0182   -1.5526   -0.0004 N   0  0  0  0  0  0  0  0  0  0  0  0
   -4.7098   -2.3076   -0.0005 H   0  0  0  0  0  0  0  0  0  0  0  0
  1  3  1  0  0  0  0
  2  1  1  0  0  0  0
  4  1  1  0  0  0  0
  5  6  1  0  0  0  0
  5  1  1  1  0  0  0
  7  6  1  0  0  0  0
  7  8  1  0  0  0  0
  8  9  2  0  0  0  0
 10  8  2  0  0  0  0
 11 13  1  0  0  0  0
 11  7  2  0  0  0  0
 12 11  1  0  0  0  0
 13  5  1  0  0  0  0
 14 13  1  0  0  0  0
M  END
