4
 OpenBabel05122313063D

 14 15  0  0  0  0  0  0  0  0999 V2000
   -1.6852    0.4397   -1.8302 C   0  0  0  0  0  3  0  0  0  0  0  0
   -1.0289    0.8471   -2.6097 H   0  0  0  0  0  0  0  0  0  0  0  0
   -2.2726   -0.3980    0.1711 C   0  0  0  0  0  0  0  0  0  0  0  0
   -1.2385    0.0411   -0.6557 N   0  0  0  0  0  2  0  0  0  0  0  0
   -3.4049    0.3104   -2.0624 S   0  0  0  0  0  0  0  0  0  0  0  0
   -3.5552   -0.3287   -0.4380 C   0  0  0  0  0  0  0  0  0  0  0  0
   -4.7120   -0.7313    0.2506 C   0  0  0  0  0  0  0  0  0  0  0  0
   -5.7028   -0.6760   -0.2219 H   0  0  0  0  0  0  0  0  0  0  0  0
   -4.5616   -1.1996    1.5603 C   0  0  0  0  0  0  0  0  0  0  0  0
   -5.4522   -1.5183    2.1219 H   0  0  0  0  0  0  0  0  0  0  0  0
   -3.2894   -1.2642    2.1748 C   0  0  0  0  0  0  0  0  0  0  0  0
   -3.2068   -1.6289    3.2089 H   0  0  0  0  0  0  0  0  0  0  0  0
   -2.1381   -0.8664    1.4927 C   0  0  0  0  0  0  0  0  0  0  0  0
   -1.1353   -0.8920    1.9442 H   0  0  0  0  0  0  0  0  0  0  0  0
  1  4  1  0  0  0  0
  2  1  1  0  0  0  0
  3 13  1  0  0  0  0
  4  3  1  0  0  0  0
  5  1  1  0  0  0  0
  5  6  1  0  0  0  0
  6  3  2  0  0  0  0
  6  7  1  0  0  0  0
  7  9  2  0  0  0  0
  8  7  1  0  0  0  0
  9 10  1  0  0  0  0
  9 11  1  0  0  0  0
 11 12  1  0  0  0  0
 13 14  1  0  0  0  0
 13 11  2  0  0  0  0
M  END
