2
 OpenBabel05122313063D

 13 14  0  0  0  0  0  0  0  0999 V2000
   -1.5398   -2.0229    0.0000 Se  0  0  0  0  0  0  0  0  0  0  0  0
   -0.9784   -0.2732   -0.0001 N   0  0  0  0  0  2  0  0  0  0  0  0
   -3.2777   -1.5901   -0.0002 N   0  0  0  0  0  0  0  0  0  0  0  0
   -2.0908    0.4948   -0.0001 C   0  0  0  0  0  0  0  0  0  0  0  0
   -3.3564   -0.2506   -0.0002 C   0  0  0  0  0  0  0  0  0  0  0  0
   -4.5974    0.4665   -0.0003 C   0  0  0  0  0  3  0  0  0  0  0  0
   -5.5349   -0.1063   -0.0003 H   0  0  0  0  0  0  0  0  0  0  0  0
   -2.1129    1.9224   -0.0000 C   0  0  0  0  0  0  0  0  0  0  0  0
   -1.1679    2.4803    0.0001 H   0  0  0  0  0  0  0  0  0  0  0  0
   -4.5724    1.8462   -0.0002 C   0  0  0  0  0  0  0  0  0  0  0  0
   -5.5179    2.4089   -0.0002 H   0  0  0  0  0  0  0  0  0  0  0  0
   -3.3347    2.5693   -0.0001 C   0  0  0  0  0  0  0  0  0  0  0  0
   -3.3602    3.6692   -0.0000 H   0  0  0  0  0  0  0  0  0  0  0  0
  2  1  1  0  0  0  0
  3  1  1  0  0  0  0
  4  2  1  0  0  0  0
  4  8  2  0  0  0  0
  5  3  2  0  0  0  0
  5  4  1  0  0  0  0
  6 10  1  0  0  0  0
  6  5  1  0  0  0  0
  7  6  1  0  0  0  0
  8  9  1  0  0  0  0
 10 12  2  0  0  0  0
 11 10  1  0  0  0  0
 12 13  1  0  0  0  0
 12  8  1  0  0  0  0
M  END
