1
 OpenBabel05122313063D

 18 17  0  0  0  0  0  0  0  0999 V2000
    0.3153    1.4245   -1.2716 N   0  0  0  0  0  0  0  0  0  0  0  0
    2.5675    0.4581    0.4194 N   0  0  0  0  0  0  0  0  0  0  0  0
    1.5966    2.1313   -1.0944 C   0  0  0  0  0  0  0  0  0  0  0  0
    2.7563    1.1671   -0.8350 C   0  0  0  0  0  0  0  0  0  0  0  0
    3.4051   -0.7128    0.6540 C   0  0  0  0  0  0  0  0  0  0  0  0
    4.9170   -0.4664    0.7101 C   0  0  0  0  0  0  0  0  0  0  0  0
    0.2572    0.9313   -2.1847 H   0  0  0  0  0  0  0  0  0  0  0  0
   -0.4709    2.0758   -1.1164 H   0  0  0  0  0  0  0  0  0  0  0  0
    2.6009    1.1064    1.2157 H   0  0  0  0  0  0  0  0  0  0  0  0
    1.8299    2.7598   -1.9821 H   0  0  0  0  0  0  0  0  0  0  0  0
    1.4735    2.8180   -0.2308 H   0  0  0  0  0  0  0  0  0  0  0  0
    3.7104    1.7478   -0.9021 H   0  0  0  0  0  0  0  0  0  0  0  0
    2.7902    0.4129   -1.6520 H   0  0  0  0  0  0  0  0  0  0  0  0
    3.0680   -1.1692    1.6106 H   0  0  0  0  0  0  0  0  0  0  0  0
    3.1635   -1.4591   -0.1340 H   0  0  0  0  0  0  0  0  0  0  0  0
    5.4626   -1.4079    0.9251 H   0  0  0  0  0  0  0  0  0  0  0  0
    5.3056   -0.0724   -0.2513 H   0  0  0  0  0  0  0  0  0  0  0  0
    5.1781    0.2635    1.5054 H   0  0  0  0  0  0  0  0  0  0  0  0
  1  8  1  0  0  0  0
  1  3  1  0  0  0  0
  2  5  1  0  0  0  0
  2  9  1  0  0  0  0
  3  4  1  0  0  0  0
  3 11  1  0  0  0  0
  4  2  1  0  0  0  0
  5  6  1  0  0  0  0
  5 14  1  0  0  0  0
  6 16  1  0  0  0  0
  6 18  1  0  0  0  0
  7  1  1  0  0  0  0
 10  3  1  0  0  0  0
 12  4  1  0  0  0  0
 13  4  1  0  0  0  0
 15  5  1  0  0  0  0
 17  6  1  0  0  0  0
M  END
