2
 OpenBabel05122313063D

 13 13  0  0  0  0  0  0  0  0999 V2000
    8.5227   -0.8815   -1.0716 O   0  0  0  0  0  0  0  0  0  0  0  0
    2.3791   -0.0373    0.1473 N   0  0  0  0  0  2  0  0  0  0  0  0
    6.5272    0.2112   -0.3272 N   0  0  0  0  0  0  0  0  0  0  0  0
    3.0548    1.0669    0.5212 C   0  0  0  0  0  3  0  0  0  0  0  0
    4.4393    1.1842    0.3791 C   0  0  0  0  0  0  0  0  0  0  0  0
    5.1576    0.1060   -0.1798 C   0  0  0  0  0  0  0  0  0  0  0  0
    4.4412   -1.0488   -0.5695 C   0  0  0  0  0  0  0  0  0  0  0  0
    3.0574   -1.0724   -0.3851 C   0  0  0  0  0  0  0  0  0  0  0  0
    7.5031   -0.4032   -0.7253 C   0  0  0  0  0  0  0  0  0  0  0  0
    2.4426    1.8760    0.9550 H   0  0  0  0  0  0  0  0  0  0  0  0
    4.9673    2.0945    0.6936 H   0  0  0  0  0  0  0  0  0  0  0  0
    4.9609   -1.9123   -1.0089 H   0  0  0  0  0  0  0  0  0  0  0  0
    2.4541   -1.9501   -0.6717 H   0  0  0  0  0  0  0  0  0  0  0  0
  1  9  2  0  0  0  0
  2  4  1  0  0  0  0
  3  6  1  0  0  0  0
  4 10  1  0  0  0  0
  5  4  1  0  0  0  0
  5 11  1  0  0  0  0
  6  5  2  0  0  0  0
  7  8  2  0  0  0  0
  7  6  1  0  0  0  0
  8  2  1  0  0  0  0
  9  3  2  0  0  0  0
 12  7  1  0  0  0  0
 13  8  1  0  0  0  0
M  END
