1
 OpenBabel05122313063D

 16 15  0  0  0  0  0  0  0  0999 V2000
    2.0818   -0.6814   -0.0001 N   0  0  0  0  0  0  0  0  0  0  0  0
    2.3953   -1.2285   -0.8195 H   0  0  0  0  0  0  0  0  0  0  0  0
    2.3953   -1.2287    0.8193 H   0  0  0  0  0  0  0  0  0  0  0  0
    2.8288    0.6459    0.0000 C   0  0  0  0  0  0  0  0  0  0  0  0
    2.4290    1.4101    1.2656 C   0  0  0  0  0  0  0  0  0  0  0  0
    2.6757    0.8386    2.1838 H   0  0  0  0  0  0  0  0  0  0  0  0
    1.3426    1.6339    1.2728 H   0  0  0  0  0  0  0  0  0  0  0  0
    2.9757    2.3711    1.3140 H   0  0  0  0  0  0  0  0  0  0  0  0
    4.3315    0.3290   -0.0000 C   0  0  0  0  0  0  0  0  0  0  0  0
    4.6272   -0.2470    0.9009 H   0  0  0  0  0  0  0  0  0  0  0  0
    4.9180    1.2678    0.0000 H   0  0  0  0  0  0  0  0  0  0  0  0
    4.6272   -0.2469   -0.9010 H   0  0  0  0  0  0  0  0  0  0  0  0
    2.4291    1.4103   -1.2655 C   0  0  0  0  0  0  0  0  0  0  0  0
    2.9758    2.3713   -1.3138 H   0  0  0  0  0  0  0  0  0  0  0  0
    1.3427    1.6341   -1.2727 H   0  0  0  0  0  0  0  0  0  0  0  0
    2.6757    0.8389   -2.1837 H   0  0  0  0  0  0  0  0  0  0  0  0
  1  4  1  0  0  0  0
  1  3  1  0  0  0  0
  2  1  1  0  0  0  0
  4  5  1  0  0  0  0
  5  7  1  0  0  0  0
  5  8  1  0  0  0  0
  5  6  1  0  0  0  0
  9  4  1  0  0  0  0
  9 11  1  0  0  0  0
  9 10  1  0  0  0  0
 12  9  1  0  0  0  0
 13  4  1  0  0  0  0
 14 13  1  0  0  0  0
 15 13  1  0  0  0  0
 16 13  1  0  0  0  0
M  END
