1
 OpenBabel05122313063D

 44 45  0  0  0  0  0  0  0  0999 V2000
    0.7093    0.4207   -0.6956 N   0  0  0  0  0  0  0  0  0  0  0  0
    1.1454   -0.5216   -0.7008 H   0  0  0  0  0  0  0  0  0  0  0  0
    4.4267    2.4353   -0.1665 Se  0  0  0  0  0  0  0  0  0  0  0  0
   -2.2613   -0.6343   -1.1931 Se  0  0  0  0  0  0  0  0  0  0  0  0
    1.6992    1.4177   -0.2259 C   0  0  0  0  0  0  0  0  0  0  0  0
    1.9969    1.1154    0.7934 H   0  0  0  0  0  0  0  0  0  0  0  0
    1.1899    2.3976   -0.1242 H   0  0  0  0  0  0  0  0  0  0  0  0
    2.9470    1.5397   -1.1024 C   0  0  0  0  0  0  0  0  0  0  0  0
    2.7805    2.1452   -2.0155 H   0  0  0  0  0  0  0  0  0  0  0  0
    3.3154    0.5399   -1.4148 H   0  0  0  0  0  0  0  0  0  0  0  0
    0.1714    0.7167   -2.0353 C   0  0  0  0  0  0  0  0  0  0  0  0
    0.9927    0.7957   -2.7848 H   0  0  0  0  0  0  0  0  0  0  0  0
   -0.3202    1.7119   -1.9914 H   0  0  0  0  0  0  0  0  0  0  0  0
   -0.8008   -0.3505   -2.4981 C   0  0  0  0  0  0  0  0  0  0  0  0
   -0.3143   -1.3438   -2.5649 H   0  0  0  0  0  0  0  0  0  0  0  0
   -1.2520   -0.1029   -3.4785 H   0  0  0  0  0  0  0  0  0  0  0  0
    4.7976    0.9712    1.1486 C   0  0  0  0  0  0  0  0  0  0  0  0
    5.7966    1.2449    1.5426 H   0  0  0  0  0  0  0  0  0  0  0  0
    4.0680    1.0385    1.9782 H   0  0  0  0  0  0  0  0  0  0  0  0
    4.7881   -0.3877    0.5119 C   0  0  0  0  0  0  0  0  0  0  0  0
    5.7837   -0.7601   -0.4178 C   0  0  0  0  0  0  0  0  0  0  0  0
    6.5894   -0.0479   -0.6559 H   0  0  0  0  0  0  0  0  0  0  0  0
    5.7391   -2.0092   -1.0501 C   0  0  0  0  0  0  0  0  0  0  0  0
    6.5266   -2.2860   -1.7679 H   0  0  0  0  0  0  0  0  0  0  0  0
    4.6912   -2.9060   -0.7745 C   0  0  0  0  0  0  0  0  0  0  0  0
    4.6534   -3.8838   -1.2783 H   0  0  0  0  0  0  0  0  0  0  0  0
    3.6947   -2.5479    0.1448 C   0  0  0  0  0  0  0  0  0  0  0  0
    2.8576   -3.2271    0.3649 H   0  0  0  0  0  0  0  0  0  0  0  0
    3.7465   -1.2987    0.7857 C   0  0  0  0  0  0  0  0  0  0  0  0
    2.9667   -1.0364    1.5176 H   0  0  0  0  0  0  0  0  0  0  0  0
   -3.3993    0.9508   -1.6819 C   0  0  0  0  0  0  0  0  0  0  0  0
   -2.8290    1.8740   -1.4721 H   0  0  0  0  0  0  0  0  0  0  0  0
   -3.5793    0.8556   -2.7709 H   0  0  0  0  0  0  0  0  0  0  0  0
   -4.6695    0.8673   -0.8872 C   0  0  0  0  0  0  0  0  0  0  0  0
   -4.8454    1.6334    0.2841 C   0  0  0  0  0  0  0  0  0  0  0  0
   -4.0582    2.3341    0.5981 H   0  0  0  0  0  0  0  0  0  0  0  0
   -6.0157    1.5076    1.0469 C   0  0  0  0  0  0  0  0  0  0  0  0
   -6.1373    2.1114    1.9587 H   0  0  0  0  0  0  0  0  0  0  0  0
   -7.0247    0.6159    0.6529 C   0  0  0  0  0  0  0  0  0  0  0  0
   -7.9409    0.5164    1.2543 H   0  0  0  0  0  0  0  0  0  0  0  0
   -6.8599   -0.1509   -0.5123 C   0  0  0  0  0  0  0  0  0  0  0  0
   -7.6474   -0.8515   -0.8286 H   0  0  0  0  0  0  0  0  0  0  0  0
   -5.6905   -0.0281   -1.2739 C   0  0  0  0  0  0  0  0  0  0  0  0
   -5.5610   -0.6384   -2.1820 H   0  0  0  0  0  0  0  0  0  0  0  0
  1  5  1  0  0  0  0
  2  1  1  0  0  0  0
  3 17  1  0  0  0  0
  5  7  1  0  0  0  0
  5  6  1  0  0  0  0
  8  5  1  0  0  0  0
  8  3  1  0  0  0  0
  9  8  1  0  0  0  0
 10  8  1  0  0  0  0
 11 13  1  0  0  0  0
 11  1  1  0  0  0  0
 12 11  1  0  0  0  0
 14 11  1  0  0  0  0
 14  4  1  0  0  0  0
 15 14  1  0  0  0  0
 16 14  1  0  0  0  0
 17 18  1  0  0  0  0
 17 19  1  0  0  0  0
 20 29  1  0  0  0  0
 20 17  1  0  0  0  0
 21 20  2  0  0  0  0
 22 21  1  0  0  0  0
 23 25  2  0  0  0  0
 23 21  1  0  0  0  0
 24 23  1  0  0  0  0
 25 27  1  0  0  0  0
 26 25  1  0  0  0  0
 27 28  1  0  0  0  0
 27 29  2  0  0  0  0
 29 30  1  0  0  0  0
 31 32  1  0  0  0  0
 31  4  1  0  0  0  0
 31 34  1  0  0  0  0
 33 31  1  0  0  0  0
 34 35  1  0  0  0  0
 35 36  1  0  0  0  0
 35 37  2  0  0  0  0
 37 38  1  0  0  0  0
 39 37  1  0  0  0  0
 39 40  1  0  0  0  0
 41 39  2  0  0  0  0
 42 41  1  0  0  0  0
 43 34  2  0  0  0  0
 43 41  1  0  0  0  0
 44 43  1  0  0  0  0
M  END
