1
 OpenBabel05122313063D

 41 43  0  0  1  0  0  0  0  0999 V2000
    2.1111    1.1923    0.5257 N   0  0  0  0  0  2  0  0  0  0  0  0
    0.7505    3.2622    0.5900 C   0  0  0  0  0  0  0  0  0  0  0  0
    3.2705    0.6937    0.2715 C   0  0  1  0  0  3  0  0  0  0  0  0
    3.5835   -0.7026   -0.2608 C   0  0  2  0  0  0  0  0  0  0  0  0
    0.7438    3.8138   -0.7047 C   0  0  0  0  0  0  0  0  0  0  0  0
    1.6333    3.7081   -1.3443 H   0  0  0  0  0  0  0  0  0  0  0  0
   -1.5482    4.0241    0.8991 C   0  0  0  0  0  0  0  0  0  0  0  0
   -2.4478    4.1003    1.5289 H   0  0  0  0  0  0  0  0  0  0  0  0
    2.5335   -1.7881   -0.1104 C   0  0  0  0  0  0  0  0  0  0  0  0
    1.6674   -1.6011   -0.7745 H   0  0  0  0  0  0  0  0  0  0  0  0
    2.1549   -1.8555    0.9282 H   0  0  0  0  0  0  0  0  0  0  0  0
    2.9649   -2.7687   -0.3971 H   0  0  0  0  0  0  0  0  0  0  0  0
    4.9711   -0.9604    0.4548 C   0  0  0  0  0  0  0  0  0  0  0  0
    4.0324   -0.4263   -1.7360 C   0  0  0  0  0  0  0  0  0  0  0  0
    4.1066   -1.3956   -2.2687 H   0  0  0  0  0  0  0  0  0  0  0  0
    3.2641    0.1698   -2.2646 H   0  0  0  0  0  0  0  0  0  0  0  0
    5.6037    0.3662   -0.0647 C   0  0  2  0  0  0  0  0  0  0  0  0
    6.6462    0.5511    0.2615 H   0  0  0  0  0  0  0  0  0  0  0  0
    4.6027    1.4177    0.4421 C   0  0  0  0  0  0  0  0  0  0  0  0
    4.6325    2.3652   -0.1359 H   0  0  0  0  0  0  0  0  0  0  0  0
    4.7676    1.6843    1.5062 H   0  0  0  0  0  0  0  0  0  0  0  0
   -0.4069    3.3703    1.3872 C   0  0  0  0  0  0  0  0  0  0  0  0
   -0.4115    2.9107    2.3875 H   0  0  0  0  0  0  0  0  0  0  0  0
    1.9760    2.5373    1.1063 C   0  0  0  0  0  0  0  0  0  0  0  0
    2.8843    3.1443    0.9114 H   0  0  0  0  0  0  0  0  0  0  0  0
    1.8850    2.3942    2.2040 H   0  0  0  0  0  0  0  0  0  0  0  0
    5.4145    0.2725   -1.5967 C   0  0  0  0  0  0  0  0  0  0  0  0
    5.4367    1.2761   -2.0667 H   0  0  0  0  0  0  0  0  0  0  0  0
    6.2250   -0.3171   -2.0678 H   0  0  0  0  0  0  0  0  0  0  0  0
   -0.3976    4.4640   -1.1955 C   0  0  0  0  0  0  0  0  0  0  0  0
   -0.3933    4.8816   -2.2137 H   0  0  0  0  0  0  0  0  0  0  0  0
   -1.5454    4.5728   -0.3937 C   0  0  0  0  0  0  0  0  0  0  0  0
   -2.4426    5.0812   -0.7791 H   0  0  0  0  0  0  0  0  0  0  0  0
    4.8388   -1.0516    1.9837 C   0  0  0  0  0  0  0  0  0  0  0  0
    5.8338   -0.9870    2.4705 H   0  0  0  0  0  0  0  0  0  0  0  0
    4.3908   -2.0239    2.2707 H   0  0  0  0  0  0  0  0  0  0  0  0
    4.1880   -0.2692    2.4206 H   0  0  0  0  0  0  0  0  0  0  0  0
    5.7037   -2.2160   -0.0334 C   0  0  0  0  0  0  0  0  0  0  0  0
    6.7191   -2.2549    0.4123 H   0  0  0  0  0  0  0  0  0  0  0  0
    5.8196   -2.2648   -1.1321 H   0  0  0  0  0  0  0  0  0  0  0  0
    5.1696   -3.1327    0.2876 H   0  0  0  0  0  0  0  0  0  0  0  0
  1 24  1  0  0  0  0
  2 24  1  0  0  0  0
  2 22  1  0  0  0  0
  3 19  1  0  0  0  0
  3  1  1  6  0  0  0
  4  9  1  1  0  0  0
  4  3  1  0  0  0  0
  4 13  1  0  0  0  0
  5  2  2  0  0  0  0
  6  5  1  0  0  0  0
  7 22  2  0  0  0  0
  7  8  1  0  0  0  0
  9 11  1  0  0  0  0
 10  9  1  0  0  0  0
 12  9  1  0  0  0  0
 13 34  1  0  0  0  0
 14 27  1  0  0  0  0
 14  4  1  0  0  0  0
 15 14  1  0  0  0  0
 16 14  1  0  0  0  0
 17 18  1  1  0  0  0
 17 19  1  0  0  0  0
 17 13  1  0  0  0  0
 19 21  1  0  0  0  0
 20 19  1  0  0  0  0
 22 23  1  0  0  0  0
 24 26  1  0  0  0  0
 25 24  1  0  0  0  0
 27 17  1  0  0  0  0
 28 27  1  0  0  0  0
 29 27  1  0  0  0  0
 30  5  1  0  0  0  0
 30 32  2  0  0  0  0
 31 30  1  0  0  0  0
 32  7  1  0  0  0  0
 33 32  1  0  0  0  0
 34 36  1  0  0  0  0
 34 37  1  0  0  0  0
 34 35  1  0  0  0  0
 38 41  1  0  0  0  0
 38 39  1  0  0  0  0
 38 13  1  0  0  0  0
 40 38  1  0  0  0  0
M  END
