1
 OpenBabel05122313063D

 33 35  0  0  0  0  0  0  0  0999 V2000
   -2.0333    0.0002   -0.0002 N   0  0  0  0  0  2  0  0  0  0  0  0
   -6.2627   -0.0001    0.0000 N   0  0  0  0  0  0  0  0  0  0  0  0
   -2.7329   -1.0701   -0.4606 C   0  0  0  0  0  3  0  0  0  0  0  0
   -2.1268   -1.8901   -0.8700 H   0  0  0  0  0  0  0  0  0  0  0  0
   -4.1224   -1.1099   -0.4710 C   0  0  0  0  0  0  0  0  0  0  0  0
   -4.6277   -2.0017   -0.8637 H   0  0  0  0  0  0  0  0  0  0  0  0
   -4.8666    0.0000   -0.0001 C   0  0  0  0  0  0  0  0  0  0  0  0
   -4.1224    1.1100    0.4707 C   0  0  0  0  0  0  0  0  0  0  0  0
   -4.6278    2.0018    0.8635 H   0  0  0  0  0  0  0  0  0  0  0  0
   -2.7330    1.0704    0.4602 C   0  0  0  0  0  0  0  0  0  0  0  0
   -2.1269    1.8904    0.8695 H   0  0  0  0  0  0  0  0  0  0  0  0
   -6.9958   -1.2221    0.0634 C   0  0  0  0  0  0  0  0  0  0  0  0
   -8.0907   -1.4302   -0.8005 C   0  0  0  0  0  0  0  0  0  0  0  0
   -8.3574   -0.6504   -1.5285 H   0  0  0  0  0  0  0  0  0  0  0  0
   -8.8271   -2.6195   -0.7245 C   0  0  0  0  0  0  0  0  0  0  0  0
   -9.6788   -2.7728   -1.4045 H   0  0  0  0  0  0  0  0  0  0  0  0
   -8.4755   -3.6166    0.2001 C   0  0  0  0  0  0  0  0  0  0  0  0
   -9.0523   -4.5518    0.2527 H   0  0  0  0  0  0  0  0  0  0  0  0
   -7.3840   -3.4096    1.0594 C   0  0  0  0  0  0  0  0  0  0  0  0
   -7.1064   -4.1793    1.7953 H   0  0  0  0  0  0  0  0  0  0  0  0
   -6.6512   -2.2167    1.0023 C   0  0  0  0  0  0  0  0  0  0  0  0
   -5.8072   -2.0464    1.6865 H   0  0  0  0  0  0  0  0  0  0  0  0
   -6.9960    1.2219   -0.0632 C   0  0  0  0  0  0  0  0  0  0  0  0
   -8.0907    1.4299    0.8010 C   0  0  0  0  0  0  0  0  0  0  0  0
   -8.3571    0.6501    1.5291 H   0  0  0  0  0  0  0  0  0  0  0  0
   -8.8273    2.6192    0.7251 C   0  0  0  0  0  0  0  0  0  0  0  0
   -9.6788    2.7724    1.4053 H   0  0  0  0  0  0  0  0  0  0  0  0
   -8.4760    3.6162   -0.1996 C   0  0  0  0  0  0  0  0  0  0  0  0
   -9.0529    4.5513   -0.2522 H   0  0  0  0  0  0  0  0  0  0  0  0
   -7.3847    3.4093   -1.0592 C   0  0  0  0  0  0  0  0  0  0  0  0
   -7.1074    4.1790   -1.7953 H   0  0  0  0  0  0  0  0  0  0  0  0
   -6.6517    2.2165   -1.0022 C   0  0  0  0  0  0  0  0  0  0  0  0
   -5.8079    2.0463   -1.6866 H   0  0  0  0  0  0  0  0  0  0  0  0
  1 10  1  0  0  0  0
  2 12  1  0  0  0  0
  3  1  1  0  0  0  0
  4  3  1  0  0  0  0
  5  3  1  0  0  0  0
  5  7  2  0  0  0  0
  6  5  1  0  0  0  0
  7  2  1  0  0  0  0
  7  8  1  0  0  0  0
  8  9  1  0  0  0  0
 10  8  2  0  0  0  0
 10 11  1  0  0  0  0
 12 21  1  0  0  0  0
 13 15  1  0  0  0  0
 13 12  2  0  0  0  0
 14 13  1  0  0  0  0
 15 17  2  0  0  0  0
 16 15  1  0  0  0  0
 17 18  1  0  0  0  0
 17 19  1  0  0  0  0
 19 20  1  0  0  0  0
 21 19  2  0  0  0  0
 21 22  1  0  0  0  0
 23  2  1  0  0  0  0
 23 24  1  0  0  0  0
 24 25  1  0  0  0  0
 26 24  2  0  0  0  0
 26 27  1  0  0  0  0
 28 26  1  0  0  0  0
 29 28  1  0  0  0  0
 30 32  1  0  0  0  0
 30 28  2  0  0  0  0
 31 30  1  0  0  0  0
 32 23  2  0  0  0  0
 33 32  1  0  0  0  0
M  END
