1
 OpenBabel05122313063D

 16 16  0  0  1  0  0  0  0  0999 V2000
    1.6566    0.6218   -0.4630 N   0  0  0  0  0  2  0  0  0  0  0  0
    4.1781    1.7164   -0.9590 N   0  0  0  0  0  0  0  0  0  0  0  0
    1.9962    0.9931   -1.7239 C   0  0  1  0  0  3  0  0  0  0  0  0
    3.2816    1.5420   -1.9318 C   0  0  0  0  0  0  0  0  0  0  0  0
    3.5767    1.8493   -2.9509 H   0  0  0  0  0  0  0  0  0  0  0  0
    3.8274    1.3432    0.2889 C   0  0  0  0  0  0  0  0  0  0  0  0
    2.5539    0.7939    0.5282 C   0  0  0  0  0  0  0  0  0  0  0  0
    2.2272    0.4800    1.5361 H   0  0  0  0  0  0  0  0  0  0  0  0
    1.0204    0.8078   -2.8405 C   0  0  0  0  0  0  0  0  0  0  0  0
    0.0981    1.4015   -2.6755 H   0  0  0  0  0  0  0  0  0  0  0  0
    0.7042   -0.2579   -2.8979 H   0  0  0  0  0  0  0  0  0  0  0  0
    1.4624    1.1126   -3.8069 H   0  0  0  0  0  0  0  0  0  0  0  0
    4.8293    1.5282    1.3911 C   0  0  0  0  0  0  0  0  0  0  0  0
    5.1708    2.5823    1.4240 H   0  0  0  0  0  0  0  0  0  0  0  0
    5.7284    0.9090    1.1941 H   0  0  0  0  0  0  0  0  0  0  0  0
    4.4147    1.2487    2.3771 H   0  0  0  0  0  0  0  0  0  0  0  0
  1  7  1  0  0  0  0
  2  6  1  0  0  0  0
  3  9  1  6  0  0  0
  3  1  1  0  0  0  0
  4  3  1  0  0  0  0
  4  2  2  0  0  0  0
  5  4  1  0  0  0  0
  6  7  2  0  0  0  0
  6 13  1  0  0  0  0
  7  8  1  0  0  0  0
  9 10  1  0  0  0  0
 11  9  1  0  0  0  0
 12  9  1  0  0  0  0
 13 14  1  0  0  0  0
 13 16  1  0  0  0  0
 15 13  1  0  0  0  0
M  END
