1
 OpenBabel05122313063D

 20 21  0  0  1  0  0  0  0  0999 V2000
    1.4284    1.3730   -0.3329 N   0  0  0  0  0  2  0  0  0  0  0  0
    1.0153    2.7807   -0.3752 C   0  0  0  0  0  0  0  0  0  0  0  0
    2.3588    3.5362   -0.4571 C   0  0  0  0  0  0  0  0  0  0  0  0
    3.3634    2.5005   -0.2909 O   0  0  0  0  0  0  0  0  0  0  0  0
    2.7265    1.3096   -0.2624 C   0  0  1  0  0  3  0  0  0  0  0  0
    3.5719    0.1175   -0.1227 C   0  0  0  0  0  0  0  0  0  0  0  0
    3.1327   -1.1456   -0.5761 C   0  0  0  0  0  0  0  0  0  0  0  0
    3.9603   -2.2632   -0.4131 C   0  0  0  0  0  0  0  0  0  0  0  0
    5.2188   -2.1355    0.1980 C   0  0  0  0  0  0  0  0  0  0  0  0
    5.6624   -0.8763    0.6343 C   0  0  0  0  0  0  0  0  0  0  0  0
    4.8480    0.2503    0.4685 C   0  0  0  0  0  0  0  0  0  0  0  0
    5.1852    1.2403    0.8058 H   0  0  0  0  0  0  0  0  0  0  0  0
    6.6501   -0.7714    1.1076 H   0  0  0  0  0  0  0  0  0  0  0  0
    5.8613   -3.0199    0.3275 H   0  0  0  0  0  0  0  0  0  0  0  0
    3.6200   -3.2447   -0.7764 H   0  0  0  0  0  0  0  0  0  0  0  0
    2.1592   -1.2329   -1.0853 H   0  0  0  0  0  0  0  0  0  0  0  0
    2.5034    4.2853    0.3454 H   0  0  0  0  0  0  0  0  0  0  0  0
    2.5336    4.0190   -1.4400 H   0  0  0  0  0  0  0  0  0  0  0  0
    0.3528    2.9559   -1.2463 H   0  0  0  0  0  0  0  0  0  0  0  0
    0.4438    2.9938    0.5526 H   0  0  0  0  0  0  0  0  0  0  0  0
  1  5  1  0  0  0  0
  2  1  1  0  0  0  0
  2 20  1  0  0  0  0
  3  2  1  0  0  0  0
  3  4  1  0  0  0  0
  3 17  1  0  0  0  0
  4  5  1  0  0  0  0
  5  6  1  1  0  0  0
  6 11  1  0  0  0  0
  7  8  1  0  0  0  0
  7  6  2  0  0  0  0
  8  9  2  0  0  0  0
  9 14  1  0  0  0  0
  9 10  1  0  0  0  0
 10 13  1  0  0  0  0
 11 10  2  0  0  0  0
 11 12  1  0  0  0  0
 15  8  1  0  0  0  0
 16  7  1  0  0  0  0
 18  3  1  0  0  0  0
 19  2  1  0  0  0  0
M  END
