2
 OpenBabel05122313063D

 38 40  0  0  1  0  0  0  0  0999 V2000
    1.1806    0.1536    0.6456 P   0  0  0  0  0  0  0  0  0  0  0  0
   -1.7799   -0.8678    1.2291 N   0  0  0  0  0  2  0  0  0  0  0  0
   -0.6780    0.7109    2.6040 N   0  0  0  0  0  0  0  0  0  0  0  0
   -1.8047   -0.0198    2.2940 C   0  0  2  0  0  3  0  0  0  0  0  0
   -2.9708    0.1080    3.0926 C   0  0  0  0  0  0  0  0  0  0  0  0
   -4.0563   -0.7304    2.8683 C   0  0  0  0  0  0  0  0  0  0  0  0
   -3.9543   -1.7236    1.8739 C   0  0  0  0  0  0  0  0  0  0  0  0
   -2.8053   -1.7580    1.0930 C   0  0  0  0  0  0  0  0  0  0  0  0
    0.6584    0.1656    2.4313 C   0  0  0  0  0  0  0  0  0  0  0  0
    2.8326   -0.6374    0.6790 C   0  0  0  0  0  0  0  0  0  0  0  0
    3.8131   -0.0956    1.5411 C   0  0  0  0  0  0  0  0  0  0  0  0
    5.1027   -0.6422    1.5678 C   0  0  0  0  0  0  0  0  0  0  0  0
    5.4278   -1.7191    0.7260 C   0  0  0  0  0  0  0  0  0  0  0  0
    4.4598   -2.2493   -0.1398 C   0  0  0  0  0  0  0  0  0  0  0  0
    3.1622   -1.7149   -0.1643 C   0  0  0  0  0  0  0  0  0  0  0  0
    1.5967    1.8984    0.2359 C   0  0  0  0  0  0  0  0  0  0  0  0
    0.8594    2.9775    0.7680 C   0  0  0  0  0  0  0  0  0  0  0  0
    1.1562    4.2939    0.3839 C   0  0  0  0  0  0  0  0  0  0  0  0
    2.1787    4.5463   -0.5448 C   0  0  0  0  0  0  0  0  0  0  0  0
    2.9152    3.4770   -1.0789 C   0  0  0  0  0  0  0  0  0  0  0  0
    2.6320    2.1595   -0.6885 C   0  0  0  0  0  0  0  0  0  0  0  0
   -2.9779    0.8396    3.9141 H   0  0  0  0  0  0  0  0  0  0  0  0
   -4.9580   -0.6462    3.4925 H   0  0  0  0  0  0  0  0  0  0  0  0
   -4.7502   -2.4614    1.7073 H   0  0  0  0  0  0  0  0  0  0  0  0
   -2.6563   -2.5200    0.3166 H   0  0  0  0  0  0  0  0  0  0  0  0
   -0.7913    1.3025    3.4281 H   0  0  0  0  0  0  0  0  0  0  0  0
    1.3682    0.7688    3.0273 H   0  0  0  0  0  0  0  0  0  0  0  0
    0.7284   -0.8963    2.7590 H   0  0  0  0  0  0  0  0  0  0  0  0
    3.5827    0.7711    2.1802 H   0  0  0  0  0  0  0  0  0  0  0  0
    5.8605   -0.2195    2.2442 H   0  0  0  0  0  0  0  0  0  0  0  0
    6.4422   -2.1448    0.7461 H   0  0  0  0  0  0  0  0  0  0  0  0
    4.7110   -3.0944   -0.7979 H   0  0  0  0  0  0  0  0  0  0  0  0
    2.3915   -2.1538   -0.8099 H   0  0  0  0  0  0  0  0  0  0  0  0
    0.0457    2.7869    1.4812 H   0  0  0  0  0  0  0  0  0  0  0  0
    0.5826    5.1288    0.8139 H   0  0  0  0  0  0  0  0  0  0  0  0
    2.4067    5.5790   -0.8476 H   0  0  0  0  0  0  0  0  0  0  0  0
    3.7257    3.6692   -1.7977 H   0  0  0  0  0  0  0  0  0  0  0  0
    3.2358    1.3299   -1.0880 H   0  0  0  0  0  0  0  0  0  0  0  0
  1 10  1  0  0  0  0
  1  9  1  0  0  0  0
  2  4  1  0  0  0  0
  3 26  1  0  0  0  0
  4  3  1  1  0  0  0
  4  5  1  0  0  0  0
  5 22  1  0  0  0  0
  6  5  2  0  0  0  0
  6 23  1  0  0  0  0
  7  6  1  0  0  0  0
  8  2  1  0  0  0  0
  8  7  2  0  0  0  0
  9  3  1  0  0  0  0
  9 28  1  0  0  0  0
  9 27  1  0  0  0  0
 10 11  1  0  0  0  0
 11 12  2  0  0  0  0
 11 29  1  0  0  0  0
 12 30  1  0  0  0  0
 13 31  1  0  0  0  0
 13 12  1  0  0  0  0
 14 13  2  0  0  0  0
 15 14  1  0  0  0  0
 15 10  2  0  0  0  0
 16  1  1  0  0  0  0
 16 17  1  0  0  0  0
 17 34  1  0  0  0  0
 18 17  2  0  0  0  0
 18 35  1  0  0  0  0
 19 18  1  0  0  0  0
 20 21  1  0  0  0  0
 20 19  2  0  0  0  0
 21 16  2  0  0  0  0
 24  7  1  0  0  0  0
 25  8  1  0  0  0  0
 32 14  1  0  0  0  0
 33 15  1  0  0  0  0
 36 19  1  0  0  0  0
 37 20  1  0  0  0  0
 38 21  1  0  0  0  0
M  END
