1
 OpenBabel05122313063D

 31 33  0  0  1  0  0  0  0  0999 V2000
   -1.6091   -0.7707   -0.5025 N   0  0  0  0  0  0  0  0  0  0  0  0
   -1.5810   -0.3702   -1.4515 H   0  0  0  0  0  0  0  0  0  0  0  0
   -2.3659   -1.4884   -0.4967 H   0  0  0  0  0  0  0  0  0  0  0  0
   -1.9142    0.2754    0.4973 C   0  0  0  0  0  0  0  0  0  0  0  0
   -1.0513    0.9718    0.5469 H   0  0  0  0  0  0  0  0  0  0  0  0
   -1.9777   -0.2331    1.4803 H   0  0  0  0  0  0  0  0  0  0  0  0
   -3.2010    1.0744    0.2291 C   0  0  2  0  0  0  0  0  0  0  0  0
   -3.3883    2.0853    1.3856 C   0  0  0  0  0  0  0  0  0  0  0  0
   -2.4992    2.7516    1.4440 H   0  0  0  0  0  0  0  0  0  0  0  0
   -3.4417    1.5358    2.3506 H   0  0  0  0  0  0  0  0  0  0  0  0
   -4.6645    2.9209    1.1778 C   0  0  2  0  0  0  0  0  0  0  0  0
   -4.7746    3.6362    2.0202 H   0  0  0  0  0  0  0  0  0  0  0  0
   -5.8857    1.9822    1.1298 C   0  0  0  0  0  0  0  0  0  0  0  0
   -5.9844    1.4339    2.0911 H   0  0  0  0  0  0  0  0  0  0  0  0
   -6.8169    2.5738    0.9985 H   0  0  0  0  0  0  0  0  0  0  0  0
   -5.7227    0.9858   -0.0337 C   0  0  2  0  0  0  0  0  0  0  0  0
   -6.5989    0.3047   -0.0688 H   0  0  0  0  0  0  0  0  0  0  0  0
   -4.4439    0.1530    0.1779 C   0  0  0  0  0  0  0  0  0  0  0  0
   -4.5107   -0.4343    1.1192 H   0  0  0  0  0  0  0  0  0  0  0  0
   -4.3443   -0.5839   -0.6489 H   0  0  0  0  0  0  0  0  0  0  0  0
   -3.1151    1.8662   -1.0982 C   0  0  0  0  0  0  0  0  0  0  0  0
   -2.9847    1.1701   -1.9574 H   0  0  0  0  0  0  0  0  0  0  0  0
   -2.2219    2.5299   -1.0787 H   0  0  0  0  0  0  0  0  0  0  0  0
   -4.5564    3.6952   -0.1499 C   0  0  0  0  0  0  0  0  0  0  0  0
   -5.4639    4.3168   -0.3053 H   0  0  0  0  0  0  0  0  0  0  0  0
   -3.6905    4.3915   -0.1178 H   0  0  0  0  0  0  0  0  0  0  0  0
   -5.6132    1.7588   -1.3625 C   0  0  0  0  0  0  0  0  0  0  0  0
   -5.5158    1.0481   -2.2116 H   0  0  0  0  0  0  0  0  0  0  0  0
   -6.5390    2.3466   -1.5399 H   0  0  0  0  0  0  0  0  0  0  0  0
   -4.3935    2.6998   -1.3146 C   0  0  2  0  0  0  0  0  0  0  0  0
   -4.3106    3.2549   -2.2731 H   0  0  0  0  0  0  0  0  0  0  0  0
  1  3  1  0  0  0  0
  1  4  1  0  0  0  0
  2  1  1  0  0  0  0
  4  5  1  0  0  0  0
  4  6  1  0  0  0  0
  7  4  1  1  0  0  0
  7  8  1  0  0  0  0
  8  9  1  0  0  0  0
  8 10  1  0  0  0  0
 11  8  1  0  0  0  0
 11 12  1  1  0  0  0
 13 11  1  0  0  0  0
 13 14  1  0  0  0  0
 15 13  1  0  0  0  0
 16 17  1  6  0  0  0
 16 18  1  0  0  0  0
 16 13  1  0  0  0  0
 18  7  1  0  0  0  0
 18 19  1  0  0  0  0
 20 18  1  0  0  0  0
 21 23  1  0  0  0  0
 21  7  1  0  0  0  0
 22 21  1  0  0  0  0
 24 26  1  0  0  0  0
 24 11  1  0  0  0  0
 25 24  1  0  0  0  0
 27 30  1  0  0  0  0
 27 16  1  0  0  0  0
 28 27  1  0  0  0  0
 29 27  1  0  0  0  0
 30 31  1  6  0  0  0
 30 21  1  0  0  0  0
 30 24  1  0  0  0  0
M  END
