14
 OpenBabel05122313063D

 20 21  0  0  0  0  0  0  0  0999 V2000
   -2.2169    1.3537   -1.0587 N   0  0  0  0  0  0  0  0  0  0  0  0
   -2.8724    0.7788   -2.0786 C   0  0  0  0  0  0  0  0  0  0  0  0
   -2.2548    0.4560   -2.9327 H   0  0  0  0  0  0  0  0  0  0  0  0
   -4.2565    0.5560   -2.0664 C   0  0  0  0  0  0  0  0  0  0  0  0
   -4.7468    0.0554   -2.9128 H   0  0  0  0  0  0  0  0  0  0  0  0
   -4.9789    0.9389   -0.9275 C   0  0  0  0  0  0  0  0  0  0  0  0
   -6.0563    0.7317   -0.8528 H   0  0  0  0  0  0  0  0  0  0  0  0
   -1.8681    3.8312    3.0435 C   0  0  0  0  0  0  0  0  0  0  0  0
   -2.2973    4.5245    3.7826 H   0  0  0  0  0  0  0  0  0  0  0  0
   -0.5022    3.5187    3.0640 C   0  0  0  0  0  0  0  0  0  0  0  0
    0.1748    3.9515    3.8142 H   0  0  0  0  0  0  0  0  0  0  0  0
   -0.0029    2.6279    2.1013 C   0  0  0  0  0  3  0  0  0  0  0  0
    1.0630    2.3324    2.0430 H   0  0  0  0  0  0  0  0  0  0  0  0
   -0.7972    2.0744    1.1705 N   0  0  0  0  0  2  0  0  0  0  0  0
   -2.1148    2.3742    1.1247 C   0  0  0  0  0  0  0  0  0  0  0  0
   -2.6855    3.2588    2.0598 C   0  0  0  0  0  0  0  0  0  0  0  0
   -3.7529    3.5127    2.0024 H   0  0  0  0  0  0  0  0  0  0  0  0
   -4.3039    1.5526    0.1342 C   0  0  0  0  0  0  0  0  0  0  0  0
   -4.8393    1.8123    1.0569 H   0  0  0  0  0  0  0  0  0  0  0  0
   -2.9121    1.7486    0.0303 C   0  0  0  0  0  0  0  0  0  0  0  0
  1 20  1  0  0  0  0
  2  4  1  0  0  0  0
  2  1  2  0  0  0  0
  3  2  1  0  0  0  0
  4  6  2  0  0  0  0
  5  4  1  0  0  0  0
  6  7  1  0  0  0  0
  6 18  1  0  0  0  0
  8 10  2  0  0  0  0
  8  9  1  0  0  0  0
 10 11  1  0  0  0  0
 12 10  1  0  0  0  0
 13 12  1  0  0  0  0
 14 12  1  0  0  0  0
 15 14  1  0  0  0  0
 15 16  2  0  0  0  0
 16  8  1  0  0  0  0
 17 16  1  0  0  0  0
 18 19  1  0  0  0  0
 20 18  2  0  0  0  0
 20 15  1  0  0  0  0
M  END
