3
 OpenBabel05122313063D

 20 20  0  0  0  0  0  0  0  0999 V2000
   -2.4940   -1.9467   -0.4466 S   0  0  0  0  0  3  0  0  0  0  0  0
   -3.9493    0.1413    0.2248 N   0  0  0  0  0  0  0  0  0  0  0  0
   -1.7607   -0.4458   -0.3208 N   0  0  0  0  0  2  0  0  0  0  0  0
   -2.7330   -2.6192    1.2422 C   0  0  0  0  0  0  0  0  0  0  0  0
   -1.0472   -2.9230   -0.9356 C   0  0  0  0  0  0  0  0  0  0  0  0
   -2.6955    0.5467   -0.0820 C   0  0  0  0  0  0  0  0  0  0  0  0
   -2.3464    1.9235   -0.1588 C   0  0  0  0  0  0  0  0  0  0  0  0
   -3.3411    2.8639    0.0970 C   0  0  0  0  0  0  0  0  0  0  0  0
   -4.6516    2.4422    0.4072 C   0  0  0  0  0  0  0  0  0  0  0  0
   -4.8991    1.0663    0.4432 C   0  0  0  0  0  0  0  0  0  0  0  0
   -2.9613   -3.6992    1.1515 H   0  0  0  0  0  0  0  0  0  0  0  0
   -3.5938   -2.0597    1.6481 H   0  0  0  0  0  0  0  0  0  0  0  0
   -1.8051   -2.4184    1.8143 H   0  0  0  0  0  0  0  0  0  0  0  0
   -1.3881   -3.9681   -1.0665 H   0  0  0  0  0  0  0  0  0  0  0  0
   -0.2652   -2.8321   -0.1554 H   0  0  0  0  0  0  0  0  0  0  0  0
   -0.6928   -2.5011   -1.8944 H   0  0  0  0  0  0  0  0  0  0  0  0
   -1.3266    2.2059   -0.4545 H   0  0  0  0  0  0  0  0  0  0  0  0
   -3.1016    3.9372    0.0408 H   0  0  0  0  0  0  0  0  0  0  0  0
   -5.4552    3.1629    0.6142 H   0  0  0  0  0  0  0  0  0  0  0  0
   -5.9084    0.6809    0.6734 H   0  0  0  0  0  0  0  0  0  0  0  0
  1  3  1  0  0  0  0
  1  4  1  0  0  0  0
  2 10  1  0  0  0  0
  3  6  1  0  0  0  0
  4 12  1  0  0  0  0
  4 13  1  0  0  0  0
  5  1  1  0  0  0  0
  5 15  1  0  0  0  0
  6  2  2  0  0  0  0
  7  6  1  0  0  0  0
  7  8  2  0  0  0  0
  8  9  1  0  0  0  0
  9 10  2  0  0  0  0
  9 19  1  0  0  0  0
 10 20  1  0  0  0  0
 11  4  1  0  0  0  0
 14  5  1  0  0  0  0
 16  5  1  0  0  0  0
 17  7  1  0  0  0  0
 18  8  1  0  0  0  0
M  END
