3
 OpenBabel05122313063D

 10 10  0  0  1  0  0  0  0  0999 V2000
   -3.3503   -3.8103    0.1316 S   0  0  0  0  0  0  0  0  0  0  0  0
   -2.0948   -2.6961    0.6913 C   0  0  2  0  0  3  0  0  0  0  0  0
   -1.8181   -1.7384   -0.1882 N   0  0  0  0  0  2  0  0  0  0  0  0
   -2.5816   -1.8536   -1.3342 C   0  0  0  0  0  0  0  0  0  0  0  0
   -2.4077   -1.1340   -2.1467 H   0  0  0  0  0  0  0  0  0  0  0  0
   -3.4649   -2.8991   -1.3591 C   0  0  0  0  0  0  0  0  0  0  0  0
   -4.1592   -3.1991   -2.1509 H   0  0  0  0  0  0  0  0  0  0  0  0
   -1.4746   -2.8580    1.8823 N   0  0  0  0  0  0  0  0  0  0  0  0
   -0.9689   -2.0267    2.2646 H   0  0  0  0  0  0  0  0  0  0  0  0
   -1.8894   -3.4980    2.5570 H   0  0  0  0  0  0  0  0  0  0  0  0
  1  2  1  0  0  0  0
  2  8  1  6  0  0  0
  3  2  1  0  0  0  0
  4  3  1  0  0  0  0
  5  4  1  0  0  0  0
  6  4  2  0  0  0  0
  6  1  1  0  0  0  0
  7  6  1  0  0  0  0
  8  9  1  0  0  0  0
  8 10  1  0  0  0  0
M  END
