4
 OpenBabel05122313063D

 34 35  0  0  0  0  0  0  0  0999 V2000
    3.3359    0.4888    0.4528 O   0  0  0  0  0  0  0  0  0  0  0  0
   -7.4633    1.3301    0.3196 O   0  0  0  0  0  0  0  0  0  0  0  0
   -7.5014   -0.8450    0.0895 O   0  0  0  0  0  0  0  0  0  0  0  0
    0.7121    0.9463   -0.0148 N   0  0  0  0  0  2  0  0  0  0  0  0
   -0.5709    1.1484    0.0097 N   0  0  0  0  0  2  0  0  0  0  0  0
   -1.2583    0.0687   -0.0401 N   0  0  0  0  0  2  0  0  0  0  0  0
   -6.9136    0.2346    0.1833 N   0  0  0  0  0  0  0  0  0  0  0  0
    1.6055    2.0215   -0.0895 C   0  0  0  0  0  0  0  0  0  0  0  0
    2.9941    1.7723    0.1365 C   0  0  0  0  0  0  0  0  0  0  0  0
    3.9145    2.8290    0.0283 C   0  0  0  0  0  0  0  0  0  0  0  0
    4.9844    2.6446    0.1880 H   0  0  0  0  0  0  0  0  0  0  0  0
    3.4728    4.1273   -0.2727 C   0  0  0  0  0  0  0  0  0  0  0  0
    4.2074    4.9424   -0.3473 H   0  0  0  0  0  0  0  0  0  0  0  0
    2.1086    4.3795   -0.4791 C   0  0  0  0  0  0  0  0  0  0  0  0
    1.7600    5.3949   -0.7173 H   0  0  0  0  0  0  0  0  0  0  0  0
    1.1842    3.3324   -0.3971 C   0  0  0  0  0  0  0  0  0  0  0  0
    0.1138    3.5024   -0.5724 H   0  0  0  0  0  0  0  0  0  0  0  0
   -2.6466    0.1835    0.0234 C   0  0  0  0  0  0  0  0  0  0  0  0
   -3.3822   -1.0238   -0.0774 C   0  0  0  0  0  0  0  0  0  0  0  0
   -2.8284   -1.9660   -0.1981 H   0  0  0  0  0  0  0  0  0  0  0  0
   -4.7761   -1.0119   -0.0263 C   0  0  0  0  0  0  0  0  0  0  0  0
   -5.3719   -1.9308   -0.1029 H   0  0  0  0  0  0  0  0  0  0  0  0
   -5.4391    0.2149    0.1280 C   0  0  0  0  0  0  0  0  0  0  0  0
   -4.7340    1.4260    0.2333 C   0  0  0  0  0  0  0  0  0  0  0  0
   -5.3030    2.3573    0.3560 H   0  0  0  0  0  0  0  0  0  0  0  0
   -3.3420    1.4122    0.1825 C   0  0  0  0  0  0  0  0  0  0  0  0
   -2.7668    2.3437    0.2681 H   0  0  0  0  0  0  0  0  0  0  0  0
    4.7146    0.1600    0.6817 C   0  0  0  0  0  0  0  0  0  0  0  0
    5.1226    0.8376    1.4649 H   0  0  0  0  0  0  0  0  0  0  0  0
    5.2922    0.3386   -0.2535 H   0  0  0  0  0  0  0  0  0  0  0  0
    4.7985   -1.2878    1.1208 C   0  0  0  0  0  0  0  0  0  0  0  0
    5.8581   -1.5636    1.2889 H   0  0  0  0  0  0  0  0  0  0  0  0
    4.3757   -1.9751    0.3617 H   0  0  0  0  0  0  0  0  0  0  0  0
    4.2482   -1.4453    2.0695 H   0  0  0  0  0  0  0  0  0  0  0  0
  1 28  1  0  0  0  0
  3  7  2  0  0  0  0
  4  5  1  0  0  0  0
  6  5  1  0  0  0  0
  6 18  1  0  0  0  0
  7  2  2  0  0  0  0
  8  4  1  0  0  0  0
  8  9  1  0  0  0  0
  9  1  1  0  0  0  0
 10  9  2  0  0  0  0
 10 11  1  0  0  0  0
 12 10  1  0  0  0  0
 13 12  1  0  0  0  0
 14 16  1  0  0  0  0
 14 12  2  0  0  0  0
 15 14  1  0  0  0  0
 16  8  2  0  0  0  0
 17 16  1  0  0  0  0
 18 26  1  0  0  0  0
 19 21  1  0  0  0  0
 19 18  2  0  0  0  0
 20 19  1  0  0  0  0
 21 23  2  0  0  0  0
 22 21  1  0  0  0  0
 23  7  1  0  0  0  0
 23 24  1  0  0  0  0
 24 25  1  0  0  0  0
 26 24  2  0  0  0  0
 26 27  1  0  0  0  0
 28 31  1  0  0  0  0
 28 29  1  0  0  0  0
 30 28  1  0  0  0  0
 31 32  1  0  0  0  0
 31 34  1  0  0  0  0
 33 31  1  0  0  0  0
M  END
