2
 OpenBabel05122313063D

 20 21  0  0  1  0  0  0  0  0999 V2000
   -2.1164    2.9454    0.0006 S   0  0  0  0  0  0  0  0  0  0  0  0
   -0.4530    0.9069    0.0025 N   0  0  0  0  0  2  0  0  0  0  0  0
    0.5841    3.0428    0.0245 N   0  0  0  0  0  0  0  0  0  0  0  0
    1.5013    2.6038   -0.0930 H   0  0  0  0  0  0  0  0  0  0  0  0
    0.4866    4.0445   -0.1247 H   0  0  0  0  0  0  0  0  0  0  0  0
   -0.4972    2.2339    0.0004 C   0  0  2  0  0  3  0  0  0  0  0  0
   -1.7471    0.3604    0.0037 C   0  0  0  0  0  0  0  0  0  0  0  0
   -2.1051   -0.9967    0.0034 C   0  0  0  0  0  0  0  0  0  0  0  0
   -1.3275   -1.7695    0.0045 H   0  0  0  0  0  0  0  0  0  0  0  0
   -3.4560   -1.3720    0.0015 C   0  0  0  0  0  0  0  0  0  0  0  0
   -3.7026   -2.4413    0.0015 H   0  0  0  0  0  0  0  0  0  0  0  0
   -4.4802   -0.3972   -0.0004 C   0  0  0  0  0  0  0  0  0  0  0  0
   -5.8108   -0.6779   -0.0023 O   0  0  0  0  0  0  0  0  0  0  0  0
   -4.1453    0.9739   -0.0009 C   0  0  0  0  0  0  0  0  0  0  0  0
   -4.9505    1.7209   -0.0027 H   0  0  0  0  0  0  0  0  0  0  0  0
   -2.7957    1.3230    0.0011 C   0  0  0  0  0  0  0  0  0  0  0  0
   -6.2140   -2.0351   -0.0012 C   0  0  0  0  0  0  0  0  0  0  0  0
   -7.3195   -2.0319   -0.0024 H   0  0  0  0  0  0  0  0  0  0  0  0
   -5.8551   -2.5737    0.9045 H   0  0  0  0  0  0  0  0  0  0  0  0
   -5.8532   -2.5758   -0.9048 H   0  0  0  0  0  0  0  0  0  0  0  0
  1 16  1  0  0  0  0
  2  7  1  0  0  0  0
  4  3  1  0  0  0  0
  5  3  1  0  0  0  0
  6  1  1  0  0  0  0
  6  2  1  0  0  0  0
  6  3  1  1  0  0  0
  8  7  1  0  0  0  0
  8  9  1  0  0  0  0
 10  8  2  0  0  0  0
 11 10  1  0  0  0  0
 12 10  1  0  0  0  0
 13 17  1  0  0  0  0
 13 12  1  0  0  0  0
 14 12  2  0  0  0  0
 14 16  1  0  0  0  0
 15 14  1  0  0  0  0
 16  7  2  0  0  0  0
 17 19  1  0  0  0  0
 18 17  1  0  0  0  0
 20 17  1  0  0  0  0
M  END
