2
 OpenBabel05122313063D

 29 31  0  0  1  0  0  0  0  0999 V2000
    0.2655    2.3796    0.2737 N   0  0  0  0  0  0  0  0  0  0  0  0
    1.6887    0.1578   -0.5133 N   0  0  0  0  0  2  0  0  0  0  0  0
    0.7019   -2.2939    0.2560 N   0  0  0  0  0  0  0  0  0  0  0  0
    2.1727    1.3913   -0.8169 C   0  0  2  0  0  3  0  0  0  0  0  0
   -0.6217    3.3654    0.4555 C   0  0  0  0  0  0  0  0  0  0  0  0
   -1.4242    3.1695    1.1884 H   0  0  0  0  0  0  0  0  0  0  0  0
    2.3941   -0.9620   -0.8237 C   0  0  0  0  0  0  0  0  0  0  0  0
    1.7173   -2.2724   -0.6311 C   0  0  0  0  0  0  0  0  0  0  0  0
   -0.5560    4.5896   -0.2263 C   0  0  0  0  0  0  0  0  0  0  0  0
   -1.3028    5.3744   -0.0381 H   0  0  0  0  0  0  0  0  0  0  0  0
    1.2641    2.5516   -0.6160 C   0  0  0  0  0  0  0  0  0  0  0  0
    3.4647    1.5382   -1.3551 C   0  0  0  0  0  0  0  0  0  0  0  0
    3.8616    2.5413   -1.5588 H   0  0  0  0  0  0  0  0  0  0  0  0
    0.0138   -3.4286    0.4313 C   0  0  0  0  0  0  0  0  0  0  0  0
   -0.8126   -3.3890    1.1628 H   0  0  0  0  0  0  0  0  0  0  0  0
    1.4094    3.7469   -1.3510 C   0  0  0  0  0  0  0  0  0  0  0  0
    2.2094    3.8622   -2.0954 H   0  0  0  0  0  0  0  0  0  0  0  0
    4.2399    0.4011   -1.6041 C   0  0  0  0  0  0  0  0  0  0  0  0
    5.2635    0.4985   -1.9937 H   0  0  0  0  0  0  0  0  0  0  0  0
    3.6907   -0.8621   -1.3618 C   0  0  0  0  0  0  0  0  0  0  0  0
    4.2680   -1.7722   -1.5708 H   0  0  0  0  0  0  0  0  0  0  0  0
    2.0843   -3.4162   -1.3707 C   0  0  0  0  0  0  0  0  0  0  0  0
    2.8933   -3.3771   -2.1132 H   0  0  0  0  0  0  0  0  0  0  0  0
    0.4854    4.7795   -1.1473 C   0  0  0  0  0  0  0  0  0  0  0  0
    0.5706    5.7187   -1.7135 H   0  0  0  0  0  0  0  0  0  0  0  0
    0.3082   -4.6159   -0.2552 C   0  0  0  0  0  0  0  0  0  0  0  0
   -0.2793   -5.5272   -0.0722 H   0  0  0  0  0  0  0  0  0  0  0  0
    1.3687   -4.6039   -1.1739 C   0  0  0  0  0  0  0  0  0  0  0  0
    1.6288   -5.5081   -1.7439 H   0  0  0  0  0  0  0  0  0  0  0  0
  1  5  1  0  0  0  0
  3 14  1  0  0  0  0
  4 11  1  6  0  0  0
  4  2  1  0  0  0  0
  5  6  1  0  0  0  0
  7  8  1  0  0  0  0
  7  2  1  0  0  0  0
  8  3  2  0  0  0  0
  9 10  1  0  0  0  0
  9  5  2  0  0  0  0
 11  1  2  0  0  0  0
 12  4  1  0  0  0  0
 13 12  1  0  0  0  0
 14 15  1  0  0  0  0
 16 24  2  0  0  0  0
 16 11  1  0  0  0  0
 17 16  1  0  0  0  0
 18 20  1  0  0  0  0
 18 12  2  0  0  0  0
 19 18  1  0  0  0  0
 20  7  2  0  0  0  0
 21 20  1  0  0  0  0
 22 28  2  0  0  0  0
 22  8  1  0  0  0  0
 23 22  1  0  0  0  0
 24  9  1  0  0  0  0
 25 24  1  0  0  0  0
 26 27  1  0  0  0  0
 26 14  2  0  0  0  0
 28 26  1  0  0  0  0
 29 28  1  0  0  0  0
M  END
