3
 OpenBabel05122313063D

 23 25  0  0  1  0  0  0  0  0999 V2000
    0.0936   -1.6606    1.5681 N   0  0  0  0  0  0  0  0  0  0  0  0
    0.5223   -3.8525    3.2684 N   0  0  0  0  0  0  0  0  0  0  0  0
    2.2380   -0.3199    0.3882 N   0  0  0  0  0  2  0  0  0  0  0  0
    3.7756   -1.5420    1.4652 N   0  0  0  0  0  0  0  0  0  0  0  0
    4.1768   -2.2545    2.0734 H   0  0  0  0  0  0  0  0  0  0  0  0
    1.3432   -2.0684    1.8752 C   0  0  0  0  0  0  0  0  0  0  0  0
    1.5419   -3.1787    2.7284 C   0  0  0  0  0  0  0  0  0  0  0  0
    2.5565   -3.5382    2.9804 H   0  0  0  0  0  0  0  0  0  0  0  0
   -0.7140   -3.4360    2.9499 C   0  0  0  0  0  0  0  0  0  0  0  0
   -1.5640   -3.9881    3.3860 H   0  0  0  0  0  0  0  0  0  0  0  0
   -0.9280   -2.3424    2.0913 C   0  0  0  0  0  0  0  0  0  0  0  0
   -1.9417   -2.0127    1.8078 H   0  0  0  0  0  0  0  0  0  0  0  0
    2.4314   -1.3128    1.2534 C   0  0  2  0  0  3  0  0  0  0  0  0
    3.4910    0.1256    0.0098 C   0  0  0  0  0  0  0  0  0  0  0  0
    3.8619    1.1522   -0.8827 C   0  0  0  0  0  0  0  0  0  0  0  0
    3.0869    1.7351   -1.4057 H   0  0  0  0  0  0  0  0  0  0  0  0
    5.2293    1.3769   -1.0617 C   0  0  0  0  0  0  0  0  0  0  0  0
    5.5576    2.1674   -1.7526 H   0  0  0  0  0  0  0  0  0  0  0  0
    6.2096    0.6091   -0.3810 C   0  0  0  0  0  0  0  0  0  0  0  0
    7.2745    0.8221   -0.5580 H   0  0  0  0  0  0  0  0  0  0  0  0
    5.8610   -0.4156    0.5071 C   0  0  0  0  0  0  0  0  0  0  0  0
    6.6256   -1.0095    1.0284 H   0  0  0  0  0  0  0  0  0  0  0  0
    4.4876   -0.6426    0.6889 C   0  0  0  0  0  0  0  0  0  0  0  0
  1  6  2  0  0  0  0
  1 11  1  0  0  0  0
  3 13  1  0  0  0  0
  4  5  1  0  0  0  0
  6  7  1  0  0  0  0
  7  8  1  0  0  0  0
  7  2  2  0  0  0  0
  9  2  1  0  0  0  0
  9 10  1  0  0  0  0
 11  9  2  0  0  0  0
 12 11  1  0  0  0  0
 13  4  1  0  0  0  0
 13  6  1  6  0  0  0
 14  3  1  0  0  0  0
 14 23  1  0  0  0  0
 15 14  2  0  0  0  0
 16 15  1  0  0  0  0
 17 15  1  0  0  0  0
 17 19  2  0  0  0  0
 18 17  1  0  0  0  0
 19 21  1  0  0  0  0
 20 19  1  0  0  0  0
 21 23  2  0  0  0  0
 21 22  1  0  0  0  0
 23  4  1  0  0  0  0
M  END
