2
 OpenBabel05122313063D

 15 15  0  0  0  0  0  0  0  0999 V2000
    6.4002    0.8683    0.3037 S   0  0  0  0  0  0  0  0  0  0  0  0
    1.4626    1.0584   -0.9994 N   0  0  0  0  0  0  0  0  0  0  0  0
    1.1031    1.3142   -1.9331 H   0  0  0  0  0  0  0  0  0  0  0  0
    1.6795    1.9524   -0.4991 H   0  0  0  0  0  0  0  0  0  0  0  0
    2.7037    0.3993   -1.1254 N   0  0  0  0  0  0  0  0  0  0  0  0
    2.5741   -0.6301   -1.1147 H   0  0  0  0  0  0  0  0  0  0  0  0
    4.8942    0.1243   -0.1543 C   0  0  0  0  0  0  0  0  0  0  0  0
    4.9894   -1.2653   -0.1568 C   0  0  0  0  0  0  0  0  0  0  0  0
    4.1374   -1.9301   -0.3623 H   0  0  0  0  0  0  0  0  0  0  0  0
    6.2896   -1.7194    0.1972 C   0  0  0  0  0  0  0  0  0  0  0  0
    6.5779   -2.7773    0.2619 H   0  0  0  0  0  0  0  0  0  0  0  0
    7.1580   -0.6722    0.4651 C   0  0  0  0  0  0  0  0  0  0  0  0
    8.2141   -0.7303    0.7572 H   0  0  0  0  0  0  0  0  0  0  0  0
    3.7361    0.9934   -0.4090 C   0  0  0  0  0  0  0  0  0  0  0  0
    3.6509    2.1713   -0.0470 O   0  0  0  0  0  0  0  0  0  0  0  0
  1 12  1  0  0  0  0
  2  4  1  0  0  0  0
  3  2  1  0  0  0  0
  5  6  1  0  0  0  0
  5  2  1  0  0  0  0
  5 14  1  0  0  0  0
  7  1  1  0  0  0  0
  8  7  2  0  0  0  0
  8 10  1  0  0  0  0
  9  8  1  0  0  0  0
 10 11  1  0  0  0  0
 10 12  2  0  0  0  0
 12 13  1  0  0  0  0
 14  7  1  0  0  0  0
 14 15  2  0  0  0  0
M  END
