3
 OpenBabel05122313063D

 48 51  0  0  1  0  0  0  0  0999 V2000
   -1.6139    1.2062   -0.4610 P   0  0  0  0  0  0  0  0  0  0  0  0
    3.2378    2.6967   -0.2820 O   0  0  0  0  0  0  0  0  0  0  0  0
    1.4677    1.4081   -0.7739 N   0  0  0  0  0  2  0  0  0  0  0  0
    2.5202    1.5885   -0.0204 C   0  0  2  0  0  3  0  0  0  0  0  0
    2.6480    3.3213   -1.4514 C   0  0  0  0  0  0  0  0  0  0  0  0
    1.2854    2.6070   -1.6149 C   0  0  2  0  0  0  0  0  0  0  0  0
    2.9776    0.7386    1.0815 C   0  0  0  0  0  0  0  0  0  0  0  0
    4.3318    0.7764    1.4778 C   0  0  0  0  0  0  0  0  0  0  0  0
    4.7727   -0.0352    2.5298 C   0  0  0  0  0  0  0  0  0  0  0  0
    3.8697   -0.8779    3.1983 C   0  0  0  0  0  0  0  0  0  0  0  0
    2.5160   -0.9025    2.8201 C   0  0  0  0  0  0  0  0  0  0  0  0
    2.0673   -0.0952    1.7697 C   0  0  0  0  0  0  0  0  0  0  0  0
    0.0828    3.4420   -1.1409 C   0  0  0  0  0  0  0  0  0  0  0  0
   -1.2906    2.7975   -1.3679 C   0  0  0  0  0  0  0  0  0  0  0  0
   -1.8696    1.6370    1.2958 C   0  0  0  0  0  0  0  0  0  0  0  0
   -1.9024    0.5696    2.2208 C   0  0  0  0  0  0  0  0  0  0  0  0
   -2.1059    0.8254    3.5832 C   0  0  0  0  0  0  0  0  0  0  0  0
   -2.2616    2.1457    4.0371 C   0  0  0  0  0  0  0  0  0  0  0  0
   -2.2269    3.2094    3.1220 C   0  0  0  0  0  0  0  0  0  0  0  0
   -2.0375    2.9596    1.7536 C   0  0  0  0  0  0  0  0  0  0  0  0
   -3.2477    0.6912   -1.1055 C   0  0  0  0  0  0  0  0  0  0  0  0
   -4.4011    0.6645   -0.2991 C   0  0  0  0  0  0  0  0  0  0  0  0
   -5.6212    0.2282   -0.8397 C   0  0  0  0  0  0  0  0  0  0  0  0
   -5.6980   -0.1763   -2.1810 C   0  0  0  0  0  0  0  0  0  0  0  0
   -4.5477   -0.1502   -2.9891 C   0  0  0  0  0  0  0  0  0  0  0  0
   -3.3246    0.2727   -2.4519 C   0  0  0  0  0  0  0  0  0  0  0  0
    3.3298    3.1516   -2.3096 H   0  0  0  0  0  0  0  0  0  0  0  0
    2.5679    4.4076   -1.2558 H   0  0  0  0  0  0  0  0  0  0  0  0
    1.1235    2.2948   -2.6681 H   0  0  0  0  0  0  0  0  0  0  0  0
    5.0322    1.4339    0.9448 H   0  0  0  0  0  0  0  0  0  0  0  0
    5.8303   -0.0113    2.8308 H   0  0  0  0  0  0  0  0  0  0  0  0
    4.2201   -1.5107    4.0276 H   0  0  0  0  0  0  0  0  0  0  0  0
    1.8022   -1.5414    3.3618 H   0  0  0  0  0  0  0  0  0  0  0  0
    1.0004   -0.0846    1.4877 H   0  0  0  0  0  0  0  0  0  0  0  0
    0.2282    3.6934   -0.0683 H   0  0  0  0  0  0  0  0  0  0  0  0
    0.1034    4.4049   -1.6949 H   0  0  0  0  0  0  0  0  0  0  0  0
   -1.4258    2.5457   -2.4411 H   0  0  0  0  0  0  0  0  0  0  0  0
   -2.1073    3.5061   -1.1180 H   0  0  0  0  0  0  0  0  0  0  0  0
   -1.7860   -0.4674    1.8689 H   0  0  0  0  0  0  0  0  0  0  0  0
   -2.1417   -0.0138    4.2940 H   0  0  0  0  0  0  0  0  0  0  0  0
   -2.4133    2.3470    5.1080 H   0  0  0  0  0  0  0  0  0  0  0  0
   -2.3534    4.2442    3.4737 H   0  0  0  0  0  0  0  0  0  0  0  0
   -2.0298    3.8057    1.0511 H   0  0  0  0  0  0  0  0  0  0  0  0
   -4.3461    0.9762    0.7541 H   0  0  0  0  0  0  0  0  0  0  0  0
   -6.5191    0.2057   -0.2042 H   0  0  0  0  0  0  0  0  0  0  0  0
   -6.6568   -0.5154   -2.6007 H   0  0  0  0  0  0  0  0  0  0  0  0
   -4.6037   -0.4686   -4.0408 H   0  0  0  0  0  0  0  0  0  0  0  0
   -2.4195    0.2650   -3.0816 H   0  0  0  0  0  0  0  0  0  0  0  0
  1 15  1  0  0  0  0
  2  4  1  0  0  0  0
  3  4  1  0  0  0  0
  4  7  1  1  0  0  0
  5 28  1  0  0  0  0
  5  2  1  0  0  0  0
  6 29  1  6  0  0  0
  6  5  1  0  0  0  0
  6 13  1  0  0  0  0
  6  3  1  0  0  0  0
  7  8  2  0  0  0  0
  7 12  1  0  0  0  0
  8  9  1  0  0  0  0
  9 31  1  0  0  0  0
  9 10  2  0  0  0  0
 10 32  1  0  0  0  0
 11 10  1  0  0  0  0
 11 33  1  0  0  0  0
 12 11  2  0  0  0  0
 13 35  1  0  0  0  0
 14 13  1  0  0  0  0
 14 38  1  0  0  0  0
 14  1  1  0  0  0  0
 15 20  2  0  0  0  0
 15 16  1  0  0  0  0
 16 17  2  0  0  0  0
 17 18  1  0  0  0  0
 17 40  1  0  0  0  0
 18 41  1  0  0  0  0
 19 42  1  0  0  0  0
 19 18  2  0  0  0  0
 20 19  1  0  0  0  0
 21  1  1  0  0  0  0
 21 22  1  0  0  0  0
 22 44  1  0  0  0  0
 23 22  2  0  0  0  0
 23 45  1  0  0  0  0
 24 23  1  0  0  0  0
 25 26  1  0  0  0  0
 25 24  2  0  0  0  0
 26 21  2  0  0  0  0
 27  5  1  0  0  0  0
 30  8  1  0  0  0  0
 34 12  1  0  0  0  0
 36 13  1  0  0  0  0
 37 14  1  0  0  0  0
 39 16  1  0  0  0  0
 43 20  1  0  0  0  0
 46 24  1  0  0  0  0
 47 25  1  0  0  0  0
 48 26  1  0  0  0  0
M  END
