1
 OpenBabel05122313063D

 12 11  0  0  1  0  0  0  0  0999 V2000
   -1.9267   -0.6508   -0.0841 N   0  0  0  0  0  2  0  0  0  0  0  0
   -1.9807   -1.6745   -0.1421 H   0  0  0  0  0  0  0  0  0  0  0  0
   -3.0587   -0.0180   -0.2211 C   0  0  1  0  0  3  0  0  0  0  0  0
   -3.1764    1.2857   -0.1749 O   0  0  0  0  0  0  0  0  0  0  0  0
   -4.3518   -0.7561   -0.4526 C   0  0  0  0  0  0  0  0  0  0  0  0
   -4.1540   -1.8461   -0.4380 H   0  0  0  0  0  0  0  0  0  0  0  0
   -4.6723   -0.5021   -1.4867 H   0  0  0  0  0  0  0  0  0  0  0  0
   -5.4487   -0.3712    0.5459 C   0  0  0  0  0  0  0  0  0  0  0  0
   -5.1586   -0.6375    1.5817 H   0  0  0  0  0  0  0  0  0  0  0  0
   -6.3906   -0.9005    0.3053 H   0  0  0  0  0  0  0  0  0  0  0  0
   -5.6429    0.7179    0.5128 H   0  0  0  0  0  0  0  0  0  0  0  0
   -2.2953    1.7220    0.0652 H   0  0  0  0  0  0  0  0  0  0  0  0
  2  1  1  0  0  0  0
  3  4  1  6  0  0  0
  3  1  1  0  0  0  0
  4 12  1  0  0  0  0
  5  6  1  0  0  0  0
  5  3  1  0  0  0  0
  5  8  1  0  0  0  0
  7  5  1  0  0  0  0
  8  9  1  0  0  0  0
 10  8  1  0  0  0  0
 11  8  1  0  0  0  0
M  END
