1
 OpenBabel05122313063D

 12 12  0  0  0  0  0  0  0  0999 V2000
    2.3421    0.4832   -0.0542 N   0  0  0  0  0  2  0  0  0  0  0  0
    4.3895    1.1089    0.4643 N   0  0  0  0  0  0  0  0  0  0  0  0
    5.1580    1.5562    0.9656 H   0  0  0  0  0  0  0  0  0  0  0  0
    3.0723    1.1673    0.8208 C   0  0  0  0  0  3  0  0  0  0  0  0
    2.6933    1.7206    1.6921 H   0  0  0  0  0  0  0  0  0  0  0  0
    3.2105   -0.0314   -0.9932 C   0  0  0  0  0  0  0  0  0  0  0  0
    2.8397   -0.6395   -1.8271 H   0  0  0  0  0  0  0  0  0  0  0  0
    4.5100    0.3481   -0.6921 C   0  0  0  0  0  0  0  0  0  0  0  0
    5.8140    0.0757   -1.3622 C   0  0  0  0  0  0  0  0  0  0  0  0
    6.3180    1.0088   -1.6931 H   0  0  0  0  0  0  0  0  0  0  0  0
    5.6490   -0.5501   -2.2588 H   0  0  0  0  0  0  0  0  0  0  0  0
    6.5204   -0.4683   -0.6993 H   0  0  0  0  0  0  0  0  0  0  0  0
  1  4  1  0  0  0  0
  2  4  1  0  0  0  0
  2  3  1  0  0  0  0
  4  5  1  0  0  0  0
  6  8  2  0  0  0  0
  6  1  1  0  0  0  0
  7  6  1  0  0  0  0
  8  2  1  0  0  0  0
  9 12  1  0  0  0  0
  9  8  1  0  0  0  0
 10  9  1  0  0  0  0
 11  9  1  0  0  0  0
M  END
