3
 OpenBabel05122313063D

 15 16  0  0  0  0  0  0  0  0999 V2000
    2.7453   -0.4684    1.3892 N   0  0  0  0  0  0  0  0  0  0  0  0
    4.6505   -0.3047    0.2417 N   0  0  0  0  0  0  0  0  0  0  0  0
    1.2801   -0.5195   -1.2984 N   0  0  0  0  0  0  0  0  0  0  0  0
    3.3122   -0.8005   -2.2619 N   0  0  0  0  0  0  0  0  0  0  0  0
    3.2906   -0.4517    0.1665 C   0  0  0  0  0  0  0  0  0  0  0  0
    2.6345   -0.5907   -1.1171 C   0  0  0  0  0  3  0  0  0  0  0  0
    3.7981   -0.3168    2.2658 C   0  0  0  0  0  0  0  0  0  0  0  0
    4.9975   -0.2159    1.5750 C   0  0  0  0  0  0  0  0  0  0  0  0
    1.0795   -0.6936   -2.6453 C   0  0  0  0  0  0  0  0  0  0  0  0
    2.3411   -0.8658   -3.2249 C   0  0  0  0  0  0  0  0  0  0  0  0
    3.6438   -0.2892    3.3515 H   0  0  0  0  0  0  0  0  0  0  0  0
    6.0327   -0.0876    1.9060 H   0  0  0  0  0  0  0  0  0  0  0  0
    0.0711   -0.6759   -3.0728 H   0  0  0  0  0  0  0  0  0  0  0  0
    2.5851   -1.0401   -4.2814 H   0  0  0  0  0  0  0  0  0  0  0  0
    5.2462   -0.2887   -0.5884 H   0  0  0  0  0  0  0  0  0  0  0  0
  1  7  1  0  0  0  0
  2  8  1  0  0  0  0
  3  6  1  0  0  0  0
  4  6  1  0  0  0  0
  5  2  1  0  0  0  0
  5  1  2  0  0  0  0
  6  5  1  0  0  0  0
  7 11  1  0  0  0  0
  8 12  1  0  0  0  0
  8  7  2  0  0  0  0
  9  3  2  0  0  0  0
 10  9  1  0  0  0  0
 10  4  2  0  0  0  0
 13  9  1  0  0  0  0
 14 10  1  0  0  0  0
 15  2  1  0  0  0  0
M  END
