4
 OpenBabel05122313063D

 39 41  0  0  0  0  0  0  0  0999 V2000
    1.9561    1.3454    0.4286 C   0  0  0  0  0  0  0  0  0  0  0  0
    1.9663    0.6761   -0.4591 H   0  0  0  0  0  0  0  0  0  0  0  0
    1.8219    0.6720    1.2998 H   0  0  0  0  0  0  0  0  0  0  0  0
    0.7349    2.1598    0.3061 N   0  0  0  0  0  0  0  0  0  0  0  0
    0.8418    2.8077   -0.4886 H   0  0  0  0  0  0  0  0  0  0  0  0
    0.5396    2.7427    1.1390 H   0  0  0  0  0  0  0  0  0  0  0  0
    4.3135   -0.1680   -0.8022 P   0  0  0  0  0  0  0  0  0  0  0  0
    4.4685    1.4407    0.1201 C   0  0  0  0  0  0  0  0  0  0  0  0
    5.7011    2.0976    0.3091 C   0  0  0  0  0  0  0  0  0  0  0  0
    6.6315    1.6052   -0.0105 H   0  0  0  0  0  0  0  0  0  0  0  0
    5.7595    3.3718    0.8940 C   0  0  0  0  0  0  0  0  0  0  0  0
    6.7340    3.8650    1.0310 H   0  0  0  0  0  0  0  0  0  0  0  0
    4.5804    4.0087    1.3045 C   0  0  0  0  0  0  0  0  0  0  0  0
    4.6165    5.0078    1.7644 H   0  0  0  0  0  0  0  0  0  0  0  0
    3.3485    3.3578    1.1371 C   0  0  0  0  0  0  0  0  0  0  0  0
    2.4278    3.8577    1.4784 H   0  0  0  0  0  0  0  0  0  0  0  0
    3.2705    2.0820    0.5510 C   0  0  0  0  0  0  0  0  0  0  0  0
    3.6313   -1.2672    0.5208 C   0  0  0  0  0  0  0  0  0  0  0  0
    2.6109   -2.1697    0.1547 C   0  0  0  0  0  0  0  0  0  0  0  0
    2.2710   -2.2044   -0.8921 H   0  0  0  0  0  0  0  0  0  0  0  0
    1.9903   -2.9694    1.1260 C   0  0  0  0  0  0  0  0  0  0  0  0
    1.1726   -3.6469    0.8382 H   0  0  0  0  0  0  0  0  0  0  0  0
    2.3814   -2.8745    2.4700 C   0  0  0  0  0  0  0  0  0  0  0  0
    1.8779   -3.4865    3.2334 H   0  0  0  0  0  0  0  0  0  0  0  0
    3.3937   -1.9755    2.8443 C   0  0  0  0  0  0  0  0  0  0  0  0
    3.6918   -1.8889    3.9006 H   0  0  0  0  0  0  0  0  0  0  0  0
    4.0132   -1.1710    1.8761 C   0  0  0  0  0  0  0  0  0  0  0  0
    4.7868   -0.4456    2.1737 H   0  0  0  0  0  0  0  0  0  0  0  0
    6.0744   -0.7057   -0.9555 C   0  0  0  0  0  0  0  0  0  0  0  0
    6.8302   -0.1246   -1.9996 C   0  0  0  0  0  0  0  0  0  0  0  0
    6.3615    0.6289   -2.6532 H   0  0  0  0  0  0  0  0  0  0  0  0
    8.1647   -0.4978   -2.2119 C   0  0  0  0  0  0  0  0  0  0  0  0
    8.7414   -0.0282   -3.0236 H   0  0  0  0  0  0  0  0  0  0  0  0
    8.7576   -1.4807   -1.4020 C   0  0  0  0  0  0  0  0  0  0  0  0
    9.8018   -1.7833   -1.5742 H   0  0  0  0  0  0  0  0  0  0  0  0
    8.0076   -2.0824   -0.3799 C   0  0  0  0  0  0  0  0  0  0  0  0
    8.4625   -2.8602    0.2528 H   0  0  0  0  0  0  0  0  0  0  0  0
    6.6764   -1.6970   -0.1539 C   0  0  0  0  0  0  0  0  0  0  0  0
    6.0992   -2.1738    0.6517 H   0  0  0  0  0  0  0  0  0  0  0  0
  1 17  1  0  0  0  0
  1  3  1  0  0  0  0
  2  1  1  0  0  0  0
  4  1  1  0  0  0  0
  4  6  1  0  0  0  0
  5  4  1  0  0  0  0
  7  8  1  0  0  0  0
  7 18  1  0  0  0  0
  8  9  2  0  0  0  0
  8 17  1  0  0  0  0
  9 11  1  0  0  0  0
 10  9  1  0  0  0  0
 11 12  1  0  0  0  0
 11 13  2  0  0  0  0
 13 14  1  0  0  0  0
 15 13  1  0  0  0  0
 15 16  1  0  0  0  0
 17 15  2  0  0  0  0
 18 27  1  0  0  0  0
 19 18  2  0  0  0  0
 19 21  1  0  0  0  0
 20 19  1  0  0  0  0
 21 23  2  0  0  0  0
 22 21  1  0  0  0  0
 23 25  1  0  0  0  0
 23 24  1  0  0  0  0
 25 26  1  0  0  0  0
 27 28  1  0  0  0  0
 27 25  2  0  0  0  0
 29  7  1  0  0  0  0
 29 38  1  0  0  0  0
 30 29  2  0  0  0  0
 31 30  1  0  0  0  0
 32 30  1  0  0  0  0
 32 34  2  0  0  0  0
 33 32  1  0  0  0  0
 34 36  1  0  0  0  0
 35 34  1  0  0  0  0
 36 38  2  0  0  0  0
 36 37  1  0  0  0  0
 38 39  1  0  0  0  0
M  END
