1
 OpenBabel05122313063D

 17 18  0  0  0  0  0  0  0  0999 V2000
   -2.2000   -0.4928   -0.9020 N   0  0  0  0  0  2  0  0  0  0  0  0
   -2.6951   -2.2790    0.5087 N   0  0  0  0  0  0  0  0  0  0  0  0
   -2.6364    0.5523   -1.6311 C   0  0  0  0  0  3  0  0  0  0  0  0
   -3.9670    1.0228   -1.5835 C   0  0  0  0  0  0  0  0  0  0  0  0
   -4.8882    0.4082   -0.7461 C   0  0  0  0  0  0  0  0  0  0  0  0
   -4.4761   -0.7272    0.0055 C   0  0  0  0  0  0  0  0  0  0  0  0
   -5.3110   -1.4628    0.8920 C   0  0  0  0  0  0  0  0  0  0  0  0
   -4.8162   -2.5799    1.5599 C   0  0  0  0  0  0  0  0  0  0  0  0
   -3.4891   -2.9813    1.3260 C   0  0  0  0  0  3  0  0  0  0  0  0
   -3.1166   -1.1545   -0.1419 C   0  0  0  0  0  0  0  0  0  0  0  0
   -1.6967   -2.6647    0.2098 H   0  0  0  0  0  0  0  0  0  0  0  0
   -1.8760    1.0440   -2.2536 H   0  0  0  0  0  0  0  0  0  0  0  0
   -4.2455    1.8903   -2.1978 H   0  0  0  0  0  0  0  0  0  0  0  0
   -5.9228    0.7715   -0.6614 H   0  0  0  0  0  0  0  0  0  0  0  0
   -6.3512   -1.1355    1.0406 H   0  0  0  0  0  0  0  0  0  0  0  0
   -5.4432   -3.1590    2.2510 H   0  0  0  0  0  0  0  0  0  0  0  0
   -3.0396   -3.8752    1.7831 H   0  0  0  0  0  0  0  0  0  0  0  0
  1 10  1  0  0  0  0
  2  9  1  0  0  0  0
  3  4  1  0  0  0  0
  3  1  1  0  0  0  0
  4  5  2  0  0  0  0
  5 14  1  0  0  0  0
  5  6  1  0  0  0  0
  6  7  1  0  0  0  0
  7 15  1  0  0  0  0
  7  8  2  0  0  0  0
  8 16  1  0  0  0  0
  9  8  1  0  0  0  0
  9 17  1  0  0  0  0
 10  6  2  0  0  0  0
 10  2  1  0  0  0  0
 11  2  1  0  0  0  0
 12  3  1  0  0  0  0
 13  4  1  0  0  0  0
M  END
