1
 OpenBabel05122313063D

 41 46  0  0  0  0  0  0  0  0999 V2000
   -0.1138   -0.4844    0.0274 N   0  0  0  0  0  2  0  0  0  0  0  0
   -1.0072    0.4878   -0.3627 C   0  0  0  0  0  0  0  0  0  0  0  0
   -0.6046    1.4791   -1.3127 C   0  0  0  0  0  0  0  0  0  0  0  0
    0.4086    1.4062   -1.7370 H   0  0  0  0  0  0  0  0  0  0  0  0
   -1.4562    2.5174   -1.6072 C   0  0  0  0  0  0  0  0  0  0  0  0
   -1.1179    3.3381   -2.2583 H   0  0  0  0  0  0  0  0  0  0  0  0
   -2.8069    2.5491   -1.1208 C   0  0  0  0  0  0  0  0  0  0  0  0
   -3.6632    3.6610   -1.3924 C   0  0  0  0  0  0  0  0  0  0  0  0
   -3.2666    4.5063   -1.9749 H   0  0  0  0  0  0  0  0  0  0  0  0
   -4.9372    3.6960   -0.8683 C   0  0  0  0  0  0  0  0  0  0  0  0
   -5.5664    4.5923   -0.9805 H   0  0  0  0  0  0  0  0  0  0  0  0
   -5.4966    2.5507   -0.2190 C   0  0  0  0  0  0  0  0  0  0  0  0
   -6.8219    2.5888    0.3155 C   0  0  0  0  0  0  0  0  0  0  0  0
   -7.3861    3.5322    0.2597 H   0  0  0  0  0  0  0  0  0  0  0  0
   -7.3613    1.4771    0.9233 C   0  0  0  0  0  0  0  0  0  0  0  0
   -8.3500    1.5240    1.4051 H   0  0  0  0  0  0  0  0  0  0  0  0
   -6.6918    0.2138    0.8623 C   0  0  0  0  0  0  0  0  0  0  0  0
   -7.3099   -0.9579    1.4147 C   0  0  0  0  0  0  0  0  0  0  0  0
   -8.2607   -0.8383    1.9568 H   0  0  0  0  0  0  0  0  0  0  0  0
   -6.7286   -2.1957    1.2822 C   0  0  0  0  0  0  0  0  0  0  0  0
   -7.1873   -3.0843    1.7431 H   0  0  0  0  0  0  0  0  0  0  0  0
   -5.5581   -2.3695    0.4715 C   0  0  0  0  0  0  0  0  0  0  0  0
   -5.0323   -3.6672    0.2162 C   0  0  0  0  0  0  0  0  0  0  0  0
   -5.5058   -4.5300    0.7108 H   0  0  0  0  0  0  0  0  0  0  0  0
   -3.9641   -3.8501   -0.6531 C   0  0  0  0  0  0  0  0  0  0  0  0
   -3.5593   -4.8575   -0.8325 H   0  0  0  0  0  0  0  0  0  0  0  0
   -3.4249   -2.7380   -1.3436 C   0  0  0  0  0  0  0  0  0  0  0  0
   -2.5980   -2.8651   -2.0591 H   0  0  0  0  0  0  0  0  0  0  0  0
   -3.9187   -1.4614   -1.1005 C   0  0  0  0  0  3  0  0  0  0  0  0
   -3.5018   -0.6238   -1.6724 H   0  0  0  0  0  0  0  0  0  0  0  0
   -4.9416   -1.2213   -0.1397 C   0  0  0  0  0  0  0  0  0  0  0  0
   -5.4191    0.1113    0.2156 C   0  0  0  0  0  0  0  0  0  0  0  0
   -4.7222    1.3447   -0.1088 C   0  0  0  0  0  0  0  0  0  0  0  0
   -3.2973    1.4554   -0.3445 C   0  0  0  0  0  0  0  0  0  0  0  0
   -2.3155    0.5415    0.2159 C   0  0  0  0  0  0  0  0  0  0  0  0
   -2.5656   -0.2752    1.3471 C   0  0  0  0  0  0  0  0  0  0  0  0
   -3.5205   -0.1840    1.8806 H   0  0  0  0  0  0  0  0  0  0  0  0
   -1.6036   -1.1788    1.7778 C   0  0  0  0  0  0  0  0  0  0  0  0
   -1.7707   -1.8200    2.6533 H   0  0  0  0  0  0  0  0  0  0  0  0
   -0.4055   -1.2952    1.0533 C   0  0  0  0  0  0  0  0  0  0  0  0
    0.3573   -2.0450    1.3044 H   0  0  0  0  0  0  0  0  0  0  0  0
  1 40  1  0  0  0  0
  2  1  1  0  0  0  0
  2 35  1  0  0  0  0
  3  2  2  0  0  0  0
  4  3  1  0  0  0  0
  5  3  1  0  0  0  0
  5  7  2  0  0  0  0
  6  5  1  0  0  0  0
  7 34  1  0  0  0  0
  8  7  1  0  0  0  0
  8 10  2  0  0  0  0
  9  8  1  0  0  0  0
 10 12  1  0  0  0  0
 11 10  1  0  0  0  0
 12 33  1  0  0  0  0
 12 13  2  0  0  0  0
 13 15  1  0  0  0  0
 14 13  1  0  0  0  0
 15 16  1  0  0  0  0
 17 15  2  0  0  0  0
 17 18  1  0  0  0  0
 18 19  1  0  0  0  0
 20 18  2  0  0  0  0
 20 21  1  0  0  0  0
 22 20  1  0  0  0  0
 23 22  2  0  0  0  0
 23 24  1  0  0  0  0
 25 23  1  0  0  0  0
 26 25  1  0  0  0  0
 27 29  1  0  0  0  0
 27 25  2  0  0  0  0
 28 27  1  0  0  0  0
 29 31  1  0  0  0  0
 30 29  1  0  0  0  0
 31 32  2  0  0  0  0
 31 22  1  0  0  0  0
 32 17  1  0  0  0  0
 33 32  1  0  0  0  0
 34 33  2  0  0  0  0
 34 35  1  0  0  0  0
 35 36  2  0  0  0  0
 36 38  1  0  0  0  0
 36 37  1  0  0  0  0
 38 39  1  0  0  0  0
 40 41  1  0  0  0  0
 40 38  2  0  0  0  0
M  END
