3
 OpenBabel05122313063D

  9  8  0  0  0  0  0  0  0  0999 V2000
   -2.6027    0.9363   -1.0333 O   0  0  0  0  0  0  0  0  0  0  0  0
   -1.8108    1.4419   -1.4078 H   0  0  0  0  0  0  0  0  0  0  0  0
   -2.0574    0.0495   -0.1724 N   0  0  0  0  0  2  0  0  0  0  0  0
   -2.8742   -0.7158    0.4772 C   0  0  0  0  0  3  0  0  0  0  0  0
   -2.3753   -1.4251    1.1581 H   0  0  0  0  0  0  0  0  0  0  0  0
   -4.3468   -0.6279    0.2929 C   0  0  0  0  0  0  0  0  0  0  0  0
   -4.6995    0.4060    0.4924 H   0  0  0  0  0  0  0  0  0  0  0  0
   -4.8726   -1.3354    0.9576 H   0  0  0  0  0  0  0  0  0  0  0  0
   -4.6144   -0.8445   -0.7634 H   0  0  0  0  0  0  0  0  0  0  0  0
  1  3  1  0  0  0  0
  2  1  1  0  0  0  0
  3  4  1  0  0  0  0
  4  5  1  0  0  0  0
  6  4  1  0  0  0  0
  6  7  1  0  0  0  0
  6  8  1  0  0  0  0
  9  6  1  0  0  0  0
M  END
