1
 OpenBabel05122313063D

 19 19  0  0  0  0  0  0  0  0999 V2000
   -1.5144   -0.0909   -0.6384 N   0  0  0  0  0  0  0  0  0  0  0  0
   -3.9354    0.5136   -0.4310 C   0  0  0  0  0  0  0  0  0  0  0  0
   -2.7636    1.6814    1.3773 N   0  0  0  0  0  0  0  0  0  0  0  0
   -3.8271    1.6025    0.4876 C   0  0  0  0  0  0  0  0  0  0  0  0
   -2.8992   -0.5807   -0.4033 C   0  0  0  0  0  0  0  0  0  0  0  0
   -2.8954   -1.0957    0.5805 H   0  0  0  0  0  0  0  0  0  0  0  0
   -3.1240   -1.3576   -1.1596 H   0  0  0  0  0  0  0  0  0  0  0  0
   -4.9891    0.4984   -1.3596 C   0  0  0  0  0  0  0  0  0  0  0  0
   -5.0575   -0.3508   -2.0592 H   0  0  0  0  0  0  0  0  0  0  0  0
   -5.9402    1.5278   -1.4175 C   0  0  0  0  0  0  0  0  0  0  0  0
   -6.7576    1.4917   -2.1521 H   0  0  0  0  0  0  0  0  0  0  0  0
   -5.8243    2.6045   -0.5241 C   0  0  0  0  0  0  0  0  0  0  0  0
   -6.5552    3.4274   -0.5511 H   0  0  0  0  0  0  0  0  0  0  0  0
   -4.7857    2.6417    0.4129 C   0  0  0  0  0  0  0  0  0  0  0  0
   -4.7062    3.4883    1.1139 H   0  0  0  0  0  0  0  0  0  0  0  0
   -1.3681    0.1713   -1.6238 H   0  0  0  0  0  0  0  0  0  0  0  0
   -1.3996    0.7789   -0.0870 H   0  0  0  0  0  0  0  0  0  0  0  0
   -2.3340    0.8281    1.7805 H   0  0  0  0  0  0  0  0  0  0  0  0
   -2.8218    2.4382    2.0599 H   0  0  0  0  0  0  0  0  0  0  0  0
  1  5  1  0  0  0  0
  1 17  1  0  0  0  0
  2  5  1  0  0  0  0
  2  4  1  0  0  0  0
  3 18  1  0  0  0  0
  3 19  1  0  0  0  0
  4  3  1  0  0  0  0
  5  6  1  0  0  0  0
  7  5  1  0  0  0  0
  8  2  2  0  0  0  0
  9  8  1  0  0  0  0
 10  8  1  0  0  0  0
 10 12  2  0  0  0  0
 11 10  1  0  0  0  0
 12 14  1  0  0  0  0
 13 12  1  0  0  0  0
 14  4  2  0  0  0  0
 14 15  1  0  0  0  0
 16  1  1  0  0  0  0
M  END
