1
 OpenBabel05122313063D

 19 19  0  0  0  0  0  0  0  0999 V2000
   -1.6785   -0.5378   -0.0014 N   0  0  0  0  0  2  0  0  0  0  0  0
   -0.7834    2.0268    0.0392 N   0  0  0  0  0  0  0  0  0  0  0  0
   -0.2495    2.7398    0.5571 H   0  0  0  0  0  0  0  0  0  0  0  0
   -2.1121   -1.7747   -0.3440 C   0  0  0  0  0  3  0  0  0  0  0  0
   -1.3407   -2.4967   -0.6477 H   0  0  0  0  0  0  0  0  0  0  0  0
   -3.4627   -2.1299   -0.3134 C   0  0  0  0  0  0  0  0  0  0  0  0
   -3.7625   -3.1483   -0.5974 H   0  0  0  0  0  0  0  0  0  0  0  0
   -4.4075   -1.1705    0.0765 C   0  0  0  0  0  0  0  0  0  0  0  0
   -5.4792   -1.4160    0.1055 H   0  0  0  0  0  0  0  0  0  0  0  0
   -3.9635    0.1136    0.4240 C   0  0  0  0  0  0  0  0  0  0  0  0
   -4.6744    0.8941    0.7309 H   0  0  0  0  0  0  0  0  0  0  0  0
   -2.5947    0.4011    0.3825 C   0  0  0  0  0  0  0  0  0  0  0  0
   -2.0247    1.7317    0.8056 C   0  0  0  0  0  0  0  0  0  0  0  0
   -2.7783    2.5404    0.6915 H   0  0  0  0  0  0  0  0  0  0  0  0
   -1.7476    1.6755    1.8797 H   0  0  0  0  0  0  0  0  0  0  0  0
   -1.0607    2.5490   -1.3239 C   0  0  0  0  0  0  0  0  0  0  0  0
   -1.6077    1.7850   -1.9068 H   0  0  0  0  0  0  0  0  0  0  0  0
   -0.1052    2.7602   -1.8369 H   0  0  0  0  0  0  0  0  0  0  0  0
   -1.6706    3.4760   -1.2776 H   0  0  0  0  0  0  0  0  0  0  0  0
  1 12  1  0  0  0  0
  2  3  1  0  0  0  0
  2 13  1  0  0  0  0
  4  6  1  0  0  0  0
  4  1  1  0  0  0  0
  5  4  1  0  0  0  0
  6  8  2  0  0  0  0
  7  6  1  0  0  0  0
  8  9  1  0  0  0  0
  8 10  1  0  0  0  0
 10 11  1  0  0  0  0
 12 10  2  0  0  0  0
 12 13  1  0  0  0  0
 13 15  1  0  0  0  0
 14 13  1  0  0  0  0
 16 19  1  0  0  0  0
 16  2  1  0  0  0  0
 17 16  1  0  0  0  0
 18 16  1  0  0  0  0
M  END
