3
 OpenBabel05122313063D

 57 59  0  0  1  0  0  0  0  0999 V2000
    0.8111    1.8036    1.3808 N   0  0  0  0  0  0  0  0  0  0  0  0
    0.0819    2.1921    0.2917 N   0  0  0  0  0  0  0  0  0  0  0  0
   -1.6819    0.7996   -1.4932 N   0  0  0  0  0  2  0  0  0  0  0  0
   -0.6316    1.5618   -1.8912 N   0  0  0  0  0  0  0  0  0  0  0  0
    3.1413    1.9429   -0.0383 O   0  0  0  0  0  0  0  0  0  0  0  0
    2.4340    2.0808    0.6573 H   0  0  0  0  0  0  0  0  0  0  0  0
   -1.7583    3.8321   -0.3493 C   0  0  0  0  0  0  0  0  0  0  0  0
   -2.5502    3.1171   -0.6515 H   0  0  0  0  0  0  0  0  0  0  0  0
   -1.2567    4.2061   -1.2642 H   0  0  0  0  0  0  0  0  0  0  0  0
   -2.2499    4.6870    0.1488 H   0  0  0  0  0  0  0  0  0  0  0  0
   -0.8125    3.1905    0.6090 C   0  0  0  0  0  0  0  0  0  0  0  0
   -0.6750    3.4043    1.9804 C   0  0  0  0  0  0  0  0  0  0  0  0
   -1.2863    4.0748    2.5917 H   0  0  0  0  0  0  0  0  0  0  0  0
    0.3281    2.5124    2.4230 C   0  0  0  0  0  0  0  0  0  0  0  0
    0.7662    2.2198    3.8187 C   0  0  0  0  0  0  0  0  0  0  0  0
    1.7310    1.6775    3.8344 H   0  0  0  0  0  0  0  0  0  0  0  0
   -0.0051    1.5815    4.2995 H   0  0  0  0  0  0  0  0  0  0  0  0
    0.8640    3.1455    4.4176 H   0  0  0  0  0  0  0  0  0  0  0  0
    0.1970    2.9132   -3.8493 C   0  0  0  0  0  0  0  0  0  0  0  0
    1.1704    2.3921   -3.9589 H   0  0  0  0  0  0  0  0  0  0  0  0
    0.3857    3.8638   -3.3063 H   0  0  0  0  0  0  0  0  0  0  0  0
   -0.1663    3.1725   -4.8602 H   0  0  0  0  0  0  0  0  0  0  0  0
   -0.8122    2.0594   -3.1571 C   0  0  1  0  0  3  0  0  0  0  0  0
   -2.0581    1.5959   -3.5734 C   0  0  0  0  0  0  0  0  0  0  0  0
   -2.5403    1.7989   -4.5349 H   0  0  0  0  0  0  0  0  0  0  0  0
   -2.5703    0.8135   -2.5060 C   0  0  0  0  0  0  0  0  0  0  0  0
   -3.8574    0.0601   -2.4456 C   0  0  0  0  0  0  0  0  0  0  0  0
   -4.1775   -0.1195   -1.4018 H   0  0  0  0  0  0  0  0  0  0  0  0
   -3.7489   -0.9266   -2.9408 H   0  0  0  0  0  0  0  0  0  0  0  0
   -4.6590    0.6173   -2.9666 H   0  0  0  0  0  0  0  0  0  0  0  0
    0.5313    1.7574   -1.0447 C   0  0  2  0  0  0  0  0  0  0  0  0
    1.0969    2.6044   -1.4909 H   0  0  0  0  0  0  0  0  0  0  0  0
    1.4671    0.5537   -1.0413 C   0  0  0  0  0  0  0  0  0  0  0  0
    1.0647   -0.6884   -1.5597 C   0  0  0  0  0  0  0  0  0  0  0  0
    0.0273   -0.8533   -1.8789 H   0  0  0  0  0  0  0  0  0  0  0  0
    1.9812   -1.7427   -1.6742 C   0  0  0  0  0  0  0  0  0  0  0  0
    1.5316   -3.1075   -2.1313 C   0  0  0  0  0  0  0  0  0  0  0  0
    0.4525   -3.1131   -2.3787 H   0  0  0  0  0  0  0  0  0  0  0  0
    1.6936   -3.8582   -1.3289 H   0  0  0  0  0  0  0  0  0  0  0  0
    2.1012   -3.4548   -3.0182 H   0  0  0  0  0  0  0  0  0  0  0  0
    3.3294   -1.4854   -1.3525 C   0  0  0  0  0  0  0  0  0  0  0  0
    4.0521   -2.3005   -1.4978 H   0  0  0  0  0  0  0  0  0  0  0  0
    3.7894   -0.2528   -0.8523 C   0  0  0  0  0  0  0  0  0  0  0  0
    5.2854    0.0183   -0.5941 C   0  0  0  0  0  0  0  0  0  0  0  0
    6.1618   -1.1799   -1.0013 C   0  0  0  0  0  0  0  0  0  0  0  0
    6.0522   -1.4296   -2.0759 H   0  0  0  0  0  0  0  0  0  0  0  0
    5.9290   -2.0879   -0.4089 H   0  0  0  0  0  0  0  0  0  0  0  0
    7.2276   -0.9328   -0.8229 H   0  0  0  0  0  0  0  0  0  0  0  0
    5.7230    1.2369   -1.4423 C   0  0  0  0  0  0  0  0  0  0  0  0
    5.5594    1.0410   -2.5217 H   0  0  0  0  0  0  0  0  0  0  0  0
    6.8041    1.4372   -1.2919 H   0  0  0  0  0  0  0  0  0  0  0  0
    5.1599    2.1461   -1.1615 H   0  0  0  0  0  0  0  0  0  0  0  0
    5.5446    0.3050    0.9024 C   0  0  0  0  0  0  0  0  0  0  0  0
    6.6127    0.5613    1.0602 H   0  0  0  0  0  0  0  0  0  0  0  0
    5.3194   -0.5895    1.5159 H   0  0  0  0  0  0  0  0  0  0  0  0
    4.9299    1.1501    1.2625 H   0  0  0  0  0  0  0  0  0  0  0  0
    2.8092    0.7533   -0.6320 C   0  0  0  0  0  0  0  0  0  0  0  0
  1 14  2  0  0  0  0
  2 11  1  0  0  0  0
  2  1  1  0  0  0  0
  4  3  1  0  0  0  0
  4 31  1  0  0  0  0
  5  6  1  0  0  0  0
  7 10  1  0  0  0  0
  7 11  1  0  0  0  0
  8  7  1  0  0  0  0
  9  7  1  0  0  0  0
 11 12  2  0  0  0  0
 12 14  1  0  0  0  0
 12 13  1  0  0  0  0
 14 15  1  0  0  0  0
 15 16  1  0  0  0  0
 15 17  1  0  0  0  0
 15 18  1  0  0  0  0
 19 21  1  0  0  0  0
 20 19  1  0  0  0  0
 22 19  1  0  0  0  0
 23 19  1  6  0  0  0
 23  4  1  0  0  0  0
 24 23  1  0  0  0  0
 24 26  2  0  0  0  0
 25 24  1  0  0  0  0
 26 27  1  0  0  0  0
 26  3  1  0  0  0  0
 27 28  1  0  0  0  0
 29 27  1  0  0  0  0
 30 27  1  0  0  0  0
 31 32  1  6  0  0  0
 31 33  1  0  0  0  0
 31  2  1  0  0  0  0
 33 57  1  0  0  0  0
 34 33  2  0  0  0  0
 35 34  1  0  0  0  0
 36 34  1  0  0  0  0
 36 41  2  0  0  0  0
 37 36  1  0  0  0  0
 37 39  1  0  0  0  0
 38 37  1  0  0  0  0
 40 37  1  0  0  0  0
 41 43  1  0  0  0  0
 42 41  1  0  0  0  0
 43 57  2  0  0  0  0
 43 44  1  0  0  0  0
 44 53  1  0  0  0  0
 45 48  1  0  0  0  0
 45 44  1  0  0  0  0
 45 47  1  0  0  0  0
 46 45  1  0  0  0  0
 49 51  1  0  0  0  0
 49 52  1  0  0  0  0
 49 44  1  0  0  0  0
 50 49  1  0  0  0  0
 53 54  1  0  0  0  0
 53 56  1  0  0  0  0
 53 55  1  0  0  0  0
 57  5  1  0  0  0  0
M  END
