1
 OpenBabel05122313063D

 41 42  0  0  1  0  0  0  0  0999 V2000
   -0.7284    1.8871   -0.2457 N   0  0  0  0  0  2  0  0  0  0  0  0
    0.2750    2.9404   -0.3799 C   0  0  0  0  0  0  0  0  0  0  0  0
   -0.2168    3.9118   -0.5943 H   0  0  0  0  0  0  0  0  0  0  0  0
    0.7985    3.0297    0.5969 H   0  0  0  0  0  0  0  0  0  0  0  0
    1.2966    2.6115   -1.4751 C   0  0  0  0  0  0  0  0  0  0  0  0
    1.7874    1.6458   -1.2236 H   0  0  0  0  0  0  0  0  0  0  0  0
    0.7592    2.4373   -2.4309 H   0  0  0  0  0  0  0  0  0  0  0  0
    2.3474    3.7095   -1.6277 C   0  0  0  0  0  0  0  0  0  0  0  0
    2.9082    3.8624   -0.6825 H   0  0  0  0  0  0  0  0  0  0  0  0
    3.0881    3.4444   -2.4077 H   0  0  0  0  0  0  0  0  0  0  0  0
    1.8893    4.6799   -1.9122 H   0  0  0  0  0  0  0  0  0  0  0  0
   -2.0186    2.1081   -0.2132 C   0  0  1  0  0  3  0  0  0  0  0  0
   -2.6259    3.4560   -0.0764 C   0  0  0  0  0  0  0  0  0  0  0  0
   -2.2501    4.2979    0.9897 C   0  0  0  0  0  0  0  0  0  0  0  0
   -1.5250    3.9357    1.7337 H   0  0  0  0  0  0  0  0  0  0  0  0
   -2.8254    5.5691    1.1129 C   0  0  0  0  0  0  0  0  0  0  0  0
   -2.5412    6.2179    1.9549 H   0  0  0  0  0  0  0  0  0  0  0  0
   -3.7667    6.0106    0.1690 C   0  0  0  0  0  0  0  0  0  0  0  0
   -4.2151    7.0109    0.2659 H   0  0  0  0  0  0  0  0  0  0  0  0
   -4.1414    5.1737   -0.8953 C   0  0  0  0  0  0  0  0  0  0  0  0
   -4.8810    5.5174   -1.6339 H   0  0  0  0  0  0  0  0  0  0  0  0
   -3.5817    3.8961   -1.0141 C   0  0  0  0  0  0  0  0  0  0  0  0
   -3.8782    3.2290   -1.8372 H   0  0  0  0  0  0  0  0  0  0  0  0
   -2.8506    1.0129   -0.3559 N   0  0  0  0  0  0  0  0  0  0  0  0
   -2.3822    0.2104   -0.8162 H   0  0  0  0  0  0  0  0  0  0  0  0
   -4.0964    0.8219    0.2588 C   0  0  0  0  0  0  0  0  0  0  0  0
   -4.6188    1.6705    0.9716 O   0  0  0  0  0  0  0  0  0  0  0  0
   -4.7126   -0.5228    0.0052 C   0  0  0  0  0  0  0  0  0  0  0  0
   -5.8578   -0.8470    0.7612 C   0  0  0  0  0  0  0  0  0  0  0  0
   -6.2346   -0.0951    1.4701 H   0  0  0  0  0  0  0  0  0  0  0  0
   -6.4839   -2.0872    0.6095 C   0  0  0  0  0  0  0  0  0  0  0  0
   -7.3743   -2.3250    1.2128 H   0  0  0  0  0  0  0  0  0  0  0  0
   -5.9944   -3.0429   -0.3066 C   0  0  0  0  0  0  0  0  0  0  0  0
   -4.8594   -2.7035   -1.0724 C   0  0  0  0  0  0  0  0  0  0  0  0
   -4.4651   -3.4253   -1.8052 H   0  0  0  0  0  0  0  0  0  0  0  0
   -4.2200   -1.4670   -0.9216 C   0  0  0  0  0  0  0  0  0  0  0  0
   -3.3327   -1.2608   -1.5422 H   0  0  0  0  0  0  0  0  0  0  0  0
   -6.6412   -4.3965   -0.4412 C   0  0  0  0  0  0  0  0  0  0  0  0
   -7.7041   -4.3765   -0.1307 H   0  0  0  0  0  0  0  0  0  0  0  0
   -6.5872   -4.7744   -1.4814 H   0  0  0  0  0  0  0  0  0  0  0  0
   -6.1255   -5.1426    0.2018 H   0  0  0  0  0  0  0  0  0  0  0  0
  2  1  1  0  0  0  0
  2  4  1  0  0  0  0
  3  2  1  0  0  0  0
  5  6  1  0  0  0  0
  5  2  1  0  0  0  0
  7  5  1  0  0  0  0
  8  5  1  0  0  0  0
  8  9  1  0  0  0  0
 10  8  1  0  0  0  0
 11  8  1  0  0  0  0
 12  1  1  6  0  0  0
 12 13  1  0  0  0  0
 13 14  1  0  0  0  0
 14 16  2  0  0  0  0
 14 15  1  0  0  0  0
 16 17  1  0  0  0  0
 18 19  1  0  0  0  0
 18 16  1  0  0  0  0
 20 18  2  0  0  0  0
 21 20  1  0  0  0  0
 22 20  1  0  0  0  0
 22 13  2  0  0  0  0
 23 22  1  0  0  0  0
 24 12  1  0  0  0  0
 24 26  1  0  0  0  0
 25 24  1  0  0  0  0
 26 27  2  0  0  0  0
 28 26  1  0  0  0  0
 28 29  1  0  0  0  0
 29 30  1  0  0  0  0
 31 29  2  0  0  0  0
 31 32  1  0  0  0  0
 33 31  1  0  0  0  0
 34 36  1  0  0  0  0
 34 33  2  0  0  0  0
 35 34  1  0  0  0  0
 36 28  2  0  0  0  0
 37 36  1  0  0  0  0
 38 33  1  0  0  0  0
 38 39  1  0  0  0  0
 38 41  1  0  0  0  0
 40 38  1  0  0  0  0
M  END
