1
 OpenBabel05122313063D

 16 16  0  0  0  0  0  0  0  0999 V2000
    1.6414   -0.2951   -0.0212 N   0  0  0  0  0  2  0  0  0  0  0  0
    1.9597    0.6362    2.1126 N   0  0  0  0  0  0  0  0  0  0  0  0
    2.6200    0.7294    2.8854 H   0  0  0  0  0  0  0  0  0  0  0  0
    1.0444    0.2068    2.3749 H   0  0  0  0  0  0  0  0  0  0  0  0
    2.1697   -0.7755   -1.1760 C   0  0  0  0  0  3  0  0  0  0  0  0
    1.4281   -1.1629   -1.8907 H   0  0  0  0  0  0  0  0  0  0  0  0
    3.5343   -0.8202   -1.4339 C   0  0  0  0  0  0  0  0  0  0  0  0
    3.8900   -1.2172   -2.3953 H   0  0  0  0  0  0  0  0  0  0  0  0
    4.4409   -0.3660   -0.4466 C   0  0  0  0  0  0  0  0  0  0  0  0
    3.8975    0.0980    0.7508 C   0  0  0  0  0  0  0  0  0  0  0  0
    4.5545    0.4437    1.5635 H   0  0  0  0  0  0  0  0  0  0  0  0
    2.4923    0.1288    0.9597 C   0  0  0  0  0  0  0  0  0  0  0  0
    5.9265   -0.4070   -0.6799 C   0  0  0  0  0  0  0  0  0  0  0  0
    6.2687   -1.4497   -0.8461 H   0  0  0  0  0  0  0  0  0  0  0  0
    6.4927    0.0086    0.1751 H   0  0  0  0  0  0  0  0  0  0  0  0
    6.2002    0.1660   -1.5898 H   0  0  0  0  0  0  0  0  0  0  0  0
  1 12  1  0  0  0  0
  2  4  1  0  0  0  0
  2  3  1  0  0  0  0
  5  1  1  0  0  0  0
  6  5  1  0  0  0  0
  7  5  1  0  0  0  0
  7  9  2  0  0  0  0
  8  7  1  0  0  0  0
  9 10  1  0  0  0  0
 10 12  2  0  0  0  0
 10 11  1  0  0  0  0
 12  2  1  0  0  0  0
 13  9  1  0  0  0  0
 13 15  1  0  0  0  0
 14 13  1  0  0  0  0
 16 13  1  0  0  0  0
M  END
