1
 OpenBabel05122313063D

  9  8  0  0  0  0  0  0  0  0999 V2000
    1.9939   -0.4635    1.1223 N   0  0  0  0  0  2  0  0  0  0  0  0
    1.7688   -1.2678    1.7280 H   0  0  0  0  0  0  0  0  0  0  0  0
    2.2404    0.8114    2.0723 S   0  0  0  0  0  0  0  0  0  0  0  0
    2.2594    0.4686    3.5037 O   0  0  0  0  0  0  0  0  0  0  0  0
    1.5153    2.0385    1.5944 O   0  0  0  0  0  0  0  0  0  0  0  0
    4.0169    1.3324    1.6793 C   0  0  0  0  0  0  0  0  0  0  0  0
    4.8761    0.3123    1.8503 F   0  0  0  0  0  0  0  0  0  0  0  0
    4.0982    1.7463    0.3880 F   0  0  0  0  0  0  0  0  0  0  0  0
    4.3880    2.3448    2.4688 F   0  0  0  0  0  0  0  0  0  0  0  0
  1  2  1  0  0  0  0
  1  3  1  0  0  0  0
  3  4  2  0  0  0  0
  5  3  2  0  0  0  0
  6  7  1  0  0  0  0
  6  3  1  0  0  0  0
  6  9  1  0  0  0  0
  8  6  1  0  0  0  0
M  END
