3
 OpenBabel05122313063D

 20 21  0  0  1  0  0  0  0  0999 V2000
    3.6456   -1.1147    0.5546 N   0  0  0  0  0  0  0  0  0  0  0  0
    4.4139   -1.6842    0.9081 H   0  0  0  0  0  0  0  0  0  0  0  0
    1.6226   -0.6017   -0.2089 N   0  0  0  0  0  2  0  0  0  0  0  0
    0.9026   -3.4474   -0.3620 N   0  0  0  0  0  0  0  0  0  0  0  0
    0.0054   -3.2374    0.0990 H   0  0  0  0  0  0  0  0  0  0  0  0
    0.9497   -4.4612   -0.5045 H   0  0  0  0  0  0  0  0  0  0  0  0
    3.6969    0.2399    0.2595 C   0  0  0  0  0  0  0  0  0  0  0  0
    4.7148    1.1985    0.3661 C   0  0  0  0  0  0  0  0  0  0  0  0
    5.7159    0.9409    0.7412 H   0  0  0  0  0  0  0  0  0  0  0  0
    4.3947    2.5049   -0.0257 C   0  0  0  0  0  0  0  0  0  0  0  0
    5.1628    3.2893    0.0418 H   0  0  0  0  0  0  0  0  0  0  0  0
    3.1040    2.8369   -0.5013 C   0  0  0  0  0  0  0  0  0  0  0  0
    2.8915    3.8763   -0.7921 H   0  0  0  0  0  0  0  0  0  0  0  0
    2.0904    1.8771   -0.6099 C   0  0  0  0  0  0  0  0  0  0  0  0
    1.0872    2.1459   -0.9656 H   0  0  0  0  0  0  0  0  0  0  0  0
    2.3979    0.5585   -0.2282 C   0  0  0  0  0  0  0  0  0  0  0  0
    2.3916   -1.5864    0.2601 C   0  0  2  0  0  3  0  0  0  0  0  0
    1.9831   -3.0146    0.5072 C   0  0  0  0  0  0  0  0  0  0  0  0
    2.8841   -3.6423    0.3349 H   0  0  0  0  0  0  0  0  0  0  0  0
    1.7494   -3.0947    1.5992 H   0  0  0  0  0  0  0  0  0  0  0  0
  1  2  1  0  0  0  0
  3 17  1  0  0  0  0
  4  5  1  0  0  0  0
  4 18  1  0  0  0  0
  6  4  1  0  0  0  0
  7  8  1  0  0  0  0
  7  1  1  0  0  0  0
  8  9  1  0  0  0  0
 10 11  1  0  0  0  0
 10  8  2  0  0  0  0
 12 10  1  0  0  0  0
 13 12  1  0  0  0  0
 14 12  2  0  0  0  0
 14 16  1  0  0  0  0
 15 14  1  0  0  0  0
 16  3  1  0  0  0  0
 16  7  2  0  0  0  0
 17 18  1  1  0  0  0
 17  1  1  0  0  0  0
 18 20  1  0  0  0  0
 19 18  1  0  0  0  0
M  END
