2
 OpenBabel05122313063D

 21 22  0  0  0  0  0  0  0  0999 V2000
   -3.4965   -0.6788   -0.5789 N   0  0  0  0  0  0  0  0  0  0  0  0
   -1.6827   -1.8998   -0.2519 N   0  0  0  0  0  2  0  0  0  0  0  0
   -7.3334    3.4609    0.0683 N   0  0  0  0  0  0  0  0  0  0  0  0
   -2.3512   -0.8355    0.1623 C   0  0  0  0  0  3  0  0  0  0  0  0
   -2.0218   -0.1857    0.9837 H   0  0  0  0  0  0  0  0  0  0  0  0
   -4.6918    0.8954    0.8621 C   0  0  0  0  0  0  0  0  0  0  0  0
   -4.1572    0.4985    1.7364 H   0  0  0  0  0  0  0  0  0  0  0  0
   -6.3318    2.3779   -0.1005 C   0  0  0  0  0  0  0  0  0  0  0  0
   -3.5315   -1.7201   -1.5091 C   0  0  0  0  0  0  0  0  0  0  0  0
   -4.3719   -1.8520   -2.1962 H   0  0  0  0  0  0  0  0  0  0  0  0
   -5.6283    1.9204    1.0208 C   0  0  0  0  0  0  0  0  0  0  0  0
   -5.8400    2.3660    2.0017 H   0  0  0  0  0  0  0  0  0  0  0  0
   -4.4579    0.3517   -0.4181 C   0  0  0  0  0  0  0  0  0  0  0  0
   -5.1714    0.8283   -1.5367 C   0  0  0  0  0  0  0  0  0  0  0  0
   -4.9664    0.4197   -2.5359 H   0  0  0  0  0  0  0  0  0  0  0  0
   -2.3996   -2.4735   -1.2808 C   0  0  0  0  0  0  0  0  0  0  0  0
   -2.0520   -3.4051   -1.7428 H   0  0  0  0  0  0  0  0  0  0  0  0
   -6.1193    1.8428   -1.3770 C   0  0  0  0  0  0  0  0  0  0  0  0
   -6.6925    2.2422   -2.2240 H   0  0  0  0  0  0  0  0  0  0  0  0
   -7.4863    3.9136    1.2014 O   0  0  0  0  0  0  0  0  0  0  0  0
   -7.9383    3.8289   -0.9376 O   0  0  0  0  0  0  0  0  0  0  0  0
  1 13  1  0  0  0  0
  1  4  1  0  0  0  0
  2  4  1  0  0  0  0
  3 20  2  0  0  0  0
  4  5  1  0  0  0  0
  6 11  1  0  0  0  0
  6  7  1  0  0  0  0
  8  3  1  0  0  0  0
  8 11  2  0  0  0  0
  9 16  2  0  0  0  0
  9  1  1  0  0  0  0
 10  9  1  0  0  0  0
 11 12  1  0  0  0  0
 13  6  2  0  0  0  0
 14 18  2  0  0  0  0
 14 13  1  0  0  0  0
 15 14  1  0  0  0  0
 16  2  1  0  0  0  0
 17 16  1  0  0  0  0
 18  8  1  0  0  0  0
 19 18  1  0  0  0  0
 21  3  2  0  0  0  0
M  END
