1
 OpenBabel05122313063D

 32 34  0  0  1  0  0  0  0  0999 V2000
   -2.0967    0.2762   -0.1454 N   0  0  0  0  0  2  0  0  0  0  0  0
   -2.6785   -0.9165    0.0503 N   0  0  0  0  0  0  0  0  0  0  0  0
   -2.0573   -1.7678    0.2408 H   0  0  0  0  0  0  0  0  0  0  0  0
   -3.0859    1.1814   -0.3583 C   0  0  2  0  0  3  0  0  0  0  0  0
   -4.3462    0.5250   -0.2864 C   0  0  0  0  0  0  0  0  0  0  0  0
   -4.0350   -0.8313   -0.0204 C   0  0  0  0  0  0  0  0  0  0  0  0
   -5.7007    1.1619   -0.3537 C   0  0  0  0  0  0  0  0  0  0  0  0
   -6.1456    1.1171   -1.3713 H   0  0  0  0  0  0  0  0  0  0  0  0
   -5.6455    2.2308   -0.0701 H   0  0  0  0  0  0  0  0  0  0  0  0
   -6.4105    0.6609    0.3338 H   0  0  0  0  0  0  0  0  0  0  0  0
   -2.7721    2.5971   -0.6168 C   0  0  0  0  0  0  0  0  0  0  0  0
   -1.6984    3.2354    0.0469 C   0  0  0  0  0  0  0  0  0  0  0  0
   -1.1257    2.6835    0.8082 H   0  0  0  0  0  0  0  0  0  0  0  0
   -1.3622    4.5640   -0.2423 C   0  0  0  0  0  0  0  0  0  0  0  0
   -0.5106    5.0302    0.2759 H   0  0  0  0  0  0  0  0  0  0  0  0
   -2.1086    5.2907   -1.1838 C   0  0  0  0  0  0  0  0  0  0  0  0
   -1.8479    6.3359   -1.4092 H   0  0  0  0  0  0  0  0  0  0  0  0
   -3.1875    4.6755   -1.8382 C   0  0  0  0  0  0  0  0  0  0  0  0
   -3.7721    5.2354   -2.5839 H   0  0  0  0  0  0  0  0  0  0  0  0
   -3.5140    3.3402   -1.5628 C   0  0  0  0  0  0  0  0  0  0  0  0
   -4.3331    2.8544   -2.1122 H   0  0  0  0  0  0  0  0  0  0  0  0
   -4.8872   -2.0070    0.2024 C   0  0  0  0  0  0  0  0  0  0  0  0
   -6.1749   -2.0909   -0.3765 C   0  0  0  0  0  0  0  0  0  0  0  0
   -6.5357   -1.2822   -1.0261 H   0  0  0  0  0  0  0  0  0  0  0  0
   -6.9836   -3.2147   -0.1603 C   0  0  0  0  0  0  0  0  0  0  0  0
   -7.9811   -3.2634   -0.6230 H   0  0  0  0  0  0  0  0  0  0  0  0
   -6.5209   -4.2783    0.6296 C   0  0  0  0  0  0  0  0  0  0  0  0
   -7.1564   -5.1610    0.7975 H   0  0  0  0  0  0  0  0  0  0  0  0
   -5.2384   -4.2118    1.1980 C   0  0  0  0  0  0  0  0  0  0  0  0
   -4.8625   -5.0429    1.8135 H   0  0  0  0  0  0  0  0  0  0  0  0
   -4.4275   -3.0892    0.9923 C   0  0  0  0  0  0  0  0  0  0  0  0
   -3.4272   -3.0566    1.4484 H   0  0  0  0  0  0  0  0  0  0  0  0
  1  2  1  0  0  0  0
  2  3  1  0  0  0  0
  4 11  1  6  0  0  0
  4  5  1  0  0  0  0
  4  1  1  0  0  0  0
  5  6  2  0  0  0  0
  6  2  1  0  0  0  0
  6 22  1  0  0  0  0
  7  5  1  0  0  0  0
  7  9  1  0  0  0  0
  7 10  1  0  0  0  0
  8  7  1  0  0  0  0
 11 12  1  0  0  0  0
 12 13  1  0  0  0  0
 14 12  2  0  0  0  0
 14 15  1  0  0  0  0
 16 14  1  0  0  0  0
 17 16  1  0  0  0  0
 18 20  1  0  0  0  0
 18 16  2  0  0  0  0
 19 18  1  0  0  0  0
 20 11  2  0  0  0  0
 21 20  1  0  0  0  0
 22 31  1  0  0  0  0
 23 25  1  0  0  0  0
 23 22  2  0  0  0  0
 24 23  1  0  0  0  0
 25 27  2  0  0  0  0
 26 25  1  0  0  0  0
 27 28  1  0  0  0  0
 27 29  1  0  0  0  0
 29 30  1  0  0  0  0
 31 29  2  0  0  0  0
 31 32  1  0  0  0  0
M  END
