1
 OpenBabel05122313063D

 16 16  0  0  0  0  0  0  0  0999 V2000
   -1.6222   -0.3093   -1.2571 N   0  0  0  0  0  2  0  0  0  0  0  0
   -2.9186   -0.7128   -0.8800 C   0  0  0  0  0  0  0  0  0  0  0  0
   -3.7144   -1.5474   -1.7050 C   0  0  0  0  0  0  0  0  0  0  0  0
   -3.3190   -1.8913   -2.6719 H   0  0  0  0  0  0  0  0  0  0  0  0
   -4.9894   -1.9574   -1.2919 C   0  0  0  0  0  0  0  0  0  0  0  0
   -5.5833   -2.6154   -1.9453 H   0  0  0  0  0  0  0  0  0  0  0  0
   -5.5106   -1.5399   -0.0563 C   0  0  0  0  0  0  0  0  0  0  0  0
   -6.5128   -1.8624    0.2628 H   0  0  0  0  0  0  0  0  0  0  0  0
   -4.7426   -0.6910    0.7574 C   0  0  0  0  0  0  0  0  0  0  0  0
   -5.1485   -0.3288    1.7147 H   0  0  0  0  0  0  0  0  0  0  0  0
   -3.4680   -0.2754    0.3505 C   0  0  0  0  0  0  0  0  0  0  0  0
   -2.8843    0.4275    0.9593 H   0  0  0  0  0  0  0  0  0  0  0  0
   -1.4882    0.1044   -2.6500 C   0  0  0  0  0  0  0  0  0  0  0  0
   -1.4518   -0.7475   -3.3696 H   0  0  0  0  0  0  0  0  0  0  0  0
   -0.5648    0.6972   -2.7861 H   0  0  0  0  0  0  0  0  0  0  0  0
   -2.3408    0.7548   -2.9415 H   0  0  0  0  0  0  0  0  0  0  0  0
  1  2  1  0  0  0  0
  2 11  1  0  0  0  0
  3  5  1  0  0  0  0
  3  2  2  0  0  0  0
  4  3  1  0  0  0  0
  5  7  2  0  0  0  0
  6  5  1  0  0  0  0
  7  8  1  0  0  0  0
  7  9  1  0  0  0  0
  9 10  1  0  0  0  0
 11  9  2  0  0  0  0
 11 12  1  0  0  0  0
 13  1  1  0  0  0  0
 14 13  1  0  0  0  0
 15 13  1  0  0  0  0
 16 13  1  0  0  0  0
M  END
