3
 OpenBabel05122313063D

 17 18  0  0  0  0  0  0  0  0999 V2000
   -0.0582   -3.9350    1.5033 P   0  0  0  0  0  0  0  0  0  0  0  0
   -4.3563    0.3952   -0.2633 P   0  0  0  0  0  0  0  0  0  0  0  0
    0.1050   -1.5648    0.3626 N   0  0  0  0  0  2  0  0  0  0  0  0
   -2.2738   -0.7499   -1.2780 N   0  0  0  0  0  0  0  0  0  0  0  0
   -0.6541   -2.3316   -0.4491 N   0  0  0  0  0  0  0  0  0  0  0  0
   -2.0743    0.5362   -1.6327 N   0  0  0  0  0  0  0  0  0  0  0  0
    0.4997   -2.2479    1.4331 C   0  0  0  0  0  3  0  0  0  0  0  0
    1.1505   -1.7065    2.1356 H   0  0  0  0  0  0  0  0  0  0  0  0
   -3.0884    1.2626   -1.1817 C   0  0  0  0  0  0  0  0  0  0  0  0
   -3.0675    2.3425   -1.3902 H   0  0  0  0  0  0  0  0  0  0  0  0
   -1.2364   -1.7081   -1.6316 C   0  0  0  0  0  0  0  0  0  0  0  0
   -1.6522   -2.5212   -2.2574 H   0  0  0  0  0  0  0  0  0  0  0  0
   -0.4456   -1.1534   -2.1729 H   0  0  0  0  0  0  0  0  0  0  0  0
   -3.3963   -1.0281   -0.5576 C   0  0  0  0  0  0  0  0  0  0  0  0
   -3.5692   -2.0633   -0.2329 H   0  0  0  0  0  0  0  0  0  0  0  0
   -0.8552   -3.6040   -0.0154 C   0  0  0  0  0  0  0  0  0  0  0  0
   -1.4648   -4.2705   -0.6399 H   0  0  0  0  0  0  0  0  0  0  0  0
  3  7  1  0  0  0  0
  4 14  1  0  0  0  0
  5 16  1  0  0  0  0
  5  3  1  0  0  0  0
  6  4  1  0  0  0  0
  6  9  2  0  0  0  0
  7  1  1  0  0  0  0
  7  8  1  0  0  0  0
  9  2  1  0  0  0  0
 10  9  1  0  0  0  0
 11  4  1  0  0  0  0
 11  5  1  0  0  0  0
 12 11  1  0  0  0  0
 13 11  1  0  0  0  0
 14  2  2  0  0  0  0
 14 15  1  0  0  0  0
 16  1  2  0  0  0  0
 17 16  1  0  0  0  0
M  END
