7
 OpenBabel05122313063D

 25 25  0  0  0  0  0  0  0  0999 V2000
   -0.3342    4.1549    0.1060 O   0  0  0  0  0  0  0  0  0  0  0  0
   -0.0216    4.5107    0.9666 H   0  0  0  0  0  0  0  0  0  0  0  0
   -1.7700    3.1498    1.5406 O   0  0  0  0  0  0  0  0  0  0  0  0
   -3.9473    1.2021   -0.5286 N   0  0  0  0  0  0  0  0  0  0  0  0
   -4.0271   -0.0819   -0.1771 N   0  0  0  0  0  0  0  0  0  0  0  0
   -2.8646   -0.6696    0.0322 N   0  0  0  0  0  2  0  0  0  0  0  0
   -1.9723    0.2756   -0.1958 N   0  0  0  0  0  2  0  0  0  0  0  0
   -5.3374   -0.7731    0.0084 C   0  0  0  0  0  0  0  0  0  0  0  0
   -6.0748   -0.0390    1.1401 C   0  0  0  0  0  0  0  0  0  0  0  0
   -5.5000   -0.0984    2.0851 H   0  0  0  0  0  0  0  0  0  0  0  0
   -7.0648   -0.5084    1.3006 H   0  0  0  0  0  0  0  0  0  0  0  0
   -6.2235    1.0273    0.8841 H   0  0  0  0  0  0  0  0  0  0  0  0
   -5.0630   -2.2326    0.3800 C   0  0  0  0  0  0  0  0  0  0  0  0
   -4.5017   -2.7550   -0.4176 H   0  0  0  0  0  0  0  0  0  0  0  0
   -6.0342   -2.7443    0.5230 H   0  0  0  0  0  0  0  0  0  0  0  0
   -4.4776   -2.3097    1.3152 H   0  0  0  0  0  0  0  0  0  0  0  0
   -6.1021   -0.6657   -1.3197 C   0  0  0  0  0  0  0  0  0  0  0  0
   -6.2457    0.3936   -1.6055 H   0  0  0  0  0  0  0  0  0  0  0  0
   -7.0957   -1.1421   -1.2115 H   0  0  0  0  0  0  0  0  0  0  0  0
   -5.5541   -1.1812   -2.1330 H   0  0  0  0  0  0  0  0  0  0  0  0
   -2.6340    1.4257   -0.5404 C   0  0  0  0  0  0  0  0  0  0  0  0
   -1.9561    2.7104   -0.8480 C   0  0  0  0  0  0  0  0  0  0  0  0
   -2.6953    3.4179   -1.2736 H   0  0  0  0  0  0  0  0  0  0  0  0
   -1.1537    2.5301   -1.5950 H   0  0  0  0  0  0  0  0  0  0  0  0
   -1.3637    3.3334    0.4119 C   0  0  0  0  0  0  0  0  0  0  0  0
  1 25  1  0  0  0  0
  1  2  1  0  0  0  0
  4  5  1  0  0  0  0
  5  8  1  0  0  0  0
  5  6  1  0  0  0  0
  7  6  1  0  0  0  0
  8 13  1  0  0  0  0
  8  9  1  0  0  0  0
  9 11  1  0  0  0  0
  9 10  1  0  0  0  0
 12  9  1  0  0  0  0
 13 15  1  0  0  0  0
 13 16  1  0  0  0  0
 14 13  1  0  0  0  0
 17 19  1  0  0  0  0
 17  8  1  0  0  0  0
 18 17  1  0  0  0  0
 20 17  1  0  0  0  0
 21  4  2  0  0  0  0
 21  7  1  0  0  0  0
 22 21  1  0  0  0  0
 22 25  1  0  0  0  0
 23 22  1  0  0  0  0
 24 22  1  0  0  0  0
 25  3  2  0  0  0  0
M  END
