2
 OpenBabel05122313063D

 39 42  0  0  1  0  0  0  0  0999 V2000
    2.5783   -0.2729   -1.2242 N   0  0  0  0  0  0  0  0  0  0  0  0
   -0.5504    1.0253   -0.1125 N   0  0  0  0  0  2  0  0  0  0  0  0
    1.2535    2.3461   -0.2823 N   0  0  0  0  0  0  0  0  0  0  0  0
    1.6702   -0.1604   -0.0742 C   0  0  0  0  0  0  0  0  0  0  0  0
    0.9596   -1.0390   -0.0008 H   0  0  0  0  0  0  0  0  0  0  0  0
    0.7837    1.0576   -0.1643 C   0  0  1  0  0  3  0  0  0  0  0  0
   -0.9882    2.3404   -0.1858 C   0  0  0  0  0  0  0  0  0  0  0  0
    3.8232   -0.7205   -0.7588 C   0  0  0  0  0  0  0  0  0  0  0  0
    2.5904   -0.1026    1.0650 N   0  0  0  0  0  0  0  0  0  0  0  0
    0.1493    3.1889   -0.2933 C   0  0  0  0  0  0  0  0  0  0  0  0
    4.9413   -1.1919   -1.4473 C   0  0  0  0  0  0  0  0  0  0  0  0
    4.9325   -1.3056   -2.5409 H   0  0  0  0  0  0  0  0  0  0  0  0
    2.6450    2.7666   -0.3024 C   0  0  0  0  0  0  0  0  0  0  0  0
    2.7254    3.7128   -0.8700 H   0  0  0  0  0  0  0  0  0  0  0  0
    3.2533    1.9920   -0.8008 H   0  0  0  0  0  0  0  0  0  0  0  0
    3.0283    2.9202    0.7262 H   0  0  0  0  0  0  0  0  0  0  0  0
    6.0889   -1.5374   -0.6933 C   0  0  0  0  0  0  0  0  0  0  0  0
    6.9804   -1.9142   -1.2160 H   0  0  0  0  0  0  0  0  0  0  0  0
    3.8281   -0.6012    0.6554 C   0  0  0  0  0  0  0  0  0  0  0  0
    2.0807   -0.3195    2.4040 C   0  0  0  0  0  0  0  0  0  0  0  0
    2.7423    0.1729    3.1446 H   0  0  0  0  0  0  0  0  0  0  0  0
    2.0170   -1.4047    2.6552 H   0  0  0  0  0  0  0  0  0  0  0  0
    1.0607    0.1047    2.5014 H   0  0  0  0  0  0  0  0  0  0  0  0
    6.0938   -1.4227    0.7022 C   0  0  0  0  0  0  0  0  0  0  0  0
    6.9903   -1.7104    1.2713 H   0  0  0  0  0  0  0  0  0  0  0  0
   -2.2872    2.8778   -0.1483 C   0  0  0  0  0  0  0  0  0  0  0  0
   -3.1555    2.2130   -0.0359 H   0  0  0  0  0  0  0  0  0  0  0  0
   -2.4109    4.2678   -0.2356 C   0  0  0  0  0  0  0  0  0  0  0  0
   -3.4111    4.7245   -0.2048 H   0  0  0  0  0  0  0  0  0  0  0  0
    4.9542   -0.9579    1.4006 C   0  0  0  0  0  0  0  0  0  0  0  0
    4.9515   -0.8901    2.4975 H   0  0  0  0  0  0  0  0  0  0  0  0
   -1.2737    5.1063   -0.3506 C   0  0  0  0  0  0  0  0  0  0  0  0
   -1.4148    6.1958   -0.4109 H   0  0  0  0  0  0  0  0  0  0  0  0
    0.0260    4.5860   -0.3769 C   0  0  0  0  0  0  0  0  0  0  0  0
    0.9030    5.2447   -0.4488 H   0  0  0  0  0  0  0  0  0  0  0  0
    2.0429   -0.6609   -2.5053 C   0  0  0  0  0  0  0  0  0  0  0  0
    2.8081   -0.5091   -3.2909 H   0  0  0  0  0  0  0  0  0  0  0  0
    1.1733   -0.0222   -2.7595 H   0  0  0  0  0  0  0  0  0  0  0  0
    1.7146   -1.7288   -2.5360 H   0  0  0  0  0  0  0  0  0  0  0  0
  1  8  1  0  0  0  0
  1  4  1  0  0  0  0
  3  6  1  0  0  0  0
  4  5  1  0  0  0  0
  4  9  1  0  0  0  0
  6  2  1  0  0  0  0
  6  4  1  1  0  0  0
  7 26  1  0  0  0  0
  7  2  1  0  0  0  0
  8 19  1  0  0  0  0
  9 20  1  0  0  0  0
 10  3  1  0  0  0  0
 10  7  2  0  0  0  0
 11  8  2  0  0  0  0
 11 17  1  0  0  0  0
 12 11  1  0  0  0  0
 13  3  1  0  0  0  0
 13 16  1  0  0  0  0
 14 13  1  0  0  0  0
 15 13  1  0  0  0  0
 17 24  2  0  0  0  0
 18 17  1  0  0  0  0
 19  9  1  0  0  0  0
 19 30  2  0  0  0  0
 20 23  1  0  0  0  0
 20 22  1  0  0  0  0
 20 21  1  0  0  0  0
 24 25  1  0  0  0  0
 24 30  1  0  0  0  0
 26 27  1  0  0  0  0
 28 29  1  0  0  0  0
 28 26  2  0  0  0  0
 30 31  1  0  0  0  0
 32 28  1  0  0  0  0
 33 32  1  0  0  0  0
 34 32  2  0  0  0  0
 34 10  1  0  0  0  0
 35 34  1  0  0  0  0
 36  1  1  0  0  0  0
 37 36  1  0  0  0  0
 38 36  1  0  0  0  0
 39 36  1  0  0  0  0
M  END
