1
 OpenBabel05122313063D

 35 37  0  0  0  0  0  0  0  0999 V2000
    0.2934   -0.7374   -0.1450 N   0  0  0  0  0  0  0  0  0  0  0  0
    4.3141   -1.6082    0.2539 F   0  0  0  0  0  0  0  0  0  0  0  0
    6.9369   -1.0955    0.1834 F   0  0  0  0  0  0  0  0  0  0  0  0
    7.8624    1.4489   -0.2897 F   0  0  0  0  0  0  0  0  0  0  0  0
    6.0612    3.4830   -0.6988 F   0  0  0  0  0  0  0  0  0  0  0  0
    3.4295    3.0116   -0.6543 F   0  0  0  0  0  0  0  0  0  0  0  0
   -3.1794    5.2864   -0.1372 F   0  0  0  0  0  0  0  0  0  0  0  0
   -4.3897    4.4829    1.4869 F   0  0  0  0  0  0  0  0  0  0  0  0
   -2.2446    4.7947    1.7709 F   0  0  0  0  0  0  0  0  0  0  0  0
   -5.9685    0.8071   -1.4399 F   0  0  0  0  0  0  0  0  0  0  0  0
   -4.4927   -0.5137   -2.3650 F   0  0  0  0  0  0  0  0  0  0  0  0
   -5.1501   -0.8775   -0.3180 F   0  0  0  0  0  0  0  0  0  0  0  0
    0.0108    0.6292   -0.0674 C   0  0  0  0  0  3  0  0  0  0  0  0
    1.2095    1.3507   -0.0616 C   0  0  0  0  0  0  0  0  0  0  0  0
    1.2991    2.4398   -0.0399 H   0  0  0  0  0  0  0  0  0  0  0  0
    2.2833    0.4072   -0.1543 C   0  0  0  0  0  0  0  0  0  0  0  0
   -3.1808    4.3906    0.8810 C   0  0  0  0  0  0  0  0  0  0  0  0
    1.6615   -0.8572   -0.2020 C   0  0  0  0  0  0  0  0  0  0  0  0
    2.1314   -1.8387   -0.2948 H   0  0  0  0  0  0  0  0  0  0  0  0
   -4.8376    0.1098   -1.2063 C   0  0  0  0  0  0  0  0  0  0  0  0
   -1.3453    1.1699   -0.0950 C   0  0  0  0  0  0  0  0  0  0  0  0
   -1.6246    2.4600    0.4215 C   0  0  0  0  0  0  0  0  0  0  0  0
   -0.8186    3.0460    0.8839 H   0  0  0  0  0  0  0  0  0  0  0  0
   -2.9183    2.9895    0.3767 C   0  0  0  0  0  0  0  0  0  0  0  0
   -3.9850    2.2479   -0.1643 C   0  0  0  0  0  0  0  0  0  0  0  0
   -5.0036    2.6568   -0.1781 H   0  0  0  0  0  0  0  0  0  0  0  0
   -3.7183    0.9734   -0.6805 C   0  0  0  0  0  0  0  0  0  0  0  0
   -2.4177    0.4460   -0.6625 C   0  0  0  0  0  0  0  0  0  0  0  0
   -2.2335   -0.5474   -1.0985 H   0  0  0  0  0  0  0  0  0  0  0  0
    3.7238    0.6761   -0.1950 C   0  0  0  0  0  0  0  0  0  0  0  0
    4.6927   -0.3379    0.0094 C   0  0  0  0  0  0  0  0  0  0  0  0
    6.0734   -0.0946   -0.0207 C   0  0  0  0  0  0  0  0  0  0  0  0
    6.5500    1.2042   -0.2591 C   0  0  0  0  0  0  0  0  0  0  0  0
    5.6264    2.2407   -0.4649 C   0  0  0  0  0  0  0  0  0  0  0  0
    4.2495    1.9703   -0.4354 C   0  0  0  0  0  0  0  0  0  0  0  0
  1 13  1  0  0  0  0
  4 33  1  0  0  0  0
  5 34  1  0  0  0  0
  6 35  1  0  0  0  0
  7 17  1  0  0  0  0
 10 20  1  0  0  0  0
 11 20  1  0  0  0  0
 13 14  1  0  0  0  0
 14 15  1  0  0  0  0
 16 14  2  0  0  0  0
 17  8  1  0  0  0  0
 17  9  1  0  0  0  0
 18 16  1  0  0  0  0
 18  1  2  0  0  0  0
 19 18  1  0  0  0  0
 20 27  1  0  0  0  0
 20 12  1  0  0  0  0
 21 13  1  0  0  0  0
 21 22  1  0  0  0  0
 22 23  1  0  0  0  0
 24 22  2  0  0  0  0
 24 17  1  0  0  0  0
 25 24  1  0  0  0  0
 26 25  1  0  0  0  0
 27 28  1  0  0  0  0
 27 25  2  0  0  0  0
 28 21  2  0  0  0  0
 29 28  1  0  0  0  0
 30 16  1  0  0  0  0
 30 31  1  0  0  0  0
 31  2  1  0  0  0  0
 32 31  2  0  0  0  0
 32  3  1  0  0  0  0
 33 32  1  0  0  0  0
 34 35  1  0  0  0  0
 34 33  2  0  0  0  0
 35 30  2  0  0  0  0
M  END
