4
 OpenBabel05122313063D

 19 19  0  0  0  0  0  0  0  0999 V2000
    3.8395    0.5318   -3.5820 N   0  0  0  0  0  0  0  0  0  0  0  0
    4.1118    0.7232   -4.5479 H   0  0  0  0  0  0  0  0  0  0  0  0
    4.7658   -0.2626   -1.5973 O   0  0  0  0  0  0  0  0  0  0  0  0
    0.7229    0.8507   -1.6243 N   0  0  0  0  0  2  0  0  0  0  0  0
    2.0103    0.6001   -1.9240 C   0  0  0  0  0  3  0  0  0  0  0  0
    2.6515    0.2532   -1.1015 H   0  0  0  0  0  0  0  0  0  0  0  0
    4.8530    0.0466   -2.7707 C   0  0  0  0  0  0  0  0  0  0  0  0
    1.6143    1.2333   -4.2264 C   0  0  0  0  0  0  0  0  0  0  0  0
    1.9679    1.3872   -5.2588 H   0  0  0  0  0  0  0  0  0  0  0  0
   -0.1390    1.2820   -2.5666 C   0  0  0  0  0  0  0  0  0  0  0  0
   -1.1727    1.4632   -2.2244 H   0  0  0  0  0  0  0  0  0  0  0  0
    5.9906   -0.0331   -3.5160 O   0  0  0  0  0  0  0  0  0  0  0  0
    2.5102    0.7790   -3.2342 C   0  0  0  0  0  0  0  0  0  0  0  0
    0.2824    1.4857   -3.8870 C   0  0  0  0  0  0  0  0  0  0  0  0
   -0.4309    1.8416   -4.6441 H   0  0  0  0  0  0  0  0  0  0  0  0
    7.1345   -0.5196   -2.8070 C   0  0  0  0  0  0  0  0  0  0  0  0
    7.9641   -0.5237   -3.5360 H   0  0  0  0  0  0  0  0  0  0  0  0
    6.9566   -1.5437   -2.4209 H   0  0  0  0  0  0  0  0  0  0  0  0
    7.3792    0.1389   -1.9492 H   0  0  0  0  0  0  0  0  0  0  0  0
  1 13  1  0  0  0  0
  1  7  1  0  0  0  0
  2  1  1  0  0  0  0
  5  4  1  0  0  0  0
  5  6  1  0  0  0  0
  7  3  2  0  0  0  0
  8 14  1  0  0  0  0
  8 13  2  0  0  0  0
  9  8  1  0  0  0  0
 10 11  1  0  0  0  0
 10  4  1  0  0  0  0
 12 16  1  0  0  0  0
 12  7  1  0  0  0  0
 13  5  1  0  0  0  0
 14 10  2  0  0  0  0
 15 14  1  0  0  0  0
 16 18  1  0  0  0  0
 16 19  1  0  0  0  0
 17 16  1  0  0  0  0
M  END
