2
 OpenBabel05122313063D

 17 18  0  0  0  0  0  0  0  0999 V2000
    1.6801    0.5829   -0.1602 N   0  0  0  0  0  0  0  0  0  0  0  0
    1.9808   -0.7103    0.0515 N   0  0  0  0  0  2  0  0  0  0  0  0
    3.2326   -0.8967    0.3503 N   0  0  0  0  0  2  0  0  0  0  0  0
    3.7720    0.3301    0.3320 N   0  0  0  0  0  0  0  0  0  0  0  0
    4.7730    0.4395    0.5072 H   0  0  0  0  0  0  0  0  0  0  0  0
    2.8173    1.2550    0.0182 C   0  0  0  0  0  0  0  0  0  0  0  0
    2.9941    2.6996   -0.1151 C   0  0  0  0  0  0  0  0  0  0  0  0
    4.1779    3.3496    0.2955 C   0  0  0  0  0  0  0  0  0  0  0  0
    5.0031    2.7797    0.7501 H   0  0  0  0  0  0  0  0  0  0  0  0
    4.3069    4.7362    0.1441 C   0  0  0  0  0  0  0  0  0  0  0  0
    5.2317    5.2363    0.4675 H   0  0  0  0  0  0  0  0  0  0  0  0
    3.2577    5.4844   -0.4135 C   0  0  0  0  0  0  0  0  0  0  0  0
    3.3624    6.5732   -0.5325 H   0  0  0  0  0  0  0  0  0  0  0  0
    2.0757    4.8417   -0.8198 C   0  0  0  0  0  0  0  0  0  0  0  0
    1.2545    5.4260   -1.2609 H   0  0  0  0  0  0  0  0  0  0  0  0
    1.9400    3.4570   -0.6735 C   0  0  0  0  0  0  0  0  0  0  0  0
    1.0285    2.9321   -0.9941 H   0  0  0  0  0  0  0  0  0  0  0  0
  1  6  2  0  0  0  0
  1  2  1  0  0  0  0
  2  3  1  0  0  0  0
  4  3  1  0  0  0  0
  4  5  1  0  0  0  0
  6  4  1  0  0  0  0
  7  6  1  0  0  0  0
  7  8  1  0  0  0  0
  8  9  1  0  0  0  0
 10  8  2  0  0  0  0
 10 11  1  0  0  0  0
 12 10  1  0  0  0  0
 13 12  1  0  0  0  0
 14 16  1  0  0  0  0
 14 12  2  0  0  0  0
 15 14  1  0  0  0  0
 16  7  2  0  0  0  0
 17 16  1  0  0  0  0
M  END
