2
 OpenBabel05122313063D

 36 38  0  0  0  0  0  0  0  0999 V2000
   -2.0561    0.8306    0.1355 Si  0  0  0  0  0  0  0  0  0  0  0  0
   -0.3402    0.7232   -0.2444 N   0  0  0  0  0  2  0  0  0  0  0  0
   -0.0455    1.6920   -0.4440 H   0  0  0  0  0  0  0  0  0  0  0  0
   -2.4318    0.1338    1.8514 C   0  0  0  0  0  0  0  0  0  0  0  0
   -1.4890    0.3914    2.8746 C   0  0  0  0  0  0  0  0  0  0  0  0
   -0.5377    0.8856    2.6217 H   0  0  0  0  0  0  0  0  0  0  0  0
   -1.7377    0.0096    4.2019 C   0  0  0  0  0  0  0  0  0  0  0  0
   -0.9884    0.2199    4.9809 H   0  0  0  0  0  0  0  0  0  0  0  0
   -2.9296   -0.6537    4.5313 C   0  0  0  0  0  0  0  0  0  0  0  0
   -3.1240   -0.9611    5.5706 H   0  0  0  0  0  0  0  0  0  0  0  0
   -3.8697   -0.9329    3.5264 C   0  0  0  0  0  0  0  0  0  0  0  0
   -4.8027   -1.4623    3.7763 H   0  0  0  0  0  0  0  0  0  0  0  0
   -3.6229   -0.5377    2.2022 C   0  0  0  0  0  0  0  0  0  0  0  0
   -4.3671   -0.7756    1.4275 H   0  0  0  0  0  0  0  0  0  0  0  0
   -2.3801    2.7091    0.1876 C   0  0  0  0  0  0  0  0  0  0  0  0
   -2.4122    3.4410    1.3952 C   0  0  0  0  0  0  0  0  0  0  0  0
   -2.3327    2.9079    2.3560 H   0  0  0  0  0  0  0  0  0  0  0  0
   -2.5453    4.8394    1.3926 C   0  0  0  0  0  0  0  0  0  0  0  0
   -2.5745    5.3895    2.3465 H   0  0  0  0  0  0  0  0  0  0  0  0
   -2.6498    5.5346    0.1770 C   0  0  0  0  0  0  0  0  0  0  0  0
   -2.7605    6.6304    0.1736 H   0  0  0  0  0  0  0  0  0  0  0  0
   -2.6225    4.8242   -1.0344 C   0  0  0  0  0  0  0  0  0  0  0  0
   -2.7107    5.3621   -1.9915 H   0  0  0  0  0  0  0  0  0  0  0  0
   -2.4926    3.4265   -1.0258 C   0  0  0  0  0  0  0  0  0  0  0  0
   -2.4837    2.8797   -1.9832 H   0  0  0  0  0  0  0  0  0  0  0  0
   -3.1012    0.1345   -1.2810 C   0  0  0  0  0  0  0  0  0  0  0  0
   -5.2309   -0.4626   -2.3413 C   0  0  0  0  0  0  0  0  0  0  0  0
   -6.3244   -0.5763   -2.2761 H   0  0  0  0  0  0  0  0  0  0  0  0
   -4.5642   -0.7538   -3.5436 C   0  0  0  0  0  0  0  0  0  0  0  0
   -5.1336   -1.1009   -4.4200 H   0  0  0  0  0  0  0  0  0  0  0  0
   -4.5063   -0.0117   -1.2271 C   0  0  0  0  0  0  0  0  0  0  0  0
   -5.0540    0.2474   -0.3072 H   0  0  0  0  0  0  0  0  0  0  0  0
   -3.1729   -0.5888   -3.6245 C   0  0  0  0  0  0  0  0  0  0  0  0
   -2.6406   -0.8147   -4.5615 H   0  0  0  0  0  0  0  0  0  0  0  0
   -2.4514   -0.1529   -2.5016 C   0  0  0  0  0  0  0  0  0  0  0  0
   -1.3566   -0.0447   -2.5591 H   0  0  0  0  0  0  0  0  0  0  0  0
  1 15  1  0  0  0  0
  1  4  1  0  0  0  0
  2  1  1  0  0  0  0
  3  2  1  0  0  0  0
  4 13  2  0  0  0  0
  4  5  1  0  0  0  0
  5  7  2  0  0  0  0
  6  5  1  0  0  0  0
  7  9  1  0  0  0  0
  7  8  1  0  0  0  0
  9 10  1  0  0  0  0
 11 12  1  0  0  0  0
 11  9  2  0  0  0  0
 13 11  1  0  0  0  0
 14 13  1  0  0  0  0
 15 16  1  0  0  0  0
 16 17  1  0  0  0  0
 18 16  2  0  0  0  0
 18 19  1  0  0  0  0
 20 18  1  0  0  0  0
 21 20  1  0  0  0  0
 22 24  1  0  0  0  0
 22 20  2  0  0  0  0
 23 22  1  0  0  0  0
 24 15  2  0  0  0  0
 25 24  1  0  0  0  0
 26 31  1  0  0  0  0
 26  1  1  0  0  0  0
 27 28  1  0  0  0  0
 27 31  2  0  0  0  0
 29 27  1  0  0  0  0
 30 29  1  0  0  0  0
 31 32  1  0  0  0  0
 33 29  2  0  0  0  0
 33 35  1  0  0  0  0
 34 33  1  0  0  0  0
 35 26  2  0  0  0  0
 36 35  1  0  0  0  0
M  END
