18
 OpenBabel05122313063D

 21 22  0  0  1  0  0  0  0  0999 V2000
   -1.0380   -2.7988   -0.6424 C   0  0  1  0  0  3  0  0  0  0  0  0
    0.2907   -3.3675   -0.9888 C   0  0  0  0  0  0  0  0  0  0  0  0
    1.0768   -2.9664   -0.3177 H   0  0  0  0  0  0  0  0  0  0  0  0
    0.5718   -3.0953   -2.0270 H   0  0  0  0  0  0  0  0  0  0  0  0
    0.2882   -4.4704   -0.9105 H   0  0  0  0  0  0  0  0  0  0  0  0
   -2.7077   -1.4831   -0.1695 C   0  0  0  0  0  0  0  0  0  0  0  0
   -3.4784   -0.2680    0.1259 C   0  0  0  0  0  0  0  0  0  0  0  0
   -4.6156   -0.3508    0.9581 C   0  0  0  0  0  0  0  0  0  0  0  0
   -4.9049   -1.3269    1.3733 H   0  0  0  0  0  0  0  0  0  0  0  0
   -5.3543    0.8013    1.2551 C   0  0  0  0  0  0  0  0  0  0  0  0
   -6.2352    0.7293    1.9098 H   0  0  0  0  0  0  0  0  0  0  0  0
   -4.9728    2.0445    0.7242 C   0  0  0  0  0  0  0  0  0  0  0  0
   -5.5565    2.9468    0.9594 H   0  0  0  0  0  0  0  0  0  0  0  0
   -3.8541    2.1310   -0.1204 C   0  0  0  0  0  0  0  0  0  0  0  0
   -3.5745    3.0977   -0.5662 H   0  0  0  0  0  0  0  0  0  0  0  0
   -3.1121    0.9811   -0.4224 C   0  0  0  0  0  0  0  0  0  0  0  0
   -2.2684    1.0441   -1.1297 H   0  0  0  0  0  0  0  0  0  0  0  0
   -1.3474   -1.5042   -0.4401 N   0  0  0  0  0  2  0  0  0  0  0  0
   -2.1841   -3.4972   -0.4836 N   0  0  0  0  0  0  0  0  0  0  0  0
   -2.3163   -4.5085   -0.5717 H   0  0  0  0  0  0  0  0  0  0  0  0
   -3.2369   -2.7059   -0.1903 N   0  0  0  0  0  0  0  0  0  0  0  0
  1  2  1  6  0  0  0
  1 19  1  0  0  0  0
  1 18  1  0  0  0  0
  2  5  1  0  0  0  0
  2  3  1  0  0  0  0
  4  2  1  0  0  0  0
  6  7  1  0  0  0  0
  7  8  1  0  0  0  0
  8 10  2  0  0  0  0
  8  9  1  0  0  0  0
 10 11  1  0  0  0  0
 12 13  1  0  0  0  0
 12 10  1  0  0  0  0
 14 12  2  0  0  0  0
 15 14  1  0  0  0  0
 16 14  1  0  0  0  0
 16  7  2  0  0  0  0
 17 16  1  0  0  0  0
 18  6  1  0  0  0  0
 19 21  1  0  0  0  0
 20 19  1  0  0  0  0
 21  6  2  0  0  0  0
M  END
