3
 OpenBabel05122313063D

 35 36  0  0  0  0  0  0  0  0999 V2000
   -1.6975    1.2457    0.1339 S   0  0  0  0  0  0  0  0  0  0  0  0
    7.2126    0.7201   -0.4583 O   0  0  0  0  0  0  0  0  0  0  0  0
    0.8149   -0.2892    0.4075 N   0  0  0  0  0  2  0  0  0  0  0  0
    0.9399    1.0732    0.4028 N   0  0  0  0  0  0  0  0  0  0  0  0
    1.9000    1.4425    0.4452 H   0  0  0  0  0  0  0  0  0  0  0  0
    0.1160    3.2262    0.4697 N   0  0  0  0  0  0  0  0  0  0  0  0
    1.0230    3.4925    0.8641 H   0  0  0  0  0  0  0  0  0  0  0  0
    8.3247    0.1200    0.2014 C   0  0  0  0  0  0  0  0  0  0  0  0
    8.4171   -0.9558   -0.0601 H   0  0  0  0  0  0  0  0  0  0  0  0
    8.2475    0.2278    1.3046 H   0  0  0  0  0  0  0  0  0  0  0  0
    9.2198    0.6593   -0.1555 H   0  0  0  0  0  0  0  0  0  0  0  0
    5.9745    0.2618   -0.2141 C   0  0  0  0  0  0  0  0  0  0  0  0
    5.6661   -0.7955    0.6759 C   0  0  0  0  0  0  0  0  0  0  0  0
    6.4594   -1.3168    1.2270 H   0  0  0  0  0  0  0  0  0  0  0  0
    4.3382   -1.1908    0.8488 C   0  0  0  0  0  0  0  0  0  0  0  0
    4.1120   -2.0195    1.5374 H   0  0  0  0  0  0  0  0  0  0  0  0
    3.2775   -0.5384    0.1749 C   0  0  0  0  0  0  0  0  0  0  0  0
    3.6069    0.5003   -0.7458 C   0  0  0  0  0  0  0  0  0  0  0  0
    2.8213    0.9381   -1.3822 H   0  0  0  0  0  0  0  0  0  0  0  0
    4.9274    0.8908   -0.9355 C   0  0  0  0  0  0  0  0  0  0  0  0
    5.1946    1.6679   -1.6656 H   0  0  0  0  0  0  0  0  0  0  0  0
    1.9136   -1.0099    0.3675 C   0  0  0  0  0  3  0  0  0  0  0  0
    1.7369   -2.0867    0.5005 H   0  0  0  0  0  0  0  0  0  0  0  0
   -0.1388    1.9008    0.3375 C   0  0  0  0  0  0  0  0  0  0  0  0
   -0.7944    4.3006    0.2448 C   0  0  0  0  0  0  0  0  0  0  0  0
   -0.7990    5.3736    1.1548 C   0  0  0  0  0  0  0  0  0  0  0  0
   -0.1402    5.3503    2.0368 H   0  0  0  0  0  0  0  0  0  0  0  0
   -1.6514    6.4644    0.9365 C   0  0  0  0  0  0  0  0  0  0  0  0
   -1.6521    7.3030    1.6481 H   0  0  0  0  0  0  0  0  0  0  0  0
   -2.5047    6.4809   -0.1777 C   0  0  0  0  0  0  0  0  0  0  0  0
   -3.1770    7.3351   -0.3444 H   0  0  0  0  0  0  0  0  0  0  0  0
   -2.4907    5.4081   -1.0839 C   0  0  0  0  0  0  0  0  0  0  0  0
   -3.1448    5.4240   -1.9682 H   0  0  0  0  0  0  0  0  0  0  0  0
   -1.6327    4.3184   -0.8862 C   0  0  0  0  0  0  0  0  0  0  0  0
   -1.6032    3.4925   -1.6105 H   0  0  0  0  0  0  0  0  0  0  0  0
  1 24  2  0  0  0  0
  2 12  1  0  0  0  0
  2  8  1  0  0  0  0
  4  3  1  0  0  0  0
  4  5  1  0  0  0  0
  6  7  1  0  0  0  0
  8 10  1  0  0  0  0
  9  8  1  0  0  0  0
 11  8  1  0  0  0  0
 12 13  1  0  0  0  0
 13 15  2  0  0  0  0
 13 14  1  0  0  0  0
 15 16  1  0  0  0  0
 17 22  1  0  0  0  0
 17 15  1  0  0  0  0
 18 17  2  0  0  0  0
 19 18  1  0  0  0  0
 20 18  1  0  0  0  0
 20 12  2  0  0  0  0
 21 20  1  0  0  0  0
 22  3  1  0  0  0  0
 22 23  1  0  0  0  0
 24  4  1  0  0  0  0
 24  6  1  0  0  0  0
 25  6  1  0  0  0  0
 25 26  1  0  0  0  0
 26 27  1  0  0  0  0
 28 26  2  0  0  0  0
 28 29  1  0  0  0  0
 30 28  1  0  0  0  0
 31 30  1  0  0  0  0
 32 34  1  0  0  0  0
 32 30  2  0  0  0  0
 33 32  1  0  0  0  0
 34 25  2  0  0  0  0
 35 34  1  0  0  0  0
M  END
