2
 OpenBabel05122313063D

 17 17  0  0  0  0  0  0  0  0999 V2000
    5.2800    0.5964    0.3919 O   0  0  0  0  0  0  0  0  0  0  0  0
    0.4675   -0.5031   -0.1659 N   0  0  0  0  0  2  0  0  0  0  0  0
    1.0833   -1.6258    0.2722 C   0  0  0  0  0  3  0  0  0  0  0  0
    0.4217   -2.4737    0.5001 H   0  0  0  0  0  0  0  0  0  0  0  0
    7.3188   -0.3100   -0.0754 O   0  0  0  0  0  0  0  0  0  0  0  0
    6.7344    0.6997    0.2476 N   0  0  0  0  0  0  0  0  0  0  0  0
    2.4728   -1.7113    0.3898 C   0  0  0  0  0  0  0  0  0  0  0  0
    2.9226   -2.6435    0.7626 H   0  0  0  0  0  0  0  0  0  0  0  0
    7.1302    1.8074    0.4875 O   0  0  0  0  0  0  0  0  0  0  0  0
    3.2714   -0.6136    0.0237 C   0  0  0  0  0  0  0  0  0  0  0  0
    2.6197    0.5376   -0.4520 C   0  0  0  0  0  0  0  0  0  0  0  0
    3.1939    1.4241   -0.7532 H   0  0  0  0  0  0  0  0  0  0  0  0
    1.2252    0.5548   -0.5361 C   0  0  0  0  0  0  0  0  0  0  0  0
    0.6699    1.4080   -0.9535 H   0  0  0  0  0  0  0  0  0  0  0  0
    4.7742   -0.7069    0.0906 C   0  0  0  0  0  0  0  0  0  0  0  0
    5.0965   -1.4416    0.8602 H   0  0  0  0  0  0  0  0  0  0  0  0
    5.1831   -1.0554   -0.8846 H   0  0  0  0  0  0  0  0  0  0  0  0
  2  3  1  0  0  0  0
  3  7  1  0  0  0  0
  3  4  1  0  0  0  0
  5  6  2  0  0  0  0
  6  1  1  0  0  0  0
  6  9  2  0  0  0  0
  7  8  1  0  0  0  0
 10 15  1  0  0  0  0
 10  7  2  0  0  0  0
 11 10  1  0  0  0  0
 12 11  1  0  0  0  0
 13 11  2  0  0  0  0
 13  2  1  0  0  0  0
 14 13  1  0  0  0  0
 15  1  1  0  0  0  0
 15 16  1  0  0  0  0
 17 15  1  0  0  0  0
M  END
