3
 OpenBabel05122313063D

 35 36  0  0  0  0  0  0  0  0999 V2000
   -2.2139    0.3501   -0.3048 S   0  0  0  0  0  0  0  0  0  0  0  0
    4.8328   -0.6934   -1.7674 O   0  0  0  0  0  0  0  0  0  0  0  0
    0.0226   -1.4839    0.4023 N   0  0  0  0  0  2  0  0  0  0  0  0
   -1.2552   -1.9967    0.4878 N   0  0  0  0  0  0  0  0  0  0  0  0
   -1.3221   -3.0164    0.5915 H   0  0  0  0  0  0  0  0  0  0  0  0
   -3.5456   -1.9423    0.2337 N   0  0  0  0  0  0  0  0  0  0  0  0
   -3.5445   -2.8402    0.7262 H   0  0  0  0  0  0  0  0  0  0  0  0
   -5.0387   -0.7637   -1.3446 C   0  0  0  0  0  0  0  0  0  0  0  0
   -4.1973   -0.5700   -2.0239 H   0  0  0  0  0  0  0  0  0  0  0  0
   -6.3313   -0.3360   -1.6773 C   0  0  0  0  0  0  0  0  0  0  0  0
   -6.4908    0.2088   -2.6195 H   0  0  0  0  0  0  0  0  0  0  0  0
   -7.4169   -0.6154   -0.8322 C   0  0  0  0  0  0  0  0  0  0  0  0
   -8.4286   -0.2816   -1.1050 H   0  0  0  0  0  0  0  0  0  0  0  0
   -7.2093   -1.3319    0.3571 C   0  0  0  0  0  0  0  0  0  0  0  0
   -8.0552   -1.5610    1.0217 H   0  0  0  0  0  0  0  0  0  0  0  0
   -5.9203   -1.7528    0.7093 C   0  0  0  0  0  0  0  0  0  0  0  0
   -5.7531   -2.3021    1.6490 H   0  0  0  0  0  0  0  0  0  0  0  0
   -4.8360   -1.4629   -0.1401 C   0  0  0  0  0  0  0  0  0  0  0  0
   -2.3664   -1.2779    0.1520 C   0  0  0  0  0  0  0  0  0  0  0  0
    0.9658   -2.3669    0.6396 C   0  0  0  0  0  3  0  0  0  0  0  0
    0.6307   -3.3559    1.0170 H   0  0  0  0  0  0  0  0  0  0  0  0
    2.4019   -2.2327    0.4605 C   0  0  0  0  0  0  0  0  0  0  0  0
    3.2336   -2.9882    1.3315 C   0  0  0  0  0  0  0  0  0  0  0  0
    2.7878   -3.6046    2.1264 H   0  0  0  0  0  0  0  0  0  0  0  0
    4.6198   -2.9285    1.1812 C   0  0  0  0  0  0  0  0  0  0  0  0
    5.2705   -3.4970    1.8618 H   0  0  0  0  0  0  0  0  0  0  0  0
    5.2014   -2.1630    0.1554 C   0  0  0  0  0  0  0  0  0  0  0  0
    6.2938   -2.1509    0.0456 H   0  0  0  0  0  0  0  0  0  0  0  0
    4.3743   -1.4440   -0.7369 C   0  0  0  0  0  0  0  0  0  0  0  0
    2.9728   -1.4724   -0.5790 C   0  0  0  0  0  0  0  0  0  0  0  0
    2.3379   -0.9465   -1.3101 H   0  0  0  0  0  0  0  0  0  0  0  0
    6.2289   -0.6766   -2.0387 C   0  0  0  0  0  0  0  0  0  0  0  0
    6.6136   -1.6962   -2.2577 H   0  0  0  0  0  0  0  0  0  0  0  0
    6.8074   -0.2420   -1.1940 H   0  0  0  0  0  0  0  0  0  0  0  0
    6.3613   -0.0404   -2.9321 H   0  0  0  0  0  0  0  0  0  0  0  0
  1 19  2  0  0  0  0
  2 29  1  0  0  0  0
  3  4  1  0  0  0  0
  3 20  1  0  0  0  0
  4  5  1  0  0  0  0
  6  7  1  0  0  0  0
  8 18  1  0  0  0  0
  9  8  1  0  0  0  0
 10  8  2  0  0  0  0
 10 12  1  0  0  0  0
 11 10  1  0  0  0  0
 12 14  2  0  0  0  0
 13 12  1  0  0  0  0
 14 16  1  0  0  0  0
 14 15  1  0  0  0  0
 16 17  1  0  0  0  0
 18  6  1  0  0  0  0
 18 16  2  0  0  0  0
 19  6  1  0  0  0  0
 19  4  1  0  0  0  0
 20 21  1  0  0  0  0
 22 20  1  0  0  0  0
 22 23  1  0  0  0  0
 23 24  1  0  0  0  0
 25 23  2  0  0  0  0
 25 26  1  0  0  0  0
 27 25  1  0  0  0  0
 28 27  1  0  0  0  0
 29 30  1  0  0  0  0
 29 27  2  0  0  0  0
 30 22  2  0  0  0  0
 31 30  1  0  0  0  0
 32  2  1  0  0  0  0
 32 34  1  0  0  0  0
 33 32  1  0  0  0  0
 35 32  1  0  0  0  0
M  END
