1
 OpenBabel05122313063D

 18 18  0  0  0  0  0  0  0  0999 V2000
   -0.7926   -1.0845   -0.3592 N   0  0  0  0  0  2  0  0  0  0  0  0
   -1.1337   -1.0311   -1.3354 H   0  0  0  0  0  0  0  0  0  0  0  0
   -1.7058   -1.1417    0.5599 C   0  0  0  0  0  3  0  0  0  0  0  0
   -1.3605   -1.1604    1.6093 H   0  0  0  0  0  0  0  0  0  0  0  0
   -3.1454   -1.1378    0.3449 C   0  0  0  0  0  0  0  0  0  0  0  0
   -3.9937   -1.1457    1.4763 C   0  0  0  0  0  0  0  0  0  0  0  0
   -3.5506   -1.1896    2.4837 H   0  0  0  0  0  0  0  0  0  0  0  0
   -5.3817   -1.0848    1.3283 C   0  0  0  0  0  0  0  0  0  0  0  0
   -6.0256   -1.0870    2.2210 H   0  0  0  0  0  0  0  0  0  0  0  0
   -5.9734   -1.0203    0.0485 C   0  0  0  0  0  0  0  0  0  0  0  0
   -5.1193   -1.0162   -1.0811 C   0  0  0  0  0  0  0  0  0  0  0  0
   -5.5604   -0.9637   -2.0884 H   0  0  0  0  0  0  0  0  0  0  0  0
   -3.7338   -1.0728   -0.9419 C   0  0  0  0  0  0  0  0  0  0  0  0
   -3.1052   -1.0565   -1.8460 H   0  0  0  0  0  0  0  0  0  0  0  0
   -7.4663   -0.9824   -0.1214 C   0  0  0  0  0  0  0  0  0  0  0  0
   -7.8458   -1.9772   -0.4399 H   0  0  0  0  0  0  0  0  0  0  0  0
   -7.7680   -0.2615   -0.9072 H   0  0  0  0  0  0  0  0  0  0  0  0
   -7.9833   -0.7159    0.8197 H   0  0  0  0  0  0  0  0  0  0  0  0
  1  3  1  0  0  0  0
  2  1  1  0  0  0  0
  3  4  1  0  0  0  0
  5  3  1  0  0  0  0
  5  6  1  0  0  0  0
  6  7  1  0  0  0  0
  8  6  2  0  0  0  0
  8  9  1  0  0  0  0
 10  8  1  0  0  0  0
 11 13  1  0  0  0  0
 11 10  2  0  0  0  0
 12 11  1  0  0  0  0
 13  5  2  0  0  0  0
 14 13  1  0  0  0  0
 15 10  1  0  0  0  0
 15 18  1  0  0  0  0
 16 15  1  0  0  0  0
 17 15  1  0  0  0  0
M  END
