1
 OpenBabel05122313063D

 18 19  0  0  0  0  0  0  0  0999 V2000
   -1.6630    0.0289   -0.1144 N   0  0  0  0  0  2  0  0  0  0  0  0
   -2.7698    2.0160   -0.3248 C   0  0  0  0  0  0  0  0  0  0  0  0
   -1.5947    1.2983   -0.6895 C   0  0  0  0  0  0  0  0  0  0  0  0
   -0.6086    1.9101   -1.4862 C   0  0  0  0  0  0  0  0  0  0  0  0
    0.2732    1.3361   -1.8012 H   0  0  0  0  0  0  0  0  0  0  0  0
   -0.8353    3.2320   -1.8854 C   0  0  0  0  0  0  0  0  0  0  0  0
   -0.0853    3.7357   -2.5132 H   0  0  0  0  0  0  0  0  0  0  0  0
   -2.0075    3.9367   -1.5161 C   0  0  0  0  0  0  0  0  0  0  0  0
   -2.1442    4.9731   -1.8591 H   0  0  0  0  0  0  0  0  0  0  0  0
   -3.0014    3.3402   -0.7300 C   0  0  0  0  0  0  0  0  0  0  0  0
   -3.9144    3.8834   -0.4469 H   0  0  0  0  0  0  0  0  0  0  0  0
   -4.8093    1.4218    1.0547 C   0  0  0  0  0  0  0  0  0  0  0  0
   -5.1408    0.5415    1.6346 H   0  0  0  0  0  0  0  0  0  0  0  0
   -5.5639    1.6387    0.2715 H   0  0  0  0  0  0  0  0  0  0  0  0
   -4.7440    2.2943    1.7362 H   0  0  0  0  0  0  0  0  0  0  0  0
   -3.5190    1.1425    0.4589 N   0  0  0  0  0  0  0  0  0  0  0  0
   -2.8105   -0.0218    0.5554 C   0  0  0  0  0  3  0  0  0  0  0  0
   -3.1233   -0.8737    1.1719 H   0  0  0  0  0  0  0  0  0  0  0  0
  1 17  1  0  0  0  0
  2 16  1  0  0  0  0
  3  2  1  0  0  0  0
  3  1  1  0  0  0  0
  4  3  2  0  0  0  0
  5  4  1  0  0  0  0
  6  8  2  0  0  0  0
  6  4  1  0  0  0  0
  7  6  1  0  0  0  0
  8 10  1  0  0  0  0
  9  8  1  0  0  0  0
 10 11  1  0  0  0  0
 10  2  2  0  0  0  0
 12 13  1  0  0  0  0
 12 15  1  0  0  0  0
 14 12  1  0  0  0  0
 16 17  1  0  0  0  0
 16 12  1  0  0  0  0
 17 18  1  0  0  0  0
M  END
