1
 OpenBabel05122313063D

 16 16  0  0  1  0  0  0  0  0999 V2000
    2.0433   -0.3233    0.0112 N   0  0  0  0  0  2  0  0  0  0  0  0
    2.3854    1.9340    0.1310 O   0  0  0  0  0  0  0  0  0  0  0  0
    2.8486    0.7099    0.0474 C   0  0  2  0  0  3  0  0  0  0  0  0
    4.3002    0.3146   -0.0439 C   0  0  0  0  0  0  0  0  0  0  0  0
    4.9488    0.9069    0.6301 H   0  0  0  0  0  0  0  0  0  0  0  0
    4.6469    0.5091   -1.0843 H   0  0  0  0  0  0  0  0  0  0  0  0
    2.8094   -1.5850   -0.1164 C   0  0  0  0  0  0  0  0  0  0  0  0
    2.7315   -1.9314   -1.1673 H   0  0  0  0  0  0  0  0  0  0  0  0
    2.3550   -2.3585    0.5298 H   0  0  0  0  0  0  0  0  0  0  0  0
    4.2373   -1.1866    0.2881 C   0  0  0  0  0  0  0  0  0  0  0  0
    5.0085   -1.7809   -0.2345 H   0  0  0  0  0  0  0  0  0  0  0  0
    4.3757   -1.3311    1.3781 H   0  0  0  0  0  0  0  0  0  0  0  0
    3.2921    3.0483    0.0706 C   0  0  0  0  0  0  0  0  0  0  0  0
    2.6530    3.9469    0.0311 H   0  0  0  0  0  0  0  0  0  0  0  0
    3.9177    3.0023   -0.8421 H   0  0  0  0  0  0  0  0  0  0  0  0
    3.9318    3.0862    0.9750 H   0  0  0  0  0  0  0  0  0  0  0  0
  1  3  1  0  0  0  0
  3  2  1  6  0  0  0
  4  3  1  0  0  0  0
  4 10  1  0  0  0  0
  4  5  1  0  0  0  0
  6  4  1  0  0  0  0
  7  1  1  0  0  0  0
  7 10  1  0  0  0  0
  7  9  1  0  0  0  0
  8  7  1  0  0  0  0
 10 12  1  0  0  0  0
 11 10  1  0  0  0  0
 13  2  1  0  0  0  0
 13 16  1  0  0  0  0
 14 13  1  0  0  0  0
 15 13  1  0  0  0  0
M  END
