1
 OpenBabel05122313063D

 16 16  0  0  0  0  0  0  0  0999 V2000
   -1.0298    0.0000   -0.0000 N   0  0  0  0  0  2  0  0  0  0  0  0
   -1.7214   -1.1585    0.0074 C   0  0  0  0  0  3  0  0  0  0  0  0
   -3.1292   -1.1542    0.0085 C   0  0  0  0  0  0  0  0  0  0  0  0
   -3.8204    0.0001   -0.0000 N   0  0  0  0  0  0  0  0  0  0  0  0
   -3.1292    1.1543   -0.0086 C   0  0  0  0  0  0  0  0  0  0  0  0
   -1.7213    1.1586   -0.0075 C   0  0  0  0  0  0  0  0  0  0  0  0
   -3.9082   -2.4384    0.0192 C   0  0  0  0  0  0  0  0  0  0  0  0
   -3.9080    2.4385   -0.0192 C   0  0  0  0  0  0  0  0  0  0  0  0
   -3.2481   -3.3251    0.0339 H   0  0  0  0  0  0  0  0  0  0  0  0
   -4.5639   -2.4907   -0.8734 H   0  0  0  0  0  0  0  0  0  0  0  0
   -4.5748   -2.4690    0.9045 H   0  0  0  0  0  0  0  0  0  0  0  0
   -3.2479    3.3252   -0.0336 H   0  0  0  0  0  0  0  0  0  0  0  0
   -4.5639    2.4907    0.8733 H   0  0  0  0  0  0  0  0  0  0  0  0
   -4.5746    2.4693   -0.9046 H   0  0  0  0  0  0  0  0  0  0  0  0
   -1.1401   -2.0911    0.0229 H   0  0  0  0  0  0  0  0  0  0  0  0
   -1.1400    2.0911   -0.0230 H   0  0  0  0  0  0  0  0  0  0  0  0
  1  2  1  0  0  0  0
  2  3  1  0  0  0  0
  2 15  1  0  0  0  0
  3  7  1  0  0  0  0
  4  3  2  0  0  0  0
  5  6  2  0  0  0  0
  5  4  1  0  0  0  0
  6  1  1  0  0  0  0
  7  9  1  0  0  0  0
  7 11  1  0  0  0  0
  8  5  1  0  0  0  0
  8 13  1  0  0  0  0
 10  7  1  0  0  0  0
 12  8  1  0  0  0  0
 14  8  1  0  0  0  0
 16  6  1  0  0  0  0
M  END
