1
 OpenBabel05122313063D

 17 17  0  0  1  0  0  0  0  0999 V2000
   -1.7317   -0.5046   -0.3079 N   0  0  0  0  0  2  0  0  0  0  0  0
   -2.9222   -0.1062    0.2181 C   0  0  1  0  0  3  0  0  0  0  0  0
   -4.1030   -0.8726    0.0304 C   0  0  0  0  0  0  0  0  0  0  0  0
   -4.0162   -2.0494   -0.7323 C   0  0  0  0  0  0  0  0  0  0  0  0
   -4.9191   -2.6591   -0.8946 H   0  0  0  0  0  0  0  0  0  0  0  0
   -2.7859   -2.4442   -1.2767 C   0  0  0  0  0  0  0  0  0  0  0  0
   -2.6912   -3.3608   -1.8765 H   0  0  0  0  0  0  0  0  0  0  0  0
   -1.6689   -1.6460   -1.0332 C   0  0  0  0  0  0  0  0  0  0  0  0
   -0.6708   -1.9111   -1.4184 H   0  0  0  0  0  0  0  0  0  0  0  0
   -2.9266    1.1635    1.0161 C   0  0  0  0  0  0  0  0  0  0  0  0
   -2.9299    0.9440    2.1061 H   0  0  0  0  0  0  0  0  0  0  0  0
   -3.8263    1.7755    0.8085 H   0  0  0  0  0  0  0  0  0  0  0  0
   -2.0155    1.7589    0.7909 H   0  0  0  0  0  0  0  0  0  0  0  0
   -5.4081   -0.4321    0.6374 C   0  0  0  0  0  0  0  0  0  0  0  0
   -6.2129   -1.1643    0.4348 H   0  0  0  0  0  0  0  0  0  0  0  0
   -5.7319    0.5507    0.2346 H   0  0  0  0  0  0  0  0  0  0  0  0
   -5.3242   -0.3072    1.7368 H   0  0  0  0  0  0  0  0  0  0  0  0
  1  2  1  0  0  0  0
  2 10  1  1  0  0  0
  3  2  1  0  0  0  0
  3 14  1  0  0  0  0
  4  3  2  0  0  0  0
  5  4  1  0  0  0  0
  6  8  2  0  0  0  0
  6  4  1  0  0  0  0
  7  6  1  0  0  0  0
  8  1  1  0  0  0  0
  9  8  1  0  0  0  0
 10 11  1  0  0  0  0
 12 10  1  0  0  0  0
 13 10  1  0  0  0  0
 14 17  1  0  0  0  0
 15 14  1  0  0  0  0
 16 14  1  0  0  0  0
M  END
