4
 OpenBabel05122313063D

 43 46  0  0  1  0  0  0  0  0999 V2000
    0.4075    0.1141    0.3283 P   0  0  1  0  0  0  0  0  0  0  0  0
    0.7556    0.4456    1.9207 O   0  0  0  0  0  0  0  0  0  0  0  0
    1.7219    0.5462    2.0616 H   0  0  0  0  0  0  0  0  0  0  0  0
   -0.9952   -2.3100   -0.2848 N   0  0  0  0  0  2  0  0  0  0  0  0
    1.4464    1.2741   -0.6720 C   0  0  2  0  0  0  0  0  0  0  0  0
    1.1907    0.9051   -1.6978 H   0  0  0  0  0  0  0  0  0  0  0  0
    2.8947    1.0007   -0.3724 C   0  0  0  0  0  0  0  0  0  0  0  0
    3.5557    1.8809   -0.3216 H   0  0  0  0  0  0  0  0  0  0  0  0
    3.4458   -0.2480   -0.2062 C   0  0  0  0  0  0  0  0  0  0  0  0
    2.6059   -1.4488   -0.2617 C   0  0  0  0  0  0  0  0  0  0  0  0
    3.1281   -2.3888   -0.5104 H   0  0  0  0  0  0  0  0  0  0  0  0
    1.2509   -1.4570   -0.0682 C   0  0  0  0  0  0  0  0  0  0  0  0
    0.3489   -2.5924   -0.2417 C   0  0  2  0  0  3  0  0  0  0  0  0
    0.7983   -3.9188   -0.4208 C   0  0  0  0  0  0  0  0  0  0  0  0
    1.8731   -4.1345   -0.3501 H   0  0  0  0  0  0  0  0  0  0  0  0
   -0.1111   -4.9402   -0.6935 C   0  0  0  0  0  0  0  0  0  0  0  0
    0.2380   -5.9731   -0.8377 H   0  0  0  0  0  0  0  0  0  0  0  0
   -1.4740   -4.6194   -0.7980 C   0  0  0  0  0  0  0  0  0  0  0  0
   -2.2298   -5.3774   -1.0456 H   0  0  0  0  0  0  0  0  0  0  0  0
   -1.8668   -3.2967   -0.5875 C   0  0  0  0  0  0  0  0  0  0  0  0
   -2.9178   -2.9987   -0.6840 H   0  0  0  0  0  0  0  0  0  0  0  0
    0.9920    2.7077   -0.5200 C   0  0  0  0  0  0  0  0  0  0  0  0
    0.0765    3.2557   -1.4410 C   0  0  0  0  0  0  0  0  0  0  0  0
   -0.2838    2.6337   -2.2751 H   0  0  0  0  0  0  0  0  0  0  0  0
   -0.3785    4.5740   -1.2858 C   0  0  0  0  0  0  0  0  0  0  0  0
   -1.0795    4.9982   -2.0207 H   0  0  0  0  0  0  0  0  0  0  0  0
    0.0657    5.3549   -0.2058 C   0  0  0  0  0  0  0  0  0  0  0  0
   -0.2883    6.3900   -0.0891 H   0  0  0  0  0  0  0  0  0  0  0  0
    0.9732    4.8126    0.7182 C   0  0  0  0  0  0  0  0  0  0  0  0
    1.3292    5.4194    1.5640 H   0  0  0  0  0  0  0  0  0  0  0  0
    1.4334    3.4968    0.5617 C   0  0  0  0  0  0  0  0  0  0  0  0
    2.1466    3.0826    1.2917 H   0  0  0  0  0  0  0  0  0  0  0  0
    4.9078   -0.4341   -0.0248 C   0  0  0  0  0  0  0  0  0  0  0  0
    5.3955   -1.4797    0.7927 C   0  0  0  0  0  0  0  0  0  0  0  0
    4.6876   -2.1511    1.3039 H   0  0  0  0  0  0  0  0  0  0  0  0
    6.7720   -1.6522    0.9916 C   0  0  0  0  0  0  0  0  0  0  0  0
    7.1330   -2.4648    1.6395 H   0  0  0  0  0  0  0  0  0  0  0  0
    7.6864   -0.7871    0.3708 C   0  0  0  0  0  0  0  0  0  0  0  0
    8.7673   -0.9252    0.5216 H   0  0  0  0  0  0  0  0  0  0  0  0
    7.2160    0.2504   -0.4509 C   0  0  0  0  0  0  0  0  0  0  0  0
    7.9282    0.9213   -0.9539 H   0  0  0  0  0  0  0  0  0  0  0  0
    5.8408    0.4249   -0.6493 C   0  0  0  0  0  0  0  0  0  0  0  0
    5.4849    1.2176   -1.3245 H   0  0  0  0  0  0  0  0  0  0  0  0
  1  2  1  1  0  0  0
  2  3  1  0  0  0  0
  4 13  1  0  0  0  0
  5  6  1  6  0  0  0
  5 22  1  0  0  0  0
  5  7  1  0  0  0  0
  5  1  1  0  0  0  0
  7  8  1  0  0  0  0
  7  9  2  0  0  0  0
  9 33  1  0  0  0  0
 10  9  1  0  0  0  0
 10 12  2  0  0  0  0
 11 10  1  0  0  0  0
 12  1  1  0  0  0  0
 13 12  1  6  0  0  0
 14 15  1  0  0  0  0
 14 13  1  0  0  0  0
 16 14  2  0  0  0  0
 17 16  1  0  0  0  0
 18 16  1  0  0  0  0
 18 20  2  0  0  0  0
 19 18  1  0  0  0  0
 20  4  1  0  0  0  0
 21 20  1  0  0  0  0
 22 31  1  0  0  0  0
 23 25  1  0  0  0  0
 23 22  2  0  0  0  0
 24 23  1  0  0  0  0
 25 27  2  0  0  0  0
 26 25  1  0  0  0  0
 27 28  1  0  0  0  0
 27 29  1  0  0  0  0
 29 30  1  0  0  0  0
 31 29  2  0  0  0  0
 31 32  1  0  0  0  0
 33 34  1  0  0  0  0
 34 36  2  0  0  0  0
 34 35  1  0  0  0  0
 36 37  1  0  0  0  0
 38 39  1  0  0  0  0
 38 36  1  0  0  0  0
 40 38  2  0  0  0  0
 41 40  1  0  0  0  0
 42 40  1  0  0  0  0
 42 33  2  0  0  0  0
 43 42  1  0  0  0  0
M  END
