1
 OpenBabel05122313063D

 23 25  0  0  0  0  0  0  0  0999 V2000
    1.3905    1.2124   -1.0572 N   0  0  0  0  0  2  0  0  0  0  0  0
   -0.2758   -0.3168   -1.5046 N   0  0  0  0  0  0  0  0  0  0  0  0
    1.0190    0.0361   -1.6442 C   0  0  0  0  0  0  0  0  0  0  0  0
   -2.8415   -2.9362   -2.2204 C   0  0  0  0  0  0  0  0  0  0  0  0
   -2.5080   -3.7645   -2.8541 H   0  0  0  0  0  0  0  0  0  0  0  0
    2.6574    1.6101   -1.1034 C   0  0  0  0  0  0  0  0  0  0  0  0
    2.8674    2.5400   -0.5413 H   0  0  0  0  0  0  0  0  0  0  0  0
    1.9842   -0.7741   -2.3384 C   0  0  0  0  0  0  0  0  0  0  0  0
   -0.6840   -1.4775   -2.0153 C   0  0  0  0  0  0  0  0  0  0  0  0
   -2.0751   -1.8558   -1.8007 C   0  0  0  0  0  0  0  0  0  0  0  0
   -2.8458   -1.0283   -1.0291 O   0  0  0  0  0  0  0  0  0  0  0  0
    1.5160   -1.9985   -2.8985 C   0  0  0  0  0  3  0  0  0  0  0  0
    2.2176   -2.6496   -3.4428 H   0  0  0  0  0  0  0  0  0  0  0  0
    0.1931   -2.3565   -2.7394 C   0  0  0  0  0  0  0  0  0  0  0  0
   -0.1863   -3.3025   -3.1500 H   0  0  0  0  0  0  0  0  0  0  0  0
    3.3249   -0.3136   -2.4085 C   0  0  0  0  0  0  0  0  0  0  0  0
    4.0769   -0.9135   -2.9459 H   0  0  0  0  0  0  0  0  0  0  0  0
    3.6639    0.8796   -1.7858 C   0  0  0  0  0  0  0  0  0  0  0  0
    4.6920    1.2689   -1.8096 H   0  0  0  0  0  0  0  0  0  0  0  0
   -4.1468   -2.7461   -1.6741 C   0  0  0  0  0  0  0  0  0  0  0  0
   -5.0221   -3.3927   -1.7978 H   0  0  0  0  0  0  0  0  0  0  0  0
   -4.0862   -1.5678   -0.9590 C   0  0  0  0  0  0  0  0  0  0  0  0
   -4.8147   -1.0028   -0.3691 H   0  0  0  0  0  0  0  0  0  0  0  0
  3  2  2  0  0  0  0
  3  1  1  0  0  0  0
  4 10  2  0  0  0  0
  4 20  1  0  0  0  0
  5  4  1  0  0  0  0
  6  1  1  0  0  0  0
  6  7  1  0  0  0  0
  8  3  1  0  0  0  0
  9 10  1  0  0  0  0
  9  2  1  0  0  0  0
 10 11  1  0  0  0  0
 11 22  1  0  0  0  0
 12 14  1  0  0  0  0
 12  8  1  0  0  0  0
 13 12  1  0  0  0  0
 14  9  2  0  0  0  0
 15 14  1  0  0  0  0
 16  8  2  0  0  0  0
 16 18  1  0  0  0  0
 17 16  1  0  0  0  0
 18  6  2  0  0  0  0
 19 18  1  0  0  0  0
 20 22  2  0  0  0  0
 21 20  1  0  0  0  0
 22 23  1  0  0  0  0
M  END
