1
 OpenBabel05122313063D

 19 20  0  0  1  0  0  0  0  0999 V2000
    0.3093   -0.3795    1.6919 N   0  0  0  0  0  2  0  0  0  0  0  0
   -1.3165   -0.2907    3.1837 N   0  0  0  0  0  0  0  0  0  0  0  0
   -0.9691   -0.7226    1.9324 C   0  0  2  0  0  3  0  0  0  0  0  0
    0.7738    0.2707    2.8230 C   0  0  0  0  0  0  0  0  0  0  0  0
    1.7855    0.6831    2.8672 H   0  0  0  0  0  0  0  0  0  0  0  0
   -0.2311    0.3314    3.7652 C   0  0  0  0  0  0  0  0  0  0  0  0
   -0.2617    0.7523    4.7739 H   0  0  0  0  0  0  0  0  0  0  0  0
   -1.9134   -1.4453    1.0706 C   0  0  0  0  0  0  0  0  0  0  0  0
   -1.5304   -2.6353    0.4156 C   0  0  0  0  0  0  0  0  0  0  0  0
   -0.5111   -3.0225    0.5406 H   0  0  0  0  0  0  0  0  0  0  0  0
   -2.4496   -3.3212   -0.3882 C   0  0  0  0  0  0  0  0  0  0  0  0
   -2.1361   -4.2439   -0.8989 H   0  0  0  0  0  0  0  0  0  0  0  0
   -3.7604   -2.8381   -0.5370 C   0  0  0  0  0  0  0  0  0  0  0  0
   -4.4799   -3.3803   -1.1689 H   0  0  0  0  0  0  0  0  0  0  0  0
   -4.1503   -1.6609    0.1210 C   0  0  0  0  0  0  0  0  0  0  0  0
   -5.1712   -1.2700   -0.0034 H   0  0  0  0  0  0  0  0  0  0  0  0
   -3.2331   -0.9645    0.9193 C   0  0  0  0  0  0  0  0  0  0  0  0
   -3.5256   -0.0149    1.3935 H   0  0  0  0  0  0  0  0  0  0  0  0
   -2.2190   -0.4760    3.6217 H   0  0  0  0  0  0  0  0  0  0  0  0
  1  3  1  0  0  0  0
  1  4  1  0  0  0  0
  2 19  1  0  0  0  0
  2  6  1  0  0  0  0
  3  8  1  1  0  0  0
  3  2  1  0  0  0  0
  4  5  1  0  0  0  0
  4  6  2  0  0  0  0
  6  7  1  0  0  0  0
  9 10  1  0  0  0  0
  9  8  2  0  0  0  0
 11  9  1  0  0  0  0
 12 11  1  0  0  0  0
 13 11  2  0  0  0  0
 13 15  1  0  0  0  0
 14 13  1  0  0  0  0
 15 17  2  0  0  0  0
 16 15  1  0  0  0  0
 17  8  1  0  0  0  0
 17 18  1  0  0  0  0
M  END
