3
 OpenBabel05122313063D

 44 48  0  0  1  0  0  0  0  0999 V2000
   -2.8562   -1.5693   -0.0824 O   0  0  0  0  0  0  0  0  0  0  0  0
    4.5377   -0.7923    0.0048 O   0  0  0  0  0  0  0  0  0  0  0  0
   -2.6311    0.6308   -0.1334 N   0  0  0  0  0  2  0  0  0  0  0  0
    4.1445   -2.9785    0.3171 N   0  0  0  0  0  0  0  0  0  0  0  0
    8.0535    1.5598   -0.3117 C   0  0  0  0  0  0  0  0  0  0  0  0
    7.9775    2.6449   -0.4787 H   0  0  0  0  0  0  0  0  0  0  0  0
    9.3145    0.9518   -0.2008 C   0  0  0  0  0  0  0  0  0  0  0  0
   10.2300    1.5569   -0.2799 H   0  0  0  0  0  0  0  0  0  0  0  0
    9.4007   -0.4349    0.0119 C   0  0  0  0  0  0  0  0  0  0  0  0
   10.3850   -0.9191    0.1000 H   0  0  0  0  0  0  0  0  0  0  0  0
    8.2394   -1.2077    0.1129 C   0  0  0  0  0  0  0  0  0  0  0  0
    8.3190   -2.2921    0.2800 H   0  0  0  0  0  0  0  0  0  0  0  0
    6.9636   -0.6034    0.0023 C   0  0  0  0  0  0  0  0  0  0  0  0
    6.8863    0.7934   -0.2118 C   0  0  0  0  0  0  0  0  0  0  0  0
    5.8999    1.2702   -0.2995 H   0  0  0  0  0  0  0  0  0  0  0  0
    2.1962   -1.4430    0.0742 C   0  0  0  0  0  0  0  0  0  0  0  0
    1.7638   -0.1107   -0.1227 C   0  0  0  0  0  0  0  0  0  0  0  0
    2.5032    0.6941   -0.2383 H   0  0  0  0  0  0  0  0  0  0  0  0
    0.4053    0.1960   -0.1794 C   0  0  0  0  0  0  0  0  0  0  0  0
    0.1067    1.2418   -0.3561 H   0  0  0  0  0  0  0  0  0  0  0  0
   -0.5610   -0.8285   -0.0407 C   0  0  0  0  0  0  0  0  0  0  0  0
   -0.1284   -2.1670    0.1511 C   0  0  0  0  0  0  0  0  0  0  0  0
   -0.8730   -2.9677    0.2598 H   0  0  0  0  0  0  0  0  0  0  0  0
    1.2286   -2.4688    0.2090 C   0  0  0  0  0  0  0  0  0  0  0  0
    1.5748   -3.5010    0.3608 H   0  0  0  0  0  0  0  0  0  0  0  0
   -7.6834   -2.2841   -0.1443 C   0  0  0  0  0  0  0  0  0  0  0  0
   -8.7009   -1.8661   -0.1675 H   0  0  0  0  0  0  0  0  0  0  0  0
   -7.4934   -3.6764   -0.1129 C   0  0  0  0  0  0  0  0  0  0  0  0
   -8.3617   -4.3522   -0.1116 H   0  0  0  0  0  0  0  0  0  0  0  0
   -6.1913   -4.2007   -0.0836 C   0  0  0  0  0  0  0  0  0  0  0  0
   -6.0357   -5.2897   -0.0595 H   0  0  0  0  0  0  0  0  0  0  0  0
   -5.0835   -3.3443   -0.0853 C   0  0  0  0  0  0  0  0  0  0  0  0
   -4.0645   -3.7559   -0.0636 H   0  0  0  0  0  0  0  0  0  0  0  0
   -5.2674   -1.9426   -0.1165 C   0  0  0  0  0  0  0  0  0  0  0  0
   -6.5830   -1.4212   -0.1463 C   0  0  0  0  0  0  0  0  0  0  0  0
   -6.7409   -0.3328   -0.1710 H   0  0  0  0  0  0  0  0  0  0  0  0
   -3.9831    0.3315   -0.1490 C   0  0  0  0  0  0  0  0  0  0  0  0
   -4.7244    1.1413   -0.1544 H   0  0  0  0  0  0  0  0  0  0  0  0
   -4.1297   -1.0379   -0.1181 C   0  0  0  0  0  0  0  0  0  0  0  0
   -1.9809   -0.5328   -0.0916 C   0  0  1  0  0  3  0  0  0  0  0  0
    5.4989   -2.7624    0.3003 C   0  0  0  0  0  0  0  0  0  0  0  0
    6.2188   -3.5797    0.4257 H   0  0  0  0  0  0  0  0  0  0  0  0
    5.7596   -1.4113    0.1074 C   0  0  0  0  0  0  0  0  0  0  0  0
    3.6049   -1.7884    0.1390 C   0  0  0  0  0  0  0  0  0  0  0  0
  2 43  1  0  0  0  0
  2 44  1  0  0  0  0
  3 40  1  0  0  0  0
  5 14  2  0  0  0  0
  5  7  1  0  0  0  0
  6  5  1  0  0  0  0
  7  9  2  0  0  0  0
  8  7  1  0  0  0  0
  9 10  1  0  0  0  0
  9 11  1  0  0  0  0
 11 12  1  0  0  0  0
 13 43  1  0  0  0  0
 13 11  2  0  0  0  0
 14 13  1  0  0  0  0
 15 14  1  0  0  0  0
 16 44  1  0  0  0  0
 16 24  1  0  0  0  0
 17 16  2  0  0  0  0
 18 17  1  0  0  0  0
 19 17  1  0  0  0  0
 19 21  2  0  0  0  0
 20 19  1  0  0  0  0
 21 22  1  0  0  0  0
 22 24  2  0  0  0  0
 22 23  1  0  0  0  0
 24 25  1  0  0  0  0
 26 28  1  0  0  0  0
 27 26  1  0  0  0  0
 28 29  1  0  0  0  0
 28 30  2  0  0  0  0
 30 31  1  0  0  0  0
 32 30  1  0  0  0  0
 32 33  1  0  0  0  0
 34 32  2  0  0  0  0
 35 26  2  0  0  0  0
 35 34  1  0  0  0  0
 36 35  1  0  0  0  0
 37  3  1  0  0  0  0
 37 39  2  0  0  0  0
 38 37  1  0  0  0  0
 39 34  1  0  0  0  0
 39  1  1  0  0  0  0
 40  1  1  0  0  0  0
 40 21  1  1  0  0  0
 41  4  1  0  0  0  0
 41 42  1  0  0  0  0
 43 41  2  0  0  0  0
 44  4  2  0  0  0  0
M  END
