2
 OpenBabel05122313063D

 41 41  0  0  0  0  0  0  0  0999 V2000
    6.0611    3.0492   -0.4076 O   0  0  0  0  0  0  0  0  0  0  0  0
    1.8919   -0.6889   -0.1489 N   0  0  0  0  0  2  0  0  0  0  0  0
    1.1009   -2.8097    0.3938 N   0  0  0  0  0  0  0  0  0  0  0  0
    0.4596   -2.2531    0.9855 H   0  0  0  0  0  0  0  0  0  0  0  0
    3.1749   -2.5858   -0.7035 N   0  0  0  0  0  0  0  0  0  0  0  0
    3.8070   -1.9034   -1.1340 H   0  0  0  0  0  0  0  0  0  0  0  0
    2.0617   -2.0021   -0.1518 C   0  0  0  0  0  3  0  0  0  0  0  0
    2.9776    0.2182   -0.2184 C   0  0  0  0  0  0  0  0  0  0  0  0
    3.0857    1.1335   -1.2915 C   0  0  0  0  0  0  0  0  0  0  0  0
    2.3191    1.1013   -2.0811 H   0  0  0  0  0  0  0  0  0  0  0  0
    4.1258    2.0633   -1.3211 C   0  0  0  0  0  0  0  0  0  0  0  0
    4.2232    2.7816   -2.1485 H   0  0  0  0  0  0  0  0  0  0  0  0
    5.0845    2.1057   -0.2839 C   0  0  0  0  0  0  0  0  0  0  0  0
    4.9769    1.2025    0.7940 C   0  0  0  0  0  0  0  0  0  0  0  0
    5.6923    1.2255    1.6270 H   0  0  0  0  0  0  0  0  0  0  0  0
    3.9228    0.2767    0.8248 C   0  0  0  0  0  0  0  0  0  0  0  0
    3.8041   -0.3980    1.6848 H   0  0  0  0  0  0  0  0  0  0  0  0
    7.0303    3.1466    0.6158 C   0  0  0  0  0  0  0  0  0  0  0  0
    7.6167    2.2059    0.7266 H   0  0  0  0  0  0  0  0  0  0  0  0
    7.7166    3.9632    0.3233 H   0  0  0  0  0  0  0  0  0  0  0  0
    6.5736    3.3948    1.6008 H   0  0  0  0  0  0  0  0  0  0  0  0
    0.4568   -3.9136   -0.3381 C   0  0  0  0  0  0  0  0  0  0  0  0
    1.1978   -4.2717   -1.0840 H   0  0  0  0  0  0  0  0  0  0  0  0
   -0.7843   -3.4090   -1.0880 C   0  0  0  0  0  0  0  0  0  0  0  0
   -0.5296   -2.5769   -1.7742 H   0  0  0  0  0  0  0  0  0  0  0  0
   -1.2492   -4.2281   -1.6738 H   0  0  0  0  0  0  0  0  0  0  0  0
   -1.5442   -3.0260   -0.3742 H   0  0  0  0  0  0  0  0  0  0  0  0
    0.1276   -5.0509    0.6313 C   0  0  0  0  0  0  0  0  0  0  0  0
   -0.5885   -4.7027    1.4047 H   0  0  0  0  0  0  0  0  0  0  0  0
   -0.3397   -5.9030    0.0988 H   0  0  0  0  0  0  0  0  0  0  0  0
    1.0372   -5.4135    1.1508 H   0  0  0  0  0  0  0  0  0  0  0  0
    3.8458   -3.7583   -0.1206 C   0  0  0  0  0  0  0  0  0  0  0  0
    3.0683   -4.5333    0.0383 H   0  0  0  0  0  0  0  0  0  0  0  0
    4.4839   -3.4339    1.2356 C   0  0  0  0  0  0  0  0  0  0  0  0
    3.7166   -3.0665    1.9459 H   0  0  0  0  0  0  0  0  0  0  0  0
    4.9570   -4.3350    1.6758 H   0  0  0  0  0  0  0  0  0  0  0  0
    5.2638   -2.6517    1.1276 H   0  0  0  0  0  0  0  0  0  0  0  0
    4.8570   -4.2926   -1.1344 C   0  0  0  0  0  0  0  0  0  0  0  0
    5.6502   -3.5404   -1.3343 H   0  0  0  0  0  0  0  0  0  0  0  0
    5.3537   -5.2044   -0.7496 H   0  0  0  0  0  0  0  0  0  0  0  0
    4.3652   -4.5375   -2.0964 H   0  0  0  0  0  0  0  0  0  0  0  0
  1 13  1  0  0  0  0
  1 18  1  0  0  0  0
  3  4  1  0  0  0  0
  5  7  1  0  0  0  0
  5 32  1  0  0  0  0
  6  5  1  0  0  0  0
  7  2  1  0  0  0  0
  7  3  1  0  0  0  0
  8  2  1  0  0  0  0
  8 16  1  0  0  0  0
  9  8  2  0  0  0  0
 10  9  1  0  0  0  0
 11  9  1  0  0  0  0
 11 13  2  0  0  0  0
 12 11  1  0  0  0  0
 13 14  1  0  0  0  0
 14 16  2  0  0  0  0
 14 15  1  0  0  0  0
 16 17  1  0  0  0  0
 18 19  1  0  0  0  0
 18 21  1  0  0  0  0
 20 18  1  0  0  0  0
 22  3  1  0  0  0  0
 22 28  1  0  0  0  0
 23 22  1  0  0  0  0
 24 27  1  0  0  0  0
 24 22  1  0  0  0  0
 25 24  1  0  0  0  0
 26 24  1  0  0  0  0
 28 31  1  0  0  0  0
 28 29  1  0  0  0  0
 30 28  1  0  0  0  0
 32 33  1  0  0  0  0
 32 34  1  0  0  0  0
 34 36  1  0  0  0  0
 34 35  1  0  0  0  0
 37 34  1  0  0  0  0
 38 40  1  0  0  0  0
 38 32  1  0  0  0  0
 39 38  1  0  0  0  0
 41 38  1  0  0  0  0
M  END
