3
 OpenBabel05122313063D

 40 41  0  0  0  0  0  0  0  0999 V2000
    6.1726   -0.8698   -1.6615 O   0  0  0  0  0  0  0  0  0  0  0  0
    6.4042   -2.2229    0.2032 O   0  0  0  0  0  0  0  0  0  0  0  0
    1.8264    0.8988   -0.1648 N   0  0  0  0  0  2  0  0  0  0  0  0
    0.8257    2.7090   -1.2317 N   0  0  0  0  0  0  0  0  0  0  0  0
    0.2443    1.9574   -1.6423 H   0  0  0  0  0  0  0  0  0  0  0  0
    2.8969    3.0125   -0.1845 N   0  0  0  0  0  0  0  0  0  0  0  0
    2.8865    3.9191   -0.6553 H   0  0  0  0  0  0  0  0  0  0  0  0
    1.8598    2.1824   -0.5084 C   0  0  0  0  0  3  0  0  0  0  0  0
    2.9889    0.1134   -0.0066 C   0  0  0  0  0  0  0  0  0  0  0  0
    3.9779    0.1151   -1.0315 C   0  0  0  0  0  0  0  0  0  0  0  0
    3.8605    0.7331   -1.9306 H   0  0  0  0  0  0  0  0  0  0  0  0
    5.0760   -0.7124   -0.8482 C   0  0  0  0  0  0  0  0  0  0  0  0
    5.2147   -1.5372    0.2825 C   0  0  0  0  0  0  0  0  0  0  0  0
    4.2544   -1.5556    1.2881 C   0  0  0  0  0  0  0  0  0  0  0  0
    4.3684   -2.1966    2.1733 H   0  0  0  0  0  0  0  0  0  0  0  0
    3.1323   -0.7138    1.1285 C   0  0  0  0  0  0  0  0  0  0  0  0
    2.3396   -0.6782    1.8904 H   0  0  0  0  0  0  0  0  0  0  0  0
    6.8827   -1.9893   -1.1238 C   0  0  0  0  0  0  0  0  0  0  0  0
    6.6895   -2.8922   -1.7566 H   0  0  0  0  0  0  0  0  0  0  0  0
    7.9692   -1.7626   -1.0943 H   0  0  0  0  0  0  0  0  0  0  0  0
    0.0937    3.9277   -0.8540 C   0  0  0  0  0  0  0  0  0  0  0  0
    0.8475    4.6679   -0.5056 H   0  0  0  0  0  0  0  0  0  0  0  0
   -0.8861    3.6492    0.2941 C   0  0  0  0  0  0  0  0  0  0  0  0
   -0.3656    3.2258    1.1757 H   0  0  0  0  0  0  0  0  0  0  0  0
   -1.4097    4.5780    0.6000 H   0  0  0  0  0  0  0  0  0  0  0  0
   -1.6492    2.9066   -0.0190 H   0  0  0  0  0  0  0  0  0  0  0  0
   -0.6058    4.4908   -2.0919 C   0  0  0  0  0  0  0  0  0  0  0  0
   -1.3565    3.7663   -2.4719 H   0  0  0  0  0  0  0  0  0  0  0  0
   -1.1401    5.4301   -1.8484 H   0  0  0  0  0  0  0  0  0  0  0  0
    0.1185    4.6921   -2.9055 H   0  0  0  0  0  0  0  0  0  0  0  0
    3.6978    2.9227    1.0466 C   0  0  0  0  0  0  0  0  0  0  0  0
    4.1952    1.9295    1.0524 H   0  0  0  0  0  0  0  0  0  0  0  0
    4.7834    3.9957    0.9829 C   0  0  0  0  0  0  0  0  0  0  0  0
    4.3363    5.0134    0.9603 H   0  0  0  0  0  0  0  0  0  0  0  0
    5.4336    3.9393    1.8767 H   0  0  0  0  0  0  0  0  0  0  0  0
    5.4200    3.8715    0.0839 H   0  0  0  0  0  0  0  0  0  0  0  0
    2.8236    3.0295    2.3004 C   0  0  0  0  0  0  0  0  0  0  0  0
    2.0458    2.2385    2.3172 H   0  0  0  0  0  0  0  0  0  0  0  0
    3.4442    2.9148    3.2120 H   0  0  0  0  0  0  0  0  0  0  0  0
    2.3211    4.0189    2.3472 H   0  0  0  0  0  0  0  0  0  0  0  0
  1 18  1  0  0  0  0
  1 12  1  0  0  0  0
  2 13  1  0  0  0  0
  3  9  1  0  0  0  0
  4 21  1  0  0  0  0
  4  8  1  0  0  0  0
  5  4  1  0  0  0  0
  6 31  1  0  0  0  0
  7  6  1  0  0  0  0
  8  6  1  0  0  0  0
  8  3  1  0  0  0  0
  9 16  1  0  0  0  0
 10 12  1  0  0  0  0
 10  9  2  0  0  0  0
 11 10  1  0  0  0  0
 12 13  2  0  0  0  0
 13 14  1  0  0  0  0
 14 15  1  0  0  0  0
 16 14  2  0  0  0  0
 16 17  1  0  0  0  0
 18 20  1  0  0  0  0
 18  2  1  0  0  0  0
 19 18  1  0  0  0  0
 21 22  1  0  0  0  0
 21 23  1  0  0  0  0
 23 25  1  0  0  0  0
 23 24  1  0  0  0  0
 26 23  1  0  0  0  0
 27 29  1  0  0  0  0
 27 21  1  0  0  0  0
 28 27  1  0  0  0  0
 30 27  1  0  0  0  0
 31 32  1  0  0  0  0
 31 37  1  0  0  0  0
 33 31  1  0  0  0  0
 33 35  1  0  0  0  0
 34 33  1  0  0  0  0
 36 33  1  0  0  0  0
 37 38  1  0  0  0  0
 37 40  1  0  0  0  0
 37 39  1  0  0  0  0
M  END
