1
 OpenBabel05122313063D

 25 25  0  0  0  0  0  0  0  0999 V2000
   -1.7658   -1.3731   -0.5140 N   0  0  0  0  0  2  0  0  0  0  0  0
   -1.8820    1.2837   -0.2344 N   0  0  0  0  0  0  0  0  0  0  0  0
   -1.4438    1.3188    0.6991 H   0  0  0  0  0  0  0  0  0  0  0  0
   -1.4651   -2.6916   -0.4147 C   0  0  0  0  0  3  0  0  0  0  0  0
   -0.5222   -3.0021   -0.8847 H   0  0  0  0  0  0  0  0  0  0  0  0
   -2.2903   -3.5989    0.2530 C   0  0  0  0  0  0  0  0  0  0  0  0
   -1.9964   -4.6561    0.3065 H   0  0  0  0  0  0  0  0  0  0  0  0
   -3.4692   -3.1354    0.8545 C   0  0  0  0  0  0  0  0  0  0  0  0
   -4.1352   -3.8237    1.3945 H   0  0  0  0  0  0  0  0  0  0  0  0
   -3.7767   -1.7713    0.7610 C   0  0  0  0  0  0  0  0  0  0  0  0
   -4.6859   -1.3616    1.2240 H   0  0  0  0  0  0  0  0  0  0  0  0
   -2.9090   -0.9168    0.0708 C   0  0  0  0  0  0  0  0  0  0  0  0
   -3.1659    0.5517   -0.1168 C   0  0  0  0  0  0  0  0  0  0  0  0
   -3.7110    0.7063   -1.0741 H   0  0  0  0  0  0  0  0  0  0  0  0
   -3.8093    0.9463    0.6982 H   0  0  0  0  0  0  0  0  0  0  0  0
   -2.0648    2.7004   -0.6498 C   0  0  0  0  0  0  0  0  0  0  0  0
   -2.5370    2.6937   -1.6523 H   0  0  0  0  0  0  0  0  0  0  0  0
   -1.0478    3.1199   -0.7649 H   0  0  0  0  0  0  0  0  0  0  0  0
   -2.8697    3.5519    0.3392 C   0  0  0  0  0  0  0  0  0  0  0  0
   -2.8694    4.5881   -0.0591 H   0  0  0  0  0  0  0  0  0  0  0  0
   -3.9371    3.2423    0.3430 H   0  0  0  0  0  0  0  0  0  0  0  0
   -2.3069    3.5452    1.7632 C   0  0  0  0  0  0  0  0  0  0  0  0
   -2.8539    4.2573    2.4109 H   0  0  0  0  0  0  0  0  0  0  0  0
   -2.3959    2.5500    2.2507 H   0  0  0  0  0  0  0  0  0  0  0  0
   -1.2343    3.8274    1.7807 H   0  0  0  0  0  0  0  0  0  0  0  0
  1  4  1  0  0  0  0
  1 12  1  0  0  0  0
  2 13  1  0  0  0  0
  2  3  1  0  0  0  0
  4  6  1  0  0  0  0
  5  4  1  0  0  0  0
  6  7  1  0  0  0  0
  6  8  2  0  0  0  0
  8  9  1  0  0  0  0
 10  8  1  0  0  0  0
 10 11  1  0  0  0  0
 12 10  2  0  0  0  0
 13 12  1  0  0  0  0
 13 15  1  0  0  0  0
 14 13  1  0  0  0  0
 16  2  1  0  0  0  0
 16 19  1  0  0  0  0
 17 16  1  0  0  0  0
 18 16  1  0  0  0  0
 19 21  1  0  0  0  0
 19 22  1  0  0  0  0
 20 19  1  0  0  0  0
 22 25  1  0  0  0  0
 22 24  1  0  0  0  0
 22 23  1  0  0  0  0
M  END
