1
 OpenBabel05122313063D

 35 37  0  0  0  0  0  0  0  0999 V2000
    2.0195   -0.2017   -0.2444 N   0  0  0  0  0  2  0  0  0  0  0  0
    6.5922   -0.9937   -1.9206 O   0  0  0  0  0  0  0  0  0  0  0  0
    6.3401   -0.2832   -0.7013 C   0  0  0  0  0  0  0  0  0  0  0  0
    4.8161   -0.2309   -0.5502 C   0  0  0  0  0  0  0  0  0  0  0  0
    3.9855   -1.0120   -1.3693 C   0  0  0  0  0  0  0  0  0  0  0  0
    2.5989   -0.9661   -1.1981 C   0  0  0  0  0  3  0  0  0  0  0  0
    2.8070    0.5582    0.5548 C   0  0  0  0  0  0  0  0  0  0  0  0
    4.1954    0.5752    0.4209 C   0  0  0  0  0  0  0  0  0  0  0  0
    6.8703    1.1609   -0.8049 C   0  0  0  0  0  0  0  0  0  0  0  0
    7.2427    1.9067    0.3309 C   0  0  0  0  0  0  0  0  0  0  0  0
    7.6617    3.2398    0.2001 C   0  0  0  0  0  0  0  0  0  0  0  0
    7.7158    3.8421   -1.0664 C   0  0  0  0  0  0  0  0  0  0  0  0
    7.3486    3.1027   -2.2019 C   0  0  0  0  0  0  0  0  0  0  0  0
    6.9264    1.7718   -2.0715 C   0  0  0  0  0  0  0  0  0  0  0  0
    7.0004   -1.0646    0.4492 C   0  0  0  0  0  0  0  0  0  0  0  0
    6.2725   -1.8981    1.3181 C   0  0  0  0  0  0  0  0  0  0  0  0
    6.9341   -2.6730    2.2843 C   0  0  0  0  0  0  0  0  0  0  0  0
    8.3318   -2.6310    2.3912 C   0  0  0  0  0  0  0  0  0  0  0  0
    9.0684   -1.8062    1.5254 C   0  0  0  0  0  0  0  0  0  0  0  0
    8.4073   -1.0273    0.5660 C   0  0  0  0  0  0  0  0  0  0  0  0
    7.5355   -1.2409   -1.9059 H   0  0  0  0  0  0  0  0  0  0  0  0
    4.4259   -1.6535   -2.1424 H   0  0  0  0  0  0  0  0  0  0  0  0
    1.9093   -1.5265   -1.8449 H   0  0  0  0  0  0  0  0  0  0  0  0
    2.2862    1.1332    1.3326 H   0  0  0  0  0  0  0  0  0  0  0  0
    4.7833    1.2228    1.0852 H   0  0  0  0  0  0  0  0  0  0  0  0
    7.2214    1.4370    1.3259 H   0  0  0  0  0  0  0  0  0  0  0  0
    7.9537    3.8091    1.0957 H   0  0  0  0  0  0  0  0  0  0  0  0
    8.0470    4.8866   -1.1683 H   0  0  0  0  0  0  0  0  0  0  0  0
    7.3885    3.5669   -3.1992 H   0  0  0  0  0  0  0  0  0  0  0  0
    6.6373    1.1816   -2.9529 H   0  0  0  0  0  0  0  0  0  0  0  0
    5.1768   -1.9460    1.2431 H   0  0  0  0  0  0  0  0  0  0  0  0
    6.3474   -3.3154    2.9583 H   0  0  0  0  0  0  0  0  0  0  0  0
    8.8481   -3.2379    3.1502 H   0  0  0  0  0  0  0  0  0  0  0  0
   10.1653   -1.7612    1.6038 H   0  0  0  0  0  0  0  0  0  0  0  0
    8.9914   -0.3641   -0.0921 H   0  0  0  0  0  0  0  0  0  0  0  0
  1  7  1  0  0  0  0
  2 21  1  0  0  0  0
  2  3  1  0  0  0  0
  3  4  1  0  0  0  0
  3 15  1  0  0  0  0
  4  8  1  0  0  0  0
  5  6  1  0  0  0  0
  5  4  2  0  0  0  0
  6  1  1  0  0  0  0
  7 24  1  0  0  0  0
  8  7  2  0  0  0  0
  8 25  1  0  0  0  0
  9  3  1  0  0  0  0
  9 10  1  0  0  0  0
 10 26  1  0  0  0  0
 11 10  2  0  0  0  0
 11 27  1  0  0  0  0
 12 11  1  0  0  0  0
 13 14  1  0  0  0  0
 13 12  2  0  0  0  0
 14  9  2  0  0  0  0
 15 20  2  0  0  0  0
 15 16  1  0  0  0  0
 16 17  2  0  0  0  0
 17 18  1  0  0  0  0
 17 32  1  0  0  0  0
 18 33  1  0  0  0  0
 19 34  1  0  0  0  0
 19 18  2  0  0  0  0
 20 19  1  0  0  0  0
 22  5  1  0  0  0  0
 23  6  1  0  0  0  0
 28 12  1  0  0  0  0
 29 13  1  0  0  0  0
 30 14  1  0  0  0  0
 31 16  1  0  0  0  0
 35 20  1  0  0  0  0
M  END
