1
 OpenBabel05122313063D

 17 17  0  0  1  0  0  0  0  0999 V2000
   -0.8854   -0.1068   -0.0009 N   0  0  0  0  0  2  0  0  0  0  0  0
   -1.6226    1.0383   -0.0003 C   0  0  2  0  0  3  0  0  0  0  0  0
   -3.0267    0.9732    0.0005 C   0  0  0  0  0  0  0  0  0  0  0  0
   -3.5963    1.9143    0.0012 H   0  0  0  0  0  0  0  0  0  0  0  0
   -3.7052   -0.2572    0.0004 C   0  0  0  0  0  0  0  0  0  0  0  0
   -2.9093   -1.4211   -0.0005 C   0  0  0  0  0  0  0  0  0  0  0  0
   -3.3663   -2.4214   -0.0007 H   0  0  0  0  0  0  0  0  0  0  0  0
   -1.5219   -1.3045   -0.0011 C   0  0  0  0  0  0  0  0  0  0  0  0
   -0.8735   -2.1930   -0.0018 H   0  0  0  0  0  0  0  0  0  0  0  0
   -0.8919    2.3475   -0.0007 C   0  0  0  0  0  0  0  0  0  0  0  0
   -1.5955    3.2000    0.0014 H   0  0  0  0  0  0  0  0  0  0  0  0
   -0.2299    2.4247    0.8863 H   0  0  0  0  0  0  0  0  0  0  0  0
   -5.2056   -0.3379    0.0013 C   0  0  0  0  0  0  0  0  0  0  0  0
   -5.6733    0.6643    0.0021 H   0  0  0  0  0  0  0  0  0  0  0  0
   -5.5692   -0.8918    0.8913 H   0  0  0  0  0  0  0  0  0  0  0  0
   -0.2340    2.4260   -0.8906 H   0  0  0  0  0  0  0  0  0  0  0  0
   -5.5703   -0.8909   -0.8888 H   0  0  0  0  0  0  0  0  0  0  0  0
  1  2  1  0  0  0  0
  2 10  1  6  0  0  0
  2  3  1  0  0  0  0
  3  4  1  0  0  0  0
  5  3  2  0  0  0  0
  5 13  1  0  0  0  0
  6  5  1  0  0  0  0
  7  6  1  0  0  0  0
  8  1  1  0  0  0  0
  8  6  2  0  0  0  0
  9  8  1  0  0  0  0
 10 11  1  0  0  0  0
 10 12  1  0  0  0  0
 13 14  1  0  0  0  0
 13 15  1  0  0  0  0
 16 10  1  0  0  0  0
 17 13  1  0  0  0  0
M  END
