1
 OpenBabel05122313063D

 16 15  0  0  0  0  0  0  0  0999 V2000
   -0.9675   -1.3708    0.0606 N   0  0  0  0  0  0  0  0  0  0  0  0
   -0.7544   -2.2921   -0.3485 H   0  0  0  0  0  0  0  0  0  0  0  0
   -1.1868   -1.5576    1.0509 H   0  0  0  0  0  0  0  0  0  0  0  0
   -2.1669   -0.7934   -0.6097 C   0  0  0  0  0  0  0  0  0  0  0  0
   -3.0248   -1.4967   -0.5067 H   0  0  0  0  0  0  0  0  0  0  0  0
   -1.9306   -0.7092   -1.6890 H   0  0  0  0  0  0  0  0  0  0  0  0
   -2.5574    0.5804   -0.0531 C   0  0  0  0  0  0  0  0  0  0  0  0
   -1.6847    1.2537   -0.2168 H   0  0  0  0  0  0  0  0  0  0  0  0
   -3.7517    1.1302   -0.8409 C   0  0  0  0  0  0  0  0  0  0  0  0
   -4.0157    2.1486   -0.4941 H   0  0  0  0  0  0  0  0  0  0  0  0
   -4.6496    0.4897   -0.7094 H   0  0  0  0  0  0  0  0  0  0  0  0
   -3.5337    1.1907   -1.9265 H   0  0  0  0  0  0  0  0  0  0  0  0
   -2.8470    0.5328    1.4522 C   0  0  0  0  0  0  0  0  0  0  0  0
   -3.1547    1.5305    1.8229 H   0  0  0  0  0  0  0  0  0  0  0  0
   -1.9554    0.2410    2.0457 H   0  0  0  0  0  0  0  0  0  0  0  0
   -3.6713   -0.1765    1.6824 H   0  0  0  0  0  0  0  0  0  0  0  0
  1  3  1  0  0  0  0
  2  1  1  0  0  0  0
  4  5  1  0  0  0  0
  4  7  1  0  0  0  0
  4  1  1  0  0  0  0
  6  4  1  0  0  0  0
  7 13  1  0  0  0  0
  8  7  1  0  0  0  0
  9 11  1  0  0  0  0
  9 10  1  0  0  0  0
  9  7  1  0  0  0  0
 12  9  1  0  0  0  0
 13 16  1  0  0  0  0
 13 14  1  0  0  0  0
 13 15  1  0  0  0  0
M  END
