1
 OpenBabel05122313063D

 14 14  0  0  1  0  0  0  0  0999 V2000
    2.5995    1.8565    0.3208 N   0  0  0  0  0  2  0  0  0  0  0  0
    3.9758    3.5164   -0.2353 N   0  0  0  0  0  0  0  0  0  0  0  0
    3.7206    0.2632   -1.8334 O   0  0  0  0  0  0  0  0  0  0  0  0
    3.5558    2.2391   -0.5431 C   0  0  1  0  0  3  0  0  0  0  0  0
    3.2561    3.9296    0.8589 C   0  0  0  0  0  0  0  0  0  0  0  0
    3.3993    4.9202    1.3036 H   0  0  0  0  0  0  0  0  0  0  0  0
    2.3994    2.8829    1.1915 C   0  0  0  0  0  0  0  0  0  0  0  0
    1.6354    2.7986    1.9764 H   0  0  0  0  0  0  0  0  0  0  0  0
    4.0815    1.4126   -1.6333 C   0  0  0  0  0  0  0  0  0  0  0  0
    4.8573    1.9087   -2.2852 H   0  0  0  0  0  0  0  0  0  0  0  0
    4.9841    4.3005   -0.9391 C   0  0  0  0  0  0  0  0  0  0  0  0
    5.0808    5.2817   -0.4417 H   0  0  0  0  0  0  0  0  0  0  0  0
    4.6859    4.4661   -1.9923 H   0  0  0  0  0  0  0  0  0  0  0  0
    5.9672    3.7921   -0.9140 H   0  0  0  0  0  0  0  0  0  0  0  0
  1  7  1  0  0  0  0
  2  5  1  0  0  0  0
  3  9  2  0  0  0  0
  4  9  1  1  0  0  0
  4  2  1  0  0  0  0
  4  1  1  0  0  0  0
  5  7  2  0  0  0  0
  5  6  1  0  0  0  0
  7  8  1  0  0  0  0
 10  9  1  0  0  0  0
 11 14  1  0  0  0  0
 11 12  1  0  0  0  0
 11  2  1  0  0  0  0
 13 11  1  0  0  0  0
M  END
