1
 OpenBabel05122313063D

 43 43  0  0  0  0  0  0  0  0999 V2000
    0.5325    1.1183    0.0001 N   0  0  0  0  0  2  0  0  0  0  0  0
   -0.6917    0.6336    0.0000 B   0  0  0  0  0  2  0  0  0  0  0  0
   -1.9960    0.1889   -0.0000 N   0  0  0  0  0  0  0  0  0  0  0  0
    0.9241    2.5422    0.0002 C   0  0  0  0  0  0  0  0  0  0  0  0
   -0.3419    3.4221    0.0002 C   0  0  0  0  0  0  0  0  0  0  0  0
    1.7444    2.8475    1.2653 C   0  0  0  0  0  0  0  0  0  0  0  0
    1.7444    2.8477   -1.2649 C   0  0  0  0  0  0  0  0  0  0  0  0
   -2.7039   -0.0251    1.3125 C   0  0  0  0  0  0  0  0  0  0  0  0
   -3.4900   -1.3526    1.2485 C   0  0  0  0  0  0  0  0  0  0  0  0
   -4.3610   -1.4803   -0.0002 C   0  0  0  0  0  0  0  0  0  0  0  0
   -3.4901   -1.3522   -1.2489 C   0  0  0  0  0  0  0  0  0  0  0  0
   -2.7040   -0.0248   -1.3126 C   0  0  0  0  0  0  0  0  0  0  0  0
   -1.6477   -0.1297   -2.4222 C   0  0  0  0  0  0  0  0  0  0  0  0
   -3.6311    1.1628   -1.6427 C   0  0  0  0  0  0  0  0  0  0  0  0
   -1.6475   -0.1305    2.4221 C   0  0  0  0  0  0  0  0  0  0  0  0
   -3.6310    1.1624    1.6431 C   0  0  0  0  0  0  0  0  0  0  0  0
   -0.0754    4.4976    0.0003 H   0  0  0  0  0  0  0  0  0  0  0  0
   -0.9612    3.2247   -0.8989 H   0  0  0  0  0  0  0  0  0  0  0  0
   -0.9612    3.2246    0.8994 H   0  0  0  0  0  0  0  0  0  0  0  0
    1.1584    2.6124    2.1763 H   0  0  0  0  0  0  0  0  0  0  0  0
    2.6747    2.2511    1.2954 H   0  0  0  0  0  0  0  0  0  0  0  0
    2.0239    3.9196    1.2960 H   0  0  0  0  0  0  0  0  0  0  0  0
    2.0240    3.9198   -1.2954 H   0  0  0  0  0  0  0  0  0  0  0  0
    2.6747    2.2513   -1.2951 H   0  0  0  0  0  0  0  0  0  0  0  0
    1.1584    2.6127   -2.1759 H   0  0  0  0  0  0  0  0  0  0  0  0
   -4.8779   -2.4616   -0.0003 H   0  0  0  0  0  0  0  0  0  0  0  0
   -4.0979   -1.4410    2.1727 H   0  0  0  0  0  0  0  0  0  0  0  0
   -2.7572   -2.1868    1.2602 H   0  0  0  0  0  0  0  0  0  0  0  0
   -5.1646   -0.7127   -0.0000 H   0  0  0  0  0  0  0  0  0  0  0  0
   -2.7573   -2.1864   -1.2609 H   0  0  0  0  0  0  0  0  0  0  0  0
   -4.0981   -1.4403   -2.1731 H   0  0  0  0  0  0  0  0  0  0  0  0
   -2.1481   -0.3030   -3.3946 H   0  0  0  0  0  0  0  0  0  0  0  0
   -0.9554   -0.9727   -2.2407 H   0  0  0  0  0  0  0  0  0  0  0  0
   -1.0495    0.7995   -2.5111 H   0  0  0  0  0  0  0  0  0  0  0  0
   -4.5109    1.2240   -0.9775 H   0  0  0  0  0  0  0  0  0  0  0  0
   -4.0073    1.0640   -2.6804 H   0  0  0  0  0  0  0  0  0  0  0  0
   -3.0777    2.1195   -1.5662 H   0  0  0  0  0  0  0  0  0  0  0  0
   -2.1479   -0.3040    3.3945 H   0  0  0  0  0  0  0  0  0  0  0  0
   -0.9553   -0.9734    2.2403 H   0  0  0  0  0  0  0  0  0  0  0  0
   -1.0493    0.7988    2.5113 H   0  0  0  0  0  0  0  0  0  0  0  0
   -4.5108    1.2237    0.9779 H   0  0  0  0  0  0  0  0  0  0  0  0
   -4.0071    1.0632    2.6807 H   0  0  0  0  0  0  0  0  0  0  0  0
   -3.0776    2.1191    1.5668 H   0  0  0  0  0  0  0  0  0  0  0  0
  1  4  1  0  0  0  0
  2  1  1  0  0  0  0
  3  2  1  0  0  0  0
  3  8  1  0  0  0  0
  4  5  1  0  0  0  0
  4  6  1  0  0  0  0
  5 17  1  0  0  0  0
  5 19  1  0  0  0  0
  6 21  1  0  0  0  0
  6 22  1  0  0  0  0
  6 20  1  0  0  0  0
  7  4  1  0  0  0  0
  8 16  1  0  0  0  0
  8 15  1  0  0  0  0
  9 28  1  0  0  0  0
  9  8  1  0  0  0  0
  9 27  1  0  0  0  0
 10 29  1  0  0  0  0
 10  9  1  0  0  0  0
 11 10  1  0  0  0  0
 12 11  1  0  0  0  0
 12  3  1  0  0  0  0
 13 33  1  0  0  0  0
 13 12  1  0  0  0  0
 14 37  1  0  0  0  0
 14 12  1  0  0  0  0
 14 35  1  0  0  0  0
 15 40  1  0  0  0  0
 15 38  1  0  0  0  0
 16 42  1  0  0  0  0
 18  5  1  0  0  0  0
 23  7  1  0  0  0  0
 24  7  1  0  0  0  0
 25  7  1  0  0  0  0
 26 10  1  0  0  0  0
 30 11  1  0  0  0  0
 31 11  1  0  0  0  0
 32 13  1  0  0  0  0
 34 13  1  0  0  0  0
 36 14  1  0  0  0  0
 39 15  1  0  0  0  0
 41 16  1  0  0  0  0
 43 16  1  0  0  0  0
M  END
