2
 OpenBabel05122313063D

 33 34  0  0  0  0  0  0  0  0999 V2000
   -1.3184    0.0688    1.4329 P   0  0  0  0  0  0  0  0  0  0  0  0
    0.3441   -0.1366    0.9141 N   0  0  0  0  0  2  0  0  0  0  0  0
    1.2993   -0.5642    1.8583 N   0  0  0  0  0  0  0  0  0  0  0  0
    1.6128    0.4266    2.8951 C   0  0  0  0  0  0  0  0  0  0  0  0
    1.0720   -1.9004    2.4211 C   0  0  0  0  0  0  0  0  0  0  0  0
   -1.7463    1.6513    0.5800 C   0  0  0  0  0  0  0  0  0  0  0  0
   -1.1393    2.8161    1.1007 C   0  0  0  0  0  0  0  0  0  0  0  0
   -1.3782    4.0672    0.5166 C   0  0  0  0  0  0  0  0  0  0  0  0
   -2.2461    4.1758   -0.5838 C   0  0  0  0  0  0  0  0  0  0  0  0
   -2.8721    3.0267   -1.0910 C   0  0  0  0  0  0  0  0  0  0  0  0
   -2.6255    1.7708   -0.5138 C   0  0  0  0  0  0  0  0  0  0  0  0
   -2.2302   -1.2081    0.4633 C   0  0  0  0  0  0  0  0  0  0  0  0
   -1.5757   -2.2258   -0.2604 C   0  0  0  0  0  0  0  0  0  0  0  0
   -2.3203   -3.2305   -0.8984 C   0  0  0  0  0  0  0  0  0  0  0  0
   -3.7216   -3.2336   -0.8223 C   0  0  0  0  0  0  0  0  0  0  0  0
   -4.3800   -2.2313   -0.0903 C   0  0  0  0  0  0  0  0  0  0  0  0
   -3.6402   -1.2326    0.5588 C   0  0  0  0  0  0  0  0  0  0  0  0
    1.8398    1.3953    2.4167 H   0  0  0  0  0  0  0  0  0  0  0  0
    0.7521    0.5306    3.5944 H   0  0  0  0  0  0  0  0  0  0  0  0
    2.5087    0.0977    3.4543 H   0  0  0  0  0  0  0  0  0  0  0  0
    0.9124   -2.6248    1.6043 H   0  0  0  0  0  0  0  0  0  0  0  0
    0.1924   -1.8846    3.1045 H   0  0  0  0  0  0  0  0  0  0  0  0
    1.9706   -2.2090    2.9885 H   0  0  0  0  0  0  0  0  0  0  0  0
   -0.4588    2.7351    1.9635 H   0  0  0  0  0  0  0  0  0  0  0  0
   -0.8882    4.9641    0.9253 H   0  0  0  0  0  0  0  0  0  0  0  0
   -2.4365    5.1577   -1.0427 H   0  0  0  0  0  0  0  0  0  0  0  0
   -3.5525    3.1045   -1.9527 H   0  0  0  0  0  0  0  0  0  0  0  0
   -3.1108    0.8750   -0.9296 H   0  0  0  0  0  0  0  0  0  0  0  0
   -0.4772   -2.2305   -0.3298 H   0  0  0  0  0  0  0  0  0  0  0  0
   -1.7947   -4.0172   -1.4612 H   0  0  0  0  0  0  0  0  0  0  0  0
   -4.3021   -4.0214   -1.3258 H   0  0  0  0  0  0  0  0  0  0  0  0
   -5.4783   -2.2317   -0.0164 H   0  0  0  0  0  0  0  0  0  0  0  0
   -4.1650   -0.4618    1.1466 H   0  0  0  0  0  0  0  0  0  0  0  0
  2  1  1  0  0  0  0
  2  3  1  0  0  0  0
  3  5  1  0  0  0  0
  3  4  1  0  0  0  0
  4 20  1  0  0  0  0
  4 19  1  0  0  0  0
  5 23  1  0  0  0  0
  5 22  1  0  0  0  0
  6  7  1  0  0  0  0
  6  1  1  0  0  0  0
  7 24  1  0  0  0  0
  8 25  1  0  0  0  0
  8  7  2  0  0  0  0
  9  8  1  0  0  0  0
 10  9  2  0  0  0  0
 10 11  1  0  0  0  0
 11  6  2  0  0  0  0
 12 17  1  0  0  0  0
 12  1  1  0  0  0  0
 13 12  2  0  0  0  0
 14 15  2  0  0  0  0
 14 13  1  0  0  0  0
 15 16  1  0  0  0  0
 16 32  1  0  0  0  0
 16 17  2  0  0  0  0
 17 33  1  0  0  0  0
 18  4  1  0  0  0  0
 21  5  1  0  0  0  0
 26  9  1  0  0  0  0
 27 10  1  0  0  0  0
 28 11  1  0  0  0  0
 29 13  1  0  0  0  0
 30 14  1  0  0  0  0
 31 15  1  0  0  0  0
M  END
