2
 OpenBabel05122313063D

 16 16  0  0  1  0  0  0  0  0999 V2000
    0.1661   -2.2801   -0.6016 S   0  0  0  0  0  1  0  0  0  0  0  0
   -1.0688    0.3726   -0.0062 N   0  0  0  0  0  2  0  0  0  0  0  0
   -3.8431    0.8374    0.2360 N   0  0  0  0  0  0  0  0  0  0  0  0
   -4.8304    0.9811    0.4649 H   0  0  0  0  0  0  0  0  0  0  0  0
   -0.7292    2.5823    0.5755 O   0  0  0  0  0  0  0  0  0  0  0  0
   -4.2841   -1.3803   -0.0573 O   0  0  0  0  0  0  0  0  0  0  0  0
   -1.5780   -2.0259   -0.1312 C   0  0  0  0  0  0  0  0  0  0  0  0
   -2.2160   -2.7771   -0.6332 H   0  0  0  0  0  0  0  0  0  0  0  0
   -1.7119   -2.1592    0.9652 H   0  0  0  0  0  0  0  0  0  0  0  0
   -2.0257   -0.6234   -0.5226 C   0  0  1  0  0  0  0  0  0  0  0  0
   -2.0346   -0.5763   -1.6428 H   0  0  0  0  0  0  0  0  0  0  0  0
   -1.4752    1.6449    0.2490 C   0  0  0  0  0  0  0  0  0  0  0  0
   -2.9652    1.9731    0.0739 C   0  0  0  0  0  0  0  0  0  0  0  0
   -3.0791    2.4574   -0.9278 H   0  0  0  0  0  0  0  0  0  0  0  0
   -3.1977    2.7506    0.8263 H   0  0  0  0  0  0  0  0  0  0  0  0
   -3.4946   -0.4386   -0.0893 C   0  0  0  0  0  0  0  0  0  0  0  0
  1  7  1  0  0  0  0
  2 12  1  0  0  0  0
  3  4  1  0  0  0  0
  7  9  1  0  0  0  0
  8  7  1  0  0  0  0
 10 11  1  6  0  0  0
 10  7  1  0  0  0  0
 10 16  1  0  0  0  0
 10  2  1  0  0  0  0
 12  5  2  0  0  0  0
 13  3  1  0  0  0  0
 13 12  1  0  0  0  0
 13 15  1  0  0  0  0
 14 13  1  0  0  0  0
 16  6  2  0  0  0  0
 16  3  1  0  0  0  0
M  END
