3
 OpenBabel05122313063D

 32 32  0  0  0  0  0  0  0  0999 V2000
   -4.4435   -1.8014   -0.5471 Br  0  0  0  0  0  0  0  0  0  0  0  0
   -1.1349    0.4996   -0.9572 N   0  0  0  0  0  0  0  0  0  0  0  0
   -1.8255    1.2316   -0.0368 N   0  0  0  0  0  2  0  0  0  0  0  0
   -1.3088   -1.5990   -2.2861 C   0  0  0  0  0  0  0  0  0  0  0  0
   -3.9567    1.2060    1.3207 C   0  0  0  0  0  0  0  0  0  0  0  0
   -1.8282   -0.6040   -1.2625 C   0  0  0  0  0  0  0  0  0  0  0  0
   -2.9990    0.6317    0.2915 C   0  0  0  0  0  0  0  0  0  0  0  0
   -3.0361   -0.5448   -0.4965 C   0  0  0  0  0  0  0  0  0  0  0  0
   -3.3998    2.5290    1.8774 C   0  0  0  0  0  0  0  0  0  0  0  0
   -2.4191    2.3914    2.3722 H   0  0  0  0  0  0  0  0  0  0  0  0
   -4.1077    2.9401    2.6239 H   0  0  0  0  0  0  0  0  0  0  0  0
   -3.2693    3.2852    1.0782 H   0  0  0  0  0  0  0  0  0  0  0  0
   -5.3272    1.4757    0.6594 C   0  0  0  0  0  0  0  0  0  0  0  0
   -5.2280    2.2087   -0.1661 H   0  0  0  0  0  0  0  0  0  0  0  0
   -6.0284    1.8949    1.4095 H   0  0  0  0  0  0  0  0  0  0  0  0
   -5.7767    0.5513    0.2485 H   0  0  0  0  0  0  0  0  0  0  0  0
   -4.1099    0.1952    2.4807 C   0  0  0  0  0  0  0  0  0  0  0  0
   -3.1322    0.0065    2.9683 H   0  0  0  0  0  0  0  0  0  0  0  0
   -4.5143   -0.7742    2.1298 H   0  0  0  0  0  0  0  0  0  0  0  0
   -4.8039    0.6013    3.2445 H   0  0  0  0  0  0  0  0  0  0  0  0
    0.1219   -1.2003   -2.6991 C   0  0  0  0  0  0  0  0  0  0  0  0
    0.1502   -0.1817   -3.1329 H   0  0  0  0  0  0  0  0  0  0  0  0
    0.5031   -1.9136   -3.4567 H   0  0  0  0  0  0  0  0  0  0  0  0
    0.8119   -1.2171   -1.8315 H   0  0  0  0  0  0  0  0  0  0  0  0
   -1.2800   -3.0212   -1.6866 C   0  0  0  0  0  0  0  0  0  0  0  0
   -0.6190   -3.0612   -0.7981 H   0  0  0  0  0  0  0  0  0  0  0  0
   -0.8864   -3.7364   -2.4371 H   0  0  0  0  0  0  0  0  0  0  0  0
   -2.2870   -3.3636   -1.3812 H   0  0  0  0  0  0  0  0  0  0  0  0
   -2.2324   -1.5662   -3.5254 C   0  0  0  0  0  0  0  0  0  0  0  0
   -2.2456   -0.5555   -3.9800 H   0  0  0  0  0  0  0  0  0  0  0  0
   -3.2729   -1.8411   -3.2625 H   0  0  0  0  0  0  0  0  0  0  0  0
   -1.8691   -2.2849   -4.2882 H   0  0  0  0  0  0  0  0  0  0  0  0
  1  8  1  0  0  0  0
  2  3  1  0  0  0  0
  3  7  1  0  0  0  0
  4 25  1  0  0  0  0
  4  6  1  0  0  0  0
  5  9  1  0  0  0  0
  5 17  1  0  0  0  0
  6  2  2  0  0  0  0
  6  8  1  0  0  0  0
  7  5  1  0  0  0  0
  8  7  2  0  0  0  0
  9 10  1  0  0  0  0
  9 11  1  0  0  0  0
 12  9  1  0  0  0  0
 13  5  1  0  0  0  0
 13 15  1  0  0  0  0
 14 13  1  0  0  0  0
 16 13  1  0  0  0  0
 17 18  1  0  0  0  0
 17 20  1  0  0  0  0
 19 17  1  0  0  0  0
 21  4  1  0  0  0  0
 21 24  1  0  0  0  0
 22 21  1  0  0  0  0
 23 21  1  0  0  0  0
 25 28  1  0  0  0  0
 25 26  1  0  0  0  0
 27 25  1  0  0  0  0
 29 31  1  0  0  0  0
 29  4  1  0  0  0  0
 30 29  1  0  0  0  0
 32 29  1  0  0  0  0
M  END
