3
 OpenBabel05122313063D

 23 24  0  0  0  0  0  0  0  0999 V2000
   -0.9825    2.1344    0.6422 N   0  0  0  0  0  0  0  0  0  0  0  0
    0.8529    3.2206   -0.0243 O   0  0  0  0  0  0  0  0  0  0  0  0
   -1.8016   -0.6663   -0.1120 N   0  0  0  0  0  2  0  0  0  0  0  0
    0.9437    2.1059    1.9596 O   0  0  0  0  0  0  0  0  0  0  0  0
   -2.4258   -1.6038   -0.8591 C   0  0  0  0  0  3  0  0  0  0  0  0
   -1.7694   -2.2466   -1.4624 H   0  0  0  0  0  0  0  0  0  0  0  0
   -3.8156   -1.7471   -0.8583 C   0  0  0  0  0  0  0  0  0  0  0  0
   -4.2804   -2.5295   -1.4738 H   0  0  0  0  0  0  0  0  0  0  0  0
   -4.5786   -0.8794   -0.0669 C   0  0  0  0  0  0  0  0  0  0  0  0
   -5.6755   -0.9599   -0.0395 H   0  0  0  0  0  0  0  0  0  0  0  0
   -3.9205    0.1045    0.6812 C   0  0  0  0  0  0  0  0  0  0  0  0
   -4.4856    0.8174    1.2989 H   0  0  0  0  0  0  0  0  0  0  0  0
   -2.5198    0.1988    0.6518 C   0  0  0  0  0  0  0  0  0  0  0  0
   -1.7979    1.2649    1.4546 C   0  0  0  0  0  0  0  0  0  0  0  0
   -2.5639    1.8416    2.0208 H   0  0  0  0  0  0  0  0  0  0  0  0
   -1.1159    0.7762    2.1860 H   0  0  0  0  0  0  0  0  0  0  0  0
   -1.4158    2.7606   -0.5911 C   0  0  0  0  0  0  0  0  0  0  0  0
   -2.1916    3.5387   -0.4048 H   0  0  0  0  0  0  0  0  0  0  0  0
   -1.8185    2.0109   -1.3052 H   0  0  0  0  0  0  0  0  0  0  0  0
   -0.0833    3.3418   -1.1141 C   0  0  0  0  0  0  0  0  0  0  0  0
    0.2939    2.7392   -1.9645 H   0  0  0  0  0  0  0  0  0  0  0  0
   -0.1527    4.4096   -1.3978 H   0  0  0  0  0  0  0  0  0  0  0  0
    0.3230    2.4389    0.9685 C   0  0  0  0  0  0  0  0  0  0  0  0
  1 23  1  0  0  0  0
  1 14  1  0  0  0  0
  2 23  1  0  0  0  0
  3 13  1  0  0  0  0
  5  7  1  0  0  0  0
  5  3  1  0  0  0  0
  6  5  1  0  0  0  0
  7  9  2  0  0  0  0
  8  7  1  0  0  0  0
  9 10  1  0  0  0  0
  9 11  1  0  0  0  0
 11 12  1  0  0  0  0
 13 11  2  0  0  0  0
 13 14  1  0  0  0  0
 14 15  1  0  0  0  0
 14 16  1  0  0  0  0
 17 18  1  0  0  0  0
 17  1  1  0  0  0  0
 19 17  1  0  0  0  0
 20 17  1  0  0  0  0
 20  2  1  0  0  0  0
 21 20  1  0  0  0  0
 22 20  1  0  0  0  0
 23  4  2  0  0  0  0
M  END
