1
 OpenBabel05122313063D

 28 29  0  0  1  0  0  0  0  0999 V2000
   -1.4566    1.3921   -0.1331 N   0  0  0  0  0  2  0  0  0  0  0  0
   -1.2037    2.7154   -0.0044 N   0  0  0  0  0  0  0  0  0  0  0  0
    0.1680    3.2166    0.0123 C   0  0  0  0  0  0  0  0  0  0  0  0
    0.7562    3.4273   -1.3795 C   0  0  0  0  0  0  0  0  0  0  0  0
   -2.3679    3.4278    0.0799 C   0  0  1  0  0  3  0  0  0  0  0  0
   -2.3954    4.9148    0.2043 C   0  0  0  0  0  0  0  0  0  0  0  0
   -3.4087    2.4983    0.0195 C   0  0  0  0  0  0  0  0  0  0  0  0
   -2.7981    1.2276   -0.1163 C   0  0  0  0  0  0  0  0  0  0  0  0
   -3.4369   -0.0971   -0.2029 C   0  0  0  0  0  0  0  0  0  0  0  0
   -3.0175   -1.0479   -1.1598 C   0  0  0  0  0  0  0  0  0  0  0  0
   -3.6368   -2.3046   -1.2183 C   0  0  0  0  0  0  0  0  0  0  0  0
   -4.6779   -2.6281   -0.3324 C   0  0  0  0  0  0  0  0  0  0  0  0
   -5.1078   -1.6807    0.6109 C   0  0  0  0  0  0  0  0  0  0  0  0
   -4.4940   -0.4220    0.6740 C   0  0  0  0  0  0  0  0  0  0  0  0
   -4.4816    2.7113    0.0406 H   0  0  0  0  0  0  0  0  0  0  0  0
    0.7609    2.4740    0.5830 H   0  0  0  0  0  0  0  0  0  0  0  0
   -2.2060   -0.7880   -1.8581 H   0  0  0  0  0  0  0  0  0  0  0  0
    0.1579    4.1528    0.6043 H   0  0  0  0  0  0  0  0  0  0  0  0
    0.2030    4.2051   -1.9438 H   0  0  0  0  0  0  0  0  0  0  0  0
   -4.8127    0.3126    1.4288 H   0  0  0  0  0  0  0  0  0  0  0  0
   -3.3062   -3.0360   -1.9722 H   0  0  0  0  0  0  0  0  0  0  0  0
   -3.4423    5.2685    0.2206 H   0  0  0  0  0  0  0  0  0  0  0  0
    1.8137    3.7447   -1.2839 H   0  0  0  0  0  0  0  0  0  0  0  0
   -1.8799    5.4128   -0.6427 H   0  0  0  0  0  0  0  0  0  0  0  0
    0.7298    2.4787   -1.9532 H   0  0  0  0  0  0  0  0  0  0  0  0
   -5.9219   -1.9267    1.3095 H   0  0  0  0  0  0  0  0  0  0  0  0
   -1.9079    5.2598    1.1403 H   0  0  0  0  0  0  0  0  0  0  0  0
   -5.1604   -3.6164   -0.3815 H   0  0  0  0  0  0  0  0  0  0  0  0
  1  8  1  0  0  0  0
  1  2  1  0  0  0  0
  2  3  1  0  0  0  0
  2  5  1  0  0  0  0
  3 16  1  0  0  0  0
  3 18  1  0  0  0  0
  4 23  1  0  0  0  0
  4  3  1  0  0  0  0
  5  6  1  6  0  0  0
  6 22  1  0  0  0  0
  6 27  1  0  0  0  0
  7 15  1  0  0  0  0
  7  5  1  0  0  0  0
  8  7  2  0  0  0  0
  9  8  1  0  0  0  0
  9 14  1  0  0  0  0
 10  9  2  0  0  0  0
 11 10  1  0  0  0  0
 11 12  2  0  0  0  0
 12 13  1  0  0  0  0
 13 14  2  0  0  0  0
 13 26  1  0  0  0  0
 14 20  1  0  0  0  0
 17 10  1  0  0  0  0
 19  4  1  0  0  0  0
 21 11  1  0  0  0  0
 24  6  1  0  0  0  0
 25  4  1  0  0  0  0
 28 12  1  0  0  0  0
M  END
