1
 OpenBabel05122313063D

 31 31  0  0  0  0  0  0  0  0999 V2000
    1.5640    0.1767   -0.4493 N   0  0  0  0  0  2  0  0  0  0  0  0
    0.9544    0.9104   -0.8257 H   0  0  0  0  0  0  0  0  0  0  0  0
    1.6126    3.5433   -1.1218 C   0  0  0  0  0  0  0  0  0  0  0  0
    1.3123    2.7595   -1.8483 H   0  0  0  0  0  0  0  0  0  0  0  0
    2.4389    4.1167   -1.5901 H   0  0  0  0  0  0  0  0  0  0  0  0
    0.7526    4.2312   -0.9837 H   0  0  0  0  0  0  0  0  0  0  0  0
    4.7100   -2.7822   -0.8425 C   0  0  0  0  0  0  0  0  0  0  0  0
    5.0316   -2.8068    0.2193 H   0  0  0  0  0  0  0  0  0  0  0  0
    5.6109   -2.5881   -1.4621 H   0  0  0  0  0  0  0  0  0  0  0  0
    4.3427   -3.7934   -1.1101 H   0  0  0  0  0  0  0  0  0  0  0  0
    5.5879    1.4090   -0.1047 C   0  0  0  0  0  0  0  0  0  0  0  0
    6.6378    1.7225   -0.0017 H   0  0  0  0  0  0  0  0  0  0  0  0
    2.0747    2.9410    0.2207 C   0  0  0  0  0  0  0  0  0  0  0  0
    1.2212    2.3615    0.6408 H   0  0  0  0  0  0  0  0  0  0  0  0
    5.2778    0.0873   -0.4553 C   0  0  0  0  0  0  0  0  0  0  0  0
    6.0954   -0.6254   -0.6375 H   0  0  0  0  0  0  0  0  0  0  0  0
    4.5540    2.3287    0.1119 C   0  0  0  0  0  0  0  0  0  0  0  0
    4.8020    3.3644    0.3884 H   0  0  0  0  0  0  0  0  0  0  0  0
    3.6084   -1.7460   -1.0828 C   0  0  0  0  0  0  0  0  0  0  0  0
    2.7119   -2.0905   -0.5278 H   0  0  0  0  0  0  0  0  0  0  0  0
    3.2064    1.9454   -0.0029 C   0  0  0  0  0  0  0  0  0  0  0  0
    3.9472   -0.3431   -0.5953 C   0  0  0  0  0  0  0  0  0  0  0  0
    2.8958    0.5951   -0.3563 C   0  0  0  0  0  0  0  0  0  0  0  0
    2.4028    4.0513    1.2260 C   0  0  0  0  0  0  0  0  0  0  0  0
    1.4998    4.6598    1.4380 H   0  0  0  0  0  0  0  0  0  0  0  0
    3.1780    4.7452    0.8401 H   0  0  0  0  0  0  0  0  0  0  0  0
    2.7708    3.6354    2.1855 H   0  0  0  0  0  0  0  0  0  0  0  0
    3.1913   -1.7083   -2.5637 C   0  0  0  0  0  0  0  0  0  0  0  0
    2.3454   -1.0086   -2.7085 H   0  0  0  0  0  0  0  0  0  0  0  0
    2.8602   -2.7120   -2.9000 H   0  0  0  0  0  0  0  0  0  0  0  0
    4.0355   -1.3790   -3.2052 H   0  0  0  0  0  0  0  0  0  0  0  0
  1 23  1  0  0  0  0
  2  1  1  0  0  0  0
  3  6  1  0  0  0  0
  3 13  1  0  0  0  0
  4  3  1  0  0  0  0
  5  3  1  0  0  0  0
  7  8  1  0  0  0  0
  9  7  1  0  0  0  0
 10  7  1  0  0  0  0
 11 12  1  0  0  0  0
 11 17  1  0  0  0  0
 13 14  1  0  0  0  0
 13 24  1  0  0  0  0
 15 11  2  0  0  0  0
 16 15  1  0  0  0  0
 17 18  1  0  0  0  0
 19  7  1  0  0  0  0
 19 22  1  0  0  0  0
 19 20  1  0  0  0  0
 21 17  2  0  0  0  0
 21 13  1  0  0  0  0
 22 15  1  0  0  0  0
 22 23  2  0  0  0  0
 23 21  1  0  0  0  0
 24 25  1  0  0  0  0
 24 27  1  0  0  0  0
 26 24  1  0  0  0  0
 28 19  1  0  0  0  0
 29 28  1  0  0  0  0
 30 28  1  0  0  0  0
 31 28  1  0  0  0  0
M  END
