2
 OpenBabel05122313063D

 14 15  0  0  0  0  0  0  0  0999 V2000
    0.6143    0.9873   -1.6792 S   0  0  0  0  0  0  0  0  0  0  0  0
    1.1152   -0.4801    0.9594 N   0  0  0  0  0  2  0  0  0  0  0  0
    3.3457    1.3215   -1.2609 N   0  0  0  0  0  0  0  0  0  0  0  0
    4.5685    0.3685    0.5669 N   0  0  0  0  0  0  0  0  0  0  0  0
    3.0255   -0.8985    2.0489 N   0  0  0  0  0  0  0  0  0  0  0  0
    2.1572    0.1434    0.3284 C   0  0  0  0  0  0  0  0  0  0  0  0
    2.0962    0.8571   -0.8808 C   0  0  0  0  0  0  0  0  0  0  0  0
    4.5015    1.0668   -0.5438 C   0  0  0  0  0  0  0  0  0  0  0  0
    3.3669   -0.0952    0.9824 C   0  0  0  0  0  0  0  0  0  0  0  0
    1.6640   -1.1156    1.9964 C   0  0  0  0  0  3  0  0  0  0  0  0
    3.4248    1.8467   -2.1398 H   0  0  0  0  0  0  0  0  0  0  0  0
    5.4208    1.4952   -0.9755 H   0  0  0  0  0  0  0  0  0  0  0  0
    1.1309   -1.7472    2.7153 H   0  0  0  0  0  0  0  0  0  0  0  0
    3.6683   -1.2809    2.7486 H   0  0  0  0  0  0  0  0  0  0  0  0
  1  7  2  0  0  0  0
  2 10  1  0  0  0  0
  3  7  1  0  0  0  0
  3  8  1  0  0  0  0
  4  9  1  0  0  0  0
  5 14  1  0  0  0  0
  6  2  1  0  0  0  0
  6  9  2  0  0  0  0
  7  6  1  0  0  0  0
  8  4  2  0  0  0  0
  9  5  1  0  0  0  0
 10  5  1  0  0  0  0
 10 13  1  0  0  0  0
 11  3  1  0  0  0  0
 12  8  1  0  0  0  0
M  END
