2
 OpenBabel05122313063D

 36 38  0  0  1  0  0  0  0  0999 V2000
   -0.2296    2.2934    0.0578 O   0  0  0  0  0  0  0  0  0  0  0  0
   -0.6206   -0.8136    0.0766 N   0  0  0  0  0  2  0  0  0  0  0  0
    1.2991   -2.0983   -0.3417 N   0  0  0  0  0  0  0  0  0  0  0  0
   -0.1059   -2.1979    0.0684 C   0  0  0  0  0  0  0  0  0  0  0  0
    1.7258   -0.7989    0.1292 C   0  0  2  0  0  0  0  0  0  0  0  0
    0.4287   -0.0495    0.1010 C   0  0  1  0  0  3  0  0  0  0  0  0
    0.7146    1.3638   -0.1192 C   0  0  0  0  0  0  0  0  0  0  0  0
    2.0065    1.4617   -0.5806 C   0  0  0  0  0  0  0  0  0  0  0  0
    2.6856    0.1059   -0.7090 C   0  0  1  0  0  0  0  0  0  0  0  0
    2.1349   -3.2299   -0.0018 C   0  0  0  0  0  0  0  0  0  0  0  0
    0.0794    3.6382   -0.3348 C   0  0  0  0  0  0  0  0  0  0  0  0
   -1.1510    4.4882   -0.0952 C   0  0  0  0  0  0  0  0  0  0  0  0
    4.1361    0.0607   -0.2817 C   0  0  0  0  0  0  0  0  0  0  0  0
    5.0816   -0.6747   -1.0227 C   0  0  0  0  0  0  0  0  0  0  0  0
    6.4163   -0.7613   -0.5982 C   0  0  0  0  0  0  0  0  0  0  0  0
    6.8249   -0.1101    0.5764 C   0  0  0  0  0  0  0  0  0  0  0  0
    5.8915    0.6283    1.3219 C   0  0  0  0  0  0  0  0  0  0  0  0
    4.5582    0.7123    0.8950 C   0  0  0  0  0  0  0  0  0  0  0  0
   -0.2373   -2.6292    1.0986 H   0  0  0  0  0  0  0  0  0  0  0  0
   -0.6958   -2.8245   -0.6321 H   0  0  0  0  0  0  0  0  0  0  0  0
    2.1203   -0.8168    1.1852 H   0  0  0  0  0  0  0  0  0  0  0  0
    2.4991    2.3906   -0.8976 H   0  0  0  0  0  0  0  0  0  0  0  0
    2.6081   -0.2488   -1.7617 H   0  0  0  0  0  0  0  0  0  0  0  0
    2.2239   -3.3980    1.1039 H   0  0  0  0  0  0  0  0  0  0  0  0
    1.7273   -4.1545   -0.4581 H   0  0  0  0  0  0  0  0  0  0  0  0
    3.1556   -3.0768   -0.4041 H   0  0  0  0  0  0  0  0  0  0  0  0
    0.9518    3.9954    0.2596 H   0  0  0  0  0  0  0  0  0  0  0  0
    0.3792    3.6388   -1.4077 H   0  0  0  0  0  0  0  0  0  0  0  0
   -1.9926    4.1383   -0.7237 H   0  0  0  0  0  0  0  0  0  0  0  0
   -1.4613    4.4337    0.9666 H   0  0  0  0  0  0  0  0  0  0  0  0
   -0.9381    5.5452   -0.3484 H   0  0  0  0  0  0  0  0  0  0  0  0
    4.7639   -1.1821   -1.9479 H   0  0  0  0  0  0  0  0  0  0  0  0
    7.1429   -1.3379   -1.1907 H   0  0  0  0  0  0  0  0  0  0  0  0
    7.8718   -0.1751    0.9094 H   0  0  0  0  0  0  0  0  0  0  0  0
    6.2054    1.1441    2.2423 H   0  0  0  0  0  0  0  0  0  0  0  0
    3.8276    1.2957    1.4787 H   0  0  0  0  0  0  0  0  0  0  0  0
  2  6  1  0  0  0  0
  3 10  1  0  0  0  0
  3  4  1  0  0  0  0
  3  5  1  0  0  0  0
  4  2  1  0  0  0  0
  4 19  1  0  0  0  0
  5 21  1  1  0  0  0
  6  7  1  6  0  0  0
  6  5  1  0  0  0  0
  7  1  1  0  0  0  0
  8  7  2  0  0  0  0
  9 23  1  6  0  0  0
  9  8  1  0  0  0  0
  9 13  1  0  0  0  0
  9  5  1  0  0  0  0
 10 24  1  0  0  0  0
 11 12  1  0  0  0  0
 11  1  1  0  0  0  0
 11 27  1  0  0  0  0
 12 30  1  0  0  0  0
 13 18  1  0  0  0  0
 14 15  1  0  0  0  0
 14 13  2  0  0  0  0
 15 16  2  0  0  0  0
 16 34  1  0  0  0  0
 16 17  1  0  0  0  0
 17 35  1  0  0  0  0
 18 17  2  0  0  0  0
 18 36  1  0  0  0  0
 20  4  1  0  0  0  0
 22  8  1  0  0  0  0
 25 10  1  0  0  0  0
 26 10  1  0  0  0  0
 28 11  1  0  0  0  0
 29 12  1  0  0  0  0
 31 12  1  0  0  0  0
 32 14  1  0  0  0  0
 33 15  1  0  0  0  0
M  END
