2
 OpenBabel05122313063D

 14 14  0  0  1  0  0  0  0  0999 V2000
    1.6266   -1.5991   -1.8480 O   0  0  0  0  0  0  0  0  0  0  0  0
    2.2535   -1.3227    0.9170 N   0  0  0  0  0  2  0  0  0  0  0  0
    3.7920   -2.0078   -2.2702 O   0  0  0  0  0  0  0  0  0  0  0  0
    5.4635   -2.1235   -0.5318 O   0  5  0  0  0  0  0  0  0  0  0  0
    4.6942   -2.0979   -1.6244 H   0  0  0  0  0  0  0  0  0  0  0  0
    3.1818   -1.6496   -0.0089 C   0  0  1  0  0  3  0  0  0  0  0  0
    2.5620   -1.2540    2.2265 C   0  0  0  0  0  0  0  0  0  0  0  0
    1.7461   -0.9900    2.9119 H   0  0  0  0  0  0  0  0  0  0  0  0
    2.7955   -1.7559   -1.4587 C   0  0  0  0  0  0  0  0  0  0  0  0
    4.5682   -1.8831    0.3596 C   0  0  0  0  0  0  0  0  0  0  0  0
    3.8687   -1.5192    2.6750 C   0  0  0  0  0  0  0  0  0  0  0  0
    4.0822   -1.4684    3.7531 H   0  0  0  0  0  0  0  0  0  0  0  0
    4.8679   -1.8204    1.7607 C   0  0  0  0  0  0  0  0  0  0  0  0
    5.9057   -2.0137    2.0700 H   0  0  0  0  0  0  0  0  0  0  0  0
  1  9  2  0  0  0  0
  2  7  1  0  0  0  0
  3  5  1  0  0  0  0
  3  9  1  0  0  0  0
  4 10  1  0  0  0  0
  6  9  1  6  0  0  0
  6 10  1  0  0  0  0
  6  2  1  0  0  0  0
  7 11  2  0  0  0  0
  7  8  1  0  0  0  0
 10 13  2  0  0  0  0
 11 12  1  0  0  0  0
 13 14  1  0  0  0  0
 13 11  1  0  0  0  0
M  CHG  1   4  -1
M  END
