2
 OpenBabel05122313063D

 25 26  0  0  0  0  0  0  0  0999 V2000
    5.0894   -1.3217   -0.5427 O   0  0  0  0  0  0  0  0  0  0  0  0
    2.0506   -0.8537   -0.3547 N   0  0  0  0  0  2  0  0  0  0  0  0
    3.1469    2.0418   -0.2156 C   0  0  0  0  0  0  0  0  0  0  0  0
    3.8535    1.4434    0.3810 H   0  0  0  0  0  0  0  0  0  0  0  0
    3.0094    3.4152    0.0328 C   0  0  0  0  0  0  0  0  0  0  0  0
    3.6113    3.8921    0.8214 H   0  0  0  0  0  0  0  0  0  0  0  0
    2.1092    4.1800   -0.7282 C   0  0  0  0  0  0  0  0  0  0  0  0
    2.0067    5.2601   -0.5403 H   0  0  0  0  0  0  0  0  0  0  0  0
    1.3358    3.5612   -1.7228 C   0  0  0  0  0  0  0  0  0  0  0  0
    0.6142    4.1513   -2.3079 H   0  0  0  0  0  0  0  0  0  0  0  0
    1.4667    2.1850   -1.9646 C   0  0  0  0  0  0  0  0  0  0  0  0
    0.8332    1.6827   -2.7114 H   0  0  0  0  0  0  0  0  0  0  0  0
    2.3841    1.4173   -1.2223 C   0  0  0  0  0  0  0  0  0  0  0  0
    2.5463   -0.0674   -1.4896 C   0  0  0  0  0  0  0  0  0  0  0  0
    1.9203   -0.3557   -2.3581 H   0  0  0  0  0  0  0  0  0  0  0  0
    3.6039   -0.3067   -1.7018 H   0  0  0  0  0  0  0  0  0  0  0  0
    2.8066   -1.6014    0.3976 C   0  0  0  0  0  3  0  0  0  0  0  0
    2.2892   -2.0874    1.2437 H   0  0  0  0  0  0  0  0  0  0  0  0
    4.2199   -1.8801    0.3670 C   0  0  0  0  0  0  0  0  0  0  0  0
    4.9367   -2.7083    1.2259 C   0  0  0  0  0  0  0  0  0  0  0  0
    4.5104   -3.2827    2.0557 H   0  0  0  0  0  0  0  0  0  0  0  0
    6.2998   -2.6498    0.8149 C   0  0  0  0  0  0  0  0  0  0  0  0
    7.1545   -3.1725    1.2573 H   0  0  0  0  0  0  0  0  0  0  0  0
    6.3326   -1.7913   -0.2637 C   0  0  0  0  0  0  0  0  0  0  0  0
    7.1351   -1.4283   -0.9142 H   0  0  0  0  0  0  0  0  0  0  0  0
  1 24  1  0  0  0  0
  1 19  1  0  0  0  0
  2 17  1  0  0  0  0
  3  5  1  0  0  0  0
  3  4  1  0  0  0  0
  5  6  1  0  0  0  0
  7  8  1  0  0  0  0
  7  5  2  0  0  0  0
  9  7  1  0  0  0  0
 10  9  1  0  0  0  0
 11  9  2  0  0  0  0
 11 13  1  0  0  0  0
 12 11  1  0  0  0  0
 13  3  2  0  0  0  0
 14 13  1  0  0  0  0
 14  2  1  0  0  0  0
 15 14  1  0  0  0  0
 16 14  1  0  0  0  0
 17 18  1  0  0  0  0
 19 17  1  0  0  0  0
 19 20  2  0  0  0  0
 20 21  1  0  0  0  0
 22 20  1  0  0  0  0
 22 23  1  0  0  0  0
 24 22  2  0  0  0  0
 25 24  1  0  0  0  0
M  END
