3
 OpenBabel05122313063D

 69 70  0  0  0  0  0  0  0  0999 V2000
   -2.2726   -0.7172   -0.0753 P   0  0  0  0  0  0  0  0  0  0  0  0
    2.1945   -0.0351    0.7135 P   0  0  0  0  0  0  0  0  0  0  0  0
   -0.1983    1.2930   -0.2439 N   0  0  0  0  0  2  0  0  0  0  0  0
   -1.4556    1.8986   -0.1645 C   0  0  0  0  0  0  0  0  0  0  0  0
   -1.6720    3.2966   -0.0023 C   0  0  0  0  0  0  0  0  0  0  0  0
   -0.8100    3.9705    0.0878 H   0  0  0  0  0  0  0  0  0  0  0  0
   -2.9594    3.8296    0.0883 C   0  0  0  0  0  0  0  0  0  0  0  0
   -3.0709    4.9179    0.2251 H   0  0  0  0  0  0  0  0  0  0  0  0
   -4.1161    3.0209    0.0350 C   0  0  0  0  0  0  0  0  0  0  0  0
   -3.9092    1.6337   -0.0631 C   0  0  0  0  0  0  0  0  0  0  0  0
   -4.7869    0.9677   -0.0411 H   0  0  0  0  0  0  0  0  0  0  0  0
   -2.6221    1.0736   -0.1464 C   0  0  0  0  0  0  0  0  0  0  0  0
   -5.4985    3.6184    0.1011 C   0  0  0  0  0  0  0  0  0  0  0  0
   -5.5847    4.3661    0.9169 H   0  0  0  0  0  0  0  0  0  0  0  0
   -6.2699    2.8415    0.2717 H   0  0  0  0  0  0  0  0  0  0  0  0
   -5.7634    4.1441   -0.8422 H   0  0  0  0  0  0  0  0  0  0  0  0
    0.9412    2.0259   -0.5996 C   0  0  0  0  0  0  0  0  0  0  0  0
    0.9301    3.1535   -1.4653 C   0  0  0  0  0  0  0  0  0  0  0  0
   -0.0161    3.4725   -1.9228 H   0  0  0  0  0  0  0  0  0  0  0  0
    2.1051    3.8408   -1.7796 C   0  0  0  0  0  0  0  0  0  0  0  0
    2.0477    4.7015   -2.4661 H   0  0  0  0  0  0  0  0  0  0  0  0
    3.3610    3.4535   -1.2637 C   0  0  0  0  0  0  0  0  0  0  0  0
    3.3857    2.3015   -0.4568 C   0  0  0  0  0  0  0  0  0  0  0  0
    4.3588    1.9367   -0.0903 H   0  0  0  0  0  0  0  0  0  0  0  0
    2.2180    1.5854   -0.1407 C   0  0  0  0  0  0  0  0  0  0  0  0
    4.6146    4.2283   -1.5818 C   0  0  0  0  0  0  0  0  0  0  0  0
    4.6875    4.4653   -2.6636 H   0  0  0  0  0  0  0  0  0  0  0  0
    5.5249    3.6648   -1.2966 H   0  0  0  0  0  0  0  0  0  0  0  0
    4.6442    5.1987   -1.0400 H   0  0  0  0  0  0  0  0  0  0  0  0
   -2.8413   -1.4406   -1.7161 C   0  0  0  0  0  0  0  0  0  0  0  0
   -2.5930   -2.5224   -1.6243 H   0  0  0  0  0  0  0  0  0  0  0  0
   -4.3364   -1.2906   -2.0065 C   0  0  0  0  0  0  0  0  0  0  0  0
   -4.6169   -0.2219   -2.0995 H   0  0  0  0  0  0  0  0  0  0  0  0
   -4.9746   -1.7485   -1.2244 H   0  0  0  0  0  0  0  0  0  0  0  0
   -4.5892   -1.7823   -2.9696 H   0  0  0  0  0  0  0  0  0  0  0  0
   -1.9724   -0.8349   -2.8252 C   0  0  0  0  0  0  0  0  0  0  0  0
   -2.1866   -1.3219   -3.7994 H   0  0  0  0  0  0  0  0  0  0  0  0
   -0.8943   -0.9487   -2.5914 H   0  0  0  0  0  0  0  0  0  0  0  0
   -2.1746    0.2508   -2.9327 H   0  0  0  0  0  0  0  0  0  0  0  0
   -3.4707   -1.3659    1.2130 C   0  0  0  0  0  0  0  0  0  0  0  0
   -4.4786   -1.0072    0.9081 H   0  0  0  0  0  0  0  0  0  0  0  0
   -3.4887   -2.8987    1.2504 C   0  0  0  0  0  0  0  0  0  0  0  0
   -2.4986   -3.3112    1.5292 H   0  0  0  0  0  0  0  0  0  0  0  0
   -3.7802   -3.3436    0.2781 H   0  0  0  0  0  0  0  0  0  0  0  0
   -4.2188   -3.2520    2.0083 H   0  0  0  0  0  0  0  0  0  0  0  0
   -3.1206   -0.7502    2.5729 C   0  0  0  0  0  0  0  0  0  0  0  0
   -3.8250   -1.1083    3.3525 H   0  0  0  0  0  0  0  0  0  0  0  0
   -3.1724    0.3558    2.5414 H   0  0  0  0  0  0  0  0  0  0  0  0
   -2.0903   -1.0260    2.8764 H   0  0  0  0  0  0  0  0  0  0  0  0
    3.7485   -0.8813    0.0898 C   0  0  0  0  0  0  0  0  0  0  0  0
    4.5840   -0.1969    0.3565 H   0  0  0  0  0  0  0  0  0  0  0  0
    3.9730   -2.2310    0.7812 C   0  0  0  0  0  0  0  0  0  0  0  0
    3.1706   -2.9435    0.5074 H   0  0  0  0  0  0  0  0  0  0  0  0
    4.0104   -2.1419    1.8858 H   0  0  0  0  0  0  0  0  0  0  0  0
    4.9409   -2.6646    0.4527 H   0  0  0  0  0  0  0  0  0  0  0  0
    3.6872   -1.0163   -1.4348 C   0  0  0  0  0  0  0  0  0  0  0  0
    4.5858   -1.5499   -1.8091 H   0  0  0  0  0  0  0  0  0  0  0  0
    3.6365   -0.0303   -1.9353 H   0  0  0  0  0  0  0  0  0  0  0  0
    2.7926   -1.5951   -1.7309 H   0  0  0  0  0  0  0  0  0  0  0  0
    2.5221    0.3109    2.5346 C   0  0  0  0  0  0  0  0  0  0  0  0
    2.5293   -0.7039    2.9917 H   0  0  0  0  0  0  0  0  0  0  0  0
    1.3269    1.0874    3.1013 C   0  0  0  0  0  0  0  0  0  0  0  0
    1.4405    1.2300    4.1962 H   0  0  0  0  0  0  0  0  0  0  0  0
    0.3775    0.5499    2.8991 H   0  0  0  0  0  0  0  0  0  0  0  0
    1.2476    2.0900    2.6320 H   0  0  0  0  0  0  0  0  0  0  0  0
    3.8544    1.0060    2.8220 C   0  0  0  0  0  0  0  0  0  0  0  0
    3.8910    2.0066    2.3444 H   0  0  0  0  0  0  0  0  0  0  0  0
    4.7282    0.4221    2.4700 H   0  0  0  0  0  0  0  0  0  0  0  0
    3.9773    1.1567    3.9152 H   0  0  0  0  0  0  0  0  0  0  0  0
  1 40  1  0  0  0  0
  2 60  1  0  0  0  0
  3  4  1  0  0  0  0
  4 12  2  0  0  0  0
  4  5  1  0  0  0  0
  5  6  1  0  0  0  0
  5  7  2  0  0  0  0
  7  8  1  0  0  0  0
  9  7  1  0  0  0  0
  9 13  1  0  0  0  0
 10 11  1  0  0  0  0
 10  9  2  0  0  0  0
 12  1  1  0  0  0  0
 12 10  1  0  0  0  0
 13 15  1  0  0  0  0
 13 14  1  0  0  0  0
 16 13  1  0  0  0  0
 17  3  1  0  0  0  0
 17 25  1  0  0  0  0
 18 17  2  0  0  0  0
 19 18  1  0  0  0  0
 20 18  1  0  0  0  0
 20 22  2  0  0  0  0
 21 20  1  0  0  0  0
 22 23  1  0  0  0  0
 23 25  2  0  0  0  0
 23 24  1  0  0  0  0
 25  2  1  0  0  0  0
 26 28  1  0  0  0  0
 26 22  1  0  0  0  0
 26 29  1  0  0  0  0
 27 26  1  0  0  0  0
 30 31  1  0  0  0  0
 30  1  1  0  0  0  0
 32 30  1  0  0  0  0
 32 34  1  0  0  0  0
 33 32  1  0  0  0  0
 35 32  1  0  0  0  0
 36 38  1  0  0  0  0
 36 30  1  0  0  0  0
 37 36  1  0  0  0  0
 39 36  1  0  0  0  0
 40 42  1  0  0  0  0
 40 46  1  0  0  0  0
 41 40  1  0  0  0  0
 42 43  1  0  0  0  0
 42 45  1  0  0  0  0
 44 42  1  0  0  0  0
 46 49  1  0  0  0  0
 46 47  1  0  0  0  0
 48 46  1  0  0  0  0
 50 51  1  0  0  0  0
 50  2  1  0  0  0  0
 50 52  1  0  0  0  0
 52 54  1  0  0  0  0
 53 52  1  0  0  0  0
 55 52  1  0  0  0  0
 56 50  1  0  0  0  0
 57 56  1  0  0  0  0
 58 56  1  0  0  0  0
 59 56  1  0  0  0  0
 60 66  1  0  0  0  0
 60 61  1  0  0  0  0
 60 62  1  0  0  0  0
 62 63  1  0  0  0  0
 64 62  1  0  0  0  0
 65 62  1  0  0  0  0
 66 69  1  0  0  0  0
 67 66  1  0  0  0  0
 68 66  1  0  0  0  0
M  END
