1
 OpenBabel05122313063D

 15 16  0  0  0  0  0  0  0  0999 V2000
    1.2124   -0.6607    0.3830 N   0  0  0  0  0  0  0  0  0  0  0  0
    2.5151   -0.5587   -0.1133 C   0  0  0  0  0  0  0  0  0  0  0  0
    4.3470   -0.1052   -1.6040 C   0  0  0  0  0  0  0  0  0  0  0  0
    4.7238    0.2334   -2.5812 H   0  0  0  0  0  0  0  0  0  0  0  0
    3.4345   -0.9855    0.9039 C   0  0  0  0  0  0  0  0  0  0  0  0
    5.2651   -0.5223   -0.6112 C   0  0  0  0  0  0  0  0  0  0  0  0
    6.3438   -0.4988   -0.8291 H   0  0  0  0  0  0  0  0  0  0  0  0
    2.9662   -0.1133   -1.3672 C   0  0  0  0  0  0  0  0  0  0  0  0
    2.2462    0.2098   -2.1324 H   0  0  0  0  0  0  0  0  0  0  0  0
    2.6337   -1.3590    2.0435 C   0  0  0  0  0  0  0  0  0  0  0  0
    2.9908   -1.7466    3.0048 H   0  0  0  0  0  0  0  0  0  0  0  0
    4.8206   -0.9621    0.6413 C   0  0  0  0  0  0  0  0  0  0  0  0
    5.5390   -1.2841    1.4111 H   0  0  0  0  0  0  0  0  0  0  0  0
    1.3141   -1.1481    1.6845 C   0  0  0  0  0  3  0  0  0  0  0  0
    0.4119   -1.3362    2.2803 H   0  0  0  0  0  0  0  0  0  0  0  0
  1 14  1  0  0  0  0
  2  1  2  0  0  0  0
  2  5  1  0  0  0  0
  3  8  2  0  0  0  0
  3  6  1  0  0  0  0
  4  3  1  0  0  0  0
  5 10  2  0  0  0  0
  6 12  2  0  0  0  0
  7  6  1  0  0  0  0
  8  2  1  0  0  0  0
  9  8  1  0  0  0  0
 10 11  1  0  0  0  0
 12  5  1  0  0  0  0
 12 13  1  0  0  0  0
 14 10  1  0  0  0  0
 14 15  1  0  0  0  0
M  END
