1
 OpenBabel05122313063D

 21 23  0  0  0  0  0  0  0  0999 V2000
    1.0859    0.1172   -0.4647 N   0  0  0  0  0  0  0  0  0  0  0  0
    1.6131    1.3078    0.0503 C   0  0  0  0  0  3  0  0  0  0  0  0
    3.7842    2.3369    0.5868 C   0  0  0  0  0  0  0  0  0  0  0  0
    4.8838    2.2925    0.6172 H   0  0  0  0  0  0  0  0  0  0  0  0
    1.6958    3.5383    0.9819 C   0  0  0  0  0  0  0  0  0  0  0  0
    1.1762    4.4472    1.3220 H   0  0  0  0  0  0  0  0  0  0  0  0
    0.9405    2.4646    0.4867 C   0  0  0  0  0  0  0  0  0  0  0  0
   -0.1505    2.5416    0.4178 H   0  0  0  0  0  0  0  0  0  0  0  0
    3.0452    1.2495    0.0908 C   0  0  0  0  0  0  0  0  0  0  0  0
    2.1995   -1.9929   -1.3463 C   0  0  0  0  0  0  0  0  0  0  0  0
    1.2568   -2.4934   -1.6056 H   0  0  0  0  0  0  0  0  0  0  0  0
    3.1046    3.4778    1.0373 C   0  0  0  0  0  0  0  0  0  0  0  0
    3.6718    4.3361    1.4275 H   0  0  0  0  0  0  0  0  0  0  0  0
    2.1843   -0.7026   -0.7874 C   0  0  0  0  0  0  0  0  0  0  0  0
    3.4391   -2.6078   -1.5682 C   0  0  0  0  0  0  0  0  0  0  0  0
    3.4640   -3.6154   -2.0109 H   0  0  0  0  0  0  0  0  0  0  0  0
    4.6448   -0.6823   -0.6749 C   0  0  0  0  0  0  0  0  0  0  0  0
    5.5875   -0.1770   -0.4141 H   0  0  0  0  0  0  0  0  0  0  0  0
    4.6528   -1.9661   -1.2344 C   0  0  0  0  0  0  0  0  0  0  0  0
    5.6088   -2.4799   -1.4160 H   0  0  0  0  0  0  0  0  0  0  0  0
    3.4114   -0.0443   -0.4518 C   0  0  0  0  0  0  0  0  0  0  0  0
  1  2  1  0  0  0  0
  2  9  1  0  0  0  0
  2  7  1  0  0  0  0
  3  4  1  0  0  0  0
  3 12  2  0  0  0  0
  5 12  1  0  0  0  0
  5  6  1  0  0  0  0
  7  5  2  0  0  0  0
  8  7  1  0  0  0  0
  9  3  1  0  0  0  0
 10 14  1  0  0  0  0
 11 10  1  0  0  0  0
 12 13  1  0  0  0  0
 14  1  2  0  0  0  0
 14 21  1  0  0  0  0
 15 10  2  0  0  0  0
 15 19  1  0  0  0  0
 16 15  1  0  0  0  0
 17 21  1  0  0  0  0
 17 18  1  0  0  0  0
 19 17  2  0  0  0  0
 20 19  1  0  0  0  0
 21  9  2  0  0  0  0
M  END
