1
 OpenBabel05122313063D

 33 34  0  0  0  0  0  0  0  0999 V2000
    0.3713    1.5111   -1.1494 N   0  0  0  0  0  0  0  0  0  0  0  0
    0.4012    2.3439   -0.5388 H   0  0  0  0  0  0  0  0  0  0  0  0
    1.3158    1.3900   -1.5451 H   0  0  0  0  0  0  0  0  0  0  0  0
   -2.1796    0.1763   -1.1128 N   0  0  0  0  0  0  0  0  0  0  0  0
   -0.6362    1.6670   -2.2210 C   0  0  0  0  0  0  0  0  0  0  0  0
   -0.4555    0.8579   -2.9563 H   0  0  0  0  0  0  0  0  0  0  0  0
   -0.5184    2.6492   -2.7282 H   0  0  0  0  0  0  0  0  0  0  0  0
   -2.0389    1.5218   -1.6400 C   0  0  0  0  0  0  0  0  0  0  0  0
   -2.1977    2.2995   -0.8606 H   0  0  0  0  0  0  0  0  0  0  0  0
   -2.7970    1.7119   -2.4329 H   0  0  0  0  0  0  0  0  0  0  0  0
   -3.2970   -0.2343   -0.5879 C   0  0  0  0  0  0  0  0  0  0  0  0
   -4.4975    0.6232   -0.3474 C   0  0  0  0  0  0  0  0  0  0  0  0
   -5.7243    0.2985   -0.9685 C   0  0  0  0  0  0  0  0  0  0  0  0
   -5.7844   -0.5976   -1.6055 H   0  0  0  0  0  0  0  0  0  0  0  0
   -6.8535    1.1080   -0.7812 C   0  0  0  0  0  0  0  0  0  0  0  0
   -7.8008    0.8490   -1.2786 H   0  0  0  0  0  0  0  0  0  0  0  0
   -6.7780    2.2419    0.0443 C   0  0  0  0  0  0  0  0  0  0  0  0
   -7.6662    2.8740    0.1967 H   0  0  0  0  0  0  0  0  0  0  0  0
   -5.5674    2.5597    0.6819 C   0  0  0  0  0  0  0  0  0  0  0  0
   -5.5074    3.4366    1.3449 H   0  0  0  0  0  0  0  0  0  0  0  0
   -4.4314    1.7611    0.4871 C   0  0  0  0  0  0  0  0  0  0  0  0
   -3.4846    1.9891    1.0033 H   0  0  0  0  0  0  0  0  0  0  0  0
   -4.2013   -2.0968    0.8597 C   0  0  0  0  0  0  0  0  0  0  0  0
   -4.8376   -1.3627    1.3767 H   0  0  0  0  0  0  0  0  0  0  0  0
   -4.1946   -3.4386    1.2695 C   0  0  0  0  0  0  0  0  0  0  0  0
   -4.8336   -3.7565    2.1076 H   0  0  0  0  0  0  0  0  0  0  0  0
   -3.3746   -4.3734    0.6162 C   0  0  0  0  0  0  0  0  0  0  0  0
   -3.3744   -5.4266    0.9362 H   0  0  0  0  0  0  0  0  0  0  0  0
   -2.5614   -3.9586   -0.4548 C   0  0  0  0  0  0  0  0  0  0  0  0
   -1.9239   -4.6871   -0.9797 H   0  0  0  0  0  0  0  0  0  0  0  0
   -2.5601   -2.6196   -0.8641 C   0  0  0  0  0  0  0  0  0  0  0  0
   -1.9129   -2.2777   -1.6855 H   0  0  0  0  0  0  0  0  0  0  0  0
   -3.3745   -1.6677   -0.2041 C   0  0  0  0  0  0  0  0  0  0  0  0
  1  2  1  0  0  0  0
  3  1  1  0  0  0  0
  4 11  2  0  0  0  0
  5  8  1  0  0  0  0
  5  1  1  0  0  0  0
  6  5  1  0  0  0  0
  7  5  1  0  0  0  0
  8  4  1  0  0  0  0
  8  9  1  0  0  0  0
 10  8  1  0  0  0  0
 11 12  1  0  0  0  0
 11 33  1  0  0  0  0
 12 21  1  0  0  0  0
 13 15  1  0  0  0  0
 13 12  2  0  0  0  0
 14 13  1  0  0  0  0
 15 17  2  0  0  0  0
 16 15  1  0  0  0  0
 17 18  1  0  0  0  0
 17 19  1  0  0  0  0
 19 20  1  0  0  0  0
 21 19  2  0  0  0  0
 21 22  1  0  0  0  0
 23 25  1  0  0  0  0
 23 24  1  0  0  0  0
 25 26  1  0  0  0  0
 27 28  1  0  0  0  0
 27 25  2  0  0  0  0
 29 27  1  0  0  0  0
 30 29  1  0  0  0  0
 31 29  2  0  0  0  0
 31 33  1  0  0  0  0
 32 31  1  0  0  0  0
 33 23  2  0  0  0  0
M  END
