5
 OpenBabel05122313063D

 29 29  0  0  0  0  0  0  0  0999 V2000
   -0.5469   -1.8253   -1.2164 S   0  0  0  0  0  0  0  0  0  0  0  0
    1.3424   -2.9430    0.4360 N   0  0  0  0  0  0  0  0  0  0  0  0
    1.8051   -2.9081    1.3485 H   0  0  0  0  0  0  0  0  0  0  0  0
    1.0680    1.1384   -1.5864 S   0  0  0  0  0  0  0  0  0  0  0  0
    0.4615   -0.7663    0.8466 N   0  0  0  0  0  2  0  0  0  0  0  0
    3.0300   -0.3200   -0.3012 N   0  0  0  0  0  0  0  0  0  0  0  0
    3.8222   -0.9582   -0.4287 H   0  0  0  0  0  0  0  0  0  0  0  0
    3.2287   -0.0067   -2.5686 N   0  0  0  0  0  0  0  0  0  0  0  0
    4.2091   -0.2798   -2.4533 H   0  0  0  0  0  0  0  0  0  0  0  0
    1.2879   -4.2172   -0.2596 C   0  0  0  0  0  0  0  0  0  0  0  0
    0.4452   -4.8545    0.0868 H   0  0  0  0  0  0  0  0  0  0  0  0
    2.2356   -4.7648   -0.1011 H   0  0  0  0  0  0  0  0  0  0  0  0
    1.1620   -4.0393   -1.3455 H   0  0  0  0  0  0  0  0  0  0  0  0
    0.5290   -1.9018    0.1438 C   0  0  0  0  0  0  0  0  0  0  0  0
    1.4975   -0.2424    1.6381 C   0  0  0  0  0  0  0  0  0  0  0  0
    1.2827    0.0933    2.9893 C   0  0  0  0  0  0  0  0  0  0  0  0
    0.2993   -0.1268    3.4297 H   0  0  0  0  0  0  0  0  0  0  0  0
    2.3037    0.6745    3.7532 C   0  0  0  0  0  0  0  0  0  0  0  0
    2.1231    0.9204    4.8100 H   0  0  0  0  0  0  0  0  0  0  0  0
    3.5566    0.9336    3.1749 C   0  0  0  0  0  0  0  0  0  0  0  0
    4.3613    1.3875    3.7710 H   0  0  0  0  0  0  0  0  0  0  0  0
    3.7807    0.6197    1.8266 C   0  0  0  0  0  0  0  0  0  0  0  0
    4.7539    0.8328    1.3589 H   0  0  0  0  0  0  0  0  0  0  0  0
    2.7603    0.0411    1.0542 C   0  0  0  0  0  0  0  0  0  0  0  0
    2.5031    0.2015   -1.4467 C   0  0  0  0  0  0  0  0  0  0  0  0
    2.7801    0.2636   -3.9262 C   0  0  0  0  0  0  0  0  0  0  0  0
    3.3971   -0.3303   -4.6262 H   0  0  0  0  0  0  0  0  0  0  0  0
    2.8712    1.3381   -4.1886 H   0  0  0  0  0  0  0  0  0  0  0  0
    1.7175   -0.0288   -4.0280 H   0  0  0  0  0  0  0  0  0  0  0  0
  1 14  2  0  0  0  0
  2  3  1  0  0  0  0
  4 25  2  0  0  0  0
  5 15  1  0  0  0  0
  6 24  1  0  0  0  0
  7  6  1  0  0  0  0
  8  9  1  0  0  0  0
  8 25  1  0  0  0  0
 10 12  1  0  0  0  0
 10 11  1  0  0  0  0
 10  2  1  0  0  0  0
 13 10  1  0  0  0  0
 14  2  1  0  0  0  0
 14  5  1  0  0  0  0
 15 16  1  0  0  0  0
 16 17  1  0  0  0  0
 16 18  2  0  0  0  0
 18 19  1  0  0  0  0
 20 18  1  0  0  0  0
 20 21  1  0  0  0  0
 22 20  2  0  0  0  0
 23 22  1  0  0  0  0
 24 15  2  0  0  0  0
 24 22  1  0  0  0  0
 25  6  1  0  0  0  0
 26  8  1  0  0  0  0
 27 26  1  0  0  0  0
 28 26  1  0  0  0  0
 29 26  1  0  0  0  0
M  END
