2
 OpenBabel05122313063D

 29 29  0  0  1  0  0  0  0  0999 V2000
    2.9659   -1.0474   -1.1991 O   0  0  0  0  0  0  0  0  0  0  0  0
    0.9144   -1.7293   -0.5651 N   0  0  0  0  0  2  0  0  0  0  0  0
    0.2879   -2.5307   -0.4442 H   0  0  0  0  0  0  0  0  0  0  0  0
    2.7165   -3.2166   -0.3604 N   0  0  0  0  0  0  0  0  0  0  0  0
    4.2935   -0.9739   -0.6146 N   0  0  0  0  0  2  0  0  0  0  0  0
    4.0328    1.2722   -1.3648 N   0  0  0  0  0  4  0  0  0  0  0  0
    3.0288    1.1237   -1.5669 H   0  0  0  0  0  0  0  0  0  0  0  0
    4.2639    2.2181   -1.0603 H   0  0  0  0  0  0  0  0  0  0  0  0
    2.1931   -2.0085   -0.6869 C   0  0  1  0  0  3  0  0  0  0  0  0
    2.0274   -4.0806    0.5860 C   0  0  0  0  0  0  0  0  0  0  0  0
    1.4621   -4.8942    0.0773 H   0  0  0  0  0  0  0  0  0  0  0  0
    2.7752   -4.5524    1.2564 H   0  0  0  0  0  0  0  0  0  0  0  0
    1.3284   -3.4835    1.2030 H   0  0  0  0  0  0  0  0  0  0  0  0
    3.9060   -3.7595   -1.0017 C   0  0  0  0  0  0  0  0  0  0  0  0
    4.2241   -3.1069   -1.8307 H   0  0  0  0  0  0  0  0  0  0  0  0
    4.7480   -3.8287   -0.2829 H   0  0  0  0  0  0  0  0  0  0  0  0
    3.6779   -4.7725   -1.3979 H   0  0  0  0  0  0  0  0  0  0  0  0
    4.6968    0.2688   -0.7312 C   0  0  0  0  0  0  0  0  0  0  0  0
    6.0349    0.5566   -0.1477 C   0  0  0  0  0  0  0  0  0  0  0  0
    6.4712   -0.1426    0.9971 C   0  0  0  0  0  0  0  0  0  0  0  0
    5.7986   -0.8886    1.4432 H   0  0  0  0  0  0  0  0  0  0  0  0
    7.7266    0.1320    1.5533 C   0  0  0  0  0  0  0  0  0  0  0  0
    8.0564   -0.4120    2.4515 H   0  0  0  0  0  0  0  0  0  0  0  0
    8.5586    1.1072    0.9773 C   0  0  0  0  0  0  0  0  0  0  0  0
    9.5431    1.3241    1.4191 H   0  0  0  0  0  0  0  0  0  0  0  0
    8.1295    1.8060   -0.1618 C   0  0  0  0  0  0  0  0  0  0  0  0
    8.7800    2.5651   -0.6221 H   0  0  0  0  0  0  0  0  0  0  0  0
    6.8744    1.5321   -0.7243 C   0  0  0  0  0  0  0  0  0  0  0  0
    6.5487    2.0604   -1.6332 H   0  0  0  0  0  0  0  0  0  0  0  0
  1  5  1  0  0  0  0
  2  3  1  0  0  0  0
  4 10  1  0  0  0  0
  6  8  1  0  0  0  0
  6 18  2  0  0  0  0
  7  6  1  0  0  0  0
  9  1  1  6  0  0  0
  9  2  1  0  0  0  0
  9  4  1  0  0  0  0
 10 13  1  0  0  0  0
 10 12  1  0  0  0  0
 11 10  1  0  0  0  0
 14  4  1  0  0  0  0
 14 16  1  0  0  0  0
 15 14  1  0  0  0  0
 17 14  1  0  0  0  0
 18  5  1  0  0  0  0
 18 19  1  0  0  0  0
 19 20  1  0  0  0  0
 20 21  1  0  0  0  0
 20 22  2  0  0  0  0
 22 23  1  0  0  0  0
 24 25  1  0  0  0  0
 24 22  1  0  0  0  0
 26 24  2  0  0  0  0
 27 26  1  0  0  0  0
 28 26  1  0  0  0  0
 28 19  2  0  0  0  0
 29 28  1  0  0  0  0
M  END
