1
 OpenBabel05122313063D

 24 25  0  0  1  0  0  0  0  0999 V2000
    1.3223   -1.9947    0.7707 N   0  0  0  0  0  2  0  0  0  0  0  0
    3.3170   -2.9945    0.6382 N   0  0  0  0  0  0  0  0  0  0  0  0
    3.2709   -0.6651    0.1086 N   0  0  0  0  0  2  0  0  0  0  0  0
    2.5674    0.3925    0.2499 N   0  0  0  0  0  2  0  0  0  0  0  0
    1.1651   -3.3191    1.0603 C   0  0  0  0  0  0  0  0  0  0  0  0
    2.4008   -3.9587    0.9922 C   0  0  0  0  0  0  0  0  0  0  0  0
    2.6292   -1.8058    0.5197 C   0  0  1  0  0  3  0  0  0  0  0  0
    4.7437   -3.1668    0.4241 C   0  0  0  0  0  0  0  0  0  0  0  0
    3.0879    1.5518   -0.3387 C   0  0  0  0  0  0  0  0  0  0  0  0
    4.0931    1.5458   -1.3364 C   0  0  0  0  0  0  0  0  0  0  0  0
    4.5249    2.7568   -1.8825 C   0  0  0  0  0  0  0  0  0  0  0  0
    3.9655    3.9740   -1.4489 C   0  0  0  0  0  0  0  0  0  0  0  0
    2.9529    3.9796   -0.4732 C   0  0  0  0  0  0  0  0  0  0  0  0
    2.5037    2.7728    0.0717 C   0  0  0  0  0  0  0  0  0  0  0  0
    4.3083    4.9225   -1.8899 H   0  0  0  0  0  0  0  0  0  0  0  0
    0.1653   -3.7252    1.2576 H   0  0  0  0  0  0  0  0  0  0  0  0
    2.6923   -5.0017    1.1521 H   0  0  0  0  0  0  0  0  0  0  0  0
    4.4785    0.5805   -1.6892 H   0  0  0  0  0  0  0  0  0  0  0  0
    1.6994    2.7370    0.8206 H   0  0  0  0  0  0  0  0  0  0  0  0
    2.5053    4.9310   -0.1485 H   0  0  0  0  0  0  0  0  0  0  0  0
    5.2942    2.7575   -2.6696 H   0  0  0  0  0  0  0  0  0  0  0  0
    5.1301   -2.2333   -0.0237 H   0  0  0  0  0  0  0  0  0  0  0  0
    4.9233   -4.0138   -0.2657 H   0  0  0  0  0  0  0  0  0  0  0  0
    5.2674   -3.3578    1.3823 H   0  0  0  0  0  0  0  0  0  0  0  0
  1  5  1  0  0  0  0
  2  6  1  0  0  0  0
  3  4  1  0  0  0  0
  5 16  1  0  0  0  0
  6  5  2  0  0  0  0
  6 17  1  0  0  0  0
  7  3  1  6  0  0  0
  7  2  1  0  0  0  0
  7  1  1  0  0  0  0
  8  2  1  0  0  0  0
  8 24  1  0  0  0  0
  9 14  1  0  0  0  0
  9  4  1  0  0  0  0
 10  9  2  0  0  0  0
 11 12  2  0  0  0  0
 11 10  1  0  0  0  0
 12 13  1  0  0  0  0
 13 20  1  0  0  0  0
 13 14  2  0  0  0  0
 14 19  1  0  0  0  0
 15 12  1  0  0  0  0
 18 10  1  0  0  0  0
 21 11  1  0  0  0  0
 22  8  1  0  0  0  0
 23  8  1  0  0  0  0
M  END
