2
 OpenBabel05122313063D

 25 25  0  0  1  0  0  0  0  0999 V2000
   -4.3137    2.8130    0.5802 O   0  0  0  0  0  0  0  0  0  0  0  0
   -2.0084   -0.5582   -0.3211 N   0  0  0  0  0  2  0  0  0  0  0  0
   -2.3995    1.5300    0.6282 N   0  0  0  0  0  0  0  0  0  0  0  0
   -2.7400   -1.7401   -0.8857 C   0  0  0  0  0  0  0  0  0  0  0  0
   -4.1981   -1.4674   -0.4266 C   0  0  0  0  0  0  0  0  0  0  0  0
   -4.9412   -1.8905   -1.1285 H   0  0  0  0  0  0  0  0  0  0  0  0
   -4.3639   -1.9293    0.5683 H   0  0  0  0  0  0  0  0  0  0  0  0
   -4.2795    0.0619   -0.2965 C   0  0  0  0  0  0  0  0  0  0  0  0
   -4.9667    0.4359    0.4834 H   0  0  0  0  0  0  0  0  0  0  0  0
   -4.5801    0.5715   -1.2365 H   0  0  0  0  0  0  0  0  0  0  0  0
   -2.8420    0.3900    0.0084 C   0  0  2  0  0  3  0  0  0  0  0  0
   -3.1648    2.6524    0.9648 C   0  0  0  0  0  0  0  0  0  0  0  0
   -2.4054    3.6403    1.8294 C   0  0  0  0  0  0  0  0  0  0  0  0
   -1.9314    3.1310    2.6931 H   0  0  0  0  0  0  0  0  0  0  0  0
   -3.1026    4.4201    2.1807 H   0  0  0  0  0  0  0  0  0  0  0  0
   -1.5945    4.1179    1.2411 H   0  0  0  0  0  0  0  0  0  0  0  0
   -2.6342   -1.7426   -2.4183 C   0  0  0  0  0  0  0  0  0  0  0  0
   -3.1703   -2.6236   -2.8245 H   0  0  0  0  0  0  0  0  0  0  0  0
   -1.5765   -1.7751   -2.7385 H   0  0  0  0  0  0  0  0  0  0  0  0
   -3.0860   -0.8279   -2.8523 H   0  0  0  0  0  0  0  0  0  0  0  0
   -2.1586   -3.0264   -0.2949 C   0  0  0  0  0  0  0  0  0  0  0  0
   -2.7695   -3.8967   -0.6087 H   0  0  0  0  0  0  0  0  0  0  0  0
   -2.1403   -2.9797    0.8118 H   0  0  0  0  0  0  0  0  0  0  0  0
   -1.1215   -3.1833   -0.6540 H   0  0  0  0  0  0  0  0  0  0  0  0
   -1.4652    1.4110    1.0611 H   0  0  0  0  0  0  0  0  0  0  0  0
  1 12  2  0  0  0  0
  2 11  1  0  0  0  0
  3 12  1  0  0  0  0
  3 25  1  0  0  0  0
  4  5  1  0  0  0  0
  4  2  1  0  0  0  0
  4 21  1  0  0  0  0
  5  8  1  0  0  0  0
  5  7  1  0  0  0  0
  6  5  1  0  0  0  0
  8 11  1  0  0  0  0
  8  9  1  0  0  0  0
 10  8  1  0  0  0  0
 11  3  1  1  0  0  0
 12 13  1  0  0  0  0
 13 15  1  0  0  0  0
 13 14  1  0  0  0  0
 16 13  1  0  0  0  0
 17  4  1  0  0  0  0
 18 17  1  0  0  0  0
 19 17  1  0  0  0  0
 20 17  1  0  0  0  0
 21 23  1  0  0  0  0
 22 21  1  0  0  0  0
 24 21  1  0  0  0  0
M  END
