1
 OpenBabel05122313063D

 25 25  0  0  1  0  0  0  0  0999 V2000
   -1.8010   -0.9764   -0.1258 N   0  0  0  0  0  2  0  0  0  0  0  0
   -1.8383   -2.2983   -0.4389 C   0  0  2  0  0  3  0  0  0  0  0  0
   -3.0690   -2.9609   -0.5766 C   0  0  0  0  0  0  0  0  0  0  0  0
   -4.2604   -2.2490   -0.4183 C   0  0  0  0  0  0  0  0  0  0  0  0
   -4.1973   -0.8888   -0.0993 C   0  0  0  0  0  0  0  0  0  0  0  0
   -2.9492   -0.2675    0.0605 C   0  0  0  0  0  0  0  0  0  0  0  0
   -2.8136    1.1869    0.4411 C   0  0  0  0  0  0  0  0  0  0  0  0
   -4.0887    1.9028    0.7763 C   0  0  0  0  0  0  0  0  0  0  0  0
   -4.5334    3.0019    0.1433 C   0  0  0  0  0  0  0  0  0  0  0  0
   -0.5361   -3.0446   -0.5988 C   0  0  0  0  0  0  0  0  0  0  0  0
    0.0626   -3.4521    0.7272 C   0  0  0  0  0  0  0  0  0  0  0  0
    0.4972   -4.6916    1.0131 C   0  0  0  0  0  0  0  0  0  0  0  0
   -3.0697   -4.0333   -0.8163 H   0  0  0  0  0  0  0  0  0  0  0  0
   -5.2328   -2.7489   -0.5432 H   0  0  0  0  0  0  0  0  0  0  0  0
   -5.1071   -0.2857    0.0220 H   0  0  0  0  0  0  0  0  0  0  0  0
   -2.2700    1.7149   -0.3720 H   0  0  0  0  0  0  0  0  0  0  0  0
   -2.1304    1.1993    1.3230 H   0  0  0  0  0  0  0  0  0  0  0  0
   -4.6643    1.5021    1.6312 H   0  0  0  0  0  0  0  0  0  0  0  0
   -5.4566    3.5136    0.4566 H   0  0  0  0  0  0  0  0  0  0  0  0
   -3.9759    3.4375   -0.7029 H   0  0  0  0  0  0  0  0  0  0  0  0
    0.1590   -2.3694   -1.1448 H   0  0  0  0  0  0  0  0  0  0  0  0
   -0.7002   -3.9364   -1.2357 H   0  0  0  0  0  0  0  0  0  0  0  0
    0.1322   -2.6484    1.4843 H   0  0  0  0  0  0  0  0  0  0  0  0
    0.9402   -4.9272    1.9933 H   0  0  0  0  0  0  0  0  0  0  0  0
    0.4337   -5.5136    0.2797 H   0  0  0  0  0  0  0  0  0  0  0  0
  1  6  1  0  0  0  0
  2 10  1  1  0  0  0
  2  1  1  0  0  0  0
  3  2  1  0  0  0  0
  3  4  2  0  0  0  0
  4  5  1  0  0  0  0
  5 15  1  0  0  0  0
  5  6  2  0  0  0  0
  6  7  1  0  0  0  0
  7  8  1  0  0  0  0
  7 17  1  0  0  0  0
  8 18  1  0  0  0  0
  9 19  1  0  0  0  0
  9  8  2  0  0  0  0
 10 11  1  0  0  0  0
 11 12  2  0  0  0  0
 11 23  1  0  0  0  0
 12 24  1  0  0  0  0
 13  3  1  0  0  0  0
 14  4  1  0  0  0  0
 16  7  1  0  0  0  0
 20  9  1  0  0  0  0
 21 10  1  0  0  0  0
 22 10  1  0  0  0  0
 25 12  1  0  0  0  0
M  END
