1
 OpenBabel05122313063D

 23 23  0  0  1  0  0  0  0  0999 V2000
    2.0678    0.1265    0.5698 N   0  0  0  0  0  0  0  0  0  0  0  0
    2.5612   -0.3223    1.8876 C   0  0  0  0  0  0  0  0  0  0  0  0
    2.7738   -0.5161   -0.5844 C   0  0  1  0  0  0  0  0  0  0  0  0
    2.1304   -0.0897   -1.9048 C   0  0  0  0  0  0  0  0  0  0  0  0
    4.2648   -0.2135   -0.5446 C   0  0  0  0  0  0  0  0  0  0  0  0
    5.2033   -1.2539   -0.4133 C   0  0  0  0  0  0  0  0  0  0  0  0
    6.5797   -0.9796   -0.3803 C   0  0  0  0  0  0  0  0  0  0  0  0
    7.0347    0.3445   -0.4707 C   0  0  0  0  0  0  0  0  0  0  0  0
    6.1070    1.3916   -0.5980 C   0  0  0  0  0  0  0  0  0  0  0  0
    4.7334    1.1136   -0.6379 C   0  0  0  0  0  0  0  0  0  0  0  0
    2.1750    1.1554    0.4983 H   0  0  0  0  0  0  0  0  0  0  0  0
    3.6587   -0.1779    1.9762 H   0  0  0  0  0  0  0  0  0  0  0  0
    2.0449    0.2566    2.6754 H   0  0  0  0  0  0  0  0  0  0  0  0
    2.3116   -1.3929    2.0117 H   0  0  0  0  0  0  0  0  0  0  0  0
    2.6192   -1.6062   -0.4496 H   0  0  0  0  0  0  0  0  0  0  0  0
    1.0880   -0.4607   -1.9543 H   0  0  0  0  0  0  0  0  0  0  0  0
    2.1132    1.0139   -2.0128 H   0  0  0  0  0  0  0  0  0  0  0  0
    2.7024   -0.5133   -2.7528 H   0  0  0  0  0  0  0  0  0  0  0  0
    4.8456   -2.2929   -0.3347 H   0  0  0  0  0  0  0  0  0  0  0  0
    7.3001   -1.8056   -0.2789 H   0  0  0  0  0  0  0  0  0  0  0  0
    8.1131    0.5624   -0.4413 H   0  0  0  0  0  0  0  0  0  0  0  0
    6.4566    2.4327   -0.6705 H   0  0  0  0  0  0  0  0  0  0  0  0
    4.0176    1.9451   -0.7465 H   0  0  0  0  0  0  0  0  0  0  0  0
  1  2  1  0  0  0  0
  2 12  1  0  0  0  0
  2 14  1  0  0  0  0
  2 13  1  0  0  0  0
  3  5  1  0  0  0  0
  3 15  1  1  0  0  0
  3  1  1  0  0  0  0
  4  3  1  0  0  0  0
  5  6  1  0  0  0  0
  6  7  2  0  0  0  0
  6 19  1  0  0  0  0
  7 20  1  0  0  0  0
  8 21  1  0  0  0  0
  8  7  1  0  0  0  0
  9  8  2  0  0  0  0
 10  9  1  0  0  0  0
 10  5  2  0  0  0  0
 11  1  1  0  0  0  0
 16  4  1  0  0  0  0
 17  4  1  0  0  0  0
 18  4  1  0  0  0  0
 22  9  1  0  0  0  0
 23 10  1  0  0  0  0
M  END
