12
 OpenBabel05122313063D

 28 29  0  0  1  0  0  0  0  0999 V2000
    1.8921    1.3468    1.2838 O   0  0  0  0  0  0  0  0  0  0  0  0
    2.9004    1.0435    0.6347 C   0  0  0  0  0  0  0  0  0  0  0  0
    3.9666    1.9268    0.5093 N   0  0  0  0  0  0  0  0  0  0  0  0
    5.1764    1.6799   -0.1885 C   0  0  0  0  0  0  0  0  0  0  0  0
    5.2924    0.4174   -0.7902 N   0  0  0  0  0  0  0  0  0  0  0  0
    6.5216    0.1071   -1.5211 C   0  0  0  0  0  0  0  0  0  0  0  0
    7.0057   -0.7874   -1.0856 H   0  0  0  0  0  0  0  0  0  0  0  0
    6.2883   -0.1094   -2.5809 H   0  0  0  0  0  0  0  0  0  0  0  0
    7.1822    0.9860   -1.4405 H   0  0  0  0  0  0  0  0  0  0  0  0
    4.2843   -0.5295   -0.7314 C   0  0  0  0  0  0  0  0  0  0  0  0
    3.0883   -0.2480   -0.0429 C   0  0  1  0  0  3  0  0  0  0  0  0
    2.1086   -1.1584    0.0107 N   0  0  0  0  0  2  0  0  0  0  0  0
    2.2636   -2.3508   -0.5763 C   0  0  0  0  0  0  0  0  0  0  0  0
    1.1229   -3.3189   -0.4963 C   0  0  0  0  0  0  0  0  0  0  0  0
    0.3602   -3.0377   -1.2548 H   0  0  0  0  0  0  0  0  0  0  0  0
    1.4396   -4.3621   -0.6719 H   0  0  0  0  0  0  0  0  0  0  0  0
    0.6383   -3.2453    0.4974 H   0  0  0  0  0  0  0  0  0  0  0  0
    3.4865   -2.6171   -1.2822 C   0  0  0  0  0  0  0  0  0  0  0  0
    3.7103   -3.9212   -1.9908 C   0  0  0  0  0  0  0  0  0  0  0  0
    3.6961   -4.7722   -1.2782 H   0  0  0  0  0  0  0  0  0  0  0  0
    2.9102   -4.1133   -2.7350 H   0  0  0  0  0  0  0  0  0  0  0  0
    4.6876   -3.8997   -2.5045 H   0  0  0  0  0  0  0  0  0  0  0  0
    4.4683   -1.7083   -1.3480 N   0  0  0  0  0  0  0  0  0  0  0  0
    6.0623    2.5185   -0.2531 O   0  0  0  0  0  0  0  0  0  0  0  0
    3.8109    3.2318    1.1542 C   0  0  0  0  0  0  0  0  0  0  0  0
    3.5842    3.0896    2.2277 H   0  0  0  0  0  0  0  0  0  0  0  0
    4.7504    3.7910    1.0173 H   0  0  0  0  0  0  0  0  0  0  0  0
    2.9637    3.7761    0.6934 H   0  0  0  0  0  0  0  0  0  0  0  0
  2  1  2  0  0  0  0
  3  2  1  0  0  0  0
  3 25  1  0  0  0  0
  4  3  1  0  0  0  0
  5 10  1  0  0  0  0
  5  4  1  0  0  0  0
  6  9  1  0  0  0  0
  6  7  1  0  0  0  0
  6  5  1  0  0  0  0
  8  6  1  0  0  0  0
 11 10  1  1  0  0  0
 11 12  1  0  0  0  0
 11  2  1  0  0  0  0
 13 14  1  0  0  0  0
 13 12  1  0  0  0  0
 14 17  1  0  0  0  0
 15 14  1  0  0  0  0
 16 14  1  0  0  0  0
 18 13  2  0  0  0  0
 19 18  1  0  0  0  0
 19 20  1  0  0  0  0
 21 19  1  0  0  0  0
 22 19  1  0  0  0  0
 23 18  1  0  0  0  0
 23 10  2  0  0  0  0
 24  4  2  0  0  0  0
 25 26  1  0  0  0  0
 27 25  1  0  0  0  0
 28 25  1  0  0  0  0
M  END
