3
 OpenBabel05122313063D

 26 27  0  0  0  0  0  0  0  0999 V2000
   -2.7174   -1.2086    0.1360 C   0  0  0  0  0  3  0  0  0  0  0  0
   -2.1137   -2.0376    0.5308 H   0  0  0  0  0  0  0  0  0  0  0  0
   -2.0193   -0.1063   -0.2395 N   0  0  0  0  0  2  0  0  0  0  0  0
   -4.1010    0.8937   -0.9427 C   0  0  0  0  0  0  0  0  0  0  0  0
   -4.5739    1.7834   -1.3748 H   0  0  0  0  0  0  0  0  0  0  0  0
   -4.8583   -0.2519   -0.5637 C   0  0  0  0  0  0  0  0  0  0  0  0
   -6.2214   -0.3367   -0.7542 N   0  0  0  0  0  0  0  0  0  0  0  0
   -4.0959   -1.3131    0.0041 C   0  0  0  0  0  0  0  0  0  0  0  0
   -4.5642   -2.2430    0.3475 H   0  0  0  0  0  0  0  0  0  0  0  0
   -2.7234    0.9262   -0.7699 C   0  0  0  0  0  0  0  0  0  0  0  0
   -2.1344    1.8192   -1.0214 H   0  0  0  0  0  0  0  0  0  0  0  0
   -7.6024    1.4597    0.2198 C   0  0  0  0  0  0  0  0  0  0  0  0
   -8.2372    2.3353   -0.0308 H   0  0  0  0  0  0  0  0  0  0  0  0
   -6.7578    1.8381    0.8357 H   0  0  0  0  0  0  0  0  0  0  0  0
   -8.4051    0.4136    1.0087 C   0  0  0  0  0  0  0  0  0  0  0  0
   -8.7366    0.8299    1.9822 H   0  0  0  0  0  0  0  0  0  0  0  0
   -9.3321    0.1685    0.4422 H   0  0  0  0  0  0  0  0  0  0  0  0
   -7.5969   -0.8760    1.2207 C   0  0  0  0  0  0  0  0  0  0  0  0
   -6.7517   -0.6873    1.9179 H   0  0  0  0  0  0  0  0  0  0  0  0
   -8.2276   -1.6640    1.6829 H   0  0  0  0  0  0  0  0  0  0  0  0
   -7.0257   -1.3772   -0.1147 C   0  0  0  0  0  0  0  0  0  0  0  0
   -6.4345   -2.3010    0.0105 H   0  0  0  0  0  0  0  0  0  0  0  0
   -7.8583   -1.6307   -0.8083 H   0  0  0  0  0  0  0  0  0  0  0  0
   -7.0309    0.8409   -1.0652 C   0  0  0  0  0  0  0  0  0  0  0  0
   -7.8632    0.5103   -1.7260 H   0  0  0  0  0  0  0  0  0  0  0  0
   -6.4435    1.5713   -1.6484 H   0  0  0  0  0  0  0  0  0  0  0  0
  1  2  1  0  0  0  0
  3  1  1  0  0  0  0
  4 10  2  0  0  0  0
  4  6  1  0  0  0  0
  5  4  1  0  0  0  0
  6  8  2  0  0  0  0
  7  6  1  0  0  0  0
  7 21  1  0  0  0  0
  8  1  1  0  0  0  0
  8  9  1  0  0  0  0
 10  3  1  0  0  0  0
 11 10  1  0  0  0  0
 12 14  1  0  0  0  0
 12 15  1  0  0  0  0
 13 12  1  0  0  0  0
 15 18  1  0  0  0  0
 15 16  1  0  0  0  0
 17 15  1  0  0  0  0
 18 20  1  0  0  0  0
 18 19  1  0  0  0  0
 21 22  1  0  0  0  0
 21 18  1  0  0  0  0
 23 21  1  0  0  0  0
 24  7  1  0  0  0  0
 24 12  1  0  0  0  0
 25 24  1  0  0  0  0
 26 24  1  0  0  0  0
M  END
