17
 OpenBabel05122313063D

 41 44  0  0  1  0  0  0  0  0999 V2000
   -0.3921   -2.3892   -0.6054 C   0  0  0  0  0  0  0  0  0  0  0  0
    0.9691   -2.6225   -0.7112 C   0  0  0  0  0  0  0  0  0  0  0  0
    0.5691   -0.5002   -0.1329 C   0  0  1  0  0  3  0  0  0  0  0  0
    1.1113    0.8854    0.1824 C   0  0  1  0  0  0  0  0  0  0  0  0
    2.6101    0.5838    0.0604 C   0  0  0  0  0  0  0  0  0  0  0  0
    2.8315   -0.8097   -0.3207 C   0  0  0  0  0  0  0  0  0  0  0  0
    4.1412   -1.1284   -0.4911 C   0  0  0  0  0  0  0  0  0  0  0  0
    4.9193    0.1481   -0.1713 C   0  0  1  0  0  0  0  0  0  0  0  0
    3.8338    1.1857    0.1391 C   0  0  0  0  0  0  0  0  0  0  0  0
    4.8683   -2.4120   -0.7258 C   0  0  0  0  0  0  0  0  0  0  0  0
    5.8945   -2.6463    0.4049 C   0  0  0  0  0  0  0  0  0  0  0  0
    6.7654   -1.4052    0.6328 C   0  0  0  0  0  0  0  0  0  0  0  0
    5.9322   -0.1555    0.9605 C   0  0  0  0  0  0  0  0  0  0  0  0
    0.8873    1.7815   -2.0759 C   0  0  0  0  0  0  0  0  0  0  0  0
    0.6525    3.2579   -0.1598 C   0  0  0  0  0  0  0  0  0  0  0  0
    5.3313    3.0424    0.4065 C   0  0  0  0  0  0  0  0  0  0  0  0
   -0.6290   -1.0661   -0.2456 N   0  0  0  0  0  2  0  0  0  0  0  0
    1.5635   -1.4141   -0.4081 N   0  0  0  0  0  0  0  0  0  0  0  0
    0.5299    1.9056   -0.6756 N   0  0  0  0  0  0  0  0  0  0  0  0
    4.0203    2.4986    0.3956 O   0  0  0  0  0  0  0  0  0  0  0  0
   -1.2202   -3.0879   -0.7629 H   0  0  0  0  0  0  0  0  0  0  0  0
    1.5354   -3.5207   -0.9706 H   0  0  0  0  0  0  0  0  0  0  0  0
    0.8493    1.1556    1.2285 H   0  0  0  0  0  0  0  0  0  0  0  0
    5.4887    0.4682   -1.0776 H   0  0  0  0  0  0  0  0  0  0  0  0
    5.4146   -2.3717   -1.6970 H   0  0  0  0  0  0  0  0  0  0  0  0
    4.1621   -3.2636   -0.7999 H   0  0  0  0  0  0  0  0  0  0  0  0
    5.3481   -2.8845    1.3434 H   0  0  0  0  0  0  0  0  0  0  0  0
    6.5285   -3.5258    0.1687 H   0  0  0  0  0  0  0  0  0  0  0  0
    7.3778   -1.2100   -0.2767 H   0  0  0  0  0  0  0  0  0  0  0  0
    7.4851   -1.5918    1.4565 H   0  0  0  0  0  0  0  0  0  0  0  0
    5.3617   -0.3216    1.8999 H   0  0  0  0  0  0  0  0  0  0  0  0
    6.6036    0.7079    1.1365 H   0  0  0  0  0  0  0  0  0  0  0  0
    1.9560    2.0423   -2.2879 H   0  0  0  0  0  0  0  0  0  0  0  0
    0.7127    0.7421   -2.4218 H   0  0  0  0  0  0  0  0  0  0  0  0
    0.2359    2.4437   -2.6799 H   0  0  0  0  0  0  0  0  0  0  0  0
    0.2543    3.3014    0.8734 H   0  0  0  0  0  0  0  0  0  0  0  0
    1.7055    3.6362   -0.1468 H   0  0  0  0  0  0  0  0  0  0  0  0
    0.0422    3.9399   -0.7857 H   0  0  0  0  0  0  0  0  0  0  0  0
    5.2143    4.1409    0.3579 H   0  0  0  0  0  0  0  0  0  0  0  0
    5.8756    2.7833    1.3397 H   0  0  0  0  0  0  0  0  0  0  0  0
    5.9296    2.7062   -0.4681 H   0  0  0  0  0  0  0  0  0  0  0  0
  1 17  1  0  0  0  0
  2  1  2  0  0  0  0
  2 18  1  0  0  0  0
  3 17  1  6  0  0  0
  3  4  1  0  0  0  0
  4 23  1  1  0  0  0
  5  9  2  0  0  0  0
  5  4  1  0  0  0  0
  6  5  1  0  0  0  0
  7  6  2  0  0  0  0
  7  8  1  0  0  0  0
  8 24  1  6  0  0  0
  8  9  1  0  0  0  0
  8 13  1  0  0  0  0
  9 20  1  0  0  0  0
 10  7  1  0  0  0  0
 10 11  1  0  0  0  0
 11 12  1  0  0  0  0
 11 27  1  0  0  0  0
 12 13  1  0  0  0  0
 12 30  1  0  0  0  0
 13 32  1  0  0  0  0
 13 31  1  0  0  0  0
 14 19  1  0  0  0  0
 15 37  1  0  0  0  0
 15 36  1  0  0  0  0
 16 40  1  0  0  0  0
 18  6  1  0  0  0  0
 18  3  1  0  0  0  0
 19 15  1  0  0  0  0
 19  4  1  0  0  0  0
 20 16  1  0  0  0  0
 21  1  1  0  0  0  0
 22  2  1  0  0  0  0
 25 10  1  0  0  0  0
 26 10  1  0  0  0  0
 28 11  1  0  0  0  0
 29 12  1  0  0  0  0
 33 14  1  0  0  0  0
 34 14  1  0  0  0  0
 35 14  1  0  0  0  0
 38 15  1  0  0  0  0
 39 16  1  0  0  0  0
 41 16  1  0  0  0  0
M  END
