1
 OpenBabel05122313063D

  6  5  0  0  0  0  0  0  0  0999 V2000
   -0.0574   -2.3293    0.0203 N   0  0  0  0  0  2  0  0  0  0  0  0
   -0.9621   -3.4394   -0.2052 C   0  0  0  0  0  0  0  0  0  0  0  0
    0.8614   -2.7172    0.2568 H   0  0  0  0  0  0  0  0  0  0  0  0
   -0.5218   -4.1970   -0.8949 H   0  0  0  0  0  0  0  0  0  0  0  0
   -1.2422   -3.9831    0.7296 H   0  0  0  0  0  0  0  0  0  0  0  0
   -1.9017   -3.1005   -0.6773 H   0  0  0  0  0  0  0  0  0  0  0  0
  1  3  1  0  0  0  0
  2  1  1  0  0  0  0
  2  5  1  0  0  0  0
  4  2  1  0  0  0  0
  6  2  1  0  0  0  0
M  END
