2
 OpenBabel05122313063D

 21 21  0  0  0  0  0  0  0  0999 V2000
   -0.8667    0.3055   -1.6451 O   0  0  0  0  0  0  0  0  0  0  0  0
   -1.3933   -0.5377    0.7891 N   0  0  0  0  0  2  0  0  0  0  0  0
   -1.5924   -0.6887    2.1197 C   0  0  0  0  0  3  0  0  0  0  0  0
   -2.8549   -0.9482    2.6539 C   0  0  0  0  0  0  0  0  0  0  0  0
   -3.9486   -1.0386    1.7802 C   0  0  0  0  0  0  0  0  0  0  0  0
   -3.7375   -0.8597    0.4076 C   0  0  0  0  0  0  0  0  0  0  0  0
   -2.4442   -0.6061   -0.0727 C   0  0  0  0  0  0  0  0  0  0  0  0
   -2.0975   -0.4493   -1.5516 C   0  0  0  0  0  0  0  0  0  0  0  0
   -3.1761    0.3052   -2.3371 C   0  0  0  0  0  0  0  0  0  0  0  0
   -1.8488   -1.8444   -2.1427 C   0  0  0  0  0  0  0  0  0  0  0  0
   -0.7037   -0.5793    2.7568 H   0  0  0  0  0  0  0  0  0  0  0  0
   -2.9729   -1.0660    3.7398 H   0  0  0  0  0  0  0  0  0  0  0  0
   -4.9593   -1.2385    2.1656 H   0  0  0  0  0  0  0  0  0  0  0  0
   -4.5763   -0.9136   -0.2992 H   0  0  0  0  0  0  0  0  0  0  0  0
   -2.8188    0.4604   -3.3730 H   0  0  0  0  0  0  0  0  0  0  0  0
   -3.3842    1.2944   -1.8865 H   0  0  0  0  0  0  0  0  0  0  0  0
   -4.1173   -0.2743   -2.3903 H   0  0  0  0  0  0  0  0  0  0  0  0
   -1.0699   -2.3772   -1.5655 H   0  0  0  0  0  0  0  0  0  0  0  0
   -1.5104   -1.7435   -3.1920 H   0  0  0  0  0  0  0  0  0  0  0  0
   -2.7748   -2.4507   -2.1225 H   0  0  0  0  0  0  0  0  0  0  0  0
   -1.0801    1.4051   -1.4927 H   0  0  0  0  0  0  0  0  0  0  0  0
  1  8  1  0  0  0  0
  1 21  1  0  0  0  0
  2  3  1  0  0  0  0
  3  4  1  0  0  0  0
  3 11  1  0  0  0  0
  4 12  1  0  0  0  0
  5 13  1  0  0  0  0
  5  4  2  0  0  0  0
  6  5  1  0  0  0  0
  7  6  2  0  0  0  0
  7  2  1  0  0  0  0
  8  7  1  0  0  0  0
  9 16  1  0  0  0  0
  9  8  1  0  0  0  0
 10 20  1  0  0  0  0
 10 18  1  0  0  0  0
 10  8  1  0  0  0  0
 14  6  1  0  0  0  0
 15  9  1  0  0  0  0
 17  9  1  0  0  0  0
 19 10  1  0  0  0  0
M  END
