4
 OpenBabel05122313063D

 34 36  0  0  1  0  0  0  0  0999 V2000
   -0.2664    1.9332   -2.4271 S   0  0  0  0  0  0  0  0  0  0  0  0
    4.2931    2.9145   -0.6276 O   0  0  0  0  0  0  0  0  0  0  0  0
    4.6631    2.8618    1.6288 O   0  0  0  0  0  0  0  0  0  0  0  0
   -0.7999   -0.4311   -1.4696 N   0  0  0  0  0  2  0  0  0  0  0  0
   -2.0423    0.1634   -1.7161 C   0  0  0  0  0  0  0  0  0  0  0  0
   -3.3137   -0.4038   -1.4952 C   0  0  0  0  0  0  0  0  0  0  0  0
   -4.4465    0.3683   -1.7638 C   0  0  0  0  0  0  0  0  0  0  0  0
   -4.3363    1.6938   -2.2385 C   0  0  0  0  0  0  0  0  0  0  0  0
   -3.0838    2.2701   -2.4744 C   0  0  0  0  0  0  0  0  0  0  0  0
   -1.9451    1.4918   -2.2147 C   0  0  0  0  0  0  0  0  0  0  0  0
    0.2231    0.3559   -1.8192 C   0  0  2  0  0  3  0  0  0  0  0  0
    1.6117   -0.0024   -1.6857 C   0  0  0  0  0  0  0  0  0  0  0  0
    2.6083    0.9203   -1.5525 C   0  0  0  0  0  0  0  0  0  0  0  0
    4.0232    0.6422   -1.3588 C   0  0  0  0  0  0  0  0  0  0  0  0
    4.6158   -0.6137   -1.6334 C   0  0  0  0  0  0  0  0  0  0  0  0
    5.9731   -0.8397   -1.3931 C   0  0  0  0  0  0  0  0  0  0  0  0
    6.7795    0.1879   -0.8727 C   0  0  0  0  0  0  0  0  0  0  0  0
    6.2254    1.4463   -0.5977 C   0  0  0  0  0  0  0  0  0  0  0  0
    4.8663    1.6631   -0.8452 C   0  0  0  0  0  0  0  0  0  0  0  0
    4.2030    3.4153    0.6554 C   0  0  0  0  0  0  0  0  0  0  0  0
    3.4211    4.7012    0.6452 C   0  0  0  0  0  0  0  0  0  0  0  0
   -3.3810   -1.4464   -1.1550 H   0  0  0  0  0  0  0  0  0  0  0  0
   -5.4401   -0.0617   -1.5761 H   0  0  0  0  0  0  0  0  0  0  0  0
   -5.2454    2.2848   -2.4213 H   0  0  0  0  0  0  0  0  0  0  0  0
   -2.9922    3.3009   -2.8443 H   0  0  0  0  0  0  0  0  0  0  0  0
    1.8035   -1.0855   -1.6192 H   0  0  0  0  0  0  0  0  0  0  0  0
    2.3294    1.9860   -1.5174 H   0  0  0  0  0  0  0  0  0  0  0  0
    3.9920   -1.4191   -2.0468 H   0  0  0  0  0  0  0  0  0  0  0  0
    6.4094   -1.8249   -1.6139 H   0  0  0  0  0  0  0  0  0  0  0  0
    7.8489    0.0117   -0.6836 H   0  0  0  0  0  0  0  0  0  0  0  0
    6.8387    2.2619   -0.1916 H   0  0  0  0  0  0  0  0  0  0  0  0
    2.3435    4.4537    0.5458 H   0  0  0  0  0  0  0  0  0  0  0  0
    3.5778    5.2397    1.5955 H   0  0  0  0  0  0  0  0  0  0  0  0
    3.6984    5.3310   -0.2207 H   0  0  0  0  0  0  0  0  0  0  0  0
  1 10  1  0  0  0  0
  1 11  1  0  0  0  0
  2 20  1  0  0  0  0
  5  6  1  0  0  0  0
  5  4  1  0  0  0  0
  6 22  1  0  0  0  0
  7 23  1  0  0  0  0
  7  6  2  0  0  0  0
  8  7  1  0  0  0  0
  9  8  2  0  0  0  0
  9 10  1  0  0  0  0
 10  5  2  0  0  0  0
 11 12  1  1  0  0  0
 11  4  1  0  0  0  0
 12 26  1  0  0  0  0
 12 13  2  0  0  0  0
 13 27  1  0  0  0  0
 13 14  1  0  0  0  0
 14 19  1  0  0  0  0
 15 16  1  0  0  0  0
 15 14  2  0  0  0  0
 16 17  2  0  0  0  0
 17 30  1  0  0  0  0
 17 18  1  0  0  0  0
 18 31  1  0  0  0  0
 19  2  1  0  0  0  0
 19 18  2  0  0  0  0
 20  3  2  0  0  0  0
 21 20  1  0  0  0  0
 21 33  1  0  0  0  0
 24  8  1  0  0  0  0
 25  9  1  0  0  0  0
 28 15  1  0  0  0  0
 29 16  1  0  0  0  0
 32 21  1  0  0  0  0
 34 21  1  0  0  0  0
M  END
