2
 OpenBabel05122313063D

 40 42  0  0  0  0  0  0  0  0999 V2000
    1.7336    0.5017    0.8190 N   0  0  0  0  0  0  0  0  0  0  0  0
   -0.5514    0.7301    0.2101 N   0  0  0  0  0  2  0  0  0  0  0  0
    1.0652    2.4404   -0.4986 C   0  0  0  0  0  0  0  0  0  0  0  0
    2.7358   -0.2790    1.5519 C   0  0  0  0  0  0  0  0  0  0  0  0
    2.2907   -1.2757    1.7452 H   0  0  0  0  0  0  0  0  0  0  0  0
    2.8987    0.1932    2.5433 H   0  0  0  0  0  0  0  0  0  0  0  0
   -0.2517    1.9122   -0.5098 C   0  0  0  0  0  0  0  0  0  0  0  0
    4.0483   -0.4105    0.8048 C   0  0  0  0  0  0  0  0  0  0  0  0
   -1.2351    2.5654   -1.2805 C   0  0  0  0  0  0  0  0  0  0  0  0
   -2.2663    2.2024   -1.2123 H   0  0  0  0  0  0  0  0  0  0  0  0
    1.3813    3.5503   -1.2964 C   0  0  0  0  0  0  0  0  0  0  0  0
    2.4126    3.9384   -1.2847 H   0  0  0  0  0  0  0  0  0  0  0  0
    0.4489    0.0944    0.7842 C   0  0  0  0  0  3  0  0  0  0  0  0
    0.2139   -0.8457    1.3096 H   0  0  0  0  0  0  0  0  0  0  0  0
    0.4039    4.1742   -2.0846 C   0  0  0  0  0  0  0  0  0  0  0  0
    0.6641    5.0473   -2.7011 H   0  0  0  0  0  0  0  0  0  0  0  0
    2.0946    1.8633    0.4391 C   0  0  0  0  0  0  0  0  0  0  0  0
    3.1002    1.8482   -0.0321 H   0  0  0  0  0  0  0  0  0  0  0  0
    2.1837    2.4908    1.3636 H   0  0  0  0  0  0  0  0  0  0  0  0
   -0.9107    3.6834   -2.0572 C   0  0  0  0  0  0  0  0  0  0  0  0
   -1.6992    4.1805   -2.6422 H   0  0  0  0  0  0  0  0  0  0  0  0
    5.2168    0.2417    1.2749 C   0  0  0  0  0  0  0  0  0  0  0  0
    5.2178    1.0788    2.5343 C   0  0  0  0  0  0  0  0  0  0  0  0
    6.2178    1.5184    2.7108 H   0  0  0  0  0  0  0  0  0  0  0  0
    4.9555    0.4841    3.4340 H   0  0  0  0  0  0  0  0  0  0  0  0
    4.4919    1.9169    2.4823 H   0  0  0  0  0  0  0  0  0  0  0  0
    4.1025   -1.1786   -0.3896 C   0  0  0  0  0  0  0  0  0  0  0  0
    6.4145    0.1078    0.5457 C   0  0  0  0  0  0  0  0  0  0  0  0
    7.3189    0.6173    0.9158 H   0  0  0  0  0  0  0  0  0  0  0  0
    6.4915   -0.6497   -0.6341 C   0  0  0  0  0  0  0  0  0  0  0  0
    2.8769   -1.8705   -0.9317 C   0  0  0  0  0  0  0  0  0  0  0  0
    2.3531   -2.4631   -0.1537 H   0  0  0  0  0  0  0  0  0  0  0  0
    3.1376   -2.5564   -1.7600 H   0  0  0  0  0  0  0  0  0  0  0  0
    2.1365   -1.1388   -1.3164 H   0  0  0  0  0  0  0  0  0  0  0  0
    5.3192   -1.2849   -1.0834 C   0  0  0  0  0  0  0  0  0  0  0  0
    5.3513   -1.8858   -2.0070 H   0  0  0  0  0  0  0  0  0  0  0  0
    7.7862   -0.7953   -1.3928 C   0  0  0  0  0  0  0  0  0  0  0  0
    8.1701   -1.8357   -1.3318 H   0  0  0  0  0  0  0  0  0  0  0  0
    8.5719   -0.1245   -0.9951 H   0  0  0  0  0  0  0  0  0  0  0  0
    7.6521   -0.5671   -2.4701 H   0  0  0  0  0  0  0  0  0  0  0  0
  1  4  1  0  0  0  0
  2 13  1  0  0  0  0
  3 17  1  0  0  0  0
  4  5  1  0  0  0  0
  4  6  1  0  0  0  0
  7  3  1  0  0  0  0
  7  2  1  0  0  0  0
  8 22  1  0  0  0  0
  8  4  1  0  0  0  0
  9 10  1  0  0  0  0
  9  7  2  0  0  0  0
 11 12  1  0  0  0  0
 11  3  2  0  0  0  0
 13  1  1  0  0  0  0
 13 14  1  0  0  0  0
 15 20  2  0  0  0  0
 15 11  1  0  0  0  0
 16 15  1  0  0  0  0
 17  1  1  0  0  0  0
 17 19  1  0  0  0  0
 18 17  1  0  0  0  0
 20  9  1  0  0  0  0
 21 20  1  0  0  0  0
 22 23  1  0  0  0  0
 23 24  1  0  0  0  0
 23 25  1  0  0  0  0
 26 23  1  0  0  0  0
 27  8  2  0  0  0  0
 28 29  1  0  0  0  0
 28 22  2  0  0  0  0
 30 28  1  0  0  0  0
 31 27  1  0  0  0  0
 31 32  1  0  0  0  0
 33 31  1  0  0  0  0
 34 31  1  0  0  0  0
 35 30  2  0  0  0  0
 35 27  1  0  0  0  0
 36 35  1  0  0  0  0
 37 38  1  0  0  0  0
 37 39  1  0  0  0  0
 37 30  1  0  0  0  0
 40 37  1  0  0  0  0
M  END
