2
 OpenBabel05122313063D

 13 13  0  0  0  0  0  0  0  0999 V2000
   -1.2856   -0.9779    2.1386 O   0  0  0  0  0  1  0  0  0  0  0  0
   -1.2852   -0.5942    0.9582 N   0  0  0  0  0  2  0  0  0  0  0  0
   -2.5482   -0.5360    0.2880 C   0  0  0  0  0  0  0  0  0  0  0  0
   -2.5377   -0.2845   -1.0991 C   0  0  0  0  0  0  0  0  0  0  0  0
   -1.5705   -0.1644   -1.6160 H   0  0  0  0  0  0  0  0  0  0  0  0
   -3.7481   -0.2200   -1.7945 C   0  0  0  0  0  0  0  0  0  0  0  0
   -3.7556   -0.0337   -2.8783 H   0  0  0  0  0  0  0  0  0  0  0  0
   -4.9589   -0.4009   -1.0998 C   0  0  0  0  0  0  0  0  0  0  0  0
   -5.9129   -0.3461   -1.6453 H   0  0  0  0  0  0  0  0  0  0  0  0
   -4.9611   -0.6551    0.2866 C   0  0  0  0  0  0  0  0  0  0  0  0
   -5.9148   -0.7947    0.8165 H   0  0  0  0  0  0  0  0  0  0  0  0
   -3.7563   -0.7303    0.9893 C   0  0  0  0  0  0  0  0  0  0  0  0
   -3.7117   -0.9298    2.0693 H   0  0  0  0  0  0  0  0  0  0  0  0
  2  1  1  0  0  0  0
  3  2  1  0  0  0  0
  3 12  1  0  0  0  0
  4  3  2  0  0  0  0
  5  4  1  0  0  0  0
  6  8  2  0  0  0  0
  6  4  1  0  0  0  0
  7  6  1  0  0  0  0
  8 10  1  0  0  0  0
  9  8  1  0  0  0  0
 10 11  1  0  0  0  0
 10 12  2  0  0  0  0
 12 13  1  0  0  0  0
M  END
