1
 OpenBabel05122313063D

 68 73  0  0  0  0  0  0  0  0999 V2000
    1.1482   -0.1212    0.4266 N   0  0  0  0  0  2  0  0  0  0  0  0
   -0.2291    1.0453    2.0013 N   0  0  0  0  0  0  0  0  0  0  0  0
    0.9561    2.2700    0.5736 N   0  0  0  0  0  0  0  0  0  0  0  0
   -3.1631    0.4794    0.6636 N   0  0  0  0  0  0  0  0  0  0  0  0
   -5.0683    0.1217    1.9854 N   0  0  0  0  0  0  0  0  0  0  0  0
   -5.4684    0.8435   -0.1074 N   0  0  0  0  0  0  0  0  0  0  0  0
    0.2637   -1.2011    0.1820 C   0  0  0  0  0  0  0  0  0  0  0  0
    0.6433   -2.5084    0.6129 C   0  0  0  0  0  0  0  0  0  0  0  0
    1.6167   -2.6170    1.1133 H   0  0  0  0  0  0  0  0  0  0  0  0
   -0.1919   -3.5909    0.4333 C   0  0  0  0  0  0  0  0  0  0  0  0
    0.1089   -4.5879    0.7907 H   0  0  0  0  0  0  0  0  0  0  0  0
   -1.4476   -3.4415   -0.2246 C   0  0  0  0  0  0  0  0  0  0  0  0
   -2.3219   -4.5453   -0.4406 C   0  0  0  0  0  0  0  0  0  0  0  0
   -2.0223   -5.5337   -0.0576 H   0  0  0  0  0  0  0  0  0  0  0  0
   -3.5163   -4.3902   -1.1297 C   0  0  0  0  0  0  0  0  0  0  0  0
   -4.1797   -5.2532   -1.2921 H   0  0  0  0  0  0  0  0  0  0  0  0
   -3.8681   -3.1156   -1.6471 C   0  0  0  0  0  0  0  0  0  0  0  0
   -4.7983   -2.9985   -2.2253 H   0  0  0  0  0  0  0  0  0  0  0  0
   -3.0410   -2.0208   -1.4415 C   0  0  0  0  0  0  0  0  0  0  0  0
   -3.3008   -1.0419   -1.8631 H   0  0  0  0  0  0  0  0  0  0  0  0
   -1.8250   -2.1357   -0.7060 C   0  0  0  0  0  0  0  0  0  0  0  0
   -0.9672   -1.0042   -0.4781 C   0  0  0  0  0  0  0  0  0  0  0  0
   -2.4401    1.0455   -0.3766 C   0  0  0  0  0  0  0  0  0  0  0  0
   -2.6980    2.4025   -0.7788 C   0  0  0  0  0  0  0  0  0  0  0  0
   -3.5221    2.9380   -0.2825 H   0  0  0  0  0  0  0  0  0  0  0  0
   -1.9471    3.0250   -1.7565 C   0  0  0  0  0  0  0  0  0  0  0  0
   -2.1622    4.0673   -2.0423 H   0  0  0  0  0  0  0  0  0  0  0  0
   -0.8921    2.3317   -2.4180 C   0  0  0  0  0  0  0  0  0  0  0  0
   -0.1179    2.9421   -3.4466 C   0  0  0  0  0  0  0  0  0  0  0  0
   -0.3569    3.9770   -3.7399 H   0  0  0  0  0  0  0  0  0  0  0  0
    0.9144    2.2523   -4.0678 C   0  0  0  0  0  0  0  0  0  0  0  0
    1.5081    2.7363   -4.8581 H   0  0  0  0  0  0  0  0  0  0  0  0
    1.2010    0.9171   -3.6793 C   0  0  0  0  0  0  0  0  0  0  0  0
    2.0273    0.3652   -4.1518 H   0  0  0  0  0  0  0  0  0  0  0  0
    0.4588    0.2929   -2.6866 C   0  0  0  0  0  0  0  0  0  0  0  0
    0.7149   -0.7332   -2.3901 H   0  0  0  0  0  0  0  0  0  0  0  0
   -0.6006    0.9757   -2.0179 C   0  0  0  0  0  0  0  0  0  0  0  0
   -1.3556    0.3540   -0.9627 C   0  0  0  0  0  0  0  0  0  0  0  0
    0.6466    1.0073    0.9632 C   0  0  0  0  0  3  0  0  0  0  0  0
   -0.6523    2.4167    2.2614 C   0  0  0  0  0  0  0  0  0  0  0  0
   -0.6843    2.6130    3.3513 H   0  0  0  0  0  0  0  0  0  0  0  0
   -1.6634    2.6023    1.8344 H   0  0  0  0  0  0  0  0  0  0  0  0
    0.4419    3.2301    1.5431 C   0  0  0  0  0  0  0  0  0  0  0  0
    0.0406    4.1249    1.0285 H   0  0  0  0  0  0  0  0  0  0  0  0
    1.2599    3.5406    2.2343 H   0  0  0  0  0  0  0  0  0  0  0  0
   -0.5941   -0.0980    2.8042 C   0  0  0  0  0  0  0  0  0  0  0  0
   -1.4231   -0.6741    2.3442 H   0  0  0  0  0  0  0  0  0  0  0  0
   -0.9038    0.2598    3.8052 H   0  0  0  0  0  0  0  0  0  0  0  0
    0.2842   -0.7611    2.9221 H   0  0  0  0  0  0  0  0  0  0  0  0
    1.9348    2.6461   -0.4158 C   0  0  0  0  0  0  0  0  0  0  0  0
    2.8949    2.9264    0.0700 H   0  0  0  0  0  0  0  0  0  0  0  0
    1.5484    3.4926   -1.0180 H   0  0  0  0  0  0  0  0  0  0  0  0
    2.1163    1.7893   -1.0909 H   0  0  0  0  0  0  0  0  0  0  0  0
   -4.4535    0.4950    0.7933 C   0  0  0  0  0  0  0  0  0  0  0  0
   -6.4697    0.4959    1.9699 C   0  0  0  0  0  0  0  0  0  0  0  0
   -6.6249    1.5070    2.4246 H   0  0  0  0  0  0  0  0  0  0  0  0
   -7.0966   -0.2282    2.5296 H   0  0  0  0  0  0  0  0  0  0  0  0
   -6.7665    0.5084    0.4708 C   0  0  0  0  0  0  0  0  0  0  0  0
   -7.1030   -0.4979    0.1190 H   0  0  0  0  0  0  0  0  0  0  0  0
   -7.5419    1.2481    0.1840 H   0  0  0  0  0  0  0  0  0  0  0  0
   -4.3428    0.0717    3.2286 C   0  0  0  0  0  0  0  0  0  0  0  0
   -3.3282   -0.3142    3.0302 H   0  0  0  0  0  0  0  0  0  0  0  0
   -4.8575   -0.6093    3.9357 H   0  0  0  0  0  0  0  0  0  0  0  0
   -4.2487    1.0753    3.7117 H   0  0  0  0  0  0  0  0  0  0  0  0
   -5.3633    0.7253   -1.5477 C   0  0  0  0  0  0  0  0  0  0  0  0
   -4.3551    1.0082   -1.8947 H   0  0  0  0  0  0  0  0  0  0  0  0
   -6.0911    1.4131   -2.0248 H   0  0  0  0  0  0  0  0  0  0  0  0
   -5.5876   -0.3112   -1.8933 H   0  0  0  0  0  0  0  0  0  0  0  0
  1 39  1  0  0  0  0
  2 40  1  0  0  0  0
  2 46  1  0  0  0  0
  3 39  1  0  0  0  0
  3 43  1  0  0  0  0
  4 54  2  0  0  0  0
  5 61  1  0  0  0  0
  6 58  1  0  0  0  0
  6 54  1  0  0  0  0
  7  1  1  0  0  0  0
  7  8  1  0  0  0  0
  8  9  1  0  0  0  0
 10  8  2  0  0  0  0
 10 11  1  0  0  0  0
 12 10  1  0  0  0  0
 13 12  1  0  0  0  0
 13 14  1  0  0  0  0
 15 13  2  0  0  0  0
 16 15  1  0  0  0  0
 17 19  2  0  0  0  0
 17 15  1  0  0  0  0
 18 17  1  0  0  0  0
 19 21  1  0  0  0  0
 20 19  1  0  0  0  0
 21 22  1  0  0  0  0
 21 12  2  0  0  0  0
 22  7  2  0  0  0  0
 23  4  1  0  0  0  0
 24 23  1  0  0  0  0
 24 25  1  0  0  0  0
 26 24  2  0  0  0  0
 27 26  1  0  0  0  0
 28 37  1  0  0  0  0
 28 26  1  0  0  0  0
 29 28  2  0  0  0  0
 30 29  1  0  0  0  0
 31 33  2  0  0  0  0
 31 29  1  0  0  0  0
 32 31  1  0  0  0  0
 33 35  1  0  0  0  0
 34 33  1  0  0  0  0
 35 36  1  0  0  0  0
 35 37  2  0  0  0  0
 37 38  1  0  0  0  0
 38 22  1  0  0  0  0
 38 23  2  0  0  0  0
 39  2  1  0  0  0  0
 40 41  1  0  0  0  0
 42 40  1  0  0  0  0
 43 45  1  0  0  0  0
 43 40  1  0  0  0  0
 44 43  1  0  0  0  0
 46 49  1  0  0  0  0
 46 48  1  0  0  0  0
 47 46  1  0  0  0  0
 50 51  1  0  0  0  0
 50  3  1  0  0  0  0
 52 50  1  0  0  0  0
 53 50  1  0  0  0  0
 54  5  1  0  0  0  0
 55  5  1  0  0  0  0
 55 56  1  0  0  0  0
 55 57  1  0  0  0  0
 58 55  1  0  0  0  0
 59 58  1  0  0  0  0
 60 58  1  0  0  0  0
 61 64  1  0  0  0  0
 61 63  1  0  0  0  0
 62 61  1  0  0  0  0
 65  6  1  0  0  0  0
 66 65  1  0  0  0  0
 67 65  1  0  0  0  0
 68 65  1  0  0  0  0
M  END
