11
 OpenBabel05122313063D

 15 16  0  0  1  0  0  0  0  0999 V2000
    4.5248    1.5958   -0.0617 N   0  0  0  0  0  0  0  0  0  0  0  0
    5.4253    0.6078    0.0189 C   0  0  0  0  0  0  0  0  0  0  0  0
    6.4831    0.9270    0.0331 H   0  0  0  0  0  0  0  0  0  0  0  0
    5.2128   -0.7215    0.0848 N   0  0  0  0  0  2  0  0  0  0  0  0
    3.9065   -0.9962    0.0595 C   0  0  0  0  0  0  0  0  0  0  0  0
    2.8371   -0.0758   -0.0248 C   0  0  0  0  0  0  0  0  0  0  0  0
    3.1962    1.3113   -0.0879 C   0  0  1  0  0  3  0  0  0  0  0  0
    2.3263    2.3320   -0.1634 N   0  0  0  0  0  0  0  0  0  0  0  0
    2.7455    3.2622   -0.2107 H   0  0  0  0  0  0  0  0  0  0  0  0
    1.2840    2.2458   -0.1923 H   0  0  0  0  0  0  0  0  0  0  0  0
    1.6382   -0.7788   -0.0317 N   0  0  0  0  0  2  0  0  0  0  0  0
    1.9504   -2.0716    0.0500 C   0  0  0  0  0  3  0  0  0  0  0  0
    1.1978   -2.8732    0.0862 H   0  0  0  0  0  0  0  0  0  0  0  0
    3.3030   -2.2480    0.1049 N   0  0  0  0  0  0  0  0  0  0  0  0
    3.8014   -3.1370    0.1751 H   0  0  0  0  0  0  0  0  0  0  0  0
  1  2  2  0  0  0  0
  2  3  1  0  0  0  0
  2  4  1  0  0  0  0
  5  4  1  0  0  0  0
  5 14  1  0  0  0  0
  6  5  2  0  0  0  0
  7  8  1  1  0  0  0
  7  1  1  0  0  0  0
  7  6  1  0  0  0  0
  9  8  1  0  0  0  0
 10  8  1  0  0  0  0
 11  6  1  0  0  0  0
 11 12  1  0  0  0  0
 12 13  1  0  0  0  0
 12 14  1  0  0  0  0
 14 15  1  0  0  0  0
M  END
