3
 OpenBabel05122313063D

 13 13  0  0  0  0  0  0  0  0999 V2000
   -4.8308   -3.0548    1.6352 O   0  0  0  0  0  0  0  0  0  0  0  0
   -4.4479   -3.7973    2.1410 H   0  0  0  0  0  0  0  0  0  0  0  0
   -1.1619   -1.5939    0.2865 N   0  0  0  0  0  2  0  0  0  0  0  0
   -3.0319   -2.7854    0.1075 N   0  0  0  0  0  0  0  0  0  0  0  0
   -2.4212   -1.7390    0.7268 C   0  0  0  0  0  3  0  0  0  0  0  0
   -2.9335   -1.1145    1.4605 H   0  0  0  0  0  0  0  0  0  0  0  0
   -0.9756   -2.5865   -0.6657 C   0  0  0  0  0  0  0  0  0  0  0  0
   -0.0213   -2.7406   -1.1747 H   0  0  0  0  0  0  0  0  0  0  0  0
   -2.1325   -3.3324   -0.7850 C   0  0  0  0  0  0  0  0  0  0  0  0
   -2.3766   -4.1961   -1.4116 H   0  0  0  0  0  0  0  0  0  0  0  0
   -4.4477   -3.1664    0.3077 C   0  0  0  0  0  0  0  0  0  0  0  0
   -5.0762   -2.4602   -0.2716 H   0  0  0  0  0  0  0  0  0  0  0  0
   -4.5587   -4.1864   -0.1248 H   0  0  0  0  0  0  0  0  0  0  0  0
  1  2  1  0  0  0  0
  3  5  1  0  0  0  0
  4 11  1  0  0  0  0
  4  5  1  0  0  0  0
  5  6  1  0  0  0  0
  7  3  1  0  0  0  0
  8  7  1  0  0  0  0
  9  7  2  0  0  0  0
  9  4  1  0  0  0  0
 10  9  1  0  0  0  0
 11  1  1  0  0  0  0
 12 11  1  0  0  0  0
 13 11  1  0  0  0  0
M  END
