12
 OpenBabel05122313063D

 16 17  0  0  0  0  0  0  0  0999 V2000
   -4.4690    1.5732    0.1688 N   0  0  0  0  0  0  0  0  0  0  0  0
   -4.8649    2.5192    0.1837 H   0  0  0  0  0  0  0  0  0  0  0  0
   -5.3595    0.5179    0.1485 C   0  0  0  0  0  3  0  0  0  0  0  0
   -6.4253    0.7972    0.1753 H   0  0  0  0  0  0  0  0  0  0  0  0
   -4.9993   -0.7352    0.0965 N   0  0  0  0  0  0  0  0  0  0  0  0
   -3.6599   -0.9095    0.0877 C   0  0  0  0  0  0  0  0  0  0  0  0
   -2.6564    0.0845    0.1368 C   0  0  0  0  0  0  0  0  0  0  0  0
   -2.3049    2.5139    0.1040 N   0  0  0  0  0  0  0  0  0  0  0  0
   -2.7054    3.4546    0.0913 H   0  0  0  0  0  0  0  0  0  0  0  0
   -1.2285    2.3896   -0.0506 H   0  0  0  0  0  0  0  0  0  0  0  0
   -3.0854    1.4515    0.1388 C   0  0  0  0  0  0  0  0  0  0  0  0
   -1.4127   -0.5268    0.1388 N   0  0  0  0  0  2  0  0  0  0  0  0
   -1.6455   -1.8455    0.0676 C   0  0  0  0  0  3  0  0  0  0  0  0
   -0.8651   -2.6259    0.0246 H   0  0  0  0  0  0  0  0  0  0  0  0
   -2.9850   -2.1035    0.0380 N   0  0  0  0  0  0  0  0  0  0  0  0
   -3.4190   -3.0298   -0.0059 H   0  0  0  0  0  0  0  0  0  0  0  0
  1  2  1  0  0  0  0
  3  1  1  0  0  0  0
  3  4  1  0  0  0  0
  5  3  1  0  0  0  0
  6  5  2  0  0  0  0
  6  7  1  0  0  0  0
  7 12  1  0  0  0  0
  7 11  2  0  0  0  0
  8 11  1  0  0  0  0
  9  8  1  0  0  0  0
 10  8  1  0  0  0  0
 11  1  1  0  0  0  0
 13 12  1  0  0  0  0
 14 13  1  0  0  0  0
 15 13  1  0  0  0  0
 15  6  1  0  0  0  0
 16 15  1  0  0  0  0
M  END
