5
 OpenBabel05122313063D

 30 33  0  0  0  0  0  0  0  0999 V2000
   -6.2421    1.8257    0.3388 F   0  0  0  0  0  0  0  0  0  0  0  0
   -5.4367   -2.7104   -0.7212 F   0  0  0  0  0  0  0  0  0  0  0  0
   -2.0225    3.9406    0.3518 O   0  0  0  0  0  0  0  0  0  0  0  0
   -3.5966    2.3774    0.2160 O   0  0  0  0  0  0  0  0  0  0  0  0
    1.1997    1.2349   -0.1387 N   0  0  0  0  0  2  0  0  0  0  0  0
    0.5398    3.3535    0.0420 N   0  0  0  0  0  0  0  0  0  0  0  0
   -0.1629    4.1017    0.1533 H   0  0  0  0  0  0  0  0  0  0  0  0
    1.9166    3.3935    0.0104 C   0  0  0  0  0  0  0  0  0  0  0  0
    2.8406    4.4503    0.0739 C   0  0  0  0  0  0  0  0  0  0  0  0
    2.5140    5.4954    0.1699 H   0  0  0  0  0  0  0  0  0  0  0  0
    4.1936    4.1043    0.0062 C   0  0  0  0  0  0  0  0  0  0  0  0
    4.9528    4.8992    0.0506 H   0  0  0  0  0  0  0  0  0  0  0  0
    4.6132    2.7543   -0.1230 C   0  0  0  0  0  0  0  0  0  0  0  0
    5.6893    2.5342   -0.1814 H   0  0  0  0  0  0  0  0  0  0  0  0
    3.6974    1.7018   -0.1845 C   0  0  0  0  0  0  0  0  0  0  0  0
    4.0035    0.6538   -0.3036 H   0  0  0  0  0  0  0  0  0  0  0  0
    0.1291    2.0505   -0.0537 C   0  0  0  0  0  0  0  0  0  0  0  0
   -1.2823    1.6842   -0.0753 C   0  0  0  0  0  0  0  0  0  0  0  0
   -2.2658    2.7548    0.1791 C   0  0  0  0  0  0  0  0  0  0  0  0
   -4.0133    1.1047   -0.0124 C   0  0  0  0  0  0  0  0  0  0  0  0
   -5.3964    0.8350    0.0501 C   0  0  0  0  0  0  0  0  0  0  0  0
   -5.8752   -0.4530   -0.1890 C   0  0  0  0  0  0  0  0  0  0  0  0
   -6.9528   -0.6591   -0.1401 H   0  0  0  0  0  0  0  0  0  0  0  0
   -4.9584   -1.4786   -0.4942 C   0  0  0  0  0  0  0  0  0  0  0  0
   -3.5889   -1.2469   -0.5637 C   0  0  0  0  0  0  0  0  0  0  0  0
   -2.8962   -2.0648   -0.8025 H   0  0  0  0  0  0  0  0  0  0  0  0
   -3.1038    0.0621   -0.3167 C   0  0  0  0  0  0  0  0  0  0  0  0
   -1.7143    0.4018   -0.3435 C   0  0  0  0  0  3  0  0  0  0  0  0
   -0.9656   -0.3826   -0.5673 H   0  0  0  0  0  0  0  0  0  0  0  0
    2.3319    2.0352   -0.1130 C   0  0  0  0  0  0  0  0  0  0  0  0
  2 24  1  0  0  0  0
  5 30  1  0  0  0  0
  5 17  1  0  0  0  0
  6  7  1  0  0  0  0
  8  6  1  0  0  0  0
  8  9  1  0  0  0  0
  9 10  1  0  0  0  0
 11 12  1  0  0  0  0
 11  9  2  0  0  0  0
 13 11  1  0  0  0  0
 14 13  1  0  0  0  0
 15 13  2  0  0  0  0
 15 30  1  0  0  0  0
 16 15  1  0  0  0  0
 17  6  1  0  0  0  0
 18 17  2  0  0  0  0
 18 19  1  0  0  0  0
 19  4  1  0  0  0  0
 19  3  2  0  0  0  0
 20 21  1  0  0  0  0
 20  4  1  0  0  0  0
 21  1  1  0  0  0  0
 22 23  1  0  0  0  0
 22 21  2  0  0  0  0
 24 22  1  0  0  0  0
 25 24  2  0  0  0  0
 25 27  1  0  0  0  0
 26 25  1  0  0  0  0
 27 20  2  0  0  0  0
 28 27  1  0  0  0  0
 28 18  1  0  0  0  0
 29 28  1  0  0  0  0
 30  8  2  0  0  0  0
M  END
