3
 OpenBabel05122313063D

 30 33  0  0  0  0  0  0  0  0999 V2000
   -5.3505   -2.6949   -0.3638 Cl  0  0  0  0  0  0  0  0  0  0  0  0
   -5.9095    2.6815    0.1719 Cl  0  0  0  0  0  0  0  0  0  0  0  0
    1.7277    1.1253   -0.0701 N   0  0  0  0  0  2  0  0  0  0  0  0
   -1.2669    4.1283    0.0373 O   0  0  0  0  0  0  0  0  0  0  0  0
   -2.9666    2.6936    0.0005 O   0  0  0  0  0  0  0  0  0  0  0  0
    1.2479    3.2973   -0.1020 N   0  0  0  0  0  0  0  0  0  0  0  0
    0.6070    4.1075   -0.0864 H   0  0  0  0  0  0  0  0  0  0  0  0
    2.9231    1.8246   -0.0527 C   0  0  0  0  0  0  0  0  0  0  0  0
    3.6350    4.1934   -0.0455 C   0  0  0  0  0  0  0  0  0  0  0  0
    3.3994    5.2669   -0.0549 H   0  0  0  0  0  0  0  0  0  0  0  0
   -3.2302   -0.9887   -0.3396 C   0  0  0  0  0  0  0  0  0  0  0  0
   -2.5659   -1.8616   -0.4364 H   0  0  0  0  0  0  0  0  0  0  0  0
   -5.4533    0.0088   -0.1146 C   0  0  0  0  0  0  0  0  0  0  0  0
   -6.5431   -0.1121   -0.0612 H   0  0  0  0  0  0  0  0  0  0  0  0
   -2.6666    0.3085   -0.2536 C   0  0  0  0  0  0  0  0  0  0  0  0
    2.6239    3.2184   -0.0662 C   0  0  0  0  0  0  0  0  0  0  0  0
   -4.6172   -1.1198   -0.2681 C   0  0  0  0  0  0  0  0  0  0  0  0
   -1.2570    0.5305   -0.3012 C   0  0  0  0  0  3  0  0  0  0  0  0
   -0.5903   -0.3399   -0.4466 H   0  0  0  0  0  0  0  0  0  0  0  0
   -0.7124    1.7883   -0.1473 C   0  0  0  0  0  0  0  0  0  0  0  0
   -3.4955    1.4459   -0.0898 C   0  0  0  0  0  0  0  0  0  0  0  0
   -1.6053    2.9543   -0.0267 C   0  0  0  0  0  0  0  0  0  0  0  0
    4.9541    3.7293   -0.0145 C   0  0  0  0  0  0  0  0  0  0  0  0
    5.7781    4.4579    0.0014 H   0  0  0  0  0  0  0  0  0  0  0  0
   -4.8966    1.2906   -0.0234 C   0  0  0  0  0  0  0  0  0  0  0  0
    4.2542    1.3711   -0.0242 C   0  0  0  0  0  0  0  0  0  0  0  0
    4.4713    0.2944   -0.0277 H   0  0  0  0  0  0  0  0  0  0  0  0
    0.7269    2.0315   -0.1075 C   0  0  0  0  0  0  0  0  0  0  0  0
    5.2575    2.3430   -0.0056 C   0  0  0  0  0  0  0  0  0  0  0  0
    6.3113    2.0283    0.0138 H   0  0  0  0  0  0  0  0  0  0  0  0
  1 17  1  0  0  0  0
  3  8  1  0  0  0  0
  6  7  1  0  0  0  0
  6 16  1  0  0  0  0
  8 26  1  0  0  0  0
  9 23  2  0  0  0  0
 10  9  1  0  0  0  0
 11 17  2  0  0  0  0
 11 15  1  0  0  0  0
 12 11  1  0  0  0  0
 13 14  1  0  0  0  0
 13 25  2  0  0  0  0
 15 21  2  0  0  0  0
 16  8  2  0  0  0  0
 16  9  1  0  0  0  0
 17 13  1  0  0  0  0
 18 15  1  0  0  0  0
 18 20  1  0  0  0  0
 19 18  1  0  0  0  0
 20 28  2  0  0  0  0
 20 22  1  0  0  0  0
 21 25  1  0  0  0  0
 21  5  1  0  0  0  0
 22  5  1  0  0  0  0
 22  4  2  0  0  0  0
 23 29  1  0  0  0  0
 23 24  1  0  0  0  0
 25  2  1  0  0  0  0
 26 29  2  0  0  0  0
 27 26  1  0  0  0  0
 28  6  1  0  0  0  0
 28  3  1  0  0  0  0
 29 30  1  0  0  0  0
M  END
