11
 OpenBabel05122313063D

 30 31  0  0  1  0  0  0  0  0999 V2000
    0.8955    1.4161    0.5284 C   0  0  2  0  0  0  0  0  0  0  0  0
   -0.4975    1.7704    0.2523 O   0  0  0  0  0  0  0  0  0  0  0  0
    3.3905   -0.1206    0.5875 C   0  0  1  0  0  0  0  0  0  0  0  0
    4.3534    0.0094    1.1082 H   0  0  0  0  0  0  0  0  0  0  0  0
    2.2521   -0.5478    1.5180 C   0  0  0  0  0  0  0  0  0  0  0  0
    2.1736   -1.6492    1.6025 H   0  0  0  0  0  0  0  0  0  0  0  0
    2.4680   -0.1699    2.5417 H   0  0  0  0  0  0  0  0  0  0  0  0
    0.9272   -0.0028    1.0774 C   0  0  2  0  0  3  0  0  0  0  0  0
   -0.1262   -2.0076    1.3720 O   0  0  0  0  0  0  0  0  0  0  0  0
    3.4917   -0.6013   -0.8494 C   0  0  0  0  0  0  0  0  0  0  0  0
   -0.1586   -0.7145    0.9743 N   0  0  0  0  0  2  0  0  0  0  0  0
    3.1229    0.8503   -0.5620 C   0  0  1  0  0  0  0  0  0  0  0  0
    3.9252    1.5804   -0.7547 H   0  0  0  0  0  0  0  0  0  0  0  0
    2.4552   -1.5615   -1.4046 C   0  0  0  0  0  0  0  0  0  0  0  0
    2.7574   -2.6087   -1.1973 H   0  0  0  0  0  0  0  0  0  0  0  0
    2.3723   -1.4532   -2.5061 H   0  0  0  0  0  0  0  0  0  0  0  0
    1.4427   -1.4314   -0.9806 H   0  0  0  0  0  0  0  0  0  0  0  0
    1.4236    2.4367    1.5394 C   0  0  0  0  0  0  0  0  0  0  0  0
    1.3393    3.4560    1.1132 H   0  0  0  0  0  0  0  0  0  0  0  0
    2.4886    2.2505    1.7745 H   0  0  0  0  0  0  0  0  0  0  0  0
    0.8312    2.3949    2.4733 H   0  0  0  0  0  0  0  0  0  0  0  0
    1.7139    1.3959   -0.7804 C   0  0  0  0  0  0  0  0  0  0  0  0
    1.1466    0.7867   -1.5163 H   0  0  0  0  0  0  0  0  0  0  0  0
    1.7693    2.4299   -1.1823 H   0  0  0  0  0  0  0  0  0  0  0  0
    4.8907   -0.8485   -1.3887 C   0  0  0  0  0  0  0  0  0  0  0  0
    5.2371   -1.8725   -1.1366 H   0  0  0  0  0  0  0  0  0  0  0  0
    5.6245   -0.1306   -0.9701 H   0  0  0  0  0  0  0  0  0  0  0  0
    4.9119   -0.7483   -2.4940 H   0  0  0  0  0  0  0  0  0  0  0  0
   -1.0311   -2.3374    1.0477 H   0  0  0  0  0  0  0  0  0  0  0  0
   -0.5678    2.3439   -0.5407 H   0  0  0  0  0  0  0  0  0  0  0  0
  1  2  1  6  0  0  0
  1  8  1  0  0  0  0
  1 18  1  0  0  0  0
  3  4  1  1  0  0  0
  3  5  1  0  0  0  0
  5  6  1  0  0  0  0
  5  7  1  0  0  0  0
  8 11  1  6  0  0  0
  8  5  1  0  0  0  0
 10 12  1  0  0  0  0
 10  3  1  0  0  0  0
 11  9  1  0  0  0  0
 12 13  1  6  0  0  0
 12  3  1  0  0  0  0
 14 15  1  0  0  0  0
 14 17  1  0  0  0  0
 14 10  1  0  0  0  0
 16 14  1  0  0  0  0
 18 20  1  0  0  0  0
 18 21  1  0  0  0  0
 19 18  1  0  0  0  0
 22 12  1  0  0  0  0
 22  1  1  0  0  0  0
 23 22  1  0  0  0  0
 24 22  1  0  0  0  0
 25 26  1  0  0  0  0
 25 27  1  0  0  0  0
 25 10  1  0  0  0  0
 28 25  1  0  0  0  0
 29  9  1  0  0  0  0
 30  2  1  0  0  0  0
M  END
