1
 OpenBabel05122313063D

 21 22  0  0  1  0  0  0  0  0999 V2000
    0.0000    0.0010    0.5489 N   0  0  1  0  0  0  0  0  0  0  0  0
   -1.0483    0.9246    1.0420 C   0  0  0  0  0  0  0  0  0  0  0  0
   -0.9587    1.9004    0.5279 H   0  0  0  0  0  0  0  0  0  0  0  0
   -2.0387    0.4829    0.8126 H   0  0  0  0  0  0  0  0  0  0  0  0
   -0.8714    1.1311    2.5625 C   0  0  0  0  0  0  0  0  0  0  0  0
   -1.8271    1.0883    3.1186 H   0  0  0  0  0  0  0  0  0  0  0  0
   -0.3473    2.0773    2.8014 H   0  0  0  0  0  0  0  0  0  0  0  0
    1.3256    0.4480    1.0367 C   0  0  0  0  0  0  0  0  0  0  0  0
    2.1232   -0.1187    0.5203 H   0  0  0  0  0  0  0  0  0  0  0  0
    1.4373    1.5262    0.8049 H   0  0  0  0  0  0  0  0  0  0  0  0
   -0.2744   -1.3695    1.0402 C   0  0  0  0  0  0  0  0  0  0  0  0
   -1.1664   -1.7773    0.5279 H   0  0  0  0  0  0  0  0  0  0  0  0
    0.6022   -2.0063    0.8062 H   0  0  0  0  0  0  0  0  0  0  0  0
   -0.5360   -1.3230    2.5618 C   0  0  0  0  0  0  0  0  0  0  0  0
   -0.0185   -2.1302    3.1141 H   0  0  0  0  0  0  0  0  0  0  0  0
   -1.6165   -1.3433    2.8050 H   0  0  0  0  0  0  0  0  0  0  0  0
    1.4215    0.1944    2.5572 C   0  0  0  0  0  0  0  0  0  0  0  0
    1.8641    1.0446    3.1101 H   0  0  0  0  0  0  0  0  0  0  0  0
    1.9797   -0.7321    2.7958 H   0  0  0  0  0  0  0  0  0  0  0  0
    0.0058    0.0009    3.0641 N   0  3  1  0  0  0  0  0  0  0  0  0
    0.0082    0.0009    4.0953 H   0  0  0  0  0  0  0  0  0  0  0  0
  1  8  1  1  0  0  0
  1 11  1  0  0  0  0
  1  2  1  0  0  0  0
  2  5  1  0  0  0  0
  3  2  1  0  0  0  0
  4  2  1  0  0  0  0
  5  7  1  0  0  0  0
  5 20  1  0  0  0  0
  5  6  1  0  0  0  0
  8 17  1  0  0  0  0
  9  8  1  0  0  0  0
 10  8  1  0  0  0  0
 11 14  1  0  0  0  0
 12 11  1  0  0  0  0
 13 11  1  0  0  0  0
 14 16  1  0  0  0  0
 14 20  1  0  0  0  0
 14 15  1  0  0  0  0
 17 19  1  0  0  0  0
 17 20  1  0  0  0  0
 17 18  1  0  0  0  0
 20 21  1  1  0  0  0
M  CHG  1  20   1
M  END
