1
 OpenBabel05122313063D

 35 36  0  0  0  0  0  0  0  0999 V2000
   -0.0770    0.1900   -0.0003 N   0  0  0  0  0  2  0  0  0  0  0  0
   -1.2130    1.1116   -0.0002 C   0  0  0  0  0  0  0  0  0  0  0  0
   -0.7981    2.1467   -0.0001 H   0  0  0  0  0  0  0  0  0  0  0  0
   -2.0702    0.9588    1.2705 C   0  0  0  0  0  0  0  0  0  0  0  0
   -1.4304    1.1091    2.1644 H   0  0  0  0  0  0  0  0  0  0  0  0
   -2.4406   -0.0881    1.3137 H   0  0  0  0  0  0  0  0  0  0  0  0
   -3.2539    1.9336    1.2656 C   0  0  0  0  0  0  0  0  0  0  0  0
   -3.8711    1.7806    2.1751 H   0  0  0  0  0  0  0  0  0  0  0  0
   -2.8712    2.9780    1.3223 H   0  0  0  0  0  0  0  0  0  0  0  0
   -4.1067    1.7769   -0.0000 C   0  0  0  0  0  0  0  0  0  0  0  0
   -4.5770    0.7683   -0.0001 H   0  0  0  0  0  0  0  0  0  0  0  0
   -4.9387    2.5115    0.0000 H   0  0  0  0  0  0  0  0  0  0  0  0
   -3.2539    1.9339   -1.2657 C   0  0  0  0  0  0  0  0  0  0  0  0
   -2.8712    2.9783   -1.3222 H   0  0  0  0  0  0  0  0  0  0  0  0
   -3.8712    1.7810   -2.1752 H   0  0  0  0  0  0  0  0  0  0  0  0
   -2.0703    0.9590   -1.2708 C   0  0  0  0  0  0  0  0  0  0  0  0
   -2.4407   -0.0879   -1.3142 H   0  0  0  0  0  0  0  0  0  0  0  0
   -1.4305    1.1096   -2.1648 H   0  0  0  0  0  0  0  0  0  0  0  0
    1.2922    0.7239   -0.0001 C   0  0  0  0  0  0  0  0  0  0  0  0
    1.9782   -0.1662    0.0001 H   0  0  0  0  0  0  0  0  0  0  0  0
    1.6269    1.5088    1.2799 C   0  0  0  0  0  0  0  0  0  0  0  0
    1.4245    0.8628    2.1582 H   0  0  0  0  0  0  0  0  0  0  0  0
    0.9471    2.3868    1.3501 H   0  0  0  0  0  0  0  0  0  0  0  0
    3.0856    1.9844    1.2667 C   0  0  0  0  0  0  0  0  0  0  0  0
    3.2953    2.5843    2.1764 H   0  0  0  0  0  0  0  0  0  0  0  0
    3.7538    1.0958    1.3191 H   0  0  0  0  0  0  0  0  0  0  0  0
    3.4084    2.7874    0.0000 C   0  0  0  0  0  0  0  0  0  0  0  0
    4.4742    3.0967    0.0001 H   0  0  0  0  0  0  0  0  0  0  0  0
    2.8104    3.7268   -0.0001 H   0  0  0  0  0  0  0  0  0  0  0  0
    3.0859    1.9842   -1.2666 C   0  0  0  0  0  0  0  0  0  0  0  0
    3.7541    1.0956   -1.3188 H   0  0  0  0  0  0  0  0  0  0  0  0
    3.2959    2.5840   -2.1763 H   0  0  0  0  0  0  0  0  0  0  0  0
    1.6272    1.5086   -1.2801 C   0  0  0  0  0  0  0  0  0  0  0  0
    0.9475    2.3865   -1.3507 H   0  0  0  0  0  0  0  0  0  0  0  0
    1.4251    0.8624   -2.1584 H   0  0  0  0  0  0  0  0  0  0  0  0
  1  2  1  0  0  0  0
  1 19  1  0  0  0  0
  2  3  1  0  0  0  0
  2  4  1  0  0  0  0
  4  6  1  0  0  0  0
  4  5  1  0  0  0  0
  7  4  1  0  0  0  0
  7  9  1  0  0  0  0
  7  8  1  0  0  0  0
 10 12  1  0  0  0  0
 10  7  1  0  0  0  0
 11 10  1  0  0  0  0
 13 10  1  0  0  0  0
 14 13  1  0  0  0  0
 15 13  1  0  0  0  0
 16 13  1  0  0  0  0
 16  2  1  0  0  0  0
 17 16  1  0  0  0  0
 18 16  1  0  0  0  0
 19 20  1  0  0  0  0
 19 21  1  0  0  0  0
 21 23  1  0  0  0  0
 21 22  1  0  0  0  0
 24 21  1  0  0  0  0
 24 26  1  0  0  0  0
 24 25  1  0  0  0  0
 27 28  1  0  0  0  0
 27 24  1  0  0  0  0
 29 27  1  0  0  0  0
 30 27  1  0  0  0  0
 31 30  1  0  0  0  0
 32 30  1  0  0  0  0
 33 30  1  0  0  0  0
 33 19  1  0  0  0  0
 34 33  1  0  0  0  0
 35 33  1  0  0  0  0
M  END
