1
 OpenBabel05122313063D

 66 67  0  0  1  0  0  0  0  0999 V2000
   -0.5756   -0.0803   -0.5482 N   0  0  0  0  0  2  0  0  0  0  0  0
    1.6563   -0.1689    0.0206 N   0  0  0  0  0  0  0  0  0  0  0  0
    1.2905   -0.1650    0.9862 H   0  0  0  0  0  0  0  0  0  0  0  0
    0.6874   -0.1056   -0.9254 C   0  0  1  0  0  3  0  0  0  0  0  0
    1.1516   -0.0713   -2.3576 C   0  0  0  0  0  0  0  0  0  0  0  0
    1.8213   -0.9302   -2.5596 H   0  0  0  0  0  0  0  0  0  0  0  0
    1.7534    0.8417   -2.5373 H   0  0  0  0  0  0  0  0  0  0  0  0
    0.2998   -0.0900   -3.0569 H   0  0  0  0  0  0  0  0  0  0  0  0
   -1.5870   -0.0117   -1.5643 C   0  0  0  0  0  0  0  0  0  0  0  0
   -2.1716   -1.2120   -2.0511 C   0  0  0  0  0  0  0  0  0  0  0  0
   -1.7028   -2.5757   -1.5627 C   0  0  0  0  0  0  0  0  0  0  0  0
   -1.0492   -2.3928   -0.6867 H   0  0  0  0  0  0  0  0  0  0  0  0
   -2.8723   -3.4571   -1.0983 C   0  0  0  0  0  0  0  0  0  0  0  0
   -2.4960   -4.3804   -0.6138 H   0  0  0  0  0  0  0  0  0  0  0  0
   -3.5171   -3.7636   -1.9478 H   0  0  0  0  0  0  0  0  0  0  0  0
   -3.5108   -2.9250   -0.3658 H   0  0  0  0  0  0  0  0  0  0  0  0
   -0.8525   -3.2944   -2.6258 C   0  0  0  0  0  0  0  0  0  0  0  0
   -0.4834   -4.2677   -2.2414 H   0  0  0  0  0  0  0  0  0  0  0  0
    0.0270   -2.6904   -2.9247 H   0  0  0  0  0  0  0  0  0  0  0  0
   -1.4452   -3.4954   -3.5426 H   0  0  0  0  0  0  0  0  0  0  0  0
   -3.1900   -1.1186   -3.0173 C   0  0  0  0  0  0  0  0  0  0  0  0
   -3.6502   -2.0412   -3.4028 H   0  0  0  0  0  0  0  0  0  0  0  0
   -3.6254    0.1226   -3.4963 C   0  0  0  0  0  0  0  0  0  0  0  0
   -4.4241    0.1752   -4.2514 H   0  0  0  0  0  0  0  0  0  0  0  0
   -3.0395    1.2963   -3.0084 C   0  0  0  0  0  0  0  0  0  0  0  0
   -3.3821    2.2720   -3.3863 H   0  0  0  0  0  0  0  0  0  0  0  0
   -2.0171    1.2568   -2.0424 C   0  0  0  0  0  0  0  0  0  0  0  0
   -1.3996    2.5556   -1.5401 C   0  0  0  0  0  0  0  0  0  0  0  0
   -0.6997    2.2852   -0.7250 H   0  0  0  0  0  0  0  0  0  0  0  0
   -2.4579    3.5006   -0.9484 C   0  0  0  0  0  0  0  0  0  0  0  0
   -3.1502    3.8754   -1.7303 H   0  0  0  0  0  0  0  0  0  0  0  0
   -1.9754    4.3796   -0.4756 H   0  0  0  0  0  0  0  0  0  0  0  0
   -3.0679    2.9915   -0.1767 H   0  0  0  0  0  0  0  0  0  0  0  0
   -0.5798    3.2623   -2.6343 C   0  0  0  0  0  0  0  0  0  0  0  0
   -0.0881    4.1709   -2.2294 H   0  0  0  0  0  0  0  0  0  0  0  0
   -1.2255    3.5775   -3.4801 H   0  0  0  0  0  0  0  0  0  0  0  0
    0.2096    2.6038   -3.0469 H   0  0  0  0  0  0  0  0  0  0  0  0
    3.0565   -0.0216   -0.2156 C   0  0  0  0  0  0  0  0  0  0  0  0
    3.6053    1.2855   -0.2794 C   0  0  0  0  0  0  0  0  0  0  0  0
    2.7237    2.5045   -0.0363 C   0  0  0  0  0  0  0  0  0  0  0  0
    1.6902    2.2316   -0.3360 H   0  0  0  0  0  0  0  0  0  0  0  0
    3.1245    3.7331   -0.8618 C   0  0  0  0  0  0  0  0  0  0  0  0
    2.3789    4.5422   -0.7262 H   0  0  0  0  0  0  0  0  0  0  0  0
    3.1818    3.4989   -1.9441 H   0  0  0  0  0  0  0  0  0  0  0  0
    4.1073    4.1427   -0.5497 H   0  0  0  0  0  0  0  0  0  0  0  0
    2.6789    2.8305    1.4694 C   0  0  0  0  0  0  0  0  0  0  0  0
    1.9676    3.6561    1.6726 H   0  0  0  0  0  0  0  0  0  0  0  0
    3.6823    3.1338    1.8329 H   0  0  0  0  0  0  0  0  0  0  0  0
    2.3596    1.9552    2.0692 H   0  0  0  0  0  0  0  0  0  0  0  0
    4.9887    1.4049   -0.5069 C   0  0  0  0  0  0  0  0  0  0  0  0
    5.4465    2.4034   -0.5609 H   0  0  0  0  0  0  0  0  0  0  0  0
    5.7914    0.2670   -0.6631 C   0  0  0  0  0  0  0  0  0  0  0  0
    6.8715    0.3808   -0.8417 H   0  0  0  0  0  0  0  0  0  0  0  0
    5.2296   -1.0147   -0.5913 C   0  0  0  0  0  0  0  0  0  0  0  0
    5.8746   -1.8969   -0.7131 H   0  0  0  0  0  0  0  0  0  0  0  0
    3.8511   -1.1859   -0.3664 C   0  0  0  0  0  0  0  0  0  0  0  0
    3.2204   -2.5654   -0.2254 C   0  0  0  0  0  0  0  0  0  0  0  0
    2.1645   -2.4746   -0.5584 H   0  0  0  0  0  0  0  0  0  0  0  0
    3.1868   -2.9809    1.2587 C   0  0  0  0  0  0  0  0  0  0  0  0
    2.6638   -3.9509    1.3843 H   0  0  0  0  0  0  0  0  0  0  0  0
    2.6670   -2.2299    1.8856 H   0  0  0  0  0  0  0  0  0  0  0  0
    4.2169   -3.0905    1.6562 H   0  0  0  0  0  0  0  0  0  0  0  0
    3.8890   -3.6416   -1.0890 C   0  0  0  0  0  0  0  0  0  0  0  0
    3.3124   -4.5868   -1.0359 H   0  0  0  0  0  0  0  0  0  0  0  0
    4.9181   -3.8713   -0.7435 H   0  0  0  0  0  0  0  0  0  0  0  0
    3.9488   -3.3358   -2.1531 H   0  0  0  0  0  0  0  0  0  0  0  0
  2  3  1  0  0  0  0
  4  1  1  6  0  0  0
  4  2  1  0  0  0  0
  5  4  1  0  0  0  0
  6  5  1  0  0  0  0
  7  5  1  0  0  0  0
  8  5  1  0  0  0  0
  9  1  1  0  0  0  0
 10  9  2  0  0  0  0
 10 11  1  0  0  0  0
 11 13  1  0  0  0  0
 11 12  1  0  0  0  0
 13 14  1  0  0  0  0
 13 16  1  0  0  0  0
 15 13  1  0  0  0  0
 17 18  1  0  0  0  0
 17 11  1  0  0  0  0
 19 17  1  0  0  0  0
 20 17  1  0  0  0  0
 21 10  1  0  0  0  0
 22 21  1  0  0  0  0
 23 21  2  0  0  0  0
 23 25  1  0  0  0  0
 24 23  1  0  0  0  0
 25 27  2  0  0  0  0
 26 25  1  0  0  0  0
 27  9  1  0  0  0  0
 27 28  1  0  0  0  0
 28 30  1  0  0  0  0
 28 29  1  0  0  0  0
 30 32  1  0  0  0  0
 30 33  1  0  0  0  0
 31 30  1  0  0  0  0
 34 35  1  0  0  0  0
 34 28  1  0  0  0  0
 36 34  1  0  0  0  0
 37 34  1  0  0  0  0
 38  2  1  0  0  0  0
 39 38  1  0  0  0  0
 39 40  1  0  0  0  0
 40 46  1  0  0  0  0
 41 40  1  0  0  0  0
 42 43  1  0  0  0  0
 42 45  1  0  0  0  0
 42 40  1  0  0  0  0
 44 42  1  0  0  0  0
 46 47  1  0  0  0  0
 46 48  1  0  0  0  0
 46 49  1  0  0  0  0
 50 39  2  0  0  0  0
 51 50  1  0  0  0  0
 52 54  2  0  0  0  0
 52 50  1  0  0  0  0
 53 52  1  0  0  0  0
 54 56  1  0  0  0  0
 55 54  1  0  0  0  0
 56 57  1  0  0  0  0
 56 38  2  0  0  0  0
 57 59  1  0  0  0  0
 58 57  1  0  0  0  0
 59 60  1  0  0  0  0
 59 62  1  0  0  0  0
 59 61  1  0  0  0  0
 63 64  1  0  0  0  0
 63 65  1  0  0  0  0
 63 57  1  0  0  0  0
 66 63  1  0  0  0  0
M  END
