1
 OpenBabel05122313063D

 31 33  0  0  0  0  0  0  0  0999 V2000
   -0.9955    2.8328    0.4189 N   0  0  0  0  0  0  0  0  0  0  0  0
   -1.3477    4.1073    0.7744 C   0  0  0  0  0  3  0  0  0  0  0  0
   -0.6073    4.9178    0.7771 H   0  0  0  0  0  0  0  0  0  0  0  0
   -2.7091    4.1424    1.1050 C   0  0  0  0  0  0  0  0  0  0  0  0
   -3.2714    5.0242    1.4369 H   0  0  0  0  0  0  0  0  0  0  0  0
   -3.2177    2.8206    0.9407 C   0  0  0  0  0  0  0  0  0  0  0  0
   -4.2409    2.4717    1.1251 H   0  0  0  0  0  0  0  0  0  0  0  0
   -2.1389    2.0344    0.5136 C   0  0  0  0  0  0  0  0  0  0  0  0
   -1.7908    0.3113    0.1042 P   0  0  0  0  0  0  0  0  0  0  0  0
   -2.6814   -0.0928   -1.4493 C   0  0  0  0  0  0  0  0  0  0  0  0
   -3.4516    0.8567   -2.1486 C   0  0  0  0  0  0  0  0  0  0  0  0
   -3.6070    1.8530   -1.7055 H   0  0  0  0  0  0  0  0  0  0  0  0
   -4.0106    0.5320   -3.3957 C   0  0  0  0  0  0  0  0  0  0  0  0
   -4.6099    1.2812   -3.9358 H   0  0  0  0  0  0  0  0  0  0  0  0
   -3.8130   -0.7426   -3.9504 C   0  0  0  0  0  0  0  0  0  0  0  0
   -4.2533   -0.9944   -4.9273 H   0  0  0  0  0  0  0  0  0  0  0  0
   -3.0492   -1.6952   -3.2538 C   0  0  0  0  0  0  0  0  0  0  0  0
   -2.8852   -2.6957   -3.6830 H   0  0  0  0  0  0  0  0  0  0  0  0
   -2.4779   -1.3714   -2.0157 C   0  0  0  0  0  0  0  0  0  0  0  0
   -1.8603   -2.1145   -1.4869 H   0  0  0  0  0  0  0  0  0  0  0  0
   -2.6217   -0.7106    1.3901 C   0  0  0  0  0  0  0  0  0  0  0  0
   -3.7179   -1.5519    1.1132 C   0  0  0  0  0  0  0  0  0  0  0  0
   -4.1556   -1.5706    0.1044 H   0  0  0  0  0  0  0  0  0  0  0  0
   -4.2532   -2.3700    2.1215 C   0  0  0  0  0  0  0  0  0  0  0  0
   -5.1124   -3.0200    1.8940 H   0  0  0  0  0  0  0  0  0  0  0  0
   -3.7016   -2.3577    3.4121 C   0  0  0  0  0  0  0  0  0  0  0  0
   -4.1208   -3.0029    4.1993 H   0  0  0  0  0  0  0  0  0  0  0  0
   -2.6124   -1.5147    3.6931 C   0  0  0  0  0  0  0  0  0  0  0  0
   -2.1689   -1.4961    4.7004 H   0  0  0  0  0  0  0  0  0  0  0  0
   -2.0719   -0.6978    2.6913 C   0  0  0  0  0  0  0  0  0  0  0  0
   -1.2091   -0.0532    2.9198 H   0  0  0  0  0  0  0  0  0  0  0  0
  1  8  2  0  0  0  0
  1  2  1  0  0  0  0
  2  3  1  0  0  0  0
  2  4  1  0  0  0  0
  4  5  1  0  0  0  0
  6  4  2  0  0  0  0
  6  7  1  0  0  0  0
  8  6  1  0  0  0  0
  9  8  1  0  0  0  0
  9 21  1  0  0  0  0
 10  9  1  0  0  0  0
 11 12  1  0  0  0  0
 11 10  2  0  0  0  0
 13 11  1  0  0  0  0
 14 13  1  0  0  0  0
 15 13  2  0  0  0  0
 15 17  1  0  0  0  0
 16 15  1  0  0  0  0
 17 19  2  0  0  0  0
 18 17  1  0  0  0  0
 19 20  1  0  0  0  0
 19 10  1  0  0  0  0
 21 30  1  0  0  0  0
 22 21  2  0  0  0  0
 22 24  1  0  0  0  0
 23 22  1  0  0  0  0
 24 26  2  0  0  0  0
 25 24  1  0  0  0  0
 26 28  1  0  0  0  0
 26 27  1  0  0  0  0
 28 29  1  0  0  0  0
 30 31  1  0  0  0  0
 30 28  2  0  0  0  0
M  END
