1
 OpenBabel05122313063D

 45 47  0  0  0  0  0  0  0  0999 V2000
    0.0947    1.6920    0.5940 N   0  0  0  0  0  0  0  0  0  0  0  0
   -2.2593    0.4474   -0.1491 N   0  0  0  0  0  0  0  0  0  0  0  0
    2.3709    0.2163    0.0461 N   0  0  0  0  0  0  0  0  0  0  0  0
   -0.9677    2.4780    0.2247 C   0  0  0  0  0  0  0  0  0  0  0  0
   -0.4872    3.6942   -0.2732 C   0  0  0  0  0  0  0  0  0  0  0  0
   -1.0903    4.5305   -0.6484 H   0  0  0  0  0  0  0  0  0  0  0  0
    0.9431    3.6227   -0.2138 C   0  0  0  0  0  0  0  0  0  0  0  0
    1.6553    4.3936   -0.5339 H   0  0  0  0  0  0  0  0  0  0  0  0
    1.2572    2.3667    0.3168 C   0  0  0  0  0  3  0  0  0  0  0  0
   -2.3201    1.8464    0.3400 C   0  0  0  0  0  0  0  0  0  0  0  0
   -2.6578    1.7941    1.4004 H   0  0  0  0  0  0  0  0  0  0  0  0
   -3.0889    2.4388   -0.2139 H   0  0  0  0  0  0  0  0  0  0  0  0
    2.5253    1.6049    0.5459 C   0  0  0  0  0  0  0  0  0  0  0  0
    3.3947    2.1162    0.0649 H   0  0  0  0  0  0  0  0  0  0  0  0
    2.7615    1.5237    1.6315 H   0  0  0  0  0  0  0  0  0  0  0  0
   -2.0631    0.4111   -1.6068 C   0  0  0  0  0  0  0  0  0  0  0  0
   -1.1692    1.0241   -1.8434 H   0  0  0  0  0  0  0  0  0  0  0  0
   -2.9316    0.9023   -2.1202 H   0  0  0  0  0  0  0  0  0  0  0  0
   -1.9133   -1.0206   -2.1179 C   0  0  0  0  0  0  0  0  0  0  0  0
   -0.9906   -1.4625   -1.6804 H   0  0  0  0  0  0  0  0  0  0  0  0
   -1.7692   -1.0073   -3.2179 H   0  0  0  0  0  0  0  0  0  0  0  0
   -3.1224   -1.8735   -1.7229 C   0  0  0  0  0  0  0  0  0  0  0  0
   -2.9838   -2.9288   -2.0368 H   0  0  0  0  0  0  0  0  0  0  0  0
   -4.0239   -1.4988   -2.2579 H   0  0  0  0  0  0  0  0  0  0  0  0
   -3.3502   -1.7819   -0.2105 C   0  0  0  0  0  0  0  0  0  0  0  0
   -4.2741   -2.3185    0.0885 H   0  0  0  0  0  0  0  0  0  0  0  0
   -2.5055   -2.2693    0.3203 H   0  0  0  0  0  0  0  0  0  0  0  0
   -3.4425   -0.3261    0.2489 C   0  0  0  0  0  0  0  0  0  0  0  0
   -4.3709    0.1412   -0.1747 H   0  0  0  0  0  0  0  0  0  0  0  0
   -3.5321   -0.2696    1.3539 H   0  0  0  0  0  0  0  0  0  0  0  0
    2.3125    0.1943   -1.4235 C   0  0  0  0  0  0  0  0  0  0  0  0
    3.2686    0.5991   -1.8491 H   0  0  0  0  0  0  0  0  0  0  0  0
    1.5077    0.8893   -1.7401 H   0  0  0  0  0  0  0  0  0  0  0  0
    2.0777   -1.2179   -1.9560 C   0  0  0  0  0  0  0  0  0  0  0  0
    2.0382   -1.1931   -3.0646 H   0  0  0  0  0  0  0  0  0  0  0  0
    1.0816   -1.5715   -1.6084 H   0  0  0  0  0  0  0  0  0  0  0  0
    3.1614   -2.1774   -1.4563 C   0  0  0  0  0  0  0  0  0  0  0  0
    4.1400   -1.8841   -1.8989 H   0  0  0  0  0  0  0  0  0  0  0  0
    2.9600   -3.2153   -1.7933 H   0  0  0  0  0  0  0  0  0  0  0  0
    3.2495   -2.1103    0.0718 C   0  0  0  0  0  0  0  0  0  0  0  0
    2.3210   -2.5275    0.5150 H   0  0  0  0  0  0  0  0  0  0  0  0
    4.0921   -2.7252    0.4502 H   0  0  0  0  0  0  0  0  0  0  0  0
    3.4248   -0.6700    0.5566 C   0  0  0  0  0  0  0  0  0  0  0  0
    3.3993   -0.6268    1.6658 H   0  0  0  0  0  0  0  0  0  0  0  0
    4.4333   -0.2913    0.2419 H   0  0  0  0  0  0  0  0  0  0  0  0
  2 28  1  0  0  0  0
  2 10  1  0  0  0  0
  3 13  1  0  0  0  0
  3 43  1  0  0  0  0
  4 10  1  0  0  0  0
  4  1  2  0  0  0  0
  5  7  2  0  0  0  0
  5  4  1  0  0  0  0
  6  5  1  0  0  0  0
  7  9  1  0  0  0  0
  8  7  1  0  0  0  0
  9 13  1  0  0  0  0
  9  1  1  0  0  0  0
 10 11  1  0  0  0  0
 12 10  1  0  0  0  0
 13 15  1  0  0  0  0
 14 13  1  0  0  0  0
 16  2  1  0  0  0  0
 17 16  1  0  0  0  0
 18 16  1  0  0  0  0
 19 22  1  0  0  0  0
 19 20  1  0  0  0  0
 19 16  1  0  0  0  0
 21 19  1  0  0  0  0
 22 25  1  0  0  0  0
 23 22  1  0  0  0  0
 24 22  1  0  0  0  0
 25 26  1  0  0  0  0
 25 28  1  0  0  0  0
 25 27  1  0  0  0  0
 28 30  1  0  0  0  0
 29 28  1  0  0  0  0
 31  3  1  0  0  0  0
 32 31  1  0  0  0  0
 33 31  1  0  0  0  0
 34 36  1  0  0  0  0
 34 37  1  0  0  0  0
 34 31  1  0  0  0  0
 35 34  1  0  0  0  0
 37 40  1  0  0  0  0
 38 37  1  0  0  0  0
 39 37  1  0  0  0  0
 40 42  1  0  0  0  0
 40 41  1  0  0  0  0
 40 43  1  0  0  0  0
 43 44  1  0  0  0  0
 45 43  1  0  0  0  0
M  END
