1
 OpenBabel05122313063D

 23 23  0  0  0  0  0  0  0  0999 V2000
    0.4455   -1.7516   -0.9678 N   0  0  0  0  0  0  0  0  0  0  0  0
   -0.0238   -2.6600   -0.8110 H   0  0  0  0  0  0  0  0  0  0  0  0
    0.5263   -1.6317   -1.9837 H   0  0  0  0  0  0  0  0  0  0  0  0
    1.7125   -1.6410   -0.3173 C   0  0  0  0  0  0  0  0  0  0  0  0
    1.8041   -1.9622    1.0586 C   0  0  0  0  0  0  0  0  0  0  0  0
    3.0438   -1.7982    1.6992 C   0  0  0  0  0  0  0  0  0  0  0  0
    3.1150   -2.0399    2.7723 H   0  0  0  0  0  0  0  0  0  0  0  0
    4.1852   -1.3381    1.0176 C   0  0  0  0  0  0  0  0  0  0  0  0
    4.0646   -1.0697   -0.3570 C   0  0  0  0  0  0  0  0  0  0  0  0
    4.9500   -0.7362   -0.9221 H   0  0  0  0  0  0  0  0  0  0  0  0
    2.8483   -1.2141   -1.0442 C   0  0  0  0  0  0  0  0  0  0  0  0
    0.6002   -2.4782    1.7992 C   0  0  0  0  0  0  0  0  0  0  0  0
    0.8058   -2.5826    2.8809 H   0  0  0  0  0  0  0  0  0  0  0  0
    0.2736   -3.4711    1.4197 H   0  0  0  0  0  0  0  0  0  0  0  0
   -0.2810   -1.8097    1.6671 H   0  0  0  0  0  0  0  0  0  0  0  0
    5.4861   -1.1046    1.7436 C   0  0  0  0  0  0  0  0  0  0  0  0
    5.6127   -1.8008    2.5963 H   0  0  0  0  0  0  0  0  0  0  0  0
    5.5322   -0.0732    2.1577 H   0  0  0  0  0  0  0  0  0  0  0  0
    6.3583   -1.2224    1.0703 H   0  0  0  0  0  0  0  0  0  0  0  0
    2.7666   -0.9667   -2.5297 C   0  0  0  0  0  0  0  0  0  0  0  0
    3.7274   -0.5816   -2.9192 H   0  0  0  0  0  0  0  0  0  0  0  0
    1.9904   -0.2185   -2.7908 H   0  0  0  0  0  0  0  0  0  0  0  0
    2.5339   -1.8997   -3.0894 H   0  0  0  0  0  0  0  0  0  0  0  0
  1  2  1  0  0  0  0
  1  4  1  0  0  0  0
  3  1  1  0  0  0  0
  4  5  1  0  0  0  0
  5  6  2  0  0  0  0
  5 12  1  0  0  0  0
  6  7  1  0  0  0  0
  8  6  1  0  0  0  0
  8 16  1  0  0  0  0
  9  8  2  0  0  0  0
 10  9  1  0  0  0  0
 11  9  1  0  0  0  0
 11  4  2  0  0  0  0
 12 13  1  0  0  0  0
 14 12  1  0  0  0  0
 15 12  1  0  0  0  0
 16 18  1  0  0  0  0
 16 17  1  0  0  0  0
 19 16  1  0  0  0  0
 20 11  1  0  0  0  0
 21 20  1  0  0  0  0
 22 20  1  0  0  0  0
 23 20  1  0  0  0  0
M  END
