2
 OpenBabel05122313063D

 23 25  0  0  0  0  0  0  0  0999 V2000
    0.9717    2.0678   -0.3831 N   0  0  0  0  0  0  0  0  0  0  0  0
   -1.0336    1.6057    0.2596 N   0  0  0  0  0  2  0  0  0  0  0  0
    0.1913    1.6986    0.6691 N   0  0  0  0  0  2  0  0  0  0  0  0
    0.2023    2.2296   -1.5250 C   0  0  0  0  0  0  0  0  0  0  0  0
    2.3731    2.1330   -0.1822 C   0  0  0  0  0  0  0  0  0  0  0  0
    2.8726    2.4332    1.0978 C   0  0  0  0  0  0  0  0  0  0  0  0
    2.1848    2.6556    1.9248 H   0  0  0  0  0  0  0  0  0  0  0  0
   -1.1120    1.9154   -1.0853 C   0  0  0  0  0  0  0  0  0  0  0  0
   -0.6506    2.6776   -3.7039 C   0  0  0  0  0  0  0  0  0  0  0  0
   -0.5003    2.9914   -4.7478 H   0  0  0  0  0  0  0  0  0  0  0  0
   -1.9603    2.3349   -3.2710 C   0  0  0  0  0  0  0  0  0  0  0  0
   -2.7883    2.3825   -3.9935 H   0  0  0  0  0  0  0  0  0  0  0  0
    0.4556    2.6354   -2.8496 C   0  0  0  0  0  0  0  0  0  0  0  0
    1.4563    2.9216   -3.1978 H   0  0  0  0  0  0  0  0  0  0  0  0
    3.2731    1.8324   -1.2177 C   0  0  0  0  0  0  0  0  0  0  0  0
    2.9256    1.5475   -2.2194 H   0  0  0  0  0  0  0  0  0  0  0  0
    4.2630    2.4099    1.2748 C   0  0  0  0  0  0  0  0  0  0  0  0
    4.6871    2.6335    2.2693 H   0  0  0  0  0  0  0  0  0  0  0  0
   -2.2203    1.9539   -1.9546 C   0  0  0  0  0  0  0  0  0  0  0  0
   -3.2170    1.6821   -1.5707 H   0  0  0  0  0  0  0  0  0  0  0  0
    5.1431    2.1268    0.2983 N   0  0  0  0  0  0  0  0  0  0  0  0
    4.6446    1.8513   -0.9157 C   0  0  0  0  0  0  0  0  0  0  0  0
    5.3769    1.6105   -1.7065 H   0  0  0  0  0  0  0  0  0  0  0  0
  1  5  1  0  0  0  0
  1  3  1  0  0  0  0
  2  3  1  0  0  0  0
  4  8  1  0  0  0  0
  4  1  1  0  0  0  0
  5  6  1  0  0  0  0
  6 17  2  0  0  0  0
  6  7  1  0  0  0  0
  8  2  1  0  0  0  0
  9 11  2  0  0  0  0
  9 13  1  0  0  0  0
 10  9  1  0  0  0  0
 11 19  1  0  0  0  0
 12 11  1  0  0  0  0
 13  4  2  0  0  0  0
 14 13  1  0  0  0  0
 15 22  1  0  0  0  0
 15  5  2  0  0  0  0
 16 15  1  0  0  0  0
 17 18  1  0  0  0  0
 19 20  1  0  0  0  0
 19  8  2  0  0  0  0
 21 17  1  0  0  0  0
 22 21  2  0  0  0  0
 23 22  1  0  0  0  0
M  END
