1
 OpenBabel05122313063D

 10 10  0  0  0  0  0  0  0  0999 V2000
    1.4600   -0.8127   -0.6206 N   0  0  0  0  0  2  0  0  0  0  0  0
    1.2771   -1.9050   -1.4335 N   0  0  0  0  0  0  0  0  0  0  0  0
    3.4110   -1.7305   -0.8715 N   0  0  0  0  0  0  0  0  0  0  0  0
    4.7698   -2.0462   -0.8137 N   0  0  0  0  0  0  0  0  0  0  0  0
    5.3074   -1.2430   -1.1666 H   0  0  0  0  0  0  0  0  0  0  0  0
    5.0319   -2.1831    0.1719 H   0  0  0  0  0  0  0  0  0  0  0  0
    2.7355   -0.7008   -0.2799 C   0  0  0  0  0  3  0  0  0  0  0  0
    3.0923    0.1186    0.3935 H   0  0  0  0  0  0  0  0  0  0  0  0
    2.4666   -2.4489   -1.5751 C   0  0  0  0  0  0  0  0  0  0  0  0
    2.7185   -3.3426   -2.1574 H   0  0  0  0  0  0  0  0  0  0  0  0
  1  7  1  0  0  0  0
  2  1  1  0  0  0  0
  3  4  1  0  0  0  0
  3  7  1  0  0  0  0
  4  6  1  0  0  0  0
  5  4  1  0  0  0  0
  7  8  1  0  0  0  0
  9  2  2  0  0  0  0
  9  3  1  0  0  0  0
 10  9  1  0  0  0  0
M  END
