11
 OpenBabel05122313063D

 23 24  0  0  0  0  0  0  0  0999 V2000
   -2.8734   -1.3699    1.8219 F   0  0  0  0  0  0  0  0  0  0  0  0
   -2.8405   -4.0795    1.7425 F   0  0  0  0  0  0  0  0  0  0  0  0
   -1.5854   -5.3855   -0.3246 F   0  0  0  0  0  0  0  0  0  0  0  0
   -0.3771   -3.9396   -2.3097 F   0  0  0  0  0  0  0  0  0  0  0  0
   -0.4499   -1.2367   -2.2800 F   0  0  0  0  0  0  0  0  0  0  0  0
   -4.3492   -0.9232   -0.5682 F   0  0  0  0  0  0  0  0  0  0  0  0
   -6.4724    0.6778   -0.4774 F   0  0  0  0  0  0  0  0  0  0  0  0
   -6.2315    3.3999   -0.1961 F   0  0  0  0  0  0  0  0  0  0  0  0
   -3.6844    4.4918    0.0112 F   0  0  0  0  0  0  0  0  0  0  0  0
   -1.4949    2.8743   -0.0391 F   0  0  0  0  0  0  0  0  0  0  0  0
   -1.6157    0.2008   -0.1707 N   0  0  0  0  0  0  0  0  0  0  0  0
   -1.6306   -1.1952   -0.2032 C   0  0  0  0  0  0  0  0  0  0  0  0
   -2.2486   -1.9805    0.8003 C   0  0  0  0  0  0  0  0  0  0  0  0
   -2.2492   -3.3812    0.7696 C   0  0  0  0  0  0  0  0  0  0  0  0
   -1.6276   -4.0518   -0.2968 C   0  0  0  0  0  0  0  0  0  0  0  0
   -0.9990   -3.3062   -1.3072 C   0  0  0  0  0  0  0  0  0  0  0  0
   -1.0269   -1.9069   -1.2658 C   0  0  0  0  0  0  0  0  0  0  0  0
   -2.8055    0.8939   -0.1733 C   0  0  0  0  0  0  0  0  0  0  0  0
   -4.1301    0.3893   -0.3634 C   0  0  0  0  0  0  0  0  0  0  0  0
   -5.2592    1.2222   -0.3350 C   0  0  0  0  0  0  0  0  0  0  0  0
   -5.1432    2.6195   -0.2176 C   0  0  0  0  0  0  0  0  0  0  0  0
   -3.8577    3.1688   -0.0863 C   0  0  0  0  0  0  0  0  0  0  0  0
   -2.7582    2.3109   -0.0956 C   0  0  0  0  0  0  0  0  0  0  0  0
  3 15  1  0  0  0  0
  4 16  1  0  0  0  0
  5 17  1  0  0  0  0
  6 19  1  0  0  0  0
  7 20  1  0  0  0  0
 12 11  1  0  0  0  0
 12 13  1  0  0  0  0
 13  1  1  0  0  0  0
 14 13  2  0  0  0  0
 14  2  1  0  0  0  0
 15 14  1  0  0  0  0
 16 17  1  0  0  0  0
 16 15  2  0  0  0  0
 17 12  2  0  0  0  0
 18 11  1  0  0  0  0
 18 23  1  0  0  0  0
 19 20  1  0  0  0  0
 19 18  2  0  0  0  0
 20 21  2  0  0  0  0
 21  8  1  0  0  0  0
 21 22  1  0  0  0  0
 22  9  1  0  0  0  0
 23 22  2  0  0  0  0
 23 10  1  0  0  0  0
M  END
