3
 OpenBabel05122313063D

 28 28  0  0  0  0  0  0  0  0999 V2000
    1.2675   -1.2334    0.5595 O   0  0  0  0  0  0  0  0  0  0  0  0
    3.3152   -0.4457   -0.2769 O   0  0  0  0  0  0  0  0  0  0  0  0
    0.2213    1.4098   -0.0629 N   0  0  0  0  0  2  0  0  0  0  0  0
   -0.1840    2.6846    0.1286 C   0  0  0  0  0  3  0  0  0  0  0  0
   -1.2692    2.8467    0.1897 H   0  0  0  0  0  0  0  0  0  0  0  0
    0.7329    3.7293    0.2567 C   0  0  0  0  0  0  0  0  0  0  0  0
    0.3664    4.7543    0.4050 H   0  0  0  0  0  0  0  0  0  0  0  0
    2.1018    3.4330    0.1989 C   0  0  0  0  0  0  0  0  0  0  0  0
    2.8517    4.2315    0.3027 H   0  0  0  0  0  0  0  0  0  0  0  0
    2.5043    2.1057    0.0127 C   0  0  0  0  0  0  0  0  0  0  0  0
    3.5588    1.8068   -0.0356 H   0  0  0  0  0  0  0  0  0  0  0  0
    1.5375    1.0981   -0.1173 C   0  0  0  0  0  0  0  0  0  0  0  0
    1.9197   -0.3671   -0.3359 C   0  0  0  0  0  0  0  0  0  0  0  0
    1.5293   -0.6720   -1.3376 H   0  0  0  0  0  0  0  0  0  0  0  0
    1.5209   -1.0006    1.9592 C   0  0  0  0  0  0  0  0  0  0  0  0
    1.0862   -0.0196    2.2596 H   0  0  0  0  0  0  0  0  0  0  0  0
    2.6196   -0.9644    2.1293 H   0  0  0  0  0  0  0  0  0  0  0  0
    0.8615   -2.1196    2.7375 C   0  0  0  0  0  0  0  0  0  0  0  0
   -0.2342   -2.0994    2.5788 H   0  0  0  0  0  0  0  0  0  0  0  0
    1.0565   -1.9948    3.8211 H   0  0  0  0  0  0  0  0  0  0  0  0
    1.2526   -3.1067    2.4205 H   0  0  0  0  0  0  0  0  0  0  0  0
    3.8363   -1.6778   -0.7918 C   0  0  0  0  0  0  0  0  0  0  0  0
    3.3479   -2.5311   -0.2715 H   0  0  0  0  0  0  0  0  0  0  0  0
    3.5770   -1.7609   -1.8740 H   0  0  0  0  0  0  0  0  0  0  0  0
    5.3367   -1.6900   -0.5826 C   0  0  0  0  0  0  0  0  0  0  0  0
    5.8166   -0.8369   -1.1028 H   0  0  0  0  0  0  0  0  0  0  0  0
    5.7716   -2.6277   -0.9810 H   0  0  0  0  0  0  0  0  0  0  0  0
    5.5852   -1.6231    0.4954 H   0  0  0  0  0  0  0  0  0  0  0  0
  1 15  1  0  0  0  0
  3  4  1  0  0  0  0
  4  5  1  0  0  0  0
  4  6  1  0  0  0  0
  6  7  1  0  0  0  0
  8  6  2  0  0  0  0
  8  9  1  0  0  0  0
 10  8  1  0  0  0  0
 11 10  1  0  0  0  0
 12  3  1  0  0  0  0
 12 10  2  0  0  0  0
 13  2  1  0  0  0  0
 13 12  1  0  0  0  0
 13  1  1  0  0  0  0
 14 13  1  0  0  0  0
 15 17  1  0  0  0  0
 15 16  1  0  0  0  0
 15 18  1  0  0  0  0
 18 20  1  0  0  0  0
 19 18  1  0  0  0  0
 21 18  1  0  0  0  0
 22 25  1  0  0  0  0
 22  2  1  0  0  0  0
 22 23  1  0  0  0  0
 24 22  1  0  0  0  0
 25 28  1  0  0  0  0
 26 25  1  0  0  0  0
 27 25  1  0  0  0  0
M  END
