1
 OpenBabel05122313063D

 21 22  0  0  1  0  0  0  0  0999 V2000
   -1.1156    0.9441   -0.1775 N   0  0  0  0  0  2  0  0  0  0  0  0
   -2.2185   -1.1806    0.2184 C   0  0  0  0  0  0  0  0  0  0  0  0
   -2.2728    0.2316    0.0435 C   0  0  2  0  0  3  0  0  0  0  0  0
   -3.5519    0.8890    0.0827 C   0  0  0  0  0  0  0  0  0  0  0  0
   -3.3754   -1.9086    0.4733 C   0  0  0  0  0  0  0  0  0  0  0  0
   -3.3163   -2.9975    0.6210 H   0  0  0  0  0  0  0  0  0  0  0  0
   -1.1910    2.2511   -0.4407 C   0  0  0  0  0  0  0  0  0  0  0  0
   -0.2434    2.7543   -0.6787 H   0  0  0  0  0  0  0  0  0  0  0  0
   -2.4108    2.9659   -0.4357 C   0  0  0  0  0  0  0  0  0  0  0  0
   -2.4013    4.0424   -0.6551 H   0  0  0  0  0  0  0  0  0  0  0  0
   -3.5880    2.2913   -0.1568 C   0  0  0  0  0  0  0  0  0  0  0  0
   -4.5534    2.8191   -0.1325 H   0  0  0  0  0  0  0  0  0  0  0  0
   -0.7885   -2.8653   -1.5084 C   0  0  0  0  0  0  0  0  0  0  0  0
   -1.6706   -3.5294   -1.4542 H   0  0  0  0  0  0  0  0  0  0  0  0
    0.1333   -3.4686   -1.6103 H   0  0  0  0  0  0  0  0  0  0  0  0
   -0.8489   -2.1260   -2.3289 H   0  0  0  0  0  0  0  0  0  0  0  0
   -0.6191   -1.9852    0.0866 S   0  0  0  0  0  0  0  0  0  0  0  0
   -4.6325   -1.2549    0.5362 C   0  0  0  0  0  0  0  0  0  0  0  0
   -5.5376   -1.8456    0.7379 H   0  0  0  0  0  0  0  0  0  0  0  0
   -4.7202    0.1151    0.3389 C   0  0  0  0  0  0  0  0  0  0  0  0
   -5.6944    0.6250    0.3734 H   0  0  0  0  0  0  0  0  0  0  0  0
  2  5  2  0  0  0  0
  3  1  1  6  0  0  0
  3  4  1  0  0  0  0
  3  2  1  0  0  0  0
  4 20  1  0  0  0  0
  5 18  1  0  0  0  0
  5  6  1  0  0  0  0
  7  9  2  0  0  0  0
  7  1  1  0  0  0  0
  8  7  1  0  0  0  0
  9 11  1  0  0  0  0
 10  9  1  0  0  0  0
 11 12  1  0  0  0  0
 11  4  2  0  0  0  0
 13 14  1  0  0  0  0
 13 17  1  0  0  0  0
 15 13  1  0  0  0  0
 16 13  1  0  0  0  0
 17  2  1  0  0  0  0
 18 19  1  0  0  0  0
 20 21  1  0  0  0  0
 20 18  2  0  0  0  0
M  END
