1
q = -1.0, confidence = 0.0

 21 22  0  0  0  0  0  0  0  0999 V2000
    1.7458   -0.3729   -0.3349 N   0  0  0  0  0  0  0  0  0  0  0  0
    2.5563   -0.6746   -1.4442 C   0  0  0  0  0  0  0  0  0  0  0  0
    3.7939   -0.0462   -1.3434 C   0  0  0  0  0  0  0  0  0  0  0  0
    3.7794    0.6955   -0.1021 C   0  0  0  0  0  0  0  0  0  0  0  0
    4.7218    1.5245    0.5401 C   0  0  0  0  0  0  0  0  0  0  0  0
    5.7073    1.7057    0.0834 H   0  0  0  0  0  0  0  0  0  0  0  0
    4.3830    2.1167    1.7636 C   0  0  0  0  0  0  0  0  0  0  0  0
    5.1077    2.7677    2.2757 H   0  0  0  0  0  0  0  0  0  0  0  0
    3.1163    1.8920    2.3486 C   0  0  0  0  0  0  0  0  0  0  0  0
    2.8681    2.3702    3.3083 H   0  0  0  0  0  0  0  0  0  0  0  0
    2.1633    1.0717    1.7254 C   0  0  0  0  0  0  0  0  0  0  0  0
    1.1777    0.9083    2.1862 H   0  0  0  0  0  0  0  0  0  0  0  0
    2.5015    0.4700    0.4991 C   0  0  0  0  0  3  0  0  0  0  0  0
    2.0574   -1.5572   -2.5415 C   0  0  0  0  0  0  0  0  0  0  0  0
    2.8623   -1.7707   -3.2690 H   0  0  0  0  0  0  0  0  0  0  0  0
    1.2190   -1.0900   -3.1014 H   0  0  0  0  0  0  0  0  0  0  0  0
    1.6784   -2.5213   -2.1447 H   0  0  0  0  0  0  0  0  0  0  0  0
    4.9403   -0.0890   -2.3030 C   0  0  0  0  0  0  0  0  0  0  0  0
    5.8664   -0.4584   -1.8120 H   0  0  0  0  0  0  0  0  0  0  0  0
    5.1770    0.9219   -2.7005 H   0  0  0  0  0  0  0  0  0  0  0  0
    4.7385   -0.7466   -3.1707 H   0  0  0  0  0  0  0  0  0  0  0  0
  1 13  1  0  0  0  0
  2  3  1  0  0  0  0
  2  1  2  0  0  0  0
  3  4  2  0  0  0  0
  4 13  1  0  0  0  0
  4  5  1  0  0  0  0
  5  7  2  0  0  0  0
  6  5  1  0  0  0  0
  7  8  1  0  0  0  0
  7  9  1  0  0  0  0
  9 10  1  0  0  0  0
 11 12  1  0  0  0  0
 11  9  2  0  0  0  0
 13 11  1  0  0  0  0
 14 17  1  0  0  0  0
 14  2  1  0  0  0  0
 15 14  1  0  0  0  0
 16 14  1  0  0  0  0
 18 19  1  0  0  0  0
 18  3  1  0  0  0  0
 20 18  1  0  0  0  0
 21 18  1  0  0  0  0
M  END
