2
 OpenBabel05122313063D

 14 15  0  0  0  0  0  0  0  0999 V2000
   -2.8044    2.2201   -0.0001 O   0  0  0  0  0  0  0  0  0  0  0  0
   -1.1028    0.7493   -0.0000 N   0  0  0  0  0  2  0  0  0  0  0  0
   -1.4682    2.0115   -0.0001 C   0  0  0  0  0  3  0  0  0  0  0  0
   -3.3613    0.9582   -0.0001 C   0  0  0  0  0  0  0  0  0  0  0  0
   -4.7106    0.6061   -0.0001 C   0  0  0  0  0  0  0  0  0  0  0  0
   -4.9726   -0.7729   -0.0000 C   0  0  0  0  0  0  0  0  0  0  0  0
   -3.9299   -1.7297    0.0000 C   0  0  0  0  0  0  0  0  0  0  0  0
   -2.5799   -1.3543    0.0000 C   0  0  0  0  0  0  0  0  0  0  0  0
   -2.3060    0.0229   -0.0000 C   0  0  0  0  0  0  0  0  0  0  0  0
   -0.8129    2.8899   -0.0001 H   0  0  0  0  0  0  0  0  0  0  0  0
   -5.5088    1.3603   -0.0001 H   0  0  0  0  0  0  0  0  0  0  0  0
   -6.0170   -1.1180   -0.0000 H   0  0  0  0  0  0  0  0  0  0  0  0
   -4.1875   -2.7988    0.0000 H   0  0  0  0  0  0  0  0  0  0  0  0
   -1.7708   -2.0959    0.0000 H   0  0  0  0  0  0  0  0  0  0  0  0
  1  3  1  0  0  0  0
  1  4  1  0  0  0  0
  2  9  1  0  0  0  0
  3  2  1  0  0  0  0
  4  9  1  0  0  0  0
  5  4  2  0  0  0  0
  5  6  1  0  0  0  0
  6  7  2  0  0  0  0
  7  8  1  0  0  0  0
  7 13  1  0  0  0  0
  8 14  1  0  0  0  0
  9  8  2  0  0  0  0
 10  3  1  0  0  0  0
 11  5  1  0  0  0  0
 12  6  1  0  0  0  0
M  END
