3
 OpenBabel05122313063D

 43 43  0  0  1  0  0  0  0  0999 V2000
    1.8953    0.5521    2.4486 O   0  0  0  0  0  0  0  0  0  0  0  0
   -2.9221    2.3890    0.3976 O   0  0  0  0  0  0  0  0  0  0  0  0
    0.1916    1.4120    0.2426 N   0  0  0  0  0  2  0  0  0  0  0  0
    3.3691    0.1873    0.7199 N   0  0  0  0  0  0  0  0  0  0  0  0
   -2.4869    1.0165   -1.4009 N   0  0  0  0  0  0  0  0  0  0  0  0
    1.4767    1.7701    0.4845 C   0  0  1  0  0  3  0  0  0  0  0  0
    1.9409    3.0544    0.1655 C   0  0  0  0  0  0  0  0  0  0  0  0
    2.9862    3.3190    0.3773 H   0  0  0  0  0  0  0  0  0  0  0  0
    1.0538    3.9784   -0.4047 C   0  0  0  0  0  0  0  0  0  0  0  0
    1.3948    4.9926   -0.6610 H   0  0  0  0  0  0  0  0  0  0  0  0
   -0.2725    3.5971   -0.6364 C   0  0  0  0  0  0  0  0  0  0  0  0
   -1.0093    4.2937   -1.0598 H   0  0  0  0  0  0  0  0  0  0  0  0
   -0.6736    2.2905   -0.3121 C   0  0  0  0  0  0  0  0  0  0  0  0
    2.2802    0.7647    1.2924 C   0  0  0  0  0  0  0  0  0  0  0  0
    3.7334    0.3433   -0.6888 C   0  0  0  0  0  0  0  0  0  0  0  0
    2.8758    0.7980   -1.2209 H   0  0  0  0  0  0  0  0  0  0  0  0
    3.8404   -0.6695   -1.1324 H   0  0  0  0  0  0  0  0  0  0  0  0
    5.0045    1.1632   -0.9037 C   0  0  0  0  0  0  0  0  0  0  0  0
    4.8894    2.2034   -0.5362 H   0  0  0  0  0  0  0  0  0  0  0  0
    5.2528    1.2057   -1.9829 H   0  0  0  0  0  0  0  0  0  0  0  0
    5.8736    0.7164   -0.3799 H   0  0  0  0  0  0  0  0  0  0  0  0
    4.0640   -0.8429    1.5040 C   0  0  0  0  0  0  0  0  0  0  0  0
    5.1267   -0.8472    1.1852 H   0  0  0  0  0  0  0  0  0  0  0  0
    4.0294   -0.5217    2.5630 H   0  0  0  0  0  0  0  0  0  0  0  0
    3.4324   -2.2271    1.3490 C   0  0  0  0  0  0  0  0  0  0  0  0
    2.3726   -2.2110    1.6704 H   0  0  0  0  0  0  0  0  0  0  0  0
    3.9750   -2.9621    1.9767 H   0  0  0  0  0  0  0  0  0  0  0  0
    3.4626   -2.5829    0.2994 H   0  0  0  0  0  0  0  0  0  0  0  0
   -2.1361    1.8901   -0.4201 C   0  0  0  0  0  0  0  0  0  0  0  0
   -1.5820    0.5913   -2.4725 C   0  0  0  0  0  0  0  0  0  0  0  0
   -1.8099   -0.4702   -2.6988 H   0  0  0  0  0  0  0  0  0  0  0  0
   -0.5442    0.5774   -2.0912 H   0  0  0  0  0  0  0  0  0  0  0  0
   -1.6953    1.4574   -3.7260 C   0  0  0  0  0  0  0  0  0  0  0  0
   -2.7277    1.4691   -4.1308 H   0  0  0  0  0  0  0  0  0  0  0  0
   -1.0265    1.0684   -4.5194 H   0  0  0  0  0  0  0  0  0  0  0  0
   -1.4004    2.5053   -3.5121 H   0  0  0  0  0  0  0  0  0  0  0  0
   -3.8694    0.5265   -1.4328 C   0  0  0  0  0  0  0  0  0  0  0  0
   -4.1996    0.5027   -2.4923 H   0  0  0  0  0  0  0  0  0  0  0  0
   -4.4878    1.2771   -0.9033 H   0  0  0  0  0  0  0  0  0  0  0  0
   -4.0120   -0.8493   -0.7829 C   0  0  0  0  0  0  0  0  0  0  0  0
   -3.3915   -1.6208   -1.2809 H   0  0  0  0  0  0  0  0  0  0  0  0
   -5.0656   -1.1896   -0.8276 H   0  0  0  0  0  0  0  0  0  0  0  0
   -3.7031   -0.8196    0.2798 H   0  0  0  0  0  0  0  0  0  0  0  0
  3  6  1  0  0  0  0
  4 14  1  0  0  0  0
  4 22  1  0  0  0  0
  5 29  1  0  0  0  0
  6 14  1  1  0  0  0
  7  8  1  0  0  0  0
  7  6  1  0  0  0  0
  9  7  2  0  0  0  0
 10  9  1  0  0  0  0
 11  9  1  0  0  0  0
 11 13  2  0  0  0  0
 12 11  1  0  0  0  0
 13  3  1  0  0  0  0
 14  1  2  0  0  0  0
 15  4  1  0  0  0  0
 16 15  1  0  0  0  0
 17 15  1  0  0  0  0
 18 15  1  0  0  0  0
 18 19  1  0  0  0  0
 18 21  1  0  0  0  0
 20 18  1  0  0  0  0
 22 24  1  0  0  0  0
 23 22  1  0  0  0  0
 25 22  1  0  0  0  0
 25 26  1  0  0  0  0
 25 27  1  0  0  0  0
 28 25  1  0  0  0  0
 29 13  1  0  0  0  0
 29  2  2  0  0  0  0
 30 32  1  0  0  0  0
 30  5  1  0  0  0  0
 31 30  1  0  0  0  0
 33 36  1  0  0  0  0
 33 30  1  0  0  0  0
 34 33  1  0  0  0  0
 35 33  1  0  0  0  0
 37  5  1  0  0  0  0
 37 39  1  0  0  0  0
 37 40  1  0  0  0  0
 38 37  1  0  0  0  0
 40 43  1  0  0  0  0
 41 40  1  0  0  0  0
 42 40  1  0  0  0  0
M  END
