4
 OpenBabel05122313063D

 31 32  0  0  1  0  0  0  0  0999 V2000
   -0.3965    4.5010   -0.4797 S   0  0  0  0  0  0  0  0  0  0  0  0
    1.8852    2.6594   -1.2691 S   0  0  2  0  0  0  0  0  0  0  0  0
    2.2881    4.0603   -1.6907 O   0  0  0  0  0  0  0  0  0  0  0  0
   -0.5140    1.9508    0.0261 N   0  0  0  0  0  2  0  0  0  0  0  0
   -1.7128    2.4602    0.5130 C   0  0  0  0  0  0  0  0  0  0  0  0
   -2.7351    1.7353    1.1534 C   0  0  0  0  0  0  0  0  0  0  0  0
   -2.6024    0.6594    1.3321 H   0  0  0  0  0  0  0  0  0  0  0  0
   -3.8774    2.4281    1.5588 C   0  0  0  0  0  0  0  0  0  0  0  0
   -4.6895    1.8830    2.0620 H   0  0  0  0  0  0  0  0  0  0  0  0
   -4.0047    3.8196    1.3393 C   0  0  0  0  0  0  0  0  0  0  0  0
   -4.9171    4.3388    1.6679 H   0  0  0  0  0  0  0  0  0  0  0  0
   -2.9876    4.5538    0.7184 C   0  0  0  0  0  0  0  0  0  0  0  0
   -3.0872    5.6368    0.5582 H   0  0  0  0  0  0  0  0  0  0  0  0
   -1.8346    3.8634    0.3086 C   0  0  0  0  0  0  0  0  0  0  0  0
    0.2550    2.8868   -0.4831 C   0  0  2  0  0  3  0  0  0  0  0  0
    2.7677    2.2752    0.3236 C   0  0  0  0  0  0  0  0  0  0  0  0
    2.1984    1.4564    0.8145 H   0  0  0  0  0  0  0  0  0  0  0  0
    2.6743    3.1992    0.9307 H   0  0  0  0  0  0  0  0  0  0  0  0
    4.2150    1.9163    0.0134 C   0  0  0  0  0  0  0  0  0  0  0  0
    4.2450    1.0999   -0.7446 H   0  0  0  0  0  0  0  0  0  0  0  0
    4.7087    2.7946   -0.4538 H   0  0  0  0  0  0  0  0  0  0  0  0
    5.0105    1.4602    1.2539 C   0  0  0  0  0  0  0  0  0  0  0  0
    4.8935    2.2494    2.0320 H   0  0  0  0  0  0  0  0  0  0  0  0
    6.5011    1.3528    0.9095 C   0  0  0  0  0  0  0  0  0  0  0  0
    7.0971    1.0554    1.7959 H   0  0  0  0  0  0  0  0  0  0  0  0
    6.6681    0.5854    0.1234 H   0  0  0  0  0  0  0  0  0  0  0  0
    6.9061    2.3139    0.5321 H   0  0  0  0  0  0  0  0  0  0  0  0
    4.4793    0.1386    1.8264 C   0  0  0  0  0  0  0  0  0  0  0  0
    3.4104    0.1892    2.1176 H   0  0  0  0  0  0  0  0  0  0  0  0
    4.5817   -0.6790    1.0805 H   0  0  0  0  0  0  0  0  0  0  0  0
    5.0547   -0.1587    2.7264 H   0  0  0  0  0  0  0  0  0  0  0  0
  1 14  1  0  0  0  0
  2  3  2  1  0  0  0
  2 16  1  0  0  0  0
  4  5  1  0  0  0  0
  5  6  1  0  0  0  0
  6  7  1  0  0  0  0
  6  8  2  0  0  0  0
  8  9  1  0  0  0  0
 10  8  1  0  0  0  0
 10 11  1  0  0  0  0
 12 10  2  0  0  0  0
 13 12  1  0  0  0  0
 14  5  2  0  0  0  0
 14 12  1  0  0  0  0
 15  2  1  6  0  0  0
 15  1  1  0  0  0  0
 15  4  1  0  0  0  0
 16 17  1  0  0  0  0
 16 18  1  0  0  0  0
 19 16  1  0  0  0  0
 19 22  1  0  0  0  0
 20 19  1  0  0  0  0
 21 19  1  0  0  0  0
 22 28  1  0  0  0  0
 22 23  1  0  0  0  0
 24 22  1  0  0  0  0
 24 25  1  0  0  0  0
 26 24  1  0  0  0  0
 27 24  1  0  0  0  0
 28 29  1  0  0  0  0
 28 31  1  0  0  0  0
 30 28  1  0  0  0  0
M  END
