35
 OpenBabel05122313063D

 35 41  0  0  1  0  0  0  0  0999 V2000
   -2.1946   -1.1251   -0.1911 C   0  0  2  0  0  0  0  0  0  0  0  0
   -2.5639    0.2883    0.6788 C   0  0  2  0  0  0  0  0  0  0  0  0
   -2.5117    0.3223   -1.0554 B   0  0  1  0  0  0  0  0  0  0  0  0
   -1.5939    0.8604   -1.6031 H   0  0  0  0  0  0  0  0  0  0  0  0
   -3.1854   -1.2222   -1.5915 B   0  0  2  0  0  0  0  0  0  0  0  0
   -2.6977   -1.7381   -2.5634 H   0  0  0  0  0  0  0  0  0  0  0  0
   -3.5445   -2.1815   -0.1337 B   0  0  0  0  0  0  0  0  0  0  0  0
   -3.3183   -3.3652   -0.1024 H   0  0  0  0  0  0  0  0  0  0  0  0
   -3.1188   -1.2083    1.2907 B   0  0  2  0  0  0  0  0  0  0  0  0
   -2.5530   -1.6465    2.2588 H   0  0  0  0  0  0  0  0  0  0  0  0
   -3.7569    1.1907   -0.1245 B   0  0  0  0  0  0  0  0  0  0  0  0
   -3.6801    2.3945   -0.0660 H   0  0  0  0  0  0  0  0  0  0  0  0
   -4.2098    0.2367   -1.5604 B   0  0  2  0  0  0  0  0  0  0  0  0
   -4.5551    0.7801   -2.5829 H   0  0  0  0  0  0  0  0  0  0  0  0
   -4.8573   -1.3277   -0.9899 B   0  0  1  0  0  0  0  0  0  0  0  0
   -5.6933   -1.9450   -1.6079 H   0  0  0  0  0  0  0  0  0  0  0  0
   -4.8098   -1.3289    0.7991 B   0  0  0  0  0  0  0  0  0  0  0  0
   -5.5917   -1.9394    1.4898 H   0  0  0  0  0  0  0  0  0  0  0  0
   -4.1510    0.2355    1.3198 B   0  0  2  0  0  0  0  0  0  0  0  0
   -4.3199    0.7834    2.3835 H   0  0  0  0  0  0  0  0  0  0  0  0
   -5.2228    0.1722   -0.0912 B   0  0  1  0  0  0  0  0  0  0  0  0
   -6.3236    0.6707   -0.0472 H   0  0  0  0  0  0  0  0  0  0  0  0
   -1.4148    0.9022    1.4763 C   0  0  0  0  0  0  0  0  0  0  0  0
   -1.8384    1.3016    2.4156 H   0  0  0  0  0  0  0  0  0  0  0  0
   -0.7133    0.0776    1.7200 H   0  0  0  0  0  0  0  0  0  0  0  0
   -0.6808    1.9805    0.7341 C   0  0  2  0  0  3  0  0  0  0  0  0
   -1.0468    3.3294    0.8817 C   0  0  0  0  0  0  0  0  0  0  0  0
   -1.8401    3.5869    1.5972 H   0  0  0  0  0  0  0  0  0  0  0  0
   -0.4246    4.3147    0.1072 C   0  0  0  0  0  0  0  0  0  0  0  0
   -0.7046    5.3729    0.2174 H   0  0  0  0  0  0  0  0  0  0  0  0
    0.5405    3.9168   -0.8266 C   0  0  0  0  0  0  0  0  0  0  0  0
    1.0401    4.6403   -1.4862 H   0  0  0  0  0  0  0  0  0  0  0  0
    0.8651    2.5609   -0.9252 C   0  0  0  0  0  0  0  0  0  0  0  0
    1.5723    2.1771   -1.6756 H   0  0  0  0  0  0  0  0  0  0  0  0
    0.2926    1.6164   -0.1417 N   0  0  0  0  0  2  0  0  0  0  0  0
  1  7  1  1  0  0  0
  1  2  1  0  0  0  0
  2  9  1  0  0  0  0
  2 23  1  1  0  0  0
  3  4  1  6  0  0  0
  3  1  1  0  0  0  0
  5  6  1  6  0  0  0
  5  3  1  0  0  0  0
  5 15  1  0  0  0  0
  5  1  1  0  0  0  0
  7  8  1  0  0  0  0
  9 19  1  0  0  0  0
  9 10  1  1  0  0  0
 11 12  1  0  0  0  0
 11  2  1  0  0  0  0
 13 14  1  6  0  0  0
 13  3  1  0  0  0  0
 13 11  1  0  0  0  0
 13 21  1  0  0  0  0
 15 16  1  6  0  0  0
 15  7  1  0  0  0  0
 15 21  1  0  0  0  0
 17  9  1  0  0  0  0
 17 19  1  0  0  0  0
 17 18  1  0  0  0  0
 19 20  1  1  0  0  0
 21 22  1  1  0  0  0
 21 19  1  0  0  0  0
 23 25  1  0  0  0  0
 23 24  1  0  0  0  0
 26 27  1  0  0  0  0
 26 23  1  6  0  0  0
 27 28  1  0  0  0  0
 29 30  1  0  0  0  0
 29 27  2  0  0  0  0
 31 29  1  0  0  0  0
 32 31  1  0  0  0  0
 33 31  2  0  0  0  0
 33 35  1  0  0  0  0
 34 33  1  0  0  0  0
 35 26  1  0  0  0  0
M  END
