2
 OpenBabel05122313063D

 18 18  0  0  0  0  0  0  0  0999 V2000
    0.8988   -1.4191    0.6401 S   0  0  0  0  0  0  0  0  0  0  0  0
    1.4186    1.0237   -0.9930 N   0  0  0  0  0  0  0  0  0  0  0  0
    3.9018    0.8813   -0.8720 C   0  0  0  0  0  0  0  0  0  0  0  0
    3.9830    1.8194   -1.4429 H   0  0  0  0  0  0  0  0  0  0  0  0
    3.6892   -1.5472    0.5347 C   0  0  0  0  0  0  0  0  0  0  0  0
    3.6029   -2.5047    1.0695 H   0  0  0  0  0  0  0  0  0  0  0  0
    4.9502   -1.0323    0.2055 C   0  0  0  0  0  0  0  0  0  0  0  0
    5.8558   -1.5880    0.4891 H   0  0  0  0  0  0  0  0  0  0  0  0
    1.0482   -1.3123    2.4633 C   0  0  0  0  0  0  0  0  0  0  0  0
    0.0595   -1.5792    2.8811 H   0  0  0  0  0  0  0  0  0  0  0  0
    1.3493   -0.2951    2.7718 H   0  0  0  0  0  0  0  0  0  0  0  0
    1.7915   -2.0595    2.7984 H   0  0  0  0  0  0  0  0  0  0  0  0
    2.6363    0.3720   -0.5412 C   0  0  0  0  0  0  0  0  0  0  0  0
    2.5357   -0.8267    0.1824 C   0  0  0  0  0  0  0  0  0  0  0  0
    5.0561    0.1849   -0.4875 C   0  0  0  0  0  0  0  0  0  0  0  0
    6.0456    0.5891   -0.7457 H   0  0  0  0  0  0  0  0  0  0  0  0
    1.5371    2.0469   -1.0070 H   0  0  0  0  0  0  0  0  0  0  0  0
    1.2212    0.7096   -1.9696 H   0  0  0  0  0  0  0  0  0  0  0  0
  1  9  1  0  0  0  0
  2 13  1  0  0  0  0
  3 13  2  0  0  0  0
  3 15  1  0  0  0  0
  4  3  1  0  0  0  0
  5  6  1  0  0  0  0
  7  8  1  0  0  0  0
  7  5  1  0  0  0  0
  9 11  1  0  0  0  0
  9 12  1  0  0  0  0
  9 10  1  0  0  0  0
 13 14  1  0  0  0  0
 14  5  2  0  0  0  0
 14  1  1  0  0  0  0
 15  7  2  0  0  0  0
 16 15  1  0  0  0  0
 17  2  1  0  0  0  0
 18  2  1  0  0  0  0
M  END
