2
 OpenBabel05122313063D

 33 33  0  0  1  0  0  0  0  0999 V2000
   -2.7031    0.0350    0.4317 N   0  0  0  0  0  0  0  0  0  0  0  0
   -1.4329    0.3950    0.7172 N   0  0  0  0  0  2  0  0  0  0  0  0
   -3.6176    0.6299    1.2360 C   0  0  1  0  0  3  0  0  0  0  0  0
   -2.8755    1.4247    2.1160 C   0  0  0  0  0  0  0  0  0  0  0  0
   -1.5090    1.2522    1.7630 C   0  0  0  0  0  0  0  0  0  0  0  0
   -5.1026    0.3829    1.0704 C   0  0  0  0  0  0  0  0  0  0  0  0
   -5.8754    1.1833    2.1313 C   0  0  0  0  0  0  0  0  0  0  0  0
   -5.3911   -1.1261    1.2411 C   0  0  0  0  0  0  0  0  0  0  0  0
   -5.5330    0.8381   -0.3436 C   0  0  0  0  0  0  0  0  0  0  0  0
   -0.3247    1.9463    2.4202 C   0  0  0  0  0  0  0  0  0  0  0  0
   -0.3123    3.4280    1.9732 C   0  0  0  0  0  0  0  0  0  0  0  0
   -0.5018    1.8754    3.9533 C   0  0  0  0  0  0  0  0  0  0  0  0
    1.0156    1.3008    2.0453 C   0  0  0  0  0  0  0  0  0  0  0  0
   -2.8368   -0.6027   -0.3806 H   0  0  0  0  0  0  0  0  0  0  0  0
   -3.2732    2.0501    2.9195 H   0  0  0  0  0  0  0  0  0  0  0  0
   -5.5862    0.8783    3.1571 H   0  0  0  0  0  0  0  0  0  0  0  0
   -6.9643    1.0109    2.0193 H   0  0  0  0  0  0  0  0  0  0  0  0
   -5.6915    2.2716    2.0290 H   0  0  0  0  0  0  0  0  0  0  0  0
   -4.8609   -1.7327    0.4791 H   0  0  0  0  0  0  0  0  0  0  0  0
   -6.4769   -1.3225    1.1309 H   0  0  0  0  0  0  0  0  0  0  0  0
   -5.0738   -1.4812    2.2419 H   0  0  0  0  0  0  0  0  0  0  0  0
   -5.0053    0.2685   -1.1356 H   0  0  0  0  0  0  0  0  0  0  0  0
   -5.3176    1.9145   -0.4970 H   0  0  0  0  0  0  0  0  0  0  0  0
   -6.6216    0.6783   -0.4825 H   0  0  0  0  0  0  0  0  0  0  0  0
    0.4983    3.9752    2.4971 H   0  0  0  0  0  0  0  0  0  0  0  0
   -1.2727    3.9302    2.2072 H   0  0  0  0  0  0  0  0  0  0  0  0
   -0.1284    3.5125    0.8836 H   0  0  0  0  0  0  0  0  0  0  0  0
    0.3561    2.3677    4.4545 H   0  0  0  0  0  0  0  0  0  0  0  0
   -0.5468    0.8238    4.3015 H   0  0  0  0  0  0  0  0  0  0  0  0
   -1.4245    2.3881    4.2908 H   0  0  0  0  0  0  0  0  0  0  0  0
    1.8393    1.8297    2.5651 H   0  0  0  0  0  0  0  0  0  0  0  0
    1.2146    1.3719    0.9617 H   0  0  0  0  0  0  0  0  0  0  0  0
    1.0620    0.2338    2.3372 H   0  0  0  0  0  0  0  0  0  0  0  0
  1  2  1  0  0  0  0
  1  3  1  0  0  0  0
  2  5  1  0  0  0  0
  3  6  1  6  0  0  0
  3  4  1  0  0  0  0
  4 15  1  0  0  0  0
  5  4  2  0  0  0  0
  5 10  1  0  0  0  0
  6  8  1  0  0  0  0
  6  7  1  0  0  0  0
  7 16  1  0  0  0  0
  8 21  1  0  0  0  0
  9  6  1  0  0  0  0
 10 12  1  0  0  0  0
 11 26  1  0  0  0  0
 11 10  1  0  0  0  0
 11 25  1  0  0  0  0
 12 30  1  0  0  0  0
 12 29  1  0  0  0  0
 12 28  1  0  0  0  0
 13 33  1  0  0  0  0
 13 10  1  0  0  0  0
 13 31  1  0  0  0  0
 14  1  1  0  0  0  0
 17  7  1  0  0  0  0
 18  7  1  0  0  0  0
 19  8  1  0  0  0  0
 20  8  1  0  0  0  0
 22  9  1  0  0  0  0
 23  9  1  0  0  0  0
 24  9  1  0  0  0  0
 27 11  1  0  0  0  0
 32 13  1  0  0  0  0
M  END
