1
 OpenBabel05122313063D

 39 40  0  0  0  0  0  0  0  0999 V2000
    0.4016   -1.6634   -0.7281 N   0  0  0  0  0  2  0  0  0  0  0  0
    0.8357   -2.9456   -0.7718 C   0  0  0  0  0  3  0  0  0  0  0  0
   -0.0109   -4.0116   -1.0683 C   0  0  0  0  0  0  0  0  0  0  0  0
   -1.3635   -3.7351   -1.3403 C   0  0  0  0  0  0  0  0  0  0  0  0
   -1.8029   -2.4138   -1.3240 C   0  0  0  0  0  0  0  0  0  0  0  0
   -0.9048   -1.3607   -1.0190 C   0  0  0  0  0  0  0  0  0  0  0  0
   -1.2667    0.0441   -1.0353 C   0  0  0  0  0  0  0  0  0  0  0  0
   -2.4351    0.5888   -0.5503 C   0  0  0  0  0  0  0  0  0  0  0  0
   -2.7685    1.9255   -0.7528 N   0  0  0  0  0  0  0  0  0  0  0  0
   -3.2238    2.6778    0.4277 C   0  0  0  0  0  0  0  0  0  0  0  0
   -2.0760    3.0929    1.3541 C   0  0  0  0  0  0  0  0  0  0  0  0
   -2.0085    2.6730   -1.7544 C   0  0  0  0  0  0  0  0  0  0  0  0
   -2.6912    3.9608   -2.2069 C   0  0  0  0  0  0  0  0  0  0  0  0
   -3.4122   -0.2158    0.2382 C   0  0  0  0  0  0  0  0  0  0  0  0
   -4.7754   -0.2365   -0.1304 C   0  0  0  0  0  0  0  0  0  0  0  0
   -5.6912   -1.0194    0.5859 C   0  0  0  0  0  0  0  0  0  0  0  0
   -5.2573   -1.7799    1.6852 C   0  0  0  0  0  0  0  0  0  0  0  0
   -3.9060   -1.7481    2.0669 C   0  0  0  0  0  0  0  0  0  0  0  0
   -2.9841   -0.9718    1.3503 C   0  0  0  0  0  0  0  0  0  0  0  0
    1.9015   -3.0894   -0.5451 H   0  0  0  0  0  0  0  0  0  0  0  0
    0.3882   -5.0347   -1.0872 H   0  0  0  0  0  0  0  0  0  0  0  0
   -2.0642   -4.5483   -1.5826 H   0  0  0  0  0  0  0  0  0  0  0  0
   -2.8429   -2.1584   -1.5649 H   0  0  0  0  0  0  0  0  0  0  0  0
   -0.4643    0.7105   -1.3868 H   0  0  0  0  0  0  0  0  0  0  0  0
   -3.7995    3.5608    0.0853 H   0  0  0  0  0  0  0  0  0  0  0  0
   -3.9374    2.0367    0.9793 H   0  0  0  0  0  0  0  0  0  0  0  0
   -1.4819    2.2088    1.6678 H   0  0  0  0  0  0  0  0  0  0  0  0
   -2.4724    3.5873    2.2638 H   0  0  0  0  0  0  0  0  0  0  0  0
   -1.3840    3.8069    0.8616 H   0  0  0  0  0  0  0  0  0  0  0  0
   -1.8814    1.9943   -2.6221 H   0  0  0  0  0  0  0  0  0  0  0  0
   -0.9761    2.9037   -1.3964 H   0  0  0  0  0  0  0  0  0  0  0  0
   -3.7374    3.7685   -2.5202 H   0  0  0  0  0  0  0  0  0  0  0  0
   -2.1451    4.3811   -3.0741 H   0  0  0  0  0  0  0  0  0  0  0  0
   -2.7027    4.7403   -1.4192 H   0  0  0  0  0  0  0  0  0  0  0  0
   -5.1030    0.3647   -0.9925 H   0  0  0  0  0  0  0  0  0  0  0  0
   -6.7497   -1.0393    0.2842 H   0  0  0  0  0  0  0  0  0  0  0  0
   -5.9769   -2.3936    2.2486 H   0  0  0  0  0  0  0  0  0  0  0  0
   -3.5646   -2.3306    2.9362 H   0  0  0  0  0  0  0  0  0  0  0  0
   -1.9240   -0.9277    1.6506 H   0  0  0  0  0  0  0  0  0  0  0  0
  2  1  1  0  0  0  0
  2 20  1  0  0  0  0
  3  2  1  0  0  0  0
  4  5  1  0  0  0  0
  4  3  2  0  0  0  0
  5  6  2  0  0  0  0
  6  1  1  0  0  0  0
  7  6  1  0  0  0  0
  7  8  2  0  0  0  0
  8 14  1  0  0  0  0
  9  8  1  0  0  0  0
  9 10  1  0  0  0  0
 10 26  1  0  0  0  0
 10 11  1  0  0  0  0
 11 27  1  0  0  0  0
 11 28  1  0  0  0  0
 12 31  1  0  0  0  0
 12  9  1  0  0  0  0
 13 12  1  0  0  0  0
 13 34  1  0  0  0  0
 14 19  1  0  0  0  0
 15 14  2  0  0  0  0
 15 16  1  0  0  0  0
 16 17  2  0  0  0  0
 17 18  1  0  0  0  0
 17 37  1  0  0  0  0
 18 38  1  0  0  0  0
 19 39  1  0  0  0  0
 19 18  2  0  0  0  0
 21  3  1  0  0  0  0
 22  4  1  0  0  0  0
 23  5  1  0  0  0  0
 24  7  1  0  0  0  0
 25 10  1  0  0  0  0
 29 11  1  0  0  0  0
 30 12  1  0  0  0  0
 32 13  1  0  0  0  0
 33 13  1  0  0  0  0
 35 15  1  0  0  0  0
 36 16  1  0  0  0  0
M  END
