3
 OpenBabel05122313063D

 27 29  0  0  1  0  0  0  0  0999 V2000
    3.8657    2.3192   -0.1009 S   0  0  0  0  0  0  0  0  0  0  0  0
    2.1396    2.0822   -0.1370 C   0  0  2  0  0  3  0  0  0  0  0  0
    1.8416    0.7822   -0.1499 N   0  0  0  0  0  2  0  0  0  0  0  0
    2.8864   -0.0604   -0.1364 N   0  0  0  0  0  0  0  0  0  0  0  0
    4.0435    0.5640   -0.0986 C   0  0  0  0  0  0  0  0  0  0  0  0
    1.1807    3.1871   -0.1507 C   0  0  0  0  0  0  0  0  0  0  0  0
    1.4476    4.3637    0.5860 C   0  0  0  0  0  0  0  0  0  0  0  0
    2.3708    4.4364    1.1813 H   0  0  0  0  0  0  0  0  0  0  0  0
    0.5225    5.4137    0.5932 C   0  0  0  0  0  0  0  0  0  0  0  0
    0.7297    6.3194    1.1824 H   0  0  0  0  0  0  0  0  0  0  0  0
   -0.6727    5.3022   -0.1368 C   0  0  0  0  0  0  0  0  0  0  0  0
   -1.4017    6.1268   -0.1252 H   0  0  0  0  0  0  0  0  0  0  0  0
   -0.9333    4.1418   -0.8835 C   0  0  0  0  0  0  0  0  0  0  0  0
   -1.8610    4.0550   -1.4689 H   0  0  0  0  0  0  0  0  0  0  0  0
   -0.0153    3.0846   -0.9003 C   0  0  0  0  0  0  0  0  0  0  0  0
   -0.2055    2.1843   -1.5071 H   0  0  0  0  0  0  0  0  0  0  0  0
    5.3372   -0.1202   -0.0671 C   0  0  0  0  0  0  0  0  0  0  0  0
    6.5510    0.5949    0.0266 C   0  0  0  0  0  0  0  0  0  0  0  0
    6.5390    1.6951    0.0817 H   0  0  0  0  0  0  0  0  0  0  0  0
    7.7732   -0.0874    0.0540 C   0  0  0  0  0  0  0  0  0  0  0  0
    8.7129    0.4798    0.1279 H   0  0  0  0  0  0  0  0  0  0  0  0
    7.7978   -1.4900   -0.0114 C   0  0  0  0  0  0  0  0  0  0  0  0
    8.7589   -2.0254    0.0100 H   0  0  0  0  0  0  0  0  0  0  0  0
    6.5926   -2.2075   -0.1046 C   0  0  0  0  0  0  0  0  0  0  0  0
    6.6088   -3.3065   -0.1574 H   0  0  0  0  0  0  0  0  0  0  0  0
    5.3678   -1.5330   -0.1327 C   0  0  0  0  0  0  0  0  0  0  0  0
    4.4156   -2.0772   -0.2077 H   0  0  0  0  0  0  0  0  0  0  0  0
  1  5  1  0  0  0  0
  2  6  1  6  0  0  0
  2  1  1  0  0  0  0
  3  2  1  0  0  0  0
  3  4  1  0  0  0  0
  4  5  2  0  0  0  0
  5 17  1  0  0  0  0
  6  7  1  0  0  0  0
  7  9  2  0  0  0  0
  7  8  1  0  0  0  0
  9 10  1  0  0  0  0
 11 12  1  0  0  0  0
 11  9  1  0  0  0  0
 13 11  2  0  0  0  0
 14 13  1  0  0  0  0
 15 13  1  0  0  0  0
 15  6  2  0  0  0  0
 16 15  1  0  0  0  0
 17 18  1  0  0  0  0
 18 20  2  0  0  0  0
 18 19  1  0  0  0  0
 20 21  1  0  0  0  0
 22 23  1  0  0  0  0
 22 20  1  0  0  0  0
 24 22  2  0  0  0  0
 25 24  1  0  0  0  0
 26 24  1  0  0  0  0
 26 17  2  0  0  0  0
 27 26  1  0  0  0  0
M  END
