2
 OpenBabel05122313063D

 38 39  0  0  1  0  0  0  0  0999 V2000
   -3.9787   -1.5899   -0.2458 O   0  0  0  0  0  0  0  0  0  0  0  0
   -1.9644   -0.5101    0.0203 N   0  0  0  0  0  2  0  0  0  0  0  0
   -2.5821    0.3056    0.1760 H   0  0  0  0  0  0  0  0  0  0  0  0
   -4.5371   -0.3058    0.0495 N   0  0  0  0  0  0  0  0  0  0  0  0
   -2.6196   -1.5952   -0.2189 C   0  0  1  0  0  3  0  0  0  0  0  0
   -2.0679   -2.9623   -0.4592 C   0  0  0  0  0  0  0  0  0  0  0  0
   -2.5680   -3.3536   -1.3703 H   0  0  0  0  0  0  0  0  0  0  0  0
   -0.9884   -2.8615   -0.6781 H   0  0  0  0  0  0  0  0  0  0  0  0
   -2.3130   -3.8990    0.7336 C   0  0  0  0  0  0  0  0  0  0  0  0
   -1.7664   -3.5242    1.6203 H   0  0  0  0  0  0  0  0  0  0  0  0
   -1.9317   -4.9115    0.4980 H   0  0  0  0  0  0  0  0  0  0  0  0
   -3.3911   -3.9820    0.9763 H   0  0  0  0  0  0  0  0  0  0  0  0
   -5.8145   -0.3426   -0.0591 C   0  0  0  0  0  0  0  0  0  0  0  0
   -6.6691    0.8797    0.2181 C   0  0  2  0  0  0  0  0  0  0  0  0
   -5.9288    2.2035    0.2507 C   0  0  0  0  0  0  0  0  0  0  0  0
   -5.1738    2.2115    1.0617 H   0  0  0  0  0  0  0  0  0  0  0  0
   -6.6316    3.0417    0.4281 H   0  0  0  0  0  0  0  0  0  0  0  0
   -5.3880    2.3888   -0.6982 H   0  0  0  0  0  0  0  0  0  0  0  0
   -7.4262    0.5091    1.5364 C   0  0  0  0  0  0  0  0  0  0  0  0
   -6.7163    0.1911    2.3248 H   0  0  0  0  0  0  0  0  0  0  0  0
   -7.9466    1.4098    1.9188 H   0  0  0  0  0  0  0  0  0  0  0  0
   -8.4228   -0.6075    1.1099 C   0  0  0  0  0  0  0  0  0  0  0  0
   -9.4746   -0.2986    1.2651 H   0  0  0  0  0  0  0  0  0  0  0  0
   -8.2792   -1.5486    1.6766 H   0  0  0  0  0  0  0  0  0  0  0  0
   -8.1061   -0.7985   -0.3915 C   0  0  2  0  0  0  0  0  0  0  0  0
   -8.8958   -1.3219   -0.9649 H   0  0  0  0  0  0  0  0  0  0  0  0
   -6.7235   -1.4810   -0.4680 C   0  0  0  0  0  0  0  0  0  0  0  0
   -6.6137   -2.3553    0.2058 H   0  0  0  0  0  0  0  0  0  0  0  0
   -6.4544   -1.8325   -1.4848 H   0  0  0  0  0  0  0  0  0  0  0  0
   -7.7948    0.6582   -0.8708 C   0  0  0  0  0  0  0  0  0  0  0  0
   -7.2650    0.7488   -2.3101 C   0  0  0  0  0  0  0  0  0  0  0  0
   -6.3358    0.1709   -2.4788 H   0  0  0  0  0  0  0  0  0  0  0  0
   -7.0394    1.8020   -2.5726 H   0  0  0  0  0  0  0  0  0  0  0  0
   -8.0275    0.3851   -3.0289 H   0  0  0  0  0  0  0  0  0  0  0  0
   -8.9811    1.6218   -0.7420 C   0  0  0  0  0  0  0  0  0  0  0  0
   -9.7830    1.3309   -1.4513 H   0  0  0  0  0  0  0  0  0  0  0  0
   -8.6735    2.6551   -1.0008 H   0  0  0  0  0  0  0  0  0  0  0  0
   -9.4263    1.6501    0.2697 H   0  0  0  0  0  0  0  0  0  0  0  0
  1  4  1  0  0  0  0
  2  3  1  0  0  0  0
  5  1  1  1  0  0  0
  5  2  1  0  0  0  0
  6  5  1  0  0  0  0
  6  9  1  0  0  0  0
  7  6  1  0  0  0  0
  8  6  1  0  0  0  0
  9 12  1  0  0  0  0
  9 10  1  0  0  0  0
 11  9  1  0  0  0  0
 13  4  2  0  0  0  0
 13 14  1  0  0  0  0
 14 15  1  6  0  0  0
 14 19  1  0  0  0  0
 15 17  1  0  0  0  0
 15 16  1  0  0  0  0
 18 15  1  0  0  0  0
 19 21  1  0  0  0  0
 19 20  1  0  0  0  0
 22 23  1  0  0  0  0
 22 19  1  0  0  0  0
 22 24  1  0  0  0  0
 25 26  1  6  0  0  0
 25 22  1  0  0  0  0
 27 25  1  0  0  0  0
 27 13  1  0  0  0  0
 27 28  1  0  0  0  0
 29 27  1  0  0  0  0
 30 35  1  0  0  0  0
 30 25  1  0  0  0  0
 30 14  1  0  0  0  0
 31 30  1  0  0  0  0
 32 31  1  0  0  0  0
 33 31  1  0  0  0  0
 34 31  1  0  0  0  0
 35 38  1  0  0  0  0
 36 35  1  0  0  0  0
 37 35  1  0  0  0  0
M  END
