3
 OpenBabel05122313063D

 28 29  0  0  1  0  0  0  0  0999 V2000
    0.8267   -3.8620   -1.1034 Cl  0  0  0  0  0  0  0  0  0  0  0  0
   -2.4490   -3.3768   -0.2927 O   0  0  0  0  0  0  0  0  0  0  0  0
   -1.4071   -1.4284    0.0107 N   0  0  0  0  0  2  0  0  0  0  0  0
   -2.9641   -2.8545    0.9945 N   0  0  0  0  0  0  0  0  0  0  0  0
   -1.4789   -2.5277   -0.6755 C   0  0  1  0  0  3  0  0  0  0  0  0
   -0.5844   -2.9554   -1.7855 C   0  0  0  0  0  0  0  0  0  0  0  0
   -1.1250   -3.6357   -2.4684 H   0  0  0  0  0  0  0  0  0  0  0  0
   -0.2109   -2.0600   -2.3199 H   0  0  0  0  0  0  0  0  0  0  0  0
   -2.2776   -3.6290    2.0266 C   0  0  0  0  0  0  0  0  0  0  0  0
   -2.6798   -3.2919    3.0017 H   0  0  0  0  0  0  0  0  0  0  0  0
   -2.5302   -4.6976    1.8964 H   0  0  0  0  0  0  0  0  0  0  0  0
   -1.1716   -3.4917    2.0234 H   0  0  0  0  0  0  0  0  0  0  0  0
   -2.5551   -1.4388    0.9643 C   0  0  2  0  0  0  0  0  0  0  0  0
   -2.1585   -1.1423    1.9582 H   0  0  0  0  0  0  0  0  0  0  0  0
   -3.6393   -0.4854    0.4973 C   0  0  0  0  0  0  0  0  0  0  0  0
   -4.8698   -0.9507    0.0094 C   0  0  0  0  0  0  0  0  0  0  0  0
   -5.0660   -2.0325   -0.0031 H   0  0  0  0  0  0  0  0  0  0  0  0
   -5.8389   -0.0392   -0.4382 C   0  0  0  0  0  0  0  0  0  0  0  0
   -6.8018   -0.4166   -0.8178 H   0  0  0  0  0  0  0  0  0  0  0  0
   -5.6061    1.3490   -0.4107 C   0  0  0  0  0  0  0  0  0  0  0  0
   -6.6392    2.3308   -0.9030 C   0  0  0  0  0  0  0  0  0  0  0  0
   -6.2667    2.8951   -1.7838 H   0  0  0  0  0  0  0  0  0  0  0  0
   -7.5780    1.8242   -1.1991 H   0  0  0  0  0  0  0  0  0  0  0  0
   -6.8867    3.0820   -0.1244 H   0  0  0  0  0  0  0  0  0  0  0  0
   -4.3662    1.8013    0.0914 C   0  0  0  0  0  0  0  0  0  0  0  0
   -4.1535    2.8815    0.1296 H   0  0  0  0  0  0  0  0  0  0  0  0
   -3.3962    0.9016    0.5416 C   0  0  0  0  0  0  0  0  0  0  0  0
   -2.4314    1.2798    0.9150 H   0  0  0  0  0  0  0  0  0  0  0  0
  2  4  1  0  0  0  0
  3 13  1  0  0  0  0
  4  9  1  0  0  0  0
  5  6  1  1  0  0  0
  5  2  1  0  0  0  0
  5  3  1  0  0  0  0
  6  1  1  0  0  0  0
  7  6  1  0  0  0  0
  8  6  1  0  0  0  0
  9 10  1  0  0  0  0
 11  9  1  0  0  0  0
 12  9  1  0  0  0  0
 13  4  1  0  0  0  0
 13 14  1  1  0  0  0
 15 27  1  0  0  0  0
 15 13  1  0  0  0  0
 16 15  2  0  0  0  0
 17 16  1  0  0  0  0
 18 20  2  0  0  0  0
 18 16  1  0  0  0  0
 19 18  1  0  0  0  0
 20 25  1  0  0  0  0
 21 20  1  0  0  0  0
 21 24  1  0  0  0  0
 22 21  1  0  0  0  0
 23 21  1  0  0  0  0
 25 26  1  0  0  0  0
 25 27  2  0  0  0  0
 27 28  1  0  0  0  0
M  END
