24
 OpenBabel05122313063D

 28 29  0  0  0  0  0  0  0  0999 V2000
    5.0909   -0.1625    0.4162 N   0  0  0  0  0  0  0  0  0  0  0  0
    6.2286    0.0235   -0.2283 N   0  0  0  0  0  0  0  0  0  0  0  0
    7.5756    0.1243    0.4211 C   0  0  0  0  0  0  0  0  0  0  0  0
    8.2047    1.4500   -0.0357 C   0  0  0  0  0  0  0  0  0  0  0  0
    8.3022    1.4840   -1.1371 H   0  0  0  0  0  0  0  0  0  0  0  0
    9.2128    1.5477    0.4112 H   0  0  0  0  0  0  0  0  0  0  0  0
    7.5940    2.3134    0.2947 H   0  0  0  0  0  0  0  0  0  0  0  0
    7.3813    0.0940    1.9383 C   0  0  0  0  0  0  0  0  0  0  0  0
    6.7539    0.9373    2.2842 H   0  0  0  0  0  0  0  0  0  0  0  0
    8.3747    0.1765    2.4194 H   0  0  0  0  0  0  0  0  0  0  0  0
    6.9085   -0.8496    2.2697 H   0  0  0  0  0  0  0  0  0  0  0  0
    8.4010   -1.0802   -0.0611 C   0  0  0  0  0  0  0  0  0  0  0  0
    7.9272   -2.0333    0.2462 H   0  0  0  0  0  0  0  0  0  0  0  0
    9.4118   -1.0351    0.3884 H   0  0  0  0  0  0  0  0  0  0  0  0
    8.5044   -1.0723   -1.1628 H   0  0  0  0  0  0  0  0  0  0  0  0
    6.0897    0.0879   -1.5639 N   0  0  0  0  0  0  0  0  0  0  0  0
    4.8136   -0.0595   -1.8090 N   0  0  0  0  0  0  0  0  0  0  0  0
    4.2056   -0.2130   -0.5973 C   0  0  0  0  0  0  0  0  0  0  0  0
    2.7706   -0.4109   -0.4310 C   0  0  0  0  0  0  0  0  0  0  0  0
    2.1799   -0.5428    0.8432 C   0  0  0  0  0  0  0  0  0  0  0  0
    2.7997   -0.5016    1.7494 H   0  0  0  0  0  0  0  0  0  0  0  0
    0.8036   -0.7347    0.9390 C   0  0  0  0  0  3  0  0  0  0  0  0
    0.3227   -0.8510    1.9209 H   0  0  0  0  0  0  0  0  0  0  0  0
   -0.0116   -0.8027   -0.1445 N   0  0  0  0  0  2  0  0  0  0  0  0
    0.5585   -0.6822   -1.3709 C   0  0  0  0  0  0  0  0  0  0  0  0
   -0.1180   -0.7584   -2.2343 H   0  0  0  0  0  0  0  0  0  0  0  0
    1.9241   -0.4855   -1.5575 C   0  0  0  0  0  0  0  0  0  0  0  0
    2.3475   -0.3973   -2.5676 H   0  0  0  0  0  0  0  0  0  0  0  0
  2  1  1  0  0  0  0
  2  3  1  0  0  0  0
  3  8  1  0  0  0  0
  4  7  1  0  0  0  0
  4  6  1  0  0  0  0
  4  3  1  0  0  0  0
  5  4  1  0  0  0  0
  8 11  1  0  0  0  0
  8  9  1  0  0  0  0
  8 10  1  0  0  0  0
 12 13  1  0  0  0  0
 12 14  1  0  0  0  0
 12  3  1  0  0  0  0
 15 12  1  0  0  0  0
 16  2  1  0  0  0  0
 17 16  2  0  0  0  0
 17 18  1  0  0  0  0
 18 19  1  0  0  0  0
 18  1  2  0  0  0  0
 19 20  2  0  0  0  0
 20 22  1  0  0  0  0
 20 21  1  0  0  0  0
 22 23  1  0  0  0  0
 24 22  1  0  0  0  0
 25 24  1  0  0  0  0
 26 25  1  0  0  0  0
 27 25  2  0  0  0  0
 27 19  1  0  0  0  0
 28 27  1  0  0  0  0
M  END
