3
 OpenBabel05122313063D

 28 29  0  0  1  0  0  0  0  0999 V2000
   -0.8268    3.8619    1.1033 Cl  0  0  0  0  0  0  0  0  0  0  0  0
    2.4492    3.3769    0.2930 O   0  0  0  0  0  0  0  0  0  0  0  0
    1.4072    1.4286   -0.0107 N   0  0  0  0  0  2  0  0  0  0  0  0
    2.9644    2.8546   -0.9942 N   0  0  0  0  0  0  0  0  0  0  0  0
    1.4790    2.5278    0.6756 C   0  0  2  0  0  3  0  0  0  0  0  0
    0.5844    2.9555    1.7855 C   0  0  0  0  0  0  0  0  0  0  0  0
    1.1249    3.6359    2.4684 H   0  0  0  0  0  0  0  0  0  0  0  0
    0.2110    2.0601    2.3199 H   0  0  0  0  0  0  0  0  0  0  0  0
    2.2782    3.6293   -2.0263 C   0  0  0  0  0  0  0  0  0  0  0  0
    2.6804    3.2921   -3.0015 H   0  0  0  0  0  0  0  0  0  0  0  0
    2.5310    4.6979   -1.8961 H   0  0  0  0  0  0  0  0  0  0  0  0
    1.1721    3.4923   -2.0232 H   0  0  0  0  0  0  0  0  0  0  0  0
    2.5551    1.4389   -0.9643 C   0  0  1  0  0  0  0  0  0  0  0  0
    2.1586    1.1426   -1.9582 H   0  0  0  0  0  0  0  0  0  0  0  0
    3.6392    0.4854   -0.4974 C   0  0  0  0  0  0  0  0  0  0  0  0
    4.8700    0.9503   -0.0098 C   0  0  0  0  0  0  0  0  0  0  0  0
    5.0665    2.0321    0.0024 H   0  0  0  0  0  0  0  0  0  0  0  0
    5.8391    0.0387    0.4373 C   0  0  0  0  0  0  0  0  0  0  0  0
    6.8023    0.4159    0.8163 H   0  0  0  0  0  0  0  0  0  0  0  0
    5.6060   -1.3496    0.4098 C   0  0  0  0  0  0  0  0  0  0  0  0
    6.6377   -2.3312    0.9052 C   0  0  0  0  0  0  0  0  0  0  0  0
    6.2781   -2.8660    1.8096 H   0  0  0  0  0  0  0  0  0  0  0  0
    7.5890   -1.8290    1.1673 H   0  0  0  0  0  0  0  0  0  0  0  0
    6.8581   -3.1065    0.1426 H   0  0  0  0  0  0  0  0  0  0  0  0
    4.3661   -1.8016   -0.0923 C   0  0  0  0  0  0  0  0  0  0  0  0
    4.1534   -2.8817   -0.1312 H   0  0  0  0  0  0  0  0  0  0  0  0
    3.3959   -0.9016   -0.5420 C   0  0  0  0  0  0  0  0  0  0  0  0
    2.4312   -1.2796   -0.9157 H   0  0  0  0  0  0  0  0  0  0  0  0
  1  6  1  0  0  0  0
  2  5  1  0  0  0  0
  3  5  1  0  0  0  0
  4 13  1  0  0  0  0
  4  2  1  0  0  0  0
  5  6  1  6  0  0  0
  6  8  1  0  0  0  0
  6  7  1  0  0  0  0
  9 12  1  0  0  0  0
  9 11  1  0  0  0  0
  9  4  1  0  0  0  0
 10  9  1  0  0  0  0
 13 14  1  6  0  0  0
 13 15  1  0  0  0  0
 13  3  1  0  0  0  0
 15 16  1  0  0  0  0
 16 17  1  0  0  0  0
 16 18  2  0  0  0  0
 18 19  1  0  0  0  0
 20 18  1  0  0  0  0
 20 21  1  0  0  0  0
 21 23  1  0  0  0  0
 21 22  1  0  0  0  0
 24 21  1  0  0  0  0
 25 20  2  0  0  0  0
 26 25  1  0  0  0  0
 27 15  2  0  0  0  0
 27 25  1  0  0  0  0
 28 27  1  0  0  0  0
M  END
