1
 OpenBabel05122313063D

 19 19  0  0  0  0  0  0  0  0999 V2000
    1.5922   -0.4887   -0.0358 N   0  0  0  0  0  2  0  0  0  0  0  0
    0.5010    1.8675   -1.2154 N   0  0  0  0  0  0  0  0  0  0  0  0
    2.0201   -1.7067   -0.4441 C   0  0  0  0  0  3  0  0  0  0  0  0
    3.3640   -2.0877   -0.3895 C   0  0  0  0  0  0  0  0  0  0  0  0
    4.3017   -1.1765    0.1145 C   0  0  0  0  0  0  0  0  0  0  0  0
    3.8587    0.0856    0.5330 C   0  0  0  0  0  0  0  0  0  0  0  0
    2.4965    0.4130    0.4452 C   0  0  0  0  0  0  0  0  0  0  0  0
    1.9559    1.7612    0.8445 C   0  0  0  0  0  0  0  0  0  0  0  0
    1.4628    2.6060   -0.3448 C   0  0  0  0  0  0  0  0  0  0  0  0
   -0.1934    2.5217   -1.6031 H   0  0  0  0  0  0  0  0  0  0  0  0
    0.9925    1.4793   -2.0344 H   0  0  0  0  0  0  0  0  0  0  0  0
    1.2505   -2.3916   -0.8278 H   0  0  0  0  0  0  0  0  0  0  0  0
    3.6605   -3.0878   -0.7349 H   0  0  0  0  0  0  0  0  0  0  0  0
    5.3666   -1.4441    0.1812 H   0  0  0  0  0  0  0  0  0  0  0  0
    4.5649    0.8256    0.9362 H   0  0  0  0  0  0  0  0  0  0  0  0
    2.7333    2.3371    1.3833 H   0  0  0  0  0  0  0  0  0  0  0  0
    1.1067    1.6064    1.5456 H   0  0  0  0  0  0  0  0  0  0  0  0
    2.3248    2.9620   -0.9460 H   0  0  0  0  0  0  0  0  0  0  0  0
    0.9470    3.5012    0.0524 H   0  0  0  0  0  0  0  0  0  0  0  0
  1  7  1  0  0  0  0
  2  9  1  0  0  0  0
  3  4  1  0  0  0  0
  3  1  1  0  0  0  0
  4  5  2  0  0  0  0
  5 14  1  0  0  0  0
  5  6  1  0  0  0  0
  6 15  1  0  0  0  0
  7  6  2  0  0  0  0
  7  8  1  0  0  0  0
  8 16  1  0  0  0  0
  8 17  1  0  0  0  0
  9 19  1  0  0  0  0
  9  8  1  0  0  0  0
 10  2  1  0  0  0  0
 11  2  1  0  0  0  0
 12  3  1  0  0  0  0
 13  4  1  0  0  0  0
 18  9  1  0  0  0  0
M  END
