2
 OpenBabel05122313063D

 18 17  0  0  1  0  0  0  0  0999 V2000
    4.2225   -0.7452   -0.3368 O   0  0  0  0  0  0  0  0  0  0  0  0
    2.0240   -0.1366   -0.0001 N   0  0  0  0  0  2  0  0  0  0  0  0
    4.5072    0.2913    0.5958 N   0  0  0  0  0  0  0  0  0  0  0  0
    2.8929   -0.8895   -0.5846 C   0  0  1  0  0  3  0  0  0  0  0  0
    2.6127   -1.9684   -1.5660 C   0  0  0  0  0  0  0  0  0  0  0  0
    5.7805    0.3835    0.7941 C   0  0  0  0  0  0  0  0  0  0  0  0
    6.8052   -0.4900    0.1255 C   0  0  0  0  0  0  0  0  0  0  0  0
    6.2135    1.4439    1.7610 C   0  0  0  0  0  0  0  0  0  0  0  0
    2.4468    0.5612    0.6356 H   0  0  0  0  0  0  0  0  0  0  0  0
    1.8889   -2.6790   -1.1177 H   0  0  0  0  0  0  0  0  0  0  0  0
    2.0932   -1.5239   -2.4392 H   0  0  0  0  0  0  0  0  0  0  0  0
    3.5491   -2.4703   -1.8645 H   0  0  0  0  0  0  0  0  0  0  0  0
    6.7309   -0.3950   -0.9769 H   0  0  0  0  0  0  0  0  0  0  0  0
    6.6110   -1.5569    0.3579 H   0  0  0  0  0  0  0  0  0  0  0  0
    7.8299   -0.2287    0.4454 H   0  0  0  0  0  0  0  0  0  0  0  0
    6.9020    2.1573    1.2611 H   0  0  0  0  0  0  0  0  0  0  0  0
    6.7783    0.9864    2.6005 H   0  0  0  0  0  0  0  0  0  0  0  0
    5.3434    1.9946    2.1621 H   0  0  0  0  0  0  0  0  0  0  0  0
  1  3  1  0  0  0  0
  2  9  1  0  0  0  0
  3  6  2  0  0  0  0
  4  1  1  6  0  0  0
  4  2  1  0  0  0  0
  5 10  1  0  0  0  0
  5  4  1  0  0  0  0
  6  8  1  0  0  0  0
  7 14  1  0  0  0  0
  7 15  1  0  0  0  0
  7  6  1  0  0  0  0
  8 18  1  0  0  0  0
  8 17  1  0  0  0  0
 11  5  1  0  0  0  0
 12  5  1  0  0  0  0
 13  7  1  0  0  0  0
 16  8  1  0  0  0  0
M  END
