1
 OpenBabel05122313063D

 15 15  0  0  1  0  0  0  0  0999 V2000
   -0.8865   -0.0000   -0.3123 N   0  0  0  0  0  2  0  0  0  0  0  0
    0.4988    2.3268   -0.1330 O   0  0  0  0  0  0  0  0  0  0  0  0
    0.4989   -2.3267   -0.1327 O   0  0  0  0  0  0  0  0  0  0  0  0
   -1.5625    1.1601   -0.3021 C   0  0  1  0  0  3  0  0  0  0  0  0
   -2.9690    1.2063   -0.3105 C   0  0  0  0  0  0  0  0  0  0  0  0
   -3.4859    2.1781   -0.3048 H   0  0  0  0  0  0  0  0  0  0  0  0
   -3.6843   -0.0001   -0.3197 C   0  0  0  0  0  0  0  0  0  0  0  0
   -4.7841   -0.0001   -0.3266 H   0  0  0  0  0  0  0  0  0  0  0  0
   -2.9689   -1.2064   -0.3104 C   0  0  0  0  0  0  0  0  0  0  0  0
   -3.4858   -2.1782   -0.3047 H   0  0  0  0  0  0  0  0  0  0  0  0
   -1.5624   -1.1602   -0.3020 C   0  0  0  0  0  0  0  0  0  0  0  0
   -0.7137    2.3894   -0.2363 C   0  0  0  0  0  0  0  0  0  0  0  0
   -1.2569    3.3729   -0.2683 H   0  0  0  0  0  0  0  0  0  0  0  0
   -0.7136   -2.3894   -0.2361 C   0  0  0  0  0  0  0  0  0  0  0  0
   -1.2568   -3.3729   -0.2680 H   0  0  0  0  0  0  0  0  0  0  0  0
  1  4  1  0  0  0  0
  1 11  1  0  0  0  0
  4 12  1  1  0  0  0
  5  6  1  0  0  0  0
  5  4  1  0  0  0  0
  7  5  2  0  0  0  0
  7  9  1  0  0  0  0
  8  7  1  0  0  0  0
  9 10  1  0  0  0  0
  9 11  2  0  0  0  0
 11 14  1  0  0  0  0
 12  2  2  0  0  0  0
 13 12  1  0  0  0  0
 14  3  2  0  0  0  0
 15 14  1  0  0  0  0
M  END
