1
 OpenBabel05122313063D

 13 13  0  0  1  0  0  0  0  0999 V2000
   -1.4021   -0.0689    0.7212 N   0  0  0  0  0  2  0  0  0  0  0  0
   -2.0669   -1.8153   -1.2827 O   0  0  0  0  0  0  0  0  0  0  0  0
   -2.5786    0.0755    0.0718 C   0  0  2  0  0  3  0  0  0  0  0  0
   -3.4903    1.0918    0.3850 C   0  0  0  0  0  0  0  0  0  0  0  0
   -4.4317    1.1763   -0.1784 H   0  0  0  0  0  0  0  0  0  0  0  0
   -3.1683    1.9868    1.4164 C   0  0  0  0  0  0  0  0  0  0  0  0
   -3.8553    2.8028    1.6848 H   0  0  0  0  0  0  0  0  0  0  0  0
   -1.9536    1.8255    2.0897 C   0  0  0  0  0  0  0  0  0  0  0  0
   -1.6539    2.5072    2.8980 H   0  0  0  0  0  0  0  0  0  0  0  0
   -1.0896    0.7879    1.6970 C   0  0  0  0  0  0  0  0  0  0  0  0
   -0.1089    0.6486    2.1783 H   0  0  0  0  0  0  0  0  0  0  0  0
   -2.8547   -0.9270   -0.9921 C   0  0  0  0  0  0  0  0  0  0  0  0
   -3.8452   -0.8348   -1.5132 H   0  0  0  0  0  0  0  0  0  0  0  0
  1 10  1  0  0  0  0
  2 12  2  0  0  0  0
  3 12  1  1  0  0  0
  3  4  1  0  0  0  0
  3  1  1  0  0  0  0
  4  6  2  0  0  0  0
  5  4  1  0  0  0  0
  6  7  1  0  0  0  0
  6  8  1  0  0  0  0
  8  9  1  0  0  0  0
 10  8  2  0  0  0  0
 10 11  1  0  0  0  0
 13 12  1  0  0  0  0
M  END
