1
 OpenBabel05122313063D

 21 22  0  0  0  0  0  0  0  0999 V2000
    0.2448    1.3853   -0.6809 N   0  0  0  0  0  0  0  0  0  0  0  0
    0.2323    2.7137   -0.0328 C   0  0  0  0  0  0  0  0  0  0  0  0
   -0.6606    3.3347   -0.2098 H   0  0  0  0  0  0  0  0  0  0  0  0
    0.6465    2.7517    0.9839 H   0  0  0  0  0  0  0  0  0  0  0  0
    1.1236    2.4562   -1.1964 C   0  0  0  0  0  0  0  0  0  0  0  0
    2.1964    2.2841   -1.0311 H   0  0  0  0  0  0  0  0  0  0  0  0
    0.8473    2.8935   -2.1710 H   0  0  0  0  0  0  0  0  0  0  0  0
   -0.9396    1.1001   -1.5336 C   0  0  0  0  0  0  0  0  0  0  0  0
   -1.2761    2.0534   -2.0064 H   0  0  0  0  0  0  0  0  0  0  0  0
   -0.6001    0.4331   -2.3490 H   0  0  0  0  0  0  0  0  0  0  0  0
   -2.5232   -0.8335   -1.1460 C   0  0  0  0  0  0  0  0  0  0  0  0
   -2.0113   -1.3702   -1.9597 H   0  0  0  0  0  0  0  0  0  0  0  0
   -3.5857   -1.4468   -0.4680 C   0  0  0  0  0  0  0  0  0  0  0  0
   -3.9018   -2.4625   -0.7504 H   0  0  0  0  0  0  0  0  0  0  0  0
   -4.2356   -0.7705    0.5746 C   0  0  0  0  0  0  0  0  0  0  0  0
   -5.0616   -1.2535    1.1179 H   0  0  0  0  0  0  0  0  0  0  0  0
   -3.8258    0.5258    0.9220 C   0  0  0  0  0  0  0  0  0  0  0  0
   -4.3319    1.0643    1.7373 H   0  0  0  0  0  0  0  0  0  0  0  0
   -2.7690    1.1386    0.2362 C   0  0  0  0  0  0  0  0  0  0  0  0
   -2.4610    2.1546    0.5236 H   0  0  0  0  0  0  0  0  0  0  0  0
   -2.0919    0.4601   -0.7970 C   0  0  0  0  0  0  0  0  0  0  0  0
  1  2  1  0  0  0  0
  2  4  1  0  0  0  0
  3  2  1  0  0  0  0
  5  6  1  0  0  0  0
  5  1  1  0  0  0  0
  5  2  1  0  0  0  0
  7  5  1  0  0  0  0
  8 21  1  0  0  0  0
  8  1  1  0  0  0  0
  9  8  1  0  0  0  0
 10  8  1  0  0  0  0
 11 21  2  0  0  0  0
 11 13  1  0  0  0  0
 12 11  1  0  0  0  0
 13 15  2  0  0  0  0
 14 13  1  0  0  0  0
 15 17  1  0  0  0  0
 15 16  1  0  0  0  0
 17 18  1  0  0  0  0
 19 20  1  0  0  0  0
 19 17  2  0  0  0  0
 21 19  1  0  0  0  0
M  END
