3
q = 0.0, confidence = 0.988

 33 35  0  0  1  0  0  0  0  0999 V2000
    2.3964   -1.3902   -0.1238 S   0  0  0  0  0  0  0  0  0  0  0  0
    6.0004    0.9006   -0.4388 S   0  0  0  0  0  0  0  0  0  0  0  0
   -2.6109    1.2420    0.0690 N   0  0  0  0  0  2  0  0  0  0  0  0
    1.7345   -0.1314    0.8403 N   0  0  0  0  0  0  0  0  0  0  0  0
   -0.3391    1.5694    0.3988 N   0  0  0  0  0  0  0  0  0  0  0  0
   -0.3313    0.5464    0.5806 H   0  0  0  0  0  0  0  0  0  0  0  0
    1.8018   -1.2663   -1.4642 O   0  0  0  0  0  0  0  0  0  0  0  0
    2.3358   -2.6496    0.6427 O   0  0  0  0  0  0  0  0  0  0  0  0
    1.0985    3.3330   -0.0887 O   0  0  0  0  0  0  0  0  0  0  0  0
    3.5301    2.7965   -0.5225 O   0  0  0  0  0  0  0  0  0  0  0  0
    2.6387    3.3011   -0.3922 H   0  0  0  0  0  0  0  0  0  0  0  0
   -1.5865    2.1298    0.2157 C   0  0  1  0  0  3  0  0  0  0  0  0
    2.0039    1.1763    0.3428 C   0  0  0  0  0  0  0  0  0  0  0  0
   -1.8193    3.5219    0.1661 C   0  0  0  0  0  0  0  0  0  0  0  0
   -0.9605    4.1976    0.2530 H   0  0  0  0  0  0  0  0  0  0  0  0
    3.2670    1.5624   -0.1173 C   0  0  0  0  0  0  0  0  0  0  0  0
   -3.1258    3.9769   -0.0093 C   0  0  0  0  0  0  0  0  0  0  0  0
   -3.3245    5.0584   -0.0467 H   0  0  0  0  0  0  0  0  0  0  0  0
   -4.1777    3.0540   -0.1397 C   0  0  0  0  0  0  0  0  0  0  0  0
   -5.2178    3.3763   -0.2823 H   0  0  0  0  0  0  0  0  0  0  0  0
    6.3831   -0.7889   -0.4572 C   0  0  0  0  0  0  0  0  0  0  0  0
    7.4289   -1.1012   -0.5695 H   0  0  0  0  0  0  0  0  0  0  0  0
   -3.8733    1.6943   -0.1068 C   0  0  0  0  0  0  0  0  0  0  0  0
   -4.6407    0.9204   -0.2458 H   0  0  0  0  0  0  0  0  0  0  0  0
    5.2676   -1.5988   -0.3200 C   0  0  0  0  0  0  0  0  0  0  0  0
    5.2870   -2.6960   -0.3058 H   0  0  0  0  0  0  0  0  0  0  0  0
    4.0874   -0.8199   -0.1945 C   0  0  0  0  0  0  0  0  0  0  0  0
    4.3085    0.5595   -0.2307 C   0  0  0  0  0  0  0  0  0  0  0  0
    1.8206   -0.3126    2.2989 C   0  0  0  0  0  0  0  0  0  0  0  0
    1.5922   -1.3649    2.5416 H   0  0  0  0  0  0  0  0  0  0  0  0
    1.0407    0.3160    2.7692 H   0  0  0  0  0  0  0  0  0  0  0  0
    2.8230   -0.0329    2.6917 H   0  0  0  0  0  0  0  0  0  0  0  0
    0.9055    2.1278    0.2142 C   0  0  0  0  0  0  0  0  0  0  0  0
  1  8  2  0  0  0  0
  1  4  1  0  0  0  0
  2 28  1  0  0  0  0
  3 12  1  0  0  0  0
  4 29  1  0  0  0  0
  5  6  1  0  0  0  0
  7  1  2  0  0  0  0
  9 33  2  0  0  0  0
 10 11  1  0  0  0  0
 10 16  1  0  0  0  0
 12  5  1  6  0  0  0
 13  4  1  0  0  0  0
 14 12  1  0  0  0  0
 14 15  1  0  0  0  0
 16 13  2  0  0  0  0
 17 14  2  0  0  0  0
 18 17  1  0  0  0  0
 19 23  2  0  0  0  0
 19 17  1  0  0  0  0
 20 19  1  0  0  0  0
 21  2  1  0  0  0  0
 21 25  2  0  0  0  0
 22 21  1  0  0  0  0
 23  3  1  0  0  0  0
 24 23  1  0  0  0  0
 25 26  1  0  0  0  0
 25 27  1  0  0  0  0
 27  1  1  0  0  0  0
 28 27  2  0  0  0  0
 28 16  1  0  0  0  0
 29 30  1  0  0  0  0
 29 32  1  0  0  0  0
 29 31  1  0  0  0  0
 33 13  1  0  0  0  0
 33  5  1  0  0  0  0
M  END
