8
 OpenBabel05122313063D

 43 44  0  0  0  0  0  0  0  0999 V2000
    0.5445    0.8912   -2.2194 F   0  0  0  0  0  0  0  0  0  0  0  0
    0.2895    2.9092   -1.4365 F   0  0  0  0  0  0  0  0  0  0  0  0
    2.2667    2.2318   -2.0140 F   0  0  0  0  0  0  0  0  0  0  0  0
    1.8274    3.4388    0.9097 F   0  0  0  0  0  0  0  0  0  0  0  0
    3.5437    2.1853    0.4339 F   0  0  0  0  0  0  0  0  0  0  0  0
    2.2663    1.6873    2.1323 F   0  0  0  0  0  0  0  0  0  0  0  0
   -1.4899   -0.7082    0.0740 N   0  0  0  0  0  0  0  0  0  0  0  0
    0.3839    0.5425    0.6257 N   0  0  0  0  0  2  0  0  0  0  0  0
   -0.9583    0.4581    0.2977 C   0  0  0  0  0  0  0  0  0  0  0  0
    1.3643    1.2760   -0.0245 C   0  0  0  0  0  3  0  0  0  0  0  0
    1.1123    1.8320   -1.4160 C   0  0  0  0  0  0  0  0  0  0  0  0
    2.2465    2.1451    0.8608 C   0  0  0  0  0  0  0  0  0  0  0  0
   -1.7071    1.7536    0.3358 C   0  0  0  0  0  0  0  0  0  0  0  0
   -2.7380    2.0305   -0.5857 C   0  0  0  0  0  0  0  0  0  0  0  0
   -2.9839    1.2976   -1.3657 H   0  0  0  0  0  0  0  0  0  0  0  0
   -3.4385    3.2415   -0.5161 C   0  0  0  0  0  0  0  0  0  0  0  0
   -4.2364    3.4505   -1.2447 H   0  0  0  0  0  0  0  0  0  0  0  0
   -3.1243    4.1865    0.4744 C   0  0  0  0  0  0  0  0  0  0  0  0
   -3.6798    5.1353    0.5280 H   0  0  0  0  0  0  0  0  0  0  0  0
   -2.0958    3.9192    1.3920 C   0  0  0  0  0  0  0  0  0  0  0  0
   -1.8408    4.6573    2.1677 H   0  0  0  0  0  0  0  0  0  0  0  0
   -1.3874    2.7128    1.3207 C   0  0  0  0  0  0  0  0  0  0  0  0
   -0.5820    2.4932    2.0357 H   0  0  0  0  0  0  0  0  0  0  0  0
   -2.8555   -0.9546   -0.1057 C   0  0  0  0  0  0  0  0  0  0  0  0
   -3.2500   -1.4689   -1.3771 C   0  0  0  0  0  0  0  0  0  0  0  0
   -4.5893   -1.8221   -1.5912 C   0  0  0  0  0  0  0  0  0  0  0  0
   -4.8826   -2.2045   -2.5835 H   0  0  0  0  0  0  0  0  0  0  0  0
   -5.5641   -1.7014   -0.5805 C   0  0  0  0  0  0  0  0  0  0  0  0
   -5.1515   -1.1971    0.6636 C   0  0  0  0  0  0  0  0  0  0  0  0
   -5.8957   -1.0906    1.4708 H   0  0  0  0  0  0  0  0  0  0  0  0
   -3.8223   -0.8141    0.9278 C   0  0  0  0  0  0  0  0  0  0  0  0
   -2.2221   -1.5695   -2.4740 C   0  0  0  0  0  0  0  0  0  0  0  0
   -1.3534   -2.1853   -2.1593 H   0  0  0  0  0  0  0  0  0  0  0  0
   -1.7935   -0.5754   -2.7236 H   0  0  0  0  0  0  0  0  0  0  0  0
   -2.6536   -2.0056   -3.3956 H   0  0  0  0  0  0  0  0  0  0  0  0
   -6.9924   -2.1199   -0.8283 C   0  0  0  0  0  0  0  0  0  0  0  0
   -7.6617   -1.7899   -0.0096 H   0  0  0  0  0  0  0  0  0  0  0  0
   -7.0861   -3.2247   -0.9086 H   0  0  0  0  0  0  0  0  0  0  0  0
   -7.3831   -1.6979   -1.7775 H   0  0  0  0  0  0  0  0  0  0  0  0
   -3.4599   -0.2433    2.2749 C   0  0  0  0  0  0  0  0  0  0  0  0
   -3.4317    0.8669    2.2502 H   0  0  0  0  0  0  0  0  0  0  0  0
   -2.4561   -0.5691    2.6116 H   0  0  0  0  0  0  0  0  0  0  0  0
   -4.1975   -0.5425    3.0450 H   0  0  0  0  0  0  0  0  0  0  0  0
  1 11  1  0  0  0  0
  2 11  1  0  0  0  0
  3 11  1  0  0  0  0
  5 12  1  0  0  0  0
  7  9  2  0  0  0  0
  9 13  1  0  0  0  0
  9  8  1  0  0  0  0
 10  8  1  0  0  0  0
 10 12  1  0  0  0  0
 11 10  1  0  0  0  0
 12  4  1  0  0  0  0
 12  6  1  0  0  0  0
 13 22  1  0  0  0  0
 14 16  1  0  0  0  0
 14 13  2  0  0  0  0
 15 14  1  0  0  0  0
 16 18  2  0  0  0  0
 17 16  1  0  0  0  0
 18 19  1  0  0  0  0
 18 20  1  0  0  0  0
 20 21  1  0  0  0  0
 22 20  2  0  0  0  0
 22 23  1  0  0  0  0
 24  7  1  0  0  0  0
 24 31  1  0  0  0  0
 25 24  2  0  0  0  0
 26 25  1  0  0  0  0
 26 28  2  0  0  0  0
 27 26  1  0  0  0  0
 28 29  1  0  0  0  0
 29 31  2  0  0  0  0
 29 30  1  0  0  0  0
 31 40  1  0  0  0  0
 32 33  1  0  0  0  0
 32 25  1  0  0  0  0
 34 32  1  0  0  0  0
 35 32  1  0  0  0  0
 36 28  1  0  0  0  0
 36 37  1  0  0  0  0
 38 36  1  0  0  0  0
 39 36  1  0  0  0  0
 40 42  1  0  0  0  0
 40 43  1  0  0  0  0
 41 40  1  0  0  0  0
M  END
