3
 OpenBabel05122313063D

 20 20  0  0  0  0  0  0  0  0999 V2000
    1.9322    1.4115   -0.4045 O   0  0  0  0  0  0  0  0  0  0  0  0
    4.1137    0.9513   -0.7820 O   0  0  0  0  0  0  0  0  0  0  0  0
    1.3021   -1.2223   -0.9620 N   0  0  0  0  0  2  0  0  0  0  0  0
    0.9778   -2.4790   -1.2959 C   0  0  0  0  0  3  0  0  0  0  0  0
   -0.0589   -2.7799   -1.0779 H   0  0  0  0  0  0  0  0  0  0  0  0
    1.9076   -3.3611   -1.8708 C   0  0  0  0  0  0  0  0  0  0  0  0
    1.6041   -4.3852   -2.1309 H   0  0  0  0  0  0  0  0  0  0  0  0
    3.2186   -2.9144   -2.0835 C   0  0  0  0  0  0  0  0  0  0  0  0
    3.9749   -3.5837   -2.5204 H   0  0  0  0  0  0  0  0  0  0  0  0
    3.5593   -1.6040   -1.7194 C   0  0  0  0  0  0  0  0  0  0  0  0
    4.5745   -1.2081   -1.8521 H   0  0  0  0  0  0  0  0  0  0  0  0
    2.5616   -0.7890   -1.1604 C   0  0  0  0  0  0  0  0  0  0  0  0
    2.8164    0.6327   -0.7390 C   0  0  0  0  0  0  0  0  0  0  0  0
    4.4607    2.2772   -0.3044 C   0  0  0  0  0  0  0  0  0  0  0  0
    3.9802    3.0254   -0.9694 H   0  0  0  0  0  0  0  0  0  0  0  0
    4.0181    2.4038    0.7051 H   0  0  0  0  0  0  0  0  0  0  0  0
    5.9693    2.3887   -0.2993 C   0  0  0  0  0  0  0  0  0  0  0  0
    6.4200    1.6304    0.3707 H   0  0  0  0  0  0  0  0  0  0  0  0
    6.2676    3.3914    0.0650 H   0  0  0  0  0  0  0  0  0  0  0  0
    6.3871    2.2525   -1.3165 H   0  0  0  0  0  0  0  0  0  0  0  0
  2 13  1  0  0  0  0
  2 14  1  0  0  0  0
  4  5  1  0  0  0  0
  4  3  1  0  0  0  0
  6  4  1  0  0  0  0
  7  6  1  0  0  0  0
  8  6  2  0  0  0  0
  8 10  1  0  0  0  0
  9  8  1  0  0  0  0
 10 12  2  0  0  0  0
 11 10  1  0  0  0  0
 12  3  1  0  0  0  0
 12 13  1  0  0  0  0
 13  1  2  0  0  0  0
 14 17  1  0  0  0  0
 14 16  1  0  0  0  0
 15 14  1  0  0  0  0
 17 19  1  0  0  0  0
 17 18  1  0  0  0  0
 20 17  1  0  0  0  0
M  END
