1
 OpenBabel05122313063D

 17 17  0  0  0  0  0  0  0  0999 V2000
   -1.5519    1.6569   -0.8805 N   0  0  0  0  0  2  0  0  0  0  0  0
   -2.5930    2.0896   -0.1483 C   0  0  0  0  0  3  0  0  0  0  0  0
   -2.5453    1.8942    0.9353 H   0  0  0  0  0  0  0  0  0  0  0  0
   -3.7155    2.7356   -0.7018 C   0  0  0  0  0  0  0  0  0  0  0  0
   -3.7063    2.9449   -2.0933 C   0  0  0  0  0  0  0  0  0  0  0  0
   -4.5601    3.4471   -2.5766 H   0  0  0  0  0  0  0  0  0  0  0  0
   -2.6125    2.5126   -2.8568 C   0  0  0  0  0  0  0  0  0  0  0  0
   -2.5803    2.6685   -3.9450 H   0  0  0  0  0  0  0  0  0  0  0  0
   -1.5543    1.8594   -2.2126 C   0  0  0  0  0  0  0  0  0  0  0  0
   -0.6815    1.4606   -2.7569 H   0  0  0  0  0  0  0  0  0  0  0  0
   -4.8922    3.1029    0.1696 C   0  0  0  0  0  0  0  0  0  0  0  0
   -5.4568    3.9313   -0.3075 H   0  0  0  0  0  0  0  0  0  0  0  0
   -4.5217    3.4849    1.1439 H   0  0  0  0  0  0  0  0  0  0  0  0
   -5.8231    1.9062    0.4257 C   0  0  0  0  0  0  0  0  0  0  0  0
   -6.6997    2.2111    1.0319 H   0  0  0  0  0  0  0  0  0  0  0  0
   -5.2882    1.1113    0.9858 H   0  0  0  0  0  0  0  0  0  0  0  0
   -6.1961    1.4771   -0.5271 H   0  0  0  0  0  0  0  0  0  0  0  0
  1  2  1  0  0  0  0
  2  3  1  0  0  0  0
  4  2  1  0  0  0  0
  4 11  1  0  0  0  0
  5  4  2  0  0  0  0
  6  5  1  0  0  0  0
  7  9  2  0  0  0  0
  7  5  1  0  0  0  0
  8  7  1  0  0  0  0
  9  1  1  0  0  0  0
 10  9  1  0  0  0  0
 11 14  1  0  0  0  0
 11 13  1  0  0  0  0
 12 11  1  0  0  0  0
 14 16  1  0  0  0  0
 14 15  1  0  0  0  0
 17 14  1  0  0  0  0
M  END
