1
 OpenBabel05122313063D

 25 26  0  0  0  0  0  0  0  0999 V2000
    1.5320   -0.2223    0.6204 N   0  0  0  0  0  2  0  0  0  0  0  0
    2.7568    0.1369    0.3616 C   0  0  0  0  0  3  0  0  0  0  0  0
    3.8889   -0.5032    1.0886 C   0  0  0  0  0  0  0  0  0  0  0  0
    3.7560   -1.7934    1.6544 C   0  0  0  0  0  0  0  0  0  0  0  0
    4.8133   -2.3762    2.3622 C   0  0  0  0  0  0  0  0  0  0  0  0
    6.0246   -1.6826    2.5213 C   0  0  0  0  0  0  0  0  0  0  0  0
    6.1695   -0.4014    1.9665 C   0  0  0  0  0  0  0  0  0  0  0  0
    5.1149    0.1822    1.2523 C   0  0  0  0  0  0  0  0  0  0  0  0
    3.0682    1.1835   -0.6454 C   0  0  0  0  0  0  0  0  0  0  0  0
    2.4210    2.4355   -0.5943 C   0  0  0  0  0  0  0  0  0  0  0  0
    2.7217    3.4162   -1.5503 C   0  0  0  0  0  0  0  0  0  0  0  0
    3.6593    3.1598   -2.5621 C   0  0  0  0  0  0  0  0  0  0  0  0
    4.3157    1.9178   -2.6103 C   0  0  0  0  0  0  0  0  0  0  0  0
    4.0328    0.9391   -1.6498 C   0  0  0  0  0  0  0  0  0  0  0  0
    1.4531   -0.8702    1.4287 H   0  0  0  0  0  0  0  0  0  0  0  0
    2.8166   -2.3540    1.5332 H   0  0  0  0  0  0  0  0  0  0  0  0
    4.6924   -3.3830    2.7896 H   0  0  0  0  0  0  0  0  0  0  0  0
    6.8553   -2.1418    3.0783 H   0  0  0  0  0  0  0  0  0  0  0  0
    7.1116    0.1527    2.0952 H   0  0  0  0  0  0  0  0  0  0  0  0
    5.2279    1.1911    0.8306 H   0  0  0  0  0  0  0  0  0  0  0  0
    1.6855    2.6245    0.2057 H   0  0  0  0  0  0  0  0  0  0  0  0
    2.2099    4.3892   -1.5042 H   0  0  0  0  0  0  0  0  0  0  0  0
    3.8851    3.9307   -3.3147 H   0  0  0  0  0  0  0  0  0  0  0  0
    5.0533    1.7121   -3.4009 H   0  0  0  0  0  0  0  0  0  0  0  0
    4.5475   -0.0332   -1.6836 H   0  0  0  0  0  0  0  0  0  0  0  0
  1 15  1  0  0  0  0
  2  1  1  0  0  0  0
  2  3  1  0  0  0  0
  3  8  2  0  0  0  0
  3  4  1  0  0  0  0
  4  5  2  0  0  0  0
  5  6  1  0  0  0  0
  5 17  1  0  0  0  0
  6 18  1  0  0  0  0
  7 19  1  0  0  0  0
  7  6  2  0  0  0  0
  8  7  1  0  0  0  0
  9 10  1  0  0  0  0
  9  2  1  0  0  0  0
 10 21  1  0  0  0  0
 11 22  1  0  0  0  0
 11 10  2  0  0  0  0
 12 11  1  0  0  0  0
 13 12  2  0  0  0  0
 13 14  1  0  0  0  0
 14  9  2  0  0  0  0
 16  4  1  0  0  0  0
 20  8  1  0  0  0  0
 23 12  1  0  0  0  0
 24 13  1  0  0  0  0
 25 14  1  0  0  0  0
M  END
