2
 OpenBabel05122313063D

 14 15  0  0  0  0  0  0  0  0999 V2000
   -0.4687    5.9736   -0.7504 O   0  0  0  0  0  0  0  0  0  0  0  0
   -0.2171    1.9234   -0.2958 N   0  0  0  0  0  2  0  0  0  0  0  0
   -0.6795    2.7052    0.6999 C   0  0  0  0  0  3  0  0  0  0  0  0
   -0.9630    2.2062    1.6432 H   0  0  0  0  0  0  0  0  0  0  0  0
   -0.7550    4.0940    0.5074 C   0  0  0  0  0  0  0  0  0  0  0  0
   -1.1710    5.2334    1.2909 C   0  0  0  0  0  0  0  0  0  0  0  0
   -1.5608    5.2355    2.3140 H   0  0  0  0  0  0  0  0  0  0  0  0
   -0.9765    6.3217    0.4842 C   0  0  0  0  0  0  0  0  0  0  0  0
   -1.1435    7.3941    0.6292 H   0  0  0  0  0  0  0  0  0  0  0  0
   -0.3315    4.6207   -0.7396 C   0  0  0  0  0  0  0  0  0  0  0  0
    0.1521    3.8061   -1.7657 C   0  0  0  0  0  0  0  0  0  0  0  0
    0.4836    4.2038   -2.7337 H   0  0  0  0  0  0  0  0  0  0  0  0
    0.1933    2.4380   -1.4894 C   0  0  0  0  0  0  0  0  0  0  0  0
    0.5387    1.6927   -2.2272 H   0  0  0  0  0  0  0  0  0  0  0  0
  1 10  1  0  0  0  0
  1  8  1  0  0  0  0
  2  3  1  0  0  0  0
  3  4  1  0  0  0  0
  5  3  1  0  0  0  0
  5  6  1  0  0  0  0
  6  7  1  0  0  0  0
  8  9  1  0  0  0  0
  8  6  2  0  0  0  0
 10  5  2  0  0  0  0
 11 13  2  0  0  0  0
 11 10  1  0  0  0  0
 12 11  1  0  0  0  0
 13  2  1  0  0  0  0
 14 13  1  0  0  0  0
M  END
