2
 OpenBabel05122313063D

 11 11  0  0  0  0  0  0  0  0999 V2000
   -5.5031   -0.8812    0.7884 I   0  0  0  0  0  0  0  0  0  0  0  0
   -1.7896    0.8611   -0.6296 N   0  0  0  0  0  2  0  0  0  0  0  0
   -2.7271    0.0760   -0.0572 C   0  0  0  0  0  3  0  0  0  0  0  0
   -2.3635   -0.8200    0.4669 H   0  0  0  0  0  0  0  0  0  0  0  0
   -4.0936    0.3774   -0.1576 C   0  0  0  0  0  0  0  0  0  0  0  0
   -4.5061    1.5032   -0.8866 C   0  0  0  0  0  0  0  0  0  0  0  0
   -5.5720    1.7537   -0.9860 H   0  0  0  0  0  0  0  0  0  0  0  0
   -3.5180    2.2974   -1.4840 C   0  0  0  0  0  0  0  0  0  0  0  0
   -3.7886    3.1889   -2.0676 H   0  0  0  0  0  0  0  0  0  0  0  0
   -2.1710    1.9547   -1.3261 C   0  0  0  0  0  0  0  0  0  0  0  0
   -1.3611    2.5688   -1.7454 H   0  0  0  0  0  0  0  0  0  0  0  0
  2  3  1  0  0  0  0
  3  4  1  0  0  0  0
  5  3  1  0  0  0  0
  5  1  1  0  0  0  0
  6  5  2  0  0  0  0
  7  6  1  0  0  0  0
  8 10  2  0  0  0  0
  8  6  1  0  0  0  0
  9  8  1  0  0  0  0
 10  2  1  0  0  0  0
 11 10  1  0  0  0  0
M  END
