1
 OpenBabel05122313063D

 57 59  0  0  1  0  0  0  0  0999 V2000
   -1.0696   -2.0154    0.5090 N   0  0  0  0  0  2  0  0  0  0  0  0
    0.7618   -0.6278    0.2533 N   0  0  0  0  0  2  0  0  0  0  0  0
    2.5448    0.7266   -0.3357 N   0  0  0  0  0  0  0  0  0  0  0  0
    3.3308    0.8060   -0.9855 H   0  0  0  0  0  0  0  0  0  0  0  0
   -1.7004   -3.1375    0.9486 C   0  0  1  0  0  3  0  0  0  0  0  0
   -0.9948   -4.1056    1.6763 C   0  0  0  0  0  0  0  0  0  0  0  0
   -1.5187   -5.0021    2.0344 H   0  0  0  0  0  0  0  0  0  0  0  0
    0.3693   -3.9037    1.9486 C   0  0  0  0  0  0  0  0  0  0  0  0
    0.9323   -4.6465    2.5334 H   0  0  0  0  0  0  0  0  0  0  0  0
    1.0073   -2.7617    1.4740 C   0  0  0  0  0  0  0  0  0  0  0  0
    2.0711   -2.5752    1.6700 H   0  0  0  0  0  0  0  0  0  0  0  0
    0.2649   -1.8155    0.7206 C   0  0  0  0  0  0  0  0  0  0  0  0
   -3.1617   -3.2891    0.6366 C   0  0  0  0  0  0  0  0  0  0  0  0
   -3.7615   -2.5217    1.1684 H   0  0  0  0  0  0  0  0  0  0  0  0
   -3.5333   -4.2849    0.9390 H   0  0  0  0  0  0  0  0  0  0  0  0
   -3.3503   -3.1499   -0.4470 H   0  0  0  0  0  0  0  0  0  0  0  0
    1.9647   -0.5023   -0.2627 C   0  0  2  0  0  3  0  0  0  0  0  0
    2.7750   -1.6137   -0.8404 C   0  0  0  0  0  0  0  0  0  0  0  0
    4.1694   -1.6681   -0.6219 C   0  0  0  0  0  0  0  0  0  0  0  0
    4.6559   -0.9053    0.0059 H   0  0  0  0  0  0  0  0  0  0  0  0
    4.9292   -2.7132   -1.1664 C   0  0  0  0  0  0  0  0  0  0  0  0
    6.0125   -2.7560   -0.9802 H   0  0  0  0  0  0  0  0  0  0  0  0
    4.3066   -3.7053   -1.9399 C   0  0  0  0  0  0  0  0  0  0  0  0
    4.9038   -4.5234   -2.3695 H   0  0  0  0  0  0  0  0  0  0  0  0
    2.9204   -3.6534   -2.1655 C   0  0  0  0  0  0  0  0  0  0  0  0
    2.4329   -4.4251   -2.7795 H   0  0  0  0  0  0  0  0  0  0  0  0
    2.1558   -2.6183   -1.6153 C   0  0  0  0  0  0  0  0  0  0  0  0
    1.0730   -2.5742   -1.7999 H   0  0  0  0  0  0  0  0  0  0  0  0
    2.0538    1.9332    0.2463 C   0  0  0  0  0  0  0  0  0  0  0  0
    1.9409    2.0431    1.6560 C   0  0  0  0  0  0  0  0  0  0  0  0
    1.4609    3.2618    2.1753 C   0  0  0  0  0  0  0  0  0  0  0  0
    1.3576    3.3766    3.2650 H   0  0  0  0  0  0  0  0  0  0  0  0
    1.1587    4.3418    1.3388 C   0  0  0  0  0  0  0  0  0  0  0  0
    0.8054    5.2898    1.7713 H   0  0  0  0  0  0  0  0  0  0  0  0
    1.3259    4.2261   -0.0486 C   0  0  0  0  0  0  0  0  0  0  0  0
    1.1051    5.0876   -0.6938 H   0  0  0  0  0  0  0  0  0  0  0  0
    1.7620    3.0200   -0.6241 C   0  0  0  0  0  0  0  0  0  0  0  0
    1.8676    2.8467   -2.1364 C   0  0  0  0  0  0  0  0  0  0  0  0
    2.7599    2.2140   -2.3440 H   0  0  0  0  0  0  0  0  0  0  0  0
    2.0743    4.1574   -2.9034 C   0  0  0  0  0  0  0  0  0  0  0  0
    1.1779    4.8087   -2.8533 H   0  0  0  0  0  0  0  0  0  0  0  0
    2.2600    3.9468   -3.9750 H   0  0  0  0  0  0  0  0  0  0  0  0
    2.9370    4.7323   -2.5128 H   0  0  0  0  0  0  0  0  0  0  0  0
    0.6388    2.0834   -2.6700 C   0  0  0  0  0  0  0  0  0  0  0  0
    0.4543    1.1476   -2.1062 H   0  0  0  0  0  0  0  0  0  0  0  0
    0.7612    1.8305   -3.7425 H   0  0  0  0  0  0  0  0  0  0  0  0
   -0.2664    2.7175   -2.5732 H   0  0  0  0  0  0  0  0  0  0  0  0
    2.4117    0.9528    2.6125 C   0  0  0  0  0  0  0  0  0  0  0  0
    2.7591    0.0920    2.0079 H   0  0  0  0  0  0  0  0  0  0  0  0
    3.6229    1.4433    3.4281 C   0  0  0  0  0  0  0  0  0  0  0  0
    4.4432    1.7871    2.7670 H   0  0  0  0  0  0  0  0  0  0  0  0
    4.0149    0.6288    4.0703 H   0  0  0  0  0  0  0  0  0  0  0  0
    3.3508    2.2898    4.0908 H   0  0  0  0  0  0  0  0  0  0  0  0
    1.2892    0.4452    3.5307 C   0  0  0  0  0  0  0  0  0  0  0  0
    0.8881    1.2555    4.1731 H   0  0  0  0  0  0  0  0  0  0  0  0
    1.6663   -0.3530    4.2012 H   0  0  0  0  0  0  0  0  0  0  0  0
    0.4498    0.0228    2.9449 H   0  0  0  0  0  0  0  0  0  0  0  0
  1 12  1  0  0  0  0
  1  5  1  0  0  0  0
  2 12  1  0  0  0  0
  3 17  1  0  0  0  0
  3 29  1  0  0  0  0
  4  3  1  0  0  0  0
  5 13  1  1  0  0  0
  5  6  1  0  0  0  0
  6  8  2  0  0  0  0
  6  7  1  0  0  0  0
  8  9  1  0  0  0  0
 10 11  1  0  0  0  0
 10  8  1  0  0  0  0
 12 10  2  0  0  0  0
 13 15  1  0  0  0  0
 13 14  1  0  0  0  0
 16 13  1  0  0  0  0
 17  2  1  6  0  0  0
 18 19  1  0  0  0  0
 18 17  1  0  0  0  0
 19 20  1  0  0  0  0
 21 22  1  0  0  0  0
 21 19  2  0  0  0  0
 23 21  1  0  0  0  0
 24 23  1  0  0  0  0
 25 23  2  0  0  0  0
 25 27  1  0  0  0  0
 26 25  1  0  0  0  0
 27 18  2  0  0  0  0
 28 27  1  0  0  0  0
 29 30  1  0  0  0  0
 30 31  2  0  0  0  0
 30 48  1  0  0  0  0
 31 32  1  0  0  0  0
 33 34  1  0  0  0  0
 33 31  1  0  0  0  0
 35 33  2  0  0  0  0
 36 35  1  0  0  0  0
 37 35  1  0  0  0  0
 37 29  2  0  0  0  0
 38 37  1  0  0  0  0
 39 38  1  0  0  0  0
 40 41  1  0  0  0  0
 40 43  1  0  0  0  0
 40 38  1  0  0  0  0
 42 40  1  0  0  0  0
 44 47  1  0  0  0  0
 44 38  1  0  0  0  0
 44 45  1  0  0  0  0
 46 44  1  0  0  0  0
 48 50  1  0  0  0  0
 48 54  1  0  0  0  0
 49 48  1  0  0  0  0
 50 52  1  0  0  0  0
 50 53  1  0  0  0  0
 51 50  1  0  0  0  0
 54 55  1  0  0  0  0
 54 56  1  0  0  0  0
 57 54  1  0  0  0  0
M  END
