20
 OpenBabel05122313063D

 28 30  0  0  1  0  0  0  0  0999 V2000
    2.4378   -0.7912    1.8334 C   0  0  0  0  0  0  0  0  0  0  0  0
    2.7825   -1.5176    2.5726 H   0  0  0  0  0  0  0  0  0  0  0  0
    1.2486   -0.1287    1.9622 N   0  0  0  0  0  0  0  0  0  0  0  0
    0.2580   -0.4196    2.9931 C   0  0  0  0  0  0  0  0  0  0  0  0
   -0.3681    0.4709    3.1741 H   0  0  0  0  0  0  0  0  0  0  0  0
    0.7838   -0.7102    3.9197 H   0  0  0  0  0  0  0  0  0  0  0  0
   -0.3603   -1.2603    2.6060 H   0  0  0  0  0  0  0  0  0  0  0  0
    1.0199    0.6558    0.8775 C   0  0  2  0  0  3  0  0  0  0  0  0
    2.0983    0.5176    0.0504 N   0  0  0  0  0  0  0  0  0  0  0  0
    2.2893    1.0526   -1.2137 C   0  0  0  0  0  0  0  0  0  0  0  0
    1.4530    1.6360   -1.6198 H   0  0  0  0  0  0  0  0  0  0  0  0
    3.4458    0.7395   -1.8846 C   0  0  0  0  0  0  0  0  0  0  0  0
    3.5913    1.1534   -2.8914 H   0  0  0  0  0  0  0  0  0  0  0  0
    4.4176   -0.1417   -1.3153 C   0  0  0  0  0  0  0  0  0  0  0  0
    5.3294   -0.3804   -1.8809 H   0  0  0  0  0  0  0  0  0  0  0  0
    4.2004   -0.7150   -0.0781 C   0  0  0  0  0  0  0  0  0  0  0  0
    4.9089   -1.4232    0.3717 H   0  0  0  0  0  0  0  0  0  0  0  0
    3.0094   -0.3961    0.6252 C   0  0  0  0  0  0  0  0  0  0  0  0
   -0.1459    1.5324    0.6727 C   0  0  1  0  0  3  0  0  0  0  0  0
   -1.3467    0.9161    0.6379 N   0  0  0  0  0  2  0  0  0  0  0  0
   -2.4551    1.6556    0.4799 C   0  0  0  0  0  0  0  0  0  0  0  0
   -3.3886    1.0657    0.4060 H   0  0  0  0  0  0  0  0  0  0  0  0
   -2.4069    3.0529    0.3406 C   0  0  0  0  0  0  0  0  0  0  0  0
   -3.3379    3.6216    0.2035 H   0  0  0  0  0  0  0  0  0  0  0  0
   -1.1615    3.6933    0.3533 C   0  0  0  0  0  0  0  0  0  0  0  0
   -1.0883    4.7845    0.2323 H   0  0  0  0  0  0  0  0  0  0  0  0
   -0.0017    2.9234    0.5326 C   0  0  0  0  0  0  0  0  0  0  0  0
    0.9939    3.3891    0.5715 H   0  0  0  0  0  0  0  0  0  0  0  0
  1  3  1  0  0  0  0
  1  2  1  0  0  0  0
  3  4  1  0  0  0  0
  4  5  1  0  0  0  0
  4  6  1  0  0  0  0
  7  4  1  0  0  0  0
  8  9  1  1  0  0  0
  8  3  1  0  0  0  0
  9 18  1  0  0  0  0
 10  9  1  0  0  0  0
 11 10  1  0  0  0  0
 12 14  1  0  0  0  0
 12 10  2  0  0  0  0
 13 12  1  0  0  0  0
 14 16  2  0  0  0  0
 15 14  1  0  0  0  0
 16 17  1  0  0  0  0
 16 18  1  0  0  0  0
 18  1  2  0  0  0  0
 19 27  1  1  0  0  0
 19  8  1  0  0  0  0
 20 19  1  0  0  0  0
 21 20  1  0  0  0  0
 22 21  1  0  0  0  0
 23 25  1  0  0  0  0
 23 21  2  0  0  0  0
 24 23  1  0  0  0  0
 25 27  2  0  0  0  0
 26 25  1  0  0  0  0
 27 28  1  0  0  0  0
M  END
