1
 OpenBabel05122313063D

 34 34  0  0  1  0  0  0  0  0999 V2000
   -1.7856    0.9310   -0.1257 N   0  0  0  0  0  2  0  0  0  0  0  0
   -2.1958    2.1477   -0.2423 C   0  0  1  0  0  3  0  0  0  0  0  0
   -3.5350    2.4064   -0.2798 O   0  0  0  0  0  0  0  0  0  0  0  0
   -4.3001    1.2231   -0.1552 N   0  0  0  0  0  0  0  0  0  0  0  0
   -5.5661    1.4856   -0.1915 C   0  0  0  0  0  0  0  0  0  0  0  0
   -5.8815    2.5393   -0.3079 H   0  0  0  0  0  0  0  0  0  0  0  0
   -6.5941    0.4571   -0.0839 C   0  0  0  0  0  0  0  0  0  0  0  0
   -6.2923   -0.9361    0.0618 C   0  0  0  0  0  0  0  0  0  0  0  0
   -7.3646   -1.8408    0.1567 C   0  0  0  0  0  0  0  0  0  0  0  0
   -7.1322   -2.9121    0.2663 H   0  0  0  0  0  0  0  0  0  0  0  0
   -8.7090   -1.4366    0.1162 C   0  0  0  0  0  0  0  0  0  0  0  0
   -8.9808   -0.0627   -0.0305 C   0  0  0  0  0  0  0  0  0  0  0  0
  -10.0281    0.2776   -0.0692 H   0  0  0  0  0  0  0  0  0  0  0  0
   -7.9590    0.8894   -0.1306 C   0  0  0  0  0  0  0  0  0  0  0  0
   -8.3354    2.3452   -0.2864 C   0  0  0  0  0  0  0  0  0  0  0  0
   -9.4355    2.4611   -0.2996 H   0  0  0  0  0  0  0  0  0  0  0  0
   -7.9482    2.9704    0.5449 H   0  0  0  0  0  0  0  0  0  0  0  0
   -7.9469    2.7809   -1.2304 H   0  0  0  0  0  0  0  0  0  0  0  0
   -9.8312   -2.4325    0.2441 C   0  0  0  0  0  0  0  0  0  0  0  0
  -10.3200   -2.3508    1.2386 H   0  0  0  0  0  0  0  0  0  0  0  0
  -10.6198   -2.2536   -0.5148 H   0  0  0  0  0  0  0  0  0  0  0  0
   -9.4713   -3.4733    0.1333 H   0  0  0  0  0  0  0  0  0  0  0  0
   -4.8927   -1.4877    0.1162 C   0  0  0  0  0  0  0  0  0  0  0  0
   -4.9158   -2.5884    0.2270 H   0  0  0  0  0  0  0  0  0  0  0  0
   -4.3087   -1.2471   -0.7958 H   0  0  0  0  0  0  0  0  0  0  0  0
   -4.3062   -1.0705    0.9605 H   0  0  0  0  0  0  0  0  0  0  0  0
   -1.3718    3.3890   -0.3149 C   0  0  0  0  0  0  0  0  0  0  0  0
   -0.3308    3.0882   -0.5392 H   0  0  0  0  0  0  0  0  0  0  0  0
   -1.7527    3.9795   -1.1748 H   0  0  0  0  0  0  0  0  0  0  0  0
   -1.4516    4.2117    0.9807 C   0  0  0  0  0  0  0  0  0  0  0  0
   -1.0186    3.6322    1.8186 H   0  0  0  0  0  0  0  0  0  0  0  0
   -0.8653    5.1442    0.8676 H   0  0  0  0  0  0  0  0  0  0  0  0
   -2.4961    4.4867    1.2279 H   0  0  0  0  0  0  0  0  0  0  0  0
   -2.5732    0.2611   -0.0749 H   0  0  0  0  0  0  0  0  0  0  0  0
  1 34  1  0  0  0  0
  2  3  1  1  0  0  0
  2  1  1  0  0  0  0
  3  4  1  0  0  0  0
  5  4  2  0  0  0  0
  5  7  1  0  0  0  0
  6  5  1  0  0  0  0
  7  8  1  0  0  0  0
  8 23  1  0  0  0  0
  8  9  2  0  0  0  0
  9 10  1  0  0  0  0
 11  9  1  0  0  0  0
 11 19  1  0  0  0  0
 12 11  2  0  0  0  0
 13 12  1  0  0  0  0
 14  7  2  0  0  0  0
 14 12  1  0  0  0  0
 15 14  1  0  0  0  0
 15 17  1  0  0  0  0
 16 15  1  0  0  0  0
 18 15  1  0  0  0  0
 19 20  1  0  0  0  0
 21 19  1  0  0  0  0
 22 19  1  0  0  0  0
 23 24  1  0  0  0  0
 23 26  1  0  0  0  0
 25 23  1  0  0  0  0
 27  2  1  0  0  0  0
 27 30  1  0  0  0  0
 28 27  1  0  0  0  0
 29 27  1  0  0  0  0
 30 33  1  0  0  0  0
 30 31  1  0  0  0  0
 32 30  1  0  0  0  0
M  END
