2
 OpenBabel05122313063D

 55 57  0  0  0  0  0  0  0  0999 V2000
    1.1840   -0.6058   -0.0217 P   0  0  0  0  0  0  0  0  0  0  0  0
   -1.2160   -2.0802   -0.2372 N   0  0  0  0  0  2  0  0  0  0  0  0
   -3.2436   -0.2385    0.0571 N   0  0  0  0  0  0  0  0  0  0  0  0
   -2.5586   -2.6176   -0.1947 C   0  0  0  0  0  0  0  0  0  0  0  0
   -2.6048   -3.5908    0.3495 H   0  0  0  0  0  0  0  0  0  0  0  0
   -2.9620   -2.8273   -1.2188 H   0  0  0  0  0  0  0  0  0  0  0  0
   -3.4432   -1.6311    0.5523 C   0  0  0  0  0  0  0  0  0  0  0  0
   -4.5172   -1.9213    0.4994 H   0  0  0  0  0  0  0  0  0  0  0  0
   -3.1388   -1.6378    1.6139 H   0  0  0  0  0  0  0  0  0  0  0  0
   -0.1735   -2.8984   -0.6166 C   0  0  0  0  0  0  0  0  0  0  0  0
    1.1455   -2.3449   -0.6116 C   0  0  0  0  0  0  0  0  0  0  0  0
    2.2581   -3.1074   -0.9840 C   0  0  0  0  0  0  0  0  0  0  0  0
    3.2589   -2.6471   -0.9754 H   0  0  0  0  0  0  0  0  0  0  0  0
    2.1044   -4.4465   -1.3836 C   0  0  0  0  0  0  0  0  0  0  0  0
    2.9772   -5.0425   -1.6870 H   0  0  0  0  0  0  0  0  0  0  0  0
    0.8143   -5.0046   -1.3931 C   0  0  0  0  0  0  0  0  0  0  0  0
    0.6766   -6.0517   -1.7069 H   0  0  0  0  0  0  0  0  0  0  0  0
   -0.3106   -4.2569   -1.0194 C   0  0  0  0  0  0  0  0  0  0  0  0
   -1.3036   -4.7265   -1.0513 H   0  0  0  0  0  0  0  0  0  0  0  0
   -3.6632   -0.0907   -1.3740 C   0  0  0  0  0  0  0  0  0  0  0  0
   -2.9229   -0.6458   -1.9831 H   0  0  0  0  0  0  0  0  0  0  0  0
   -3.5210    0.9780   -1.6260 H   0  0  0  0  0  0  0  0  0  0  0  0
   -5.0855   -0.5293   -1.7269 C   0  0  0  0  0  0  0  0  0  0  0  0
   -5.2348   -1.6209   -1.6103 H   0  0  0  0  0  0  0  0  0  0  0  0
   -5.2783   -0.2865   -2.7908 H   0  0  0  0  0  0  0  0  0  0  0  0
   -5.8606   -0.0096   -1.1286 H   0  0  0  0  0  0  0  0  0  0  0  0
   -3.9591    0.7484    0.9131 C   0  0  0  0  0  0  0  0  0  0  0  0
   -5.0566    0.6613    0.7434 H   0  0  0  0  0  0  0  0  0  0  0  0
   -3.6585    1.7502    0.5445 H   0  0  0  0  0  0  0  0  0  0  0  0
   -3.6601    0.6299    2.4039 C   0  0  0  0  0  0  0  0  0  0  0  0
   -4.1933   -0.2150    2.8815 H   0  0  0  0  0  0  0  0  0  0  0  0
   -3.9822    1.5566    2.9179 H   0  0  0  0  0  0  0  0  0  0  0  0
   -2.5709    0.5005    2.5697 H   0  0  0  0  0  0  0  0  0  0  0  0
    2.0452   -0.7442    1.6103 C   0  0  0  0  0  0  0  0  0  0  0  0
    1.2586   -0.6695    2.7775 C   0  0  0  0  0  0  0  0  0  0  0  0
    0.1825   -0.4567    2.6609 H   0  0  0  0  0  0  0  0  0  0  0  0
    1.8405   -0.8655    4.0390 C   0  0  0  0  0  0  0  0  0  0  0  0
    1.2174   -0.8041    4.9445 H   0  0  0  0  0  0  0  0  0  0  0  0
    3.2139   -1.1355    4.1465 C   0  0  0  0  0  0  0  0  0  0  0  0
    3.6725   -1.2849    5.1360 H   0  0  0  0  0  0  0  0  0  0  0  0
    4.0024   -1.2173    2.9867 C   0  0  0  0  0  0  0  0  0  0  0  0
    5.0789   -1.4339    3.0656 H   0  0  0  0  0  0  0  0  0  0  0  0
    3.4222   -1.0277    1.7238 C   0  0  0  0  0  0  0  0  0  0  0  0
    4.0480   -1.1005    0.8216 H   0  0  0  0  0  0  0  0  0  0  0  0
    2.4114    0.2165   -1.1234 C   0  0  0  0  0  0  0  0  0  0  0  0
    3.3216    1.1861   -0.6536 C   0  0  0  0  0  0  0  0  0  0  0  0
    3.4000    1.3897    0.4244 H   0  0  0  0  0  0  0  0  0  0  0  0
    4.1262    1.8990   -1.5567 C   0  0  0  0  0  0  0  0  0  0  0  0
    4.8310    2.6552   -1.1784 H   0  0  0  0  0  0  0  0  0  0  0  0
    4.0322    1.6498   -2.9346 C   0  0  0  0  0  0  0  0  0  0  0  0
    4.6618    2.2112   -3.6416 H   0  0  0  0  0  0  0  0  0  0  0  0
    3.1339    0.6782   -3.4079 C   0  0  0  0  0  0  0  0  0  0  0  0
    3.0592    0.4753   -4.4872 H   0  0  0  0  0  0  0  0  0  0  0  0
    2.3271   -0.0332   -2.5099 C   0  0  0  0  0  0  0  0  0  0  0  0
    1.6153   -0.7873   -2.8792 H   0  0  0  0  0  0  0  0  0  0  0  0
  1 34  1  0  0  0  0
  2  4  1  0  0  0  0
  3  7  1  0  0  0  0
  3 27  1  0  0  0  0
  4  5  1  0  0  0  0
  4  7  1  0  0  0  0
  6  4  1  0  0  0  0
  7  9  1  0  0  0  0
  8  7  1  0  0  0  0
 10 11  1  0  0  0  0
 10  2  1  0  0  0  0
 11  1  1  0  0  0  0
 12 13  1  0  0  0  0
 12 11  2  0  0  0  0
 14 12  1  0  0  0  0
 15 14  1  0  0  0  0
 16 14  2  0  0  0  0
 16 18  1  0  0  0  0
 17 16  1  0  0  0  0
 18 10  2  0  0  0  0
 19 18  1  0  0  0  0
 20  3  1  0  0  0  0
 21 20  1  0  0  0  0
 22 20  1  0  0  0  0
 23 24  1  0  0  0  0
 23 20  1  0  0  0  0
 23 26  1  0  0  0  0
 25 23  1  0  0  0  0
 27 30  1  0  0  0  0
 28 27  1  0  0  0  0
 29 27  1  0  0  0  0
 30 33  1  0  0  0  0
 30 31  1  0  0  0  0
 30 32  1  0  0  0  0
 34 43  2  0  0  0  0
 34 35  1  0  0  0  0
 35 37  2  0  0  0  0
 36 35  1  0  0  0  0
 37 39  1  0  0  0  0
 37 38  1  0  0  0  0
 39 40  1  0  0  0  0
 41 42  1  0  0  0  0
 41 39  2  0  0  0  0
 43 41  1  0  0  0  0
 44 43  1  0  0  0  0
 45 46  1  0  0  0  0
 45  1  1  0  0  0  0
 46 47  1  0  0  0  0
 48 49  1  0  0  0  0
 48 46  2  0  0  0  0
 50 48  1  0  0  0  0
 51 50  1  0  0  0  0
 52 50  2  0  0  0  0
 52 54  1  0  0  0  0
 53 52  1  0  0  0  0
 54 45  2  0  0  0  0
 55 54  1  0  0  0  0
M  END
