1
 OpenBabel05122313063D

 20 20  0  0  0  0  0  0  0  0999 V2000
    1.2619   -1.3377    1.1259 N   0  0  0  0  0  0  0  0  0  0  0  0
    0.5201   -2.0010   -1.5995 N   0  0  0  0  0  0  0  0  0  0  0  0
    2.0817   -1.1422    2.2278 C   0  0  0  0  0  3  0  0  0  0  0  0
    1.9470   -0.2635    2.8706 H   0  0  0  0  0  0  0  0  0  0  0  0
    3.0141   -2.1723    2.3200 C   0  0  0  0  0  0  0  0  0  0  0  0
    3.7893   -2.2811    3.0883 H   0  0  0  0  0  0  0  0  0  0  0  0
    2.7609   -3.0546    1.2221 C   0  0  0  0  0  0  0  0  0  0  0  0
    3.2886   -3.9866    0.9837 H   0  0  0  0  0  0  0  0  0  0  0  0
    1.6823   -2.5182    0.5202 C   0  0  0  0  0  0  0  0  0  0  0  0
    0.8915   -3.0610   -0.6227 C   0  0  0  0  0  0  0  0  0  0  0  0
    1.4503   -3.8813   -1.1334 H   0  0  0  0  0  0  0  0  0  0  0  0
   -0.0625   -3.5034   -0.2661 H   0  0  0  0  0  0  0  0  0  0  0  0
   -0.5948   -2.4784   -2.4311 C   0  0  0  0  0  0  0  0  0  0  0  0
   -1.4989   -2.6193   -1.8074 H   0  0  0  0  0  0  0  0  0  0  0  0
   -0.3401   -3.4452   -2.9284 H   0  0  0  0  0  0  0  0  0  0  0  0
   -0.8119   -1.7409   -3.2254 H   0  0  0  0  0  0  0  0  0  0  0  0
    1.6772   -1.7001   -2.4545 C   0  0  0  0  0  0  0  0  0  0  0  0
    2.5331   -1.3913   -1.8290 H   0  0  0  0  0  0  0  0  0  0  0  0
    1.4339   -0.8783   -3.1526 H   0  0  0  0  0  0  0  0  0  0  0  0
    1.9757   -2.5960   -3.0516 H   0  0  0  0  0  0  0  0  0  0  0  0
  1  3  1  0  0  0  0
  2 10  1  0  0  0  0
  3  5  1  0  0  0  0
  3  4  1  0  0  0  0
  5  6  1  0  0  0  0
  7  5  2  0  0  0  0
  8  7  1  0  0  0  0
  9  1  2  0  0  0  0
  9  7  1  0  0  0  0
 10 12  1  0  0  0  0
 10  9  1  0  0  0  0
 11 10  1  0  0  0  0
 13 14  1  0  0  0  0
 13  2  1  0  0  0  0
 15 13  1  0  0  0  0
 16 13  1  0  0  0  0
 17 18  1  0  0  0  0
 17  2  1  0  0  0  0
 19 17  1  0  0  0  0
 20 17  1  0  0  0  0
M  END
