7
 OpenBabel05122313063D

 14 15  0  0  1  0  0  0  0  0999 V2000
   -4.0084    1.3741    0.3181 N   0  0  0  0  0  0  0  0  0  0  0  0
   -1.6043    1.4119    0.5250 N   0  0  0  0  0  2  0  0  0  0  0  0
   -5.1974   -0.4204   -0.5685 N   0  0  0  0  0  0  0  0  0  0  0  0
   -6.0564    0.1099   -0.4240 H   0  0  0  0  0  0  0  0  0  0  0  0
   -5.2231   -1.3449   -0.9960 H   0  0  0  0  0  0  0  0  0  0  0  0
   -2.4291   -1.7628   -0.9521 N   0  0  0  0  0  0  0  0  0  0  0  0
   -0.5446   -0.6442   -0.3016 N   0  0  0  0  0  0  0  0  0  0  0  0
   -2.8479    1.9350    0.6568 C   0  0  0  0  0  0  0  0  0  0  0  0
   -2.9013    2.9469    1.0959 H   0  0  0  0  0  0  0  0  0  0  0  0
   -1.6225    0.1636   -0.0201 C   0  0  0  0  0  0  0  0  0  0  0  0
   -2.7761   -0.5400   -0.4229 C   0  0  0  0  0  3  0  0  0  0  0  0
   -4.0185    0.1305   -0.2288 C   0  0  1  0  0  3  0  0  0  0  0  0
   -1.1022   -1.7812   -0.8722 C   0  0  0  0  0  0  0  0  0  0  0  0
   -0.4676   -2.5887   -1.2636 H   0  0  0  0  0  0  0  0  0  0  0  0
  1  8  2  0  0  0  0
  2  8  1  0  0  0  0
  3  4  1  0  0  0  0
  5  3  1  0  0  0  0
  6 13  2  0  0  0  0
  6 11  1  0  0  0  0
  7 10  2  0  0  0  0
  8  9  1  0  0  0  0
 10  2  1  0  0  0  0
 11 12  1  0  0  0  0
 11 10  1  0  0  0  0
 12  3  1  6  0  0  0
 12  1  1  0  0  0  0
 13  7  1  0  0  0  0
 14 13  1  0  0  0  0
M  END
