1
 OpenBabel05122313063D

 21 21  0  0  0  0  0  0  0  0999 V2000
   -0.2183    0.1772   -1.7764 N   0  0  0  0  0  0  0  0  0  0  0  0
   -1.2588    0.7720   -1.0833 C   0  0  0  0  0  3  0  0  0  0  0  0
   -0.0882   -1.1117   -1.2913 C   0  0  0  0  0  0  0  0  0  0  0  0
   -1.7649   -0.1217   -0.0914 C   0  0  0  0  0  0  0  0  0  0  0  0
   -1.0199   -1.3386   -0.2326 C   0  0  0  0  0  0  0  0  0  0  0  0
   -1.8267    2.0821   -1.5241 C   0  0  0  0  0  0  0  0  0  0  0  0
   -1.0662    2.6637   -2.0763 H   0  0  0  0  0  0  0  0  0  0  0  0
   -2.1982    2.6900   -0.6777 H   0  0  0  0  0  0  0  0  0  0  0  0
   -2.6802    1.9046   -2.2123 H   0  0  0  0  0  0  0  0  0  0  0  0
    0.8790   -2.0802   -1.8975 C   0  0  0  0  0  0  0  0  0  0  0  0
    1.6752   -1.5317   -2.4322 H   0  0  0  0  0  0  0  0  0  0  0  0
    0.3551   -2.7353   -2.6261 H   0  0  0  0  0  0  0  0  0  0  0  0
    1.3496   -2.7314   -1.1358 H   0  0  0  0  0  0  0  0  0  0  0  0
   -1.2185   -2.5895    0.5601 C   0  0  0  0  0  0  0  0  0  0  0  0
   -2.1557   -3.0995    0.2511 H   0  0  0  0  0  0  0  0  0  0  0  0
   -1.2949   -2.3675    1.6429 H   0  0  0  0  0  0  0  0  0  0  0  0
   -0.3838   -3.3010    0.4156 H   0  0  0  0  0  0  0  0  0  0  0  0
   -2.8423    0.1336    0.9127 C   0  0  0  0  0  0  0  0  0  0  0  0
   -2.4889   -0.1078    1.9360 H   0  0  0  0  0  0  0  0  0  0  0  0
   -3.7330   -0.4979    0.7104 H   0  0  0  0  0  0  0  0  0  0  0  0
   -3.1681    1.1907    0.9024 H   0  0  0  0  0  0  0  0  0  0  0  0
  1  3  2  0  0  0  0
  1  2  1  0  0  0  0
  2  4  1  0  0  0  0
  3  5  1  0  0  0  0
  4 18  1  0  0  0  0
  5  4  2  0  0  0  0
  5 14  1  0  0  0  0
  6  2  1  0  0  0  0
  6  8  1  0  0  0  0
  7  6  1  0  0  0  0
  9  6  1  0  0  0  0
 10  3  1  0  0  0  0
 10 13  1  0  0  0  0
 11 10  1  0  0  0  0
 12 10  1  0  0  0  0
 14 16  1  0  0  0  0
 15 14  1  0  0  0  0
 17 14  1  0  0  0  0
 18 19  1  0  0  0  0
 20 18  1  0  0  0  0
 21 18  1  0  0  0  0
M  END
