1
 OpenBabel05122313063D

 15 15  0  0  1  0  0  0  0  0999 V2000
    0.2797    1.3705    0.2765 N   0  0  0  0  0  2  0  0  0  0  0  0
    0.9561    2.1409   -0.6288 C   0  0  2  0  0  3  0  0  0  0  0  0
    1.4568    3.4138   -0.2671 C   0  0  0  0  0  0  0  0  0  0  0  0
    1.9657    4.0144   -1.0333 H   0  0  0  0  0  0  0  0  0  0  0  0
    1.2696    3.9099    1.0224 C   0  0  0  0  0  0  0  0  0  0  0  0
    1.6548    4.9015    1.3046 H   0  0  0  0  0  0  0  0  0  0  0  0
    0.5567    3.1206    1.9346 C   0  0  0  0  0  0  0  0  0  0  0  0
    0.3543    3.4568    2.9612 H   0  0  0  0  0  0  0  0  0  0  0  0
    0.0871    1.8724    1.5188 C   0  0  0  0  0  0  0  0  0  0  0  0
   -0.4711    1.2377    2.2215 H   0  0  0  0  0  0  0  0  0  0  0  0
    1.1255    1.6492   -2.0026 C   0  0  0  0  0  0  0  0  0  0  0  0
    0.3460    0.9714   -2.3737 H   0  0  0  0  0  0  0  0  0  0  0  0
    2.1582    1.9650   -2.8107 C   0  0  0  0  0  0  0  0  0  0  0  0
    2.9973    2.5987   -2.4799 H   0  0  0  0  0  0  0  0  0  0  0  0
    2.2086    1.5596   -3.8321 H   0  0  0  0  0  0  0  0  0  0  0  0
  1  9  1  0  0  0  0
  2 11  1  6  0  0  0
  2  3  1  0  0  0  0
  2  1  1  0  0  0  0
  3  5  2  0  0  0  0
  4  3  1  0  0  0  0
  5  6  1  0  0  0  0
  5  7  1  0  0  0  0
  7  8  1  0  0  0  0
  9  7  2  0  0  0  0
  9 10  1  0  0  0  0
 12 11  1  0  0  0  0
 13 14  1  0  0  0  0
 13 11  2  0  0  0  0
 15 13  1  0  0  0  0
M  END
