2
 OpenBabel05122313063D

 25 26  0  0  0  0  0  0  0  0999 V2000
    1.2176   -3.7758   -0.3088 O   0  0  0  0  0  0  0  0  0  0  0  0
   -1.0214   -1.7870   -1.2052 N   0  0  0  0  0  2  0  0  0  0  0  0
   -0.0494   -2.5490   -2.0064 C   0  0  0  0  0  0  0  0  0  0  0  0
    0.2002   -1.9122   -2.8780 H   0  0  0  0  0  0  0  0  0  0  0  0
   -0.5021   -3.5050   -2.3528 H   0  0  0  0  0  0  0  0  0  0  0  0
   -2.2335   -2.2444   -1.1091 C   0  0  0  0  0  3  0  0  0  0  0  0
   -2.4754   -3.2331   -1.5533 H   0  0  0  0  0  0  0  0  0  0  0  0
   -3.3035   -1.5456   -0.4047 C   0  0  0  0  0  0  0  0  0  0  0  0
   -4.4108   -2.2774    0.0861 C   0  0  0  0  0  0  0  0  0  0  0  0
   -4.4770   -3.3584   -0.1156 H   0  0  0  0  0  0  0  0  0  0  0  0
   -5.3998   -1.6412    0.8460 C   0  0  0  0  0  0  0  0  0  0  0  0
   -6.2500   -2.2208    1.2360 H   0  0  0  0  0  0  0  0  0  0  0  0
   -5.3065   -0.2620    1.1074 C   0  0  0  0  0  0  0  0  0  0  0  0
   -6.0884    0.2382    1.6991 H   0  0  0  0  0  0  0  0  0  0  0  0
   -4.2326    0.4823    0.5903 C   0  0  0  0  0  0  0  0  0  0  0  0
   -4.1685    1.5684    0.7529 H   0  0  0  0  0  0  0  0  0  0  0  0
   -3.2360   -0.1522   -0.1630 C   0  0  0  0  0  0  0  0  0  0  0  0
   -2.4237    0.4401   -0.6157 H   0  0  0  0  0  0  0  0  0  0  0  0
    1.2272   -2.7999   -1.2810 C   0  0  0  0  0  0  0  0  0  0  0  0
    2.4927   -2.2653   -1.3943 C   0  0  0  0  0  0  0  0  0  0  0  0
    2.7851   -1.4562   -2.0768 H   0  0  0  0  0  0  0  0  0  0  0  0
    3.3073   -2.9516   -0.4320 C   0  0  0  0  0  0  0  0  0  0  0  0
    4.3715   -2.7878   -0.2297 H   0  0  0  0  0  0  0  0  0  0  0  0
    2.4840   -3.8557    0.1986 C   0  0  0  0  0  0  0  0  0  0  0  0
    2.6360   -4.5975    0.9892 H   0  0  0  0  0  0  0  0  0  0  0  0
  1 24  1  0  0  0  0
  2  6  1  0  0  0  0
  3 19  1  0  0  0  0
  3  2  1  0  0  0  0
  4  3  1  0  0  0  0
  5  3  1  0  0  0  0
  6  8  1  0  0  0  0
  7  6  1  0  0  0  0
  8 17  2  0  0  0  0
  8  9  1  0  0  0  0
  9 11  2  0  0  0  0
 10  9  1  0  0  0  0
 11 13  1  0  0  0  0
 11 12  1  0  0  0  0
 13 14  1  0  0  0  0
 15 16  1  0  0  0  0
 15 13  2  0  0  0  0
 17 15  1  0  0  0  0
 18 17  1  0  0  0  0
 19  1  1  0  0  0  0
 20 19  2  0  0  0  0
 20 22  1  0  0  0  0
 21 20  1  0  0  0  0
 22 23  1  0  0  0  0
 22 24  2  0  0  0  0
 24 25  1  0  0  0  0
M  END
