4
 OpenBabel05122313063D

 12 12  0  0  1  0  0  0  0  0999 V2000
   -2.9609    0.7646   -1.3987 N   0  0  0  0  0  0  0  0  0  0  0  0
   -3.9654   -1.1168   -1.9916 N   0  0  0  0  0  0  0  0  0  0  0  0
   -4.6923   -1.7974   -2.2087 H   0  0  0  0  0  0  0  0  0  0  0  0
   -2.0056   -0.2315   -1.5307 N   0  0  0  0  0  2  0  0  0  0  0  0
   -2.6084   -1.3674   -1.8995 C   0  0  2  0  0  3  0  0  0  0  0  0
   -2.0152   -2.5442   -2.2276 N   0  0  0  0  0  0  0  0  0  0  0  0
   -1.0395   -2.5773   -1.8199 H   0  0  0  0  0  0  0  0  0  0  0  0
   -2.5180   -3.3782   -1.9064 H   0  0  0  0  0  0  0  0  0  0  0  0
   -4.1255    0.2150   -1.6525 C   0  0  0  0  0  0  0  0  0  0  0  0
   -5.3686    0.8032   -1.4374 N   0  0  0  0  0  0  0  0  0  0  0  0
   -5.2322    1.7810   -1.1568 H   0  0  0  0  0  0  0  0  0  0  0  0
   -6.0006    0.7613   -2.2456 H   0  0  0  0  0  0  0  0  0  0  0  0
  2  5  1  0  0  0  0
  2  9  1  0  0  0  0
  3  2  1  0  0  0  0
  4  1  1  0  0  0  0
  5  6  1  6  0  0  0
  5  4  1  0  0  0  0
  6  8  1  0  0  0  0
  6  7  1  0  0  0  0
  9 10  1  0  0  0  0
  9  1  2  0  0  0  0
 10 11  1  0  0  0  0
 12 10  1  0  0  0  0
M  END
