1
 OpenBabel05122313063D

 30 32  0  0  0  0  0  0  0  0999 V2000
   -1.8331   -2.2647   -0.1279 N   0  0  0  0  0  0  0  0  0  0  0  0
   -1.8364   -2.4744   -1.1391 H   0  0  0  0  0  0  0  0  0  0  0  0
   -2.0053   -3.1415    0.3826 H   0  0  0  0  0  0  0  0  0  0  0  0
   -5.1771   -0.5096   -0.3753 N   0  0  0  0  0  0  0  0  0  0  0  0
   -6.2583   -0.4254    0.5009 C   0  0  0  0  0  0  0  0  0  0  0  0
   -6.6943   -1.3359    1.4777 C   0  0  0  0  0  0  0  0  0  0  0  0
   -6.1633   -2.2809    1.6654 H   0  0  0  0  0  0  0  0  0  0  0  0
   -7.8346   -1.0002    2.2219 C   0  0  0  0  0  0  0  0  0  0  0  0
   -8.1948   -1.6969    2.9938 H   0  0  0  0  0  0  0  0  0  0  0  0
   -8.5243    0.2132    2.0040 C   0  0  0  0  0  0  0  0  0  0  0  0
   -9.4140    0.4462    2.6075 H   0  0  0  0  0  0  0  0  0  0  0  0
   -8.0840    1.1210    1.0320 C   0  0  0  0  0  0  0  0  0  0  0  0
   -8.6208    2.0673    0.8656 H   0  0  0  0  0  0  0  0  0  0  0  0
   -6.9434    0.8106    0.2694 C   0  0  0  0  0  0  0  0  0  0  0  0
   -6.2218    1.4958   -0.7873 C   0  0  0  0  0  0  0  0  0  0  0  0
   -6.3907    2.7270   -1.4470 C   0  0  0  0  0  0  0  0  0  0  0  0
   -7.2271    3.3906   -1.1800 H   0  0  0  0  0  0  0  0  0  0  0  0
   -5.4773    3.0953   -2.4434 C   0  0  0  0  0  0  0  0  0  0  0  0
   -5.5957    4.0571   -2.9641 H   0  0  0  0  0  0  0  0  0  0  0  0
   -4.3962    2.2509   -2.7813 C   0  0  0  0  0  0  0  0  0  0  0  0
   -3.6807    2.5681   -3.5547 H   0  0  0  0  0  0  0  0  0  0  0  0
   -4.2010    1.0171   -2.1438 C   0  0  0  0  0  0  0  0  0  0  0  0
   -3.3325    0.3916   -2.4002 H   0  0  0  0  0  0  0  0  0  0  0  0
   -5.1281    0.6496   -1.1527 C   0  0  0  0  0  0  0  0  0  0  0  0
   -4.2315   -1.5935   -0.4724 C   0  0  0  0  0  0  0  0  0  0  0  0
   -4.0707   -1.8296   -1.5492 H   0  0  0  0  0  0  0  0  0  0  0  0
   -4.6780   -2.4987   -0.0116 H   0  0  0  0  0  0  0  0  0  0  0  0
   -2.8760   -1.2579    0.1642 C   0  0  0  0  0  0  0  0  0  0  0  0
   -2.5206   -0.2893   -0.2429 H   0  0  0  0  0  0  0  0  0  0  0  0
   -2.9516   -1.1363    1.2624 H   0  0  0  0  0  0  0  0  0  0  0  0
  1 28  1  0  0  0  0
  1  3  1  0  0  0  0
  2  1  1  0  0  0  0
  4  5  1  0  0  0  0
  5  6  1  0  0  0  0
  6  7  1  0  0  0  0
  6  8  2  0  0  0  0
  8  9  1  0  0  0  0
 10  8  1  0  0  0  0
 10 11  1  0  0  0  0
 12 10  2  0  0  0  0
 13 12  1  0  0  0  0
 14  5  2  0  0  0  0
 14 12  1  0  0  0  0
 15 14  1  0  0  0  0
 16 17  1  0  0  0  0
 16 15  2  0  0  0  0
 18 16  1  0  0  0  0
 19 18  1  0  0  0  0
 20 18  2  0  0  0  0
 20 22  1  0  0  0  0
 21 20  1  0  0  0  0
 22 24  2  0  0  0  0
 23 22  1  0  0  0  0
 24 15  1  0  0  0  0
 24  4  1  0  0  0  0
 25  4  1  0  0  0  0
 25 27  1  0  0  0  0
 25 28  1  0  0  0  0
 26 25  1  0  0  0  0
 28 30  1  0  0  0  0
 29 28  1  0  0  0  0
M  END
