1
 OpenBabel05122313063D

 19 20  0  0  1  0  0  0  0  0999 V2000
   -1.9002   -0.6884   -0.3177 N   0  0  0  0  0  2  0  0  0  0  0  0
   -4.4632   -1.6712   -0.9566 N   0  0  0  0  0  0  0  0  0  0  0  0
   -3.0177   -0.0303    0.1487 C   0  0  1  0  0  3  0  0  0  0  0  0
   -4.3215   -0.5561   -0.1885 C   0  0  0  0  0  0  0  0  0  0  0  0
   -5.5045    0.1029    0.2930 C   0  0  0  0  0  0  0  0  0  0  0  0
   -5.3449    1.2422    1.0756 C   0  0  0  0  0  0  0  0  0  0  0  0
   -6.2402    1.7611    1.4522 H   0  0  0  0  0  0  0  0  0  0  0  0
   -4.0595    1.7535    1.3979 C   0  0  0  0  0  0  0  0  0  0  0  0
   -3.9777    2.6636    2.0109 H   0  0  0  0  0  0  0  0  0  0  0  0
   -2.9029    1.1342    0.9503 C   0  0  0  0  0  0  0  0  0  0  0  0
   -1.9050    1.5473    1.1674 H   0  0  0  0  0  0  0  0  0  0  0  0
   -2.0583   -1.7879   -1.0571 C   0  0  0  0  0  0  0  0  0  0  0  0
   -1.1379   -2.3173   -1.3526 H   0  0  0  0  0  0  0  0  0  0  0  0
   -3.3572   -2.2650   -1.3734 C   0  0  0  0  0  0  0  0  0  0  0  0
   -3.4581   -3.1734   -1.9924 H   0  0  0  0  0  0  0  0  0  0  0  0
   -6.8529   -0.4554   -0.0620 C   0  0  0  0  0  0  0  0  0  0  0  0
   -6.9580   -1.4985    0.2988 H   0  0  0  0  0  0  0  0  0  0  0  0
   -6.9854   -0.5035   -1.1617 H   0  0  0  0  0  0  0  0  0  0  0  0
   -7.6658    0.1571    0.3712 H   0  0  0  0  0  0  0  0  0  0  0  0
  2  4  2  0  0  0  0
  3  1  1  1  0  0  0
  3 10  1  0  0  0  0
  4  3  1  0  0  0  0
  4  5  1  0  0  0  0
  5  6  2  0  0  0  0
  6  8  1  0  0  0  0
  6  7  1  0  0  0  0
  8  9  1  0  0  0  0
 10 11  1  0  0  0  0
 10  8  2  0  0  0  0
 12  1  1  0  0  0  0
 13 12  1  0  0  0  0
 14 12  2  0  0  0  0
 14  2  1  0  0  0  0
 15 14  1  0  0  0  0
 16  5  1  0  0  0  0
 16 17  1  0  0  0  0
 16 19  1  0  0  0  0
 18 16  1  0  0  0  0
M  END
