1
 OpenBabel05122313063D

 22 23  0  0  1  0  0  0  0  0999 V2000
    0.8476    1.4144   -0.5857 N   0  0  0  0  0  2  0  0  0  0  0  0
   -0.3973    1.1773   -1.0365 C   0  0  1  0  0  3  0  0  0  0  0  0
   -0.9271    0.0741   -1.5687 N   0  0  0  0  0  0  0  0  0  0  0  0
   -2.2330    0.0937   -1.8341 C   0  0  0  0  0  0  0  0  0  0  0  0
   -3.0760    1.2443   -1.5971 C   0  0  0  0  0  0  0  0  0  0  0  0
   -2.5003    2.3938   -1.0478 C   0  0  0  0  0  0  0  0  0  0  0  0
   -1.1568    2.3195   -0.7735 N   0  0  0  0  0  0  0  0  0  0  0  0
   -0.4054    3.2707   -0.1657 N   0  0  0  0  0  0  0  0  0  0  0  0
    0.7867    2.6707   -0.0695 C   0  0  0  0  0  0  0  0  0  0  0  0
    1.6513    3.1295    0.4295 H   0  0  0  0  0  0  0  0  0  0  0  0
   -2.8208   -1.1728   -2.3924 C   0  0  0  0  0  0  0  0  0  0  0  0
   -2.0387   -1.9523   -2.4251 H   0  0  0  0  0  0  0  0  0  0  0  0
   -3.2154   -1.0178   -3.4186 H   0  0  0  0  0  0  0  0  0  0  0  0
   -3.6725   -1.5299   -1.7771 H   0  0  0  0  0  0  0  0  0  0  0  0
   -4.5410    1.1590   -1.9332 C   0  0  0  0  0  0  0  0  0  0  0  0
   -5.0777    2.1066   -1.7517 H   0  0  0  0  0  0  0  0  0  0  0  0
   -5.0429    0.3700   -1.3341 H   0  0  0  0  0  0  0  0  0  0  0  0
   -4.6932    0.8876   -2.9978 H   0  0  0  0  0  0  0  0  0  0  0  0
   -3.1565    3.6869   -0.6943 C   0  0  0  0  0  0  0  0  0  0  0  0
   -2.6338    4.5251   -1.1979 H   0  0  0  0  0  0  0  0  0  0  0  0
   -3.0485    3.8792    0.3930 H   0  0  0  0  0  0  0  0  0  0  0  0
   -4.2246    3.7038   -0.9655 H   0  0  0  0  0  0  0  0  0  0  0  0
  1  9  1  0  0  0  0
  2  3  1  1  0  0  0
  2  7  1  0  0  0  0
  2  1  1  0  0  0  0
  4  5  1  0  0  0  0
  4  3  2  0  0  0  0
  5  6  2  0  0  0  0
  6  7  1  0  0  0  0
  6 19  1  0  0  0  0
  7  8  1  0  0  0  0
  8  9  2  0  0  0  0
  9 10  1  0  0  0  0
 11  4  1  0  0  0  0
 11 14  1  0  0  0  0
 12 11  1  0  0  0  0
 13 11  1  0  0  0  0
 15 16  1  0  0  0  0
 15  5  1  0  0  0  0
 15 17  1  0  0  0  0
 18 15  1  0  0  0  0
 19 21  1  0  0  0  0
 20 19  1  0  0  0  0
 22 19  1  0  0  0  0
M  END
