2
 OpenBabel05122313063D

 17 17  0  0  0  0  0  0  0  0999 V2000
   -6.4344   -0.2583    0.7058 O   0  0  0  0  0  0  0  0  0  0  0  0
   -0.8261   -0.2563    0.9198 N   0  0  0  0  0  2  0  0  0  0  0  0
   -0.5752   -0.0858    1.9017 H   0  0  0  0  0  0  0  0  0  0  0  0
   -2.2222   -0.2632    0.8262 C   0  0  0  0  0  0  0  0  0  0  0  0
   -2.8919   -0.0551   -0.3993 C   0  0  0  0  0  0  0  0  0  0  0  0
   -2.2970    0.1124   -1.3060 H   0  0  0  0  0  0  0  0  0  0  0  0
   -4.2910   -0.0467   -0.4806 C   0  0  0  0  0  0  0  0  0  0  0  0
   -4.7630    0.1259   -1.4572 H   0  0  0  0  0  0  0  0  0  0  0  0
   -5.0703   -0.2462    0.6768 C   0  0  0  0  0  0  0  0  0  0  0  0
   -4.4175   -0.4421    1.9135 C   0  0  0  0  0  0  0  0  0  0  0  0
   -5.0342   -0.5895    2.8120 H   0  0  0  0  0  0  0  0  0  0  0  0
   -3.0252   -0.4459    1.9833 C   0  0  0  0  0  0  0  0  0  0  0  0
   -2.5314   -0.6022    2.9562 H   0  0  0  0  0  0  0  0  0  0  0  0
   -7.1271   -0.0574   -0.5089 C   0  0  0  0  0  0  0  0  0  0  0  0
   -8.2057   -0.1061   -0.2689 H   0  0  0  0  0  0  0  0  0  0  0  0
   -6.8891   -0.8449   -1.2602 H   0  0  0  0  0  0  0  0  0  0  0  0
   -6.9024    0.9367   -0.9583 H   0  0  0  0  0  0  0  0  0  0  0  0
  2  3  1  0  0  0  0
  4  2  1  0  0  0  0
  4 12  1  0  0  0  0
  5  4  2  0  0  0  0
  6  5  1  0  0  0  0
  7  5  1  0  0  0  0
  7  9  2  0  0  0  0
  8  7  1  0  0  0  0
  9  1  1  0  0  0  0
  9 10  1  0  0  0  0
 10 12  2  0  0  0  0
 10 11  1  0  0  0  0
 12 13  1  0  0  0  0
 14 15  1  0  0  0  0
 14  1  1  0  0  0  0
 16 14  1  0  0  0  0
 17 14  1  0  0  0  0
M  END
