1
 OpenBabel05122313063D

 14 14  0  0  1  0  0  0  0  0999 V2000
    2.0750    0.4496   -0.8597 N   0  0  0  0  0  0  0  0  0  0  0  0
    1.5024    1.3048   -0.9580 H   0  0  0  0  0  0  0  0  0  0  0  0
    2.9163    0.2500   -2.0680 C   0  0  0  0  0  0  0  0  0  0  0  0
    3.1052   -0.7990   -2.3413 H   0  0  0  0  0  0  0  0  0  0  0  0
    2.7119    0.9290   -2.9115 H   0  0  0  0  0  0  0  0  0  0  0  0
    3.5244    0.8102   -0.8339 C   0  0  1  0  0  0  0  0  0  0  0  0
    4.1190    0.1139   -0.2184 H   0  0  0  0  0  0  0  0  0  0  0  0
    3.8978    2.2678   -0.7023 C   0  0  0  0  0  0  0  0  0  0  0  0
    4.9166    2.3912   -1.1282 H   0  0  0  0  0  0  0  0  0  0  0  0
    3.2225    2.8756   -1.3450 H   0  0  0  0  0  0  0  0  0  0  0  0
    3.8655    2.7706    0.7425 C   0  0  0  0  0  0  0  0  0  0  0  0
    4.1687    3.8338    0.7997 H   0  0  0  0  0  0  0  0  0  0  0  0
    4.5577    2.1922    1.3874 H   0  0  0  0  0  0  0  0  0  0  0  0
    2.8507    2.6880    1.1812 H   0  0  0  0  0  0  0  0  0  0  0  0
  1  6  1  0  0  0  0
  2  1  1  0  0  0  0
  3  1  1  0  0  0  0
  3  6  1  0  0  0  0
  4  3  1  0  0  0  0
  5  3  1  0  0  0  0
  6  8  1  0  0  0  0
  6  7  1  1  0  0  0
  8 11  1  0  0  0  0
  9  8  1  0  0  0  0
 10  8  1  0  0  0  0
 11 12  1  0  0  0  0
 11 14  1  0  0  0  0
 11 13  1  0  0  0  0
M  END
