1
 OpenBabel05122313063D

 28 28  0  0  0  0  0  0  0  0999 V2000
   -0.2286   -1.7958   -0.6990 N   0  0  0  0  0  2  0  0  0  0  0  0
    1.0845   -1.4129   -1.0812 C   0  0  0  0  0  0  0  0  0  0  0  0
    2.2206   -2.1938   -0.7748 C   0  0  0  0  0  0  0  0  0  0  0  0
    2.1015   -3.1463   -0.2383 H   0  0  0  0  0  0  0  0  0  0  0  0
    3.5147   -1.7574   -1.1176 C   0  0  0  0  0  0  0  0  0  0  0  0
    3.6689   -0.5183   -1.7643 C   0  0  0  0  0  0  0  0  0  0  0  0
    4.6803   -0.1713   -2.0320 H   0  0  0  0  0  0  0  0  0  0  0  0
    2.5550    0.2844   -2.0838 C   0  0  0  0  0  0  0  0  0  0  0  0
    1.2727   -0.1789   -1.7514 C   0  0  0  0  0  0  0  0  0  0  0  0
    0.3913    0.4172   -2.0397 H   0  0  0  0  0  0  0  0  0  0  0  0
   -0.5672   -3.2404   -0.7221 C   0  0  0  0  0  0  0  0  0  0  0  0
    0.2443   -3.7307   -1.3029 H   0  0  0  0  0  0  0  0  0  0  0  0
   -0.5985   -3.8535    0.6827 C   0  0  0  0  0  0  0  0  0  0  0  0
    0.3512   -3.6700    1.2242 H   0  0  0  0  0  0  0  0  0  0  0  0
   -0.7637   -4.9488    0.6300 H   0  0  0  0  0  0  0  0  0  0  0  0
   -1.4217   -3.4045    1.2738 H   0  0  0  0  0  0  0  0  0  0  0  0
   -1.8814   -3.4722   -1.4740 C   0  0  0  0  0  0  0  0  0  0  0  0
   -1.8316   -3.0404   -2.4934 H   0  0  0  0  0  0  0  0  0  0  0  0
   -2.7239   -2.9981   -0.9316 H   0  0  0  0  0  0  0  0  0  0  0  0
   -2.0903   -4.5575   -1.5631 H   0  0  0  0  0  0  0  0  0  0  0  0
    4.7134   -2.5999   -0.7533 C   0  0  0  0  0  0  0  0  0  0  0  0
    4.5966   -3.6464   -1.1025 H   0  0  0  0  0  0  0  0  0  0  0  0
    4.8522   -2.6429    0.3480 H   0  0  0  0  0  0  0  0  0  0  0  0
    5.6462   -2.1951   -1.1917 H   0  0  0  0  0  0  0  0  0  0  0  0
    2.7352    1.5937   -2.8096 C   0  0  0  0  0  0  0  0  0  0  0  0
    3.4885    2.2300   -2.3025 H   0  0  0  0  0  0  0  0  0  0  0  0
    1.7877    2.1637   -2.8596 H   0  0  0  0  0  0  0  0  0  0  0  0
    3.0907    1.4323   -3.8495 H   0  0  0  0  0  0  0  0  0  0  0  0
  2  3  1  0  0  0  0
  2  1  1  0  0  0  0
  3  4  1  0  0  0  0
  5  3  2  0  0  0  0
  5 21  1  0  0  0  0
  6  5  1  0  0  0  0
  7  6  1  0  0  0  0
  8  6  2  0  0  0  0
  8  9  1  0  0  0  0
  9  2  2  0  0  0  0
 10  9  1  0  0  0  0
 11  1  1  0  0  0  0
 11 13  1  0  0  0  0
 12 11  1  0  0  0  0
 13 14  1  0  0  0  0
 13 16  1  0  0  0  0
 15 13  1  0  0  0  0
 17 19  1  0  0  0  0
 17 11  1  0  0  0  0
 18 17  1  0  0  0  0
 20 17  1  0  0  0  0
 21 23  1  0  0  0  0
 22 21  1  0  0  0  0
 24 21  1  0  0  0  0
 25 26  1  0  0  0  0
 25  8  1  0  0  0  0
 27 25  1  0  0  0  0
 28 25  1  0  0  0  0
M  END
