2
 OpenBabel05122313063D

 22 22  0  0  0  0  0  0  0  0999 V2000
    6.1054    0.9232   -0.3690 O   0  0  0  0  0  0  0  0  0  0  0  0
    1.7692    0.9972   -0.0284 N   0  0  0  0  0  2  0  0  0  0  0  0
    3.8242    1.5737   -0.5922 N   0  0  0  0  0  0  0  0  0  0  0  0
    2.7786    0.7426   -0.8626 C   0  0  0  0  0  3  0  0  0  0  0  0
    2.7697   -0.0489   -1.6217 H   0  0  0  0  0  0  0  0  0  0  0  0
    2.1733    2.0208    0.8137 C   0  0  0  0  0  0  0  0  0  0  0  0
    1.4854    2.4195    1.5663 H   0  0  0  0  0  0  0  0  0  0  0  0
    3.4597    2.3827    0.4754 C   0  0  0  0  0  0  0  0  0  0  0  0
    4.1433    3.1266    0.8949 H   0  0  0  0  0  0  0  0  0  0  0  0
    5.1527    1.4984   -1.2018 C   0  0  0  0  0  0  0  0  0  0  0  0
    5.4963    2.5287   -1.4204 H   0  0  0  0  0  0  0  0  0  0  0  0
    5.0263    0.9396   -2.1595 H   0  0  0  0  0  0  0  0  0  0  0  0
    5.9190   -0.4749   -0.1373 C   0  0  0  0  0  0  0  0  0  0  0  0
    4.9369   -0.6615    0.3588 H   0  0  0  0  0  0  0  0  0  0  0  0
    5.8956   -1.0177   -1.1150 H   0  0  0  0  0  0  0  0  0  0  0  0
    7.0551   -0.9824    0.7360 C   0  0  0  0  0  0  0  0  0  0  0  0
    7.0579   -0.3927    1.6773 H   0  0  0  0  0  0  0  0  0  0  0  0
    8.0175   -0.7612    0.2272 H   0  0  0  0  0  0  0  0  0  0  0  0
    6.9339   -2.4757    1.0386 C   0  0  0  0  0  0  0  0  0  0  0  0
    6.9539   -3.0831    0.1099 H   0  0  0  0  0  0  0  0  0  0  0  0
    7.7667   -2.8227    1.6811 H   0  0  0  0  0  0  0  0  0  0  0  0
    5.9854   -2.7083    1.5655 H   0  0  0  0  0  0  0  0  0  0  0  0
  1 13  1  0  0  0  0
  2  6  1  0  0  0  0
  3  8  1  0  0  0  0
  4  3  1  0  0  0  0
  4  2  1  0  0  0  0
  5  4  1  0  0  0  0
  6  7  1  0  0  0  0
  8  6  2  0  0  0  0
  8  9  1  0  0  0  0
 10  3  1  0  0  0  0
 10  1  1  0  0  0  0
 11 10  1  0  0  0  0
 12 10  1  0  0  0  0
 13 14  1  0  0  0  0
 13 16  1  0  0  0  0
 15 13  1  0  0  0  0
 16 19  1  0  0  0  0
 16 17  1  0  0  0  0
 18 16  1  0  0  0  0
 19 22  1  0  0  0  0
 19 21  1  0  0  0  0
 20 19  1  0  0  0  0
M  END
