4
 OpenBabel05122313063D

 29 30  0  0  1  0  0  0  0  0999 V2000
    0.3518    2.8625   -0.6808 C   0  0  0  0  0  0  0  0  0  0  0  0
    0.2666    2.5214   -1.7328 H   0  0  0  0  0  0  0  0  0  0  0  0
    1.3951    3.1825   -0.5016 H   0  0  0  0  0  0  0  0  0  0  0  0
    0.0015    1.7293    0.2200 N   0  0  0  0  0  0  0  0  0  0  0  0
    0.3300    1.9462    1.1788 H   0  0  0  0  0  0  0  0  0  0  0  0
   -1.3298   -0.7399   -0.1684 N   0  0  0  0  0  0  0  0  0  0  0  0
   -0.7055    3.9188   -0.3546 C   0  0  0  0  0  0  0  0  0  0  0  0
   -0.7831    4.7011   -1.1333 H   0  0  0  0  0  0  0  0  0  0  0  0
   -0.4499    4.4260    0.5990 H   0  0  0  0  0  0  0  0  0  0  0  0
   -1.9916    3.0827   -0.2053 C   0  0  0  0  0  0  0  0  0  0  0  0
   -2.4979    2.9778   -1.1871 H   0  0  0  0  0  0  0  0  0  0  0  0
   -2.7208    3.5412    0.4881 H   0  0  0  0  0  0  0  0  0  0  0  0
   -1.5067    1.6972    0.2921 C   0  0  1  0  0  0  0  0  0  0  0  0
   -1.7679    1.5151    1.3523 H   0  0  0  0  0  0  0  0  0  0  0  0
   -1.9864    0.5437   -0.5654 C   0  0  0  0  0  0  0  0  0  0  0  0
   -1.7211    0.7358   -1.6255 H   0  0  0  0  0  0  0  0  0  0  0  0
   -3.0921    0.4610   -0.5099 H   0  0  0  0  0  0  0  0  0  0  0  0
   -1.9937   -1.3343    1.0495 C   0  0  0  0  0  0  0  0  0  0  0  0
   -2.0880   -0.5775    1.8455 H   0  0  0  0  0  0  0  0  0  0  0  0
   -1.3034   -2.1074    1.4347 H   0  0  0  0  0  0  0  0  0  0  0  0
   -3.3209   -1.9418    0.5569 C   0  0  0  0  0  0  0  0  0  0  0  0
   -4.1730   -1.2561    0.7310 H   0  0  0  0  0  0  0  0  0  0  0  0
   -3.5471   -2.8680    1.1178 H   0  0  0  0  0  0  0  0  0  0  0  0
   -3.1047   -2.2013   -0.9571 C   0  0  0  0  0  0  0  0  0  0  0  0
   -3.2617   -3.2592   -1.2400 H   0  0  0  0  0  0  0  0  0  0  0  0
   -3.8009   -1.6023   -1.5760 H   0  0  0  0  0  0  0  0  0  0  0  0
   -1.6443   -1.7866   -1.2002 C   0  0  0  0  0  0  0  0  0  0  0  0
   -0.9691   -2.6407   -1.0119 H   0  0  0  0  0  0  0  0  0  0  0  0
   -1.4419   -1.3924   -2.2129 H   0  0  0  0  0  0  0  0  0  0  0  0
  1  3  1  0  0  0  0
  1  7  1  0  0  0  0
  1  4  1  0  0  0  0
  2  1  1  0  0  0  0
  4 13  1  0  0  0  0
  4  5  1  0  0  0  0
  6 18  1  0  0  0  0
  7 10  1  0  0  0  0
  7  9  1  0  0  0  0
  8  7  1  0  0  0  0
 10 13  1  0  0  0  0
 10 12  1  0  0  0  0
 11 10  1  0  0  0  0
 13 14  1  1  0  0  0
 15 17  1  0  0  0  0
 15  6  1  0  0  0  0
 15 13  1  0  0  0  0
 16 15  1  0  0  0  0
 18 20  1  0  0  0  0
 18 19  1  0  0  0  0
 21 22  1  0  0  0  0
 21 18  1  0  0  0  0
 21 23  1  0  0  0  0
 24 21  1  0  0  0  0
 25 24  1  0  0  0  0
 26 24  1  0  0  0  0
 27 28  1  0  0  0  0
 27 24  1  0  0  0  0
 27  6  1  0  0  0  0
 29 27  1  0  0  0  0
M  END
