2
 OpenBabel05122313063D

 34 34  0  0  0  0  0  0  0  0999 V2000
   -0.7077   -0.5793   -1.1453 P   0  0  0  0  0  2  0  0  0  0  0  0
    0.1179    0.8038   -0.5406 N   0  0  0  0  0  2  0  0  0  0  0  0
   -1.8451   -0.9971    0.1016 N   0  0  0  0  0  0  0  0  0  0  0  0
   -0.3523    2.1078   -0.3820 C   0  0  0  0  0  0  0  0  0  0  0  0
    0.5613    3.1769   -0.2085 C   0  0  0  0  0  0  0  0  0  0  0  0
    1.6361    2.9561   -0.2337 H   0  0  0  0  0  0  0  0  0  0  0  0
    0.1023    4.4897   -0.0529 C   0  0  0  0  0  0  0  0  0  0  0  0
    0.8303    5.3059    0.0725 H   0  0  0  0  0  0  0  0  0  0  0  0
   -1.2743    4.7719   -0.0714 C   0  0  0  0  0  0  0  0  0  0  0  0
   -1.6318    5.8050    0.0517 H   0  0  0  0  0  0  0  0  0  0  0  0
   -2.1878    3.7223   -0.2659 C   0  0  0  0  0  0  0  0  0  0  0  0
   -3.2684    3.9308   -0.2978 H   0  0  0  0  0  0  0  0  0  0  0  0
   -1.7384    2.4062   -0.4235 C   0  0  0  0  0  0  0  0  0  0  0  0
   -2.4517    1.5844   -0.5765 H   0  0  0  0  0  0  0  0  0  0  0  0
   -1.6018   -0.8214    1.5412 C   0  0  0  0  0  0  0  0  0  0  0  0
   -0.6633   -0.2298    1.6042 H   0  0  0  0  0  0  0  0  0  0  0  0
   -2.7077    0.0002    2.2189 C   0  0  0  0  0  0  0  0  0  0  0  0
   -3.6827   -0.5300    2.1945 H   0  0  0  0  0  0  0  0  0  0  0  0
   -2.8321    0.9839    1.7268 H   0  0  0  0  0  0  0  0  0  0  0  0
   -2.4587    0.1788    3.2847 H   0  0  0  0  0  0  0  0  0  0  0  0
   -1.3559   -2.1531    2.2683 C   0  0  0  0  0  0  0  0  0  0  0  0
   -0.5459   -2.7304    1.7841 H   0  0  0  0  0  0  0  0  0  0  0  0
   -2.2676   -2.7859    2.2780 H   0  0  0  0  0  0  0  0  0  0  0  0
   -1.0772   -1.9705    3.3266 H   0  0  0  0  0  0  0  0  0  0  0  0
   -3.0230   -1.7921   -0.3135 C   0  0  0  0  0  0  0  0  0  0  0  0
   -3.5321   -2.0904    0.6274 H   0  0  0  0  0  0  0  0  0  0  0  0
   -4.0137   -0.9453   -1.1253 C   0  0  0  0  0  0  0  0  0  0  0  0
   -3.5410   -0.5867   -2.0629 H   0  0  0  0  0  0  0  0  0  0  0  0
   -4.3435   -0.0599   -0.5458 H   0  0  0  0  0  0  0  0  0  0  0  0
   -4.9128   -1.5343   -1.3996 H   0  0  0  0  0  0  0  0  0  0  0  0
   -2.6315   -3.0836   -1.0488 C   0  0  0  0  0  0  0  0  0  0  0  0
   -1.8987   -3.6688   -0.4608 H   0  0  0  0  0  0  0  0  0  0  0  0
   -2.1661   -2.8567   -2.0303 H   0  0  0  0  0  0  0  0  0  0  0  0
   -3.5241   -3.7141   -1.2384 H   0  0  0  0  0  0  0  0  0  0  0  0
  1  2  1  0  0  0  0
  1  3  1  0  0  0  0
  2  4  1  0  0  0  0
  3 15  1  0  0  0  0
  4  5  1  0  0  0  0
  5  7  2  0  0  0  0
  6  5  1  0  0  0  0
  7  8  1  0  0  0  0
  9  7  1  0  0  0  0
  9 10  1  0  0  0  0
 11  9  2  0  0  0  0
 12 11  1  0  0  0  0
 13  4  2  0  0  0  0
 13 11  1  0  0  0  0
 14 13  1  0  0  0  0
 15 16  1  0  0  0  0
 15 17  1  0  0  0  0
 15 21  1  0  0  0  0
 17 20  1  0  0  0  0
 18 17  1  0  0  0  0
 19 17  1  0  0  0  0
 21 23  1  0  0  0  0
 21 24  1  0  0  0  0
 22 21  1  0  0  0  0
 25  3  1  0  0  0  0
 25 26  1  0  0  0  0
 27 29  1  0  0  0  0
 27 25  1  0  0  0  0
 28 27  1  0  0  0  0
 30 27  1  0  0  0  0
 31 32  1  0  0  0  0
 31 25  1  0  0  0  0
 33 31  1  0  0  0  0
 34 31  1  0  0  0  0
M  END
