1
 OpenBabel05122313063D

 17 16  0  0  0  0  0  0  0  0999 V2000
    3.4378   -0.7852    0.0012 N   0  0  0  0  0  0  0  0  0  0  0  0
    2.6867    2.1197   -0.1259 O   0  0  0  0  0  0  0  0  0  0  0  0
    2.5225    2.9170    0.4102 H   0  0  0  0  0  0  0  0  0  0  0  0
    3.8865   -1.0543    1.3907 C   0  0  0  0  0  0  0  0  0  0  0  0
    4.9766   -1.2779    1.4095 H   0  0  0  0  0  0  0  0  0  0  0  0
    3.3335   -1.9233    1.7915 H   0  0  0  0  0  0  0  0  0  0  0  0
    3.6831   -0.1823    2.0376 H   0  0  0  0  0  0  0  0  0  0  0  0
    3.6534   -2.0018   -0.8272 C   0  0  0  0  0  0  0  0  0  0  0  0
    4.7344   -2.2644   -0.8520 H   0  0  0  0  0  0  0  0  0  0  0  0
    3.3031   -1.8168   -1.8594 H   0  0  0  0  0  0  0  0  0  0  0  0
    3.0863   -2.8490   -0.4007 H   0  0  0  0  0  0  0  0  0  0  0  0
    4.2108    0.3422   -0.6074 C   0  0  0  0  0  0  0  0  0  0  0  0
    5.2926    0.0752   -0.5907 H   0  0  0  0  0  0  0  0  0  0  0  0
    3.8989    0.4149   -1.6686 H   0  0  0  0  0  0  0  0  0  0  0  0
    4.0301    1.7015    0.0479 C   0  0  0  0  0  0  0  0  0  0  0  0
    4.3217    1.6642    1.1231 H   0  0  0  0  0  0  0  0  0  0  0  0
    4.7476    2.3932   -0.4529 H   0  0  0  0  0  0  0  0  0  0  0  0
  1  4  1  0  0  0  0
  2 15  1  0  0  0  0
  2  3  1  0  0  0  0
  4  5  1  0  0  0  0
  4  6  1  0  0  0  0
  4  7  1  0  0  0  0
  8 11  1  0  0  0  0
  8  1  1  0  0  0  0
  9  8  1  0  0  0  0
 10  8  1  0  0  0  0
 12 13  1  0  0  0  0
 12  1  1  0  0  0  0
 12 15  1  0  0  0  0
 14 12  1  0  0  0  0
 15 16  1  0  0  0  0
 17 15  1  0  0  0  0
M  END
