4
 OpenBabel05122313063D

 22 23  0  0  1  0  0  0  0  0999 V2000
    3.0321   -0.5564   -1.9159 S   0  0  0  0  0  0  0  0  0  0  0  0
    5.4400   -2.9645   -1.4190 Cl  0  0  0  0  0  0  0  0  0  0  0  0
    1.9176    0.1233    0.3179 N   0  0  0  0  0  0  0  0  0  0  0  0
    1.4295    0.9861   -0.6080 N   0  0  0  0  0  2  0  0  0  0  0  0
    1.8947    0.7884   -1.8492 C   0  0  1  0  0  3  0  0  0  0  0  0
    2.7548   -0.7463   -0.1673 C   0  0  0  0  0  0  0  0  0  0  0  0
    1.5377    1.5306   -2.9027 N   0  0  0  0  0  0  0  0  0  0  0  0
    0.7888    2.2569   -2.7537 H   0  0  0  0  0  0  0  0  0  0  0  0
    1.8812    1.3131   -3.8341 H   0  0  0  0  0  0  0  0  0  0  0  0
    3.4826   -1.7627    0.6614 C   0  0  0  0  0  0  0  0  0  0  0  0
    3.3597   -2.7734    0.2230 H   0  0  0  0  0  0  0  0  0  0  0  0
    2.9899   -1.7499    1.6523 H   0  0  0  0  0  0  0  0  0  0  0  0
    4.9568   -1.4410    0.8118 C   0  0  0  0  0  0  0  0  0  0  0  0
    5.3967   -0.5860    1.8415 C   0  0  0  0  0  0  0  0  0  0  0  0
    4.6479   -0.1739    2.5358 H   0  0  0  0  0  0  0  0  0  0  0  0
    5.9284   -1.9320   -0.0854 C   0  0  0  0  0  0  0  0  0  0  0  0
    6.7491   -0.2505    1.9864 C   0  0  0  0  0  0  0  0  0  0  0  0
    7.0636    0.4182    2.8010 H   0  0  0  0  0  0  0  0  0  0  0  0
    7.2882   -1.6104    0.0465 C   0  0  0  0  0  0  0  0  0  0  0  0
    8.0114   -2.0202   -0.6722 H   0  0  0  0  0  0  0  0  0  0  0  0
    7.6965   -0.7673    1.0888 C   0  0  0  0  0  0  0  0  0  0  0  0
    8.7616   -0.5118    1.1937 H   0  0  0  0  0  0  0  0  0  0  0  0
  1  5  1  0  0  0  0
  1  6  1  0  0  0  0
  2 16  1  0  0  0  0
  4  3  1  0  0  0  0
  5  7  1  1  0  0  0
  5  4  1  0  0  0  0
  6  3  2  0  0  0  0
  6 10  1  0  0  0  0
  7  8  1  0  0  0  0
  9  7  1  0  0  0  0
 10 13  1  0  0  0  0
 10 12  1  0  0  0  0
 11 10  1  0  0  0  0
 13 14  1  0  0  0  0
 14 17  2  0  0  0  0
 14 15  1  0  0  0  0
 16 19  1  0  0  0  0
 16 13  2  0  0  0  0
 17 18  1  0  0  0  0
 19 21  2  0  0  0  0
 20 19  1  0  0  0  0
 21 22  1  0  0  0  0
 21 17  1  0  0  0  0
M  END
