3
 OpenBabel05122313063D

 37 41  0  0  1  0  0  0  0  0999 V2000
    3.7216   -2.7656   -0.0117 N   0  0  0  0  0  0  0  0  0  0  0  0
    3.6128   -0.4434   -0.2494 N   0  0  0  0  0  0  0  0  0  0  0  0
    1.6365    1.1021   -0.4862 N   0  0  0  0  0  2  0  0  0  0  0  0
    3.7646    1.8014   -0.1746 N   0  0  0  0  0  0  0  0  0  0  0  0
    4.0370   -5.1414    0.3714 C   0  0  0  0  0  0  0  0  0  0  0  0
    3.2980   -4.0141   -0.2995 C   0  0  0  0  0  0  0  0  0  0  0  0
    2.2214   -4.2411   -1.1778 C   0  0  0  0  0  0  0  0  0  0  0  0
    0.9424    4.7837   -0.6483 C   0  0  0  0  0  0  0  0  0  0  0  0
    1.5975   -3.1427   -1.7874 C   0  0  0  0  0  0  0  0  0  0  0  0
    2.0448   -1.8487   -1.5051 C   0  0  0  0  0  0  0  0  0  0  0  0
    1.6663    2.5036   -0.4973 C   0  0  0  0  0  0  0  0  0  0  0  0
    6.2719    1.9762    0.2732 C   0  0  0  0  0  0  0  0  0  0  0  0
    0.6238    3.4190   -0.6956 C   0  0  0  0  0  0  0  0  0  0  0  0
    3.3204    4.3277   -0.2329 C   0  0  0  0  0  0  0  0  0  0  0  0
    3.0024    2.9659   -0.2821 C   0  0  0  0  0  0  0  0  0  0  0  0
    5.0564    1.3231    0.0538 C   0  0  0  0  0  0  0  0  0  0  0  0
    4.9595   -0.0988    0.0251 C   0  0  0  0  0  0  0  0  0  0  0  0
    3.1082   -1.7310   -0.5848 C   0  0  0  0  0  0  0  0  0  0  0  0
    2.9032    0.7316   -0.3188 C   0  0  2  0  0  3  0  0  0  0  0  0
    2.2620    5.2324   -0.4156 C   0  0  0  0  0  0  0  0  0  0  0  0
    7.3159   -0.2332    0.4447 C   0  0  0  0  0  0  0  0  0  0  0  0
    7.4074    1.1720    0.4695 C   0  0  0  0  0  0  0  0  0  0  0  0
    6.0940   -0.8929    0.2260 C   0  0  0  0  0  0  0  0  0  0  0  0
    5.0959   -5.1610    0.0394 H   0  0  0  0  0  0  0  0  0  0  0  0
    4.0501   -4.9902    1.4695 H   0  0  0  0  0  0  0  0  0  0  0  0
    3.5824   -6.1248    0.1482 H   0  0  0  0  0  0  0  0  0  0  0  0
    1.8799   -5.2664   -1.3812 H   0  0  0  0  0  0  0  0  0  0  0  0
    0.1427    5.5232   -0.8040 H   0  0  0  0  0  0  0  0  0  0  0  0
    0.7572   -3.2854   -2.4823 H   0  0  0  0  0  0  0  0  0  0  0  0
    1.5882   -0.9759   -1.9905 H   0  0  0  0  0  0  0  0  0  0  0  0
    6.3336    3.0725    0.2941 H   0  0  0  0  0  0  0  0  0  0  0  0
   -0.3892    3.0494   -0.9032 H   0  0  0  0  0  0  0  0  0  0  0  0
    4.3488    4.6759   -0.0655 H   0  0  0  0  0  0  0  0  0  0  0  0
    2.4703    6.3121   -0.3874 H   0  0  0  0  0  0  0  0  0  0  0  0
    8.2213   -0.8354    0.6108 H   0  0  0  0  0  0  0  0  0  0  0  0
    8.3803    1.6514    0.6514 H   0  0  0  0  0  0  0  0  0  0  0  0
    5.9997   -1.9847    0.2325 H   0  0  0  0  0  0  0  0  0  0  0  0
  2 17  1  0  0  0  0
  4 16  1  0  0  0  0
  5 25  1  0  0  0  0
  6  1  1  0  0  0  0
  6  5  1  0  0  0  0
  7  6  2  0  0  0  0
  8 20  1  0  0  0  0
  9 10  2  0  0  0  0
  9  7  1  0  0  0  0
 10 18  1  0  0  0  0
 11  3  1  0  0  0  0
 11 15  2  0  0  0  0
 12 31  1  0  0  0  0
 12 22  1  0  0  0  0
 13  8  2  0  0  0  0
 13 11  1  0  0  0  0
 14 33  1  0  0  0  0
 15 14  1  0  0  0  0
 15  4  1  0  0  0  0
 16 12  2  0  0  0  0
 17 16  1  0  0  0  0
 17 23  2  0  0  0  0
 18  2  1  0  0  0  0
 18  1  2  0  0  0  0
 19  3  1  6  0  0  0
 19  2  1  0  0  0  0
 19  4  1  0  0  0  0
 20 34  1  0  0  0  0
 20 14  2  0  0  0  0
 21 22  2  0  0  0  0
 21 35  1  0  0  0  0
 22 36  1  0  0  0  0
 23 37  1  0  0  0  0
 23 21  1  0  0  0  0
 24  5  1  0  0  0  0
 26  5  1  0  0  0  0
 27  7  1  0  0  0  0
 28  8  1  0  0  0  0
 29  9  1  0  0  0  0
 30 10  1  0  0  0  0
 32 13  1  0  0  0  0
M  END
