1
 OpenBabel05122313063D

 17 17  0  0  0  0  0  0  0  0999 V2000
   -2.6183   -0.1309    0.0080 N   0  0  0  0  0  2  0  0  0  0  0  0
   -3.1817    1.1255   -0.0592 C   0  0  0  0  0  0  0  0  0  0  0  0
   -4.5922    1.1642   -0.0728 N   0  0  0  0  0  0  0  0  0  0  0  0
   -5.4142    0.0344   -0.0222 C   0  0  0  0  0  0  0  0  0  0  0  0
   -4.7348   -1.1870    0.0452 N   0  0  0  0  0  0  0  0  0  0  0  0
   -3.3316   -1.3116    0.0620 C   0  0  0  0  0  0  0  0  0  0  0  0
   -2.5116    2.1588   -0.1050 O   0  0  0  0  0  0  0  0  0  0  0  0
   -5.2650    2.4563   -0.1440 C   0  0  0  0  0  0  0  0  0  0  0  0
   -5.9022    2.5100   -1.0483 H   0  0  0  0  0  0  0  0  0  0  0  0
   -4.4785    3.2293   -0.1768 H   0  0  0  0  0  0  0  0  0  0  0  0
   -5.9171    2.6009    0.7395 H   0  0  0  0  0  0  0  0  0  0  0  0
   -6.6363    0.1257   -0.0365 O   0  0  0  0  0  0  0  0  0  0  0  0
   -5.5133   -2.4185    0.1010 C   0  0  0  0  0  0  0  0  0  0  0  0
   -6.5801   -2.1376    0.0793 H   0  0  0  0  0  0  0  0  0  0  0  0
   -5.2768   -2.9791    1.0263 H   0  0  0  0  0  0  0  0  0  0  0  0
   -5.2642   -3.0683   -0.7605 H   0  0  0  0  0  0  0  0  0  0  0  0
   -2.8016   -2.4183    0.1218 O   0  0  0  0  0  0  0  0  0  0  0  0
  1  6  1  0  0  0  0
  2  1  1  0  0  0  0
  3  2  1  0  0  0  0
  3  4  1  0  0  0  0
  4  5  1  0  0  0  0
  5  6  1  0  0  0  0
  5 13  1  0  0  0  0
  6 17  2  0  0  0  0
  7  2  2  0  0  0  0
  8  3  1  0  0  0  0
  8 11  1  0  0  0  0
  9  8  1  0  0  0  0
 10  8  1  0  0  0  0
 12  4  2  0  0  0  0
 13 15  1  0  0  0  0
 14 13  1  0  0  0  0
 16 13  1  0  0  0  0
M  END
