39
 OpenBabel05122313063D

 40 41  0  0  0  0  0  0  0  0999 V2000
   -3.3685   -1.6862   -0.3925 C   0  0  0  0  0  0  0  0  0  0  0  0
   -4.2741   -2.6182    0.1447 C   0  0  0  0  0  0  0  0  0  0  0  0
   -4.6827   -3.4050   -0.5076 H   0  0  0  0  0  0  0  0  0  0  0  0
   -4.6533   -2.5714    1.4931 C   0  0  0  0  0  0  0  0  0  0  0  0
   -5.3654   -3.3110    1.8900 H   0  0  0  0  0  0  0  0  0  0  0  0
   -4.1085   -1.5981    2.3408 C   0  0  0  0  0  0  0  0  0  0  0  0
   -4.3889   -1.5827    3.4050 H   0  0  0  0  0  0  0  0  0  0  0  0
   -3.2022   -0.6378    1.8549 C   0  0  0  0  0  0  0  0  0  0  0  0
   -2.8707   -0.6843    0.4797 C   0  0  0  0  0  0  0  0  0  0  0  0
   -3.6166    1.1735    3.5942 C   0  0  0  0  0  0  0  0  0  0  0  0
   -4.3489    1.6724    2.9275 H   0  0  0  0  0  0  0  0  0  0  0  0
   -4.1818    0.5175    4.2889 H   0  0  0  0  0  0  0  0  0  0  0  0
   -3.1239    1.9554    4.2071 H   0  0  0  0  0  0  0  0  0  0  0  0
   -2.5719    0.3881    2.7877 C   0  0  0  0  0  0  0  0  0  0  0  0
   -2.0178    1.1171    2.1625 H   0  0  0  0  0  0  0  0  0  0  0  0
   -1.5351   -0.2986    3.6952 C   0  0  0  0  0  0  0  0  0  0  0  0
   -0.7895   -0.8458    3.0840 H   0  0  0  0  0  0  0  0  0  0  0  0
   -1.0025    0.4502    4.3167 H   0  0  0  0  0  0  0  0  0  0  0  0
   -2.0194   -1.0299    4.3757 H   0  0  0  0  0  0  0  0  0  0  0  0
   -4.1039   -1.3808   -2.8008 C   0  0  0  0  0  0  0  0  0  0  0  0
   -4.4877   -0.3635   -2.5911 H   0  0  0  0  0  0  0  0  0  0  0  0
   -3.7677   -1.4107   -3.8576 H   0  0  0  0  0  0  0  0  0  0  0  0
   -4.9546   -2.0871   -2.6997 H   0  0  0  0  0  0  0  0  0  0  0  0
   -2.9507   -1.7678   -1.8570 C   0  0  0  0  0  0  0  0  0  0  0  0
   -2.1265   -1.0419   -2.0050 H   0  0  0  0  0  0  0  0  0  0  0  0
   -2.3876   -3.1536   -2.2127 C   0  0  0  0  0  0  0  0  0  0  0  0
   -1.5339   -3.4016   -1.5534 H   0  0  0  0  0  0  0  0  0  0  0  0
   -3.1558   -3.9487   -2.1159 H   0  0  0  0  0  0  0  0  0  0  0  0
   -2.0356   -3.1625   -3.2651 H   0  0  0  0  0  0  0  0  0  0  0  0
   -2.5527    1.3724   -0.6347 C   0  0  0  0  0  3  0  0  0  0  0  0
   -1.8580    2.1310   -1.0360 H   0  0  0  0  0  0  0  0  0  0  0  0
   -3.9511    1.6820   -0.7537 C   0  0  0  0  0  0  0  0  0  0  0  0
   -5.1667    1.1619   -0.3044 C   0  0  0  0  0  0  0  0  0  0  0  0
   -5.2993    0.2541    0.2916 H   0  0  0  0  0  0  0  0  0  0  0  0
   -6.1825    2.0382   -0.7782 C   0  0  0  0  0  0  0  0  0  0  0  0
   -7.2624    1.9483   -0.6194 H   0  0  0  0  0  0  0  0  0  0  0  0
   -5.5331    3.0332   -1.4853 C   0  0  0  0  0  0  0  0  0  0  0  0
   -5.8828    3.9181   -2.0280 H   0  0  0  0  0  0  0  0  0  0  0  0
   -2.0117    0.3356   -0.0486 N   0  0  0  0  0  2  0  0  0  0  0  0
   -4.1995    2.8342   -1.4769 O   0  0  0  0  0  0  0  0  0  0  0  0
  1  2  2  0  0  0  0
  1  9  1  0  0  0  0
  2  4  1  0  0  0  0
  3  2  1  0  0  0  0
  4  5  1  0  0  0  0
  4  6  2  0  0  0  0
  6  7  1  0  0  0  0
  8  6  1  0  0  0  0
  8 14  1  0  0  0  0
  9  8  2  0  0  0  0
 10 13  1  0  0  0  0
 10 12  1  0  0  0  0
 11 10  1  0  0  0  0
 14 10  1  0  0  0  0
 14 16  1  0  0  0  0
 15 14  1  0  0  0  0
 16 18  1  0  0  0  0
 16 19  1  0  0  0  0
 17 16  1  0  0  0  0
 20 23  1  0  0  0  0
 20 21  1  0  0  0  0
 20 24  1  0  0  0  0
 22 20  1  0  0  0  0
 24  1  1  0  0  0  0
 25 24  1  0  0  0  0
 26 28  1  0  0  0  0
 26 24  1  0  0  0  0
 26 27  1  0  0  0  0
 29 26  1  0  0  0  0
 30 39  1  0  0  0  0
 31 30  1  0  0  0  0
 32 30  1  0  0  0  0
 32 33  2  0  0  0  0
 33 34  1  0  0  0  0
 35 36  1  0  0  0  0
 35 33  1  0  0  0  0
 37 40  1  0  0  0  0
 37 35  2  0  0  0  0
 38 37  1  0  0  0  0
 39  9  1  0  0  0  0
 40 32  1  0  0  0  0
M  END
