7
 OpenBabel05122313063D

 14 13  0  0  0  0  0  0  0  0999 V2000
   -1.0458    0.9766   -2.3195 O   0  0  0  0  0  0  0  0  0  0  0  0
   -1.6347    1.4686   -1.6151 H   0  0  0  0  0  0  0  0  0  0  0  0
    0.8915    0.1774   -3.7349 N   0  0  0  0  0  4  0  0  0  0  0  0
    0.0832    0.7046   -4.0749 H   0  0  0  0  0  0  0  0  0  0  0  0
    1.7098    0.0693   -4.3282 H   0  0  0  0  0  0  0  0  0  0  0  0
    1.0205    0.1029   -2.3835 C   0  0  0  0  0  0  0  0  0  0  0  0
    0.0439    0.5044   -1.6040 N   0  0  0  0  0  2  0  0  0  0  0  0
    2.2995   -0.4163   -1.7881 C   0  0  0  0  0  0  0  0  0  0  0  0
    2.6714   -1.2406   -2.4336 H   0  0  0  0  0  0  0  0  0  0  0  0
    2.0769   -0.8838   -0.8100 H   0  0  0  0  0  0  0  0  0  0  0  0
    3.3707    0.6723   -1.6287 C   0  0  0  0  0  0  0  0  0  0  0  0
    3.6545    1.1206   -2.6028 H   0  0  0  0  0  0  0  0  0  0  0  0
    4.2833    0.2490   -1.1648 H   0  0  0  0  0  0  0  0  0  0  0  0
    2.9925    1.4796   -0.9721 H   0  0  0  0  0  0  0  0  0  0  0  0
  1  2  1  0  0  0  0
  1  7  1  0  0  0  0
  3  6  2  0  0  0  0
  4  3  1  0  0  0  0
  5  3  1  0  0  0  0
  6  8  1  0  0  0  0
  6  7  1  0  0  0  0
  8 11  1  0  0  0  0
  8 10  1  0  0  0  0
  9  8  1  0  0  0  0
 11 13  1  0  0  0  0
 11 14  1  0  0  0  0
 12 11  1  0  0  0  0
M  END
