5
q = -1.0, confidence = 0.032

 11 10  0  0  0  0  0  0  0  0999 V2000
    0.0004    1.6087    1.6770 B   0  0  0  0  0  0  0  0  0  0  0  0
   -1.0344    2.0041    2.2192 H   0  0  0  0  0  0  0  0  0  0  0  0
    1.0356    2.0040    2.2184 H   0  0  0  0  0  0  0  0  0  0  0  0
    0.0001    0.2946    1.8509 H   0  0  0  0  0  0  0  0  0  0  0  0
   -0.0001    1.7939    0.1585 N   0  0  0  0  0  2  0  0  0  0  0  0
   -0.0002    2.8489   -0.5726 C   0  0  0  0  0  3  0  0  0  0  0  0
   -0.0005    2.7142   -1.6750 H   0  0  0  0  0  0  0  0  0  0  0  0
    0.0000    4.2505   -0.0467 C   0  0  0  0  0  0  0  0  0  0  0  0
    0.0011    4.2658    1.0590 H   0  0  0  0  0  0  0  0  0  0  0  0
   -0.8885    4.8052   -0.4191 H   0  0  0  0  0  0  0  0  0  0  0  0
    0.8875    4.8056   -0.4209 H   0  0  0  0  0  0  0  0  0  0  0  0
  1  4  1  0  0  0  0
  1  3  1  0  0  0  0
  1  2  1  0  0  0  0
  5  1  1  0  0  0  0
  6  8  1  0  0  0  0
  6  5  1  0  0  0  0
  7  6  1  0  0  0  0
  8  9  1  0  0  0  0
 10  8  1  0  0  0  0
 11  8  1  0  0  0  0
M  END
