2
 OpenBabel05122313063D

 17 16  0  0  0  0  0  0  0  0999 V2000
   -0.1028    0.8360   -2.3976 O   0  0  0  0  0  0  0  0  0  0  0  0
    1.4132    1.6891   -0.9661 N   0  0  0  0  0  2  0  0  0  0  0  0
    0.9275    1.5507   -2.1918 C   0  0  0  0  0  0  0  0  0  0  0  0
    1.4307    2.0602   -3.0566 H   0  0  0  0  0  0  0  0  0  0  0  0
    2.5090    2.5960   -0.5906 C   0  0  0  0  0  0  0  0  0  0  0  0
    3.0017    2.1513    0.7959 C   0  0  0  0  0  0  0  0  0  0  0  0
    2.1642    2.1308    1.5226 H   0  0  0  0  0  0  0  0  0  0  0  0
    3.7877    2.8359    1.1750 H   0  0  0  0  0  0  0  0  0  0  0  0
    3.4223    1.1292    0.7454 H   0  0  0  0  0  0  0  0  0  0  0  0
    3.6790    2.5280   -1.5923 C   0  0  0  0  0  0  0  0  0  0  0  0
    4.0285    1.4818   -1.7013 H   0  0  0  0  0  0  0  0  0  0  0  0
    4.5295    3.1437   -1.2342 H   0  0  0  0  0  0  0  0  0  0  0  0
    3.3948    2.9083   -2.5941 H   0  0  0  0  0  0  0  0  0  0  0  0
    1.9674    4.0379   -0.5037 C   0  0  0  0  0  0  0  0  0  0  0  0
    1.5819    4.3749   -1.4878 H   0  0  0  0  0  0  0  0  0  0  0  0
    2.7574    4.7464   -0.1789 H   0  0  0  0  0  0  0  0  0  0  0  0
    1.1349    4.0859    0.2256 H   0  0  0  0  0  0  0  0  0  0  0  0
  1  3  2  0  0  0  0
  2  5  1  0  0  0  0
  3  2  1  0  0  0  0
  4  3  1  0  0  0  0
  5 14  1  0  0  0  0
  5  6  1  0  0  0  0
  6  8  1  0  0  0  0
  6  7  1  0  0  0  0
  9  6  1  0  0  0  0
 10 12  1  0  0  0  0
 10  5  1  0  0  0  0
 11 10  1  0  0  0  0
 13 10  1  0  0  0  0
 14 16  1  0  0  0  0
 14 17  1  0  0  0  0
 15 14  1  0  0  0  0
M  END
