1
 OpenBabel05122313063D

 29 31  0  0  1  0  0  0  0  0999 V2000
    1.3323    0.3232   -0.6607 N   0  0  0  0  0  2  0  0  0  0  0  0
    2.6301    0.5357   -0.3700 N   0  0  0  0  0  0  0  0  0  0  0  0
    1.2385   -0.9181   -1.2098 C   0  0  2  0  0  3  0  0  0  0  0  0
    2.5352   -1.4907   -1.2354 C   0  0  0  0  0  0  0  0  0  0  0  0
    3.4093   -0.5316   -0.7041 C   0  0  0  0  0  0  0  0  0  0  0  0
   -0.1984   -2.9059   -1.6569 C   0  0  0  0  0  0  0  0  0  0  0  0
   -1.3973   -3.4836   -2.0955 C   0  0  0  0  0  0  0  0  0  0  0  0
   -2.4356   -2.6725   -2.5804 C   0  0  0  0  0  0  0  0  0  0  0  0
   -2.2558   -1.2811   -2.6476 C   0  0  0  0  0  0  0  0  0  0  0  0
   -1.0554   -0.7003   -2.2204 C   0  0  0  0  0  0  0  0  0  0  0  0
   -0.0193   -1.5050   -1.6952 C   0  0  0  0  0  0  0  0  0  0  0  0
    5.6714   -1.4952   -1.1338 C   0  0  0  0  0  0  0  0  0  0  0  0
    7.0515   -1.5283   -0.9013 C   0  0  0  0  0  0  0  0  0  0  0  0
    7.6416   -0.6190   -0.0079 C   0  0  0  0  0  0  0  0  0  0  0  0
    6.8387    0.3219    0.6566 C   0  0  0  0  0  0  0  0  0  0  0  0
    5.4566    0.3534    0.4332 C   0  0  0  0  0  0  0  0  0  0  0  0
    4.8537   -0.5534   -0.4695 C   0  0  0  0  0  0  0  0  0  0  0  0
    2.8674    1.5319   -0.1891 H   0  0  0  0  0  0  0  0  0  0  0  0
    2.7984   -2.4841   -1.6082 H   0  0  0  0  0  0  0  0  0  0  0  0
    0.6010   -3.5407   -1.2480 H   0  0  0  0  0  0  0  0  0  0  0  0
   -1.5257   -4.5757   -2.0483 H   0  0  0  0  0  0  0  0  0  0  0  0
   -3.3828   -3.1240   -2.9118 H   0  0  0  0  0  0  0  0  0  0  0  0
   -3.0592   -0.6404   -3.0419 H   0  0  0  0  0  0  0  0  0  0  0  0
   -0.9122    0.3899   -2.2766 H   0  0  0  0  0  0  0  0  0  0  0  0
    5.2192   -2.1953   -1.8516 H   0  0  0  0  0  0  0  0  0  0  0  0
    7.6747   -2.2657   -1.4293 H   0  0  0  0  0  0  0  0  0  0  0  0
    8.7270   -0.6441    0.1706 H   0  0  0  0  0  0  0  0  0  0  0  0
    7.2913    1.0342    1.3626 H   0  0  0  0  0  0  0  0  0  0  0  0
    4.8354    1.0767    0.9832 H   0  0  0  0  0  0  0  0  0  0  0  0
  1  2  1  0  0  0  0
  2 18  1  0  0  0  0
  3 11  1  6  0  0  0
  3  1  1  0  0  0  0
  4  3  1  0  0  0  0
  4  5  2  0  0  0  0
  5 17  1  0  0  0  0
  5  2  1  0  0  0  0
  6 20  1  0  0  0  0
  7 21  1  0  0  0  0
  7  6  2  0  0  0  0
  8  7  1  0  0  0  0
  9  8  2  0  0  0  0
  9 10  1  0  0  0  0
 10 11  2  0  0  0  0
 11  6  1  0  0  0  0
 12 13  2  0  0  0  0
 12 17  1  0  0  0  0
 13 14  1  0  0  0  0
 14 27  1  0  0  0  0
 14 15  2  0  0  0  0
 15 28  1  0  0  0  0
 16 15  1  0  0  0  0
 16 29  1  0  0  0  0
 17 16  2  0  0  0  0
 19  4  1  0  0  0  0
 22  8  1  0  0  0  0
 23  9  1  0  0  0  0
 24 10  1  0  0  0  0
 25 12  1  0  0  0  0
 26 13  1  0  0  0  0
M  END
