2
 OpenBabel05122313063D

  8  8  0  0  0  0  0  0  0  0999 V2000
    2.3181   -1.0274   -0.3349 O   0  0  0  0  0  0  0  0  0  0  0  0
    1.5206    0.0761    0.0188 N   0  0  0  0  0  2  0  0  0  0  0  0
    2.3531    1.0690    0.3409 C   0  0  0  0  0  3  0  0  0  0  0  0
    3.7028    0.6483    0.2081 C   0  0  0  0  0  0  0  0  0  0  0  0
    3.6084   -0.6584   -0.2107 C   0  0  0  0  0  0  0  0  0  0  0  0
    1.8873    2.0304    0.6015 H   0  0  0  0  0  0  0  0  0  0  0  0
    4.6083    1.2318    0.4009 H   0  0  0  0  0  0  0  0  0  0  0  0
    4.3409   -1.4365   -0.4531 H   0  0  0  0  0  0  0  0  0  0  0  0
  1  5  1  0  0  0  0
  1  2  1  0  0  0  0
  2  3  1  0  0  0  0
  3  6  1  0  0  0  0
  4  3  1  0  0  0  0
  4  7  1  0  0  0  0
  5  4  2  0  0  0  0
  8  5  1  0  0  0  0
M  END
