2
 OpenBabel05122313063D

 18 19  0  0  0  0  0  0  0  0999 V2000
   -1.1302   -0.8045    1.9915 S   0  0  0  0  0  0  0  0  0  0  0  0
   -1.6550    0.6044   -0.8492 N   0  0  0  0  0  2  0  0  0  0  0  0
   -1.8030    1.4130   -1.9304 C   0  0  0  0  0  3  0  0  0  0  0  0
   -0.8774    1.6217   -2.4844 H   0  0  0  0  0  0  0  0  0  0  0  0
   -3.0317    1.9343   -2.3248 C   0  0  0  0  0  0  0  0  0  0  0  0
   -3.0900    2.5763   -3.2140 H   0  0  0  0  0  0  0  0  0  0  0  0
   -4.1646    1.6197   -1.5557 C   0  0  0  0  0  0  0  0  0  0  0  0
   -5.1555    2.0175   -1.8203 H   0  0  0  0  0  0  0  0  0  0  0  0
   -4.0112    0.8111   -0.4332 C   0  0  0  0  0  0  0  0  0  0  0  0
   -4.8713    0.5876    0.2102 H   0  0  0  0  0  0  0  0  0  0  0  0
   -2.7420    0.2858   -0.0792 C   0  0  0  0  0  0  0  0  0  0  0  0
   -2.6224   -0.5651    1.1010 C   0  0  0  0  0  0  0  0  0  0  0  0
   -3.6755   -1.2420    1.7232 C   0  0  0  0  0  0  0  0  0  0  0  0
   -4.6952   -1.2620    1.3164 H   0  0  0  0  0  0  0  0  0  0  0  0
   -3.2873   -1.9398    2.8946 C   0  0  0  0  0  0  0  0  0  0  0  0
   -3.9681   -2.5506    3.5030 H   0  0  0  0  0  0  0  0  0  0  0  0
   -1.9404   -1.7731    3.1729 C   0  0  0  0  0  0  0  0  0  0  0  0
   -1.3627   -2.1959    4.0046 H   0  0  0  0  0  0  0  0  0  0  0  0
  1 17  1  0  0  0  0
  2 11  1  0  0  0  0
  3  2  1  0  0  0  0
  4  3  1  0  0  0  0
  5  3  1  0  0  0  0
  5  7  2  0  0  0  0
  6  5  1  0  0  0  0
  7  9  1  0  0  0  0
  8  7  1  0  0  0  0
  9 11  2  0  0  0  0
  9 10  1  0  0  0  0
 11 12  1  0  0  0  0
 12 13  2  0  0  0  0
 12  1  1  0  0  0  0
 13 15  1  0  0  0  0
 14 13  1  0  0  0  0
 15 17  2  0  0  0  0
 15 16  1  0  0  0  0
 17 18  1  0  0  0  0
M  END
