1
 OpenBabel05122313063D

 14 14  0  0  0  0  0  0  0  0999 V2000
   -0.5908    1.3334   -1.3715 N   0  0  0  0  0  2  0  0  0  0  0  0
   -1.6459    2.0992   -1.1995 N   0  0  0  0  0  2  0  0  0  0  0  0
   -0.0537    1.5910   -2.6119 C   0  0  0  0  0  0  0  0  0  0  0  0
   -1.7324    2.7958   -2.3225 N   0  0  0  0  0  0  0  0  0  0  0  0
   -0.7938    2.5293   -3.2238 N   0  0  0  0  0  0  0  0  0  0  0  0
    1.1239    0.9283   -3.1524 C   0  0  0  0  0  0  0  0  0  0  0  0
   -2.7804    3.7748   -2.5380 C   0  0  0  0  0  0  0  0  0  0  0  0
    1.5519    1.1040   -4.4187 C   0  0  0  0  0  0  0  0  0  0  0  0
    1.6567    0.2897   -2.4309 H   0  0  0  0  0  0  0  0  0  0  0  0
   -3.4135    3.7871   -1.6346 H   0  0  0  0  0  0  0  0  0  0  0  0
   -2.3278    4.7699   -2.7073 H   0  0  0  0  0  0  0  0  0  0  0  0
   -3.3780    3.4851   -3.4228 H   0  0  0  0  0  0  0  0  0  0  0  0
    2.4541    0.5908   -4.7818 H   0  0  0  0  0  0  0  0  0  0  0  0
    1.0163    1.7636   -5.1194 H   0  0  0  0  0  0  0  0  0  0  0  0
  1  2  1  0  0  0  0
  3  1  1  0  0  0  0
  4  2  1  0  0  0  0
  5  3  2  0  0  0  0
  5  4  1  0  0  0  0
  6  3  1  0  0  0  0
  6  9  1  0  0  0  0
  7  4  1  0  0  0  0
  7 10  1  0  0  0  0
  8  6  2  0  0  0  0
 11  7  1  0  0  0  0
 12  7  1  0  0  0  0
 13  8  1  0  0  0  0
 14  8  1  0  0  0  0
M  END
