4
 OpenBabel05122313063D

 31 34  0  0  0  0  0  0  0  0999 V2000
   -2.5389   -1.4023    1.3217 N   0  0  0  0  0  0  0  0  0  0  0  0
   -1.4148   -2.1741    1.4015 N   0  0  0  0  0  0  0  0  0  0  0  0
   -2.5576    0.9568    0.8439 N   0  0  0  0  0  0  0  0  0  0  0  0
   -1.5418    1.0501   -0.0600 N   0  0  0  0  0  2  0  0  0  0  0  0
   -1.6607   -3.2726    0.6985 C   0  0  0  0  0  0  0  0  0  0  0  0
   -0.8901   -4.0487    0.6119 H   0  0  0  0  0  0  0  0  0  0  0  0
   -2.9665   -3.2378    0.1086 C   0  0  0  0  0  0  0  0  0  0  0  0
   -3.7348   -4.0867   -0.7175 C   0  0  0  0  0  0  0  0  0  0  0  0
   -3.3326   -5.0526   -1.0573 H   0  0  0  0  0  0  0  0  0  0  0  0
   -5.0099   -3.6654   -1.0983 C   0  0  0  0  0  0  0  0  0  0  0  0
   -5.6256   -4.3066   -1.7466 H   0  0  0  0  0  0  0  0  0  0  0  0
   -5.5288   -2.4155   -0.6707 C   0  0  0  0  0  0  0  0  0  0  0  0
   -6.5348   -2.1123   -0.9979 H   0  0  0  0  0  0  0  0  0  0  0  0
   -4.7927   -1.5545    0.1477 C   0  0  0  0  0  0  0  0  0  0  0  0
   -5.1996   -0.5821    0.4585 H   0  0  0  0  0  0  0  0  0  0  0  0
   -3.5087   -1.9870    0.5328 C   0  0  0  0  0  0  0  0  0  0  0  0
   -1.8537    1.9752   -0.9664 C   0  0  0  0  0  0  0  0  0  0  0  0
   -1.1462    2.1767   -1.7787 H   0  0  0  0  0  0  0  0  0  0  0  0
   -3.1297    2.5325   -0.6571 C   0  0  0  0  0  0  0  0  0  0  0  0
   -3.9621    3.5205   -1.2316 C   0  0  0  0  0  3  0  0  0  0  0  0
   -3.6444    4.0602   -2.1357 H   0  0  0  0  0  0  0  0  0  0  0  0
   -5.1901    3.7870   -0.6276 C   0  0  0  0  0  0  0  0  0  0  0  0
   -5.8558    4.5497   -1.0575 H   0  0  0  0  0  0  0  0  0  0  0  0
   -5.6011    3.0900    0.5397 C   0  0  0  0  0  0  0  0  0  0  0  0
   -6.5757    3.3286    0.9912 H   0  0  0  0  0  0  0  0  0  0  0  0
   -4.7999    2.1127    1.1345 C   0  0  0  0  0  0  0  0  0  0  0  0
   -5.1259    1.5899    2.0450 H   0  0  0  0  0  0  0  0  0  0  0  0
   -3.5602    1.8414    0.5205 C   0  0  0  0  0  0  0  0  0  0  0  0
   -2.5278   -0.0707    1.8714 C   0  0  0  0  0  0  0  0  0  0  0  0
   -1.5899    0.0364    2.4550 H   0  0  0  0  0  0  0  0  0  0  0  0
   -3.4108    0.1006    2.5180 H   0  0  0  0  0  0  0  0  0  0  0  0
  1  2  1  0  0  0  0
  1 29  1  0  0  0  0
  3 29  1  0  0  0  0
  4  3  1  0  0  0  0
  5  2  2  0  0  0  0
  6  5  1  0  0  0  0
  7 16  1  0  0  0  0
  7  5  1  0  0  0  0
  8  7  2  0  0  0  0
  9  8  1  0  0  0  0
 10  8  1  0  0  0  0
 10 12  2  0  0  0  0
 11 10  1  0  0  0  0
 12 14  1  0  0  0  0
 13 12  1  0  0  0  0
 14 15  1  0  0  0  0
 14 16  2  0  0  0  0
 16  1  1  0  0  0  0
 17 19  2  0  0  0  0
 17  4  1  0  0  0  0
 18 17  1  0  0  0  0
 19 28  1  0  0  0  0
 20 19  1  0  0  0  0
 20 22  1  0  0  0  0
 21 20  1  0  0  0  0
 22 24  2  0  0  0  0
 23 22  1  0  0  0  0
 24 25  1  0  0  0  0
 24 26  1  0  0  0  0
 26 27  1  0  0  0  0
 28  3  1  0  0  0  0
 28 26  2  0  0  0  0
 29 30  1  0  0  0  0
 29 31  1  0  0  0  0
M  END
