1
 OpenBabel05122313063D

 13 13  0  0  0  0  0  0  0  0999 V2000
   -0.6564    2.2614   -0.9770 N   0  0  0  0  0  2  0  0  0  0  0  0
   -1.8585    4.7920   -0.8245 N   0  0  0  0  0  0  0  0  0  0  0  0
   -1.4241    4.1619    0.2861 C   0  0  0  0  0  0  0  0  0  0  0  0
   -0.8178    2.8932    0.2013 C   0  0  0  0  0  3  0  0  0  0  0  0
   -1.0878    2.8919   -2.0882 C   0  0  0  0  0  0  0  0  0  0  0  0
   -1.6845    4.1569   -1.9932 C   0  0  0  0  0  0  0  0  0  0  0  0
   -1.6189    4.8516    1.6068 C   0  0  0  0  0  0  0  0  0  0  0  0
   -0.4681    2.3659    1.1023 H   0  0  0  0  0  0  0  0  0  0  0  0
   -0.9343    2.3471   -3.0376 H   0  0  0  0  0  0  0  0  0  0  0  0
   -2.0361    4.6722   -2.9046 H   0  0  0  0  0  0  0  0  0  0  0  0
   -1.1505    4.2899    2.4362 H   0  0  0  0  0  0  0  0  0  0  0  0
   -2.7022    4.9496    1.8241 H   0  0  0  0  0  0  0  0  0  0  0  0
   -1.2018    5.8777    1.5692 H   0  0  0  0  0  0  0  0  0  0  0  0
  1  4  1  0  0  0  0
  2  3  2  0  0  0  0
  3  7  1  0  0  0  0
  4  3  1  0  0  0  0
  4  8  1  0  0  0  0
  5  6  2  0  0  0  0
  5  1  1  0  0  0  0
  6  2  1  0  0  0  0
  7 12  1  0  0  0  0
  7 11  1  0  0  0  0
  9  5  1  0  0  0  0
 10  6  1  0  0  0  0
 13  7  1  0  0  0  0
M  END
