2
 OpenBabel05122313063D

 14 14  0  0  0  0  0  0  0  0999 V2000
   -3.5235    2.0818    0.7193 Cl  0  0  0  0  0  0  0  0  0  0  0  0
   -2.7412    0.3450   -1.5954 N   0  0  0  0  0  0  0  0  0  0  0  0
   -2.6969    1.3786   -1.6397 H   0  0  0  0  0  0  0  0  0  0  0  0
   -2.7321   -0.0477   -2.5441 H   0  0  0  0  0  0  0  0  0  0  0  0
   -3.8200   -0.1530   -0.8165 C   0  0  0  0  0  0  0  0  0  0  0  0
   -4.4099   -1.3952   -1.1137 C   0  0  0  0  0  0  0  0  0  0  0  0
   -4.0277   -1.9709   -1.9689 H   0  0  0  0  0  0  0  0  0  0  0  0
   -5.4454   -1.9010   -0.3196 C   0  0  0  0  0  0  0  0  0  0  0  0
   -5.8921   -2.8747   -0.5678 H   0  0  0  0  0  0  0  0  0  0  0  0
   -5.9008   -1.1759    0.7927 C   0  0  0  0  0  0  0  0  0  0  0  0
   -6.7127   -1.5700    1.4213 H   0  0  0  0  0  0  0  0  0  0  0  0
   -5.3141    0.0568    1.1113 C   0  0  0  0  0  0  0  0  0  0  0  0
   -5.6478    0.6410    1.9800 H   0  0  0  0  0  0  0  0  0  0  0  0
   -4.2768    0.5593    0.3141 C   0  0  0  0  0  0  0  0  0  0  0  0
  2  5  1  0  0  0  0
  3  2  1  0  0  0  0
  4  2  1  0  0  0  0
  5 14  1  0  0  0  0
  6  5  2  0  0  0  0
  6  8  1  0  0  0  0
  7  6  1  0  0  0  0
  8 10  2  0  0  0  0
  9  8  1  0  0  0  0
 10 12  1  0  0  0  0
 10 11  1  0  0  0  0
 12 13  1  0  0  0  0
 14  1  1  0  0  0  0
 14 12  2  0  0  0  0
M  END
