2
 OpenBabel05122313063D

 43 44  0  0  0  0  0  0  0  0999 V2000
    2.0012   -2.2210   -1.3023 Si  0  0  0  0  0  0  0  0  0  0  0  0
   -0.7040    0.2658   -1.1015 N   0  0  0  0  0  2  0  0  0  0  0  0
   -0.0501   -0.4904   -0.2980 C   0  0  0  0  0  2  0  0  0  0  0  0
    1.3759   -0.7731   -0.2008 C   0  0  0  0  0  0  0  0  0  0  0  0
    2.1359    0.0808    0.5572 C   0  0  0  0  0  0  0  0  0  0  0  0
    3.5585   -0.0073    0.9078 C   0  0  0  0  0  0  0  0  0  0  0  0
    4.1963   -1.2296    1.2230 C   0  0  0  0  0  0  0  0  0  0  0  0
    5.5580   -1.2688    1.5505 C   0  0  0  0  0  0  0  0  0  0  0  0
    6.3130   -0.0848    1.5802 C   0  0  0  0  0  0  0  0  0  0  0  0
    5.6876    1.1422    1.3007 C   0  0  0  0  0  0  0  0  0  0  0  0
    4.3249    1.1822    0.9816 C   0  0  0  0  0  0  0  0  0  0  0  0
    0.8218   -2.3536   -2.7820 C   0  0  0  0  0  0  0  0  0  0  0  0
    1.9926   -3.8782   -0.3808 C   0  0  0  0  0  0  0  0  0  0  0  0
    3.7108   -1.8351   -2.0115 C   0  0  0  0  0  0  0  0  0  0  0  0
   -0.2198    1.1498   -2.1631 C   0  0  0  0  0  0  0  0  0  0  0  0
    0.1388    2.5093   -1.5971 C   0  0  0  0  0  0  0  0  0  0  0  0
    1.4858    2.8819   -1.4247 C   0  0  0  0  0  0  0  0  0  0  0  0
    1.8157    4.1144   -0.8395 C   0  0  0  0  0  0  0  0  0  0  0  0
    0.7991    4.9844   -0.4132 C   0  0  0  0  0  0  0  0  0  0  0  0
   -0.5465    4.6192   -0.5852 C   0  0  0  0  0  0  0  0  0  0  0  0
   -0.8780    3.3899   -1.1749 C   0  0  0  0  0  0  0  0  0  0  0  0
    1.6391    0.9894    0.9457 H   0  0  0  0  0  0  0  0  0  0  0  0
    3.6002   -2.1529    1.2421 H   0  0  0  0  0  0  0  0  0  0  0  0
    6.0319   -2.2309    1.7991 H   0  0  0  0  0  0  0  0  0  0  0  0
    7.3822   -0.1157    1.8389 H   0  0  0  0  0  0  0  0  0  0  0  0
    6.2678    2.0769    1.3379 H   0  0  0  0  0  0  0  0  0  0  0  0
    3.8343    2.1454    0.7693 H   0  0  0  0  0  0  0  0  0  0  0  0
   -0.2386   -2.4802   -2.4922 H   0  0  0  0  0  0  0  0  0  0  0  0
    0.8884   -1.4559   -3.4292 H   0  0  0  0  0  0  0  0  0  0  0  0
    1.1124   -3.2291   -3.3988 H   0  0  0  0  0  0  0  0  0  0  0  0
    2.7408   -3.9085    0.4356 H   0  0  0  0  0  0  0  0  0  0  0  0
    1.0015   -4.0950    0.0663 H   0  0  0  0  0  0  0  0  0  0  0  0
    2.2313   -4.6997   -1.0879 H   0  0  0  0  0  0  0  0  0  0  0  0
    3.7203   -0.8196   -2.4574 H   0  0  0  0  0  0  0  0  0  0  0  0
    4.5221   -1.8835   -1.2621 H   0  0  0  0  0  0  0  0  0  0  0  0
    3.9339   -2.5638   -2.8186 H   0  0  0  0  0  0  0  0  0  0  0  0
   -1.0367    1.2428   -2.9061 H   0  0  0  0  0  0  0  0  0  0  0  0
    0.6682    0.6958   -2.6508 H   0  0  0  0  0  0  0  0  0  0  0  0
    2.2840    2.1936   -1.7447 H   0  0  0  0  0  0  0  0  0  0  0  0
    2.8730    4.3971   -0.7177 H   0  0  0  0  0  0  0  0  0  0  0  0
    1.0560    5.9494    0.0498 H   0  0  0  0  0  0  0  0  0  0  0  0
   -1.3477    5.2985   -0.2557 H   0  0  0  0  0  0  0  0  0  0  0  0
   -1.9310    3.0852   -1.2925 H   0  0  0  0  0  0  0  0  0  0  0  0
  1 13  1  0  0  0  0
  1  4  1  0  0  0  0
  2  3  1  0  0  0  0
  3  4  1  0  0  0  0
  4  5  2  0  0  0  0
  5  6  1  0  0  0  0
  5 22  1  0  0  0  0
  6 11  2  0  0  0  0
  6  7  1  0  0  0  0
  7 23  1  0  0  0  0
  7  8  2  0  0  0  0
  8  9  1  0  0  0  0
  8 24  1  0  0  0  0
  9 25  1  0  0  0  0
 10 26  1  0  0  0  0
 10  9  2  0  0  0  0
 11 10  1  0  0  0  0
 12 28  1  0  0  0  0
 12  1  1  0  0  0  0
 13 32  1  0  0  0  0
 13 31  1  0  0  0  0
 14  1  1  0  0  0  0
 14 35  1  0  0  0  0
 15 16  1  0  0  0  0
 15  2  1  0  0  0  0
 16 17  2  0  0  0  0
 16 21  1  0  0  0  0
 17 18  1  0  0  0  0
 18 40  1  0  0  0  0
 18 19  2  0  0  0  0
 19 41  1  0  0  0  0
 20 19  1  0  0  0  0
 20 42  1  0  0  0  0
 21 20  2  0  0  0  0
 27 11  1  0  0  0  0
 29 12  1  0  0  0  0
 30 12  1  0  0  0  0
 33 13  1  0  0  0  0
 34 14  1  0  0  0  0
 36 14  1  0  0  0  0
 37 15  1  0  0  0  0
 38 15  1  0  0  0  0
 39 17  1  0  0  0  0
 43 21  1  0  0  0  0
M  END
