2
 OpenBabel05122313063D

 18 18  0  0  0  0  0  0  0  0999 V2000
    0.5664    0.2224    1.1310 S   0  0  0  0  0  1  0  0  0  0  0  0
    0.0560   -1.5809   -1.0792 N   0  0  0  0  0  2  0  0  0  0  0  0
   -0.1832   -2.0117   -1.9736 H   0  0  0  0  0  0  0  0  0  0  0  0
    1.3534   -1.6063   -0.7346 C   0  0  0  0  0  0  0  0  0  0  0  0
    2.3542   -2.3782   -1.4353 C   0  0  0  0  0  0  0  0  0  0  0  0
    3.9996   -1.7375    0.2604 C   0  0  0  0  0  0  0  0  0  0  0  0
    1.7800   -0.8593    0.4146 C   0  0  0  0  0  0  0  0  0  0  0  0
    5.6300   -1.2208    1.8156 O   0  0  0  0  0  0  0  0  0  0  0  0
    6.1602   -2.5482    0.1560 O   0  0  0  0  0  0  0  0  0  0  0  0
    3.6442   -2.4304   -0.9204 C   0  0  0  0  0  0  0  0  0  0  0  0
    4.4255   -3.0222   -1.4176 H   0  0  0  0  0  0  0  0  0  0  0  0
    3.0714   -0.9396    0.9357 C   0  0  0  0  0  0  0  0  0  0  0  0
    3.3847   -0.3890    1.8322 H   0  0  0  0  0  0  0  0  0  0  0  0
    5.3600   -1.8425    0.7811 N   0  0  0  0  0  0  0  0  0  0  0  0
    1.9590   -3.1169   -2.6831 C   0  0  0  0  0  0  0  0  0  0  0  0
    2.8189   -3.6561   -3.1217 H   0  0  0  0  0  0  0  0  0  0  0  0
    1.5632   -2.4230   -3.4573 H   0  0  0  0  0  0  0  0  0  0  0  0
    1.1587   -3.8631   -2.4796 H   0  0  0  0  0  0  0  0  0  0  0  0
  2  4  1  0  0  0  0
  3  2  1  0  0  0  0
  4  7  1  0  0  0  0
  5 10  1  0  0  0  0
  5  4  2  0  0  0  0
  6 14  1  0  0  0  0
  6 12  1  0  0  0  0
  7 12  2  0  0  0  0
  7  1  1  0  0  0  0
  9 14  2  0  0  0  0
 10  6  2  0  0  0  0
 11 10  1  0  0  0  0
 12 13  1  0  0  0  0
 14  8  2  0  0  0  0
 15 18  1  0  0  0  0
 15  5  1  0  0  0  0
 16 15  1  0  0  0  0
 17 15  1  0  0  0  0
M  END
