2
 OpenBabel05122313063D

 16 16  0  0  0  0  0  0  0  0999 V2000
    0.6630    0.0851    1.1726 S   0  0  0  0  0  1  0  0  0  0  0  0
   -0.0681   -1.6928   -1.0095 N   0  0  0  0  0  2  0  0  0  0  0  0
   -0.2970   -1.9804   -1.9630 H   0  0  0  0  0  0  0  0  0  0  0  0
    5.4312   -2.6415    1.0348 Cl  0  0  0  0  0  0  0  0  0  0  0  0
    1.7264   -1.1631    0.4983 C   0  0  0  0  0  0  0  0  0  0  0  0
    2.9984   -1.4021    1.0487 C   0  0  0  0  0  0  0  0  0  0  0  0
    3.3324   -0.8708    1.9499 H   0  0  0  0  0  0  0  0  0  0  0  0
    1.2275   -1.8531   -0.6471 C   0  0  0  0  0  0  0  0  0  0  0  0
    2.1385   -2.7377   -1.3253 C   0  0  0  0  0  0  0  0  0  0  0  0
    3.4097   -2.9469   -0.7881 C   0  0  0  0  0  0  0  0  0  0  0  0
    4.1021   -3.6363   -1.2939 H   0  0  0  0  0  0  0  0  0  0  0  0
    3.8368   -2.3074    0.3987 C   0  0  0  0  0  0  0  0  0  0  0  0
    1.6808   -3.4312   -2.5776 C   0  0  0  0  0  0  0  0  0  0  0  0
    2.4727   -4.0790   -2.9977 H   0  0  0  0  0  0  0  0  0  0  0  0
    1.3909   -2.6988   -3.3636 H   0  0  0  0  0  0  0  0  0  0  0  0
    0.7860   -4.0641   -2.3850 H   0  0  0  0  0  0  0  0  0  0  0  0
  2  8  1  0  0  0  0
  3  2  1  0  0  0  0
  5  6  1  0  0  0  0
  5  1  1  0  0  0  0
  6  7  1  0  0  0  0
  8  5  2  0  0  0  0
  9 10  2  0  0  0  0
  9  8  1  0  0  0  0
 10 12  1  0  0  0  0
 11 10  1  0  0  0  0
 12  4  1  0  0  0  0
 12  6  2  0  0  0  0
 13 16  1  0  0  0  0
 13  9  1  0  0  0  0
 14 13  1  0  0  0  0
 15 13  1  0  0  0  0
M  END
