2
 OpenBabel05122313063D

 13 14  0  0  1  0  0  0  0  0999 V2000
    1.9936    2.3555    0.0583 S   0  0  0  0  0  0  0  0  0  0  0  0
    1.3023    0.8122    0.0595 N   0  0  0  0  0  2  0  0  0  0  0  0
    0.7568   -1.7949   -0.0042 O   0  5  0  0  0  0  0  0  0  0  0  0
    2.3178   -0.0615    0.0582 C   0  0  1  0  0  3  0  0  0  0  0  0
    2.0266   -1.4640    0.0269 C   0  0  0  0  0  0  0  0  0  0  0  0
    3.1619   -2.2919    0.0443 C   0  0  0  0  0  0  0  0  0  0  0  0
    3.0391   -3.3837    0.0188 H   0  0  0  0  0  0  0  0  0  0  0  0
    4.4677   -1.7159    0.0772 C   0  0  0  0  0  0  0  0  0  0  0  0
    5.3210   -2.4128    0.0818 H   0  0  0  0  0  0  0  0  0  0  0  0
    4.7462   -0.3462    0.0950 C   0  0  0  0  0  0  0  0  0  0  0  0
    5.7719    0.0423    0.1084 H   0  0  0  0  0  0  0  0  0  0  0  0
    3.6287    0.5346    0.0842 C   0  0  0  0  0  0  0  0  0  0  0  0
    3.5729    1.8916    0.0938 N   0  0  0  0  0  0  0  0  0  0  0  0
  1  2  1  0  0  0  0
  1 13  1  0  0  0  0
  3  5  1  0  0  0  0
  4  5  1  6  0  0  0
  4  2  1  0  0  0  0
  4 12  1  0  0  0  0
  5  6  2  0  0  0  0
  6  8  1  0  0  0  0
  7  6  1  0  0  0  0
  8  9  1  0  0  0  0
  8 10  2  0  0  0  0
 10 11  1  0  0  0  0
 12 13  2  0  0  0  0
 12 10  1  0  0  0  0
M  CHG  1   3  -1
M  END
