20
 OpenBabel05122313063D

 24 24  0  0  0  0  0  0  0  0999 V2000
   -0.6166   -0.2650   -0.9046 Se  0  0  0  0  0  0  0  0  0  0  0  0
   -0.9556    1.6983   -1.0090 C   0  0  0  0  0  0  0  0  0  0  0  0
   -0.7930    1.9528   -2.0763 H   0  0  0  0  0  0  0  0  0  0  0  0
   -2.0228    1.8779   -0.7702 H   0  0  0  0  0  0  0  0  0  0  0  0
   -5.0430    1.0378    0.9932 C   0  0  0  0  0  0  0  0  0  0  0  0
   -5.4852    1.9451    1.4318 H   0  0  0  0  0  0  0  0  0  0  0  0
   -0.0236    2.4771   -0.0880 C   0  0  0  0  0  0  0  0  0  0  0  0
   -0.1266    3.5686   -0.2823 H   0  0  0  0  0  0  0  0  0  0  0  0
   -0.2911    2.2978    0.9721 H   0  0  0  0  0  0  0  0  0  0  0  0
   -1.6319   -0.6546    0.7957 C   0  0  0  0  0  0  0  0  0  0  0  0
   -1.3574   -1.7164    0.9532 H   0  0  0  0  0  0  0  0  0  0  0  0
   -1.1539   -0.0520    1.5892 H   0  0  0  0  0  0  0  0  0  0  0  0
   -3.6779    0.7685    1.1750 C   0  0  0  0  0  0  0  0  0  0  0  0
   -3.0554    1.4604    1.7655 H   0  0  0  0  0  0  0  0  0  0  0  0
   -3.0923   -0.3964    0.6326 C   0  0  0  0  0  0  0  0  0  0  0  0
   -5.2715   -1.0147   -0.2852 C   0  0  0  0  0  0  0  0  0  0  0  0
   -5.8955   -1.7195   -0.8553 H   0  0  0  0  0  0  0  0  0  0  0  0
   -5.8429    0.1475    0.2606 C   0  0  0  0  0  0  0  0  0  0  0  0
   -6.9140    0.3557    0.1183 H   0  0  0  0  0  0  0  0  0  0  0  0
    1.3846    2.0394   -0.2623 N   0  0  0  0  0  0  0  0  0  0  0  0
    2.0290    2.4434    0.4416 H   0  0  0  0  0  0  0  0  0  0  0  0
    1.7510    2.3236   -1.1850 H   0  0  0  0  0  0  0  0  0  0  0  0
   -3.9090   -1.2838   -0.1030 C   0  0  0  0  0  0  0  0  0  0  0  0
   -3.4648   -2.1950   -0.5335 H   0  0  0  0  0  0  0  0  0  0  0  0
  1 10  1  0  0  0  0
  2  1  1  0  0  0  0
  2  4  1  0  0  0  0
  2  7  1  0  0  0  0
  3  2  1  0  0  0  0
  5 13  1  0  0  0  0
  5  6  1  0  0  0  0
  7  9  1  0  0  0  0
  8  7  1  0  0  0  0
 10 11  1  0  0  0  0
 10 12  1  0  0  0  0
 13 14  1  0  0  0  0
 15 10  1  0  0  0  0
 15 13  2  0  0  0  0
 16 23  2  0  0  0  0
 16 18  1  0  0  0  0
 17 16  1  0  0  0  0
 18  5  2  0  0  0  0
 19 18  1  0  0  0  0
 20  7  1  0  0  0  0
 20 21  1  0  0  0  0
 22 20  1  0  0  0  0
 23 15  1  0  0  0  0
 24 23  1  0  0  0  0
M  END
