2
 OpenBabel05122313063D

 24 24  0  0  0  0  0  0  0  0999 V2000
    0.1411    2.5316    0.0189 O   0  0  0  0  0  1  0  0  0  0  0  0
   -0.0541    1.3103    0.1159 N   0  0  0  0  0  2  0  0  0  0  0  0
   -5.1794   -0.9852   -0.1678 N   0  0  0  0  0  0  0  0  0  0  0  0
   -1.3724    0.8158    0.0251 C   0  0  0  0  0  0  0  0  0  0  0  0
   -1.5326   -0.5762    0.2374 C   0  0  0  0  0  0  0  0  0  0  0  0
   -2.7719   -1.1870    0.1757 C   0  0  0  0  0  0  0  0  0  0  0  0
   -3.9359   -0.4089   -0.1069 C   0  0  0  0  0  0  0  0  0  0  0  0
   -3.7620    0.9921   -0.3196 C   0  0  0  0  0  0  0  0  0  0  0  0
   -2.5200    1.6280   -0.2574 C   0  0  0  0  0  0  0  0  0  0  0  0
   -2.4509    3.1114   -0.4935 C   0  0  0  0  0  0  0  0  0  0  0  0
   -5.3332   -2.4120    0.0632 C   0  0  0  0  0  0  0  0  0  0  0  0
   -6.3536   -0.1738   -0.4392 C   0  0  0  0  0  0  0  0  0  0  0  0
   -0.6236   -1.1556    0.4739 H   0  0  0  0  0  0  0  0  0  0  0  0
   -2.8441   -2.2655    0.3607 H   0  0  0  0  0  0  0  0  0  0  0  0
   -4.6346    1.6198   -0.5415 H   0  0  0  0  0  0  0  0  0  0  0  0
   -1.7481    3.3600   -1.3130 H   0  0  0  0  0  0  0  0  0  0  0  0
   -2.0536    3.6410    0.3947 H   0  0  0  0  0  0  0  0  0  0  0  0
   -3.4549    3.5099   -0.7389 H   0  0  0  0  0  0  0  0  0  0  0  0
   -6.3990   -2.6843   -0.0324 H   0  0  0  0  0  0  0  0  0  0  0  0
   -4.7583   -3.0138   -0.6739 H   0  0  0  0  0  0  0  0  0  0  0  0
   -4.9932   -2.7059    1.0804 H   0  0  0  0  0  0  0  0  0  0  0  0
   -6.2892    0.3296   -1.4287 H   0  0  0  0  0  0  0  0  0  0  0  0
   -7.2497   -0.8191   -0.4440 H   0  0  0  0  0  0  0  0  0  0  0  0
   -6.5015    0.6129    0.3328 H   0  0  0  0  0  0  0  0  0  0  0  0
  1  2  1  0  0  0  0
  3  7  1  0  0  0  0
  3 11  1  0  0  0  0
  4  2  1  0  0  0  0
  4  5  1  0  0  0  0
  5 13  1  0  0  0  0
  6  5  2  0  0  0  0
  6 14  1  0  0  0  0
  7  6  1  0  0  0  0
  8  9  1  0  0  0  0
  8  7  2  0  0  0  0
  9  4  2  0  0  0  0
 10  9  1  0  0  0  0
 10 17  1  0  0  0  0
 11 21  1  0  0  0  0
 12  3  1  0  0  0  0
 12 24  1  0  0  0  0
 15  8  1  0  0  0  0
 16 10  1  0  0  0  0
 18 10  1  0  0  0  0
 19 11  1  0  0  0  0
 20 11  1  0  0  0  0
 22 12  1  0  0  0  0
 23 12  1  0  0  0  0
M  END
