2
 OpenBabel05122313063D

 14 13  0  0  0  0  0  0  0  0999 V2000
   -4.0137    0.1788   -0.2634 O   0  0  0  0  0  0  0  0  0  0  0  0
   -1.4679    0.9813   -1.0608 N   0  0  0  0  0  0  0  0  0  0  0  0
   -2.0506    0.2447   -1.4981 H   0  0  0  0  0  0  0  0  0  0  0  0
   -0.9974    1.5206   -1.8001 H   0  0  0  0  0  0  0  0  0  0  0  0
   -2.3536    1.8521   -0.2542 C   0  0  0  0  0  0  0  0  0  0  0  0
   -1.7211    2.5216    0.3604 H   0  0  0  0  0  0  0  0  0  0  0  0
   -2.9874    2.4700   -0.9278 H   0  0  0  0  0  0  0  0  0  0  0  0
   -3.2468    0.9816    0.6107 C   0  0  0  0  0  0  0  0  0  0  0  0
   -3.8941    1.6218    1.2597 H   0  0  0  0  0  0  0  0  0  0  0  0
   -2.6091    0.3510    1.2772 H   0  0  0  0  0  0  0  0  0  0  0  0
   -4.5607   -0.9692    0.3553 C   0  0  0  0  0  0  0  0  0  0  0  0
   -5.1506   -1.5069   -0.4120 H   0  0  0  0  0  0  0  0  0  0  0  0
   -3.7577   -1.6462    0.7275 H   0  0  0  0  0  0  0  0  0  0  0  0
   -5.2397   -0.7014    1.2003 H   0  0  0  0  0  0  0  0  0  0  0  0
  1 11  1  0  0  0  0
  1  8  1  0  0  0  0
  2  5  1  0  0  0  0
  3  2  1  0  0  0  0
  4  2  1  0  0  0  0
  5  6  1  0  0  0  0
  5  8  1  0  0  0  0
  7  5  1  0  0  0  0
  8  9  1  0  0  0  0
  8 10  1  0  0  0  0
 11 13  1  0  0  0  0
 11 14  1  0  0  0  0
 12 11  1  0  0  0  0
M  END
