5
 OpenBabel05122313063D

 19 19  0  0  0  0  0  0  0  0999 V2000
   -0.7668   -2.7060    0.0242 S   0  0  0  0  0  0  0  0  0  0  0  0
   -1.2491   -0.8328   -2.0557 S   0  0  0  0  0  1  0  0  0  0  0  0
    0.3202   -3.0916    0.9555 O   0  0  0  0  0  0  0  0  0  0  0  0
   -1.2530   -3.6854   -0.9820 O   0  0  0  0  0  0  0  0  0  0  0  0
   -0.2386   -1.2787   -0.7570 N   0  0  0  0  0  2  0  0  0  0  0  0
   -2.1667   -2.1205    0.9687 C   0  0  0  0  0  0  0  0  0  0  0  0
   -3.0323   -0.8748    2.8393 C   0  0  0  0  0  0  0  0  0  0  0  0
   -2.8636   -0.3071    3.7678 H   0  0  0  0  0  0  0  0  0  0  0  0
   -3.4613   -2.3315    0.4761 C   0  0  0  0  0  0  0  0  0  0  0  0
   -3.6015   -2.9112   -0.4469 H   0  0  0  0  0  0  0  0  0  0  0  0
   -1.9335   -1.4035    2.1542 C   0  0  0  0  0  0  0  0  0  0  0  0
   -0.9062   -1.2617    2.5244 H   0  0  0  0  0  0  0  0  0  0  0  0
   -4.3514   -1.0465    2.3616 C   0  0  0  0  0  0  0  0  0  0  0  0
   -5.5141   -0.4175    3.0837 C   0  0  0  0  0  0  0  0  0  0  0  0
   -6.4760   -0.8887    2.8036 H   0  0  0  0  0  0  0  0  0  0  0  0
   -5.5882    0.6628    2.8336 H   0  0  0  0  0  0  0  0  0  0  0  0
   -5.3975   -0.4867    4.1836 H   0  0  0  0  0  0  0  0  0  0  0  0
   -4.5460   -1.7931    1.1816 C   0  0  0  0  0  0  0  0  0  0  0  0
   -5.5681   -1.9499    0.8031 H   0  0  0  0  0  0  0  0  0  0  0  0
  1  3  2  0  0  0  0
  1  6  1  0  0  0  0
  2  5  1  0  0  0  0
  4  1  2  0  0  0  0
  5  1  1  0  0  0  0
  6 11  1  0  0  0  0
  7  8  1  0  0  0  0
  9  6  2  0  0  0  0
  9 18  1  0  0  0  0
 10  9  1  0  0  0  0
 11 12  1  0  0  0  0
 11  7  2  0  0  0  0
 13  7  1  0  0  0  0
 13 14  1  0  0  0  0
 14 17  1  0  0  0  0
 15 14  1  0  0  0  0
 16 14  1  0  0  0  0
 18 13  2  0  0  0  0
 19 18  1  0  0  0  0
M  END
