6
 OpenBabel05122313063D

 24 25  0  0  0  0  0  0  0  0999 V2000
   -2.4004    1.0437   -0.6027 N   0  0  0  0  0  0  0  0  0  0  0  0
   -3.5948   -1.0081   -0.0330 N   0  0  0  0  0  0  0  0  0  0  0  0
   -3.5294    1.9137   -0.9113 C   0  0  0  0  0  0  0  0  0  0  0  0
   -4.2552    1.3102   -1.4942 H   0  0  0  0  0  0  0  0  0  0  0  0
   -3.1614    2.7254   -1.5715 H   0  0  0  0  0  0  0  0  0  0  0  0
   -0.3025    0.3511   -0.2073 N   0  0  0  0  0  2  0  0  0  0  0  0
   -1.0094   -2.0255    0.5147 C   0  0  0  0  0  0  0  0  0  0  0  0
   -0.0187   -2.4518    0.7590 H   0  0  0  0  0  0  0  0  0  0  0  0
   -2.4946   -0.2778   -0.1830 C   0  0  0  0  0  0  0  0  0  0  0  0
   -4.3695   -3.1111    0.5642 N   0  0  0  0  0  0  0  0  0  0  0  0
   -5.3161   -2.7824    0.3932 H   0  0  0  0  0  0  0  0  0  0  0  0
   -4.1894   -4.0524    0.9043 H   0  0  0  0  0  0  0  0  0  0  0  0
   -2.0870   -2.7924    0.6726 N   0  0  0  0  0  0  0  0  0  0  0  0
   -1.1656   -0.7012    0.0604 C   0  0  0  0  0  0  0  0  0  0  0  0
   -4.2033    2.4814    0.3423 C   0  0  0  0  0  0  0  0  0  0  0  0
   -4.5316    1.6298    0.9744 H   0  0  0  0  0  0  0  0  0  0  0  0
   -3.4489    3.0440    0.9333 H   0  0  0  0  0  0  0  0  0  0  0  0
   -1.0639    1.3673   -0.5905 C   0  0  0  0  0  3  0  0  0  0  0  0
   -0.6832    2.3557   -0.8779 H   0  0  0  0  0  0  0  0  0  0  0  0
   -3.3191   -2.2676    0.3915 C   0  0  0  0  0  0  0  0  0  0  0  0
   -5.3913    3.3786   -0.0009 C   0  0  0  0  0  0  0  0  0  0  0  0
   -5.8687    3.7763    0.9158 H   0  0  0  0  0  0  0  0  0  0  0  0
   -6.1676    2.8239   -0.5676 H   0  0  0  0  0  0  0  0  0  0  0  0
   -5.0830    4.2468   -0.6197 H   0  0  0  0  0  0  0  0  0  0  0  0
  1 18  1  0  0  0  0
  1  9  1  0  0  0  0
  2 20  1  0  0  0  0
  3  1  1  0  0  0  0
  3 15  1  0  0  0  0
  4  3  1  0  0  0  0
  5  3  1  0  0  0  0
  6 14  1  0  0  0  0
  7 13  1  0  0  0  0
  7  8  1  0  0  0  0
  9  2  2  0  0  0  0
  9 14  1  0  0  0  0
 10 12  1  0  0  0  0
 11 10  1  0  0  0  0
 14  7  2  0  0  0  0
 15 17  1  0  0  0  0
 15 16  1  0  0  0  0
 18  6  1  0  0  0  0
 19 18  1  0  0  0  0
 20 10  1  0  0  0  0
 20 13  2  0  0  0  0
 21 15  1  0  0  0  0
 21 22  1  0  0  0  0
 23 21  1  0  0  0  0
 24 21  1  0  0  0  0
M  END
