24
 OpenBabel05122313063D

 32 38  0  0  1  0  0  0  0  0999 V2000
   -3.4451   -0.1453   -0.0286 C   0  0  2  0  0  0  0  0  0  0  0  0
   -2.3372    0.9391    0.6840 C   0  0  1  0  0  0  0  0  0  0  0  0
   -2.4160    0.8000   -1.0435 B   0  0  2  0  0  0  0  0  0  0  0  0
   -1.5201    0.2431   -1.6196 H   0  0  0  0  0  0  0  0  0  0  0  0
   -4.1302    0.5318   -1.4447 B   0  0  0  0  0  0  0  0  0  0  0  0
   -4.3821   -0.2337   -2.3417 H   0  0  0  0  0  0  0  0  0  0  0  0
   -5.0449    0.4783    0.0765 B   0  0  2  0  0  0  0  0  0  0  0  0
   -5.9667   -0.2830    0.2157 H   0  0  0  0  0  0  0  0  0  0  0  0
   -3.8935    0.6774    1.4191 B   0  0  0  0  0  0  0  0  0  0  0  0
   -3.9192    0.0281    2.4309 H   0  0  0  0  0  0  0  0  0  0  0  0
   -2.2654    2.3745   -0.2482 B   0  0  1  0  0  0  0  0  0  0  0  0
   -1.2042    2.9336   -0.2955 H   0  0  0  0  0  0  0  0  0  0  0  0
   -3.4138    2.1579   -1.5904 B   0  0  1  0  0  0  0  0  0  0  0  0
   -3.1998    2.6454   -2.6751 H   0  0  0  0  0  0  0  0  0  0  0  0
   -5.0448    1.9613   -0.8908 B   0  0  0  0  0  0  0  0  0  0  0  0
   -6.0483    2.3075   -1.4682 H   0  0  0  0  0  0  0  0  0  0  0  0
   -4.8931    2.0426    0.8941 B   0  0  1  0  0  0  0  0  0  0  0  0
   -5.7689    2.4507    1.6192 H   0  0  0  0  0  0  0  0  0  0  0  0
   -3.1734    2.3002    1.2828 B   0  0  2  0  0  0  0  0  0  0  0  0
   -2.7329    2.8116    2.2812 H   0  0  0  0  0  0  0  0  0  0  0  0
   -3.8880    3.0954   -0.1470 B   0  0  1  0  0  0  0  0  0  0  0  0
   -4.0279    4.2958   -0.1717 H   0  0  0  0  0  0  0  0  0  0  0  0
   -3.1799   -1.6281    0.0821 C   0  0  2  0  0  3  0  0  0  0  0  0
   -1.9301   -2.1203   -0.1050 N   0  0  0  0  0  2  0  0  0  0  0  0
   -1.7338   -3.4589   -0.0884 C   0  0  0  0  0  0  0  0  0  0  0  0
   -0.7050   -3.7809   -0.3096 H   0  0  0  0  0  0  0  0  0  0  0  0
   -2.7633   -4.3718    0.1525 C   0  0  0  0  0  0  0  0  0  0  0  0
   -2.5456   -5.4489    0.1541 H   0  0  0  0  0  0  0  0  0  0  0  0
   -4.0508   -3.8759    0.3852 C   0  0  0  0  0  0  0  0  0  0  0  0
   -4.8930   -4.5535    0.5894 H   0  0  0  0  0  0  0  0  0  0  0  0
   -4.2575   -2.4942    0.3423 C   0  0  0  0  0  0  0  0  0  0  0  0
   -5.2546   -2.0678    0.4982 H   0  0  0  0  0  0  0  0  0  0  0  0
  1  5  1  6  0  0  0
  1  7  1  0  0  0  0
  1 23  1  0  0  0  0
  1  2  1  0  0  0  0
  2 19  1  0  0  0  0
  3 11  1  0  0  0  0
  3  2  1  0  0  0  0
  4  3  1  0  0  0  0
  6  5  1  0  0  0  0
  7  8  1  0  0  0  0
  7 17  1  0  0  0  0
  9 10  1  0  0  0  0
 11 21  1  0  0  0  0
 11  2  1  0  0  0  0
 12 11  1  0  0  0  0
 13  5  1  0  0  0  0
 13  3  1  0  0  0  0
 13 21  1  0  0  0  0
 14 13  1  0  0  0  0
 15 21  1  0  0  0  0
 15  7  1  0  0  0  0
 16 15  1  0  0  0  0
 17 19  1  0  0  0  0
 17  9  1  0  0  0  0
 17 18  1  0  0  0  0
 19  9  1  0  0  0  0
 19 20  1  0  0  0  0
 22 21  1  0  0  0  0
 23 31  1  0  0  0  0
 24 25  1  0  0  0  0
 24 23  1  0  0  0  0
 25 27  2  0  0  0  0
 26 25  1  0  0  0  0
 27 28  1  0  0  0  0
 27 29  1  0  0  0  0
 29 30  1  0  0  0  0
 31 29  2  0  0  0  0
 31 32  1  0  0  0  0
M  END
