3
 OpenBabel05122313063D

 40 40  0  0  0  0  0  0  0  0999 V2000
    2.0611   -2.6577   -0.6678 Si  0  0  0  0  0  0  0  0  0  0  0  0
    3.2983    2.7314    0.7138 Si  0  0  0  0  0  0  0  0  0  0  0  0
    1.8890   -0.9098   -0.3179 N   0  0  0  0  0  2  0  0  0  0  0  0
    2.4216    1.2754    0.2607 N   0  0  0  0  0  0  0  0  0  0  0  0
    2.7986    0.0500    0.0278 C   0  0  0  0  0  0  0  0  0  0  0  0
    0.5173   -3.0940   -1.6666 C   0  0  0  0  0  0  0  0  0  0  0  0
    2.0648   -3.6483    0.9421 C   0  0  0  0  0  0  0  0  0  0  0  0
    3.6032   -3.0527   -1.6835 C   0  0  0  0  0  0  0  0  0  0  0  0
    4.2386   -0.3774    0.1227 C   0  0  0  0  0  0  0  0  0  0  0  0
    4.7068   -1.0710    1.2564 C   0  0  0  0  0  0  0  0  0  0  0  0
    6.0611   -1.4211    1.3627 C   0  0  0  0  0  0  0  0  0  0  0  0
    6.9591   -1.0878    0.3358 C   0  0  0  0  0  0  0  0  0  0  0  0
    6.4971   -0.3963   -0.7967 C   0  0  0  0  0  0  0  0  0  0  0  0
    5.1454   -0.0396   -0.9021 C   0  0  0  0  0  0  0  0  0  0  0  0
    2.0417    3.8069    1.6307 C   0  0  0  0  0  0  0  0  0  0  0  0
    3.8522    3.6283   -0.8608 C   0  0  0  0  0  0  0  0  0  0  0  0
    4.7944    2.4388    1.8406 C   0  0  0  0  0  0  0  0  0  0  0  0
    4.0033   -1.3217    2.0644 H   0  0  0  0  0  0  0  0  0  0  0  0
    6.4189   -1.9553    2.2561 H   0  0  0  0  0  0  0  0  0  0  0  0
    8.0209   -1.3646    0.4189 H   0  0  0  0  0  0  0  0  0  0  0  0
    7.1964   -0.1337   -1.6052 H   0  0  0  0  0  0  0  0  0  0  0  0
    4.7799    0.5018   -1.7876 H   0  0  0  0  0  0  0  0  0  0  0  0
    0.4853   -4.1842   -1.8713 H   0  0  0  0  0  0  0  0  0  0  0  0
    0.5121   -2.5660   -2.6425 H   0  0  0  0  0  0  0  0  0  0  0  0
   -0.4142   -2.8241   -1.1250 H   0  0  0  0  0  0  0  0  0  0  0  0
    2.0095   -4.7367    0.7314 H   0  0  0  0  0  0  0  0  0  0  0  0
    1.1917   -3.3788    1.5706 H   0  0  0  0  0  0  0  0  0  0  0  0
    2.9867   -3.4632    1.5285 H   0  0  0  0  0  0  0  0  0  0  0  0
    4.5347   -2.9424   -1.0950 H   0  0  0  0  0  0  0  0  0  0  0  0
    3.6781   -2.3930   -2.5712 H   0  0  0  0  0  0  0  0  0  0  0  0
    3.5415   -4.1025   -2.0399 H   0  0  0  0  0  0  0  0  0  0  0  0
    2.4945    4.7606    1.9719 H   0  0  0  0  0  0  0  0  0  0  0  0
    1.6476    3.2754    2.5214 H   0  0  0  0  0  0  0  0  0  0  0  0
    1.1807    4.0512    0.9758 H   0  0  0  0  0  0  0  0  0  0  0  0
    4.2727    4.6282   -0.6252 H   0  0  0  0  0  0  0  0  0  0  0  0
    2.9961    3.7702   -1.5518 H   0  0  0  0  0  0  0  0  0  0  0  0
    4.6322    3.0489   -1.3957 H   0  0  0  0  0  0  0  0  0  0  0  0
    5.1984    3.4110    2.1935 H   0  0  0  0  0  0  0  0  0  0  0  0
    5.6080    1.8964    1.3191 H   0  0  0  0  0  0  0  0  0  0  0  0
    4.5109    1.8445    2.7333 H   0  0  0  0  0  0  0  0  0  0  0  0
  1  3  1  0  0  0  0
  1  7  1  0  0  0  0
  2 15  1  0  0  0  0
  2 17  1  0  0  0  0
  3  5  1  0  0  0  0
  4  2  1  0  0  0  0
  5  9  1  0  0  0  0
  5  4  2  0  0  0  0
  6 25  1  0  0  0  0
  6  1  1  0  0  0  0
  7 28  1  0  0  0  0
  7 27  1  0  0  0  0
  8 29  1  0  0  0  0
  8  1  1  0  0  0  0
  9 10  1  0  0  0  0
 10 11  2  0  0  0  0
 10 18  1  0  0  0  0
 11 19  1  0  0  0  0
 12 20  1  0  0  0  0
 12 11  1  0  0  0  0
 13 12  2  0  0  0  0
 14 13  1  0  0  0  0
 14  9  2  0  0  0  0
 15 32  1  0  0  0  0
 15 33  1  0  0  0  0
 16 35  1  0  0  0  0
 16  2  1  0  0  0  0
 17 38  1  0  0  0  0
 17 40  1  0  0  0  0
 21 13  1  0  0  0  0
 22 14  1  0  0  0  0
 23  6  1  0  0  0  0
 24  6  1  0  0  0  0
 26  7  1  0  0  0  0
 30  8  1  0  0  0  0
 31  8  1  0  0  0  0
 34 15  1  0  0  0  0
 36 16  1  0  0  0  0
 37 16  1  0  0  0  0
 39 17  1  0  0  0  0
M  END
