2
 OpenBabel05122313063D

 33 35  0  0  0  0  0  0  0  0999 V2000
   -5.0197    0.4539   -0.0821 O   0  0  0  0  0  0  0  0  0  0  0  0
   -1.2791   -1.3816   -0.0526 N   0  0  0  0  0  2  0  0  0  0  0  0
   -4.9474   -1.8522    0.0556 N   0  0  0  0  0  0  0  0  0  0  0  0
   -5.5214   -2.6967    0.0504 H   0  0  0  0  0  0  0  0  0  0  0  0
   -6.9786   -0.7565    0.1836 N   0  0  0  0  0  0  0  0  0  0  0  0
   -7.3430   -1.6953    0.3449 H   0  0  0  0  0  0  0  0  0  0  0  0
   -2.5916   -1.0742    0.0097 C   0  0  0  0  0  3  0  0  0  0  0  0
   -2.8626   -0.0118    0.0863 H   0  0  0  0  0  0  0  0  0  0  0  0
   -3.5719   -2.0913   -0.0308 C   0  0  0  0  0  0  0  0  0  0  0  0
   -3.1379   -3.4297   -0.1534 C   0  0  0  0  0  0  0  0  0  0  0  0
   -3.8773   -4.2462   -0.1962 H   0  0  0  0  0  0  0  0  0  0  0  0
   -1.7721   -3.7082   -0.2205 C   0  0  0  0  0  0  0  0  0  0  0  0
   -1.4115   -4.7418   -0.3182 H   0  0  0  0  0  0  0  0  0  0  0  0
   -0.8511   -2.6585   -0.1622 C   0  0  0  0  0  0  0  0  0  0  0  0
    0.2407   -2.8161   -0.1975 H   0  0  0  0  0  0  0  0  0  0  0  0
   -5.6019   -0.6155    0.0400 C   0  0  0  0  0  0  0  0  0  0  0  0
   -7.9497    0.2603    0.2034 C   0  0  0  0  0  0  0  0  0  0  0  0
   -7.6266    1.6072    0.3807 C   0  0  0  0  0  0  0  0  0  0  0  0
   -6.5734    1.8919    0.4814 H   0  0  0  0  0  0  0  0  0  0  0  0
   -8.6493    2.5852    0.4371 C   0  0  0  0  0  0  0  0  0  0  0  0
   -8.3628    3.6381    0.5802 H   0  0  0  0  0  0  0  0  0  0  0  0
   -9.9857    2.2359    0.3353 C   0  0  0  0  0  0  0  0  0  0  0  0
  -10.7771    2.9980    0.3972 H   0  0  0  0  0  0  0  0  0  0  0  0
  -11.7213    0.4828    0.0245 C   0  0  0  0  0  0  0  0  0  0  0  0
  -12.4941    1.2628    0.1064 H   0  0  0  0  0  0  0  0  0  0  0  0
  -12.0793   -0.8385   -0.1926 C   0  0  0  0  0  0  0  0  0  0  0  0
  -13.1395   -1.1191   -0.2806 H   0  0  0  0  0  0  0  0  0  0  0  0
  -11.0724   -1.8299   -0.3179 C   0  0  0  0  0  0  0  0  0  0  0  0
  -11.3523   -2.8749   -0.5185 H   0  0  0  0  0  0  0  0  0  0  0  0
   -9.7331   -1.4834   -0.2035 C   0  0  0  0  0  0  0  0  0  0  0  0
   -8.9808   -2.2750   -0.3480 H   0  0  0  0  0  0  0  0  0  0  0  0
   -9.3290   -0.1389    0.0480 C   0  0  0  0  0  0  0  0  0  0  0  0
  -10.3546    0.8737    0.1415 C   0  0  0  0  0  0  0  0  0  0  0  0
  1 16  2  0  0  0  0
  2  7  1  0  0  0  0
  4  3  1  0  0  0  0
  5 17  1  0  0  0  0
  5  6  1  0  0  0  0
  7  8  1  0  0  0  0
  9  7  1  0  0  0  0
  9  3  1  0  0  0  0
 10  9  2  0  0  0  0
 11 10  1  0  0  0  0
 12 14  2  0  0  0  0
 12 10  1  0  0  0  0
 13 12  1  0  0  0  0
 14  2  1  0  0  0  0
 15 14  1  0  0  0  0
 16  3  1  0  0  0  0
 16  5  1  0  0  0  0
 17 18  1  0  0  0  0
 18 20  2  0  0  0  0
 18 19  1  0  0  0  0
 20 21  1  0  0  0  0
 22 23  1  0  0  0  0
 22 20  1  0  0  0  0
 24 25  1  0  0  0  0
 24 33  1  0  0  0  0
 26 24  2  0  0  0  0
 27 26  1  0  0  0  0
 28 30  2  0  0  0  0
 28 26  1  0  0  0  0
 29 28  1  0  0  0  0
 30 32  1  0  0  0  0
 31 30  1  0  0  0  0
 32 33  1  0  0  0  0
 32 17  2  0  0  0  0
 33 22  2  0  0  0  0
M  END
