1
 OpenBabel05122313063D

 24 25  0  0  1  0  0  0  0  0999 V2000
   -0.1224   -1.8847   -0.2254 N   0  0  0  0  0  2  0  0  0  0  0  0
   -2.0304   -0.0276   -1.3923 O   0  0  0  0  0  0  0  0  0  0  0  0
   -1.2614   -2.6305   -0.2613 C   0  0  1  0  0  3  0  0  0  0  0  0
    1.0526   -2.5547   -0.1674 C   0  0  0  0  0  0  0  0  0  0  0  0
   -2.8243   -0.7399   -0.7767 C   0  0  0  0  0  0  0  0  0  0  0  0
   -1.2951   -3.9692   -0.1453 N   0  0  0  0  0  0  0  0  0  0  0  0
   -2.5030   -2.0431   -0.3916 N   0  0  0  0  0  0  0  0  0  0  0  0
    1.1004   -3.9454   -0.0836 C   0  0  0  0  0  0  0  0  0  0  0  0
    1.9542   -1.9278   -0.1808 H   0  0  0  0  0  0  0  0  0  0  0  0
   -4.1926   -0.2870   -0.3955 C   0  0  0  0  0  0  0  0  0  0  0  0
   -0.1316   -4.6158   -0.0441 C   0  0  0  0  0  0  0  0  0  0  0  0
   -3.2636   -2.6845   -0.1560 H   0  0  0  0  0  0  0  0  0  0  0  0
    2.0608   -4.4750   -0.0307 H   0  0  0  0  0  0  0  0  0  0  0  0
   -4.8661   -0.7873    0.7388 C   0  0  0  0  0  0  0  0  0  0  0  0
   -4.7909    0.7296   -1.1689 C   0  0  0  0  0  0  0  0  0  0  0  0
   -0.1857   -5.7130    0.0672 H   0  0  0  0  0  0  0  0  0  0  0  0
   -6.1337   -0.2941    1.0763 C   0  0  0  0  0  0  0  0  0  0  0  0
   -4.3675   -1.5190    1.3921 H   0  0  0  0  0  0  0  0  0  0  0  0
   -6.0599    1.2149   -0.8325 C   0  0  0  0  0  0  0  0  0  0  0  0
   -4.2360    1.1209   -2.0347 H   0  0  0  0  0  0  0  0  0  0  0  0
   -6.7357    0.7005    0.2879 C   0  0  0  0  0  0  0  0  0  0  0  0
   -6.6486   -0.6759    1.9707 H   0  0  0  0  0  0  0  0  0  0  0  0
   -6.5284    1.9995   -1.4459 H   0  0  0  0  0  0  0  0  0  0  0  0
   -7.7323    1.0844    0.5540 H   0  0  0  0  0  0  0  0  0  0  0  0
  1  4  1  0  0  0  0
  2  5  2  0  0  0  0
  3  7  1  1  0  0  0
  3  1  1  0  0  0  0
  3  6  1  0  0  0  0
  4  8  2  0  0  0  0
  5 10  1  0  0  0  0
  5  7  1  0  0  0  0
  6 11  2  0  0  0  0
  7 12  1  0  0  0  0
  8 11  1  0  0  0  0
  8 13  1  0  0  0  0
  9  4  1  0  0  0  0
 10 14  1  0  0  0  0
 11 16  1  0  0  0  0
 14 17  2  0  0  0  0
 14 18  1  0  0  0  0
 15 19  1  0  0  0  0
 15 10  2  0  0  0  0
 17 22  1  0  0  0  0
 19 21  2  0  0  0  0
 20 15  1  0  0  0  0
 21 24  1  0  0  0  0
 21 17  1  0  0  0  0
 23 19  1  0  0  0  0
M  END
