2
 OpenBabel05122313063D

 16 17  0  0  0  0  0  0  0  0999 V2000
   -1.9547   -0.0977   -0.1124 C   0  0  0  0  0  0  0  0  0  0  0  0
   -0.8693    0.6386    0.2991 N   0  0  0  0  0  2  0  0  0  0  0  0
   -3.4511    1.6437    0.7574 N   0  0  0  0  0  0  0  0  0  0  0  0
   -1.8175   -1.3432   -0.7786 C   0  0  0  0  0  0  0  0  0  0  0  0
   -0.8144   -1.7568   -0.9490 H   0  0  0  0  0  0  0  0  0  0  0  0
   -4.4142   -0.2931   -0.2889 C   0  0  0  0  0  3  0  0  0  0  0  0
   -5.4015    0.1443   -0.0846 H   0  0  0  0  0  0  0  0  0  0  0  0
   -2.3676    2.3096    1.1170 C   0  0  0  0  0  0  0  0  0  0  0  0
   -2.4962    3.2853    1.6161 H   0  0  0  0  0  0  0  0  0  0  0  0
   -4.2553   -1.5072   -0.9355 C   0  0  0  0  0  0  0  0  0  0  0  0
   -5.1374   -2.0758   -1.2649 H   0  0  0  0  0  0  0  0  0  0  0  0
   -1.0552    1.8198    0.8859 C   0  0  0  0  0  0  0  0  0  0  0  0
   -0.1606    2.3963    1.1617 H   0  0  0  0  0  0  0  0  0  0  0  0
   -2.9544   -2.0278   -1.1811 C   0  0  0  0  0  0  0  0  0  0  0  0
   -2.8451   -2.9928   -1.6975 H   0  0  0  0  0  0  0  0  0  0  0  0
   -3.2733    0.4463    0.1364 C   0  0  0  0  0  0  0  0  0  0  0  0
  1 16  1  0  0  0  0
  1  2  1  0  0  0  0
  2 12  1  0  0  0  0
  3  8  1  0  0  0  0
  4  1  2  0  0  0  0
  5  4  1  0  0  0  0
  6  7  1  0  0  0  0
  6 16  1  0  0  0  0
  8  9  1  0  0  0  0
 10  6  1  0  0  0  0
 11 10  1  0  0  0  0
 12  8  2  0  0  0  0
 12 13  1  0  0  0  0
 14 10  2  0  0  0  0
 14  4  1  0  0  0  0
 15 14  1  0  0  0  0
 16  3  2  0  0  0  0
M  END
