2
 OpenBabel05122313063D

 39 41  0  0  0  0  0  0  0  0999 V2000
    1.8452   -0.2532    0.4814 P   0  0  0  0  0  0  0  0  0  0  0  0
   -0.5705   -2.4324    0.5742 N   0  0  0  0  0  2  0  0  0  0  0  0
   -1.8700   -2.8135    0.4240 C   0  0  0  0  0  3  0  0  0  0  0  0
   -2.4346   -2.2881   -0.3539 H   0  0  0  0  0  0  0  0  0  0  0  0
   -2.4860   -3.7929    1.2034 C   0  0  0  0  0  0  0  0  0  0  0  0
   -3.5425   -4.0327    1.0201 H   0  0  0  0  0  0  0  0  0  0  0  0
   -1.7405   -4.4276    2.2037 C   0  0  0  0  0  0  0  0  0  0  0  0
   -2.1884   -5.1947    2.8523 H   0  0  0  0  0  0  0  0  0  0  0  0
   -0.3976   -4.0643    2.3447 C   0  0  0  0  0  0  0  0  0  0  0  0
    0.2373   -4.5504    3.0993 H   0  0  0  0  0  0  0  0  0  0  0  0
    0.1776   -3.0825    1.5164 C   0  0  0  0  0  0  0  0  0  0  0  0
    1.6458   -2.7787    1.6483 C   0  0  0  0  0  0  0  0  0  0  0  0
    2.1363   -3.0680    0.6928 H   0  0  0  0  0  0  0  0  0  0  0  0
    2.0630   -3.4430    2.4295 H   0  0  0  0  0  0  0  0  0  0  0  0
    1.9750   -1.3178    1.9901 C   0  0  0  0  0  0  0  0  0  0  0  0
    2.9914   -1.2343    2.4227 H   0  0  0  0  0  0  0  0  0  0  0  0
    1.2604   -0.9233    2.7391 H   0  0  0  0  0  0  0  0  0  0  0  0
    3.5294   -0.4111   -0.2898 C   0  0  0  0  0  0  0  0  0  0  0  0
    4.4121   -1.4627    0.0334 C   0  0  0  0  0  0  0  0  0  0  0  0
    4.1542   -2.2044    0.8018 H   0  0  0  0  0  0  0  0  0  0  0  0
    5.6504   -1.5840   -0.6188 C   0  0  0  0  0  0  0  0  0  0  0  0
    6.3255   -2.4101   -0.3494 H   0  0  0  0  0  0  0  0  0  0  0  0
    6.0290   -0.6561   -1.5992 C   0  0  0  0  0  0  0  0  0  0  0  0
    6.9999   -0.7515   -2.1074 H   0  0  0  0  0  0  0  0  0  0  0  0
    5.1636    0.4022   -1.9185 C   0  0  0  0  0  0  0  0  0  0  0  0
    5.4566    1.1466   -2.6741 H   0  0  0  0  0  0  0  0  0  0  0  0
    3.9265    0.5229   -1.2706 C   0  0  0  0  0  0  0  0  0  0  0  0
    3.2727    1.3701   -1.5215 H   0  0  0  0  0  0  0  0  0  0  0  0
    1.9578    1.4630    1.1616 C   0  0  0  0  0  0  0  0  0  0  0  0
    1.7582    2.5583    0.2978 C   0  0  0  0  0  0  0  0  0  0  0  0
    1.4532    2.3852   -0.7413 H   0  0  0  0  0  0  0  0  0  0  0  0
    1.9141    3.8737    0.7540 C   0  0  0  0  0  0  0  0  0  0  0  0
    1.7508    4.7122    0.0602 H   0  0  0  0  0  0  0  0  0  0  0  0
    2.2630    4.1151    2.0915 C   0  0  0  0  0  0  0  0  0  0  0  0
    2.3842    5.1461    2.4560 H   0  0  0  0  0  0  0  0  0  0  0  0
    2.4531    3.0324    2.9631 C   0  0  0  0  0  0  0  0  0  0  0  0
    2.7209    3.2114    4.0152 H   0  0  0  0  0  0  0  0  0  0  0  0
    2.3079    1.7142    2.5037 C   0  0  0  0  0  0  0  0  0  0  0  0
    2.4717    0.8898    3.2106 H   0  0  0  0  0  0  0  0  0  0  0  0
  1 29  1  0  0  0  0
  1 15  1  0  0  0  0
  2 11  1  0  0  0  0
  3  2  1  0  0  0  0
  3  5  1  0  0  0  0
  4  3  1  0  0  0  0
  5  7  2  0  0  0  0
  6  5  1  0  0  0  0
  7  9  1  0  0  0  0
  7  8  1  0  0  0  0
  9 10  1  0  0  0  0
 11 12  1  0  0  0  0
 11  9  2  0  0  0  0
 12 15  1  0  0  0  0
 12 14  1  0  0  0  0
 13 12  1  0  0  0  0
 15 16  1  0  0  0  0
 15 17  1  0  0  0  0
 18 19  1  0  0  0  0
 18  1  1  0  0  0  0
 19 20  1  0  0  0  0
 21 22  1  0  0  0  0
 21 19  2  0  0  0  0
 23 21  1  0  0  0  0
 24 23  1  0  0  0  0
 25 23  2  0  0  0  0
 25 27  1  0  0  0  0
 26 25  1  0  0  0  0
 27 18  2  0  0  0  0
 28 27  1  0  0  0  0
 29 38  1  0  0  0  0
 30 32  1  0  0  0  0
 30 29  2  0  0  0  0
 31 30  1  0  0  0  0
 32 34  2  0  0  0  0
 33 32  1  0  0  0  0
 34 35  1  0  0  0  0
 34 36  1  0  0  0  0
 36 37  1  0  0  0  0
 38 36  2  0  0  0  0
 38 39  1  0  0  0  0
M  END
