1
 OpenBabel05122313063D

 25 27  0  0  0  0  0  0  0  0999 V2000
   -0.0810   -1.3867   -1.6421 N   0  0  0  0  0  0  0  0  0  0  0  0
   -2.1623   -0.0756   -1.5463 C   0  0  0  0  0  0  0  0  0  0  0  0
   -1.3854   -1.1524   -1.0781 C   0  0  0  0  0  0  0  0  0  0  0  0
   -1.8324   -1.9666   -0.0177 C   0  0  0  0  0  0  0  0  0  0  0  0
   -3.8691   -0.6628    0.1094 C   0  0  0  0  0  0  0  0  0  0  0  0
   -3.0780   -1.7267    0.5756 C   0  0  0  0  0  0  0  0  0  0  0  0
   -5.1876   -0.1758    0.5328 C   0  0  0  0  0  0  0  0  0  0  0  0
   -6.0666   -0.6363    1.5278 C   0  0  0  0  0  0  0  0  0  0  0  0
   -7.2840    0.0355    1.7203 C   0  0  0  0  0  0  0  0  0  0  0  0
   -7.6210    1.1517    0.9319 C   0  0  0  0  0  0  0  0  0  0  0  0
   -6.7430    1.6159   -0.0652 C   0  0  0  0  0  0  0  0  0  0  0  0
   -5.5287    0.9517   -0.2629 C   0  0  0  0  0  0  0  0  0  0  0  0
   -4.4188    1.2390   -1.2513 C   0  0  0  0  0  0  0  0  0  0  0  0
   -3.4015    0.1608   -0.9495 C   0  0  0  0  0  0  0  0  0  0  0  0
    0.1886   -2.3804   -1.5879 H   0  0  0  0  0  0  0  0  0  0  0  0
   -0.0162   -1.0598   -2.6152 H   0  0  0  0  0  0  0  0  0  0  0  0
   -1.7695    0.5788   -2.3389 H   0  0  0  0  0  0  0  0  0  0  0  0
   -1.1744   -2.7667    0.3533 H   0  0  0  0  0  0  0  0  0  0  0  0
   -3.4217   -2.3655    1.4031 H   0  0  0  0  0  0  0  0  0  0  0  0
   -5.8072   -1.5089    2.1467 H   0  0  0  0  0  0  0  0  0  0  0  0
   -7.9829   -0.3136    2.4956 H   0  0  0  0  0  0  0  0  0  0  0  0
   -8.5799    1.6660    1.0971 H   0  0  0  0  0  0  0  0  0  0  0  0
   -7.0119    2.4901   -0.6786 H   0  0  0  0  0  0  0  0  0  0  0  0
   -3.9907    2.2566   -1.1148 H   0  0  0  0  0  0  0  0  0  0  0  0
   -4.7746    1.1928   -2.3042 H   0  0  0  0  0  0  0  0  0  0  0  0
  1 15  1  0  0  0  0
  1  3  1  0  0  0  0
  2  3  2  0  0  0  0
  2 14  1  0  0  0  0
  3  4  1  0  0  0  0
  4 18  1  0  0  0  0
  4  6  2  0  0  0  0
  5  7  1  0  0  0  0
  5  6  1  0  0  0  0
  6 19  1  0  0  0  0
  7  8  1  0  0  0  0
  8  9  2  0  0  0  0
  8 20  1  0  0  0  0
  9 21  1  0  0  0  0
 10 22  1  0  0  0  0
 10  9  1  0  0  0  0
 11 10  2  0  0  0  0
 12 11  1  0  0  0  0
 12  7  2  0  0  0  0
 13 24  1  0  0  0  0
 13 14  1  0  0  0  0
 13 12  1  0  0  0  0
 14  5  2  0  0  0  0
 16  1  1  0  0  0  0
 17  2  1  0  0  0  0
 23 11  1  0  0  0  0
 25 13  1  0  0  0  0
M  END
