2
 OpenBabel05122313063D

 37 39  0  0  0  0  0  0  0  0999 V2000
   -0.9909    0.1138   -0.1121 B   0  0  0  0  0  0  0  0  0  0  0  0
    0.1186   -0.0284   -1.2562 N   0  0  0  0  0  0  0  0  0  0  0  0
   -0.1797   -0.7725   -1.9015 H   0  0  0  0  0  0  0  0  0  0  0  0
    0.0311    0.8421   -1.8014 H   0  0  0  0  0  0  0  0  0  0  0  0
   -2.1337   -1.3547   -2.3450 F   0  0  0  0  0  0  0  0  0  0  0  0
   -4.4803   -0.9138   -3.5813 F   0  0  0  0  0  0  0  0  0  0  0  0
   -6.1332    1.1173   -2.7421 F   0  0  0  0  0  0  0  0  0  0  0  0
   -5.3710    2.7065   -0.6421 F   0  0  0  0  0  0  0  0  0  0  0  0
   -3.0387    2.3022    0.6020 F   0  0  0  0  0  0  0  0  0  0  0  0
   -0.5309    2.8023   -1.0193 F   0  0  0  0  0  0  0  0  0  0  0  0
    0.6214    4.8303    0.3201 F   0  0  0  0  0  0  0  0  0  0  0  0
    1.3817    4.5035    2.9426 F   0  0  0  0  0  0  0  0  0  0  0  0
    0.9802    2.0782    4.1755 F   0  0  0  0  0  0  0  0  0  0  0  0
   -0.1134    0.0466    2.8644 F   0  0  0  0  0  0  0  0  0  0  0  0
   -2.8605   -0.2478    2.0622 F   0  0  0  0  0  0  0  0  0  0  0  0
   -3.4630   -2.5396    3.3523 F   0  0  0  0  0  0  0  0  0  0  0  0
   -2.1853   -4.8773    2.6907 F   0  0  0  0  0  0  0  0  0  0  0  0
   -0.2823   -4.8631    0.6907 F   0  0  0  0  0  0  0  0  0  0  0  0
    0.2866   -2.6198   -0.6277 F   0  0  0  0  0  0  0  0  0  0  0  0
   -2.4397    0.4777   -0.8306 C   0  0  0  0  0  0  0  0  0  0  0  0
   -2.8927   -0.3148   -1.8990 C   0  0  0  0  0  0  0  0  0  0  0  0
   -4.1139   -0.1238   -2.5631 C   0  0  0  0  0  0  0  0  0  0  0  0
   -4.9613    0.9092   -2.1328 C   0  0  0  0  0  0  0  0  0  0  0  0
   -4.5655    1.7221   -1.0599 C   0  0  0  0  0  0  0  0  0  0  0  0
   -3.3298    1.4881   -0.4297 C   0  0  0  0  0  0  0  0  0  0  0  0
   -0.4181    1.3220    0.8505 C   0  0  0  0  0  0  0  0  0  0  0  0
   -0.1883    2.5837    0.2770 C   0  0  0  0  0  0  0  0  0  0  0  0
    0.3891    3.6668    0.9499 C   0  0  0  0  0  0  0  0  0  0  0  0
    0.7878    3.5015    2.2856 C   0  0  0  0  0  0  0  0  0  0  0  0
    0.5701    2.2672    2.9123 C   0  0  0  0  0  0  0  0  0  0  0  0
   -0.0110    1.2095    2.1876 C   0  0  0  0  0  0  0  0  0  0  0  0
   -1.2493   -1.3055    0.6684 C   0  0  0  0  0  0  0  0  0  0  0  0
   -2.2175   -1.3692    1.6873 C   0  0  0  0  0  0  0  0  0  0  0  0
   -2.5452   -2.5452    2.3788 C   0  0  0  0  0  0  0  0  0  0  0  0
   -1.8956   -3.7455    2.0408 C   0  0  0  0  0  0  0  0  0  0  0  0
   -0.9365   -3.7375    1.0190 C   0  0  0  0  0  0  0  0  0  0  0  0
   -0.6568   -2.5312    0.3579 C   0  0  0  0  0  0  0  0  0  0  0  0
  1 32  1  0  0  0  0
  1 26  1  0  0  0  0
  2  1  1  0  0  0  0
  3  2  1  0  0  0  0
  4  2  1  0  0  0  0
  5 21  1  0  0  0  0
  6 22  1  0  0  0  0
  7 23  1  0  0  0  0
 10 27  1  0  0  0  0
 11 28  1  0  0  0  0
 18 36  1  0  0  0  0
 19 37  1  0  0  0  0
 20 25  1  0  0  0  0
 20  1  1  0  0  0  0
 21 20  2  0  0  0  0
 22 23  2  0  0  0  0
 22 21  1  0  0  0  0
 23 24  1  0  0  0  0
 24  8  1  0  0  0  0
 24 25  2  0  0  0  0
 25  9  1  0  0  0  0
 26 31  1  0  0  0  0
 27 26  2  0  0  0  0
 27 28  1  0  0  0  0
 28 29  2  0  0  0  0
 29 30  1  0  0  0  0
 29 12  1  0  0  0  0
 30 13  1  0  0  0  0
 31 14  1  0  0  0  0
 31 30  2  0  0  0  0
 32 33  1  0  0  0  0
 33 15  1  0  0  0  0
 33 34  2  0  0  0  0
 34 16  1  0  0  0  0
 35 34  1  0  0  0  0
 35 17  1  0  0  0  0
 36 35  2  0  0  0  0
 37 32  2  0  0  0  0
 37 36  1  0  0  0  0
M  END
