4
 OpenBabel05122313063D

 29 30  0  0  0  0  0  0  0  0999 V2000
    8.1571    0.0814   -2.0928 Cl  0  0  0  0  0  0  0  0  0  0  0  0
    2.1161   -1.9862   -0.0431 N   0  0  0  0  0  2  0  0  0  0  0  0
    2.5120   -0.8305   -0.4288 N   0  0  0  0  0  2  0  0  0  0  0  0
    0.8752   -1.9915    0.3618 N   0  0  0  0  0  2  0  0  0  0  0  0
   -1.5526   -1.8942    1.5322 O   0  0  0  0  0  0  0  0  0  0  0  0
    3.8486   -0.6959   -0.8128 C   0  0  0  0  0  0  0  0  0  0  0  0
    4.8204   -1.7252   -0.7339 C   0  0  0  0  0  0  0  0  0  0  0  0
    4.5217   -2.7116   -0.3537 H   0  0  0  0  0  0  0  0  0  0  0  0
    6.1384   -1.4857   -1.1289 C   0  0  0  0  0  0  0  0  0  0  0  0
    6.8954   -2.2807   -1.0686 H   0  0  0  0  0  0  0  0  0  0  0  0
    6.5071   -0.2136   -1.6060 C   0  0  0  0  0  0  0  0  0  0  0  0
    5.5589    0.8200   -1.6909 C   0  0  0  0  0  0  0  0  0  0  0  0
    5.8607    1.8070   -2.0683 H   0  0  0  0  0  0  0  0  0  0  0  0
    4.2402    0.5757   -1.2952 C   0  0  0  0  0  0  0  0  0  0  0  0
    3.4793    1.3680   -1.3570 H   0  0  0  0  0  0  0  0  0  0  0  0
    0.2592   -3.1934    0.7203 C   0  0  0  0  0  0  0  0  0  0  0  0
   -1.0350   -3.1415    1.3246 C   0  0  0  0  0  0  0  0  0  0  0  0
   -1.6953   -4.3313    1.6716 C   0  0  0  0  0  0  0  0  0  0  0  0
   -2.6911   -4.2905    2.1320 H   0  0  0  0  0  0  0  0  0  0  0  0
   -1.0832   -5.5752    1.4440 C   0  0  0  0  0  0  0  0  0  0  0  0
   -1.6123   -6.4977    1.7250 H   0  0  0  0  0  0  0  0  0  0  0  0
    0.1911   -5.6341    0.8618 C   0  0  0  0  0  0  0  0  0  0  0  0
    0.6739   -6.6054    0.6785 H   0  0  0  0  0  0  0  0  0  0  0  0
    0.8527   -4.4548    0.4983 C   0  0  0  0  0  0  0  0  0  0  0  0
    1.8437   -4.4801    0.0267 H   0  0  0  0  0  0  0  0  0  0  0  0
   -2.8860   -1.7599    2.0008 C   0  0  0  0  0  0  0  0  0  0  0  0
   -3.6078   -2.2662    1.3243 H   0  0  0  0  0  0  0  0  0  0  0  0
   -3.1014   -0.6762    2.0027 H   0  0  0  0  0  0  0  0  0  0  0  0
   -2.9969   -2.1662    3.0297 H   0  0  0  0  0  0  0  0  0  0  0  0
  1 11  1  0  0  0  0
  2  4  1  0  0  0  0
  3  2  1  0  0  0  0
  4 16  1  0  0  0  0
  5 26  1  0  0  0  0
  6  7  1  0  0  0  0
  6  3  1  0  0  0  0
  7  8  1  0  0  0  0
  9 10  1  0  0  0  0
  9  7  2  0  0  0  0
 11  9  1  0  0  0  0
 12 11  2  0  0  0  0
 12 14  1  0  0  0  0
 13 12  1  0  0  0  0
 14  6  2  0  0  0  0
 15 14  1  0  0  0  0
 16 17  1  0  0  0  0
 17  5  1  0  0  0  0
 17 18  2  0  0  0  0
 18 19  1  0  0  0  0
 20 18  1  0  0  0  0
 20 21  1  0  0  0  0
 22 20  2  0  0  0  0
 23 22  1  0  0  0  0
 24 16  2  0  0  0  0
 24 22  1  0  0  0  0
 25 24  1  0  0  0  0
 26 28  1  0  0  0  0
 26 29  1  0  0  0  0
 27 26  1  0  0  0  0
M  END
