2
 OpenBabel05122313063D

 23 22  0  0  0  0  0  0  0  0999 V2000
   -3.5750    0.2460   -0.6908 Si  0  0  0  0  0  0  0  0  0  0  0  0
   -2.0937    0.1653    0.2715 N   0  0  0  0  0  2  0  0  0  0  0  0
   -1.7484    0.9029    1.4423 N   0  0  0  0  0  0  0  0  0  0  0  0
   -2.2604    0.3335    2.6961 C   0  0  0  0  0  0  0  0  0  0  0  0
   -3.3554    0.5054    2.8061 H   0  0  0  0  0  0  0  0  0  0  0  0
   -1.7376    0.7964    3.5584 H   0  0  0  0  0  0  0  0  0  0  0  0
   -2.0709   -0.7531    2.6996 H   0  0  0  0  0  0  0  0  0  0  0  0
   -2.0137    2.3474    1.3582 C   0  0  0  0  0  0  0  0  0  0  0  0
   -3.1082    2.5518    1.3205 H   0  0  0  0  0  0  0  0  0  0  0  0
   -1.5299    2.7550    0.4518 H   0  0  0  0  0  0  0  0  0  0  0  0
   -1.5948    2.8619    2.2464 H   0  0  0  0  0  0  0  0  0  0  0  0
   -3.5347   -1.3257   -1.7312 C   0  0  0  0  0  0  0  0  0  0  0  0
   -2.5679   -1.3786   -2.2723 H   0  0  0  0  0  0  0  0  0  0  0  0
   -4.3545   -1.3355   -2.4784 H   0  0  0  0  0  0  0  0  0  0  0  0
   -3.6337   -2.2309   -1.0978 H   0  0  0  0  0  0  0  0  0  0  0  0
   -3.6027    1.7558   -1.8341 C   0  0  0  0  0  0  0  0  0  0  0  0
   -2.6726    1.7649   -2.4388 H   0  0  0  0  0  0  0  0  0  0  0  0
   -3.6573    2.7097   -1.2709 H   0  0  0  0  0  0  0  0  0  0  0  0
   -4.4687    1.7220   -2.5279 H   0  0  0  0  0  0  0  0  0  0  0  0
   -5.1214    0.2683    0.4143 C   0  0  0  0  0  0  0  0  0  0  0  0
   -5.1389   -0.6043    1.0992 H   0  0  0  0  0  0  0  0  0  0  0  0
   -6.0381    0.2264   -0.2110 H   0  0  0  0  0  0  0  0  0  0  0  0
   -5.1869    1.1894    1.0297 H   0  0  0  0  0  0  0  0  0  0  0  0
  1  2  1  0  0  0  0
  1 20  1  0  0  0  0
  2  3  1  0  0  0  0
  3  4  1  0  0  0  0
  4  7  1  0  0  0  0
  4  5  1  0  0  0  0
  4  6  1  0  0  0  0
  8  3  1  0  0  0  0
  8 11  1  0  0  0  0
  9  8  1  0  0  0  0
 10  8  1  0  0  0  0
 12 15  1  0  0  0  0
 12  1  1  0  0  0  0
 13 12  1  0  0  0  0
 14 12  1  0  0  0  0
 16 18  1  0  0  0  0
 16  1  1  0  0  0  0
 17 16  1  0  0  0  0
 19 16  1  0  0  0  0
 20 23  1  0  0  0  0
 20 21  1  0  0  0  0
 22 20  1  0  0  0  0
M  END
