7
 OpenBabel05122313063D

 21 22  0  0  0  0  0  0  0  0999 V2000
   -5.7132   -0.5054   -0.4842 N   0  0  0  0  0  2  0  0  0  0  0  0
   -2.7119   -2.2982    0.1189 N   0  0  0  0  0  0  0  0  0  0  0  0
   -2.0590   -3.0774    0.3666 H   0  0  0  0  0  0  0  0  0  0  0  0
   -5.8194    0.7443   -0.6917 N   0  0  0  0  0  2  0  0  0  0  0  0
   -3.1740   -0.2163   -0.2489 C   0  0  0  0  0  3  0  0  0  0  0  0
   -2.9968    0.8558   -0.3792 H   0  0  0  0  0  0  0  0  0  0  0  0
   -2.1692   -1.0651   -0.0134 N   0  0  0  0  0  2  0  0  0  0  0  0
   -4.4079   -0.9321   -0.2763 C   0  0  0  0  0  0  0  0  0  0  0  0
   -7.1376    1.2042   -0.9032 C   0  0  0  0  0  0  0  0  0  0  0  0
   -4.0519   -2.2717   -0.0276 C   0  0  0  0  0  0  0  0  0  0  0  0
   -4.6734   -3.1696    0.0504 H   0  0  0  0  0  0  0  0  0  0  0  0
   -7.2730    2.5918   -1.1234 C   0  0  0  0  0  0  0  0  0  0  0  0
   -6.3594    3.2044   -1.1130 H   0  0  0  0  0  0  0  0  0  0  0  0
   -9.6753    2.3245   -1.3457 C   0  0  0  0  0  0  0  0  0  0  0  0
  -10.6713    2.7602   -1.5185 H   0  0  0  0  0  0  0  0  0  0  0  0
   -8.5388    3.1494   -1.3435 C   0  0  0  0  0  0  0  0  0  0  0  0
   -8.6415    4.2317   -1.5136 H   0  0  0  0  0  0  0  0  0  0  0  0
   -9.5434    0.9385   -1.1265 C   0  0  0  0  0  0  0  0  0  0  0  0
  -10.4384    0.2972   -1.1292 H   0  0  0  0  0  0  0  0  0  0  0  0
   -8.2849    0.3751   -0.9055 C   0  0  0  0  0  0  0  0  0  0  0  0
   -8.1484   -0.7013   -0.7306 H   0  0  0  0  0  0  0  0  0  0  0  0
  1  8  1  0  0  0  0
  2  3  1  0  0  0  0
  4  1  1  0  0  0  0
  5  7  1  0  0  0  0
  6  5  1  0  0  0  0
  7  2  1  0  0  0  0
  8  5  1  0  0  0  0
  8 10  2  0  0  0  0
  9  4  1  0  0  0  0
 10 11  1  0  0  0  0
 10  2  1  0  0  0  0
 12 13  1  0  0  0  0
 12  9  2  0  0  0  0
 14 16  2  0  0  0  0
 14 18  1  0  0  0  0
 15 14  1  0  0  0  0
 16 12  1  0  0  0  0
 17 16  1  0  0  0  0
 18 20  2  0  0  0  0
 19 18  1  0  0  0  0
 20  9  1  0  0  0  0
 20 21  1  0  0  0  0
M  END
