1
 OpenBabel05122313063D

 15 16  0  0  1  0  0  0  0  0999 V2000
   -1.5269   -0.7856    0.4212 N   0  0  0  0  0  2  0  0  0  0  0  0
   -2.6033   -0.2639   -0.1863 C   0  0  2  0  0  3  0  0  0  0  0  0
   -1.5512   -2.1127    0.1268 N   0  0  0  0  0  0  0  0  0  0  0  0
   -2.9896    1.0446   -0.1525 N   0  0  0  0  0  0  0  0  0  0  0  0
   -3.3176   -1.2697   -0.8890 C   0  0  0  0  0  0  0  0  0  0  0  0
   -2.6012   -2.4504   -0.6493 C   0  0  0  0  0  0  0  0  0  0  0  0
   -0.8101   -2.6735    0.5866 H   0  0  0  0  0  0  0  0  0  0  0  0
   -4.1437    1.4721   -0.8219 C   0  0  0  0  0  0  0  0  0  0  0  0
   -2.4899    1.7071    0.4677 H   0  0  0  0  0  0  0  0  0  0  0  0
   -4.5293   -0.9301   -1.6393 C   0  0  0  0  0  0  0  0  0  0  0  0
   -2.7828   -3.4792   -0.9772 H   0  0  0  0  0  0  0  0  0  0  0  0
   -4.8098    0.4519   -1.5289 N   0  0  0  0  0  0  0  0  0  0  0  0
   -4.5367    2.6238   -0.7994 O   0  0  0  0  0  0  0  0  0  0  0  0
   -5.2364   -1.6859   -2.2873 O   0  0  0  0  0  0  0  0  0  0  0  0
   -5.6496    0.7710   -2.0218 H   0  0  0  0  0  0  0  0  0  0  0  0
  2  5  1  1  0  0  0
  2  4  1  0  0  0  0
  2  1  1  0  0  0  0
  3  1  1  0  0  0  0
  3  7  1  0  0  0  0
  4  9  1  0  0  0  0
  5  6  2  0  0  0  0
  6  3  1  0  0  0  0
  8 13  2  0  0  0  0
  8  4  1  0  0  0  0
 10 12  1  0  0  0  0
 10  5  1  0  0  0  0
 11  6  1  0  0  0  0
 12  8  1  0  0  0  0
 14 10  2  0  0  0  0
 15 12  1  0  0  0  0
M  END
