1
 OpenBabel05122313063D

 16 16  0  0  0  0  0  0  0  0999 V2000
    1.9552    0.5402   -0.1731 N   0  0  0  0  0  2  0  0  0  0  0  0
    4.1155    0.4320   -0.6159 N   0  0  0  0  0  0  0  0  0  0  0  0
    2.9356   -0.2460   -0.6270 C   0  0  0  0  0  3  0  0  0  0  0  0
    3.8712    1.7031   -0.1166 C   0  0  0  0  0  0  0  0  0  0  0  0
    2.5192    1.7626    0.1494 C   0  0  0  0  0  0  0  0  0  0  0  0
    5.4167   -0.1289   -0.9433 C   0  0  0  0  0  0  0  0  0  0  0  0
    6.1739   -0.6695    0.2443 C   0  0  0  0  0  0  0  0  0  0  0  0
    5.7183   -0.7145    1.5056 C   0  0  0  0  0  0  0  0  0  0  0  0
    2.8000   -1.2915   -0.9290 H   0  0  0  0  0  0  0  0  0  0  0  0
    4.6705    2.4408    0.0018 H   0  0  0  0  0  0  0  0  0  0  0  0
    1.8911    2.5807    0.5165 H   0  0  0  0  0  0  0  0  0  0  0  0
    6.0144    0.6543   -1.4579 H   0  0  0  0  0  0  0  0  0  0  0  0
    5.2628   -0.9322   -1.6954 H   0  0  0  0  0  0  0  0  0  0  0  0
    7.1798   -1.0566    0.0034 H   0  0  0  0  0  0  0  0  0  0  0  0
    6.3339   -1.1356    2.3143 H   0  0  0  0  0  0  0  0  0  0  0  0
    4.7180   -0.3391    1.7758 H   0  0  0  0  0  0  0  0  0  0  0  0
  1  5  1  0  0  0  0
  2  4  1  0  0  0  0
  3  2  1  0  0  0  0
  3  1  1  0  0  0  0
  4 10  1  0  0  0  0
  4  5  2  0  0  0  0
  5 11  1  0  0  0  0
  6  2  1  0  0  0  0
  6  7  1  0  0  0  0
  7  8  2  0  0  0  0
  8 16  1  0  0  0  0
  8 15  1  0  0  0  0
  9  3  1  0  0  0  0
 12  6  1  0  0  0  0
 13  6  1  0  0  0  0
 14  7  1  0  0  0  0
M  END
