1
 OpenBabel05122313063D

 25 26  0  0  0  0  0  0  0  0999 V2000
    1.9541   -0.4612   -0.2515 N   0  0  0  0  0  2  0  0  0  0  0  0
    2.8558    0.4355   -0.6423 C   0  0  0  0  0  3  0  0  0  0  0  0
    4.1183   -0.0854   -0.6648 N   0  0  0  0  0  0  0  0  0  0  0  0
    4.0279   -1.4077   -0.2359 C   0  0  0  0  0  0  0  0  0  0  0  0
    2.6461   -1.6417    0.0165 C   0  0  0  0  0  0  0  0  0  0  0  0
    2.2063   -2.8978    0.4707 C   0  0  0  0  0  0  0  0  0  0  0  0
    1.1338   -3.0717    0.6306 H   0  0  0  0  0  0  0  0  0  0  0  0
    3.1763   -3.8880    0.6587 C   0  0  0  0  0  0  0  0  0  0  0  0
    2.8655   -4.8827    1.0112 H   0  0  0  0  0  0  0  0  0  0  0  0
    4.5489   -3.6480    0.4033 C   0  0  0  0  0  0  0  0  0  0  0  0
    5.2768   -4.4573    0.5637 H   0  0  0  0  0  0  0  0  0  0  0  0
    5.0014   -2.4026   -0.0495 C   0  0  0  0  0  0  0  0  0  0  0  0
    6.0672   -2.2165   -0.2450 H   0  0  0  0  0  0  0  0  0  0  0  0
    5.3403    0.6561   -0.9332 C   0  0  0  0  0  0  0  0  0  0  0  0
    6.0179    0.0041   -1.5234 H   0  0  0  0  0  0  0  0  0  0  0  0
    5.0817    1.5184   -1.5790 H   0  0  0  0  0  0  0  0  0  0  0  0
    6.0358    1.1434    0.3523 C   0  0  0  0  0  0  0  0  0  0  0  0
    6.2190    0.2599    1.0033 H   0  0  0  0  0  0  0  0  0  0  0  0
    5.3444    1.8122    0.9060 H   0  0  0  0  0  0  0  0  0  0  0  0
    7.3314    1.8451    0.0603 C   0  0  0  0  0  0  0  0  0  0  0  0
    8.1186    1.2321   -0.4181 H   0  0  0  0  0  0  0  0  0  0  0  0
    7.5832    3.1393    0.3202 C   0  0  0  0  0  0  0  0  0  0  0  0
    6.8273    3.7867    0.7961 H   0  0  0  0  0  0  0  0  0  0  0  0
    8.5545    3.5973    0.0776 H   0  0  0  0  0  0  0  0  0  0  0  0
    2.6215    1.4819   -0.8679 H   0  0  0  0  0  0  0  0  0  0  0  0
  1  5  1  0  0  0  0
  2  1  1  0  0  0  0
  3  2  1  0  0  0  0
  3  4  1  0  0  0  0
  4 12  2  0  0  0  0
  4  5  1  0  0  0  0
  5  6  2  0  0  0  0
  6  7  1  0  0  0  0
  6  8  1  0  0  0  0
  8  9  1  0  0  0  0
 10 11  1  0  0  0  0
 10  8  2  0  0  0  0
 12 10  1  0  0  0  0
 13 12  1  0  0  0  0
 14  3  1  0  0  0  0
 14 17  1  0  0  0  0
 15 14  1  0  0  0  0
 16 14  1  0  0  0  0
 17 19  1  0  0  0  0
 17 18  1  0  0  0  0
 20 22  2  0  0  0  0
 20 17  1  0  0  0  0
 21 20  1  0  0  0  0
 22 23  1  0  0  0  0
 24 22  1  0  0  0  0
 25  2  1  0  0  0  0
M  END
