3
 OpenBabel05122313063D

 67 73  0  0  1  0  0  0  0  0999 V2000
    1.0791    0.4120    0.6216 P   0  0  0  0  0  0  0  0  0  0  0  0
   -1.3050   -2.5682   -2.1967 O   0  0  0  0  0  0  0  0  0  0  0  0
    0.7231   -1.6629   -1.8773 N   0  0  0  0  0  2  0  0  0  0  0  0
   -1.4796   -0.8243    0.6120 C   0  0  0  0  0  0  0  0  0  0  0  0
   -0.2328   -0.7303    1.2594 C   0  0  0  0  0  0  0  0  0  0  0  0
    0.0605   -1.5890    2.3608 C   0  0  0  0  0  0  0  0  0  0  0  0
    1.0227   -1.4947    2.8826 H   0  0  0  0  0  0  0  0  0  0  0  0
   -0.8604   -2.5287    2.7923 C   0  0  0  0  0  0  0  0  0  0  0  0
   -0.6242   -3.1750    3.6516 H   0  0  0  0  0  0  0  0  0  0  0  0
   -3.0707   -3.6536    2.5586 C   0  0  0  0  0  0  0  0  0  0  0  0
   -2.8221   -4.3066    3.4091 H   0  0  0  0  0  0  0  0  0  0  0  0
   -4.2855   -3.7803    1.9030 C   0  0  0  0  0  0  0  0  0  0  0  0
   -5.0133   -4.5373    2.2308 H   0  0  0  0  0  0  0  0  0  0  0  0
   -4.5951   -2.9348    0.8033 C   0  0  0  0  0  0  0  0  0  0  0  0
   -5.5589   -3.0475    0.2850 H   0  0  0  0  0  0  0  0  0  0  0  0
   -3.6937   -1.9709    0.3786 C   0  0  0  0  0  0  0  0  0  0  0  0
   -3.9376   -1.3251   -0.4766 H   0  0  0  0  0  0  0  0  0  0  0  0
   -2.4363   -1.8091    1.0356 C   0  0  0  0  0  0  0  0  0  0  0  0
   -2.1189   -2.6763    2.1445 C   0  0  0  0  0  0  0  0  0  0  0  0
   -1.8146    0.0793   -0.5322 C   0  0  0  0  0  0  0  0  0  0  0  0
   -1.2745   -0.1946   -1.7932 C   0  0  0  0  0  0  0  0  0  0  0  0
   -1.4640    0.6918   -2.8897 C   0  0  0  0  0  0  0  0  0  0  0  0
   -1.0126    0.4546   -3.8639 H   0  0  0  0  0  0  0  0  0  0  0  0
   -2.2307    1.8328   -2.7223 C   0  0  0  0  0  0  0  0  0  0  0  0
   -2.3812    2.5255   -3.5642 H   0  0  0  0  0  0  0  0  0  0  0  0
   -3.7261    3.2404   -1.3142 C   0  0  0  0  0  0  0  0  0  0  0  0
   -3.8744    3.9201   -2.1672 H   0  0  0  0  0  0  0  0  0  0  0  0
   -4.3742    3.4695   -0.1099 C   0  0  0  0  0  0  0  0  0  0  0  0
   -5.0435    4.3358   -0.0006 H   0  0  0  0  0  0  0  0  0  0  0  0
   -4.1826    2.5848    0.9840 C   0  0  0  0  0  0  0  0  0  0  0  0
   -4.7072    2.7706    1.9330 H   0  0  0  0  0  0  0  0  0  0  0  0
   -3.3365    1.4924    0.8658 C   0  0  0  0  0  0  0  0  0  0  0  0
   -3.1856    0.8131    1.7167 H   0  0  0  0  0  0  0  0  0  0  0  0
   -2.6671    1.2207   -0.3631 C   0  0  0  0  0  0  0  0  0  0  0  0
   -2.8722    2.1112   -1.4800 C   0  0  0  0  0  0  0  0  0  0  0  0
    0.3413    2.0813    0.6030 C   0  0  0  0  0  0  0  0  0  0  0  0
   -0.4029    2.5564    1.7032 C   0  0  0  0  0  0  0  0  0  0  0  0
   -0.5638    1.9124    2.5813 H   0  0  0  0  0  0  0  0  0  0  0  0
   -0.9617    3.8408    1.6644 C   0  0  0  0  0  0  0  0  0  0  0  0
   -1.5484    4.2063    2.5200 H   0  0  0  0  0  0  0  0  0  0  0  0
   -0.7930    4.6506    0.5293 C   0  0  0  0  0  0  0  0  0  0  0  0
   -1.2437    5.6537    0.4994 H   0  0  0  0  0  0  0  0  0  0  0  0
   -0.0593    4.1774   -0.5696 C   0  0  0  0  0  0  0  0  0  0  0  0
    0.0630    4.8057   -1.4643 H   0  0  0  0  0  0  0  0  0  0  0  0
    0.5081    2.8961   -0.5347 C   0  0  0  0  0  0  0  0  0  0  0  0
    1.0618    2.5064   -1.4027 H   0  0  0  0  0  0  0  0  0  0  0  0
    2.3814    0.4203    1.9201 C   0  0  0  0  0  0  0  0  0  0  0  0
    3.2621   -0.6846    1.9681 C   0  0  0  0  0  0  0  0  0  0  0  0
    3.1357   -1.5163    1.2563 H   0  0  0  0  0  0  0  0  0  0  0  0
    4.2972   -0.7253    2.9114 C   0  0  0  0  0  0  0  0  0  0  0  0
    4.9728   -1.5932    2.9457 H   0  0  0  0  0  0  0  0  0  0  0  0
    4.4773    0.3459    3.8032 C   0  0  0  0  0  0  0  0  0  0  0  0
    5.2952    0.3189    4.5385 H   0  0  0  0  0  0  0  0  0  0  0  0
    3.6186    1.4533    3.7463 C   0  0  0  0  0  0  0  0  0  0  0  0
    3.7629    2.2993    4.4348 H   0  0  0  0  0  0  0  0  0  0  0  0
    2.5714    1.4939    2.8109 C   0  0  0  0  0  0  0  0  0  0  0  0
    1.9115    2.3721    2.7705 H   0  0  0  0  0  0  0  0  0  0  0  0
   -0.5589   -1.4809   -1.9639 C   0  0  2  0  0  3  0  0  0  0  0  0
    1.0140   -3.1082   -2.0177 C   0  0  2  0  0  0  0  0  0  0  0  0
    1.6326   -3.2454   -2.9307 H   0  0  0  0  0  0  0  0  0  0  0  0
   -0.4052   -3.7139   -2.2033 C   0  0  0  0  0  0  0  0  0  0  0  0
   -0.5457   -4.2499   -3.1608 H   0  0  0  0  0  0  0  0  0  0  0  0
   -0.7054   -4.3746   -1.3649 H   0  0  0  0  0  0  0  0  0  0  0  0
    1.7676   -3.6469   -0.8049 C   0  0  0  0  0  0  0  0  0  0  0  0
    2.7516   -3.1461   -0.7050 H   0  0  0  0  0  0  0  0  0  0  0  0
    1.9495   -4.7347   -0.9122 H   0  0  0  0  0  0  0  0  0  0  0  0
    1.1876   -3.4741    0.1246 H   0  0  0  0  0  0  0  0  0  0  0  0
  1  5  1  0  0  0  0
  1 47  1  0  0  0  0
  2 58  1  0  0  0  0
  4 18  2  0  0  0  0
  4  5  1  0  0  0  0
  5  6  2  0  0  0  0
  6  8  1  0  0  0  0
  6  7  1  0  0  0  0
  8  9  1  0  0  0  0
 10 11  1  0  0  0  0
 12 13  1  0  0  0  0
 12 10  2  0  0  0  0
 14 12  1  0  0  0  0
 15 14  1  0  0  0  0
 16 14  2  0  0  0  0
 16 18  1  0  0  0  0
 17 16  1  0  0  0  0
 18 19  1  0  0  0  0
 19 10  1  0  0  0  0
 19  8  2  0  0  0  0
 20 34  1  0  0  0  0
 20  4  1  0  0  0  0
 21 20  2  0  0  0  0
 22 24  2  0  0  0  0
 22 21  1  0  0  0  0
 23 22  1  0  0  0  0
 24 35  1  0  0  0  0
 25 24  1  0  0  0  0
 26 28  1  0  0  0  0
 27 26  1  0  0  0  0
 28 29  1  0  0  0  0
 28 30  2  0  0  0  0
 30 31  1  0  0  0  0
 32 30  1  0  0  0  0
 32 33  1  0  0  0  0
 34 32  2  0  0  0  0
 35 26  2  0  0  0  0
 35 34  1  0  0  0  0
 36  1  1  0  0  0  0
 36 37  1  0  0  0  0
 37 38  1  0  0  0  0
 39 37  2  0  0  0  0
 39 40  1  0  0  0  0
 41 39  1  0  0  0  0
 42 41  1  0  0  0  0
 43 45  1  0  0  0  0
 43 41  2  0  0  0  0
 44 43  1  0  0  0  0
 45 36  2  0  0  0  0
 46 45  1  0  0  0  0
 47 48  2  0  0  0  0
 47 56  1  0  0  0  0
 48 50  1  0  0  0  0
 49 48  1  0  0  0  0
 50 51  1  0  0  0  0
 50 52  2  0  0  0  0
 52 53  1  0  0  0  0
 54 52  1  0  0  0  0
 54 55  1  0  0  0  0
 56 54  2  0  0  0  0
 57 56  1  0  0  0  0
 58  3  1  0  0  0  0
 58 21  1  1  0  0  0
 59 60  1  6  0  0  0
 59  3  1  0  0  0  0
 59 64  1  0  0  0  0
 61  2  1  0  0  0  0
 61 59  1  0  0  0  0
 61 63  1  0  0  0  0
 62 61  1  0  0  0  0
 64 65  1  0  0  0  0
 64 67  1  0  0  0  0
 66 64  1  0  0  0  0
M  END
