2
 OpenBabel05122313063D

 29 32  0  0  1  0  0  0  0  0999 V2000
    5.0453   -0.3132    0.0780 S   0  0  0  0  0  0  0  0  0  0  0  0
    2.5060   -0.8151   -0.0312 N   0  0  0  0  0  2  0  0  0  0  0  0
    1.6795    1.8565   -0.0964 N   0  0  0  0  0  0  0  0  0  0  0  0
    3.1223   -2.0583   -0.0526 C   0  0  0  0  0  0  0  0  0  0  0  0
    3.5202    3.9612    0.2152 C   0  0  0  0  0  0  0  0  0  0  0  0
    4.2398    4.7846    0.3406 H   0  0  0  0  0  0  0  0  0  0  0  0
    1.2316    3.1406   -0.1016 C   0  0  0  0  0  0  0  0  0  0  0  0
    2.9803    1.6108    0.0491 C   0  0  0  0  0  0  0  0  0  0  0  0
    3.3712    0.1909    0.0328 C   0  0  2  0  0  3  0  0  0  0  0  0
    4.5435   -1.9870    0.0045 C   0  0  0  0  0  0  0  0  0  0  0  0
    2.4832   -3.3132   -0.1263 C   0  0  0  0  0  0  0  0  0  0  0  0
    1.3852   -3.3608   -0.1775 H   0  0  0  0  0  0  0  0  0  0  0  0
    2.1370    4.2572    0.0584 C   0  0  0  0  0  0  0  0  0  0  0  0
    3.9505    2.6463    0.2089 C   0  0  0  0  0  0  0  0  0  0  0  0
    5.0166    2.4033    0.3309 H   0  0  0  0  0  0  0  0  0  0  0  0
    5.3395   -3.1437   -0.0061 C   0  0  0  0  0  0  0  0  0  0  0  0
    6.4359   -3.0826    0.0388 H   0  0  0  0  0  0  0  0  0  0  0  0
   -0.1614    3.3926   -0.2747 C   0  0  0  0  0  0  0  0  0  0  0  0
   -0.8357    2.5370   -0.4134 H   0  0  0  0  0  0  0  0  0  0  0  0
    4.6868   -4.3790   -0.0774 C   0  0  0  0  0  0  0  0  0  0  0  0
    5.2846   -5.3021   -0.0878 H   0  0  0  0  0  0  0  0  0  0  0  0
    3.2755   -4.4619   -0.1380 C   0  0  0  0  0  0  0  0  0  0  0  0
    2.7960   -5.4497   -0.1970 H   0  0  0  0  0  0  0  0  0  0  0  0
   -0.6356    4.6948   -0.2819 C   0  0  0  0  0  0  0  0  0  0  0  0
   -1.7113    4.8800   -0.4211 H   0  0  0  0  0  0  0  0  0  0  0  0
    1.6145    5.5806    0.0483 C   0  0  0  0  0  0  0  0  0  0  0  0
    2.3052    6.4287    0.1712 H   0  0  0  0  0  0  0  0  0  0  0  0
    0.2532    5.7938   -0.1178 C   0  0  0  0  0  0  0  0  0  0  0  0
   -0.1442    6.8195   -0.1265 H   0  0  0  0  0  0  0  0  0  0  0  0
  2  9  1  0  0  0  0
  3  8  1  0  0  0  0
  4  2  1  0  0  0  0
  4 10  1  0  0  0  0
  5  6  1  0  0  0  0
  7  3  2  0  0  0  0
  7 13  1  0  0  0  0
  8 14  2  0  0  0  0
  9  8  1  6  0  0  0
  9  1  1  0  0  0  0
 10  1  1  0  0  0  0
 11  4  2  0  0  0  0
 12 11  1  0  0  0  0
 13  5  2  0  0  0  0
 14  5  1  0  0  0  0
 14 15  1  0  0  0  0
 16 10  2  0  0  0  0
 16 17  1  0  0  0  0
 18  7  1  0  0  0  0
 19 18  1  0  0  0  0
 20 16  1  0  0  0  0
 21 20  1  0  0  0  0
 22 11  1  0  0  0  0
 22 20  2  0  0  0  0
 23 22  1  0  0  0  0
 24 18  2  0  0  0  0
 24 28  1  0  0  0  0
 25 24  1  0  0  0  0
 26 13  1  0  0  0  0
 26 27  1  0  0  0  0
 28 26  2  0  0  0  0
 29 28  1  0  0  0  0
M  END
