1
 OpenBabel05122313063D

 14 14  0  0  0  0  0  0  0  0999 V2000
   -0.3143    1.5575   -1.2178 N   0  0  0  0  0  2  0  0  0  0  0  0
   -1.0967    1.3155   -2.4381 C   0  0  0  0  0  0  0  0  0  0  0  0
   -1.9749    2.5114   -2.8267 C   0  0  0  0  0  0  0  0  0  0  0  0
   -1.1065    3.7488   -3.0792 C   0  0  0  0  0  0  0  0  0  0  0  0
   -0.0854    3.8771   -1.9827 C   0  0  0  0  0  0  0  0  0  0  0  0
    0.1806    2.8579   -1.1150 C   0  0  0  0  0  0  0  0  0  0  0  0
   -0.4095    1.0880   -3.2867 H   0  0  0  0  0  0  0  0  0  0  0  0
   -1.7269    0.4225   -2.2770 H   0  0  0  0  0  0  0  0  0  0  0  0
   -2.5811    2.2485   -3.7182 H   0  0  0  0  0  0  0  0  0  0  0  0
   -0.6179    3.6780   -4.0800 H   0  0  0  0  0  0  0  0  0  0  0  0
    0.4336    4.8361   -1.8328 H   0  0  0  0  0  0  0  0  0  0  0  0
    0.8823    3.0251   -0.2845 H   0  0  0  0  0  0  0  0  0  0  0  0
   -1.7386    4.6629   -3.1281 H   0  0  0  0  0  0  0  0  0  0  0  0
   -2.6874    2.7149   -1.9987 H   0  0  0  0  0  0  0  0  0  0  0  0
  1  6  1  0  0  0  0
  2  8  1  0  0  0  0
  2  1  1  0  0  0  0
  3  2  1  0  0  0  0
  3 14  1  0  0  0  0
  4  3  1  0  0  0  0
  4  5  1  0  0  0  0
  5 11  1  0  0  0  0
  5  6  2  0  0  0  0
  6 12  1  0  0  0  0
  7  2  1  0  0  0  0
  9  3  1  0  0  0  0
 10  4  1  0  0  0  0
 13  4  1  0  0  0  0
M  END
