6
 OpenBabel05122313063D

 39 39  0  0  0  0  0  0  0  0999 V2000
   -2.5082    0.3688   -0.0874 P   0  0  0  0  0  4  0  0  0  0  0  0
   -1.6804    1.6885    1.1258 S   0  0  0  0  0  1  0  0  0  0  0  0
   -3.1051   -1.6701   -2.6174 S   0  0  0  0  0  0  0  0  0  0  0  0
   -3.4477    1.0874   -1.2121 O   0  0  0  0  0  0  0  0  0  0  0  0
   -3.5728   -0.6423    0.6112 O   0  0  0  0  0  0  0  0  0  0  0  0
   -1.3732   -0.7134   -0.7359 N   0  0  0  0  0  2  0  0  0  0  0  0
   -0.5764   -2.2691   -2.3384 N   0  0  0  0  0  0  0  0  0  0  0  0
   -0.8521   -2.6519   -3.2465 H   0  0  0  0  0  0  0  0  0  0  0  0
   -1.6340   -1.5159   -1.8072 C   0  0  0  0  0  0  0  0  0  0  0  0
   -3.0980    2.3437   -1.8540 C   0  0  0  0  0  0  0  0  0  0  0  0
   -2.6860    3.0147   -1.0654 H   0  0  0  0  0  0  0  0  0  0  0  0
   -2.0463    2.1013   -2.9284 C   0  0  0  0  0  0  0  0  0  0  0  0
   -1.0983    1.7416   -2.4811 H   0  0  0  0  0  0  0  0  0  0  0  0
   -1.8282    3.0411   -3.4748 H   0  0  0  0  0  0  0  0  0  0  0  0
   -2.4021    1.3369   -3.6479 H   0  0  0  0  0  0  0  0  0  0  0  0
   -4.4044    2.9100   -2.3897 C   0  0  0  0  0  0  0  0  0  0  0  0
   -5.1395    3.0390   -1.5713 H   0  0  0  0  0  0  0  0  0  0  0  0
   -4.8395    2.2278   -3.1475 H   0  0  0  0  0  0  0  0  0  0  0  0
   -4.2289    3.8966   -2.8627 H   0  0  0  0  0  0  0  0  0  0  0  0
   -4.7526   -0.0865    1.2653 C   0  0  0  0  0  0  0  0  0  0  0  0
   -4.6386    1.0203    1.3039 H   0  0  0  0  0  0  0  0  0  0  0  0
   -4.7747   -0.6293    2.6864 C   0  0  0  0  0  0  0  0  0  0  0  0
   -3.8560   -0.3248    3.2247 H   0  0  0  0  0  0  0  0  0  0  0  0
   -4.8258   -1.7371    2.6765 H   0  0  0  0  0  0  0  0  0  0  0  0
   -5.6556   -0.2421    3.2367 H   0  0  0  0  0  0  0  0  0  0  0  0
   -5.9654   -0.4551    0.4235 C   0  0  0  0  0  0  0  0  0  0  0  0
   -5.8504   -0.0511   -0.6001 H   0  0  0  0  0  0  0  0  0  0  0  0
   -6.8927   -0.0468    0.8740 H   0  0  0  0  0  0  0  0  0  0  0  0
   -6.0618   -1.5571    0.3498 H   0  0  0  0  0  0  0  0  0  0  0  0
    0.8451   -2.6224   -0.4942 N   0  0  0  0  0  0  0  0  0  0  0  0
    0.6170   -2.7477   -1.8150 C   0  0  0  0  0  0  0  0  0  0  0  0
    1.5440   -3.3745   -2.6862 C   0  0  0  0  0  0  0  0  0  0  0  0
    1.3268   -3.4521   -3.7621 H   0  0  0  0  0  0  0  0  0  0  0  0
    2.7307   -3.8753   -2.1503 C   0  0  0  0  0  0  0  0  0  0  0  0
    3.4676   -4.3628   -2.8062 H   0  0  0  0  0  0  0  0  0  0  0  0
    2.9725   -3.7446   -0.7680 C   0  0  0  0  0  0  0  0  0  0  0  0
    3.8922   -4.1293   -0.3046 H   0  0  0  0  0  0  0  0  0  0  0  0
    1.9951   -3.1104    0.0054 C   0  0  0  0  0  0  0  0  0  0  0  0
    2.1326   -2.9764    1.0936 H   0  0  0  0  0  0  0  0  0  0  0  0
  1  5  1  0  0  0  0
  1  2  1  0  0  0  0
  3  9  2  0  0  0  0
  4  1  1  0  0  0  0
  5 20  1  0  0  0  0
  6  1  1  0  0  0  0
  7 31  1  0  0  0  0
  7  9  1  0  0  0  0
  8  7  1  0  0  0  0
  9  6  1  0  0  0  0
 10  4  1  0  0  0  0
 10 11  1  0  0  0  0
 12 13  1  0  0  0  0
 12 10  1  0  0  0  0
 14 12  1  0  0  0  0
 15 12  1  0  0  0  0
 16 10  1  0  0  0  0
 16 17  1  0  0  0  0
 18 16  1  0  0  0  0
 19 16  1  0  0  0  0
 20 21  1  0  0  0  0
 20 22  1  0  0  0  0
 22 23  1  0  0  0  0
 22 25  1  0  0  0  0
 24 22  1  0  0  0  0
 26 28  1  0  0  0  0
 26 20  1  0  0  0  0
 27 26  1  0  0  0  0
 29 26  1  0  0  0  0
 30 38  1  0  0  0  0
 31 30  2  0  0  0  0
 32 34  2  0  0  0  0
 32 31  1  0  0  0  0
 33 32  1  0  0  0  0
 34 36  1  0  0  0  0
 35 34  1  0  0  0  0
 36 37  1  0  0  0  0
 36 38  2  0  0  0  0
 38 39  1  0  0  0  0
M  END
