35
 OpenBabel05122313063D

 38 39  0  0  1  0  0  0  0  0999 V2000
   -3.2733    0.3761    0.3745 C   0  0  0  0  0  3  0  0  0  0  0  0
   -3.3747   -0.5300   -0.2331 H   0  0  0  0  0  0  0  0  0  0  0  0
   -3.7533    2.1639    1.5284 C   0  0  0  0  0  0  0  0  0  0  0  0
   -4.3519    2.9331    2.0252 H   0  0  0  0  0  0  0  0  0  0  0  0
   -5.7179    0.7714    0.6965 C   0  0  0  0  0  0  0  0  0  0  0  0
   -6.6237    1.8842    0.2119 C   0  0  2  0  0  0  0  0  0  0  0  0
   -7.6606    1.4949    0.3127 H   0  0  0  0  0  0  0  0  0  0  0  0
   -6.4655    2.2522   -1.3073 C   0  0  0  0  0  0  0  0  0  0  0  0
   -6.7550    1.0047   -2.1579 C   0  0  0  0  0  0  0  0  0  0  0  0
   -6.7070    1.2569   -3.2360 H   0  0  0  0  0  0  0  0  0  0  0  0
   -7.7669    0.5983   -1.9532 H   0  0  0  0  0  0  0  0  0  0  0  0
   -6.0258    0.1913   -1.9704 H   0  0  0  0  0  0  0  0  0  0  0  0
   -7.5300    3.3255   -1.6185 C   0  0  0  0  0  0  0  0  0  0  0  0
   -7.5259    3.5666   -2.6999 H   0  0  0  0  0  0  0  0  0  0  0  0
   -7.3350    4.2836   -1.0897 H   0  0  0  0  0  0  0  0  0  0  0  0
   -8.5507    2.9786   -1.3556 H   0  0  0  0  0  0  0  0  0  0  0  0
   -5.0727    2.8197   -1.6312 C   0  0  0  0  0  0  0  0  0  0  0  0
   -4.2825    2.0439   -1.5972 H   0  0  0  0  0  0  0  0  0  0  0  0
   -4.7970    3.6308   -0.9280 H   0  0  0  0  0  0  0  0  0  0  0  0
   -5.0636    3.2434   -2.6553 H   0  0  0  0  0  0  0  0  0  0  0  0
   -6.0803   -0.5189    0.8920 C   0  0  0  0  0  0  0  0  0  0  0  0
   -5.2889   -1.2390    1.1632 H   0  0  0  0  0  0  0  0  0  0  0  0
   -7.4259   -1.0900    0.7166 C   0  0  0  0  0  0  0  0  0  0  0  0
   -7.6090   -2.2021   -0.1387 C   0  0  0  0  0  0  0  0  0  0  0  0
   -8.8605   -2.8031   -0.3204 C   0  0  0  0  0  0  0  0  0  0  0  0
   -8.9764   -3.6571   -1.0003 H   0  0  0  0  0  0  0  0  0  0  0  0
   -9.9644   -2.2862    0.3781 C   0  0  0  0  0  0  0  0  0  0  0  0
   -9.8192   -1.1902    1.2481 C   0  0  0  0  0  0  0  0  0  0  0  0
  -10.6908   -0.8118    1.7990 H   0  0  0  0  0  0  0  0  0  0  0  0
   -8.5586   -0.6071    1.4092 C   0  0  0  0  0  0  0  0  0  0  0  0
   -8.4342    0.2314    2.1108 H   0  0  0  0  0  0  0  0  0  0  0  0
  -11.5223   -3.0175    0.1650 Cl  0  0  0  0  0  0  0  0  0  0  0  0
   -6.2366   -2.8229   -1.0276 Cl  0  0  0  0  0  0  0  0  0  0  0  0
   -2.4389    2.1045    1.4595 N   0  0  0  0  0  0  0  0  0  0  0  0
   -2.1444    0.9806    0.7300 N   0  0  0  0  0  2  0  0  0  0  0  0
   -4.3262    1.0956    0.8632 N   0  0  0  0  0  0  0  0  0  0  0  0
   -6.4233    2.9949    1.0788 O   0  0  0  0  0  0  0  0  0  0  0  0
   -6.9663    3.7311    0.7403 H   0  0  0  0  0  0  0  0  0  0  0  0
  1 35  1  0  0  0  0
  1 36  1  0  0  0  0
  2  1  1  0  0  0  0
  3  4  1  0  0  0  0
  5 36  1  0  0  0  0
  5 21  2  0  0  0  0
  6  7  1  1  0  0  0
  6  5  1  0  0  0  0
  6 37  1  0  0  0  0
  8  6  1  0  0  0  0
  9 12  1  0  0  0  0
  9 11  1  0  0  0  0
  9  8  1  0  0  0  0
 10  9  1  0  0  0  0
 13 16  1  0  0  0  0
 13  8  1  0  0  0  0
 13 15  1  0  0  0  0
 14 13  1  0  0  0  0
 17 18  1  0  0  0  0
 17  8  1  0  0  0  0
 17 19  1  0  0  0  0
 20 17  1  0  0  0  0
 21 22  1  0  0  0  0
 23 21  1  0  0  0  0
 23 30  1  0  0  0  0
 24 23  2  0  0  0  0
 25 24  1  0  0  0  0
 25 27  2  0  0  0  0
 26 25  1  0  0  0  0
 27 28  1  0  0  0  0
 28 30  2  0  0  0  0
 28 29  1  0  0  0  0
 30 31  1  0  0  0  0
 32 27  1  0  0  0  0
 33 24  1  0  0  0  0
 34  3  2  0  0  0  0
 35 34  1  0  0  0  0
 36  3  1  0  0  0  0
 38 37  1  0  0  0  0
M  END
