1
 OpenBabel05122313063D

 13 12  0  0  1  0  0  0  0  0999 V2000
    1.7661    0.9926   -0.0009 N   0  0  0  0  0  2  0  0  0  0  0  0
    1.5877    2.0048   -0.0017 H   0  0  0  0  0  0  0  0  0  0  0  0
    3.0460    0.6858    0.0001 C   0  0  2  0  0  3  0  0  0  0  0  0
    3.4684   -0.5944    0.0024 N   0  0  0  0  0  0  0  0  0  0  0  0
    2.7182   -1.3147    0.0013 H   0  0  0  0  0  0  0  0  0  0  0  0
    4.8473   -1.0204   -0.0000 C   0  0  0  0  0  0  0  0  0  0  0  0
    4.8707   -2.1259    0.0073 H   0  0  0  0  0  0  0  0  0  0  0  0
    5.4031   -0.6813   -0.9025 H   0  0  0  0  0  0  0  0  0  0  0  0
    5.4092   -0.6695    0.8939 H   0  0  0  0  0  0  0  0  0  0  0  0
    4.0880    1.7756   -0.0010 C   0  0  0  0  0  0  0  0  0  0  0  0
    4.7427    1.6961   -0.8929 H   0  0  0  0  0  0  0  0  0  0  0  0
    3.6140    2.7735   -0.0032 H   0  0  0  0  0  0  0  0  0  0  0  0
    4.7412    1.6993    0.8922 H   0  0  0  0  0  0  0  0  0  0  0  0
  2  1  1  0  0  0  0
  3  1  1  1  0  0  0
  3  4  1  0  0  0  0
  5  4  1  0  0  0  0
  6  4  1  0  0  0  0
  6  7  1  0  0  0  0
  6  9  1  0  0  0  0
  8  6  1  0  0  0  0
 10  3  1  0  0  0  0
 10 13  1  0  0  0  0
 11 10  1  0  0  0  0
 12 10  1  0  0  0  0
M  END
