1
 OpenBabel05122313063D

 26 27  0  0  0  0  0  0  0  0999 V2000
   -2.3179    0.4879   -0.3407 N   0  0  0  0  0  2  0  0  0  0  0  0
   -3.1036   -0.5774   -0.0779 C   0  0  0  0  0  3  0  0  0  0  0  0
   -2.5839   -1.5371    0.0811 H   0  0  0  0  0  0  0  0  0  0  0  0
   -4.4950   -0.5022    0.0092 C   0  0  0  0  0  0  0  0  0  0  0  0
   -5.0954   -1.3923    0.2245 H   0  0  0  0  0  0  0  0  0  0  0  0
   -5.1168    0.7533   -0.1844 C   0  0  0  0  0  0  0  0  0  0  0  0
   -4.2839    1.8645   -0.4578 C   0  0  0  0  0  0  0  0  0  0  0  0
   -4.7103    2.8677   -0.6139 H   0  0  0  0  0  0  0  0  0  0  0  0
   -2.9036    1.6898   -0.5260 C   0  0  0  0  0  0  0  0  0  0  0  0
   -2.2287    2.5389   -0.7329 H   0  0  0  0  0  0  0  0  0  0  0  0
   -6.4909    0.9659   -0.1180 N   0  0  0  0  0  0  0  0  0  0  0  0
   -6.7760    1.9353   -0.2684 H   0  0  0  0  0  0  0  0  0  0  0  0
   -7.4941    0.0131    0.1214 C   0  0  0  0  0  0  0  0  0  0  0  0
   -7.2733   -1.1765    0.2947 O   0  0  0  0  0  0  0  0  0  0  0  0
   -8.7608    0.5913    0.1348 N   0  0  0  0  0  0  0  0  0  0  0  0
   -8.8310    1.6005   -0.0064 H   0  0  0  0  0  0  0  0  0  0  0  0
   -9.9920   -0.0483    0.3336 C   0  0  0  0  0  0  0  0  0  0  0  0
  -10.1420   -1.4341    0.5525 C   0  0  0  0  0  0  0  0  0  0  0  0
   -9.2664   -2.0917    0.5789 H   0  0  0  0  0  0  0  0  0  0  0  0
  -11.4410   -1.9318    0.7342 C   0  0  0  0  0  0  0  0  0  0  0  0
  -11.5751   -3.0149    0.9066 H   0  0  0  0  0  0  0  0  0  0  0  0
  -12.5605   -1.1906    0.7167 N   0  0  0  0  0  0  0  0  0  0  0  0
  -12.4020    0.1262    0.5079 C   0  0  0  0  0  0  0  0  0  0  0  0
  -13.3211    0.7393    0.4932 H   0  0  0  0  0  0  0  0  0  0  0  0
  -11.1613    0.7438    0.3130 C   0  0  0  0  0  0  0  0  0  0  0  0
  -11.1036    1.8319    0.1465 H   0  0  0  0  0  0  0  0  0  0  0  0
  1  2  1  0  0  0  0
  2  4  1  0  0  0  0
  2  3  1  0  0  0  0
  4  5  1  0  0  0  0
  6 11  1  0  0  0  0
  6  4  2  0  0  0  0
  7  6  1  0  0  0  0
  8  7  1  0  0  0  0
  9  7  2  0  0  0  0
  9  1  1  0  0  0  0
 10  9  1  0  0  0  0
 11 13  1  0  0  0  0
 12 11  1  0  0  0  0
 13 15  1  0  0  0  0
 13 14  2  0  0  0  0
 15 17  1  0  0  0  0
 16 15  1  0  0  0  0
 17 18  1  0  0  0  0
 18 19  1  0  0  0  0
 18 20  2  0  0  0  0
 20 21  1  0  0  0  0
 22 20  1  0  0  0  0
 23 22  2  0  0  0  0
 24 23  1  0  0  0  0
 25 17  2  0  0  0  0
 25 23  1  0  0  0  0
 26 25  1  0  0  0  0
M  END
