1
 OpenBabel05122313063D

 12 12  0  0  0  0  0  0  0  0999 V2000
   -2.1585   -0.6579   -0.0427 N   0  0  0  0  0  2  0  0  0  0  0  0
   -3.1153    0.2730    0.1024 C   0  0  0  0  0  3  0  0  0  0  0  0
   -2.7668    1.3073    0.2562 H   0  0  0  0  0  0  0  0  0  0  0  0
   -4.4903   -0.0429    0.0333 C   0  0  0  0  0  0  0  0  0  0  0  0
   -4.8635   -1.3837   -0.2132 C   0  0  0  0  0  0  0  0  0  0  0  0
   -5.9268   -1.6564   -0.2770 H   0  0  0  0  0  0  0  0  0  0  0  0
   -3.8550   -2.3371   -0.3736 C   0  0  0  0  0  0  0  0  0  0  0  0
   -4.0943   -3.3915   -0.5705 H   0  0  0  0  0  0  0  0  0  0  0  0
   -2.5143   -1.9377   -0.2776 C   0  0  0  0  0  0  0  0  0  0  0  0
   -1.6993   -2.6702   -0.3866 H   0  0  0  0  0  0  0  0  0  0  0  0
   -5.4755    0.9827    0.2097 C   0  0  0  0  0  0  0  0  0  0  0  0
   -6.2857    1.8186    0.3580 N   0  0  0  0  0  0  0  0  0  0  0  0
  1  2  1  0  0  0  0
  2  3  1  0  0  0  0
  4  2  1  0  0  0  0
  4 11  1  0  0  0  0
  5  4  2  0  0  0  0
  6  5  1  0  0  0  0
  7  9  2  0  0  0  0
  7  5  1  0  0  0  0
  8  7  1  0  0  0  0
  9  1  1  0  0  0  0
 10  9  1  0  0  0  0
 11 12  3  0  0  0  0
M  END
