2
 OpenBabel05122313063D

 25 26  0  0  0  0  0  0  0  0999 V2000
    0.4612    0.4957   -2.6582 O   0  0  0  0  0  0  0  0  0  0  0  0
   -2.1654   -1.3867   -0.3356 N   0  0  0  0  0  2  0  0  0  0  0  0
   -0.4169   -0.2472   -1.9597 N   0  0  0  0  0  0  0  0  0  0  0  0
   -3.2224   -2.0012    0.2113 C   0  0  0  0  0  3  0  0  0  0  0  0
   -3.2512   -3.3879    0.4317 C   0  0  0  0  0  0  0  0  0  0  0  0
   -2.1279   -4.1420    0.0645 C   0  0  0  0  0  0  0  0  0  0  0  0
   -1.0302   -3.4981   -0.5229 C   0  0  0  0  0  0  0  0  0  0  0  0
   -1.0843   -2.1028   -0.7199 C   0  0  0  0  0  0  0  0  0  0  0  0
    0.0009   -1.3618   -1.4232 C   0  0  0  0  0  0  0  0  0  0  0  0
    1.3995   -1.8502   -1.4310 C   0  0  0  0  0  0  0  0  0  0  0  0
    2.2210   -1.7528   -2.5769 C   0  0  0  0  0  0  0  0  0  0  0  0
    3.5688   -2.1319   -2.5139 C   0  0  0  0  0  0  0  0  0  0  0  0
    4.1209   -2.5997   -1.3105 C   0  0  0  0  0  0  0  0  0  0  0  0
    3.3129   -2.7007   -0.1667 C   0  0  0  0  0  0  0  0  0  0  0  0
    1.9622   -2.3362   -0.2268 C   0  0  0  0  0  0  0  0  0  0  0  0
   -0.0922    1.3287   -2.8297 H   0  0  0  0  0  0  0  0  0  0  0  0
   -4.0544   -1.3275    0.4899 H   0  0  0  0  0  0  0  0  0  0  0  0
   -4.1354   -3.8574    0.8859 H   0  0  0  0  0  0  0  0  0  0  0  0
   -2.1079   -5.2313    0.2214 H   0  0  0  0  0  0  0  0  0  0  0  0
   -0.1466   -4.0642   -0.8489 H   0  0  0  0  0  0  0  0  0  0  0  0
    1.7981   -1.3704   -3.5147 H   0  0  0  0  0  0  0  0  0  0  0  0
    4.1965   -2.0553   -3.4146 H   0  0  0  0  0  0  0  0  0  0  0  0
    5.1830   -2.8838   -1.2631 H   0  0  0  0  0  0  0  0  0  0  0  0
    3.7406   -3.0567    0.7827 H   0  0  0  0  0  0  0  0  0  0  0  0
    1.3380   -2.3951    0.6775 H   0  0  0  0  0  0  0  0  0  0  0  0
  1  3  1  0  0  0  0
  2  4  1  0  0  0  0
  3  9  2  0  0  0  0
  4  5  1  0  0  0  0
  4 17  1  0  0  0  0
  5 18  1  0  0  0  0
  6 19  1  0  0  0  0
  6  5  2  0  0  0  0
  7  6  1  0  0  0  0
  8  7  2  0  0  0  0
  8  2  1  0  0  0  0
  9  8  1  0  0  0  0
 10  9  1  0  0  0  0
 10 15  1  0  0  0  0
 11 12  1  0  0  0  0
 11 10  2  0  0  0  0
 12 13  2  0  0  0  0
 13 23  1  0  0  0  0
 13 14  1  0  0  0  0
 14 24  1  0  0  0  0
 15 14  2  0  0  0  0
 15 25  1  0  0  0  0
 16  1  1  0  0  0  0
 20  7  1  0  0  0  0
 21 11  1  0  0  0  0
 22 12  1  0  0  0  0
M  END
