5
 OpenBabel05122313063D

 24 24  0  0  1  0  0  0  0  0999 V2000
   -5.9614    3.6544   -0.0081 Cl  0  0  0  0  0  0  0  0  0  0  0  0
   -3.2964    2.7378    0.0120 O   0  0  0  0  0  0  0  0  0  0  0  0
   -8.8834   -3.3847    0.2579 O   0  0  0  0  0  0  0  0  0  0  0  0
  -10.4696   -1.9544   -0.2146 O   0  0  0  0  0  0  0  0  0  0  0  0
   -1.6949    1.0909   -0.1706 N   0  0  0  0  0  2  0  0  0  0  0  0
   -4.1778    1.6707   -0.0418 N   0  0  0  0  0  0  0  0  0  0  0  0
   -9.2999   -2.2534    0.0185 N   0  0  0  0  0  0  0  0  0  0  0  0
   -1.9848    2.3331    0.0011 C   0  0  2  0  0  3  0  0  0  0  0  0
   -1.0425    3.4549    0.2222 C   0  0  0  0  0  0  0  0  0  0  0  0
   -5.4254    1.9971   -0.0256 C   0  0  0  0  0  0  0  0  0  0  0  0
   -6.4359    0.9175   -0.0071 C   0  0  0  0  0  0  0  0  0  0  0  0
   -6.0224   -0.4113    0.2648 C   0  0  0  0  0  0  0  0  0  0  0  0
   -6.9570   -1.4478    0.2712 C   0  0  0  0  0  0  0  0  0  0  0  0
   -8.3014   -1.1495    0.0089 C   0  0  0  0  0  0  0  0  0  0  0  0
   -8.7376    0.1531   -0.2562 C   0  0  0  0  0  0  0  0  0  0  0  0
   -7.7979    1.1886   -0.2614 C   0  0  0  0  0  0  0  0  0  0  0  0
   -2.5260    0.4826   -0.2664 H   0  0  0  0  0  0  0  0  0  0  0  0
   -0.5384    3.2873    1.1975 H   0  0  0  0  0  0  0  0  0  0  0  0
   -1.5799    4.4186    0.2133 H   0  0  0  0  0  0  0  0  0  0  0  0
   -0.2426    3.4171   -0.5429 H   0  0  0  0  0  0  0  0  0  0  0  0
   -4.9653   -0.6212    0.4818 H   0  0  0  0  0  0  0  0  0  0  0  0
   -6.6701   -2.4864    0.4819 H   0  0  0  0  0  0  0  0  0  0  0  0
   -9.8028    0.3305   -0.4537 H   0  0  0  0  0  0  0  0  0  0  0  0
   -8.1171    2.2194   -0.4669 H   0  0  0  0  0  0  0  0  0  0  0  0
  4  7  2  0  0  0  0
  6 10  2  0  0  0  0
  6  2  1  0  0  0  0
  7  3  2  0  0  0  0
  8  5  1  1  0  0  0
  8  2  1  0  0  0  0
  8  9  1  0  0  0  0
  9 18  1  0  0  0  0
 10  1  1  0  0  0  0
 10 11  1  0  0  0  0
 11 12  1  0  0  0  0
 12 13  2  0  0  0  0
 12 21  1  0  0  0  0
 13 22  1  0  0  0  0
 14  7  1  0  0  0  0
 14 13  1  0  0  0  0
 15 14  2  0  0  0  0
 16 15  1  0  0  0  0
 16 11  2  0  0  0  0
 17  5  1  0  0  0  0
 19  9  1  0  0  0  0
 20  9  1  0  0  0  0
 23 15  1  0  0  0  0
 24 16  1  0  0  0  0
M  END
