30
 OpenBabel05122313063D

 35 36  0  0  1  0  0  0  0  0999 V2000
   -0.7951   -0.1072   -0.5973 S   0  0  0  0  0  0  0  0  0  0  0  0
   -2.5682   -0.0192   -0.5060 C   0  0  0  0  0  0  0  0  0  0  0  0
   -3.4563   -1.1773   -0.3028 C   0  0  0  0  0  0  0  0  0  0  0  0
   -3.1108   -2.2110   -0.1882 H   0  0  0  0  0  0  0  0  0  0  0  0
   -4.7436   -0.7036   -0.3144 C   0  0  0  0  0  0  0  0  0  0  0  0
   -4.7520    0.7878   -0.5461 C   0  0  2  0  0  0  0  0  0  0  0  0
   -5.2905    1.0094   -1.4972 H   0  0  0  0  0  0  0  0  0  0  0  0
   -3.2854    1.1327   -0.6841 C   0  0  0  0  0  0  0  0  0  0  0  0
   -2.8659    2.5593   -0.7950 C   0  0  0  0  0  0  0  0  0  0  0  0
   -3.1832    2.9695   -1.7812 H   0  0  0  0  0  0  0  0  0  0  0  0
   -1.7610    2.6455   -0.7535 H   0  0  0  0  0  0  0  0  0  0  0  0
   -3.5466    3.3867    0.3212 C   0  0  0  0  0  0  0  0  0  0  0  0
   -3.0907    3.1153    1.2995 H   0  0  0  0  0  0  0  0  0  0  0  0
   -3.3444    4.4667    0.1677 H   0  0  0  0  0  0  0  0  0  0  0  0
   -5.0584    3.1247    0.3842 C   0  0  0  0  0  0  0  0  0  0  0  0
   -5.5130    3.7176    1.2049 H   0  0  0  0  0  0  0  0  0  0  0  0
   -5.5347    3.4799   -0.5573 H   0  0  0  0  0  0  0  0  0  0  0  0
   -5.3774    1.6361    0.5851 C   0  0  0  0  0  0  0  0  0  0  0  0
   -6.4702    1.4534    0.6320 H   0  0  0  0  0  0  0  0  0  0  0  0
   -4.9514    1.2911    1.5529 H   0  0  0  0  0  0  0  0  0  0  0  0
   -5.9213   -1.3333   -0.1688 O   0  0  0  0  0  0  0  0  0  0  0  0
   -5.8653   -2.7481    0.0500 C   0  0  0  0  0  0  0  0  0  0  0  0
   -5.2520   -2.9499    0.9589 H   0  0  0  0  0  0  0  0  0  0  0  0
   -5.3449   -3.2274   -0.8109 H   0  0  0  0  0  0  0  0  0  0  0  0
   -7.2799   -3.2670    0.2054 C   0  0  0  0  0  0  0  0  0  0  0  0
   -7.7847   -2.7852    1.0659 H   0  0  0  0  0  0  0  0  0  0  0  0
   -7.2679   -4.3612    0.3765 H   0  0  0  0  0  0  0  0  0  0  0  0
   -7.8764   -3.0637   -0.7056 H   0  0  0  0  0  0  0  0  0  0  0  0
   -0.3213   -0.1757    1.1044 C   0  0  1  0  0  3  0  0  0  0  0  0
    0.9573   -0.2248    1.3426 N   0  0  0  0  0  2  0  0  0  0  0  0
    1.1512   -0.2676    2.3518 H   0  0  0  0  0  0  0  0  0  0  0  0
   -1.3688   -0.1464    2.1779 C   0  0  0  0  0  0  0  0  0  0  0  0
   -0.8972   -0.1970    3.1784 H   0  0  0  0  0  0  0  0  0  0  0  0
   -2.0846   -0.9848    2.0659 H   0  0  0  0  0  0  0  0  0  0  0  0
   -1.9690    0.7834    2.1044 H   0  0  0  0  0  0  0  0  0  0  0  0
  1  2  1  0  0  0  0
  2  3  1  0  0  0  0
  3  4  1  0  0  0  0
  5  3  2  0  0  0  0
  5 21  1  0  0  0  0
  6  7  1  6  0  0  0
  6  5  1  0  0  0  0
  6 18  1  0  0  0  0
  8  6  1  0  0  0  0
  8  2  2  0  0  0  0
  9 11  1  0  0  0  0
  9  8  1  0  0  0  0
  9 12  1  0  0  0  0
 10  9  1  0  0  0  0
 12 15  1  0  0  0  0
 12 13  1  0  0  0  0
 14 12  1  0  0  0  0
 15 18  1  0  0  0  0
 15 16  1  0  0  0  0
 17 15  1  0  0  0  0
 18 19  1  0  0  0  0
 18 20  1  0  0  0  0
 21 22  1  0  0  0  0
 22 25  1  0  0  0  0
 22 23  1  0  0  0  0
 24 22  1  0  0  0  0
 25 27  1  0  0  0  0
 25 26  1  0  0  0  0
 28 25  1  0  0  0  0
 29  1  1  1  0  0  0
 29 30  1  0  0  0  0
 29 32  1  0  0  0  0
 30 31  1  0  0  0  0
 32 33  1  0  0  0  0
 34 32  1  0  0  0  0
 35 32  1  0  0  0  0
M  END
