1
 OpenBabel05122313063D

 26 27  0  0  1  0  0  0  0  0999 V2000
   -0.9191   -0.7697    1.5183 N   0  0  0  0  0  2  0  0  0  0  0  0
   -1.8901   -0.6673    2.4710 N   0  0  0  0  0  0  0  0  0  0  0  0
   -1.3603   -0.4340    3.6213 N   0  0  0  0  0  0  0  0  0  0  0  0
   -0.0208   -0.3766    3.4424 N   0  0  0  0  0  0  0  0  0  0  0  0
    0.8748   -0.1511    4.5676 C   0  0  0  0  0  0  0  0  0  0  0  0
    0.9583    0.9314    4.7839 H   0  0  0  0  0  0  0  0  0  0  0  0
    1.8709   -0.5598    4.3212 H   0  0  0  0  0  0  0  0  0  0  0  0
    0.4570   -0.6694    5.4491 H   0  0  0  0  0  0  0  0  0  0  0  0
    0.2648   -0.5821    2.1289 C   0  0  2  0  0  3  0  0  0  0  0  0
    1.6092   -0.5704    1.5375 C   0  0  0  0  0  0  0  0  0  0  0  0
    2.1117   -1.7141    0.8790 C   0  0  0  0  0  0  0  0  0  0  0  0
    1.5099   -2.6316    0.8280 H   0  0  0  0  0  0  0  0  0  0  0  0
    3.3827   -1.6758    0.2979 C   0  0  0  0  0  0  0  0  0  0  0  0
    3.7983   -2.5511   -0.2230 H   0  0  0  0  0  0  0  0  0  0  0  0
    4.1634   -0.5055    0.3682 C   0  0  0  0  0  0  0  0  0  0  0  0
    3.6701    0.6291    1.0421 C   0  0  0  0  0  0  0  0  0  0  0  0
    4.2896    1.5346    1.0958 H   0  0  0  0  0  0  0  0  0  0  0  0
    2.3995    0.5975    1.6266 C   0  0  0  0  0  0  0  0  0  0  0  0
    2.0056    1.4916    2.1332 H   0  0  0  0  0  0  0  0  0  0  0  0
    5.5076   -0.5262   -0.3026 C   0  0  0  0  0  0  0  0  0  0  0  0
    5.9437   -1.4866   -0.9096 O   0  0  0  0  0  0  0  0  0  0  0  0
    7.4680    0.7033   -0.7551 C   0  0  0  0  0  0  0  0  0  0  0  0
    8.1310   -0.0630   -0.3073 H   0  0  0  0  0  0  0  0  0  0  0  0
    7.8528    1.7172   -0.5509 H   0  0  0  0  0  0  0  0  0  0  0  0
    7.4067    0.5183   -1.8457 H   0  0  0  0  0  0  0  0  0  0  0  0
    6.1597    0.6469   -0.1581 O   0  0  0  0  0  0  0  0  0  0  0  0
  1  9  1  0  0  0  0
  1  2  1  0  0  0  0
  2  3  2  0  0  0  0
  4  3  1  0  0  0  0
  4  5  1  0  0  0  0
  5  6  1  0  0  0  0
  5  8  1  0  0  0  0
  7  5  1  0  0  0  0
  9 10  1  6  0  0  0
  9  4  1  0  0  0  0
 10 18  1  0  0  0  0
 11 10  2  0  0  0  0
 12 11  1  0  0  0  0
 13 15  2  0  0  0  0
 13 11  1  0  0  0  0
 14 13  1  0  0  0  0
 15 16  1  0  0  0  0
 16 17  1  0  0  0  0
 16 18  2  0  0  0  0
 18 19  1  0  0  0  0
 20 26  1  0  0  0  0
 20 15  1  0  0  0  0
 21 20  2  0  0  0  0
 22 24  1  0  0  0  0
 22 23  1  0  0  0  0
 22 26  1  0  0  0  0
 25 22  1  0  0  0  0
M  END
