3
 OpenBabel05122313063D

 36 38  0  0  0  0  0  0  0  0999 V2000
   -4.3691    0.0820   -0.9745 Se  0  0  0  0  0  0  0  0  0  0  0  0
    2.5198    0.6490   -1.2520 S   0  0  0  0  0  0  0  0  0  0  0  0
    0.1076   -0.9296   -0.9258 N   0  0  0  0  0  2  0  0  0  0  0  0
   -1.0672   -1.4417   -0.6448 N   0  0  0  0  0  2  0  0  0  0  0  0
   -1.8605   -1.1271   -1.6742 N   0  0  0  0  0  0  0  0  0  0  0  0
    1.9595    2.2566   -0.6561 C   0  0  0  0  0  0  0  0  0  0  0  0
   -1.1990   -0.3924   -2.6212 C   0  0  0  0  0  0  0  0  0  0  0  0
   -1.6849   -0.0219   -3.5286 H   0  0  0  0  0  0  0  0  0  0  0  0
    1.3463    0.3367   -2.6561 C   0  0  0  0  0  0  0  0  0  0  0  0
    1.1880    1.2859   -3.2018 H   0  0  0  0  0  0  0  0  0  0  0  0
    1.8985   -0.3815   -3.2958 H   0  0  0  0  0  0  0  0  0  0  0  0
    0.0935   -0.2736   -2.1363 C   0  0  0  0  0  0  0  0  0  0  0  0
    0.6518    2.4811   -0.1844 C   0  0  0  0  0  0  0  0  0  0  0  0
   -0.0789    1.6607   -0.1489 H   0  0  0  0  0  0  0  0  0  0  0  0
    2.9098    3.2936   -0.6730 C   0  0  0  0  0  0  0  0  0  0  0  0
    3.9262    3.1031   -1.0495 H   0  0  0  0  0  0  0  0  0  0  0  0
   -3.2730   -1.4466   -1.5953 C   0  0  0  0  0  0  0  0  0  0  0  0
   -3.3757   -2.3029   -0.9056 H   0  0  0  0  0  0  0  0  0  0  0  0
   -3.6514   -1.7232   -2.5969 H   0  0  0  0  0  0  0  0  0  0  0  0
    0.2967    3.7649    0.2519 C   0  0  0  0  0  0  0  0  0  0  0  0
   -0.7273    3.9556    0.6075 H   0  0  0  0  0  0  0  0  0  0  0  0
   -2.2009    1.5899    2.3042 C   0  0  0  0  0  0  0  0  0  0  0  0
   -1.6390    2.5090    2.5319 H   0  0  0  0  0  0  0  0  0  0  0  0
    1.2400    4.8076    0.2409 C   0  0  0  0  0  0  0  0  0  0  0  0
    0.9537    5.8105    0.5906 H   0  0  0  0  0  0  0  0  0  0  0  0
    2.5450    4.5704   -0.2153 C   0  0  0  0  0  0  0  0  0  0  0  0
    3.2857    5.3836   -0.2247 H   0  0  0  0  0  0  0  0  0  0  0  0
   -3.6874   -0.7304    1.7408 C   0  0  0  0  0  0  0  0  0  0  0  0
   -4.2972   -1.6224    1.5321 H   0  0  0  0  0  0  0  0  0  0  0  0
   -2.3488    0.5954    3.2843 C   0  0  0  0  0  0  0  0  0  0  0  0
   -1.9020    0.7315    4.2806 H   0  0  0  0  0  0  0  0  0  0  0  0
   -3.0875   -0.5665    2.9984 C   0  0  0  0  0  0  0  0  0  0  0  0
   -3.2219   -1.3392    3.7704 H   0  0  0  0  0  0  0  0  0  0  0  0
   -2.7783    1.4219    1.0341 C   0  0  0  0  0  0  0  0  0  0  0  0
   -2.6670    2.1967    0.2602 H   0  0  0  0  0  0  0  0  0  0  0  0
   -3.5233    0.2608    0.7537 C   0  0  0  0  0  0  0  0  0  0  0  0
  1 36  1  0  0  0  0
  2  6  1  0  0  0  0
  3  4  1  0  0  0  0
  5 17  1  0  0  0  0
  5  4  1  0  0  0  0
  6 13  1  0  0  0  0
  7 12  2  0  0  0  0
  7  5  1  0  0  0  0
  8  7  1  0  0  0  0
  9 12  1  0  0  0  0
  9  2  1  0  0  0  0
 10  9  1  0  0  0  0
 11  9  1  0  0  0  0
 12  3  1  0  0  0  0
 13 14  1  0  0  0  0
 13 20  2  0  0  0  0
 15  6  2  0  0  0  0
 15 26  1  0  0  0  0
 16 15  1  0  0  0  0
 17  1  1  0  0  0  0
 17 18  1  0  0  0  0
 19 17  1  0  0  0  0
 20 21  1  0  0  0  0
 22 23  1  0  0  0  0
 22 30  1  0  0  0  0
 24 20  1  0  0  0  0
 24 25  1  0  0  0  0
 26 24  2  0  0  0  0
 27 26  1  0  0  0  0
 28 32  1  0  0  0  0
 29 28  1  0  0  0  0
 30 31  1  0  0  0  0
 32 30  2  0  0  0  0
 32 33  1  0  0  0  0
 34 22  2  0  0  0  0
 35 34  1  0  0  0  0
 36 34  1  0  0  0  0
 36 28  2  0  0  0  0
M  END
