1
 OpenBabel05122313063D

 29 29  0  0  1  0  0  0  0  0999 V2000
   -1.7955    0.9285   -0.0700 N   0  0  0  0  0  2  0  0  0  0  0  0
   -2.2022    1.0362    0.8779 H   0  0  0  0  0  0  0  0  0  0  0  0
   -2.6309    1.2027   -1.0134 C   0  0  1  0  0  3  0  0  0  0  0  0
   -3.8796    1.6504   -0.7181 O   0  0  0  0  0  0  0  0  0  0  0  0
   -4.1634    1.7554    0.6830 N   0  0  0  0  0  0  0  0  0  0  0  0
   -4.0675    3.1404    1.1225 C   0  0  0  0  0  0  0  0  0  0  0  0
   -4.3708    3.1626    2.1840 H   0  0  0  0  0  0  0  0  0  0  0  0
   -3.0195    3.4841    1.0269 H   0  0  0  0  0  0  0  0  0  0  0  0
   -4.7445    3.8036    0.5434 H   0  0  0  0  0  0  0  0  0  0  0  0
   -5.2972    0.9849    1.0721 C   0  0  0  0  0  0  0  0  0  0  0  0
   -6.0378    1.4115    1.9460 O   0  0  0  0  0  0  0  0  0  0  0  0
   -5.4678   -0.3381    0.3988 C   0  0  0  0  0  0  0  0  0  0  0  0
   -6.7812   -0.7367    0.0729 C   0  0  0  0  0  0  0  0  0  0  0  0
   -7.6163   -0.0586    0.3029 H   0  0  0  0  0  0  0  0  0  0  0  0
   -7.0066   -1.9748   -0.5411 C   0  0  0  0  0  0  0  0  0  0  0  0
   -8.0314   -2.2746   -0.8075 H   0  0  0  0  0  0  0  0  0  0  0  0
   -5.9274   -2.8332   -0.8136 C   0  0  0  0  0  0  0  0  0  0  0  0
   -6.1071   -3.8056   -1.2973 H   0  0  0  0  0  0  0  0  0  0  0  0
   -4.6231   -2.4566   -0.4559 C   0  0  0  0  0  0  0  0  0  0  0  0
   -3.7680   -3.1229   -0.6436 H   0  0  0  0  0  0  0  0  0  0  0  0
   -4.3906   -1.2153    0.1510 C   0  0  0  0  0  0  0  0  0  0  0  0
   -3.3689   -0.9692    0.4704 H   0  0  0  0  0  0  0  0  0  0  0  0
   -2.4061    1.1323   -2.4852 C   0  0  0  0  0  0  0  0  0  0  0  0
   -1.5773    0.4235   -2.6700 H   0  0  0  0  0  0  0  0  0  0  0  0
   -3.3321    0.7118   -2.9278 H   0  0  0  0  0  0  0  0  0  0  0  0
   -2.0966    2.5157   -3.0807 C   0  0  0  0  0  0  0  0  0  0  0  0
   -1.1453    2.9025   -2.6676 H   0  0  0  0  0  0  0  0  0  0  0  0
   -1.9822    2.4288   -4.1783 H   0  0  0  0  0  0  0  0  0  0  0  0
   -2.9086    3.2406   -2.8739 H   0  0  0  0  0  0  0  0  0  0  0  0
  1  2  1  0  0  0  0
  3  4  1  1  0  0  0
  3  1  1  0  0  0  0
  4  5  1  0  0  0  0
  5 10  1  0  0  0  0
  5  6  1  0  0  0  0
  6  7  1  0  0  0  0
  8  6  1  0  0  0  0
  9  6  1  0  0  0  0
 10 11  2  0  0  0  0
 12 10  1  0  0  0  0
 13 14  1  0  0  0  0
 13 12  2  0  0  0  0
 15 13  1  0  0  0  0
 16 15  1  0  0  0  0
 17 15  2  0  0  0  0
 17 19  1  0  0  0  0
 18 17  1  0  0  0  0
 19 21  2  0  0  0  0
 20 19  1  0  0  0  0
 21 12  1  0  0  0  0
 21 22  1  0  0  0  0
 23  3  1  0  0  0  0
 24 23  1  0  0  0  0
 25 23  1  0  0  0  0
 26 29  1  0  0  0  0
 26 27  1  0  0  0  0
 26 23  1  0  0  0  0
 28 26  1  0  0  0  0
M  END
