12
 OpenBabel05122313063D

 21 22  0  0  1  0  0  0  0  0999 V2000
   -7.8303   -2.1322    0.2599 Br  0  0  0  0  0  0  0  0  0  0  0  0
   -3.4575   -1.2766   -1.2106 C   0  0  0  0  0  0  0  0  0  0  0  0
   -6.0644   -1.7877   -0.3358 C   0  0  0  0  0  0  0  0  0  0  0  0
   -5.3406   -2.8118   -0.9756 C   0  0  0  0  0  0  0  0  0  0  0  0
   -5.7987   -3.7992   -1.1261 H   0  0  0  0  0  0  0  0  0  0  0  0
   -4.0417   -2.5481   -1.4176 C   0  0  0  0  0  0  0  0  0  0  0  0
   -3.4458   -3.3207   -1.9254 H   0  0  0  0  0  0  0  0  0  0  0  0
   -4.2060   -0.2538   -0.5743 C   0  0  0  0  0  0  0  0  0  0  0  0
   -3.7753    0.7495   -0.4402 H   0  0  0  0  0  0  0  0  0  0  0  0
   -5.5050   -0.5077   -0.1403 C   0  0  0  0  0  0  0  0  0  0  0  0
   -6.0836    0.2944    0.3405 H   0  0  0  0  0  0  0  0  0  0  0  0
    0.4695    1.1830   -1.4988 N   0  0  0  0  0  2  0  0  0  0  0  0
    0.3616   -0.7136   -2.6439 N   0  0  0  0  0  0  0  0  0  0  0  0
   -0.0588   -1.5763   -2.9992 H   0  0  0  0  0  0  0  0  0  0  0  0
   -0.3164    0.1397   -1.8149 C   0  0  1  0  0  3  0  0  0  0  0  0
    1.6707    0.9890   -2.1271 C   0  0  0  0  0  0  0  0  0  0  0  0
    2.5122    1.6842   -2.0090 H   0  0  0  0  0  0  0  0  0  0  0  0
    1.6163   -0.1982   -2.8543 C   0  0  0  0  0  0  0  0  0  0  0  0
    2.3619   -0.6922   -3.4853 H   0  0  0  0  0  0  0  0  0  0  0  0
   -1.5885   -0.0148   -1.3296 N   0  0  0  0  0  2  0  0  0  0  0  0
   -2.1466   -1.1125   -1.6750 N   0  0  0  0  0  2  0  0  0  0  0  0
  2  8  1  0  0  0  0
  3 10  1  0  0  0  0
  3  1  1  0  0  0  0
  4  3  2  0  0  0  0
  5  4  1  0  0  0  0
  6  2  2  0  0  0  0
  6  4  1  0  0  0  0
  7  6  1  0  0  0  0
  8  9  1  0  0  0  0
  8 10  2  0  0  0  0
 10 11  1  0  0  0  0
 13 15  1  0  0  0  0
 14 13  1  0  0  0  0
 15 12  1  0  0  0  0
 15 20  1  1  0  0  0
 16 17  1  0  0  0  0
 16 12  1  0  0  0  0
 18 13  1  0  0  0  0
 18 16  2  0  0  0  0
 19 18  1  0  0  0  0
 21 20  1  0  0  0  0
 21  2  1  0  0  0  0
M  END
