2
 OpenBabel05122313063D

 18 18  0  0  0  0  0  0  0  0999 V2000
    0.0701    3.8965    1.1178 O   0  0  0  0  0  0  0  0  0  0  0  0
   -0.0667    1.9083   -0.9888 N   0  0  0  0  0  0  0  0  0  0  0  0
   -1.2331    2.7473   -0.5902 C   0  0  0  0  0  0  0  0  0  0  0  0
   -2.1620    2.1893   -0.7984 H   0  0  0  0  0  0  0  0  0  0  0  0
   -1.2264    3.6555   -1.2366 H   0  0  0  0  0  0  0  0  0  0  0  0
   -1.1235    3.1705    0.8719 C   0  0  0  0  0  0  0  0  0  0  0  0
   -1.1856    2.2642    1.5180 H   0  0  0  0  0  0  0  0  0  0  0  0
   -1.9712    3.8380    1.1260 H   0  0  0  0  0  0  0  0  0  0  0  0
    1.2029    3.1174    0.7644 C   0  0  0  0  0  0  0  0  0  0  0  0
    2.1006    3.7395    0.9512 H   0  0  0  0  0  0  0  0  0  0  0  0
    1.2821    2.1985    1.3952 H   0  0  0  0  0  0  0  0  0  0  0  0
    1.1588    2.7104   -0.7046 C   0  0  0  0  0  0  0  0  0  0  0  0
    2.0421    2.1147   -0.9913 H   0  0  0  0  0  0  0  0  0  0  0  0
    1.1217    3.6231   -1.3433 H   0  0  0  0  0  0  0  0  0  0  0  0
   -0.1469    1.5582   -2.4256 C   0  0  0  0  0  0  0  0  0  0  0  0
   -0.1625    2.4839   -3.0447 H   0  0  0  0  0  0  0  0  0  0  0  0
    0.7392    0.9522   -2.6902 H   0  0  0  0  0  0  0  0  0  0  0  0
   -1.0697    0.9700   -2.5859 H   0  0  0  0  0  0  0  0  0  0  0  0
  2 12  1  0  0  0  0
  2  3  1  0  0  0  0
  3  6  1  0  0  0  0
  4  3  1  0  0  0  0
  5  3  1  0  0  0  0
  6  1  1  0  0  0  0
  6  8  1  0  0  0  0
  6  7  1  0  0  0  0
  9 10  1  0  0  0  0
  9  1  1  0  0  0  0
  9 11  1  0  0  0  0
 12  9  1  0  0  0  0
 13 12  1  0  0  0  0
 14 12  1  0  0  0  0
 15  2  1  0  0  0  0
 16 15  1  0  0  0  0
 17 15  1  0  0  0  0
 18 15  1  0  0  0  0
M  END
