3
 OpenBabel05122313063D

 34 34  0  0  1  0  0  0  0  0999 V2000
    0.2873   -1.7002   -0.5410 S   0  0  0  0  0  1  0  0  0  0  0  0
    2.1534   -1.1308   -0.0340 P   0  0  0  0  0  4  0  0  0  0  0  0
    0.5637    1.6555   -0.1633 N   0  0  0  0  0  2  0  0  0  0  0  0
    2.1681    0.3037    0.9367 N   0  0  0  0  0  0  0  0  0  0  0  0
    2.9840    0.3519    1.5557 H   0  0  0  0  0  0  0  0  0  0  0  0
    1.7667    1.5563    0.4573 C   0  0  2  0  0  3  0  0  0  0  0  0
    2.6040    2.6805    0.6243 C   0  0  0  0  0  0  0  0  0  0  0  0
    3.5648    2.5651    1.1473 H   0  0  0  0  0  0  0  0  0  0  0  0
    2.2177    3.9110    0.0920 C   0  0  0  0  0  0  0  0  0  0  0  0
    2.8599    4.7951    0.2172 H   0  0  0  0  0  0  0  0  0  0  0  0
    1.0199    3.9840   -0.6386 C   0  0  0  0  0  0  0  0  0  0  0  0
    0.6910    4.9164   -1.1171 H   0  0  0  0  0  0  0  0  0  0  0  0
    0.2324    2.8390   -0.7483 C   0  0  0  0  0  0  0  0  0  0  0  0
   -0.7030    2.8211   -1.3265 H   0  0  0  0  0  0  0  0  0  0  0  0
    2.9823   -2.3527    1.0849 C   0  0  0  0  0  0  0  0  0  0  0  0
    3.9750   -1.9055    1.3201 H   0  0  0  0  0  0  0  0  0  0  0  0
    2.1722   -2.5344    2.3746 C   0  0  0  0  0  0  0  0  0  0  0  0
    1.1687   -2.9445    2.1440 H   0  0  0  0  0  0  0  0  0  0  0  0
    2.0382   -1.5860    2.9307 H   0  0  0  0  0  0  0  0  0  0  0  0
    2.6942   -3.2499    3.0404 H   0  0  0  0  0  0  0  0  0  0  0  0
    3.1851   -3.6740    0.3301 C   0  0  0  0  0  0  0  0  0  0  0  0
    3.6485   -4.4171    1.0087 H   0  0  0  0  0  0  0  0  0  0  0  0
    3.8489   -3.5678   -0.5499 H   0  0  0  0  0  0  0  0  0  0  0  0
    2.2142   -4.0883   -0.0102 H   0  0  0  0  0  0  0  0  0  0  0  0
    3.2020   -0.8391   -1.5350 C   0  0  0  0  0  0  0  0  0  0  0  0
    3.1593   -1.8350   -2.0316 H   0  0  0  0  0  0  0  0  0  0  0  0
    2.5592    0.1952   -2.4709 C   0  0  0  0  0  0  0  0  0  0  0  0
    2.6909    1.2249   -2.0830 H   0  0  0  0  0  0  0  0  0  0  0  0
    1.4757    0.0162   -2.6251 H   0  0  0  0  0  0  0  0  0  0  0  0
    3.0628    0.1490   -3.4568 H   0  0  0  0  0  0  0  0  0  0  0  0
    4.6513   -0.5008   -1.1672 C   0  0  0  0  0  0  0  0  0  0  0  0
    5.2417   -0.3573   -2.0942 H   0  0  0  0  0  0  0  0  0  0  0  0
    5.1509   -1.2973   -0.5815 H   0  0  0  0  0  0  0  0  0  0  0  0
    4.7115    0.4491   -0.5967 H   0  0  0  0  0  0  0  0  0  0  0  0
  1  2  1  0  0  0  0
  2  4  1  0  0  0  0
  2 15  1  0  0  0  0
  3  6  1  0  0  0  0
  4  5  1  0  0  0  0
  6  7  1  0  0  0  0
  6  4  1  1  0  0  0
  7  8  1  0  0  0  0
  9 10  1  0  0  0  0
  9  7  2  0  0  0  0
 11  9  1  0  0  0  0
 12 11  1  0  0  0  0
 13 11  2  0  0  0  0
 13  3  1  0  0  0  0
 14 13  1  0  0  0  0
 15 16  1  0  0  0  0
 15 17  1  0  0  0  0
 17 19  1  0  0  0  0
 17 20  1  0  0  0  0
 18 17  1  0  0  0  0
 21 22  1  0  0  0  0
 21 15  1  0  0  0  0
 23 21  1  0  0  0  0
 24 21  1  0  0  0  0
 25 31  1  0  0  0  0
 25  2  1  0  0  0  0
 26 25  1  0  0  0  0
 27 28  1  0  0  0  0
 27 25  1  0  0  0  0
 29 27  1  0  0  0  0
 30 27  1  0  0  0  0
 31 34  1  0  0  0  0
 31 33  1  0  0  0  0
 32 31  1  0  0  0  0
M  END
