2
 OpenBabel05122313063D

 35 37  0  0  1  0  0  0  0  0999 V2000
    1.0499   -0.1973    0.4511 P   0  0  0  0  0  0  0  0  0  0  0  0
   -1.5902   -0.6014    1.5073 N   0  0  0  0  0  2  0  0  0  0  0  0
    0.6658   -0.5122    2.1118 N   0  0  0  0  0  0  0  0  0  0  0  0
    1.3881   -0.6172    2.8279 H   0  0  0  0  0  0  0  0  0  0  0  0
    2.4969   -1.2268    0.0326 C   0  0  0  0  0  0  0  0  0  0  0  0
    2.4410   -2.1833   -0.9996 C   0  0  0  0  0  0  0  0  0  0  0  0
    1.4927   -2.3601   -1.5256 H   0  0  0  0  0  0  0  0  0  0  0  0
    3.5856   -2.9310   -1.3143 C   0  0  0  0  0  0  0  0  0  0  0  0
    3.5419   -3.6786   -2.1201 H   0  0  0  0  0  0  0  0  0  0  0  0
    4.7767   -2.7368   -0.5983 C   0  0  0  0  0  0  0  0  0  0  0  0
    5.6696   -3.3308   -0.8446 H   0  0  0  0  0  0  0  0  0  0  0  0
    4.8344   -1.7817    0.4310 C   0  0  0  0  0  0  0  0  0  0  0  0
    5.7696   -1.6237    0.9882 H   0  0  0  0  0  0  0  0  0  0  0  0
    3.7023   -1.0169    0.7402 C   0  0  0  0  0  0  0  0  0  0  0  0
    3.7669   -0.2429    1.5218 H   0  0  0  0  0  0  0  0  0  0  0  0
    1.7657    1.4888    0.4936 C   0  0  0  0  0  0  0  0  0  0  0  0
    2.5999    1.9139   -0.5638 C   0  0  0  0  0  0  0  0  0  0  0  0
    2.9050    1.2031   -1.3480 H   0  0  0  0  0  0  0  0  0  0  0  0
    3.0630    3.2370   -0.6021 C   0  0  0  0  0  0  0  0  0  0  0  0
    3.7139    3.5644   -1.4264 H   0  0  0  0  0  0  0  0  0  0  0  0
    2.7104    4.1372    0.4178 C   0  0  0  0  0  0  0  0  0  0  0  0
    3.0812    5.1726    0.3893 H   0  0  0  0  0  0  0  0  0  0  0  0
    1.8972    3.7113    1.4804 C   0  0  0  0  0  0  0  0  0  0  0  0
    1.6324    4.4105    2.2876 H   0  0  0  0  0  0  0  0  0  0  0  0
    1.4190    2.3927    1.5171 C   0  0  0  0  0  0  0  0  0  0  0  0
    0.7736    2.0642    2.3451 H   0  0  0  0  0  0  0  0  0  0  0  0
   -0.6439   -0.6923    2.4879 C   0  0  1  0  0  3  0  0  0  0  0  0
   -1.0035   -0.9472    3.8317 C   0  0  0  0  0  0  0  0  0  0  0  0
   -0.2165   -1.0157    4.5959 H   0  0  0  0  0  0  0  0  0  0  0  0
   -2.3452   -1.1142    4.1594 C   0  0  0  0  0  0  0  0  0  0  0  0
   -2.6363   -1.3169    5.2004 H   0  0  0  0  0  0  0  0  0  0  0  0
   -3.3167   -1.0304    3.1442 C   0  0  0  0  0  0  0  0  0  0  0  0
   -4.3856   -1.1687    3.3531 H   0  0  0  0  0  0  0  0  0  0  0  0
   -2.8939   -0.7831    1.8434 C   0  0  0  0  0  0  0  0  0  0  0  0
   -3.6110   -0.7442    1.0144 H   0  0  0  0  0  0  0  0  0  0  0  0
  1 16  1  0  0  0  0
  1  3  1  0  0  0  0
  2 34  1  0  0  0  0
  2 27  1  0  0  0  0
  3  4  1  0  0  0  0
  5  1  1  0  0  0  0
  5 14  1  0  0  0  0
  6  5  2  0  0  0  0
  7  6  1  0  0  0  0
  8  6  1  0  0  0  0
  8 10  2  0  0  0  0
  9  8  1  0  0  0  0
 10 12  1  0  0  0  0
 11 10  1  0  0  0  0
 12 14  2  0  0  0  0
 12 13  1  0  0  0  0
 14 15  1  0  0  0  0
 16 25  1  0  0  0  0
 17 16  2  0  0  0  0
 18 17  1  0  0  0  0
 19 17  1  0  0  0  0
 19 21  2  0  0  0  0
 20 19  1  0  0  0  0
 21 23  1  0  0  0  0
 22 21  1  0  0  0  0
 23 25  2  0  0  0  0
 23 24  1  0  0  0  0
 25 26  1  0  0  0  0
 27  3  1  1  0  0  0
 27 28  1  0  0  0  0
 28 30  2  0  0  0  0
 28 29  1  0  0  0  0
 30 31  1  0  0  0  0
 32 33  1  0  0  0  0
 32 30  1  0  0  0  0
 34 32  2  0  0  0  0
 35 34  1  0  0  0  0
M  END
