3
 OpenBabel05122313063D

 29 30  0  0  1  0  0  0  0  0999 V2000
    2.6924   -3.0640   -0.9590 O   0  0  0  0  0  0  0  0  0  0  0  0
    7.3725    1.5948   -0.5637 O   0  0  0  0  0  0  0  0  0  0  0  0
    1.6020   -1.2292   -0.3533 N   0  0  0  0  0  2  0  0  0  0  0  0
    2.9892   -2.8771    0.4822 N   0  0  0  0  0  0  0  0  0  0  0  0
    1.7812   -2.1323   -1.2854 C   0  0  1  0  0  3  0  0  0  0  0  0
    2.6912   -1.4437    0.6316 C   0  0  1  0  0  0  0  0  0  0  0  0
    3.9209   -0.6090    0.3047 C   0  0  0  0  0  0  0  0  0  0  0  0
    3.9647    0.3179   -0.7550 C   0  0  0  0  0  0  0  0  0  0  0  0
    5.1328    1.0351   -1.0208 C   0  0  0  0  0  0  0  0  0  0  0  0
    6.2847    0.8473   -0.2286 C   0  0  0  0  0  0  0  0  0  0  0  0
    6.2486   -0.0769    0.8371 C   0  0  0  0  0  0  0  0  0  0  0  0
    5.0701   -0.7933    1.0893 C   0  0  0  0  0  0  0  0  0  0  0  0
    8.5511    1.4471    0.2029 C   0  0  0  0  0  0  0  0  0  0  0  0
    1.2009   -2.2458   -2.6438 C   0  0  0  0  0  0  0  0  0  0  0  0
    2.0711   -3.7690    1.1919 C   0  0  0  0  0  0  0  0  0  0  0  0
    2.3122   -1.2504    1.6548 H   0  0  0  0  0  0  0  0  0  0  0  0
    3.0706    0.4995   -1.3688 H   0  0  0  0  0  0  0  0  0  0  0  0
    5.1769    1.7647   -1.8420 H   0  0  0  0  0  0  0  0  0  0  0  0
    7.1288   -0.2477    1.4708 H   0  0  0  0  0  0  0  0  0  0  0  0
    5.0537   -1.5266    1.9105 H   0  0  0  0  0  0  0  0  0  0  0  0
    9.2977    2.1371   -0.2325 H   0  0  0  0  0  0  0  0  0  0  0  0
    8.9508    0.4086    0.1573 H   0  0  0  0  0  0  0  0  0  0  0  0
    8.3902    1.7176    1.2710 H   0  0  0  0  0  0  0  0  0  0  0  0
    0.7284   -1.2923   -2.9362 H   0  0  0  0  0  0  0  0  0  0  0  0
    2.0205   -2.5133   -3.3399 H   0  0  0  0  0  0  0  0  0  0  0  0
    0.4435   -3.0524   -2.6627 H   0  0  0  0  0  0  0  0  0  0  0  0
    0.9950   -3.5362    1.0252 H   0  0  0  0  0  0  0  0  0  0  0  0
    2.2944   -4.8097    0.8913 H   0  0  0  0  0  0  0  0  0  0  0  0
    2.2932   -3.6618    2.2713 H   0  0  0  0  0  0  0  0  0  0  0  0
  1  4  1  0  0  0  0
  2 10  1  0  0  0  0
  2 13  1  0  0  0  0
  3  6  1  0  0  0  0
  4  6  1  0  0  0  0
  4 15  1  0  0  0  0
  5 14  1  6  0  0  0
  5  1  1  0  0  0  0
  5  3  1  0  0  0  0
  6 16  1  1  0  0  0
  7  6  1  0  0  0  0
  7 12  1  0  0  0  0
  8  7  2  0  0  0  0
  9  8  1  0  0  0  0
  9 10  2  0  0  0  0
 10 11  1  0  0  0  0
 11 12  2  0  0  0  0
 11 19  1  0  0  0  0
 12 20  1  0  0  0  0
 13 23  1  0  0  0  0
 15 29  1  0  0  0  0
 17  8  1  0  0  0  0
 18  9  1  0  0  0  0
 21 13  1  0  0  0  0
 22 13  1  0  0  0  0
 24 14  1  0  0  0  0
 25 14  1  0  0  0  0
 26 14  1  0  0  0  0
 27 15  1  0  0  0  0
 28 15  1  0  0  0  0
M  END
