4
 OpenBabel05122313063D

 38 40  0  0  0  0  0  0  0  0999 V2000
    3.3871    2.5784   -0.0734 N   0  0  0  0  0  0  0  0  0  0  0  0
    2.7478    1.3758   -0.0515 C   0  0  0  0  0  3  0  0  0  0  0  0
    3.2878    0.4232   -0.0669 H   0  0  0  0  0  0  0  0  0  0  0  0
    1.4187    1.5180   -0.0124 N   0  0  0  0  0  2  0  0  0  0  0  0
    1.1670    2.8906   -0.0066 C   0  0  0  0  0  0  0  0  0  0  0  0
   -0.0344    3.6164    0.0316 C   0  0  0  0  0  0  0  0  0  0  0  0
   -1.0025    3.0931    0.0648 H   0  0  0  0  0  0  0  0  0  0  0  0
    0.0181    5.0175    0.0292 C   0  0  0  0  0  0  0  0  0  0  0  0
    1.2845    5.6989   -0.0132 C   0  0  0  0  0  0  0  0  0  0  0  0
    2.4845    4.9715   -0.0511 C   0  0  0  0  0  0  0  0  0  0  0  0
    3.4502    5.4966   -0.0837 H   0  0  0  0  0  0  0  0  0  0  0  0
    2.4090    3.5710   -0.0464 C   0  0  0  0  0  0  0  0  0  0  0  0
   -1.2573    5.8179    0.0722 C   0  0  0  0  0  0  0  0  0  0  0  0
   -1.2920    6.4807    0.9620 H   0  0  0  0  0  0  0  0  0  0  0  0
   -2.1482    5.1632    0.1032 H   0  0  0  0  0  0  0  0  0  0  0  0
   -1.3521    6.4810   -0.8131 H   0  0  0  0  0  0  0  0  0  0  0  0
    1.3211    7.2043   -0.0161 C   0  0  0  0  0  0  0  0  0  0  0  0
    0.8328    7.6243    0.8880 H   0  0  0  0  0  0  0  0  0  0  0  0
    0.7739    7.6223   -0.8869 H   0  0  0  0  0  0  0  0  0  0  0  0
    2.3580    7.5876   -0.0510 H   0  0  0  0  0  0  0  0  0  0  0  0
    5.6267    1.5312   -0.0942 C   0  0  0  0  0  0  0  0  0  0  0  0
    6.0847    1.0040    1.1280 C   0  0  0  0  0  0  0  0  0  0  0  0
    5.9072    1.5581    2.0632 H   0  0  0  0  0  0  0  0  0  0  0  0
    6.7577   -0.2257    1.1635 C   0  0  0  0  0  0  0  0  0  0  0  0
    7.0868   -0.6310    2.1323 H   0  0  0  0  0  0  0  0  0  0  0  0
    6.9701   -0.9550   -0.0223 C   0  0  0  0  0  0  0  0  0  0  0  0
    6.4992   -0.4338   -1.2436 C   0  0  0  0  0  0  0  0  0  0  0  0
    6.6574   -1.0312   -2.1536 H   0  0  0  0  0  0  0  0  0  0  0  0
    5.8480    0.8027   -1.2819 C   0  0  0  0  0  0  0  0  0  0  0  0
    5.4970    1.2083   -2.2443 H   0  0  0  0  0  0  0  0  0  0  0  0
    7.6240   -2.3193   -0.0639 C   0  0  0  0  0  0  0  0  0  0  0  0
    8.4580   -2.6158    0.9821 N   0  0  0  0  0  0  0  0  0  0  0  0
    8.9595   -3.5043    0.9341 H   0  0  0  0  0  0  0  0  0  0  0  0
    8.8386   -1.8896    1.5872 H   0  0  0  0  0  0  0  0  0  0  0  0
    7.3867   -3.1054   -0.9773 O   0  0  0  0  0  0  0  0  0  0  0  0
    4.8388    2.8170   -0.1259 C   0  0  0  0  0  0  0  0  0  0  0  0
    5.1033    3.4651    0.7347 H   0  0  0  0  0  0  0  0  0  0  0  0
    5.0521    3.3900   -1.0525 H   0  0  0  0  0  0  0  0  0  0  0  0
  1  2  1  0  0  0  0
  1 12  1  0  0  0  0
  2  4  1  0  0  0  0
  3  2  1  0  0  0  0
  4  5  1  0  0  0  0
  5  6  1  0  0  0  0
  6  7  1  0  0  0  0
  8  6  2  0  0  0  0
  8 13  1  0  0  0  0
  9  8  1  0  0  0  0
 10 12  1  0  0  0  0
 10  9  2  0  0  0  0
 11 10  1  0  0  0  0
 12  5  2  0  0  0  0
 13 15  1  0  0  0  0
 13 14  1  0  0  0  0
 16 13  1  0  0  0  0
 17  9  1  0  0  0  0
 17 18  1  0  0  0  0
 19 17  1  0  0  0  0
 20 17  1  0  0  0  0
 21 22  1  0  0  0  0
 22 24  2  0  0  0  0
 22 23  1  0  0  0  0
 24 25  1  0  0  0  0
 26 24  1  0  0  0  0
 27 26  2  0  0  0  0
 28 27  1  0  0  0  0
 29 27  1  0  0  0  0
 29 21  2  0  0  0  0
 30 29  1  0  0  0  0
 31 26  1  0  0  0  0
 31 32  1  0  0  0  0
 32 34  1  0  0  0  0
 33 32  1  0  0  0  0
 35 31  2  0  0  0  0
 36 21  1  0  0  0  0
 36  1  1  0  0  0  0
 36 37  1  0  0  0  0
 38 36  1  0  0  0  0
M  END
