3
 OpenBabel05122313063D

 35 37  0  0  1  0  0  0  0  0999 V2000
   -3.4920   -0.8685   -1.4943 N   0  0  0  0  0  0  0  0  0  0  0  0
   -2.6829    0.2021   -1.2081 C   0  0  2  0  0  3  0  0  0  0  0  0
   -1.4233   -0.2048   -0.9887 N   0  0  0  0  0  2  0  0  0  0  0  0
   -1.4010   -1.5939   -1.1220 C   0  0  0  0  0  0  0  0  0  0  0  0
   -0.3448   -2.5138   -0.9991 C   0  0  0  0  0  0  0  0  0  0  0  0
    0.6849   -2.2060   -0.7580 H   0  0  0  0  0  0  0  0  0  0  0  0
   -0.6538   -3.8643   -1.1966 C   0  0  0  0  0  0  0  0  0  0  0  0
    0.1497   -4.6095   -1.1045 H   0  0  0  0  0  0  0  0  0  0  0  0
   -1.9662   -4.2921   -1.5105 C   0  0  0  0  0  0  0  0  0  0  0  0
   -2.1634   -5.3639   -1.6590 H   0  0  0  0  0  0  0  0  0  0  0  0
   -3.0231   -3.3817   -1.6376 C   0  0  0  0  0  0  0  0  0  0  0  0
   -4.0388   -3.7225   -1.8840 H   0  0  0  0  0  0  0  0  0  0  0  0
   -2.7156   -2.0264   -1.4379 C   0  0  0  0  0  0  0  0  0  0  0  0
   -3.1493    1.6131   -1.1474 C   0  0  0  0  0  0  0  0  0  0  0  0
   -3.7843    1.8007   -0.2564 H   0  0  0  0  0  0  0  0  0  0  0  0
   -3.7503    1.8837   -2.0386 H   0  0  0  0  0  0  0  0  0  0  0  0
   -2.2743    2.2877   -1.1000 H   0  0  0  0  0  0  0  0  0  0  0  0
   -6.8267    0.7162    1.2636 C   0  0  0  0  0  0  0  0  0  0  0  0
   -6.2068    0.5439    0.0129 C   0  0  0  0  0  0  0  0  0  0  0  0
   -6.1249    1.4300   -0.6346 H   0  0  0  0  0  0  0  0  0  0  0  0
   -5.6960   -0.7006   -0.3803 C   0  0  0  0  0  0  0  0  0  0  0  0
   -5.8250   -1.8011    0.4932 C   0  0  0  0  0  0  0  0  0  0  0  0
   -5.4257   -2.7856    0.2038 H   0  0  0  0  0  0  0  0  0  0  0  0
   -6.4511   -1.6432    1.7371 C   0  0  0  0  0  0  0  0  0  0  0  0
   -6.5427   -2.5035    2.4165 H   0  0  0  0  0  0  0  0  0  0  0  0
   -6.9469   -0.3881    2.1270 C   0  0  0  0  0  0  0  0  0  0  0  0
   -7.3959   -0.2700    3.1251 H   0  0  0  0  0  0  0  0  0  0  0  0
   -7.2350    2.1281    1.6164 C   0  0  0  0  0  0  0  0  0  0  0  0
   -8.1943    2.2570    2.5819 N   0  0  0  0  0  0  0  0  0  0  0  0
   -8.5145    3.2012    2.8021 H   0  0  0  0  0  0  0  0  0  0  0  0
   -8.7744    1.4724    2.8746 H   0  0  0  0  0  0  0  0  0  0  0  0
   -6.6990    3.0912    1.0680 O   0  0  0  0  0  0  0  0  0  0  0  0
   -4.9460   -0.8278   -1.6908 C   0  0  0  0  0  0  0  0  0  0  0  0
   -5.2216   -1.7536   -2.2311 H   0  0  0  0  0  0  0  0  0  0  0  0
   -5.1855    0.0215   -2.3594 H   0  0  0  0  0  0  0  0  0  0  0  0
  1 13  1  0  0  0  0
  1  2  1  0  0  0  0
  2 14  1  1  0  0  0
  2  3  1  0  0  0  0
  4  5  1  0  0  0  0
  4  3  1  0  0  0  0
  5  6  1  0  0  0  0
  7  8  1  0  0  0  0
  7  5  2  0  0  0  0
  9  7  1  0  0  0  0
 10  9  1  0  0  0  0
 11  9  2  0  0  0  0
 11 13  1  0  0  0  0
 12 11  1  0  0  0  0
 13  4  2  0  0  0  0
 14 17  1  0  0  0  0
 14 15  1  0  0  0  0
 16 14  1  0  0  0  0
 18 28  1  0  0  0  0
 18 26  1  0  0  0  0
 19 18  2  0  0  0  0
 20 19  1  0  0  0  0
 21 19  1  0  0  0  0
 21 22  2  0  0  0  0
 22 24  1  0  0  0  0
 23 22  1  0  0  0  0
 24 26  2  0  0  0  0
 24 25  1  0  0  0  0
 26 27  1  0  0  0  0
 28 29  1  0  0  0  0
 29 30  1  0  0  0  0
 29 31  1  0  0  0  0
 32 28  2  0  0  0  0
 33  1  1  0  0  0  0
 33 21  1  0  0  0  0
 34 33  1  0  0  0  0
 35 33  1  0  0  0  0
M  END
