2
 OpenBabel05122313063D

 24 24  0  0  1  0  0  0  0  0999 V2000
    2.3283    1.4819   -0.9617 S   0  0  0  0  0  0  0  0  0  0  0  0
   -0.0420    1.4156   -0.1098 N   0  0  0  0  0  2  0  0  0  0  0  0
    0.8025    2.2470   -0.6921 C   0  0  0  0  0  0  0  0  0  0  0  0
    0.5406    3.6810   -1.0548 C   0  0  0  0  0  0  0  0  0  0  0  0
   -1.3703    1.8638    0.3493 C   0  0  1  0  0  0  0  0  0  0  0  0
   -2.4108    0.7683    0.1539 C   0  0  0  0  0  0  0  0  0  0  0  0
   -2.9769    0.5900   -1.1247 C   0  0  0  0  0  0  0  0  0  0  0  0
   -3.9161   -0.4223   -1.3676 C   0  0  0  0  0  0  0  0  0  0  0  0
   -4.3127   -1.2744   -0.3235 C   0  0  0  0  0  0  0  0  0  0  0  0
   -3.7672   -1.0978    0.9576 C   0  0  0  0  0  0  0  0  0  0  0  0
   -2.8248   -0.0838    1.1949 C   0  0  0  0  0  0  0  0  0  0  0  0
   -1.2875    2.4153    1.7782 C   0  0  0  0  0  0  0  0  0  0  0  0
    1.4170    4.0974   -1.5843 H   0  0  0  0  0  0  0  0  0  0  0  0
    0.3523    4.3009   -0.1532 H   0  0  0  0  0  0  0  0  0  0  0  0
   -0.3471    3.7770   -1.7148 H   0  0  0  0  0  0  0  0  0  0  0  0
   -0.5875    3.2726    1.8177 H   0  0  0  0  0  0  0  0  0  0  0  0
   -0.9167    1.6551    2.4896 H   0  0  0  0  0  0  0  0  0  0  0  0
   -2.2836    2.7617    2.1180 H   0  0  0  0  0  0  0  0  0  0  0  0
   -2.6718    1.2617   -1.9440 H   0  0  0  0  0  0  0  0  0  0  0  0
   -4.3461   -0.5437   -2.3736 H   0  0  0  0  0  0  0  0  0  0  0  0
   -5.0516   -2.0689   -0.5075 H   0  0  0  0  0  0  0  0  0  0  0  0
   -4.0759   -1.7560    1.7840 H   0  0  0  0  0  0  0  0  0  0  0  0
   -2.4010    0.0294    2.2019 H   0  0  0  0  0  0  0  0  0  0  0  0
   -1.6838    2.6992   -0.3152 H   0  0  0  0  0  0  0  0  0  0  0  0
  1  3  2  0  0  0  0
  2  5  1  0  0  0  0
  3  2  1  0  0  0  0
  4  3  1  0  0  0  0
  4 14  1  0  0  0  0
  5 24  1  6  0  0  0
  5 12  1  0  0  0  0
  6  5  1  0  0  0  0
  6 11  1  0  0  0  0
  7  6  2  0  0  0  0
  8  7  1  0  0  0  0
  8  9  2  0  0  0  0
  9 10  1  0  0  0  0
 10 11  2  0  0  0  0
 10 22  1  0  0  0  0
 11 23  1  0  0  0  0
 12 16  1  0  0  0  0
 12 18  1  0  0  0  0
 12 17  1  0  0  0  0
 13  4  1  0  0  0  0
 15  4  1  0  0  0  0
 19  7  1  0  0  0  0
 20  8  1  0  0  0  0
 21  9  1  0  0  0  0
M  END
