2
 OpenBabel05122313063D

 38 40  0  0  0  0  0  0  0  0999 V2000
   -0.5202    1.3333   -0.4130 N   0  0  0  0  0  2  0  0  0  0  0  0
    0.6529   -0.5127   -0.0997 N   0  0  0  0  0  2  0  0  0  0  0  0
    1.8491    1.5924   -0.2577 N   0  0  0  0  0  0  0  0  0  0  0  0
    1.7696    2.4865   -0.7474 H   0  0  0  0  0  0  0  0  0  0  0  0
   -2.2905    2.8499   -1.8908 F   0  0  0  0  0  0  0  0  0  0  0  0
    2.4731   -0.4495   -2.2322 F   0  0  0  0  0  0  0  0  0  0  0  0
    4.0301    2.6909   -1.4096 F   0  0  0  0  0  0  0  0  0  0  0  0
    0.7139    0.8131   -0.2592 C   0  0  0  0  0  3  0  0  0  0  0  0
   -0.8709    2.6145    0.0154 C   0  0  0  0  0  0  0  0  0  0  0  0
   -1.7964    3.3731   -0.7408 C   0  0  0  0  0  0  0  0  0  0  0  0
   -2.2260    4.6426   -0.3511 C   0  0  0  0  0  0  0  0  0  0  0  0
   -2.9437    5.1768   -0.9903 H   0  0  0  0  0  0  0  0  0  0  0  0
   -1.7242    5.2031    0.8340 C   0  0  0  0  0  0  0  0  0  0  0  0
   -2.0553    6.2041    1.1476 H   0  0  0  0  0  0  0  0  0  0  0  0
   -0.8097    4.4760    1.6145 C   0  0  0  0  0  0  0  0  0  0  0  0
   -0.4274    4.9009    2.5546 H   0  0  0  0  0  0  0  0  0  0  0  0
   -0.3959    3.1990    1.2164 C   0  0  0  0  0  0  0  0  0  0  0  0
    0.2836    2.6070    1.8444 H   0  0  0  0  0  0  0  0  0  0  0  0
    1.6198   -1.4903   -0.2709 C   0  0  0  0  0  0  0  0  0  0  0  0
    2.5374   -1.4702   -1.3489 C   0  0  0  0  0  0  0  0  0  0  0  0
    3.4955   -2.4688   -1.5287 C   0  0  0  0  0  0  0  0  0  0  0  0
    4.1853   -2.3880   -2.3812 H   0  0  0  0  0  0  0  0  0  0  0  0
    3.5469   -3.5462   -0.6299 C   0  0  0  0  0  0  0  0  0  0  0  0
    4.2994   -4.3364   -0.7677 H   0  0  0  0  0  0  0  0  0  0  0  0
    2.6357   -3.6051    0.4386 C   0  0  0  0  0  0  0  0  0  0  0  0
    2.6718   -4.4435    1.1500 H   0  0  0  0  0  0  0  0  0  0  0  0
    1.6863   -2.5911    0.6167 C   0  0  0  0  0  0  0  0  0  0  0  0
    0.9877   -2.6106    1.4673 H   0  0  0  0  0  0  0  0  0  0  0  0
    3.1141    1.2656    0.2406 C   0  0  0  0  0  0  0  0  0  0  0  0
    4.2453    1.8408   -0.3784 C   0  0  0  0  0  0  0  0  0  0  0  0
    5.5433    1.5694    0.0493 C   0  0  0  0  0  0  0  0  0  0  0  0
    6.3840    2.0464   -0.4745 H   0  0  0  0  0  0  0  0  0  0  0  0
    5.7374    0.6876    1.1260 C   0  0  0  0  0  0  0  0  0  0  0  0
    6.7578    0.4577    1.4651 H   0  0  0  0  0  0  0  0  0  0  0  0
    4.6275    0.1152    1.7672 C   0  0  0  0  0  0  0  0  0  0  0  0
    4.7706   -0.5660    2.6185 H   0  0  0  0  0  0  0  0  0  0  0  0
    3.3252    0.4077    1.3396 C   0  0  0  0  0  0  0  0  0  0  0  0
    2.4561   -0.0226    1.8544 H   0  0  0  0  0  0  0  0  0  0  0  0
  1  8  1  0  0  0  0
  1  9  1  0  0  0  0
  3 29  1  0  0  0  0
  4  3  1  0  0  0  0
  5 10  1  0  0  0  0
  6 20  1  0  0  0  0
  7 30  1  0  0  0  0
  8  3  1  0  0  0  0
  8  2  1  0  0  0  0
  9 17  1  0  0  0  0
 10 11  1  0  0  0  0
 10  9  2  0  0  0  0
 11 13  2  0  0  0  0
 12 11  1  0  0  0  0
 13 14  1  0  0  0  0
 13 15  1  0  0  0  0
 15 16  1  0  0  0  0
 17 15  2  0  0  0  0
 17 18  1  0  0  0  0
 19  2  1  0  0  0  0
 19 27  1  0  0  0  0
 20 19  2  0  0  0  0
 21 20  1  0  0  0  0
 21 23  2  0  0  0  0
 22 21  1  0  0  0  0
 23 25  1  0  0  0  0
 24 23  1  0  0  0  0
 25 27  2  0  0  0  0
 25 26  1  0  0  0  0
 27 28  1  0  0  0  0
 29 37  1  0  0  0  0
 30 31  1  0  0  0  0
 30 29  2  0  0  0  0
 31 33  2  0  0  0  0
 32 31  1  0  0  0  0
 33 34  1  0  0  0  0
 33 35  1  0  0  0  0
 35 36  1  0  0  0  0
 37 35  2  0  0  0  0
 37 38  1  0  0  0  0
M  END
