2
 OpenBabel05122313063D

 19 20  0  0  1  0  0  0  0  0999 V2000
   -0.1203   -1.0673   -2.0249 O   0  0  0  0  0  0  0  0  0  0  0  0
    1.8926   -0.2146   -0.4510 N   0  0  0  0  0  2  0  0  0  0  0  0
    3.5028   -0.9648   -1.7856 N   0  0  0  0  0  0  0  0  0  0  0  0
    3.0982    0.3054    0.0106 C   0  0  0  0  0  0  0  0  0  0  0  0
    3.3831    1.1345    1.1110 C   0  0  0  0  0  0  0  0  0  0  0  0
    2.5868    1.4537    1.7995 H   0  0  0  0  0  0  0  0  0  0  0  0
    4.7220    1.4889    1.3124 C   0  0  0  0  0  0  0  0  0  0  0  0
    4.9881    2.1262    2.1682 H   0  0  0  0  0  0  0  0  0  0  0  0
    5.7494    1.0309    0.4513 C   0  0  0  0  0  0  0  0  0  0  0  0
    6.7881    1.3322    0.6501 H   0  0  0  0  0  0  0  0  0  0  0  0
    5.4816    0.1929   -0.6387 C   0  0  0  0  0  0  0  0  0  0  0  0
    6.2859   -0.1689   -1.2947 H   0  0  0  0  0  0  0  0  0  0  0  0
    4.1397   -0.1619   -0.8390 C   0  0  0  0  0  0  0  0  0  0  0  0
    2.1691   -0.9712   -1.5099 C   0  0  1  0  0  3  0  0  0  0  0  0
    1.1071   -1.7609   -2.2152 C   0  0  0  0  0  0  0  0  0  0  0  0
    1.3560   -1.8726   -3.2952 H   0  0  0  0  0  0  0  0  0  0  0  0
    1.0671   -2.7785   -1.7626 H   0  0  0  0  0  0  0  0  0  0  0  0
   -0.8379   -1.7259   -1.9588 H   0  0  0  0  0  0  0  0  0  0  0  0
    3.9563   -1.4668   -2.5510 H   0  0  0  0  0  0  0  0  0  0  0  0
  1 18  1  0  0  0  0
  2  4  1  0  0  0  0
  3 14  1  0  0  0  0
  3 13  1  0  0  0  0
  4  5  1  0  0  0  0
  5  7  2  0  0  0  0
  5  6  1  0  0  0  0
  7  8  1  0  0  0  0
  9 10  1  0  0  0  0
  9  7  1  0  0  0  0
 11  9  2  0  0  0  0
 12 11  1  0  0  0  0
 13 11  1  0  0  0  0
 13  4  2  0  0  0  0
 14 15  1  1  0  0  0
 14  2  1  0  0  0  0
 15  1  1  0  0  0  0
 15 17  1  0  0  0  0
 16 15  1  0  0  0  0
 19  3  1  0  0  0  0
M  END
