1
 OpenBabel05122313063D

 19 20  0  0  0  0  0  0  0  0999 V2000
    1.2735   -1.4100   -0.3874 N   0  0  0  0  0  2  0  0  0  0  0  0
    2.5923   -1.2023   -0.1532 C   0  0  0  0  0  3  0  0  0  0  0  0
    2.9414   -0.1935    0.1164 H   0  0  0  0  0  0  0  0  0  0  0  0
    3.5134   -2.2539   -0.3308 C   0  0  0  0  0  0  0  0  0  0  0  0
    1.8357   -3.6540   -0.9817 C   0  0  0  0  0  0  0  0  0  0  0  0
    1.5154   -4.6537   -1.3207 H   0  0  0  0  0  0  0  0  0  0  0  0
    0.8877   -2.6371   -0.8186 C   0  0  0  0  0  0  0  0  0  0  0  0
   -0.1817   -2.7944   -1.0066 H   0  0  0  0  0  0  0  0  0  0  0  0
    3.1409   -3.4790   -0.7331 N   0  0  0  0  0  0  0  0  0  0  0  0
    5.2679   -2.1737   -0.0365 S   0  0  0  0  0  0  0  0  0  0  0  0
    7.6394    0.9770    0.4768 N   0  0  0  0  0  0  0  0  0  0  0  0
    7.1432   -0.2457    0.2951 C   0  0  0  0  0  0  0  0  0  0  0  0
    7.8569   -1.0834    0.1919 H   0  0  0  0  0  0  0  0  0  0  0  0
    5.7418   -0.4724    0.2286 C   0  0  0  0  0  0  0  0  0  0  0  0
    5.3745    1.7708    0.5117 C   0  0  0  0  0  0  0  0  0  0  0  0
    4.6455    2.5992    0.5542 H   0  0  0  0  0  0  0  0  0  0  0  0
    6.7574    1.9899    0.5772 C   0  0  0  0  0  0  0  0  0  0  0  0
    7.1644    3.0064    0.7109 H   0  0  0  0  0  0  0  0  0  0  0  0
    4.8712    0.5323    0.3536 N   0  0  0  0  0  0  0  0  0  0  0  0
  1  2  1  0  0  0  0
  2  3  1  0  0  0  0
  4  2  1  0  0  0  0
  4 10  1  0  0  0  0
  5  7  2  0  0  0  0
  5  9  1  0  0  0  0
  6  5  1  0  0  0  0
  7  1  1  0  0  0  0
  8  7  1  0  0  0  0
  9  4  2  0  0  0  0
 10 14  1  0  0  0  0
 11 17  1  0  0  0  0
 12 11  2  0  0  0  0
 13 12  1  0  0  0  0
 14 12  1  0  0  0  0
 14 19  2  0  0  0  0
 15 16  1  0  0  0  0
 15 17  2  0  0  0  0
 17 18  1  0  0  0  0
 19 15  1  0  0  0  0
M  END
