2
 OpenBabel05122313063D

 52 58  0  0  1  0  0  0  0  0999 V2000
   -0.2327    0.5670   -0.4666 P   0  0  0  0  0  0  0  0  0  0  0  0
   -3.2727    0.6628   -0.6964 N   0  0  0  0  0  2  0  0  0  0  0  0
    0.8757    0.3512   -1.6530 O   0  0  0  0  0  0  0  0  0  0  0  0
    0.7046    0.8782    0.8612 O   0  0  0  0  0  0  0  0  0  0  0  0
   -0.7226    2.0613   -0.9733 O   0  0  0  0  0  0  0  0  0  0  0  0
   -3.1440    2.0231   -0.5171 C   0  0  1  0  0  3  0  0  0  0  0  0
   -1.8709    2.6820   -0.5413 C   0  0  0  0  0  0  0  0  0  0  0  0
   -1.7753    4.0416   -0.2618 C   0  0  0  0  0  0  0  0  0  0  0  0
   -0.7770    4.5008   -0.2986 H   0  0  0  0  0  0  0  0  0  0  0  0
   -2.9307    4.8166   -0.0054 C   0  0  0  0  0  0  0  0  0  0  0  0
   -2.8234    5.8899    0.2073 H   0  0  0  0  0  0  0  0  0  0  0  0
   -4.1878    4.2375   -0.0806 C   0  0  0  0  0  0  0  0  0  0  0  0
   -5.0983    4.8412    0.0456 H   0  0  0  0  0  0  0  0  0  0  0  0
   -4.3202    2.8492   -0.3650 C   0  0  0  0  0  0  0  0  0  0  0  0
   -5.5900    2.2409   -0.5720 C   0  0  0  0  0  0  0  0  0  0  0  0
   -6.4988    2.8534   -0.4698 H   0  0  0  0  0  0  0  0  0  0  0  0
   -5.6635    0.9089   -0.9434 C   0  0  0  0  0  0  0  0  0  0  0  0
   -6.6208    0.4240   -1.1792 H   0  0  0  0  0  0  0  0  0  0  0  0
   -4.4752    0.1467   -0.9763 C   0  0  0  0  0  0  0  0  0  0  0  0
   -4.4891   -0.9252   -1.2212 H   0  0  0  0  0  0  0  0  0  0  0  0
    1.7993   -0.6747   -1.3687 C   0  0  0  0  0  0  0  0  0  0  0  0
    1.6032   -1.9326   -1.9845 C   0  0  0  0  0  0  0  0  0  0  0  0
    0.7458   -2.0584   -2.6607 H   0  0  0  0  0  0  0  0  0  0  0  0
    2.4834   -2.9606   -1.6914 C   0  0  0  0  0  0  0  0  0  0  0  0
    2.3624   -3.9444   -2.1703 H   0  0  0  0  0  0  0  0  0  0  0  0
    3.5414   -2.7764   -0.7521 C   0  0  0  0  0  0  0  0  0  0  0  0
    4.4098   -3.8506   -0.3966 C   0  0  0  0  0  0  0  0  0  0  0  0
    4.2725   -4.8237   -0.8928 H   0  0  0  0  0  0  0  0  0  0  0  0
    5.3999   -3.6804    0.5578 C   0  0  0  0  0  0  0  0  0  0  0  0
    6.0623   -4.5176    0.8234 H   0  0  0  0  0  0  0  0  0  0  0  0
    5.5523   -2.4254    1.2042 C   0  0  0  0  0  0  0  0  0  0  0  0
    6.3247   -2.3009    1.9778 H   0  0  0  0  0  0  0  0  0  0  0  0
    4.7362   -1.3543    0.8711 C   0  0  0  0  0  0  0  0  0  0  0  0
    4.8628   -0.3900    1.3815 H   0  0  0  0  0  0  0  0  0  0  0  0
    3.7231   -1.4864   -0.1251 C   0  0  0  0  0  0  0  0  0  0  0  0
    2.8488   -0.3985   -0.4885 C   0  0  0  0  0  0  0  0  0  0  0  0
    2.9946    0.9722    0.0708 C   0  0  0  0  0  0  0  0  0  0  0  0
    4.2071    1.7410   -0.0736 C   0  0  0  0  0  0  0  0  0  0  0  0
    5.3162    1.2806   -0.8433 C   0  0  0  0  0  0  0  0  0  0  0  0
    5.2473    0.3134   -1.3590 H   0  0  0  0  0  0  0  0  0  0  0  0
    6.4692    2.0432   -0.9588 C   0  0  0  0  0  0  0  0  0  0  0  0
    7.3093    1.6701   -1.5633 H   0  0  0  0  0  0  0  0  0  0  0  0
    6.5730    3.3028   -0.3124 C   0  0  0  0  0  0  0  0  0  0  0  0
    7.4962    3.8932   -0.4073 H   0  0  0  0  0  0  0  0  0  0  0  0
    5.5041    3.7927    0.4207 C   0  0  0  0  0  0  0  0  0  0  0  0
    5.5646    4.7778    0.9082 H   0  0  0  0  0  0  0  0  0  0  0  0
    4.2986    3.0420    0.5487 C   0  0  0  0  0  0  0  0  0  0  0  0
    3.1766    3.5638    1.2561 C   0  0  0  0  0  0  0  0  0  0  0  0
    3.2587    4.5541    1.7290 H   0  0  0  0  0  0  0  0  0  0  0  0
    1.9922    2.8520    1.3301 C   0  0  0  0  0  0  0  0  0  0  0  0
    1.1073    3.2456    1.8503 H   0  0  0  0  0  0  0  0  0  0  0  0
    1.9208    1.5728    0.7314 C   0  0  0  0  0  0  0  0  0  0  0  0
  1  4  1  0  0  0  0
  3 21  1  0  0  0  0
  3  1  1  0  0  0  0
  5  7  1  0  0  0  0
  5  1  1  0  0  0  0
  6  2  1  6  0  0  0
  6 14  1  0  0  0  0
  7  6  1  0  0  0  0
  7  8  2  0  0  0  0
  8 10  1  0  0  0  0
  9  8  1  0  0  0  0
 10 11  1  0  0  0  0
 12 10  2  0  0  0  0
 12 13  1  0  0  0  0
 14 12  1  0  0  0  0
 15 16  1  0  0  0  0
 15 14  2  0  0  0  0
 17 15  1  0  0  0  0
 18 17  1  0  0  0  0
 19 17  2  0  0  0  0
 19  2  1  0  0  0  0
 20 19  1  0  0  0  0
 21 36  1  0  0  0  0
 22 24  1  0  0  0  0
 22 21  2  0  0  0  0
 23 22  1  0  0  0  0
 24 26  2  0  0  0  0
 25 24  1  0  0  0  0
 26 27  1  0  0  0  0
 26 35  1  0  0  0  0
 27 29  2  0  0  0  0
 28 27  1  0  0  0  0
 29 30  1  0  0  0  0
 29 31  1  0  0  0  0
 31 32  1  0  0  0  0
 33 31  2  0  0  0  0
 33 34  1  0  0  0  0
 35 33  1  0  0  0  0
 36 35  2  0  0  0  0
 36 37  1  0  0  0  0
 37 52  1  0  0  0  0
 38 37  2  0  0  0  0
 38 47  1  0  0  0  0
 39 38  1  0  0  0  0
 40 39  1  0  0  0  0
 41 39  2  0  0  0  0
 41 43  1  0  0  0  0
 42 41  1  0  0  0  0
 43 45  2  0  0  0  0
 44 43  1  0  0  0  0
 45 47  1  0  0  0  0
 45 46  1  0  0  0  0
 47 48  2  0  0  0  0
 48 50  1  0  0  0  0
 48 49  1  0  0  0  0
 50 51  1  0  0  0  0
 52  4  1  0  0  0  0
 52 50  2  0  0  0  0
M  END
