3
 OpenBabel05122313063D

 76 84  0  0  1  0  0  0  0  0999 V2000
   -1.6586   -0.0002   -1.1587 S   0  0  0  0  0  0  0  0  0  0  0  0
    0.0091    2.2029   -0.4227 N   0  0  0  0  0  0  0  0  0  0  0  0
    2.0984    0.0002   -0.0972 N   0  0  0  0  0  0  0  0  0  0  0  0
    0.0095   -2.2029   -0.4227 N   0  0  0  0  0  0  0  0  0  0  0  0
    1.1335    2.9825   -0.3375 C   0  0  0  0  0  0  0  0  0  0  0  0
    2.4680    2.4918   -0.2933 C   0  0  0  0  0  0  0  0  0  0  0  0
    2.8772    1.1239   -0.3053 C   0  0  0  0  0  3  0  0  0  0  0  0
    4.2116    0.6891   -0.6580 C   0  0  0  0  0  0  0  0  0  0  0  0
    4.2117   -0.6884   -0.6581 C   0  0  0  0  0  0  0  0  0  0  0  0
    2.8773   -1.1235   -0.3054 C   0  0  0  0  0  0  0  0  0  0  0  0
    2.4684   -2.4914   -0.2935 C   0  0  0  0  0  0  0  0  0  0  0  0
    1.1340   -2.9823   -0.3375 C   0  0  0  0  0  0  0  0  0  0  0  0
    0.7573   -4.3968   -0.3206 C   0  0  0  0  0  0  0  0  0  0  0  0
   -0.6123   -4.4364   -0.4109 C   0  0  0  0  0  0  0  0  0  0  0  0
   -1.0623   -3.0479   -0.4686 C   0  0  0  0  0  0  0  0  0  0  0  0
   -2.4221   -2.6199   -0.5670 C   0  0  2  0  0  3  0  0  0  0  0  0
   -2.8030   -1.2672   -0.7357 C   0  0  0  0  0  0  0  0  0  0  0  0
   -4.0719   -0.6937   -0.4216 C   0  0  0  0  0  0  0  0  0  0  0  0
   -4.0721    0.6930   -0.4217 C   0  0  0  0  0  0  0  0  0  0  0  0
   -2.8032    1.2667   -0.7358 C   0  0  0  0  0  0  0  0  0  0  0  0
   -2.4226    2.6195   -0.5672 C   0  0  2  0  0  3  0  0  0  0  0  0
   -1.0628    3.0477   -0.4687 C   0  0  0  0  0  0  0  0  0  0  0  0
   -0.6130    4.4363   -0.4110 C   0  0  0  0  0  0  0  0  0  0  0  0
    0.7566    4.3969   -0.3206 C   0  0  0  0  0  0  0  0  0  0  0  0
    3.5727    3.4955   -0.3122 C   0  0  0  0  0  0  0  0  0  0  0  0
    3.7030    4.4194   -1.3734 C   0  0  0  0  0  0  0  0  0  0  0  0
    4.7513    5.3503   -1.3866 C   0  0  0  0  0  0  0  0  0  0  0  0
    5.6862    5.3773   -0.3391 C   0  0  0  0  0  0  0  0  0  0  0  0
    5.5699    4.4623    0.7194 C   0  0  0  0  0  0  0  0  0  0  0  0
    4.5256    3.5270    0.7307 C   0  0  0  0  0  0  0  0  0  0  0  0
    3.5733   -3.4949   -0.3124 C   0  0  0  0  0  0  0  0  0  0  0  0
    4.5262   -3.5263    0.7304 C   0  0  0  0  0  0  0  0  0  0  0  0
    5.5707   -4.4614    0.7190 C   0  0  0  0  0  0  0  0  0  0  0  0
    5.6871   -5.3764   -0.3397 C   0  0  0  0  0  0  0  0  0  0  0  0
    4.7522   -5.3495   -1.3871 C   0  0  0  0  0  0  0  0  0  0  0  0
    3.7037   -4.4187   -1.3737 C   0  0  0  0  0  0  0  0  0  0  0  0
   -3.5048   -3.6225   -0.3843 C   0  0  0  0  0  0  0  0  0  0  0  0
   -4.5364   -3.7517   -1.3420 C   0  0  0  0  0  0  0  0  0  0  0  0
   -5.5620   -4.6908   -1.1664 C   0  0  0  0  0  0  0  0  0  0  0  0
   -5.5794   -5.5123   -0.0275 C   0  0  0  0  0  0  0  0  0  0  0  0
   -4.5653   -5.3870    0.9359 C   0  0  0  0  0  0  0  0  0  0  0  0
   -3.5367   -4.4511    0.7609 C   0  0  0  0  0  0  0  0  0  0  0  0
   -3.5054    3.6219   -0.3846 C   0  0  0  0  0  0  0  0  0  0  0  0
   -4.5370    3.7508   -1.3424 C   0  0  0  0  0  0  0  0  0  0  0  0
   -5.5627    4.6898   -1.1668 C   0  0  0  0  0  0  0  0  0  0  0  0
   -5.5803    5.5114   -0.0280 C   0  0  0  0  0  0  0  0  0  0  0  0
   -4.5663    5.3863    0.9355 C   0  0  0  0  0  0  0  0  0  0  0  0
   -3.5376    4.4505    0.7606 C   0  0  0  0  0  0  0  0  0  0  0  0
    5.0323    1.3567   -0.9391 H   0  0  0  0  0  0  0  0  0  0  0  0
    5.0326   -1.3559   -0.9392 H   0  0  0  0  0  0  0  0  0  0  0  0
    1.4442   -5.2459   -0.2406 H   0  0  0  0  0  0  0  0  0  0  0  0
   -1.2539   -5.3231   -0.4597 H   0  0  0  0  0  0  0  0  0  0  0  0
   -4.9262   -1.3100   -0.1132 H   0  0  0  0  0  0  0  0  0  0  0  0
   -4.9264    1.3092   -0.1133 H   0  0  0  0  0  0  0  0  0  0  0  0
   -1.2547    5.3228   -0.4598 H   0  0  0  0  0  0  0  0  0  0  0  0
    1.4433    5.2462   -0.2405 H   0  0  0  0  0  0  0  0  0  0  0  0
    2.9802    4.3869   -2.2022 H   0  0  0  0  0  0  0  0  0  0  0  0
    4.8430    6.0560   -2.2264 H   0  0  0  0  0  0  0  0  0  0  0  0
    6.5076    6.1097   -0.3497 H   0  0  0  0  0  0  0  0  0  0  0  0
    6.2967    4.4784    1.5458 H   0  0  0  0  0  0  0  0  0  0  0  0
    4.4302    2.8125    1.5622 H   0  0  0  0  0  0  0  0  0  0  0  0
    4.4308   -2.8119    1.5619 H   0  0  0  0  0  0  0  0  0  0  0  0
    6.2976   -4.4776    1.5453 H   0  0  0  0  0  0  0  0  0  0  0  0
    6.5086   -6.1087   -0.3503 H   0  0  0  0  0  0  0  0  0  0  0  0
    4.8439   -6.0550   -2.2269 H   0  0  0  0  0  0  0  0  0  0  0  0
    2.9808   -4.3863   -2.2024 H   0  0  0  0  0  0  0  0  0  0  0  0
   -4.5147   -3.1152   -2.2395 H   0  0  0  0  0  0  0  0  0  0  0  0
   -6.3512   -4.7859   -1.9277 H   0  0  0  0  0  0  0  0  0  0  0  0
   -6.3858   -6.2483    0.1110 H   0  0  0  0  0  0  0  0  0  0  0  0
   -4.5804   -6.0172    1.8381 H   0  0  0  0  0  0  0  0  0  0  0  0
   -2.7555   -4.3336    1.5265 H   0  0  0  0  0  0  0  0  0  0  0  0
   -4.5151    3.1144   -2.2399 H   0  0  0  0  0  0  0  0  0  0  0  0
   -6.3519    4.7848   -1.9282 H   0  0  0  0  0  0  0  0  0  0  0  0
   -6.3869    6.2472    0.1104 H   0  0  0  0  0  0  0  0  0  0  0  0
   -4.5817    6.0165    1.8377 H   0  0  0  0  0  0  0  0  0  0  0  0
   -2.7564    4.3332    1.5263 H   0  0  0  0  0  0  0  0  0  0  0  0
  1 20  1  0  0  0  0
  1 17  1  0  0  0  0
  2  5  1  0  0  0  0
  4 12  1  0  0  0  0
  5 24  1  0  0  0  0
  5  6  2  0  0  0  0
  7  6  1  0  0  0  0
  7  3  1  0  0  0  0
  8  7  1  0  0  0  0
  9  8  2  0  0  0  0
  9 10  1  0  0  0  0
 10 11  1  0  0  0  0
 10  3  2  0  0  0  0
 12 13  1  0  0  0  0
 12 11  2  0  0  0  0
 13 51  1  0  0  0  0
 14 13  2  0  0  0  0
 15  4  2  0  0  0  0
 15 14  1  0  0  0  0
 16 15  1  0  0  0  0
 16 37  1  1  0  0  0
 17 16  1  0  0  0  0
 17 18  2  0  0  0  0
 18 53  1  0  0  0  0
 19 18  1  0  0  0  0
 19 54  1  0  0  0  0
 20 21  1  0  0  0  0
 20 19  2  0  0  0  0
 21 22  1  0  0  0  0
 21 43  1  1  0  0  0
 22  2  2  0  0  0  0
 22 23  1  0  0  0  0
 23 24  2  0  0  0  0
 24 56  1  0  0  0  0
 25  6  1  0  0  0  0
 25 30  1  0  0  0  0
 26 25  2  0  0  0  0
 27 26  1  0  0  0  0
 27 28  2  0  0  0  0
 28 29  1  0  0  0  0
 29 30  2  0  0  0  0
 29 60  1  0  0  0  0
 30 61  1  0  0  0  0
 31 11  1  0  0  0  0
 31 32  1  0  0  0  0
 32 62  1  0  0  0  0
 33 32  2  0  0  0  0
 33 63  1  0  0  0  0
 34 33  1  0  0  0  0
 35 36  1  0  0  0  0
 35 34  2  0  0  0  0
 36 31  2  0  0  0  0
 37 42  1  0  0  0  0
 38 39  1  0  0  0  0
 38 37  2  0  0  0  0
 39 40  2  0  0  0  0
 40 69  1  0  0  0  0
 40 41  1  0  0  0  0
 41 70  1  0  0  0  0
 42 41  2  0  0  0  0
 42 71  1  0  0  0  0
 43 48  1  0  0  0  0
 44 45  1  0  0  0  0
 44 43  2  0  0  0  0
 45 46  2  0  0  0  0
 46 74  1  0  0  0  0
 46 47  1  0  0  0  0
 47 75  1  0  0  0  0
 48 47  2  0  0  0  0
 48 76  1  0  0  0  0
 49  8  1  0  0  0  0
 50  9  1  0  0  0  0
 52 14  1  0  0  0  0
 55 23  1  0  0  0  0
 57 26  1  0  0  0  0
 58 27  1  0  0  0  0
 59 28  1  0  0  0  0
 64 34  1  0  0  0  0
 65 35  1  0  0  0  0
 66 36  1  0  0  0  0
 67 38  1  0  0  0  0
 68 39  1  0  0  0  0
 72 44  1  0  0  0  0
 73 45  1  0  0  0  0
M  END
