40
 OpenBabel05122313063D

 41 41  0  0  1  0  0  0  0  0999 V2000
    7.3570   -2.9211    1.3131 C   0  0  0  0  0  0  0  0  0  0  0  0
    6.5403   -2.8689    2.0604 H   0  0  0  0  0  0  0  0  0  0  0  0
    7.7305   -3.9652    1.2819 H   0  0  0  0  0  0  0  0  0  0  0  0
    8.1867   -2.2800    1.6774 H   0  0  0  0  0  0  0  0  0  0  0  0
    7.9945   -2.5852   -1.1234 C   0  0  0  0  0  0  0  0  0  0  0  0
    8.8545   -1.9327   -0.8658 H   0  0  0  0  0  0  0  0  0  0  0  0
    8.3726   -3.6264   -1.1839 H   0  0  0  0  0  0  0  0  0  0  0  0
    7.6377   -2.2880   -2.1296 H   0  0  0  0  0  0  0  0  0  0  0  0
    6.8746   -2.4692   -0.0758 C   0  0  0  0  0  0  0  0  0  0  0  0
    6.0529   -3.1521   -0.3847 H   0  0  0  0  0  0  0  0  0  0  0  0
    6.2871   -1.0663   -0.0338 C   0  0  0  0  0  0  0  0  0  0  0  0
    7.0690    0.0538    0.3092 C   0  0  0  0  0  0  0  0  0  0  0  0
    8.1357   -0.0722    0.5533 H   0  0  0  0  0  0  0  0  0  0  0  0
    6.5069    1.3347    0.3511 C   0  0  0  0  0  0  0  0  0  0  0  0
    7.1491    2.1824    0.6300 H   0  0  0  0  0  0  0  0  0  0  0  0
    5.1466    1.5672    0.0561 C   0  0  0  0  0  0  0  0  0  0  0  0
    4.5724    2.9822    0.0840 C   0  0  0  0  0  0  0  0  0  0  0  0
    3.5276    2.9143    0.4565 H   0  0  0  0  0  0  0  0  0  0  0  0
    5.3120    3.9365    1.0304 C   0  0  0  0  0  0  0  0  0  0  0  0
    6.3330    4.1752    0.6670 H   0  0  0  0  0  0  0  0  0  0  0  0
    4.7636    4.8967    1.1059 H   0  0  0  0  0  0  0  0  0  0  0  0
    5.4038    3.5138    2.0511 H   0  0  0  0  0  0  0  0  0  0  0  0
    4.5117    3.5673   -1.3403 C   0  0  0  0  0  0  0  0  0  0  0  0
    3.9170    2.9286   -2.0233 H   0  0  0  0  0  0  0  0  0  0  0  0
    4.0523    4.5768   -1.3346 H   0  0  0  0  0  0  0  0  0  0  0  0
    5.5321    3.6530   -1.7679 H   0  0  0  0  0  0  0  0  0  0  0  0
    4.3534    0.4463   -0.3044 C   0  0  0  0  0  0  0  0  0  0  0  0
    4.9354   -0.8371   -0.3364 C   0  0  0  0  0  0  0  0  0  0  0  0
    4.3105   -1.7043   -0.6114 H   0  0  0  0  0  0  0  0  0  0  0  0
    2.8703    0.5727   -0.6327 C   0  0  1  0  0  0  0  0  0  0  0  0
    2.5497    1.6284   -0.5661 H   0  0  0  0  0  0  0  0  0  0  0  0
    2.5294    0.0606   -2.0334 C   0  0  0  0  0  0  0  0  0  0  0  0
    1.4677    0.2733   -2.2708 H   0  0  0  0  0  0  0  0  0  0  0  0
    3.1734    0.5632   -2.7809 H   0  0  0  0  0  0  0  0  0  0  0  0
    2.6870   -1.0332   -2.1241 H   0  0  0  0  0  0  0  0  0  0  0  0
    2.2976    0.2702    1.7825 C   0  0  0  0  0  0  0  0  0  0  0  0
    1.9944    1.3265    1.9077 H   0  0  0  0  0  0  0  0  0  0  0  0
    1.6841   -0.3568    2.4558 H   0  0  0  0  0  0  0  0  0  0  0  0
    3.3718    0.1513    2.0366 H   0  0  0  0  0  0  0  0  0  0  0  0
    2.0296   -0.1369    0.3880 N   0  0  0  0  0  0  0  0  0  0  0  0
    2.1784   -1.1583    0.2981 H   0  0  0  0  0  0  0  0  0  0  0  0
  1  4  1  0  0  0  0
  1  2  1  0  0  0  0
  3  1  1  0  0  0  0
  5  6  1  0  0  0  0
  5  9  1  0  0  0  0
  7  5  1  0  0  0  0
  8  5  1  0  0  0  0
  9 11  1  0  0  0  0
  9  1  1  0  0  0  0
 10  9  1  0  0  0  0
 11 12  1  0  0  0  0
 12 14  2  0  0  0  0
 12 13  1  0  0  0  0
 14 15  1  0  0  0  0
 16 17  1  0  0  0  0
 16 14  1  0  0  0  0
 17 18  1  0  0  0  0
 17 19  1  0  0  0  0
 19 21  1  0  0  0  0
 19 22  1  0  0  0  0
 20 19  1  0  0  0  0
 23 25  1  0  0  0  0
 23 17  1  0  0  0  0
 24 23  1  0  0  0  0
 26 23  1  0  0  0  0
 27 16  2  0  0  0  0
 28 27  1  0  0  0  0
 28 11  2  0  0  0  0
 29 28  1  0  0  0  0
 30 31  1  1  0  0  0
 30 27  1  0  0  0  0
 30 40  1  0  0  0  0
 32 30  1  0  0  0  0
 33 32  1  0  0  0  0
 34 32  1  0  0  0  0
 35 32  1  0  0  0  0
 36 37  1  0  0  0  0
 36 39  1  0  0  0  0
 36 38  1  0  0  0  0
 40 36  1  0  0  0  0
 41 40  1  0  0  0  0
M  END
