40
 OpenBabel05122313063D

 41 41  0  0  1  0  0  0  0  0999 V2000
   -7.3565    2.9215   -1.3129 C   0  0  0  0  0  0  0  0  0  0  0  0
   -6.5398    2.8691   -2.0603 H   0  0  0  0  0  0  0  0  0  0  0  0
   -7.7297    3.9658   -1.2818 H   0  0  0  0  0  0  0  0  0  0  0  0
   -8.1863    2.2806   -1.6771 H   0  0  0  0  0  0  0  0  0  0  0  0
   -7.9938    2.5861    1.1236 C   0  0  0  0  0  0  0  0  0  0  0  0
   -8.8540    1.9337    0.8662 H   0  0  0  0  0  0  0  0  0  0  0  0
   -8.3717    3.6274    1.1841 H   0  0  0  0  0  0  0  0  0  0  0  0
   -7.6370    2.2889    2.1299 H   0  0  0  0  0  0  0  0  0  0  0  0
   -6.8740    2.4697    0.0760 C   0  0  0  0  0  0  0  0  0  0  0  0
   -6.0522    3.1524    0.3847 H   0  0  0  0  0  0  0  0  0  0  0  0
   -6.2868    1.0667    0.0341 C   0  0  0  0  0  0  0  0  0  0  0  0
   -7.0691   -0.0533   -0.3086 C   0  0  0  0  0  0  0  0  0  0  0  0
   -8.1357    0.0729   -0.5525 H   0  0  0  0  0  0  0  0  0  0  0  0
   -6.5072   -1.3343   -0.3504 C   0  0  0  0  0  0  0  0  0  0  0  0
   -7.1496   -2.1819   -0.6291 H   0  0  0  0  0  0  0  0  0  0  0  0
   -5.1469   -1.5671   -0.0557 C   0  0  0  0  0  0  0  0  0  0  0  0
   -4.5729   -2.9822   -0.0836 C   0  0  0  0  0  0  0  0  0  0  0  0
   -3.5283   -2.9145   -0.4564 H   0  0  0  0  0  0  0  0  0  0  0  0
   -5.3129   -3.9364   -1.0297 C   0  0  0  0  0  0  0  0  0  0  0  0
   -6.3339   -4.1748   -0.6660 H   0  0  0  0  0  0  0  0  0  0  0  0
   -4.7648   -4.8968   -1.1052 H   0  0  0  0  0  0  0  0  0  0  0  0
   -5.4049   -3.5138   -2.0504 H   0  0  0  0  0  0  0  0  0  0  0  0
   -4.5120   -3.5671    1.3408 C   0  0  0  0  0  0  0  0  0  0  0  0
   -3.9171   -2.9284    2.0235 H   0  0  0  0  0  0  0  0  0  0  0  0
   -4.0529   -4.5767    1.3351 H   0  0  0  0  0  0  0  0  0  0  0  0
   -5.5324   -3.6525    1.7687 H   0  0  0  0  0  0  0  0  0  0  0  0
   -4.3534   -0.4463    0.3045 C   0  0  0  0  0  0  0  0  0  0  0  0
   -4.9351    0.8372    0.3365 C   0  0  0  0  0  0  0  0  0  0  0  0
   -4.3100    1.7044    0.6112 H   0  0  0  0  0  0  0  0  0  0  0  0
   -2.8702   -0.5728    0.6325 C   0  0  2  0  0  0  0  0  0  0  0  0
   -2.5498   -1.6287    0.5660 H   0  0  0  0  0  0  0  0  0  0  0  0
   -2.5290   -0.0608    2.0331 C   0  0  0  0  0  0  0  0  0  0  0  0
   -1.4673   -0.2736    2.2704 H   0  0  0  0  0  0  0  0  0  0  0  0
   -3.1730   -0.5631    2.7807 H   0  0  0  0  0  0  0  0  0  0  0  0
   -2.6864    1.0331    2.1237 H   0  0  0  0  0  0  0  0  0  0  0  0
   -2.2979   -0.2709   -1.7828 C   0  0  0  0  0  0  0  0  0  0  0  0
   -1.9947   -1.3272   -1.9079 H   0  0  0  0  0  0  0  0  0  0  0  0
   -1.6845    0.3560   -2.4563 H   0  0  0  0  0  0  0  0  0  0  0  0
   -3.3721   -0.1520   -2.0367 H   0  0  0  0  0  0  0  0  0  0  0  0
   -2.0296    0.1364   -0.3885 N   0  0  0  0  0  0  0  0  0  0  0  0
   -2.1784    1.1579   -0.2987 H   0  0  0  0  0  0  0  0  0  0  0  0
  1  3  1  0  0  0  0
  1  9  1  0  0  0  0
  2  1  1  0  0  0  0
  4  1  1  0  0  0  0
  5  7  1  0  0  0  0
  5  8  1  0  0  0  0
  6  5  1  0  0  0  0
  9 10  1  0  0  0  0
  9  5  1  0  0  0  0
 11  9  1  0  0  0  0
 11 28  1  0  0  0  0
 12 11  2  0  0  0  0
 13 12  1  0  0  0  0
 14 12  1  0  0  0  0
 14 16  2  0  0  0  0
 15 14  1  0  0  0  0
 16 27  1  0  0  0  0
 17 16  1  0  0  0  0
 17 23  1  0  0  0  0
 18 17  1  0  0  0  0
 19 20  1  0  0  0  0
 19 17  1  0  0  0  0
 21 19  1  0  0  0  0
 22 19  1  0  0  0  0
 23 26  1  0  0  0  0
 23 24  1  0  0  0  0
 25 23  1  0  0  0  0
 27 28  2  0  0  0  0
 27 30  1  0  0  0  0
 28 29  1  0  0  0  0
 30 31  1  6  0  0  0
 30 32  1  0  0  0  0
 32 35  1  0  0  0  0
 32 33  1  0  0  0  0
 32 34  1  0  0  0  0
 36 40  1  0  0  0  0
 37 36  1  0  0  0  0
 38 36  1  0  0  0  0
 39 36  1  0  0  0  0
 40 41  1  0  0  0  0
 40 30  1  0  0  0  0
M  END
