4
 OpenBabel05122313063D

 15 15  0  0  0  0  0  0  0  0999 V2000
   -7.1662   -0.8374    1.2191 F   0  0  0  0  0  0  0  0  0  0  0  0
   -7.1326   -0.1423   -0.8418 F   0  0  0  0  0  0  0  0  0  0  0  0
   -7.4395   -2.2679   -0.4064 F   0  0  0  0  0  0  0  0  0  0  0  0
   -1.1878   -2.1550   -0.1267 N   0  0  0  0  0  2  0  0  0  0  0  0
   -3.3842   -2.9214   -0.1722 N   0  0  0  0  0  0  0  0  0  0  0  0
   -2.5169   -1.8714   -0.1174 C   0  0  0  0  0  0  0  0  0  0  0  0
   -4.6947   -2.6738   -0.1586 C   0  0  0  0  0  0  0  0  0  0  0  0
   -5.2602   -1.3868   -0.0946 C   0  0  0  0  0  0  0  0  0  0  0  0
   -4.3664   -0.2908   -0.0439 C   0  0  0  0  0  0  0  0  0  0  0  0
   -3.0012   -0.5210   -0.0560 C   0  0  0  0  0  0  0  0  0  0  0  0
   -6.7358   -1.1687   -0.0348 C   0  0  0  0  0  0  0  0  0  0  0  0
   -1.0306   -3.1666   -0.1757 H   0  0  0  0  0  0  0  0  0  0  0  0
   -5.3608   -3.5538   -0.2082 H   0  0  0  0  0  0  0  0  0  0  0  0
   -4.7529    0.7394   -0.0038 H   0  0  0  0  0  0  0  0  0  0  0  0
   -2.2881    0.3160   -0.0226 H   0  0  0  0  0  0  0  0  0  0  0  0
  2 11  1  0  0  0  0
  3 11  1  0  0  0  0
  4  6  1  0  0  0  0
  5  7  2  0  0  0  0
  5  6  1  0  0  0  0
  6 10  2  0  0  0  0
  7  8  1  0  0  0  0
  8  9  2  0  0  0  0
  8 11  1  0  0  0  0
  9 14  1  0  0  0  0
 10  9  1  0  0  0  0
 10 15  1  0  0  0  0
 11  1  1  0  0  0  0
 12  4  1  0  0  0  0
 13  7  1  0  0  0  0
M  END
