2
 OpenBabel05122313063D

 11 11  0  0  0  0  0  0  0  0999 V2000
   -6.9708   -1.4148   -0.3893 Cl  0  0  0  0  0  0  0  0  0  0  0  0
   -1.2487   -2.3038   -0.8246 N   0  0  0  0  0  2  0  0  0  0  0  0
   -1.0151   -3.2373   -1.1702 H   0  0  0  0  0  0  0  0  0  0  0  0
   -3.4190   -3.1331   -1.0830 N   0  0  0  0  0  0  0  0  0  0  0  0
   -3.0066   -0.8914   -0.2627 N   0  0  0  0  0  0  0  0  0  0  0  0
   -2.5812   -2.1119   -0.7242 C   0  0  0  0  0  0  0  0  0  0  0  0
   -4.7267   -2.9121   -0.9779 C   0  0  0  0  0  0  0  0  0  0  0  0
   -5.4111   -3.7319   -1.2656 H   0  0  0  0  0  0  0  0  0  0  0  0
   -5.2512   -1.6888   -0.5195 C   0  0  0  0  0  0  0  0  0  0  0  0
   -4.3175   -0.6966   -0.1683 C   0  0  0  0  0  0  0  0  0  0  0  0
   -4.6595    0.2874    0.2019 H   0  0  0  0  0  0  0  0  0  0  0  0
  2  6  1  0  0  0  0
  3  2  1  0  0  0  0
  4  7  2  0  0  0  0
  4  6  1  0  0  0  0
  5 10  1  0  0  0  0
  6  5  2  0  0  0  0
  7  9  1  0  0  0  0
  8  7  1  0  0  0  0
  9  1  1  0  0  0  0
  9 10  2  0  0  0  0
 10 11  1  0  0  0  0
M  END
