2
 OpenBabel05122313063D

 12 12  0  0  0  0  0  0  0  0999 V2000
   -7.2391   -1.6578    0.0061 Cl  0  0  0  0  0  0  0  0  0  0  0  0
   -1.3827   -2.2850    0.0109 N   0  0  0  0  0  2  0  0  0  0  0  0
   -3.5314   -3.1864    0.0139 N   0  0  0  0  0  0  0  0  0  0  0  0
   -2.7328   -2.0849    0.0096 C   0  0  0  0  0  0  0  0  0  0  0  0
   -4.8586   -3.0329    0.0128 C   0  0  0  0  0  0  0  0  0  0  0  0
   -5.4912   -1.7795    0.0073 C   0  0  0  0  0  0  0  0  0  0  0  0
   -4.6850   -0.6242    0.0028 C   0  0  0  0  0  0  0  0  0  0  0  0
   -3.3029   -0.7703    0.0039 C   0  0  0  0  0  0  0  0  0  0  0  0
   -1.1617   -3.2852    0.0150 H   0  0  0  0  0  0  0  0  0  0  0  0
   -5.4747   -3.9508    0.0164 H   0  0  0  0  0  0  0  0  0  0  0  0
   -5.1463    0.3747   -0.0016 H   0  0  0  0  0  0  0  0  0  0  0  0
   -2.6492    0.1150    0.0005 H   0  0  0  0  0  0  0  0  0  0  0  0
  1  6  1  0  0  0  0
  2  9  1  0  0  0  0
  4  2  1  0  0  0  0
  4  3  2  0  0  0  0
  5  3  1  0  0  0  0
  5 10  1  0  0  0  0
  6  5  2  0  0  0  0
  7  8  2  0  0  0  0
  7  6  1  0  0  0  0
  8  4  1  0  0  0  0
 11  7  1  0  0  0  0
 12  8  1  0  0  0  0
M  END
