25
 OpenBabel05122313063D

 29 31  0  0  0  0  0  0  0  0999 V2000
   -3.2471   -2.4891   -0.1460 C   0  0  0  0  0  0  0  0  0  0  0  0
   -1.9023   -2.9253   -0.1006 C   0  0  0  0  0  0  0  0  0  0  0  0
   -1.0693   -2.2038   -0.1138 H   0  0  0  0  0  0  0  0  0  0  0  0
   -1.6023   -4.2880    0.0199 C   0  0  0  0  0  0  0  0  0  0  0  0
   -0.5466   -4.5957    0.0582 H   0  0  0  0  0  0  0  0  0  0  0  0
   -2.6307   -5.2386    0.0964 C   0  0  0  0  0  0  0  0  0  0  0  0
   -2.3914   -6.3091    0.1862 H   0  0  0  0  0  0  0  0  0  0  0  0
   -3.9708   -4.8154    0.0637 C   0  0  0  0  0  0  0  0  0  0  0  0
   -4.7846   -5.5535    0.1272 H   0  0  0  0  0  0  0  0  0  0  0  0
   -4.2794   -3.4564   -0.0511 C   0  0  0  0  0  0  0  0  0  0  0  0
   -5.3275   -3.1289   -0.0756 H   0  0  0  0  0  0  0  0  0  0  0  0
   -3.6117   -1.0681   -0.2854 C   0  0  0  0  0  0  0  0  0  0  0  0
   -2.8924   -0.0431   -0.8631 C   0  0  0  0  0  0  0  0  0  0  0  0
   -3.4361    1.3127   -1.0213 C   0  0  0  0  0  0  0  0  0  0  0  0
   -4.7564    1.5231   -0.4203 C   0  0  0  0  0  0  0  0  0  0  0  0
   -5.4210    0.4267    0.1677 C   0  0  0  0  0  0  0  0  0  0  0  0
   -5.3907    2.7844   -0.4281 C   0  0  0  0  0  0  0  0  0  0  0  0
   -4.8500    3.6194   -0.8971 H   0  0  0  0  0  0  0  0  0  0  0  0
   -6.6514    2.9393    0.1458 C   0  0  0  0  0  0  0  0  0  0  0  0
   -7.1435    3.9230    0.1447 H   0  0  0  0  0  0  0  0  0  0  0  0
   -7.3005    1.8292    0.7327 C   0  0  0  0  0  0  0  0  0  0  0  0
   -8.2953    1.9533    1.1865 H   0  0  0  0  0  0  0  0  0  0  0  0
   -6.6952    0.5712    0.7466 C   0  0  0  0  0  0  0  0  0  0  0  0
   -7.1809   -0.3052    1.1983 H   0  0  0  0  0  0  0  0  0  0  0  0
   -1.5614   -0.1294   -1.3755 N   0  0  0  0  0  0  0  0  0  0  0  0
   -1.3549   -0.9685   -1.9458 H   0  0  0  0  0  0  0  0  0  0  0  0
   -1.4702    0.7314   -1.9639 H   0  0  0  0  0  0  0  0  0  0  0  0
   -4.8662   -0.8201    0.1949 O   0  0  0  0  0  0  0  0  0  0  0  0
   -2.8012    2.1735   -1.6531 O   0  0  0  0  0  0  0  0  0  0  0  0
  1  2  2  0  0  0  0
  1 10  1  0  0  0  0
  2  4  1  0  0  0  0
  3  2  1  0  0  0  0
  4  5  1  0  0  0  0
  4  6  2  0  0  0  0
  6  7  1  0  0  0  0
  8  6  1  0  0  0  0
  8  9  1  0  0  0  0
 10  8  2  0  0  0  0
 11 10  1  0  0  0  0
 12  1  1  0  0  0  0
 12 28  1  0  0  0  0
 13 12  2  0  0  0  0
 14 13  1  0  0  0  0
 14 15  1  0  0  0  0
 15 16  1  0  0  0  0
 16 28  1  0  0  0  0
 16 23  2  0  0  0  0
 17 15  2  0  0  0  0
 17 19  1  0  0  0  0
 18 17  1  0  0  0  0
 19 21  2  0  0  0  0
 20 19  1  0  0  0  0
 21 23  1  0  0  0  0
 21 22  1  0  0  0  0
 23 24  1  0  0  0  0
 25 13  1  0  0  0  0
 26 25  1  0  0  0  0
 27 25  1  0  0  0  0
 29 14  2  0  0  0  0
M  END
