3
 OpenBabel05122313063D

 14 15  0  0  0  0  0  0  0  0999 V2000
   -2.2785    2.2223   -0.0467 S   0  0  0  0  0  0  0  0  0  0  0  0
    0.9041    2.2788   -0.0248 S   0  0  0  0  0  0  0  0  0  0  0  0
   -0.6053    0.2219    0.0247 N   0  0  0  0  0  0  0  0  0  0  0  0
   -0.6385    1.5514   -0.0150 C   0  0  0  0  0  0  0  0  0  0  0  0
   -1.8519   -0.3730    0.0312 C   0  0  0  0  0  0  0  0  0  0  0  0
   -2.1425   -1.7495    0.0705 C   0  0  0  0  0  0  0  0  0  0  0  0
   -3.4826   -2.1553    0.0620 C   0  0  0  0  0  0  0  0  0  0  0  0
   -4.5287   -1.2107    0.0150 C   0  0  0  0  0  0  0  0  0  0  0  0
   -4.2559    0.1653   -0.0214 C   0  0  0  0  0  0  0  0  0  0  0  0
   -2.9161    0.5777   -0.0126 C   0  0  0  0  0  3  0  0  0  0  0  0
   -1.3212   -2.4775    0.1210 H   0  0  0  0  0  0  0  0  0  0  0  0
   -3.7219   -3.2285    0.0970 H   0  0  0  0  0  0  0  0  0  0  0  0
   -5.5740   -1.5529    0.0103 H   0  0  0  0  0  0  0  0  0  0  0  0
   -5.0721    0.9013   -0.0548 H   0  0  0  0  0  0  0  0  0  0  0  0
  1  4  1  0  0  0  0
  1 10  1  0  0  0  0
  2  4  2  0  0  0  0
  3  5  2  0  0  0  0
  4  3  1  0  0  0  0
  5  6  1  0  0  0  0
  6 11  1  0  0  0  0
  7  6  2  0  0  0  0
  7 12  1  0  0  0  0
  8  7  1  0  0  0  0
  9 10  1  0  0  0  0
  9  8  2  0  0  0  0
 10  5  1  0  0  0  0
 13  8  1  0  0  0  0
 14  9  1  0  0  0  0
M  END
