1
 OpenBabel05122313063D

 41 43  0  0  0  0  0  0  0  0999 V2000
   -0.1451    1.0374   -0.6461 N   0  0  0  0  0  0  0  0  0  0  0  0
    0.9436    1.9132   -0.7341 C   0  0  0  0  0  0  0  0  0  0  0  0
    0.4660    3.2349   -0.7076 C   0  0  0  0  0  0  0  0  0  0  0  0
   -0.9485    3.1653   -0.6242 C   0  0  0  0  0  0  0  0  0  0  0  0
   -1.3055    1.8047   -0.5943 C   0  0  0  0  0  3  0  0  0  0  0  0
   -2.6256    1.1603   -0.6432 C   0  0  0  0  0  0  0  0  0  0  0  0
   -2.7802    0.0006   -1.4440 C   0  0  0  0  0  0  0  0  0  0  0  0
   -4.0002   -0.6696   -1.5495 C   0  0  0  0  0  0  0  0  0  0  0  0
   -5.1341   -0.2063   -0.8505 C   0  0  0  0  0  0  0  0  0  0  0  0
   -6.4494   -0.9392   -0.9308 C   0  0  0  0  0  0  0  0  0  0  0  0
   -4.9816    0.9442   -0.0566 C   0  0  0  0  0  0  0  0  0  0  0  0
   -3.7625    1.6412    0.0662 C   0  0  0  0  0  0  0  0  0  0  0  0
   -3.6955    2.8590    0.9530 C   0  0  0  0  0  0  0  0  0  0  0  0
    2.2861    1.3365   -0.8631 C   0  0  0  0  0  0  0  0  0  0  0  0
    3.4603    1.9012   -0.2781 C   0  0  0  0  0  0  0  0  0  0  0  0
    3.4359    3.2356    0.4196 C   0  0  0  0  0  0  0  0  0  0  0  0
    4.6607    1.1728   -0.3434 C   0  0  0  0  0  0  0  0  0  0  0  0
    4.7742   -0.0866   -0.9686 C   0  0  0  0  0  0  0  0  0  0  0  0
    6.0735   -0.8502   -0.9437 C   0  0  0  0  0  0  0  0  0  0  0  0
    3.6249   -0.6064   -1.5902 C   0  0  0  0  0  0  0  0  0  0  0  0
    2.4162    0.0986   -1.5475 C   0  0  0  0  0  0  0  0  0  0  0  0
    1.0648    4.1458   -0.8112 H   0  0  0  0  0  0  0  0  0  0  0  0
   -1.6413    4.0132   -0.6545 H   0  0  0  0  0  0  0  0  0  0  0  0
   -1.9122   -0.3534   -2.0219 H   0  0  0  0  0  0  0  0  0  0  0  0
   -4.0790   -1.5628   -2.1899 H   0  0  0  0  0  0  0  0  0  0  0  0
   -6.7115   -1.1927   -1.9786 H   0  0  0  0  0  0  0  0  0  0  0  0
   -7.2788   -0.3409   -0.5058 H   0  0  0  0  0  0  0  0  0  0  0  0
   -6.4102   -1.8985   -0.3704 H   0  0  0  0  0  0  0  0  0  0  0  0
   -5.8534    1.3172    0.5067 H   0  0  0  0  0  0  0  0  0  0  0  0
   -2.7326    2.9127    1.4993 H   0  0  0  0  0  0  0  0  0  0  0  0
   -4.5252    2.8614    1.6869 H   0  0  0  0  0  0  0  0  0  0  0  0
   -3.7760    3.7991    0.3666 H   0  0  0  0  0  0  0  0  0  0  0  0
    4.3448    3.3811    1.0350 H   0  0  0  0  0  0  0  0  0  0  0  0
    2.5421    3.3398    1.0672 H   0  0  0  0  0  0  0  0  0  0  0  0
    3.3917    4.0732   -0.3088 H   0  0  0  0  0  0  0  0  0  0  0  0
    5.5554    1.6062    0.1346 H   0  0  0  0  0  0  0  0  0  0  0  0
    6.1201   -1.6044   -1.7537 H   0  0  0  0  0  0  0  0  0  0  0  0
    6.1972   -1.3943    0.0184 H   0  0  0  0  0  0  0  0  0  0  0  0
    6.9486   -0.1777   -1.0477 H   0  0  0  0  0  0  0  0  0  0  0  0
    3.6754   -1.5673   -2.1269 H   0  0  0  0  0  0  0  0  0  0  0  0
    1.5467   -0.2858   -2.1034 H   0  0  0  0  0  0  0  0  0  0  0  0
  1  5  1  0  0  0  0
  2  3  1  0  0  0  0
  2  1  2  0  0  0  0
  3  4  2  0  0  0  0
  4  5  1  0  0  0  0
  6  5  1  0  0  0  0
  6 12  1  0  0  0  0
  7  6  2  0  0  0  0
  8  7  1  0  0  0  0
  8  9  2  0  0  0  0
  9 11  1  0  0  0  0
 10  9  1  0  0  0  0
 10 27  1  0  0  0  0
 10 28  1  0  0  0  0
 11 12  2  0  0  0  0
 11 29  1  0  0  0  0
 12 13  1  0  0  0  0
 13 30  1  0  0  0  0
 13 31  1  0  0  0  0
 14  2  1  0  0  0  0
 14 15  1  0  0  0  0
 15 16  1  0  0  0  0
 16 33  1  0  0  0  0
 16 34  1  0  0  0  0
 17 15  2  0  0  0  0
 17 36  1  0  0  0  0
 18 19  1  0  0  0  0
 18 17  1  0  0  0  0
 19 38  1  0  0  0  0
 20 21  1  0  0  0  0
 20 18  2  0  0  0  0
 21 14  2  0  0  0  0
 22  3  1  0  0  0  0
 23  4  1  0  0  0  0
 24  7  1  0  0  0  0
 25  8  1  0  0  0  0
 26 10  1  0  0  0  0
 32 13  1  0  0  0  0
 35 16  1  0  0  0  0
 37 19  1  0  0  0  0
 39 19  1  0  0  0  0
 40 20  1  0  0  0  0
 41 21  1  0  0  0  0
M  END
