3
 OpenBabel05122313063D

 29 31  0  0  0  0  0  0  0  0999 V2000
   -7.4496   -2.1019    0.5436 S   0  0  0  0  0  0  0  0  0  0  0  0
   -5.4316   -0.4099    0.1403 O   0  0  0  0  0  0  0  0  0  0  0  0
   -1.5758    2.8872   -0.3010 N   0  0  0  0  0  2  0  0  0  0  0  0
   -5.0513   -0.5035   -2.0509 N   0  0  0  0  0  0  0  0  0  0  0  0
   -6.0899   -1.3603   -1.7687 N   0  0  0  0  0  0  0  0  0  0  0  0
   -9.5063   -3.7938    1.0981 N   0  0  0  0  0  0  0  0  0  0  0  0
   -1.8476    2.4185   -1.5408 C   0  0  0  0  0  3  0  0  0  0  0  0
   -1.2297    2.8129   -2.3644 H   0  0  0  0  0  0  0  0  0  0  0  0
   -2.8559    1.4865   -1.7807 C   0  0  0  0  0  0  0  0  0  0  0  0
   -3.0589    1.1205   -2.7965 H   0  0  0  0  0  0  0  0  0  0  0  0
   -3.6234    1.0156   -0.6916 C   0  0  0  0  0  0  0  0  0  0  0  0
   -3.3338    1.5123    0.5973 C   0  0  0  0  0  0  0  0  0  0  0  0
   -3.9050    1.1769    1.4735 H   0  0  0  0  0  0  0  0  0  0  0  0
   -2.3047    2.4444    0.7459 C   0  0  0  0  0  0  0  0  0  0  0  0
   -2.0508    2.8556    1.7371 H   0  0  0  0  0  0  0  0  0  0  0  0
   -4.6786    0.0448   -0.9189 C   0  0  0  0  0  0  0  0  0  0  0  0
   -6.2913   -1.2822   -0.4642 C   0  0  0  0  0  0  0  0  0  0  0  0
   -8.2354   -3.0453   -0.8233 C   0  0  0  0  0  0  0  0  0  0  0  0
   -8.6181   -2.3315   -1.5814 H   0  0  0  0  0  0  0  0  0  0  0  0
   -7.4625   -3.6587   -1.3302 H   0  0  0  0  0  0  0  0  0  0  0  0
   -9.3345   -3.8899   -0.2302 C   0  0  0  0  0  0  0  0  0  0  0  0
  -10.1279   -4.7277   -1.0393 C   0  0  0  0  0  0  0  0  0  0  0  0
   -9.9579   -4.7802   -2.1253 H   0  0  0  0  0  0  0  0  0  0  0  0
  -11.1327   -5.4866   -0.4272 C   0  0  0  0  0  0  0  0  0  0  0  0
  -11.7711   -6.1513   -1.0288 H   0  0  0  0  0  0  0  0  0  0  0  0
  -11.3126   -5.3864    0.9617 C   0  0  0  0  0  0  0  0  0  0  0  0
  -12.0906   -5.9655    1.4801 H   0  0  0  0  0  0  0  0  0  0  0  0
  -10.4715   -4.5240    1.6791 C   0  0  0  0  0  0  0  0  0  0  0  0
  -10.5771   -4.4134    2.7724 H   0  0  0  0  0  0  0  0  0  0  0  0
  3 14  1  0  0  0  0
  4  5  1  0  0  0  0
  4 16  2  0  0  0  0
  5 17  2  0  0  0  0
  6 28  1  0  0  0  0
  7  3  1  0  0  0  0
  8  7  1  0  0  0  0
  9  7  1  0  0  0  0
  9 11  2  0  0  0  0
 10  9  1  0  0  0  0
 11 12  1  0  0  0  0
 12 14  2  0  0  0  0
 12 13  1  0  0  0  0
 14 15  1  0  0  0  0
 16 11  1  0  0  0  0
 16  2  1  0  0  0  0
 17  2  1  0  0  0  0
 17  1  1  0  0  0  0
 18 21  1  0  0  0  0
 18  1  1  0  0  0  0
 19 18  1  0  0  0  0
 20 18  1  0  0  0  0
 21  6  2  0  0  0  0
 22 24  2  0  0  0  0
 22 21  1  0  0  0  0
 23 22  1  0  0  0  0
 24 26  1  0  0  0  0
 25 24  1  0  0  0  0
 26 27  1  0  0  0  0
 26 28  2  0  0  0  0
 28 29  1  0  0  0  0
M  END
