5
 OpenBabel05122313063D

  7  6  0  0  0  0  0  0  0  0999 V2000
    1.1074    3.3440   -0.2589 O   0  0  0  0  0  0  0  0  0  0  0  0
   -0.3167    2.0104   -1.2602 O   0  0  0  0  0  0  0  0  0  0  0  0
    2.7266    1.6846    0.9677 O   0  0  0  0  0  0  0  0  0  0  0  0
    1.5723    0.4438    2.3579 O   0  0  0  0  0  0  0  0  0  0  0  0
    0.4624    1.3640    0.6996 N   0  0  0  0  0  0  0  0  0  0  0  0
    0.4665    2.3060   -0.3203 N   0  0  0  0  0  0  0  0  0  0  0  0
    1.6728    1.2059    1.3846 N   0  0  0  0  0  0  0  0  0  0  0  0
  2  6  2  0  0  0  0
  3  7  2  0  0  0  0
  5  7  1  0  0  0  0
  6  1  2  0  0  0  0
  6  5  1  0  0  0  0
  7  4  2  0  0  0  0
M  END
