2
 OpenBabel05122313063D

 25 24  0  0  0  0  0  0  0  0999 V2000
   -3.5702    0.1437   -0.3401 N   0  3  0  0  0  0  0  0  0  0  0  0
   -1.8113   -0.2176    1.6867 N   0  0  0  0  0  0  0  0  0  0  0  0
   -2.6943   -0.8456   -1.2233 B   0  0  0  0  0  0  0  0  0  0  0  0
   -3.2914    1.5778    1.4690 H   0  0  0  0  0  0  0  0  0  0  0  0
   -1.7721    1.3881    0.1560 H   0  0  0  0  0  0  0  0  0  0  0  0
   -2.6418    0.7635    0.8041 B   0  0  0  0  0  0  0  0  0  0  0  0
   -2.2183   -1.7191   -0.4887 H   0  0  0  0  0  0  0  0  0  0  0  0
   -1.7770   -0.1665   -1.7350 H   0  0  0  0  0  0  0  0  0  0  0  0
   -3.3439   -1.3567   -2.1292 H   0  0  0  0  0  0  0  0  0  0  0  0
   -4.0042    1.2847   -1.1904 C   0  0  0  0  0  0  0  0  0  0  0  0
   -4.6110    0.9045   -2.0357 H   0  0  0  0  0  0  0  0  0  0  0  0
   -3.1136    1.8036   -1.5877 H   0  0  0  0  0  0  0  0  0  0  0  0
   -4.6006    2.0005   -0.5901 H   0  0  0  0  0  0  0  0  0  0  0  0
   -4.7898   -0.5282    0.1716 C   0  0  0  0  0  0  0  0  0  0  0  0
   -5.3473    0.1599    0.8384 H   0  0  0  0  0  0  0  0  0  0  0  0
   -4.5209   -1.4363    0.7343 H   0  0  0  0  0  0  0  0  0  0  0  0
   -5.4341   -0.8260   -0.6793 H   0  0  0  0  0  0  0  0  0  0  0  0
   -2.4646   -1.3666    2.3187 C   0  0  0  0  0  0  0  0  0  0  0  0
   -1.7386   -1.9048    2.9596 H   0  0  0  0  0  0  0  0  0  0  0  0
   -2.8200   -2.0848    1.5581 H   0  0  0  0  0  0  0  0  0  0  0  0
   -3.3250   -1.0478    2.9530 H   0  0  0  0  0  0  0  0  0  0  0  0
   -1.1467    0.5918    2.7289 C   0  0  0  0  0  0  0  0  0  0  0  0
   -1.8828    0.9493    3.4855 H   0  0  0  0  0  0  0  0  0  0  0  0
   -0.6650    1.4747    2.2690 H   0  0  0  0  0  0  0  0  0  0  0  0
   -0.3661   -0.0066    3.2414 H   0  0  0  0  0  0  0  0  0  0  0  0
  1 14  1  0  0  0  0
  1  6  1  0  0  0  0
  2 18  1  0  0  0  0
  2 22  1  0  0  0  0
  3  7  1  0  0  0  0
  3  1  1  0  0  0  0
  5  6  1  0  0  0  0
  6  4  1  0  0  0  0
  6  2  1  0  0  0  0
  8  3  1  0  0  0  0
  9  3  1  0  0  0  0
 10 13  1  0  0  0  0
 10  1  1  0  0  0  0
 11 10  1  0  0  0  0
 12 10  1  0  0  0  0
 14 16  1  0  0  0  0
 14 15  1  0  0  0  0
 17 14  1  0  0  0  0
 18 21  1  0  0  0  0
 18 19  1  0  0  0  0
 20 18  1  0  0  0  0
 22 25  1  0  0  0  0
 22 23  1  0  0  0  0
 24 22  1  0  0  0  0
M  CHG  1   1   1
M  END
