3
 OpenBabel05122313063D

 52 56  0  0  1  0  0  0  0  0999 V2000
    1.2755   -0.1334    0.0477 P   0  0  0  0  0  0  0  0  0  0  0  0
   -1.5745    3.3035   -0.3255 O   0  0  0  0  0  0  0  0  0  0  0  0
   -1.2831    1.1667   -0.9457 N   0  0  0  0  0  2  0  0  0  0  0  0
   -2.7563    1.3384   -0.9530 C   0  0  2  0  0  0  0  0  0  0  0  0
   -2.9294    2.7877   -0.4212 C   0  0  0  0  0  0  0  0  0  0  0  0
   -0.7301    2.2928   -0.5863 C   0  0  1  0  0  3  0  0  0  0  0  0
    0.7049    2.6133   -0.4657 C   0  0  0  0  0  0  0  0  0  0  0  0
    1.0738    3.9713   -0.5841 C   0  0  0  0  0  0  0  0  0  0  0  0
    2.4165    4.3596   -0.4980 C   0  0  0  0  0  0  0  0  0  0  0  0
    3.4079    3.3947   -0.2748 C   0  0  0  0  0  0  0  0  0  0  0  0
    3.0527    2.0440   -0.1287 C   0  0  0  0  0  0  0  0  0  0  0  0
    1.7105    1.6351   -0.2212 C   0  0  0  0  0  0  0  0  0  0  0  0
    2.8599   -1.0361   -0.0410 C   0  0  0  0  0  0  0  0  0  0  0  0
    3.3903   -1.3275   -1.3161 C   0  0  0  0  0  0  0  0  0  0  0  0
    4.6172   -1.9947   -1.4273 C   0  0  0  0  0  0  0  0  0  0  0  0
    5.3124   -2.3857   -0.2699 C   0  0  0  0  0  0  0  0  0  0  0  0
    4.7830   -2.1025    0.9988 C   0  0  0  0  0  0  0  0  0  0  0  0
    3.5595   -1.4249    1.1192 C   0  0  0  0  0  0  0  0  0  0  0  0
    0.7279   -0.2194    1.7940 C   0  0  0  0  0  0  0  0  0  0  0  0
    0.8088    0.8826    2.6683 C   0  0  0  0  0  0  0  0  0  0  0  0
    0.3360    0.7647    3.9855 C   0  0  0  0  0  0  0  0  0  0  0  0
   -0.2037   -0.4496    4.4372 C   0  0  0  0  0  0  0  0  0  0  0  0
   -0.2768   -1.5527    3.5687 C   0  0  0  0  0  0  0  0  0  0  0  0
    0.1756   -1.4374    2.2480 C   0  0  0  0  0  0  0  0  0  0  0  0
   -3.4655    0.2779   -0.1357 C   0  0  0  0  0  0  0  0  0  0  0  0
   -4.6264   -0.3415   -0.6338 C   0  0  0  0  0  0  0  0  0  0  0  0
   -5.2939   -1.3164    0.1243 C   0  0  0  0  0  0  0  0  0  0  0  0
   -4.8013   -1.6822    1.3866 C   0  0  0  0  0  0  0  0  0  0  0  0
   -3.6446   -1.0648    1.8909 C   0  0  0  0  0  0  0  0  0  0  0  0
   -2.9808   -0.0869    1.1364 C   0  0  0  0  0  0  0  0  0  0  0  0
   -3.0956    1.2588   -2.0076 H   0  0  0  0  0  0  0  0  0  0  0  0
   -3.5035    3.4480   -1.0975 H   0  0  0  0  0  0  0  0  0  0  0  0
   -3.3747    2.8191    0.5931 H   0  0  0  0  0  0  0  0  0  0  0  0
    0.2896    4.7209   -0.7564 H   0  0  0  0  0  0  0  0  0  0  0  0
    2.6861    5.4202   -0.6066 H   0  0  0  0  0  0  0  0  0  0  0  0
    4.4653    3.6898   -0.2052 H   0  0  0  0  0  0  0  0  0  0  0  0
    3.8327    1.2935    0.0651 H   0  0  0  0  0  0  0  0  0  0  0  0
    2.8407   -1.0258   -2.2218 H   0  0  0  0  0  0  0  0  0  0  0  0
    5.0310   -2.2174   -2.4220 H   0  0  0  0  0  0  0  0  0  0  0  0
    6.2714   -2.9174   -0.3590 H   0  0  0  0  0  0  0  0  0  0  0  0
    5.3261   -2.4098    1.9048 H   0  0  0  0  0  0  0  0  0  0  0  0
    3.1481   -1.2007    2.1147 H   0  0  0  0  0  0  0  0  0  0  0  0
    1.2418    1.8336    2.3246 H   0  0  0  0  0  0  0  0  0  0  0  0
    0.3973    1.6281    4.6647 H   0  0  0  0  0  0  0  0  0  0  0  0
   -0.5684   -0.5383    5.4714 H   0  0  0  0  0  0  0  0  0  0  0  0
   -0.6973   -2.5067    3.9204 H   0  0  0  0  0  0  0  0  0  0  0  0
    0.0938   -2.2940    1.5608 H   0  0  0  0  0  0  0  0  0  0  0  0
   -5.0140   -0.0572   -1.6255 H   0  0  0  0  0  0  0  0  0  0  0  0
   -6.2023   -1.7926   -0.2739 H   0  0  0  0  0  0  0  0  0  0  0  0
   -5.3222   -2.4480    1.9805 H   0  0  0  0  0  0  0  0  0  0  0  0
   -3.2517   -1.3449    2.8796 H   0  0  0  0  0  0  0  0  0  0  0  0
   -2.0707    0.3837    1.5392 H   0  0  0  0  0  0  0  0  0  0  0  0
  1 19  1  0  0  0  0
  3  6  1  0  0  0  0
  4 31  1  6  0  0  0
  4  3  1  0  0  0  0
  4  5  1  0  0  0  0
  4 25  1  0  0  0  0
  5  2  1  0  0  0  0
  5 33  1  0  0  0  0
  6  7  1  6  0  0  0
  6  2  1  0  0  0  0
  7 12  1  0  0  0  0
  8  9  1  0  0  0  0
  8  7  2  0  0  0  0
  9 10  2  0  0  0  0
 10 36  1  0  0  0  0
 10 11  1  0  0  0  0
 11 37  1  0  0  0  0
 12 11  2  0  0  0  0
 12  1  1  0  0  0  0
 13  1  1  0  0  0  0
 13 18  1  0  0  0  0
 14 13  2  0  0  0  0
 15 14  1  0  0  0  0
 15 16  2  0  0  0  0
 16 17  1  0  0  0  0
 17 18  2  0  0  0  0
 17 41  1  0  0  0  0
 18 42  1  0  0  0  0
 19 24  2  0  0  0  0
 19 20  1  0  0  0  0
 20 21  2  0  0  0  0
 21 22  1  0  0  0  0
 21 44  1  0  0  0  0
 22 45  1  0  0  0  0
 23 46  1  0  0  0  0
 23 22  2  0  0  0  0
 24 23  1  0  0  0  0
 25 30  1  0  0  0  0
 26 25  2  0  0  0  0
 26 27  1  0  0  0  0
 27 28  2  0  0  0  0
 28 29  1  0  0  0  0
 28 50  1  0  0  0  0
 29 51  1  0  0  0  0
 30 52  1  0  0  0  0
 30 29  2  0  0  0  0
 32  5  1  0  0  0  0
 34  8  1  0  0  0  0
 35  9  1  0  0  0  0
 38 14  1  0  0  0  0
 39 15  1  0  0  0  0
 40 16  1  0  0  0  0
 43 20  1  0  0  0  0
 47 24  1  0  0  0  0
 48 26  1  0  0  0  0
 49 27  1  0  0  0  0
M  END
