2
 OpenBabel05122313063D

 20 21  0  0  1  0  0  0  0  0999 V2000
    1.8011    2.4351   -0.3615 O   0  0  0  0  0  0  0  0  0  0  0  0
    0.3967    0.7197   -0.2261 N   0  0  0  0  0  2  0  0  0  0  0  0
    0.5149    2.0347   -0.3987 C   0  0  1  0  0  3  0  0  0  0  0  0
    2.1810   -1.0821    0.2151 C   0  0  0  0  0  0  0  0  0  0  0  0
    3.5737   -1.2394    0.3480 C   0  0  0  0  0  0  0  0  0  0  0  0
    4.4269   -0.1056    0.2245 C   0  0  0  0  0  0  0  0  0  0  0  0
    3.9481    1.1893   -0.0148 C   0  0  0  0  0  0  0  0  0  0  0  0
    2.5646    1.3052   -0.1393 C   0  0  0  0  0  0  0  0  0  0  0  0
    1.6920    0.2090   -0.0400 C   0  0  0  0  0  0  0  0  0  0  0  0
   -0.5538    3.0392   -0.5823 C   0  0  0  0  0  0  0  0  0  0  0  0
    4.1734   -2.5900    0.6425 C   0  0  0  0  0  0  0  0  0  0  0  0
    1.4971   -1.9337    0.3468 H   0  0  0  0  0  0  0  0  0  0  0  0
    5.5120   -0.2529    0.3343 H   0  0  0  0  0  0  0  0  0  0  0  0
    4.6159    2.0576   -0.0935 H   0  0  0  0  0  0  0  0  0  0  0  0
   -1.2629    2.7144   -1.3685 H   0  0  0  0  0  0  0  0  0  0  0  0
   -1.1359    3.1310    0.3585 H   0  0  0  0  0  0  0  0  0  0  0  0
   -0.1145    4.0165   -0.8485 H   0  0  0  0  0  0  0  0  0  0  0  0
    3.4064   -3.3866    0.6704 H   0  0  0  0  0  0  0  0  0  0  0  0
    4.9312   -2.8664   -0.1188 H   0  0  0  0  0  0  0  0  0  0  0  0
    4.6928   -2.5858    1.6230 H   0  0  0  0  0  0  0  0  0  0  0  0
  1  8  1  0  0  0  0
  2  9  1  0  0  0  0
  3 10  1  1  0  0  0
  3  1  1  0  0  0  0
  3  2  1  0  0  0  0
  4 12  1  0  0  0  0
  4  5  1  0  0  0  0
  5 11  1  0  0  0  0
  6 13  1  0  0  0  0
  6  5  2  0  0  0  0
  7  6  1  0  0  0  0
  8  9  1  0  0  0  0
  8  7  2  0  0  0  0
  9  4  2  0  0  0  0
 10 16  1  0  0  0  0
 11 18  1  0  0  0  0
 11 20  1  0  0  0  0
 14  7  1  0  0  0  0
 15 10  1  0  0  0  0
 17 10  1  0  0  0  0
 19 11  1  0  0  0  0
M  END
