3
 OpenBabel05122313063D

 56 61  0  0  0  0  0  0  0  0999 V2000
   -1.0344   -0.9385    0.1534 P   0  0  0  0  0  0  0  0  0  0  0  0
    0.2810   -3.1878   -1.0520 N   0  0  0  0  0  0  0  0  0  0  0  0
    1.6698    0.8322    0.2439 N   0  0  0  0  0  2  0  0  0  0  0  0
    0.3635   -1.9686   -0.3876 C   0  0  0  0  0  0  0  0  0  0  0  0
    1.7053   -1.5350   -0.3738 C   0  0  0  0  0  0  0  0  0  0  0  0
    2.4600   -2.5067   -1.1334 C   0  0  0  0  0  0  0  0  0  0  0  0
    1.5365   -3.5190   -1.5406 C   0  0  0  0  0  0  0  0  0  0  0  0
    1.9305   -4.6263   -2.3168 C   0  0  0  0  0  0  0  0  0  0  0  0
    3.2717   -4.6962   -2.7000 C   0  0  0  0  0  0  0  0  0  0  0  0
    4.1988   -3.6889   -2.3291 C   0  0  0  0  0  0  0  0  0  0  0  0
    3.8092   -2.5980   -1.5522 C   0  0  0  0  0  0  0  0  0  0  0  0
    2.2613   -0.3772    0.3449 C   0  0  0  0  0  0  0  0  0  0  0  0
    2.2443    1.9305    0.8247 C   0  0  0  0  0  0  0  0  0  0  0  0
    3.4304    1.8795    1.5252 C   0  0  0  0  0  0  0  0  0  0  0  0
    4.0560    0.6234    1.7429 C   0  0  0  0  0  0  0  0  0  0  0  0
    5.2325    0.4838    2.5328 C   0  0  0  0  0  0  0  0  0  0  0  0
    5.7546   -0.7725    2.7977 C   0  0  0  0  0  0  0  0  0  0  0  0
    5.1062   -1.9332    2.2986 C   0  0  0  0  0  0  0  0  0  0  0  0
    3.9746   -1.8255    1.5039 C   0  0  0  0  0  3  0  0  0  0  0  0
    3.4355   -0.5460    1.1728 C   0  0  0  0  0  0  0  0  0  0  0  0
   -2.4482   -1.4635   -0.8910 C   0  0  0  0  0  0  0  0  0  0  0  0
   -3.6243   -2.0210   -0.3567 C   0  0  0  0  0  0  0  0  0  0  0  0
   -4.6766   -2.3849   -1.2125 C   0  0  0  0  0  0  0  0  0  0  0  0
   -4.5624   -2.1936   -2.5977 C   0  0  0  0  0  0  0  0  0  0  0  0
   -3.3896   -1.6304   -3.1331 C   0  0  0  0  0  0  0  0  0  0  0  0
   -2.3387   -1.2590   -2.2837 C   0  0  0  0  0  0  0  0  0  0  0  0
   -1.4341   -1.4152    1.8679 C   0  0  0  0  0  0  0  0  0  0  0  0
   -0.7459   -2.4571    2.5215 C   0  0  0  0  0  0  0  0  0  0  0  0
   -1.0700   -2.7807    3.8478 C   0  0  0  0  0  0  0  0  0  0  0  0
   -2.0758   -2.0702    4.5223 C   0  0  0  0  0  0  0  0  0  0  0  0
   -2.7564   -1.0265    3.8727 C   0  0  0  0  0  0  0  0  0  0  0  0
   -2.4351   -0.6897    2.5509 C   0  0  0  0  0  0  0  0  0  0  0  0
   -0.8673   -4.0758   -1.1386 C   0  0  0  0  0  0  0  0  0  0  0  0
    1.2127   -5.3973   -2.6302 H   0  0  0  0  0  0  0  0  0  0  0  0
    3.6124   -5.5433   -3.3134 H   0  0  0  0  0  0  0  0  0  0  0  0
    5.2428   -3.7704   -2.6651 H   0  0  0  0  0  0  0  0  0  0  0  0
    4.5354   -1.8219   -1.2718 H   0  0  0  0  0  0  0  0  0  0  0  0
    1.7222    2.8859    0.6753 H   0  0  0  0  0  0  0  0  0  0  0  0
    3.8659    2.8023    1.9340 H   0  0  0  0  0  0  0  0  0  0  0  0
    5.7049    1.3885    2.9438 H   0  0  0  0  0  0  0  0  0  0  0  0
    6.6597   -0.8754    3.4147 H   0  0  0  0  0  0  0  0  0  0  0  0
    5.5018   -2.9284    2.5494 H   0  0  0  0  0  0  0  0  0  0  0  0
    3.4791   -2.7322    1.1357 H   0  0  0  0  0  0  0  0  0  0  0  0
   -3.7207   -2.1752    0.7279 H   0  0  0  0  0  0  0  0  0  0  0  0
   -5.5941   -2.8202   -0.7889 H   0  0  0  0  0  0  0  0  0  0  0  0
   -5.3888   -2.4809   -3.2648 H   0  0  0  0  0  0  0  0  0  0  0  0
   -3.2960   -1.4772   -4.2187 H   0  0  0  0  0  0  0  0  0  0  0  0
   -1.4205   -0.8154   -2.7023 H   0  0  0  0  0  0  0  0  0  0  0  0
    0.0484   -3.0083    1.9947 H   0  0  0  0  0  0  0  0  0  0  0  0
   -0.5320   -3.5940    4.3574 H   0  0  0  0  0  0  0  0  0  0  0  0
   -2.3273   -2.3281    5.5619 H   0  0  0  0  0  0  0  0  0  0  0  0
   -3.5410   -0.4633    4.3998 H   0  0  0  0  0  0  0  0  0  0  0  0
   -2.9623    0.1377    2.0523 H   0  0  0  0  0  0  0  0  0  0  0  0
   -0.5116   -5.1222   -1.0876 H   0  0  0  0  0  0  0  0  0  0  0  0
   -1.4361   -3.9308   -2.0791 H   0  0  0  0  0  0  0  0  0  0  0  0
   -1.5466   -3.9006   -0.2873 H   0  0  0  0  0  0  0  0  0  0  0  0
  1 27  1  0  0  0  0
  2  4  1  0  0  0  0
  3 12  1  0  0  0  0
  3 13  1  0  0  0  0
  4  5  2  0  0  0  0
  4  1  1  0  0  0  0
  5 12  1  0  0  0  0
  6  5  1  0  0  0  0
  7  6  1  0  0  0  0
  7  2  1  0  0  0  0
  8  7  2  0  0  0  0
  9 10  2  0  0  0  0
  9  8  1  0  0  0  0
 10 11  1  0  0  0  0
 11 37  1  0  0  0  0
 11  6  2  0  0  0  0
 12 20  2  0  0  0  0
 13 14  2  0  0  0  0
 14 15  1  0  0  0  0
 14 39  1  0  0  0  0
 15 16  2  0  0  0  0
 16 17  1  0  0  0  0
 16 40  1  0  0  0  0
 17 41  1  0  0  0  0
 18 42  1  0  0  0  0
 18 17  2  0  0  0  0
 19 18  1  0  0  0  0
 20 19  1  0  0  0  0
 20 15  1  0  0  0  0
 21 22  1  0  0  0  0
 21  1  1  0  0  0  0
 22 44  1  0  0  0  0
 23 45  1  0  0  0  0
 23 22  2  0  0  0  0
 24 23  1  0  0  0  0
 25 24  2  0  0  0  0
 25 26  1  0  0  0  0
 26 21  2  0  0  0  0
 27 28  2  0  0  0  0
 27 32  1  0  0  0  0
 28 29  1  0  0  0  0
 29 50  1  0  0  0  0
 29 30  2  0  0  0  0
 30 51  1  0  0  0  0
 31 52  1  0  0  0  0
 31 30  1  0  0  0  0
 32 31  2  0  0  0  0
 33 54  1  0  0  0  0
 33  2  1  0  0  0  0
 33 56  1  0  0  0  0
 34  8  1  0  0  0  0
 35  9  1  0  0  0  0
 36 10  1  0  0  0  0
 38 13  1  0  0  0  0
 43 19  1  0  0  0  0
 46 24  1  0  0  0  0
 47 25  1  0  0  0  0
 48 26  1  0  0  0  0
 49 28  1  0  0  0  0
 53 32  1  0  0  0  0
 55 33  1  0  0  0  0
M  END
