1
 OpenBabel05122313063D

 16 16  0  0  1  0  0  0  0  0999 V2000
    1.4091    1.1865   -0.5256 N   0  0  0  0  0  2  0  0  0  0  0  0
    2.1936    1.8438    0.3600 C   0  0  2  0  0  3  0  0  0  0  0  0
    3.3235    2.5507   -0.0883 C   0  0  0  0  0  0  0  0  0  0  0  0
    3.9623    3.0554    0.6501 H   0  0  0  0  0  0  0  0  0  0  0  0
    3.6311    2.5799   -1.4512 C   0  0  0  0  0  0  0  0  0  0  0  0
    4.5222    3.1169   -1.8080 H   0  0  0  0  0  0  0  0  0  0  0  0
    2.7832    1.9189   -2.3535 C   0  0  0  0  0  0  0  0  0  0  0  0
    2.9754    1.9247   -3.4353 H   0  0  0  0  0  0  0  0  0  0  0  0
    1.6790    1.2323   -1.8485 C   0  0  0  0  0  0  0  0  0  0  0  0
    0.9781    0.6796   -2.4903 H   0  0  0  0  0  0  0  0  0  0  0  0
    1.8631    1.7785    1.8359 C   0  0  0  0  0  0  0  0  0  0  0  0
    2.2847    2.6976    2.3071 H   0  0  0  0  0  0  0  0  0  0  0  0
    2.4441    0.9350    2.2699 H   0  0  0  0  0  0  0  0  0  0  0  0
    0.4470    1.5508    2.0914 N   0  0  0  0  0  0  0  0  0  0  0  0
    0.2947    1.4132    3.0971 H   0  0  0  0  0  0  0  0  0  0  0  0
   -0.1144    2.3679    1.8174 H   0  0  0  0  0  0  0  0  0  0  0  0
  1  2  1  0  0  0  0
  2 11  1  1  0  0  0
  3  2  1  0  0  0  0
  3  4  1  0  0  0  0
  5  3  2  0  0  0  0
  6  5  1  0  0  0  0
  7  9  2  0  0  0  0
  7  5  1  0  0  0  0
  8  7  1  0  0  0  0
  9  1  1  0  0  0  0
 10  9  1  0  0  0  0
 11 14  1  0  0  0  0
 11 13  1  0  0  0  0
 11 12  1  0  0  0  0
 14 15  1  0  0  0  0
 16 14  1  0  0  0  0
M  END
