9
 OpenBabel05122313063D

 23 25  0  0  1  0  0  0  0  0999 V2000
    3.6222    2.1048   -0.0741 C   0  0  0  0  0  0  0  0  0  0  0  0
    4.5569    1.5268   -0.1005 H   0  0  0  0  0  0  0  0  0  0  0  0
    3.6706    3.5294   -0.0803 C   0  0  0  0  0  0  0  0  0  0  0  0
    4.6441    4.0413   -0.1060 H   0  0  0  0  0  0  0  0  0  0  0  0
    2.5039    4.2666   -0.0553 C   0  0  0  0  0  0  0  0  0  0  0  0
    2.5257    5.3648   -0.0583 H   0  0  0  0  0  0  0  0  0  0  0  0
    2.4124    1.4391   -0.0445 C   0  0  0  0  0  0  0  0  0  0  0  0
    2.3650    0.3406   -0.0460 H   0  0  0  0  0  0  0  0  0  0  0  0
    0.0002    1.4892   -0.0000 N   0  0  0  0  0  2  0  0  0  0  0  0
    1.1789    2.1637   -0.0223 C   0  0  0  0  0  0  0  0  0  0  0  0
    1.2310    3.6151   -0.0265 C   0  0  0  0  0  0  0  0  0  0  0  0
    0.0003    4.3072   -0.0000 C   0  0  0  0  0  0  0  0  0  0  0  0
   -1.2305    3.6152    0.0264 C   0  0  0  0  0  0  0  0  0  0  0  0
   -1.1785    2.1638    0.0222 C   0  0  2  0  0  3  0  0  0  0  0  0
   -2.4121    1.4393    0.0444 C   0  0  0  0  0  0  0  0  0  0  0  0
   -2.3647    0.3407    0.0459 H   0  0  0  0  0  0  0  0  0  0  0  0
   -3.6218    2.1051    0.0740 C   0  0  0  0  0  0  0  0  0  0  0  0
   -4.5565    1.5271    0.1003 H   0  0  0  0  0  0  0  0  0  0  0  0
   -3.6701    3.5297    0.0802 C   0  0  0  0  0  0  0  0  0  0  0  0
   -4.6436    4.0416    0.1058 H   0  0  0  0  0  0  0  0  0  0  0  0
   -2.5033    4.2668    0.0551 C   0  0  0  0  0  0  0  0  0  0  0  0
   -2.5250    5.3650    0.0582 H   0  0  0  0  0  0  0  0  0  0  0  0
    0.0003    6.0496   -0.0000 Cl  0  0  0  0  0  0  0  0  0  0  0  0
  1  7  1  0  0  0  0
  2  1  1  0  0  0  0
  3  1  2  0  0  0  0
  3  5  1  0  0  0  0
  4  3  1  0  0  0  0
  5 11  2  0  0  0  0
  6  5  1  0  0  0  0
  7 10  2  0  0  0  0
  8  7  1  0  0  0  0
 10  9  1  0  0  0  0
 11 10  1  0  0  0  0
 11 12  1  0  0  0  0
 12 23  1  0  0  0  0
 12 13  2  0  0  0  0
 13 21  1  0  0  0  0
 14  9  1  1  0  0  0
 14 13  1  0  0  0  0
 14 15  1  0  0  0  0
 15 16  1  0  0  0  0
 15 17  2  0  0  0  0
 17 19  1  0  0  0  0
 17 18  1  0  0  0  0
 19 20  1  0  0  0  0
 21 22  1  0  0  0  0
 21 19  2  0  0  0  0
M  END
