3
 OpenBabel05122313063D

 32 32  0  0  1  0  0  0  0  0999 V2000
    4.5229   -2.3991   -0.3542 O   0  0  0  0  0  0  0  0  0  0  0  0
    6.5335   -1.5924   -1.0380 O   0  0  0  0  0  0  0  0  0  0  0  0
    1.2683    1.0564   -0.9431 N   0  0  0  0  0  2  0  0  0  0  0  0
    3.3268   -0.0193   -0.8575 N   0  0  0  0  0  0  0  0  0  0  0  0
    2.5673    1.0614   -1.1174 C   0  0  1  0  0  3  0  0  0  0  0  0
    3.2509    2.3141   -1.6302 C   0  0  0  0  0  0  0  0  0  0  0  0
    2.3290    3.4983   -1.9057 C   0  0  0  0  0  0  0  0  0  0  0  0
    4.7720   -0.0223   -0.8429 C   0  0  1  0  0  0  0  0  0  0  0  0
    5.3888    0.7840    0.3052 C   0  0  0  0  0  0  0  0  0  0  0  0
    6.6519    1.3852    0.1504 C   0  0  0  0  0  0  0  0  0  0  0  0
    7.2278    2.0982    1.2118 C   0  0  0  0  0  0  0  0  0  0  0  0
    6.5456    2.2129    2.4344 C   0  0  0  0  0  0  0  0  0  0  0  0
    5.2870    1.6109    2.5892 C   0  0  0  0  0  0  0  0  0  0  0  0
    4.7068    0.8939    1.5315 C   0  0  0  0  0  0  0  0  0  0  0  0
    5.2295   -1.4830   -0.7178 C   0  0  0  0  0  0  0  0  0  0  0  0
    7.0999   -2.9003   -0.8629 C   0  0  0  0  0  0  0  0  0  0  0  0
    0.7873    1.9227   -1.2012 H   0  0  0  0  0  0  0  0  0  0  0  0
    2.8519   -0.8964   -0.5682 H   0  0  0  0  0  0  0  0  0  0  0  0
    3.8154    2.0380   -2.5473 H   0  0  0  0  0  0  0  0  0  0  0  0
    4.0229    2.5917   -0.8808 H   0  0  0  0  0  0  0  0  0  0  0  0
    1.5882    3.2696   -2.6988 H   0  0  0  0  0  0  0  0  0  0  0  0
    2.9189    4.3708   -2.2452 H   0  0  0  0  0  0  0  0  0  0  0  0
    1.7772    3.8040   -0.9935 H   0  0  0  0  0  0  0  0  0  0  0  0
    5.1876    0.3589   -1.8009 H   0  0  0  0  0  0  0  0  0  0  0  0
    7.1872    1.2906   -0.8073 H   0  0  0  0  0  0  0  0  0  0  0  0
    8.2128    2.5721    1.0817 H   0  0  0  0  0  0  0  0  0  0  0  0
    6.9955    2.7768    3.2657 H   0  0  0  0  0  0  0  0  0  0  0  0
    4.7440    1.6981    3.5425 H   0  0  0  0  0  0  0  0  0  0  0  0
    3.7116    0.4335    1.6508 H   0  0  0  0  0  0  0  0  0  0  0  0
    8.1562   -2.8187   -1.1730 H   0  0  0  0  0  0  0  0  0  0  0  0
    7.0300   -3.2158    0.1972 H   0  0  0  0  0  0  0  0  0  0  0  0
    6.5662   -3.6446   -1.4867 H   0  0  0  0  0  0  0  0  0  0  0  0
  2 16  1  0  0  0  0
  2 15  1  0  0  0  0
  4  8  1  0  0  0  0
  4 18  1  0  0  0  0
  5  3  1  6  0  0  0
  5  4  1  0  0  0  0
  6  5  1  0  0  0  0
  6 20  1  0  0  0  0
  7  6  1  0  0  0  0
  7 23  1  0  0  0  0
  8 24  1  6  0  0  0
  8 15  1  0  0  0  0
  8  9  1  0  0  0  0
  9 14  1  0  0  0  0
 10  9  2  0  0  0  0
 10 11  1  0  0  0  0
 11 12  2  0  0  0  0
 12 13  1  0  0  0  0
 12 27  1  0  0  0  0
 13 28  1  0  0  0  0
 14 29  1  0  0  0  0
 14 13  2  0  0  0  0
 15  1  2  0  0  0  0
 16 31  1  0  0  0  0
 17  3  1  0  0  0  0
 19  6  1  0  0  0  0
 21  7  1  0  0  0  0
 22  7  1  0  0  0  0
 25 10  1  0  0  0  0
 26 11  1  0  0  0  0
 30 16  1  0  0  0  0
 32 16  1  0  0  0  0
M  END
