5
 OpenBabel05122313063D

 62 63  0  0  0  0  0  0  0  0999 V2000
   -0.6900   -2.0800    0.0656 P   0  0  0  0  0  0  0  0  0  0  0  0
   -0.0489    2.4525    0.1446 P   0  0  0  0  0  0  0  0  0  0  0  0
    3.4959    0.9622   -0.0062 N   0  0  0  0  0  4  0  0  0  0  0  0
    3.1932   -1.4132   -0.1424 N   0  0  0  0  0  0  0  0  0  0  0  0
    1.2868    0.0198    0.0056 N   0  0  0  0  0  2  0  0  0  0  0  0
    1.0407   -2.2867   -0.1044 N   0  0  0  0  0  0  0  0  0  0  0  0
    1.5137   -3.1924   -0.1613 H   0  0  0  0  0  0  0  0  0  0  0  0
    1.6466    2.3727    0.1239 N   0  0  0  0  0  2  0  0  0  0  0  0
    2.1453    1.1566    0.0446 C   0  0  0  0  0  0  0  0  0  0  0  0
    3.9522   -0.2816   -0.1012 C   0  0  0  0  0  0  0  0  0  0  0  0
    5.4266   -0.4689   -0.1667 C   0  0  0  0  0  0  0  0  0  0  0  0
    6.2824    0.6529   -0.1296 C   0  0  0  0  0  0  0  0  0  0  0  0
    5.8200    1.6475   -0.0514 H   0  0  0  0  0  0  0  0  0  0  0  0
    7.6703    0.4822   -0.1920 C   0  0  0  0  0  0  0  0  0  0  0  0
    8.3325    1.3612   -0.1626 H   0  0  0  0  0  0  0  0  0  0  0  0
    8.2197   -0.8081   -0.2928 C   0  0  0  0  0  0  0  0  0  0  0  0
    9.3117   -0.9404   -0.3423 H   0  0  0  0  0  0  0  0  0  0  0  0
    7.3727   -1.9285   -0.3305 C   0  0  0  0  0  0  0  0  0  0  0  0
    7.8008   -2.9397   -0.4095 H   0  0  0  0  0  0  0  0  0  0  0  0
    5.9832   -1.7614   -0.2675 C   0  0  0  0  0  0  0  0  0  0  0  0
    5.2984   -2.6206   -0.2948 H   0  0  0  0  0  0  0  0  0  0  0  0
    1.8806   -1.2015   -0.0818 C   0  0  0  0  0  0  0  0  0  0  0  0
   -0.4243   -2.1376    2.8256 C   0  0  0  0  0  0  0  0  0  0  0  0
   -0.6881   -2.5772    3.8096 H   0  0  0  0  0  0  0  0  0  0  0  0
   -0.7999   -1.0952    2.7806 H   0  0  0  0  0  0  0  0  0  0  0  0
    0.6824   -2.0910    2.7606 H   0  0  0  0  0  0  0  0  0  0  0  0
   -0.4781   -4.4254    1.7177 C   0  0  0  0  0  0  0  0  0  0  0  0
    0.6235   -4.4565    1.5852 H   0  0  0  0  0  0  0  0  0  0  0  0
   -0.9404   -5.0728    0.9464 H   0  0  0  0  0  0  0  0  0  0  0  0
   -0.6928   -4.8854    2.7047 H   0  0  0  0  0  0  0  0  0  0  0  0
   -0.9076   -2.7092   -2.6474 C   0  0  0  0  0  0  0  0  0  0  0  0
   -1.1391   -3.4499   -3.4406 H   0  0  0  0  0  0  0  0  0  0  0  0
    0.1645   -2.4429   -2.7271 H   0  0  0  0  0  0  0  0  0  0  0  0
   -1.4943   -1.7918   -2.8483 H   0  0  0  0  0  0  0  0  0  0  0  0
   -0.1163    2.7713   -2.5974 C   0  0  0  0  0  0  0  0  0  0  0  0
   -0.3949    3.3602   -3.4958 H   0  0  0  0  0  0  0  0  0  0  0  0
   -0.6499    1.7992   -2.6240 H   0  0  0  0  0  0  0  0  0  0  0  0
    0.9708    2.5580   -2.6508 H   0  0  0  0  0  0  0  0  0  0  0  0
   -2.7034   -3.7193   -1.1310 C   0  0  0  0  0  0  0  0  0  0  0  0
   -3.4067   -2.8720   -1.2598 H   0  0  0  0  0  0  0  0  0  0  0  0
   -2.9184   -4.1856   -0.1492 H   0  0  0  0  0  0  0  0  0  0  0  0
   -2.9478   -4.4670   -1.9136 H   0  0  0  0  0  0  0  0  0  0  0  0
    0.3065    4.8864   -1.2450 C   0  0  0  0  0  0  0  0  0  0  0  0
    0.1322    5.4758   -2.1694 H   0  0  0  0  0  0  0  0  0  0  0  0
    1.3952    4.7046   -1.1443 H   0  0  0  0  0  0  0  0  0  0  0  0
   -0.0181    5.5083   -0.3870 H   0  0  0  0  0  0  0  0  0  0  0  0
   -1.8117    4.0662    1.6807 C   0  0  0  0  0  0  0  0  0  0  0  0
   -2.5874    3.2732    1.6672 H   0  0  0  0  0  0  0  0  0  0  0  0
   -2.0007    4.7384    0.8202 H   0  0  0  0  0  0  0  0  0  0  0  0
   -1.9681    4.6599    2.6054 H   0  0  0  0  0  0  0  0  0  0  0  0
   -0.0824    2.6405    2.9085 C   0  0  0  0  0  0  0  0  0  0  0  0
    0.9555    2.2549    2.8715 H   0  0  0  0  0  0  0  0  0  0  0  0
   -0.7649    1.7688    2.9838 H   0  0  0  0  0  0  0  0  0  0  0  0
   -0.1908    3.2520    3.8284 H   0  0  0  0  0  0  0  0  0  0  0  0
   -0.3975    3.4789    1.6651 C   0  0  0  0  0  0  0  0  0  0  0  0
    0.3475    4.3014    1.5948 H   0  0  0  0  0  0  0  0  0  0  0  0
   -1.0012   -2.9865    1.6854 C   0  0  0  0  0  0  0  0  0  0  0  0
   -2.1087   -2.9989    1.7753 H   0  0  0  0  0  0  0  0  0  0  0  0
   -0.4423    3.5515   -1.3179 C   0  0  0  0  0  0  0  0  0  0  0  0
   -1.5404    3.7286   -1.2709 H   0  0  0  0  0  0  0  0  0  0  0  0
   -1.2389   -3.2882   -1.2673 C   0  0  0  0  0  0  0  0  0  0  0  0
   -0.5983   -4.1834   -1.0984 H   0  0  0  0  0  0  0  0  0  0  0  0
  1 57  1  0  0  0  0
  2 55  1  0  0  0  0
  3  9  2  0  0  0  0
  4 10  1  0  0  0  0
  4 22  2  0  0  0  0
  5  9  1  0  0  0  0
  6 22  1  0  0  0  0
  6  1  1  0  0  0  0
  7  6  1  0  0  0  0
  8  2  1  0  0  0  0
  9  8  1  0  0  0  0
 10  3  2  0  0  0  0
 11 12  1  0  0  0  0
 11 10  1  0  0  0  0
 12 13  1  0  0  0  0
 14 15  1  0  0  0  0
 14 12  2  0  0  0  0
 16 14  1  0  0  0  0
 17 16  1  0  0  0  0
 18 16  2  0  0  0  0
 18 20  1  0  0  0  0
 19 18  1  0  0  0  0
 20 11  2  0  0  0  0
 21 20  1  0  0  0  0
 22  5  1  0  0  0  0
 23 24  1  0  0  0  0
 25 23  1  0  0  0  0
 26 23  1  0  0  0  0
 27 30  1  0  0  0  0
 28 27  1  0  0  0  0
 29 27  1  0  0  0  0
 31 61  1  0  0  0  0
 32 31  1  0  0  0  0
 33 31  1  0  0  0  0
 34 31  1  0  0  0  0
 35 59  1  0  0  0  0
 36 35  1  0  0  0  0
 37 35  1  0  0  0  0
 38 35  1  0  0  0  0
 39 41  1  0  0  0  0
 40 39  1  0  0  0  0
 42 39  1  0  0  0  0
 43 45  1  0  0  0  0
 43 46  1  0  0  0  0
 44 43  1  0  0  0  0
 47 50  1  0  0  0  0
 48 47  1  0  0  0  0
 49 47  1  0  0  0  0
 51 53  1  0  0  0  0
 51 54  1  0  0  0  0
 52 51  1  0  0  0  0
 55 47  1  0  0  0  0
 55 51  1  0  0  0  0
 56 55  1  0  0  0  0
 57 27  1  0  0  0  0
 57 58  1  0  0  0  0
 57 23  1  0  0  0  0
 59 60  1  0  0  0  0
 59 43  1  0  0  0  0
 59  2  1  0  0  0  0
 61 39  1  0  0  0  0
 61 62  1  0  0  0  0
 61  1  1  0  0  0  0
M  END
