3
 OpenBabel05122313063D

 19 19  0  0  1  0  0  0  0  0999 V2000
   -0.5950    2.9273    0.4903 O   0  0  0  0  0  0  0  0  0  0  0  0
    0.2946    2.9926    0.0232 H   0  0  0  0  0  0  0  0  0  0  0  0
   -0.9528    1.6352    0.2047 N   0  0  0  0  0  2  0  0  0  0  0  0
   -2.2375    1.3905    0.2175 C   0  0  2  0  0  3  0  0  0  0  0  0
   -2.7235    0.0586   -0.1927 C   0  0  0  0  0  0  0  0  0  0  0  0
   -3.7976   -0.5482    0.4929 C   0  0  0  0  0  0  0  0  0  0  0  0
   -4.2522   -0.0390    1.3558 H   0  0  0  0  0  0  0  0  0  0  0  0
   -4.2564   -1.8149    0.1113 C   0  0  0  0  0  0  0  0  0  0  0  0
   -5.0793   -2.2877    0.6680 H   0  0  0  0  0  0  0  0  0  0  0  0
   -3.6647   -2.4818   -0.9736 C   0  0  0  0  0  0  0  0  0  0  0  0
   -4.0300   -3.4751   -1.2754 H   0  0  0  0  0  0  0  0  0  0  0  0
   -2.6152   -1.8723   -1.6801 C   0  0  0  0  0  0  0  0  0  0  0  0
   -2.1628   -2.3807   -2.5450 H   0  0  0  0  0  0  0  0  0  0  0  0
   -2.1453   -0.6113   -1.2955 C   0  0  0  0  0  0  0  0  0  0  0  0
   -1.3287   -0.1291   -1.8538 H   0  0  0  0  0  0  0  0  0  0  0  0
   -3.1845    2.4876    0.6034 C   0  0  0  0  0  0  0  0  0  0  0  0
   -3.0353    2.7762    1.6647 H   0  0  0  0  0  0  0  0  0  0  0  0
   -4.2340    2.1869    0.4434 H   0  0  0  0  0  0  0  0  0  0  0  0
   -2.9591    3.3950    0.0073 H   0  0  0  0  0  0  0  0  0  0  0  0
  2  1  1  0  0  0  0
  3  1  1  0  0  0  0
  4  3  1  6  0  0  0
  4 16  1  0  0  0  0
  5  4  1  0  0  0  0
  5  6  1  0  0  0  0
  6  7  1  0  0  0  0
  8  6  2  0  0  0  0
  8  9  1  0  0  0  0
 10  8  1  0  0  0  0
 11 10  1  0  0  0  0
 12 14  1  0  0  0  0
 12 10  2  0  0  0  0
 13 12  1  0  0  0  0
 14  5  2  0  0  0  0
 15 14  1  0  0  0  0
 16 17  1  0  0  0  0
 18 16  1  0  0  0  0
 19 16  1  0  0  0  0
M  END
