2
 OpenBabel05122313063D

 25 25  0  0  0  0  0  0  0  0999 V2000
    2.6904   -0.3172   -0.2861 N   0  0  0  0  0  0  0  0  0  0  0  0
    0.2533    0.6181   -1.8191 N   0  0  0  0  0  0  0  0  0  0  0  0
    3.0109   -1.6591    0.1971 C   0  0  0  0  0  0  0  0  0  0  0  0
    4.5026   -2.0146    0.0944 C   0  0  0  0  0  0  0  0  0  0  0  0
    5.3531   -0.9553    0.8098 C   0  0  0  0  0  0  0  0  0  0  0  0
    5.0041    0.4525    0.3063 C   0  0  0  0  0  0  0  0  0  0  0  0
    3.4899    0.7052    0.3963 C   0  0  0  0  0  0  0  0  0  0  0  0
    2.6153   -0.1796   -1.7322 C   0  0  0  0  0  0  0  0  0  0  0  0
    1.6569    0.9302   -2.1720 C   0  0  0  0  0  0  0  0  0  0  0  0
    2.7118   -1.7075    1.2723 H   0  0  0  0  0  0  0  0  0  0  0  0
    2.3707   -2.3886   -0.3386 H   0  0  0  0  0  0  0  0  0  0  0  0
    4.6812   -3.0244    0.5211 H   0  0  0  0  0  0  0  0  0  0  0  0
    4.7950   -2.0711   -0.9780 H   0  0  0  0  0  0  0  0  0  0  0  0
    5.1495   -1.0088    1.9041 H   0  0  0  0  0  0  0  0  0  0  0  0
    6.4360   -1.1643    0.6841 H   0  0  0  0  0  0  0  0  0  0  0  0
    5.5470    1.2293    0.8845 H   0  0  0  0  0  0  0  0  0  0  0  0
    5.3388    0.5634   -0.7494 H   0  0  0  0  0  0  0  0  0  0  0  0
    3.2259    1.7089    0.0076 H   0  0  0  0  0  0  0  0  0  0  0  0
    3.1798    0.7124    1.4660 H   0  0  0  0  0  0  0  0  0  0  0  0
    3.6031    0.0207   -2.2201 H   0  0  0  0  0  0  0  0  0  0  0  0
    2.2556   -1.1454   -2.1460 H   0  0  0  0  0  0  0  0  0  0  0  0
    1.7517    1.0787   -3.2703 H   0  0  0  0  0  0  0  0  0  0  0  0
    1.9192    1.8935   -1.6901 H   0  0  0  0  0  0  0  0  0  0  0  0
   -0.1087   -0.1520   -2.4016 H   0  0  0  0  0  0  0  0  0  0  0  0
   -0.3463    1.4426   -1.9681 H   0  0  0  0  0  0  0  0  0  0  0  0
  1  3  1  0  0  0  0
  1  7  1  0  0  0  0
  3 10  1  0  0  0  0
  4  3  1  0  0  0  0
  4 12  1  0  0  0  0
  4  5  1  0  0  0  0
  5 14  1  0  0  0  0
  6  7  1  0  0  0  0
  6  5  1  0  0  0  0
  6 16  1  0  0  0  0
  7 19  1  0  0  0  0
  8  1  1  0  0  0  0
  9  2  1  0  0  0  0
  9  8  1  0  0  0  0
  9 23  1  0  0  0  0
 11  3  1  0  0  0  0
 13  4  1  0  0  0  0
 15  5  1  0  0  0  0
 17  6  1  0  0  0  0
 18  7  1  0  0  0  0
 20  8  1  0  0  0  0
 21  8  1  0  0  0  0
 22  9  1  0  0  0  0
 24  2  1  0  0  0  0
 25  2  1  0  0  0  0
M  END
