5
 OpenBabel05122313063D

 33 35  0  0  1  0  0  0  0  0999 V2000
    7.1286    1.8938   -0.2225 N   0  0  0  0  0  0  0  0  0  0  0  0
    6.2608    1.6993    0.7095 N   0  0  0  0  0  0  0  0  0  0  0  0
    6.0641    0.3407    0.8720 N   0  0  0  0  0  0  0  0  0  0  0  0
    3.8920   -0.6680    1.2433 N   0  0  0  0  0  0  0  0  0  0  0  0
    1.9635   -0.8017    0.1886 N   0  0  0  0  0  2  0  0  0  0  0  0
    7.5355    0.6678   -0.7208 C   0  0  0  0  0  0  0  0  0  0  0  0
    8.4587    0.3483   -1.7365 C   0  0  0  0  0  0  0  0  0  0  0  0
    8.9885    1.1449   -2.2771 H   0  0  0  0  0  0  0  0  0  0  0  0
    8.6585   -1.0042   -2.0167 C   0  0  0  0  0  0  0  0  0  0  0  0
    9.3679   -1.2973   -2.8044 H   0  0  0  0  0  0  0  0  0  0  0  0
    7.9609   -2.0199   -1.3093 C   0  0  0  0  0  0  0  0  0  0  0  0
    8.1471   -3.0729   -1.5687 H   0  0  0  0  0  0  0  0  0  0  0  0
    7.0409   -1.7235   -0.2991 C   0  0  0  0  0  0  0  0  0  0  0  0
    6.4990   -2.5189    0.2306 H   0  0  0  0  0  0  0  0  0  0  0  0
    6.8447   -0.3587   -0.0178 C   0  0  0  0  0  0  0  0  0  0  0  0
    5.1031   -0.1218    1.8396 C   0  0  0  0  0  0  0  0  0  0  0  0
    4.8574    0.7533    2.4707 H   0  0  0  0  0  0  0  0  0  0  0  0
    5.5492   -0.9110    2.4761 H   0  0  0  0  0  0  0  0  0  0  0  0
    3.5883   -2.0228    1.1303 C   0  0  0  0  0  0  0  0  0  0  0  0
    4.2490   -2.7982    1.5299 H   0  0  0  0  0  0  0  0  0  0  0  0
    2.3800   -2.0869    0.4738 C   0  0  0  0  0  0  0  0  0  0  0  0
    1.7760   -2.9503    0.1724 H   0  0  0  0  0  0  0  0  0  0  0  0
    2.8840    0.0534    0.6489 C   0  0  1  0  0  3  0  0  0  0  0  0
    2.7839    1.5396    0.5823 C   0  0  0  0  0  0  0  0  0  0  0  0
    2.3333    1.7802   -0.4048 H   0  0  0  0  0  0  0  0  0  0  0  0
    3.7930    1.9985    0.6098 H   0  0  0  0  0  0  0  0  0  0  0  0
    1.8910    2.1352    1.6938 C   0  0  0  0  0  0  0  0  0  0  0  0
    0.9022    1.6293    1.6630 H   0  0  0  0  0  0  0  0  0  0  0  0
    2.3320    1.8967    2.6879 H   0  0  0  0  0  0  0  0  0  0  0  0
    1.7028    3.6437    1.5406 C   0  0  0  0  0  0  0  0  0  0  0  0
    2.6769    4.1752    1.5333 H   0  0  0  0  0  0  0  0  0  0  0  0
    1.0993    4.0541    2.3744 H   0  0  0  0  0  0  0  0  0  0  0  0
    1.1706    3.8842    0.5975 H   0  0  0  0  0  0  0  0  0  0  0  0
  1  2  2  0  0  0  0
  2  3  1  0  0  0  0
  3 16  1  0  0  0  0
  4 16  1  0  0  0  0
  5 21  1  0  0  0  0
  5 23  1  0  0  0  0
  6  1  1  0  0  0  0
  6 15  1  0  0  0  0
  7  6  2  0  0  0  0
  8  7  1  0  0  0  0
  9  7  1  0  0  0  0
  9 11  2  0  0  0  0
 10  9  1  0  0  0  0
 11 13  1  0  0  0  0
 12 11  1  0  0  0  0
 13 15  2  0  0  0  0
 13 14  1  0  0  0  0
 15  3  1  0  0  0  0
 16 17  1  0  0  0  0
 16 18  1  0  0  0  0
 19  4  1  0  0  0  0
 19 20  1  0  0  0  0
 21 19  2  0  0  0  0
 22 21  1  0  0  0  0
 23 24  1  1  0  0  0
 23  4  1  0  0  0  0
 24 26  1  0  0  0  0
 24 27  1  0  0  0  0
 25 24  1  0  0  0  0
 27 29  1  0  0  0  0
 28 27  1  0  0  0  0
 30 27  1  0  0  0  0
 30 32  1  0  0  0  0
 31 30  1  0  0  0  0
 33 30  1  0  0  0  0
M  END
