2
 OpenBabel05122313063D

 44 44  0  0  1  0  0  0  0  0999 V2000
   -2.8707   -0.3434   -0.5565 Si  0  0  0  0  0  0  0  0  0  0  0  0
   -1.2612   -0.5140   -1.2387 N   0  0  0  0  0  2  0  0  0  0  0  0
   -2.2826   -0.0787    1.2277 C   0  0  0  0  0  0  0  0  0  0  0  0
   -1.7237    1.1529    1.7330 C   0  0  0  0  0  0  0  0  0  0  0  0
   -0.7462    0.8369    2.7264 C   0  0  0  0  0  0  0  0  0  0  0  0
   -0.6983   -0.5917    2.8643 C   0  0  0  0  0  0  0  0  0  0  0  0
   -1.6549   -1.1559    1.9617 C   0  0  1  0  0  3  0  0  0  0  0  0
   -2.1394    2.5542    1.3904 C   0  0  0  0  0  0  0  0  0  0  0  0
   -0.0372    1.8116    3.6193 C   0  0  0  0  0  0  0  0  0  0  0  0
    0.1497   -1.3130    3.8720 C   0  0  0  0  0  0  0  0  0  0  0  0
   -1.9714   -2.6201    1.8282 C   0  0  0  0  0  0  0  0  0  0  0  0
   -3.9005    1.1178   -1.2192 C   0  0  0  0  0  0  0  0  0  0  0  0
   -4.0432   -1.8367   -0.7162 C   0  0  0  0  0  0  0  0  0  0  0  0
   -0.9801   -0.9443   -2.6208 C   0  0  0  0  0  0  0  0  0  0  0  0
   -2.0768   -0.4952   -3.6109 C   0  0  0  0  0  0  0  0  0  0  0  0
    0.3579   -0.3627   -3.1123 C   0  0  0  0  0  0  0  0  0  0  0  0
   -0.8850   -2.4893   -2.6518 C   0  0  0  0  0  0  0  0  0  0  0  0
   -2.8502    2.9461    2.1504 H   0  0  0  0  0  0  0  0  0  0  0  0
   -2.6446    2.6104    0.4118 H   0  0  0  0  0  0  0  0  0  0  0  0
   -1.2754    3.2475    1.3679 H   0  0  0  0  0  0  0  0  0  0  0  0
   -0.6059    1.9684    4.5631 H   0  0  0  0  0  0  0  0  0  0  0  0
    0.0734    2.8047    3.1416 H   0  0  0  0  0  0  0  0  0  0  0  0
    0.9732    1.4576    3.9039 H   0  0  0  0  0  0  0  0  0  0  0  0
   -0.1969   -1.1097    4.9086 H   0  0  0  0  0  0  0  0  0  0  0  0
    1.2128   -0.9969    3.8231 H   0  0  0  0  0  0  0  0  0  0  0  0
    0.1216   -2.4095    3.7261 H   0  0  0  0  0  0  0  0  0  0  0  0
   -3.0297   -2.8206    2.0951 H   0  0  0  0  0  0  0  0  0  0  0  0
   -1.3371   -3.2319    2.4969 H   0  0  0  0  0  0  0  0  0  0  0  0
   -1.8165   -2.9893    0.7954 H   0  0  0  0  0  0  0  0  0  0  0  0
   -4.4400    0.8173   -2.1403 H   0  0  0  0  0  0  0  0  0  0  0  0
   -3.2728    1.9942   -1.4726 H   0  0  0  0  0  0  0  0  0  0  0  0
   -4.6601    1.4334   -0.4738 H   0  0  0  0  0  0  0  0  0  0  0  0
   -4.4645   -1.8924   -1.7413 H   0  0  0  0  0  0  0  0  0  0  0  0
   -4.8956   -1.7099   -0.0150 H   0  0  0  0  0  0  0  0  0  0  0  0
   -3.5613   -2.8069   -0.4943 H   0  0  0  0  0  0  0  0  0  0  0  0
   -2.1882    0.6074   -3.5988 H   0  0  0  0  0  0  0  0  0  0  0  0
   -3.0592   -0.9438   -3.3587 H   0  0  0  0  0  0  0  0  0  0  0  0
   -1.8302   -0.8054   -4.6474 H   0  0  0  0  0  0  0  0  0  0  0  0
    0.2912    0.7354   -3.2281 H   0  0  0  0  0  0  0  0  0  0  0  0
    0.6500   -0.7943   -4.0918 H   0  0  0  0  0  0  0  0  0  0  0  0
    1.1599   -0.5757   -2.3818 H   0  0  0  0  0  0  0  0  0  0  0  0
   -0.0801   -2.8325   -1.9715 H   0  0  0  0  0  0  0  0  0  0  0  0
   -0.6700   -2.8719   -3.6725 H   0  0  0  0  0  0  0  0  0  0  0  0
   -1.8360   -2.9411   -2.3061 H   0  0  0  0  0  0  0  0  0  0  0  0
  1  3  1  0  0  0  0
  2  1  1  0  0  0  0
  3  4  2  0  0  0  0
  3  7  1  0  0  0  0
  4  5  1  0  0  0  0
  5  6  2  0  0  0  0
  5  9  1  0  0  0  0
  6 10  1  0  0  0  0
  7 11  1  1  0  0  0
  7  6  1  0  0  0  0
  8  4  1  0  0  0  0
  8 18  1  0  0  0  0
  9 23  1  0  0  0  0
  9 21  1  0  0  0  0
 10 24  1  0  0  0  0
 11 27  1  0  0  0  0
 11 28  1  0  0  0  0
 12  1  1  0  0  0  0
 12 32  1  0  0  0  0
 13  1  1  0  0  0  0
 13 35  1  0  0  0  0
 13 34  1  0  0  0  0
 14  2  1  0  0  0  0
 15 36  1  0  0  0  0
 15 37  1  0  0  0  0
 15 14  1  0  0  0  0
 16 14  1  0  0  0  0
 16 41  1  0  0  0  0
 17 14  1  0  0  0  0
 17 44  1  0  0  0  0
 17 42  1  0  0  0  0
 19  8  1  0  0  0  0
 20  8  1  0  0  0  0
 22  9  1  0  0  0  0
 25 10  1  0  0  0  0
 26 10  1  0  0  0  0
 29 11  1  0  0  0  0
 30 12  1  0  0  0  0
 31 12  1  0  0  0  0
 33 13  1  0  0  0  0
 38 15  1  0  0  0  0
 39 16  1  0  0  0  0
 40 16  1  0  0  0  0
 43 17  1  0  0  0  0
M  END
