3
 OpenBabel05122313063D

 27 29  0  0  1  0  0  0  0  0999 V2000
    1.2751   -0.2310   -0.3006 P   0  0  0  0  0  0  0  0  0  0  0  0
    0.9921    2.1616    0.9617 O   0  0  0  0  0  0  0  0  0  0  0  0
   -0.8867    1.7642   -0.4401 N   0  0  0  0  0  2  0  0  0  0  0  0
   -0.0834    2.6063    0.2523 C   0  0  1  0  0  3  0  0  0  0  0  0
   -1.8932    2.2959   -1.1894 C   0  0  0  0  0  0  0  0  0  0  0  0
   -2.4423    1.5692   -1.8071 H   0  0  0  0  0  0  0  0  0  0  0  0
    1.8901    1.2261    0.4612 C   0  0  0  0  0  0  0  0  0  0  0  0
   -0.3289    3.9895    0.3119 C   0  0  0  0  0  0  0  0  0  0  0  0
    0.3542    4.6128    0.9043 H   0  0  0  0  0  0  0  0  0  0  0  0
    3.2384    1.4462    0.6564 C   0  0  0  0  0  0  0  0  0  0  0  0
    3.5324    2.3794    1.1644 H   0  0  0  0  0  0  0  0  0  0  0  0
   -2.1846    3.6577   -1.1927 C   0  0  0  0  0  0  0  0  0  0  0  0
   -3.0138    4.0317   -1.8086 H   0  0  0  0  0  0  0  0  0  0  0  0
    5.0822   -1.5360   -0.8179 C   0  0  0  0  0  0  0  0  0  0  0  0
    4.8669   -2.4835   -1.3342 H   0  0  0  0  0  0  0  0  0  0  0  0
   -1.4012    4.5201   -0.4069 C   0  0  0  0  0  0  0  0  0  0  0  0
   -1.6054    5.6006   -0.3786 H   0  0  0  0  0  0  0  0  0  0  0  0
    2.6552   -1.1364   -0.7102 C   0  0  0  0  0  0  0  0  0  0  0  0
    2.4988   -2.0963   -1.2275 H   0  0  0  0  0  0  0  0  0  0  0  0
    5.6303    0.8915    0.4974 C   0  0  0  0  0  0  0  0  0  0  0  0
    5.8442    1.8419    1.0093 H   0  0  0  0  0  0  0  0  0  0  0  0
    3.9868   -0.7065   -0.4288 C   0  0  0  0  0  0  0  0  0  0  0  0
    6.3920   -1.1633   -0.5570 C   0  0  0  0  0  0  0  0  0  0  0  0
    7.2200   -1.8178   -0.8668 H   0  0  0  0  0  0  0  0  0  0  0  0
    4.2707    0.5454    0.2459 C   0  0  0  0  0  0  0  0  0  0  0  0
    6.6692    0.0596    0.1068 C   0  0  0  0  0  0  0  0  0  0  0  0
    7.7109    0.3482    0.3101 H   0  0  0  0  0  0  0  0  0  0  0  0
  1  7  1  0  0  0  0
  3  4  1  0  0  0  0
  4  8  1  0  0  0  0
  4  2  1  1  0  0  0
  5  3  1  0  0  0  0
  6  5  1  0  0  0  0
  7 10  2  0  0  0  0
  7  2  1  0  0  0  0
  8  9  1  0  0  0  0
 10 11  1  0  0  0  0
 12  5  2  0  0  0  0
 12 16  1  0  0  0  0
 13 12  1  0  0  0  0
 14 23  2  0  0  0  0
 14 22  1  0  0  0  0
 15 14  1  0  0  0  0
 16 17  1  0  0  0  0
 16  8  2  0  0  0  0
 18 22  1  0  0  0  0
 18  1  2  0  0  0  0
 19 18  1  0  0  0  0
 20 21  1  0  0  0  0
 22 25  2  0  0  0  0
 23 26  1  0  0  0  0
 24 23  1  0  0  0  0
 25 20  1  0  0  0  0
 25 10  1  0  0  0  0
 26 27  1  0  0  0  0
 26 20  2  0  0  0  0
M  END
