5
 OpenBabel05122313063D

 21 22  0  0  1  0  0  0  0  0999 V2000
    0.0531   -1.4510   -1.5220 S   0  0  0  0  0  0  0  0  0  0  0  0
    4.0420   -2.1750   -0.0165 F   0  0  0  0  0  0  0  0  0  0  0  0
    4.5609   -0.1686   -0.7013 F   0  0  0  0  0  0  0  0  0  0  0  0
    3.7613   -0.4656    1.3101 F   0  0  0  0  0  0  0  0  0  0  0  0
   -0.3856    0.1872   -1.2017 N   0  0  0  0  0  2  0  0  0  0  0  0
    1.8847    0.6506   -0.4798 N   0  0  0  0  0  0  0  0  0  0  0  0
    1.6103   -1.7349   -0.8741 N   0  0  0  0  0  2  0  0  0  0  0  0
    0.6198    0.9890   -0.7085 C   0  0  2  0  0  3  0  0  0  0  0  0
    2.2567   -0.6601   -0.5072 C   0  0  0  0  0  0  0  0  0  0  0  0
    0.2160    2.3798   -0.3996 C   0  0  0  0  0  0  0  0  0  0  0  0
   -1.0309    2.8880   -0.8242 C   0  0  0  0  0  0  0  0  0  0  0  0
   -1.6891    2.2434   -1.4220 H   0  0  0  0  0  0  0  0  0  0  0  0
   -1.4040    4.1959   -0.4955 C   0  0  0  0  0  0  0  0  0  0  0  0
   -2.3735    4.5922   -0.8331 H   0  0  0  0  0  0  0  0  0  0  0  0
   -0.5373    5.0054    0.2596 C   0  0  0  0  0  0  0  0  0  0  0  0
   -0.8329    6.0335    0.5190 H   0  0  0  0  0  0  0  0  0  0  0  0
    0.7060    4.5045    0.6822 C   0  0  0  0  0  0  0  0  0  0  0  0
    1.3826    5.1380    1.2752 H   0  0  0  0  0  0  0  0  0  0  0  0
    1.0843    3.1978    0.3552 C   0  0  0  0  0  0  0  0  0  0  0  0
    2.0454    2.7730    0.6774 H   0  0  0  0  0  0  0  0  0  0  0  0
    3.6801   -0.8853    0.0293 C   0  0  0  0  0  0  0  0  0  0  0  0
  1  5  1  0  0  0  0
  1  7  1  0  0  0  0
  2 21  1  0  0  0  0
  3 21  1  0  0  0  0
  5  8  1  0  0  0  0
  7  9  1  0  0  0  0
  8  6  1  0  0  0  0
  8 10  1  1  0  0  0
  9  6  2  0  0  0  0
  9 21  1  0  0  0  0
 10 19  1  0  0  0  0
 11 13  1  0  0  0  0
 11 10  2  0  0  0  0
 12 11  1  0  0  0  0
 13 15  2  0  0  0  0
 14 13  1  0  0  0  0
 15 16  1  0  0  0  0
 15 17  1  0  0  0  0
 17 18  1  0  0  0  0
 19 20  1  0  0  0  0
 19 17  2  0  0  0  0
 21  4  1  0  0  0  0
M  END
