2
 OpenBabel05122313063D

 11 10  0  0  0  0  0  0  0  0999 V2000
    2.1183    0.3061   -1.5912 O   0  0  0  0  0  1  0  0  0  0  0  0
    1.9135   -0.3553   -0.5233 N   0  0  0  0  0  2  0  0  0  0  0  0
    2.8785   -0.9894    0.1248 C   0  0  0  0  0  3  0  0  0  0  0  0
    4.2420   -0.9194   -0.4918 C   0  0  0  0  0  0  0  0  0  0  0  0
    2.6142   -1.7830    1.3639 C   0  0  0  0  0  0  0  0  0  0  0  0
    4.5310    0.1378   -0.6765 H   0  0  0  0  0  0  0  0  0  0  0  0
    5.0017   -1.4081    0.1474 H   0  0  0  0  0  0  0  0  0  0  0  0
    4.2440   -1.4042   -1.4930 H   0  0  0  0  0  0  0  0  0  0  0  0
    3.3243   -1.5103    2.1755 H   0  0  0  0  0  0  0  0  0  0  0  0
    1.5749   -1.6331    1.7210 H   0  0  0  0  0  0  0  0  0  0  0  0
    2.7332   -2.8744    1.1823 H   0  0  0  0  0  0  0  0  0  0  0  0
  1  2  1  0  0  0  0
  2  3  1  0  0  0  0
  3  5  1  0  0  0  0
  4  3  1  0  0  0  0
  4  7  1  0  0  0  0
  5 10  1  0  0  0  0
  5  9  1  0  0  0  0
  6  4  1  0  0  0  0
  8  4  1  0  0  0  0
 11  5  1  0  0  0  0
M  END
