2
 OpenBabel05122313063D

 35 34  0  0  0  0  0  0  0  0999 V2000
    0.9323   -0.5008    2.5773 N   0  0  0  0  0  0  0  0  0  0  0  0
   -0.5808   -2.4138    0.7794 N   0  0  0  0  0  0  0  0  0  0  0  0
   -1.5808   -1.5137   -2.0210 N   0  0  0  0  0  0  0  0  0  0  0  0
    0.2686    0.6749    3.1094 C   0  0  0  0  0  0  0  0  0  0  0  0
   -0.8215    0.6136    2.9308 H   0  0  0  0  0  0  0  0  0  0  0  0
    0.6347    1.5816    2.5866 H   0  0  0  0  0  0  0  0  0  0  0  0
    0.4434    0.8122    4.2096 H   0  0  0  0  0  0  0  0  0  0  0  0
    2.3778   -0.4276    2.6875 C   0  0  0  0  0  0  0  0  0  0  0  0
    2.8462   -1.2791    2.1542 H   0  0  0  0  0  0  0  0  0  0  0  0
    2.7488   -0.4282    3.7469 H   0  0  0  0  0  0  0  0  0  0  0  0
    2.7405    0.5009    2.2021 H   0  0  0  0  0  0  0  0  0  0  0  0
    0.3549   -1.7537    3.0429 C   0  0  0  0  0  0  0  0  0  0  0  0
    0.0318   -1.7001    4.1153 H   0  0  0  0  0  0  0  0  0  0  0  0
    1.1411   -2.5338    3.0138 H   0  0  0  0  0  0  0  0  0  0  0  0
   -0.8582   -2.2125    2.2250 C   0  0  0  0  0  0  0  0  0  0  0  0
   -1.2381   -3.1670    2.6635 H   0  0  0  0  0  0  0  0  0  0  0  0
   -1.6711   -1.4646    2.2893 H   0  0  0  0  0  0  0  0  0  0  0  0
    0.4829   -3.4144    0.5873 C   0  0  0  0  0  0  0  0  0  0  0  0
    1.4248   -3.0615    1.0373 H   0  0  0  0  0  0  0  0  0  0  0  0
    0.6958   -3.5456   -0.4847 H   0  0  0  0  0  0  0  0  0  0  0  0
    0.1842   -4.3846    1.0476 H   0  0  0  0  0  0  0  0  0  0  0  0
   -1.8230   -2.8329    0.0841 C   0  0  0  0  0  0  0  0  0  0  0  0
   -2.6188   -2.1304    0.3984 H   0  0  0  0  0  0  0  0  0  0  0  0
   -2.1144   -3.8521    0.4351 H   0  0  0  0  0  0  0  0  0  0  0  0
   -1.7133   -2.8428   -1.4446 C   0  0  0  0  0  0  0  0  0  0  0  0
   -0.8360   -3.4446   -1.7515 H   0  0  0  0  0  0  0  0  0  0  0  0
   -2.6087   -3.3885   -1.8436 H   0  0  0  0  0  0  0  0  0  0  0  0
   -0.7854   -1.4758   -3.2375 C   0  0  0  0  0  0  0  0  0  0  0  0
   -0.6221   -0.4201   -3.5364 H   0  0  0  0  0  0  0  0  0  0  0  0
   -1.2734   -2.0028   -4.0990 H   0  0  0  0  0  0  0  0  0  0  0  0
    0.2091   -1.9246   -3.0507 H   0  0  0  0  0  0  0  0  0  0  0  0
   -2.8528   -0.8306   -2.1685 C   0  0  0  0  0  0  0  0  0  0  0  0
   -2.6862    0.2294   -2.4451 H   0  0  0  0  0  0  0  0  0  0  0  0
   -3.4099   -0.8313   -1.2125 H   0  0  0  0  0  0  0  0  0  0  0  0
   -3.5060   -1.2988   -2.9526 H   0  0  0  0  0  0  0  0  0  0  0  0
  1  8  1  0  0  0  0
  1 12  1  0  0  0  0
  1  4  1  0  0  0  0
  2 15  1  0  0  0  0
  3 25  1  0  0  0  0
  4  7  1  0  0  0  0
  5  4  1  0  0  0  0
  6  4  1  0  0  0  0
  8 10  1  0  0  0  0
  9  8  1  0  0  0  0
 11  8  1  0  0  0  0
 12 13  1  0  0  0  0
 14 12  1  0  0  0  0
 15 17  1  0  0  0  0
 15 16  1  0  0  0  0
 15 12  1  0  0  0  0
 18  2  1  0  0  0  0
 18 19  1  0  0  0  0
 18 21  1  0  0  0  0
 20 18  1  0  0  0  0
 22 23  1  0  0  0  0
 22 24  1  0  0  0  0
 22  2  1  0  0  0  0
 25 22  1  0  0  0  0
 26 25  1  0  0  0  0
 27 25  1  0  0  0  0
 28 31  1  0  0  0  0
 28  3  1  0  0  0  0
 29 28  1  0  0  0  0
 30 28  1  0  0  0  0
 32  3  1  0  0  0  0
 32 34  1  0  0  0  0
 33 32  1  0  0  0  0
 35 32  1  0  0  0  0
M  END
