1
 OpenBabel05122313063D

 37 40  0  0  0  0  0  0  0  0999 V2000
    0.1180   -0.1349    0.1820 N   0  0  0  0  0  0  0  0  0  0  0  0
    1.8138   -0.2151    1.9062 N   0  0  0  0  0  0  0  0  0  0  0  0
    0.4382   -0.5241    1.5821 C   0  0  0  0  0  0  0  0  0  0  0  0
    0.8436   -1.0769   -0.7062 C   0  0  0  0  0  0  0  0  0  0  0  0
    2.2894   -1.2601   -0.2868 C   0  0  0  0  0  0  0  0  0  0  0  0
    3.2139   -1.8704   -1.1547 C   0  0  0  0  0  0  0  0  0  0  0  0
    4.5697   -2.0191   -0.8193 C   0  0  0  0  0  0  0  0  0  0  0  0
    5.5458   -2.6826   -1.7582 C   0  0  0  0  0  0  0  0  0  0  0  0
    4.9934   -1.5291    0.4370 C   0  0  0  0  0  0  0  0  0  0  0  0
    4.0894   -0.9398    1.3230 C   0  0  0  0  0  0  0  0  0  0  0  0
    2.7279   -0.8071    0.9804 C   0  0  0  0  0  0  0  0  0  0  0  0
    1.9433    1.2418    2.0316 C   0  0  0  0  0  0  0  0  0  0  0  0
    1.3243    1.9548    0.8415 C   0  0  0  0  0  0  0  0  0  0  0  0
    1.6092    3.3100    0.5927 C   0  0  0  0  0  0  0  0  0  0  0  0
    1.1089    3.9893   -0.5292 C   0  0  0  0  0  0  0  0  0  0  0  0
    1.4159    5.4452   -0.7723 C   0  0  0  0  0  0  0  0  0  0  0  0
    0.3019    3.2591   -1.4285 C   0  0  0  0  0  0  0  0  0  0  0  0
   -0.0086    1.9175   -1.1965 C   0  0  0  0  0  0  0  0  0  0  0  0
    0.4812    1.2558   -0.0533 C   0  0  0  0  0  0  0  0  0  0  0  0
   -0.2376    0.0288    2.2628 H   0  0  0  0  0  0  0  0  0  0  0  0
    0.2400   -1.6076    1.6812 H   0  0  0  0  0  0  0  0  0  0  0  0
    0.7758   -0.7045   -1.7465 H   0  0  0  0  0  0  0  0  0  0  0  0
    0.3020   -2.0475   -0.6731 H   0  0  0  0  0  0  0  0  0  0  0  0
    2.8630   -2.2220   -2.1397 H   0  0  0  0  0  0  0  0  0  0  0  0
    5.8986   -3.6547   -1.3522 H   0  0  0  0  0  0  0  0  0  0  0  0
    6.4478   -2.0560   -1.9163 H   0  0  0  0  0  0  0  0  0  0  0  0
    5.0906   -2.8804   -2.7480 H   0  0  0  0  0  0  0  0  0  0  0  0
    6.0511   -1.6281    0.7285 H   0  0  0  0  0  0  0  0  0  0  0  0
    4.4212   -0.5885    2.3120 H   0  0  0  0  0  0  0  0  0  0  0  0
    3.0150    1.5085    2.1189 H   0  0  0  0  0  0  0  0  0  0  0  0
    1.4554    1.5640    2.9787 H   0  0  0  0  0  0  0  0  0  0  0  0
    2.2673    3.8470    1.2967 H   0  0  0  0  0  0  0  0  0  0  0  0
    0.5059    6.0711   -0.6540 H   0  0  0  0  0  0  0  0  0  0  0  0
    2.1781    5.8270   -0.0657 H   0  0  0  0  0  0  0  0  0  0  0  0
    1.7887    5.6147   -1.8034 H   0  0  0  0  0  0  0  0  0  0  0  0
   -0.1004    3.7563   -2.3252 H   0  0  0  0  0  0  0  0  0  0  0  0
   -0.6567    1.3700   -1.8954 H   0  0  0  0  0  0  0  0  0  0  0  0
  1  3  1  0  0  0  0
  2 12  1  0  0  0  0
  3 21  1  0  0  0  0
  3  2  1  0  0  0  0
  3 20  1  0  0  0  0
  4 23  1  0  0  0  0
  4  5  1  0  0  0  0
  4  1  1  0  0  0  0
  5 11  1  0  0  0  0
  6  7  1  0  0  0  0
  6  5  2  0  0  0  0
  7  9  2  0  0  0  0
  8 25  1  0  0  0  0
  8  7  1  0  0  0  0
  9 28  1  0  0  0  0
  9 10  1  0  0  0  0
 10 29  1  0  0  0  0
 11 10  2  0  0  0  0
 11  2  1  0  0  0  0
 12 30  1  0  0  0  0
 12 31  1  0  0  0  0
 13 12  1  0  0  0  0
 14 13  1  0  0  0  0
 14 32  1  0  0  0  0
 15 14  2  0  0  0  0
 16 33  1  0  0  0  0
 16 15  1  0  0  0  0
 16 34  1  0  0  0  0
 17 18  2  0  0  0  0
 17 15  1  0  0  0  0
 18 19  1  0  0  0  0
 19  1  1  0  0  0  0
 19 13  2  0  0  0  0
 22  4  1  0  0  0  0
 24  6  1  0  0  0  0
 26  8  1  0  0  0  0
 27  8  1  0  0  0  0
 35 16  1  0  0  0  0
 36 17  1  0  0  0  0
 37 18  1  0  0  0  0
M  END
