1
 OpenBabel05122313063D

 15 16  0  0  1  0  0  0  0  0999 V2000
   -0.8032    0.5491   -0.4478 N   0  0  0  0  0  2  0  0  0  0  0  0
   -1.8130   -0.1510   -0.0126 C   0  0  2  0  0  3  0  0  0  0  0  0
   -3.7172   -1.6297    0.7930 C   0  0  0  0  0  0  0  0  0  0  0  0
   -4.1711   -0.3571    0.0526 C   0  0  0  0  0  0  0  0  0  0  0  0
   -1.8689   -1.6333    0.9030 S   0  0  0  0  0  0  0  0  0  0  0  0
   -5.3166   -0.0384   -0.1668 O   0  0  0  0  0  0  0  0  0  0  0  0
   -3.0399    0.3647   -0.3313 N   0  0  0  0  0  0  0  0  0  0  0  0
   -2.8818    1.6270   -1.0655 C   0  0  0  0  0  0  0  0  0  0  0  0
   -1.3284    1.7694   -1.1183 C   0  0  0  0  0  0  0  0  0  0  0  0
   -4.0727   -2.5274    0.2488 H   0  0  0  0  0  0  0  0  0  0  0  0
   -4.1474   -1.6447    1.8139 H   0  0  0  0  0  0  0  0  0  0  0  0
   -3.3764    2.4513   -0.5152 H   0  0  0  0  0  0  0  0  0  0  0  0
   -3.3519    1.5458   -2.0654 H   0  0  0  0  0  0  0  0  0  0  0  0
   -0.9359    1.8197   -2.1530 H   0  0  0  0  0  0  0  0  0  0  0  0
   -0.9498    2.6525   -0.5662 H   0  0  0  0  0  0  0  0  0  0  0  0
  2  1  1  6  0  0  0
  2  5  1  0  0  0  0
  3  5  1  0  0  0  0
  3 11  1  0  0  0  0
  4  3  1  0  0  0  0
  6  4  2  0  0  0  0
  7  2  1  0  0  0  0
  7  4  1  0  0  0  0
  8 12  1  0  0  0  0
  8  7  1  0  0  0  0
  9  8  1  0  0  0  0
  9 15  1  0  0  0  0
  9  1  1  0  0  0  0
 10  3  1  0  0  0  0
 13  8  1  0  0  0  0
 14  9  1  0  0  0  0
M  END
