2
 OpenBabel05122313063D

 19 20  0  0  0  0  0  0  0  0999 V2000
    1.5182    0.5041   -1.5664 N   0  0  0  0  0  0  0  0  0  0  0  0
    1.5040   -0.4712   -0.6076 N   0  0  0  0  0  2  0  0  0  0  0  0
    2.6874   -0.5353   -0.0172 C   0  0  0  0  0  3  0  0  0  0  0  0
    2.9141   -1.2281    0.8081 H   0  0  0  0  0  0  0  0  0  0  0  0
    3.5085    0.4046   -0.5780 N   0  0  0  0  0  0  0  0  0  0  0  0
    2.7266    1.0249   -1.5385 C   0  0  0  0  0  0  0  0  0  0  0  0
    3.1017    1.8159   -2.1980 H   0  0  0  0  0  0  0  0  0  0  0  0
    4.8718    0.6662   -0.2501 C   0  0  0  0  0  0  0  0  0  0  0  0
    5.3329    1.9942   -0.2539 C   0  0  0  0  0  0  0  0  0  0  0  0
    4.6380    2.8205   -0.4696 H   0  0  0  0  0  0  0  0  0  0  0  0
    6.6800    2.2607    0.0586 C   0  0  0  0  0  0  0  0  0  0  0  0
    7.5461    1.1968    0.3878 C   0  0  0  0  0  0  0  0  0  0  0  0
    8.5916    1.4269    0.6362 H   0  0  0  0  0  0  0  0  0  0  0  0
    7.0620   -0.1148    0.3954 C   0  0  0  0  0  0  0  0  0  0  0  0
    7.7425   -0.9407    0.6500 H   0  0  0  0  0  0  0  0  0  0  0  0
    5.7263   -0.4003    0.0707 C   0  0  0  0  0  0  0  0  0  0  0  0
    5.3565   -1.4344    0.0489 H   0  0  0  0  0  0  0  0  0  0  0  0
    7.1922    3.5168    0.0729 O   0  0  0  0  0  0  0  0  0  0  0  0
    6.4906    4.1521   -0.1619 H   0  0  0  0  0  0  0  0  0  0  0  0
  1  6  2  0  0  0  0
  1  2  1  0  0  0  0
  2  3  1  0  0  0  0
  3  4  1  0  0  0  0
  5  8  1  0  0  0  0
  5  3  1  0  0  0  0
  6  5  1  0  0  0  0
  7  6  1  0  0  0  0
  8 16  1  0  0  0  0
  9  8  2  0  0  0  0
  9 11  1  0  0  0  0
 10  9  1  0  0  0  0
 11 18  1  0  0  0  0
 11 12  2  0  0  0  0
 12 14  1  0  0  0  0
 12 13  1  0  0  0  0
 14 15  1  0  0  0  0
 16 14  2  0  0  0  0
 17 16  1  0  0  0  0
 19 18  1  0  0  0  0
M  END
