4
 OpenBabel05122313063D

 21 22  0  0  1  0  0  0  0  0999 V2000
    9.2119    0.7434    0.1006 Br  0  0  0  0  0  0  0  0  0  0  0  0
    1.4859   -2.3799   -0.3657 N   0  0  0  0  0  0  0  0  0  0  0  0
    0.8201   -3.1369   -0.5134 H   0  0  0  0  0  0  0  0  0  0  0  0
    1.0361   -1.1085   -0.1528 N   0  0  0  0  0  2  0  0  0  0  0  0
    2.0540    1.0226    0.1657 N   0  0  0  0  0  0  0  0  0  0  0  0
    1.1725    1.3865    0.5334 H   0  0  0  0  0  0  0  0  0  0  0  0
    2.8937    1.4703    0.5377 H   0  0  0  0  0  0  0  0  0  0  0  0
    2.1378   -0.3256   -0.0373 C   0  0  2  0  0  3  0  0  0  0  0  0
    3.3194   -1.1240   -0.1891 C   0  0  0  0  0  0  0  0  0  0  0  0
    2.8375   -2.4211   -0.3923 C   0  0  0  0  0  0  0  0  0  0  0  0
    3.3771   -3.3571   -0.5726 H   0  0  0  0  0  0  0  0  0  0  0  0
    4.7178   -0.6745   -0.1171 C   0  0  0  0  0  0  0  0  0  0  0  0
    5.1130    0.5704   -0.6609 C   0  0  0  0  0  0  0  0  0  0  0  0
    4.3760    1.2026   -1.1795 H   0  0  0  0  0  0  0  0  0  0  0  0
    6.4456    0.9972   -0.5975 C   0  0  0  0  0  0  0  0  0  0  0  0
    6.7429    1.9622   -1.0313 H   0  0  0  0  0  0  0  0  0  0  0  0
    7.4078    0.1729    0.0092 C   0  0  0  0  0  0  0  0  0  0  0  0
    7.0416   -1.0728    0.5488 C   0  0  0  0  0  0  0  0  0  0  0  0
    7.8001   -1.7099    1.0249 H   0  0  0  0  0  0  0  0  0  0  0  0
    5.7059   -1.4846    0.4876 C   0  0  0  0  0  0  0  0  0  0  0  0
    5.4216   -2.4485    0.9365 H   0  0  0  0  0  0  0  0  0  0  0  0
  2  4  1  0  0  0  0
  3  2  1  0  0  0  0
  4  8  1  0  0  0  0
  5  6  1  0  0  0  0
  5  7  1  0  0  0  0
  8  5  1  6  0  0  0
  9 12  1  0  0  0  0
  9  8  1  0  0  0  0
 10  2  1  0  0  0  0
 10  9  2  0  0  0  0
 11 10  1  0  0  0  0
 12 20  1  0  0  0  0
 13 15  1  0  0  0  0
 13 12  2  0  0  0  0
 14 13  1  0  0  0  0
 15 17  2  0  0  0  0
 16 15  1  0  0  0  0
 17  1  1  0  0  0  0
 17 18  1  0  0  0  0
 18 19  1  0  0  0  0
 20 18  2  0  0  0  0
 20 21  1  0  0  0  0
M  END
