1
 OpenBabel05122313063D

 24 24  0  0  0  0  0  0  0  0999 V2000
    1.9362    0.5789   -0.1674 N   0  0  0  0  0  2  0  0  0  0  0  0
    2.9369   -0.3137    0.0109 C   0  0  0  0  0  3  0  0  0  0  0  0
    4.2872    0.0445   -0.1242 C   0  0  0  0  0  0  0  0  0  0  0  0
    4.6017    1.3798   -0.4342 C   0  0  0  0  0  0  0  0  0  0  0  0
    3.5585    2.2986   -0.6053 C   0  0  0  0  0  0  0  0  0  0  0  0
    2.2369    1.8700   -0.4674 C   0  0  0  0  0  0  0  0  0  0  0  0
    1.3772    2.5491   -0.5529 H   0  0  0  0  0  0  0  0  0  0  0  0
    3.7590    3.3543   -0.8355 H   0  0  0  0  0  0  0  0  0  0  0  0
    5.6474    1.7163   -0.5104 H   0  0  0  0  0  0  0  0  0  0  0  0
    5.3028   -1.0412    0.1257 C   0  0  0  0  0  0  0  0  0  0  0  0
    5.0289   -2.0393    0.7900 O   0  0  0  0  0  0  0  0  0  0  0  0
    6.5354   -0.8357   -0.4451 N   0  0  0  0  0  0  0  0  0  0  0  0
    7.6306   -1.7610   -0.2547 C   0  0  0  0  0  0  0  0  0  0  0  0
    8.8219   -1.1084    0.4342 C   0  0  0  0  0  0  0  0  0  0  0  0
    9.2221   -0.0351   -0.4325 O   0  0  0  0  0  0  0  0  0  0  0  0
   10.3213    0.7691    0.0989 N   0  0  0  0  0  0  0  0  0  0  0  0
   10.7804    0.4177    1.1617 O   0  0  0  0  0  0  0  0  0  0  0  0
   10.6069    1.6809   -0.6302 O   0  0  0  0  0  0  0  0  0  0  0  0
    8.5395   -0.7094    1.4313 H   0  0  0  0  0  0  0  0  0  0  0  0
    9.6537   -1.8329    0.5664 H   0  0  0  0  0  0  0  0  0  0  0  0
    7.2439   -2.5860    0.3770 H   0  0  0  0  0  0  0  0  0  0  0  0
    7.9529   -2.1936   -1.2266 H   0  0  0  0  0  0  0  0  0  0  0  0
    6.6953   -0.0277   -1.0467 H   0  0  0  0  0  0  0  0  0  0  0  0
    2.6514   -1.3486    0.2436 H   0  0  0  0  0  0  0  0  0  0  0  0
  1  2  1  0  0  0  0
  2 24  1  0  0  0  0
  3  2  1  0  0  0  0
  3 10  1  0  0  0  0
  4  3  2  0  0  0  0
  5  6  2  0  0  0  0
  5  4  1  0  0  0  0
  6  1  1  0  0  0  0
  7  6  1  0  0  0  0
  8  5  1  0  0  0  0
  9  4  1  0  0  0  0
 10 11  2  0  0  0  0
 12 13  1  0  0  0  0
 12 10  1  0  0  0  0
 13 21  1  0  0  0  0
 13 14  1  0  0  0  0
 14 20  1  0  0  0  0
 14 19  1  0  0  0  0
 15 16  1  0  0  0  0
 15 14  1  0  0  0  0
 16 17  2  0  0  0  0
 18 16  2  0  0  0  0
 22 13  1  0  0  0  0
 23 12  1  0  0  0  0
M  END
