1
 OpenBabel05122313063D

 32 35  0  0  0  0  0  0  0  0999 V2000
    1.9013   -0.6235   -0.3006 N   0  0  0  0  0  2  0  0  0  0  0  0
   -0.0804    1.3793   -0.2621 N   0  0  0  0  0  2  0  0  0  0  0  0
    2.8289   -1.5702   -0.4962 C   0  0  0  0  0  0  0  0  0  0  0  0
    2.4636   -2.6057   -0.5526 H   0  0  0  0  0  0  0  0  0  0  0  0
    4.1961   -1.2597   -0.6098 C   0  0  0  0  0  0  0  0  0  0  0  0
    4.9216   -2.0692   -0.7683 H   0  0  0  0  0  0  0  0  0  0  0  0
    4.5908    0.0657   -0.4854 C   0  0  0  0  0  0  0  0  0  0  0  0
    5.6547    0.3446   -0.5300 H   0  0  0  0  0  0  0  0  0  0  0  0
    3.6190    1.0813   -0.3014 C   0  0  0  0  0  0  0  0  0  0  0  0
    2.2374    0.6987   -0.2511 C   0  0  0  0  0  0  0  0  0  0  0  0
    3.9834    2.4632   -0.1596 C   0  0  0  0  0  0  0  0  0  0  0  0
    5.0514    2.7255   -0.1877 H   0  0  0  0  0  0  0  0  0  0  0  0
    3.0236    3.4293    0.0201 C   0  0  0  0  0  0  0  0  0  0  0  0
    3.3090    4.4849    0.1475 H   0  0  0  0  0  0  0  0  0  0  0  0
    1.6315    3.0897    0.0193 C   0  0  0  0  0  0  0  0  0  0  0  0
    1.2131    1.7308   -0.1553 C   0  0  0  0  0  0  0  0  0  0  0  0
    0.6005    4.0578    0.1576 C   0  0  0  0  0  0  0  0  0  0  0  0
    0.8709    5.1152    0.3018 H   0  0  0  0  0  0  0  0  0  0  0  0
   -0.7259    3.6697    0.0894 C   0  0  0  0  0  0  0  0  0  0  0  0
   -1.5279    4.4157    0.1726 H   0  0  0  0  0  0  0  0  0  0  0  0
   -1.0485    2.2967   -0.1486 C   0  0  0  0  0  0  0  0  0  0  0  0
   -2.4479    1.8409   -0.3021 C   0  0  0  0  0  0  0  0  0  0  0  0
   -3.5205    2.5466    0.2906 C   0  0  0  0  0  0  0  0  0  0  0  0
   -3.3254    3.4437    0.8970 H   0  0  0  0  0  0  0  0  0  0  0  0
   -4.8350    2.0842    0.1562 C   0  0  0  0  0  0  0  0  0  0  0  0
   -5.6586    2.6325    0.6378 H   0  0  0  0  0  0  0  0  0  0  0  0
   -5.0989    0.9144   -0.5762 C   0  0  0  0  0  0  0  0  0  0  0  0
   -6.1323    0.5487   -0.6752 H   0  0  0  0  0  0  0  0  0  0  0  0
   -4.0412    0.2105   -1.1728 C   0  0  0  0  0  0  0  0  0  0  0  0
   -4.2328   -0.7136   -1.7377 H   0  0  0  0  0  0  0  0  0  0  0  0
   -2.7260    0.6687   -1.0405 C   0  0  0  0  0  0  0  0  0  0  0  0
   -1.9029    0.1174   -1.5162 H   0  0  0  0  0  0  0  0  0  0  0  0
  1 10  1  0  0  0  0
  2 16  1  0  0  0  0
  2 21  1  0  0  0  0
  3  1  1  0  0  0  0
  4  3  1  0  0  0  0
  5  3  2  0  0  0  0
  5  7  1  0  0  0  0
  6  5  1  0  0  0  0
  7  9  2  0  0  0  0
  8  7  1  0  0  0  0
  9 10  1  0  0  0  0
  9 11  1  0  0  0  0
 10 16  2  0  0  0  0
 11 13  2  0  0  0  0
 12 11  1  0  0  0  0
 13 14  1  0  0  0  0
 15 13  1  0  0  0  0
 15 17  2  0  0  0  0
 16 15  1  0  0  0  0
 17 18  1  0  0  0  0
 19 17  1  0  0  0  0
 19 20  1  0  0  0  0
 21 19  2  0  0  0  0
 22 21  1  0  0  0  0
 22 23  1  0  0  0  0
 23 24  1  0  0  0  0
 25 23  2  0  0  0  0
 25 26  1  0  0  0  0
 27 25  1  0  0  0  0
 28 27  1  0  0  0  0
 29 31  1  0  0  0  0
 29 27  2  0  0  0  0
 30 29  1  0  0  0  0
 31 22  2  0  0  0  0
 32 31  1  0  0  0  0
M  END
