3
 OpenBabel05122313063D

 29 31  0  0  1  0  0  0  0  0999 V2000
   -0.8181   -1.1717   -1.6546 S   0  0  0  0  0  0  0  0  0  0  0  0
   -0.5579    3.3706    0.1052 S   0  0  0  0  0  0  0  0  0  0  0  0
    0.6950    1.1379   -0.4089 N   0  0  0  0  0  2  0  0  0  0  0  0
   -1.7319    1.0136   -0.2308 N   0  0  0  0  0  2  0  0  0  0  0  0
   -3.2383   -0.6770   -0.7627 N   0  0  0  0  0  0  0  0  0  0  0  0
   -3.2970   -1.6013   -1.1972 H   0  0  0  0  0  0  0  0  0  0  0  0
   -1.9621   -0.1638   -0.7935 C   0  0  0  0  0  0  0  0  0  0  0  0
    3.0662    1.9243   -0.5078 C   0  0  0  0  0  0  0  0  0  0  0  0
    3.4240    0.9338   -0.8219 H   0  0  0  0  0  0  0  0  0  0  0  0
    1.6820    2.1158   -0.3274 C   0  0  0  0  0  0  0  0  0  0  0  0
   -0.5433    1.6236   -0.2362 C   0  0  1  0  0  3  0  0  0  0  0  0
   -4.4665   -0.1442   -0.3340 C   0  0  0  0  0  0  0  0  0  0  0  0
    3.9238    3.0191   -0.3514 C   0  0  0  0  0  0  0  0  0  0  0  0
    5.0050    2.8791   -0.5010 H   0  0  0  0  0  0  0  0  0  0  0  0
    2.0502    4.5118    0.1316 C   0  0  0  0  0  0  0  0  0  0  0  0
    1.6550    5.5099    0.3700 H   0  0  0  0  0  0  0  0  0  0  0  0
    1.1870    3.4165   -0.0231 C   0  0  0  0  0  0  0  0  0  0  0  0
    3.4265    4.2993   -0.0267 C   0  0  0  0  0  0  0  0  0  0  0  0
    4.1210    5.1446    0.0901 H   0  0  0  0  0  0  0  0  0  0  0  0
   -5.6148   -0.9415   -0.5579 C   0  0  0  0  0  0  0  0  0  0  0  0
   -5.5064   -1.9174   -1.0588 H   0  0  0  0  0  0  0  0  0  0  0  0
   -4.6126    1.1080    0.3050 C   0  0  0  0  0  0  0  0  0  0  0  0
   -3.7206    1.7195    0.4782 H   0  0  0  0  0  0  0  0  0  0  0  0
   -7.0256    0.7458    0.4773 C   0  0  0  0  0  0  0  0  0  0  0  0
   -8.0192    1.0953    0.7943 H   0  0  0  0  0  0  0  0  0  0  0  0
   -6.8788   -0.4999   -0.1549 C   0  0  0  0  0  0  0  0  0  0  0  0
   -7.7576   -1.1359   -0.3404 H   0  0  0  0  0  0  0  0  0  0  0  0
   -5.8877    1.5368    0.6986 C   0  0  0  0  0  0  0  0  0  0  0  0
   -5.9879    2.5153    1.1930 H   0  0  0  0  0  0  0  0  0  0  0  0
  1  7  2  0  0  0  0
  3 10  1  0  0  0  0
  3 11  1  0  0  0  0
  5 12  1  0  0  0  0
  6  5  1  0  0  0  0
  7  5  1  0  0  0  0
  7  4  1  0  0  0  0
  8 13  2  0  0  0  0
  8 10  1  0  0  0  0
  9  8  1  0  0  0  0
 10 17  2  0  0  0  0
 11  4  1  1  0  0  0
 11  2  1  0  0  0  0
 12 22  1  0  0  0  0
 13 18  1  0  0  0  0
 14 13  1  0  0  0  0
 15 16  1  0  0  0  0
 17  2  1  0  0  0  0
 17 15  1  0  0  0  0
 18 19  1  0  0  0  0
 18 15  2  0  0  0  0
 20 12  2  0  0  0  0
 20 26  1  0  0  0  0
 21 20  1  0  0  0  0
 22 23  1  0  0  0  0
 22 28  2  0  0  0  0
 24 28  1  0  0  0  0
 24 25  1  0  0  0  0
 26 24  2  0  0  0  0
 27 26  1  0  0  0  0
 28 29  1  0  0  0  0
M  END
