1
 OpenBabel05122313063D

 25 27  0  0  1  0  0  0  0  0999 V2000
    0.9629    0.0192   -0.1098 N   0  0  0  0  0  2  0  0  0  0  0  0
    5.1540   -0.2690    0.2814 N   0  0  0  0  0  0  0  0  0  0  0  0
    5.6466   -1.0049   -0.2192 H   0  0  0  0  0  0  0  0  0  0  0  0
    5.6899    0.5745    0.4719 H   0  0  0  0  0  0  0  0  0  0  0  0
    3.6319   -2.5115   -0.7475 C   0  0  0  0  0  0  0  0  0  0  0  0
    4.7143   -2.6671   -0.6208 H   0  0  0  0  0  0  0  0  0  0  0  0
    2.8734   -3.5404   -1.2768 C   0  0  0  0  0  0  0  0  0  0  0  0
    3.3541   -4.4827   -1.5778 H   0  0  0  0  0  0  0  0  0  0  0  0
    1.4673   -3.3788   -1.4188 C   0  0  0  0  0  0  0  0  0  0  0  0
    0.8623   -4.1987   -1.8342 H   0  0  0  0  0  0  0  0  0  0  0  0
    0.8519   -2.2042   -1.0297 C   0  0  0  0  0  0  0  0  0  0  0  0
   -0.2365   -2.0549   -1.1155 H   0  0  0  0  0  0  0  0  0  0  0  0
    0.9747    2.2031    0.9058 C   0  0  0  0  0  0  0  0  0  0  0  0
   -0.1158    2.2227    0.7544 H   0  0  0  0  0  0  0  0  0  0  0  0
    1.6516    3.2522    1.4976 C   0  0  0  0  0  0  0  0  0  0  0  0
    1.0943    4.1404    1.8309 H   0  0  0  0  0  0  0  0  0  0  0  0
    3.0603    3.1905    1.6852 C   0  0  0  0  0  0  0  0  0  0  0  0
    3.5899    4.0251    2.1676 H   0  0  0  0  0  0  0  0  0  0  0  0
    3.7597    2.0716    1.2697 C   0  0  0  0  0  0  0  0  0  0  0  0
    4.8450    2.0320    1.4497 H   0  0  0  0  0  0  0  0  0  0  0  0
    3.7972   -0.1915    0.1904 C   0  0  0  0  0  0  0  0  0  0  0  0
    1.6672    1.0330    0.4654 C   0  0  2  0  0  3  0  0  0  0  0  0
    3.0972    0.9695    0.6479 C   0  0  0  0  0  0  0  0  0  0  0  0
    3.0345   -1.2797   -0.3405 C   0  0  0  0  0  0  0  0  0  0  0  0
    1.6065   -1.1222   -0.4794 C   0  0  0  0  0  0  0  0  0  0  0  0
  2  4  1  0  0  0  0
  3  2  1  0  0  0  0
  5  6  1  0  0  0  0
  5 24  1  0  0  0  0
  7  5  2  0  0  0  0
  8  7  1  0  0  0  0
  9  7  1  0  0  0  0
  9 11  2  0  0  0  0
 10  9  1  0  0  0  0
 11 25  1  0  0  0  0
 12 11  1  0  0  0  0
 13 15  2  0  0  0  0
 14 13  1  0  0  0  0
 15 17  1  0  0  0  0
 15 16  1  0  0  0  0
 17 18  1  0  0  0  0
 19 20  1  0  0  0  0
 19 17  2  0  0  0  0
 21  2  1  0  0  0  0
 21 23  2  0  0  0  0
 22  1  1  6  0  0  0
 22 23  1  0  0  0  0
 22 13  1  0  0  0  0
 23 19  1  0  0  0  0
 24 21  1  0  0  0  0
 25 24  2  0  0  0  0
 25  1  1  0  0  0  0
M  END
