3
 OpenBabel05122313063D

 19 19  0  0  0  0  0  0  0  0999 V2000
   -4.7998    1.6275   -1.8581 O   0  0  0  0  0  0  0  0  0  0  0  0
   -5.5320    3.3297    1.1138 O   0  0  0  0  0  0  0  0  0  0  0  0
   -1.5295   -1.4628   -0.2411 N   0  0  0  0  0  2  0  0  0  0  0  0
   -3.6967    2.1674    0.0842 N   0  0  0  0  0  0  0  0  0  0  0  0
   -2.1358   -0.2622   -0.2246 C   0  0  0  0  0  3  0  0  0  0  0  0
   -3.2906    0.0045   -0.9741 C   0  0  0  0  0  0  0  0  0  0  0  0
   -3.7929   -1.0215   -1.7969 C   0  0  0  0  0  0  0  0  0  0  0  0
   -3.1611   -2.2706   -1.8014 C   0  0  0  0  0  0  0  0  0  0  0  0
   -2.0308   -2.4605   -0.9949 C   0  0  0  0  0  0  0  0  0  0  0  0
   -4.0064    1.3341   -0.9675 C   0  0  0  0  0  0  0  0  0  0  0  0
   -5.2329    3.2331    2.0366 H   0  0  0  0  0  0  0  0  0  0  0  0
   -3.1231    1.8000    0.8464 H   0  0  0  0  0  0  0  0  0  0  0  0
   -1.6453    0.4787    0.4323 H   0  0  0  0  0  0  0  0  0  0  0  0
   -4.6807   -0.8051   -2.4105 H   0  0  0  0  0  0  0  0  0  0  0  0
   -3.5409   -3.0993   -2.4161 H   0  0  0  0  0  0  0  0  0  0  0  0
   -1.4997   -3.4244   -0.9086 H   0  0  0  0  0  0  0  0  0  0  0  0
   -4.7523    3.7440   -0.7060 H   0  0  0  0  0  0  0  0  0  0  0  0
   -3.6559    4.1641    0.6743 H   0  0  0  0  0  0  0  0  0  0  0  0
   -4.3957    3.4235    0.2913 C   0  0  0  0  0  0  0  0  0  0  0  0
  1 10  2  0  0  0  0
  2 11  1  0  0  0  0
  3  5  1  0  0  0  0
  4 19  1  0  0  0  0
  4 12  1  0  0  0  0
  5 13  1  0  0  0  0
  6 10  1  0  0  0  0
  6  5  1  0  0  0  0
  7  6  2  0  0  0  0
  8  7  1  0  0  0  0
  8  9  2  0  0  0  0
  9 16  1  0  0  0  0
  9  3  1  0  0  0  0
 10  4  1  0  0  0  0
 14  7  1  0  0  0  0
 15  8  1  0  0  0  0
 17 19  1  0  0  0  0
 19 18  1  0  0  0  0
 19  2  1  0  0  0  0
M  END
