13
q = 0.0, confidence = 1.0

 18 19  0  0  0  0  0  0  0  0999 V2000
   -2.0533   -0.9420    2.3487 C   0  0  0  0  0  3  0  0  0  0  0  0
   -1.4557   -1.3120    3.1902 H   0  0  0  0  0  0  0  0  0  0  0  0
   -2.6896   -0.2972    0.3544 C   0  0  0  0  0  0  0  0  0  0  0  0
   -3.8075   -0.1550    1.2231 C   0  0  0  0  0  0  0  0  0  0  0  0
   -5.0439    0.3219    0.7776 C   0  0  0  0  0  0  0  0  0  0  0  0
   -5.9257    0.4432    1.4230 H   0  0  0  0  0  0  0  0  0  0  0  0
   -5.1354    0.6596   -0.5814 C   0  0  0  0  0  0  0  0  0  0  0  0
   -4.0243    0.5226   -1.4584 C   0  0  0  0  0  0  0  0  0  0  0  0
   -4.1532    0.8034   -2.5123 H   0  0  0  0  0  0  0  0  0  0  0  0
   -2.7933    0.0452   -1.0058 C   0  0  0  0  0  0  0  0  0  0  0  0
   -1.9336   -0.0593   -1.6840 H   0  0  0  0  0  0  0  0  0  0  0  0
   -6.4643    1.1715   -1.0545 C   0  0  0  0  0  0  0  0  0  0  0  0
   -1.6150   -0.7918    1.0958 N   0  0  0  0  0  2  0  0  0  0  0  0
   -3.3542   -0.5750    2.4691 N   0  0  0  0  0  0  0  0  0  0  0  0
   -3.8997   -0.6029    3.3328 H   0  0  0  0  0  0  0  0  0  0  0  0
   -6.4628    1.4730   -2.3720 O   0  0  0  0  0  0  0  0  0  0  0  0
   -7.3665    1.7960   -2.5807 H   0  0  0  0  0  0  0  0  0  0  0  0
   -7.4349    1.3003   -0.3314 O   0  0  0  0  0  0  0  0  0  0  0  0
  1 14  1  0  0  0  0
  1  2  1  0  0  0  0
  3 13  1  0  0  0  0
  3  4  1  0  0  0  0
  4 14  1  0  0  0  0
  5  4  2  0  0  0  0
  5  6  1  0  0  0  0
  7  5  1  0  0  0  0
  8 10  1  0  0  0  0
  8  7  2  0  0  0  0
  9  8  1  0  0  0  0
 10  3  2  0  0  0  0
 11 10  1  0  0  0  0
 12  7  1  0  0  0  0
 12 18  2  0  0  0  0
 13  1  1  0  0  0  0
 14 15  1  0  0  0  0
 16 12  1  0  0  0  0
 17 16  1  0  0  0  0
M  END
