1
 OpenBabel05122313063D

  9  8  0  0  0  0  0  0  0  0999 V2000
   -1.9295    0.5107    0.7160 N   0  0  0  0  0  0  0  0  0  0  0  0
   -6.3619   -0.6699   -1.0976 N   0  0  0  0  0  0  0  0  0  0  0  0
   -2.9530    0.0274   -0.2583 C   0  0  0  0  0  0  0  0  0  0  0  0
   -4.2732   -0.0841    0.2690 C   0  0  0  0  0  2  0  0  0  0  0  0
   -5.3413   -0.4081   -0.5374 C   0  0  0  0  0  0  0  0  0  0  0  0
   -1.9998    1.5334    0.8642 H   0  0  0  0  0  0  0  0  0  0  0  0
   -2.0825    0.0686    1.6421 H   0  0  0  0  0  0  0  0  0  0  0  0
   -2.6182   -1.0320   -0.5435 H   0  0  0  0  0  0  0  0  0  0  0  0
   -2.7796    0.5523   -1.2313 H   0  0  0  0  0  0  0  0  0  0  0  0
  1  6  1  0  0  0  0
  1  7  1  0  0  0  0
  2  5  3  0  0  0  0
  3  4  1  0  0  0  0
  3  1  1  0  0  0  0
  5  4  1  0  0  0  0
  8  3  1  0  0  0  0
  9  3  1  0  0  0  0
M  END
