1
 OpenBabel05122313063D

 41 43  0  0  0  0  0  0  0  0999 V2000
   -0.3203   -0.7357   -0.2989 N   0  0  0  0  0  2  0  0  0  0  0  0
   -0.6458    0.6022   -0.3835 C   0  0  0  0  0  3  0  0  0  0  0  0
    0.4266    1.5250   -0.6365 C   0  0  0  0  0  0  0  0  0  0  0  0
    1.6965    1.0357   -1.1294 C   0  0  0  0  0  0  0  0  0  0  0  0
    1.6460    0.1135   -1.7346 H   0  0  0  0  0  0  0  0  0  0  0  0
    2.7820    1.9275   -1.3695 C   0  0  0  0  0  0  0  0  0  0  0  0
    3.7037    1.5240   -1.8206 H   0  0  0  0  0  0  0  0  0  0  0  0
    2.7105    3.2719   -1.0353 C   0  0  0  0  0  0  0  0  0  0  0  0
    1.4695    3.7454   -0.4813 C   0  0  0  0  0  0  0  0  0  0  0  0
    1.3926    4.8071   -0.1945 H   0  0  0  0  0  0  0  0  0  0  0  0
    0.3765    2.9223   -0.2921 C   0  0  0  0  0  0  0  0  0  0  0  0
   -0.5425    3.3338    0.1493 H   0  0  0  0  0  0  0  0  0  0  0  0
    3.8600    4.2235   -1.2367 C   0  0  0  0  0  0  0  0  0  0  0  0
    4.1772    4.6908   -0.2794 H   0  0  0  0  0  0  0  0  0  0  0  0
    3.5843    5.0575   -1.9175 H   0  0  0  0  0  0  0  0  0  0  0  0
    4.7416    3.7118   -1.6696 H   0  0  0  0  0  0  0  0  0  0  0  0
   -2.0123    1.0659   -0.0564 C   0  0  0  0  0  0  0  0  0  0  0  0
   -2.6400    2.1030   -0.7846 C   0  0  0  0  0  0  0  0  0  0  0  0
   -2.1042    2.5689   -1.6254 H   0  0  0  0  0  0  0  0  0  0  0  0
   -3.9392    2.5219   -0.4714 C   0  0  0  0  0  0  0  0  0  0  0  0
   -4.4053    3.3262   -1.0628 H   0  0  0  0  0  0  0  0  0  0  0  0
   -4.6699    1.9258    0.5761 C   0  0  0  0  0  0  0  0  0  0  0  0
   -4.0444    0.8881    1.3011 C   0  0  0  0  0  0  0  0  0  0  0  0
   -4.5884    0.4035    2.1279 H   0  0  0  0  0  0  0  0  0  0  0  0
   -2.7494    0.4639    0.9932 C   0  0  0  0  0  0  0  0  0  0  0  0
   -2.2882   -0.3487    1.5725 H   0  0  0  0  0  0  0  0  0  0  0  0
   -6.0732    2.3635    0.9093 C   0  0  0  0  0  0  0  0  0  0  0  0
   -6.1661    2.6488    1.9781 H   0  0  0  0  0  0  0  0  0  0  0  0
   -6.8034    1.5450    0.7340 H   0  0  0  0  0  0  0  0  0  0  0  0
   -6.3876    3.2310    0.2974 H   0  0  0  0  0  0  0  0  0  0  0  0
   -1.2812   -1.7206   -0.5802 C   0  0  0  0  0  0  0  0  0  0  0  0
   -2.1490   -1.6052   -1.6922 C   0  0  0  0  0  0  0  0  0  0  0  0
   -2.0714   -0.7161   -2.3349 H   0  0  0  0  0  0  0  0  0  0  0  0
   -3.0809   -2.6112   -1.9741 C   0  0  0  0  0  0  0  0  0  0  0  0
   -3.7439   -2.5050   -2.8467 H   0  0  0  0  0  0  0  0  0  0  0  0
   -3.1682   -3.7543   -1.1606 C   0  0  0  0  0  0  0  0  0  0  0  0
   -3.9008   -4.5433   -1.3867 H   0  0  0  0  0  0  0  0  0  0  0  0
   -2.3115   -3.8757   -0.0541 C   0  0  0  0  0  0  0  0  0  0  0  0
   -2.3750   -4.7610    0.5975 H   0  0  0  0  0  0  0  0  0  0  0  0
   -1.3827   -2.8686    0.2384 C   0  0  0  0  0  0  0  0  0  0  0  0
   -0.7225   -2.9397    1.1147 H   0  0  0  0  0  0  0  0  0  0  0  0
  2  1  1  0  0  0  0
  2 17  1  0  0  0  0
  3  2  1  0  0  0  0
  3 11  1  0  0  0  0
  4  3  2  0  0  0  0
  5  4  1  0  0  0  0
  6  4  1  0  0  0  0
  6  8  2  0  0  0  0
  7  6  1  0  0  0  0
  8  9  1  0  0  0  0
  9 11  2  0  0  0  0
  9 10  1  0  0  0  0
 11 12  1  0  0  0  0
 13  8  1  0  0  0  0
 13 14  1  0  0  0  0
 15 13  1  0  0  0  0
 16 13  1  0  0  0  0
 17 25  1  0  0  0  0
 18 20  1  0  0  0  0
 18 17  2  0  0  0  0
 19 18  1  0  0  0  0
 20 22  2  0  0  0  0
 21 20  1  0  0  0  0
 22 27  1  0  0  0  0
 22 23  1  0  0  0  0
 23 24  1  0  0  0  0
 25 23  2  0  0  0  0
 25 26  1  0  0  0  0
 27 28  1  0  0  0  0
 29 27  1  0  0  0  0
 30 27  1  0  0  0  0
 31  1  1  0  0  0  0
 31 40  1  0  0  0  0
 32 31  2  0  0  0  0
 33 32  1  0  0  0  0
 34 32  1  0  0  0  0
 34 36  2  0  0  0  0
 35 34  1  0  0  0  0
 36 38  1  0  0  0  0
 37 36  1  0  0  0  0
 38 40  2  0  0  0  0
 38 39  1  0  0  0  0
 40 41  1  0  0  0  0
M  END
