1
 OpenBabel05122313063D

 41 46  0  0  1  0  0  0  0  0999 V2000
    0.7514   -1.0624   -0.8469 N   0  0  0  0  0  2  0  0  0  0  0  0
    1.6275   -0.1929   -1.4820 C   0  0  0  0  0  0  0  0  0  0  0  0
    1.1066    0.8021   -2.3462 C   0  0  0  0  0  0  0  0  0  0  0  0
    0.0134    0.8650   -2.4482 H   0  0  0  0  0  0  0  0  0  0  0  0
    1.9655    1.6304   -3.0553 C   0  0  0  0  0  0  0  0  0  0  0  0
    1.5554    2.3907   -3.7364 H   0  0  0  0  0  0  0  0  0  0  0  0
    3.3662    1.4749   -2.9257 C   0  0  0  0  0  0  0  0  0  0  0  0
    4.0466    2.1047   -3.5178 H   0  0  0  0  0  0  0  0  0  0  0  0
    3.8907    0.5242   -2.0591 C   0  0  0  0  0  0  0  0  0  0  0  0
    4.9781    0.4022   -1.9738 H   0  0  0  0  0  0  0  0  0  0  0  0
    3.0410   -0.3172   -1.2915 C   0  0  0  0  0  0  0  0  0  0  0  0
    3.5261   -1.3206   -0.3620 C   0  0  0  0  0  0  0  0  0  0  0  0
    4.8605   -1.3726    0.1920 C   0  0  0  0  0  0  0  0  0  0  0  0
    5.7221   -0.2226    0.3940 C   0  0  0  0  0  0  0  0  0  0  0  0
    5.2359    1.1374    0.5905 C   0  0  0  0  0  0  0  0  0  0  0  0
    3.8813    1.4509    0.8958 C   0  0  0  0  0  0  0  0  0  0  0  0
    3.1507    0.6484    1.0527 H   0  0  0  0  0  0  0  0  0  0  0  0
    3.4464    2.7649    1.0204 C   0  0  0  0  0  0  0  0  0  0  0  0
    2.3847    2.9545    1.2378 H   0  0  0  0  0  0  0  0  0  0  0  0
    4.3579    3.8361    0.8631 C   0  0  0  0  0  0  0  0  0  0  0  0
    4.0071    4.8759    0.9450 H   0  0  0  0  0  0  0  0  0  0  0  0
    5.7034    3.5658    0.6475 C   0  0  0  0  0  0  0  0  0  0  0  0
    6.4355    4.3858    0.5818 H   0  0  0  0  0  0  0  0  0  0  0  0
    6.1746    2.2277    0.5367 C   0  0  1  0  0  3  0  0  0  0  0  0
    7.5778    1.9496    0.4331 C   0  0  0  0  0  0  0  0  0  0  0  0
    8.2805    2.7958    0.3846 H   0  0  0  0  0  0  0  0  0  0  0  0
    8.0401    0.6564    0.4746 C   0  0  0  0  0  0  0  0  0  0  0  0
    9.1205    0.4454    0.4907 H   0  0  0  0  0  0  0  0  0  0  0  0
    7.1306   -0.4534    0.4931 C   0  0  0  0  0  0  0  0  0  0  0  0
    7.6235   -1.7870    0.6531 C   0  0  0  0  0  0  0  0  0  0  0  0
    8.7103   -1.9363    0.7458 H   0  0  0  0  0  0  0  0  0  0  0  0
    6.7566   -2.8503    0.7787 C   0  0  0  0  0  0  0  0  0  0  0  0
    7.1297   -3.8580    1.0169 H   0  0  0  0  0  0  0  0  0  0  0  0
    5.3555   -2.6717    0.5612 C   0  0  0  0  0  0  0  0  0  0  0  0
    4.4467   -3.7683    0.7153 C   0  0  0  0  0  0  0  0  0  0  0  0
    4.8497   -4.7376    1.0460 H   0  0  0  0  0  0  0  0  0  0  0  0
    3.0947   -3.5991    0.5141 C   0  0  0  0  0  0  0  0  0  0  0  0
    2.3770   -4.4052    0.7280 H   0  0  0  0  0  0  0  0  0  0  0  0
    2.6191   -2.3768   -0.0523 C   0  0  0  0  0  0  0  0  0  0  0  0
    1.2259   -2.1572   -0.2763 C   0  0  0  0  0  0  0  0  0  0  0  0
    0.4797   -2.8859    0.0791 H   0  0  0  0  0  0  0  0  0  0  0  0
  1 40  1  0  0  0  0
  2 11  1  0  0  0  0
  2  1  1  0  0  0  0
  3  2  2  0  0  0  0
  4  3  1  0  0  0  0
  5  7  2  0  0  0  0
  5  3  1  0  0  0  0
  6  5  1  0  0  0  0
  7  9  1  0  0  0  0
  8  7  1  0  0  0  0
  9 10  1  0  0  0  0
  9 11  2  0  0  0  0
 11 12  1  0  0  0  0
 12 39  1  0  0  0  0
 12 13  2  0  0  0  0
 13 14  1  0  0  0  0
 13 34  1  0  0  0  0
 14 29  1  0  0  0  0
 14 15  2  0  0  0  0
 15 16  1  0  0  0  0
 16 18  2  0  0  0  0
 16 17  1  0  0  0  0
 18 19  1  0  0  0  0
 20 21  1  0  0  0  0
 20 18  1  0  0  0  0
 22 20  2  0  0  0  0
 23 22  1  0  0  0  0
 24 25  1  1  0  0  0
 24 15  1  0  0  0  0
 24 22  1  0  0  0  0
 25 27  2  0  0  0  0
 26 25  1  0  0  0  0
 27 28  1  0  0  0  0
 27 29  1  0  0  0  0
 29 30  2  0  0  0  0
 30 31  1  0  0  0  0
 30 32  1  0  0  0  0
 32 33  1  0  0  0  0
 34 35  1  0  0  0  0
 34 32  2  0  0  0  0
 35 36  1  0  0  0  0
 37 35  2  0  0  0  0
 37 38  1  0  0  0  0
 39 37  1  0  0  0  0
 40 39  2  0  0  0  0
 40 41  1  0  0  0  0
M  END
