12
 OpenBabel05122313063D

 17 17  0  0  1  0  0  0  0  0999 V2000
   -4.1496    0.9194   -0.8318 C   0  0  1  0  0  3  0  0  0  0  0  0
   -4.2619   -0.0814    0.1517 C   0  0  0  0  0  0  0  0  0  0  0  0
   -2.9549   -0.5369    0.4664 C   0  0  0  0  0  0  0  0  0  0  0  0
   -5.1648    1.7456   -1.5338 C   0  0  0  0  0  0  0  0  0  0  0  0
   -4.6959    2.4425   -2.2539 H   0  0  0  0  0  0  0  0  0  0  0  0
   -5.7623    2.3207   -0.7997 H   0  0  0  0  0  0  0  0  0  0  0  0
   -5.8851    1.0943   -2.0664 H   0  0  0  0  0  0  0  0  0  0  0  0
   -2.5189   -1.5757    1.4369 C   0  0  0  0  0  0  0  0  0  0  0  0
   -1.4159   -1.6834    1.4287 H   0  0  0  0  0  0  0  0  0  0  0  0
   -2.9864   -2.5511    1.1997 H   0  0  0  0  0  0  0  0  0  0  0  0
   -2.8549   -1.3174    2.4601 H   0  0  0  0  0  0  0  0  0  0  0  0
   -2.0840    0.1583   -0.2957 N   0  0  0  0  0  2  0  0  0  0  0  0
   -2.8192    1.0168   -1.0576 N   0  0  0  0  0  0  0  0  0  0  0  0
   -2.3565    1.6478   -1.7149 H   0  0  0  0  0  0  0  0  0  0  0  0
   -5.5019   -0.5538    0.7323 N   0  0  0  0  0  0  0  0  0  0  0  0
   -5.4167   -1.4383    1.5845 O   0  0  0  0  0  0  0  0  0  0  0  0
   -6.5403   -0.0318    0.3256 O   0  0  0  0  0  0  0  0  0  0  0  0
  1  4  1  1  0  0  0
  1  2  1  0  0  0  0
  2  3  2  0  0  0  0
  2 15  1  0  0  0  0
  3  8  1  0  0  0  0
  4  6  1  0  0  0  0
  5  4  1  0  0  0  0
  7  4  1  0  0  0  0
  8 11  1  0  0  0  0
  9  8  1  0  0  0  0
 10  8  1  0  0  0  0
 12  3  1  0  0  0  0
 13  1  1  0  0  0  0
 13 12  1  0  0  0  0
 14 13  1  0  0  0  0
 15 16  2  0  0  0  0
 17 15  2  0  0  0  0
M  END
