7
 OpenBabel05122313063D

 27 28  0  0  0  0  0  0  0  0999 V2000
    0.9886    2.6709    1.2218 F   0  0  0  0  0  0  0  0  0  0  0  0
   -7.2754    1.3340   -1.5566 O   0  0  0  0  0  0  0  0  0  0  0  0
   -8.2805   -0.5326   -2.0853 O   0  0  0  0  0  0  0  0  0  0  0  0
   -7.3083    0.1119   -1.6941 N   0  0  0  0  0  0  0  0  0  0  0  0
   -2.5995   -0.0603   -0.1517 N   0  0  0  0  0  2  0  0  0  0  0  0
   -2.6240    1.1874    0.1222 N   0  0  0  0  0  2  0  0  0  0  0  0
   -1.4704    1.6506    0.5081 N   0  0  0  0  0  2  0  0  0  0  0  0
   -3.7832   -0.6568   -0.5962 C   0  0  0  0  0  0  0  0  0  0  0  0
   -4.9590    0.0608   -0.9143 C   0  0  0  0  0  0  0  0  0  0  0  0
   -5.0065    1.1523   -0.8221 H   0  0  0  0  0  0  0  0  0  0  0  0
   -6.0736   -0.6498   -1.3592 C   0  0  0  0  0  0  0  0  0  0  0  0
   -6.0810   -2.0450   -1.5075 C   0  0  0  0  0  0  0  0  0  0  0  0
   -6.9920   -2.5411   -1.8655 H   0  0  0  0  0  0  0  0  0  0  0  0
   -4.9095   -2.7460   -1.1879 C   0  0  0  0  0  0  0  0  0  0  0  0
   -4.8845   -3.8410   -1.2905 H   0  0  0  0  0  0  0  0  0  0  0  0
   -3.7710   -2.0655   -0.7373 C   0  0  0  0  0  0  0  0  0  0  0  0
   -2.8515   -2.6043   -0.4680 H   0  0  0  0  0  0  0  0  0  0  0  0
   -1.3500    2.9967    0.8616 C   0  0  0  0  0  0  0  0  0  0  0  0
   -0.0829    3.5071    1.2303 C   0  0  0  0  0  0  0  0  0  0  0  0
    0.1093    4.8387    1.5955 C   0  0  0  0  0  0  0  0  0  0  0  0
    1.1218    5.1661    1.8715 H   0  0  0  0  0  0  0  0  0  0  0  0
   -0.9861    5.7151    1.6025 C   0  0  0  0  0  0  0  0  0  0  0  0
   -0.8438    6.7667    1.8898 H   0  0  0  0  0  0  0  0  0  0  0  0
   -2.2576    5.2367    1.2415 C   0  0  0  0  0  0  0  0  0  0  0  0
   -3.1231    5.9156    1.2442 H   0  0  0  0  0  0  0  0  0  0  0  0
   -2.4419    3.8989    0.8783 C   0  0  0  0  0  0  0  0  0  0  0  0
   -3.4319    3.5167    0.5977 H   0  0  0  0  0  0  0  0  0  0  0  0
  1 19  1  0  0  0  0
  3  4  2  0  0  0  0
  4  2  2  0  0  0  0
  4 11  1  0  0  0  0
  5  6  1  0  0  0  0
  6  7  1  0  0  0  0
  7 18  1  0  0  0  0
  8  5  1  0  0  0  0
  9 10  1  0  0  0  0
  9  8  2  0  0  0  0
 11  9  1  0  0  0  0
 12 11  2  0  0  0  0
 12 14  1  0  0  0  0
 13 12  1  0  0  0  0
 14 16  2  0  0  0  0
 15 14  1  0  0  0  0
 16  8  1  0  0  0  0
 16 17  1  0  0  0  0
 18 26  2  0  0  0  0
 18 19  1  0  0  0  0
 19 20  2  0  0  0  0
 20 22  1  0  0  0  0
 20 21  1  0  0  0  0
 22 23  1  0  0  0  0
 24 25  1  0  0  0  0
 24 22  2  0  0  0  0
 26 24  1  0  0  0  0
 27 26  1  0  0  0  0
M  END
