7
 OpenBabel05122313063D

 16 15  0  0  1  0  0  0  0  0999 V2000
   -0.2029   -1.4317   -0.0670 As  0  0  0  0  0  0  0  0  0  0  0  0
    1.6878   -1.9095    0.0291 O   0  0  0  0  0  0  0  0  0  0  0  0
   -0.3911   -2.4603   -1.5031 O   0  0  0  0  0  0  0  0  0  0  0  0
   -1.3438   -2.3895   -1.7262 H   0  0  0  0  0  0  0  0  0  0  0  0
   -0.5414   -2.4821    1.3251 O   0  0  0  0  0  0  0  0  0  0  0  0
   -1.5113   -2.4089    1.4526 H   0  0  0  0  0  0  0  0  0  0  0  0
    2.1150    0.3516    0.0692 N   0  0  0  0  0  2  0  0  0  0  0  0
    2.8357    1.0801    0.1127 H   0  0  0  0  0  0  0  0  0  0  0  0
    2.5206   -0.8974    0.0802 C   0  0  1  0  0  3  0  0  0  0  0  0
    3.9768   -1.2887    0.1524 C   0  0  0  0  0  0  0  0  0  0  0  0
    4.1657   -1.9438   -0.7249 H   0  0  0  0  0  0  0  0  0  0  0  0
    4.0744   -1.9593    1.0330 H   0  0  0  0  0  0  0  0  0  0  0  0
    4.9779   -0.1393    0.2146 C   0  0  0  0  0  0  0  0  0  0  0  0
    4.9148    0.5099   -0.6826 H   0  0  0  0  0  0  0  0  0  0  0  0
    6.0121   -0.5304    0.2647 H   0  0  0  0  0  0  0  0  0  0  0  0
    4.8218    0.4938    1.1120 H   0  0  0  0  0  0  0  0  0  0  0  0
  1  2  1  0  0  0  0
  1  5  1  0  0  0  0
  3  1  1  0  0  0  0
  4  3  1  0  0  0  0
  5  6  1  0  0  0  0
  7  9  1  0  0  0  0
  7  8  1  0  0  0  0
  9  2  1  1  0  0  0
  9 10  1  0  0  0  0
 10 13  1  0  0  0  0
 10 12  1  0  0  0  0
 11 10  1  0  0  0  0
 13 15  1  0  0  0  0
 13 16  1  0  0  0  0
 14 13  1  0  0  0  0
M  END
