4
 OpenBabel05122313063D

 27 30  0  0  1  0  0  0  0  0999 V2000
    6.4878   -0.7623   -0.2164 I   0  0  0  0  0  0  0  0  0  0  0  0
    1.0567    4.1076    0.6055 O   0  0  0  0  0  0  0  0  0  0  0  0
    0.4773   -1.5441   -0.7521 O   0  0  0  0  0  0  0  0  0  0  0  0
   -1.3638    0.8697   -0.2397 N   0  0  0  0  0  2  0  0  0  0  0  0
    0.7701    1.8770    0.0822 N   0  0  0  0  0  0  0  0  0  0  0  0
   -1.9716    2.1221   -0.0220 C   0  0  0  0  0  0  0  0  0  0  0  0
   -3.3775    2.2576   -0.0766 C   0  0  0  0  0  0  0  0  0  0  0  0
   -3.9824    1.3751   -0.3267 H   0  0  0  0  0  0  0  0  0  0  0  0
   -3.9649    3.5031    0.1524 C   0  0  0  0  0  0  0  0  0  0  0  0
   -5.0598    3.5950    0.0988 H   0  0  0  0  0  0  0  0  0  0  0  0
   -3.1756    4.6342    0.4441 C   0  0  0  0  0  0  0  0  0  0  0  0
   -3.6525    5.6090    0.6243 H   0  0  0  0  0  0  0  0  0  0  0  0
   -1.7864    4.5128    0.5027 C   0  0  0  0  0  0  0  0  0  0  0  0
   -1.1330    5.3677    0.7292 H   0  0  0  0  0  0  0  0  0  0  0  0
   -1.1734    3.2661    0.2704 C   0  0  0  0  0  0  0  0  0  0  0  0
    0.2960    3.1833    0.3488 C   0  0  0  0  0  0  0  0  0  0  0  0
   -0.0527    0.7981   -0.1944 C   0  0  2  0  0  3  0  0  0  0  0  0
    0.8358   -0.4193   -0.4410 C   0  0  0  0  0  0  0  0  0  0  0  0
    2.2051    0.0977   -0.2484 C   0  0  0  0  0  0  0  0  0  0  0  0
    2.1343    1.4705    0.0660 C   0  0  0  0  0  0  0  0  0  0  0  0
    3.2868    2.2242    0.3035 C   0  0  0  0  0  0  0  0  0  0  0  0
    3.2230    3.2907    0.5473 H   0  0  0  0  0  0  0  0  0  0  0  0
    4.5221    1.5535    0.2159 C   0  0  0  0  0  0  0  0  0  0  0  0
    5.4476    2.1183    0.3983 H   0  0  0  0  0  0  0  0  0  0  0  0
    4.5945    0.1803   -0.1002 C   0  0  0  0  0  0  0  0  0  0  0  0
    3.4313   -0.5698   -0.3393 C   0  0  0  0  0  0  0  0  0  0  0  0
    3.4583   -1.6398   -0.5895 H   0  0  0  0  0  0  0  0  0  0  0  0
  1 25  1  0  0  0  0
  3 18  2  0  0  0  0
  4 17  1  0  0  0  0
  4  6  1  0  0  0  0
  5 16  1  0  0  0  0
  6 15  1  0  0  0  0
  7  6  2  0  0  0  0
  7  9  1  0  0  0  0
  8  7  1  0  0  0  0
  9 11  2  0  0  0  0
 10  9  1  0  0  0  0
 11 13  1  0  0  0  0
 11 12  1  0  0  0  0
 13 14  1  0  0  0  0
 15 16  1  0  0  0  0
 15 13  2  0  0  0  0
 16  2  2  0  0  0  0
 17 18  1  6  0  0  0
 17  5  1  0  0  0  0
 18 19  1  0  0  0  0
 19 20  1  0  0  0  0
 20  5  1  0  0  0  0
 20 21  2  0  0  0  0
 21 22  1  0  0  0  0
 23 21  1  0  0  0  0
 23 24  1  0  0  0  0
 25 23  2  0  0  0  0
 26 19  2  0  0  0  0
 26 25  1  0  0  0  0
 27 26  1  0  0  0  0
M  END
