2
 OpenBabel05122313063D

 42 45  0  0  0  0  0  0  0  0999 V2000
    1.4278    0.0448    2.6463 Cl  0  0  0  0  0  0  0  0  0  0  0  0
   -1.4394   -0.0162   -0.1019 N   0  0  0  0  0  2  0  0  0  0  0  0
    4.9519   -1.2581   -0.1790 N   0  0  0  0  0  0  0  0  0  0  0  0
    4.9392    1.2454   -0.2276 N   0  0  0  0  0  0  0  0  0  0  0  0
   -0.7691    0.0086    1.0688 C   0  0  0  0  0  3  0  0  0  0  0  0
   -1.3645    0.0495    1.9929 H   0  0  0  0  0  0  0  0  0  0  0  0
    0.6304    0.0069    1.1080 C   0  0  0  0  0  0  0  0  0  0  0  0
    1.3763   -0.0207   -0.0868 C   0  0  0  0  0  0  0  0  0  0  0  0
    0.6449   -0.0502   -1.2885 C   0  0  0  0  0  0  0  0  0  0  0  0
    1.1764   -0.0756   -2.2502 H   0  0  0  0  0  0  0  0  0  0  0  0
   -0.7496   -0.0472   -1.2665 C   0  0  0  0  0  0  0  0  0  0  0  0
   -1.3482   -0.0828   -2.1883 H   0  0  0  0  0  0  0  0  0  0  0  0
    2.8634   -0.0148   -0.0991 C   0  0  0  0  0  3  0  0  0  0  0  0
    3.5577   -1.2405   -0.0968 C   0  0  0  0  0  0  0  0  0  0  0  0
    3.0909   -2.6027    0.0016 C   0  0  0  0  0  0  0  0  0  0  0  0
    4.2414   -3.3985   -0.0331 C   0  0  0  0  0  0  0  0  0  0  0  0
    4.2780   -4.4927    0.0246 H   0  0  0  0  0  0  0  0  0  0  0  0
    5.3737   -2.5465   -0.1478 C   0  0  0  0  0  0  0  0  0  0  0  0
    1.6871   -3.0998    0.1601 C   0  0  0  0  0  0  0  0  0  0  0  0
    1.2295   -2.7344    1.1027 H   0  0  0  0  0  0  0  0  0  0  0  0
    1.6743   -4.2059    0.1881 H   0  0  0  0  0  0  0  0  0  0  0  0
    1.0226   -2.7727   -0.6650 H   0  0  0  0  0  0  0  0  0  0  0  0
    6.8134   -2.9181   -0.2304 C   0  0  0  0  0  0  0  0  0  0  0  0
    7.2574   -2.5303   -1.1700 H   0  0  0  0  0  0  0  0  0  0  0  0
    6.9420   -4.0145   -0.1881 H   0  0  0  0  0  0  0  0  0  0  0  0
    7.3821   -2.4445    0.5951 H   0  0  0  0  0  0  0  0  0  0  0  0
    3.5451    1.2172   -0.1452 C   0  0  0  0  0  0  0  0  0  0  0  0
    3.0648    2.5777   -0.1017 C   0  0  0  0  0  0  0  0  0  0  0  0
    4.2075    3.3826   -0.1678 C   0  0  0  0  0  0  0  0  0  0  0  0
    4.2333    4.4787   -0.1540 H   0  0  0  0  0  0  0  0  0  0  0  0
    5.3482    2.5380   -0.2478 C   0  0  0  0  0  0  0  0  0  0  0  0
    1.6564    3.0682    0.0360 C   0  0  0  0  0  0  0  0  0  0  0  0
    1.2030    2.7421    0.9950 H   0  0  0  0  0  0  0  0  0  0  0  0
    0.9942    2.6978   -0.7724 H   0  0  0  0  0  0  0  0  0  0  0  0
    1.6333    4.1743    0.0136 H   0  0  0  0  0  0  0  0  0  0  0  0
    6.7843    2.9202   -0.3446 C   0  0  0  0  0  0  0  0  0  0  0  0
    7.3570    2.4848    0.4990 H   0  0  0  0  0  0  0  0  0  0  0  0
    6.9022    4.0186   -0.3454 H   0  0  0  0  0  0  0  0  0  0  0  0
    7.2327    2.5000   -1.2681 H   0  0  0  0  0  0  0  0  0  0  0  0
    5.8785   -0.0037   -0.3071 B   0  0  0  0  0  0  0  0  0  0  0  0
    6.7923    0.0216    0.7528 F   0  0  0  0  0  0  0  0  0  0  0  0
    6.5468   -0.0241   -1.5363 F   0  0  0  0  0  0  0  0  0  0  0  0
  2  5  1  0  0  0  0
  3 18  1  0  0  0  0
  3 14  1  0  0  0  0
  4 27  1  0  0  0  0
  5  7  1  0  0  0  0
  5  6  1  0  0  0  0
  7  1  1  0  0  0  0
  8  7  2  0  0  0  0
  9 11  2  0  0  0  0
  9  8  1  0  0  0  0
 10  9  1  0  0  0  0
 11  2  1  0  0  0  0
 12 11  1  0  0  0  0
 13 14  1  0  0  0  0
 13  8  1  0  0  0  0
 14 15  2  0  0  0  0
 15 19  1  0  0  0  0
 16 15  1  0  0  0  0
 16 17  1  0  0  0  0
 18 16  2  0  0  0  0
 19 21  1  0  0  0  0
 19 20  1  0  0  0  0
 22 19  1  0  0  0  0
 23 25  1  0  0  0  0
 23 18  1  0  0  0  0
 23 26  1  0  0  0  0
 24 23  1  0  0  0  0
 27 28  2  0  0  0  0
 27 13  1  0  0  0  0
 28 32  1  0  0  0  0
 29 30  1  0  0  0  0
 29 28  1  0  0  0  0
 31  4  1  0  0  0  0
 31 29  2  0  0  0  0
 32 33  1  0  0  0  0
 34 32  1  0  0  0  0
 35 32  1  0  0  0  0
 36 31  1  0  0  0  0
 36 37  1  0  0  0  0
 38 36  1  0  0  0  0
 39 36  1  0  0  0  0
 40  4  1  0  0  0  0
 40  3  1  0  0  0  0
 40 41  1  0  0  0  0
 42 40  1  0  0  0  0
M  END
