1
 OpenBabel05122313063D

 22 24  0  0  0  0  0  0  0  0999 V2000
    0.0719    0.6827   -0.0409 N   0  0  0  0  0  2  0  0  0  0  0  0
   -0.3466    1.9562    0.1899 C   0  0  0  0  0  3  0  0  0  0  0  0
    0.4434    2.7145    0.2890 H   0  0  0  0  0  0  0  0  0  0  0  0
   -1.6929    2.3010    0.2962 C   0  0  0  0  0  0  0  0  0  0  0  0
   -2.0067    3.3355    0.4959 H   0  0  0  0  0  0  0  0  0  0  0  0
   -2.6675    1.3019    0.1401 C   0  0  0  0  0  0  0  0  0  0  0  0
   -4.1243    1.6535    0.2483 C   0  0  0  0  0  0  0  0  0  0  0  0
   -4.4780    2.8086    0.4717 O   0  0  0  0  0  0  0  0  0  0  0  0
   -5.0880    0.5339    0.0740 C   0  0  0  0  0  0  0  0  0  0  0  0
   -6.4761    0.7770    0.1688 C   0  0  0  0  0  0  0  0  0  0  0  0
   -6.8201    1.8057    0.3727 H   0  0  0  0  0  0  0  0  0  0  0  0
   -7.4051   -0.1744    0.0248 N   0  0  0  0  0  0  0  0  0  0  0  0
   -6.9827   -1.4289   -0.2246 C   0  0  0  0  0  0  0  0  0  0  0  0
   -7.7707   -2.1942   -0.3384 H   0  0  0  0  0  0  0  0  0  0  0  0
   -5.6317   -1.7888   -0.3414 C   0  0  0  0  0  0  0  0  0  0  0  0
   -5.3146   -2.8218   -0.5467 H   0  0  0  0  0  0  0  0  0  0  0  0
   -4.6586   -0.7892   -0.1890 C   0  0  0  0  0  0  0  0  0  0  0  0
   -3.2064   -1.1396   -0.3114 C   0  0  0  0  0  0  0  0  0  0  0  0
   -2.8342   -2.2811   -0.5611 O   0  0  0  0  0  0  0  0  0  0  0  0
   -2.2369   -0.0174   -0.1150 C   0  0  0  0  0  0  0  0  0  0  0  0
   -0.8592   -0.2847   -0.1855 C   0  0  0  0  0  0  0  0  0  0  0  0
   -0.5014   -1.3157   -0.3332 H   0  0  0  0  0  0  0  0  0  0  0  0
  1  2  1  0  0  0  0
  2  3  1  0  0  0  0
  2  4  1  0  0  0  0
  4  5  1  0  0  0  0
  6  7  1  0  0  0  0
  6  4  2  0  0  0  0
  7  8  2  0  0  0  0
  9 10  1  0  0  0  0
  9  7  1  0  0  0  0
 10 11  1  0  0  0  0
 12 10  2  0  0  0  0
 13 12  1  0  0  0  0
 14 13  1  0  0  0  0
 15 13  2  0  0  0  0
 15 17  1  0  0  0  0
 16 15  1  0  0  0  0
 17  9  2  0  0  0  0
 18 17  1  0  0  0  0
 18 20  1  0  0  0  0
 19 18  2  0  0  0  0
 20  6  1  0  0  0  0
 21 20  2  0  0  0  0
 21  1  1  0  0  0  0
 22 21  1  0  0  0  0
M  END
