1
 OpenBabel05122313063D

 19 18  0  0  1  0  0  0  0  0999 V2000
    0.8022    1.1626   -0.6538 N   0  0  0  0  0  2  0  0  0  0  0  0
    1.7514    0.8485   -0.4167 H   0  0  0  0  0  0  0  0  0  0  0  0
    1.7805    3.2885   -0.5184 N   0  0  0  0  0  0  0  0  0  0  0  0
    1.6123    4.2941   -0.5730 H   0  0  0  0  0  0  0  0  0  0  0  0
    0.7213    2.4737   -0.7364 C   0  0  1  0  0  3  0  0  0  0  0  0
   -0.5722    3.1416   -1.1107 C   0  0  0  0  0  0  0  0  0  0  0  0
   -0.8118    2.9389   -2.1729 H   0  0  0  0  0  0  0  0  0  0  0  0
   -0.5294    4.2366   -0.9640 H   0  0  0  0  0  0  0  0  0  0  0  0
   -1.4018    2.7344   -0.5044 H   0  0  0  0  0  0  0  0  0  0  0  0
    3.1339    2.8586   -0.1487 C   0  0  0  0  0  0  0  0  0  0  0  0
    3.3636    1.9577   -0.7644 H   0  0  0  0  0  0  0  0  0  0  0  0
    3.2198    2.4825    1.3384 C   0  0  0  0  0  0  0  0  0  0  0  0
    3.0246    3.3692    1.9749 H   0  0  0  0  0  0  0  0  0  0  0  0
    4.2305    2.1005    1.5831 H   0  0  0  0  0  0  0  0  0  0  0  0
    2.4825    1.6997    1.6092 H   0  0  0  0  0  0  0  0  0  0  0  0
    4.1283    3.9535   -0.5347 C   0  0  0  0  0  0  0  0  0  0  0  0
    4.0736    4.1854   -1.6163 H   0  0  0  0  0  0  0  0  0  0  0  0
    5.1620    3.6339   -0.3036 H   0  0  0  0  0  0  0  0  0  0  0  0
    3.9334    4.8844    0.0386 H   0  0  0  0  0  0  0  0  0  0  0  0
  1  2  1  0  0  0  0
  3 10  1  0  0  0  0
  4  3  1  0  0  0  0
  5  1  1  6  0  0  0
  5  3  1  0  0  0  0
  6  8  1  0  0  0  0
  6  5  1  0  0  0  0
  6  9  1  0  0  0  0
  7  6  1  0  0  0  0
 10 12  1  0  0  0  0
 11 10  1  0  0  0  0
 12 14  1  0  0  0  0
 12 15  1  0  0  0  0
 12 13  1  0  0  0  0
 16 18  1  0  0  0  0
 16 10  1  0  0  0  0
 16 19  1  0  0  0  0
 17 16  1  0  0  0  0
M  END
