1
 OpenBabel05122313063D

 23 23  0  0  1  0  0  0  0  0999 V2000
    0.1344    0.0097    1.6060 N   0  0  0  0  0  2  0  0  0  0  0  0
   -0.6421   -0.6037    1.3218 H   0  0  0  0  0  0  0  0  0  0  0  0
   -0.9479   -0.0869    3.6770 N   0  0  0  0  0  0  0  0  0  0  0  0
   -0.9237    0.2126    4.6506 H   0  0  0  0  0  0  0  0  0  0  0  0
    0.0424    0.3709    2.8654 C   0  0  2  0  0  3  0  0  0  0  0  0
    1.0258    1.3279    3.4750 C   0  0  0  0  0  0  0  0  0  0  0  0
    2.0582    1.0015    3.2469 H   0  0  0  0  0  0  0  0  0  0  0  0
    0.9097    1.3999    4.5721 H   0  0  0  0  0  0  0  0  0  0  0  0
    0.9021    2.3385    3.0397 H   0  0  0  0  0  0  0  0  0  0  0  0
   -1.9010   -1.1216    3.3042 C   0  0  0  0  0  0  0  0  0  0  0  0
   -2.5337   -1.3126    4.1950 H   0  0  0  0  0  0  0  0  0  0  0  0
   -1.3645   -2.0760    3.0955 H   0  0  0  0  0  0  0  0  0  0  0  0
   -2.7889   -0.7768    2.1168 C   0  0  0  0  0  0  0  0  0  0  0  0
   -3.2411    0.5395    1.8999 C   0  0  0  0  0  0  0  0  0  0  0  0
   -2.9115    1.3437    2.5757 H   0  0  0  0  0  0  0  0  0  0  0  0
   -4.1052    0.8264    0.8340 C   0  0  0  0  0  0  0  0  0  0  0  0
   -4.4560    1.8578    0.6785 H   0  0  0  0  0  0  0  0  0  0  0  0
   -4.5350   -0.2003   -0.0229 C   0  0  0  0  0  0  0  0  0  0  0  0
   -5.2276    0.0237   -0.8481 H   0  0  0  0  0  0  0  0  0  0  0  0
   -4.0819   -1.5126    0.1807 C   0  0  0  0  0  0  0  0  0  0  0  0
   -4.4178   -2.3240   -0.4828 H   0  0  0  0  0  0  0  0  0  0  0  0
   -3.2060   -1.7971    1.2399 C   0  0  0  0  0  0  0  0  0  0  0  0
   -2.8515   -2.8289    1.3961 H   0  0  0  0  0  0  0  0  0  0  0  0
  2  1  1  0  0  0  0
  3  4  1  0  0  0  0
  5  1  1  6  0  0  0
  5  6  1  0  0  0  0
  5  3  1  0  0  0  0
  6  8  1  0  0  0  0
  7  6  1  0  0  0  0
  9  6  1  0  0  0  0
 10  3  1  0  0  0  0
 10 11  1  0  0  0  0
 12 10  1  0  0  0  0
 13 10  1  0  0  0  0
 14 13  1  0  0  0  0
 14 15  1  0  0  0  0
 16 14  2  0  0  0  0
 17 16  1  0  0  0  0
 18 20  2  0  0  0  0
 18 16  1  0  0  0  0
 19 18  1  0  0  0  0
 20 22  1  0  0  0  0
 21 20  1  0  0  0  0
 22 23  1  0  0  0  0
 22 13  2  0  0  0  0
M  END
