5
 OpenBabel05122313063D

 15 15  0  0  0  0  0  0  0  0999 V2000
    0.2141   -1.1755   -0.0592 S   0  0  0  0  0  1  0  0  0  0  0  0
   -4.6330    0.7489   -0.0627 F   0  0  0  0  0  0  0  0  0  0  0  0
   -2.3082   -2.4264   -0.5312 O   0  0  0  0  0  0  0  0  0  0  0  0
   -4.0260   -1.7220    0.6281 O   0  0  0  0  0  0  0  0  0  0  0  0
    0.8244    1.5120   -0.0015 N   0  0  0  0  0  2  0  0  0  0  0  0
   -2.9690   -1.5460    0.0238 N   0  0  0  0  0  0  0  0  0  0  0  0
   -0.5308    1.3871   -0.0248 C   0  0  0  0  0  0  0  0  0  0  0  0
   -1.4450    2.4742   -0.0363 C   0  0  0  0  0  0  0  0  0  0  0  0
   -2.8157    2.2406   -0.0502 C   0  0  0  0  0  0  0  0  0  0  0  0
   -3.3086    0.9200   -0.0336 C   0  0  0  0  0  0  0  0  0  0  0  0
   -2.4311   -0.1789   -0.0254 C   0  0  0  0  0  0  0  0  0  0  0  0
   -1.0260    0.0363   -0.0440 C   0  0  0  0  0  0  0  0  0  0  0  0
    1.1506    2.4861    0.0159 H   0  0  0  0  0  0  0  0  0  0  0  0
   -1.0591    3.5054   -0.0382 H   0  0  0  0  0  0  0  0  0  0  0  0
   -3.5442    3.0631   -0.0722 H   0  0  0  0  0  0  0  0  0  0  0  0
  1 12  1  0  0  0  0
  2 10  1  0  0  0  0
  3  6  2  0  0  0  0
  5 13  1  0  0  0  0
  6  4  2  0  0  0  0
  7  5  1  0  0  0  0
  8  7  1  0  0  0  0
  9  8  2  0  0  0  0
  9 10  1  0  0  0  0
 10 11  2  0  0  0  0
 11  6  1  0  0  0  0
 12 11  1  0  0  0  0
 12  7  2  0  0  0  0
 14  8  1  0  0  0  0
 15  9  1  0  0  0  0
M  END
