3
 OpenBabel05122313063D

 16 16  0  0  1  0  0  0  0  0999 V2000
   -2.7988    1.5788    0.0005 S   0  0  0  0  0  0  0  0  0  0  0  0
   -4.4517   -0.4097   -0.0001 N   0  0  0  0  0  0  0  0  0  0  0  0
   -2.1259   -1.0347   -0.0002 N   0  0  0  0  0  2  0  0  0  0  0  0
   -2.4261   -2.0140   -0.0004 H   0  0  0  0  0  0  0  0  0  0  0  0
   -3.0947   -0.1537    0.0000 C   0  0  2  0  0  3  0  0  0  0  0  0
   -4.5274    1.8872    0.0006 C   0  0  0  0  0  0  0  0  0  0  0  0
   -4.9125    2.9120    0.0008 H   0  0  0  0  0  0  0  0  0  0  0  0
   -5.2646    0.7413    0.0002 C   0  0  0  0  0  0  0  0  0  0  0  0
   -4.9306   -1.7804   -0.0004 C   0  0  0  0  0  0  0  0  0  0  0  0
   -4.5756   -2.3215   -0.9033 H   0  0  0  0  0  0  0  0  0  0  0  0
   -6.0331   -1.7916   -0.0004 H   0  0  0  0  0  0  0  0  0  0  0  0
   -4.5756   -2.3219    0.9022 H   0  0  0  0  0  0  0  0  0  0  0  0
   -6.7544    0.6339    0.0001 C   0  0  0  0  0  0  0  0  0  0  0  0
   -7.1970    1.6465    0.0005 H   0  0  0  0  0  0  0  0  0  0  0  0
   -7.1348    0.1004    0.8969 H   0  0  0  0  0  0  0  0  0  0  0  0
   -7.1347    0.1010   -0.8971 H   0  0  0  0  0  0  0  0  0  0  0  0
  1  6  1  0  0  0  0
  2  5  1  0  0  0  0
  2  8  1  0  0  0  0
  4  3  1  0  0  0  0
  5  3  1  1  0  0  0
  5  1  1  0  0  0  0
  6  7  1  0  0  0  0
  8  6  2  0  0  0  0
  9  2  1  0  0  0  0
  9 12  1  0  0  0  0
 10  9  1  0  0  0  0
 11  9  1  0  0  0  0
 13  8  1  0  0  0  0
 13 14  1  0  0  0  0
 13 15  1  0  0  0  0
 16 13  1  0  0  0  0
M  END
