3
 OpenBabel05122313063D

 23 24  0  0  0  0  0  0  0  0999 V2000
    4.4783   -1.4524   -0.0540 N   0  0  0  0  0  0  0  0  0  0  0  0
    3.4774    0.5352   -0.1510 N   0  0  0  0  0  0  0  0  0  0  0  0
    2.0826   -1.4333   -0.2603 N   0  0  0  0  0  2  0  0  0  0  0  0
    2.1709   -2.4509   -0.3239 H   0  0  0  0  0  0  0  0  0  0  0  0
    3.2555   -0.8233   -0.1617 C   0  0  0  0  0  3  0  0  0  0  0  0
    4.8544    0.7737   -0.0244 C   0  0  0  0  0  0  0  0  0  0  0  0
    5.5884    1.9619    0.0486 C   0  0  0  0  0  0  0  0  0  0  0  0
    5.1022    2.9470    0.0258 H   0  0  0  0  0  0  0  0  0  0  0  0
    6.9853    1.8493    0.1593 C   0  0  0  0  0  0  0  0  0  0  0  0
    7.5927    2.7638    0.2180 H   0  0  0  0  0  0  0  0  0  0  0  0
    7.6194    0.5924    0.1975 C   0  0  0  0  0  0  0  0  0  0  0  0
    8.7142    0.5405    0.2827 H   0  0  0  0  0  0  0  0  0  0  0  0
    6.8812   -0.6018    0.1276 C   0  0  0  0  0  0  0  0  0  0  0  0
    7.3836   -1.5788    0.1521 H   0  0  0  0  0  0  0  0  0  0  0  0
    5.4916   -0.4881    0.0214 C   0  0  0  0  0  0  0  0  0  0  0  0
    4.6536   -2.8901   -0.0195 C   0  0  0  0  0  0  0  0  0  0  0  0
    3.9131   -3.3518    0.6651 H   0  0  0  0  0  0  0  0  0  0  0  0
    5.6595   -3.1209    0.3737 H   0  0  0  0  0  0  0  0  0  0  0  0
    4.5561   -3.3433   -1.0284 H   0  0  0  0  0  0  0  0  0  0  0  0
    2.4621    1.5626   -0.2725 C   0  0  0  0  0  0  0  0  0  0  0  0
    1.7307    1.2918   -1.0597 H   0  0  0  0  0  0  0  0  0  0  0  0
    2.9505    2.5091   -0.5655 H   0  0  0  0  0  0  0  0  0  0  0  0
    1.9149    1.7210    0.6799 H   0  0  0  0  0  0  0  0  0  0  0  0
  1 16  1  0  0  0  0
  1 15  1  0  0  0  0
  2  6  1  0  0  0  0
  3  5  1  0  0  0  0
  4  3  1  0  0  0  0
  5  2  1  0  0  0  0
  5  1  1  0  0  0  0
  6 15  2  0  0  0  0
  6  7  1  0  0  0  0
  7  9  2  0  0  0  0
  8  7  1  0  0  0  0
  9 11  1  0  0  0  0
  9 10  1  0  0  0  0
 11 12  1  0  0  0  0
 13 14  1  0  0  0  0
 13 11  2  0  0  0  0
 15 13  1  0  0  0  0
 16 18  1  0  0  0  0
 16 17  1  0  0  0  0
 19 16  1  0  0  0  0
 20  2  1  0  0  0  0
 20 23  1  0  0  0  0
 21 20  1  0  0  0  0
 22 20  1  0  0  0  0
M  END
