1
 OpenBabel05122313063D

 32 33  0  0  1  0  0  0  0  0999 V2000
    1.5442   -0.6509   -1.4064 N   0  0  0  0  0  2  0  0  0  0  0  0
    1.3616    1.3841    0.4655 N   0  0  0  0  0  0  0  0  0  0  0  0
    1.7069   -1.8097   -2.0837 C   0  0  0  0  0  3  0  0  0  0  0  0
    0.7930   -2.3947   -2.2624 H   0  0  0  0  0  0  0  0  0  0  0  0
    2.9500   -2.2418   -2.5544 C   0  0  0  0  0  0  0  0  0  0  0  0
    3.0246   -3.1903   -3.1040 H   0  0  0  0  0  0  0  0  0  0  0  0
    4.0735   -1.4383   -2.3128 C   0  0  0  0  0  0  0  0  0  0  0  0
    5.0704   -1.7433   -2.6632 H   0  0  0  0  0  0  0  0  0  0  0  0
    3.9069   -0.2455   -1.6033 C   0  0  0  0  0  0  0  0  0  0  0  0
    4.7726    0.3866   -1.3644 H   0  0  0  0  0  0  0  0  0  0  0  0
    2.6265    0.1377   -1.1563 C   0  0  0  0  0  0  0  0  0  0  0  0
    2.4089    1.3905   -0.3856 C   0  0  0  0  0  0  0  0  0  0  0  0
    3.2465    2.5104   -0.5429 C   0  0  0  0  0  0  0  0  0  0  0  0
    4.0736    2.5064   -1.2663 H   0  0  0  0  0  0  0  0  0  0  0  0
    2.9718    3.6532    0.2210 C   0  0  0  0  0  0  0  0  0  0  0  0
    3.5942    4.5541    0.1152 H   0  0  0  0  0  0  0  0  0  0  0  0
    1.8938    3.6340    1.1118 C   0  0  0  0  0  0  0  0  0  0  0  0
    1.6645    4.5155    1.7281 H   0  0  0  0  0  0  0  0  0  0  0  0
    1.0999    2.4696    1.2156 C   0  0  0  0  0  0  0  0  0  0  0  0
   -0.0473    2.3750    2.2063 C   0  0  2  0  0  0  0  0  0  0  0  0
   -0.5581    1.4157    1.9718 H   0  0  0  0  0  0  0  0  0  0  0  0
   -1.0677    3.5203    2.0522 C   0  0  0  0  0  0  0  0  0  0  0  0
   -1.8375    3.3974    2.8438 H   0  0  0  0  0  0  0  0  0  0  0  0
   -0.5709    4.4897    2.2781 H   0  0  0  0  0  0  0  0  0  0  0  0
   -1.7402    3.5813    0.6824 C   0  0  0  0  0  0  0  0  0  0  0  0
   -2.4651    4.4171    0.6244 H   0  0  0  0  0  0  0  0  0  0  0  0
   -2.2892    2.6421    0.4690 H   0  0  0  0  0  0  0  0  0  0  0  0
   -0.9988    3.7247   -0.1312 H   0  0  0  0  0  0  0  0  0  0  0  0
    0.4988    2.3056    3.6438 C   0  0  0  0  0  0  0  0  0  0  0  0
    1.2369    1.4881    3.7601 H   0  0  0  0  0  0  0  0  0  0  0  0
   -0.3247    2.1327    4.3656 H   0  0  0  0  0  0  0  0  0  0  0  0
    0.9990    3.2541    3.9287 H   0  0  0  0  0  0  0  0  0  0  0  0
  1 11  1  0  0  0  0
  2 19  1  0  0  0  0
  3  1  1  0  0  0  0
  4  3  1  0  0  0  0
  5  7  2  0  0  0  0
  5  3  1  0  0  0  0
  6  5  1  0  0  0  0
  7  9  1  0  0  0  0
  8  7  1  0  0  0  0
  9 10  1  0  0  0  0
  9 11  2  0  0  0  0
 11 12  1  0  0  0  0
 12  2  2  0  0  0  0
 13 12  1  0  0  0  0
 13 15  2  0  0  0  0
 14 13  1  0  0  0  0
 15 17  1  0  0  0  0
 16 15  1  0  0  0  0
 17 19  2  0  0  0  0
 17 18  1  0  0  0  0
 19 20  1  0  0  0  0
 20 21  1  6  0  0  0
 20 29  1  0  0  0  0
 22 20  1  0  0  0  0
 22 24  1  0  0  0  0
 22 23  1  0  0  0  0
 25 22  1  0  0  0  0
 26 25  1  0  0  0  0
 27 25  1  0  0  0  0
 28 25  1  0  0  0  0
 29 30  1  0  0  0  0
 29 32  1  0  0  0  0
 29 31  1  0  0  0  0
M  END
