2
 OpenBabel05122313063D

 37 39  0  0  0  0  0  0  0  0999 V2000
   -1.0293    0.1506   -0.5395 P   0  0  0  0  0  0  0  0  0  0  0  0
    1.5678    1.6684   -0.7174 N   0  0  0  0  0  2  0  0  0  0  0  0
    1.0919    2.1062   -1.9102 N   0  0  0  0  0  0  0  0  0  0  0  0
    2.1519    2.7345   -0.1296 C   0  0  0  0  0  3  0  0  0  0  0  0
    2.6130    2.6349    0.8588 H   0  0  0  0  0  0  0  0  0  0  0  0
    2.0477    3.8704   -0.9563 C   0  0  0  0  0  0  0  0  0  0  0  0
    2.4284    4.8774   -0.7616 H   0  0  0  0  0  0  0  0  0  0  0  0
    1.3633    3.4288   -2.0873 C   0  0  0  0  0  0  0  0  0  0  0  0
    1.0665    3.9480   -3.0052 H   0  0  0  0  0  0  0  0  0  0  0  0
    0.3419    1.2116   -2.7834 C   0  0  0  0  0  0  0  0  0  0  0  0
    0.9311    0.2775   -2.8919 H   0  0  0  0  0  0  0  0  0  0  0  0
    0.2888    1.6996   -3.7757 H   0  0  0  0  0  0  0  0  0  0  0  0
   -1.0639    0.9050   -2.2562 C   0  0  0  0  0  0  0  0  0  0  0  0
   -1.5621    0.1922   -2.9420 H   0  0  0  0  0  0  0  0  0  0  0  0
   -1.6817    1.8244   -2.2228 H   0  0  0  0  0  0  0  0  0  0  0  0
   -2.2109   -1.2469   -0.6094 C   0  0  0  0  0  0  0  0  0  0  0  0
   -2.1303   -2.1780   -1.6688 C   0  0  0  0  0  0  0  0  0  0  0  0
   -1.4119   -2.0305   -2.4913 H   0  0  0  0  0  0  0  0  0  0  0  0
   -2.9631   -3.3056   -1.6818 C   0  0  0  0  0  0  0  0  0  0  0  0
   -2.9011   -4.0202   -2.5159 H   0  0  0  0  0  0  0  0  0  0  0  0
   -3.8708   -3.5228   -0.6321 C   0  0  0  0  0  0  0  0  0  0  0  0
   -4.5232   -4.4084   -0.6436 H   0  0  0  0  0  0  0  0  0  0  0  0
   -3.9432   -2.6096    0.4307 C   0  0  0  0  0  0  0  0  0  0  0  0
   -4.6529   -2.7765    1.2547 H   0  0  0  0  0  0  0  0  0  0  0  0
   -3.1170   -1.4752    0.4473 C   0  0  0  0  0  0  0  0  0  0  0  0
   -3.1871   -0.7587    1.2795 H   0  0  0  0  0  0  0  0  0  0  0  0
   -1.8135    1.4008    0.5424 C   0  0  0  0  0  0  0  0  0  0  0  0
   -1.1276    1.8349    1.6950 C   0  0  0  0  0  0  0  0  0  0  0  0
   -0.1348    1.4104    1.9195 H   0  0  0  0  0  0  0  0  0  0  0  0
   -1.7072    2.7951    2.5386 C   0  0  0  0  0  0  0  0  0  0  0  0
   -1.1692    3.1314    3.4375 H   0  0  0  0  0  0  0  0  0  0  0  0
   -2.9713    3.3232    2.2351 C   0  0  0  0  0  0  0  0  0  0  0  0
   -3.4259    4.0760    2.8963 H   0  0  0  0  0  0  0  0  0  0  0  0
   -3.6612    2.8896    1.0895 C   0  0  0  0  0  0  0  0  0  0  0  0
   -4.6550    3.2997    0.8560 H   0  0  0  0  0  0  0  0  0  0  0  0
   -3.0881    1.9301    0.2440 C   0  0  0  0  0  0  0  0  0  0  0  0
   -3.6429    1.5831   -0.6420 H   0  0  0  0  0  0  0  0  0  0  0  0
  1 27  1  0  0  0  0
  2  4  1  0  0  0  0
  3  2  1  0  0  0  0
  4  5  1  0  0  0  0
  6  7  1  0  0  0  0
  6  4  1  0  0  0  0
  8  3  1  0  0  0  0
  8  6  2  0  0  0  0
  9  8  1  0  0  0  0
 10 13  1  0  0  0  0
 10  3  1  0  0  0  0
 11 10  1  0  0  0  0
 12 10  1  0  0  0  0
 13 15  1  0  0  0  0
 13  1  1  0  0  0  0
 14 13  1  0  0  0  0
 16  1  1  0  0  0  0
 16 25  1  0  0  0  0
 17 16  2  0  0  0  0
 18 17  1  0  0  0  0
 19 17  1  0  0  0  0
 19 21  2  0  0  0  0
 20 19  1  0  0  0  0
 21 23  1  0  0  0  0
 22 21  1  0  0  0  0
 23 25  2  0  0  0  0
 23 24  1  0  0  0  0
 25 26  1  0  0  0  0
 27 28  1  0  0  0  0
 28 29  1  0  0  0  0
 28 30  2  0  0  0  0
 30 31  1  0  0  0  0
 32 30  1  0  0  0  0
 32 33  1  0  0  0  0
 34 32  2  0  0  0  0
 35 34  1  0  0  0  0
 36 27  2  0  0  0  0
 36 34  1  0  0  0  0
 37 36  1  0  0  0  0
M  END
