24
 OpenBabel05122313063D

 25 24  0  0  0  0  0  0  0  0999 V2000
   -0.4627   -1.5645    1.8174 S   0  0  0  0  0  0  0  0  0  0  0  0
   -2.1396   -1.3776    1.3302 C   0  0  0  0  0  0  0  0  0  0  0  0
   -2.7878   -3.2673    2.7535 C   0  0  0  0  0  0  0  0  0  0  0  0
   -2.0548   -2.8391    3.4600 H   0  0  0  0  0  0  0  0  0  0  0  0
   -2.3757   -4.2216    2.3553 H   0  0  0  0  0  0  0  0  0  0  0  0
   -3.7279   -3.4910    3.2992 H   0  0  0  0  0  0  0  0  0  0  0  0
   -4.1781   -2.7001    0.8196 C   0  0  0  0  0  0  0  0  0  0  0  0
   -4.1207   -2.1681   -0.1429 H   0  0  0  0  0  0  0  0  0  0  0  0
   -5.1682   -2.5124    1.2886 H   0  0  0  0  0  0  0  0  0  0  0  0
   -4.1030   -3.7876    0.5994 H   0  0  0  0  0  0  0  0  0  0  0  0
   -3.6961    0.2389    0.3262 C   0  0  0  0  0  0  0  0  0  0  0  0
   -4.0807   -0.1667   -0.6391 H   0  0  0  0  0  0  0  0  0  0  0  0
   -4.4067   -0.1012    1.1125 H   0  0  0  0  0  0  0  0  0  0  0  0
   -3.7364    1.7648    0.2448 C   0  0  0  0  0  0  0  0  0  0  0  0
   -2.9680    2.1113   -0.4774 H   0  0  0  0  0  0  0  0  0  0  0  0
   -3.4411    2.1923    1.2268 H   0  0  0  0  0  0  0  0  0  0  0  0
   -5.1098    2.3051   -0.1593 C   0  0  0  0  0  0  0  0  0  0  0  0
   -5.4007    1.8699   -1.1419 H   0  0  0  0  0  0  0  0  0  0  0  0
   -5.8773    1.9485    0.5636 H   0  0  0  0  0  0  0  0  0  0  0  0
   -5.1479    3.8315   -0.2403 C   0  0  0  0  0  0  0  0  0  0  0  0
   -6.1471    4.2045   -0.5417 H   0  0  0  0  0  0  0  0  0  0  0  0
   -4.4108    4.2127   -0.9779 H   0  0  0  0  0  0  0  0  0  0  0  0
   -4.8997    4.2922    0.7386 H   0  0  0  0  0  0  0  0  0  0  0  0
   -2.3646   -0.2789    0.6124 N   0  0  0  0  0  2  0  0  0  0  0  0
   -3.0733   -2.3151    1.6893 N   0  0  0  0  0  0  0  0  0  0  0  0
  2 25  1  0  0  0  0
  2  1  2  0  0  0  0
  3  6  1  0  0  0  0
  3  4  1  0  0  0  0
  5  3  1  0  0  0  0
  7  9  1  0  0  0  0
  7 25  1  0  0  0  0
  8  7  1  0  0  0  0
 10  7  1  0  0  0  0
 11 24  1  0  0  0  0
 11 13  1  0  0  0  0
 12 11  1  0  0  0  0
 14 11  1  0  0  0  0
 14 16  1  0  0  0  0
 15 14  1  0  0  0  0
 17 14  1  0  0  0  0
 17 19  1  0  0  0  0
 18 17  1  0  0  0  0
 20 17  1  0  0  0  0
 20 23  1  0  0  0  0
 21 20  1  0  0  0  0
 22 20  1  0  0  0  0
 24  2  1  0  0  0  0
 25  3  1  0  0  0  0
M  END
