1
 OpenBabel05122313063D

 31 32  0  0  0  0  0  0  0  0999 V2000
    0.6362   -0.4595    0.2415 N   0  0  0  0  0  2  0  0  0  0  0  0
   -0.1864   -0.8062   -0.7913 C   0  0  0  0  0  3  0  0  0  0  0  0
    0.3129   -1.2105   -1.6835 H   0  0  0  0  0  0  0  0  0  0  0  0
   -1.5641   -0.6596   -0.7278 C   0  0  0  0  0  0  0  0  0  0  0  0
   -2.2079   -0.9405   -1.5718 H   0  0  0  0  0  0  0  0  0  0  0  0
   -2.1630   -0.1434    0.4528 C   0  0  0  0  0  0  0  0  0  0  0  0
   -1.2974    0.1975    1.5209 C   0  0  0  0  0  0  0  0  0  0  0  0
   -1.7273    0.5876    2.4538 H   0  0  0  0  0  0  0  0  0  0  0  0
    0.0752    0.0266    1.3839 C   0  0  0  0  0  0  0  0  0  0  0  0
    0.7730    0.2715    2.1975 H   0  0  0  0  0  0  0  0  0  0  0  0
   -3.5286    0.0415    0.6513 N   0  0  0  0  0  2  0  0  0  0  0  0
   -4.2423   -0.2701   -0.3755 N   0  0  0  0  0  2  0  0  0  0  0  0
   -5.6033   -0.1300   -0.2335 C   0  0  0  0  0  0  0  0  0  0  0  0
   -6.4018   -0.4666   -1.3611 C   0  0  0  0  0  0  0  0  0  0  0  0
   -5.8849   -0.8111   -2.2688 H   0  0  0  0  0  0  0  0  0  0  0  0
   -7.7826   -0.3680   -1.3227 C   0  0  0  0  0  0  0  0  0  0  0  0
   -8.3614   -0.6386   -2.2138 H   0  0  0  0  0  0  0  0  0  0  0  0
   -8.4480    0.0791   -0.1351 C   0  0  0  0  0  0  0  0  0  0  0  0
   -7.6366    0.4198    1.0022 C   0  0  0  0  0  0  0  0  0  0  0  0
   -8.1099    0.7657    1.9297 H   0  0  0  0  0  0  0  0  0  0  0  0
   -6.2599    0.3177    0.9515 C   0  0  0  0  0  0  0  0  0  0  0  0
   -5.6370    0.5754    1.8194 H   0  0  0  0  0  0  0  0  0  0  0  0
   -9.8091    0.1785   -0.0814 N   0  0  0  0  0  0  0  0  0  0  0  0
  -10.6181   -0.1729   -1.2407 C   0  0  0  0  0  0  0  0  0  0  0  0
  -10.3729    0.4629   -2.1182 H   0  0  0  0  0  0  0  0  0  0  0  0
  -11.6847   -0.0261   -0.9992 H   0  0  0  0  0  0  0  0  0  0  0  0
  -10.4740   -1.2350   -1.5332 H   0  0  0  0  0  0  0  0  0  0  0  0
  -10.4719    0.6315    1.1347 C   0  0  0  0  0  0  0  0  0  0  0  0
  -10.2589   -0.0412    1.9927 H   0  0  0  0  0  0  0  0  0  0  0  0
  -11.5632    0.6413    0.9716 H   0  0  0  0  0  0  0  0  0  0  0  0
  -10.1572    1.6594    1.4145 H   0  0  0  0  0  0  0  0  0  0  0  0
  1  9  1  0  0  0  0
  2  4  1  0  0  0  0
  2  1  1  0  0  0  0
  3  2  1  0  0  0  0
  4  6  2  0  0  0  0
  5  4  1  0  0  0  0
  6 11  1  0  0  0  0
  6  7  1  0  0  0  0
  7  8  1  0  0  0  0
  9  7  2  0  0  0  0
  9 10  1  0  0  0  0
 12 13  1  0  0  0  0
 12 11  1  0  0  0  0
 13 21  1  0  0  0  0
 14 16  1  0  0  0  0
 14 13  2  0  0  0  0
 15 14  1  0  0  0  0
 16 18  2  0  0  0  0
 17 16  1  0  0  0  0
 18 23  1  0  0  0  0
 18 19  1  0  0  0  0
 19 20  1  0  0  0  0
 21 19  2  0  0  0  0
 21 22  1  0  0  0  0
 23 28  1  0  0  0  0
 24 26  1  0  0  0  0
 24 23  1  0  0  0  0
 25 24  1  0  0  0  0
 27 24  1  0  0  0  0
 28 31  1  0  0  0  0
 28 29  1  0  0  0  0
 30 28  1  0  0  0  0
M  END
