1
 OpenBabel05122313063D

 40 39  0  0  0  0  0  0  0  0999 V2000
    0.5859   -0.4684    0.1314 N   0  0  0  0  0  2  0  0  0  0  0  0
    2.8657   -0.1439    0.5100 N   0  0  0  0  0  0  0  0  0  0  0  0
    2.1782   -2.1360   -0.5228 N   0  0  0  0  0  0  0  0  0  0  0  0
   -0.4169   -1.4161    0.1609 N   0  0  0  0  0  2  0  0  0  0  0  0
   -2.7142   -1.7271    0.2132 N   0  0  0  0  0  0  0  0  0  0  0  0
   -1.8249    0.2483   -0.8416 N   0  0  0  0  0  0  0  0  0  0  0  0
    1.8222   -0.9190    0.0335 C   0  0  0  0  0  3  0  0  0  0  0  0
    2.6454    0.8026    1.5878 C   0  0  0  0  0  0  0  0  0  0  0  0
    2.4304    1.8312    1.2171 H   0  0  0  0  0  0  0  0  0  0  0  0
    3.5548    0.8533    2.2251 H   0  0  0  0  0  0  0  0  0  0  0  0
    1.7906    0.4739    2.2064 H   0  0  0  0  0  0  0  0  0  0  0  0
    4.0335    0.1107   -0.3175 C   0  0  0  0  0  0  0  0  0  0  0  0
    4.0573   -0.6021   -1.1615 H   0  0  0  0  0  0  0  0  0  0  0  0
    4.9731    0.0009    0.2666 H   0  0  0  0  0  0  0  0  0  0  0  0
    4.0033    1.1435   -0.7360 H   0  0  0  0  0  0  0  0  0  0  0  0
    1.3930   -2.7596   -1.5694 C   0  0  0  0  0  0  0  0  0  0  0  0
    0.7153   -3.5521   -1.1837 H   0  0  0  0  0  0  0  0  0  0  0  0
    2.0785   -3.2089   -2.3223 H   0  0  0  0  0  0  0  0  0  0  0  0
    0.7697   -2.0019   -2.0760 H   0  0  0  0  0  0  0  0  0  0  0  0
    3.2229   -2.9577    0.0589 C   0  0  0  0  0  0  0  0  0  0  0  0
    4.0301   -3.1853   -0.6742 H   0  0  0  0  0  0  0  0  0  0  0  0
    2.8060   -3.9276    0.4149 H   0  0  0  0  0  0  0  0  0  0  0  0
    3.6696   -2.4321    0.9219 H   0  0  0  0  0  0  0  0  0  0  0  0
   -1.6048   -0.9835   -0.1698 C   0  0  0  0  0  3  0  0  0  0  0  0
   -3.7329   -2.0406   -0.7767 C   0  0  0  0  0  0  0  0  0  0  0  0
   -3.8022   -1.2417   -1.5356 H   0  0  0  0  0  0  0  0  0  0  0  0
   -4.7262   -2.1442   -0.2925 H   0  0  0  0  0  0  0  0  0  0  0  0
   -3.5081   -2.9964   -1.3098 H   0  0  0  0  0  0  0  0  0  0  0  0
   -2.5137   -2.7601    1.2145 C   0  0  0  0  0  0  0  0  0  0  0  0
   -2.0407   -3.6775    0.7910 H   0  0  0  0  0  0  0  0  0  0  0  0
   -3.4967   -3.0370    1.6482 H   0  0  0  0  0  0  0  0  0  0  0  0
   -1.8501   -2.3764    2.0098 H   0  0  0  0  0  0  0  0  0  0  0  0
   -1.3580    0.3210   -2.2242 C   0  0  0  0  0  0  0  0  0  0  0  0
   -0.3462   -0.1179   -2.3024 H   0  0  0  0  0  0  0  0  0  0  0  0
   -1.2805    1.3803   -2.5348 H   0  0  0  0  0  0  0  0  0  0  0  0
   -2.0437   -0.2082   -2.9298 H   0  0  0  0  0  0  0  0  0  0  0  0
   -3.0212    1.0331   -0.5560 C   0  0  0  0  0  0  0  0  0  0  0  0
   -3.8850    0.7884   -1.2187 H   0  0  0  0  0  0  0  0  0  0  0  0
   -2.7857    2.1091   -0.6918 H   0  0  0  0  0  0  0  0  0  0  0  0
   -3.3227    0.8754    0.4946 H   0  0  0  0  0  0  0  0  0  0  0  0
  1  4  1  0  0  0  0
  2  8  1  0  0  0  0
  3  7  1  0  0  0  0
  3 20  1  0  0  0  0
  5 29  1  0  0  0  0
  6 37  1  0  0  0  0
  6 24  1  0  0  0  0
  7  1  1  0  0  0  0
  7  2  1  0  0  0  0
  8 11  1  0  0  0  0
  8 10  1  0  0  0  0
  9  8  1  0  0  0  0
 12 14  1  0  0  0  0
 12  2  1  0  0  0  0
 13 12  1  0  0  0  0
 15 12  1  0  0  0  0
 16 17  1  0  0  0  0
 16  3  1  0  0  0  0
 18 16  1  0  0  0  0
 19 16  1  0  0  0  0
 20 22  1  0  0  0  0
 20 23  1  0  0  0  0
 21 20  1  0  0  0  0
 24  4  1  0  0  0  0
 24  5  1  0  0  0  0
 25 27  1  0  0  0  0
 25  5  1  0  0  0  0
 26 25  1  0  0  0  0
 28 25  1  0  0  0  0
 29 31  1  0  0  0  0
 29 32  1  0  0  0  0
 30 29  1  0  0  0  0
 33  6  1  0  0  0  0
 34 33  1  0  0  0  0
 35 33  1  0  0  0  0
 36 33  1  0  0  0  0
 37 40  1  0  0  0  0
 38 37  1  0  0  0  0
 39 37  1  0  0  0  0
M  END
