1
 OpenBabel05122313063D

 41 40  0  0  0  0  0  0  0  0999 V2000
    0.3360    0.4212    0.0234 N   0  0  0  0  0  2  0  0  0  0  0  0
    1.6926    2.0218    1.1766 N   0  0  0  0  0  0  0  0  0  0  0  0
    2.3006    1.1504   -0.9251 N   0  0  0  0  0  0  0  0  0  0  0  0
   -0.7905    0.7412    0.8121 N   0  0  0  0  0  0  0  0  0  0  0  0
   -0.8137    0.1292    1.6627 H   0  0  0  0  0  0  0  0  0  0  0  0
   -3.1148    0.3639    0.6403 N   0  0  0  0  0  0  0  0  0  0  0  0
   -2.0034    1.6572   -0.9732 N   0  0  0  0  0  0  0  0  0  0  0  0
    1.4172    1.1925    0.1167 C   0  0  0  0  0  3  0  0  0  0  0  0
    2.3586    3.2998    1.0016 C   0  0  0  0  0  0  0  0  0  0  0  0
    2.4285    3.5405   -0.0751 H   0  0  0  0  0  0  0  0  0  0  0  0
    3.3856    3.3091    1.4319 H   0  0  0  0  0  0  0  0  0  0  0  0
    1.7755    4.1001    1.5084 H   0  0  0  0  0  0  0  0  0  0  0  0
    1.3643    1.6343    2.5419 C   0  0  0  0  0  0  0  0  0  0  0  0
    0.5083    2.2158    2.9496 H   0  0  0  0  0  0  0  0  0  0  0  0
    2.2468    1.8160    3.1925 H   0  0  0  0  0  0  0  0  0  0  0  0
    1.1291    0.5513    2.5879 H   0  0  0  0  0  0  0  0  0  0  0  0
    3.7389    1.0716   -0.6813 C   0  0  0  0  0  0  0  0  0  0  0  0
    3.9661    1.3235    0.3687 H   0  0  0  0  0  0  0  0  0  0  0  0
    4.2915    1.7644   -1.3501 H   0  0  0  0  0  0  0  0  0  0  0  0
    4.0705    0.0262   -0.8613 H   0  0  0  0  0  0  0  0  0  0  0  0
    1.8859    0.6463   -2.2328 C   0  0  0  0  0  0  0  0  0  0  0  0
    2.1745   -0.4217   -2.3421 H   0  0  0  0  0  0  0  0  0  0  0  0
    2.3705    1.2550   -3.0250 H   0  0  0  0  0  0  0  0  0  0  0  0
    0.7865    0.6982   -2.3197 H   0  0  0  0  0  0  0  0  0  0  0  0
   -1.9660    0.8822    0.1472 C   0  0  0  0  0  3  0  0  0  0  0  0
   -3.1820   -0.9020    1.3681 C   0  0  0  0  0  0  0  0  0  0  0  0
   -2.1772   -1.3414    1.5174 H   0  0  0  0  0  0  0  0  0  0  0  0
   -3.7755   -1.6281    0.7756 H   0  0  0  0  0  0  0  0  0  0  0  0
   -3.6664   -0.7440    2.3544 H   0  0  0  0  0  0  0  0  0  0  0  0
   -4.3995    0.9889    0.3638 C   0  0  0  0  0  0  0  0  0  0  0  0
   -4.2540    2.0325    0.0324 H   0  0  0  0  0  0  0  0  0  0  0  0
   -5.0040    0.9896    1.2941 H   0  0  0  0  0  0  0  0  0  0  0  0
   -4.9706    0.4385   -0.4148 H   0  0  0  0  0  0  0  0  0  0  0  0
   -2.7549    1.2242   -2.1469 C   0  0  0  0  0  0  0  0  0  0  0  0
   -3.0430    0.1640   -2.0230 H   0  0  0  0  0  0  0  0  0  0  0  0
   -2.0859    1.2691   -3.0309 H   0  0  0  0  0  0  0  0  0  0  0  0
   -3.6434    1.8626   -2.3445 H   0  0  0  0  0  0  0  0  0  0  0  0
   -1.0933    2.7768   -1.1494 C   0  0  0  0  0  0  0  0  0  0  0  0
   -0.6636    3.0664   -0.1734 H   0  0  0  0  0  0  0  0  0  0  0  0
   -1.6542    3.6409   -1.5647 H   0  0  0  0  0  0  0  0  0  0  0  0
   -0.2611    2.5348   -1.8441 H   0  0  0  0  0  0  0  0  0  0  0  0
  1  8  1  0  0  0  0
  1  4  1  0  0  0  0
  2 13  1  0  0  0  0
  3 17  1  0  0  0  0
  3  8  1  0  0  0  0
  4  5  1  0  0  0  0
  6 26  1  0  0  0  0
  7 25  1  0  0  0  0
  8  2  1  0  0  0  0
  9  2  1  0  0  0  0
  9 11  1  0  0  0  0
  9 12  1  0  0  0  0
 10  9  1  0  0  0  0
 13 16  1  0  0  0  0
 13 14  1  0  0  0  0
 13 15  1  0  0  0  0
 17 18  1  0  0  0  0
 19 17  1  0  0  0  0
 20 17  1  0  0  0  0
 21  3  1  0  0  0  0
 22 21  1  0  0  0  0
 23 21  1  0  0  0  0
 24 21  1  0  0  0  0
 25  6  1  0  0  0  0
 25  4  1  0  0  0  0
 26 27  1  0  0  0  0
 26 29  1  0  0  0  0
 28 26  1  0  0  0  0
 30  6  1  0  0  0  0
 30 32  1  0  0  0  0
 31 30  1  0  0  0  0
 33 30  1  0  0  0  0
 34 35  1  0  0  0  0
 34  7  1  0  0  0  0
 36 34  1  0  0  0  0
 37 34  1  0  0  0  0
 38  7  1  0  0  0  0
 38 39  1  0  0  0  0
 40 38  1  0  0  0  0
 41 38  1  0  0  0  0
M  END
