1
 OpenBabel05122313063D

 33 34  0  0  0  0  0  0  0  0999 V2000
   -0.8772   -0.4245    0.2537 N   0  0  0  0  0  2  0  0  0  0  0  0
    5.4697   -1.0988    1.5439 N   0  0  0  0  0  0  0  0  0  0  0  0
    5.2035   -0.3164   -2.3151 N   0  0  0  0  0  0  0  0  0  0  0  0
   -0.8743    0.9535    2.3310 O   0  0  0  0  0  0  0  0  0  0  0  0
   -1.0479   -1.5697    2.6349 O   0  0  0  0  0  0  0  0  0  0  0  0
   -1.3190   -1.5613   -1.9246 O   0  0  0  0  0  0  0  0  0  0  0  0
   -0.3973   -3.0093   -0.0098 O   0  0  0  0  0  0  0  0  0  0  0  0
    6.0810   -0.2473    0.8979 O   0  0  0  0  0  0  0  0  0  0  0  0
    5.9629   -2.1125    2.0349 O   0  0  0  0  0  0  0  0  0  0  0  0
    5.4048    0.8438   -2.6758 O   0  0  0  0  0  0  0  0  0  0  0  0
    6.0619   -1.1870   -2.1977 O   0  0  0  0  0  0  0  0  0  0  0  0
   -0.5144   -0.4149    1.8675 S   0  0  0  0  0  0  0  0  0  0  0  0
   -0.4630   -1.7005   -0.7163 S   0  0  0  0  0  0  0  0  0  0  0  0
    1.2826   -0.5608    1.9120 C   0  0  0  0  0  0  0  0  0  0  0  0
    2.0587    0.4679    1.3501 C   0  0  0  0  0  0  0  0  0  0  0  0
    1.5690    1.3706    0.9569 H   0  0  0  0  0  0  0  0  0  0  0  0
    3.4416    0.2997    1.2517 C   0  0  0  0  0  0  0  0  0  0  0  0
    4.0948    1.0500    0.7866 H   0  0  0  0  0  0  0  0  0  0  0  0
    4.0109   -0.8903    1.7277 C   0  0  0  0  0  0  0  0  0  0  0  0
    3.2484   -1.9055    2.3178 C   0  0  0  0  0  0  0  0  0  0  0  0
    3.7538   -2.8133    2.6735 H   0  0  0  0  0  0  0  0  0  0  0  0
    1.8594   -1.7415    2.4022 C   0  0  0  0  0  0  0  0  0  0  0  0
    1.2064   -2.5209    2.8191 H   0  0  0  0  0  0  0  0  0  0  0  0
    1.2203   -1.3163   -1.2556 C   0  0  0  0  0  0  0  0  0  0  0  0
    1.4696   -0.0815   -1.8806 C   0  0  0  0  0  0  0  0  0  0  0  0
    0.6517    0.6398   -2.0388 H   0  0  0  0  0  0  0  0  0  0  0  0
    2.7807    0.2366   -2.2461 C   0  0  0  0  0  0  0  0  0  0  0  0
    3.0403    1.1937   -2.7166 H   0  0  0  0  0  0  0  0  0  0  0  0
    3.8031   -0.6882   -1.9867 C   0  0  0  0  0  0  0  0  0  0  0  0
    3.5539   -1.9345   -1.4006 C   0  0  0  0  0  0  0  0  0  0  0  0
    4.3930   -2.6224   -1.2296 H   0  0  0  0  0  0  0  0  0  0  0  0
    2.2403   -2.2510   -1.0286 C   0  0  0  0  0  0  0  0  0  0  0  0
    1.9928   -3.2052   -0.5426 H   0  0  0  0  0  0  0  0  0  0  0  0
  1 12  1  0  0  0  0
  2 19  1  0  0  0  0
  2  9  2  0  0  0  0
  3 11  2  0  0  0  0
  3 29  1  0  0  0  0
  6 13  2  0  0  0  0
  8  2  2  0  0  0  0
 10  3  2  0  0  0  0
 12 14  1  0  0  0  0
 12  4  2  0  0  0  0
 12  5  2  0  0  0  0
 13  7  2  0  0  0  0
 13  1  1  0  0  0  0
 14 22  1  0  0  0  0
 15 14  2  0  0  0  0
 16 15  1  0  0  0  0
 17 15  1  0  0  0  0
 17 19  2  0  0  0  0
 18 17  1  0  0  0  0
 19 20  1  0  0  0  0
 20 22  2  0  0  0  0
 20 21  1  0  0  0  0
 22 23  1  0  0  0  0
 24 32  1  0  0  0  0
 24 13  1  0  0  0  0
 25 24  2  0  0  0  0
 26 25  1  0  0  0  0
 27 29  2  0  0  0  0
 27 25  1  0  0  0  0
 28 27  1  0  0  0  0
 29 30  1  0  0  0  0
 30 31  1  0  0  0  0
 30 32  2  0  0  0  0
 32 33  1  0  0  0  0
M  END
