1
 OpenBabel05122313063D

 21 22  0  0  0  0  0  0  0  0999 V2000
   -0.1678    1.2888   -0.8997 N   0  0  0  0  0  2  0  0  0  0  0  0
   -1.1615    2.1438   -1.0691 N   0  0  0  0  0  2  0  0  0  0  0  0
   -0.6256    3.3639   -1.0769 N   0  0  0  0  0  0  0  0  0  0  0  0
   -1.4748    4.5284   -1.2878 C   0  0  0  0  0  0  0  0  0  0  0  0
   -2.5179    4.1728   -1.3452 H   0  0  0  0  0  0  0  0  0  0  0  0
   -1.2019    5.0307   -2.2355 H   0  0  0  0  0  0  0  0  0  0  0  0
   -1.3626    5.2370   -0.4456 H   0  0  0  0  0  0  0  0  0  0  0  0
    0.7249    3.3167   -0.9079 C   0  0  0  0  0  0  0  0  0  0  0  0
    1.3622    4.2062   -0.9083 H   0  0  0  0  0  0  0  0  0  0  0  0
    1.0323    1.9630   -0.7957 C   0  0  0  0  0  0  0  0  0  0  0  0
    2.3598    1.3447   -0.6204 C   0  0  0  0  0  0  0  0  0  0  0  0
    3.1504    1.6874    0.4976 C   0  0  0  0  0  0  0  0  0  0  0  0
    2.7515    2.3816    1.2529 H   0  0  0  0  0  0  0  0  0  0  0  0
    4.4309    1.1374    0.6511 C   0  0  0  0  0  0  0  0  0  0  0  0
    5.0415    1.4107    1.5246 H   0  0  0  0  0  0  0  0  0  0  0  0
    4.9347    0.2456   -0.3100 C   0  0  0  0  0  0  0  0  0  0  0  0
    5.9435   -0.1781   -0.1932 H   0  0  0  0  0  0  0  0  0  0  0  0
    4.1559   -0.0916   -1.4292 C   0  0  0  0  0  0  0  0  0  0  0  0
    4.5519   -0.7760   -2.1942 H   0  0  0  0  0  0  0  0  0  0  0  0
    2.8758    0.4574   -1.5891 C   0  0  0  0  0  0  0  0  0  0  0  0
    2.2829    0.2150   -2.4814 H   0  0  0  0  0  0  0  0  0  0  0  0
  1 10  1  0  0  0  0
  2  1  1  0  0  0  0
  3  2  1  0  0  0  0
  3  8  1  0  0  0  0
  4  3  1  0  0  0  0
  4  7  1  0  0  0  0
  5  4  1  0  0  0  0
  6  4  1  0  0  0  0
  8 10  2  0  0  0  0
  9  8  1  0  0  0  0
 10 11  1  0  0  0  0
 11 12  1  0  0  0  0
 12 14  2  0  0  0  0
 12 13  1  0  0  0  0
 14 15  1  0  0  0  0
 16 17  1  0  0  0  0
 16 14  1  0  0  0  0
 18 16  2  0  0  0  0
 19 18  1  0  0  0  0
 20 18  1  0  0  0  0
 20 11  2  0  0  0  0
 21 20  1  0  0  0  0
M  END
