4
 OpenBabel05122313063D

 27 28  0  0  0  0  0  0  0  0999 V2000
   -2.8908    1.4417    0.3128 C   0  0  0  0  0  0  0  0  0  0  0  0
   -3.4280    1.1359   -0.9558 C   0  0  0  0  0  0  0  0  0  0  0  0
   -2.8109    1.2566   -1.8566 H   0  0  0  0  0  0  0  0  0  0  0  0
   -0.3864    1.0823    0.2009 N   0  0  0  0  0  2  0  0  0  0  0  0
    0.7273    1.7407    0.4712 N   0  0  0  0  0  2  0  0  0  0  0  0
    0.3687    2.9491    0.9009 N   0  0  0  0  0  0  0  0  0  0  0  0
    1.3958    3.9564    1.1788 C   0  0  0  0  0  0  0  0  0  0  0  0
    2.2701    3.4017    1.5723 H   0  0  0  0  0  0  0  0  0  0  0  0
    1.0053    4.6028    1.9884 H   0  0  0  0  0  0  0  0  0  0  0  0
    1.7741    4.7804   -0.0579 C   0  0  0  0  0  0  0  0  0  0  0  0
    0.8756    5.3277   -0.4155 H   0  0  0  0  0  0  0  0  0  0  0  0
    2.4856    5.5594    0.2884 H   0  0  0  0  0  0  0  0  0  0  0  0
    2.3927    3.9664   -1.1938 C   0  0  0  0  0  0  0  0  0  0  0  0
    3.3001    3.4242   -0.8564 H   0  0  0  0  0  0  0  0  0  0  0  0
    2.6851    4.6275   -2.0326 H   0  0  0  0  0  0  0  0  0  0  0  0
    1.6870    3.2108   -1.5940 H   0  0  0  0  0  0  0  0  0  0  0  0
   -0.9868    3.0913    0.9115 C   0  0  0  0  0  0  0  0  0  0  0  0
   -1.4912    4.0124    1.2184 H   0  0  0  0  0  0  0  0  0  0  0  0
   -1.4891    1.8748    0.4583 C   0  0  0  0  0  0  0  0  0  0  0  0
   -4.7519    0.6914   -1.0679 C   0  0  0  0  0  0  0  0  0  0  0  0
   -5.1628    0.4512   -2.0595 H   0  0  0  0  0  0  0  0  0  0  0  0
   -5.5503    0.5571    0.0790 C   0  0  0  0  0  0  0  0  0  0  0  0
   -6.5876    0.2020   -0.0117 H   0  0  0  0  0  0  0  0  0  0  0  0
   -5.0281    0.8818    1.3409 C   0  0  0  0  0  0  0  0  0  0  0  0
   -5.6540    0.7817    2.2399 H   0  0  0  0  0  0  0  0  0  0  0  0
   -3.7044    1.3258    1.4598 C   0  0  0  0  0  0  0  0  0  0  0  0
   -3.2862    1.5640    2.4497 H   0  0  0  0  0  0  0  0  0  0  0  0
  1 19  1  0  0  0  0
  1 26  1  0  0  0  0
  2  1  2  0  0  0  0
  3  2  1  0  0  0  0
  4 19  1  0  0  0  0
  4  5  1  0  0  0  0
  5  6  1  0  0  0  0
  6 17  1  0  0  0  0
  6  7  1  0  0  0  0
  7  8  1  0  0  0  0
  7  9  1  0  0  0  0
 10 12  1  0  0  0  0
 10  7  1  0  0  0  0
 11 10  1  0  0  0  0
 13 14  1  0  0  0  0
 13 10  1  0  0  0  0
 15 13  1  0  0  0  0
 16 13  1  0  0  0  0
 17 18  1  0  0  0  0
 19 17  2  0  0  0  0
 20  2  1  0  0  0  0
 20 22  2  0  0  0  0
 21 20  1  0  0  0  0
 22 24  1  0  0  0  0
 23 22  1  0  0  0  0
 24 26  2  0  0  0  0
 24 25  1  0  0  0  0
 26 27  1  0  0  0  0
M  END
