1
 OpenBabel05122313063D

 21 23  0  0  1  0  0  0  0  0999 V2000
    2.1635   -0.5058   -0.3358 N   0  0  0  0  0  2  0  0  0  0  0  0
    2.9295    0.2515   -1.1594 N   0  0  0  0  0  0  0  0  0  0  0  0
    3.0071   -0.9988    0.6303 C   0  0  2  0  0  3  0  0  0  0  0  0
    2.6926   -1.8273    1.7290 C   0  0  0  0  0  0  0  0  0  0  0  0
    1.6625   -2.1724    1.8964 H   0  0  0  0  0  0  0  0  0  0  0  0
    3.7359   -2.1824    2.5818 C   0  0  0  0  0  0  0  0  0  0  0  0
    3.5251   -2.8284    3.4471 H   0  0  0  0  0  0  0  0  0  0  0  0
    5.0693   -1.7356    2.3657 C   0  0  0  0  0  0  0  0  0  0  0  0
    5.8585   -2.0442    3.0660 H   0  0  0  0  0  0  0  0  0  0  0  0
    5.3871   -0.9193    1.2828 C   0  0  0  0  0  0  0  0  0  0  0  0
    6.4183   -0.5759    1.1158 H   0  0  0  0  0  0  0  0  0  0  0  0
    4.3449   -0.5440    0.4049 C   0  0  0  0  0  0  0  0  0  0  0  0
    4.2733    0.2702   -0.7668 C   0  0  0  0  0  0  0  0  0  0  0  0
    5.1858    1.0232   -1.5317 C   0  0  0  0  0  0  0  0  0  0  0  0
    6.2417    1.0385   -1.2288 H   0  0  0  0  0  0  0  0  0  0  0  0
    4.7361    1.7264   -2.6445 C   0  0  0  0  0  0  0  0  0  0  0  0
    5.4396    2.3162   -3.2486 H   0  0  0  0  0  0  0  0  0  0  0  0
    3.3629    1.6798   -3.0001 C   0  0  0  0  0  0  0  0  0  0  0  0
    2.9873    2.2273   -3.8750 H   0  0  0  0  0  0  0  0  0  0  0  0
    2.4689    0.9407   -2.2479 C   0  0  0  0  0  0  0  0  0  0  0  0
    1.3917    0.8547   -2.4458 H   0  0  0  0  0  0  0  0  0  0  0  0
  2 13  1  0  0  0  0
  2  1  1  0  0  0  0
  3  1  1  1  0  0  0
  3  4  1  0  0  0  0
  4  5  1  0  0  0  0
  4  6  2  0  0  0  0
  6  7  1  0  0  0  0
  8  6  1  0  0  0  0
  8  9  1  0  0  0  0
 10  8  2  0  0  0  0
 11 10  1  0  0  0  0
 12  3  1  0  0  0  0
 12 10  1  0  0  0  0
 13 12  2  0  0  0  0
 14 15  1  0  0  0  0
 14 13  1  0  0  0  0
 16 14  2  0  0  0  0
 17 16  1  0  0  0  0
 18 16  1  0  0  0  0
 18 20  2  0  0  0  0
 19 18  1  0  0  0  0
 20  2  1  0  0  0  0
 21 20  1  0  0  0  0
M  END
