3
 OpenBabel05122313063D

 17 16  0  0  0  0  0  0  0  0999 V2000
   -3.0256    1.4818   -0.0546 O   0  0  0  0  0  0  0  0  0  0  0  0
   -2.8502    2.2568    0.5187 H   0  0  0  0  0  0  0  0  0  0  0  0
   -2.1359   -1.1734   -0.1769 N   0  0  0  0  0  0  0  0  0  0  0  0
   -1.9214   -1.7120   -1.0282 H   0  0  0  0  0  0  0  0  0  0  0  0
   -1.7642   -1.7577    0.5988 H   0  0  0  0  0  0  0  0  0  0  0  0
   -3.7589    0.4724    0.6558 C   0  0  0  0  0  0  0  0  0  0  0  0
   -4.8372    0.7421    0.7070 H   0  0  0  0  0  0  0  0  0  0  0  0
   -3.3710    0.3547    1.6922 H   0  0  0  0  0  0  0  0  0  0  0  0
   -3.6000   -0.8579   -0.1093 C   0  0  0  0  0  0  0  0  0  0  0  0
   -4.1167   -0.7011   -1.5456 C   0  0  0  0  0  0  0  0  0  0  0  0
   -3.5525    0.0865   -2.0817 H   0  0  0  0  0  0  0  0  0  0  0  0
   -5.1878   -0.4204   -1.5449 H   0  0  0  0  0  0  0  0  0  0  0  0
   -4.0158   -1.6555   -2.1017 H   0  0  0  0  0  0  0  0  0  0  0  0
   -4.3445   -1.9718    0.6368 C   0  0  0  0  0  0  0  0  0  0  0  0
   -4.2218   -2.9383    0.1087 H   0  0  0  0  0  0  0  0  0  0  0  0
   -5.4294   -1.7547    0.6992 H   0  0  0  0  0  0  0  0  0  0  0  0
   -3.9562   -2.0923    1.6690 H   0  0  0  0  0  0  0  0  0  0  0  0
  1  2  1  0  0  0  0
  1  6  1  0  0  0  0
  3  9  1  0  0  0  0
  3  5  1  0  0  0  0
  4  3  1  0  0  0  0
  6  7  1  0  0  0  0
  6  8  1  0  0  0  0
  9 14  1  0  0  0  0
  9  6  1  0  0  0  0
 10 12  1  0  0  0  0
 10  9  1  0  0  0  0
 11 10  1  0  0  0  0
 13 10  1  0  0  0  0
 14 16  1  0  0  0  0
 14 17  1  0  0  0  0
 15 14  1  0  0  0  0
M  END
