32
 OpenBabel05122313063D

 34 35  0  0  1  0  0  0  0  0999 V2000
    2.6617    1.1410   -1.1544 C   0  0  0  0  0  0  0  0  0  0  0  0
    3.9958    1.5469   -1.2781 C   0  0  0  0  0  0  0  0  0  0  0  0
    4.5140    1.4374   -2.2415 H   0  0  0  0  0  0  0  0  0  0  0  0
    4.6453    2.0946   -0.1644 C   0  0  0  0  0  0  0  0  0  0  0  0
    5.6955    2.4155   -0.2275 H   0  0  0  0  0  0  0  0  0  0  0  0
    3.9263    2.2312    1.0240 C   0  0  0  0  0  0  0  0  0  0  0  0
    4.3912    2.6764    1.9153 H   0  0  0  0  0  0  0  0  0  0  0  0
    2.5858    1.7996    1.0944 C   0  0  0  0  0  0  0  0  0  0  0  0
    1.7979    2.0214    2.3514 C   0  0  0  0  0  0  0  0  0  0  0  0
    1.4508    3.0762    2.3913 H   0  0  0  0  0  0  0  0  0  0  0  0
    2.4183    1.8552    3.2529 H   0  0  0  0  0  0  0  0  0  0  0  0
    0.9041    1.3744    2.3775 H   0  0  0  0  0  0  0  0  0  0  0  0
    1.9004    0.6763   -2.3786 C   0  0  0  0  0  0  0  0  0  0  0  0
    1.3713    1.5581   -2.7976 H   0  0  0  0  0  0  0  0  0  0  0  0
    2.6115    0.3293   -3.1587 H   0  0  0  0  0  0  0  0  0  0  0  0
    1.3463   -1.7399   -2.1398 C   0  0  0  0  0  0  0  0  0  0  0  0
    2.0075   -1.9245   -3.0133 H   0  0  0  0  0  0  0  0  0  0  0  0
    0.4341   -2.3653   -2.2529 H   0  0  0  0  0  0  0  0  0  0  0  0
    2.0251   -2.1535   -0.8627 C   0  0  2  0  0  3  0  0  0  0  0  0
    3.0673   -3.0859   -0.8721 C   0  0  0  0  0  0  0  0  0  0  0  0
    3.4526   -3.4580   -1.8317 H   0  0  0  0  0  0  0  0  0  0  0  0
    3.5836   -3.5392    0.3463 C   0  0  0  0  0  0  0  0  0  0  0  0
    4.4004   -4.2751    0.3745 H   0  0  0  0  0  0  0  0  0  0  0  0
    3.0309   -3.0398    1.5271 C   0  0  0  0  0  0  0  0  0  0  0  0
    3.3975   -3.3807    2.5051 H   0  0  0  0  0  0  0  0  0  0  0  0
    1.9963   -2.0846    1.4922 C   0  0  0  0  0  0  0  0  0  0  0  0
    1.4245   -1.5714    2.7779 C   0  0  0  0  0  0  0  0  0  0  0  0
    1.6511   -0.4978    2.9137 H   0  0  0  0  0  0  0  0  0  0  0  0
    1.8449   -2.1269    3.6354 H   0  0  0  0  0  0  0  0  0  0  0  0
    0.3215   -1.6691    2.7909 H   0  0  0  0  0  0  0  0  0  0  0  0
    1.9762    1.2331    0.0192 N   0  0  0  0  0  0  0  0  0  0  0  0
    1.5128   -1.6394    0.2934 N   0  0  0  0  0  2  0  0  0  0  0  0
    0.8794   -0.3438   -2.0844 N   0  0  0  0  0  0  0  0  0  0  0  0
    0.0846   -0.2453   -2.7286 H   0  0  0  0  0  0  0  0  0  0  0  0
  1 31  1  0  0  0  0
  2  1  2  0  0  0  0
  2  4  1  0  0  0  0
  3  2  1  0  0  0  0
  4  6  2  0  0  0  0
  5  4  1  0  0  0  0
  6  8  1  0  0  0  0
  6  7  1  0  0  0  0
  8  9  1  0  0  0  0
  9 12  1  0  0  0  0
  9 10  1  0  0  0  0
  9 11  1  0  0  0  0
 13 33  1  0  0  0  0
 13  1  1  0  0  0  0
 14 13  1  0  0  0  0
 15 13  1  0  0  0  0
 16 33  1  0  0  0  0
 17 16  1  0  0  0  0
 18 16  1  0  0  0  0
 19 16  1  1  0  0  0
 19 32  1  0  0  0  0
 20 19  1  0  0  0  0
 20 22  2  0  0  0  0
 21 20  1  0  0  0  0
 22 23  1  0  0  0  0
 22 24  1  0  0  0  0
 24 25  1  0  0  0  0
 26 24  2  0  0  0  0
 26 27  1  0  0  0  0
 27 30  1  0  0  0  0
 27 28  1  0  0  0  0
 27 29  1  0  0  0  0
 31  8  2  0  0  0  0
 32 26  1  0  0  0  0
 34 33  1  0  0  0  0
M  END
