2
 OpenBabel05122313063D

 27 28  0  0  0  0  0  0  0  0999 V2000
    1.2179   -2.2311   -0.5035 S   0  0  0  0  0  0  0  0  0  0  0  0
    1.4946    0.3797   -0.2358 N   0  0  0  0  0  2  0  0  0  0  0  0
    2.1420   -0.7867   -0.2680 C   0  0  0  0  0  0  0  0  0  0  0  0
    2.1065    1.6348   -0.1105 C   0  0  0  0  0  0  0  0  0  0  0  0
    3.2442    2.0226   -0.8582 C   0  0  0  0  0  0  0  0  0  0  0  0
    3.6966    1.3090   -1.5607 H   0  0  0  0  0  0  0  0  0  0  0  0
    3.7710    3.3138   -0.7216 C   0  0  0  0  0  0  0  0  0  0  0  0
    4.6499    3.6039   -1.3182 H   0  0  0  0  0  0  0  0  0  0  0  0
    3.1805    4.2403    0.1551 C   0  0  0  0  0  0  0  0  0  0  0  0
    3.5994    5.2526    0.2564 H   0  0  0  0  0  0  0  0  0  0  0  0
    2.0447    3.8661    0.8914 C   0  0  0  0  0  0  0  0  0  0  0  0
    1.5693    4.5836    1.5777 H   0  0  0  0  0  0  0  0  0  0  0  0
    1.5059    2.5793    0.7571 C   0  0  0  0  0  0  0  0  0  0  0  0
    0.6158    2.2773    1.3312 H   0  0  0  0  0  0  0  0  0  0  0  0
    3.5442   -0.9032   -0.0521 C   0  0  0  0  0  0  0  0  0  0  0  0
    4.7543   -0.9954    0.1661 C   0  0  0  0  0  0  0  0  0  0  0  0
    6.1548   -1.0399    0.4071 C   0  0  0  0  0  0  0  0  0  0  0  0
    6.8597   -2.2715    0.4034 C   0  0  0  0  0  0  0  0  0  0  0  0
    6.3057   -3.2022    0.2145 H   0  0  0  0  0  0  0  0  0  0  0  0
    8.2390   -2.2933    0.6367 C   0  0  0  0  0  0  0  0  0  0  0  0
    8.7772   -3.2532    0.6318 H   0  0  0  0  0  0  0  0  0  0  0  0
    8.9368   -1.0973    0.8771 C   0  0  0  0  0  0  0  0  0  0  0  0
   10.0217   -1.1203    1.0608 H   0  0  0  0  0  0  0  0  0  0  0  0
    8.2481    0.1279    0.8835 C   0  0  0  0  0  0  0  0  0  0  0  0
    8.7931    1.0652    1.0723 H   0  0  0  0  0  0  0  0  0  0  0  0
    6.8692    0.1631    0.6515 C   0  0  0  0  0  0  0  0  0  0  0  0
    6.3193    1.1159    0.6549 H   0  0  0  0  0  0  0  0  0  0  0  0
  1  3  2  0  0  0  0
  2  4  1  0  0  0  0
  3  2  1  0  0  0  0
  3 15  1  0  0  0  0
  4 13  1  0  0  0  0
  5  7  1  0  0  0  0
  5  4  2  0  0  0  0
  6  5  1  0  0  0  0
  7  9  2  0  0  0  0
  8  7  1  0  0  0  0
  9 10  1  0  0  0  0
  9 11  1  0  0  0  0
 11 12  1  0  0  0  0
 13 11  2  0  0  0  0
 13 14  1  0  0  0  0
 15 16  3  0  0  0  0
 16 17  1  0  0  0  0
 17 26  1  0  0  0  0
 18 17  2  0  0  0  0
 18 20  1  0  0  0  0
 19 18  1  0  0  0  0
 20 22  2  0  0  0  0
 21 20  1  0  0  0  0
 22 24  1  0  0  0  0
 22 23  1  0  0  0  0
 24 25  1  0  0  0  0
 26 27  1  0  0  0  0
 26 24  2  0  0  0  0
M  END
