2
 OpenBabel05122313063D

 18 18  0  0  0  0  0  0  0  0999 V2000
    5.3858    3.5452    1.3283 O   0  0  0  0  0  0  0  0  0  0  0  0
    1.7332    0.0895   -0.2684 N   0  0  0  0  0  2  0  0  0  0  0  0
    4.7192    3.0021   -0.8133 N   0  0  0  0  0  0  0  0  0  0  0  0
    4.8957    3.2174   -1.7966 H   0  0  0  0  0  0  0  0  0  0  0  0
    2.3678    0.6134    0.7992 C   0  0  0  0  0  3  0  0  0  0  0  0
    2.0608    0.2156    1.7826 H   0  0  0  0  0  0  0  0  0  0  0  0
    3.3658    1.5858    0.7014 C   0  0  0  0  0  0  0  0  0  0  0  0
    3.8597    1.9901    1.5916 H   0  0  0  0  0  0  0  0  0  0  0  0
    3.7359    2.0413   -0.5857 C   0  0  0  0  0  0  0  0  0  0  0  0
    3.0693    1.4818   -1.7014 C   0  0  0  0  0  0  0  0  0  0  0  0
    3.3216    1.7950   -2.7263 H   0  0  0  0  0  0  0  0  0  0  0  0
    2.0835    0.5181   -1.4975 C   0  0  0  0  0  0  0  0  0  0  0  0
    1.5484    0.0509   -2.3437 H   0  0  0  0  0  0  0  0  0  0  0  0
    5.4972    3.6933    0.1203 C   0  0  0  0  0  0  0  0  0  0  0  0
    6.5194    4.6235   -0.5129 C   0  0  0  0  0  0  0  0  0  0  0  0
    6.8355    5.3622    0.2442 H   0  0  0  0  0  0  0  0  0  0  0  0
    6.1285    5.1498   -1.4067 H   0  0  0  0  0  0  0  0  0  0  0  0
    7.4130    4.0413   -0.8212 H   0  0  0  0  0  0  0  0  0  0  0  0
  2  5  1  0  0  0  0
  3  9  1  0  0  0  0
  3 14  1  0  0  0  0
  4  3  1  0  0  0  0
  5  6  1  0  0  0  0
  7  5  1  0  0  0  0
  7  8  1  0  0  0  0
  9  7  2  0  0  0  0
 10 12  2  0  0  0  0
 10  9  1  0  0  0  0
 11 10  1  0  0  0  0
 12  2  1  0  0  0  0
 13 12  1  0  0  0  0
 14  1  2  0  0  0  0
 15 14  1  0  0  0  0
 15 16  1  0  0  0  0
 17 15  1  0  0  0  0
 18 15  1  0  0  0  0
M  END
