11
 OpenBabel05122313063D

 16 17  0  0  1  0  0  0  0  0999 V2000
   -0.1821   -0.4852   -2.6442 C   0  0  0  0  0  0  0  0  0  0  0  0
    0.6749   -0.1010   -3.2063 H   0  0  0  0  0  0  0  0  0  0  0  0
   -1.5339   -0.2299   -2.8164 C   0  0  0  0  0  0  0  0  0  0  0  0
   -2.0598    0.3984   -3.5420 H   0  0  0  0  0  0  0  0  0  0  0  0
   -1.2701   -1.5794   -1.1007 C   0  0  2  0  0  3  0  0  0  0  0  0
   -1.6039   -2.3779    0.0676 C   0  0  0  0  0  0  0  0  0  0  0  0
   -1.5093   -3.7092    1.7854 C   0  0  0  0  0  0  0  0  0  0  0  0
   -1.0745   -4.4115    2.5052 H   0  0  0  0  0  0  0  0  0  0  0  0
   -2.8023   -3.2057    1.7295 C   0  0  0  0  0  0  0  0  0  0  0  0
   -3.6767   -3.3703    2.3664 H   0  0  0  0  0  0  0  0  0  0  0  0
   -0.0237   -1.3319   -1.5670 N   0  0  0  0  0  2  0  0  0  0  0  0
   -2.2034   -0.9321   -1.8463 N   0  0  0  0  0  0  0  0  0  0  0  0
   -3.2514   -0.7489   -1.4260 H   0  0  0  0  0  0  0  0  0  0  0  0
   -0.7727   -3.1910    0.7467 N   0  0  0  0  0  0  0  0  0  0  0  0
   -2.8436   -2.3725    0.6400 N   0  0  0  0  0  0  0  0  0  0  0  0
   -3.6416   -1.7452    0.2919 H   0  0  0  0  0  0  0  0  0  0  0  0
  1 11  1  0  0  0  0
  2  1  1  0  0  0  0
  3  1  2  0  0  0  0
  3 12  1  0  0  0  0
  4  3  1  0  0  0  0
  5  6  1  1  0  0  0
  6 15  1  0  0  0  0
  6 14  2  0  0  0  0
  7  8  1  0  0  0  0
  9  7  2  0  0  0  0
  9 10  1  0  0  0  0
 11  5  1  0  0  0  0
 12 13  1  0  0  0  0
 12  5  1  0  0  0  0
 14  7  1  0  0  0  0
 15  9  1  0  0  0  0
 16 15  1  0  0  0  0
M  END
