1
 OpenBabel05122313063D

 17 18  0  0  0  0  0  0  0  0999 V2000
   -2.7360    0.5153    0.0116 N   0  0  0  0  0  2  0  0  0  0  0  0
   -3.2783    1.7126    0.0129 N   0  0  0  0  0  2  0  0  0  0  0  0
   -4.6043    1.5589    0.0087 N   0  0  0  0  0  0  0  0  0  0  0  0
   -3.7158   -0.4598    0.0061 C   0  0  0  0  0  0  0  0  0  0  0  0
   -3.6564   -1.8679    0.0025 C   0  0  0  0  0  0  0  0  0  0  0  0
   -2.6936   -2.3982    0.0041 H   0  0  0  0  0  0  0  0  0  0  0  0
   -4.8773   -2.5409   -0.0029 C   0  0  0  0  0  0  0  0  0  0  0  0
   -4.8867   -3.6405   -0.0055 H   0  0  0  0  0  0  0  0  0  0  0  0
   -6.1202   -1.8459   -0.0047 C   0  0  0  0  0  0  0  0  0  0  0  0
   -7.0531   -2.4284   -0.0089 H   0  0  0  0  0  0  0  0  0  0  0  0
   -6.1905   -0.4522   -0.0012 C   0  0  0  0  0  0  0  0  0  0  0  0
   -7.1516    0.0798   -0.0027 H   0  0  0  0  0  0  0  0  0  0  0  0
   -4.9566    0.2263    0.0042 C   0  0  0  0  0  0  0  0  0  0  0  0
   -5.4777    2.7199    0.0089 C   0  0  0  0  0  0  0  0  0  0  0  0
   -4.8397    3.6204    0.0160 H   0  0  0  0  0  0  0  0  0  0  0  0
   -6.1211    2.7098    0.9102 H   0  0  0  0  0  0  0  0  0  0  0  0
   -6.1119    2.7174   -0.8988 H   0  0  0  0  0  0  0  0  0  0  0  0
  1  2  1  0  0  0  0
  3 14  1  0  0  0  0
  3  2  1  0  0  0  0
  4  1  1  0  0  0  0
  5  6  1  0  0  0  0
  5  4  2  0  0  0  0
  7  5  1  0  0  0  0
  8  7  1  0  0  0  0
  9  7  2  0  0  0  0
  9 11  1  0  0  0  0
 10  9  1  0  0  0  0
 11 13  2  0  0  0  0
 12 11  1  0  0  0  0
 13  4  1  0  0  0  0
 13  3  1  0  0  0  0
 14 15  1  0  0  0  0
 14 16  1  0  0  0  0
 17 14  1  0  0  0  0
M  END
