1
 OpenBabel05122313063D

 27 29  0  0  1  0  0  0  0  0999 V2000
   -1.8918    0.4946   -0.6068 N   0  0  0  0  0  2  0  0  0  0  0  0
   -2.7182   -0.1602    0.2286 C   0  0  0  0  0  0  0  0  0  0  0  0
   -4.1334    0.0746    0.1977 C   0  0  0  0  0  0  0  0  0  0  0  0
   -5.0315   -0.5763    1.0944 C   0  0  0  0  0  0  0  0  0  0  0  0
   -4.6261   -1.2740    1.8402 H   0  0  0  0  0  0  0  0  0  0  0  0
   -6.3946   -0.3287    1.0240 C   0  0  0  0  0  0  0  0  0  0  0  0
   -7.0790   -0.8365    1.7198 H   0  0  0  0  0  0  0  0  0  0  0  0
   -6.9152    0.5791    0.0634 C   0  0  0  0  0  0  0  0  0  0  0  0
   -7.9995    0.7624    0.0192 H   0  0  0  0  0  0  0  0  0  0  0  0
   -6.0645    1.2388   -0.8117 C   0  0  0  0  0  0  0  0  0  0  0  0
   -6.4602    1.9497   -1.5529 H   0  0  0  0  0  0  0  0  0  0  0  0
   -4.6611    1.0079   -0.7632 C   0  0  1  0  0  3  0  0  0  0  0  0
   -3.7370    1.6685   -1.6205 C   0  0  0  0  0  0  0  0  0  0  0  0
   -4.0922    2.3904   -2.3697 H   0  0  0  0  0  0  0  0  0  0  0  0
   -2.3904    1.4001   -1.5127 C   0  0  0  0  0  0  0  0  0  0  0  0
   -1.6373    1.8785   -2.1529 H   0  0  0  0  0  0  0  0  0  0  0  0
   -2.1148   -1.1222    1.1904 C   0  0  0  0  0  0  0  0  0  0  0  0
   -1.3075   -0.6516    2.2471 C   0  0  0  0  0  0  0  0  0  0  0  0
   -1.1238    0.4274    2.3531 H   0  0  0  0  0  0  0  0  0  0  0  0
   -0.7345   -1.5581    3.1490 C   0  0  0  0  0  0  0  0  0  0  0  0
   -0.1053   -1.1834    3.9702 H   0  0  0  0  0  0  0  0  0  0  0  0
   -0.9524   -2.9369    2.9969 C   0  0  0  0  0  0  0  0  0  0  0  0
   -0.4925   -3.6481    3.6999 H   0  0  0  0  0  0  0  0  0  0  0  0
   -1.7499   -3.4081    1.9423 C   0  0  0  0  0  0  0  0  0  0  0  0
   -1.9076   -4.4888    1.8087 H   0  0  0  0  0  0  0  0  0  0  0  0
   -2.3351   -2.5061    1.0428 C   0  0  0  0  0  0  0  0  0  0  0  0
   -2.9268   -2.8706    0.1912 H   0  0  0  0  0  0  0  0  0  0  0  0
  1  2  1  0  0  0  0
  2 17  1  0  0  0  0
  3  2  2  0  0  0  0
  3  4  1  0  0  0  0
  4  5  1  0  0  0  0
  6  4  2  0  0  0  0
  6  7  1  0  0  0  0
  8  6  1  0  0  0  0
  9  8  1  0  0  0  0
 10 12  1  0  0  0  0
 10  8  2  0  0  0  0
 11 10  1  0  0  0  0
 12 13  1  1  0  0  0
 12  3  1  0  0  0  0
 13 15  2  0  0  0  0
 14 13  1  0  0  0  0
 15  1  1  0  0  0  0
 16 15  1  0  0  0  0
 17 18  1  0  0  0  0
 18 19  1  0  0  0  0
 18 20  2  0  0  0  0
 20 21  1  0  0  0  0
 22 20  1  0  0  0  0
 22 23  1  0  0  0  0
 24 22  2  0  0  0  0
 25 24  1  0  0  0  0
 26 17  2  0  0  0  0
 26 24  1  0  0  0  0
 27 26  1  0  0  0  0
M  END
