4
 OpenBabel05122313063D

 22 22  0  0  1  0  0  0  0  0999 V2000
    4.1477   -1.9009    0.7315 S   0  0  0  0  0  0  0  0  0  0  0  0
    1.9020    2.4304   -2.4313 O   0  0  0  0  0  0  0  0  0  0  0  0
    0.5493    1.3514   -0.9766 O   0  0  0  0  0  0  0  0  0  0  0  0
    1.7870   -1.2833   -0.1609 N   0  0  0  0  0  2  0  0  0  0  0  0
    1.7290   -2.5992    1.8102 N   0  0  0  0  0  0  0  0  0  0  0  0
    0.6933   -2.7618    1.6955 H   0  0  0  0  0  0  0  0  0  0  0  0
    2.2513   -3.2198    2.4250 H   0  0  0  0  0  0  0  0  0  0  0  0
    2.6992   -0.7089   -1.0295 C   0  0  0  0  0  0  0  0  0  0  0  0
    2.2090    0.0833   -2.2097 C   0  0  0  0  0  0  0  0  0  0  0  0
    3.0420    0.3478   -2.8837 H   0  0  0  0  0  0  0  0  0  0  0  0
    1.4580   -0.5274   -2.7713 H   0  0  0  0  0  0  0  0  0  0  0  0
    2.3765   -1.9567    0.8241 C   0  0  2  0  0  3  0  0  0  0  0  0
    1.4657    1.3330   -1.7924 C   0  0  0  0  0  0  0  0  0  0  0  0
    4.0189   -0.9198   -0.7116 C   0  0  0  0  0  0  0  0  0  0  0  0
    4.9127   -0.5735   -1.2406 H   0  0  0  0  0  0  0  0  0  0  0  0
    1.2054    3.6717   -2.1503 C   0  0  0  0  0  0  0  0  0  0  0  0
    0.1177    3.4615   -2.0981 H   0  0  0  0  0  0  0  0  0  0  0  0
    1.4083    4.3007   -3.0381 H   0  0  0  0  0  0  0  0  0  0  0  0
    1.7062    4.3290   -0.8747 C   0  0  0  0  0  0  0  0  0  0  0  0
    1.2316    5.3240   -0.7567 H   0  0  0  0  0  0  0  0  0  0  0  0
    2.8042    4.4756   -0.9105 H   0  0  0  0  0  0  0  0  0  0  0  0
    1.4575    3.7233    0.0180 H   0  0  0  0  0  0  0  0  0  0  0  0
  1 12  1  0  0  0  0
  2 16  1  0  0  0  0
  2 13  1  0  0  0  0
  4 12  1  0  0  0  0
  5  7  1  0  0  0  0
  6  5  1  0  0  0  0
  8 14  2  0  0  0  0
  8  4  1  0  0  0  0
  9 13  1  0  0  0  0
  9  8  1  0  0  0  0
 10  9  1  0  0  0  0
 11  9  1  0  0  0  0
 12  5  1  1  0  0  0
 13  3  2  0  0  0  0
 14  1  1  0  0  0  0
 15 14  1  0  0  0  0
 16 17  1  0  0  0  0
 16 19  1  0  0  0  0
 18 16  1  0  0  0  0
 19 20  1  0  0  0  0
 19 22  1  0  0  0  0
 21 19  1  0  0  0  0
M  END
