32
 OpenBabel05122313063D

 44 46  0  0  1  0  0  0  0  0999 V2000
   -0.9964    0.8845    0.2084 P   0  0  0  0  0  0  0  0  0  0  0  0
   -0.7704    2.6847    0.0083 C   0  0  0  0  0  0  0  0  0  0  0  0
   -0.1303    3.1546   -1.1594 C   0  0  0  0  0  0  0  0  0  0  0  0
    0.1995    2.4374   -1.9276 H   0  0  0  0  0  0  0  0  0  0  0  0
    0.0777    4.5304   -1.3277 C   0  0  0  0  0  0  0  0  0  0  0  0
    0.5686    4.8976   -2.2413 H   0  0  0  0  0  0  0  0  0  0  0  0
   -0.3407    5.4376   -0.3392 C   0  0  0  0  0  0  0  0  0  0  0  0
   -0.1735    6.5165   -0.4760 H   0  0  0  0  0  0  0  0  0  0  0  0
   -0.9757    4.9678    0.8207 C   0  0  0  0  0  0  0  0  0  0  0  0
   -1.3089    5.6765    1.5936 H   0  0  0  0  0  0  0  0  0  0  0  0
   -1.1959    3.5926    0.9998 C   0  0  0  0  0  0  0  0  0  0  0  0
   -1.6999    3.2207    1.9029 H   0  0  0  0  0  0  0  0  0  0  0  0
   -2.4116    0.4439   -0.8719 C   0  0  0  0  0  0  0  0  0  0  0  0
   -2.4829   -0.7472   -1.6188 C   0  0  0  0  0  0  0  0  0  0  0  0
   -1.6134   -1.4119   -1.6749 H   0  0  0  0  0  0  0  0  0  0  0  0
   -3.6553   -1.0607   -2.3220 C   0  0  0  0  0  0  0  0  0  0  0  0
   -3.7016   -1.9897   -2.9095 H   0  0  0  0  0  0  0  0  0  0  0  0
   -4.7568   -0.1918   -2.2868 C   0  0  0  0  0  0  0  0  0  0  0  0
   -5.6720   -0.4384   -2.8459 H   0  0  0  0  0  0  0  0  0  0  0  0
   -4.6872    0.9995   -1.5454 C   0  0  0  0  0  0  0  0  0  0  0  0
   -5.5442    1.6889   -1.5230 H   0  0  0  0  0  0  0  0  0  0  0  0
   -3.5208    1.3197   -0.8380 C   0  0  0  0  0  0  0  0  0  0  0  0
   -3.4701    2.2568   -0.2630 H   0  0  0  0  0  0  0  0  0  0  0  0
   -1.7469    0.8919    1.7167 O   0  0  0  0  0  0  0  0  0  0  0  0
   -2.4157   -0.2883    2.1513 C   0  0  0  0  0  0  0  0  0  0  0  0
   -3.2854   -0.5089    1.4920 H   0  0  0  0  0  0  0  0  0  0  0  0
   -2.8049   -0.0475    3.1608 H   0  0  0  0  0  0  0  0  0  0  0  0
   -1.5122   -1.5192    2.2682 C   0  0  0  0  0  0  0  0  0  0  0  0
   -0.5370   -1.2251    2.6948 H   0  0  0  0  0  0  0  0  0  0  0  0
   -1.9846   -2.2246    2.9791 H   0  0  0  0  0  0  0  0  0  0  0  0
   -1.2547   -2.2696    1.0455 N   0  0  0  0  0  0  0  0  0  0  0  0
   -0.1343   -2.0722    0.2716 N   0  0  0  0  0  2  0  0  0  0  0  0
   -0.0750   -3.1149   -0.5944 C   0  0  2  0  0  3  0  0  0  0  0  0
   -1.1836   -3.9655   -0.3776 C   0  0  0  0  0  0  0  0  0  0  0  0
   -1.4133   -4.8892   -0.9178 H   0  0  0  0  0  0  0  0  0  0  0  0
   -1.9154   -3.4108    0.6676 C   0  0  0  0  0  0  0  0  0  0  0  0
    1.0105   -3.3080   -1.5976 C   0  0  0  0  0  0  0  0  0  0  0  0
    1.8927   -2.6939   -1.3518 H   0  0  0  0  0  0  0  0  0  0  0  0
    0.6814   -3.0037   -2.6104 H   0  0  0  0  0  0  0  0  0  0  0  0
    1.3009   -4.3761   -1.6338 H   0  0  0  0  0  0  0  0  0  0  0  0
   -3.1585   -3.8890    1.3384 C   0  0  0  0  0  0  0  0  0  0  0  0
   -3.9613   -3.1243    1.3155 H   0  0  0  0  0  0  0  0  0  0  0  0
   -2.9835   -4.1636    2.4004 H   0  0  0  0  0  0  0  0  0  0  0  0
   -3.5349   -4.7904    0.8222 H   0  0  0  0  0  0  0  0  0  0  0  0
  1 24  1  0  0  0  0
  2  1  1  0  0  0  0
  2 11  1  0  0  0  0
  3  2  2  0  0  0  0
  4  3  1  0  0  0  0
  5  3  1  0  0  0  0
  5  7  2  0  0  0  0
  6  5  1  0  0  0  0
  7  9  1  0  0  0  0
  8  7  1  0  0  0  0
  9 11  2  0  0  0  0
  9 10  1  0  0  0  0
 11 12  1  0  0  0  0
 13 22  1  0  0  0  0
 13  1  1  0  0  0  0
 14 13  2  0  0  0  0
 15 14  1  0  0  0  0
 16 18  2  0  0  0  0
 16 14  1  0  0  0  0
 17 16  1  0  0  0  0
 18 20  1  0  0  0  0
 19 18  1  0  0  0  0
 20 21  1  0  0  0  0
 20 22  2  0  0  0  0
 22 23  1  0  0  0  0
 24 25  1  0  0  0  0
 25 28  1  0  0  0  0
 25 27  1  0  0  0  0
 26 25  1  0  0  0  0
 28 29  1  0  0  0  0
 28 30  1  0  0  0  0
 31 28  1  0  0  0  0
 32 31  1  0  0  0  0
 33 37  1  1  0  0  0
 33 34  1  0  0  0  0
 33 32  1  0  0  0  0
 34 36  2  0  0  0  0
 35 34  1  0  0  0  0
 36 31  1  0  0  0  0
 36 41  1  0  0  0  0
 37 38  1  0  0  0  0
 39 37  1  0  0  0  0
 40 37  1  0  0  0  0
 41 43  1  0  0  0  0
 42 41  1  0  0  0  0
 44 41  1  0  0  0  0
M  END
