7
 OpenBabel05122313063D

 15 15  0  0  1  0  0  0  0  0999 V2000
    1.4686    1.8164   -2.3788 F   0  0  0  0  0  0  0  0  0  0  0  0
    2.2622    3.3555   -1.0428 F   0  0  0  0  0  0  0  0  0  0  0  0
    3.5842    2.3625   -2.4551 F   0  0  0  0  0  0  0  0  0  0  0  0
    6.2588   -1.0233    0.8675 F   0  0  0  0  0  0  0  0  0  0  0  0
    5.1937   -0.5497    2.7101 F   0  0  0  0  0  0  0  0  0  0  0  0
    4.6684   -2.3500    1.5971 F   0  0  0  0  0  0  0  0  0  0  0  0
    2.0087    0.2664   -0.0395 N   0  0  0  0  0  2  0  0  0  0  0  0
    2.7199   -0.5593    0.7417 N   0  0  0  0  0  0  0  0  0  0  0  0
    2.2042   -1.4183    1.0516 H   0  0  0  0  0  0  0  0  0  0  0  0
    2.5246    2.1748   -1.6282 C   0  0  0  0  0  0  0  0  0  0  0  0
    2.8908    1.1049   -0.6251 C   0  0  2  0  0  3  0  0  0  0  0  0
    4.2009    0.7932   -0.2000 C   0  0  0  0  0  0  0  0  0  0  0  0
    5.1316    1.2801   -0.5033 H   0  0  0  0  0  0  0  0  0  0  0  0
    4.0460   -0.2889    0.6644 C   0  0  0  0  0  0  0  0  0  0  0  0
    5.0552   -1.0602    1.4675 C   0  0  0  0  0  0  0  0  0  0  0  0
  1 10  1  0  0  0  0
  3 10  1  0  0  0  0
  4 15  1  0  0  0  0
  7  8  1  0  0  0  0
  8  9  1  0  0  0  0
 10  2  1  0  0  0  0
 11 10  1  6  0  0  0
 11 12  1  0  0  0  0
 11  7  1  0  0  0  0
 12 14  2  0  0  0  0
 13 12  1  0  0  0  0
 14  8  1  0  0  0  0
 14 15  1  0  0  0  0
 15  6  1  0  0  0  0
 15  5  1  0  0  0  0
M  END
