1
 OpenBabel05122313063D

 23 23  0  0  0  0  0  0  0  0999 V2000
    0.7629    1.9330    0.0049 N   0  0  0  0  0  0  0  0  0  0  0  0
    0.9380    2.0118    1.0232 H   0  0  0  0  0  0  0  0  0  0  0  0
    3.0848    1.0746   -0.2749 C   0  0  0  0  0  0  0  0  0  0  0  0
   -0.2302    2.9614   -0.3962 C   0  0  0  0  0  0  0  0  0  0  0  0
   -0.5126    2.7366   -1.4448 H   0  0  0  0  0  0  0  0  0  0  0  0
    0.2754    3.9551   -0.3901 H   0  0  0  0  0  0  0  0  0  0  0  0
    4.3180   -0.9987   -0.6346 C   0  0  0  0  0  0  0  0  0  0  0  0
    4.5302   -1.8814   -1.2570 H   0  0  0  0  0  0  0  0  0  0  0  0
    2.0524    2.0804   -0.7233 C   0  0  0  0  0  0  0  0  0  0  0  0
    2.4277    3.1171   -0.5622 H   0  0  0  0  0  0  0  0  0  0  0  0
    1.8265    1.9537   -1.7992 H   0  0  0  0  0  0  0  0  0  0  0  0
    3.3637   -0.0623   -1.0591 C   0  0  0  0  0  0  0  0  0  0  0  0
    2.8029   -0.2160   -1.9940 H   0  0  0  0  0  0  0  0  0  0  0  0
   -1.4499    2.9749    0.5120 C   0  0  0  0  0  0  0  0  0  0  0  0
   -1.9861    2.0074    0.4725 H   0  0  0  0  0  0  0  0  0  0  0  0
   -2.1476    3.7728    0.1898 H   0  0  0  0  0  0  0  0  0  0  0  0
   -1.1709    3.1666    1.5680 H   0  0  0  0  0  0  0  0  0  0  0  0
    4.9903   -0.8196    0.5850 C   0  0  0  0  0  0  0  0  0  0  0  0
    5.7340   -1.5585    0.9204 H   0  0  0  0  0  0  0  0  0  0  0  0
    4.7118    0.3062    1.3762 C   0  0  0  0  0  0  0  0  0  0  0  0
    5.2352    0.4526    2.3330 H   0  0  0  0  0  0  0  0  0  0  0  0
    3.7704    1.2510    0.9426 C   0  0  0  0  0  0  0  0  0  0  0  0
    3.5651    2.1396    1.5619 H   0  0  0  0  0  0  0  0  0  0  0  0
  1  2  1  0  0  0  0
  3 22  1  0  0  0  0
  4  6  1  0  0  0  0
  4  1  1  0  0  0  0
  4 14  1  0  0  0  0
  5  4  1  0  0  0  0
  7 18  2  0  0  0  0
  8  7  1  0  0  0  0
  9 10  1  0  0  0  0
  9  3  1  0  0  0  0
  9  1  1  0  0  0  0
 11  9  1  0  0  0  0
 12  7  1  0  0  0  0
 12  3  2  0  0  0  0
 13 12  1  0  0  0  0
 14 17  1  0  0  0  0
 15 14  1  0  0  0  0
 16 14  1  0  0  0  0
 18 19  1  0  0  0  0
 18 20  1  0  0  0  0
 20 21  1  0  0  0  0
 22 20  2  0  0  0  0
 22 23  1  0  0  0  0
M  END
