1
 OpenBabel05122313063D

 38 40  0  0  0  0  0  0  0  0999 V2000
    1.2094    0.0816   -0.2652 N   0  0  0  0  0  2  0  0  0  0  0  0
    1.8307   -1.0458   -0.0279 C   0  0  0  0  0  3  0  0  0  0  0  0
    3.1949   -1.0945    0.5675 C   0  0  0  0  0  0  0  0  0  0  0  0
    4.1726   -1.9555    0.0245 C   0  0  0  0  0  0  0  0  0  0  0  0
    3.9226   -2.5695   -0.8537 H   0  0  0  0  0  0  0  0  0  0  0  0
    5.4535   -2.0156    0.5901 C   0  0  0  0  0  0  0  0  0  0  0  0
    6.2152   -2.6762    0.1493 H   0  0  0  0  0  0  0  0  0  0  0  0
    5.7602   -1.2411    1.7203 C   0  0  0  0  0  0  0  0  0  0  0  0
    6.7636   -1.2950    2.1693 H   0  0  0  0  0  0  0  0  0  0  0  0
    4.7815   -0.4048    2.2838 C   0  0  0  0  0  0  0  0  0  0  0  0
    5.0128    0.1899    3.1802 H   0  0  0  0  0  0  0  0  0  0  0  0
    3.5079   -0.3235    1.7088 C   0  0  0  0  0  0  0  0  0  0  0  0
    2.7387    0.3265    2.1490 H   0  0  0  0  0  0  0  0  0  0  0  0
    1.1577   -2.3357   -0.3015 C   0  0  0  0  0  0  0  0  0  0  0  0
    1.2907   -3.4003    0.6186 C   0  0  0  0  0  0  0  0  0  0  0  0
    1.8971   -3.2593    1.5252 H   0  0  0  0  0  0  0  0  0  0  0  0
    0.6252   -4.6117    0.3967 C   0  0  0  0  0  0  0  0  0  0  0  0
    0.7129   -5.4262    1.1313 H   0  0  0  0  0  0  0  0  0  0  0  0
   -0.1540   -4.7846   -0.7598 C   0  0  0  0  0  0  0  0  0  0  0  0
   -0.6708   -5.7404   -0.9365 H   0  0  0  0  0  0  0  0  0  0  0  0
   -0.2650   -3.7415   -1.6932 C   0  0  0  0  0  0  0  0  0  0  0  0
   -0.8594   -3.8780   -2.6091 H   0  0  0  0  0  0  0  0  0  0  0  0
    0.3796   -2.5178   -1.4684 C   0  0  0  0  0  0  0  0  0  0  0  0
    0.2975   -1.7030   -2.2056 H   0  0  0  0  0  0  0  0  0  0  0  0
    1.8560    1.3480   -0.2032 C   0  0  0  0  0  0  0  0  0  0  0  0
    1.3349    2.3540    0.6350 C   0  0  0  0  0  0  0  0  0  0  0  0
    0.4565    2.1218    1.2564 H   0  0  0  0  0  0  0  0  0  0  0  0
    1.9552    3.6068    0.6783 C   0  0  0  0  0  0  0  0  0  0  0  0
    1.5514    4.3814    1.3494 H   0  0  0  0  0  0  0  0  0  0  0  0
    3.0812    3.9009   -0.1207 C   0  0  0  0  0  0  0  0  0  0  0  0
    3.7101    5.2705   -0.0988 C   0  0  0  0  0  0  0  0  0  0  0  0
    3.6801    5.7175    0.9149 H   0  0  0  0  0  0  0  0  0  0  0  0
    3.1692    5.9669   -0.7757 H   0  0  0  0  0  0  0  0  0  0  0  0
    4.7654    5.2422   -0.4342 H   0  0  0  0  0  0  0  0  0  0  0  0
    3.5719    2.8858   -0.9669 C   0  0  0  0  0  0  0  0  0  0  0  0
    4.4415    3.0918   -1.6106 H   0  0  0  0  0  0  0  0  0  0  0  0
    2.9729    1.6219   -1.0136 C   0  0  0  0  0  0  0  0  0  0  0  0
    3.3553    0.8423   -1.6871 H   0  0  0  0  0  0  0  0  0  0  0  0
  1 25  1  0  0  0  0
  1  2  1  0  0  0  0
  2  3  1  0  0  0  0
  3 12  1  0  0  0  0
  4  3  2  0  0  0  0
  4  6  1  0  0  0  0
  5  4  1  0  0  0  0
  6  8  2  0  0  0  0
  7  6  1  0  0  0  0
  8  9  1  0  0  0  0
  8 10  1  0  0  0  0
 10 11  1  0  0  0  0
 12 13  1  0  0  0  0
 12 10  2  0  0  0  0
 14  2  1  0  0  0  0
 14 15  1  0  0  0  0
 15 16  1  0  0  0  0
 17 15  2  0  0  0  0
 17 18  1  0  0  0  0
 19 17  1  0  0  0  0
 20 19  1  0  0  0  0
 21 23  1  0  0  0  0
 21 19  2  0  0  0  0
 22 21  1  0  0  0  0
 23 14  2  0  0  0  0
 24 23  1  0  0  0  0
 25 26  1  0  0  0  0
 26 28  2  0  0  0  0
 26 27  1  0  0  0  0
 28 29  1  0  0  0  0
 30 31  1  0  0  0  0
 30 28  1  0  0  0  0
 31 32  1  0  0  0  0
 33 31  1  0  0  0  0
 34 31  1  0  0  0  0
 35 30  2  0  0  0  0
 36 35  1  0  0  0  0
 37 35  1  0  0  0  0
 37 25  2  0  0  0  0
 38 37  1  0  0  0  0
M  END
