1
 OpenBabel05122313063D

 41 43  0  0  0  0  0  0  0  0999 V2000
    1.9743    0.4719   -0.0031 N   0  0  0  0  0  2  0  0  0  0  0  0
    8.9169    2.1464    0.0322 N   0  0  0  0  0  0  0  0  0  0  0  0
    9.1521   -1.4797   -0.0123 N   0  0  0  0  0  0  0  0  0  0  0  0
    2.8877   -0.3648    0.5535 C   0  0  0  0  0  3  0  0  0  0  0  0
    4.2482   -0.0638    0.5747 C   0  0  0  0  0  0  0  0  0  0  0  0
    4.7219    1.1375    0.0053 C   0  0  0  0  0  0  0  0  0  0  0  0
    3.7544    1.9871   -0.5722 C   0  0  0  0  0  0  0  0  0  0  0  0
    2.4067    1.6326   -0.5591 C   0  0  0  0  0  0  0  0  0  0  0  0
    6.1618    1.4866    0.0149 C   0  0  0  0  0  0  0  0  0  0  0  0
    6.5968    2.8304    0.0331 C   0  0  0  0  0  0  0  0  0  0  0  0
    7.9738    3.0963    0.0425 C   0  0  0  0  0  0  0  0  0  0  0  0
    8.5136    0.8586    0.0152 C   0  0  0  0  0  0  0  0  0  0  0  0
    7.1539    0.4891    0.0075 C   0  0  0  0  0  0  0  0  0  0  0  0
    9.5690   -0.1950    0.0012 C   0  0  0  0  0  0  0  0  0  0  0  0
   10.9280    0.1659    0.0030 C   0  0  0  0  0  0  0  0  0  0  0  0
   11.9253   -0.8283   -0.0101 C   0  0  0  0  0  0  0  0  0  0  0  0
   11.4747   -2.1623   -0.0249 C   0  0  0  0  0  0  0  0  0  0  0  0
   10.0936   -2.4273   -0.0252 C   0  0  0  0  0  0  0  0  0  0  0  0
   13.4097   -0.4356   -0.0078 C   0  0  0  0  0  0  0  0  0  0  0  0
   13.7054    0.3890    1.2657 C   0  0  0  0  0  0  0  0  0  0  0  0
   13.7009    0.4231   -1.2597 C   0  0  0  0  0  0  0  0  0  0  0  0
   14.3337   -1.6648   -0.0262 C   0  0  0  0  0  0  0  0  0  0  0  0
    2.4859   -1.3034    0.9591 H   0  0  0  0  0  0  0  0  0  0  0  0
    4.9376   -0.7687    1.0593 H   0  0  0  0  0  0  0  0  0  0  0  0
    4.0457    2.9277   -1.0597 H   0  0  0  0  0  0  0  0  0  0  0  0
    1.6224    2.2832   -0.9695 H   0  0  0  0  0  0  0  0  0  0  0  0
    5.8774    3.6612    0.0685 H   0  0  0  0  0  0  0  0  0  0  0  0
    8.3307    4.1415    0.0643 H   0  0  0  0  0  0  0  0  0  0  0  0
    6.9177   -0.5835   -0.0277 H   0  0  0  0  0  0  0  0  0  0  0  0
   11.1641    1.2394    0.0148 H   0  0  0  0  0  0  0  0  0  0  0  0
   12.1791   -3.0048   -0.0363 H   0  0  0  0  0  0  0  0  0  0  0  0
    9.7370   -3.4731   -0.0368 H   0  0  0  0  0  0  0  0  0  0  0  0
   13.5009   -0.2043    2.1798 H   0  0  0  0  0  0  0  0  0  0  0  0
   13.0877    1.3074    1.3123 H   0  0  0  0  0  0  0  0  0  0  0  0
   14.7714    0.6955    1.2848 H   0  0  0  0  0  0  0  0  0  0  0  0
   13.0835    1.3427   -1.2790 H   0  0  0  0  0  0  0  0  0  0  0  0
   13.4927   -0.1451   -2.1887 H   0  0  0  0  0  0  0  0  0  0  0  0
   14.7669    0.7297   -1.2744 H   0  0  0  0  0  0  0  0  0  0  0  0
   14.1825   -2.3084    0.8639 H   0  0  0  0  0  0  0  0  0  0  0  0
   14.1786   -2.2845   -0.9324 H   0  0  0  0  0  0  0  0  0  0  0  0
   15.3927   -1.3376   -0.0241 H   0  0  0  0  0  0  0  0  0  0  0  0
  1  4  1  0  0  0  0
  2 11  1  0  0  0  0
  3 14  1  0  0  0  0
  4  5  1  0  0  0  0
  4 23  1  0  0  0  0
  5 24  1  0  0  0  0
  6  9  1  0  0  0  0
  6  5  2  0  0  0  0
  7  8  2  0  0  0  0
  7  6  1  0  0  0  0
  8  1  1  0  0  0  0
  9 10  1  0  0  0  0
 10 11  2  0  0  0  0
 10 27  1  0  0  0  0
 11 28  1  0  0  0  0
 12  2  2  0  0  0  0
 13  9  2  0  0  0  0
 13 12  1  0  0  0  0
 14 15  2  0  0  0  0
 14 12  1  0  0  0  0
 15 30  1  0  0  0  0
 16 19  1  0  0  0  0
 16 15  1  0  0  0  0
 17 16  2  0  0  0  0
 18 17  1  0  0  0  0
 18  3  2  0  0  0  0
 19 20  1  0  0  0  0
 20 35  1  0  0  0  0
 20 34  1  0  0  0  0
 20 33  1  0  0  0  0
 21 19  1  0  0  0  0
 22 41  1  0  0  0  0
 22 19  1  0  0  0  0
 22 39  1  0  0  0  0
 25  7  1  0  0  0  0
 26  8  1  0  0  0  0
 29 13  1  0  0  0  0
 31 17  1  0  0  0  0
 32 18  1  0  0  0  0
 36 21  1  0  0  0  0
 37 21  1  0  0  0  0
 38 21  1  0  0  0  0
 40 22  1  0  0  0  0
M  END
