1
 OpenBabel05122313063D

 24 26  0  0  0  0  0  0  0  0999 V2000
    2.1637   -0.0229   -0.1330 N   0  0  0  0  0  2  0  0  0  0  0  0
    7.1414    1.1174    0.2550 N   0  0  0  0  0  0  0  0  0  0  0  0
    8.4641    0.7383    0.1844 C   0  0  0  0  0  0  0  0  0  0  0  0
    7.2563   -1.0635   -0.3115 N   0  0  0  0  0  0  0  0  0  0  0  0
    6.9512   -2.0070   -0.5465 H   0  0  0  0  0  0  0  0  0  0  0  0
    8.5649   -0.6464   -0.1729 C   0  0  0  0  0  0  0  0  0  0  0  0
    6.4410    0.0288   -0.0436 C   0  0  0  0  0  0  0  0  0  0  0  0
    4.9811   -0.0223   -0.0873 C   0  0  0  0  0  0  0  0  0  0  0  0
    9.7989   -1.3017   -0.3144 C   0  0  0  0  0  0  0  0  0  0  0  0
    9.8682   -2.3647   -0.5878 H   0  0  0  0  0  0  0  0  0  0  0  0
    2.8492    1.0876    0.2148 C   0  0  0  0  0  3  0  0  0  0  0  0
    2.2448    1.9671    0.4804 H   0  0  0  0  0  0  0  0  0  0  0  0
    2.8570   -1.1310   -0.4603 C   0  0  0  0  0  0  0  0  0  0  0  0
    2.2653   -2.0195   -0.7368 H   0  0  0  0  0  0  0  0  0  0  0  0
    9.6380    1.4903    0.4050 C   0  0  0  0  0  0  0  0  0  0  0  0
    9.5674    2.5525    0.6786 H   0  0  0  0  0  0  0  0  0  0  0  0
    4.2417    1.1339    0.2493 C   0  0  0  0  0  0  0  0  0  0  0  0
    4.7796    2.0481    0.5352 H   0  0  0  0  0  0  0  0  0  0  0  0
   10.8668    0.8413    0.2643 C   0  0  0  0  0  0  0  0  0  0  0  0
   11.7987    1.4020    0.4303 H   0  0  0  0  0  0  0  0  0  0  0  0
    4.2534   -1.1760   -0.4506 C   0  0  0  0  0  0  0  0  0  0  0  0
    4.7480   -2.1179   -0.7296 H   0  0  0  0  0  0  0  0  0  0  0  0
   10.9456   -0.5311   -0.0890 C   0  0  0  0  0  0  0  0  0  0  0  0
   11.9350   -1.0022   -0.1886 H   0  0  0  0  0  0  0  0  0  0  0  0
  1 11  1  0  0  0  0
  3  2  1  0  0  0  0
  3 15  1  0  0  0  0
  4  6  1  0  0  0  0
  4  7  1  0  0  0  0
  5  4  1  0  0  0  0
  6  3  2  0  0  0  0
  7  2  2  0  0  0  0
  8  7  1  0  0  0  0
  8 17  2  0  0  0  0
  9  6  1  0  0  0  0
  9 23  2  0  0  0  0
 10  9  1  0  0  0  0
 11 17  1  0  0  0  0
 11 12  1  0  0  0  0
 13 21  2  0  0  0  0
 13  1  1  0  0  0  0
 14 13  1  0  0  0  0
 15 16  1  0  0  0  0
 17 18  1  0  0  0  0
 19 15  2  0  0  0  0
 19 20  1  0  0  0  0
 21  8  1  0  0  0  0
 22 21  1  0  0  0  0
 23 19  1  0  0  0  0
 24 23  1  0  0  0  0
M  END
