2
 OpenBabel05122313063D

 52 59  0  0  0  0  0  0  0  0999 V2000
    0.9473    0.9708    0.5378 N   0  0  0  0  0  2  0  0  0  0  0  0
    0.1970   -0.0801    0.6227 N   0  0  0  0  0  2  0  0  0  0  0  0
    2.0475    1.0968   -0.2796 C   0  0  0  0  0  0  0  0  0  0  0  0
    2.2534    0.3553   -1.4810 C   0  0  0  0  0  0  0  0  0  0  0  0
    3.3390    0.6170   -2.2996 C   0  0  0  0  0  0  0  0  0  0  0  0
    4.3072    1.6024   -1.9566 C   0  0  0  0  0  0  0  0  0  0  0  0
    5.4545    1.8552   -2.7720 C   0  0  0  0  0  0  0  0  0  0  0  0
    6.3782    2.8189   -2.4222 C   0  0  0  0  0  0  0  0  0  0  0  0
    6.2195    3.6041   -1.2323 C   0  0  0  0  0  0  0  0  0  0  0  0
    5.0734    3.3715   -0.3992 C   0  0  0  0  0  0  0  0  0  0  0  0
    4.1183    2.3702   -0.7578 C   0  0  0  0  0  0  0  0  0  0  0  0
    2.9771    2.1394    0.0784 C   0  0  0  0  0  0  0  0  0  0  0  0
    2.8098    2.9314    1.2586 C   0  0  0  0  0  0  0  0  0  0  0  0
    3.7290    3.9011    1.5987 C   0  0  0  0  0  0  0  0  0  0  0  0
    4.8891    4.1486    0.7920 C   0  0  0  0  0  0  0  0  0  0  0  0
    5.8487    5.1340    1.1265 C   0  0  0  0  0  0  0  0  0  0  0  0
    6.9658    5.3547    0.3099 C   0  0  0  0  0  0  0  0  0  0  0  0
    7.1518    4.6007   -0.8564 C   0  0  0  0  0  0  0  0  0  0  0  0
    0.5418   -1.4040    0.2559 C   0  0  0  0  0  0  0  0  0  0  0  0
   -0.4803   -2.1642   -0.3566 C   0  0  0  0  0  0  0  0  0  0  0  0
   -0.2427   -3.4619   -0.7949 C   0  0  0  0  0  0  0  0  0  0  0  0
    1.0224   -4.0701   -0.6011 C   0  0  0  0  0  0  0  0  0  0  0  0
    2.0449   -3.3414    0.1022 C   0  0  0  0  0  0  0  0  0  0  0  0
    1.8066   -2.0004    0.5629 C   0  0  0  0  0  0  0  0  0  0  0  0
    2.8244   -1.3499    1.3385 C   0  0  0  0  0  0  0  0  0  0  0  0
    4.0329   -1.9608    1.5851 C   0  0  0  0  0  0  0  0  0  0  0  0
    4.3282   -3.2702    1.0810 C   0  0  0  0  0  0  0  0  0  0  0  0
    5.5737   -3.9024    1.3058 C   0  0  0  0  0  0  0  0  0  0  0  0
    5.8181   -5.1938    0.8228 C   0  0  0  0  0  0  0  0  0  0  0  0
    4.8263   -5.8841    0.1127 C   0  0  0  0  0  0  0  0  0  0  0  0
    3.5644   -5.2951   -0.1318 C   0  0  0  0  0  0  0  0  0  0  0  0
    2.5265   -5.9861   -0.8449 C   0  0  0  0  0  0  0  0  0  0  0  0
    1.3022   -5.3980   -1.0652 C   0  0  0  0  0  0  0  0  0  0  0  0
    3.3093   -3.9657    0.3488 C   0  0  0  0  0  0  0  0  0  0  0  0
    1.5245   -0.4094   -1.7782 H   0  0  0  0  0  0  0  0  0  0  0  0
    3.4663    0.0515   -3.2352 H   0  0  0  0  0  0  0  0  0  0  0  0
    5.5898    1.2632   -3.6897 H   0  0  0  0  0  0  0  0  0  0  0  0
    7.2573    3.0010   -3.0593 H   0  0  0  0  0  0  0  0  0  0  0  0
    1.9250    2.7481    1.8836 H   0  0  0  0  0  0  0  0  0  0  0  0
    3.5803    4.5076    2.5054 H   0  0  0  0  0  0  0  0  0  0  0  0
    5.7055    5.7295    2.0411 H   0  0  0  0  0  0  0  0  0  0  0  0
    7.7007    6.1253    0.5853 H   0  0  0  0  0  0  0  0  0  0  0  0
    8.0292    4.7790   -1.4967 H   0  0  0  0  0  0  0  0  0  0  0  0
   -1.4599   -1.6856   -0.5137 H   0  0  0  0  0  0  0  0  0  0  0  0
   -1.0376   -4.0264   -1.3048 H   0  0  0  0  0  0  0  0  0  0  0  0
    2.6318   -0.3571    1.7634 H   0  0  0  0  0  0  0  0  0  0  0  0
    4.7949   -1.4439    2.1882 H   0  0  0  0  0  0  0  0  0  0  0  0
    6.3504   -3.3652    1.8712 H   0  0  0  0  0  0  0  0  0  0  0  0
    6.7922   -5.6712    1.0048 H   0  0  0  0  0  0  0  0  0  0  0  0
    5.0215   -6.9000   -0.2634 H   0  0  0  0  0  0  0  0  0  0  0  0
    2.7275   -7.0054   -1.2084 H   0  0  0  0  0  0  0  0  0  0  0  0
    0.5115   -5.9424   -1.6032 H   0  0  0  0  0  0  0  0  0  0  0  0
  1  2  1  0  0  0  0
  3 12  1  0  0  0  0
  3  1  1  0  0  0  0
  4  3  2  0  0  0  0
  5  6  2  0  0  0  0
  5  4  1  0  0  0  0
  6 11  1  0  0  0  0
  7  8  2  0  0  0  0
  7  6  1  0  0  0  0
  8  9  1  0  0  0  0
  9 18  2  0  0  0  0
  9 10  1  0  0  0  0
 10 15  1  0  0  0  0
 11 10  2  0  0  0  0
 11 12  1  0  0  0  0
 12 13  2  0  0  0  0
 13 14  1  0  0  0  0
 13 39  1  0  0  0  0
 14 40  1  0  0  0  0
 15 16  1  0  0  0  0
 15 14  2  0  0  0  0
 16 41  1  0  0  0  0
 17 42  1  0  0  0  0
 17 16  2  0  0  0  0
 18 17  1  0  0  0  0
 19 24  1  0  0  0  0
 19  2  1  0  0  0  0
 20 19  2  0  0  0  0
 21 22  2  0  0  0  0
 21 20  1  0  0  0  0
 22 23  1  0  0  0  0
 23 34  2  0  0  0  0
 23 24  1  0  0  0  0
 24 25  2  0  0  0  0
 25 26  1  0  0  0  0
 25 46  1  0  0  0  0
 26 47  1  0  0  0  0
 27 28  1  0  0  0  0
 27 26  2  0  0  0  0
 28 48  1  0  0  0  0
 29 49  1  0  0  0  0
 29 28  2  0  0  0  0
 30 29  1  0  0  0  0
 31 30  2  0  0  0  0
 31 34  1  0  0  0  0
 32 31  1  0  0  0  0
 33 32  2  0  0  0  0
 33 22  1  0  0  0  0
 34 27  1  0  0  0  0
 35  4  1  0  0  0  0
 36  5  1  0  0  0  0
 37  7  1  0  0  0  0
 38  8  1  0  0  0  0
 43 18  1  0  0  0  0
 44 20  1  0  0  0  0
 45 21  1  0  0  0  0
 50 30  1  0  0  0  0
 51 32  1  0  0  0  0
 52 33  1  0  0  0  0
M  END
