2
 OpenBabel05122313063D

 35 36  0  0  1  0  0  0  0  0999 V2000
    3.0593    3.2255   -0.9344 O   0  0  0  0  0  0  0  0  0  0  0  0
    1.3056    1.5521    0.2941 N   0  0  0  0  0  2  0  0  0  0  0  0
    1.0038    2.3472   -0.2867 H   0  0  0  0  0  0  0  0  0  0  0  0
    3.5169    2.2223   -0.0843 N   0  0  0  0  0  0  0  0  0  0  0  0
    2.5918    1.3832    0.4163 C   0  0  0  0  0  3  0  0  0  0  0  0
    2.9621    0.5207    0.9975 H   0  0  0  0  0  0  0  0  0  0  0  0
    3.5258    2.8668   -2.3064 C   0  0  0  0  0  0  0  0  0  0  0  0
    4.7345    1.9251   -2.0495 C   0  0  0  0  0  0  0  0  0  0  0  0
    5.6628    2.2933   -2.5256 H   0  0  0  0  0  0  0  0  0  0  0  0
    4.5262    0.9128   -2.4435 H   0  0  0  0  0  0  0  0  0  0  0  0
    2.3862    2.1614   -3.0410 C   0  0  0  0  0  0  0  0  0  0  0  0
    1.4969    2.8182   -3.1114 H   0  0  0  0  0  0  0  0  0  0  0  0
    2.0814    1.2239   -2.5327 H   0  0  0  0  0  0  0  0  0  0  0  0
    2.7057    1.8990   -4.0705 H   0  0  0  0  0  0  0  0  0  0  0  0
    3.9066    4.1966   -2.9445 C   0  0  0  0  0  0  0  0  0  0  0  0
    3.0367    4.8826   -2.9533 H   0  0  0  0  0  0  0  0  0  0  0  0
    4.2339    4.0401   -3.9912 H   0  0  0  0  0  0  0  0  0  0  0  0
    4.7284    4.6822   -2.3824 H   0  0  0  0  0  0  0  0  0  0  0  0
    4.8894    1.8669   -0.5094 C   0  0  2  0  0  0  0  0  0  0  0  0
    5.5406    2.7005   -0.1721 H   0  0  0  0  0  0  0  0  0  0  0  0
    5.4060    0.5741    0.0726 C   0  0  0  0  0  0  0  0  0  0  0  0
    4.8309   -0.6764   -0.2580 C   0  0  0  0  0  0  0  0  0  0  0  0
    3.9645   -0.7404   -0.9362 H   0  0  0  0  0  0  0  0  0  0  0  0
    5.3038   -1.8539    0.3162 C   0  0  0  0  0  0  0  0  0  0  0  0
    4.8371   -2.8216    0.0850 H   0  0  0  0  0  0  0  0  0  0  0  0
    6.3844   -1.8224    1.2270 C   0  0  0  0  0  0  0  0  0  0  0  0
    6.9731   -0.5850    1.5593 C   0  0  0  0  0  0  0  0  0  0  0  0
    7.8105   -0.5263    2.2668 H   0  0  0  0  0  0  0  0  0  0  0  0
    6.4731    0.5944    0.9858 C   0  0  0  0  0  0  0  0  0  0  0  0
    6.9300    1.5579    1.2622 H   0  0  0  0  0  0  0  0  0  0  0  0
    6.7778   -3.0216    1.7271 O   0  0  0  0  0  0  0  0  0  0  0  0
    7.8335   -3.0468    2.6695 C   0  0  0  0  0  0  0  0  0  0  0  0
    7.9778   -4.1066    2.9494 H   0  0  0  0  0  0  0  0  0  0  0  0
    7.5862   -2.4618    3.5835 H   0  0  0  0  0  0  0  0  0  0  0  0
    8.7827   -2.6540    2.2402 H   0  0  0  0  0  0  0  0  0  0  0  0
  1  4  1  0  0  0  0
  2  5  1  0  0  0  0
  3  2  1  0  0  0  0
  4  5  1  0  0  0  0
  5  6  1  0  0  0  0
  7  8  1  0  0  0  0
  7  1  1  0  0  0  0
  8 19  1  0  0  0  0
  9  8  1  0  0  0  0
 10  8  1  0  0  0  0
 11 13  1  0  0  0  0
 11  7  1  0  0  0  0
 12 11  1  0  0  0  0
 14 11  1  0  0  0  0
 15 18  1  0  0  0  0
 15  7  1  0  0  0  0
 16 15  1  0  0  0  0
 17 15  1  0  0  0  0
 19 20  1  1  0  0  0
 19  4  1  0  0  0  0
 19 21  1  0  0  0  0
 21 29  1  0  0  0  0
 22 21  2  0  0  0  0
 22 24  1  0  0  0  0
 23 22  1  0  0  0  0
 24 26  2  0  0  0  0
 25 24  1  0  0  0  0
 26 27  1  0  0  0  0
 26 31  1  0  0  0  0
 27 28  1  0  0  0  0
 29 30  1  0  0  0  0
 29 27  2  0  0  0  0
 31 32  1  0  0  0  0
 32 33  1  0  0  0  0
 32 34  1  0  0  0  0
 35 32  1  0  0  0  0
M  END
