1
 OpenBabel05122313063D

 20 20  0  0  0  0  0  0  0  0999 V2000
    1.2312    1.4317   -0.5631 N   0  0  0  0  0  2  0  0  0  0  0  0
    5.3654    0.9352   -0.1933 N   0  0  0  0  0  0  0  0  0  0  0  0
    6.6628    0.7538    0.0069 N   0  0  0  0  0  0  0  0  0  0  0  0
    7.3547    1.5199   -0.0393 H   0  0  0  0  0  0  0  0  0  0  0  0
    6.3474   -1.5222    0.3486 N   0  0  0  0  0  0  0  0  0  0  0  0
    5.3974   -1.4762   -0.0553 H   0  0  0  0  0  0  0  0  0  0  0  0
    6.7460   -2.4431    0.5248 H   0  0  0  0  0  0  0  0  0  0  0  0
    8.8434   -0.5592    0.6845 S   0  0  0  0  0  0  0  0  0  0  0  0
    0.7561    2.5652   -1.1488 C   0  0  0  0  0  3  0  0  0  0  0  0
   -0.3306    2.6130   -1.2897 H   0  0  0  0  0  0  0  0  0  0  0  0
    1.5995    3.6149   -1.5216 C   0  0  0  0  0  0  0  0  0  0  0  0
    1.1635    4.5148   -1.9785 H   0  0  0  0  0  0  0  0  0  0  0  0
    2.9804    3.5084   -1.3124 C   0  0  0  0  0  0  0  0  0  0  0  0
    3.6620    4.3216   -1.6058 H   0  0  0  0  0  0  0  0  0  0  0  0
    3.4885    2.3231   -0.7381 C   0  0  0  0  0  0  0  0  0  0  0  0
    2.5613    1.3254   -0.3705 C   0  0  0  0  0  0  0  0  0  0  0  0
    2.9383    0.3904    0.0637 H   0  0  0  0  0  0  0  0  0  0  0  0
    4.9181    2.1075   -0.5374 C   0  0  0  0  0  0  0  0  0  0  0  0
    5.6033    2.9687   -0.7018 H   0  0  0  0  0  0  0  0  0  0  0  0
    7.2096   -0.4893    0.3337 C   0  0  0  0  0  0  0  0  0  0  0  0
  1 16  1  0  0  0  0
  2  3  1  0  0  0  0
  3 20  1  0  0  0  0
  4  3  1  0  0  0  0
  5  7  1  0  0  0  0
  6  5  1  0  0  0  0
  9  1  1  0  0  0  0
 10  9  1  0  0  0  0
 11 13  2  0  0  0  0
 11  9  1  0  0  0  0
 12 11  1  0  0  0  0
 13 15  1  0  0  0  0
 14 13  1  0  0  0  0
 15 18  1  0  0  0  0
 15 16  2  0  0  0  0
 16 17  1  0  0  0  0
 18  2  2  0  0  0  0
 19 18  1  0  0  0  0
 20  5  1  0  0  0  0
 20  8  2  0  0  0  0
M  END
