3
 OpenBabel05122313063D

 50 53  0  0  1  0  0  0  0  0999 V2000
   -1.1474   -0.2946    0.0484 P   0  0  0  0  0  0  0  0  0  0  0  0
    0.6021    1.1457   -2.2669 O   0  0  0  0  0  0  0  0  0  0  0  0
    1.3394    1.6470    0.4461 N   0  0  0  0  0  2  0  0  0  0  0  0
   -2.2839   -1.1850   -1.1082 C   0  0  0  0  0  0  0  0  0  0  0  0
   -3.4163   -0.5446   -1.6577 C   0  0  0  0  0  0  0  0  0  0  0  0
   -4.3002   -1.2539   -2.4853 C   0  0  0  0  0  0  0  0  0  0  0  0
   -4.0714   -2.6088   -2.7687 C   0  0  0  0  0  0  0  0  0  0  0  0
   -2.9560   -3.2559   -2.2144 C   0  0  0  0  0  0  0  0  0  0  0  0
   -2.0683   -2.5516   -1.3884 C   0  0  0  0  0  0  0  0  0  0  0  0
   -1.7599   -0.8266    1.6983 C   0  0  0  0  0  0  0  0  0  0  0  0
   -3.1326   -1.0596    1.9262 C   0  0  0  0  0  0  0  0  0  0  0  0
   -3.5743   -1.4368    3.2024 C   0  0  0  0  0  0  0  0  0  0  0  0
   -2.6543   -1.5904    4.2535 C   0  0  0  0  0  0  0  0  0  0  0  0
   -1.2862   -1.3710    4.0274 C   0  0  0  0  0  0  0  0  0  0  0  0
   -0.8393   -0.9923    2.7527 C   0  0  0  0  0  0  0  0  0  0  0  0
   -1.6901    1.4641   -0.1219 C   0  0  0  0  0  0  0  0  0  0  0  0
   -2.2731    2.1415    0.9646 C   0  0  0  0  0  0  0  0  0  0  0  0
   -2.6562    3.4882    0.8502 C   0  0  0  0  0  0  0  0  0  0  0  0
   -2.4687    4.1687   -0.3595 C   0  0  0  0  0  0  0  0  0  0  0  0
   -1.8729    3.5031   -1.4416 C   0  0  0  0  0  0  0  0  0  0  0  0
   -1.4617    2.1616   -1.3422 C   0  0  0  0  0  0  0  0  0  0  0  0
   -0.7632    1.5155   -2.5216 C   0  0  0  0  0  0  0  0  0  0  0  0
    1.4531    2.2302   -1.9466 C   0  0  0  0  0  0  0  0  0  0  0  0
    1.4067    2.6365   -0.4856 C   0  0  2  0  0  3  0  0  0  0  0  0
    1.4716    3.9853   -0.1045 C   0  0  0  0  0  0  0  0  0  0  0  0
    1.4672    4.3317    1.2507 C   0  0  0  0  0  0  0  0  0  0  0  0
    1.3920    3.3048    2.2021 C   0  0  0  0  0  0  0  0  0  0  0  0
    1.3283    1.9825    1.7607 C   0  0  0  0  0  0  0  0  0  0  0  0
   -3.6139    0.5148   -1.4381 H   0  0  0  0  0  0  0  0  0  0  0  0
   -5.1777   -0.7411   -2.9070 H   0  0  0  0  0  0  0  0  0  0  0  0
   -4.7654   -3.1627   -3.4181 H   0  0  0  0  0  0  0  0  0  0  0  0
   -2.7734   -4.3204   -2.4236 H   0  0  0  0  0  0  0  0  0  0  0  0
   -1.2127   -3.0837   -0.9520 H   0  0  0  0  0  0  0  0  0  0  0  0
   -3.8561   -0.9527    1.1038 H   0  0  0  0  0  0  0  0  0  0  0  0
   -4.6453   -1.6192    3.3763 H   0  0  0  0  0  0  0  0  0  0  0  0
   -3.0059   -1.8923    5.2514 H   0  0  0  0  0  0  0  0  0  0  0  0
   -0.5625   -1.5050    4.8454 H   0  0  0  0  0  0  0  0  0  0  0  0
    0.2330   -0.8445    2.5408 H   0  0  0  0  0  0  0  0  0  0  0  0
   -2.4411    1.6081    1.9114 H   0  0  0  0  0  0  0  0  0  0  0  0
   -3.1151    3.9984    1.7102 H   0  0  0  0  0  0  0  0  0  0  0  0
   -2.7814    5.2183   -0.4625 H   0  0  0  0  0  0  0  0  0  0  0  0
   -1.7138    4.0385   -2.3913 H   0  0  0  0  0  0  0  0  0  0  0  0
   -1.2531    0.5677   -2.8172 H   0  0  0  0  0  0  0  0  0  0  0  0
   -0.7957    2.2048   -3.3947 H   0  0  0  0  0  0  0  0  0  0  0  0
    1.2354    3.1172   -2.5823 H   0  0  0  0  0  0  0  0  0  0  0  0
    2.4812    1.8883   -2.1916 H   0  0  0  0  0  0  0  0  0  0  0  0
    1.5139    4.7587   -0.8849 H   0  0  0  0  0  0  0  0  0  0  0  0
    1.5129    5.3862    1.5600 H   0  0  0  0  0  0  0  0  0  0  0  0
    1.3755    3.5168    3.2800 H   0  0  0  0  0  0  0  0  0  0  0  0
    1.2527    1.1476    2.4703 H   0  0  0  0  0  0  0  0  0  0  0  0
  1 10  1  0  0  0  0
  2 23  1  0  0  0  0
  3 28  1  0  0  0  0
  4  1  1  0  0  0  0
  5 29  1  0  0  0  0
  5  4  2  0  0  0  0
  6  5  1  0  0  0  0
  7  6  2  0  0  0  0
  7  8  1  0  0  0  0
  8  9  2  0  0  0  0
  9  4  1  0  0  0  0
  9 33  1  0  0  0  0
 10 11  2  0  0  0  0
 10 15  1  0  0  0  0
 11 12  1  0  0  0  0
 12 35  1  0  0  0  0
 12 13  2  0  0  0  0
 13 36  1  0  0  0  0
 14 13  1  0  0  0  0
 14 37  1  0  0  0  0
 15 14  2  0  0  0  0
 16  1  1  0  0  0  0
 16 17  1  0  0  0  0
 17 39  1  0  0  0  0
 18 17  2  0  0  0  0
 18 40  1  0  0  0  0
 19 18  1  0  0  0  0
 20 21  1  0  0  0  0
 20 19  2  0  0  0  0
 21 16  2  0  0  0  0
 22  2  1  0  0  0  0
 22 21  1  0  0  0  0
 24 23  1  1  0  0  0
 24 25  1  0  0  0  0
 24  3  1  0  0  0  0
 25 26  2  0  0  0  0
 26 48  1  0  0  0  0
 26 27  1  0  0  0  0
 27 49  1  0  0  0  0
 28 27  2  0  0  0  0
 28 50  1  0  0  0  0
 30  6  1  0  0  0  0
 31  7  1  0  0  0  0
 32  8  1  0  0  0  0
 34 11  1  0  0  0  0
 38 15  1  0  0  0  0
 41 19  1  0  0  0  0
 42 20  1  0  0  0  0
 43 22  1  0  0  0  0
 44 22  1  0  0  0  0
 45 23  1  0  0  0  0
 46 23  1  0  0  0  0
 47 25  1  0  0  0  0
M  END
