7
 OpenBabel05122313063D

 14 15  0  0  0  0  0  0  0  0999 V2000
   -5.9010   -0.3872    0.6396 O   0  0  0  0  0  0  0  0  0  0  0  0
   -4.7364    1.3238   -0.4257 N   0  0  0  0  0  0  0  0  0  0  0  0
   -5.6300    1.8128   -0.5429 H   0  0  0  0  0  0  0  0  0  0  0  0
   -2.3982    1.3570   -0.8250 N   0  0  0  0  0  0  0  0  0  0  0  0
   -3.0477   -1.6769    0.8747 N   0  0  0  0  0  0  0  0  0  0  0  0
   -3.6291   -2.4018    1.2998 H   0  0  0  0  0  0  0  0  0  0  0  0
   -1.2585   -0.6107    0.1016 N   0  0  0  0  0  2  0  0  0  0  0  0
   -3.5905    1.8871   -0.9260 C   0  0  0  0  0  0  0  0  0  0  0  0
   -3.7149    2.8503   -1.4484 H   0  0  0  0  0  0  0  0  0  0  0  0
   -2.3703    0.1662   -0.1581 C   0  0  0  0  0  0  0  0  0  0  0  0
   -3.5049   -0.4930    0.3414 C   0  0  0  0  0  0  0  0  0  0  0  0
   -4.8335    0.0641    0.2464 C   0  0  0  0  0  0  0  0  0  0  0  0
   -1.6967   -1.7219    0.7146 C   0  0  0  0  0  3  0  0  0  0  0  0
   -1.0601   -2.6013    0.9629 H   0  0  0  0  0  0  0  0  0  0  0  0
  2 12  1  0  0  0  0
  3  2  1  0  0  0  0
  4 10  1  0  0  0  0
  5  6  1  0  0  0  0
  7 13  1  0  0  0  0
  8  4  2  0  0  0  0
  8  2  1  0  0  0  0
  9  8  1  0  0  0  0
 10  7  1  0  0  0  0
 10 11  2  0  0  0  0
 11  5  1  0  0  0  0
 12 11  1  0  0  0  0
 12  1  2  0  0  0  0
 13  5  1  0  0  0  0
 13 14  1  0  0  0  0
M  END
