3
 OpenBabel05122313063D

 53 56  0  0  1  0  0  0  0  0999 V2000
   -1.1204   -0.2540    0.2162 P   0  0  0  0  0  0  0  0  0  0  0  0
   -0.2267    0.5071   -2.3105 O   0  0  0  0  0  0  0  0  0  0  0  0
    1.3330    1.9004    0.3371 N   0  0  0  0  0  2  0  0  0  0  0  0
   -2.2205    1.1983   -0.1041 C   0  0  0  0  0  0  0  0  0  0  0  0
   -1.9012    2.4626    0.4328 C   0  0  0  0  0  0  0  0  0  0  0  0
   -2.7478    3.5612    0.2264 C   0  0  0  0  0  0  0  0  0  0  0  0
   -3.9337    3.4127   -0.5099 C   0  0  0  0  0  0  0  0  0  0  0  0
   -4.2756    2.1526   -1.0231 C   0  0  0  0  0  0  0  0  0  0  0  0
   -3.4285    1.0513   -0.8203 C   0  0  0  0  0  0  0  0  0  0  0  0
   -1.6619   -0.7570    1.9035 C   0  0  0  0  0  0  0  0  0  0  0  0
   -0.6877   -1.0782    2.8696 C   0  0  0  0  0  0  0  0  0  0  0  0
   -1.0721   -1.4388    4.1703 C   0  0  0  0  0  0  0  0  0  0  0  0
   -2.4322   -1.4781    4.5133 C   0  0  0  0  0  0  0  0  0  0  0  0
   -3.4082   -1.1504    3.5561 C   0  0  0  0  0  0  0  0  0  0  0  0
   -3.0282   -0.7859    2.2573 C   0  0  0  0  0  0  0  0  0  0  0  0
   -1.7932   -1.5399   -0.9257 C   0  0  0  0  0  0  0  0  0  0  0  0
   -2.2457   -2.7653   -0.3952 C   0  0  0  0  0  0  0  0  0  0  0  0
   -2.6681   -3.8069   -1.2348 C   0  0  0  0  0  0  0  0  0  0  0  0
   -2.6387   -3.6346   -2.6243 C   0  0  0  0  0  0  0  0  0  0  0  0
   -2.1772   -2.4249   -3.1633 C   0  0  0  0  0  0  0  0  0  0  0  0
   -1.7480   -1.3683   -2.3393 C   0  0  0  0  0  0  0  0  0  0  0  0
   -1.3181   -0.0806   -3.0037 C   0  0  0  0  0  0  0  0  0  0  0  0
    0.0934    1.8180   -2.7511 C   0  0  0  0  0  0  0  0  0  0  0  0
    1.4186    2.2594   -2.1188 C   0  0  0  0  0  0  0  0  0  0  0  0
    1.3615    2.7810   -0.7046 C   0  0  2  0  0  3  0  0  0  0  0  0
    1.3585    4.1660   -0.4542 C   0  0  0  0  0  0  0  0  0  0  0  0
    1.3456    4.6559    0.8557 C   0  0  0  0  0  0  0  0  0  0  0  0
    1.3383    3.7348    1.9131 C   0  0  0  0  0  0  0  0  0  0  0  0
    1.3271    2.3726    1.6124 C   0  0  0  0  0  0  0  0  0  0  0  0
   -0.9992    2.5927    1.0419 H   0  0  0  0  0  0  0  0  0  0  0  0
   -2.4806    4.5393    0.6541 H   0  0  0  0  0  0  0  0  0  0  0  0
   -4.5977    4.2749   -0.6713 H   0  0  0  0  0  0  0  0  0  0  0  0
   -5.2141    2.0194   -1.5821 H   0  0  0  0  0  0  0  0  0  0  0  0
   -3.7199    0.0655   -1.2125 H   0  0  0  0  0  0  0  0  0  0  0  0
    0.3749   -1.0338    2.5794 H   0  0  0  0  0  0  0  0  0  0  0  0
   -0.3056   -1.6886    4.9194 H   0  0  0  0  0  0  0  0  0  0  0  0
   -2.7356   -1.7597    5.5328 H   0  0  0  0  0  0  0  0  0  0  0  0
   -4.4746   -1.1735    3.8262 H   0  0  0  0  0  0  0  0  0  0  0  0
   -3.7976   -0.5180    1.5174 H   0  0  0  0  0  0  0  0  0  0  0  0
   -2.2751   -2.9050    0.6953 H   0  0  0  0  0  0  0  0  0  0  0  0
   -3.0187   -4.7530   -0.7969 H   0  0  0  0  0  0  0  0  0  0  0  0
   -2.9651   -4.4442   -3.2936 H   0  0  0  0  0  0  0  0  0  0  0  0
   -2.1415   -2.2961   -4.2565 H   0  0  0  0  0  0  0  0  0  0  0  0
   -1.0346   -0.2794   -4.0635 H   0  0  0  0  0  0  0  0  0  0  0  0
   -2.1758    0.6364   -3.0240 H   0  0  0  0  0  0  0  0  0  0  0  0
   -0.7332    2.5241   -2.4983 H   0  0  0  0  0  0  0  0  0  0  0  0
    0.2128    1.8184   -3.8597 H   0  0  0  0  0  0  0  0  0  0  0  0
    2.1134    1.3933   -2.1618 H   0  0  0  0  0  0  0  0  0  0  0  0
    1.8430    3.0590   -2.7570 H   0  0  0  0  0  0  0  0  0  0  0  0
    1.3799    4.8567   -1.3093 H   0  0  0  0  0  0  0  0  0  0  0  0
    1.3493    5.7387    1.0490 H   0  0  0  0  0  0  0  0  0  0  0  0
    1.3330    4.0579    2.9632 H   0  0  0  0  0  0  0  0  0  0  0  0
    1.2859    1.6116    2.4044 H   0  0  0  0  0  0  0  0  0  0  0  0
  1 10  1  0  0  0  0
  3 29  1  0  0  0  0
  4  1  1  0  0  0  0
  4  5  1  0  0  0  0
  5 30  1  0  0  0  0
  6  5  2  0  0  0  0
  6 31  1  0  0  0  0
  7  6  1  0  0  0  0
  8  9  1  0  0  0  0
  8  7  2  0  0  0  0
  9  4  2  0  0  0  0
 10 15  2  0  0  0  0
 10 11  1  0  0  0  0
 11 12  2  0  0  0  0
 12 13  1  0  0  0  0
 12 36  1  0  0  0  0
 13 37  1  0  0  0  0
 14 38  1  0  0  0  0
 14 13  2  0  0  0  0
 15 14  1  0  0  0  0
 16 17  1  0  0  0  0
 16  1  1  0  0  0  0
 17 40  1  0  0  0  0
 18 41  1  0  0  0  0
 18 17  2  0  0  0  0
 19 18  1  0  0  0  0
 20 19  2  0  0  0  0
 20 21  1  0  0  0  0
 21 16  2  0  0  0  0
 22 21  1  0  0  0  0
 22  2  1  0  0  0  0
 23 46  1  0  0  0  0
 23  2  1  0  0  0  0
 23 24  1  0  0  0  0
 25 24  1  1  0  0  0
 25 26  1  0  0  0  0
 25  3  1  0  0  0  0
 26 27  2  0  0  0  0
 27 51  1  0  0  0  0
 27 28  1  0  0  0  0
 28 52  1  0  0  0  0
 29 28  2  0  0  0  0
 29 53  1  0  0  0  0
 32  7  1  0  0  0  0
 33  8  1  0  0  0  0
 34  9  1  0  0  0  0
 35 11  1  0  0  0  0
 39 15  1  0  0  0  0
 42 19  1  0  0  0  0
 43 20  1  0  0  0  0
 44 22  1  0  0  0  0
 45 22  1  0  0  0  0
 47 23  1  0  0  0  0
 48 24  1  0  0  0  0
 49 24  1  0  0  0  0
 50 26  1  0  0  0  0
M  END
