2
 OpenBabel05122313063D

 38 39  0  0  1  0  0  0  0  0999 V2000
   -1.4493    2.2580    1.2145 O   0  0  0  0  0  0  0  0  0  0  0  0
    0.3063    0.7731    0.9161 N   0  0  0  0  0  2  0  0  0  0  0  0
   -2.2757    1.1227    1.6268 N   0  0  0  0  0  2  0  0  0  0  0  0
   -0.1765    1.9678    0.8566 C   0  0  1  0  0  3  0  0  0  0  0  0
    0.5406    3.1830    0.3561 C   0  0  0  0  0  0  0  0  0  0  0  0
    0.2460    3.4618   -1.1262 C   0  0  0  0  0  0  0  0  0  0  0  0
   -2.8264    0.5839    0.5940 C   0  0  2  0  0  3  0  0  0  0  0  0
   -2.6880    0.9083   -0.8752 C   0  0  0  0  0  0  0  0  0  0  0  0
   -3.6595   -0.1146   -1.5021 C   0  0  1  0  0  0  0  0  0  0  0  0
   -2.9625   -1.4922   -1.3941 C   0  0  0  0  0  0  0  0  0  0  0  0
   -3.0374   -1.7945    0.1279 C   0  0  0  0  0  0  0  0  0  0  0  0
   -3.8024   -0.5725    0.7336 C   0  0  2  0  0  0  0  0  0  0  0  0
   -4.8008   -0.2053   -0.4373 C   0  0  0  0  0  0  0  0  0  0  0  0
   -5.8404   -1.2946   -0.7273 C   0  0  0  0  0  0  0  0  0  0  0  0
   -5.5509    1.1148   -0.2022 C   0  0  0  0  0  0  0  0  0  0  0  0
   -4.3578   -0.7904    2.1285 C   0  0  0  0  0  0  0  0  0  0  0  0
   -0.3303    0.0541    1.3002 H   0  0  0  0  0  0  0  0  0  0  0  0
    1.6266    3.0020    0.4803 H   0  0  0  0  0  0  0  0  0  0  0  0
    0.2227    4.0353    0.9918 H   0  0  0  0  0  0  0  0  0  0  0  0
    0.8078    4.3577   -1.4579 H   0  0  0  0  0  0  0  0  0  0  0  0
    0.5713    2.5986   -1.7401 H   0  0  0  0  0  0  0  0  0  0  0  0
   -0.8344    3.6439   -1.2997 H   0  0  0  0  0  0  0  0  0  0  0  0
   -1.6375    0.7663   -1.2216 H   0  0  0  0  0  0  0  0  0  0  0  0
   -2.9565    1.9681   -1.0609 H   0  0  0  0  0  0  0  0  0  0  0  0
   -3.9919    0.1562   -2.5240 H   0  0  0  0  0  0  0  0  0  0  0  0
   -1.9127   -1.4420   -1.7461 H   0  0  0  0  0  0  0  0  0  0  0  0
   -3.4856   -2.2614   -1.9965 H   0  0  0  0  0  0  0  0  0  0  0  0
   -2.0311   -1.9147    0.5771 H   0  0  0  0  0  0  0  0  0  0  0  0
   -3.6108   -2.7178    0.3504 H   0  0  0  0  0  0  0  0  0  0  0  0
   -6.4235   -1.0296   -1.6340 H   0  0  0  0  0  0  0  0  0  0  0  0
   -5.3943   -2.2918   -0.8974 H   0  0  0  0  0  0  0  0  0  0  0  0
   -6.5603   -1.3858    0.1124 H   0  0  0  0  0  0  0  0  0  0  0  0
   -4.8888    1.9449    0.1113 H   0  0  0  0  0  0  0  0  0  0  0  0
   -6.0796    1.4319   -1.1253 H   0  0  0  0  0  0  0  0  0  0  0  0
   -6.3161    0.9921    0.5920 H   0  0  0  0  0  0  0  0  0  0  0  0
   -3.5383   -1.0218    2.8371 H   0  0  0  0  0  0  0  0  0  0  0  0
   -4.8730    0.1148    2.5079 H   0  0  0  0  0  0  0  0  0  0  0  0
   -5.0726   -1.6382    2.1384 H   0  0  0  0  0  0  0  0  0  0  0  0
  1  3  1  0  0  0  0
  2 17  1  0  0  0  0
  4  2  1  6  0  0  0
  4  1  1  0  0  0  0
  5 18  1  0  0  0  0
  5  4  1  0  0  0  0
  5 19  1  0  0  0  0
  6  5  1  0  0  0  0
  7 12  1  0  0  0  0
  7  3  1  1  0  0  0
  8  7  1  0  0  0  0
  9 25  1  6  0  0  0
  9 10  1  0  0  0  0
  9  8  1  0  0  0  0
  9 13  1  0  0  0  0
 10 11  1  0  0  0  0
 11 29  1  0  0  0  0
 11 28  1  0  0  0  0
 11 12  1  0  0  0  0
 12 16  1  1  0  0  0
 13 15  1  0  0  0  0
 13 12  1  0  0  0  0
 14 13  1  0  0  0  0
 14 32  1  0  0  0  0
 15 33  1  0  0  0  0
 15 35  1  0  0  0  0
 16 38  1  0  0  0  0
 16 37  1  0  0  0  0
 16 36  1  0  0  0  0
 20  6  1  0  0  0  0
 21  6  1  0  0  0  0
 22  6  1  0  0  0  0
 23  8  1  0  0  0  0
 24  8  1  0  0  0  0
 26 10  1  0  0  0  0
 27 10  1  0  0  0  0
 30 14  1  0  0  0  0
 31 14  1  0  0  0  0
 34 15  1  0  0  0  0
M  END
