1
 OpenBabel05122313063D

 24 24  0  0  0  0  0  0  0  0999 V2000
    0.2000   -1.9028   -1.6667 N   0  0  0  0  0  2  0  0  0  0  0  0
    1.0962   -2.5278   -2.5088 O   0  0  0  0  0  0  0  0  0  0  0  0
    1.5858   -3.1112   -1.8505 H   0  0  0  0  0  0  0  0  0  0  0  0
   -0.9759   -1.6844   -2.1873 C   0  0  0  0  0  3  0  0  0  0  0  0
   -1.0892   -1.9580   -3.2509 H   0  0  0  0  0  0  0  0  0  0  0  0
   -2.1088   -1.1354   -1.4615 C   0  0  0  0  0  0  0  0  0  0  0  0
   -2.2354   -1.3115   -0.0590 C   0  0  0  0  0  0  0  0  0  0  0  0
   -1.4659   -1.8919    0.4706 H   0  0  0  0  0  0  0  0  0  0  0  0
   -3.3007   -0.7510    0.6463 C   0  0  0  0  0  0  0  0  0  0  0  0
   -4.2873    0.0102   -0.0612 C   0  0  0  0  0  0  0  0  0  0  0  0
   -4.1875    0.1369   -1.4583 C   0  0  0  0  0  0  0  0  0  0  0  0
   -4.9474    0.7023   -2.0131 H   0  0  0  0  0  0  0  0  0  0  0  0
   -3.1153   -0.4391   -2.1567 C   0  0  0  0  0  0  0  0  0  0  0  0
   -3.0401   -0.3057   -3.2456 H   0  0  0  0  0  0  0  0  0  0  0  0
   -3.4632   -0.8389    1.9887 O   0  0  0  0  0  0  0  0  0  0  0  0
   -2.5173   -1.6210    2.7165 C   0  0  0  0  0  0  0  0  0  0  0  0
   -2.8174   -1.5526    3.7775 H   0  0  0  0  0  0  0  0  0  0  0  0
   -2.5409   -2.6844    2.3934 H   0  0  0  0  0  0  0  0  0  0  0  0
   -1.4795   -1.2378    2.6034 H   0  0  0  0  0  0  0  0  0  0  0  0
   -5.2614    0.5541    0.7048 O   0  0  0  0  0  0  0  0  0  0  0  0
   -6.2679    1.3193    0.0679 C   0  0  0  0  0  0  0  0  0  0  0  0
   -6.9455    1.6704    0.8676 H   0  0  0  0  0  0  0  0  0  0  0  0
   -5.8422    2.2010   -0.4619 H   0  0  0  0  0  0  0  0  0  0  0  0
   -6.8500    0.7117   -0.6605 H   0  0  0  0  0  0  0  0  0  0  0  0
  2  3  1  0  0  0  0
  2  1  1  0  0  0  0
  4  1  1  0  0  0  0
  4  6  1  0  0  0  0
  5  4  1  0  0  0  0
  6  7  1  0  0  0  0
  7  8  1  0  0  0  0
  7  9  2  0  0  0  0
  9 15  1  0  0  0  0
 10  9  1  0  0  0  0
 10 20  1  0  0  0  0
 11 10  2  0  0  0  0
 12 11  1  0  0  0  0
 13  6  2  0  0  0  0
 13 11  1  0  0  0  0
 14 13  1  0  0  0  0
 15 16  1  0  0  0  0
 16 17  1  0  0  0  0
 18 16  1  0  0  0  0
 19 16  1  0  0  0  0
 21 20  1  0  0  0  0
 21 22  1  0  0  0  0
 23 21  1  0  0  0  0
 24 21  1  0  0  0  0
M  END
