1
 OpenBabel05122313063D

 25 26  0  0  1  0  0  0  0  0999 V2000
    0.5841   -1.0883    0.0074 N   0  0  0  0  0  2  0  0  0  0  0  0
    2.0403   -2.7231    0.2978 O   0  0  0  0  0  0  0  0  0  0  0  0
    2.1296    0.8513   -0.2045 C   0  0  0  0  0  0  0  0  0  0  0  0
    2.8271   -1.5406   -0.1249 N   0  0  0  0  0  0  0  0  0  0  0  0
    2.7647    1.1196    1.0211 C   0  0  0  0  0  0  0  0  0  0  0  0
    3.0916    0.2787    1.6496 H   0  0  0  0  0  0  0  0  0  0  0  0
    1.8157   -0.5719   -0.6175 C   0  0  1  0  0  0  0  0  0  0  0  0
    1.6685   -0.6215   -1.7264 H   0  0  0  0  0  0  0  0  0  0  0  0
    2.9773    2.4461    1.4206 C   0  0  0  0  0  0  0  0  0  0  0  0
    3.4746    2.6556    2.3796 H   0  0  0  0  0  0  0  0  0  0  0  0
    2.5488    3.5057    0.6041 C   0  0  0  0  0  0  0  0  0  0  0  0
    2.7103    4.5464    0.9235 H   0  0  0  0  0  0  0  0  0  0  0  0
    0.7888   -2.2972    0.4409 C   0  0  1  0  0  3  0  0  0  0  0  0
    1.7023    1.9121   -1.0251 C   0  0  0  0  0  0  0  0  0  0  0  0
    1.1767    1.6928   -1.9675 H   0  0  0  0  0  0  0  0  0  0  0  0
    3.7764   -1.9787   -1.1264 C   0  0  0  0  0  0  0  0  0  0  0  0
    4.4535   -2.7369   -0.6903 H   0  0  0  0  0  0  0  0  0  0  0  0
    4.3809   -1.0891   -1.3924 H   0  0  0  0  0  0  0  0  0  0  0  0
    3.2963   -2.3801   -2.0502 H   0  0  0  0  0  0  0  0  0  0  0  0
   -0.2047   -3.2026    1.0687 C   0  0  0  0  0  0  0  0  0  0  0  0
   -1.0002   -3.4499    0.3377 H   0  0  0  0  0  0  0  0  0  0  0  0
   -0.6831   -2.6541    1.9072 H   0  0  0  0  0  0  0  0  0  0  0  0
    0.2813   -4.1262    1.4270 H   0  0  0  0  0  0  0  0  0  0  0  0
    1.9100    3.2378   -0.6168 C   0  0  0  0  0  0  0  0  0  0  0  0
    1.5664    4.0653   -1.2552 H   0  0  0  0  0  0  0  0  0  0  0  0
  1 13  1  0  0  0  0
  2 13  1  0  0  0  0
  3  5  1  0  0  0  0
  4  2  1  0  0  0  0
  5  9  2  0  0  0  0
  5  6  1  0  0  0  0
  7  8  1  6  0  0  0
  7  3  1  0  0  0  0
  7  4  1  0  0  0  0
  7  1  1  0  0  0  0
  9 10  1  0  0  0  0
 11 12  1  0  0  0  0
 11  9  1  0  0  0  0
 13 20  1  1  0  0  0
 14 24  1  0  0  0  0
 14  3  2  0  0  0  0
 15 14  1  0  0  0  0
 16 17  1  0  0  0  0
 16  4  1  0  0  0  0
 18 16  1  0  0  0  0
 19 16  1  0  0  0  0
 20 23  1  0  0  0  0
 20 22  1  0  0  0  0
 21 20  1  0  0  0  0
 24 11  2  0  0  0  0
 25 24  1  0  0  0  0
M  END
