3
 OpenBabel05122313063D

 27 27  0  0  0  0  0  0  0  0999 V2000
    0.2826   -2.5707   -0.3041 O   0  0  0  0  0  1  0  0  0  0  0  0
   -5.4079    0.1034   -0.4492 N   0  0  0  0  0  0  0  0  0  0  0  0
    0.0504   -1.3642   -0.4515 N   0  0  0  0  0  2  0  0  0  0  0  0
   -4.0772   -0.2457   -0.4478 C   0  0  0  0  0  0  0  0  0  0  0  0
   -3.6596   -1.5971   -0.2136 C   0  0  0  0  0  0  0  0  0  0  0  0
   -4.4003   -2.3796   -0.0074 H   0  0  0  0  0  0  0  0  0  0  0  0
   -2.3196   -1.9496   -0.2377 C   0  0  0  0  0  0  0  0  0  0  0  0
   -2.0013   -2.9864   -0.0636 H   0  0  0  0  0  0  0  0  0  0  0  0
   -1.3190   -0.9764   -0.4777 C   0  0  0  0  0  0  0  0  0  0  0  0
   -1.7060    0.3612   -0.7146 C   0  0  0  0  0  0  0  0  0  0  0  0
   -0.9336    1.1049   -0.9653 H   0  0  0  0  0  0  0  0  0  0  0  0
   -3.0494    0.7161   -0.6972 C   0  0  0  0  0  0  0  0  0  0  0  0
   -3.3053    1.7644   -0.8941 H   0  0  0  0  0  0  0  0  0  0  0  0
   -5.8189    1.4961   -0.6246 C   0  0  0  0  0  0  0  0  0  0  0  0
   -6.8722    1.4832   -0.9697 H   0  0  0  0  0  0  0  0  0  0  0  0
   -5.2348    1.9400   -1.4577 H   0  0  0  0  0  0  0  0  0  0  0  0
   -5.6921    2.3640    0.6319 C   0  0  0  0  0  0  0  0  0  0  0  0
   -6.3398    1.9906    1.4492 H   0  0  0  0  0  0  0  0  0  0  0  0
   -5.9909    3.4081    0.4093 H   0  0  0  0  0  0  0  0  0  0  0  0
   -4.6492    2.3800    1.0060 H   0  0  0  0  0  0  0  0  0  0  0  0
   -6.4484   -0.8786   -0.1479 C   0  0  0  0  0  0  0  0  0  0  0  0
   -6.2167   -1.8225   -0.6838 H   0  0  0  0  0  0  0  0  0  0  0  0
   -7.3899   -0.5031   -0.5971 H   0  0  0  0  0  0  0  0  0  0  0  0
   -6.6570   -1.1539    1.3450 C   0  0  0  0  0  0  0  0  0  0  0  0
   -7.4368   -1.9289    1.4881 H   0  0  0  0  0  0  0  0  0  0  0  0
   -6.9810   -0.2417    1.8835 H   0  0  0  0  0  0  0  0  0  0  0  0
   -5.7242   -1.5150    1.8218 H   0  0  0  0  0  0  0  0  0  0  0  0
  2  4  1  0  0  0  0
  2 21  1  0  0  0  0
  3  1  1  0  0  0  0
  4  5  1  0  0  0  0
  5  6  1  0  0  0  0
  7  5  2  0  0  0  0
  7  8  1  0  0  0  0
  9  3  1  0  0  0  0
  9  7  1  0  0  0  0
 10 12  1  0  0  0  0
 10  9  2  0  0  0  0
 11 10  1  0  0  0  0
 12  4  2  0  0  0  0
 13 12  1  0  0  0  0
 14  2  1  0  0  0  0
 14 17  1  0  0  0  0
 15 14  1  0  0  0  0
 16 14  1  0  0  0  0
 17 20  1  0  0  0  0
 17 18  1  0  0  0  0
 19 17  1  0  0  0  0
 21 24  1  0  0  0  0
 22 21  1  0  0  0  0
 23 21  1  0  0  0  0
 24 25  1  0  0  0  0
 24 27  1  0  0  0  0
 24 26  1  0  0  0  0
M  END
