3
 OpenBabel05122313063D

 14 14  0  0  1  0  0  0  0  0999 V2000
   -5.4676   -0.5342   -0.4957 O   0  0  0  0  0  0  0  0  0  0  0  0
   -4.8426    0.8042    1.1431 O   0  0  0  0  0  0  0  0  0  0  0  0
   -1.0397   -0.4767   -0.1944 N   0  0  0  0  0  2  0  0  0  0  0  0
   -2.9333   -1.1347   -1.1107 N   0  0  0  0  0  0  0  0  0  0  0  0
   -3.6385   -1.5980   -1.6897 H   0  0  0  0  0  0  0  0  0  0  0  0
   -4.6195    0.0235    0.2199 N   0  0  0  0  0  0  0  0  0  0  0  0
   -1.5808   -1.2427   -1.1711 C   0  0  2  0  0  3  0  0  0  0  0  0
   -3.2532   -0.2817   -0.0766 C   0  0  0  0  0  0  0  0  0  0  0  0
   -2.0610    0.1254    0.4974 C   0  0  0  0  0  0  0  0  0  0  0  0
   -1.8745    0.7498    1.3767 H   0  0  0  0  0  0  0  0  0  0  0  0
   -0.8521   -2.0828   -2.1537 C   0  0  0  0  0  0  0  0  0  0  0  0
   -1.5434   -2.7769   -2.6668 H   0  0  0  0  0  0  0  0  0  0  0  0
   -0.0762   -2.6541   -1.5981 H   0  0  0  0  0  0  0  0  0  0  0  0
   -0.3500   -1.4590   -2.9208 H   0  0  0  0  0  0  0  0  0  0  0  0
  1  6  2  0  0  0  0
  3  9  1  0  0  0  0
  4  8  1  0  0  0  0
  5  4  1  0  0  0  0
  6  2  2  0  0  0  0
  7 11  1  1  0  0  0
  7  4  1  0  0  0  0
  7  3  1  0  0  0  0
  8  6  1  0  0  0  0
  8  9  2  0  0  0  0
  9 10  1  0  0  0  0
 11 13  1  0  0  0  0
 12 11  1  0  0  0  0
 14 11  1  0  0  0  0
M  END
