4
 OpenBabel05122313063D

 14 14  0  0  0  0  0  0  0  0999 V2000
   -1.4904    1.6796   -1.6562 F   0  0  0  0  0  0  0  0  0  0  0  0
   -5.5919    2.5416    0.5366 F   0  0  0  0  0  0  0  0  0  0  0  0
   -4.0010   -1.8924    0.0840 F   0  0  0  0  0  0  0  0  0  0  0  0
   -1.7070   -1.0487   -1.1862 N   0  0  0  0  0  0  0  0  0  0  0  0
   -1.2687   -0.8324   -2.1021 H   0  0  0  0  0  0  0  0  0  0  0  0
   -2.0745   -2.0107   -1.2027 H   0  0  0  0  0  0  0  0  0  0  0  0
   -2.7277   -0.1298   -0.8048 C   0  0  0  0  0  0  0  0  0  0  0  0
   -2.5881    1.2529   -1.0147 C   0  0  0  0  0  0  0  0  0  0  0  0
   -3.5450    2.1707   -0.5782 C   0  0  0  0  0  0  0  0  0  0  0  0
   -3.4143    3.2453   -0.7569 H   0  0  0  0  0  0  0  0  0  0  0  0
   -4.6635    1.6759    0.1057 C   0  0  0  0  0  0  0  0  0  0  0  0
   -4.8511    0.3088    0.3458 C   0  0  0  0  0  0  0  0  0  0  0  0
   -5.7326   -0.0621    0.8831 H   0  0  0  0  0  0  0  0  0  0  0  0
   -3.8680   -0.5699   -0.1108 C   0  0  0  0  0  0  0  0  0  0  0  0
  1  8  1  0  0  0  0
  4  7  1  0  0  0  0
  5  4  1  0  0  0  0
  6  4  1  0  0  0  0
  7 14  1  0  0  0  0
  8  7  2  0  0  0  0
  8  9  1  0  0  0  0
  9 11  2  0  0  0  0
 10  9  1  0  0  0  0
 11 12  1  0  0  0  0
 11  2  1  0  0  0  0
 12 13  1  0  0  0  0
 14  3  1  0  0  0  0
 14 12  2  0  0  0  0
M  END
