3
 OpenBabel05122313063D

 14 14  0  0  0  0  0  0  0  0999 V2000
   -3.1866   -2.5757   -0.7922 F   0  0  0  0  0  0  0  0  0  0  0  0
   -4.9948    2.3803    0.6214 F   0  0  0  0  0  0  0  0  0  0  0  0
   -1.5577   -0.4228   -1.2950 N   0  0  0  0  0  0  0  0  0  0  0  0
   -1.4552   -1.3844   -1.6502 H   0  0  0  0  0  0  0  0  0  0  0  0
   -1.3755    0.2687   -2.0432 H   0  0  0  0  0  0  0  0  0  0  0  0
   -2.8461   -0.2377   -0.6930 C   0  0  0  0  0  0  0  0  0  0  0  0
   -3.6433   -1.3629   -0.4193 C   0  0  0  0  0  0  0  0  0  0  0  0
   -4.8864   -1.2332    0.2041 C   0  0  0  0  0  0  0  0  0  0  0  0
   -5.4802   -2.1366    0.4016 H   0  0  0  0  0  0  0  0  0  0  0  0
   -5.3501    0.0407    0.5601 C   0  0  0  0  0  0  0  0  0  0  0  0
   -6.3221    0.1799    1.0528 H   0  0  0  0  0  0  0  0  0  0  0  0
   -4.5512    1.1590    0.2791 C   0  0  0  0  0  0  0  0  0  0  0  0
   -3.3017    1.0418   -0.3364 C   0  0  0  0  0  0  0  0  0  0  0  0
   -2.6662    1.9222   -0.5150 H   0  0  0  0  0  0  0  0  0  0  0  0
  1  7  1  0  0  0  0
  3  6  1  0  0  0  0
  4  3  1  0  0  0  0
  5  3  1  0  0  0  0
  6  7  2  0  0  0  0
  6 13  1  0  0  0  0
  7  8  1  0  0  0  0
  8  9  1  0  0  0  0
  8 10  2  0  0  0  0
 10 11  1  0  0  0  0
 12 10  1  0  0  0  0
 12  2  1  0  0  0  0
 13 12  2  0  0  0  0
 14 13  1  0  0  0  0
M  END
