10
 OpenBabel05122313063D

 24 25  0  0  1  0  0  0  0  0999 V2000
    3.2742    0.0160    1.6522 S   0  0  0  0  0  0  0  0  0  0  0  0
    4.2562   -2.3273   -0.5764 S   0  0  0  0  0  0  0  0  0  0  0  0
    4.6974   -0.3828    1.4657 O   0  0  0  0  0  0  0  0  0  0  0  0
    2.2191   -3.0771   -1.9758 C   0  0  0  0  0  0  0  0  0  0  0  0
    1.5460   -3.5188   -2.7216 H   0  0  0  0  0  0  0  0  0  0  0  0
    2.7362    0.2804    3.0063 O   0  0  0  0  0  0  0  0  0  0  0  0
    2.2431   -1.0655    0.9350 N   0  0  0  0  0  2  0  0  0  0  0  0
    2.9794    1.4809    0.6539 C   0  0  0  0  0  0  0  0  0  0  0  0
    1.9826    4.6286   -1.9558 N   0  0  0  0  0  0  0  0  0  0  0  0
    1.6869   -2.2895   -0.9729 N   0  0  0  0  0  2  0  0  0  0  0  0
    2.3389    3.6166   -1.0724 C   0  0  0  0  0  0  0  0  0  0  0  0
    1.8975    2.3247    0.9564 C   0  0  0  0  0  0  0  0  0  0  0  0
    1.3132    2.1450    1.8703 H   0  0  0  0  0  0  0  0  0  0  0  0
    3.5782   -3.2103   -1.9339 C   0  0  0  0  0  0  0  0  0  0  0  0
    4.2223   -3.7659   -2.6246 H   0  0  0  0  0  0  0  0  0  0  0  0
    2.6171   -1.7996   -0.1026 C   0  0  2  0  0  3  0  0  0  0  0  0
    1.5795    3.3815    0.1014 C   0  0  0  0  0  0  0  0  0  0  0  0
    0.7254    4.0362    0.3347 H   0  0  0  0  0  0  0  0  0  0  0  0
    3.4369    2.7653   -1.3496 C   0  0  0  0  0  0  0  0  0  0  0  0
    4.0460    2.9436   -2.2501 H   0  0  0  0  0  0  0  0  0  0  0  0
    3.7552    1.7055   -0.4952 C   0  0  0  0  0  0  0  0  0  0  0  0
    4.6093    1.0451   -0.7045 H   0  0  0  0  0  0  0  0  0  0  0  0
    2.7201    4.9647   -2.5765 H   0  0  0  0  0  0  0  0  0  0  0  0
    1.4163    5.3824   -1.5649 H   0  0  0  0  0  0  0  0  0  0  0  0
  1  6  2  0  0  0  0
  2 16  1  0  0  0  0
  3  1  2  0  0  0  0
  4 14  2  0  0  0  0
  4 10  1  0  0  0  0
  5  4  1  0  0  0  0
  7  1  1  0  0  0  0
  8 12  1  0  0  0  0
  8  1  1  0  0  0  0
  9 24  1  0  0  0  0
  9 11  1  0  0  0  0
 10 16  1  0  0  0  0
 11 17  1  0  0  0  0
 12 13  1  0  0  0  0
 14  2  1  0  0  0  0
 15 14  1  0  0  0  0
 16  7  1  1  0  0  0
 17 18  1  0  0  0  0
 17 12  2  0  0  0  0
 19 11  2  0  0  0  0
 19 21  1  0  0  0  0
 20 19  1  0  0  0  0
 21  8  2  0  0  0  0
 22 21  1  0  0  0  0
 23  9  1  0  0  0  0
M  END
