6
 OpenBabel05122313063D

 19 19  0  0  0  0  0  0  0  0999 V2000
    2.7237    2.7046    1.4169 Cl  0  0  0  0  0  0  0  0  0  0  0  0
    2.8893    2.5750   -0.6883 S   0  0  0  0  0  0  0  0  0  0  0  0
   -3.0814    0.5662   -0.1388 O   0  0  0  0  0  0  0  0  0  0  0  0
    1.6470    1.6410   -1.2195 N   0  0  0  0  0  2  0  0  0  0  0  0
   -0.3600    0.4345   -0.4614 N   0  0  0  0  0  2  0  0  0  0  0  0
   -0.4085   -0.9111   -0.1032 N   0  0  0  0  0  2  0  0  0  0  0  0
    0.7427    0.9335   -0.7811 C   0  0  0  0  0  2  0  0  0  0  0  0
   -1.6100   -1.3787    0.1873 C   0  0  0  0  0  3  0  0  0  0  0  0
   -2.8895   -0.7525    0.1951 C   0  0  0  0  0  0  0  0  0  0  0  0
   -4.1234   -1.3230    0.5246 C   0  0  0  0  0  0  0  0  0  0  0  0
   -5.0939   -0.2992    0.3818 C   0  0  0  0  0  0  0  0  0  0  0  0
   -4.4088    0.8384   -0.0259 C   0  0  0  0  0  0  0  0  0  0  0  0
   -4.8391    2.2223   -0.3438 C   0  0  0  0  0  0  0  0  0  0  0  0
   -4.5765    2.4911   -1.3882 H   0  0  0  0  0  0  0  0  0  0  0  0
   -5.9321    2.3224   -0.2167 H   0  0  0  0  0  0  0  0  0  0  0  0
   -4.3354    2.9575    0.3178 H   0  0  0  0  0  0  0  0  0  0  0  0
   -6.1729   -0.3725    0.5540 H   0  0  0  0  0  0  0  0  0  0  0  0
   -4.2857   -2.3623    0.8320 H   0  0  0  0  0  0  0  0  0  0  0  0
   -1.6178   -2.4420    0.4732 H   0  0  0  0  0  0  0  0  0  0  0  0
  2  1  1  0  0  0  0
  3 12  1  0  0  0  0
  3  9  1  0  0  0  0
  4  7  1  0  0  0  0
  4  2  1  0  0  0  0
  5  6  1  0  0  0  0
  6  8  1  0  0  0  0
  7  5  1  0  0  0  0
  8  9  1  0  0  0  0
  8 19  1  0  0  0  0
  9 10  2  0  0  0  0
 10 18  1  0  0  0  0
 11 10  1  0  0  0  0
 11 17  1  0  0  0  0
 12 11  2  0  0  0  0
 13 15  1  0  0  0  0
 13 12  1  0  0  0  0
 13 16  1  0  0  0  0
 14 13  1  0  0  0  0
M  END
