3
 OpenBabel05122313063D

 58 62  0  0  1  0  0  0  0  0999 V2000
    0.4850   -0.9307    0.4929 P   0  0  0  0  0  0  0  0  0  0  0  0
   -1.7777    0.6988   -0.8271 P   0  0  0  0  0  0  0  0  0  0  0  0
    1.2596    1.7402    0.8842 N   0  0  0  0  0  2  0  0  0  0  0  0
   -0.3845   -2.1892   -0.5163 C   0  0  0  0  0  0  0  0  0  0  0  0
   -0.2568   -2.1408   -1.9187 C   0  0  0  0  0  0  0  0  0  0  0  0
    0.3787   -1.3893   -2.4072 H   0  0  0  0  0  0  0  0  0  0  0  0
   -0.9669   -3.0533   -2.7143 C   0  0  0  0  0  0  0  0  0  0  0  0
   -0.8543   -3.0064   -3.8077 H   0  0  0  0  0  0  0  0  0  0  0  0
   -1.8031   -4.0093   -2.1199 C   0  0  0  0  0  0  0  0  0  0  0  0
   -2.3585   -4.7236   -2.7469 H   0  0  0  0  0  0  0  0  0  0  0  0
   -1.9345   -4.0560   -0.7213 C   0  0  0  0  0  0  0  0  0  0  0  0
   -2.5970   -4.7987   -0.2520 H   0  0  0  0  0  0  0  0  0  0  0  0
   -1.2271   -3.1518    0.0808 C   0  0  0  0  0  0  0  0  0  0  0  0
   -1.3318   -3.1900    1.1753 H   0  0  0  0  0  0  0  0  0  0  0  0
    0.7061   -1.7642    2.1148 C   0  0  0  0  0  0  0  0  0  0  0  0
    1.4514   -2.9647    2.1294 C   0  0  0  0  0  0  0  0  0  0  0  0
    1.8047   -3.4015    1.1817 H   0  0  0  0  0  0  0  0  0  0  0  0
    1.7453   -3.6000    3.3420 C   0  0  0  0  0  0  0  0  0  0  0  0
    2.3235   -4.5363    3.3395 H   0  0  0  0  0  0  0  0  0  0  0  0
    1.3115   -3.0412    4.5565 C   0  0  0  0  0  0  0  0  0  0  0  0
    1.5472   -3.5392    5.5090 H   0  0  0  0  0  0  0  0  0  0  0  0
    0.5843   -1.8422    4.5501 C   0  0  0  0  0  0  0  0  0  0  0  0
    0.2484   -1.3946    5.4978 H   0  0  0  0  0  0  0  0  0  0  0  0
    0.2829   -1.2035    3.3360 C   0  0  0  0  0  0  0  0  0  0  0  0
   -0.2763   -0.2564    3.3537 H   0  0  0  0  0  0  0  0  0  0  0  0
   -2.5528    2.3318   -0.4133 C   0  0  0  0  0  0  0  0  0  0  0  0
   -3.8136    2.5026    0.1949 C   0  0  0  0  0  0  0  0  0  0  0  0
   -4.4235    1.6234    0.4503 H   0  0  0  0  0  0  0  0  0  0  0  0
   -4.3001    3.7908    0.4694 C   0  0  0  0  0  0  0  0  0  0  0  0
   -5.2875    3.9103    0.9415 H   0  0  0  0  0  0  0  0  0  0  0  0
   -3.5369    4.9228    0.1404 C   0  0  0  0  0  0  0  0  0  0  0  0
   -3.9224    5.9308    0.3564 H   0  0  0  0  0  0  0  0  0  0  0  0
   -2.2880    4.7637   -0.4813 C   0  0  0  0  0  0  0  0  0  0  0  0
   -1.6894    5.6452   -0.7569 H   0  0  0  0  0  0  0  0  0  0  0  0
   -1.8054    3.4784   -0.7654 C   0  0  0  0  0  0  0  0  0  0  0  0
   -0.8312    3.3587   -1.2668 H   0  0  0  0  0  0  0  0  0  0  0  0
   -3.1825   -0.4825   -0.5882 C   0  0  0  0  0  0  0  0  0  0  0  0
   -3.7066   -1.0390   -1.7735 C   0  0  0  0  0  0  0  0  0  0  0  0
   -3.2540   -0.7685   -2.7402 H   0  0  0  0  0  0  0  0  0  0  0  0
   -4.7765   -1.9455   -1.7272 C   0  0  0  0  0  0  0  0  0  0  0  0
   -5.1681   -2.3745   -2.6619 H   0  0  0  0  0  0  0  0  0  0  0  0
   -5.3313   -2.3168   -0.4938 C   0  0  0  0  0  0  0  0  0  0  0  0
   -6.1641   -3.0353   -0.4553 H   0  0  0  0  0  0  0  0  0  0  0  0
   -4.8155   -1.7733    0.6941 C   0  0  0  0  0  0  0  0  0  0  0  0
   -5.2445   -2.0617    1.6659 H   0  0  0  0  0  0  0  0  0  0  0  0
   -3.7503   -0.8627    0.6464 C   0  0  0  0  0  0  0  0  0  0  0  0
   -3.3657   -0.4509    1.5927 H   0  0  0  0  0  0  0  0  0  0  0  0
   -0.7921    0.4045    0.8075 C   0  0  0  0  0  0  0  0  0  0  0  0
   -1.5236    0.0964    1.5792 H   0  0  0  0  0  0  0  0  0  0  0  0
   -0.0451    1.6129    1.2732 C   0  0  1  0  0  3  0  0  0  0  0  0
   -0.6607    2.5796    2.0909 C   0  0  0  0  0  0  0  0  0  0  0  0
   -1.7163    2.4475    2.3651 H   0  0  0  0  0  0  0  0  0  0  0  0
    0.0616    3.6949    2.5234 C   0  0  0  0  0  0  0  0  0  0  0  0
   -0.4138    4.4562    3.1592 H   0  0  0  0  0  0  0  0  0  0  0  0
    1.4011    3.8137    2.1282 C   0  0  0  0  0  0  0  0  0  0  0  0
    2.0254    4.6601    2.4468 H   0  0  0  0  0  0  0  0  0  0  0  0
    1.9550    2.8206    1.3178 C   0  0  0  0  0  0  0  0  0  0  0  0
    3.0089    2.8658    1.0125 H   0  0  0  0  0  0  0  0  0  0  0  0
  1 48  1  0  0  0  0
  1 15  1  0  0  0  0
  2 37  1  0  0  0  0
  2 26  1  0  0  0  0
  2 48  1  0  0  0  0
  3 50  1  0  0  0  0
  3 57  1  0  0  0  0
  4 13  1  0  0  0  0
  4  1  1  0  0  0  0
  5  4  2  0  0  0  0
  6  5  1  0  0  0  0
  7  9  2  0  0  0  0
  7  5  1  0  0  0  0
  8  7  1  0  0  0  0
  9 11  1  0  0  0  0
 10  9  1  0  0  0  0
 11 12  1  0  0  0  0
 11 13  2  0  0  0  0
 13 14  1  0  0  0  0
 15 16  2  0  0  0  0
 15 24  1  0  0  0  0
 16 18  1  0  0  0  0
 17 16  1  0  0  0  0
 18 20  2  0  0  0  0
 19 18  1  0  0  0  0
 20 21  1  0  0  0  0
 22 20  1  0  0  0  0
 22 23  1  0  0  0  0
 24 25  1  0  0  0  0
 24 22  2  0  0  0  0
 26 27  1  0  0  0  0
 27 28  1  0  0  0  0
 27 29  2  0  0  0  0
 29 30  1  0  0  0  0
 31 32  1  0  0  0  0
 31 29  1  0  0  0  0
 33 31  2  0  0  0  0
 34 33  1  0  0  0  0
 35 33  1  0  0  0  0
 35 26  2  0  0  0  0
 36 35  1  0  0  0  0
 37 46  1  0  0  0  0
 38 40  1  0  0  0  0
 38 37  2  0  0  0  0
 39 38  1  0  0  0  0
 40 42  2  0  0  0  0
 41 40  1  0  0  0  0
 42 43  1  0  0  0  0
 42 44  1  0  0  0  0
 44 45  1  0  0  0  0
 46 44  2  0  0  0  0
 46 47  1  0  0  0  0
 48 49  1  0  0  0  0
 50 48  1  1  0  0  0
 50 51  1  0  0  0  0
 51 52  1  0  0  0  0
 51 53  2  0  0  0  0
 53 54  1  0  0  0  0
 55 56  1  0  0  0  0
 55 53  1  0  0  0  0
 57 55  2  0  0  0  0
 58 57  1  0  0  0  0
M  END
