2
 OpenBabel05122313063D

 49 52  0  0  1  0  0  0  0  0999 V2000
    1.1136    0.0363    0.0626 P   0  0  0  0  0  0  0  0  0  0  0  0
   -1.4929    0.2736    0.8988 N   0  0  0  0  0  2  0  0  0  0  0  0
   -1.8068    2.6144    1.0453 N   0  0  1  0  0  0  0  0  0  0  0  0
    0.2975    1.7367    0.0820 C   0  0  1  0  0  0  0  0  0  0  0  0
    0.9145    2.3987    0.7295 H   0  0  0  0  0  0  0  0  0  0  0  0
    0.1781    2.3819   -1.3211 C   0  0  0  0  0  0  0  0  0  0  0  0
    1.0939    2.1462   -1.8975 H   0  0  0  0  0  0  0  0  0  0  0  0
   -0.6564    1.8783   -1.8540 H   0  0  0  0  0  0  0  0  0  0  0  0
    0.0381    3.9083   -1.2865 C   0  0  0  0  0  0  0  0  0  0  0  0
    0.9547    4.3392   -0.8210 H   0  0  0  0  0  0  0  0  0  0  0  0
    0.0256    4.2835   -2.3314 H   0  0  0  0  0  0  0  0  0  0  0  0
   -1.1833    4.4569   -0.5429 C   0  0  0  0  0  0  0  0  0  0  0  0
   -2.1190    4.1723   -1.0716 H   0  0  0  0  0  0  0  0  0  0  0  0
   -1.1454    5.5672   -0.5475 H   0  0  0  0  0  0  0  0  0  0  0  0
   -1.2837    3.9742    0.9108 C   0  0  0  0  0  0  0  0  0  0  0  0
   -0.2951    4.0495    1.4119 H   0  0  0  0  0  0  0  0  0  0  0  0
   -1.9669    4.6290    1.4883 H   0  0  0  0  0  0  0  0  0  0  0  0
   -3.2653    2.5338    1.2376 C   0  0  0  0  0  0  0  0  0  0  0  0
   -3.7444    3.2656    0.5504 H   0  0  0  0  0  0  0  0  0  0  0  0
   -3.5009    2.8624    2.2760 H   0  0  0  0  0  0  0  0  0  0  0  0
   -3.7829    1.1313    0.9671 C   0  0  0  0  0  0  0  0  0  0  0  0
   -4.7920    1.0106    1.4086 H   0  0  0  0  0  0  0  0  0  0  0  0
   -3.8503    0.9248   -0.1242 H   0  0  0  0  0  0  0  0  0  0  0  0
   -2.7879    0.1366    1.5621 C   0  0  0  0  0  0  0  0  0  0  0  0
   -2.6572    0.3181    2.6560 H   0  0  0  0  0  0  0  0  0  0  0  0
   -3.1388   -0.8984    1.4439 H   0  0  0  0  0  0  0  0  0  0  0  0
   -1.0671    1.5100    0.7175 C   0  0  2  0  0  3  0  0  0  0  0  0
    1.6993    0.6700    2.7661 C   0  0  0  0  0  0  0  0  0  0  0  0
    0.8833    1.4060    2.7147 H   0  0  0  0  0  0  0  0  0  0  0  0
    2.3571    0.4628    3.9877 C   0  0  0  0  0  0  0  0  0  0  0  0
    2.0603    1.0499    4.8704 H   0  0  0  0  0  0  0  0  0  0  0  0
    3.3863   -0.4862    4.0880 C   0  0  0  0  0  0  0  0  0  0  0  0
    3.9017   -0.6453    5.0471 H   0  0  0  0  0  0  0  0  0  0  0  0
    2.0658   -0.0705    1.6205 C   0  0  0  0  0  0  0  0  0  0  0  0
    3.7513   -1.2348    2.9559 C   0  0  0  0  0  0  0  0  0  0  0  0
    4.5550   -1.9838    3.0249 H   0  0  0  0  0  0  0  0  0  0  0  0
    3.0942   -1.0354    1.7350 C   0  0  0  0  0  0  0  0  0  0  0  0
    3.3835   -1.6316    0.8557 H   0  0  0  0  0  0  0  0  0  0  0  0
    2.3503    0.0934   -1.2837 C   0  0  0  0  0  0  0  0  0  0  0  0
    3.6760    0.5396   -1.1077 C   0  0  0  0  0  0  0  0  0  0  0  0
    4.0269    0.8485   -0.1113 H   0  0  0  0  0  0  0  0  0  0  0  0
    4.5499    0.5840   -2.2047 C   0  0  0  0  0  0  0  0  0  0  0  0
    5.5862    0.9280   -2.0641 H   0  0  0  0  0  0  0  0  0  0  0  0
    4.1033    0.1940   -3.4781 C   0  0  0  0  0  0  0  0  0  0  0  0
    4.7921    0.2296   -4.3362 H   0  0  0  0  0  0  0  0  0  0  0  0
    2.7783   -0.2369   -3.6566 C   0  0  0  0  0  0  0  0  0  0  0  0
    2.4240   -0.5333   -4.6557 H   0  0  0  0  0  0  0  0  0  0  0  0
    1.8984   -0.2930   -2.5657 C   0  0  0  0  0  0  0  0  0  0  0  0
    0.8446   -0.6006   -2.6878 H   0  0  0  0  0  0  0  0  0  0  0  0
  1  4  1  0  0  0  0
  1 34  1  0  0  0  0
  2 24  1  0  0  0  0
  3 15  1  6  0  0  0
  3 18  1  0  0  0  0
  4 27  1  0  0  0  0
  4  5  1  1  0  0  0
  6  9  1  0  0  0  0
  6  4  1  0  0  0  0
  7  6  1  0  0  0  0
  8  6  1  0  0  0  0
  9 10  1  0  0  0  0
  9 12  1  0  0  0  0
 11  9  1  0  0  0  0
 12 15  1  0  0  0  0
 13 12  1  0  0  0  0
 14 12  1  0  0  0  0
 15 16  1  0  0  0  0
 15 17  1  0  0  0  0
 18 20  1  0  0  0  0
 19 18  1  0  0  0  0
 21 18  1  0  0  0  0
 21 22  1  0  0  0  0
 21 24  1  0  0  0  0
 23 21  1  0  0  0  0
 24 25  1  0  0  0  0
 26 24  1  0  0  0  0
 27  2  1  6  0  0  0
 27  3  1  0  0  0  0
 28 30  1  0  0  0  0
 29 28  1  0  0  0  0
 30 32  2  0  0  0  0
 30 31  1  0  0  0  0
 32 33  1  0  0  0  0
 34 37  1  0  0  0  0
 34 28  2  0  0  0  0
 35 36  1  0  0  0  0
 35 32  1  0  0  0  0
 37 35  2  0  0  0  0
 38 37  1  0  0  0  0
 39 40  1  0  0  0  0
 39  1  1  0  0  0  0
 40 41  1  0  0  0  0
 42 43  1  0  0  0  0
 42 40  2  0  0  0  0
 44 42  1  0  0  0  0
 45 44  1  0  0  0  0
 46 44  2  0  0  0  0
 46 48  1  0  0  0  0
 47 46  1  0  0  0  0
 48 39  2  0  0  0  0
 49 48  1  0  0  0  0
M  END
