2
 OpenBabel05122313063D

  7  6  0  0  0  0  0  0  0  0999 V2000
    3.6959   -2.0788   -0.1129 O   0  0  0  0  0  0  0  0  0  0  0  0
    3.2688   -0.9164   -0.0501 N   0  0  0  0  0  0  0  0  0  0  0  0
    4.1158    0.1561    0.0129 C   0  0  0  0  0  0  0  0  0  0  0  0
    5.5272   -0.0338    0.0080 C   0  0  0  0  0  0  0  0  0  0  0  0
    6.6949   -0.1710    0.0047 N   0  0  0  0  0  0  0  0  0  0  0  0
    3.5348    1.4532    0.0807 C   0  0  0  0  0  0  0  0  0  0  0  0
    3.0274    2.5154    0.1348 N   0  0  0  0  0  0  0  0  0  0  0  0
  1  2  1  0  0  0  0
  2  3  1  0  0  0  0
  3  6  1  0  0  0  0
  4  3  1  0  0  0  0
  5  4  3  0  0  0  0
  6  7  3  0  0  0  0
M  END
