1
 OpenBabel05122313063D

 37 40  0  0  0  0  0  0  0  0999 V2000
    1.8160   -0.0004    0.0001 N   0  0  0  0  0  2  0  0  0  0  0  0
   -0.1241   -2.1531   -1.3046 N   0  0  0  0  0  0  0  0  0  0  0  0
    1.1724   -2.3763   -1.6167 N   0  0  0  0  0  0  0  0  0  0  0  0
   -0.1236    2.1529    1.3044 N   0  0  0  0  0  0  0  0  0  0  0  0
    1.1729    2.3761    1.6166 N   0  0  0  0  0  0  0  0  0  0  0  0
    2.5374   -1.1862    0.0882 C   0  0  0  0  0  0  0  0  0  0  0  0
    2.1982   -2.3768   -0.6247 C   0  0  0  0  0  0  0  0  0  0  0  0
    2.9271   -3.5669   -0.4518 C   0  0  0  0  0  0  0  0  0  0  0  0
    2.6078   -4.4547   -1.0183 H   0  0  0  0  0  0  0  0  0  0  0  0
    4.0349   -3.6209    0.4015 C   0  0  0  0  0  0  0  0  0  0  0  0
    4.5956   -4.5582    0.5272 H   0  0  0  0  0  0  0  0  0  0  0  0
    4.4076   -2.4547    1.0944 C   0  0  0  0  0  0  0  0  0  0  0  0
    5.2723   -2.4690    1.7759 H   0  0  0  0  0  0  0  0  0  0  0  0
    3.6740   -1.2773    0.9444 C   0  0  0  0  0  0  0  0  0  0  0  0
    3.9667   -0.3732    1.4989 H   0  0  0  0  0  0  0  0  0  0  0  0
   -0.7940   -2.2857   -2.4611 C   0  0  0  0  0  0  0  0  0  0  0  0
   -1.8824   -2.1472   -2.4669 H   0  0  0  0  0  0  0  0  0  0  0  0
    0.0789   -2.5980   -3.5335 C   0  0  0  0  0  0  0  0  0  0  0  0
   -0.1723   -2.7592   -4.5869 H   0  0  0  0  0  0  0  0  0  0  0  0
    1.3429   -2.6526   -2.9512 C   0  0  0  0  0  0  0  0  0  0  0  0
    2.3393   -2.8465   -3.3624 H   0  0  0  0  0  0  0  0  0  0  0  0
   -0.7936    2.2862    2.4608 C   0  0  0  0  0  0  0  0  0  0  0  0
   -1.8821    2.1479    2.4664 H   0  0  0  0  0  0  0  0  0  0  0  0
    0.0792    2.5989    3.5331 C   0  0  0  0  0  0  0  0  0  0  0  0
   -0.1722    2.7606    4.5864 H   0  0  0  0  0  0  0  0  0  0  0  0
    1.3432    2.6530    2.9509 C   0  0  0  0  0  0  0  0  0  0  0  0
    2.3396    2.8469    3.3622 H   0  0  0  0  0  0  0  0  0  0  0  0
    2.5379    1.1851   -0.0878 C   0  0  0  0  0  0  0  0  0  0  0  0
    2.1989    2.3761    0.6248 C   0  0  0  0  0  0  0  0  0  0  0  0
    2.9282    3.5658    0.4517 C   0  0  0  0  0  0  0  0  0  0  0  0
    2.6090    4.4539    1.0179 H   0  0  0  0  0  0  0  0  0  0  0  0
    4.0363    3.6193   -0.4012 C   0  0  0  0  0  0  0  0  0  0  0  0
    4.5973    4.5564   -0.5269 H   0  0  0  0  0  0  0  0  0  0  0  0
    4.4088    2.4528   -1.0937 C   0  0  0  0  0  0  0  0  0  0  0  0
    5.2738    2.4667   -1.7749 H   0  0  0  0  0  0  0  0  0  0  0  0
    3.6748    1.2757   -0.9437 C   0  0  0  0  0  0  0  0  0  0  0  0
    3.9673    0.3714   -1.4980 H   0  0  0  0  0  0  0  0  0  0  0  0
  1  6  1  0  0  0  0
  3  2  1  0  0  0  0
  3  7  1  0  0  0  0
  4  5  1  0  0  0  0
  4 22  2  0  0  0  0
  5 26  1  0  0  0  0
  6 14  1  0  0  0  0
  7  8  1  0  0  0  0
  7  6  2  0  0  0  0
  8 10  2  0  0  0  0
  9  8  1  0  0  0  0
 10 11  1  0  0  0  0
 10 12  1  0  0  0  0
 12 13  1  0  0  0  0
 14 12  2  0  0  0  0
 14 15  1  0  0  0  0
 16  2  2  0  0  0  0
 17 16  1  0  0  0  0
 18 20  2  0  0  0  0
 18 16  1  0  0  0  0
 19 18  1  0  0  0  0
 20  3  1  0  0  0  0
 21 20  1  0  0  0  0
 22 23  1  0  0  0  0
 22 24  1  0  0  0  0
 24 25  1  0  0  0  0
 26 27  1  0  0  0  0
 26 24  2  0  0  0  0
 28  1  1  0  0  0  0
 28 29  1  0  0  0  0
 29  5  1  0  0  0  0
 30 29  2  0  0  0  0
 30 31  1  0  0  0  0
 32 30  1  0  0  0  0
 33 32  1  0  0  0  0
 34 36  1  0  0  0  0
 34 32  2  0  0  0  0
 35 34  1  0  0  0  0
 36 28  2  0  0  0  0
 37 36  1  0  0  0  0
M  END
