53
 OpenBabel05122313063D

 53 56  0  0  1  0  0  0  0  0999 V2000
   -1.0047   -0.5794    0.1265 P   0  0  0  0  0  0  0  0  0  0  0  0
   -1.2652   -1.5845    1.6484 C   0  0  0  0  0  0  0  0  0  0  0  0
   -0.2278   -1.6806    2.5988 C   0  0  0  0  0  0  0  0  0  0  0  0
    0.7384   -1.1971    2.3763 H   0  0  0  0  0  0  0  0  0  0  0  0
   -0.4159   -2.4096    3.7820 C   0  0  0  0  0  0  0  0  0  0  0  0
    0.4000   -2.4837    4.5166 H   0  0  0  0  0  0  0  0  0  0  0  0
   -1.6408   -3.0532    4.0205 C   0  0  0  0  0  0  0  0  0  0  0  0
   -1.7888   -3.6300    4.9457 H   0  0  0  0  0  0  0  0  0  0  0  0
   -2.6737   -2.9697    3.0722 C   0  0  0  0  0  0  0  0  0  0  0  0
   -3.6308   -3.4815    3.2531 H   0  0  0  0  0  0  0  0  0  0  0  0
   -2.4904   -2.2408    1.8879 C   0  0  0  0  0  0  0  0  0  0  0  0
   -3.3016   -2.1868    1.1466 H   0  0  0  0  0  0  0  0  0  0  0  0
   -2.0762   -1.4366   -1.1071 C   0  0  0  0  0  0  0  0  0  0  0  0
   -1.6325   -2.6136   -1.7472 C   0  0  0  0  0  0  0  0  0  0  0  0
   -0.6305   -3.0157   -1.5470 H   0  0  0  0  0  0  0  0  0  0  0  0
   -2.4762   -3.3006   -2.6316 C   0  0  0  0  0  0  0  0  0  0  0  0
   -2.1158   -4.2152   -3.1257 H   0  0  0  0  0  0  0  0  0  0  0  0
   -3.7749   -2.8292   -2.8804 C   0  0  0  0  0  0  0  0  0  0  0  0
   -4.4349   -3.3697   -3.5751 H   0  0  0  0  0  0  0  0  0  0  0  0
   -4.2313   -1.6724   -2.2310 C   0  0  0  0  0  0  0  0  0  0  0  0
   -5.2532   -1.3048   -2.4086 H   0  0  0  0  0  0  0  0  0  0  0  0
   -3.3899   -0.9789   -1.3470 C   0  0  0  0  0  0  0  0  0  0  0  0
   -3.7614   -0.0793   -0.8351 H   0  0  0  0  0  0  0  0  0  0  0  0
   -1.8969    1.0065    0.4532 C   0  0  0  0  0  0  0  0  0  0  0  0
   -1.9442    2.0225   -0.5373 C   0  0  0  0  0  0  0  0  0  0  0  0
   -2.5609    3.2479   -0.2197 C   0  0  0  0  0  0  0  0  0  0  0  0
   -2.5793    4.0431   -0.9805 H   0  0  0  0  0  0  0  0  0  0  0  0
   -3.1275    3.4742    1.0409 C   0  0  0  0  0  0  0  0  0  0  0  0
   -3.6077    4.4390    1.2630 H   0  0  0  0  0  0  0  0  0  0  0  0
   -3.0824    2.4656    2.0150 C   0  0  0  0  0  0  0  0  0  0  0  0
   -3.5271    2.6293    3.0079 H   0  0  0  0  0  0  0  0  0  0  0  0
   -2.4679    1.2404    1.7224 C   0  0  0  0  0  0  0  0  0  0  0  0
   -2.4308    0.4550    2.4907 H   0  0  0  0  0  0  0  0  0  0  0  0
   -1.3366    1.8626   -1.9300 C   0  0  1  0  0  0  0  0  0  0  0  0
   -0.8231    0.8698   -1.9879 H   0  0  0  0  0  0  0  0  0  0  0  0
   -2.3649    1.9513   -3.0513 C   0  0  0  0  0  0  0  0  0  0  0  0
   -1.8604    1.8349   -4.0295 H   0  0  0  0  0  0  0  0  0  0  0  0
   -2.8764    2.9335   -3.0380 H   0  0  0  0  0  0  0  0  0  0  0  0
   -3.1270    1.1569   -2.9469 H   0  0  0  0  0  0  0  0  0  0  0  0
   -0.3568    2.8795   -2.1890 O   0  0  0  0  0  0  0  0  0  0  0  0
    0.9070    2.6282   -1.6190 C   0  0  0  0  0  0  0  0  0  0  0  0
    1.6133    3.3304   -2.1077 H   0  0  0  0  0  0  0  0  0  0  0  0
    1.2381    1.5768   -1.8355 H   0  0  0  0  0  0  0  0  0  0  0  0
    0.9574    2.8278   -0.1144 C   0  0  1  0  0  3  0  0  0  0  0  0
    0.7986    4.1048    0.4455 C   0  0  0  0  0  0  0  0  0  0  0  0
    0.6653    4.9625   -0.2293 H   0  0  0  0  0  0  0  0  0  0  0  0
    0.7948    4.2655    1.8340 C   0  0  0  0  0  0  0  0  0  0  0  0
    0.6680    5.2609    2.2844 H   0  0  0  0  0  0  0  0  0  0  0  0
    0.9578    3.1285    2.6396 C   0  0  0  0  0  0  0  0  0  0  0  0
    0.9603    3.1947    3.7364 H   0  0  0  0  0  0  0  0  0  0  0  0
    1.1138    1.8852    2.0268 C   0  0  0  0  0  0  0  0  0  0  0  0
    1.2280    0.9666    2.6190 H   0  0  0  0  0  0  0  0  0  0  0  0
    1.1121    1.7319    0.6783 N   0  0  0  0  0  2  0  0  0  0  0  0
  1 24  1  0  0  0  0
  1  2  1  0  0  0  0
  2 11  2  0  0  0  0
  2  3  1  0  0  0  0
  3  5  2  0  0  0  0
  4  3  1  0  0  0  0
  5  7  1  0  0  0  0
  5  6  1  0  0  0  0
  7  8  1  0  0  0  0
  9 10  1  0  0  0  0
  9  7  2  0  0  0  0
 11  9  1  0  0  0  0
 12 11  1  0  0  0  0
 13  1  1  0  0  0  0
 14 15  1  0  0  0  0
 14 13  2  0  0  0  0
 16 14  1  0  0  0  0
 17 16  1  0  0  0  0
 18 16  2  0  0  0  0
 18 20  1  0  0  0  0
 19 18  1  0  0  0  0
 20 22  2  0  0  0  0
 21 20  1  0  0  0  0
 22 13  1  0  0  0  0
 22 23  1  0  0  0  0
 24 32  1  0  0  0  0
 25 26  1  0  0  0  0
 25 24  2  0  0  0  0
 26 28  2  0  0  0  0
 27 26  1  0  0  0  0
 28 29  1  0  0  0  0
 28 30  1  0  0  0  0
 30 31  1  0  0  0  0
 32 30  2  0  0  0  0
 32 33  1  0  0  0  0
 34 35  1  6  0  0  0
 34 25  1  0  0  0  0
 36 38  1  0  0  0  0
 36 39  1  0  0  0  0
 36 34  1  0  0  0  0
 37 36  1  0  0  0  0
 40 34  1  0  0  0  0
 40 41  1  0  0  0  0
 42 41  1  0  0  0  0
 43 41  1  0  0  0  0
 44 41  1  1  0  0  0
 44 45  1  0  0  0  0
 44 53  1  0  0  0  0
 45 47  2  0  0  0  0
 46 45  1  0  0  0  0
 47 48  1  0  0  0  0
 47 49  1  0  0  0  0
 49 50  1  0  0  0  0
 51 52  1  0  0  0  0
 51 49  2  0  0  0  0
 53 51  1  0  0  0  0
M  END
