1
 OpenBabel05122313063D

  8  7  0  0  0  0  0  0  0  0999 V2000
    1.0152   -1.9365    1.3020 N   0  0  0  0  0  2  0  0  0  0  0  0
   -0.3130   -2.0995    1.7738 C   0  0  0  0  0  3  0  0  0  0  0  0
   -0.5356   -1.7025    2.7902 H   0  0  0  0  0  0  0  0  0  0  0  0
   -0.7753   -3.0978    1.6003 H   0  0  0  0  0  0  0  0  0  0  0  0
    2.1901   -2.5955    1.8034 C   0  0  0  0  0  0  0  0  0  0  0  0
    3.0888   -2.3279    1.2150 H   0  0  0  0  0  0  0  0  0  0  0  0
    2.0592   -3.7027    1.7706 H   0  0  0  0  0  0  0  0  0  0  0  0
    2.3783   -2.3241    2.8682 H   0  0  0  0  0  0  0  0  0  0  0  0
  1  2  1  0  0  0  0
  1  5  1  0  0  0  0
  2  3  1  0  0  0  0
  4  2  1  0  0  0  0
  5  8  1  0  0  0  0
  6  5  1  0  0  0  0
  7  5  1  0  0  0  0
M  END
