1
 OpenBabel05122313063D

 36 38  0  0  1  0  0  0  0  0999 V2000
   -2.4836    0.5175   -0.0749 N   0  0  0  0  0  2  0  0  0  0  0  0
    0.1197    1.2630    0.6443 N   0  0  0  0  0  0  0  0  0  0  0  0
   -3.7826    0.1516   -0.1116 C   0  0  0  0  0  3  0  0  0  0  0  0
   -4.8136    1.0927   -0.1108 C   0  0  0  0  0  0  0  0  0  0  0  0
   -4.4774    2.4525   -0.0521 C   0  0  0  0  0  0  0  0  0  0  0  0
   -3.1299    2.8158    0.0100 C   0  0  0  0  0  0  0  0  0  0  0  0
   -2.1244    1.8281   -0.0029 C   0  0  0  0  0  0  0  0  0  0  0  0
   -0.6821    2.1827    0.0801 C   0  0  0  0  0  0  0  0  0  0  0  0
   -0.1903    3.3976   -0.4323 C   0  0  0  0  0  0  0  0  0  0  0  0
    1.1916    3.6277   -0.3599 C   0  0  0  0  0  0  0  0  0  0  0  0
    2.0224    2.6475    0.1915 C   0  0  0  0  0  0  0  0  0  0  0  0
    1.4451    1.4548    0.6832 C   0  0  0  0  0  0  0  0  0  0  0  0
    2.2822    0.3384    1.2909 C   0  0  2  0  0  0  0  0  0  0  0  0
    2.4568    0.5769    2.7981 C   0  0  0  0  0  0  0  0  0  0  0  0
    3.5692    0.1415    0.5012 C   0  0  0  0  0  0  0  0  0  0  0  0
    4.8450    0.4141    1.0287 C   0  0  0  0  0  0  0  0  0  0  0  0
    5.9984    0.2347    0.2452 C   0  0  0  0  0  0  0  0  0  0  0  0
    5.8896   -0.2202   -1.0764 C   0  0  0  0  0  0  0  0  0  0  0  0
    4.6196   -0.4971   -1.6113 C   0  0  0  0  0  0  0  0  0  0  0  0
    3.4701   -0.3182   -0.8314 C   0  0  0  0  0  0  0  0  0  0  0  0
   -3.9796   -0.9294   -0.1296 H   0  0  0  0  0  0  0  0  0  0  0  0
   -5.8576    0.7530   -0.1486 H   0  0  0  0  0  0  0  0  0  0  0  0
   -5.2608    3.2247   -0.0374 H   0  0  0  0  0  0  0  0  0  0  0  0
   -2.8369    3.8701    0.1016 H   0  0  0  0  0  0  0  0  0  0  0  0
   -0.8549    4.1250   -0.9190 H   0  0  0  0  0  0  0  0  0  0  0  0
    1.6184    4.5589   -0.7615 H   0  0  0  0  0  0  0  0  0  0  0  0
    3.1140    2.7766    0.2242 H   0  0  0  0  0  0  0  0  0  0  0  0
    1.6784   -0.5854    1.1633 H   0  0  0  0  0  0  0  0  0  0  0  0
    4.9496    0.7651    2.0658 H   0  0  0  0  0  0  0  0  0  0  0  0
    6.9887    0.4492    0.6760 H   0  0  0  0  0  0  0  0  0  0  0  0
    6.7929   -0.3639   -1.6889 H   0  0  0  0  0  0  0  0  0  0  0  0
    4.5231   -0.8618   -2.6454 H   0  0  0  0  0  0  0  0  0  0  0  0
    2.4772   -0.5383   -1.2558 H   0  0  0  0  0  0  0  0  0  0  0  0
    3.0258   -0.2523    3.2630 H   0  0  0  0  0  0  0  0  0  0  0  0
    2.9910    1.5265    3.0076 H   0  0  0  0  0  0  0  0  0  0  0  0
    1.4646    0.6299    3.2867 H   0  0  0  0  0  0  0  0  0  0  0  0
  1  7  1  0  0  0  0
  2 12  1  0  0  0  0
  3  4  1  0  0  0  0
  3  1  1  0  0  0  0
  4  5  2  0  0  0  0
  5 23  1  0  0  0  0
  5  6  1  0  0  0  0
  6 24  1  0  0  0  0
  7  6  2  0  0  0  0
  7  8  1  0  0  0  0
  8  2  2  0  0  0  0
  9 10  2  0  0  0  0
  9  8  1  0  0  0  0
 10 11  1  0  0  0  0
 11 27  1  0  0  0  0
 11 12  2  0  0  0  0
 12 13  1  0  0  0  0
 13 28  1  6  0  0  0
 13 14  1  0  0  0  0
 14 35  1  0  0  0  0
 14 34  1  0  0  0  0
 14 36  1  0  0  0  0
 15 16  1  0  0  0  0
 15 13  1  0  0  0  0
 16 29  1  0  0  0  0
 17 30  1  0  0  0  0
 17 16  2  0  0  0  0
 18 17  1  0  0  0  0
 19 18  2  0  0  0  0
 19 20  1  0  0  0  0
 20 15  2  0  0  0  0
 21  3  1  0  0  0  0
 22  4  1  0  0  0  0
 25  9  1  0  0  0  0
 26 10  1  0  0  0  0
 31 18  1  0  0  0  0
 32 19  1  0  0  0  0
 33 20  1  0  0  0  0
M  END
