9
 OpenBabel05122313063D

 38 40  0  0  1  0  0  0  0  0999 V2000
   -2.1175    0.5990    1.9963 O   0  0  0  0  0  0  0  0  0  0  0  0
   -3.4353    2.3340    2.1871 O   0  0  0  0  0  0  0  0  0  0  0  0
   -0.6617    6.3200    1.2837 O   0  0  0  0  0  0  0  0  0  0  0  0
    0.8927    6.2110   -0.2588 O   0  0  0  0  0  0  0  0  0  0  0  0
    1.4237    2.4183   -2.9369 O   0  0  0  0  0  0  0  0  0  0  0  0
    0.3760    0.5388   -2.5919 O   0  0  0  0  0  0  0  0  0  0  0  0
   -6.7396   -1.8333   -0.1734 O   0  0  0  0  0  0  0  0  0  0  0  0
   -1.6588    0.4455   -0.8759 N   0  0  0  0  0  2  0  0  0  0  0  0
   -1.9615   -2.2536   -0.2629 N   0  0  0  0  0  2  0  0  0  0  0  0
   -2.5008    1.7264    1.6632 N   0  0  0  0  0  0  0  0  0  0  0  0
   -0.0591    5.7354    0.3751 N   0  0  0  0  0  0  0  0  0  0  0  0
    0.5789    1.7376   -2.3405 N   0  0  0  0  0  0  0  0  0  0  0  0
   -1.2352    1.6551   -0.5359 C   0  0  0  0  0  0  0  0  0  0  0  0
   -1.7432    2.4130    0.6067 C   0  0  0  0  0  0  0  0  0  0  0  0
   -1.4316    3.7372    0.8614 C   0  0  0  0  0  0  0  0  0  0  0  0
   -1.8604    4.2579    1.7275 H   0  0  0  0  0  0  0  0  0  0  0  0
   -0.4833    4.3812    0.0466 C   0  0  0  0  0  0  0  0  0  0  0  0
    0.1480    3.6905   -0.9912 C   0  0  0  0  0  0  0  0  0  0  0  0
    0.9286    4.1796   -1.5848 H   0  0  0  0  0  0  0  0  0  0  0  0
   -0.1871    2.3667   -1.2671 C   0  0  0  0  0  0  0  0  0  0  0  0
   -2.9088   -0.0413   -0.6083 C   0  0  0  0  0  0  0  0  0  0  0  0
   -4.0880    0.7242   -0.6955 C   0  0  0  0  0  0  0  0  0  0  0  0
   -4.0003    1.8006   -0.9022 H   0  0  0  0  0  0  0  0  0  0  0  0
   -5.3765    0.1668   -0.5576 C   0  0  0  0  0  0  0  0  0  0  0  0
   -6.2454    0.8325   -0.6426 H   0  0  0  0  0  0  0  0  0  0  0  0
   -5.5444   -1.1978   -0.3244 C   0  0  0  0  0  0  0  0  0  0  0  0
   -4.3852   -2.0360   -0.2334 C   0  0  0  0  0  0  0  0  0  0  0  0
   -4.4872   -3.4321   -0.0098 C   0  0  0  0  0  0  0  0  0  0  0  0
   -5.4876   -3.8750    0.0931 H   0  0  0  0  0  0  0  0  0  0  0  0
   -3.3377   -4.2049    0.0720 C   0  0  0  0  0  0  0  0  0  0  0  0
   -3.3828   -5.2899    0.2392 H   0  0  0  0  0  0  0  0  0  0  0  0
   -2.0845   -3.5717   -0.0594 C   0  0  0  0  0  0  0  0  0  0  0  0
   -1.1488   -4.1463    0.0027 H   0  0  0  0  0  0  0  0  0  0  0  0
   -3.0724   -1.4575   -0.3670 C   0  0  2  0  0  3  0  0  0  0  0  0
   -7.9195   -1.0534   -0.2241 C   0  0  0  0  0  0  0  0  0  0  0  0
   -8.7633   -1.7498   -0.0658 H   0  0  0  0  0  0  0  0  0  0  0  0
   -8.0413   -0.5541   -1.2116 H   0  0  0  0  0  0  0  0  0  0  0  0
   -7.9334   -0.2765    0.5727 H   0  0  0  0  0  0  0  0  0  0  0  0
  4 11  2  0  0  0  0
  5 12  2  0  0  0  0
  6 12  2  0  0  0  0
  8 21  1  0  0  0  0
  8 13  1  0  0  0  0
  9 32  1  0  0  0  0
 10  1  2  0  0  0  0
 10  2  2  0  0  0  0
 11  3  2  0  0  0  0
 12 20  1  0  0  0  0
 13 14  1  0  0  0  0
 14 15  2  0  0  0  0
 14 10  1  0  0  0  0
 15 16  1  0  0  0  0
 17 11  1  0  0  0  0
 17 15  1  0  0  0  0
 18 17  2  0  0  0  0
 19 18  1  0  0  0  0
 20 18  1  0  0  0  0
 20 13  2  0  0  0  0
 22 21  2  0  0  0  0
 22 24  1  0  0  0  0
 23 22  1  0  0  0  0
 24 26  2  0  0  0  0
 25 24  1  0  0  0  0
 26 27  1  0  0  0  0
 26  7  1  0  0  0  0
 27 28  2  0  0  0  0
 28 30  1  0  0  0  0
 28 29  1  0  0  0  0
 30 31  1  0  0  0  0
 32 33  1  0  0  0  0
 32 30  2  0  0  0  0
 34 21  1  1  0  0  0
 34  9  1  0  0  0  0
 34 27  1  0  0  0  0
 35  7  1  0  0  0  0
 35 36  1  0  0  0  0
 35 38  1  0  0  0  0
 37 35  1  0  0  0  0
M  END
