1
 OpenBabel05122313063D

 22 22  0  0  0  0  0  0  0  0999 V2000
   -0.2118   -0.3368   -1.8954 N   0  0  0  0  0  0  0  0  0  0  0  0
    0.1254    0.5513   -2.3186 H   0  0  0  0  0  0  0  0  0  0  0  0
    0.4180   -1.1320   -2.0862 H   0  0  0  0  0  0  0  0  0  0  0  0
   -1.5850   -0.6760   -2.3087 C   0  0  0  0  0  0  0  0  0  0  0  0
   -1.7560   -1.7356   -2.0306 H   0  0  0  0  0  0  0  0  0  0  0  0
   -1.6981   -0.6036   -3.4130 H   0  0  0  0  0  0  0  0  0  0  0  0
   -2.6262    0.2217   -1.6346 C   0  0  0  0  0  0  0  0  0  0  0  0
   -2.3769    1.2816   -1.8503 H   0  0  0  0  0  0  0  0  0  0  0  0
   -3.6194    0.0206   -2.1109 H   0  0  0  0  0  0  0  0  0  0  0  0
   -2.6261    0.0435   -0.1850 N   0  0  0  0  0  0  0  0  0  0  0  0
   -3.3426   -1.1515    0.2853 C   0  0  0  0  0  0  0  0  0  0  0  0
   -2.8620   -1.4985    1.2244 H   0  0  0  0  0  0  0  0  0  0  0  0
   -3.2420   -1.9827   -0.4393 H   0  0  0  0  0  0  0  0  0  0  0  0
   -4.8174   -0.7175    0.5378 C   0  0  0  0  0  0  0  0  0  0  0  0
   -5.4864   -1.0577   -0.2773 H   0  0  0  0  0  0  0  0  0  0  0  0
   -5.2060   -1.1633    1.4748 H   0  0  0  0  0  0  0  0  0  0  0  0
   -4.7552    0.8319    0.6031 C   0  0  0  0  0  0  0  0  0  0  0  0
   -5.2494    1.2849   -0.2806 H   0  0  0  0  0  0  0  0  0  0  0  0
   -5.2538    1.2496    1.5001 H   0  0  0  0  0  0  0  0  0  0  0  0
   -3.2392    1.1329    0.5792 C   0  0  0  0  0  0  0  0  0  0  0  0
   -2.9595    2.1182    0.1611 H   0  0  0  0  0  0  0  0  0  0  0  0
   -2.8337    1.0971    1.6160 H   0  0  0  0  0  0  0  0  0  0  0  0
  2  1  1  0  0  0  0
  3  1  1  0  0  0  0
  4  5  1  0  0  0  0
  4  1  1  0  0  0  0
  4  7  1  0  0  0  0
  6  4  1  0  0  0  0
  7 10  1  0  0  0  0
  8  7  1  0  0  0  0
  9  7  1  0  0  0  0
 10 11  1  0  0  0  0
 10 20  1  0  0  0  0
 11 14  1  0  0  0  0
 11 12  1  0  0  0  0
 13 11  1  0  0  0  0
 14 17  1  0  0  0  0
 14 16  1  0  0  0  0
 15 14  1  0  0  0  0
 17 19  1  0  0  0  0
 18 17  1  0  0  0  0
 20 17  1  0  0  0  0
 20 22  1  0  0  0  0
 21 20  1  0  0  0  0
M  END
