3
 OpenBabel05122313063D

 20 21  0  0  0  0  0  0  0  0999 V2000
   -2.5858   -0.6189   -0.2588 C   0  0  0  0  0  3  0  0  0  0  0  0
   -2.6519    0.4680   -0.3672 H   0  0  0  0  0  0  0  0  0  0  0  0
   -1.4775   -1.3471   -0.1145 N   0  0  0  0  0  2  0  0  0  0  0  0
   -5.0665   -1.2253   -0.3758 C   0  0  0  0  0  0  0  0  0  0  0  0
   -5.5671   -1.9338    0.3120 H   0  0  0  0  0  0  0  0  0  0  0  0
   -5.3556   -1.4954   -1.4114 H   0  0  0  0  0  0  0  0  0  0  0  0
   -1.8568   -2.6512   -0.0008 N   0  0  0  0  0  0  0  0  0  0  0  0
   -5.4089    0.2112   -0.0672 C   0  0  0  0  0  0  0  0  0  0  0  0
   -3.1447   -2.7354   -0.0709 N   0  0  0  0  0  0  0  0  0  0  0  0
   -5.5881    1.1408   -1.1097 C   0  0  0  0  0  0  0  0  0  0  0  0
   -5.5164    0.8065   -2.1570 H   0  0  0  0  0  0  0  0  0  0  0  0
   -3.6236   -1.4786   -0.2319 N   0  0  0  0  0  0  0  0  0  0  0  0
   -5.8610    2.4866   -0.8206 C   0  0  0  0  0  0  0  0  0  0  0  0
   -6.0024    3.2051   -1.6417 H   0  0  0  0  0  0  0  0  0  0  0  0
   -5.9539    2.9125    0.5133 C   0  0  0  0  0  0  0  0  0  0  0  0
   -6.1672    3.9677    0.7407 H   0  0  0  0  0  0  0  0  0  0  0  0
   -5.7779    1.9904    1.5584 C   0  0  0  0  0  0  0  0  0  0  0  0
   -5.8554    2.3209    2.6049 H   0  0  0  0  0  0  0  0  0  0  0  0
   -5.5072    0.6458    1.2703 C   0  0  0  0  0  0  0  0  0  0  0  0
   -5.3707   -0.0759    2.0912 H   0  0  0  0  0  0  0  0  0  0  0  0
  1 12  1  0  0  0  0
  1  3  1  0  0  0  0
  2  1  1  0  0  0  0
  3  7  1  0  0  0  0
  4 12  1  0  0  0  0
  4  8  1  0  0  0  0
  4  5  1  0  0  0  0
  6  4  1  0  0  0  0
  8 19  1  0  0  0  0
  9  7  2  0  0  0  0
 10 13  1  0  0  0  0
 10  8  2  0  0  0  0
 11 10  1  0  0  0  0
 12  9  1  0  0  0  0
 13 15  2  0  0  0  0
 14 13  1  0  0  0  0
 15 16  1  0  0  0  0
 15 17  1  0  0  0  0
 17 18  1  0  0  0  0
 19 17  2  0  0  0  0
 19 20  1  0  0  0  0
M  END
