11
 OpenBabel05122313063D

 26 28  0  0  0  0  0  0  0  0999 V2000
    0.9197    1.0490   -1.3463 N   0  0  0  0  0  0  0  0  0  0  0  0
    2.1579    1.5500   -1.1090 N   0  0  0  0  0  0  0  0  0  0  0  0
    0.5025    1.6549   -2.4718 C   0  0  0  0  0  0  0  0  0  0  0  0
    1.4810    2.5546   -2.9568 C   0  0  0  0  0  0  0  0  0  0  0  0
    2.5384    2.4577   -2.0627 C   0  0  0  0  0  0  0  0  0  0  0  0
    1.1134    0.7576    1.5580 N   0  0  0  0  0  0  0  0  0  0  0  0
    2.3156    1.3118    1.2650 N   0  0  0  0  0  0  0  0  0  0  0  0
    0.8468    1.1400    2.8188 C   0  0  0  0  0  0  0  0  0  0  0  0
    1.8859    1.9494    3.3359 C   0  0  0  0  0  0  0  0  0  0  0  0
    2.8211    2.0350    2.3137 C   0  0  0  0  0  0  0  0  0  0  0  0
    2.1735   -1.2672   -0.1915 N   0  0  0  0  0  2  0  0  0  0  0  0
    3.2048   -0.3806   -0.1682 N   0  0  0  0  0  0  0  0  0  0  0  0
    2.7315   -2.4781   -0.3492 C   0  0  0  0  0  3  0  0  0  0  0  0
    4.1400   -2.3676   -0.4279 C   0  0  0  0  0  0  0  0  0  0  0  0
    4.4143   -1.0131   -0.3089 C   0  0  0  0  0  0  0  0  0  0  0  0
    2.9462    1.0310   -0.0091 C   0  0  0  0  0  0  0  0  0  0  0  0
   -0.4723    1.3933   -2.8960 H   0  0  0  0  0  0  0  0  0  0  0  0
    1.4256    3.1833   -3.8511 H   0  0  0  0  0  0  0  0  0  0  0  0
    3.5168    2.9510   -2.0300 H   0  0  0  0  0  0  0  0  0  0  0  0
   -0.0667    0.7894    3.3107 H   0  0  0  0  0  0  0  0  0  0  0  0
    1.9494    2.4004    4.3311 H   0  0  0  0  0  0  0  0  0  0  0  0
    3.7914    2.5410    2.2498 H   0  0  0  0  0  0  0  0  0  0  0  0
    2.0945   -3.3661   -0.3983 H   0  0  0  0  0  0  0  0  0  0  0  0
    4.8622   -3.1798   -0.5560 H   0  0  0  0  0  0  0  0  0  0  0  0
    5.3563   -0.4530   -0.3126 H   0  0  0  0  0  0  0  0  0  0  0  0
    3.9192    1.5530   -0.0214 H   0  0  0  0  0  0  0  0  0  0  0  0
  1  2  1  0  0  0  0
  2 16  1  0  0  0  0
  3  1  2  0  0  0  0
  4  3  1  0  0  0  0
  4  5  2  0  0  0  0
  5 19  1  0  0  0  0
  5  2  1  0  0  0  0
  6  8  2  0  0  0  0
  7  6  1  0  0  0  0
  7 10  1  0  0  0  0
  8 20  1  0  0  0  0
  8  9  1  0  0  0  0
  9 21  1  0  0  0  0
 10  9  2  0  0  0  0
 11 12  1  0  0  0  0
 12 16  1  0  0  0  0
 13 11  1  0  0  0  0
 14 13  1  0  0  0  0
 14 15  2  0  0  0  0
 15 12  1  0  0  0  0
 16  7  1  0  0  0  0
 17  3  1  0  0  0  0
 18  4  1  0  0  0  0
 22 10  1  0  0  0  0
 23 13  1  0  0  0  0
 24 14  1  0  0  0  0
 25 15  1  0  0  0  0
 26 16  1  0  0  0  0
M  END
