5
 OpenBabel05122313063D

 34 35  0  0  0  0  0  0  0  0999 V2000
    3.3579   -0.9349    0.9226 C   0  0  0  0  0  0  0  0  0  0  0  0
    3.8873   -0.6774    1.8521 H   0  0  0  0  0  0  0  0  0  0  0  0
    2.2862   -1.8339    0.9699 C   0  0  0  0  0  3  0  0  0  0  0  0
    1.9234   -2.2951    1.9061 H   0  0  0  0  0  0  0  0  0  0  0  0
    1.6386   -2.2236   -0.1438 N   0  0  0  0  0  2  0  0  0  0  0  0
    2.0422   -1.7733   -1.3495 C   0  0  0  0  0  0  0  0  0  0  0  0
    1.4852   -2.1838   -2.2103 H   0  0  0  0  0  0  0  0  0  0  0  0
    3.1062   -0.8782   -1.4814 C   0  0  0  0  0  0  0  0  0  0  0  0
    3.4463   -0.5264   -2.4659 H   0  0  0  0  0  0  0  0  0  0  0  0
    3.7684   -0.4265   -0.3248 C   0  0  0  0  0  0  0  0  0  0  0  0
    4.9237    0.5272   -0.5042 C   0  0  0  0  0  0  0  0  0  0  0  0
    5.5359    0.5963   -1.5647 O   0  0  0  0  0  0  0  0  0  0  0  0
    5.1970    1.3094    0.6023 N   0  0  0  0  0  0  0  0  0  0  0  0
    4.4958    1.3151    1.3440 H   0  0  0  0  0  0  0  0  0  0  0  0
    6.2285    2.2645    0.7025 C   0  0  0  0  0  0  0  0  0  0  0  0
    5.9148    3.5239    1.2772 C   0  0  0  0  0  0  0  0  0  0  0  0
    6.9223    4.5018    1.3446 C   0  0  0  0  0  0  0  0  0  0  0  0
    6.6824    5.4785    1.7930 H   0  0  0  0  0  0  0  0  0  0  0  0
    8.2043    4.2639    0.8297 C   0  0  0  0  0  0  0  0  0  0  0  0
    8.9716    5.0509    0.8722 H   0  0  0  0  0  0  0  0  0  0  0  0
    8.5043    3.0186    0.2676 C   0  0  0  0  0  0  0  0  0  0  0  0
    9.5075    2.8039   -0.1254 H   0  0  0  0  0  0  0  0  0  0  0  0
    7.5362    1.9970    0.2241 C   0  0  0  0  0  0  0  0  0  0  0  0
    4.5223    3.8068    1.7804 C   0  0  0  0  0  0  0  0  0  0  0  0
    4.2452    3.1547    2.6390 H   0  0  0  0  0  0  0  0  0  0  0  0
    3.7609    3.6422    0.9891 H   0  0  0  0  0  0  0  0  0  0  0  0
    4.4301    4.8521    2.1295 H   0  0  0  0  0  0  0  0  0  0  0  0
    7.9434    0.6176   -0.1942 C   0  0  0  0  0  0  0  0  0  0  0  0
    7.5257   -0.4154    0.2995 O   0  0  0  0  0  0  0  0  0  0  0  0
    8.8978    0.6529   -1.1537 O   0  0  0  0  0  0  0  0  0  0  0  0
    9.3507   -0.6312   -1.5989 C   0  0  0  0  0  0  0  0  0  0  0  0
    9.7965   -1.2072   -0.7629 H   0  0  0  0  0  0  0  0  0  0  0  0
   10.1051   -0.4355   -2.3812 H   0  0  0  0  0  0  0  0  0  0  0  0
    8.5042   -1.2154   -2.0116 H   0  0  0  0  0  0  0  0  0  0  0  0
  1  3  1  0  0  0  0
  1  2  1  0  0  0  0
  3  4  1  0  0  0  0
  5  3  1  0  0  0  0
  6  5  1  0  0  0  0
  7  6  1  0  0  0  0
  8  6  2  0  0  0  0
  8 10  1  0  0  0  0
  9  8  1  0  0  0  0
 10  1  2  0  0  0  0
 11 10  1  0  0  0  0
 11 13  1  0  0  0  0
 12 11  2  0  0  0  0
 13 15  1  0  0  0  0
 13 14  1  0  0  0  0
 15 16  1  0  0  0  0
 16 17  2  0  0  0  0
 16 24  1  0  0  0  0
 17 18  1  0  0  0  0
 19 20  1  0  0  0  0
 19 17  1  0  0  0  0
 21 19  2  0  0  0  0
 22 21  1  0  0  0  0
 23 21  1  0  0  0  0
 23 15  2  0  0  0  0
 24 27  1  0  0  0  0
 24 25  1  0  0  0  0
 26 24  1  0  0  0  0
 28 23  1  0  0  0  0
 28 29  2  0  0  0  0
 30 28  1  0  0  0  0
 31 30  1  0  0  0  0
 31 32  1  0  0  0  0
 33 31  1  0  0  0  0
 34 31  1  0  0  0  0
M  END
