1
 OpenBabel05122313063D

 23 23  0  0  0  0  0  0  0  0999 V2000
    0.3589    1.3399    0.8432 N   0  0  0  0  0  0  0  0  0  0  0  0
   -0.2210    2.3206   -0.0776 C   0  0  0  0  0  0  0  0  0  0  0  0
   -1.7085    1.9805   -0.3158 C   0  0  0  0  0  0  0  0  0  0  0  0
   -1.9405    0.5399    0.0022 N   0  3  0  0  0  0  0  0  0  0  0  0
   -3.2263   -0.0053   -0.5369 C   0  0  0  0  0  0  0  0  0  0  0  0
   -3.3332   -1.5092   -0.3284 C   0  0  0  0  0  0  0  0  0  0  0  0
   -4.1800   -1.9000   -0.9243 H   0  0  0  0  0  0  0  0  0  0  0  0
   -2.4050   -2.0100   -0.6711 H   0  0  0  0  0  0  0  0  0  0  0  0
   -3.5094   -1.7817    0.7295 H   0  0  0  0  0  0  0  0  0  0  0  0
   -3.2094    0.2323   -1.6192 H   0  0  0  0  0  0  0  0  0  0  0  0
   -4.0614    0.5570   -0.0687 H   0  0  0  0  0  0  0  0  0  0  0  0
   -1.7271    0.2647    1.4625 C   0  0  0  0  0  0  0  0  0  0  0  0
   -0.5036    1.0462    1.9822 C   0  0  0  0  0  0  0  0  0  0  0  0
    0.0493    0.3864    2.6782 H   0  0  0  0  0  0  0  0  0  0  0  0
   -0.8128    1.9682    2.5306 H   0  0  0  0  0  0  0  0  0  0  0  0
   -1.5191   -0.8195    1.5502 H   0  0  0  0  0  0  0  0  0  0  0  0
   -2.6579    0.5356    2.0011 H   0  0  0  0  0  0  0  0  0  0  0  0
   -1.1844    0.0246   -0.5922 H   0  0  0  0  0  0  0  0  0  0  0  0
   -1.9838    2.1420   -1.3743 H   0  0  0  0  0  0  0  0  0  0  0  0
   -2.3916    2.5773    0.3218 H   0  0  0  0  0  0  0  0  0  0  0  0
    0.3498    2.2612   -1.0250 H   0  0  0  0  0  0  0  0  0  0  0  0
   -0.1560    3.3634    0.3107 H   0  0  0  0  0  0  0  0  0  0  0  0
    1.3267    1.6024    1.0955 H   0  0  0  0  0  0  0  0  0  0  0  0
  1 23  1  0  0  0  0
  1 13  1  0  0  0  0
  2 22  1  0  0  0  0
  2  1  1  0  0  0  0
  3  2  1  0  0  0  0
  3  4  1  0  0  0  0
  3 20  1  0  0  0  0
  4 12  1  0  0  0  0
  5  6  1  0  0  0  0
  5 11  1  0  0  0  0
  5  4  1  0  0  0  0
  6  9  1  0  0  0  0
  7  6  1  0  0  0  0
  8  6  1  0  0  0  0
 10  5  1  0  0  0  0
 12 16  1  0  0  0  0
 12 13  1  0  0  0  0
 12 17  1  0  0  0  0
 13 15  1  0  0  0  0
 13 14  1  0  0  0  0
 18  4  1  0  0  0  0
 19  3  1  0  0  0  0
 21  2  1  0  0  0  0
M  CHG  1   4   1
M  END
