2
 OpenBabel05122313063D

 35 37  0  0  1  0  0  0  0  0999 V2000
    0.9769   -1.3385   -0.7783 P   0  0  1  0  0  0  0  0  0  0  0  0
   -1.7283   -0.8260   -0.1098 N   0  0  0  0  0  2  0  0  0  0  0  0
    0.8811   -1.6598   -2.5756 C   0  0  0  0  0  0  0  0  0  0  0  0
   -0.0823   -2.6409    0.0017 C   0  0  0  0  0  0  0  0  0  0  0  0
   -1.5092   -2.1587   -0.0496 C   0  0  0  0  0  0  0  0  0  0  0  0
   -2.5694   -3.0988   -0.0143 C   0  0  0  0  0  0  0  0  0  0  0  0
   -3.8795   -2.6573   -0.0247 C   0  0  0  0  0  0  0  0  0  0  0  0
   -4.1476   -1.2680   -0.1284 C   0  0  0  0  0  0  0  0  0  0  0  0
   -5.4778   -0.7592   -0.1797 C   0  0  0  0  0  0  0  0  0  0  0  0
   -5.7086    0.5978   -0.3320 C   0  0  0  0  0  0  0  0  0  0  0  0
   -4.6103    1.4875   -0.4581 C   0  0  0  0  0  0  0  0  0  0  0  0
   -3.3016    1.0278   -0.3970 C   0  0  0  0  0  0  0  0  0  0  0  0
   -3.0323   -0.3549   -0.2052 C   0  0  2  0  0  3  0  0  0  0  0  0
    2.7082   -1.6717   -0.3064 C   0  0  0  0  0  0  0  0  0  0  0  0
    3.7272   -1.0285   -1.0448 C   0  0  0  0  0  0  0  0  0  0  0  0
    5.0717   -1.1966   -0.6862 C   0  0  0  0  0  0  0  0  0  0  0  0
    5.4141   -2.0038    0.4111 C   0  0  0  0  0  0  0  0  0  0  0  0
    4.4073   -2.6464    1.1475 C   0  0  0  0  0  0  0  0  0  0  0  0
    3.0588   -2.4819    0.7939 C   0  0  0  0  0  0  0  0  0  0  0  0
    0.2365   -2.7342    1.0620 H   0  0  0  0  0  0  0  0  0  0  0  0
    0.0295   -3.6396   -0.4668 H   0  0  0  0  0  0  0  0  0  0  0  0
   -2.3295   -4.1698    0.0359 H   0  0  0  0  0  0  0  0  0  0  0  0
   -4.7167   -3.3697    0.0284 H   0  0  0  0  0  0  0  0  0  0  0  0
   -6.3146   -1.4699   -0.1060 H   0  0  0  0  0  0  0  0  0  0  0  0
   -6.7371    0.9847   -0.3757 H   0  0  0  0  0  0  0  0  0  0  0  0
   -4.7961    2.5592   -0.6238 H   0  0  0  0  0  0  0  0  0  0  0  0
   -2.4575    1.7084   -0.5558 H   0  0  0  0  0  0  0  0  0  0  0  0
    3.4728   -0.3869   -1.9018 H   0  0  0  0  0  0  0  0  0  0  0  0
    5.8574   -0.6949   -1.2703 H   0  0  0  0  0  0  0  0  0  0  0  0
    6.4699   -2.1361    0.6900 H   0  0  0  0  0  0  0  0  0  0  0  0
    4.6713   -3.2878    2.0014 H   0  0  0  0  0  0  0  0  0  0  0  0
    2.2877   -3.0059    1.3781 H   0  0  0  0  0  0  0  0  0  0  0  0
    1.3425   -2.6398   -2.8054 H   0  0  0  0  0  0  0  0  0  0  0  0
    1.3918   -0.8480   -3.1255 H   0  0  0  0  0  0  0  0  0  0  0  0
   -0.1831   -1.6359   -2.8765 H   0  0  0  0  0  0  0  0  0  0  0  0
  1  3  1  6  0  0  0
  1 14  1  0  0  0  0
  1  4  1  0  0  0  0
  2  5  1  0  0  0  0
  4 20  1  0  0  0  0
  5  6  2  0  0  0  0
  5  4  1  0  0  0  0
  6 22  1  0  0  0  0
  7  6  1  0  0  0  0
  7 23  1  0  0  0  0
  8  7  2  0  0  0  0
  9  8  1  0  0  0  0
  9 24  1  0  0  0  0
 10  9  2  0  0  0  0
 11 12  2  0  0  0  0
 11 10  1  0  0  0  0
 13 12  1  6  0  0  0
 13  8  1  0  0  0  0
 13  2  1  0  0  0  0
 14 19  1  0  0  0  0
 15 16  1  0  0  0  0
 15 14  2  0  0  0  0
 16 17  2  0  0  0  0
 17 30  1  0  0  0  0
 17 18  1  0  0  0  0
 18 31  1  0  0  0  0
 19 18  2  0  0  0  0
 19 32  1  0  0  0  0
 21  4  1  0  0  0  0
 25 10  1  0  0  0  0
 26 11  1  0  0  0  0
 27 12  1  0  0  0  0
 28 15  1  0  0  0  0
 29 16  1  0  0  0  0
 33  3  1  0  0  0  0
 34  3  1  0  0  0  0
 35  3  1  0  0  0  0
M  END
