2
 OpenBabel05122313063D

 48 51  0  0  1  0  0  0  0  0999 V2000
    0.4216    0.8321   -0.0283 P   0  0  0  0  0  0  0  0  0  0  0  0
    0.3627   -2.0106   -0.1684 N   0  0  0  0  0  2  0  0  0  0  0  0
    2.6752   -2.3872   -0.5561 N   0  0  1  0  0  0  0  0  0  0  0  0
    1.6391   -1.5003   -0.2733 C   0  0  1  0  0  3  0  0  0  0  0  0
    1.9110   -0.1164   -0.1419 C   0  0  2  0  0  3  0  0  0  0  0  0
    3.2505    0.5240    0.1861 C   0  0  0  0  0  0  0  0  0  0  0  0
    3.7216    1.0069   -0.7061 H   0  0  0  0  0  0  0  0  0  0  0  0
    3.0590    1.3675    0.8847 H   0  0  0  0  0  0  0  0  0  0  0  0
    4.2793   -0.4076    0.8479 C   0  0  0  0  0  0  0  0  0  0  0  0
    3.7649   -0.9798    1.6496 H   0  0  0  0  0  0  0  0  0  0  0  0
    5.0656    0.1935    1.3512 H   0  0  0  0  0  0  0  0  0  0  0  0
    4.9343   -1.3781   -0.1465 C   0  0  0  0  0  0  0  0  0  0  0  0
    5.7482   -0.8718   -0.7099 H   0  0  0  0  0  0  0  0  0  0  0  0
    5.4133   -2.2211    0.3968 H   0  0  0  0  0  0  0  0  0  0  0  0
    3.9061   -1.8990   -1.1575 C   0  0  0  0  0  0  0  0  0  0  0  0
    3.6308   -1.0879   -1.8624 H   0  0  0  0  0  0  0  0  0  0  0  0
    4.3373   -2.7221   -1.7692 H   0  0  0  0  0  0  0  0  0  0  0  0
    2.6793   -3.7797   -0.1265 C   0  0  0  0  0  0  0  0  0  0  0  0
    3.4857   -3.9539    0.6264 H   0  0  0  0  0  0  0  0  0  0  0  0
    2.9321   -4.4165   -1.0071 H   0  0  0  0  0  0  0  0  0  0  0  0
    1.3191   -4.1793    0.4299 C   0  0  0  0  0  0  0  0  0  0  0  0
    1.2211   -3.8751    1.4931 H   0  0  0  0  0  0  0  0  0  0  0  0
    1.1972   -5.2809    0.3816 H   0  0  0  0  0  0  0  0  0  0  0  0
    0.2501   -3.4449   -0.3800 C   0  0  0  0  0  0  0  0  0  0  0  0
    0.3558   -3.7194   -1.4612 H   0  0  0  0  0  0  0  0  0  0  0  0
   -0.7545   -3.7860   -0.0688 H   0  0  0  0  0  0  0  0  0  0  0  0
    0.4084    2.1196   -1.3467 C   0  0  0  0  0  0  0  0  0  0  0  0
   -0.4068    3.2691   -1.2588 C   0  0  0  0  0  0  0  0  0  0  0  0
   -0.9930    3.4588   -0.3460 H   0  0  0  0  0  0  0  0  0  0  0  0
   -0.4649    4.1780   -2.3262 C   0  0  0  0  0  0  0  0  0  0  0  0
   -1.0999    5.0738   -2.2465 H   0  0  0  0  0  0  0  0  0  0  0  0
    0.2837    3.9476   -3.4923 C   0  0  0  0  0  0  0  0  0  0  0  0
    0.2378    4.6629   -4.3276 H   0  0  0  0  0  0  0  0  0  0  0  0
    1.0914    2.8023   -3.5874 C   0  0  0  0  0  0  0  0  0  0  0  0
    1.6800    2.6173   -4.4994 H   0  0  0  0  0  0  0  0  0  0  0  0
    1.1531    1.8930   -2.5213 C   0  0  0  0  0  0  0  0  0  0  0  0
    1.7784    0.9870   -2.5785 H   0  0  0  0  0  0  0  0  0  0  0  0
    0.4908    1.8060    1.5366 C   0  0  0  0  0  0  0  0  0  0  0  0
    1.1513    3.0487    1.6359 C   0  0  0  0  0  0  0  0  0  0  0  0
    1.5672    3.5227    0.7338 H   0  0  0  0  0  0  0  0  0  0  0  0
    1.2705    3.6901    2.8802 C   0  0  0  0  0  0  0  0  0  0  0  0
    1.7884    4.6594    2.9466 H   0  0  0  0  0  0  0  0  0  0  0  0
    0.7328    3.0996    4.0339 C   0  0  0  0  0  0  0  0  0  0  0  0
    0.8233    3.6066    5.0067 H   0  0  0  0  0  0  0  0  0  0  0  0
    0.0759    1.8599    3.9426 C   0  0  0  0  0  0  0  0  0  0  0  0
   -0.3509    1.3939    4.8441 H   0  0  0  0  0  0  0  0  0  0  0  0
   -0.0435    1.2171    2.7031 C   0  0  0  0  0  0  0  0  0  0  0  0
   -0.5588    0.2463    2.6125 H   0  0  0  0  0  0  0  0  0  0  0  0
  1 38  1  0  0  0  0
  3 15  1  1  0  0  0
  3  4  1  0  0  0  0
  3 18  1  0  0  0  0
  4  2  1  6  0  0  0
  4  5  1  0  0  0  0
  5  1  1  1  0  0  0
  5  6  1  0  0  0  0
  6  9  1  0  0  0  0
  6  8  1  0  0  0  0
  7  6  1  0  0  0  0
  9 11  1  0  0  0  0
  9 10  1  0  0  0  0
 12 14  1  0  0  0  0
 12  9  1  0  0  0  0
 13 12  1  0  0  0  0
 15 12  1  0  0  0  0
 16 15  1  0  0  0  0
 17 15  1  0  0  0  0
 18 21  1  0  0  0  0
 18 19  1  0  0  0  0
 20 18  1  0  0  0  0
 21 22  1  0  0  0  0
 23 21  1  0  0  0  0
 24  2  1  0  0  0  0
 24 26  1  0  0  0  0
 24 21  1  0  0  0  0
 25 24  1  0  0  0  0
 27 28  1  0  0  0  0
 27  1  1  0  0  0  0
 28 29  1  0  0  0  0
 30 31  1  0  0  0  0
 30 28  2  0  0  0  0
 32 30  1  0  0  0  0
 33 32  1  0  0  0  0
 34 32  2  0  0  0  0
 34 36  1  0  0  0  0
 35 34  1  0  0  0  0
 36 27  2  0  0  0  0
 37 36  1  0  0  0  0
 38 39  2  0  0  0  0
 38 47  1  0  0  0  0
 39 41  1  0  0  0  0
 40 39  1  0  0  0  0
 41 42  1  0  0  0  0
 41 43  2  0  0  0  0
 43 44  1  0  0  0  0
 45 43  1  0  0  0  0
 45 46  1  0  0  0  0
 47 45  2  0  0  0  0
 48 47  1  0  0  0  0
M  END
