1
 OpenBabel05122313063D

 21 22  0  0  0  0  0  0  0  0999 V2000
    1.3172    0.4471    0.7102 N   0  0  0  0  0  0  0  0  0  0  0  0
    2.3674    0.0916   -0.0624 N   0  0  0  0  0  0  0  0  0  0  0  0
    0.8667    1.4221    2.9833 C   0  0  0  0  0  0  0  0  0  0  0  0
    0.2227    2.2558    2.6380 H   0  0  0  0  0  0  0  0  0  0  0  0
    1.4595    1.7764    3.8475 H   0  0  0  0  0  0  0  0  0  0  0  0
    0.1771    0.6283    3.3348 H   0  0  0  0  0  0  0  0  0  0  0  0
    1.7744    0.9343    1.8992 C   0  0  0  0  0  3  0  0  0  0  0  0
    3.1801    0.8785    1.8762 C   0  0  0  0  0  0  0  0  0  0  0  0
    3.8578    1.2124    2.6691 H   0  0  0  0  0  0  0  0  0  0  0  0
    3.5179    0.3409    0.6100 C   0  0  0  0  0  0  0  0  0  0  0  0
    4.8327    0.0668    0.0174 C   0  0  0  0  0  0  0  0  0  0  0  0
    6.0095    0.1186    0.7998 C   0  0  0  0  0  0  0  0  0  0  0  0
    5.9358    0.3587    1.8709 H   0  0  0  0  0  0  0  0  0  0  0  0
    7.2636   -0.1432    0.2330 C   0  0  0  0  0  0  0  0  0  0  0  0
    8.1655   -0.0978    0.8630 H   0  0  0  0  0  0  0  0  0  0  0  0
    7.3736   -0.4670   -1.1292 C   0  0  0  0  0  0  0  0  0  0  0  0
    8.3589   -0.6736   -1.5738 H   0  0  0  0  0  0  0  0  0  0  0  0
    6.2126   -0.5220   -1.9186 C   0  0  0  0  0  0  0  0  0  0  0  0
    6.2864   -0.7691   -2.9891 H   0  0  0  0  0  0  0  0  0  0  0  0
    4.9587   -0.2562   -1.3550 C   0  0  0  0  0  0  0  0  0  0  0  0
    4.0552   -0.2844   -1.9816 H   0  0  0  0  0  0  0  0  0  0  0  0
  1  7  1  0  0  0  0
  2 10  1  0  0  0  0
  2  1  2  0  0  0  0
  3  6  1  0  0  0  0
  3  5  1  0  0  0  0
  4  3  1  0  0  0  0
  7  3  1  0  0  0  0
  8  7  1  0  0  0  0
  8  9  1  0  0  0  0
 10  8  2  0  0  0  0
 11 10  1  0  0  0  0
 11 12  1  0  0  0  0
 12 13  1  0  0  0  0
 14 12  2  0  0  0  0
 14 15  1  0  0  0  0
 16 14  1  0  0  0  0
 17 16  1  0  0  0  0
 18 20  1  0  0  0  0
 18 16  2  0  0  0  0
 19 18  1  0  0  0  0
 20 11  2  0  0  0  0
 21 20  1  0  0  0  0
M  END
