2
 OpenBabel05122313063D

 31 31  0  0  0  0  0  0  0  0999 V2000
   -1.0613    1.9806   -2.1168 N   0  0  0  0  0  0  0  0  0  0  0  0
    0.7211    1.5981   -0.5690 N   0  0  0  0  0  2  0  0  0  0  0  0
    1.1612    3.1056    1.1326 N   0  0  0  0  0  0  0  0  0  0  0  0
    1.9560    2.5119    1.4697 H   0  0  0  0  0  0  0  0  0  0  0  0
    0.9395    3.9629    1.6333 H   0  0  0  0  0  0  0  0  0  0  0  0
    0.1925    0.0474   -2.1722 O   0  0  0  0  0  0  0  0  0  0  0  0
   -0.0134    1.1338   -1.6335 C   0  0  0  0  0  0  0  0  0  0  0  0
    0.4234    2.7429    0.0776 C   0  0  0  0  0  0  0  0  0  0  0  0
   -0.6688    3.5692   -0.3770 C   0  0  0  0  0  0  0  0  0  0  0  0
   -0.9232    4.5115    0.1235 H   0  0  0  0  0  0  0  0  0  0  0  0
   -1.3621    3.1469   -1.4796 C   0  0  0  0  0  3  0  0  0  0  0  0
   -2.1969    3.7268   -1.9020 H   0  0  0  0  0  0  0  0  0  0  0  0
   -1.8335    1.5326   -3.2826 C   0  0  0  0  0  0  0  0  0  0  0  0
   -1.1788    0.8214   -3.8209 H   0  0  0  0  0  0  0  0  0  0  0  0
   -2.0078    2.4136   -3.9334 H   0  0  0  0  0  0  0  0  0  0  0  0
   -3.1622    0.8632   -2.9163 C   0  0  0  0  0  0  0  0  0  0  0  0
   -3.8179    1.6019   -2.4008 H   0  0  0  0  0  0  0  0  0  0  0  0
   -3.6836    0.6116   -3.8656 H   0  0  0  0  0  0  0  0  0  0  0  0
   -3.0223   -0.3901   -2.0503 C   0  0  0  0  0  0  0  0  0  0  0  0
   -2.4739   -0.1338   -1.1175 H   0  0  0  0  0  0  0  0  0  0  0  0
   -2.3735   -1.1287   -2.5673 H   0  0  0  0  0  0  0  0  0  0  0  0
   -4.3622   -1.0246   -1.6747 C   0  0  0  0  0  0  0  0  0  0  0  0
   -4.9164   -1.3138   -2.5964 H   0  0  0  0  0  0  0  0  0  0  0  0
   -5.0006   -0.2634   -1.1705 H   0  0  0  0  0  0  0  0  0  0  0  0
   -4.2153   -2.2435   -0.7602 C   0  0  0  0  0  0  0  0  0  0  0  0
   -3.6173   -3.0225   -1.2828 H   0  0  0  0  0  0  0  0  0  0  0  0
   -3.6042   -1.9525    0.1217 H   0  0  0  0  0  0  0  0  0  0  0  0
   -5.5465   -2.8293   -0.2916 C   0  0  0  0  0  0  0  0  0  0  0  0
   -6.1727   -3.1531   -1.1489 H   0  0  0  0  0  0  0  0  0  0  0  0
   -6.1351   -2.0810    0.2803 H   0  0  0  0  0  0  0  0  0  0  0  0
   -5.4013   -3.7110    0.3656 H   0  0  0  0  0  0  0  0  0  0  0  0
  1  7  1  0  0  0  0
  1 11  1  0  0  0  0
  2  8  1  0  0  0  0
  3  4  1  0  0  0  0
  3  5  1  0  0  0  0
  6  7  2  0  0  0  0
  7  2  1  0  0  0  0
  8  3  1  0  0  0  0
  9  8  2  0  0  0  0
  9 10  1  0  0  0  0
 11  9  1  0  0  0  0
 12 11  1  0  0  0  0
 13 16  1  0  0  0  0
 13  1  1  0  0  0  0
 14 13  1  0  0  0  0
 15 13  1  0  0  0  0
 16 17  1  0  0  0  0
 16 19  1  0  0  0  0
 18 16  1  0  0  0  0
 19 22  1  0  0  0  0
 19 20  1  0  0  0  0
 21 19  1  0  0  0  0
 22 24  1  0  0  0  0
 22 25  1  0  0  0  0
 23 22  1  0  0  0  0
 25 28  1  0  0  0  0
 25 27  1  0  0  0  0
 26 25  1  0  0  0  0
 28 30  1  0  0  0  0
 28 31  1  0  0  0  0
 29 28  1  0  0  0  0
M  END
