2
 OpenBabel05122313063D

 34 35  0  0  1  0  0  0  0  0999 V2000
    1.7802    0.4975   -0.4763 S   0  0  0  0  0  0  0  0  0  0  0  0
   -0.3914   -1.1830    0.6565 N   0  0  0  0  0  2  0  0  0  0  0  0
    0.9028   -1.5793    0.9268 N   0  0  0  0  0  0  0  0  0  0  0  0
    1.0204   -2.5349    1.2787 H   0  0  0  0  0  0  0  0  0  0  0  0
    3.1982   -1.4351    0.7671 N   0  0  0  0  0  0  0  0  0  0  0  0
    3.2272   -2.1077    1.5391 H   0  0  0  0  0  0  0  0  0  0  0  0
    4.6640   -0.8248   -1.1216 C   0  0  0  0  0  0  0  0  0  0  0  0
    3.8327   -0.9638   -1.8268 H   0  0  0  0  0  0  0  0  0  0  0  0
    5.9345   -0.4561   -1.5833 C   0  0  0  0  0  0  0  0  0  0  0  0
    6.0896   -0.2958   -2.6603 H   0  0  0  0  0  0  0  0  0  0  0  0
    7.0063   -0.3122   -0.6873 C   0  0  0  0  0  0  0  0  0  0  0  0
    8.0017   -0.0293   -1.0596 H   0  0  0  0  0  0  0  0  0  0  0  0
    6.8072   -0.5402    0.6833 C   0  0  0  0  0  0  0  0  0  0  0  0
    7.6432   -0.4353    1.3902 H   0  0  0  0  0  0  0  0  0  0  0  0
    5.5384   -0.8950    1.1610 C   0  0  0  0  0  0  0  0  0  0  0  0
    5.3753   -1.0599    2.2374 H   0  0  0  0  0  0  0  0  0  0  0  0
    4.4693   -1.0318    0.2570 C   0  0  0  0  0  0  0  0  0  0  0  0
    1.9917   -0.9129    0.4413 C   0  0  0  0  0  0  0  0  0  0  0  0
   -1.3282   -1.9240    1.2142 C   0  0  2  0  0  3  0  0  0  0  0  0
   -0.9912   -3.0064    2.2056 C   0  0  0  0  0  0  0  0  0  0  0  0
   -0.5991   -3.9135    1.6900 H   0  0  0  0  0  0  0  0  0  0  0  0
   -1.9030   -3.3317    2.7368 H   0  0  0  0  0  0  0  0  0  0  0  0
   -0.2419   -2.6774    2.9562 H   0  0  0  0  0  0  0  0  0  0  0  0
   -2.7439   -1.7776    0.8142 C   0  0  0  0  0  0  0  0  0  0  0  0
   -3.1196   -1.9867   -0.5323 C   0  0  0  0  0  0  0  0  0  0  0  0
   -2.3412   -2.1671   -1.2900 H   0  0  0  0  0  0  0  0  0  0  0  0
   -4.4735   -1.9368   -0.8914 C   0  0  0  0  0  0  0  0  0  0  0  0
   -4.7627   -2.1195   -1.9372 H   0  0  0  0  0  0  0  0  0  0  0  0
   -5.4558   -1.6547    0.0728 C   0  0  0  0  0  0  0  0  0  0  0  0
   -6.5164   -1.6084   -0.2164 H   0  0  0  0  0  0  0  0  0  0  0  0
   -5.0850   -1.4462    1.4128 C   0  0  0  0  0  0  0  0  0  0  0  0
   -5.8517   -1.2282    2.1709 H   0  0  0  0  0  0  0  0  0  0  0  0
   -3.7376   -1.5321    1.7887 C   0  0  0  0  0  0  0  0  0  0  0  0
   -3.4531   -1.3836    2.8423 H   0  0  0  0  0  0  0  0  0  0  0  0
  1 18  2  0  0  0  0
  2  3  1  0  0  0  0
  3  4  1  0  0  0  0
  5  6  1  0  0  0  0
  7 17  1  0  0  0  0
  8  7  1  0  0  0  0
  9  7  2  0  0  0  0
  9 11  1  0  0  0  0
 10  9  1  0  0  0  0
 11 13  2  0  0  0  0
 12 11  1  0  0  0  0
 13 15  1  0  0  0  0
 13 14  1  0  0  0  0
 15 16  1  0  0  0  0
 17  5  1  0  0  0  0
 17 15  2  0  0  0  0
 18  5  1  0  0  0  0
 18  3  1  0  0  0  0
 19  2  1  6  0  0  0
 19 20  1  0  0  0  0
 20 22  1  0  0  0  0
 20 23  1  0  0  0  0
 21 20  1  0  0  0  0
 24 19  1  0  0  0  0
 24 33  1  0  0  0  0
 25 24  2  0  0  0  0
 26 25  1  0  0  0  0
 27 25  1  0  0  0  0
 27 29  2  0  0  0  0
 28 27  1  0  0  0  0
 29 31  1  0  0  0  0
 30 29  1  0  0  0  0
 31 33  2  0  0  0  0
 31 32  1  0  0  0  0
 33 34  1  0  0  0  0
M  END
