2
 OpenBabel05122313063D

 27 27  0  0  0  0  0  0  0  0999 V2000
    0.9983   -0.0006   -0.8631 S   0  0  0  0  0  0  0  0  0  0  0  0
   -0.8139   -1.5481    0.8650 N   0  0  0  0  0  2  0  0  0  0  0  0
    0.5286   -1.6249    1.1836 N   0  0  0  0  0  0  0  0  0  0  0  0
    0.8005   -2.2807    1.9231 H   0  0  0  0  0  0  0  0  0  0  0  0
    2.7663   -1.3504    0.6704 N   0  0  0  0  0  0  0  0  0  0  0  0
    2.9465   -2.1965    1.2190 H   0  0  0  0  0  0  0  0  0  0  0  0
   -3.0311   -2.5551    0.9935 C   0  0  0  0  0  0  0  0  0  0  0  0
   -3.6428   -2.3697    1.9033 H   0  0  0  0  0  0  0  0  0  0  0  0
   -3.2868   -3.5770    0.6459 H   0  0  0  0  0  0  0  0  0  0  0  0
   -3.2903   -1.8443    0.1935 H   0  0  0  0  0  0  0  0  0  0  0  0
   -1.5775   -2.5132    1.3213 C   0  0  0  0  0  3  0  0  0  0  0  0
   -1.0125   -3.6276    2.1623 C   0  0  0  0  0  0  0  0  0  0  0  0
   -0.2652   -4.2198    1.5899 H   0  0  0  0  0  0  0  0  0  0  0  0
   -1.8121   -4.3205    2.4777 H   0  0  0  0  0  0  0  0  0  0  0  0
   -0.5240   -3.2557    3.0907 H   0  0  0  0  0  0  0  0  0  0  0  0
    1.4772   -1.0410    0.3923 C   0  0  0  0  0  0  0  0  0  0  0  0
    3.9195   -0.7192    0.1082 C   0  0  0  0  0  0  0  0  0  0  0  0
    4.0564    0.6808    0.1438 C   0  0  0  0  0  0  0  0  0  0  0  0
    3.2700    1.2986    0.5995 H   0  0  0  0  0  0  0  0  0  0  0  0
    5.2078    1.2707   -0.3932 C   0  0  0  0  0  0  0  0  0  0  0  0
    5.3183    2.3648   -0.3667 H   0  0  0  0  0  0  0  0  0  0  0  0
    6.2240    0.4733   -0.9446 C   0  0  0  0  0  0  0  0  0  0  0  0
    7.1281    0.9424   -1.3592 H   0  0  0  0  0  0  0  0  0  0  0  0
    6.0879   -0.9235   -0.9591 C   0  0  0  0  0  0  0  0  0  0  0  0
    6.8816   -1.5532   -1.3870 H   0  0  0  0  0  0  0  0  0  0  0  0
    4.9333   -1.5247   -0.4388 C   0  0  0  0  0  0  0  0  0  0  0  0
    4.8137   -2.6186   -0.4665 H   0  0  0  0  0  0  0  0  0  0  0  0
  1 16  2  0  0  0  0
  2  3  1  0  0  0  0
  2 11  1  0  0  0  0
  3  4  1  0  0  0  0
  5  6  1  0  0  0  0
  7 11  1  0  0  0  0
  7  8  1  0  0  0  0
  9  7  1  0  0  0  0
 10  7  1  0  0  0  0
 11 12  1  0  0  0  0
 12 14  1  0  0  0  0
 12 15  1  0  0  0  0
 13 12  1  0  0  0  0
 16  5  1  0  0  0  0
 16  3  1  0  0  0  0
 17 18  1  0  0  0  0
 17  5  1  0  0  0  0
 18 19  1  0  0  0  0
 20 21  1  0  0  0  0
 20 18  2  0  0  0  0
 22 20  1  0  0  0  0
 23 22  1  0  0  0  0
 24 22  2  0  0  0  0
 24 26  1  0  0  0  0
 25 24  1  0  0  0  0
 26 17  2  0  0  0  0
 27 26  1  0  0  0  0
M  END
