5
 OpenBabel05122313063D

 35 37  0  0  0  0  0  0  0  0999 V2000
   -1.1349    1.9543   -0.9028 Se  0  0  0  0  0  0  0  0  0  0  0  0
   -0.1977    1.4137   -2.5877 C   0  0  0  0  0  0  0  0  0  0  0  0
   -1.0413    1.1662   -3.2626 H   0  0  0  0  0  0  0  0  0  0  0  0
    0.3779    2.2765   -2.9688 H   0  0  0  0  0  0  0  0  0  0  0  0
    0.2636   -0.6716   -1.3197 N   0  0  0  0  0  2  0  0  0  0  0  0
    1.1677   -1.6124   -1.1645 N   0  0  0  0  0  2  0  0  0  0  0  0
    2.1439   -1.3372   -2.0316 N   0  0  0  0  0  0  0  0  0  0  0  0
    0.6431    0.2290   -2.2904 C   0  0  0  0  0  0  0  0  0  0  0  0
    1.8790   -0.2065   -2.7492 C   0  0  0  0  0  0  0  0  0  0  0  0
    2.5629    0.1907   -3.5051 H   0  0  0  0  0  0  0  0  0  0  0  0
    4.1596   -1.6881   -0.6849 C   0  0  0  0  0  0  0  0  0  0  0  0
    4.7112   -2.0808    1.6572 C   0  0  0  0  0  0  0  0  0  0  0  0
    4.6566   -2.7180    2.5525 H   0  0  0  0  0  0  0  0  0  0  0  0
    5.4979   -0.0650    0.5480 C   0  0  0  0  0  0  0  0  0  0  0  0
    6.0650    0.8778    0.5707 H   0  0  0  0  0  0  0  0  0  0  0  0
    3.4093   -2.0848   -1.9389 C   0  0  0  0  0  0  0  0  0  0  0  0
    3.9801   -1.8569   -2.8588 H   0  0  0  0  0  0  0  0  0  0  0  0
    3.1573   -3.1618   -1.9419 H   0  0  0  0  0  0  0  0  0  0  0  0
    5.4151   -0.8668    1.6989 C   0  0  0  0  0  0  0  0  0  0  0  0
    5.9138   -0.5508    2.6274 H   0  0  0  0  0  0  0  0  0  0  0  0
    0.4005    2.7252    0.0135 C   0  0  0  0  0  0  0  0  0  0  0  0
    4.0837   -2.4889    0.4702 C   0  0  0  0  0  0  0  0  0  0  0  0
    3.5320   -3.4414    0.4378 H   0  0  0  0  0  0  0  0  0  0  0  0
    0.3928    4.1149    0.2259 C   0  0  0  0  0  0  0  0  0  0  0  0
   -0.4526    4.7283   -0.1218 H   0  0  0  0  0  0  0  0  0  0  0  0
    4.8724   -0.4742   -0.6389 C   0  0  0  0  0  0  0  0  0  0  0  0
    4.9465    0.1563   -1.5396 H   0  0  0  0  0  0  0  0  0  0  0  0
    1.4764    4.7157    0.8887 C   0  0  0  0  0  0  0  0  0  0  0  0
    1.4723    5.8021    1.0622 H   0  0  0  0  0  0  0  0  0  0  0  0
    1.4755    1.9340    0.4582 C   0  0  0  0  0  0  0  0  0  0  0  0
    1.4614    0.8454    0.3172 H   0  0  0  0  0  0  0  0  0  0  0  0
    2.5574    3.9345    1.3254 C   0  0  0  0  0  0  0  0  0  0  0  0
    3.4040    4.4104    1.8424 H   0  0  0  0  0  0  0  0  0  0  0  0
    2.5578    2.5459    1.1075 C   0  0  0  0  0  0  0  0  0  0  0  0
    3.4024    1.9264    1.4465 H   0  0  0  0  0  0  0  0  0  0  0  0
  1 21  1  0  0  0  0
  2  8  1  0  0  0  0
  2  1  1  0  0  0  0
  3  2  1  0  0  0  0
  4  2  1  0  0  0  0
  5  6  1  0  0  0  0
  7 16  1  0  0  0  0
  7  6  1  0  0  0  0
  8  5  1  0  0  0  0
  9  8  2  0  0  0  0
  9  7  1  0  0  0  0
 10  9  1  0  0  0  0
 11 26  2  0  0  0  0
 11 22  1  0  0  0  0
 12 19  1  0  0  0  0
 12 13  1  0  0  0  0
 14 15  1  0  0  0  0
 14 19  2  0  0  0  0
 16 11  1  0  0  0  0
 17 16  1  0  0  0  0
 18 16  1  0  0  0  0
 19 20  1  0  0  0  0
 21 24  2  0  0  0  0
 21 30  1  0  0  0  0
 22 12  2  0  0  0  0
 23 22  1  0  0  0  0
 24 28  1  0  0  0  0
 25 24  1  0  0  0  0
 26 14  1  0  0  0  0
 27 26  1  0  0  0  0
 28 29  1  0  0  0  0
 28 32  2  0  0  0  0
 30 34  2  0  0  0  0
 31 30  1  0  0  0  0
 32 33  1  0  0  0  0
 34 32  1  0  0  0  0
 34 35  1  0  0  0  0
M  END
