4
 OpenBabel05122313063D

 32 34  0  0  0  0  0  0  0  0999 V2000
   -1.5820    1.2665   -1.4242 S   0  0  0  0  0  0  0  0  0  0  0  0
    1.8876   -0.6230   -0.0574 N   0  0  0  0  0  2  0  0  0  0  0  0
    1.0593    0.6646   -1.5921 N   0  0  0  0  0  0  0  0  0  0  0  0
    0.7850   -0.2688   -0.6520 N   0  0  0  0  0  2  0  0  0  0  0  0
   -1.3003    2.6685   -0.3297 C   0  0  0  0  0  0  0  0  0  0  0  0
    2.3975    0.9086   -1.6051 C   0  0  0  0  0  0  0  0  0  0  0  0
    2.8510    1.6221   -2.2987 H   0  0  0  0  0  0  0  0  0  0  0  0
    2.9319    0.0720   -0.6137 C   0  0  0  0  0  0  0  0  0  0  0  0
    4.6334   -1.0645    0.8128 C   0  0  0  0  0  0  0  0  0  0  0  0
    3.8297   -1.6863    1.2320 H   0  0  0  0  0  0  0  0  0  0  0  0
    5.9559   -1.2322    1.2402 C   0  0  0  0  0  0  0  0  0  0  0  0
    6.1907   -1.9891    2.0032 H   0  0  0  0  0  0  0  0  0  0  0  0
   -0.0145    1.2211   -2.3937 C   0  0  0  0  0  0  0  0  0  0  0  0
   -0.2500    0.5472   -3.2424 H   0  0  0  0  0  0  0  0  0  0  0  0
    0.2549    2.2406   -2.7256 H   0  0  0  0  0  0  0  0  0  0  0  0
    6.9811   -0.4421    0.6950 C   0  0  0  0  0  0  0  0  0  0  0  0
    8.0199   -0.5769    1.0309 H   0  0  0  0  0  0  0  0  0  0  0  0
    4.3195   -0.0992   -0.1694 C   0  0  0  0  0  0  0  0  0  0  0  0
   -2.0732    4.8433    0.4203 C   0  0  0  0  0  0  0  0  0  0  0  0
   -2.7835    5.6798    0.3441 H   0  0  0  0  0  0  0  0  0  0  0  0
   -2.2095    3.7374   -0.4340 C   0  0  0  0  0  0  0  0  0  0  0  0
   -3.0160    3.7040   -1.1819 H   0  0  0  0  0  0  0  0  0  0  0  0
    5.3560    0.6914   -0.7128 C   0  0  0  0  0  0  0  0  0  0  0  0
    5.1343    1.4506   -1.4781 H   0  0  0  0  0  0  0  0  0  0  0  0
    6.6772    0.5194   -0.2826 C   0  0  0  0  0  0  0  0  0  0  0  0
    7.4763    1.1402   -0.7137 H   0  0  0  0  0  0  0  0  0  0  0  0
   -0.2619    2.6933    0.6221 C   0  0  0  0  0  0  0  0  0  0  0  0
    0.4234    1.8415    0.7272 H   0  0  0  0  0  0  0  0  0  0  0  0
   -0.1272    3.8114    1.4570 C   0  0  0  0  0  0  0  0  0  0  0  0
    0.6873    3.8414    2.1962 H   0  0  0  0  0  0  0  0  0  0  0  0
   -1.0324    4.8829    1.3606 C   0  0  0  0  0  0  0  0  0  0  0  0
   -0.9252    5.7530    2.0251 H   0  0  0  0  0  0  0  0  0  0  0  0
  1  5  1  0  0  0  0
  3  4  1  0  0  0  0
  4  2  1  0  0  0  0
  5 27  1  0  0  0  0
  6  3  1  0  0  0  0
  6  8  2  0  0  0  0
  7  6  1  0  0  0  0
  8 18  1  0  0  0  0
  8  2  1  0  0  0  0
  9 10  1  0  0  0  0
  9 11  1  0  0  0  0
 11 12  1  0  0  0  0
 13  3  1  0  0  0  0
 13  1  1  0  0  0  0
 14 13  1  0  0  0  0
 15 13  1  0  0  0  0
 16 17  1  0  0  0  0
 16 11  2  0  0  0  0
 18  9  2  0  0  0  0
 19 31  2  0  0  0  0
 20 19  1  0  0  0  0
 21  5  2  0  0  0  0
 21 19  1  0  0  0  0
 22 21  1  0  0  0  0
 23 25  2  0  0  0  0
 23 18  1  0  0  0  0
 24 23  1  0  0  0  0
 25 16  1  0  0  0  0
 26 25  1  0  0  0  0
 27 28  1  0  0  0  0
 27 29  2  0  0  0  0
 29 30  1  0  0  0  0
 31 29  1  0  0  0  0
 31 32  1  0  0  0  0
M  END
