1
 OpenBabel05122313063D

 34 36  0  0  1  0  0  0  0  0999 V2000
   -1.7451    0.5447   -0.9695 N   0  0  0  0  0  0  0  0  0  0  0  0
   -3.0852    0.3046   -0.3522 C   0  0  2  0  0  0  0  0  0  0  0  0
   -3.4677   -1.1775   -0.4793 C   0  0  0  0  0  0  0  0  0  0  0  0
   -3.4708   -1.4719   -1.5530 H   0  0  0  0  0  0  0  0  0  0  0  0
   -2.6959   -1.8034    0.0133 H   0  0  0  0  0  0  0  0  0  0  0  0
   -4.8625   -1.4351    0.1321 C   0  0  2  0  0  0  0  0  0  0  0  0
   -5.8934   -0.5492   -0.6012 C   0  0  0  0  0  0  0  0  0  0  0  0
   -6.9066   -0.7246   -0.1771 H   0  0  0  0  0  0  0  0  0  0  0  0
   -5.9421   -0.8433   -1.6735 H   0  0  0  0  0  0  0  0  0  0  0  0
   -5.5432    0.9512   -0.4911 C   0  0  2  0  0  0  0  0  0  0  0  0
   -4.1342    1.1628   -1.0898 C   0  0  0  0  0  0  0  0  0  0  0  0
   -3.8549    2.2377   -1.0176 H   0  0  0  0  0  0  0  0  0  0  0  0
   -4.1427    0.8963   -2.1706 H   0  0  0  0  0  0  0  0  0  0  0  0
   -4.8272   -1.0121    1.6183 C   0  0  0  0  0  0  0  0  0  0  0  0
   -4.0920   -1.6411    2.1648 H   0  0  0  0  0  0  0  0  0  0  0  0
   -5.8209   -1.1993    2.0804 H   0  0  0  0  0  0  0  0  0  0  0  0
   -4.4519    0.4743    1.7450 C   0  0  1  0  0  0  0  0  0  0  0  0
   -4.4269    0.7632    2.8167 H   0  0  0  0  0  0  0  0  0  0  0  0
   -3.0594    0.7030    1.1338 C   0  0  0  0  0  0  0  0  0  0  0  0
   -2.2918    0.0913    1.6534 H   0  0  0  0  0  0  0  0  0  0  0  0
   -2.7391    1.7608    1.2362 H   0  0  0  0  0  0  0  0  0  0  0  0
   -5.4911    1.3340    1.0052 C   0  0  0  0  0  0  0  0  0  0  0  0
   -5.2400    2.4124    1.1054 H   0  0  0  0  0  0  0  0  0  0  0  0
   -6.4974    1.1941    1.4562 H   0  0  0  0  0  0  0  0  0  0  0  0
   -5.2291   -2.9153   -0.0027 C   0  0  0  0  0  0  0  0  0  0  0  0
   -6.2276   -3.1196    0.4365 H   0  0  0  0  0  0  0  0  0  0  0  0
   -5.2560   -3.2244   -1.0683 H   0  0  0  0  0  0  0  0  0  0  0  0
   -4.4881   -3.5570    0.5167 H   0  0  0  0  0  0  0  0  0  0  0  0
   -6.5710    1.8048   -1.2383 C   0  0  0  0  0  0  0  0  0  0  0  0
   -6.6094    1.5349   -2.3143 H   0  0  0  0  0  0  0  0  0  0  0  0
   -7.5871    1.6606   -0.8164 H   0  0  0  0  0  0  0  0  0  0  0  0
   -6.3237    2.8844   -1.1661 H   0  0  0  0  0  0  0  0  0  0  0  0
   -1.5946    1.5657   -1.0567 H   0  0  0  0  0  0  0  0  0  0  0  0
   -1.7279    0.1402   -1.9184 H   0  0  0  0  0  0  0  0  0  0  0  0
  2  1  1  6  0  0  0
  2 19  1  0  0  0  0
  3  2  1  0  0  0  0
  3  5  1  0  0  0  0
  3  6  1  0  0  0  0
  4  3  1  0  0  0  0
  6 25  1  6  0  0  0
  6 14  1  0  0  0  0
  7 10  1  0  0  0  0
  7  8  1  0  0  0  0
  7  6  1  0  0  0  0
  9  7  1  0  0  0  0
 10 29  1  6  0  0  0
 10 22  1  0  0  0  0
 11 12  1  0  0  0  0
 11 10  1  0  0  0  0
 11  2  1  0  0  0  0
 13 11  1  0  0  0  0
 14 17  1  0  0  0  0
 14 16  1  0  0  0  0
 14 15  1  0  0  0  0
 17 18  1  1  0  0  0
 19 21  1  0  0  0  0
 19 20  1  0  0  0  0
 19 17  1  0  0  0  0
 22 23  1  0  0  0  0
 22 24  1  0  0  0  0
 22 17  1  0  0  0  0
 25 26  1  0  0  0  0
 25 28  1  0  0  0  0
 27 25  1  0  0  0  0
 29 32  1  0  0  0  0
 29 31  1  0  0  0  0
 30 29  1  0  0  0  0
 33  1  1  0  0  0  0
 34  1  1  0  0  0  0
M  END
