3
 OpenBabel05122313063D

 25 26  0  0  1  0  0  0  0  0999 V2000
    2.8565   -1.9000    0.0813 O   0  0  0  0  0  0  0  0  0  0  0  0
    2.2346   -2.7345    0.0772 H   0  0  0  0  0  0  0  0  0  0  0  0
    1.9696   -0.9057    0.2521 N   0  0  0  0  0  2  0  0  0  0  0  0
    0.7652    1.9237   -0.7018 N   0  0  0  0  0  0  0  0  0  0  0  0
   -0.2605    2.7788   -0.5590 C   0  0  0  0  0  0  0  0  0  0  0  0
   -0.6282    3.2572   -1.4842 H   0  0  0  0  0  0  0  0  0  0  0  0
   -0.8580    3.0740    0.6766 C   0  0  0  0  0  0  0  0  0  0  0  0
   -1.6952    3.7854    0.7320 H   0  0  0  0  0  0  0  0  0  0  0  0
   -0.3623    2.4370    1.8248 C   0  0  0  0  0  0  0  0  0  0  0  0
   -0.8018    2.6346    2.8144 H   0  0  0  0  0  0  0  0  0  0  0  0
    0.6984    1.5332    1.6907 C   0  0  0  0  0  0  0  0  0  0  0  0
    1.0939    0.9755    2.5509 H   0  0  0  0  0  0  0  0  0  0  0  0
    1.2251    1.3063    0.4028 C   0  0  0  0  0  0  0  0  0  0  0  0
    2.3657    0.3410    0.2081 C   0  0  2  0  0  3  0  0  0  0  0  0
    3.7261    0.8610   -0.0113 C   0  0  0  0  0  0  0  0  0  0  0  0
    3.9072    2.2687   -0.0676 C   0  0  0  0  0  0  0  0  0  0  0  0
    3.0382    2.9318    0.0356 H   0  0  0  0  0  0  0  0  0  0  0  0
    5.1737    2.8268   -0.2662 C   0  0  0  0  0  0  0  0  0  0  0  0
    5.2841    3.9209   -0.3080 H   0  0  0  0  0  0  0  0  0  0  0  0
    6.2973    1.9972   -0.4113 C   0  0  0  0  0  0  0  0  0  0  0  0
    7.2947    2.4359   -0.5664 H   0  0  0  0  0  0  0  0  0  0  0  0
    6.1367    0.6043   -0.3547 C   0  0  0  0  0  0  0  0  0  0  0  0
    7.0108   -0.0556   -0.4636 H   0  0  0  0  0  0  0  0  0  0  0  0
    4.8723    0.0352   -0.1579 C   0  0  0  0  0  0  0  0  0  0  0  0
    4.7617   -1.0523   -0.1107 H   0  0  0  0  0  0  0  0  0  0  0  0
  1  3  1  0  0  0  0
  2  1  1  0  0  0  0
  4  5  2  0  0  0  0
  4 13  1  0  0  0  0
  5  7  1  0  0  0  0
  6  5  1  0  0  0  0
  7  8  1  0  0  0  0
  7  9  2  0  0  0  0
  9 10  1  0  0  0  0
 11  9  1  0  0  0  0
 11 12  1  0  0  0  0
 13 11  2  0  0  0  0
 14  3  1  6  0  0  0
 14 13  1  0  0  0  0
 15 14  1  0  0  0  0
 16 15  1  0  0  0  0
 16 17  1  0  0  0  0
 18 16  2  0  0  0  0
 19 18  1  0  0  0  0
 20 22  2  0  0  0  0
 20 18  1  0  0  0  0
 21 20  1  0  0  0  0
 22 24  1  0  0  0  0
 23 22  1  0  0  0  0
 24 25  1  0  0  0  0
 24 15  2  0  0  0  0
M  END
