1
 OpenBabel05122313063D

 17 17  0  0  0  0  0  0  0  0999 V2000
    1.9540   -0.4298    0.2393 N   0  0  0  0  0  2  0  0  0  0  0  0
    4.1491    0.0536    0.3570 N   0  0  0  0  0  0  0  0  0  0  0  0
    2.8699    0.4997    0.2634 C   0  0  0  0  0  3  0  0  0  0  0  0
    4.1348   -1.4085    0.2001 C   0  0  0  0  0  0  0  0  0  0  0  0
    2.6325   -1.7351    0.3806 C   0  0  0  0  0  0  0  0  0  0  0  0
    5.3331    0.8720    0.1710 C   0  0  0  0  0  0  0  0  0  0  0  0
    5.8465    0.9226   -1.2715 C   0  0  0  0  0  0  0  0  0  0  0  0
    2.6105    1.5713    0.2458 H   0  0  0  0  0  0  0  0  0  0  0  0
    4.7847   -1.8966    0.9552 H   0  0  0  0  0  0  0  0  0  0  0  0
    4.5102   -1.6939   -0.8097 H   0  0  0  0  0  0  0  0  0  0  0  0
    2.2252   -2.4567   -0.3515 H   0  0  0  0  0  0  0  0  0  0  0  0
    2.4083   -2.1401    1.3905 H   0  0  0  0  0  0  0  0  0  0  0  0
    6.1276    0.4906    0.8490 H   0  0  0  0  0  0  0  0  0  0  0  0
    5.0856    1.8935    0.5261 H   0  0  0  0  0  0  0  0  0  0  0  0
    6.7451    1.5679   -1.3378 H   0  0  0  0  0  0  0  0  0  0  0  0
    6.1304   -0.0826   -1.6429 H   0  0  0  0  0  0  0  0  0  0  0  0
    5.0748    1.3345   -1.9526 H   0  0  0  0  0  0  0  0  0  0  0  0
  1  3  1  0  0  0  0
  1  5  1  0  0  0  0
  3  2  1  0  0  0  0
  4  2  1  0  0  0  0
  4  5  1  0  0  0  0
  4  9  1  0  0  0  0
  5 12  1  0  0  0  0
  6  2  1  0  0  0  0
  6 14  1  0  0  0  0
  6 13  1  0  0  0  0
  7  6  1  0  0  0  0
  8  3  1  0  0  0  0
 10  4  1  0  0  0  0
 11  5  1  0  0  0  0
 15  7  1  0  0  0  0
 16  7  1  0  0  0  0
 17  7  1  0  0  0  0
M  END
