1
 OpenBabel05122313063D

 29 30  0  0  0  0  0  0  0  0999 V2000
    1.5949   -0.9090    0.1997 N   0  0  0  0  0  2  0  0  0  0  0  0
    1.8926   -1.4773    1.0008 H   0  0  0  0  0  0  0  0  0  0  0  0
    2.3317    0.4478   -1.5326 N   0  0  0  0  0  0  0  0  0  0  0  0
    1.5110    0.0700   -2.0562 H   0  0  0  0  0  0  0  0  0  0  0  0
    3.7641    0.0184    0.2633 N   0  0  0  0  0  0  0  0  0  0  0  0
    4.5033    0.3170   -0.3771 H   0  0  0  0  0  0  0  0  0  0  0  0
    2.5345   -0.1588   -0.3305 C   0  0  0  0  0  3  0  0  0  0  0  0
    3.0264    1.5075   -2.1356 C   0  0  0  0  0  0  0  0  0  0  0  0
    2.9387    1.6192   -3.5429 C   0  0  0  0  0  0  0  0  0  0  0  0
    2.3641    0.8653   -4.1018 H   0  0  0  0  0  0  0  0  0  0  0  0
    3.5686    2.6753   -4.2097 C   0  0  0  0  0  0  0  0  0  0  0  0
    3.4862    2.7459   -5.3048 H   0  0  0  0  0  0  0  0  0  0  0  0
    4.3080    3.6325   -3.4943 C   0  0  0  0  0  0  0  0  0  0  0  0
    4.8106    4.4561   -4.0220 H   0  0  0  0  0  0  0  0  0  0  0  0
    4.3886    3.5299   -2.0976 C   0  0  0  0  0  0  0  0  0  0  0  0
    4.9452    4.2843   -1.5207 H   0  0  0  0  0  0  0  0  0  0  0  0
    3.7475    2.4871   -1.4124 C   0  0  0  0  0  0  0  0  0  0  0  0
    3.7723    2.4591   -0.3153 H   0  0  0  0  0  0  0  0  0  0  0  0
    4.1830   -0.3085    1.5670 C   0  0  0  0  0  0  0  0  0  0  0  0
    5.5620   -0.5310    1.7764 C   0  0  0  0  0  0  0  0  0  0  0  0
    6.2536   -0.4832    0.9203 H   0  0  0  0  0  0  0  0  0  0  0  0
    6.0481   -0.8165    3.0573 C   0  0  0  0  0  0  0  0  0  0  0  0
    7.1261   -0.9863    3.1990 H   0  0  0  0  0  0  0  0  0  0  0  0
    5.1692   -0.8997    4.1490 C   0  0  0  0  0  0  0  0  0  0  0  0
    5.5497   -1.1365    5.1532 H   0  0  0  0  0  0  0  0  0  0  0  0
    3.7996   -0.6781    3.9417 C   0  0  0  0  0  0  0  0  0  0  0  0
    3.0966   -0.7342    4.7865 H   0  0  0  0  0  0  0  0  0  0  0  0
    3.2996   -0.3755    2.6675 C   0  0  0  0  0  0  0  0  0  0  0  0
    2.2285   -0.1776    2.5385 H   0  0  0  0  0  0  0  0  0  0  0  0
  1  2  1  0  0  0  0
  3  7  1  0  0  0  0
  4  3  1  0  0  0  0
  5 19  1  0  0  0  0
  6  5  1  0  0  0  0
  7  1  1  0  0  0  0
  7  5  1  0  0  0  0
  8  3  1  0  0  0  0
  8 17  1  0  0  0  0
  9  8  2  0  0  0  0
 10  9  1  0  0  0  0
 11  9  1  0  0  0  0
 11 13  2  0  0  0  0
 12 11  1  0  0  0  0
 13 15  1  0  0  0  0
 14 13  1  0  0  0  0
 15 16  1  0  0  0  0
 15 17  2  0  0  0  0
 17 18  1  0  0  0  0
 19 20  2  0  0  0  0
 19 28  1  0  0  0  0
 20 22  1  0  0  0  0
 21 20  1  0  0  0  0
 22 23  1  0  0  0  0
 22 24  2  0  0  0  0
 24 25  1  0  0  0  0
 26 24  1  0  0  0  0
 26 27  1  0  0  0  0
 28 26  2  0  0  0  0
 29 28  1  0  0  0  0
M  END
