1
 OpenBabel05122313063D

 41 42  0  0  1  0  0  0  0  0999 V2000
    0.6019    0.3727    0.1031 N   0  0  0  0  0  2  0  0  0  0  0  0
    1.8889   -0.4074    0.1213 C   0  0  1  0  0  0  0  0  0  0  0  0
    1.9556   -1.3285    1.1621 O   0  0  0  0  0  0  0  0  0  0  0  0
    1.8040   -0.7993    2.4838 C   0  0  0  0  0  0  0  0  0  0  0  0
    1.9383   -1.9523    3.4584 C   0  0  0  0  0  0  0  0  0  0  0  0
    2.0403   -1.1235   -1.2039 C   0  0  0  0  0  0  0  0  0  0  0  0
    2.3078   -2.4359   -1.3184 C   0  0  0  0  0  0  0  0  0  0  0  0
    2.4075   -3.1720   -2.6158 C   0  0  0  0  0  0  0  0  0  0  0  0
    2.9646    0.6875    0.1996 C   0  0  1  0  0  3  0  0  0  0  0  0
    4.2239    0.3003    0.3453 O   0  0  0  0  0  0  0  0  0  0  0  0
    5.2483    1.3174    0.3037 C   0  0  0  0  0  0  0  0  0  0  0  0
    5.5695    1.7376   -1.1208 C   0  0  0  0  0  0  0  0  0  0  0  0
    2.3623    1.9100    0.0904 C   0  0  0  0  0  0  0  0  0  0  0  0
    0.9241    1.6539    0.0686 C   0  0  0  0  0  0  0  0  0  0  0  0
   -0.0591    2.7575    0.0285 C   0  0  0  0  0  0  0  0  0  0  0  0
   -0.9864    2.9386    1.0762 C   0  0  0  0  0  0  0  0  0  0  0  0
   -1.9078    3.9921    1.0248 C   0  0  0  0  0  0  0  0  0  0  0  0
   -1.9194    4.8667   -0.0732 C   0  0  0  0  0  0  0  0  0  0  0  0
   -0.9883    4.7017   -1.1106 C   0  0  0  0  0  0  0  0  0  0  0  0
   -0.0503    3.6619   -1.0538 C   0  0  0  0  0  0  0  0  0  0  0  0
    0.8073   -0.3134    2.5765 H   0  0  0  0  0  0  0  0  0  0  0  0
    2.5797   -0.0206    2.6733 H   0  0  0  0  0  0  0  0  0  0  0  0
    1.1684   -2.7221    3.2561 H   0  0  0  0  0  0  0  0  0  0  0  0
    1.8115   -1.5923    4.4984 H   0  0  0  0  0  0  0  0  0  0  0  0
    2.9352   -2.4280    3.3693 H   0  0  0  0  0  0  0  0  0  0  0  0
    1.9068   -0.4795   -2.0884 H   0  0  0  0  0  0  0  0  0  0  0  0
    2.4196   -3.0165   -0.3873 H   0  0  0  0  0  0  0  0  0  0  0  0
    1.6265   -3.9607   -2.6725 H   0  0  0  0  0  0  0  0  0  0  0  0
    3.3836   -3.6944   -2.7093 H   0  0  0  0  0  0  0  0  0  0  0  0
    2.2774   -2.5029   -3.4886 H   0  0  0  0  0  0  0  0  0  0  0  0
    4.9290    2.1788    0.9304 H   0  0  0  0  0  0  0  0  0  0  0  0
    6.1244    0.8469    0.7904 H   0  0  0  0  0  0  0  0  0  0  0  0
    5.8852    0.8633   -1.7230 H   0  0  0  0  0  0  0  0  0  0  0  0
    6.3961    2.4758   -1.1186 H   0  0  0  0  0  0  0  0  0  0  0  0
    4.6953    2.2039   -1.6162 H   0  0  0  0  0  0  0  0  0  0  0  0
    2.8065    2.9114    0.0786 H   0  0  0  0  0  0  0  0  0  0  0  0
   -0.9802    2.2512    1.9323 H   0  0  0  0  0  0  0  0  0  0  0  0
   -2.6295    4.1233    1.8447 H   0  0  0  0  0  0  0  0  0  0  0  0
   -2.6565    5.6824   -0.1199 H   0  0  0  0  0  0  0  0  0  0  0  0
   -0.9951    5.3853   -1.9728 H   0  0  0  0  0  0  0  0  0  0  0  0
    0.6765    3.5252   -1.8692 H   0  0  0  0  0  0  0  0  0  0  0  0
  1  2  1  0  0  0  0
  2  6  1  6  0  0  0
  2  9  1  0  0  0  0
  2  3  1  0  0  0  0
  3  4  1  0  0  0  0
  4 21  1  0  0  0  0
  4 22  1  0  0  0  0
  4  5  1  0  0  0  0
  5 24  1  0  0  0  0
  7  6  2  0  0  0  0
  7 27  1  0  0  0  0
  8  7  1  0  0  0  0
  9 10  1  6  0  0  0
 11 10  1  0  0  0  0
 11 32  1  0  0  0  0
 11 31  1  0  0  0  0
 12 34  1  0  0  0  0
 12 11  1  0  0  0  0
 13  9  1  0  0  0  0
 14 13  2  0  0  0  0
 14  1  1  0  0  0  0
 15 14  1  0  0  0  0
 15 16  1  0  0  0  0
 16 37  1  0  0  0  0
 17 16  2  0  0  0  0
 17 38  1  0  0  0  0
 18 17  1  0  0  0  0
 19 20  1  0  0  0  0
 19 18  2  0  0  0  0
 20 15  2  0  0  0  0
 23  5  1  0  0  0  0
 25  5  1  0  0  0  0
 26  6  1  0  0  0  0
 28  8  1  0  0  0  0
 29  8  1  0  0  0  0
 30  8  1  0  0  0  0
 33 12  1  0  0  0  0
 35 12  1  0  0  0  0
 36 13  1  0  0  0  0
 39 18  1  0  0  0  0
 40 19  1  0  0  0  0
 41 20  1  0  0  0  0
M  END
