1
 OpenBabel05122313063D

 20 20  0  0  0  0  0  0  0  0999 V2000
   -0.2516   -0.1856    0.9892 N   0  0  0  0  0  2  0  0  0  0  0  0
   -2.6124   -0.4837    1.3415 C   0  0  0  0  0  0  0  0  0  0  0  0
   -0.0465   -0.2896    2.3238 C   0  0  0  0  0  3  0  0  0  0  0  0
    0.9988   -0.2184    2.6593 H   0  0  0  0  0  0  0  0  0  0  0  0
   -1.5070   -0.2827    0.5016 C   0  0  0  0  0  0  0  0  0  0  0  0
   -1.6328   -0.1804   -0.5855 H   0  0  0  0  0  0  0  0  0  0  0  0
   -4.0225   -0.5090   -0.5443 O   0  0  0  0  0  0  0  0  0  0  0  0
   -4.9942   -0.7047    1.5078 O   0  0  0  0  0  0  0  0  0  0  0  0
   -2.4074   -0.5884    2.7285 C   0  0  0  0  0  0  0  0  0  0  0  0
   -3.2776   -0.7428    3.3835 H   0  0  0  0  0  0  0  0  0  0  0  0
   -4.0074   -0.5783    0.8029 C   0  0  0  0  0  0  0  0  0  0  0  0
   -1.1014   -0.4916    3.2199 C   0  0  0  0  0  0  0  0  0  0  0  0
   -0.8847   -0.5707    4.2945 H   0  0  0  0  0  0  0  0  0  0  0  0
   -5.3195   -0.5453   -1.1865 C   0  0  0  0  0  0  0  0  0  0  0  0
   -5.9738   -1.2389   -0.6210 H   0  0  0  0  0  0  0  0  0  0  0  0
   -5.1174   -0.9648   -2.1907 H   0  0  0  0  0  0  0  0  0  0  0  0
   -5.9296    0.8435   -1.2684 C   0  0  0  0  0  0  0  0  0  0  0  0
   -6.8807    0.8036   -1.8366 H   0  0  0  0  0  0  0  0  0  0  0  0
   -5.2465    1.5465   -1.7848 H   0  0  0  0  0  0  0  0  0  0  0  0
   -6.1517    1.2354   -0.2567 H   0  0  0  0  0  0  0  0  0  0  0  0
  1  3  1  0  0  0  0
  2  9  1  0  0  0  0
  3  4  1  0  0  0  0
  3 12  1  0  0  0  0
  5  1  1  0  0  0  0
  5  2  2  0  0  0  0
  6  5  1  0  0  0  0
  7 11  1  0  0  0  0
  9 12  2  0  0  0  0
  9 10  1  0  0  0  0
 11  2  1  0  0  0  0
 11  8  2  0  0  0  0
 12 13  1  0  0  0  0
 14 15  1  0  0  0  0
 14  7  1  0  0  0  0
 16 14  1  0  0  0  0
 17 14  1  0  0  0  0
 17 20  1  0  0  0  0
 18 17  1  0  0  0  0
 19 17  1  0  0  0  0
M  END
