1
 OpenBabel05122313063D

 23 23  0  0  1  0  0  0  0  0999 V2000
   -1.3160   -1.7616    0.4668 N   0  0  0  0  0  2  0  0  0  0  0  0
   -2.0001    0.1167   -1.2784 O   0  0  0  0  0  0  0  0  0  0  0  0
   -2.2866    0.9702   -1.7505 H   0  0  0  0  0  0  0  0  0  0  0  0
   -3.2008    2.3007   -1.7128 O   0  0  0  0  0  0  0  0  0  0  0  0
   -0.9064   -2.7608    1.2885 C   0  0  0  0  0  3  0  0  0  0  0  0
    0.0780   -3.1966    1.0694 H   0  0  0  0  0  0  0  0  0  0  0  0
   -1.6773   -3.2176    2.3574 C   0  0  0  0  0  0  0  0  0  0  0  0
   -1.2969   -4.0295    2.9917 H   0  0  0  0  0  0  0  0  0  0  0  0
   -2.9269   -2.6257    2.5888 C   0  0  0  0  0  0  0  0  0  0  0  0
   -3.5681   -2.9670    3.4146 H   0  0  0  0  0  0  0  0  0  0  0  0
   -3.3495   -1.5946    1.7430 C   0  0  0  0  0  0  0  0  0  0  0  0
   -4.3310   -1.1198    1.8864 H   0  0  0  0  0  0  0  0  0  0  0  0
   -2.5195   -1.1746    0.6917 C   0  0  0  0  0  0  0  0  0  0  0  0
   -2.9652   -0.0666   -0.2458 C   0  0  1  0  0  0  0  0  0  0  0  0
   -3.9249   -0.3965   -0.7122 H   0  0  0  0  0  0  0  0  0  0  0  0
   -3.2096    1.2841    0.4574 C   0  0  0  0  0  0  0  0  0  0  0  0
   -2.2751    1.6190    0.9624 H   0  0  0  0  0  0  0  0  0  0  0  0
   -3.9871    1.2027    1.2425 H   0  0  0  0  0  0  0  0  0  0  0  0
   -3.5617    2.3883   -0.5347 C   0  0  0  0  0  0  0  0  0  0  0  0
   -4.3112    3.5805   -0.0251 C   0  0  0  0  0  0  0  0  0  0  0  0
   -5.3345    3.2764    0.2825 H   0  0  0  0  0  0  0  0  0  0  0  0
   -4.3742    4.3593   -0.8053 H   0  0  0  0  0  0  0  0  0  0  0  0
   -3.8129    3.9808    0.8821 H   0  0  0  0  0  0  0  0  0  0  0  0
  1 13  1  0  0  0  0
  1  5  1  0  0  0  0
  2 14  1  0  0  0  0
  3  2  1  0  0  0  0
  4 19  2  0  0  0  0
  5  7  1  0  0  0  0
  6  5  1  0  0  0  0
  7  9  2  0  0  0  0
  7  8  1  0  0  0  0
  9 10  1  0  0  0  0
 11 12  1  0  0  0  0
 11  9  1  0  0  0  0
 13 11  2  0  0  0  0
 14 15  1  6  0  0  0
 14 16  1  0  0  0  0
 14 13  1  0  0  0  0
 16 17  1  0  0  0  0
 16 18  1  0  0  0  0
 19 20  1  0  0  0  0
 19 16  1  0  0  0  0
 20 21  1  0  0  0  0
 20 23  1  0  0  0  0
 22 20  1  0  0  0  0
M  END
