3
 OpenBabel05122313063D

 33 34  0  0  0  0  0  0  0  0999 V2000
    2.9788   -1.1478    0.0822 N   0  0  0  0  0  2  0  0  0  0  0  0
    2.2912   -2.2211    0.0725 N   0  0  0  0  0  2  0  0  0  0  0  0
    0.9859   -1.9679    0.0889 N   0  0  0  0  0  2  0  0  0  0  0  0
    0.2167   -3.0526    0.0672 N   0  0  0  0  0  2  0  0  0  0  0  0
   -1.0229   -2.7495    0.0855 N   0  0  0  0  0  2  0  0  0  0  0  0
    4.3702   -1.3290    0.0615 C   0  0  0  0  0  0  0  0  0  0  0  0
    5.0241   -2.5865    0.0097 C   0  0  0  0  0  0  0  0  0  0  0  0
    6.4173   -2.6497   -0.0097 C   0  0  0  0  0  0  0  0  0  0  0  0
    7.2153   -1.4811    0.0214 C   0  0  0  0  0  0  0  0  0  0  0  0
    6.5556   -0.2373    0.0730 C   0  0  0  0  0  0  0  0  0  0  0  0
    5.1579   -0.1578    0.0925 C   0  0  0  0  0  0  0  0  0  0  0  0
    8.7194   -1.5774   -0.0004 C   0  0  0  0  0  0  0  0  0  0  0  0
   -1.9102   -3.8347    0.0414 C   0  0  0  0  0  0  0  0  0  0  0  0
   -3.2830   -3.5320    0.1784 C   0  0  0  0  0  0  0  0  0  0  0  0
   -4.2452   -4.5483    0.1371 C   0  0  0  0  0  0  0  0  0  0  0  0
   -3.8767   -5.8959   -0.0455 C   0  0  0  0  0  0  0  0  0  0  0  0
   -2.4989   -6.1892   -0.1820 C   0  0  0  0  0  0  0  0  0  0  0  0
   -1.5281   -5.1882   -0.1403 C   0  0  0  0  0  0  0  0  0  0  0  0
   -4.9055   -6.9963   -0.0989 C   0  0  0  0  0  0  0  0  0  0  0  0
    9.1007   -2.1601    0.8647 H   0  0  0  0  0  0  0  0  0  0  0  0
    4.4098   -3.4973   -0.0147 H   0  0  0  0  0  0  0  0  0  0  0  0
    6.9113   -3.6346   -0.0505 H   0  0  0  0  0  0  0  0  0  0  0  0
    7.1527    0.6883    0.0992 H   0  0  0  0  0  0  0  0  0  0  0  0
    4.6406    0.8123    0.1352 H   0  0  0  0  0  0  0  0  0  0  0  0
   -3.5702   -2.4805    0.3295 H   0  0  0  0  0  0  0  0  0  0  0  0
   -5.3109   -4.2922    0.2510 H   0  0  0  0  0  0  0  0  0  0  0  0
   -2.1862   -7.2365   -0.3266 H   0  0  0  0  0  0  0  0  0  0  0  0
   -0.4599   -5.4224   -0.2481 H   0  0  0  0  0  0  0  0  0  0  0  0
    9.1941   -0.5774    0.0303 H   0  0  0  0  0  0  0  0  0  0  0  0
    9.0793   -2.0952   -0.9147 H   0  0  0  0  0  0  0  0  0  0  0  0
   -4.7157   -7.7670    0.6777 H   0  0  0  0  0  0  0  0  0  0  0  0
   -5.9304   -6.6063    0.0548 H   0  0  0  0  0  0  0  0  0  0  0  0
   -4.8870   -7.5212   -1.0777 H   0  0  0  0  0  0  0  0  0  0  0  0
  2  1  1  0  0  0  0
  2  3  1  0  0  0  0
  4  5  1  0  0  0  0
  4  3  1  0  0  0  0
  6  1  1  0  0  0  0
  6 11  1  0  0  0  0
  7  6  2  0  0  0  0
  8  7  1  0  0  0  0
  8  9  2  0  0  0  0
  9 10  1  0  0  0  0
 10 11  2  0  0  0  0
 10 23  1  0  0  0  0
 11 24  1  0  0  0  0
 12  9  1  0  0  0  0
 12 29  1  0  0  0  0
 12 20  1  0  0  0  0
 13  5  1  0  0  0  0
 13 14  1  0  0  0  0
 14 25  1  0  0  0  0
 15 14  2  0  0  0  0
 15 26  1  0  0  0  0
 16 15  1  0  0  0  0
 17 18  1  0  0  0  0
 17 16  2  0  0  0  0
 18 13  2  0  0  0  0
 19 16  1  0  0  0  0
 19 32  1  0  0  0  0
 19 31  1  0  0  0  0
 21  7  1  0  0  0  0
 22  8  1  0  0  0  0
 27 17  1  0  0  0  0
 28 18  1  0  0  0  0
 30 12  1  0  0  0  0
 33 19  1  0  0  0  0
M  END
