11
 OpenBabel05122313063D

 37 39  0  0  1  0  0  0  0  0999 V2000
   -3.4858   -1.1213    0.8249 O   0  0  0  0  0  0  0  0  0  0  0  0
   -4.4068   -1.2418    1.1278 H   0  0  0  0  0  0  0  0  0  0  0  0
   -2.8137   -0.4188    1.7533 C   0  0  1  0  0  3  0  0  0  0  0  0
   -3.4695    0.0770    2.8979 C   0  0  0  0  0  0  0  0  0  0  0  0
   -4.5483   -0.0997    3.0240 H   0  0  0  0  0  0  0  0  0  0  0  0
   -2.7342    0.7772    3.8492 C   0  0  0  0  0  0  0  0  0  0  0  0
   -3.2229    1.1801    4.7481 H   0  0  0  0  0  0  0  0  0  0  0  0
   -1.3577    0.9376    3.6439 C   0  0  0  0  0  0  0  0  0  0  0  0
   -0.7288    1.4496    4.3845 H   0  0  0  0  0  0  0  0  0  0  0  0
   -0.7631    0.4089    2.4927 C   0  0  0  0  0  0  0  0  0  0  0  0
   -1.4929   -0.2285    1.5166 N   0  0  0  0  0  2  0  0  0  0  0  0
    0.7250    0.4721    2.3233 C   0  0  0  0  0  0  0  0  0  0  0  0
    1.1546   -0.4828    2.7012 H   0  0  0  0  0  0  0  0  0  0  0  0
    1.1868    1.3154    2.8709 H   0  0  0  0  0  0  0  0  0  0  0  0
    1.1439    0.4262    0.5321 P   0  0  0  0  0  0  0  0  0  0  0  0
    2.9212    0.0120    0.4202 C   0  0  0  0  0  0  0  0  0  0  0  0
    3.3158   -1.3415    0.3633 C   0  0  0  0  0  0  0  0  0  0  0  0
    2.5503   -2.1312    0.3926 H   0  0  0  0  0  0  0  0  0  0  0  0
    4.6790   -1.6675    0.3205 C   0  0  0  0  0  0  0  0  0  0  0  0
    4.9834   -2.7241    0.2802 H   0  0  0  0  0  0  0  0  0  0  0  0
    5.6507   -0.6539    0.3359 C   0  0  0  0  0  0  0  0  0  0  0  0
    6.7192   -0.9141    0.2988 H   0  0  0  0  0  0  0  0  0  0  0  0
    5.2594    0.6927    0.4063 C   0  0  0  0  0  0  0  0  0  0  0  0
    6.0183    1.4890    0.4283 H   0  0  0  0  0  0  0  0  0  0  0  0
    3.8992    1.0310    0.4496 C   0  0  0  0  0  0  0  0  0  0  0  0
    3.6024    2.0886    0.5047 H   0  0  0  0  0  0  0  0  0  0  0  0
    1.0080    2.1460   -0.0811 C   0  0  0  0  0  0  0  0  0  0  0  0
    1.5777    2.4867   -1.3293 C   0  0  0  0  0  0  0  0  0  0  0  0
    2.1862    1.7515   -1.8786 H   0  0  0  0  0  0  0  0  0  0  0  0
    1.3956    3.7697   -1.8635 C   0  0  0  0  0  0  0  0  0  0  0  0
    1.8493    4.0267   -2.8324 H   0  0  0  0  0  0  0  0  0  0  0  0
    0.6472    4.7278   -1.1586 C   0  0  0  0  0  0  0  0  0  0  0  0
    0.5087    5.7357   -1.5771 H   0  0  0  0  0  0  0  0  0  0  0  0
    0.0883    4.3993    0.0855 C   0  0  0  0  0  0  0  0  0  0  0  0
   -0.4893    5.1490    0.6464 H   0  0  0  0  0  0  0  0  0  0  0  0
    0.2639    3.1147    0.6231 C   0  0  0  0  0  0  0  0  0  0  0  0
   -0.1903    2.8761    1.5957 H   0  0  0  0  0  0  0  0  0  0  0  0
  1  2  1  0  0  0  0
  3  1  1  1  0  0  0
  3  4  1  0  0  0  0
  4  5  1  0  0  0  0
  4  6  2  0  0  0  0
  6  7  1  0  0  0  0
  8  6  1  0  0  0  0
  8  9  1  0  0  0  0
 10  8  2  0  0  0  0
 11  3  1  0  0  0  0
 11 10  1  0  0  0  0
 12 10  1  0  0  0  0
 12 13  1  0  0  0  0
 12 14  1  0  0  0  0
 15 12  1  0  0  0  0
 16 25  1  0  0  0  0
 16 15  1  0  0  0  0
 17 18  1  0  0  0  0
 17 16  2  0  0  0  0
 19 21  2  0  0  0  0
 19 17  1  0  0  0  0
 20 19  1  0  0  0  0
 21 23  1  0  0  0  0
 22 21  1  0  0  0  0
 23 24  1  0  0  0  0
 23 25  2  0  0  0  0
 25 26  1  0  0  0  0
 27 15  1  0  0  0  0
 27 36  1  0  0  0  0
 28 27  2  0  0  0  0
 29 28  1  0  0  0  0
 30 28  1  0  0  0  0
 30 32  2  0  0  0  0
 31 30  1  0  0  0  0
 32 34  1  0  0  0  0
 33 32  1  0  0  0  0
 34 36  2  0  0  0  0
 34 35  1  0  0  0  0
 36 37  1  0  0  0  0
M  END
