1
 OpenBabel05122313063D

 26 26  0  0  1  0  0  0  0  0999 V2000
   -1.0308   -1.7648   -0.0863 N   0  0  0  0  0  2  0  0  0  0  0  0
   -0.3434   -2.9824   -0.0732 N   0  0  0  0  0  0  0  0  0  0  0  0
   -2.3288   -1.8152   -0.2538 C   0  0  1  0  0  3  0  0  0  0  0  0
   -0.4291   -3.6504    1.2290 C   0  0  0  0  0  0  0  0  0  0  0  0
    1.0223   -2.8594   -0.5671 C   0  0  0  0  0  0  0  0  0  0  0  0
   -3.0387   -3.0819   -0.6177 C   0  0  0  0  0  0  0  0  0  0  0  0
   -3.1274   -0.5888   -0.0187 C   0  0  0  0  0  0  0  0  0  0  0  0
    0.0500   -3.0413    2.0285 H   0  0  0  0  0  0  0  0  0  0  0  0
   -1.4858   -3.8352    1.5023 H   0  0  0  0  0  0  0  0  0  0  0  0
    0.0778   -4.6314    1.1462 H   0  0  0  0  0  0  0  0  0  0  0  0
    1.6847   -2.3034    0.1356 H   0  0  0  0  0  0  0  0  0  0  0  0
    1.4259   -3.8809   -0.7143 H   0  0  0  0  0  0  0  0  0  0  0  0
    1.0118   -2.3326   -1.5385 H   0  0  0  0  0  0  0  0  0  0  0  0
   -2.3338   -3.7790   -1.1107 H   0  0  0  0  0  0  0  0  0  0  0  0
   -3.4439   -3.5853    0.2871 H   0  0  0  0  0  0  0  0  0  0  0  0
   -3.9076   -2.8548   -1.2650 H   0  0  0  0  0  0  0  0  0  0  0  0
   -4.0183   -0.1020   -0.9983 C   0  0  0  0  0  0  0  0  0  0  0  0
   -3.0403    0.0662    1.2298 C   0  0  0  0  0  0  0  0  0  0  0  0
   -4.7932    1.0363   -0.7417 C   0  0  0  0  0  0  0  0  0  0  0  0
   -4.0701   -0.5940   -1.9809 H   0  0  0  0  0  0  0  0  0  0  0  0
   -3.8426    1.1861    1.4908 C   0  0  0  0  0  0  0  0  0  0  0  0
   -2.3272   -0.3013    1.9839 H   0  0  0  0  0  0  0  0  0  0  0  0
   -4.7139    1.6778    0.5061 C   0  0  0  0  0  0  0  0  0  0  0  0
   -5.4641    1.4268   -1.5217 H   0  0  0  0  0  0  0  0  0  0  0  0
   -3.7749    1.6848    2.4696 H   0  0  0  0  0  0  0  0  0  0  0  0
   -5.3341    2.5641    0.7095 H   0  0  0  0  0  0  0  0  0  0  0  0
  1  2  1  0  0  0  0
  2  4  1  0  0  0  0
  3  1  1  1  0  0  0
  3  7  1  0  0  0  0
  4  9  1  0  0  0  0
  4  8  1  0  0  0  0
  5  2  1  0  0  0  0
  5 11  1  0  0  0  0
  6  3  1  0  0  0  0
  6 15  1  0  0  0  0
  7 18  1  0  0  0  0
 10  4  1  0  0  0  0
 12  5  1  0  0  0  0
 13  5  1  0  0  0  0
 14  6  1  0  0  0  0
 16  6  1  0  0  0  0
 17 19  1  0  0  0  0
 17  7  2  0  0  0  0
 18 21  2  0  0  0  0
 18 22  1  0  0  0  0
 19 23  2  0  0  0  0
 20 17  1  0  0  0  0
 21 25  1  0  0  0  0
 23 26  1  0  0  0  0
 23 21  1  0  0  0  0
 24 19  1  0  0  0  0
M  END
