26
 OpenBabel05122313063D

 40 43  0  0  0  0  0  0  0  0999 V2000
    2.9364    0.9850   -1.7552 C   0  0  0  0  0  0  0  0  0  0  0  0
    2.2225    1.8920   -2.6018 C   0  0  0  0  0  0  0  0  0  0  0  0
    1.3529    1.5433   -3.1771 H   0  0  0  0  0  0  0  0  0  0  0  0
    2.5813    3.2263   -2.6767 C   0  0  0  0  0  0  0  0  0  0  0  0
    2.0145    3.9017   -3.3350 H   0  0  0  0  0  0  0  0  0  0  0  0
    3.6613    3.7399   -1.9004 C   0  0  0  0  0  0  0  0  0  0  0  0
    3.9297    4.8040   -1.9743 H   0  0  0  0  0  0  0  0  0  0  0  0
    4.3567    2.9027   -1.0501 C   0  0  0  0  0  0  0  0  0  0  0  0
    5.1799    3.2881   -0.4297 H   0  0  0  0  0  0  0  0  0  0  0  0
    4.0162    1.5157   -0.9458 C   0  0  0  0  0  0  0  0  0  0  0  0
    4.3380   -0.6927    0.0937 C   0  0  0  0  0  0  0  0  0  0  0  0
    5.0395   -1.5394    1.0135 C   0  0  0  0  0  0  0  0  0  0  0  0
    5.8439   -1.0955    1.6196 H   0  0  0  0  0  0  0  0  0  0  0  0
    4.7283   -2.8798    1.1292 C   0  0  0  0  0  0  0  0  0  0  0  0
    5.2782   -3.5203    1.8343 H   0  0  0  0  0  0  0  0  0  0  0  0
    3.7072   -3.4414    0.3079 C   0  0  0  0  0  0  0  0  0  0  0  0
    3.4886   -4.5179    0.3733 H   0  0  0  0  0  0  0  0  0  0  0  0
    3.0009   -2.6554   -0.5875 C   0  0  0  0  0  0  0  0  0  0  0  0
    2.2450   -3.1233   -1.2319 H   0  0  0  0  0  0  0  0  0  0  0  0
    3.2681   -1.2503   -0.7160 C   0  0  0  0  0  0  0  0  0  0  0  0
    2.5775   -0.3914   -1.6262 C   0  0  0  0  0  0  0  0  0  0  0  0
    4.6802    0.6651   -0.0445 C   0  0  0  0  0  0  0  0  0  0  0  0
    5.4898    1.0755    0.5792 H   0  0  0  0  0  0  0  0  0  0  0  0
    1.4965   -0.8841   -2.4815 C   0  0  0  0  0  3  0  0  0  0  0  0
    1.5425   -0.6128   -3.5584 H   0  0  0  0  0  0  0  0  0  0  0  0
    0.4794   -1.5843   -2.0814 N   0  0  0  0  0  2  0  0  0  0  0  0
   -0.5375   -1.9485   -3.0630 C   0  0  0  0  0  0  0  0  0  0  0  0
   -0.7501   -3.0340   -2.9720 H   0  0  0  0  0  0  0  0  0  0  0  0
   -0.1567   -1.7558   -4.0897 H   0  0  0  0  0  0  0  0  0  0  0  0
   -1.8423   -1.1558   -2.8284 C   0  0  0  0  0  0  0  0  0  0  0  0
   -2.5568   -1.4389   -3.6278 H   0  0  0  0  0  0  0  0  0  0  0  0
   -2.3006   -1.4899   -1.8756 H   0  0  0  0  0  0  0  0  0  0  0  0
   -1.6534    0.3323   -2.8222 C   0  0  0  0  0  0  0  0  0  0  0  0
   -1.6298    1.2213   -3.8860 C   0  0  0  0  0  0  0  0  0  0  0  0
   -1.8068    0.9105   -4.9258 H   0  0  0  0  0  0  0  0  0  0  0  0
   -1.3855    2.5736   -3.4876 C   0  0  0  0  0  0  0  0  0  0  0  0
   -1.3516    3.4238   -4.1827 H   0  0  0  0  0  0  0  0  0  0  0  0
   -1.2157    2.7039   -2.1223 C   0  0  0  0  0  0  0  0  0  0  0  0
   -1.0302    3.6126   -1.5372 H   0  0  0  0  0  0  0  0  0  0  0  0
   -1.3581    1.1763   -1.3224 S   0  0  0  0  0  0  0  0  0  0  0  0
  1 21  2  0  0  0  0
  1 10  1  0  0  0  0
  2  1  1  0  0  0  0
  3  2  1  0  0  0  0
  4  2  2  0  0  0  0
  4  6  1  0  0  0  0
  5  4  1  0  0  0  0
  6  8  2  0  0  0  0
  7  6  1  0  0  0  0
  8 10  1  0  0  0  0
  8  9  1  0  0  0  0
 10 22  2  0  0  0  0
 11 12  1  0  0  0  0
 12 14  2  0  0  0  0
 12 13  1  0  0  0  0
 14 15  1  0  0  0  0
 16 17  1  0  0  0  0
 16 14  1  0  0  0  0
 18 16  2  0  0  0  0
 19 18  1  0  0  0  0
 20 18  1  0  0  0  0
 20 11  2  0  0  0  0
 21 20  1  0  0  0  0
 22 11  1  0  0  0  0
 22 23  1  0  0  0  0
 24 26  1  0  0  0  0
 24 21  1  0  0  0  0
 25 24  1  0  0  0  0
 27 28  1  0  0  0  0
 27 30  1  0  0  0  0
 27 26  1  0  0  0  0
 29 27  1  0  0  0  0
 30 33  1  0  0  0  0
 30 32  1  0  0  0  0
 31 30  1  0  0  0  0
 33 40  1  0  0  0  0
 34 36  1  0  0  0  0
 34 33  2  0  0  0  0
 35 34  1  0  0  0  0
 36 38  2  0  0  0  0
 37 36  1  0  0  0  0
 38 39  1  0  0  0  0
 38 40  1  0  0  0  0
M  END
