1
 OpenBabel05122313063D

 23 23  0  0  1  0  0  0  0  0999 V2000
    0.7091   -0.9348   -0.5888 N   0  0  0  0  0  0  0  0  0  0  0  0
    3.4521   -2.5232    1.1352 O   0  0  0  0  0  0  0  0  0  0  0  0
    3.0492   -2.1404   -1.0691 O   0  0  0  0  0  0  0  0  0  0  0  0
    1.6884   -0.9683    0.4995 C   0  0  2  0  0  0  0  0  0  0  0  0
    1.1804   -1.3218    1.4185 H   0  0  0  0  0  0  0  0  0  0  0  0
    2.3334    0.3840    0.7738 C   0  0  0  0  0  0  0  0  0  0  0  0
    2.9150    0.6151    2.0359 C   0  0  0  0  0  0  0  0  0  0  0  0
    2.8847   -0.1789    2.7979 H   0  0  0  0  0  0  0  0  0  0  0  0
    3.5377    1.8395    2.3177 C   0  0  0  0  0  0  0  0  0  0  0  0
    3.9825    2.0105    3.3097 H   0  0  0  0  0  0  0  0  0  0  0  0
    3.5916    2.8430    1.3366 C   0  0  0  0  0  0  0  0  0  0  0  0
    4.0772    3.8057    1.5568 H   0  0  0  0  0  0  0  0  0  0  0  0
    3.0229    2.6108    0.0745 C   0  0  0  0  0  0  0  0  0  0  0  0
    3.0578    3.3918   -0.7003 H   0  0  0  0  0  0  0  0  0  0  0  0
    2.3970    1.3873   -0.2128 C   0  0  0  0  0  0  0  0  0  0  0  0
    1.9140    1.2514   -1.1944 H   0  0  0  0  0  0  0  0  0  0  0  0
    2.8226   -1.9795    0.2509 C   0  0  0  0  0  0  0  0  0  0  0  0
    4.1348   -3.0152   -1.4142 C   0  0  0  0  0  0  0  0  0  0  0  0
    5.0904   -2.6218   -1.0137 H   0  0  0  0  0  0  0  0  0  0  0  0
    4.1595   -3.0488   -2.5172 H   0  0  0  0  0  0  0  0  0  0  0  0
    3.9675   -4.0274   -0.9959 H   0  0  0  0  0  0  0  0  0  0  0  0
    0.3297   -1.8780   -0.7977 H   0  0  0  0  0  0  0  0  0  0  0  0
    1.1364   -0.6238   -1.4822 H   0  0  0  0  0  0  0  0  0  0  0  0
  1  4  1  0  0  0  0
  3 17  1  0  0  0  0
  4  6  1  0  0  0  0
  4  5  1  1  0  0  0
  6  7  1  0  0  0  0
  7  9  2  0  0  0  0
  7  8  1  0  0  0  0
  9 10  1  0  0  0  0
 11 12  1  0  0  0  0
 11  9  1  0  0  0  0
 13 11  2  0  0  0  0
 14 13  1  0  0  0  0
 15 13  1  0  0  0  0
 15  6  2  0  0  0  0
 16 15  1  0  0  0  0
 17  4  1  0  0  0  0
 17  2  2  0  0  0  0
 18  3  1  0  0  0  0
 18 19  1  0  0  0  0
 18 21  1  0  0  0  0
 20 18  1  0  0  0  0
 22  1  1  0  0  0  0
 23  1  1  0  0  0  0
M  END
