5
 OpenBabel05122313063D

 43 42  0  0  0  0  0  0  0  0999 V2000
    1.1546   -2.2956    0.6194 P   0  0  0  0  0  0  0  0  0  0  0  0
   -1.4585    1.9976   -0.9163 P   0  0  0  0  0  0  0  0  0  0  0  0
    2.9342    0.0831    0.1687 Si  0  0  0  0  0  0  0  0  0  0  0  0
    0.8972    2.1518    1.0738 Si  0  0  0  0  0  0  0  0  0  0  0  0
    1.2563    0.6347    0.2469 N   0  0  0  0  0  2  0  0  0  0  0  0
    2.8745   -1.8405    0.1458 C   0  0  0  0  0  0  0  0  0  0  0  0
   -0.9225    2.6442    0.7189 C   0  0  0  0  0  0  0  0  0  0  0  0
    1.0521   -4.1392    0.5383 C   0  0  0  0  0  0  0  0  0  0  0  0
    1.1411   -2.0327    2.4488 C   0  0  0  0  0  0  0  0  0  0  0  0
   -3.2784    2.2836   -0.9879 C   0  0  0  0  0  0  0  0  0  0  0  0
   -0.8142    3.2498   -2.1111 C   0  0  0  0  0  0  0  0  0  0  0  0
    4.0024    0.5461    1.6713 C   0  0  0  0  0  0  0  0  0  0  0  0
    3.8068    0.7303   -1.3792 C   0  0  0  0  0  0  0  0  0  0  0  0
    2.0148    3.5686    0.4814 C   0  0  0  0  0  0  0  0  0  0  0  0
    1.0312    2.0343    2.9622 C   0  0  0  0  0  0  0  0  0  0  0  0
    3.6445   -2.2948    0.8065 H   0  0  0  0  0  0  0  0  0  0  0  0
    3.0413   -2.2106   -0.8874 H   0  0  0  0  0  0  0  0  0  0  0  0
   -1.0796    3.7404    0.8139 H   0  0  0  0  0  0  0  0  0  0  0  0
   -1.5635    2.1390    1.4726 H   0  0  0  0  0  0  0  0  0  0  0  0
    0.0510   -4.4544    0.8942 H   0  0  0  0  0  0  0  0  0  0  0  0
    1.1721   -4.4852   -0.5058 H   0  0  0  0  0  0  0  0  0  0  0  0
    1.8314   -4.6126    1.1691 H   0  0  0  0  0  0  0  0  0  0  0  0
    0.1627   -2.3567    2.8539 H   0  0  0  0  0  0  0  0  0  0  0  0
    1.9545   -2.6016    2.9435 H   0  0  0  0  0  0  0  0  0  0  0  0
    1.2647   -0.9531    2.6557 H   0  0  0  0  0  0  0  0  0  0  0  0
   -3.6624    1.9709   -1.9795 H   0  0  0  0  0  0  0  0  0  0  0  0
   -3.7657    1.6573   -0.2159 H   0  0  0  0  0  0  0  0  0  0  0  0
   -3.5193    3.3530   -0.8213 H   0  0  0  0  0  0  0  0  0  0  0  0
   -1.1751    2.9993   -3.1277 H   0  0  0  0  0  0  0  0  0  0  0  0
   -1.1419    4.2758   -1.8459 H   0  0  0  0  0  0  0  0  0  0  0  0
    0.2916    3.2064   -2.1205 H   0  0  0  0  0  0  0  0  0  0  0  0
    4.0914    1.6407    1.8200 H   0  0  0  0  0  0  0  0  0  0  0  0
    3.6052    0.1036    2.6070 H   0  0  0  0  0  0  0  0  0  0  0  0
    5.0276    0.1481    1.5194 H   0  0  0  0  0  0  0  0  0  0  0  0
    3.9070    1.8340   -1.3311 H   0  0  0  0  0  0  0  0  0  0  0  0
    4.8233    0.2980   -1.4858 H   0  0  0  0  0  0  0  0  0  0  0  0
    3.2244    0.4845   -2.2893 H   0  0  0  0  0  0  0  0  0  0  0  0
    3.0785    3.3879    0.7365 H   0  0  0  0  0  0  0  0  0  0  0  0
    1.9528    3.6991   -0.6177 H   0  0  0  0  0  0  0  0  0  0  0  0
    1.7157    4.5253    0.9579 H   0  0  0  0  0  0  0  0  0  0  0  0
    2.0610    1.8098    3.3014 H   0  0  0  0  0  0  0  0  0  0  0  0
    0.7232    2.9960    3.4238 H   0  0  0  0  0  0  0  0  0  0  0  0
    0.3576    1.2458    3.3561 H   0  0  0  0  0  0  0  0  0  0  0  0
  1  9  1  0  0  0  0
  2  7  1  0  0  0  0
  3  5  1  0  0  0  0
  3 12  1  0  0  0  0
  4 15  1  0  0  0  0
  5  4  1  0  0  0  0
  6  3  1  0  0  0  0
  6  1  1  0  0  0  0
  6 16  1  0  0  0  0
  7 18  1  0  0  0  0
  7  4  1  0  0  0  0
  7 19  1  0  0  0  0
  8  1  1  0  0  0  0
  8 20  1  0  0  0  0
  8 22  1  0  0  0  0
  9 25  1  0  0  0  0
  9 23  1  0  0  0  0
  9 24  1  0  0  0  0
 10  2  1  0  0  0  0
 10 28  1  0  0  0  0
 10 27  1  0  0  0  0
 11 30  1  0  0  0  0
 11  2  1  0  0  0  0
 12 32  1  0  0  0  0
 12 33  1  0  0  0  0
 13 35  1  0  0  0  0
 13  3  1  0  0  0  0
 14 38  1  0  0  0  0
 14 40  1  0  0  0  0
 14  4  1  0  0  0  0
 15 41  1  0  0  0  0
 15 43  1  0  0  0  0
 15 42  1  0  0  0  0
 17  6  1  0  0  0  0
 21  8  1  0  0  0  0
 26 10  1  0  0  0  0
 29 11  1  0  0  0  0
 31 11  1  0  0  0  0
 34 12  1  0  0  0  0
 36 13  1  0  0  0  0
 37 13  1  0  0  0  0
 39 14  1  0  0  0  0
M  END
