1
 OpenBabel05122313063D

 17 17  0  0  0  0  0  0  0  0999 V2000
    1.8584    0.8081   -0.0344 N   0  0  0  0  0  2  0  0  0  0  0  0
    1.7318   -3.8249    0.1310 Cl  0  0  0  0  0  0  0  0  0  0  0  0
    1.9641    2.1228    0.2577 C   0  0  0  0  0  3  0  0  0  0  0  0
    1.0205    2.6536    0.4557 H   0  0  0  0  0  0  0  0  0  0  0  0
    3.2011    2.7714    0.2915 C   0  0  0  0  0  0  0  0  0  0  0  0
    3.2436    3.8439    0.5262 H   0  0  0  0  0  0  0  0  0  0  0  0
    4.3579    2.0275    0.0232 C   0  0  0  0  0  0  0  0  0  0  0  0
    5.3497    2.5036    0.0450 H   0  0  0  0  0  0  0  0  0  0  0  0
    4.2323    0.6661   -0.2770 C   0  0  0  0  0  0  0  0  0  0  0  0
    5.1160    0.0505   -0.4978 H   0  0  0  0  0  0  0  0  0  0  0  0
    2.9625    0.0638   -0.3095 C   0  0  0  0  0  0  0  0  0  0  0  0
    2.7649   -1.3929   -0.6376 C   0  0  0  0  0  0  0  0  0  0  0  0
    3.6667   -1.7930   -1.1407 H   0  0  0  0  0  0  0  0  0  0  0  0
    1.9167   -1.4555   -1.3530 H   0  0  0  0  0  0  0  0  0  0  0  0
    2.4364   -2.2287    0.6058 C   0  0  0  0  0  0  0  0  0  0  0  0
    1.6844   -1.7250    1.2463 H   0  0  0  0  0  0  0  0  0  0  0  0
    3.3379   -2.4419    1.2120 H   0  0  0  0  0  0  0  0  0  0  0  0
  1  3  1  0  0  0  0
  2 15  1  0  0  0  0
  3  5  1  0  0  0  0
  3  4  1  0  0  0  0
  5  6  1  0  0  0  0
  7  8  1  0  0  0  0
  7  5  2  0  0  0  0
  9  7  1  0  0  0  0
 10  9  1  0  0  0  0
 11  9  2  0  0  0  0
 11  1  1  0  0  0  0
 12 11  1  0  0  0  0
 12 15  1  0  0  0  0
 13 12  1  0  0  0  0
 14 12  1  0  0  0  0
 15 17  1  0  0  0  0
 15 16  1  0  0  0  0
M  END
