1
 OpenBabel05122313063D

 34 37  0  0  0  0  0  0  0  0999 V2000
   -0.5414    0.2564   -0.3367 N   0  0  0  0  0  2  0  0  0  0  0  0
    1.6649   -0.0897   -0.3511 N   0  0  0  0  0  0  0  0  0  0  0  0
    2.9614   -2.0365    0.2130 N   0  0  0  0  0  0  0  0  0  0  0  0
    4.1748   -2.4912    0.0336 N   0  0  0  0  0  0  0  0  0  0  0  0
    4.8677   -1.5594   -0.6575 N   0  0  0  0  0  0  0  0  0  0  0  0
    0.4128   -0.6638   -0.3658 C   0  0  0  0  0  3  0  0  0  0  0  0
    0.2338   -1.7426   -0.4445 H   0  0  0  0  0  0  0  0  0  0  0  0
    0.0848    1.5031   -0.3123 C   0  0  0  0  0  0  0  0  0  0  0  0
   -0.4521    2.8011   -0.2928 C   0  0  0  0  0  0  0  0  0  0  0  0
   -1.5379    2.9388   -0.3737 H   0  0  0  0  0  0  0  0  0  0  0  0
    0.4513    3.8683   -0.2369 C   0  0  0  0  0  0  0  0  0  0  0  0
    0.0664    4.8989   -0.2311 H   0  0  0  0  0  0  0  0  0  0  0  0
    1.8507    3.6562   -0.1981 C   0  0  0  0  0  0  0  0  0  0  0  0
    2.5262    4.5228   -0.1429 H   0  0  0  0  0  0  0  0  0  0  0  0
    2.3991    2.3672   -0.2370 C   0  0  0  0  0  0  0  0  0  0  0  0
    3.4853    2.2074   -0.1981 H   0  0  0  0  0  0  0  0  0  0  0  0
    1.4917    1.2989   -0.3064 C   0  0  0  0  0  0  0  0  0  0  0  0
    2.8669   -0.8063   -0.3686 C   0  0  0  0  0  0  0  0  0  0  0  0
    4.0920   -0.4732   -0.9405 C   0  0  0  0  0  0  0  0  0  0  0  0
    4.4515    0.3903   -1.5052 H   0  0  0  0  0  0  0  0  0  0  0  0
    6.2850   -1.7583   -0.9431 C   0  0  0  0  0  0  0  0  0  0  0  0
    6.4474   -1.6827   -2.0370 H   0  0  0  0  0  0  0  0  0  0  0  0
    6.4878   -2.8047   -0.6392 H   0  0  0  0  0  0  0  0  0  0  0  0
    7.1659   -0.7777   -0.1972 C   0  0  0  0  0  0  0  0  0  0  0  0
    7.0537   -0.6556    1.2027 C   0  0  0  0  0  0  0  0  0  0  0  0
    6.3200   -1.2744    1.7434 H   0  0  0  0  0  0  0  0  0  0  0  0
    7.8654    0.2486    1.8999 C   0  0  0  0  0  0  0  0  0  0  0  0
    7.7713    0.3371    2.9928 H   0  0  0  0  0  0  0  0  0  0  0  0
    8.7996    1.0381    1.2074 C   0  0  0  0  0  0  0  0  0  0  0  0
    9.4371    1.7473    1.7566 H   0  0  0  0  0  0  0  0  0  0  0  0
    8.9161    0.9209   -0.1854 C   0  0  0  0  0  0  0  0  0  0  0  0
    9.6438    1.5380   -0.7336 H   0  0  0  0  0  0  0  0  0  0  0  0
    8.0986    0.0184   -0.8851 C   0  0  0  0  0  0  0  0  0  0  0  0
    8.1881   -0.0697   -1.9798 H   0  0  0  0  0  0  0  0  0  0  0  0
  1  8  1  0  0  0  0
  2 17  1  0  0  0  0
  4  3  2  0  0  0  0
  5  4  1  0  0  0  0
  6  2  1  0  0  0  0
  6  1  1  0  0  0  0
  7  6  1  0  0  0  0
  8 17  2  0  0  0  0
  8  9  1  0  0  0  0
  9 11  2  0  0  0  0
 10  9  1  0  0  0  0
 11 12  1  0  0  0  0
 11 13  1  0  0  0  0
 13 14  1  0  0  0  0
 15 13  2  0  0  0  0
 15 16  1  0  0  0  0
 17 15  1  0  0  0  0
 18  2  1  0  0  0  0
 18  3  1  0  0  0  0
 19  5  1  0  0  0  0
 19 18  2  0  0  0  0
 20 19  1  0  0  0  0
 21  5  1  0  0  0  0
 21 23  1  0  0  0  0
 21 24  1  0  0  0  0
 22 21  1  0  0  0  0
 24 25  1  0  0  0  0
 25 26  1  0  0  0  0
 25 27  2  0  0  0  0
 27 28  1  0  0  0  0
 29 30  1  0  0  0  0
 29 27  1  0  0  0  0
 31 29  2  0  0  0  0
 32 31  1  0  0  0  0
 33 24  2  0  0  0  0
 33 31  1  0  0  0  0
 34 33  1  0  0  0  0
M  END
