2
 OpenBabel05122313063D

 31 34  0  0  1  0  0  0  0  0999 V2000
   -1.0395    0.1035   -0.0242 P   0  0  0  0  0  0  0  0  0  0  0  0
    0.3519    0.5856    0.9342 N   0  0  1  0  0  0  0  0  0  0  0  0
   -1.8837    1.5626    0.2709 N   0  0  2  0  0  0  0  0  0  0  0  0
   -2.8549   -0.5008   -0.9836 N   0  3  2  0  0  0  0  0  0  0  0  0
   -1.3279   -1.2596    0.9464 N   0  0  1  0  0  0  0  0  0  0  0  0
    0.2952    2.0508    1.0957 C   0  0  0  0  0  0  0  0  0  0  0  0
   -1.1929    2.4296    1.2260 C   0  0  0  0  0  0  0  0  0  0  0  0
   -3.3202    1.6079    0.1231 C   0  0  0  0  0  0  0  0  0  0  0  0
   -3.6709    0.7264   -1.0805 C   0  0  0  0  0  0  0  0  0  0  0  0
   -3.3752   -1.6332   -0.1895 C   0  0  0  0  0  0  0  0  0  0  0  0
   -2.1519   -2.3255    0.4137 C   0  0  0  0  0  0  0  0  0  0  0  0
   -0.2071   -1.5621    1.8451 C   0  0  0  0  0  0  0  0  0  0  0  0
    0.4058   -0.2034    2.1837 C   0  0  0  0  0  0  0  0  0  0  0  0
   -0.4443    0.0592   -1.3151 H   0  0  0  0  0  0  0  0  0  0  0  0
    0.9045    2.3600    1.9654 H   0  0  0  0  0  0  0  0  0  0  0  0
    0.7260    2.5007    0.1762 H   0  0  0  0  0  0  0  0  0  0  0  0
   -1.3551    3.4968    0.9638 H   0  0  0  0  0  0  0  0  0  0  0  0
   -1.5768    2.2740    2.2647 H   0  0  0  0  0  0  0  0  0  0  0  0
   -3.8531    1.2625    1.0463 H   0  0  0  0  0  0  0  0  0  0  0  0
   -3.6628    2.6465   -0.0717 H   0  0  0  0  0  0  0  0  0  0  0  0
   -2.5499   -0.8270   -1.9115 H   0  0  0  0  0  0  0  0  0  0  0  0
   -3.3763    1.2460   -2.0127 H   0  0  0  0  0  0  0  0  0  0  0  0
   -4.7559    0.4965   -1.1324 H   0  0  0  0  0  0  0  0  0  0  0  0
   -4.0073   -1.2161    0.6193 H   0  0  0  0  0  0  0  0  0  0  0  0
   -3.9952   -2.3139   -0.8087 H   0  0  0  0  0  0  0  0  0  0  0  0
   -1.5967   -2.9265   -0.3465 H   0  0  0  0  0  0  0  0  0  0  0  0
   -2.4628   -3.0088    1.2308 H   0  0  0  0  0  0  0  0  0  0  0  0
   -0.5842   -2.0712    2.7563 H   0  0  0  0  0  0  0  0  0  0  0  0
    0.5330   -2.2113    1.3263 H   0  0  0  0  0  0  0  0  0  0  0  0
   -0.1800    0.2972    2.9888 H   0  0  0  0  0  0  0  0  0  0  0  0
    1.4696   -0.2944    2.4900 H   0  0  0  0  0  0  0  0  0  0  0  0
  1  3  1  0  0  0  0
  1  2  1  0  0  0  0
  1  5  1  0  0  0  0
  2  6  1  1  0  0  0
  2 13  1  0  0  0  0
  3  8  1  1  0  0  0
  3  7  1  0  0  0  0
  4 21  1  6  0  0  0
  4 10  1  0  0  0  0
  4  1  1  0  0  0  0
  5 11  1  6  0  0  0
  5 12  1  0  0  0  0
  6  7  1  0  0  0  0
  6 15  1  0  0  0  0
  7 18  1  0  0  0  0
  8 19  1  0  0  0  0
  9  4  1  0  0  0  0
  9  8  1  0  0  0  0
 10 11  1  0  0  0  0
 10 24  1  0  0  0  0
 11 27  1  0  0  0  0
 12 13  1  0  0  0  0
 12 28  1  0  0  0  0
 13 31  1  0  0  0  0
 13 30  1  0  0  0  0
 14  1  1  0  0  0  0
 16  6  1  0  0  0  0
 17  7  1  0  0  0  0
 20  8  1  0  0  0  0
 22  9  1  0  0  0  0
 23  9  1  0  0  0  0
 25 10  1  0  0  0  0
 26 11  1  0  0  0  0
 29 12  1  0  0  0  0
M  CHG  1   4   1
M  END
