1
 OpenBabel05122313063D

 44 49  0  0  1  0  0  0  0  0999 V2000
    0.6013    1.3087   -0.6497 N   0  0  0  0  0  2  0  0  0  0  0  0
    2.9929    1.6200   -0.5974 N   0  0  0  0  0  0  0  0  0  0  0  0
    3.8228    1.0424   -0.7669 H   0  0  0  0  0  0  0  0  0  0  0  0
    0.8200   -2.9048    0.3533 B   0  0  1  0  0  0  0  0  0  0  0  0
   -0.0537   -3.3202    1.0708 H   0  0  0  0  0  0  0  0  0  0  0  0
    2.4928   -2.8464    0.9715 B   0  0  0  0  0  0  0  0  0  0  0  0
    2.7544   -3.2154    2.0892 H   0  0  0  0  0  0  0  0  0  0  0  0
    3.2226   -1.3403    0.3839 B   0  0  0  0  0  0  0  0  0  0  0  0
    3.9292   -0.6198    1.0391 H   0  0  0  0  0  0  0  0  0  0  0  0
    3.2796   -1.4068   -1.4045 B   0  0  1  0  0  0  0  0  0  0  0  0
    4.1063   -0.7280   -1.9702 H   0  0  0  0  0  0  0  0  0  0  0  0
    1.5895   -1.4656   -2.0050 B   0  0  2  0  0  0  0  0  0  0  0  0
    1.2930   -0.8175   -2.9789 H   0  0  0  0  0  0  0  0  0  0  0  0
    0.8489   -2.9635   -1.4210 B   0  0  1  0  0  0  0  0  0  0  0  0
    0.0090   -3.5486   -2.0610 H   0  0  0  0  0  0  0  0  0  0  0  0
    2.0829   -3.8420   -0.4598 B   0  0  1  0  0  0  0  0  0  0  0  0
    2.1032   -5.0491   -0.3880 H   0  0  0  0  0  0  0  0  0  0  0  0
    3.5892   -2.8667   -0.4383 B   0  0  2  0  0  0  0  0  0  0  0  0
    4.6960   -3.3475   -0.3714 H   0  0  0  0  0  0  0  0  0  0  0  0
    2.5739   -2.9493   -1.9211 B   0  0  2  0  0  0  0  0  0  0  0  0
    2.9601   -3.4946   -2.9289 H   0  0  0  0  0  0  0  0  0  0  0  0
    1.5567   -1.4435    0.7823 C   0  0  2  0  0  0  0  0  0  0  0  0
    2.0175   -0.6195   -0.6093 C   0  0  1  0  0  0  0  0  0  0  0  0
    1.8452    0.8729   -0.5952 C   0  0  2  0  0  3  0  0  0  0  0  0
    0.3482    2.7285   -0.9632 C   0  0  0  0  0  0  0  0  0  0  0  0
    1.3224    3.2113   -1.1790 H   0  0  0  0  0  0  0  0  0  0  0  0
   -0.4627    2.8061   -2.2584 C   0  0  0  0  0  0  0  0  0  0  0  0
   -1.4085    2.2480   -2.1563 H   0  0  0  0  0  0  0  0  0  0  0  0
    0.1026    2.3541   -3.0965 H   0  0  0  0  0  0  0  0  0  0  0  0
   -0.6878    3.8614   -2.5123 H   0  0  0  0  0  0  0  0  0  0  0  0
   -0.3050    3.4457    0.2194 C   0  0  0  0  0  0  0  0  0  0  0  0
   -1.2513    2.9423    0.4925 H   0  0  0  0  0  0  0  0  0  0  0  0
   -0.5163    4.5043   -0.0303 H   0  0  0  0  0  0  0  0  0  0  0  0
    0.3463    3.4139    1.1156 H   0  0  0  0  0  0  0  0  0  0  0  0
    3.2860    2.7822    0.2678 C   0  0  0  0  0  0  0  0  0  0  0  0
    2.3222    3.2733    0.4933 H   0  0  0  0  0  0  0  0  0  0  0  0
    4.1797    3.7660   -0.4881 C   0  0  0  0  0  0  0  0  0  0  0  0
    5.1468    3.2917   -0.7575 H   0  0  0  0  0  0  0  0  0  0  0  0
    4.4050    4.6523    0.1372 H   0  0  0  0  0  0  0  0  0  0  0  0
    3.6969    4.1082   -1.4250 H   0  0  0  0  0  0  0  0  0  0  0  0
    3.8938    2.3226    1.5977 C   0  0  0  0  0  0  0  0  0  0  0  0
    3.2048    1.6242    2.1144 H   0  0  0  0  0  0  0  0  0  0  0  0
    4.0788    3.1926    2.2598 H   0  0  0  0  0  0  0  0  0  0  0  0
    4.8638    1.8071    1.4370 H   0  0  0  0  0  0  0  0  0  0  0  0
  2 24  1  0  0  0  0
  2 35  1  0  0  0  0
  3  2  1  0  0  0  0
  4 22  1  0  0  0  0
  4  5  1  1  0  0  0
  6  7  1  0  0  0  0
  8  9  1  0  0  0  0
 10 11  1  6  0  0  0
 10 23  1  0  0  0  0
 10 18  1  0  0  0  0
 12 13  1  6  0  0  0
 12 20  1  0  0  0  0
 12 14  1  0  0  0  0
 12 23  1  0  0  0  0
 14 15  1  6  0  0  0
 14 16  1  0  0  0  0
 14  4  1  0  0  0  0
 16 17  1  1  0  0  0
 16  4  1  0  0  0  0
 18 19  1  1  0  0  0
 18  8  1  0  0  0  0
 18  6  1  0  0  0  0
 20 21  1  6  0  0  0
 20 10  1  0  0  0  0
 20 16  1  0  0  0  0
 22  8  1  1  0  0  0
 22  6  1  0  0  0  0
 23 24  1  6  0  0  0
 23 22  1  0  0  0  0
 24  1  1  6  0  0  0
 25  1  1  0  0  0  0
 25 31  1  0  0  0  0
 26 25  1  0  0  0  0
 27 28  1  0  0  0  0
 27 25  1  0  0  0  0
 29 27  1  0  0  0  0
 30 27  1  0  0  0  0
 31 32  1  0  0  0  0
 31 34  1  0  0  0  0
 33 31  1  0  0  0  0
 35 36  1  0  0  0  0
 35 41  1  0  0  0  0
 37 39  1  0  0  0  0
 37 35  1  0  0  0  0
 38 37  1  0  0  0  0
 40 37  1  0  0  0  0
 41 42  1  0  0  0  0
 41 43  1  0  0  0  0
 44 41  1  0  0  0  0
M  END
