1
 OpenBabel05122313063D

 11 11  0  0  0  0  0  0  0  0999 V2000
    2.5757   -0.9694   -1.5602 N   0  0  0  0  0  0  0  0  0  0  0  0
    2.8882   -0.0920   -1.9974 H   0  0  0  0  0  0  0  0  0  0  0  0
    2.0382   -1.8906   -2.6375 C   0  0  0  0  0  0  0  0  0  0  0  0
    3.3959   -2.6231   -2.7144 C   0  0  0  0  0  0  0  0  0  0  0  0
    3.7661   -1.8949   -1.4037 C   0  0  0  0  0  0  0  0  0  0  0  0
    1.6689   -1.3550   -3.5337 H   0  0  0  0  0  0  0  0  0  0  0  0
    1.2340   -2.5157   -2.2063 H   0  0  0  0  0  0  0  0  0  0  0  0
    3.3589   -3.7270   -2.6654 H   0  0  0  0  0  0  0  0  0  0  0  0
    4.0132   -2.3155   -3.5805 H   0  0  0  0  0  0  0  0  0  0  0  0
    3.6195   -2.5192   -0.5026 H   0  0  0  0  0  0  0  0  0  0  0  0
    4.7364   -1.3632   -1.3484 H   0  0  0  0  0  0  0  0  0  0  0  0
  1  5  1  0  0  0  0
  2  1  1  0  0  0  0
  3  7  1  0  0  0  0
  3  1  1  0  0  0  0
  4  8  1  0  0  0  0
  4  3  1  0  0  0  0
  4  5  1  0  0  0  0
  5 11  1  0  0  0  0
  5 10  1  0  0  0  0
  6  3  1  0  0  0  0
  9  4  1  0  0  0  0
M  END
