1
 OpenBabel05122313063D

 57 59  0  0  0  0  0  0  0  0999 V2000
    0.5144    0.8749   -0.1383 N   0  0  0  0  0  2  0  0  0  0  0  0
   -0.9910   -0.8871   -0.2278 N   0  0  0  0  0  0  0  0  0  0  0  0
   -0.2520   -1.3597   -0.7752 H   0  0  0  0  0  0  0  0  0  0  0  0
   -1.7525    1.3366    0.1765 N   0  0  0  0  0  0  0  0  0  0  0  0
   -1.4237    2.2313    0.5517 H   0  0  0  0  0  0  0  0  0  0  0  0
   -0.7407    0.4431   -0.0608 C   0  0  0  0  0  3  0  0  0  0  0  0
    0.7705    2.2567   -0.4001 C   0  0  0  0  0  0  0  0  0  0  0  0
    0.4391    2.8045   -1.6712 C   0  0  0  0  0  0  0  0  0  0  0  0
    0.7174    4.1679   -1.8723 C   0  0  0  0  0  0  0  0  0  0  0  0
    0.4747    4.6168   -2.8487 H   0  0  0  0  0  0  0  0  0  0  0  0
    1.3038    4.9614   -0.8749 C   0  0  0  0  0  0  0  0  0  0  0  0
    1.5104    6.0243   -1.0770 H   0  0  0  0  0  0  0  0  0  0  0  0
    1.6444    4.4136    0.3758 C   0  0  0  0  0  0  0  0  0  0  0  0
    1.3666    3.0509    0.5965 C   0  0  0  0  0  0  0  0  0  0  0  0
    1.6346    2.5615    1.5460 H   0  0  0  0  0  0  0  0  0  0  0  0
   -0.1779    1.9605   -2.7544 C   0  0  0  0  0  0  0  0  0  0  0  0
   -1.2606    1.7897   -2.5694 H   0  0  0  0  0  0  0  0  0  0  0  0
    0.3062    0.9641   -2.8095 H   0  0  0  0  0  0  0  0  0  0  0  0
   -0.0894    2.4568   -3.7397 H   0  0  0  0  0  0  0  0  0  0  0  0
    2.3073    5.2380    1.4508 C   0  0  0  0  0  0  0  0  0  0  0  0
    2.3414    6.3114    1.1813 H   0  0  0  0  0  0  0  0  0  0  0  0
    3.3501    4.8985    1.6252 H   0  0  0  0  0  0  0  0  0  0  0  0
    1.7778    5.1421    2.4208 H   0  0  0  0  0  0  0  0  0  0  0  0
   -2.0724   -1.6490    0.2549 C   0  0  0  0  0  0  0  0  0  0  0  0
   -2.5285   -2.7361   -0.5351 C   0  0  0  0  0  0  0  0  0  0  0  0
   -3.6477   -3.4471   -0.0689 C   0  0  0  0  0  0  0  0  0  0  0  0
   -4.0177   -4.2969   -0.6643 H   0  0  0  0  0  0  0  0  0  0  0  0
   -4.3111   -3.0891    1.1138 C   0  0  0  0  0  0  0  0  0  0  0  0
   -5.2002   -3.6540    1.4340 H   0  0  0  0  0  0  0  0  0  0  0  0
   -3.8479   -2.0171    1.9005 C   0  0  0  0  0  0  0  0  0  0  0  0
   -2.7038   -1.3254    1.4680 C   0  0  0  0  0  0  0  0  0  0  0  0
   -2.3004   -0.5030    2.0764 H   0  0  0  0  0  0  0  0  0  0  0  0
   -1.8524   -3.0769   -1.8368 C   0  0  0  0  0  0  0  0  0  0  0  0
   -0.7759   -3.3216   -1.7089 H   0  0  0  0  0  0  0  0  0  0  0  0
   -1.8811   -2.2228   -2.5478 H   0  0  0  0  0  0  0  0  0  0  0  0
   -2.3390   -3.9431   -2.3236 H   0  0  0  0  0  0  0  0  0  0  0  0
   -4.5670   -1.5834    3.1520 C   0  0  0  0  0  0  0  0  0  0  0  0
   -5.1657   -0.6675    2.9548 H   0  0  0  0  0  0  0  0  0  0  0  0
   -3.8569   -1.3380    3.9673 H   0  0  0  0  0  0  0  0  0  0  0  0
   -5.2603   -2.3642    3.5200 H   0  0  0  0  0  0  0  0  0  0  0  0
   -3.1331    1.2087   -0.0908 C   0  0  0  0  0  0  0  0  0  0  0  0
   -4.0454    1.8376    0.7950 C   0  0  0  0  0  0  0  0  0  0  0  0
   -5.4168    1.6496    0.5514 C   0  0  0  0  0  0  0  0  0  0  0  0
   -6.1428    2.1303    1.2262 H   0  0  0  0  0  0  0  0  0  0  0  0
   -5.8770    0.8524   -0.5061 C   0  0  0  0  0  0  0  0  0  0  0  0
   -6.9586    0.7057   -0.6492 H   0  0  0  0  0  0  0  0  0  0  0  0
   -4.9689    0.2375   -1.3891 C   0  0  0  0  0  0  0  0  0  0  0  0
   -3.5959    0.4528   -1.1818 C   0  0  0  0  0  0  0  0  0  0  0  0
   -2.8660   -0.0012   -1.8667 H   0  0  0  0  0  0  0  0  0  0  0  0
   -3.5490    2.6478    1.9634 C   0  0  0  0  0  0  0  0  0  0  0  0
   -2.8789    2.0516    2.6195 H   0  0  0  0  0  0  0  0  0  0  0  0
   -4.3908    3.0140    2.5807 H   0  0  0  0  0  0  0  0  0  0  0  0
   -2.9686    3.5411    1.6421 H   0  0  0  0  0  0  0  0  0  0  0  0
   -5.4322   -0.6683   -2.5004 C   0  0  0  0  0  0  0  0  0  0  0  0
   -4.8495   -0.5076   -3.4297 H   0  0  0  0  0  0  0  0  0  0  0  0
   -6.5045   -0.5204   -2.7329 H   0  0  0  0  0  0  0  0  0  0  0  0
   -5.2930   -1.7321   -2.2093 H   0  0  0  0  0  0  0  0  0  0  0  0
  1  6  1  0  0  0  0
  2  6  1  0  0  0  0
  2 24  1  0  0  0  0
  3  2  1  0  0  0  0
  4  5  1  0  0  0  0
  6  4  1  0  0  0  0
  7  1  1  0  0  0  0
  7 14  1  0  0  0  0
  8  7  2  0  0  0  0
  9  8  1  0  0  0  0
  9 11  2  0  0  0  0
 10  9  1  0  0  0  0
 11 13  1  0  0  0  0
 12 11  1  0  0  0  0
 13 14  2  0  0  0  0
 13 20  1  0  0  0  0
 14 15  1  0  0  0  0
 16 17  1  0  0  0  0
 16  8  1  0  0  0  0
 18 16  1  0  0  0  0
 19 16  1  0  0  0  0
 20 22  1  0  0  0  0
 20 23  1  0  0  0  0
 21 20  1  0  0  0  0
 24 31  1  0  0  0  0
 25 26  1  0  0  0  0
 25 24  2  0  0  0  0
 26 28  2  0  0  0  0
 27 26  1  0  0  0  0
 28 29  1  0  0  0  0
 28 30  1  0  0  0  0
 30 37  1  0  0  0  0
 31 30  2  0  0  0  0
 31 32  1  0  0  0  0
 33 34  1  0  0  0  0
 33 25  1  0  0  0  0
 35 33  1  0  0  0  0
 36 33  1  0  0  0  0
 37 40  1  0  0  0  0
 37 39  1  0  0  0  0
 38 37  1  0  0  0  0
 41  4  1  0  0  0  0
 41 42  1  0  0  0  0
 42 50  1  0  0  0  0
 43 42  2  0  0  0  0
 43 44  1  0  0  0  0
 45 43  1  0  0  0  0
 46 45  1  0  0  0  0
 47 48  1  0  0  0  0
 47 45  2  0  0  0  0
 48 41  2  0  0  0  0
 49 48  1  0  0  0  0
 50 52  1  0  0  0  0
 50 51  1  0  0  0  0
 53 50  1  0  0  0  0
 54 57  1  0  0  0  0
 54 47  1  0  0  0  0
 55 54  1  0  0  0  0
 56 54  1  0  0  0  0
M  END
