2
 OpenBabel05122313063D

 21 20  0  0  1  0  0  0  0  0999 V2000
    4.2283   -0.6877   -0.2616 O   0  0  0  0  0  0  0  0  0  0  0  0
    2.0242   -0.0476   -0.0640 N   0  0  0  0  0  2  0  0  0  0  0  0
    2.4505    0.8819    0.0965 H   0  0  0  0  0  0  0  0  0  0  0  0
    4.5092    0.6776    0.0174 N   0  0  0  0  0  0  0  0  0  0  0  0
    2.8966   -0.9734   -0.2735 C   0  0  2  0  0  3  0  0  0  0  0  0
    2.6511   -2.4261   -0.5163 C   0  0  0  0  0  0  0  0  0  0  0  0
    1.5808   -2.5557   -0.7621 H   0  0  0  0  0  0  0  0  0  0  0  0
    3.2449   -2.7048   -1.4125 H   0  0  0  0  0  0  0  0  0  0  0  0
    3.0573   -3.2890    0.6883 C   0  0  0  0  0  0  0  0  0  0  0  0
    2.4230   -3.0353    1.5593 H   0  0  0  0  0  0  0  0  0  0  0  0
    2.9009   -4.3590    0.4501 H   0  0  0  0  0  0  0  0  0  0  0  0
    4.1229   -3.1461    0.9573 H   0  0  0  0  0  0  0  0  0  0  0  0
    5.7840    0.8874    0.0153 C   0  0  0  0  0  0  0  0  0  0  0  0
    6.8136   -0.1764   -0.2458 C   0  0  0  0  0  0  0  0  0  0  0  0
    6.6325   -0.6549   -1.2295 H   0  0  0  0  0  0  0  0  0  0  0  0
    7.8376    0.2377   -0.2233 H   0  0  0  0  0  0  0  0  0  0  0  0
    6.7312   -0.9837    0.5105 H   0  0  0  0  0  0  0  0  0  0  0  0
    6.2131    2.2953    0.2987 C   0  0  0  0  0  0  0  0  0  0  0  0
    6.8737    2.3205    1.1909 H   0  0  0  0  0  0  0  0  0  0  0  0
    6.8063    2.6919   -0.5521 H   0  0  0  0  0  0  0  0  0  0  0  0
    5.3392    2.9492    0.4719 H   0  0  0  0  0  0  0  0  0  0  0  0
  1  4  1  0  0  0  0
  2  3  1  0  0  0  0
  5  1  1  1  0  0  0
  5  2  1  0  0  0  0
  6  5  1  0  0  0  0
  6  9  1  0  0  0  0
  7  6  1  0  0  0  0
  8  6  1  0  0  0  0
  9 12  1  0  0  0  0
  9 10  1  0  0  0  0
 11  9  1  0  0  0  0
 13  4  2  0  0  0  0
 13 18  1  0  0  0  0
 14 16  1  0  0  0  0
 14 13  1  0  0  0  0
 14 17  1  0  0  0  0
 15 14  1  0  0  0  0
 18 21  1  0  0  0  0
 18 19  1  0  0  0  0
 20 18  1  0  0  0  0
M  END
