1
 OpenBabel05122313063D

 32 33  0  0  1  0  0  0  0  0999 V2000
    0.6292    1.8997   -0.0329 N   0  0  0  0  0  2  0  0  0  0  0  0
   -1.2460    0.0868   -0.2870 N   0  0  0  0  0  0  0  0  0  0  0  0
   -1.2987    0.4125   -1.2738 H   0  0  0  0  0  0  0  0  0  0  0  0
    1.5803    2.8030   -0.3603 C   0  0  0  0  0  3  0  0  0  0  0  0
    2.5240    2.3932   -0.7460 H   0  0  0  0  0  0  0  0  0  0  0  0
    1.3577    4.1766   -0.2359 C   0  0  0  0  0  0  0  0  0  0  0  0
    2.1559    4.8814   -0.5073 H   0  0  0  0  0  0  0  0  0  0  0  0
    0.1077    4.6251    0.2154 C   0  0  0  0  0  0  0  0  0  0  0  0
   -0.0977    5.7006    0.3190 H   0  0  0  0  0  0  0  0  0  0  0  0
   -0.8887    3.6822    0.5048 C   0  0  0  0  0  0  0  0  0  0  0  0
   -1.8930    3.9944    0.8252 H   0  0  0  0  0  0  0  0  0  0  0  0
   -0.5993    2.3191    0.3686 C   0  0  0  0  0  0  0  0  0  0  0  0
   -1.5865    1.2132    0.6116 C   0  0  0  0  0  0  0  0  0  0  0  0
   -1.5152    0.8479    1.6596 H   0  0  0  0  0  0  0  0  0  0  0  0
   -2.6260    1.5668    0.4554 H   0  0  0  0  0  0  0  0  0  0  0  0
   -2.1450   -1.1116   -0.1575 C   0  0  2  0  0  0  0  0  0  0  0  0
   -1.8572   -1.5963    0.7985 H   0  0  0  0  0  0  0  0  0  0  0  0
   -1.8852   -2.0633   -1.3239 C   0  0  0  0  0  0  0  0  0  0  0  0
   -2.2142   -1.6173   -2.2829 H   0  0  0  0  0  0  0  0  0  0  0  0
   -2.4518   -3.0012   -1.1737 H   0  0  0  0  0  0  0  0  0  0  0  0
   -0.8086   -2.2935   -1.4206 H   0  0  0  0  0  0  0  0  0  0  0  0
   -3.6078   -0.7079   -0.0512 C   0  0  0  0  0  0  0  0  0  0  0  0
   -4.3292   -0.9650    1.1294 C   0  0  0  0  0  0  0  0  0  0  0  0
   -3.8304   -1.4738    1.9704 H   0  0  0  0  0  0  0  0  0  0  0  0
   -5.6769   -0.5888    1.2424 C   0  0  0  0  0  0  0  0  0  0  0  0
   -6.2305   -0.8050    2.1683 H   0  0  0  0  0  0  0  0  0  0  0  0
   -6.3150    0.0606    0.1751 C   0  0  0  0  0  0  0  0  0  0  0  0
   -7.3709    0.3571    0.2609 H   0  0  0  0  0  0  0  0  0  0  0  0
   -5.6029    0.3264   -1.0066 C   0  0  0  0  0  0  0  0  0  0  0  0
   -6.1009    0.8299   -1.8488 H   0  0  0  0  0  0  0  0  0  0  0  0
   -4.2599   -0.0594   -1.1211 C   0  0  0  0  0  0  0  0  0  0  0  0
   -3.7198    0.1452   -2.0600 H   0  0  0  0  0  0  0  0  0  0  0  0
  1 12  1  0  0  0  0
  2 16  1  0  0  0  0
  2 13  1  0  0  0  0
  3  2  1  0  0  0  0
  4  6  1  0  0  0  0
  4  1  1  0  0  0  0
  5  4  1  0  0  0  0
  6  8  2  0  0  0  0
  7  6  1  0  0  0  0
  8  9  1  0  0  0  0
  8 10  1  0  0  0  0
 10 11  1  0  0  0  0
 12 10  2  0  0  0  0
 12 13  1  0  0  0  0
 13 14  1  0  0  0  0
 15 13  1  0  0  0  0
 16 22  1  0  0  0  0
 16 17  1  1  0  0  0
 18 20  1  0  0  0  0
 18 16  1  0  0  0  0
 19 18  1  0  0  0  0
 21 18  1  0  0  0  0
 22 23  1  0  0  0  0
 23 25  2  0  0  0  0
 23 24  1  0  0  0  0
 25 26  1  0  0  0  0
 27 28  1  0  0  0  0
 27 25  1  0  0  0  0
 29 27  2  0  0  0  0
 30 29  1  0  0  0  0
 31 29  1  0  0  0  0
 31 22  2  0  0  0  0
 32 31  1  0  0  0  0
M  END
