14
 OpenBabel05122313063D

 33 35  0  0  0  0  0  0  0  0999 V2000
   -3.2680   -0.6905   -0.1738 C   0  0  0  0  0  0  0  0  0  0  0  0
   -5.5018   -2.3147   -0.8736 C   0  0  0  0  0  0  0  0  0  0  0  0
   -6.3664   -2.9403   -1.1426 H   0  0  0  0  0  0  0  0  0  0  0  0
   -3.2902   -2.0803    0.1053 C   0  0  0  0  0  0  0  0  0  0  0  0
   -2.4387   -2.5450    0.6305 H   0  0  0  0  0  0  0  0  0  0  0  0
   -5.5126   -0.9384   -1.1465 C   0  0  0  0  0  0  0  0  0  0  0  0
   -6.3904   -0.4803   -1.6275 H   0  0  0  0  0  0  0  0  0  0  0  0
   -4.3863   -2.8857   -0.2390 C   0  0  0  0  0  0  0  0  0  0  0  0
   -4.3793   -3.9609   -0.0006 H   0  0  0  0  0  0  0  0  0  0  0  0
   -2.1067    1.7951    0.0709 C   0  0  0  0  0  0  0  0  0  0  0  0
   -2.0996    2.6314    1.2075 C   0  0  0  0  0  0  0  0  0  0  0  0
   -2.0022    2.1829    2.2097 H   0  0  0  0  0  0  0  0  0  0  0  0
   -1.9598    0.1917    0.1585 B   0  0  0  0  0  0  0  0  0  0  0  0
    0.0405   -0.3074    1.6329 N   0  0  0  0  0  2  0  0  0  0  0  0
   -1.3084   -0.2635    1.5040 N   0  0  0  0  0  0  0  0  0  0  0  0
   -4.4105   -0.1410   -0.7972 C   0  0  0  0  0  0  0  0  0  0  0  0
   -4.4465    0.9399   -1.0041 H   0  0  0  0  0  0  0  0  0  0  0  0
   -0.8193   -0.2221   -0.8697 O   0  0  0  0  0  0  0  0  0  0  0  0
   -0.8985    0.4029   -1.6183 H   0  0  0  0  0  0  0  0  0  0  0  0
    0.3316   -0.6399    2.9100 C   0  0  0  0  0  3  0  0  0  0  0  0
    1.3714   -0.7670    3.2287 H   0  0  0  0  0  0  0  0  0  0  0  0
   -1.8797   -0.5486    2.6989 C   0  0  0  0  0  0  0  0  0  0  0  0
   -2.9706   -0.5590    2.7974 H   0  0  0  0  0  0  0  0  0  0  0  0
   -0.8644   -0.7939    3.6320 C   0  0  0  0  0  0  0  0  0  0  0  0
   -0.9787   -1.0573    4.6877 H   0  0  0  0  0  0  0  0  0  0  0  0
   -2.2404    2.4272   -1.1898 C   0  0  0  0  0  0  0  0  0  0  0  0
   -2.3014    1.8181   -2.1119 H   0  0  0  0  0  0  0  0  0  0  0  0
   -2.3427    3.8229   -1.3162 C   0  0  0  0  0  0  0  0  0  0  0  0
   -2.4517    4.2818   -2.3110 H   0  0  0  0  0  0  0  0  0  0  0  0
   -2.2136    4.0270    1.0974 C   0  0  0  0  0  0  0  0  0  0  0  0
   -2.2116    4.6516    2.0040 H   0  0  0  0  0  0  0  0  0  0  0  0
   -2.3281    4.6288   -0.1660 C   0  0  0  0  0  0  0  0  0  0  0  0
   -2.4180    5.7219   -0.2548 H   0  0  0  0  0  0  0  0  0  0  0  0
  1  4  1  0  0  0  0
  1 13  1  0  0  0  0
  2  8  1  0  0  0  0
  3  2  1  0  0  0  0
  4  5  1  0  0  0  0
  6  2  2  0  0  0  0
  6 16  1  0  0  0  0
  7  6  1  0  0  0  0
  8  9  1  0  0  0  0
  8  4  2  0  0  0  0
 10 13  1  0  0  0  0
 10 11  1  0  0  0  0
 11 12  1  0  0  0  0
 13 15  1  0  0  0  0
 14 20  1  0  0  0  0
 15 14  1  0  0  0  0
 15 22  1  0  0  0  0
 16  1  2  0  0  0  0
 17 16  1  0  0  0  0
 18 13  1  0  0  0  0
 19 18  1  0  0  0  0
 20 21  1  0  0  0  0
 20 24  1  0  0  0  0
 22 23  1  0  0  0  0
 22 24  2  0  0  0  0
 24 25  1  0  0  0  0
 26 10  2  0  0  0  0
 27 26  1  0  0  0  0
 28 26  1  0  0  0  0
 28 32  2  0  0  0  0
 29 28  1  0  0  0  0
 30 11  2  0  0  0  0
 30 31  1  0  0  0  0
 32 30  1  0  0  0  0
 33 32  1  0  0  0  0
M  END
