5
 OpenBabel05122313063D

 30 31  0  0  0  0  0  0  0  0999 V2000
   -1.0618    2.8322   -0.2501 N   0  0  0  0  0  0  0  0  0  0  0  0
    2.3948    4.0073    0.1104 N   0  0  0  0  0  4  0  0  0  0  0  0
    3.1999    3.5727    0.5759 H   0  0  0  0  0  0  0  0  0  0  0  0
    2.2235    4.9773    0.3770 H   0  0  0  0  0  0  0  0  0  0  0  0
    1.4300    1.8804    0.2834 N   0  0  0  0  0  2  0  0  0  0  0  0
    2.6419    1.3813    0.5688 N   0  0  0  0  0  2  0  0  0  0  0  0
    5.0668    1.1429   -0.1838 O   0  0  0  0  0  0  0  0  0  0  0  0
    4.1108    1.4942   -0.0506 H   0  0  0  0  0  0  0  0  0  0  0  0
    1.5877   -0.4640    1.5272 O   0  0  0  0  0  0  0  0  0  0  0  0
   -0.2295    5.0369   -0.7135 C   0  0  0  0  0  0  0  0  0  0  0  0
    0.6183    5.7273   -0.8270 H   0  0  0  0  0  0  0  0  0  0  0  0
   -1.5340    5.4676   -0.9887 C   0  0  0  0  0  0  0  0  0  0  0  0
   -1.7149    6.5083   -1.2974 H   0  0  0  0  0  0  0  0  0  0  0  0
   -2.6002    4.5633   -0.8741 C   0  0  0  0  0  0  0  0  0  0  0  0
   -3.6371    4.8690   -1.0732 H   0  0  0  0  0  0  0  0  0  0  0  0
   -2.3087    3.2381   -0.5066 C   0  0  0  0  0  0  0  0  0  0  0  0
   -3.0882    2.4647   -0.3986 H   0  0  0  0  0  0  0  0  0  0  0  0
   -0.0254    3.6949   -0.3214 C   0  0  0  0  0  0  0  0  0  0  0  0
    1.3058    3.1686    0.0493 C   0  0  0  0  0  0  0  0  0  0  0  0
    2.6261    0.1192    1.1224 C   0  0  0  0  0  0  0  0  0  0  0  0
    3.9516   -0.5510    1.1590 C   0  0  0  0  0  0  0  0  0  0  0  0
    4.0471   -1.8074    1.7940 C   0  0  0  0  0  0  0  0  0  0  0  0
    3.1377   -2.1875    2.2826 H   0  0  0  0  0  0  0  0  0  0  0  0
    5.2357   -2.5409    1.7835 C   0  0  0  0  0  0  0  0  0  0  0  0
    5.2932   -3.5169    2.2875 H   0  0  0  0  0  0  0  0  0  0  0  0
    6.3626   -2.0118    1.1210 C   0  0  0  0  0  0  0  0  0  0  0  0
    7.3077   -2.5772    1.1052 H   0  0  0  0  0  0  0  0  0  0  0  0
    6.2961   -0.7721    0.4799 C   0  0  0  0  0  0  0  0  0  0  0  0
    7.1642   -0.3489   -0.0467 H   0  0  0  0  0  0  0  0  0  0  0  0
    5.0967   -0.0211    0.4831 C   0  0  0  0  0  0  0  0  0  0  0  0
  2  4  1  0  0  0  0
  2  3  1  0  0  0  0
  5  6  1  0  0  0  0
  6 20  1  0  0  0  0
  7  8  1  0  0  0  0
  7 30  1  0  0  0  0
 10 18  2  0  0  0  0
 11 10  1  0  0  0  0
 12 14  2  0  0  0  0
 12 10  1  0  0  0  0
 13 12  1  0  0  0  0
 14 16  1  0  0  0  0
 15 14  1  0  0  0  0
 16 17  1  0  0  0  0
 16  1  2  0  0  0  0
 18  1  1  0  0  0  0
 18 19  1  0  0  0  0
 19  2  2  0  0  0  0
 19  5  1  0  0  0  0
 20 21  1  0  0  0  0
 20  9  2  0  0  0  0
 21 22  1  0  0  0  0
 22 23  1  0  0  0  0
 24 22  2  0  0  0  0
 24 25  1  0  0  0  0
 26 24  1  0  0  0  0
 27 26  1  0  0  0  0
 28 30  1  0  0  0  0
 28 26  2  0  0  0  0
 29 28  1  0  0  0  0
 30 21  2  0  0  0  0
M  END
