3
 OpenBabel05122313063D

 13 13  0  0  0  0  0  0  0  0999 V2000
   -7.1832   -0.5735   -0.6126 Cl  0  0  0  0  0  0  0  0  0  0  0  0
   -1.0163    1.0324   -2.3016 O   0  0  0  0  0  1  0  0  0  0  0  0
   -1.3212    0.3866   -1.2875 N   0  0  0  0  0  2  0  0  0  0  0  0
   -3.1853   -0.9418   -0.3157 C   0  0  0  0  0  0  0  0  0  0  0  0
   -2.4520   -1.6004    0.1648 H   0  0  0  0  0  0  0  0  0  0  0  0
   -4.5600   -1.1618   -0.1684 C   0  0  0  0  0  0  0  0  0  0  0  0
   -4.9316   -1.9918    0.4485 H   0  0  0  0  0  0  0  0  0  0  0  0
   -2.7360    0.1166   -1.1277 C   0  0  0  0  0  0  0  0  0  0  0  0
   -3.6570    0.9443   -1.8019 C   0  0  0  0  0  0  0  0  0  0  0  0
   -3.2657    1.7482   -2.4400 H   0  0  0  0  0  0  0  0  0  0  0  0
   -5.0275    0.7389   -1.6409 C   0  0  0  0  0  0  0  0  0  0  0  0
   -5.7605    1.3870   -2.1412 H   0  0  0  0  0  0  0  0  0  0  0  0
   -5.4731   -0.3153   -0.8196 C   0  0  0  0  0  0  0  0  0  0  0  0
  2  3  1  0  0  0  0
  3  8  1  0  0  0  0
  4  6  1  0  0  0  0
  4  5  1  0  0  0  0
  6  7  1  0  0  0  0
  8  4  2  0  0  0  0
  9 11  2  0  0  0  0
  9  8  1  0  0  0  0
 10  9  1  0  0  0  0
 11 13  1  0  0  0  0
 12 11  1  0  0  0  0
 13  1  1  0  0  0  0
 13  6  2  0  0  0  0
M  END
