1
 OpenBabel05122313063D

 23 23  0  0  0  0  0  0  0  0999 V2000
    1.3927   -0.2294   -0.1050 N   0  0  0  0  0  2  0  0  0  0  0  0
    1.0444   -1.4259   -0.2284 N   0  0  0  0  0  1  0  0  0  0  0  0
    3.6958   -0.0921   -0.0437 C   0  0  0  0  0  0  0  0  0  0  0  0
    5.3744   -1.5617    0.9225 C   0  0  0  0  0  0  0  0  0  0  0  0
    5.6558   -2.3087    1.6838 H   0  0  0  0  0  0  0  0  0  0  0  0
    2.4277    0.5329   -0.0760 N   0  0  0  0  0  2  0  0  0  0  0  0
    5.9587   -0.1493   -0.9402 C   0  0  0  0  0  0  0  0  0  0  0  0
    6.6986    0.2134   -1.6736 H   0  0  0  0  0  0  0  0  0  0  0  0
    4.0595   -1.0564    0.9352 C   0  0  0  0  0  0  0  0  0  0  0  0
    4.6633    0.3845   -0.9724 C   0  0  0  0  0  0  0  0  0  0  0  0
    6.3379   -1.1346   -0.0054 C   0  0  0  0  0  0  0  0  0  0  0  0
    4.2704    1.4377   -1.9753 C   0  0  0  0  0  0  0  0  0  0  0  0
    5.1224    1.7107   -2.6281 H   0  0  0  0  0  0  0  0  0  0  0  0
    3.9036    2.3542   -1.4677 H   0  0  0  0  0  0  0  0  0  0  0  0
    3.4322    1.0927   -2.6161 H   0  0  0  0  0  0  0  0  0  0  0  0
    3.0867   -1.4864    1.9993 C   0  0  0  0  0  0  0  0  0  0  0  0
    2.5625   -0.6070    2.4311 H   0  0  0  0  0  0  0  0  0  0  0  0
    3.6016   -2.0252    2.8180 H   0  0  0  0  0  0  0  0  0  0  0  0
    2.2903   -2.1413    1.5812 H   0  0  0  0  0  0  0  0  0  0  0  0
    7.7359   -1.7027   -0.0082 C   0  0  0  0  0  0  0  0  0  0  0  0
    7.9291   -2.3018   -0.9242 H   0  0  0  0  0  0  0  0  0  0  0  0
    7.9091   -2.3636    0.8637 H   0  0  0  0  0  0  0  0  0  0  0  0
    8.5039   -0.9013    0.0153 H   0  0  0  0  0  0  0  0  0  0  0  0
  1  6  1  0  0  0  0
  2  1  1  0  0  0  0
  3  9  1  0  0  0  0
  4  9  2  0  0  0  0
  4  5  1  0  0  0  0
  6  3  1  0  0  0  0
  7 11  2  0  0  0  0
  8  7  1  0  0  0  0
  9 16  1  0  0  0  0
 10  7  1  0  0  0  0
 10  3  2  0  0  0  0
 11  4  1  0  0  0  0
 12 14  1  0  0  0  0
 12 10  1  0  0  0  0
 13 12  1  0  0  0  0
 15 12  1  0  0  0  0
 16 17  1  0  0  0  0
 16 18  1  0  0  0  0
 19 16  1  0  0  0  0
 20 11  1  0  0  0  0
 20 23  1  0  0  0  0
 20 22  1  0  0  0  0
 21 20  1  0  0  0  0
M  END
