4
q = 0.0, confidence = 0.996

 20 20  0  0  0  0  0  0  0  0999 V2000
   -3.3279    1.6017   -0.8405 O   0  0  0  0  0  0  0  0  0  0  0  0
   -4.7784    1.1541   -2.5117 O   0  0  0  0  0  0  0  0  0  0  0  0
   -4.2515    1.8830   -2.9072 H   0  0  0  0  0  0  0  0  0  0  0  0
   -0.6018   -1.0898    0.4181 N   0  0  0  0  0  2  0  0  0  0  0  0
   -0.5183   -2.3572   -0.0444 C   0  0  0  0  0  3  0  0  0  0  0  0
    0.5049   -2.7363   -0.1910 H   0  0  0  0  0  0  0  0  0  0  0  0
   -1.6639   -3.1312   -0.2577 C   0  0  0  0  0  0  0  0  0  0  0  0
   -1.5567   -4.1615   -0.6261 H   0  0  0  0  0  0  0  0  0  0  0  0
   -2.9250   -2.5792    0.0032 C   0  0  0  0  0  0  0  0  0  0  0  0
   -3.8392   -3.1690   -0.1723 H   0  0  0  0  0  0  0  0  0  0  0  0
   -3.0125   -1.2674    0.5051 C   0  0  0  0  0  0  0  0  0  0  0  0
   -1.8129   -0.5705    0.7150 C   0  0  0  0  0  0  0  0  0  0  0  0
   -1.8101    0.4413    1.1408 H   0  0  0  0  0  0  0  0  0  0  0  0
   -4.3354   -0.5845    0.7634 C   0  0  0  0  0  0  0  0  0  0  0  0
   -4.1764    0.2887    1.4265 H   0  0  0  0  0  0  0  0  0  0  0  0
   -5.0188   -1.2775    1.2951 H   0  0  0  0  0  0  0  0  0  0  0  0
   -5.0282   -0.1192   -0.5254 C   0  0  0  0  0  0  0  0  0  0  0  0
   -5.2044   -0.9620   -1.2262 H   0  0  0  0  0  0  0  0  0  0  0  0
   -6.0375    0.2912   -0.3023 H   0  0  0  0  0  0  0  0  0  0  0  0
   -4.2704    0.9595   -1.2730 C   0  0  0  0  0  0  0  0  0  0  0  0
  2 20  1  0  0  0  0
  3  2  1  0  0  0  0
  4 12  1  0  0  0  0
  5  4  1  0  0  0  0
  6  5  1  0  0  0  0
  7  5  1  0  0  0  0
  7  9  2  0  0  0  0
  8  7  1  0  0  0  0
  9 11  1  0  0  0  0
 10  9  1  0  0  0  0
 11 12  2  0  0  0  0
 11 14  1  0  0  0  0
 12 13  1  0  0  0  0
 14 16  1  0  0  0  0
 14 15  1  0  0  0  0
 17 19  1  0  0  0  0
 17 14  1  0  0  0  0
 18 17  1  0  0  0  0
 20  1  2  0  0  0  0
 20 17  1  0  0  0  0
M  END
