1
 OpenBabel05122313063D

 31 31  0  0  0  0  0  0  0  0999 V2000
    0.8582   -0.2062   -0.5243 N   0  0  0  0  0  2  0  0  0  0  0  0
    0.2298   -1.2728   -1.2242 N   0  0  0  0  0  0  0  0  0  0  0  0
    2.2761   -0.1796   -0.4048 B   0  0  0  0  0  0  0  0  0  0  0  0
    2.9775    0.7730    0.3290 O   0  0  0  0  0  0  0  0  0  0  0  0
    3.1250   -1.1279   -0.9788 O   0  0  0  0  0  0  0  0  0  0  0  0
    0.5038   -1.2567   -2.6697 C   0  0  0  0  0  0  0  0  0  0  0  0
    0.4331   -2.6166   -0.6663 C   0  0  0  0  0  0  0  0  0  0  0  0
    4.4321   -0.9433   -0.3761 C   0  0  0  0  0  0  0  0  0  0  0  0
    5.5033   -1.2921   -1.4043 C   0  0  0  0  0  0  0  0  0  0  0  0
    4.5124   -1.8919    0.8272 C   0  0  0  0  0  0  0  0  0  0  0  0
    4.3879    0.5782    0.0493 C   0  0  0  0  0  0  0  0  0  0  0  0
    4.7626    1.5253   -1.0974 C   0  0  0  0  0  0  0  0  0  0  0  0
    5.1869    0.9172    1.3038 C   0  0  0  0  0  0  0  0  0  0  0  0
    0.2482   -0.2575   -3.0632 H   0  0  0  0  0  0  0  0  0  0  0  0
   -0.1323   -2.0112   -3.1701 H   0  0  0  0  0  0  0  0  0  0  0  0
    1.5723   -1.4930   -2.8671 H   0  0  0  0  0  0  0  0  0  0  0  0
    0.2843   -2.5869    0.4239 H   0  0  0  0  0  0  0  0  0  0  0  0
   -0.3154   -3.3016   -1.1106 H   0  0  0  0  0  0  0  0  0  0  0  0
    1.4546   -2.9940   -0.8895 H   0  0  0  0  0  0  0  0  0  0  0  0
    5.3621   -0.7282   -2.3444 H   0  0  0  0  0  0  0  0  0  0  0  0
    5.4542   -2.3725   -1.6443 H   0  0  0  0  0  0  0  0  0  0  0  0
    6.5155   -1.0752   -1.0076 H   0  0  0  0  0  0  0  0  0  0  0  0
    3.7473   -1.6372    1.5873 H   0  0  0  0  0  0  0  0  0  0  0  0
    4.3195   -2.9263    0.4813 H   0  0  0  0  0  0  0  0  0  0  0  0
    5.5095   -1.8667    1.3087 H   0  0  0  0  0  0  0  0  0  0  0  0
    4.5069    2.5626   -0.8058 H   0  0  0  0  0  0  0  0  0  0  0  0
    4.1974    1.2806   -2.0181 H   0  0  0  0  0  0  0  0  0  0  0  0
    5.8456    1.4862   -1.3263 H   0  0  0  0  0  0  0  0  0  0  0  0
    5.0950    1.9988    1.5251 H   0  0  0  0  0  0  0  0  0  0  0  0
    4.8177    0.3586    2.1832 H   0  0  0  0  0  0  0  0  0  0  0  0
    6.2618    0.6872    1.1604 H   0  0  0  0  0  0  0  0  0  0  0  0
  1  3  1  0  0  0  0
  2  7  1  0  0  0  0
  2  1  1  0  0  0  0
  3  4  1  0  0  0  0
  5  3  1  0  0  0  0
  5  8  1  0  0  0  0
  6  2  1  0  0  0  0
  7 17  1  0  0  0  0
  8 11  1  0  0  0  0
  8 10  1  0  0  0  0
  9 22  1  0  0  0  0
  9  8  1  0  0  0  0
 10 25  1  0  0  0  0
 10 23  1  0  0  0  0
 11  4  1  0  0  0  0
 11 13  1  0  0  0  0
 12 26  1  0  0  0  0
 12 11  1  0  0  0  0
 13 29  1  0  0  0  0
 13 30  1  0  0  0  0
 14  6  1  0  0  0  0
 15  6  1  0  0  0  0
 16  6  1  0  0  0  0
 18  7  1  0  0  0  0
 19  7  1  0  0  0  0
 20  9  1  0  0  0  0
 21  9  1  0  0  0  0
 24 10  1  0  0  0  0
 27 12  1  0  0  0  0
 28 12  1  0  0  0  0
 31 13  1  0  0  0  0
M  END
