15
 OpenBabel05122313063D

 34 35  0  0  0  0  0  0  0  0999 V2000
   -0.8583   -2.8548    2.1373 C   0  0  0  0  0  0  0  0  0  0  0  0
   -3.1314    1.9921   -2.3150 C   0  0  0  0  0  0  0  0  0  0  0  0
   -2.1120    2.3920   -2.2127 H   0  0  0  0  0  0  0  0  0  0  0  0
   -7.8591    0.9802   -3.3687 O   0  0  0  0  0  0  0  0  0  0  0  0
    0.1297   -1.9274    2.3226 O   0  0  0  0  0  0  0  0  0  0  0  0
   -2.4394    0.2249   -0.8515 N   0  0  0  0  0  2  0  0  0  0  0  0
   -4.0855    2.6403   -3.1099 C   0  0  0  0  0  0  0  0  0  0  0  0
   -3.8145    3.5646   -3.6412 H   0  0  0  0  0  0  0  0  0  0  0  0
    2.1681   -1.0351    3.1880 C   0  0  0  0  0  0  0  0  0  0  0  0
    2.9734   -1.1821    3.9338 H   0  0  0  0  0  0  0  0  0  0  0  0
    1.6574   -0.0767    3.4074 H   0  0  0  0  0  0  0  0  0  0  0  0
    2.6348   -0.9560    2.1865 H   0  0  0  0  0  0  0  0  0  0  0  0
   -0.9424   -4.0659    2.8438 C   0  0  0  0  0  0  0  0  0  0  0  0
   -0.1793   -4.3218    3.5901 H   0  0  0  0  0  0  0  0  0  0  0  0
   -1.7302   -1.3197    0.4727 N   0  0  0  0  0  2  0  0  0  0  0  0
   -2.7174   -0.8718   -0.2447 N   0  0  0  0  0  2  0  0  0  0  0  0
   -3.4537    0.7997   -1.6221 C   0  0  0  0  0  0  0  0  0  0  0  0
   -5.3819    2.1213   -3.2355 C   0  0  0  0  0  0  0  0  0  0  0  0
   -6.1575    2.5984   -3.8476 H   0  0  0  0  0  0  0  0  0  0  0  0
   -5.6847    0.9399   -2.5413 C   0  0  0  0  0  0  0  0  0  0  0  0
   -7.0567    0.3742   -2.6590 N   0  0  0  0  0  0  0  0  0  0  0  0
   -7.2996   -0.6611   -2.0400 O   0  0  0  0  0  0  0  0  0  0  0  0
   -4.7598    0.2688   -1.7418 C   0  0  0  0  0  0  0  0  0  0  0  0
   -5.0517   -0.6498   -1.2194 H   0  0  0  0  0  0  0  0  0  0  0  0
    1.1923   -2.1940    3.2450 C   0  0  0  0  0  0  0  0  0  0  0  0
    1.6884   -3.1526    2.9716 H   0  0  0  0  0  0  0  0  0  0  0  0
    0.7659   -2.3150    4.2669 H   0  0  0  0  0  0  0  0  0  0  0  0
   -2.0083   -4.9501    2.6086 C   0  0  0  0  0  0  0  0  0  0  0  0
   -2.0613   -5.8932    3.1720 H   0  0  0  0  0  0  0  0  0  0  0  0
   -1.8536   -2.5272    1.1664 C   0  0  0  0  0  0  0  0  0  0  0  0
   -2.9137   -3.4317    0.9449 C   0  0  0  0  0  0  0  0  0  0  0  0
   -3.6692   -3.1665    0.1936 H   0  0  0  0  0  0  0  0  0  0  0  0
   -2.9936   -4.6305    1.6632 C   0  0  0  0  0  0  0  0  0  0  0  0
   -3.8289   -5.3208    1.4754 H   0  0  0  0  0  0  0  0  0  0  0  0
  1  5  1  0  0  0  0
  1 13  1  0  0  0  0
  2  3  1  0  0  0  0
  2 17  1  0  0  0  0
  4 21  2  0  0  0  0
  5 25  1  0  0  0  0
  6 16  1  0  0  0  0
  7  2  2  0  0  0  0
  8  7  1  0  0  0  0
  9 25  1  0  0  0  0
  9 11  1  0  0  0  0
  9 10  1  0  0  0  0
 12  9  1  0  0  0  0
 13 14  1  0  0  0  0
 15 30  1  0  0  0  0
 16 15  1  0  0  0  0
 17  6  1  0  0  0  0
 18  7  1  0  0  0  0
 18 20  2  0  0  0  0
 19 18  1  0  0  0  0
 20 23  1  0  0  0  0
 21 20  1  0  0  0  0
 21 22  2  0  0  0  0
 23 17  2  0  0  0  0
 23 24  1  0  0  0  0
 25 27  1  0  0  0  0
 26 25  1  0  0  0  0
 28 13  2  0  0  0  0
 28 29  1  0  0  0  0
 30  1  2  0  0  0  0
 31 30  1  0  0  0  0
 31 33  2  0  0  0  0
 32 31  1  0  0  0  0
 33 28  1  0  0  0  0
 34 33  1  0  0  0  0
M  END
