6
 OpenBabel05122313063D

 18 19  0  0  1  0  0  0  0  0999 V2000
   -4.5157   -1.7403   -0.3844 S   0  0  0  0  0  0  0  0  0  0  0  0
   -2.7959   -2.0689   -0.1941 C   0  0  1  0  0  3  0  0  0  0  0  0
   -2.3026   -3.3192   -0.2567 N   0  0  0  0  0  0  0  0  0  0  0  0
   -1.4177   -3.4528    0.2728 H   0  0  0  0  0  0  0  0  0  0  0  0
   -2.9603   -4.0981   -0.2737 H   0  0  0  0  0  0  0  0  0  0  0  0
   -2.0439   -0.9806    0.0099 N   0  0  0  0  0  2  0  0  0  0  0  0
   -2.3345    1.4875    0.3247 C   0  0  0  0  0  0  0  0  0  0  0  0
   -1.2619    1.6486    0.4841 H   0  0  0  0  0  0  0  0  0  0  0  0
   -3.2447    2.5442    0.3529 C   0  0  0  0  0  0  0  0  0  0  0  0
   -2.9238    3.5758    0.5463 H   0  0  0  0  0  0  0  0  0  0  0  0
   -4.6115    2.2995    0.1247 C   0  0  0  0  0  0  0  0  0  0  0  0
   -5.5617    3.4338    0.1556 N   0  0  0  0  0  0  0  0  0  0  0  0
   -5.1008    4.5525    0.3806 O   0  0  0  0  0  0  0  0  0  0  0  0
   -6.7510    3.1817   -0.0456 O   0  0  0  0  0  0  0  0  0  0  0  0
   -5.1187    1.0183   -0.1260 C   0  0  0  0  0  0  0  0  0  0  0  0
   -6.1956    0.8853   -0.2901 H   0  0  0  0  0  0  0  0  0  0  0  0
   -4.1960   -0.0278   -0.1414 C   0  0  0  0  0  0  0  0  0  0  0  0
   -2.8051    0.1840    0.0707 C   0  0  0  0  0  0  0  0  0  0  0  0
  1  2  1  0  0  0  0
  1 17  1  0  0  0  0
  2  3  1  6  0  0  0
  2  6  1  0  0  0  0
  3  4  1  0  0  0  0
  5  3  1  0  0  0  0
  6 18  1  0  0  0  0
  7  9  1  0  0  0  0
  7  8  1  0  0  0  0
  9 10  1  0  0  0  0
 11 12  1  0  0  0  0
 11  9  2  0  0  0  0
 12 13  2  0  0  0  0
 14 12  2  0  0  0  0
 15 11  1  0  0  0  0
 16 15  1  0  0  0  0
 17 15  2  0  0  0  0
 17 18  1  0  0  0  0
 18  7  2  0  0  0  0
M  END
