3
 OpenBabel05122313063D

 20 19  0  0  1  0  0  0  0  0999 V2000
    4.4109    0.6985    1.4498 O   0  0  0  0  0  0  0  0  0  0  0  0
    3.4392    0.6316    1.6145 H   0  0  0  0  0  0  0  0  0  0  0  0
    1.5999   -1.0952   -0.6461 N   0  0  0  0  0  2  0  0  0  0  0  0
    1.4193   -2.0978   -0.5292 H   0  0  0  0  0  0  0  0  0  0  0  0
    3.1974    0.4920   -1.1900 N   0  0  0  0  0  0  0  0  0  0  0  0
    2.3961    1.1509   -1.2362 H   0  0  0  0  0  0  0  0  0  0  0  0
    2.8532   -0.7758   -0.9054 C   0  0  2  0  0  3  0  0  0  0  0  0
    3.8747   -1.8947   -0.9160 C   0  0  0  0  0  0  0  0  0  0  0  0
    4.7862   -1.5631   -1.4495 H   0  0  0  0  0  0  0  0  0  0  0  0
    3.4399   -2.7118   -1.5305 H   0  0  0  0  0  0  0  0  0  0  0  0
    4.2159   -2.4087    0.4901 C   0  0  0  0  0  0  0  0  0  0  0  0
    4.6714   -1.5982    1.0908 H   0  0  0  0  0  0  0  0  0  0  0  0
    4.9169   -3.2640    0.4302 H   0  0  0  0  0  0  0  0  0  0  0  0
    3.3018   -2.7477    1.0183 H   0  0  0  0  0  0  0  0  0  0  0  0
    4.4966    1.0969   -0.9619 C   0  0  0  0  0  0  0  0  0  0  0  0
    4.6571    1.8966   -1.7156 H   0  0  0  0  0  0  0  0  0  0  0  0
    5.2921    0.3400   -1.1056 H   0  0  0  0  0  0  0  0  0  0  0  0
    4.5941    1.6815    0.4612 C   0  0  0  0  0  0  0  0  0  0  0  0
    5.6051    2.1287    0.5863 H   0  0  0  0  0  0  0  0  0  0  0  0
    3.8503    2.5065    0.5611 H   0  0  0  0  0  0  0  0  0  0  0  0
  1  2  1  0  0  0  0
  3  4  1  0  0  0  0
  5 15  1  0  0  0  0
  5  7  1  0  0  0  0
  6  5  1  0  0  0  0
  7  3  1  6  0  0  0
  8  7  1  0  0  0  0
  8 11  1  0  0  0  0
  9  8  1  0  0  0  0
 10  8  1  0  0  0  0
 11 14  1  0  0  0  0
 11 12  1  0  0  0  0
 13 11  1  0  0  0  0
 15 18  1  0  0  0  0
 16 15  1  0  0  0  0
 17 15  1  0  0  0  0
 18 20  1  0  0  0  0
 18 19  1  0  0  0  0
 18  1  1  0  0  0  0
M  END
