2
 OpenBabel05122313063D

 26 25  0  0  1  0  0  0  0  0999 V2000
    3.7679   -0.2086    2.6047 O   0  0  0  0  0  0  0  0  0  0  0  0
    1.5578   -1.3717   -0.1281 N   0  0  0  0  0  2  0  0  0  0  0  0
    1.1994   -2.3271   -0.0343 H   0  0  0  0  0  0  0  0  0  0  0  0
    3.4610   -0.0521   -0.2006 N   0  0  0  0  0  0  0  0  0  0  0  0
    2.8186    0.7135   -0.4786 H   0  0  0  0  0  0  0  0  0  0  0  0
    2.8630   -1.2406   -0.0037 C   0  0  2  0  0  3  0  0  0  0  0  0
    3.7015   -2.4693    0.2769 C   0  0  0  0  0  0  0  0  0  0  0  0
    3.0127   -3.3030    0.5184 H   0  0  0  0  0  0  0  0  0  0  0  0
    4.2701   -2.2670    1.2074 H   0  0  0  0  0  0  0  0  0  0  0  0
    4.6211   -2.8566   -0.8873 C   0  0  0  0  0  0  0  0  0  0  0  0
    4.0345   -3.0677   -1.8034 H   0  0  0  0  0  0  0  0  0  0  0  0
    5.2034   -3.7645   -0.6350 H   0  0  0  0  0  0  0  0  0  0  0  0
    5.3390   -2.0492   -1.1322 H   0  0  0  0  0  0  0  0  0  0  0  0
    4.7089    0.3812    0.4180 C   0  0  2  0  0  0  0  0  0  0  0  0
    5.4091   -0.4798    0.4372 H   0  0  0  0  0  0  0  0  0  0  0  0
    4.4260    0.8031    1.8812 C   0  0  0  0  0  0  0  0  0  0  0  0
    5.3976    1.0243    2.3770 H   0  0  0  0  0  0  0  0  0  0  0  0
    3.8340    1.7479    1.8653 H   0  0  0  0  0  0  0  0  0  0  0  0
    5.3322    1.5131   -0.4047 C   0  0  0  0  0  0  0  0  0  0  0  0
    4.6167    2.3655   -0.4244 H   0  0  0  0  0  0  0  0  0  0  0  0
    6.2278    1.8797    0.1403 H   0  0  0  0  0  0  0  0  0  0  0  0
    5.7012    1.1105   -1.8320 C   0  0  0  0  0  0  0  0  0  0  0  0
    6.4477    0.2889   -1.8404 H   0  0  0  0  0  0  0  0  0  0  0  0
    6.1341    1.9621   -2.3932 H   0  0  0  0  0  0  0  0  0  0  0  0
    4.8084    0.7578   -2.3865 H   0  0  0  0  0  0  0  0  0  0  0  0
    2.7995   -0.0400    2.5059 H   0  0  0  0  0  0  0  0  0  0  0  0
  2  3  1  0  0  0  0
  4  6  1  0  0  0  0
  4 14  1  0  0  0  0
  5  4  1  0  0  0  0
  6  2  1  6  0  0  0
  6  7  1  0  0  0  0
  7  8  1  0  0  0  0
  7  9  1  0  0  0  0
 10 12  1  0  0  0  0
 10  7  1  0  0  0  0
 11 10  1  0  0  0  0
 13 10  1  0  0  0  0
 14 15  1  1  0  0  0
 14 16  1  0  0  0  0
 16 17  1  0  0  0  0
 16  1  1  0  0  0  0
 18 16  1  0  0  0  0
 19 21  1  0  0  0  0
 19 14  1  0  0  0  0
 20 19  1  0  0  0  0
 22 19  1  0  0  0  0
 23 22  1  0  0  0  0
 24 22  1  0  0  0  0
 25 22  1  0  0  0  0
 26  1  1  0  0  0  0
M  END
