1
 OpenBabel05122313063D

 24 25  0  0  0  0  0  0  0  0999 V2000
   -0.4137    0.0203    0.0741 N   0  0  0  0  0  2  0  0  0  0  0  0
    0.2706   -1.0929    0.3927 C   0  0  0  0  0  3  0  0  0  0  0  0
    1.6669   -1.1424    0.3877 C   0  0  0  0  0  0  0  0  0  0  0  0
    2.4100    0.0083    0.0384 C   0  0  0  0  0  0  0  0  0  0  0  0
    1.6682    1.1678   -0.2834 C   0  0  0  0  0  0  0  0  0  0  0  0
    0.2718    1.1307   -0.2512 C   0  0  0  0  0  0  0  0  0  0  0  0
    3.8904    0.0008    0.0159 C   0  0  0  0  0  0  0  0  0  0  0  0
    4.6085   -1.1678   -0.3192 C   0  0  0  0  0  0  0  0  0  0  0  0
    6.0083   -1.1709   -0.3427 C   0  0  0  0  0  0  0  0  0  0  0  0
    6.7484   -0.0139   -0.0274 C   0  0  0  0  0  0  0  0  0  0  0  0
    6.0291    1.1519    0.3129 C   0  0  0  0  0  0  0  0  0  0  0  0
    4.6314    1.1632    0.3306 C   0  0  0  0  0  0  0  0  0  0  0  0
    8.2545   -0.0081   -0.0630 C   0  0  0  0  0  0  0  0  0  0  0  0
    2.1756   -2.0703    0.6851 H   0  0  0  0  0  0  0  0  0  0  0  0
   -0.3404   -1.9642    0.6810 H   0  0  0  0  0  0  0  0  0  0  0  0
    2.1769    2.0951   -0.5827 H   0  0  0  0  0  0  0  0  0  0  0  0
   -0.3381    2.0183   -0.4870 H   0  0  0  0  0  0  0  0  0  0  0  0
    4.0629   -2.0828   -0.5945 H   0  0  0  0  0  0  0  0  0  0  0  0
    6.5422   -2.0937   -0.6189 H   0  0  0  0  0  0  0  0  0  0  0  0
    6.5797    2.0686    0.5777 H   0  0  0  0  0  0  0  0  0  0  0  0
    4.1032    2.0823    0.6257 H   0  0  0  0  0  0  0  0  0  0  0  0
    8.6660   -1.0280   -0.1879 H   0  0  0  0  0  0  0  0  0  0  0  0
    8.6791    0.4239    0.8663 H   0  0  0  0  0  0  0  0  0  0  0  0
    8.6307    0.6117   -0.9045 H   0  0  0  0  0  0  0  0  0  0  0  0
  1  2  1  0  0  0  0
  2 15  1  0  0  0  0
  3  2  1  0  0  0  0
  3 14  1  0  0  0  0
  4  3  2  0  0  0  0
  5  6  2  0  0  0  0
  5  4  1  0  0  0  0
  6  1  1  0  0  0  0
  7  4  1  0  0  0  0
  7 12  1  0  0  0  0
  8  7  2  0  0  0  0
  9  8  1  0  0  0  0
  9 10  2  0  0  0  0
 10 11  1  0  0  0  0
 11 12  2  0  0  0  0
 11 20  1  0  0  0  0
 12 21  1  0  0  0  0
 13 10  1  0  0  0  0
 13 23  1  0  0  0  0
 16  5  1  0  0  0  0
 17  6  1  0  0  0  0
 18  8  1  0  0  0  0
 19  9  1  0  0  0  0
 22 13  1  0  0  0  0
 24 13  1  0  0  0  0
M  END
