2
 OpenBabel05122313063D

 25 26  0  0  0  0  0  0  0  0999 V2000
   -9.0066    0.0531    0.0331 Br  0  0  0  0  0  0  0  0  0  0  0  0
    2.3585    0.1576   -0.0810 N   0  0  0  0  0  2  0  0  0  0  0  0
    1.7738    1.3681   -0.0678 C   0  0  0  0  0  3  0  0  0  0  0  0
    0.3862    1.5277   -0.0542 C   0  0  0  0  0  0  0  0  0  0  0  0
   -0.4591    0.3913   -0.0567 C   0  0  0  0  0  0  0  0  0  0  0  0
    0.1837   -0.8719   -0.0816 C   0  0  0  0  0  0  0  0  0  0  0  0
    1.5764   -0.9396   -0.0940 C   0  0  0  0  0  0  0  0  0  0  0  0
   -1.9083    0.5711   -0.0400 C   0  0  0  0  0  0  0  0  0  0  0  0
   -2.8409   -0.4213   -0.0361 C   0  0  0  0  0  0  0  0  0  0  0  0
   -4.2927   -0.2659   -0.0194 C   0  0  0  0  0  0  0  0  0  0  0  0
   -4.9426    0.9943   -0.0062 C   0  0  0  0  0  0  0  0  0  0  0  0
   -6.3351    1.0935    0.0093 C   0  0  0  0  0  0  0  0  0  0  0  0
   -7.1135   -0.0794    0.0120 C   0  0  0  0  0  0  0  0  0  0  0  0
   -6.5032   -1.3438   -0.0007 C   0  0  0  0  0  0  0  0  0  0  0  0
   -5.1068   -1.4252   -0.0162 C   0  0  0  0  0  0  0  0  0  0  0  0
    2.4591    2.2317   -0.0820 H   0  0  0  0  0  0  0  0  0  0  0  0
   -0.0464    2.5394   -0.0443 H   0  0  0  0  0  0  0  0  0  0  0  0
   -0.3953   -1.8059   -0.0953 H   0  0  0  0  0  0  0  0  0  0  0  0
    2.1088   -1.9043   -0.1297 H   0  0  0  0  0  0  0  0  0  0  0  0
   -2.2430    1.6216   -0.0290 H   0  0  0  0  0  0  0  0  0  0  0  0
   -2.4939   -1.4686   -0.0458 H   0  0  0  0  0  0  0  0  0  0  0  0
   -4.3494    1.9205   -0.0083 H   0  0  0  0  0  0  0  0  0  0  0  0
   -6.8250    2.0772    0.0194 H   0  0  0  0  0  0  0  0  0  0  0  0
   -7.1185   -2.2543    0.0015 H   0  0  0  0  0  0  0  0  0  0  0  0
   -4.6274   -2.4166   -0.0262 H   0  0  0  0  0  0  0  0  0  0  0  0
  2  3  1  0  0  0  0
  3  4  1  0  0  0  0
  4 17  1  0  0  0  0
  5  4  2  0  0  0  0
  5  8  1  0  0  0  0
  6  5  1  0  0  0  0
  7  6  2  0  0  0  0
  7  2  1  0  0  0  0
  8  9  2  0  0  0  0
  8 20  1  0  0  0  0
  9 10  1  0  0  0  0
 10 15  2  0  0  0  0
 10 11  1  0  0  0  0
 11 12  2  0  0  0  0
 12 13  1  0  0  0  0
 12 23  1  0  0  0  0
 13  1  1  0  0  0  0
 14 24  1  0  0  0  0
 14 13  2  0  0  0  0
 15 14  1  0  0  0  0
 16  3  1  0  0  0  0
 18  6  1  0  0  0  0
 19  7  1  0  0  0  0
 21  9  1  0  0  0  0
 22 11  1  0  0  0  0
 25 15  1  0  0  0  0
M  END
