1
 OpenBabel05122313063D

 38 42  0  0  1  0  0  0  0  0999 V2000
    1.5810   -2.2721    0.4503 N   0  0  0  0  0  0  0  0  0  0  0  0
   -1.3129   -1.7618    0.1340 C   0  0  1  0  0  0  0  0  0  0  0  0
    1.9049   -2.3160    1.8888 C   0  0  0  0  0  0  0  0  0  0  0  0
    2.3767   -3.2916    2.1554 H   0  0  0  0  0  0  0  0  0  0  0  0
    0.9870   -2.1961    2.4921 H   0  0  0  0  0  0  0  0  0  0  0  0
    2.6010   -1.4950    2.1394 H   0  0  0  0  0  0  0  0  0  0  0  0
    2.8167   -2.4988   -0.3272 C   0  0  0  0  0  0  0  0  0  0  0  0
    3.2128   -3.5247   -0.1393 H   0  0  0  0  0  0  0  0  0  0  0  0
    3.5852   -1.7637   -0.0322 H   0  0  0  0  0  0  0  0  0  0  0  0
    2.6080   -2.3740   -1.4058 H   0  0  0  0  0  0  0  0  0  0  0  0
   -1.6485   -0.1405   -2.1018 C   0  0  1  0  0  0  0  0  0  0  0  0
    0.6203   -3.3578    0.1121 C   0  0  0  0  0  0  0  0  0  0  0  0
    1.0225   -4.3301    0.4878 H   0  0  0  0  0  0  0  0  0  0  0  0
    0.5837   -3.4200   -0.9929 H   0  0  0  0  0  0  0  0  0  0  0  0
   -3.1065    0.6775   -2.0732 B   0  0  2  0  0  0  0  0  0  0  0  0
   -1.6785    1.2020   -1.1297 B   0  0  0  0  0  0  0  0  0  0  0  0
   -0.7853   -3.1024    0.6344 C   0  0  0  0  0  0  0  0  0  0  0  0
   -0.8255   -3.1501    1.7427 H   0  0  0  0  0  0  0  0  0  0  0  0
   -1.4330   -3.9257    0.2679 H   0  0  0  0  0  0  0  0  0  0  0  0
   -1.8862   -0.7319    1.1329 B   0  0  0  0  0  2  0  0  0  0  0  0
   -3.3356    1.3441   -0.4451 B   0  0  1  0  0  0  0  0  0  0  0  0
   -3.4421    0.0588    0.7451 B   0  0  2  0  0  0  0  0  0  0  0  0
   -1.4090   -1.6083   -1.3987 B   0  0  2  0  0  0  0  0  0  0  0  0
   -3.0236   -1.5772   -0.1723 B   0  0  0  0  0  0  0  0  0  0  0  0
   -1.9683    0.9902    0.5930 B   0  0  1  0  0  0  0  0  0  0  0  0
   -4.0716   -0.2537   -0.8652 B   0  0  2  0  0  0  0  0  0  0  0  0
   -3.0391   -1.0670   -2.0025 B   0  0  1  0  0  0  0  0  0  0  0  0
   -0.9977   -2.5065   -2.1077 H   0  0  0  0  0  0  0  0  0  0  0  0
   -1.0554    2.1417   -1.5928 H   0  0  0  0  0  0  0  0  0  0  0  0
   -1.1492   -0.0787   -3.0793 H   0  0  0  0  0  0  0  0  0  0  0  0
   -5.2566   -0.4839   -0.9691 H   0  0  0  0  0  0  0  0  0  0  0  0
   -3.4095   -1.7708   -2.9130 H   0  0  0  0  0  0  0  0  0  0  0  0
   -1.6903    1.8293    1.4417 H   0  0  0  0  0  0  0  0  0  0  0  0
   -3.5039    1.2247   -3.0763 H   0  0  0  0  0  0  0  0  0  0  0  0
   -3.9734    2.3743   -0.3361 H   0  0  0  0  0  0  0  0  0  0  0  0
   -3.6101   -2.6011    0.1090 H   0  0  0  0  0  0  0  0  0  0  0  0
   -1.8262   -1.0585    2.3117 H   0  0  0  0  0  0  0  0  0  0  0  0
   -4.1889    0.0973    1.7029 H   0  0  0  0  0  0  0  0  0  0  0  0
  1  3  1  0  0  0  0
  2 17  1  0  0  0  0
  2 20  1  1  0  0  0
  3  6  1  0  0  0  0
  3  4  1  0  0  0  0
  3  5  1  0  0  0  0
  7  8  1  0  0  0  0
  7  9  1  0  0  0  0
  7  1  1  0  0  0  0
 10  7  1  0  0  0  0
 11 30  1  6  0  0  0
 11 15  1  0  0  0  0
 11 23  1  0  0  0  0
 11 16  1  0  0  0  0
 12  1  1  0  0  0  0
 12 13  1  0  0  0  0
 12 17  1  0  0  0  0
 14 12  1  0  0  0  0
 15 34  1  6  0  0  0
 15 27  1  0  0  0  0
 15 21  1  0  0  0  0
 16 25  1  0  0  0  0
 17 18  1  0  0  0  0
 19 17  1  0  0  0  0
 20 37  1  0  0  0  0
 21 35  1  1  0  0  0
 21 25  1  0  0  0  0
 21 22  1  0  0  0  0
 22 38  1  1  0  0  0
 23 28  1  6  0  0  0
 23  2  1  0  0  0  0
 24 36  1  0  0  0  0
 24  2  1  0  0  0  0
 25 22  1  0  0  0  0
 25 33  1  1  0  0  0
 26 31  1  6  0  0  0
 26 24  1  0  0  0  0
 26 22  1  0  0  0  0
 27 32  1  6  0  0  0
 27 23  1  0  0  0  0
 27 26  1  0  0  0  0
 29 16  1  0  0  0  0
M  END
