2
 OpenBabel05122313063D

 23 24  0  0  1  0  0  0  0  0999 V2000
   -2.4920   -1.7765   -1.6230 S   0  0  0  0  0  0  0  0  0  0  0  0
   -1.7159   -0.6622    0.7742 N   0  0  0  0  0  2  0  0  0  0  0  0
   -2.2436   -0.4042    1.9909 N   0  0  0  0  0  0  0  0  0  0  0  0
   -3.4717   -0.8118    2.0247 N   0  0  0  0  0  0  0  0  0  0  0  0
   -3.7439   -1.3595    0.8109 N   0  0  0  0  0  0  0  0  0  0  0  0
   -2.6485   -1.2698   -0.0225 C   0  0  0  0  0  0  0  0  0  0  0  0
   -5.1091   -1.6968    0.3911 C   0  0  1  0  0  0  0  0  0  0  0  0
   -4.9526   -2.3761   -0.4726 H   0  0  0  0  0  0  0  0  0  0  0  0
   -5.8651   -2.4173    1.5046 C   0  0  0  0  0  0  0  0  0  0  0  0
   -5.3332   -3.3432    1.7990 H   0  0  0  0  0  0  0  0  0  0  0  0
   -6.8773   -2.6871    1.1475 H   0  0  0  0  0  0  0  0  0  0  0  0
   -5.9668   -1.7815    2.4044 H   0  0  0  0  0  0  0  0  0  0  0  0
   -5.7755   -0.4251   -0.1242 C   0  0  0  0  0  0  0  0  0  0  0  0
   -5.9320   -0.2266   -1.5088 C   0  0  0  0  0  0  0  0  0  0  0  0
   -5.5933   -1.0094   -2.2042 H   0  0  0  0  0  0  0  0  0  0  0  0
   -6.4784    0.9706   -1.9977 C   0  0  0  0  0  0  0  0  0  0  0  0
   -6.5944    1.1148   -3.0828 H   0  0  0  0  0  0  0  0  0  0  0  0
   -6.8672    1.9831   -1.1073 C   0  0  0  0  0  0  0  0  0  0  0  0
   -7.2944    2.9225   -1.4904 H   0  0  0  0  0  0  0  0  0  0  0  0
   -6.7053    1.7948    0.2756 C   0  0  0  0  0  0  0  0  0  0  0  0
   -7.0034    2.5874    0.9789 H   0  0  0  0  0  0  0  0  0  0  0  0
   -6.1608    0.5986    0.7648 C   0  0  0  0  0  0  0  0  0  0  0  0
   -6.0122    0.4666    1.8473 H   0  0  0  0  0  0  0  0  0  0  0  0
  1  6  2  0  0  0  0
  2  3  1  0  0  0  0
  3  4  2  0  0  0  0
  5  4  1  0  0  0  0
  6  2  1  0  0  0  0
  6  5  1  0  0  0  0
  7  8  1  6  0  0  0
  7  5  1  0  0  0  0
  7  9  1  0  0  0  0
  9 10  1  0  0  0  0
  9 12  1  0  0  0  0
 11  9  1  0  0  0  0
 13  7  1  0  0  0  0
 13 22  1  0  0  0  0
 14 13  2  0  0  0  0
 15 14  1  0  0  0  0
 16 14  1  0  0  0  0
 16 18  2  0  0  0  0
 17 16  1  0  0  0  0
 18 20  1  0  0  0  0
 19 18  1  0  0  0  0
 20 22  2  0  0  0  0
 20 21  1  0  0  0  0
 22 23  1  0  0  0  0
M  END
