2
 OpenBabel05122313063D

 18 18  0  0  0  0  0  0  0  0999 V2000
   -7.0504    0.4801    0.5221 S   0  0  0  0  0  0  0  0  0  0  0  0
   -1.3862    0.2082   -1.5175 N   0  0  0  0  0  0  0  0  0  0  0  0
   -1.2180   -0.5916   -2.1444 H   0  0  0  0  0  0  0  0  0  0  0  0
   -1.1196    1.0865   -1.9862 H   0  0  0  0  0  0  0  0  0  0  0  0
   -2.7478    0.2439   -1.0510 C   0  0  0  0  0  0  0  0  0  0  0  0
   -3.3249    1.4685   -0.6661 C   0  0  0  0  0  0  0  0  0  0  0  0
   -2.7229    2.3886   -0.7081 H   0  0  0  0  0  0  0  0  0  0  0  0
   -4.6373    1.4986   -0.1928 C   0  0  0  0  0  0  0  0  0  0  0  0
   -5.0838    2.4591    0.1072 H   0  0  0  0  0  0  0  0  0  0  0  0
   -5.3964    0.3086   -0.0848 C   0  0  0  0  0  0  0  0  0  0  0  0
   -4.7979   -0.9149   -0.4533 C   0  0  0  0  0  0  0  0  0  0  0  0
   -5.3490   -1.8607   -0.3686 H   0  0  0  0  0  0  0  0  0  0  0  0
   -3.4805   -0.9462   -0.9286 C   0  0  0  0  0  0  0  0  0  0  0  0
   -3.0020   -1.9060   -1.1748 H   0  0  0  0  0  0  0  0  0  0  0  0
   -7.6598   -1.2264    0.5580 C   0  0  0  0  0  0  0  0  0  0  0  0
   -8.6953   -1.1636    0.9429 H   0  0  0  0  0  0  0  0  0  0  0  0
   -7.6824   -1.6769   -0.4543 H   0  0  0  0  0  0  0  0  0  0  0  0
   -7.0622   -1.8609    1.2425 H   0  0  0  0  0  0  0  0  0  0  0  0
  1 15  1  0  0  0  0
  2  5  1  0  0  0  0
  3  2  1  0  0  0  0
  4  2  1  0  0  0  0
  5 13  2  0  0  0  0
  5  6  1  0  0  0  0
  6  8  2  0  0  0  0
  7  6  1  0  0  0  0
  8 10  1  0  0  0  0
  8  9  1  0  0  0  0
 10  1  1  0  0  0  0
 11 12  1  0  0  0  0
 11 10  2  0  0  0  0
 13 11  1  0  0  0  0
 14 13  1  0  0  0  0
 15 16  1  0  0  0  0
 15 18  1  0  0  0  0
 17 15  1  0  0  0  0
M  END
