7
 OpenBabel05122313063D

 35 37  0  0  0  0  0  0  0  0999 V2000
    4.0701    2.1210   -2.7821 C   0  0  0  0  0  0  0  0  0  0  0  0
    4.1055    2.9396   -3.5170 H   0  0  0  0  0  0  0  0  0  0  0  0
    4.9260    1.0551   -0.7775 C   0  0  0  0  0  0  0  0  0  0  0  0
    5.6386    1.0108    0.0589 H   0  0  0  0  0  0  0  0  0  0  0  0
    2.0850   -0.9544   -2.0861 N   0  0  0  0  0  0  0  0  0  0  0  0
    3.0582    0.0777   -1.9686 C   0  0  0  0  0  0  0  0  0  0  0  0
    0.6917   -2.5707   -1.4786 N   0  0  0  0  0  2  0  0  0  0  0  0
    3.1036    1.1200   -2.9112 C   0  0  0  0  0  0  0  0  0  0  0  0
    2.3711    1.1580   -3.7302 H   0  0  0  0  0  0  0  0  0  0  0  0
    1.5874   -1.5208   -3.2572 C   0  0  0  0  0  0  0  0  0  0  0  0
    1.9141   -1.1840   -4.2450 H   0  0  0  0  0  0  0  0  0  0  0  0
    3.9767    0.0402   -0.8976 C   0  0  0  0  0  0  0  0  0  0  0  0
    3.9580   -0.7943   -0.1763 H   0  0  0  0  0  0  0  0  0  0  0  0
    0.7299   -2.5268   -2.8587 C   0  0  0  0  0  0  0  0  0  0  0  0
    0.1411   -3.2200   -3.4704 H   0  0  0  0  0  0  0  0  0  0  0  0
    5.0002    2.1173   -1.7139 C   0  0  0  0  0  0  0  0  0  0  0  0
    1.5073   -1.6191   -1.0377 C   0  0  0  0  0  3  0  0  0  0  0  0
    1.7181   -1.3866    0.0110 H   0  0  0  0  0  0  0  0  0  0  0  0
    5.9807    3.1944   -1.6297 C   0  0  0  0  0  0  0  0  0  0  0  0
    5.9421    3.9650   -2.4205 H   0  0  0  0  0  0  0  0  0  0  0  0
    6.9468    3.3728   -0.6902 C   0  0  0  0  0  0  0  0  0  0  0  0
    7.0657    2.6607    0.1387 H   0  0  0  0  0  0  0  0  0  0  0  0
    8.9237    4.7263    0.2635 C   0  0  0  0  0  0  0  0  0  0  0  0
    7.8550    4.5477   -0.7808 C   0  0  0  0  0  0  0  0  0  0  0  0
    7.7393    5.3693   -1.6956 O   0  0  0  0  0  0  0  0  0  0  0  0
    9.7516    5.8654    0.1487 C   0  0  0  0  0  0  0  0  0  0  0  0
    9.5615    6.5462   -0.6942 H   0  0  0  0  0  0  0  0  0  0  0  0
    9.1426    3.8315    1.3336 C   0  0  0  0  0  0  0  0  0  0  0  0
    8.5192    2.9343    1.4524 H   0  0  0  0  0  0  0  0  0  0  0  0
   10.1639    4.0719    2.2642 C   0  0  0  0  0  0  0  0  0  0  0  0
   10.3251    3.3665    3.0934 H   0  0  0  0  0  0  0  0  0  0  0  0
   10.9781    5.2082    2.1386 C   0  0  0  0  0  0  0  0  0  0  0  0
   11.7789    5.3950    2.8705 H   0  0  0  0  0  0  0  0  0  0  0  0
   10.7691    6.1060    1.0765 C   0  0  0  0  0  0  0  0  0  0  0  0
   11.4065    6.9976    0.9757 H   0  0  0  0  0  0  0  0  0  0  0  0
  1 16  1  0  0  0  0
  2  1  1  0  0  0  0
  3  4  1  0  0  0  0
  5  6  1  0  0  0  0
  5 17  1  0  0  0  0
  6 12  2  0  0  0  0
  7 17  1  0  0  0  0
  8  1  2  0  0  0  0
  8  6  1  0  0  0  0
  9  8  1  0  0  0  0
 10 14  2  0  0  0  0
 10  5  1  0  0  0  0
 11 10  1  0  0  0  0
 12  3  1  0  0  0  0
 12 13  1  0  0  0  0
 14  7  1  0  0  0  0
 15 14  1  0  0  0  0
 16 19  1  0  0  0  0
 16  3  2  0  0  0  0
 17 18  1  0  0  0  0
 19 21  2  0  0  0  0
 20 19  1  0  0  0  0
 21 22  1  0  0  0  0
 23 28  1  0  0  0  0
 24 21  1  0  0  0  0
 24 23  1  0  0  0  0
 25 24  2  0  0  0  0
 26 23  2  0  0  0  0
 26 34  1  0  0  0  0
 27 26  1  0  0  0  0
 28 29  1  0  0  0  0
 28 30  2  0  0  0  0
 30 31  1  0  0  0  0
 32 30  1  0  0  0  0
 32 33  1  0  0  0  0
 34 32  2  0  0  0  0
 35 34  1  0  0  0  0
M  END
