1
 OpenBabel05122313063D

 39 42  0  0  1  0  0  0  0  0999 V2000
   -1.3111   -0.7664    1.5943 N   0  0  0  0  0  0  0  0  0  0  0  0
    0.4485   -1.5492    2.7927 N   0  0  0  0  0  0  0  0  0  0  0  0
    0.0411   -0.6691    1.8783 C   0  0  0  0  0  0  0  0  0  0  0  0
   -1.7639   -1.8052    2.4087 C   0  0  0  0  0  3  0  0  0  0  0  0
   -2.8071   -2.1396    2.4057 H   0  0  0  0  0  0  0  0  0  0  0  0
   -0.6756   -2.2687    3.1308 C   0  0  0  0  0  0  0  0  0  0  0  0
   -0.6443   -3.0806    3.8693 H   0  0  0  0  0  0  0  0  0  0  0  0
    0.9484    0.3474    1.2501 C   0  0  0  0  0  0  0  0  0  0  0  0
    1.0383    1.2280    1.9246 H   0  0  0  0  0  0  0  0  0  0  0  0
    0.4965    0.7146    0.3073 H   0  0  0  0  0  0  0  0  0  0  0  0
    2.3694   -0.1904    0.9818 C   0  0  2  0  0  0  0  0  0  0  0  0
    2.7116   -0.6494    1.9350 H   0  0  0  0  0  0  0  0  0  0  0  0
    3.3425    0.8999    0.6158 C   0  0  0  0  0  0  0  0  0  0  0  0
    3.0922    2.2193    0.3653 C   0  0  0  0  0  0  0  0  0  0  0  0
    2.1069    2.7029    0.3993 H   0  0  0  0  0  0  0  0  0  0  0  0
    4.3608    2.9623    0.0311 C   0  0  0  0  0  0  0  0  0  0  0  0
    4.3179    3.4312   -0.9787 H   0  0  0  0  0  0  0  0  0  0  0  0
    4.5579    3.7982    0.7406 H   0  0  0  0  0  0  0  0  0  0  0  0
    5.4180    1.8880    0.1125 C   0  0  0  0  0  0  0  0  0  0  0  0
    4.7907    0.6624    0.4596 C   0  0  0  0  0  0  0  0  0  0  0  0
    5.5494   -0.5120    0.6019 C   0  0  0  0  0  0  0  0  0  0  0  0
    5.0654   -1.4662    0.8572 H   0  0  0  0  0  0  0  0  0  0  0  0
    6.9378   -0.4442    0.3980 C   0  0  0  0  0  0  0  0  0  0  0  0
    7.5479   -1.3543    0.5041 H   0  0  0  0  0  0  0  0  0  0  0  0
    7.5586    0.7714    0.0560 C   0  0  0  0  0  0  0  0  0  0  0  0
    8.6477    0.8020   -0.1004 H   0  0  0  0  0  0  0  0  0  0  0  0
    6.7993    1.9485   -0.0896 C   0  0  0  0  0  0  0  0  0  0  0  0
    7.2901    2.8975   -0.3578 H   0  0  0  0  0  0  0  0  0  0  0  0
    2.3633   -1.3022   -0.0664 C   0  0  0  0  0  0  0  0  0  0  0  0
    2.4445   -1.0015   -1.4408 C   0  0  0  0  0  0  0  0  0  0  0  0
    2.5499    0.0488   -1.7547 H   0  0  0  0  0  0  0  0  0  0  0  0
    2.4332   -2.0222   -2.4039 C   0  0  0  0  0  0  0  0  0  0  0  0
    2.5068   -1.7671   -3.4725 H   0  0  0  0  0  0  0  0  0  0  0  0
    2.3518   -3.3658   -2.0041 C   0  0  0  0  0  0  0  0  0  0  0  0
    2.3574   -4.1693   -2.7566 H   0  0  0  0  0  0  0  0  0  0  0  0
    2.2674   -3.6763   -0.6369 C   0  0  0  0  0  0  0  0  0  0  0  0
    2.1984   -4.7264   -0.3135 H   0  0  0  0  0  0  0  0  0  0  0  0
    2.2660   -2.6533    0.3237 C   0  0  0  0  0  0  0  0  0  0  0  0
    2.1743   -2.8865    1.3952 H   0  0  0  0  0  0  0  0  0  0  0  0
  1  3  2  0  0  0  0
  1  4  1  0  0  0  0
  2  6  2  0  0  0  0
  3  2  1  0  0  0  0
  4  6  1  0  0  0  0
  5  4  1  0  0  0  0
  6  7  1  0  0  0  0
  8  3  1  0  0  0  0
  8  9  1  0  0  0  0
 10  8  1  0  0  0  0
 11  8  1  0  0  0  0
 11 12  1  1  0  0  0
 13 11  1  0  0  0  0
 14 15  1  0  0  0  0
 14 13  2  0  0  0  0
 16 19  1  0  0  0  0
 16 14  1  0  0  0  0
 16 18  1  0  0  0  0
 17 16  1  0  0  0  0
 19 20  1  0  0  0  0
 20 21  2  0  0  0  0
 20 13  1  0  0  0  0
 21 22  1  0  0  0  0
 23 24  1  0  0  0  0
 23 21  1  0  0  0  0
 25 23  2  0  0  0  0
 26 25  1  0  0  0  0
 27 25  1  0  0  0  0
 27 19  2  0  0  0  0
 28 27  1  0  0  0  0
 29 38  1  0  0  0  0
 29 11  1  0  0  0  0
 30 29  2  0  0  0  0
 31 30  1  0  0  0  0
 32 34  2  0  0  0  0
 32 30  1  0  0  0  0
 33 32  1  0  0  0  0
 34 36  1  0  0  0  0
 35 34  1  0  0  0  0
 36 37  1  0  0  0  0
 36 38  2  0  0  0  0
 38 39  1  0  0  0  0
M  END
