2
 OpenBabel05122313063D

 16 17  0  0  0  0  0  0  0  0999 V2000
   -0.6921   -0.8837   -0.0976 N   0  0  0  0  0  0  0  0  0  0  0  0
    0.4483   -0.8173   -0.7888 N   0  0  0  0  0  2  0  0  0  0  0  0
    0.2366   -0.4769   -2.0694 N   0  0  0  0  0  0  0  0  0  0  0  0
   -1.0637   -0.3194   -2.2326 N   0  0  0  0  0  0  0  0  0  0  0  0
   -1.6269   -0.5708   -1.0184 C   0  0  0  0  0  0  0  0  0  0  0  0
   -3.0637   -0.4905   -0.7450 C   0  0  0  0  0  0  0  0  0  0  0  0
   -3.5718   -0.7606    0.5441 C   0  0  0  0  0  0  0  0  0  0  0  0
   -2.8702   -1.0462    1.3414 H   0  0  0  0  0  0  0  0  0  0  0  0
   -4.9438   -0.6716    0.8071 C   0  0  0  0  0  0  0  0  0  0  0  0
   -5.3380   -0.8851    1.8108 H   0  0  0  0  0  0  0  0  0  0  0  0
   -5.8194   -0.3084   -0.2296 C   0  0  0  0  0  0  0  0  0  0  0  0
   -7.6887   -0.1816    0.1220 Br  0  0  0  0  0  0  0  0  0  0  0  0
   -5.3371   -0.0385   -1.5209 C   0  0  0  0  0  0  0  0  0  0  0  0
   -6.0355    0.2410   -2.3224 H   0  0  0  0  0  0  0  0  0  0  0  0
   -3.9632   -0.1309   -1.7720 C   0  0  0  0  0  0  0  0  0  0  0  0
   -3.5606    0.0747   -2.7745 H   0  0  0  0  0  0  0  0  0  0  0  0
  2  1  1  0  0  0  0
  3  2  1  0  0  0  0
  4  3  2  0  0  0  0
  4  5  1  0  0  0  0
  5  6  1  0  0  0  0
  5  1  2  0  0  0  0
  6  7  1  0  0  0  0
  7  9  2  0  0  0  0
  7  8  1  0  0  0  0
  9 10  1  0  0  0  0
 11 12  1  0  0  0  0
 11  9  1  0  0  0  0
 13 11  2  0  0  0  0
 14 13  1  0  0  0  0
 15 13  1  0  0  0  0
 15  6  2  0  0  0  0
 16 15  1  0  0  0  0
M  END
