1
 OpenBabel05122313063D

 49 53  0  0  1  0  0  0  0  0999 V2000
   -1.4100    0.5541    0.4041 N   0  0  0  0  0  2  0  0  0  0  0  0
   -2.2676    2.1963    1.6582 O   0  0  0  0  0  0  0  0  0  0  0  0
    1.3730    0.7106   -0.1134 P   0  0  0  0  0  0  0  0  0  0  0  0
   -1.1808    1.4318    1.3810 C   0  0  1  0  0  3  0  0  0  0  0  0
   -3.2543    1.7874    0.7839 C   0  0  0  0  0  0  0  0  0  0  0  0
   -4.5632    2.2519    0.6621 C   0  0  0  0  0  0  0  0  0  0  0  0
   -4.9618    3.0532    1.2986 H   0  0  0  0  0  0  0  0  0  0  0  0
   -5.3337    1.6260   -0.3268 C   0  0  0  0  0  0  0  0  0  0  0  0
   -6.3747    1.9549   -0.4679 H   0  0  0  0  0  0  0  0  0  0  0  0
   -4.8311    0.5875   -1.1647 C   0  0  0  0  0  0  0  0  0  0  0  0
   -3.5067    0.1421   -1.0115 C   0  0  0  0  0  0  0  0  0  0  0  0
   -3.0660   -0.6265   -1.6617 H   0  0  0  0  0  0  0  0  0  0  0  0
   -2.7262    0.7599   -0.0216 C   0  0  0  0  0  0  0  0  0  0  0  0
    0.0348    1.6083    2.1692 C   0  0  0  0  0  0  0  0  0  0  0  0
    1.3172    1.2668    1.6377 C   0  0  0  0  0  0  0  0  0  0  0  0
    2.4420    1.3450    2.4746 C   0  0  0  0  0  0  0  0  0  0  0  0
    3.4309    1.0635    2.0858 H   0  0  0  0  0  0  0  0  0  0  0  0
    2.3189    1.7902    3.8027 C   0  0  0  0  0  0  0  0  0  0  0  0
    3.2112    1.8386    4.4442 H   0  0  0  0  0  0  0  0  0  0  0  0
    1.0701    2.1914    4.3004 C   0  0  0  0  0  0  0  0  0  0  0  0
    0.9770    2.5631    5.3312 H   0  0  0  0  0  0  0  0  0  0  0  0
   -0.0671    2.1020    3.4876 C   0  0  0  0  0  0  0  0  0  0  0  0
   -1.0544    2.3897    3.8763 H   0  0  0  0  0  0  0  0  0  0  0  0
   -5.7257   -0.0114   -2.2197 C   0  0  0  0  0  0  0  0  0  0  0  0
   -6.0213    0.7523   -2.9687 H   0  0  0  0  0  0  0  0  0  0  0  0
   -6.6635   -0.4039   -1.7759 H   0  0  0  0  0  0  0  0  0  0  0  0
   -5.2260   -0.8377   -2.7591 H   0  0  0  0  0  0  0  0  0  0  0  0
    0.9289    2.2170   -1.0724 C   0  0  0  0  0  0  0  0  0  0  0  0
    0.6187    3.4491   -0.4605 C   0  0  0  0  0  0  0  0  0  0  0  0
    0.6213    3.5525    0.6335 H   0  0  0  0  0  0  0  0  0  0  0  0
    0.3226    4.5700   -1.2518 C   0  0  0  0  0  0  0  0  0  0  0  0
    0.0843    5.5282   -0.7663 H   0  0  0  0  0  0  0  0  0  0  0  0
    0.3413    4.4719   -2.6508 C   0  0  0  0  0  0  0  0  0  0  0  0
    0.1095    5.3526   -3.2682 H   0  0  0  0  0  0  0  0  0  0  0  0
    0.6663    3.2498   -3.2612 C   0  0  0  0  0  0  0  0  0  0  0  0
    0.6891    3.1681   -4.3581 H   0  0  0  0  0  0  0  0  0  0  0  0
    0.9626    2.1248   -2.4806 C   0  0  0  0  0  0  0  0  0  0  0  0
    1.2039    1.1685   -2.9644 H   0  0  0  0  0  0  0  0  0  0  0  0
    3.0932    0.4046   -0.6339 C   0  0  0  0  0  0  0  0  0  0  0  0
    3.3523   -0.7285   -1.4289 C   0  0  0  0  0  0  0  0  0  0  0  0
    2.5273   -1.4153   -1.6662 H   0  0  0  0  0  0  0  0  0  0  0  0
    4.6406   -0.9461   -1.9406 C   0  0  0  0  0  0  0  0  0  0  0  0
    4.8383   -1.8285   -2.5675 H   0  0  0  0  0  0  0  0  0  0  0  0
    5.6692   -0.0324   -1.6637 C   0  0  0  0  0  0  0  0  0  0  0  0
    6.6803   -0.2046   -2.0620 H   0  0  0  0  0  0  0  0  0  0  0  0
    5.4039    1.1172   -0.8997 C   0  0  0  0  0  0  0  0  0  0  0  0
    6.2034    1.8482   -0.7077 H   0  0  0  0  0  0  0  0  0  0  0  0
    4.1163    1.3487   -0.3969 C   0  0  0  0  0  0  0  0  0  0  0  0
    3.9047    2.2757    0.1568 H   0  0  0  0  0  0  0  0  0  0  0  0
  1  4  1  0  0  0  0
  3 15  1  0  0  0  0
  4  2  1  0  0  0  0
  4 14  1  1  0  0  0
  5  2  1  0  0  0  0
  6  5  1  0  0  0  0
  6  7  1  0  0  0  0
  8  6  2  0  0  0  0
  9  8  1  0  0  0  0
 10 11  2  0  0  0  0
 10  8  1  0  0  0  0
 11 13  1  0  0  0  0
 12 11  1  0  0  0  0
 13  1  1  0  0  0  0
 13  5  2  0  0  0  0
 14 22  1  0  0  0  0
 15 14  2  0  0  0  0
 15 16  1  0  0  0  0
 16 18  2  0  0  0  0
 17 16  1  0  0  0  0
 18 20  1  0  0  0  0
 18 19  1  0  0  0  0
 20 21  1  0  0  0  0
 22 23  1  0  0  0  0
 22 20  2  0  0  0  0
 24 26  1  0  0  0  0
 24 10  1  0  0  0  0
 25 24  1  0  0  0  0
 27 24  1  0  0  0  0
 28 29  1  0  0  0  0
 28  3  1  0  0  0  0
 29 30  1  0  0  0  0
 31 32  1  0  0  0  0
 31 29  2  0  0  0  0
 33 31  1  0  0  0  0
 34 33  1  0  0  0  0
 35 33  2  0  0  0  0
 35 37  1  0  0  0  0
 36 35  1  0  0  0  0
 37 28  2  0  0  0  0
 38 37  1  0  0  0  0
 39 48  1  0  0  0  0
 39  3  1  0  0  0  0
 40 39  2  0  0  0  0
 41 40  1  0  0  0  0
 42 44  2  0  0  0  0
 42 40  1  0  0  0  0
 43 42  1  0  0  0  0
 44 46  1  0  0  0  0
 45 44  1  0  0  0  0
 46 47  1  0  0  0  0
 46 48  2  0  0  0  0
 48 49  1  0  0  0  0
M  END
