1
 OpenBabel05122313063D

 46 50  0  0  1  0  0  0  0  0999 V2000
   -1.5734    0.4049    0.1872 N   0  0  0  0  0  2  0  0  0  0  0  0
    1.2489    0.7892   -0.0739 P   0  0  0  0  0  0  0  0  0  0  0  0
   -2.9307    2.2778    1.3673 S   0  0  0  0  0  0  0  0  0  0  0  0
   -2.8038    0.4434   -0.4733 C   0  0  0  0  0  0  0  0  0  0  0  0
   -3.2175   -0.3759   -1.5436 C   0  0  0  0  0  0  0  0  0  0  0  0
   -2.5104   -1.0940   -1.9805 H   0  0  0  0  0  0  0  0  0  0  0  0
   -4.5054   -0.2005   -2.0536 C   0  0  0  0  0  0  0  0  0  0  0  0
   -4.8385   -0.8250   -2.8954 H   0  0  0  0  0  0  0  0  0  0  0  0
   -5.3845    0.7696   -1.5196 C   0  0  0  0  0  0  0  0  0  0  0  0
   -6.3924    0.8841   -1.9445 H   0  0  0  0  0  0  0  0  0  0  0  0
   -4.9913    1.5922   -0.4591 C   0  0  0  0  0  0  0  0  0  0  0  0
   -5.6720    2.3474   -0.0416 H   0  0  0  0  0  0  0  0  0  0  0  0
   -3.6967    1.4172    0.0560 C   0  0  0  0  0  0  0  0  0  0  0  0
   -1.4911    1.2984    1.1786 C   0  0  1  0  0  3  0  0  0  0  0  0
   -0.3515    1.5090    2.0857 C   0  0  0  0  0  0  0  0  0  0  0  0
    0.9997    1.3102    1.6655 C   0  0  0  0  0  0  0  0  0  0  0  0
    2.0420    1.4582    2.5954 C   0  0  0  0  0  0  0  0  0  0  0  0
    3.0805    1.2856    2.2785 H   0  0  0  0  0  0  0  0  0  0  0  0
    1.7728    1.8326    3.9228 C   0  0  0  0  0  0  0  0  0  0  0  0
    2.6017    1.9396    4.6381 H   0  0  0  0  0  0  0  0  0  0  0  0
    0.4534    2.0823    4.3269 C   0  0  0  0  0  0  0  0  0  0  0  0
    0.2362    2.3877    5.3607 H   0  0  0  0  0  0  0  0  0  0  0  0
   -0.5973    1.9201    3.4150 C   0  0  0  0  0  0  0  0  0  0  0  0
   -1.6350    2.0767    3.7476 H   0  0  0  0  0  0  0  0  0  0  0  0
    3.0256    0.6262   -0.4444 C   0  0  0  0  0  0  0  0  0  0  0  0
    3.4557   -0.4949   -1.1799 C   0  0  0  0  0  0  0  0  0  0  0  0
    2.7187   -1.2525   -1.4813 H   0  0  0  0  0  0  0  0  0  0  0  0
    4.8019   -0.6077   -1.5593 C   0  0  0  0  0  0  0  0  0  0  0  0
    5.1345   -1.4804   -2.1411 H   0  0  0  0  0  0  0  0  0  0  0  0
    5.7169    0.3974   -1.2099 C   0  0  0  0  0  0  0  0  0  0  0  0
    6.7730    0.3070   -1.5050 H   0  0  0  0  0  0  0  0  0  0  0  0
    5.2817    1.5335   -0.5058 C   0  0  0  0  0  0  0  0  0  0  0  0
    5.9936    2.3346   -0.2573 H   0  0  0  0  0  0  0  0  0  0  0  0
    3.9361    1.6603   -0.1348 C   0  0  0  0  0  0  0  0  0  0  0  0
    3.5927    2.5737    0.3741 H   0  0  0  0  0  0  0  0  0  0  0  0
    0.7543    2.2649   -1.0552 C   0  0  0  0  0  0  0  0  0  0  0  0
    0.3311    3.4649   -0.4465 C   0  0  0  0  0  0  0  0  0  0  0  0
    0.2650    3.5484    0.6472 H   0  0  0  0  0  0  0  0  0  0  0  0
    0.0055    4.5767   -1.2382 C   0  0  0  0  0  0  0  0  0  0  0  0
   -0.3228    5.5089   -0.7546 H   0  0  0  0  0  0  0  0  0  0  0  0
    0.1068    4.5029   -2.6353 C   0  0  0  0  0  0  0  0  0  0  0  0
   -0.1491    5.3763   -3.2535 H   0  0  0  0  0  0  0  0  0  0  0  0
    0.5461    3.3150   -3.2416 C   0  0  0  0  0  0  0  0  0  0  0  0
    0.6359    3.2533   -4.3364 H   0  0  0  0  0  0  0  0  0  0  0  0
    0.8735    2.1991   -2.4603 C   0  0  0  0  0  0  0  0  0  0  0  0
    1.2051    1.2686   -2.9407 H   0  0  0  0  0  0  0  0  0  0  0  0
  1 14  1  0  0  0  0
  2 16  1  0  0  0  0
  4 13  1  0  0  0  0
  4  1  1  0  0  0  0
  5  4  2  0  0  0  0
  6  5  1  0  0  0  0
  7  5  1  0  0  0  0
  7  9  2  0  0  0  0
  8  7  1  0  0  0  0
  9 11  1  0  0  0  0
 10  9  1  0  0  0  0
 11 12  1  0  0  0  0
 11 13  2  0  0  0  0
 13  3  1  0  0  0  0
 14  3  1  0  0  0  0
 14 15  1  1  0  0  0
 15 23  1  0  0  0  0
 16 15  2  0  0  0  0
 16 17  1  0  0  0  0
 17 19  2  0  0  0  0
 18 17  1  0  0  0  0
 19 21  1  0  0  0  0
 19 20  1  0  0  0  0
 21 22  1  0  0  0  0
 23 24  1  0  0  0  0
 23 21  2  0  0  0  0
 25 34  1  0  0  0  0
 25  2  1  0  0  0  0
 26 25  2  0  0  0  0
 27 26  1  0  0  0  0
 28 30  2  0  0  0  0
 28 26  1  0  0  0  0
 29 28  1  0  0  0  0
 30 32  1  0  0  0  0
 31 30  1  0  0  0  0
 32 33  1  0  0  0  0
 32 34  2  0  0  0  0
 34 35  1  0  0  0  0
 36 37  1  0  0  0  0
 36  2  1  0  0  0  0
 37 38  1  0  0  0  0
 39 40  1  0  0  0  0
 39 37  2  0  0  0  0
 41 39  1  0  0  0  0
 42 41  1  0  0  0  0
 43 41  2  0  0  0  0
 43 45  1  0  0  0  0
 44 43  1  0  0  0  0
 45 36  2  0  0  0  0
 46 45  1  0  0  0  0
M  END
