3
 OpenBabel05122313063D

 10 10  0  0  0  0  0  0  0  0999 V2000
   -3.9133    2.6310   -1.4906 Cl  0  0  0  0  0  0  0  0  0  0  0  0
   -3.9135   -2.6304   -1.4916 Cl  0  0  0  0  0  0  0  0  0  0  0  0
   -1.6456   -0.0001    0.3999 N   0  0  0  0  0  2  0  0  0  0  0  0
   -3.7644    0.0003   -1.3761 N   0  0  0  0  0  0  0  0  0  0  0  0
   -2.1600    1.1652   -0.0224 C   0  0  0  0  0  3  0  0  0  0  0  0
   -1.7160    2.0876    0.3888 H   0  0  0  0  0  0  0  0  0  0  0  0
   -3.2391    1.1369   -0.9296 C   0  0  0  0  0  0  0  0  0  0  0  0
   -3.2392   -1.1366   -0.9300 C   0  0  0  0  0  0  0  0  0  0  0  0
   -2.1600   -1.1653   -0.0229 C   0  0  0  0  0  0  0  0  0  0  0  0
   -1.7160   -2.0878    0.3879 H   0  0  0  0  0  0  0  0  0  0  0  0
  1  7  1  0  0  0  0
  2  8  1  0  0  0  0
  4  8  1  0  0  0  0
  4  7  2  0  0  0  0
  5  6  1  0  0  0  0
  5  3  1  0  0  0  0
  7  5  1  0  0  0  0
  8  9  2  0  0  0  0
  9 10  1  0  0  0  0
  9  3  1  0  0  0  0
M  END
