6
 OpenBabel05122313063D

 29 30  0  0  1  0  0  0  0  0999 V2000
    0.2915    0.4257   -1.8955 S   0  0  0  0  0  1  0  0  0  0  0  0
   -5.1073   -3.2195   -0.5465 O   0  0  0  0  0  0  0  0  0  0  0  0
   -5.7326   -2.3963   -2.4724 O   0  0  0  0  0  0  0  0  0  0  0  0
   -3.7960    1.1799    1.3889 O   0  0  0  0  0  0  0  0  0  0  0  0
   -3.0061    2.6332    2.8201 O   0  0  0  0  0  0  0  0  0  0  0  0
   -0.6274   -1.1065    0.4383 N   0  0  0  0  0  2  0  0  0  0  0  0
    0.0296   -1.5420    2.6078 N   0  0  0  0  0  2  0  0  0  0  0  0
   -4.9468   -2.5037   -1.5338 N   0  0  0  0  0  0  0  0  0  0  0  0
   -3.0628    1.4949    2.3425 N   0  0  0  0  0  0  0  0  0  0  0  0
   -1.3355   -0.3018   -1.7385 C   0  0  0  0  0  0  0  0  0  0  0  0
   -1.5882   -1.0675   -0.5637 C   0  0  0  0  0  0  0  0  0  0  0  0
   -2.7906   -1.8149   -0.5438 C   0  0  0  0  0  0  0  0  0  0  0  0
   -3.0255   -2.5137    0.2670 H   0  0  0  0  0  0  0  0  0  0  0  0
   -3.6937   -1.6983   -1.5998 C   0  0  0  0  0  0  0  0  0  0  0  0
   -3.4661   -0.9004   -2.7301 C   0  0  0  0  0  0  0  0  0  0  0  0
   -4.2167   -0.8593   -3.5286 H   0  0  0  0  0  0  0  0  0  0  0  0
   -2.2489   -0.2146   -2.7997 C   0  0  0  0  0  0  0  0  0  0  0  0
   -1.9967    0.3886   -3.6835 H   0  0  0  0  0  0  0  0  0  0  0  0
   -0.9319   -1.2280    1.7626 C   0  0  1  0  0  3  0  0  0  0  0  0
    0.0638   -1.2426    3.9206 C   0  0  0  0  0  0  0  0  0  0  0  0
    0.7670   -1.8642    4.5068 H   0  0  0  0  0  0  0  0  0  0  0  0
   -0.5103   -0.1521    4.5817 C   0  0  0  0  0  0  0  0  0  0  0  0
   -0.1322    0.0604    5.5940 H   0  0  0  0  0  0  0  0  0  0  0  0
   -1.4366    0.7610    4.0152 C   0  0  0  0  0  0  0  0  0  0  0  0
   -1.5700    1.7582    4.4608 H   0  0  0  0  0  0  0  0  0  0  0  0
   -2.2318    0.4501    2.9329 C   0  0  0  0  0  0  0  0  0  0  0  0
   -2.3211   -0.9123    2.3402 C   0  0  0  0  0  0  0  0  0  0  0  0
   -3.1334   -0.9145    1.5987 H   0  0  0  0  0  0  0  0  0  0  0  0
   -2.5287   -1.6639    3.1315 H   0  0  0  0  0  0  0  0  0  0  0  0
  1 10  1  0  0  0  0
  3  8  2  0  0  0  0
  4  9  2  0  0  0  0
  7 20  1  0  0  0  0
  8  2  2  0  0  0  0
  9  5  2  0  0  0  0
  9 26  1  0  0  0  0
 10 11  1  0  0  0  0
 11 12  2  0  0  0  0
 11  6  1  0  0  0  0
 12 13  1  0  0  0  0
 14  8  1  0  0  0  0
 14 12  1  0  0  0  0
 15 14  2  0  0  0  0
 16 15  1  0  0  0  0
 17 15  1  0  0  0  0
 17 10  2  0  0  0  0
 18 17  1  0  0  0  0
 19  6  1  1  0  0  0
 19 27  1  0  0  0  0
 19  7  1  0  0  0  0
 20 21  1  0  0  0  0
 20 22  2  0  0  0  0
 22 23  1  0  0  0  0
 24 25  1  0  0  0  0
 24 22  1  0  0  0  0
 26 24  2  0  0  0  0
 27 26  1  0  0  0  0
 27 29  1  0  0  0  0
 28 27  1  0  0  0  0
M  END
