7
 OpenBabel05122313063D

 17 18  0  0  1  0  0  0  0  0999 V2000
   -3.4135    1.0869   -0.8863 N   0  0  0  0  0  0  0  0  0  0  0  0
   -2.3842    1.2951   -1.4558 H   0  0  0  0  0  0  0  0  0  0  0  0
   -4.6930    0.3268    0.7252 N   0  0  0  0  0  0  0  0  0  0  0  0
   -4.9610   -0.2560    1.5188 H   0  0  0  0  0  0  0  0  0  0  0  0
   -3.7188   -2.5161   -0.0899 N   0  0  0  0  0  0  0  0  0  0  0  0
   -4.7113   -2.6659    0.0940 H   0  0  0  0  0  0  0  0  0  0  0  0
   -1.8226   -1.5028   -0.6331 N   0  0  0  0  0  2  0  0  0  0  0  0
   -3.7108   -0.0026   -0.1625 C   0  0  1  0  0  3  0  0  0  0  0  0
   -4.1446    2.1403   -0.3995 C   0  0  0  0  0  0  0  0  0  0  0  0
   -4.0114    3.1500   -0.7992 H   0  0  0  0  0  0  0  0  0  0  0  0
   -4.9580    1.6797    0.6130 C   0  0  0  0  0  0  0  0  0  0  0  0
   -5.6816    2.1879    1.2558 H   0  0  0  0  0  0  0  0  0  0  0  0
   -3.0945   -1.3077   -0.3002 C   0  0  2  0  0  3  0  0  0  0  0  0
   -2.7839   -3.5106   -0.3122 C   0  0  0  0  0  0  0  0  0  0  0  0
   -3.0332   -4.5712   -0.2101 H   0  0  0  0  0  0  0  0  0  0  0  0
   -1.6073   -2.8537   -0.6452 C   0  0  0  0  0  0  0  0  0  0  0  0
   -0.6071   -3.2451   -0.8672 H   0  0  0  0  0  0  0  0  0  0  0  0
  1  9  1  0  0  0  0
  2  1  1  0  0  0  0
  3  4  1  0  0  0  0
  5  6  1  0  0  0  0
  8  1  1  6  0  0  0
  8  3  1  0  0  0  0
  9 11  2  0  0  0  0
 10  9  1  0  0  0  0
 11  3  1  0  0  0  0
 11 12  1  0  0  0  0
 13  7  1  1  0  0  0
 13  8  1  0  0  0  0
 13  5  1  0  0  0  0
 14 15  1  0  0  0  0
 14  5  1  0  0  0  0
 16  7  1  0  0  0  0
 16 14  2  0  0  0  0
 17 16  1  0  0  0  0
M  END
