1
 OpenBabel05122313063D

 10  9  0  0  0  0  0  0  0  0999 V2000
   -1.9576    0.5379   -0.3421 N   0  0  0  0  0  0  0  0  0  0  0  0
   -2.9650   -0.1171    0.5095 C   0  0  0  0  0  0  0  0  0  0  0  0
   -4.3617    0.1138   -0.0349 C   0  0  0  0  0  0  0  0  0  0  0  0
   -5.3117   -0.2785    0.8355 O   0  0  0  0  0  0  0  0  0  0  0  0
   -6.1734   -0.1354    0.3852 H   0  0  0  0  0  0  0  0  0  0  0  0
   -4.5909    0.5702   -1.1401 O   0  0  0  0  0  0  0  0  0  0  0  0
   -2.8736    0.2373    1.5537 H   0  0  0  0  0  0  0  0  0  0  0  0
   -2.7506   -1.2084    0.5209 H   0  0  0  0  0  0  0  0  0  0  0  0
   -1.9850    1.5677   -0.2258 H   0  0  0  0  0  0  0  0  0  0  0  0
   -2.2120    0.3680   -1.3306 H   0  0  0  0  0  0  0  0  0  0  0  0
  1  9  1  0  0  0  0
  1  2  1  0  0  0  0
  2  8  1  0  0  0  0
  2  7  1  0  0  0  0
  3  2  1  0  0  0  0
  3  4  1  0  0  0  0
  5  4  1  0  0  0  0
  6  3  2  0  0  0  0
 10  1  1  0  0  0  0
M  END
