1
 OpenBabel05122313063D

 26 28  0  0  0  0  0  0  0  0999 V2000
   -0.6781    1.9909   -0.1673 N   0  0  0  0  0  2  0  0  0  0  0  0
   -0.4163    3.2802    0.1255 C   0  0  0  0  0  3  0  0  0  0  0  0
   -1.4285    4.2352    0.2503 C   0  0  0  0  0  0  0  0  0  0  0  0
   -2.7577    3.8279    0.0595 C   0  0  0  0  0  0  0  0  0  0  0  0
   -3.0222    2.4951   -0.2674 C   0  0  0  0  0  0  0  0  0  0  0  0
   -1.9536    1.5842   -0.3899 C   0  0  0  0  0  0  0  0  0  0  0  0
   -2.1506    0.1777   -0.8162 C   0  0  0  0  0  0  0  0  0  0  0  0
   -1.3482   -0.3462   -1.8330 C   0  0  0  0  0  0  0  0  0  0  0  0
   -1.4864   -1.6926   -2.2550 C   0  0  0  0  0  0  0  0  0  0  0  0
   -2.4070   -2.5300   -1.6446 C   0  0  0  0  0  0  0  0  0  0  0  0
   -3.2388   -2.0384   -0.5990 C   0  0  0  0  0  0  0  0  0  0  0  0
   -4.1903   -2.8530    0.0770 C   0  0  0  0  0  0  0  0  0  0  0  0
   -4.9631   -2.3061    1.0875 C   0  0  0  0  0  0  0  0  0  0  0  0
   -4.7820   -0.9323    1.4098 C   0  0  0  0  0  0  0  0  0  0  0  0
   -3.9102   -0.1397    0.8078 N   0  0  0  0  0  0  0  0  0  0  0  0
   -3.1304   -0.6600   -0.1825 C   0  0  0  0  0  0  0  0  0  0  0  0
    0.6455    3.5320    0.2647 H   0  0  0  0  0  0  0  0  0  0  0  0
   -1.1727    5.2748    0.4982 H   0  0  0  0  0  0  0  0  0  0  0  0
   -3.5838    4.5483    0.1569 H   0  0  0  0  0  0  0  0  0  0  0  0
   -4.0450    2.1358   -0.4315 H   0  0  0  0  0  0  0  0  0  0  0  0
   -0.5992    0.2995   -2.3170 H   0  0  0  0  0  0  0  0  0  0  0  0
   -0.8436   -2.0682   -3.0650 H   0  0  0  0  0  0  0  0  0  0  0  0
   -2.5080   -3.5818   -1.9555 H   0  0  0  0  0  0  0  0  0  0  0  0
   -4.2948   -3.9106   -0.2133 H   0  0  0  0  0  0  0  0  0  0  0  0
   -5.7040   -2.9081    1.6340 H   0  0  0  0  0  0  0  0  0  0  0  0
   -5.3938   -0.4748    2.2092 H   0  0  0  0  0  0  0  0  0  0  0  0
  1  2  1  0  0  0  0
  2  3  1  0  0  0  0
  2 17  1  0  0  0  0
  3 18  1  0  0  0  0
  4 19  1  0  0  0  0
  4  3  2  0  0  0  0
  5  4  1  0  0  0  0
  6  5  2  0  0  0  0
  6  1  1  0  0  0  0
  7  6  1  0  0  0  0
  7 16  1  0  0  0  0
  8  7  2  0  0  0  0
  9  8  1  0  0  0  0
  9 10  2  0  0  0  0
 10 11  1  0  0  0  0
 11 16  2  0  0  0  0
 11 12  1  0  0  0  0
 12 13  2  0  0  0  0
 13 14  1  0  0  0  0
 13 25  1  0  0  0  0
 14 26  1  0  0  0  0
 15 14  2  0  0  0  0
 16 15  1  0  0  0  0
 20  5  1  0  0  0  0
 21  8  1  0  0  0  0
 22  9  1  0  0  0  0
 23 10  1  0  0  0  0
 24 12  1  0  0  0  0
M  END
