1
 OpenBabel05122313063D

 25 25  0  0  0  0  0  0  0  0999 V2000
    1.5386    1.1567   -0.5794 N   0  0  0  0  0  2  0  0  0  0  0  0
    1.3804    1.7917    0.6902 C   0  0  0  0  0  0  0  0  0  0  0  0
    1.7165    1.1116    1.8802 C   0  0  0  0  0  0  0  0  0  0  0  0
    1.5192    1.7179    3.1307 C   0  0  0  0  0  0  0  0  0  0  0  0
    1.0062    3.0208    3.2157 C   0  0  0  0  0  0  0  0  0  0  0  0
    0.6838    3.7157    2.0355 C   0  0  0  0  0  0  0  0  0  0  0  0
    0.8604    3.1062    0.7866 C   0  0  0  0  0  0  0  0  0  0  0  0
    0.5771    3.6334   -0.1354 H   0  0  0  0  0  0  0  0  0  0  0  0
    0.2748    4.7363    2.0905 H   0  0  0  0  0  0  0  0  0  0  0  0
    0.8550    3.4965    4.1965 H   0  0  0  0  0  0  0  0  0  0  0  0
    1.7740    1.1597    4.0444 H   0  0  0  0  0  0  0  0  0  0  0  0
    2.1312    0.0977    1.8120 H   0  0  0  0  0  0  0  0  0  0  0  0
    2.6743    1.6065   -1.4619 C   0  0  0  0  0  0  0  0  0  0  0  0
    3.7770    2.2688   -0.6153 C   0  0  0  0  0  0  0  0  0  0  0  0
    3.4327    3.2059   -0.1374 H   0  0  0  0  0  0  0  0  0  0  0  0
    4.6389    2.5138   -1.2668 H   0  0  0  0  0  0  0  0  0  0  0  0
    4.1300    1.5884    0.1848 H   0  0  0  0  0  0  0  0  0  0  0  0
    3.2707    0.3606   -2.1425 C   0  0  0  0  0  0  0  0  0  0  0  0
    2.5123   -0.1516   -2.7636 H   0  0  0  0  0  0  0  0  0  0  0  0
    3.6413   -0.3519   -1.3789 H   0  0  0  0  0  0  0  0  0  0  0  0
    4.1199    0.6468   -2.7953 H   0  0  0  0  0  0  0  0  0  0  0  0
    2.1695    2.5935   -2.5301 C   0  0  0  0  0  0  0  0  0  0  0  0
    1.3760    2.1206   -3.1406 H   0  0  0  0  0  0  0  0  0  0  0  0
    2.9967    2.8967   -3.2038 H   0  0  0  0  0  0  0  0  0  0  0  0
    1.7588    3.5109   -2.0636 H   0  0  0  0  0  0  0  0  0  0  0  0
  1  2  1  0  0  0  0
  2  7  2  0  0  0  0
  2  3  1  0  0  0  0
  3  4  2  0  0  0  0
  4  5  1  0  0  0  0
  4 11  1  0  0  0  0
  5 10  1  0  0  0  0
  6  9  1  0  0  0  0
  6  5  2  0  0  0  0
  7  6  1  0  0  0  0
  8  7  1  0  0  0  0
 12  3  1  0  0  0  0
 13 14  1  0  0  0  0
 13  1  1  0  0  0  0
 14 15  1  0  0  0  0
 14 17  1  0  0  0  0
 16 14  1  0  0  0  0
 18 13  1  0  0  0  0
 18 20  1  0  0  0  0
 19 18  1  0  0  0  0
 21 18  1  0  0  0  0
 22 25  1  0  0  0  0
 22 13  1  0  0  0  0
 23 22  1  0  0  0  0
 24 22  1  0  0  0  0
M  END
