5
 OpenBabel05122313063D

 23 25  0  0  1  0  0  0  0  0999 V2000
   -7.2382    1.9061   -0.7842 O   0  0  0  0  0  0  0  0  0  0  0  0
   -5.8838   -2.2900    0.6321 O   0  0  0  0  0  0  0  0  0  0  0  0
   -1.2318   -0.4274    0.1278 N   0  0  0  0  0  0  0  0  0  0  0  0
   -0.9052   -1.2972   -0.3415 H   0  0  0  0  0  0  0  0  0  0  0  0
   -0.2641    0.4707    0.4291 N   0  0  0  0  0  2  0  0  0  0  0  0
   -0.8523    1.6264    0.7664 C   0  0  0  0  0  0  0  0  0  0  0  0
   -0.2387    2.4969    1.0193 H   0  0  0  0  0  0  0  0  0  0  0  0
   -3.3927    2.3168    0.8775 C   0  0  0  0  0  0  0  0  0  0  0  0
   -3.2712    3.3569    1.2127 H   0  0  0  0  0  0  0  0  0  0  0  0
   -4.6622    1.7958    0.6558 C   0  0  0  0  0  0  0  0  0  0  0  0
   -5.5462    2.4262    0.8051 H   0  0  0  0  0  0  0  0  0  0  0  0
   -4.8404    0.4511    0.2050 C   0  0  0  0  0  0  0  0  0  0  0  0
   -3.7477   -0.3968   -0.0184 C   0  0  0  0  0  0  0  0  0  0  0  0
   -3.8838   -1.4320   -0.3500 H   0  0  0  0  0  0  0  0  0  0  0  0
   -2.4716    0.1388    0.2298 C   0  0  2  0  0  3  0  0  0  0  0  0
   -2.2672    1.4864    0.6670 C   0  0  0  0  0  0  0  0  0  0  0  0
   -6.1583   -0.0390   -0.0063 N   0  0  0  0  0  0  0  0  0  0  0  0
   -6.5783   -1.3767    0.2272 C   0  0  0  0  0  0  0  0  0  0  0  0
   -8.0362   -1.4279   -0.1262 C   0  0  0  0  0  0  0  0  0  0  0  0
   -8.6134   -2.3561   -0.0315 H   0  0  0  0  0  0  0  0  0  0  0  0
   -8.4278   -0.2094   -0.5439 C   0  0  0  0  0  0  0  0  0  0  0  0
   -9.4123    0.1312   -0.8879 H   0  0  0  0  0  0  0  0  0  0  0  0
   -7.2560    0.7275   -0.4850 C   0  0  0  0  0  0  0  0  0  0  0  0
  1 23  2  0  0  0  0
  3 15  1  0  0  0  0
  3  5  1  0  0  0  0
  4  3  1  0  0  0  0
  5  6  1  0  0  0  0
  6  7  1  0  0  0  0
  8  9  1  0  0  0  0
 10 11  1  0  0  0  0
 10  8  2  0  0  0  0
 12 10  1  0  0  0  0
 13 12  2  0  0  0  0
 14 13  1  0  0  0  0
 15 13  1  6  0  0  0
 15 16  1  0  0  0  0
 16  6  2  0  0  0  0
 16  8  1  0  0  0  0
 17 12  1  0  0  0  0
 17 18  1  0  0  0  0
 18  2  2  0  0  0  0
 19 20  1  0  0  0  0
 19 18  1  0  0  0  0
 21 23  1  0  0  0  0
 21 19  2  0  0  0  0
 22 21  1  0  0  0  0
 23 17  1  0  0  0  0
M  END
