2
 OpenBabel05122313063D

 41 43  0  0  1  0  0  0  0  0999 V2000
    2.3707    2.7799   -0.4907 O   0  0  0  0  0  0  0  0  0  0  0  0
    0.3728    0.1100    0.5854 N   0  0  0  0  0  2  0  0  0  0  0  0
    0.7035    1.3427    0.0668 N   0  0  0  0  0  0  0  0  0  0  0  0
    3.0945    3.2958   -1.6159 C   0  0  0  0  0  0  0  0  0  0  0  0
    1.8774    1.5303   -0.5571 C   0  0  2  0  0  3  0  0  0  0  0  0
    2.6905    0.4075   -1.0335 C   0  0  0  0  0  0  0  0  0  0  0  0
    2.1379   -0.5911   -1.8672 C   0  0  0  0  0  0  0  0  0  0  0  0
    2.9245   -1.6682   -2.2836 C   0  0  0  0  0  0  0  0  0  0  0  0
    4.2687   -1.7613   -1.8795 C   0  0  0  0  0  0  0  0  0  0  0  0
    4.8253   -0.7704   -1.0559 C   0  0  0  0  0  0  0  0  0  0  0  0
    4.0428    0.3106   -0.6301 C   0  0  0  0  0  0  0  0  0  0  0  0
    1.3620   -0.4271    1.4341 C   0  0  0  0  0  0  0  0  0  0  0  0
    1.5261   -1.8267    1.5411 C   0  0  0  0  0  0  0  0  0  0  0  0
    2.4589   -2.3758    2.4320 C   0  0  0  0  0  0  0  0  0  0  0  0
    3.2644   -1.5509    3.2302 C   0  0  0  0  0  0  0  0  0  0  0  0
    3.1189   -0.1564    3.1242 C   0  0  0  0  0  0  0  0  0  0  0  0
    2.1871    0.4021    2.2435 C   0  0  0  0  0  0  0  0  0  0  0  0
   -0.2015    2.4396    0.2975 C   0  0  0  0  0  0  0  0  0  0  0  0
   -0.5927    3.2759   -0.7607 C   0  0  0  0  0  0  0  0  0  0  0  0
   -1.4731    4.3338   -0.5028 C   0  0  0  0  0  0  0  0  0  0  0  0
   -1.9579    4.5499    0.7982 C   0  0  0  0  0  0  0  0  0  0  0  0
   -1.5660    3.7005    1.8454 C   0  0  0  0  0  0  0  0  0  0  0  0
   -0.6877    2.6380    1.5996 C   0  0  0  0  0  0  0  0  0  0  0  0
    3.5361    4.2507   -1.2801 H   0  0  0  0  0  0  0  0  0  0  0  0
    2.3967    3.4852   -2.4585 H   0  0  0  0  0  0  0  0  0  0  0  0
    3.8940    2.6034   -1.9458 H   0  0  0  0  0  0  0  0  0  0  0  0
    1.0880   -0.5147   -2.1777 H   0  0  0  0  0  0  0  0  0  0  0  0
    2.4788   -2.4479   -2.9183 H   0  0  0  0  0  0  0  0  0  0  0  0
    4.8817   -2.6156   -2.2037 H   0  0  0  0  0  0  0  0  0  0  0  0
    5.8720   -0.8484   -0.7265 H   0  0  0  0  0  0  0  0  0  0  0  0
    4.4599    1.0658    0.0522 H   0  0  0  0  0  0  0  0  0  0  0  0
    0.9219   -2.4822    0.9022 H   0  0  0  0  0  0  0  0  0  0  0  0
    2.5607   -3.4703    2.4900 H   0  0  0  0  0  0  0  0  0  0  0  0
    3.9955   -1.9854    3.9275 H   0  0  0  0  0  0  0  0  0  0  0  0
    3.7327    0.5113    3.7487 H   0  0  0  0  0  0  0  0  0  0  0  0
    2.0859    1.4969    2.1900 H   0  0  0  0  0  0  0  0  0  0  0  0
   -0.2384    3.0682   -1.7806 H   0  0  0  0  0  0  0  0  0  0  0  0
   -1.7990    4.9832   -1.3288 H   0  0  0  0  0  0  0  0  0  0  0  0
   -2.6580    5.3758    0.9928 H   0  0  0  0  0  0  0  0  0  0  0  0
   -1.9577    3.8576    2.8610 H   0  0  0  0  0  0  0  0  0  0  0  0
   -0.3863    1.9440    2.3969 H   0  0  0  0  0  0  0  0  0  0  0  0
  2 12  1  0  0  0  0
  3 18  1  0  0  0  0
  3  2  1  0  0  0  0
  4 24  1  0  0  0  0
  4  1  1  0  0  0  0
  5  1  1  1  0  0  0
  5  3  1  0  0  0  0
  6 11  1  0  0  0  0
  6  5  1  0  0  0  0
  7  6  2  0  0  0  0
  8  9  2  0  0  0  0
  8  7  1  0  0  0  0
  9 10  1  0  0  0  0
 10 30  1  0  0  0  0
 10 11  2  0  0  0  0
 11 31  1  0  0  0  0
 12 13  2  0  0  0  0
 12 17  1  0  0  0  0
 13 14  1  0  0  0  0
 14 33  1  0  0  0  0
 14 15  2  0  0  0  0
 15 34  1  0  0  0  0
 16 15  1  0  0  0  0
 16 35  1  0  0  0  0
 17 16  2  0  0  0  0
 18 23  1  0  0  0  0
 19 20  1  0  0  0  0
 19 18  2  0  0  0  0
 20 21  2  0  0  0  0
 21 39  1  0  0  0  0
 21 22  1  0  0  0  0
 22 40  1  0  0  0  0
 23 22  2  0  0  0  0
 23 41  1  0  0  0  0
 25  4  1  0  0  0  0
 26  4  1  0  0  0  0
 27  7  1  0  0  0  0
 28  8  1  0  0  0  0
 29  9  1  0  0  0  0
 32 13  1  0  0  0  0
 36 17  1  0  0  0  0
 37 19  1  0  0  0  0
 38 20  1  0  0  0  0
M  END
