2
 OpenBabel05122313063D

 27 27  0  0  0  0  0  0  0  0999 V2000
   -0.9274   -0.0514   -1.3615 Se  0  0  0  0  0  0  0  0  0  0  0  0
    1.0061    1.8071    0.3937 N   0  0  0  0  0  0  0  0  0  0  0  0
   -2.4273   -0.1643   -0.1105 C   0  0  0  0  0  0  0  0  0  0  0  0
   -2.2245   -0.6649    1.1859 C   0  0  0  0  0  0  0  0  0  0  0  0
   -3.3209   -0.7625    2.0582 C   0  0  0  0  0  0  0  0  0  0  0  0
   -4.5993   -0.3626    1.6379 C   0  0  0  0  0  0  0  0  0  0  0  0
   -4.7920    0.1266    0.3352 C   0  0  0  0  0  0  0  0  0  0  0  0
   -3.7067    0.2174   -0.5503 C   0  0  0  0  0  0  0  0  0  0  0  0
   -0.8051    1.9384   -1.3643 C   0  0  0  0  0  0  0  0  0  0  0  0
   -0.3034    2.4075   -0.0148 C   0  0  0  0  0  0  0  0  0  0  0  0
    2.1348    2.4211   -0.3531 C   0  0  0  0  0  0  0  0  0  0  0  0
    1.1937    2.0498    1.8487 C   0  0  0  0  0  0  0  0  0  0  0  0
   -1.2113   -0.9745    1.4908 H   0  0  0  0  0  0  0  0  0  0  0  0
   -3.1701   -1.1566    3.0746 H   0  0  0  0  0  0  0  0  0  0  0  0
   -5.4541   -0.4393    2.3266 H   0  0  0  0  0  0  0  0  0  0  0  0
   -5.7957    0.4293    0.0001 H   0  0  0  0  0  0  0  0  0  0  0  0
   -3.8622    0.5784   -1.5794 H   0  0  0  0  0  0  0  0  0  0  0  0
   -0.1232    2.1842   -2.2019 H   0  0  0  0  0  0  0  0  0  0  0  0
   -1.8057    2.3560   -1.5870 H   0  0  0  0  0  0  0  0  0  0  0  0
   -1.0446    2.1276    0.7606 H   0  0  0  0  0  0  0  0  0  0  0  0
   -0.2058    3.5182    0.0013 H   0  0  0  0  0  0  0  0  0  0  0  0
    2.0068    2.2512   -1.4373 H   0  0  0  0  0  0  0  0  0  0  0  0
    3.0660    1.9191   -0.0308 H   0  0  0  0  0  0  0  0  0  0  0  0
    2.1861    3.5135   -0.1440 H   0  0  0  0  0  0  0  0  0  0  0  0
    0.3633    1.5731    2.4011 H   0  0  0  0  0  0  0  0  0  0  0  0
    1.2073    3.1433    2.0540 H   0  0  0  0  0  0  0  0  0  0  0  0
    2.1427    1.5755    2.1588 H   0  0  0  0  0  0  0  0  0  0  0  0
  1  3  1  0  0  0  0
  2 12  1  0  0  0  0
  3  4  1  0  0  0  0
  4 13  1  0  0  0  0
  4  5  2  0  0  0  0
  5 14  1  0  0  0  0
  6  5  1  0  0  0  0
  6 15  1  0  0  0  0
  7  6  2  0  0  0  0
  8  3  2  0  0  0  0
  8  7  1  0  0  0  0
  9  1  1  0  0  0  0
  9 10  1  0  0  0  0
 10 21  1  0  0  0  0
 10  2  1  0  0  0  0
 10 20  1  0  0  0  0
 11 24  1  0  0  0  0
 11 23  1  0  0  0  0
 11  2  1  0  0  0  0
 12 26  1  0  0  0  0
 12 27  1  0  0  0  0
 12 25  1  0  0  0  0
 16  7  1  0  0  0  0
 17  8  1  0  0  0  0
 18  9  1  0  0  0  0
 19  9  1  0  0  0  0
 22 11  1  0  0  0  0
M  END
