5
 OpenBabel05122313063D

 27 28  0  0  1  0  0  0  0  0999 V2000
   -0.2306   -1.6088   -0.5375 O   0  0  0  0  0  0  0  0  0  0  0  0
    0.5142   -2.0323   -1.0052 H   0  0  0  0  0  0  0  0  0  0  0  0
  -10.9403   -1.3545   -0.7933 O   0  5  0  0  0  0  0  0  0  0  0  0
  -10.9418    0.0213    1.0054 O   0  0  0  0  0  0  0  0  0  0  0  0
   -1.8100    0.5612   -0.5397 N   0  0  0  0  0  2  0  0  0  0  0  0
   -1.4286   -1.7045   -1.3312 C   0  0  0  0  0  0  0  0  0  0  0  0
   -1.8870   -2.7105   -1.2328 H   0  0  0  0  0  0  0  0  0  0  0  0
   -1.1834   -1.5359   -2.4053 H   0  0  0  0  0  0  0  0  0  0  0  0
   -2.3879   -0.6367   -0.8664 C   0  0  2  0  0  3  0  0  0  0  0  0
   -3.7591   -0.8435   -0.8254 C   0  0  0  0  0  0  0  0  0  0  0  0
   -4.1442   -1.8344   -1.1026 H   0  0  0  0  0  0  0  0  0  0  0  0
   -4.6679    0.2123   -0.4708 C   0  0  0  0  0  0  0  0  0  0  0  0
   -4.0276    1.4666   -0.1850 C   0  0  0  0  0  0  0  0  0  0  0  0
   -4.6222    2.3460    0.0936 H   0  0  0  0  0  0  0  0  0  0  0  0
   -2.6519    1.5853   -0.2029 C   0  0  0  0  0  0  0  0  0  0  0  0
   -2.1696    2.5346    0.0805 H   0  0  0  0  0  0  0  0  0  0  0  0
   -6.0964    0.0144   -0.3691 C   0  0  0  0  0  0  0  0  0  0  0  0
   -6.9883    1.1149   -0.1751 C   0  0  0  0  0  0  0  0  0  0  0  0
   -6.5962    2.1422   -0.1406 H   0  0  0  0  0  0  0  0  0  0  0  0
   -8.3560    0.9199   -0.0390 C   0  0  0  0  0  0  0  0  0  0  0  0
   -9.0343    1.7667    0.1440 H   0  0  0  0  0  0  0  0  0  0  0  0
   -8.9153   -0.3796   -0.1078 C   0  0  0  0  0  0  0  0  0  0  0  0
   -8.0469   -1.4785   -0.3199 C   0  0  0  0  0  0  0  0  0  0  0  0
   -8.4920   -2.4814   -0.4026 H   0  0  0  0  0  0  0  0  0  0  0  0
   -6.6765   -1.2907   -0.4379 C   0  0  0  0  0  0  0  0  0  0  0  0
   -6.0354   -2.1743   -0.5759 H   0  0  0  0  0  0  0  0  0  0  0  0
  -10.4046   -0.5903    0.0478 C   0  0  0  0  0  0  0  0  0  0  0  0
  2  1  1  0  0  0  0
  3 27  1  0  0  0  0
  5 15  1  0  0  0  0
  6  7  1  0  0  0  0
  6  1  1  0  0  0  0
  8  6  1  0  0  0  0
  9  6  1  6  0  0  0
  9 10  1  0  0  0  0
  9  5  1  0  0  0  0
 10 12  2  0  0  0  0
 11 10  1  0  0  0  0
 12 17  1  0  0  0  0
 12 13  1  0  0  0  0
 13 14  1  0  0  0  0
 15 13  2  0  0  0  0
 15 16  1  0  0  0  0
 17 18  1  0  0  0  0
 18 19  1  0  0  0  0
 18 20  2  0  0  0  0
 20 21  1  0  0  0  0
 22 20  1  0  0  0  0
 22 27  1  0  0  0  0
 23 22  2  0  0  0  0
 24 23  1  0  0  0  0
 25 17  2  0  0  0  0
 25 23  1  0  0  0  0
 26 25  1  0  0  0  0
 27  4  2  0  0  0  0
M  CHG  1   3  -1
M  END
