2
 OpenBabel05122313063D

 35 39  0  0  1  0  0  0  0  0999 V2000
   -1.2912    2.1242   -0.1272 O   0  0  0  0  0  0  0  0  0  0  0  0
    2.2925    1.4840   -0.4393 N   0  0  0  0  0  2  0  0  0  0  0  0
   -1.6580   -0.0421   -0.5131 C   0  0  0  0  0  0  0  0  0  0  0  0
    1.1256    2.1850   -0.4015 C   0  0  2  0  0  3  0  0  0  0  0  0
   -0.3003    0.1606   -0.6380 N   0  0  0  0  0  0  0  0  0  0  0  0
   -1.7953   -2.4959   -0.9290 C   0  0  0  0  0  0  0  0  0  0  0  0
   -0.7021   -2.5246   -1.0586 H   0  0  0  0  0  0  0  0  0  0  0  0
   -2.4144   -1.2557   -0.6401 C   0  0  0  0  0  0  0  0  0  0  0  0
   -2.2693    1.1682   -0.1993 C   0  0  0  0  0  0  0  0  0  0  0  0
   -0.1243    1.4363   -0.3889 C   0  0  0  0  0  0  0  0  0  0  0  0
    3.4605    2.1513   -0.5572 C   0  0  0  0  0  0  0  0  0  0  0  0
    4.3552    1.5193   -0.6500 H   0  0  0  0  0  0  0  0  0  0  0  0
   -3.6674    1.3383    0.0055 C   0  0  0  0  0  0  0  0  0  0  0  0
   -4.2682    2.5830    0.3194 C   0  0  0  0  0  0  0  0  0  0  0  0
   -3.6277    3.4716    0.4152 H   0  0  0  0  0  0  0  0  0  0  0  0
   -4.4610    0.1396   -0.1268 C   0  0  0  0  0  0  0  0  0  0  0  0
   -3.8350   -1.1558   -0.4418 C   0  0  0  0  0  0  0  0  0  0  0  0
   -4.5837   -2.3560   -0.5590 C   0  0  0  0  0  0  0  0  0  0  0  0
   -5.6731   -2.3384   -0.4188 H   0  0  0  0  0  0  0  0  0  0  0  0
   -3.9675   -3.5732   -0.8474 C   0  0  0  0  0  0  0  0  0  0  0  0
   -4.5807   -4.4832   -0.9300 H   0  0  0  0  0  0  0  0  0  0  0  0
    2.3330    4.2830   -0.4914 C   0  0  0  0  0  0  0  0  0  0  0  0
    2.3473    5.3828   -0.4992 H   0  0  0  0  0  0  0  0  0  0  0  0
   -2.5689   -3.6490   -1.0307 C   0  0  0  0  0  0  0  0  0  0  0  0
   -2.0916   -4.6146   -1.2543 H   0  0  0  0  0  0  0  0  0  0  0  0
    1.1206    3.5947   -0.4160 C   0  0  0  0  0  0  0  0  0  0  0  0
    0.1580    4.1211   -0.3818 H   0  0  0  0  0  0  0  0  0  0  0  0
    3.5250    3.5481   -0.5788 C   0  0  0  0  0  0  0  0  0  0  0  0
    4.5028    4.0421   -0.6627 H   0  0  0  0  0  0  0  0  0  0  0  0
   -5.8590    0.2794    0.0673 C   0  0  0  0  0  0  0  0  0  0  0  0
   -6.5100   -0.6005   -0.0248 H   0  0  0  0  0  0  0  0  0  0  0  0
   -5.6443    2.6693    0.5020 C   0  0  0  0  0  0  0  0  0  0  0  0
   -6.1105    3.6356    0.7452 H   0  0  0  0  0  0  0  0  0  0  0  0
   -6.4400    1.5095    0.3730 C   0  0  0  0  0  0  0  0  0  0  0  0
   -7.5292    1.5738    0.5150 H   0  0  0  0  0  0  0  0  0  0  0  0
  2  4  1  0  0  0  0
  3  9  1  0  0  0  0
  4 10  1  6  0  0  0
  5  3  1  0  0  0  0
  5 10  2  0  0  0  0
  6  8  1  0  0  0  0
  7  6  1  0  0  0  0
  8  3  2  0  0  0  0
  8 17  1  0  0  0  0
  9  1  1  0  0  0  0
  9 13  2  0  0  0  0
 10  1  1  0  0  0  0
 11  2  1  0  0  0  0
 12 11  1  0  0  0  0
 13 14  1  0  0  0  0
 14 15  1  0  0  0  0
 14 32  2  0  0  0  0
 16 13  1  0  0  0  0
 16 30  1  0  0  0  0
 17 16  2  0  0  0  0
 18 17  1  0  0  0  0
 18 19  1  0  0  0  0
 20 18  2  0  0  0  0
 21 20  1  0  0  0  0
 22 26  2  0  0  0  0
 23 22  1  0  0  0  0
 24  6  2  0  0  0  0
 24 20  1  0  0  0  0
 25 24  1  0  0  0  0
 26  4  1  0  0  0  0
 26 27  1  0  0  0  0
 28 11  2  0  0  0  0
 28 22  1  0  0  0  0
 29 28  1  0  0  0  0
 30 34  2  0  0  0  0
 31 30  1  0  0  0  0
 32 33  1  0  0  0  0
 34 32  1  0  0  0  0
 34 35  1  0  0  0  0
M  END
