1
 OpenBabel05122313063D

 30 31  0  0  1  0  0  0  0  0999 V2000
    2.2064   -1.5564    0.1709 N   0  0  0  0  0  0  0  0  0  0  0  0
    2.4301   -2.3827    0.7449 H   0  0  0  0  0  0  0  0  0  0  0  0
    2.4041   -1.8131   -0.8114 H   0  0  0  0  0  0  0  0  0  0  0  0
    2.8598    0.8983   -0.1969 C   0  0  2  0  0  0  0  0  0  0  0  0
    3.0454   -0.4192    0.6183 C   0  0  2  0  0  0  0  0  0  0  0  0
    2.7374   -0.2419    1.6665 H   0  0  0  0  0  0  0  0  0  0  0  0
    4.5742   -0.7147    0.5048 C   0  0  0  0  0  0  0  0  0  0  0  0
    5.0468   -0.7698    1.5050 H   0  0  0  0  0  0  0  0  0  0  0  0
    4.7684   -1.6862    0.0039 H   0  0  0  0  0  0  0  0  0  0  0  0
    5.0987    0.4688   -0.3307 C   0  0  1  0  0  0  0  0  0  0  0  0
    6.1908    0.6347   -0.2380 H   0  0  0  0  0  0  0  0  0  0  0  0
    4.6120    0.2545   -1.7834 C   0  0  0  0  0  0  0  0  0  0  0  0
    4.8267   -0.7760   -2.1327 H   0  0  0  0  0  0  0  0  0  0  0  0
    5.1255    0.9381   -2.4879 H   0  0  0  0  0  0  0  0  0  0  0  0
    3.0880    0.5598   -1.6934 C   0  0  0  0  0  0  0  0  0  0  0  0
    2.8073    1.4322   -2.3160 H   0  0  0  0  0  0  0  0  0  0  0  0
    2.4300   -0.2616   -2.0439 H   0  0  0  0  0  0  0  0  0  0  0  0
    4.2036    1.6459    0.1661 C   0  0  0  0  0  0  0  0  0  0  0  0
    4.3630    1.9776    1.6588 C   0  0  0  0  0  0  0  0  0  0  0  0
    3.6231    2.7447    1.9651 H   0  0  0  0  0  0  0  0  0  0  0  0
    5.3713    2.3986    1.8511 H   0  0  0  0  0  0  0  0  0  0  0  0
    4.2333    1.1119    2.3344 H   0  0  0  0  0  0  0  0  0  0  0  0
    4.4178    2.9545   -0.6090 C   0  0  0  0  0  0  0  0  0  0  0  0
    3.7011    3.7309   -0.2721 H   0  0  0  0  0  0  0  0  0  0  0  0
    4.3040    2.8502   -1.7037 H   0  0  0  0  0  0  0  0  0  0  0  0
    5.4379    3.3457   -0.4161 H   0  0  0  0  0  0  0  0  0  0  0  0
    1.5645    1.6436    0.0835 C   0  0  0  0  0  0  0  0  0  0  0  0
    0.6967    1.0584   -0.2866 H   0  0  0  0  0  0  0  0  0  0  0  0
    1.5555    2.6259   -0.4319 H   0  0  0  0  0  0  0  0  0  0  0  0
    1.4051    1.8021    1.1686 H   0  0  0  0  0  0  0  0  0  0  0  0
  1  5  1  0  0  0  0
  1  2  1  0  0  0  0
  3  1  1  0  0  0  0
  4 27  1  1  0  0  0
  4 18  1  0  0  0  0
  4  5  1  0  0  0  0
  5  6  1  1  0  0  0
  7  5  1  0  0  0  0
  7  8  1  0  0  0  0
  9  7  1  0  0  0  0
 10 11  1  1  0  0  0
 10 18  1  0  0  0  0
 10  7  1  0  0  0  0
 12 15  1  0  0  0  0
 12 10  1  0  0  0  0
 13 12  1  0  0  0  0
 14 12  1  0  0  0  0
 15  4  1  0  0  0  0
 16 15  1  0  0  0  0
 17 15  1  0  0  0  0
 18 19  1  0  0  0  0
 19 21  1  0  0  0  0
 19 20  1  0  0  0  0
 19 22  1  0  0  0  0
 23 26  1  0  0  0  0
 23 24  1  0  0  0  0
 23 18  1  0  0  0  0
 25 23  1  0  0  0  0
 27 30  1  0  0  0  0
 28 27  1  0  0  0  0
 29 27  1  0  0  0  0
M  END
