5
 OpenBabel05122313063D

 67 71  0  0  1  0  0  0  0  0999 V2000
   -0.0748   -0.7180    2.1731 P   0  0  1  0  0  0  0  0  0  0  0  0
    0.3518    0.7559   -0.4587 P   0  0  0  0  0  0  0  0  0  0  0  0
    0.8365    0.3649    1.1724 N   0  0  0  0  0  0  0  0  0  0  0  0
   -1.7314   -0.0546    2.0326 N   0  0  0  0  0  0  0  0  0  0  0  0
   -2.3218    0.1540    0.8128 N   0  0  0  0  0  2  0  0  0  0  0  0
   -4.2017    1.4716   -0.1225 C   0  0  0  0  0  0  0  0  0  0  0  0
   -3.8057    1.0947   -1.0845 H   0  0  0  0  0  0  0  0  0  0  0  0
   -4.1670    2.5797   -0.1493 H   0  0  0  0  0  0  0  0  0  0  0  0
   -5.2643    1.1723   -0.0248 H   0  0  0  0  0  0  0  0  0  0  0  0
   -3.3763    0.9636    1.0114 C   0  0  2  0  0  3  0  0  0  0  0  0
   -3.4845    1.2599    2.3973 C   0  0  0  0  0  0  0  0  0  0  0  0
   -4.2495    1.8755    2.8816 H   0  0  0  0  0  0  0  0  0  0  0  0
   -2.4225    0.6147    3.0237 C   0  0  0  0  0  0  0  0  0  0  0  0
   -2.0177    0.5736    4.4597 C   0  0  0  0  0  0  0  0  0  0  0  0
   -1.9998   -0.4639    4.8506 H   0  0  0  0  0  0  0  0  0  0  0  0
   -2.7316    1.1585    5.0677 H   0  0  0  0  0  0  0  0  0  0  0  0
   -1.0038    0.9958    4.6149 H   0  0  0  0  0  0  0  0  0  0  0  0
   -0.3343   -2.2148    1.1357 C   0  0  0  0  0  0  0  0  0  0  0  0
    0.7289   -2.7289    0.3601 C   0  0  0  0  0  0  0  0  0  0  0  0
    1.6599   -2.1511    0.2661 H   0  0  0  0  0  0  0  0  0  0  0  0
    0.6054   -3.9737   -0.2739 C   0  0  0  0  0  0  0  0  0  0  0  0
    1.4367   -4.3595   -0.8833 H   0  0  0  0  0  0  0  0  0  0  0  0
   -0.5657   -4.7337   -0.1167 C   0  0  0  0  0  0  0  0  0  0  0  0
   -0.6583   -5.7139   -0.6078 H   0  0  0  0  0  0  0  0  0  0  0  0
   -1.6098   -4.2485    0.6896 C   0  0  0  0  0  0  0  0  0  0  0  0
   -2.5214   -4.8483    0.8316 H   0  0  0  0  0  0  0  0  0  0  0  0
   -1.4971   -2.9993    1.3165 C   0  0  0  0  0  0  0  0  0  0  0  0
   -2.3228   -2.6245    1.9404 H   0  0  0  0  0  0  0  0  0  0  0  0
    2.0583    1.0316    1.7418 C   0  0  1  0  0  0  0  0  0  0  0  0
    2.1922    1.9582    1.1457 H   0  0  0  0  0  0  0  0  0  0  0  0
    1.8824    1.4540    3.2050 C   0  0  0  0  0  0  0  0  0  0  0  0
    0.9947    2.1055    3.3355 H   0  0  0  0  0  0  0  0  0  0  0  0
    2.7768    2.0214    3.5275 H   0  0  0  0  0  0  0  0  0  0  0  0
    1.7826    0.5793    3.8764 H   0  0  0  0  0  0  0  0  0  0  0  0
    3.3040    0.1751    1.5515 C   0  0  0  0  0  0  0  0  0  0  0  0
    3.3622   -1.1366    2.0633 C   0  0  0  0  0  0  0  0  0  0  0  0
    2.5059   -1.5509    2.6221 H   0  0  0  0  0  0  0  0  0  0  0  0
    4.5065   -1.9267    1.8820 C   0  0  0  0  0  0  0  0  0  0  0  0
    4.5353   -2.9495    2.2868 H   0  0  0  0  0  0  0  0  0  0  0  0
    5.6163   -1.4088    1.1938 C   0  0  0  0  0  0  0  0  0  0  0  0
    6.5146   -2.0276    1.0503 H   0  0  0  0  0  0  0  0  0  0  0  0
    5.5772   -0.0955    0.7019 C   0  0  0  0  0  0  0  0  0  0  0  0
    6.4447    0.3213    0.1686 H   0  0  0  0  0  0  0  0  0  0  0  0
    4.4286    0.6899    0.8827 C   0  0  0  0  0  0  0  0  0  0  0  0
    4.3998    1.7154    0.4838 H   0  0  0  0  0  0  0  0  0  0  0  0
   -0.2717    2.4781   -0.3926 C   0  0  0  0  0  0  0  0  0  0  0  0
   -0.6351    3.0780    0.8272 C   0  0  0  0  0  0  0  0  0  0  0  0
   -0.4375    2.5542    1.7730 H   0  0  0  0  0  0  0  0  0  0  0  0
   -1.2674    4.3310    0.8364 C   0  0  0  0  0  0  0  0  0  0  0  0
   -1.5459    4.7929    1.7954 H   0  0  0  0  0  0  0  0  0  0  0  0
   -1.5444    4.9903   -0.3709 C   0  0  0  0  0  0  0  0  0  0  0  0
   -2.0379    5.9735   -0.3625 H   0  0  0  0  0  0  0  0  0  0  0  0
   -1.1908    4.3912   -1.5928 C   0  0  0  0  0  0  0  0  0  0  0  0
   -1.4090    4.9033   -2.5419 H   0  0  0  0  0  0  0  0  0  0  0  0
   -0.5638    3.1382   -1.6075 C   0  0  0  0  0  0  0  0  0  0  0  0
   -0.3034    2.6679   -2.5690 H   0  0  0  0  0  0  0  0  0  0  0  0
    1.9052    0.8314   -1.4250 C   0  0  0  0  0  0  0  0  0  0  0  0
    2.5520    2.0497   -1.7187 C   0  0  0  0  0  0  0  0  0  0  0  0
    2.1164    3.0028   -1.3844 H   0  0  0  0  0  0  0  0  0  0  0  0
    3.7586    2.0487   -2.4355 C   0  0  0  0  0  0  0  0  0  0  0  0
    4.2564    3.0031   -2.6634 H   0  0  0  0  0  0  0  0  0  0  0  0
    4.3319    0.8378   -2.8531 C   0  0  0  0  0  0  0  0  0  0  0  0
    5.2810    0.8408   -3.4095 H   0  0  0  0  0  0  0  0  0  0  0  0
    3.6898   -0.3782   -2.5656 C   0  0  0  0  0  0  0  0  0  0  0  0
    4.1344   -1.3293   -2.8939 H   0  0  0  0  0  0  0  0  0  0  0  0
    2.4774   -0.3817   -1.8650 C   0  0  0  0  0  0  0  0  0  0  0  0
    1.9658   -1.3327   -1.6579 H   0  0  0  0  0  0  0  0  0  0  0  0
  1  3  1  6  0  0  0
  2 46  1  0  0  0  0
  2  3  1  0  0  0  0
  3 29  1  0  0  0  0
  4  1  1  0  0  0  0
  4 13  1  0  0  0  0
  5 10  1  0  0  0  0
  5  4  1  0  0  0  0
  6  9  1  0  0  0  0
  7  6  1  0  0  0  0
  8  6  1  0  0  0  0
 10  6  1  6  0  0  0
 10 11  1  0  0  0  0
 11 12  1  0  0  0  0
 11 13  2  0  0  0  0
 13 14  1  0  0  0  0
 14 17  1  0  0  0  0
 14 15  1  0  0  0  0
 14 16  1  0  0  0  0
 18 27  1  0  0  0  0
 18  1  1  0  0  0  0
 19 18  2  0  0  0  0
 20 19  1  0  0  0  0
 21 23  2  0  0  0  0
 21 19  1  0  0  0  0
 22 21  1  0  0  0  0
 23 25  1  0  0  0  0
 24 23  1  0  0  0  0
 25 26  1  0  0  0  0
 25 27  2  0  0  0  0
 27 28  1  0  0  0  0
 29 30  1  6  0  0  0
 29 31  1  0  0  0  0
 31 32  1  0  0  0  0
 31 33  1  0  0  0  0
 31 34  1  0  0  0  0
 35 29  1  0  0  0  0
 35 36  1  0  0  0  0
 36 37  1  0  0  0  0
 38 36  2  0  0  0  0
 38 39  1  0  0  0  0
 40 38  1  0  0  0  0
 41 40  1  0  0  0  0
 42 44  1  0  0  0  0
 42 40  2  0  0  0  0
 43 42  1  0  0  0  0
 44 35  2  0  0  0  0
 45 44  1  0  0  0  0
 46 47  1  0  0  0  0
 47 49  2  0  0  0  0
 47 48  1  0  0  0  0
 49 50  1  0  0  0  0
 51 52  1  0  0  0  0
 51 49  1  0  0  0  0
 53 51  2  0  0  0  0
 54 53  1  0  0  0  0
 55 53  1  0  0  0  0
 55 46  2  0  0  0  0
 56 55  1  0  0  0  0
 57  2  1  0  0  0  0
 58 57  1  0  0  0  0
 58 59  1  0  0  0  0
 60 58  2  0  0  0  0
 61 60  1  0  0  0  0
 62 64  2  0  0  0  0
 62 60  1  0  0  0  0
 63 62  1  0  0  0  0
 64 66  1  0  0  0  0
 65 64  1  0  0  0  0
 66 67  1  0  0  0  0
 66 57  2  0  0  0  0
M  END
