1
 OpenBabel05122313063D

 27 28  0  0  0  0  0  0  0  0999 V2000
    1.9101    0.6718   -0.3719 N   0  0  0  0  0  0  0  0  0  0  0  0
    2.0272    0.4408   -1.3749 H   0  0  0  0  0  0  0  0  0  0  0  0
    1.9066    1.6997   -0.2846 H   0  0  0  0  0  0  0  0  0  0  0  0
    3.0034    0.0943    0.4596 C   0  0  0  0  0  0  0  0  0  0  0  0
    2.6963    0.2886    1.5074 H   0  0  0  0  0  0  0  0  0  0  0  0
    3.0441   -1.4170    0.2569 C   0  0  0  0  0  0  0  0  0  0  0  0
    2.2857   -2.2491    1.1048 C   0  0  0  0  0  0  0  0  0  0  0  0
    1.6993   -1.7923    1.9178 H   0  0  0  0  0  0  0  0  0  0  0  0
    2.2618   -3.6355    0.8964 C   0  0  0  0  0  0  0  0  0  0  0  0
    1.6696   -4.2776    1.5664 H   0  0  0  0  0  0  0  0  0  0  0  0
    2.9880   -4.2033   -0.1631 C   0  0  0  0  0  0  0  0  0  0  0  0
    2.9663   -5.2914   -0.3277 H   0  0  0  0  0  0  0  0  0  0  0  0
    3.7462   -3.3790   -1.0086 C   0  0  0  0  0  0  0  0  0  0  0  0
    4.3215   -3.8182   -1.8377 H   0  0  0  0  0  0  0  0  0  0  0  0
    3.7786   -1.9924   -0.7959 C   0  0  0  0  0  0  0  0  0  0  0  0
    4.3891   -1.3521   -1.4511 H   0  0  0  0  0  0  0  0  0  0  0  0
    4.3450    0.7690    0.2174 C   0  0  0  0  0  0  0  0  0  0  0  0
    5.3143    0.7240    1.2401 C   0  0  0  0  0  0  0  0  0  0  0  0
    5.0670    0.2284    2.1922 H   0  0  0  0  0  0  0  0  0  0  0  0
    6.5793    1.2955    1.0548 C   0  0  0  0  0  0  0  0  0  0  0  0
    7.3223    1.2525    1.8656 H   0  0  0  0  0  0  0  0  0  0  0  0
    6.8975    1.9273   -0.1594 C   0  0  0  0  0  0  0  0  0  0  0  0
    7.8900    2.3797   -0.3050 H   0  0  0  0  0  0  0  0  0  0  0  0
    5.9406    1.9816   -1.1822 C   0  0  0  0  0  0  0  0  0  0  0  0
    6.1782    2.4757   -2.1365 H   0  0  0  0  0  0  0  0  0  0  0  0
    4.6728    1.4052   -0.9951 C   0  0  0  0  0  0  0  0  0  0  0  0
    3.9385    1.4601   -1.8138 H   0  0  0  0  0  0  0  0  0  0  0  0
  1  3  1  0  0  0  0
  1  4  1  0  0  0  0
  2  1  1  0  0  0  0
  4  5  1  0  0  0  0
  6  4  1  0  0  0  0
  6  7  1  0  0  0  0
  7  8  1  0  0  0  0
  9  7  2  0  0  0  0
  9 10  1  0  0  0  0
 11  9  1  0  0  0  0
 12 11  1  0  0  0  0
 13 15  1  0  0  0  0
 13 11  2  0  0  0  0
 14 13  1  0  0  0  0
 15  6  2  0  0  0  0
 16 15  1  0  0  0  0
 17  4  1  0  0  0  0
 17 18  1  0  0  0  0
 18 19  1  0  0  0  0
 20 18  2  0  0  0  0
 20 21  1  0  0  0  0
 22 20  1  0  0  0  0
 23 22  1  0  0  0  0
 24 26  1  0  0  0  0
 24 22  2  0  0  0  0
 25 24  1  0  0  0  0
 26 17  2  0  0  0  0
 27 26  1  0  0  0  0
M  END
