5
 OpenBabel05122313063D

 30 31  0  0  1  0  0  0  0  0999 V2000
    4.6967   -1.3286    0.4747 S   0  0  0  0  0  0  0  0  0  0  0  0
    4.5584    0.8075   -1.3723 O   0  0  0  0  0  0  0  0  0  0  0  0
    5.2190    1.4164   -0.9804 H   0  0  0  0  0  0  0  0  0  0  0  0
    2.1911   -1.6560    1.0687 N   0  0  0  0  0  0  0  0  0  0  0  0
    1.2501    0.6883   -0.3060 N   0  0  0  0  0  2  0  0  0  0  0  0
    3.3343    1.2705   -0.8839 N   0  0  0  0  0  0  0  0  0  0  0  0
    4.2415   -2.6757    1.4461 C   0  0  0  0  0  0  0  0  0  0  0  0
    4.9902   -3.3918    1.8074 H   0  0  0  0  0  0  0  0  0  0  0  0
    2.8691   -2.6867    1.6458 C   0  0  0  0  0  0  0  0  0  0  0  0
    2.3245   -3.4486    2.2211 H   0  0  0  0  0  0  0  0  0  0  0  0
    3.0115   -0.8419    0.4205 C   0  0  0  0  0  0  0  0  0  0  0  0
    2.5222    0.3477   -0.2616 C   0  0  1  0  0  3  0  0  0  0  0  0
    1.1372    2.0161   -0.9897 C   0  0  0  0  0  0  0  0  0  0  0  0
    2.4819    2.0643   -1.8245 C   0  0  0  0  0  0  0  0  0  0  0  0
   -0.1209    2.0969   -1.8497 C   0  0  0  0  0  0  0  0  0  0  0  0
   -0.1962    1.2563   -2.5624 H   0  0  0  0  0  0  0  0  0  0  0  0
   -0.1304    3.0464   -2.4206 H   0  0  0  0  0  0  0  0  0  0  0  0
   -1.0123    2.0822   -1.1963 H   0  0  0  0  0  0  0  0  0  0  0  0
    1.0864    3.0872    0.1149 C   0  0  0  0  0  0  0  0  0  0  0  0
    0.2108    2.8856    0.7610 H   0  0  0  0  0  0  0  0  0  0  0  0
    0.9736    4.0989   -0.3196 H   0  0  0  0  0  0  0  0  0  0  0  0
    1.9943    3.0685    0.7481 H   0  0  0  0  0  0  0  0  0  0  0  0
    2.3834    1.3127   -3.1608 C   0  0  0  0  0  0  0  0  0  0  0  0
    3.3966    1.1732   -3.5823 H   0  0  0  0  0  0  0  0  0  0  0  0
    1.7841    1.8895   -3.8897 H   0  0  0  0  0  0  0  0  0  0  0  0
    1.9214    0.3137   -3.0366 H   0  0  0  0  0  0  0  0  0  0  0  0
    3.0676    3.4575   -2.0322 C   0  0  0  0  0  0  0  0  0  0  0  0
    3.2743    3.9715   -1.0759 H   0  0  0  0  0  0  0  0  0  0  0  0
    2.3733    4.0830   -2.6265 H   0  0  0  0  0  0  0  0  0  0  0  0
    4.0143    3.3870   -2.6041 H   0  0  0  0  0  0  0  0  0  0  0  0
  1  7  1  0  0  0  0
  2  3  1  0  0  0  0
  2  6  1  0  0  0  0
  4  9  1  0  0  0  0
  5 12  1  0  0  0  0
  6 12  1  0  0  0  0
  7  9  2  0  0  0  0
  7  8  1  0  0  0  0
  9 10  1  0  0  0  0
 11  1  1  0  0  0  0
 11  4  2  0  0  0  0
 12 11  1  1  0  0  0
 13  5  1  0  0  0  0
 13 19  1  0  0  0  0
 14 13  1  0  0  0  0
 14  6  1  0  0  0  0
 15 18  1  0  0  0  0
 15 13  1  0  0  0  0
 16 15  1  0  0  0  0
 17 15  1  0  0  0  0
 19 22  1  0  0  0  0
 19 20  1  0  0  0  0
 21 19  1  0  0  0  0
 23 26  1  0  0  0  0
 23 14  1  0  0  0  0
 24 23  1  0  0  0  0
 25 23  1  0  0  0  0
 27 14  1  0  0  0  0
 27 28  1  0  0  0  0
 29 27  1  0  0  0  0
 30 27  1  0  0  0  0
M  END
