1
 OpenBabel05122313063D

 32 33  0  0  1  0  0  0  0  0999 V2000
    0.2377   -1.3755    0.7085 N   0  0  0  0  0  2  0  0  0  0  0  0
   -1.4482   -0.3320   -1.3305 N   0  0  0  0  0  0  0  0  0  0  0  0
   -2.8934   -0.3638   -0.9933 C   0  0  0  0  0  0  0  0  0  0  0  0
   -3.1374    0.6782   -0.6820 H   0  0  0  0  0  0  0  0  0  0  0  0
   -0.2240   -2.2151   -0.2586 C   0  0  1  0  0  3  0  0  0  0  0  0
   -0.7787   -1.6123   -1.5363 C   0  0  0  0  0  0  0  0  0  0  0  0
    0.0795   -1.4452   -2.2262 H   0  0  0  0  0  0  0  0  0  0  0  0
   -1.4085   -2.3827   -2.0392 H   0  0  0  0  0  0  0  0  0  0  0  0
   -0.1476   -3.6069   -0.0940 C   0  0  0  0  0  0  0  0  0  0  0  0
   -0.5379   -4.2594   -0.8888 H   0  0  0  0  0  0  0  0  0  0  0  0
    0.7470   -1.8941    1.8556 C   0  0  0  0  0  0  0  0  0  0  0  0
    1.0702   -1.1677    2.6146 H   0  0  0  0  0  0  0  0  0  0  0  0
   -3.7828   -0.7101   -2.2014 C   0  0  0  0  0  0  0  0  0  0  0  0
   -3.5633   -0.0136   -3.0404 H   0  0  0  0  0  0  0  0  0  0  0  0
   -3.5293   -1.7329   -2.5622 H   0  0  0  0  0  0  0  0  0  0  0  0
   -5.5881   -1.5589   -0.6393 C   0  0  0  0  0  0  0  0  0  0  0  0
   -6.6591   -1.4733   -0.3637 H   0  0  0  0  0  0  0  0  0  0  0  0
   -5.4244   -2.6223   -0.9253 H   0  0  0  0  0  0  0  0  0  0  0  0
    0.8532   -3.2692    2.0711 C   0  0  0  0  0  0  0  0  0  0  0  0
    1.2755   -3.6375    3.0164 H   0  0  0  0  0  0  0  0  0  0  0  0
   -3.2057   -1.2755    0.1999 C   0  0  0  0  0  0  0  0  0  0  0  0
   -2.9452   -2.3266   -0.0581 H   0  0  0  0  0  0  0  0  0  0  0  0
   -2.5855   -0.9820    1.0688 H   0  0  0  0  0  0  0  0  0  0  0  0
   -5.2735   -0.6581   -1.8394 C   0  0  0  0  0  0  0  0  0  0  0  0
   -5.8883   -0.9409   -2.7181 H   0  0  0  0  0  0  0  0  0  0  0  0
   -5.5491    0.3916   -1.5921 H   0  0  0  0  0  0  0  0  0  0  0  0
   -4.6973   -1.2147    0.5599 C   0  0  0  0  0  0  0  0  0  0  0  0
   -4.9029   -1.8959    1.4105 H   0  0  0  0  0  0  0  0  0  0  0  0
   -4.9401   -0.1900    0.9200 H   0  0  0  0  0  0  0  0  0  0  0  0
    0.4027   -4.1462    1.0742 C   0  0  0  0  0  0  0  0  0  0  0  0
    0.4636   -5.2358    1.2122 H   0  0  0  0  0  0  0  0  0  0  0  0
   -1.3412    0.2409   -2.1755 H   0  0  0  0  0  0  0  0  0  0  0  0
  1 11  1  0  0  0  0
  2  3  1  0  0  0  0
  3  4  1  0  0  0  0
  3 21  1  0  0  0  0
  5  6  1  6  0  0  0
  5  9  1  0  0  0  0
  5  1  1  0  0  0  0
  6  2  1  0  0  0  0
  7  6  1  0  0  0  0
  8  6  1  0  0  0  0
  9 30  2  0  0  0  0
 10  9  1  0  0  0  0
 11 19  2  0  0  0  0
 11 12  1  0  0  0  0
 13 24  1  0  0  0  0
 13  3  1  0  0  0  0
 14 13  1  0  0  0  0
 15 13  1  0  0  0  0
 16 17  1  0  0  0  0
 16 27  1  0  0  0  0
 18 16  1  0  0  0  0
 19 20  1  0  0  0  0
 21 27  1  0  0  0  0
 21 23  1  0  0  0  0
 22 21  1  0  0  0  0
 24 26  1  0  0  0  0
 24 16  1  0  0  0  0
 25 24  1  0  0  0  0
 27 29  1  0  0  0  0
 27 28  1  0  0  0  0
 30 31  1  0  0  0  0
 30 19  1  0  0  0  0
 32  2  1  0  0  0  0
M  END
