1
 OpenBabel05122313063D

 25 26  0  0  0  0  0  0  0  0999 V2000
    1.6101    1.9212    0.0279 N   0  0  0  0  0  2  0  0  0  0  0  0
    2.1240    1.6395   -1.1887 C   0  0  0  0  0  3  0  0  0  0  0  0
    1.6742    2.1605   -2.0502 H   0  0  0  0  0  0  0  0  0  0  0  0
    3.1741    0.7369   -1.3599 C   0  0  0  0  0  0  0  0  0  0  0  0
    3.5583    0.5427   -2.3723 H   0  0  0  0  0  0  0  0  0  0  0  0
    3.7430    0.0808   -0.2409 C   0  0  0  0  0  0  0  0  0  0  0  0
    3.1839    0.3954    1.0233 C   0  0  0  0  0  0  0  0  0  0  0  0
    3.5616   -0.0655    1.9464 H   0  0  0  0  0  0  0  0  0  0  0  0
    2.1351    1.3074    1.1137 C   0  0  0  0  0  0  0  0  0  0  0  0
    1.6902    1.5654    2.0890 H   0  0  0  0  0  0  0  0  0  0  0  0
    4.8434   -0.8578   -0.4374 C   0  0  0  0  0  0  0  0  0  0  0  0
    5.1521   -0.9966   -1.4866 H   0  0  0  0  0  0  0  0  0  0  0  0
    5.4936   -1.5449    0.5419 C   0  0  0  0  0  0  0  0  0  0  0  0
    5.1806   -1.3953    1.5890 H   0  0  0  0  0  0  0  0  0  0  0  0
    6.5969   -2.4879    0.3700 C   0  0  0  0  0  0  0  0  0  0  0  0
    7.1558   -3.1019    1.5181 C   0  0  0  0  0  0  0  0  0  0  0  0
    6.7474   -2.8548    2.5096 H   0  0  0  0  0  0  0  0  0  0  0  0
    8.2151   -4.0117    1.4045 C   0  0  0  0  0  0  0  0  0  0  0  0
    8.6375   -4.4785    2.3066 H   0  0  0  0  0  0  0  0  0  0  0  0
    8.7441   -4.3337    0.1467 C   0  0  0  0  0  0  0  0  0  0  0  0
    9.5746   -5.0433    0.0255 H   0  0  0  0  0  0  0  0  0  0  0  0
    8.1872   -3.7235   -0.9883 C   0  0  0  0  0  0  0  0  0  0  0  0
    7.1335   -2.8153   -0.8993 C   0  0  0  0  0  0  0  0  0  0  0  0
    6.7445   -2.3739   -1.8272 H   0  0  0  0  0  0  0  0  0  0  0  0
    8.6863   -4.0250   -2.1996 F   0  0  0  0  0  0  0  0  0  0  0  0
  1  9  1  0  0  0  0
  2  1  1  0  0  0  0
  3  2  1  0  0  0  0
  4  2  1  0  0  0  0
  4  6  2  0  0  0  0
  5  4  1  0  0  0  0
  6  7  1  0  0  0  0
  7  9  2  0  0  0  0
  7  8  1  0  0  0  0
  9 10  1  0  0  0  0
 11  6  1  0  0  0  0
 11 13  2  0  0  0  0
 12 11  1  0  0  0  0
 13 14  1  0  0  0  0
 15 13  1  0  0  0  0
 15 16  1  0  0  0  0
 16 17  1  0  0  0  0
 18 16  2  0  0  0  0
 18 19  1  0  0  0  0
 20 18  1  0  0  0  0
 21 20  1  0  0  0  0
 22 23  1  0  0  0  0
 22 20  2  0  0  0  0
 23 15  2  0  0  0  0
 24 23  1  0  0  0  0
 25 22  1  0  0  0  0
M  END
