3
 OpenBabel05122313063D

 34 36  0  0  1  0  0  0  0  0999 V2000
    5.3982   -2.4945    0.3612 O   0  0  0  0  0  0  0  0  0  0  0  0
    4.0408    2.5261    0.0090 O   0  0  0  0  0  0  0  0  0  0  0  0
    0.4293   -0.1193   -0.3313 N   0  0  0  0  0  2  0  0  0  0  0  0
    2.6958    2.5542   -0.1744 N   0  0  0  0  0  0  0  0  0  0  0  0
    1.6252   -0.8631   -0.1686 C   0  0  0  0  0  0  0  0  0  0  0  0
    1.7849   -2.2511   -0.1142 C   0  0  0  0  0  0  0  0  0  0  0  0
    0.9177   -2.9152   -0.2341 H   0  0  0  0  0  0  0  0  0  0  0  0
    3.0813   -2.7484    0.0644 C   0  0  0  0  0  0  0  0  0  0  0  0
    3.2689   -3.8307    0.1072 H   0  0  0  0  0  0  0  0  0  0  0  0
    4.1966   -1.8834    0.1885 C   0  0  0  0  0  0  0  0  0  0  0  0
    4.0300   -0.4790    0.1298 C   0  0  0  0  0  0  0  0  0  0  0  0
    4.8703    0.2164    0.2228 H   0  0  0  0  0  0  0  0  0  0  0  0
    2.1644    1.3609   -0.1738 C   0  0  0  0  0  0  0  0  0  0  0  0
    0.7064    1.1801   -0.3568 C   0  0  1  0  0  3  0  0  0  0  0  0
   -0.3027    2.2225   -0.5513 C   0  0  0  0  0  0  0  0  0  0  0  0
    2.7300    0.0131   -0.0521 C   0  0  0  0  0  0  0  0  0  0  0  0
   -1.3343    2.0331   -1.5039 C   0  0  0  0  0  0  0  0  0  0  0  0
   -1.3417    1.1238   -2.1237 H   0  0  0  0  0  0  0  0  0  0  0  0
   -2.3294    3.0061   -1.6628 C   0  0  0  0  0  0  0  0  0  0  0  0
   -3.1239    2.8505   -2.4077 H   0  0  0  0  0  0  0  0  0  0  0  0
   -2.3121    4.1710   -0.8765 C   0  0  0  0  0  0  0  0  0  0  0  0
   -3.1000    4.9299   -0.9983 H   0  0  0  0  0  0  0  0  0  0  0  0
   -1.2845    4.3679    0.0619 C   0  0  0  0  0  0  0  0  0  0  0  0
   -1.2711    5.2768    0.6820 H   0  0  0  0  0  0  0  0  0  0  0  0
   -0.2805    3.4049    0.2227 C   0  0  0  0  0  0  0  0  0  0  0  0
    0.5092    3.5414    0.9722 H   0  0  0  0  0  0  0  0  0  0  0  0
    4.5738    3.8536   -0.0134 C   0  0  0  0  0  0  0  0  0  0  0  0
    5.6637    3.7386    0.1298 H   0  0  0  0  0  0  0  0  0  0  0  0
    4.1430    4.4614    0.8084 H   0  0  0  0  0  0  0  0  0  0  0  0
    4.3647    4.3424   -0.9865 H   0  0  0  0  0  0  0  0  0  0  0  0
    6.5545   -1.6875    0.4826 C   0  0  0  0  0  0  0  0  0  0  0  0
    7.4070   -2.3798    0.6095 H   0  0  0  0  0  0  0  0  0  0  0  0
    6.4993   -1.0150    1.3680 H   0  0  0  0  0  0  0  0  0  0  0  0
    6.7238   -1.0672   -0.4260 H   0  0  0  0  0  0  0  0  0  0  0  0
  1 31  1  0  0  0  0
  3  5  1  0  0  0  0
  4 13  2  0  0  0  0
  4  2  1  0  0  0  0
  5  6  2  0  0  0  0
  5 16  1  0  0  0  0
  6  8  1  0  0  0  0
  7  6  1  0  0  0  0
  8  9  1  0  0  0  0
  8 10  2  0  0  0  0
 10  1  1  0  0  0  0
 11 10  1  0  0  0  0
 11 12  1  0  0  0  0
 13 16  1  0  0  0  0
 14 15  1  6  0  0  0
 14  3  1  0  0  0  0
 14 13  1  0  0  0  0
 15 25  1  0  0  0  0
 16 11  2  0  0  0  0
 17 15  2  0  0  0  0
 18 17  1  0  0  0  0
 19 17  1  0  0  0  0
 19 21  2  0  0  0  0
 20 19  1  0  0  0  0
 21 23  1  0  0  0  0
 22 21  1  0  0  0  0
 23 25  2  0  0  0  0
 23 24  1  0  0  0  0
 25 26  1  0  0  0  0
 27  2  1  0  0  0  0
 27 28  1  0  0  0  0
 27 29  1  0  0  0  0
 30 27  1  0  0  0  0
 31 32  1  0  0  0  0
 31 33  1  0  0  0  0
 34 31  1  0  0  0  0
M  END
