7
 OpenBabel05122313063D

 30 31  0  0  0  0  0  0  0  0999 V2000
    4.9233    0.6543   -3.0546 O   0  0  0  0  0  0  0  0  0  0  0  0
    9.3238    3.3284    1.7782 O   0  0  0  0  0  0  0  0  0  0  0  0
    6.8815    1.7474   -0.2858 N   0  0  0  0  0  0  0  0  0  0  0  0
    7.6388    1.9263    2.3780 O   0  0  0  0  0  0  0  0  0  0  0  0
    4.8277    0.1926   -0.7721 N   0  0  0  0  0  0  0  0  0  0  0  0
    5.3509    0.4668    0.0768 H   0  0  0  0  0  0  0  0  0  0  0  0
    1.6221   -2.4593   -0.2820 N   0  0  0  0  0  2  0  0  0  0  0  0
    7.9267    2.5159    0.0536 C   0  0  0  0  0  0  0  0  0  0  0  0
    1.9402   -2.0157   -1.5148 C   0  0  0  0  0  3  0  0  0  0  0  0
    1.3174   -2.4236   -2.3302 H   0  0  0  0  0  0  0  0  0  0  0  0
    2.3560   -2.0511    0.7735 C   0  0  0  0  0  0  0  0  0  0  0  0
    2.0586   -2.4837    1.7451 H   0  0  0  0  0  0  0  0  0  0  0  0
    8.2818    3.1665   -2.2486 C   0  0  0  0  0  0  0  0  0  0  0  0
    8.8362    3.7262   -3.0168 H   0  0  0  0  0  0  0  0  0  0  0  0
    7.1898    2.3640   -2.6020 C   0  0  0  0  0  0  0  0  0  0  0  0
    6.8355    2.2514   -3.6364 H   0  0  0  0  0  0  0  0  0  0  0  0
    2.9917   -1.1298   -1.7539 C   0  0  0  0  0  0  0  0  0  0  0  0
    3.2305   -0.7839   -2.7661 H   0  0  0  0  0  0  0  0  0  0  0  0
    5.3375    0.7888   -1.9064 C   0  0  0  0  0  0  0  0  0  0  0  0
    8.2525    2.5365    1.5269 C   0  0  0  0  0  0  0  0  0  0  0  0
    6.5230    1.6724   -1.5746 C   0  0  0  0  0  0  0  0  0  0  0  0
    8.6623    3.2484   -0.9006 C   0  0  0  0  0  0  0  0  0  0  0  0
    9.5115    3.8637   -0.5758 H   0  0  0  0  0  0  0  0  0  0  0  0
    3.7601   -0.6856   -0.6516 C   0  0  0  0  0  0  0  0  0  0  0  0
    9.7107    3.4095    3.1562 C   0  0  0  0  0  0  0  0  0  0  0  0
    8.8829    3.8142    3.7725 H   0  0  0  0  0  0  0  0  0  0  0  0
   10.5850    4.0829    3.1906 H   0  0  0  0  0  0  0  0  0  0  0  0
    9.9758    2.4071    3.5483 H   0  0  0  0  0  0  0  0  0  0  0  0
    3.4255   -1.1695    0.6358 C   0  0  0  0  0  0  0  0  0  0  0  0
    4.0044   -0.8604    1.5191 H   0  0  0  0  0  0  0  0  0  0  0  0
  1 19  2  0  0  0  0
  2 25  1  0  0  0  0
  3  8  1  0  0  0  0
  5 24  1  0  0  0  0
  5  6  1  0  0  0  0
  7 11  1  0  0  0  0
  8 20  1  0  0  0  0
  9  7  1  0  0  0  0
 10  9  1  0  0  0  0
 11 12  1  0  0  0  0
 13 22  1  0  0  0  0
 14 13  1  0  0  0  0
 15 13  2  0  0  0  0
 15 21  1  0  0  0  0
 16 15  1  0  0  0  0
 17  9  1  0  0  0  0
 17 24  2  0  0  0  0
 18 17  1  0  0  0  0
 19 21  1  0  0  0  0
 19  5  1  0  0  0  0
 20  2  1  0  0  0  0
 20  4  2  0  0  0  0
 21  3  2  0  0  0  0
 22 23  1  0  0  0  0
 22  8  2  0  0  0  0
 24 29  1  0  0  0  0
 25 27  1  0  0  0  0
 25 28  1  0  0  0  0
 25 26  1  0  0  0  0
 29 11  2  0  0  0  0
 29 30  1  0  0  0  0
M  END
