1
 OpenBabel05122313063D

 18 17  0  0  1  0  0  0  0  0999 V2000
    1.6273   -1.0691   -0.5976 N   0  0  0  0  0  2  0  0  0  0  0  0
    1.3789   -2.0420   -0.8121 H   0  0  0  0  0  0  0  0  0  0  0  0
    2.9107   -0.8129   -0.5731 C   0  0  1  0  0  3  0  0  0  0  0  0
    3.3208    0.4592   -0.3084 N   0  0  0  0  0  0  0  0  0  0  0  0
    2.5498    1.1519   -0.2424 H   0  0  0  0  0  0  0  0  0  0  0  0
    4.6198    0.9525   -0.0887 C   0  0  0  0  0  0  0  0  0  0  0  0
    5.6255    0.2634   -0.1523 O   0  0  0  0  0  0  0  0  0  0  0  0
    4.6059    2.4249    0.2598 C   0  0  0  0  0  0  0  0  0  0  0  0
    4.0967    3.0127   -0.5311 H   0  0  0  0  0  0  0  0  0  0  0  0
    4.0283    2.5771    1.1954 H   0  0  0  0  0  0  0  0  0  0  0  0
    5.6424    2.7786    0.3910 H   0  0  0  0  0  0  0  0  0  0  0  0
    3.8920   -1.9392   -0.7746 C   0  0  0  0  0  0  0  0  0  0  0  0
    4.7741   -1.5654   -1.3259 H   0  0  0  0  0  0  0  0  0  0  0  0
    3.3862   -2.7079   -1.3943 H   0  0  0  0  0  0  0  0  0  0  0  0
    4.3333   -2.5429    0.5693 C   0  0  0  0  0  0  0  0  0  0  0  0
    3.4583   -2.8655    1.1680 H   0  0  0  0  0  0  0  0  0  0  0  0
    4.9813   -3.4229    0.3912 H   0  0  0  0  0  0  0  0  0  0  0  0
    4.9145   -1.8053    1.1539 H   0  0  0  0  0  0  0  0  0  0  0  0
  2  1  1  0  0  0  0
  3  1  1  1  0  0  0
  3  4  1  0  0  0  0
  4  5  1  0  0  0  0
  4  6  1  0  0  0  0
  6  8  1  0  0  0  0
  7  6  2  0  0  0  0
  8 11  1  0  0  0  0
  8 10  1  0  0  0  0
  9  8  1  0  0  0  0
 12  3  1  0  0  0  0
 12 15  1  0  0  0  0
 13 12  1  0  0  0  0
 14 12  1  0  0  0  0
 15 18  1  0  0  0  0
 15 16  1  0  0  0  0
 17 15  1  0  0  0  0
M  END
