1
 OpenBabel05122313063D

 23 24  0  0  0  0  0  0  0  0999 V2000
   -0.6647   -0.0000   -0.0000 N   0  0  0  0  0  2  0  0  0  0  0  0
   -4.8683   -0.0000   -0.0000 N   0  0  0  0  0  0  0  0  0  0  0  0
   -1.3633    0.9562   -0.6544 C   0  0  0  0  0  3  0  0  0  0  0  0
   -0.7470    1.7117   -1.1677 H   0  0  0  0  0  0  0  0  0  0  0  0
   -2.7530    0.9973   -0.6857 C   0  0  0  0  0  0  0  0  0  0  0  0
   -3.2490    1.7969   -1.2509 H   0  0  0  0  0  0  0  0  0  0  0  0
   -3.5056   -0.0000   -0.0000 C   0  0  0  0  0  0  0  0  0  0  0  0
   -5.6829    1.0485   -0.6164 C   0  0  0  0  0  0  0  0  0  0  0  0
   -5.3171    2.0569   -0.3289 H   0  0  0  0  0  0  0  0  0  0  0  0
   -5.6370    0.9858   -1.7294 H   0  0  0  0  0  0  0  0  0  0  0  0
   -7.0952    0.7622   -0.0899 C   0  0  0  0  0  0  0  0  0  0  0  0
   -7.8856    1.1275   -0.7732 H   0  0  0  0  0  0  0  0  0  0  0  0
   -7.2403    1.2626    0.8904 H   0  0  0  0  0  0  0  0  0  0  0  0
   -7.0952   -0.7623    0.0899 C   0  0  0  0  0  0  0  0  0  0  0  0
   -5.6828   -1.0485    0.6164 C   0  0  0  0  0  0  0  0  0  0  0  0
   -5.3171   -2.0569    0.3289 H   0  0  0  0  0  0  0  0  0  0  0  0
   -5.6370   -0.9859    1.7294 H   0  0  0  0  0  0  0  0  0  0  0  0
   -7.8856   -1.1275    0.7732 H   0  0  0  0  0  0  0  0  0  0  0  0
   -7.2403   -1.2626   -0.8904 H   0  0  0  0  0  0  0  0  0  0  0  0
   -2.7530   -0.9973    0.6857 C   0  0  0  0  0  0  0  0  0  0  0  0
   -1.3633   -0.9562    0.6543 C   0  0  0  0  0  0  0  0  0  0  0  0
   -0.7470   -1.7117    1.1677 H   0  0  0  0  0  0  0  0  0  0  0  0
   -3.2489   -1.7969    1.2509 H   0  0  0  0  0  0  0  0  0  0  0  0
  1 21  1  0  0  0  0
  2 15  1  0  0  0  0
  3  1  1  0  0  0  0
  4  3  1  0  0  0  0
  5  3  1  0  0  0  0
  5  7  2  0  0  0  0
  6  5  1  0  0  0  0
  7  2  1  0  0  0  0
  7 20  1  0  0  0  0
  8  9  1  0  0  0  0
  8 11  1  0  0  0  0
  8  2  1  0  0  0  0
 10  8  1  0  0  0  0
 11 14  1  0  0  0  0
 11 13  1  0  0  0  0
 12 11  1  0  0  0  0
 14 15  1  0  0  0  0
 14 18  1  0  0  0  0
 15 17  1  0  0  0  0
 16 15  1  0  0  0  0
 19 14  1  0  0  0  0
 20 23  1  0  0  0  0
 21 20  2  0  0  0  0
 21 22  1  0  0  0  0
M  END
