1
 OpenBabel05122313063D

 21 20  0  0  0  0  0  0  0  0999 V2000
    3.2458    1.5420   -1.3608 N   0  0  0  0  0  0  0  0  0  0  0  0
    3.0714    2.5562   -1.4343 H   0  0  0  0  0  0  0  0  0  0  0  0
    3.4518    1.2477   -2.3278 H   0  0  0  0  0  0  0  0  0  0  0  0
    2.9520   -1.1543    0.1515 O   0  0  0  0  0  0  0  0  0  0  0  0
    4.8825   -2.5584    0.0911 C   0  0  0  0  0  0  0  0  0  0  0  0
    4.1651   -3.3897    0.2120 H   0  0  0  0  0  0  0  0  0  0  0  0
    5.4954   -2.4814    1.0155 H   0  0  0  0  0  0  0  0  0  0  0  0
    5.5877   -2.7676   -0.7382 H   0  0  0  0  0  0  0  0  0  0  0  0
    4.1487   -1.2563   -0.1094 C   0  0  0  0  0  0  0  0  0  0  0  0
    4.9822   -0.1011   -0.6511 C   0  0  0  0  0  0  0  0  0  0  0  0
    5.1706   -0.3367   -1.7256 H   0  0  0  0  0  0  0  0  0  0  0  0
    5.9896   -0.1651   -0.1884 H   0  0  0  0  0  0  0  0  0  0  0  0
    4.4764    1.3519   -0.5157 C   0  0  0  0  0  0  0  0  0  0  0  0
    5.5803    2.2916   -1.0348 C   0  0  0  0  0  0  0  0  0  0  0  0
    5.8437    2.0654   -2.0886 H   0  0  0  0  0  0  0  0  0  0  0  0
    6.5030    2.1968   -0.4293 H   0  0  0  0  0  0  0  0  0  0  0  0
    5.2535    3.3503   -0.9776 H   0  0  0  0  0  0  0  0  0  0  0  0
    4.1269    1.7023    0.9373 C   0  0  0  0  0  0  0  0  0  0  0  0
    3.7889    2.7557    1.0134 H   0  0  0  0  0  0  0  0  0  0  0  0
    5.0188    1.5948    1.5848 H   0  0  0  0  0  0  0  0  0  0  0  0
    3.3264    1.0474    1.3329 H   0  0  0  0  0  0  0  0  0  0  0  0
  1 13  1  0  0  0  0
  2  1  1  0  0  0  0
  3  1  1  0  0  0  0
  5  6  1  0  0  0  0
  5  7  1  0  0  0  0
  8  5  1  0  0  0  0
  9  5  1  0  0  0  0
  9  4  2  0  0  0  0
 10 13  1  0  0  0  0
 10 12  1  0  0  0  0
 10  9  1  0  0  0  0
 11 10  1  0  0  0  0
 13 18  1  0  0  0  0
 14 17  1  0  0  0  0
 14 13  1  0  0  0  0
 14 16  1  0  0  0  0
 15 14  1  0  0  0  0
 18 19  1  0  0  0  0
 18 21  1  0  0  0  0
 18 20  1  0  0  0  0
M  END
