3
 OpenBabel05122313063D

 20 20  0  0  0  0  0  0  0  0999 V2000
   -3.4658    2.3238    0.6476 O   0  0  0  0  0  0  0  0  0  0  0  0
    0.5297    3.2977    0.1320 O   0  0  0  0  0  0  0  0  0  0  0  0
   -1.2480    1.9081    0.0111 N   0  0  0  0  0  2  0  0  0  0  0  0
   -3.9118   -0.5134    0.5536 C   0  0  0  0  0  0  0  0  0  0  0  0
   -4.4167    0.0344    1.3634 H   0  0  0  0  0  0  0  0  0  0  0  0
   -4.2495   -1.8388    0.2445 C   0  0  0  0  0  0  0  0  0  0  0  0
   -5.0201   -2.3609    0.8326 H   0  0  0  0  0  0  0  0  0  0  0  0
   -3.6170   -2.4963   -0.8249 C   0  0  0  0  0  0  0  0  0  0  0  0
   -3.8928   -3.5318   -1.0780 H   0  0  0  0  0  0  0  0  0  0  0  0
   -2.6463   -1.8203   -1.5829 C   0  0  0  0  0  0  0  0  0  0  0  0
   -2.1685   -2.3208   -2.4394 H   0  0  0  0  0  0  0  0  0  0  0  0
   -2.2847   -0.5054   -1.2508 C   0  0  0  0  0  0  0  0  0  0  0  0
   -1.5262    0.0304   -1.8424 H   0  0  0  0  0  0  0  0  0  0  0  0
   -2.9082    0.1562   -0.1716 C   0  0  0  0  0  0  0  0  0  0  0  0
   -2.5801    1.5897    0.1976 C   0  0  0  0  0  0  0  0  0  0  0  0
   -0.7086    3.1808    0.1194 C   0  0  0  0  0  0  0  0  0  0  0  0
   -1.6015    4.3989    0.1907 C   0  0  0  0  0  0  0  0  0  0  0  0
   -2.1961    4.3772    1.1243 H   0  0  0  0  0  0  0  0  0  0  0  0
   -2.3489    4.3956   -0.6271 H   0  0  0  0  0  0  0  0  0  0  0  0
   -0.9700    5.3042    0.1421 H   0  0  0  0  0  0  0  0  0  0  0  0
  3 16  1  0  0  0  0
  3 15  1  0  0  0  0
  4  5  1  0  0  0  0
  6  4  1  0  0  0  0
  6  7  1  0  0  0  0
  8  6  2  0  0  0  0
  9  8  1  0  0  0  0
 10 12  2  0  0  0  0
 10  8  1  0  0  0  0
 11 10  1  0  0  0  0
 12 14  1  0  0  0  0
 13 12  1  0  0  0  0
 14 15  1  0  0  0  0
 14  4  2  0  0  0  0
 15  1  2  0  0  0  0
 16  2  2  0  0  0  0
 16 17  1  0  0  0  0
 17 18  1  0  0  0  0
 19 17  1  0  0  0  0
 20 17  1  0  0  0  0
M  END
