1
 OpenBabel05122313063D

 33 34  0  0  0  0  0  0  0  0999 V2000
   -0.7300    0.7046   -1.3984 N   0  0  0  0  0  2  0  0  0  0  0  0
   -2.0580    0.6987   -1.6224 C   0  0  0  0  0  3  0  0  0  0  0  0
   -2.5935    1.5888   -1.2492 H   0  0  0  0  0  0  0  0  0  0  0  0
   -2.7165   -0.3739   -2.2294 C   0  0  0  0  0  0  0  0  0  0  0  0
   -3.8058   -0.3406   -2.3689 H   0  0  0  0  0  0  0  0  0  0  0  0
   -1.9525   -1.4895   -2.6123 C   0  0  0  0  0  0  0  0  0  0  0  0
   -2.4335   -2.3611   -3.0823 H   0  0  0  0  0  0  0  0  0  0  0  0
   -0.5730   -1.4788   -2.4011 C   0  0  0  0  0  0  0  0  0  0  0  0
    0.0529   -2.3230   -2.7230 H   0  0  0  0  0  0  0  0  0  0  0  0
    0.0385   -0.3568   -1.7905 C   0  0  0  0  0  0  0  0  0  0  0  0
    1.4636   -0.2383   -1.5323 C   0  0  0  0  0  0  0  0  0  0  0  0
    1.8016    0.8005   -1.3714 H   0  0  0  0  0  0  0  0  0  0  0  0
    2.3558   -1.2629   -1.4079 C   0  0  0  0  0  0  0  0  0  0  0  0
    2.0003   -2.3037   -1.5158 H   0  0  0  0  0  0  0  0  0  0  0  0
    3.7591   -1.1170   -1.0588 C   0  0  0  0  0  0  0  0  0  0  0  0
    4.5568   -2.2636   -0.8264 C   0  0  0  0  0  0  0  0  0  0  0  0
    4.1042   -3.2608   -0.9504 H   0  0  0  0  0  0  0  0  0  0  0  0
    5.8924   -2.1754   -0.4356 C   0  0  0  0  0  0  0  0  0  0  0  0
    6.4581   -3.1008   -0.2690 H   0  0  0  0  0  0  0  0  0  0  0  0
    6.5153   -0.9063   -0.2575 C   0  0  0  0  0  0  0  0  0  0  0  0
    5.7160    0.2531   -0.4960 C   0  0  0  0  0  0  0  0  0  0  0  0
    6.1447    1.2562   -0.3756 H   0  0  0  0  0  0  0  0  0  0  0  0
    4.3851    0.1470   -0.8851 C   0  0  0  0  0  0  0  0  0  0  0  0
    3.8119    1.0748   -1.0434 H   0  0  0  0  0  0  0  0  0  0  0  0
    7.8358   -0.7987    0.1282 N   0  0  0  0  0  0  0  0  0  0  0  0
    8.4379    0.5085    0.3045 C   0  0  0  0  0  0  0  0  0  0  0  0
    9.4932    0.3871    0.6079 H   0  0  0  0  0  0  0  0  0  0  0  0
    7.9234    1.1052    1.0912 H   0  0  0  0  0  0  0  0  0  0  0  0
    8.4197    1.1075   -0.6334 H   0  0  0  0  0  0  0  0  0  0  0  0
    8.6203   -1.9930    0.3656 C   0  0  0  0  0  0  0  0  0  0  0  0
    9.6456   -1.7062    0.6605 H   0  0  0  0  0  0  0  0  0  0  0  0
    8.6938   -2.6332   -0.5425 H   0  0  0  0  0  0  0  0  0  0  0  0
    8.1941   -2.6202    1.1816 H   0  0  0  0  0  0  0  0  0  0  0  0
  2  1  1  0  0  0  0
  2  3  1  0  0  0  0
  4  2  1  0  0  0  0
  5  4  1  0  0  0  0
  6  8  1  0  0  0  0
  6  4  2  0  0  0  0
  7  6  1  0  0  0  0
  8 10  2  0  0  0  0
  9  8  1  0  0  0  0
 10 11  1  0  0  0  0
 10  1  1  0  0  0  0
 11 13  2  0  0  0  0
 11 12  1  0  0  0  0
 13 15  1  0  0  0  0
 14 13  1  0  0  0  0
 15 23  2  0  0  0  0
 15 16  1  0  0  0  0
 16 18  2  0  0  0  0
 17 16  1  0  0  0  0
 18 19  1  0  0  0  0
 18 20  1  0  0  0  0
 20 25  1  0  0  0  0
 21 22  1  0  0  0  0
 21 20  2  0  0  0  0
 23 21  1  0  0  0  0
 24 23  1  0  0  0  0
 25 26  1  0  0  0  0
 25 30  1  0  0  0  0
 26 27  1  0  0  0  0
 26 28  1  0  0  0  0
 29 26  1  0  0  0  0
 30 31  1  0  0  0  0
 30 33  1  0  0  0  0
 32 30  1  0  0  0  0
M  END
