8
 OpenBabel05122313063D

 54 56  0  0  1  0  0  0  0  0999 V2000
    1.6949    2.8016   -0.0949 S   0  0  0  0  0  0  0  0  0  0  0  0
   -1.6756   -1.8193   -1.5052 N   0  0  0  0  0  0  0  0  0  0  0  0
   -1.5879    1.1165   -0.2292 N   0  0  0  0  0  0  0  0  0  0  0  0
    4.0228   -0.5653   -1.2175 N   0  0  0  0  0  0  0  0  0  0  0  0
    0.4109   -1.2624   -1.7806 N   0  0  0  0  0  0  0  0  0  0  0  0
   -4.5498    0.5183    0.7585 N   0  0  0  0  0  0  0  0  0  0  0  0
   -4.7995    1.2976   -1.3302 N   0  0  0  0  0  0  0  0  0  0  0  0
    2.5687   -1.5768    0.1373 N   0  0  0  0  0  2  0  0  0  0  0  0
    0.3683   -2.6458   -1.7104 C   0  0  0  0  0  0  0  0  0  0  0  0
    1.2750   -3.2523   -1.7610 H   0  0  0  0  0  0  0  0  0  0  0  0
    0.2039    2.5664    0.9124 C   0  0  0  0  0  0  0  0  0  0  0  0
    0.5835    2.6628    1.9492 H   0  0  0  0  0  0  0  0  0  0  0  0
   -0.4170    3.4540    0.6769 H   0  0  0  0  0  0  0  0  0  0  0  0
   -4.0352    1.3212   -0.2373 C   0  0  0  0  0  0  0  0  0  0  0  0
   -1.2486    0.6912   -1.5746 C   0  0  0  0  0  0  0  0  0  0  0  0
   -2.1567    0.8066   -2.2039 H   0  0  0  0  0  0  0  0  0  0  0  0
   -0.4504    1.3125   -2.0431 H   0  0  0  0  0  0  0  0  0  0  0  0
   -5.7109   -0.0404    0.2587 C   0  0  0  0  0  0  0  0  0  0  0  0
   -6.3287   -0.7143    0.8620 H   0  0  0  0  0  0  0  0  0  0  0  0
    2.7158   -0.9172   -1.0172 C   0  0  1  0  0  3  0  0  0  0  0  0
   -0.8438   -0.7578   -1.6254 C   0  0  2  0  0  3  0  0  0  0  0  0
   -0.9457   -2.9903   -1.5326 C   0  0  0  0  0  0  0  0  0  0  0  0
   -1.4162   -3.9643   -1.3800 H   0  0  0  0  0  0  0  0  0  0  0  0
    4.7410   -1.0285   -0.1266 C   0  0  0  0  0  0  0  0  0  0  0  0
    5.8175   -0.8555   -0.0335 H   0  0  0  0  0  0  0  0  0  0  0  0
    3.8340   -1.6605    0.6960 C   0  0  0  0  0  0  0  0  0  0  0  0
    3.9977   -2.1335    1.6688 H   0  0  0  0  0  0  0  0  0  0  0  0
    2.2761    4.1079    0.2520 O   0  0  0  0  0  1  0  0  0  0  0  0
   -3.0892   -1.7649   -1.1629 C   0  0  0  0  0  0  0  0  0  0  0  0
   -3.5434   -0.8310   -1.5347 H   0  0  0  0  0  0  0  0  0  0  0  0
   -3.1613   -1.8221   -0.0588 H   0  0  0  0  0  0  0  0  0  0  0  0
   -3.5998   -2.6289   -1.6246 H   0  0  0  0  0  0  0  0  0  0  0  0
    1.3785    2.5433   -1.5362 O   0  0  0  0  0  1  0  0  0  0  0  0
   -3.9310    0.2239    2.0443 C   0  0  0  0  0  0  0  0  0  0  0  0
   -3.0516   -0.4503    1.9303 H   0  0  0  0  0  0  0  0  0  0  0  0
   -4.6763   -0.2584    2.7024 H   0  0  0  0  0  0  0  0  0  0  0  0
   -3.5980    1.1617    2.5307 H   0  0  0  0  0  0  0  0  0  0  0  0
    4.4913    0.3641   -2.2318 C   0  0  0  0  0  0  0  0  0  0  0  0
    4.3076   -0.0306   -3.2517 H   0  0  0  0  0  0  0  0  0  0  0  0
    5.5779    0.5166   -2.1076 H   0  0  0  0  0  0  0  0  0  0  0  0
    3.9729    1.3376   -2.1149 H   0  0  0  0  0  0  0  0  0  0  0  0
    2.6455    1.5903    0.3605 O   0  0  0  0  0  0  0  0  0  0  0  0
    2.4134    1.1473    1.3237 H   0  0  0  0  0  0  0  0  0  0  0  0
   -5.8480    0.4583   -1.0298 C   0  0  0  0  0  0  0  0  0  0  0  0
   -6.6543    0.2582   -1.7466 H   0  0  0  0  0  0  0  0  0  0  0  0
   -2.7216    2.0297   -0.1132 C   0  0  0  0  0  0  0  0  0  0  0  0
   -2.6514    2.5229    0.8778 H   0  0  0  0  0  0  0  0  0  0  0  0
   -2.7102    2.8441   -0.8747 H   0  0  0  0  0  0  0  0  0  0  0  0
   -0.5358    1.2262    0.7552 C   0  0  0  0  0  0  0  0  0  0  0  0
    0.2077    0.4158    0.5791 H   0  0  0  0  0  0  0  0  0  0  0  0
   -0.9411    0.9599    1.7530 H   0  0  0  0  0  0  0  0  0  0  0  0
    1.6375   -0.4986   -1.9708 C   0  0  0  0  0  0  0  0  0  0  0  0
    1.4219    0.5876   -1.8411 H   0  0  0  0  0  0  0  0  0  0  0  0
    1.9789   -0.6337   -3.0195 H   0  0  0  0  0  0  0  0  0  0  0  0
  1 28  1  0  0  0  0
  1 42  1  0  0  0  0
  1 11  1  0  0  0  0
  2 29  1  0  0  0  0
  3 46  1  0  0  0  0
  3 49  1  0  0  0  0
  4 20  1  0  0  0  0
  4 24  1  0  0  0  0
  5  9  1  0  0  0  0
  5 21  1  0  0  0  0
  6 34  1  0  0  0  0
  7 44  1  0  0  0  0
  7 14  2  0  0  0  0
  8 26  1  0  0  0  0
  9 22  2  0  0  0  0
 10  9  1  0  0  0  0
 11 12  1  0  0  0  0
 13 11  1  0  0  0  0
 14 46  1  0  0  0  0
 14  6  1  0  0  0  0
 15  3  1  0  0  0  0
 16 15  1  0  0  0  0
 17 15  1  0  0  0  0
 18  6  1  0  0  0  0
 18 19  1  0  0  0  0
 20 52  1  1  0  0  0
 20  8  1  0  0  0  0
 21 15  1  1  0  0  0
 21  2  1  0  0  0  0
 22  2  1  0  0  0  0
 22 23  1  0  0  0  0
 24 25  1  0  0  0  0
 24 26  2  0  0  0  0
 26 27  1  0  0  0  0
 29 31  1  0  0  0  0
 30 29  1  0  0  0  0
 32 29  1  0  0  0  0
 33  1  1  0  0  0  0
 34 37  1  0  0  0  0
 34 36  1  0  0  0  0
 35 34  1  0  0  0  0
 38 41  1  0  0  0  0
 38 40  1  0  0  0  0
 38  4  1  0  0  0  0
 39 38  1  0  0  0  0
 42 43  1  0  0  0  0
 44 18  2  0  0  0  0
 45 44  1  0  0  0  0
 46 47  1  0  0  0  0
 48 46  1  0  0  0  0
 49 11  1  0  0  0  0
 49 51  1  0  0  0  0
 50 49  1  0  0  0  0
 52 53  1  0  0  0  0
 52  5  1  0  0  0  0
 54 52  1  0  0  0  0
M  END
