2
 OpenBabel05122313063D

 52 55  0  0  0  0  0  0  0  0999 V2000
   -2.5048   -0.1989   -0.1240 P   0  0  0  0  0  4  0  0  0  0  0  0
    1.2725    0.8848   -0.9043 N   0  0  0  0  0  2  0  0  0  0  0  0
    0.1922    0.2198   -0.5532 C   0  0  0  0  0  3  0  0  0  0  0  0
   -1.1359    0.5829   -0.8319 C   0  0  0  0  0  0  0  0  0  0  0  0
    1.3023    2.1009   -1.6865 C   0  0  0  0  0  0  0  0  0  0  0  0
    0.6572    3.2976   -1.0045 C   0  0  0  0  0  0  0  0  0  0  0  0
    0.6255    3.4003    0.4005 C   0  0  0  0  0  0  0  0  0  0  0  0
    0.0483    4.5148    1.0279 C   0  0  0  0  0  0  0  0  0  0  0  0
   -0.5116    5.5482    0.2597 C   0  0  0  0  0  0  0  0  0  0  0  0
   -0.4863    5.4562   -1.1412 C   0  0  0  0  0  0  0  0  0  0  0  0
    0.0914    4.3397   -1.7648 C   0  0  0  0  0  0  0  0  0  0  0  0
   -2.4361   -2.0262   -0.1535 C   0  0  0  0  0  0  0  0  0  0  0  0
   -2.9078   -2.7200   -1.2870 C   0  0  0  0  0  0  0  0  0  0  0  0
   -2.7489   -4.1099   -1.3738 C   0  0  0  0  0  0  0  0  0  0  0  0
   -2.1160   -4.8139   -0.3358 C   0  0  0  0  0  0  0  0  0  0  0  0
   -1.6515   -4.1257    0.7953 C   0  0  0  0  0  0  0  0  0  0  0  0
   -1.8108   -2.7350    0.8906 C   0  0  0  0  0  0  0  0  0  0  0  0
   -3.9901    0.3085   -1.0629 C   0  0  0  0  0  0  0  0  0  0  0  0
   -5.2490    0.4420   -0.4448 C   0  0  0  0  0  0  0  0  0  0  0  0
   -6.3714    0.7898   -1.2105 C   0  0  0  0  0  0  0  0  0  0  0  0
   -6.2442    1.0084   -2.5916 C   0  0  0  0  0  0  0  0  0  0  0  0
   -4.9896    0.8823   -3.2092 C   0  0  0  0  0  0  0  0  0  0  0  0
   -3.8630    0.5329   -2.4503 C   0  0  0  0  0  0  0  0  0  0  0  0
   -2.8272    0.2523    1.6296 C   0  0  0  0  0  0  0  0  0  0  0  0
   -3.6337   -0.5223    2.4895 C   0  0  0  0  0  0  0  0  0  0  0  0
   -3.8433   -0.1047    3.8125 C   0  0  0  0  0  0  0  0  0  0  0  0
   -3.2547    1.0829    4.2785 C   0  0  0  0  0  0  0  0  0  0  0  0
   -2.4548    1.8557    3.4214 C   0  0  0  0  0  0  0  0  0  0  0  0
   -2.2373    1.4423    2.0991 C   0  0  0  0  0  0  0  0  0  0  0  0
   -1.3907    1.5394   -1.3275 H   0  0  0  0  0  0  0  0  0  0  0  0
    2.3635    2.3380   -1.9188 H   0  0  0  0  0  0  0  0  0  0  0  0
    0.7940    1.9306   -2.6659 H   0  0  0  0  0  0  0  0  0  0  0  0
    1.0485    2.5799    0.9978 H   0  0  0  0  0  0  0  0  0  0  0  0
    0.0367    4.5763    2.1277 H   0  0  0  0  0  0  0  0  0  0  0  0
   -0.9676    6.4217    0.7501 H   0  0  0  0  0  0  0  0  0  0  0  0
   -0.9253    6.2587   -1.7541 H   0  0  0  0  0  0  0  0  0  0  0  0
    0.0999    4.2705   -2.8649 H   0  0  0  0  0  0  0  0  0  0  0  0
   -3.3967   -2.1706   -2.1053 H   0  0  0  0  0  0  0  0  0  0  0  0
   -3.1181   -4.6465   -2.2605 H   0  0  0  0  0  0  0  0  0  0  0  0
   -1.9853   -5.9039   -0.4099 H   0  0  0  0  0  0  0  0  0  0  0  0
   -1.1572   -4.6742    1.6116 H   0  0  0  0  0  0  0  0  0  0  0  0
   -1.4473   -2.2009    1.7788 H   0  0  0  0  0  0  0  0  0  0  0  0
   -5.3510    0.2883    0.6395 H   0  0  0  0  0  0  0  0  0  0  0  0
   -7.3517    0.8972   -0.7223 H   0  0  0  0  0  0  0  0  0  0  0  0
   -7.1267    1.2840   -3.1887 H   0  0  0  0  0  0  0  0  0  0  0  0
   -4.8848    1.0601   -4.2901 H   0  0  0  0  0  0  0  0  0  0  0  0
   -2.8738    0.4375   -2.9235 H   0  0  0  0  0  0  0  0  0  0  0  0
   -4.0861   -1.4598    2.1309 H   0  0  0  0  0  0  0  0  0  0  0  0
   -4.4647   -0.7138    4.4864 H   0  0  0  0  0  0  0  0  0  0  0  0
   -3.4158    1.4030    5.3191 H   0  0  0  0  0  0  0  0  0  0  0  0
   -1.9885    2.7841    3.7846 H   0  0  0  0  0  0  0  0  0  0  0  0
   -1.5933    2.0287    1.4235 H   0  0  0  0  0  0  0  0  0  0  0  0
  1 24  1  0  0  0  0
  2  3  1  0  0  0  0
  4  3  2  0  0  0  0
  4  1  1  0  0  0  0
  5  6  1  0  0  0  0
  5  2  1  0  0  0  0
  6  7  1  0  0  0  0
  7 33  1  0  0  0  0
  7  8  2  0  0  0  0
  8 34  1  0  0  0  0
  9 35  1  0  0  0  0
  9  8  1  0  0  0  0
 10  9  2  0  0  0  0
 11 10  1  0  0  0  0
 11  6  2  0  0  0  0
 12  1  1  0  0  0  0
 12 17  1  0  0  0  0
 13 12  2  0  0  0  0
 14 13  1  0  0  0  0
 14 15  2  0  0  0  0
 15 16  1  0  0  0  0
 16 17  2  0  0  0  0
 16 41  1  0  0  0  0
 17 42  1  0  0  0  0
 18 19  1  0  0  0  0
 18  1  1  0  0  0  0
 19 43  1  0  0  0  0
 20 44  1  0  0  0  0
 20 19  2  0  0  0  0
 21 20  1  0  0  0  0
 22 21  2  0  0  0  0
 22 23  1  0  0  0  0
 23 18  2  0  0  0  0
 24 29  2  0  0  0  0
 24 25  1  0  0  0  0
 25 26  2  0  0  0  0
 26 27  1  0  0  0  0
 26 49  1  0  0  0  0
 27 50  1  0  0  0  0
 28 51  1  0  0  0  0
 28 27  2  0  0  0  0
 29 28  1  0  0  0  0
 30  4  1  0  0  0  0
 31  5  1  0  0  0  0
 32  5  1  0  0  0  0
 36 10  1  0  0  0  0
 37 11  1  0  0  0  0
 38 13  1  0  0  0  0
 39 14  1  0  0  0  0
 40 15  1  0  0  0  0
 45 21  1  0  0  0  0
 46 22  1  0  0  0  0
 47 23  1  0  0  0  0
 48 25  1  0  0  0  0
 52 29  1  0  0  0  0
M  END
