4
 OpenBabel05122313063D

 73 78  0  0  0  0  0  0  0  0999 V2000
    0.8002    1.0370    0.2100 P   0  0  0  0  0  4  0  0  0  0  0  0
   -2.2833   -0.0457    0.3260 O   0  0  0  0  0  0  0  0  0  0  0  0
   -3.6632   -0.2082    0.3512 C   0  0  0  0  0  0  0  0  0  0  0  0
    0.5158   -0.5295   -0.1689 N   0  0  0  0  0  2  0  0  0  0  0  0
   -4.3201   -1.4327    0.2600 C   0  0  0  0  0  0  0  0  0  0  0  0
   -3.7582   -2.3665    0.1121 H   0  0  0  0  0  0  0  0  0  0  0  0
   -5.7226   -1.3758    0.3113 C   0  0  0  0  0  0  0  0  0  0  0  0
   -6.2968   -2.3111    0.2360 H   0  0  0  0  0  0  0  0  0  0  0  0
   -6.4101   -0.1482    0.4446 C   0  0  0  0  0  0  0  0  0  0  0  0
   -7.5095   -0.1497    0.4801 H   0  0  0  0  0  0  0  0  0  0  0  0
   -5.7198    1.0696    0.5161 C   0  0  0  0  0  0  0  0  0  0  0  0
   -6.2628    2.0223    0.6020 H   0  0  0  0  0  0  0  0  0  0  0  0
   -4.3135    1.0419    0.4636 C   0  0  0  0  0  0  0  0  0  0  0  0
   -3.2530    2.0376    0.4654 C   0  0  0  0  0  0  0  0  0  0  0  0
   -3.2089    3.4409    0.5041 C   0  0  0  0  0  0  0  0  0  0  0  0
   -4.1367    4.0270    0.5768 H   0  0  0  0  0  0  0  0  0  0  0  0
   -1.9623    4.0802    0.4240 C   0  0  0  0  0  0  0  0  0  0  0  0
   -1.9092    5.1784    0.4364 H   0  0  0  0  0  0  0  0  0  0  0  0
   -0.7734    3.3377    0.3086 C   0  0  0  0  0  0  0  0  0  0  0  0
    0.1894    3.8638    0.2212 H   0  0  0  0  0  0  0  0  0  0  0  0
   -0.7810    1.9242    0.2894 C   0  0  0  0  0  0  0  0  0  0  0  0
   -2.0391    1.3068    0.3695 C   0  0  0  0  0  0  0  0  0  0  0  0
    1.6367    1.2174    1.8227 C   0  0  0  0  0  0  0  0  0  0  0  0
    2.9124    0.6329    1.9960 C   0  0  0  0  0  0  0  0  0  0  0  0
    3.3907    0.0826    1.1725 H   0  0  0  0  0  0  0  0  0  0  0  0
    3.5704    0.7508    3.2285 C   0  0  0  0  0  0  0  0  0  0  0  0
    4.5603    0.2892    3.3593 H   0  0  0  0  0  0  0  0  0  0  0  0
    2.9667    1.4449    4.2894 C   0  0  0  0  0  0  0  0  0  0  0  0
    3.4874    1.5349    5.2547 H   0  0  0  0  0  0  0  0  0  0  0  0
    1.6946    2.0144    4.1224 C   0  0  0  0  0  0  0  0  0  0  0  0
    1.2145    2.5504    4.9546 H   0  0  0  0  0  0  0  0  0  0  0  0
    1.0268    1.8997    2.8940 C   0  0  0  0  0  0  0  0  0  0  0  0
    0.0283    2.3432    2.7673 H   0  0  0  0  0  0  0  0  0  0  0  0
    1.8343    1.9768   -0.9780 C   0  0  0  0  0  0  0  0  0  0  0  0
    3.0153    2.6462   -0.5955 C   0  0  0  0  0  0  0  0  0  0  0  0
    3.3291    2.6641    0.4578 H   0  0  0  0  0  0  0  0  0  0  0  0
    3.7955    3.2954   -1.5654 C   0  0  0  0  0  0  0  0  0  0  0  0
    4.7183    3.8135   -1.2637 H   0  0  0  0  0  0  0  0  0  0  0  0
    3.4004    3.2824   -2.9116 C   0  0  0  0  0  0  0  0  0  0  0  0
    4.0174    3.7873   -3.6704 H   0  0  0  0  0  0  0  0  0  0  0  0
    2.2146    2.6298   -3.2890 C   0  0  0  0  0  0  0  0  0  0  0  0
    1.8944    2.6257   -4.3419 H   0  0  0  0  0  0  0  0  0  0  0  0
    1.4276    1.9778   -2.3311 C   0  0  0  0  0  0  0  0  0  0  0  0
    0.4877    1.4789   -2.6319 H   0  0  0  0  0  0  0  0  0  0  0  0
    1.4501   -1.5456    0.2206 C   0  0  0  0  0  0  0  0  0  0  0  0
    2.4528   -1.9685   -0.6943 C   0  0  0  0  0  0  0  0  0  0  0  0
    3.3815   -2.9394   -0.2742 C   0  0  0  0  0  0  0  0  0  0  0  0
    4.1635   -3.2736   -0.9739 H   0  0  0  0  0  0  0  0  0  0  0  0
    3.3170   -3.4938    1.0096 C   0  0  0  0  0  0  0  0  0  0  0  0
    4.0548   -4.2479    1.3239 H   0  0  0  0  0  0  0  0  0  0  0  0
    2.2924   -3.1067    1.8829 C   0  0  0  0  0  0  0  0  0  0  0  0
    2.2244   -3.5716    2.8780 H   0  0  0  0  0  0  0  0  0  0  0  0
    1.3401   -2.1403    1.5114 C   0  0  0  0  0  0  0  0  0  0  0  0
    2.4831   -1.4516   -2.1266 C   0  0  0  0  0  0  0  0  0  0  0  0
    1.7004   -0.6713   -2.2045 H   0  0  0  0  0  0  0  0  0  0  0  0
    3.8196   -0.7925   -2.4953 C   0  0  0  0  0  0  0  0  0  0  0  0
    4.0578    0.0489   -1.8130 H   0  0  0  0  0  0  0  0  0  0  0  0
    3.7817   -0.3868   -3.5269 H   0  0  0  0  0  0  0  0  0  0  0  0
    4.6599   -1.5164   -2.4511 H   0  0  0  0  0  0  0  0  0  0  0  0
    2.0977   -2.5754   -3.1058 C   0  0  0  0  0  0  0  0  0  0  0  0
    2.8506   -3.3909   -3.1008 H   0  0  0  0  0  0  0  0  0  0  0  0
    2.0255   -2.1842   -4.1415 H   0  0  0  0  0  0  0  0  0  0  0  0
    1.1187   -3.0184   -2.8311 H   0  0  0  0  0  0  0  0  0  0  0  0
    0.1796   -1.8062    2.4400 C   0  0  0  0  0  0  0  0  0  0  0  0
   -0.2385   -0.8381    2.1002 H   0  0  0  0  0  0  0  0  0  0  0  0
   -0.9357   -2.8556    2.2750 C   0  0  0  0  0  0  0  0  0  0  0  0
   -1.2160   -2.9793    1.2105 H   0  0  0  0  0  0  0  0  0  0  0  0
   -1.8379   -2.5644    2.8528 H   0  0  0  0  0  0  0  0  0  0  0  0
   -0.5961   -3.8457    2.6453 H   0  0  0  0  0  0  0  0  0  0  0  0
    0.5880   -1.6515    3.9103 C   0  0  0  0  0  0  0  0  0  0  0  0
    0.9252   -2.6140    4.3482 H   0  0  0  0  0  0  0  0  0  0  0  0
   -0.2776   -1.3097    4.5137 H   0  0  0  0  0  0  0  0  0  0  0  0
    1.4056   -0.9157    4.0361 H   0  0  0  0  0  0  0  0  0  0  0  0
  1 21  1  0  0  0  0
  1 23  1  0  0  0  0
  2  3  1  0  0  0  0
  2 22  1  0  0  0  0
  3 13  1  0  0  0  0
  4  1  1  0  0  0  0
  4 45  1  0  0  0  0
  5  7  1  0  0  0  0
  5  3  2  0  0  0  0
  6  5  1  0  0  0  0
  7  9  2  0  0  0  0
  8  7  1  0  0  0  0
  9 10  1  0  0  0  0
  9 11  1  0  0  0  0
 11 12  1  0  0  0  0
 13 14  1  0  0  0  0
 13 11  2  0  0  0  0
 14 15  1  0  0  0  0
 15 16  1  0  0  0  0
 17 18  1  0  0  0  0
 17 15  2  0  0  0  0
 19 17  1  0  0  0  0
 20 19  1  0  0  0  0
 21 19  2  0  0  0  0
 21 22  1  0  0  0  0
 22 14  2  0  0  0  0
 23 24  2  0  0  0  0
 23 32  1  0  0  0  0
 24 26  1  0  0  0  0
 25 24  1  0  0  0  0
 26 27  1  0  0  0  0
 26 28  2  0  0  0  0
 28 29  1  0  0  0  0
 30 28  1  0  0  0  0
 30 31  1  0  0  0  0
 32 30  2  0  0  0  0
 33 32  1  0  0  0  0
 34 35  1  0  0  0  0
 34  1  1  0  0  0  0
 35 36  1  0  0  0  0
 37 38  1  0  0  0  0
 37 35  2  0  0  0  0
 39 37  1  0  0  0  0
 40 39  1  0  0  0  0
 41 39  2  0  0  0  0
 41 43  1  0  0  0  0
 42 41  1  0  0  0  0
 43 34  2  0  0  0  0
 44 43  1  0  0  0  0
 45 53  1  0  0  0  0
 46 47  1  0  0  0  0
 46 45  2  0  0  0  0
 47 49  2  0  0  0  0
 48 47  1  0  0  0  0
 49 50  1  0  0  0  0
 49 51  1  0  0  0  0
 51 52  1  0  0  0  0
 53 51  2  0  0  0  0
 53 64  1  0  0  0  0
 54 46  1  0  0  0  0
 55 54  1  0  0  0  0
 56 59  1  0  0  0  0
 56 54  1  0  0  0  0
 56 57  1  0  0  0  0
 58 56  1  0  0  0  0
 60 61  1  0  0  0  0
 60 63  1  0  0  0  0
 60 54  1  0  0  0  0
 62 60  1  0  0  0  0
 64 70  1  0  0  0  0
 65 64  1  0  0  0  0
 66 64  1  0  0  0  0
 66 69  1  0  0  0  0
 66 68  1  0  0  0  0
 67 66  1  0  0  0  0
 70 73  1  0  0  0  0
 70 71  1  0  0  0  0
 70 72  1  0  0  0  0
M  END
