1
 OpenBabel05122313063D

 13 13  0  0  0  0  0  0  0  0999 V2000
    1.5635   -0.3804    0.1405 N   0  0  0  0  0  2  0  0  0  0  0  0
    2.1229   -0.1841    1.3597 C   0  0  0  0  0  3  0  0  0  0  0  0
    1.5221   -0.4879    2.2290 H   0  0  0  0  0  0  0  0  0  0  0  0
    2.2819   -0.0336   -0.9603 C   0  0  0  0  0  0  0  0  0  0  0  0
    1.8048   -0.2209   -1.9329 H   0  0  0  0  0  0  0  0  0  0  0  0
    6.1544    1.6576   -0.4819 O   0  0  0  0  0  0  0  0  0  0  0  0
    4.1376    0.7229    0.3842 C   0  0  0  0  0  0  0  0  0  0  0  0
    3.3997    0.3599    1.5228 C   0  0  0  0  0  0  0  0  0  0  0  0
    3.8143    0.4926    2.5340 H   0  0  0  0  0  0  0  0  0  0  0  0
    3.5586    0.5180   -0.8817 C   0  0  0  0  0  0  0  0  0  0  0  0
    4.1248    0.7894   -1.7851 H   0  0  0  0  0  0  0  0  0  0  0  0
    5.5131    1.3150    0.4900 C   0  0  0  0  0  0  0  0  0  0  0  0
    5.9077    1.4213    1.5417 H   0  0  0  0  0  0  0  0  0  0  0  0
  1  2  1  0  0  0  0
  2  8  1  0  0  0  0
  2  3  1  0  0  0  0
  4 10  2  0  0  0  0
  4  1  1  0  0  0  0
  5  4  1  0  0  0  0
  6 12  2  0  0  0  0
  7 12  1  0  0  0  0
  7  8  2  0  0  0  0
  8  9  1  0  0  0  0
 10  7  1  0  0  0  0
 11 10  1  0  0  0  0
 12 13  1  0  0  0  0
M  END
