3
 OpenBabel05122313063D

 21 21  0  0  0  0  0  0  0  0999 V2000
    4.9746   -1.5637   -2.1606 F   0  0  0  0  0  0  0  0  0  0  0  0
    5.4093   -0.1571    2.3215 F   0  0  0  0  0  0  0  0  0  0  0  0
    1.5806    1.2304   -0.2343 N   0  0  0  0  0  2  0  0  0  0  0  0
    2.8286    0.5472   -0.1317 C   0  0  0  0  0  0  0  0  0  0  0  0
    3.2973   -0.1754   -1.2447 C   0  0  0  0  0  0  0  0  0  0  0  0
    2.7051   -0.2167   -2.1694 H   0  0  0  0  0  0  0  0  0  0  0  0
    4.5032   -0.8706   -1.1110 C   0  0  0  0  0  0  0  0  0  0  0  0
    5.2407   -0.8762    0.0806 C   0  0  0  0  0  0  0  0  0  0  0  0
    6.1832   -1.4325    0.1636 H   0  0  0  0  0  0  0  0  0  0  0  0
    4.7252   -0.1567    1.1656 C   0  0  0  0  0  0  0  0  0  0  0  0
    3.5254    0.5595    1.0899 C   0  0  0  0  0  0  0  0  0  0  0  0
    3.1168    1.0768    1.9670 H   0  0  0  0  0  0  0  0  0  0  0  0
    0.0988    3.0947   -0.5716 C   0  0  0  0  0  0  0  0  0  0  0  0
   -0.4848    2.8262    0.3328 H   0  0  0  0  0  0  0  0  0  0  0  0
    0.1302    4.1933   -0.6913 H   0  0  0  0  0  0  0  0  0  0  0  0
   -0.4289    2.6378   -1.4359 H   0  0  0  0  0  0  0  0  0  0  0  0
    1.4729    2.4996   -0.4804 C   0  0  0  0  0  3  0  0  0  0  0  0
    2.6588    3.3888   -0.7032 C   0  0  0  0  0  0  0  0  0  0  0  0
    3.6186    2.8435   -0.6766 H   0  0  0  0  0  0  0  0  0  0  0  0
    2.5513    3.9000   -1.6827 H   0  0  0  0  0  0  0  0  0  0  0  0
    2.6715    4.1880    0.0676 H   0  0  0  0  0  0  0  0  0  0  0  0
  1  7  1  0  0  0  0
  3  4  1  0  0  0  0
  4 11  1  0  0  0  0
  5  7  1  0  0  0  0
  5  4  2  0  0  0  0
  6  5  1  0  0  0  0
  7  8  2  0  0  0  0
  8  9  1  0  0  0  0
  8 10  1  0  0  0  0
 10  2  1  0  0  0  0
 11 10  2  0  0  0  0
 11 12  1  0  0  0  0
 13 17  1  0  0  0  0
 13 14  1  0  0  0  0
 15 13  1  0  0  0  0
 16 13  1  0  0  0  0
 17  3  1  0  0  0  0
 18 19  1  0  0  0  0
 18 17  1  0  0  0  0
 18 21  1  0  0  0  0
 20 18  1  0  0  0  0
M  END
