2
 OpenBabel05122313063D

 47 48  0  0  0  0  0  0  0  0999 V2000
   -1.1693    1.4349   -1.1351 P   0  0  0  0  0  2  0  0  0  0  0  0
    0.9159    0.5328   -0.1009 N   0  0  0  0  0  2  0  0  0  0  0  0
   -0.2932    1.0736    0.3338 N   0  0  0  0  0  2  0  0  0  0  0  0
   -2.6618    1.9146   -0.5371 N   0  0  0  0  0  0  0  0  0  0  0  0
    2.0958    1.1095   -0.1122 C   0  0  0  0  0  3  0  0  0  0  0  0
    3.2294    0.2644   -0.5656 C   0  0  0  0  0  0  0  0  0  0  0  0
    4.3950    0.1598    0.2279 C   0  0  0  0  0  0  0  0  0  0  0  0
    4.4743    0.7401    1.1594 H   0  0  0  0  0  0  0  0  0  0  0  0
    5.4345   -0.6955   -0.1610 C   0  0  0  0  0  0  0  0  0  0  0  0
    6.3324   -0.7840    0.4683 H   0  0  0  0  0  0  0  0  0  0  0  0
    5.3332   -1.4334   -1.3529 C   0  0  0  0  0  0  0  0  0  0  0  0
    6.1543   -2.0987   -1.6588 H   0  0  0  0  0  0  0  0  0  0  0  0
    4.1924   -1.3065   -2.1623 C   0  0  0  0  0  0  0  0  0  0  0  0
    4.1187   -1.8618   -3.1090 H   0  0  0  0  0  0  0  0  0  0  0  0
    3.1437   -0.4639   -1.7705 C   0  0  0  0  0  0  0  0  0  0  0  0
    2.2644   -0.3415   -2.4158 H   0  0  0  0  0  0  0  0  0  0  0  0
    2.3366    2.4990    0.3201 C   0  0  0  0  0  0  0  0  0  0  0  0
    3.4508    3.1927   -0.2167 C   0  0  0  0  0  0  0  0  0  0  0  0
    4.0965    2.6952   -0.9541 H   0  0  0  0  0  0  0  0  0  0  0  0
    3.7194    4.5109    0.1685 C   0  0  0  0  0  0  0  0  0  0  0  0
    4.5780    5.0419   -0.2680 H   0  0  0  0  0  0  0  0  0  0  0  0
    2.8973    5.1514    1.1095 C   0  0  0  0  0  0  0  0  0  0  0  0
    3.1141    6.1853    1.4173 H   0  0  0  0  0  0  0  0  0  0  0  0
    1.7974    4.4695    1.6583 C   0  0  0  0  0  0  0  0  0  0  0  0
    1.1574    4.9667    2.4024 H   0  0  0  0  0  0  0  0  0  0  0  0
    1.5083    3.1595    1.2629 C   0  0  0  0  0  0  0  0  0  0  0  0
    0.6412    2.6332    1.6830 H   0  0  0  0  0  0  0  0  0  0  0  0
   -3.5481    2.6739   -1.4737 C   0  0  0  0  0  0  0  0  0  0  0  0
   -4.4724    2.8662   -0.8934 H   0  0  0  0  0  0  0  0  0  0  0  0
   -3.9267    1.8399   -2.7017 C   0  0  0  0  0  0  0  0  0  0  0  0
   -4.3873    0.8774   -2.4098 H   0  0  0  0  0  0  0  0  0  0  0  0
   -4.6439    2.3956   -3.3373 H   0  0  0  0  0  0  0  0  0  0  0  0
   -3.0353    1.6186   -3.3261 H   0  0  0  0  0  0  0  0  0  0  0  0
   -2.9352    4.0289   -1.8472 C   0  0  0  0  0  0  0  0  0  0  0  0
   -2.0151    3.8969   -2.4538 H   0  0  0  0  0  0  0  0  0  0  0  0
   -3.6505    4.6238   -2.4489 H   0  0  0  0  0  0  0  0  0  0  0  0
   -2.6723    4.6125   -0.9436 H   0  0  0  0  0  0  0  0  0  0  0  0
   -3.1262    1.6700    0.8480 C   0  0  0  0  0  0  0  0  0  0  0  0
   -2.3842    0.9688    1.2779 H   0  0  0  0  0  0  0  0  0  0  0  0
   -3.0882    2.9576    1.6785 C   0  0  0  0  0  0  0  0  0  0  0  0
   -3.8105    3.7090    1.2990 H   0  0  0  0  0  0  0  0  0  0  0  0
   -3.3564    2.7434    2.7324 H   0  0  0  0  0  0  0  0  0  0  0  0
   -2.0761    3.4075    1.6601 H   0  0  0  0  0  0  0  0  0  0  0  0
   -4.4939    0.9780    0.8871 C   0  0  0  0  0  0  0  0  0  0  0  0
   -4.5024    0.0671    0.2592 H   0  0  0  0  0  0  0  0  0  0  0  0
   -4.7305    0.6876    1.9303 H   0  0  0  0  0  0  0  0  0  0  0  0
   -5.3146    1.6410    0.5477 H   0  0  0  0  0  0  0  0  0  0  0  0
  1  4  1  0  0  0  0
  1  3  1  0  0  0  0
  2  3  1  0  0  0  0
  4 38  1  0  0  0  0
  5  2  1  0  0  0  0
  5 17  1  0  0  0  0
  6  5  1  0  0  0  0
  6  7  1  0  0  0  0
  7  8  1  0  0  0  0
  9  7  2  0  0  0  0
  9 10  1  0  0  0  0
 11  9  1  0  0  0  0
 12 11  1  0  0  0  0
 13 15  1  0  0  0  0
 13 11  2  0  0  0  0
 14 13  1  0  0  0  0
 15  6  2  0  0  0  0
 16 15  1  0  0  0  0
 17 26  1  0  0  0  0
 18 20  1  0  0  0  0
 18 17  2  0  0  0  0
 19 18  1  0  0  0  0
 20 22  2  0  0  0  0
 21 20  1  0  0  0  0
 22 23  1  0  0  0  0
 22 24  1  0  0  0  0
 24 25  1  0  0  0  0
 26 24  2  0  0  0  0
 26 27  1  0  0  0  0
 28 29  1  0  0  0  0
 28  4  1  0  0  0  0
 30 31  1  0  0  0  0
 30 28  1  0  0  0  0
 32 30  1  0  0  0  0
 33 30  1  0  0  0  0
 34 28  1  0  0  0  0
 34 37  1  0  0  0  0
 35 34  1  0  0  0  0
 36 34  1  0  0  0  0
 38 44  1  0  0  0  0
 38 39  1  0  0  0  0
 38 40  1  0  0  0  0
 40 42  1  0  0  0  0
 41 40  1  0  0  0  0
 43 40  1  0  0  0  0
 44 46  1  0  0  0  0
 45 44  1  0  0  0  0
 47 44  1  0  0  0  0
M  END
