5
 OpenBabel05122313063D

 35 38  0  0  1  0  0  0  0  0999 V2000
   -5.1007   -4.9349   -1.6790 Cl  0  0  0  0  0  0  0  0  0  0  0  0
   -0.9427   -2.8928    0.8461 Cl  0  0  0  0  0  0  0  0  0  0  0  0
   -1.9859    0.1439   -1.7831 N   0  0  0  0  0  0  0  0  0  0  0  0
   -0.4539    1.6894   -2.1779 N   0  0  0  0  0  0  0  0  0  0  0  0
   -1.4530    2.2420   -1.4216 N   0  0  0  0  0  2  0  0  0  0  0  0
   -3.3514    0.5485    0.8914 N   0  0  0  0  0  0  0  0  0  0  0  0
   -2.3701    1.3239   -1.1706 C   0  0  2  0  0  3  0  0  0  0  0  0
   -3.5647    1.3969   -0.2819 C   0  0  0  0  0  0  0  0  0  0  0  0
   -3.2201   -0.7256    0.7471 C   0  0  0  0  0  0  0  0  0  0  0  0
   -4.0596   -2.6955   -0.5387 C   0  0  0  0  0  0  0  0  0  0  0  0
   -4.1922   -3.4509   -1.7093 C   0  0  0  0  0  0  0  0  0  0  0  0
   -3.5954   -3.0239   -2.9081 C   0  0  0  0  0  0  0  0  0  0  0  0
   -2.8759   -1.8260   -2.9221 C   0  0  0  0  0  0  0  0  0  0  0  0
   -2.7367   -1.0575   -1.7521 C   0  0  0  0  0  0  0  0  0  0  0  0
   -3.3324   -1.4874   -0.5383 C   0  0  0  0  0  0  0  0  0  0  0  0
   -0.7667    0.4259   -2.3995 C   0  0  0  0  0  0  0  0  0  0  0  0
    0.0968   -0.5482   -3.1183 C   0  0  0  0  0  0  0  0  0  0  0  0
   -3.0370   -1.5223    2.0013 C   0  0  0  0  0  0  0  0  0  0  0  0
   -3.8187   -1.1988    3.1316 C   0  0  0  0  0  0  0  0  0  0  0  0
   -3.6840   -1.8991    4.3355 C   0  0  0  0  0  0  0  0  0  0  0  0
   -2.7491   -2.9430    4.4346 C   0  0  0  0  0  0  0  0  0  0  0  0
   -1.9372   -3.2651    3.3386 C   0  0  0  0  0  0  0  0  0  0  0  0
   -2.0781   -2.5513    2.1383 C   0  0  0  0  0  0  0  0  0  0  0  0
   -3.6937    2.4502    0.0458 H   0  0  0  0  0  0  0  0  0  0  0  0
   -4.4700    1.0708   -0.8478 H   0  0  0  0  0  0  0  0  0  0  0  0
   -4.5185   -3.0514    0.3941 H   0  0  0  0  0  0  0  0  0  0  0  0
   -3.7097   -3.6220   -3.8224 H   0  0  0  0  0  0  0  0  0  0  0  0
   -2.4280   -1.4706   -3.8593 H   0  0  0  0  0  0  0  0  0  0  0  0
   -0.2533   -0.7536   -4.1505 H   0  0  0  0  0  0  0  0  0  0  0  0
    0.1537   -1.5113   -2.5733 H   0  0  0  0  0  0  0  0  0  0  0  0
    1.1077   -0.1052   -3.1765 H   0  0  0  0  0  0  0  0  0  0  0  0
   -4.5307   -0.3668    3.0310 H   0  0  0  0  0  0  0  0  0  0  0  0
   -4.3102   -1.6310    5.1989 H   0  0  0  0  0  0  0  0  0  0  0  0
   -2.6388   -3.5052    5.3740 H   0  0  0  0  0  0  0  0  0  0  0  0
   -1.1755   -4.0545    3.4067 H   0  0  0  0  0  0  0  0  0  0  0  0
  2 23  1  0  0  0  0
  3 14  1  0  0  0  0
  3  7  1  0  0  0  0
  4  5  1  0  0  0  0
  7  5  1  1  0  0  0
  7  8  1  0  0  0  0
  8 24  1  0  0  0  0
  8  6  1  0  0  0  0
  9  6  2  0  0  0  0
  9 18  1  0  0  0  0
 10 15  1  0  0  0  0
 10 26  1  0  0  0  0
 11  1  1  0  0  0  0
 11 10  2  0  0  0  0
 12 11  1  0  0  0  0
 13 12  2  0  0  0  0
 13 14  1  0  0  0  0
 14 15  2  0  0  0  0
 15  9  1  0  0  0  0
 16  4  2  0  0  0  0
 16  3  1  0  0  0  0
 17 30  1  0  0  0  0
 17 16  1  0  0  0  0
 18 23  2  0  0  0  0
 18 19  1  0  0  0  0
 19 20  2  0  0  0  0
 20 21  1  0  0  0  0
 20 33  1  0  0  0  0
 21 34  1  0  0  0  0
 22 35  1  0  0  0  0
 22 21  2  0  0  0  0
 23 22  1  0  0  0  0
 25  8  1  0  0  0  0
 27 12  1  0  0  0  0
 28 13  1  0  0  0  0
 29 17  1  0  0  0  0
 31 17  1  0  0  0  0
 32 19  1  0  0  0  0
M  END
