1
 OpenBabel05122313063D

 28 31  0  0  1  0  0  0  0  0999 V2000
    2.1043    0.2044   -0.1817 N   0  0  0  0  0  2  0  0  0  0  0  0
    3.9274   -5.1532    0.9119 C   0  0  0  0  0  0  0  0  0  0  0  0
    3.5340   -6.1732    1.0078 H   0  0  0  0  0  0  0  0  0  0  0  0
    5.2169   -4.7090    1.1676 C   0  0  0  0  0  0  0  0  0  0  0  0
    6.0231   -5.3655    1.5206 H   0  0  0  0  0  0  0  0  0  0  0  0
    5.3673   -3.3204    0.9304 C   0  0  0  0  0  0  0  0  0  0  0  0
    6.2973   -2.7663    1.1045 H   0  0  0  0  0  0  0  0  0  0  0  0
    4.1853   -2.7153    0.4920 C   0  0  0  0  0  0  0  0  0  0  0  0
    3.9486   -1.3330    0.1583 C   0  0  1  0  0  3  0  0  0  0  0  0
    4.8669   -0.3211   -0.0926 C   0  0  0  0  0  0  0  0  0  0  0  0
    6.2854   -0.2635   -0.1996 C   0  0  0  0  0  0  0  0  0  0  0  0
    6.9894   -1.0914   -0.0669 H   0  0  0  0  0  0  0  0  0  0  0  0
    6.6243    1.0502   -0.5634 C   0  0  0  0  0  0  0  0  0  0  0  0
    7.6462    1.4109   -0.7397 H   0  0  0  0  0  0  0  0  0  0  0  0
    5.4461    1.8420   -0.7008 C   0  0  0  0  0  0  0  0  0  0  0  0
    5.4088    2.8923   -1.0116 H   0  0  0  0  0  0  0  0  0  0  0  0
    4.3482    1.0194   -0.4082 C   0  0  0  0  0  0  0  0  0  0  0  0
    2.9482    1.2194   -0.4284 C   0  0  0  0  0  0  0  0  0  0  0  0
    2.3316    2.5140   -0.7180 C   0  0  0  0  0  0  0  0  0  0  0  0
    2.7485    3.7737   -0.3010 C   0  0  0  0  0  0  0  0  0  0  0  0
    3.6261    3.9250    0.3409 H   0  0  0  0  0  0  0  0  0  0  0  0
    1.8972    4.8183   -0.7609 C   0  0  0  0  0  0  0  0  0  0  0  0
    2.0547    5.8828   -0.5410 H   0  0  0  0  0  0  0  0  0  0  0  0
    0.8436    4.3505   -1.5256 C   0  0  0  0  0  0  0  0  0  0  0  0
    0.0473    4.9234   -2.0158 H   0  0  0  0  0  0  0  0  0  0  0  0
    2.6140   -1.0606    0.0832 O   0  0  0  0  0  0  0  0  0  0  0  0
    0.8844    2.6339   -1.7007 S   0  0  0  0  0  0  0  0  0  0  0  0
    2.8849   -3.8878    0.3885 S   0  0  0  0  0  0  0  0  0  0  0  0
  1 26  1  0  0  0  0
  2  3  1  0  0  0  0
  2  4  2  0  0  0  0
  4  5  1  0  0  0  0
  6  7  1  0  0  0  0
  6  4  1  0  0  0  0
  8  6  2  0  0  0  0
  9  8  1  6  0  0  0
 10  9  1  0  0  0  0
 11 10  2  0  0  0  0
 11 12  1  0  0  0  0
 13 11  1  0  0  0  0
 14 13  1  0  0  0  0
 15 13  2  0  0  0  0
 15 17  1  0  0  0  0
 16 15  1  0  0  0  0
 17 10  1  0  0  0  0
 18 17  2  0  0  0  0
 18  1  1  0  0  0  0
 19 18  1  0  0  0  0
 19 20  2  0  0  0  0
 20 21  1  0  0  0  0
 22 23  1  0  0  0  0
 22 20  1  0  0  0  0
 24 22  2  0  0  0  0
 25 24  1  0  0  0  0
 26  9  1  0  0  0  0
 27 24  1  0  0  0  0
 27 19  1  0  0  0  0
 28  8  1  0  0  0  0
 28  2  1  0  0  0  0
M  END
