3
 OpenBabel05122313063D

 34 35  0  0  1  0  0  0  0  0999 V2000
   -1.7110   -3.8367    1.5005 O   0  0  0  0  0  0  0  0  0  0  0  0
   -5.8656    0.3799   -0.8438 O   0  0  0  0  0  0  0  0  0  0  0  0
    0.3191   -1.9131   -0.6049 N   0  0  0  0  0  2  0  0  0  0  0  0
   -0.3556   -3.0160   -0.1514 N   0  0  0  0  0  0  0  0  0  0  0  0
    2.4268   -1.4265   -1.8270 C   0  0  0  0  0  0  0  0  0  0  0  0
    1.9307   -0.6023   -2.3773 H   0  0  0  0  0  0  0  0  0  0  0  0
    3.1169   -1.9725   -2.4966 H   0  0  0  0  0  0  0  0  0  0  0  0
    3.0199   -0.9631   -1.0135 H   0  0  0  0  0  0  0  0  0  0  0  0
    1.4102   -2.3541   -1.2586 C   0  0  1  0  0  3  0  0  0  0  0  0
    1.4209   -3.7715   -1.2362 C   0  0  0  0  0  0  0  0  0  0  0  0
    2.1661   -4.4273   -1.6975 H   0  0  0  0  0  0  0  0  0  0  0  0
    0.3036   -4.1727   -0.5139 C   0  0  0  0  0  0  0  0  0  0  0  0
   -0.1748   -5.5471   -0.1873 C   0  0  0  0  0  0  0  0  0  0  0  0
    0.4438   -6.2863   -0.7292 H   0  0  0  0  0  0  0  0  0  0  0  0
   -1.2352   -5.6952   -0.4741 H   0  0  0  0  0  0  0  0  0  0  0  0
   -0.1143   -5.7421    0.9006 H   0  0  0  0  0  0  0  0  0  0  0  0
   -1.5796   -2.9882    0.6340 C   0  0  0  0  0  0  0  0  0  0  0  0
   -2.6376   -2.0377    0.2390 C   0  0  0  0  0  0  0  0  0  0  0  0
   -3.7264   -1.8990    1.1265 C   0  0  0  0  0  0  0  0  0  0  0  0
   -3.6865   -2.4376    2.0842 H   0  0  0  0  0  0  0  0  0  0  0  0
   -4.8281   -1.1042    0.8044 C   0  0  0  0  0  0  0  0  0  0  0  0
   -5.6540   -1.0104    1.5211 H   0  0  0  0  0  0  0  0  0  0  0  0
   -4.8564   -0.4242   -0.4375 C   0  0  0  0  0  0  0  0  0  0  0  0
   -3.7749   -0.5668   -1.3371 C   0  0  0  0  0  0  0  0  0  0  0  0
   -3.8067   -0.0256   -2.2926 H   0  0  0  0  0  0  0  0  0  0  0  0
   -2.6825   -1.3648   -1.0069 C   0  0  0  0  0  0  0  0  0  0  0  0
   -1.8620   -1.4553   -1.7304 H   0  0  0  0  0  0  0  0  0  0  0  0
   -6.9830    0.5913    0.0211 C   0  0  0  0  0  0  0  0  0  0  0  0
   -6.6323    1.0164    0.9900 H   0  0  0  0  0  0  0  0  0  0  0  0
   -7.4757   -0.3828    0.2451 H   0  0  0  0  0  0  0  0  0  0  0  0
   -7.9390    1.5389   -0.6766 C   0  0  0  0  0  0  0  0  0  0  0  0
   -7.4447    2.5066   -0.8915 H   0  0  0  0  0  0  0  0  0  0  0  0
   -8.8224    1.7305   -0.0364 H   0  0  0  0  0  0  0  0  0  0  0  0
   -8.2880    1.1083   -1.6356 H   0  0  0  0  0  0  0  0  0  0  0  0
  2 23  1  0  0  0  0
  2 28  1  0  0  0  0
  3  4  1  0  0  0  0
  4 17  1  0  0  0  0
  5  8  1  0  0  0  0
  6  5  1  0  0  0  0
  7  5  1  0  0  0  0
  9  5  1  1  0  0  0
  9 10  1  0  0  0  0
  9  3  1  0  0  0  0
 10 12  2  0  0  0  0
 11 10  1  0  0  0  0
 12 13  1  0  0  0  0
 12  4  1  0  0  0  0
 13 16  1  0  0  0  0
 14 13  1  0  0  0  0
 15 13  1  0  0  0  0
 17  1  2  0  0  0  0
 18 17  1  0  0  0  0
 18 19  1  0  0  0  0
 19 20  1  0  0  0  0
 21 19  2  0  0  0  0
 21 22  1  0  0  0  0
 23 21  1  0  0  0  0
 24 26  1  0  0  0  0
 24 23  2  0  0  0  0
 25 24  1  0  0  0  0
 26 18  2  0  0  0  0
 27 26  1  0  0  0  0
 28 30  1  0  0  0  0
 28 29  1  0  0  0  0
 31 33  1  0  0  0  0
 31 28  1  0  0  0  0
 32 31  1  0  0  0  0
 34 31  1  0  0  0  0
M  END
