3
 OpenBabel05122313063D

 66 70  0  0  1  0  0  0  0  0999 V2000
   -1.5714   -0.7614    0.1571 P   0  0  0  0  0  0  0  0  0  0  0  0
   -1.6287    0.8868    0.3657 O   0  0  0  0  0  0  0  0  0  0  0  0
    1.0638    0.2376    0.6211 N   0  0  0  0  0  2  0  0  0  0  0  0
    0.6994    1.5484    0.5938 C   0  0  1  0  0  3  0  0  0  0  0  0
   -1.3193    3.2407    0.6104 C   0  0  1  0  0  0  0  0  0  0  0  0
   -0.6826    1.9176    0.0029 C   0  0  2  0  0  0  0  0  0  0  0  0
   -3.2282   -1.1366   -0.4932 C   0  0  0  0  0  0  0  0  0  0  0  0
   -0.6272    2.2702   -1.5781 C   0  0  0  0  0  0  0  0  0  0  0  0
   -1.9066   -2.7434    2.0902 C   0  0  0  0  0  0  0  0  0  0  0  0
   -2.2173   -3.3832    1.2487 H   0  0  0  0  0  0  0  0  0  0  0  0
   -1.8290   -3.2776    3.3835 C   0  0  0  0  0  0  0  0  0  0  0  0
   -2.0791   -4.3353    3.5538 H   0  0  0  0  0  0  0  0  0  0  0  0
   -1.1314   -1.1102    4.2428 C   0  0  0  0  0  0  0  0  0  0  0  0
   -0.8380   -0.4684    5.0871 H   0  0  0  0  0  0  0  0  0  0  0  0
   -1.2050   -0.5680    2.9503 C   0  0  0  0  0  0  0  0  0  0  0  0
   -0.9723    0.4920    2.7778 H   0  0  0  0  0  0  0  0  0  0  0  0
    2.1313   -0.1767    1.3630 C   0  0  0  0  0  0  0  0  0  0  0  0
   -1.4158    1.2812   -2.4403 C   0  0  0  0  0  0  0  0  0  0  0  0
   -2.4370    1.0926   -2.0656 H   0  0  0  0  0  0  0  0  0  0  0  0
   -0.8941    0.3027   -2.4971 H   0  0  0  0  0  0  0  0  0  0  0  0
   -1.4975    1.6741   -3.4742 H   0  0  0  0  0  0  0  0  0  0  0  0
   -1.5926   -1.3854    1.8708 C   0  0  0  0  0  0  0  0  0  0  0  0
    2.7613    2.1313    1.7846 C   0  0  0  0  0  0  0  0  0  0  0  0
    2.9993    0.7556    1.9397 C   0  0  0  0  0  0  0  0  0  0  0  0
    3.8697    0.3964    2.5072 H   0  0  0  0  0  0  0  0  0  0  0  0
   -4.3649   -0.8346    0.2888 C   0  0  0  0  0  0  0  0  0  0  0  0
   -4.2444   -0.4182    1.3007 H   0  0  0  0  0  0  0  0  0  0  0  0
    1.5691    2.5059    1.1413 C   0  0  0  0  0  0  0  0  0  0  0  0
    1.3161    3.5688    1.0822 H   0  0  0  0  0  0  0  0  0  0  0  0
   -1.2539    3.3909    2.1282 C   0  0  0  0  0  0  0  0  0  0  0  0
   -0.2368    3.3262    2.5555 H   0  0  0  0  0  0  0  0  0  0  0  0
   -1.8735    2.6088    2.6121 H   0  0  0  0  0  0  0  0  0  0  0  0
   -1.6788    4.3706    2.4241 H   0  0  0  0  0  0  0  0  0  0  0  0
   -1.4385   -2.4629    4.4603 C   0  0  0  0  0  0  0  0  0  0  0  0
   -1.3804   -2.8843    5.4750 H   0  0  0  0  0  0  0  0  0  0  0  0
    0.8159    2.3155   -2.1107 C   0  0  0  0  0  0  0  0  0  0  0  0
    0.8040    2.5583   -3.1920 H   0  0  0  0  0  0  0  0  0  0  0  0
    1.3165    1.3350   -1.9886 H   0  0  0  0  0  0  0  0  0  0  0  0
    1.4428    3.0735   -1.6045 H   0  0  0  0  0  0  0  0  0  0  0  0
   -3.3812   -1.6809   -1.7829 C   0  0  0  0  0  0  0  0  0  0  0  0
   -2.4909   -1.9097   -2.3861 H   0  0  0  0  0  0  0  0  0  0  0  0
   -0.7187    4.3345   -0.3083 C   0  0  0  0  0  0  0  0  0  0  0  0
    0.3798    4.4515   -0.2741 H   0  0  0  0  0  0  0  0  0  0  0  0
   -1.1669    5.3265   -0.0987 H   0  0  0  0  0  0  0  0  0  0  0  0
   -4.6659   -1.9267   -2.2897 C   0  0  0  0  0  0  0  0  0  0  0  0
   -4.7860   -2.3571   -3.2949 H   0  0  0  0  0  0  0  0  0  0  0  0
   -2.8104    3.2980    0.1375 C   0  0  0  0  0  0  0  0  0  0  0  0
   -3.3313    2.3430    0.3254 H   0  0  0  0  0  0  0  0  0  0  0  0
   -3.3250    4.0743    0.7372 H   0  0  0  0  0  0  0  0  0  0  0  0
   -1.2302    3.7141   -1.6194 C   0  0  2  0  0  0  0  0  0  0  0  0
   -0.9397    4.2423   -2.5487 H   0  0  0  0  0  0  0  0  0  0  0  0
    3.7279    3.1541    2.3082 C   0  0  0  0  0  0  0  0  0  0  0  0
    4.0734    2.8989    3.3296 H   0  0  0  0  0  0  0  0  0  0  0  0
    3.2911    4.1701    2.3253 H   0  0  0  0  0  0  0  0  0  0  0  0
    4.6328    3.1847    1.6643 H   0  0  0  0  0  0  0  0  0  0  0  0
   -5.6448   -1.0743   -0.2276 C   0  0  0  0  0  0  0  0  0  0  0  0
   -6.5321   -0.8387    0.3789 H   0  0  0  0  0  0  0  0  0  0  0  0
   -2.7453    3.6891   -1.3601 C   0  0  0  0  0  0  0  0  0  0  0  0
   -3.2950    2.9941   -2.0209 H   0  0  0  0  0  0  0  0  0  0  0  0
   -3.1706    4.6968   -1.5353 H   0  0  0  0  0  0  0  0  0  0  0  0
    2.2886   -1.6464    1.6221 C   0  0  0  0  0  0  0  0  0  0  0  0
    2.0186   -2.2536    0.7364 H   0  0  0  0  0  0  0  0  0  0  0  0
    1.5882   -1.9400    2.4343 H   0  0  0  0  0  0  0  0  0  0  0  0
    3.3183   -1.8966    1.9334 H   0  0  0  0  0  0  0  0  0  0  0  0
   -5.7953   -1.6207   -1.5141 C   0  0  0  0  0  0  0  0  0  0  0  0
   -6.8027   -1.8124   -1.9130 H   0  0  0  0  0  0  0  0  0  0  0  0
  1  2  1  0  0  0  0
  1 22  1  0  0  0  0
  3 17  1  0  0  0  0
  4  3  1  1  0  0  0
  4 28  1  0  0  0  0
  5 30  1  1  0  0  0
  6  2  1  1  0  0  0
  6  4  1  0  0  0  0
  6  5  1  0  0  0  0
  7  1  1  0  0  0  0
  7 26  1  0  0  0  0
  8  6  1  0  0  0  0
  9 11  1  0  0  0  0
 10  9  1  0  0  0  0
 11 12  1  0  0  0  0
 11 34  2  0  0  0  0
 13 34  1  0  0  0  0
 13 14  1  0  0  0  0
 15 13  2  0  0  0  0
 16 15  1  0  0  0  0
 17 61  1  0  0  0  0
 17 24  2  0  0  0  0
 18 19  1  0  0  0  0
 18  8  1  0  0  0  0
 20 18  1  0  0  0  0
 21 18  1  0  0  0  0
 22  9  2  0  0  0  0
 22 15  1  0  0  0  0
 23 24  1  0  0  0  0
 23 52  1  0  0  0  0
 24 25  1  0  0  0  0
 26 27  1  0  0  0  0
 28 23  2  0  0  0  0
 29 28  1  0  0  0  0
 30 33  1  0  0  0  0
 30 31  1  0  0  0  0
 30 32  1  0  0  0  0
 34 35  1  0  0  0  0
 36 38  1  0  0  0  0
 36 39  1  0  0  0  0
 36  8  1  0  0  0  0
 37 36  1  0  0  0  0
 40  7  2  0  0  0  0
 41 40  1  0  0  0  0
 42 43  1  0  0  0  0
 42 44  1  0  0  0  0
 42  5  1  0  0  0  0
 45 40  1  0  0  0  0
 45 65  2  0  0  0  0
 46 45  1  0  0  0  0
 47 48  1  0  0  0  0
 47  5  1  0  0  0  0
 47 49  1  0  0  0  0
 50 51  1  6  0  0  0
 50  8  1  0  0  0  0
 50 58  1  0  0  0  0
 50 42  1  0  0  0  0
 52 54  1  0  0  0  0
 52 53  1  0  0  0  0
 55 52  1  0  0  0  0
 56 26  2  0  0  0  0
 56 57  1  0  0  0  0
 58 47  1  0  0  0  0
 59 58  1  0  0  0  0
 60 58  1  0  0  0  0
 61 64  1  0  0  0  0
 61 63  1  0  0  0  0
 62 61  1  0  0  0  0
 65 56  1  0  0  0  0
 66 65  1  0  0  0  0
M  END
