1
 OpenBabel05122313063D

 11 11  0  0  0  0  0  0  0  0999 V2000
   -1.0208    0.5259    0.1416 N   0  0  0  0  0  2  0  0  0  0  0  0
   -3.7008    1.3511   -0.0061 N   0  0  0  0  0  0  0  0  0  0  0  0
   -5.2515   -1.7528   -0.0091 N   0  0  0  0  0  0  0  0  0  0  0  0
   -2.0140   -0.3816    0.0948 C   0  0  0  0  0  3  0  0  0  0  0  0
   -1.7333   -1.4444    0.0630 H   0  0  0  0  0  0  0  0  0  0  0  0
   -3.3578    0.0481    0.0297 C   0  0  0  0  0  0  0  0  0  0  0  0
   -2.6931    2.2275    0.0157 C   0  0  0  0  0  0  0  0  0  0  0  0
   -2.9505    3.2989   -0.0288 H   0  0  0  0  0  0  0  0  0  0  0  0
   -1.3458    1.8346    0.0893 C   0  0  0  0  0  0  0  0  0  0  0  0
   -0.5153    2.5550    0.0585 H   0  0  0  0  0  0  0  0  0  0  0  0
   -4.4118   -0.9345    0.0040 C   0  0  0  0  0  0  0  0  0  0  0  0
  2  7  1  0  0  0  0
  2  6  2  0  0  0  0
  3 11  3  0  0  0  0
  4  1  1  0  0  0  0
  5  4  1  0  0  0  0
  6  4  1  0  0  0  0
  7  9  2  0  0  0  0
  8  7  1  0  0  0  0
  9  1  1  0  0  0  0
 10  9  1  0  0  0  0
 11  6  1  0  0  0  0
M  END
