20
 OpenBabel05122313063D

 20 21  0  0  1  0  0  0  0  0999 V2000
    3.7301    0.3242   -0.1126 C   0  0  0  0  0  0  0  0  0  0  0  0
    2.9562    1.1100    0.0049 H   0  0  0  0  0  0  0  0  0  0  0  0
    5.0990    0.6898   -0.2203 C   0  0  0  0  0  0  0  0  0  0  0  0
    5.5087    2.0533   -0.1921 C   0  0  0  0  0  0  0  0  0  0  0  0
    4.7390    2.8324   -0.0805 H   0  0  0  0  0  0  0  0  0  0  0  0
    6.8547    2.3693   -0.3013 C   0  0  0  0  0  0  0  0  0  0  0  0
    7.1798    3.4201   -0.2796 H   0  0  0  0  0  0  0  0  0  0  0  0
    7.8240    1.3371   -0.4411 C   0  0  0  0  0  0  0  0  0  0  0  0
    8.8882    1.6054   -0.5268 H   0  0  0  0  0  0  0  0  0  0  0  0
    7.4478    0.0007   -0.4696 C   0  0  0  0  0  0  0  0  0  0  0  0
    8.2027   -0.7934   -0.5765 H   0  0  0  0  0  0  0  0  0  0  0  0
    6.0738   -0.3556   -0.3587 C   0  0  1  0  0  3  0  0  0  0  0  0
    5.5942   -1.6958   -0.3733 C   0  0  0  0  0  0  0  0  0  0  0  0
    6.3082   -2.5266   -0.4766 H   0  0  0  0  0  0  0  0  0  0  0  0
    4.2380   -1.9686   -0.2575 C   0  0  0  0  0  0  0  0  0  0  0  0
    3.6906   -3.3659   -0.2649 C   0  0  0  0  0  0  0  0  0  0  0  0
    3.1281   -3.5664    0.6711 H   0  0  0  0  0  0  0  0  0  0  0  0
    4.4942   -4.1192   -0.3657 H   0  0  0  0  0  0  0  0  0  0  0  0
    2.9717   -3.4969   -1.1007 H   0  0  0  0  0  0  0  0  0  0  0  0
    3.3210   -0.9454   -0.1283 N   0  0  0  0  0  2  0  0  0  0  0  0
  1  2  1  0  0  0  0
  3  4  1  0  0  0  0
  3  1  2  0  0  0  0
  4  5  1  0  0  0  0
  6  7  1  0  0  0  0
  6  4  2  0  0  0  0
  8  6  1  0  0  0  0
  9  8  1  0  0  0  0
 10  8  2  0  0  0  0
 11 10  1  0  0  0  0
 12 10  1  1  0  0  0
 12  3  1  0  0  0  0
 13 12  1  0  0  0  0
 13 15  2  0  0  0  0
 14 13  1  0  0  0  0
 15 20  1  0  0  0  0
 16 15  1  0  0  0  0
 16 17  1  0  0  0  0
 18 16  1  0  0  0  0
 19 16  1  0  0  0  0
 20  1  1  0  0  0  0
M  END
