1
 OpenBabel05122313063D

 16 16  0  0  0  0  0  0  0  0999 V2000
   -1.1561    0.7809   -1.8123 N   0  0  0  0  0  0  0  0  0  0  0  0
   -2.1015    1.1133   -1.5564 H   0  0  0  0  0  0  0  0  0  0  0  0
   -0.8369    1.3916   -2.5805 H   0  0  0  0  0  0  0  0  0  0  0  0
   -1.2842   -0.5552   -2.3154 N   0  0  0  0  0  0  0  0  0  0  0  0
   -0.4726   -1.0921   -1.9876 H   0  0  0  0  0  0  0  0  0  0  0  0
   -2.5050   -1.2103   -2.0660 C   0  0  0  0  0  0  0  0  0  0  0  0
   -3.7401   -0.5281   -2.1232 C   0  0  0  0  0  0  0  0  0  0  0  0
   -4.9367   -1.2162   -1.8749 C   0  0  0  0  0  0  0  0  0  0  0  0
   -4.9279   -2.5906   -1.5968 C   0  0  0  0  0  0  0  0  0  0  0  0
   -3.7012   -3.2753   -1.5651 C   0  0  0  0  0  0  0  0  0  0  0  0
   -2.4983   -2.5946   -1.7856 C   0  0  0  0  0  0  0  0  0  0  0  0
   -3.7867    0.5393   -2.3929 H   0  0  0  0  0  0  0  0  0  0  0  0
   -5.8892   -0.6673   -1.9176 H   0  0  0  0  0  0  0  0  0  0  0  0
   -5.8699   -3.1272   -1.4142 H   0  0  0  0  0  0  0  0  0  0  0  0
   -3.6774   -4.3552   -1.3546 H   0  0  0  0  0  0  0  0  0  0  0  0
   -1.5386   -3.1336   -1.7396 H   0  0  0  0  0  0  0  0  0  0  0  0
  1  2  1  0  0  0  0
  3  1  1  0  0  0  0
  4  6  1  0  0  0  0
  4  5  1  0  0  0  0
  4  1  1  0  0  0  0
  6 11  1  0  0  0  0
  7  6  2  0  0  0  0
  7  8  1  0  0  0  0
  8  9  2  0  0  0  0
  9 10  1  0  0  0  0
  9 14  1  0  0  0  0
 10 15  1  0  0  0  0
 11 16  1  0  0  0  0
 11 10  2  0  0  0  0
 12  7  1  0  0  0  0
 13  8  1  0  0  0  0
M  END
