2
 OpenBabel05122313063D

 25 26  0  0  1  0  0  0  0  0999 V2000
   -1.5890   -0.6728   -1.0640 O   0  0  0  0  0  0  0  0  0  0  0  0
   -0.9992    1.6182    0.0507 N   0  0  0  0  0  2  0  0  0  0  0  0
   -0.5526    2.7726    0.6069 C   0  0  0  0  0  3  0  0  0  0  0  0
   -2.6493    3.8878    0.1675 C   0  0  0  0  0  0  0  0  0  0  0  0
   -2.2585    1.5852   -0.4639 C   0  0  0  0  0  0  0  0  0  0  0  0
   -3.1065    2.6975   -0.4139 C   0  0  0  0  0  0  0  0  0  0  0  0
   -1.3425    3.9196    0.6822 C   0  0  0  0  0  0  0  0  0  0  0  0
   -3.9289   -0.3248   -0.4767 C   0  0  0  0  0  0  0  0  0  0  0  0
   -2.6885    0.2764   -1.1041 C   0  0  2  0  0  0  0  0  0  0  0  0
   -5.0583   -0.5904   -1.2727 C   0  0  0  0  0  0  0  0  0  0  0  0
   -6.2476   -1.4417    0.6657 C   0  0  0  0  0  0  0  0  0  0  0  0
   -3.9655   -0.6202    0.9011 C   0  0  0  0  0  0  0  0  0  0  0  0
   -5.1197   -1.1822    1.4631 C   0  0  0  0  0  0  0  0  0  0  0  0
   -6.2169   -1.1433   -0.7047 C   0  0  0  0  0  0  0  0  0  0  0  0
   -4.1237    2.6153   -0.8248 H   0  0  0  0  0  0  0  0  0  0  0  0
   -7.0956   -1.3446   -1.3361 H   0  0  0  0  0  0  0  0  0  0  0  0
   -1.0226   -0.4835   -1.8851 H   0  0  0  0  0  0  0  0  0  0  0  0
   -0.9314    4.8292    1.1428 H   0  0  0  0  0  0  0  0  0  0  0  0
   -7.1532   -1.8780    1.1146 H   0  0  0  0  0  0  0  0  0  0  0  0
   -5.1387   -1.4176    2.5382 H   0  0  0  0  0  0  0  0  0  0  0  0
   -3.2993    4.7734    0.2177 H   0  0  0  0  0  0  0  0  0  0  0  0
   -5.0291   -0.3632   -2.3508 H   0  0  0  0  0  0  0  0  0  0  0  0
    0.4785    2.7471    0.9882 H   0  0  0  0  0  0  0  0  0  0  0  0
   -3.0796   -0.4221    1.5270 H   0  0  0  0  0  0  0  0  0  0  0  0
   -2.9109    0.4793   -2.1747 H   0  0  0  0  0  0  0  0  0  0  0  0
  2  3  1  0  0  0  0
  3  7  1  0  0  0  0
  3 23  1  0  0  0  0
  4 21  1  0  0  0  0
  4  7  2  0  0  0  0
  5  6  2  0  0  0  0
  5  2  1  0  0  0  0
  6  4  1  0  0  0  0
  7 18  1  0  0  0  0
  8 12  1  0  0  0  0
  9 25  1  6  0  0  0
  9  1  1  0  0  0  0
  9  8  1  0  0  0  0
  9  5  1  0  0  0  0
 10 14  1  0  0  0  0
 10  8  2  0  0  0  0
 11 19  1  0  0  0  0
 11 13  1  0  0  0  0
 12 13  2  0  0  0  0
 12 24  1  0  0  0  0
 13 20  1  0  0  0  0
 14 11  2  0  0  0  0
 15  6  1  0  0  0  0
 16 14  1  0  0  0  0
 17  1  1  0  0  0  0
 22 10  1  0  0  0  0
M  END
