1
 OpenBabel05122313063D

 23 23  0  0  1  0  0  0  0  0999 V2000
    1.9184    0.6452   -0.0001 N   0  0  0  0  0  2  0  0  0  0  0  0
    2.5598   -0.1610   -0.0001 H   0  0  0  0  0  0  0  0  0  0  0  0
    1.8842    2.9738   -0.0008 N   0  0  0  0  0  0  0  0  0  0  0  0
    0.8459    2.9004   -0.0003 H   0  0  0  0  0  0  0  0  0  0  0  0
    2.5454    1.7988   -0.0004 C   0  0  2  0  0  3  0  0  0  0  0  0
    2.4928    4.2819   -0.0002 C   0  0  0  0  0  0  0  0  0  0  0  0
    3.1227    4.4670    0.8984 H   0  0  0  0  0  0  0  0  0  0  0  0
    1.6879    5.0402   -0.0016 H   0  0  0  0  0  0  0  0  0  0  0  0
    3.1254    4.4665   -0.8969 H   0  0  0  0  0  0  0  0  0  0  0  0
    4.0696    1.8493   -0.0006 C   0  0  0  0  0  0  0  0  0  0  0  0
    4.3936    2.4359   -0.8869 H   0  0  0  0  0  0  0  0  0  0  0  0
    4.3937    2.4365    0.8854 H   0  0  0  0  0  0  0  0  0  0  0  0
    4.7304    0.4928   -0.0002 C   0  0  0  0  0  0  0  0  0  0  0  0
    5.0120   -0.1680   -1.2127 C   0  0  0  0  0  0  0  0  0  0  0  0
    4.7843    0.3328   -2.1669 H   0  0  0  0  0  0  0  0  0  0  0  0
    5.5641   -1.4570   -1.2135 C   0  0  0  0  0  0  0  0  0  0  0  0
    5.7750   -1.9609   -2.1688 H   0  0  0  0  0  0  0  0  0  0  0  0
    5.8404   -2.1047    0.0006 C   0  0  0  0  0  0  0  0  0  0  0  0
    6.2690   -3.1182    0.0008 H   0  0  0  0  0  0  0  0  0  0  0  0
    5.5618   -1.4574    1.2143 C   0  0  0  0  0  0  0  0  0  0  0  0
    5.7708   -1.9615    2.1698 H   0  0  0  0  0  0  0  0  0  0  0  0
    5.0097   -0.1683    1.2128 C   0  0  0  0  0  0  0  0  0  0  0  0
    4.7802    0.3322    2.1667 H   0  0  0  0  0  0  0  0  0  0  0  0
  2  1  1  0  0  0  0
  3  5  1  0  0  0  0
  3  4  1  0  0  0  0
  3  6  1  0  0  0  0
  5  1  1  6  0  0  0
  6  7  1  0  0  0  0
  8  6  1  0  0  0  0
  9  6  1  0  0  0  0
 10  5  1  0  0  0  0
 10 13  1  0  0  0  0
 10 12  1  0  0  0  0
 11 10  1  0  0  0  0
 13 22  1  0  0  0  0
 14 13  2  0  0  0  0
 15 14  1  0  0  0  0
 16 14  1  0  0  0  0
 16 18  2  0  0  0  0
 17 16  1  0  0  0  0
 18 19  1  0  0  0  0
 18 20  1  0  0  0  0
 20 21  1  0  0  0  0
 22 20  2  0  0  0  0
 22 23  1  0  0  0  0
M  END
