1
 OpenBabel05122313063D

 30 34  0  0  0  0  0  0  0  0999 V2000
   -0.3904   -1.1105   -0.2493 N   0  0  0  0  0  2  0  0  0  0  0  0
    5.8068   -2.3547    0.6717 O   0  0  0  0  0  0  0  0  0  0  0  0
    5.6463   -0.0979    0.2183 O   0  0  0  0  0  0  0  0  0  0  0  0
   -0.4685    1.4769   -1.3659 O   0  0  0  0  0  0  0  0  0  0  0  0
   -0.2700   -2.4457    0.0017 C   0  0  0  0  0  3  0  0  0  0  0  0
   -1.2130   -3.0089    0.0046 H   0  0  0  0  0  0  0  0  0  0  0  0
    0.9570   -3.0463    0.2139 C   0  0  0  0  0  0  0  0  0  0  0  0
    1.0012   -4.1267    0.4118 H   0  0  0  0  0  0  0  0  0  0  0  0
    2.1439   -2.2758    0.2049 C   0  0  0  0  0  0  0  0  0  0  0  0
    3.4137   -2.8712    0.4762 C   0  0  0  0  0  0  0  0  0  0  0  0
    3.5055   -3.9415    0.7008 H   0  0  0  0  0  0  0  0  0  0  0  0
    4.5033   -2.0356    0.4427 C   0  0  0  0  0  0  0  0  0  0  0  0
    6.5657   -1.1584    0.5049 C   0  0  0  0  0  0  0  0  0  0  0  0
    7.1169   -0.9267    1.4429 H   0  0  0  0  0  0  0  0  0  0  0  0
    7.2732   -1.2747   -0.3471 H   0  0  0  0  0  0  0  0  0  0  0  0
    4.3960   -0.6446    0.1590 C   0  0  0  0  0  0  0  0  0  0  0  0
    3.1887   -0.0060   -0.1177 C   0  0  0  0  0  0  0  0  0  0  0  0
    3.0519    1.4258   -0.4004 C   0  0  0  0  0  0  0  0  0  0  0  0
    4.1394    2.3326   -0.3411 C   0  0  0  0  0  0  0  0  0  0  0  0
    5.1348    1.9721   -0.0598 H   0  0  0  0  0  0  0  0  0  0  0  0
    3.9599    3.6874   -0.6360 C   0  0  0  0  0  0  0  0  0  0  0  0
    4.8210    4.3703   -0.5760 H   0  0  0  0  0  0  0  0  0  0  0  0
    2.6959    4.1787   -1.0110 C   0  0  0  0  0  0  0  0  0  0  0  0
    2.5613    5.2445   -1.2484 H   0  0  0  0  0  0  0  0  0  0  0  0
    1.6157    3.2985   -1.0805 C   0  0  0  0  0  0  0  0  0  0  0  0
    0.6130    3.6352   -1.3807 H   0  0  0  0  0  0  0  0  0  0  0  0
    1.7765    1.9340   -0.7676 C   0  0  0  0  0  0  0  0  0  0  0  0
    0.5785    1.0652   -0.8587 C   0  0  0  0  0  0  0  0  0  0  0  0
    0.7229   -0.3438   -0.3653 C   0  0  0  0  0  0  0  0  0  0  0  0
    2.0231   -0.8690   -0.0963 C   0  0  0  0  0  0  0  0  0  0  0  0
  1  5  1  0  0  0  0
  3 13  1  0  0  0  0
  4 28  2  0  0  0  0
  5  6  1  0  0  0  0
  5  7  1  0  0  0  0
  7  8  1  0  0  0  0
  9  7  2  0  0  0  0
  9 10  1  0  0  0  0
 10 11  1  0  0  0  0
 12 10  2  0  0  0  0
 12  2  1  0  0  0  0
 13  2  1  0  0  0  0
 13 14  1  0  0  0  0
 15 13  1  0  0  0  0
 16  3  1  0  0  0  0
 16 12  1  0  0  0  0
 17 30  1  0  0  0  0
 17 16  2  0  0  0  0
 18 19  1  0  0  0  0
 18 17  1  0  0  0  0
 19 20  1  0  0  0  0
 21 22  1  0  0  0  0
 21 19  2  0  0  0  0
 23 21  1  0  0  0  0
 24 23  1  0  0  0  0
 25 23  2  0  0  0  0
 25 27  1  0  0  0  0
 26 25  1  0  0  0  0
 27 18  2  0  0  0  0
 28 27  1  0  0  0  0
 28 29  1  0  0  0  0
 29  1  1  0  0  0  0
 29 30  2  0  0  0  0
 30  9  1  0  0  0  0
M  END
