1
 OpenBabel05122313063D

 46 50  0  0  0  0  0  0  0  0999 V2000
    3.1037    1.0305   -0.3907 N   0  0  0  0  0  2  0  0  0  0  0  0
    0.4728    0.1583   -0.7260 N   0  0  0  0  0  0  0  0  0  0  0  0
    4.4007    1.3734   -0.5327 C   0  0  0  0  0  3  0  0  0  0  0  0
    5.1339    0.5865   -0.3059 H   0  0  0  0  0  0  0  0  0  0  0  0
    4.7842    2.6471   -0.9578 C   0  0  0  0  0  0  0  0  0  0  0  0
    5.8515    2.8891   -1.0521 H   0  0  0  0  0  0  0  0  0  0  0  0
    3.7824    3.5806   -1.2583 C   0  0  0  0  0  0  0  0  0  0  0  0
    4.0427    4.5919   -1.6044 H   0  0  0  0  0  0  0  0  0  0  0  0
    2.4430    3.2029   -1.1330 C   0  0  0  0  0  0  0  0  0  0  0  0
    1.6376    3.8980   -1.4043 H   0  0  0  0  0  0  0  0  0  0  0  0
    2.1069    1.9059   -0.6950 C   0  0  0  0  0  0  0  0  0  0  0  0
    0.6914    1.4606   -0.5908 C   0  0  0  0  0  0  0  0  0  0  0  0
   -0.3556    2.3902   -0.3342 C   0  0  0  0  0  0  0  0  0  0  0  0
   -0.1339    3.4522   -0.1589 H   0  0  0  0  0  0  0  0  0  0  0  0
   -1.6680    1.9404   -0.2035 C   0  0  0  0  0  0  0  0  0  0  0  0
   -1.9241    0.5337   -0.3674 C   0  0  0  0  0  0  0  0  0  0  0  0
   -0.7872   -0.3242   -0.6062 C   0  0  0  0  0  0  0  0  0  0  0  0
   -0.9869   -1.7329   -0.7135 C   0  0  0  0  0  0  0  0  0  0  0  0
   -0.0979   -2.3697   -0.8284 H   0  0  0  0  0  0  0  0  0  0  0  0
   -2.2595   -2.2639   -0.6290 C   0  0  0  0  0  0  0  0  0  0  0  0
   -2.3938   -3.3545   -0.6760 H   0  0  0  0  0  0  0  0  0  0  0  0
   -3.4089   -1.4268   -0.4554 C   0  0  0  0  0  0  0  0  0  0  0  0
   -3.2189   -0.0472   -0.3282 C   0  0  0  0  0  0  0  0  0  0  0  0
   -4.0917    0.6127   -0.2302 H   0  0  0  0  0  0  0  0  0  0  0  0
   -4.7700   -2.0140   -0.4098 C   0  0  0  0  0  0  0  0  0  0  0  0
   -5.7881   -1.4302    0.3801 C   0  0  0  0  0  0  0  0  0  0  0  0
   -5.5572   -0.5469    0.9942 H   0  0  0  0  0  0  0  0  0  0  0  0
   -7.0749   -1.9815    0.4191 C   0  0  0  0  0  0  0  0  0  0  0  0
   -7.8479   -1.5165    1.0496 H   0  0  0  0  0  0  0  0  0  0  0  0
   -7.3756   -3.1297   -0.3315 C   0  0  0  0  0  0  0  0  0  0  0  0
   -8.3863   -3.5637   -0.2997 H   0  0  0  0  0  0  0  0  0  0  0  0
   -6.3763   -3.7216   -1.1199 C   0  0  0  0  0  0  0  0  0  0  0  0
   -6.6031   -4.6175   -1.7175 H   0  0  0  0  0  0  0  0  0  0  0  0
   -5.0880   -3.1719   -1.1567 C   0  0  0  0  0  0  0  0  0  0  0  0
   -4.3213   -3.6321   -1.7977 H   0  0  0  0  0  0  0  0  0  0  0  0
   -2.7472    2.9047    0.1300 C   0  0  0  0  0  0  0  0  0  0  0  0
   -2.9246    4.0718   -0.6443 C   0  0  0  0  0  0  0  0  0  0  0  0
   -2.2829    4.2352   -1.5237 H   0  0  0  0  0  0  0  0  0  0  0  0
   -3.9232    5.0008   -0.3191 C   0  0  0  0  0  0  0  0  0  0  0  0
   -4.0566    5.8992   -0.9406 H   0  0  0  0  0  0  0  0  0  0  0  0
   -4.7537    4.7830    0.7913 C   0  0  0  0  0  0  0  0  0  0  0  0
   -5.5366    5.5126    1.0475 H   0  0  0  0  0  0  0  0  0  0  0  0
   -4.5786    3.6317    1.5762 C   0  0  0  0  0  0  0  0  0  0  0  0
   -5.2159    3.4625    2.4573 H   0  0  0  0  0  0  0  0  0  0  0  0
   -3.5864    2.6977    1.2485 C   0  0  0  0  0  0  0  0  0  0  0  0
   -3.4355    1.8087    1.8789 H   0  0  0  0  0  0  0  0  0  0  0  0
  2 17  2  0  0  0  0
  2 12  1  0  0  0  0
  3  1  1  0  0  0  0
  3  4  1  0  0  0  0
  5  3  1  0  0  0  0
  6  5  1  0  0  0  0
  7  9  1  0  0  0  0
  7  5  2  0  0  0  0
  8  7  1  0  0  0  0
  9 11  2  0  0  0  0
 10  9  1  0  0  0  0
 11 12  1  0  0  0  0
 11  1  1  0  0  0  0
 12 13  2  0  0  0  0
 13 15  1  0  0  0  0
 13 14  1  0  0  0  0
 15 36  1  0  0  0  0
 16 23  1  0  0  0  0
 16 15  2  0  0  0  0
 17 16  1  0  0  0  0
 18 20  2  0  0  0  0
 18 17  1  0  0  0  0
 19 18  1  0  0  0  0
 20 22  1  0  0  0  0
 21 20  1  0  0  0  0
 22 25  1  0  0  0  0
 22 23  2  0  0  0  0
 23 24  1  0  0  0  0
 25 26  1  0  0  0  0
 26 28  2  0  0  0  0
 26 27  1  0  0  0  0
 28 29  1  0  0  0  0
 30 31  1  0  0  0  0
 30 28  1  0  0  0  0
 32 30  2  0  0  0  0
 33 32  1  0  0  0  0
 34 32  1  0  0  0  0
 34 25  2  0  0  0  0
 35 34  1  0  0  0  0
 36 45  1  0  0  0  0
 37 39  1  0  0  0  0
 37 36  2  0  0  0  0
 38 37  1  0  0  0  0
 39 41  2  0  0  0  0
 40 39  1  0  0  0  0
 41 42  1  0  0  0  0
 41 43  1  0  0  0  0
 43 44  1  0  0  0  0
 45 43  2  0  0  0  0
 45 46  1  0  0  0  0
M  END
