3
 OpenBabel05122313063D

 21 20  0  0  1  0  0  0  0  0999 V2000
   -1.1989    2.5718   -0.3977 O   0  0  0  0  0  1  0  0  0  0  0  0
   -1.7883   -1.1787    0.4624 O   0  0  0  0  0  0  0  0  0  0  0  0
   -1.4697    1.3094   -0.1957 N   0  0  0  0  0  2  0  0  0  0  0  0
   -2.7176    0.9237   -0.1801 C   0  0  2  0  0  3  0  0  0  0  0  0
   -3.0362   -0.5452    0.0097 C   0  0  0  0  0  0  0  0  0  0  0  0
   -3.7861    1.9436   -0.4188 C   0  0  0  0  0  0  0  0  0  0  0  0
   -4.0652   -0.7382    1.1329 C   0  0  0  0  0  0  0  0  0  0  0  0
   -1.7118   -2.5956    0.3313 C   0  0  0  0  0  0  0  0  0  0  0  0
   -4.7893    1.4873   -0.4959 H   0  0  0  0  0  0  0  0  0  0  0  0
   -3.7938    2.6925    0.4013 H   0  0  0  0  0  0  0  0  0  0  0  0
   -4.2694   -1.8151    1.2955 H   0  0  0  0  0  0  0  0  0  0  0  0
   -5.0286   -0.2587    0.8746 H   0  0  0  0  0  0  0  0  0  0  0  0
   -3.6801   -0.2994    2.0730 H   0  0  0  0  0  0  0  0  0  0  0  0
   -2.6951   -3.0627    0.5372 H   0  0  0  0  0  0  0  0  0  0  0  0
   -1.0031   -2.9449    1.1032 H   0  0  0  0  0  0  0  0  0  0  0  0
   -3.4982   -1.1290   -1.3364 C   0  0  0  0  0  0  0  0  0  0  0  0
   -3.5656    2.5084   -1.3479 H   0  0  0  0  0  0  0  0  0  0  0  0
   -1.3526   -2.8788   -0.6798 H   0  0  0  0  0  0  0  0  0  0  0  0
   -3.8583   -2.1715   -1.2341 H   0  0  0  0  0  0  0  0  0  0  0  0
   -4.3384   -0.5269   -1.7327 H   0  0  0  0  0  0  0  0  0  0  0  0
   -2.6571   -1.0886   -2.0561 H   0  0  0  0  0  0  0  0  0  0  0  0
  1  3  1  0  0  0  0
  4  3  1  6  0  0  0
  4  5  1  0  0  0  0
  5  2  1  0  0  0  0
  5  7  1  0  0  0  0
  6  4  1  0  0  0  0
  6 10  1  0  0  0  0
  7 11  1  0  0  0  0
  7 13  1  0  0  0  0
  8  2  1  0  0  0  0
  8 14  1  0  0  0  0
  8 15  1  0  0  0  0
  9  6  1  0  0  0  0
 12  7  1  0  0  0  0
 16 19  1  0  0  0  0
 16  5  1  0  0  0  0
 17  6  1  0  0  0  0
 18  8  1  0  0  0  0
 20 16  1  0  0  0  0
 21 16  1  0  0  0  0
M  END
