3
 OpenBabel05122313063D

 22 21  0  0  1  0  0  0  0  0999 V2000
    1.1993    2.5719   -0.3972 O   0  0  0  0  0  0  0  0  0  0  0  0
    1.7884   -1.1787    0.4628 O   0  0  0  0  0  0  0  0  0  0  0  0
    1.4698    1.3093   -0.1954 N   0  0  0  0  0  2  0  0  0  0  0  0
    2.7178    0.9237   -0.1798 C   0  0  1  0  0  3  0  0  0  0  0  0
    3.0363   -0.5453    0.0097 C   0  0  0  0  0  0  0  0  0  0  0  0
    3.7863    1.9435   -0.4184 C   0  0  0  0  0  0  0  0  0  0  0  0
    4.0657   -0.7386    1.1324 C   0  0  0  0  0  0  0  0  0  0  0  0
    1.7115   -2.5955    0.3313 C   0  0  0  0  0  0  0  0  0  0  0  0
    0.0006    2.6512   -0.4032 H   0  0  0  0  0  0  0  0  0  0  0  0
    3.5658    2.5085   -1.3473 H   0  0  0  0  0  0  0  0  0  0  0  0
    4.7894    1.4872   -0.4955 H   0  0  0  0  0  0  0  0  0  0  0  0
    5.0291   -0.2595    0.8736 H   0  0  0  0  0  0  0  0  0  0  0  0
    3.6813   -0.2996    2.0727 H   0  0  0  0  0  0  0  0  0  0  0  0
    4.2696   -1.8156    1.2950 H   0  0  0  0  0  0  0  0  0  0  0  0
    2.6950   -3.0630    0.5359 H   0  0  0  0  0  0  0  0  0  0  0  0
    1.3512   -2.8783   -0.6794 H   0  0  0  0  0  0  0  0  0  0  0  0
    3.4978   -1.1289   -1.3367 C   0  0  0  0  0  0  0  0  0  0  0  0
    3.7941    2.6923    0.4019 H   0  0  0  0  0  0  0  0  0  0  0  0
    1.0037   -2.9450    1.1040 H   0  0  0  0  0  0  0  0  0  0  0  0
    4.3380   -0.5269   -1.7330 H   0  0  0  0  0  0  0  0  0  0  0  0
    2.6565   -1.0882   -2.0562 H   0  0  0  0  0  0  0  0  0  0  0  0
    3.8576   -2.1715   -1.2346 H   0  0  0  0  0  0  0  0  0  0  0  0
  1  3  1  0  0  0  0
  4  3  1  6  0  0  0
  4  5  1  0  0  0  0
  5  2  1  0  0  0  0
  5  7  1  0  0  0  0
  6  4  1  0  0  0  0
  6 18  1  0  0  0  0
  7 14  1  0  0  0  0
  7 13  1  0  0  0  0
  8  2  1  0  0  0  0
  8 15  1  0  0  0  0
  8 19  1  0  0  0  0
  9  1  1  0  0  0  0
 10  6  1  0  0  0  0
 11  6  1  0  0  0  0
 12  7  1  0  0  0  0
 16  8  1  0  0  0  0
 17 22  1  0  0  0  0
 17  5  1  0  0  0  0
 20 17  1  0  0  0  0
 21 17  1  0  0  0  0
M  END
