45
 OpenBabel05122313063D

 46 48  0  0  1  0  0  0  0  0999 V2000
    2.6565    0.4910   -0.3914 C   0  0  0  0  0  0  0  0  0  0  0  0
    3.5080    1.6086   -0.5846 C   0  0  0  0  0  0  0  0  0  0  0  0
    4.5799    1.4304   -0.7447 H   0  0  0  0  0  0  0  0  0  0  0  0
    2.9951    2.8910   -0.5551 C   0  0  0  0  0  0  0  0  0  0  0  0
    3.6511    3.7644   -0.6914 H   0  0  0  0  0  0  0  0  0  0  0  0
    1.6090    3.0934   -0.3417 C   0  0  0  0  0  0  0  0  0  0  0  0
    1.0432    4.4117   -0.2864 C   0  0  0  0  0  3  0  0  0  0  0  0
    1.7189    5.2706   -0.4128 H   0  0  0  0  0  0  0  0  0  0  0  0
   -0.3006    4.5958   -0.0779 C   0  0  0  0  0  0  0  0  0  0  0  0
   -0.7302    5.6082   -0.0307 H   0  0  0  0  0  0  0  0  0  0  0  0
   -1.1714    3.4685    0.0740 C   0  0  0  0  0  0  0  0  0  0  0  0
   -2.5697    3.6012    0.2811 C   0  0  0  0  0  0  0  0  0  0  0  0
   -3.0083    4.6096    0.3401 H   0  0  0  0  0  0  0  0  0  0  0  0
   -3.3662    2.4728    0.4025 C   0  0  0  0  0  0  0  0  0  0  0  0
   -4.4487    2.5676    0.5636 H   0  0  0  0  0  0  0  0  0  0  0  0
   -2.7698    1.1819    0.3094 C   0  0  0  0  0  0  0  0  0  0  0  0
   -0.6533    2.1327    0.0149 C   0  0  0  0  0  0  0  0  0  0  0  0
    0.7795    1.9379   -0.1795 C   0  0  0  0  0  0  0  0  0  0  0  0
    3.2432   -0.9059   -0.4284 C   0  0  1  0  0  0  0  0  0  0  0  0
    2.4649   -1.5942   -0.0326 H   0  0  0  0  0  0  0  0  0  0  0  0
    3.5339   -1.3116   -1.8851 C   0  0  0  0  0  0  0  0  0  0  0  0
    2.6056   -1.2924   -2.4888 H   0  0  0  0  0  0  0  0  0  0  0  0
    3.9435   -2.3411   -1.9096 H   0  0  0  0  0  0  0  0  0  0  0  0
    4.2813   -0.6359   -2.3507 H   0  0  0  0  0  0  0  0  0  0  0  0
    4.4833   -1.0520    0.4779 C   0  0  0  0  0  0  0  0  0  0  0  0
    4.7992   -2.1148    0.4106 H   0  0  0  0  0  0  0  0  0  0  0  0
    5.3325   -0.4710    0.0517 H   0  0  0  0  0  0  0  0  0  0  0  0
    4.2457   -0.6691    1.9383 C   0  0  0  0  0  0  0  0  0  0  0  0
    5.1376   -0.8870    2.5588 H   0  0  0  0  0  0  0  0  0  0  0  0
    3.3798   -1.2172    2.3605 H   0  0  0  0  0  0  0  0  0  0  0  0
    4.0192    0.4118    2.0472 H   0  0  0  0  0  0  0  0  0  0  0  0
   -3.5705   -0.1022    0.3341 C   0  0  1  0  0  0  0  0  0  0  0  0
   -2.9099   -0.8603    0.8078 H   0  0  0  0  0  0  0  0  0  0  0  0
   -4.8712   -0.0036    1.1366 C   0  0  0  0  0  0  0  0  0  0  0  0
   -5.3242   -1.0058    1.2601 H   0  0  0  0  0  0  0  0  0  0  0  0
   -5.6268    0.6335    0.6297 H   0  0  0  0  0  0  0  0  0  0  0  0
   -4.6962    0.4075    2.1513 H   0  0  0  0  0  0  0  0  0  0  0  0
   -3.7948   -0.5659   -1.1309 C   0  0  0  0  0  0  0  0  0  0  0  0
   -2.8162   -0.5335   -1.6538 H   0  0  0  0  0  0  0  0  0  0  0  0
   -4.4535    0.1748   -1.6394 H   0  0  0  0  0  0  0  0  0  0  0  0
   -4.3732   -1.9750   -1.2515 C   0  0  0  0  0  0  0  0  0  0  0  0
   -4.4674   -2.2658   -2.3170 H   0  0  0  0  0  0  0  0  0  0  0  0
   -5.3799   -2.0633   -0.7940 H   0  0  0  0  0  0  0  0  0  0  0  0
   -3.7003   -2.7081   -0.7627 H   0  0  0  0  0  0  0  0  0  0  0  0
    1.3357    0.6841   -0.2048 N   0  0  0  0  0  2  0  0  0  0  0  0
   -1.4539    1.0580    0.1268 N   0  0  0  0  0  0  0  0  0  0  0  0
  1 45  1  0  0  0  0
  2  4  1  0  0  0  0
  2  1  2  0  0  0  0
  3  2  1  0  0  0  0
  4  6  2  0  0  0  0
  5  4  1  0  0  0  0
  6  7  1  0  0  0  0
  6 18  1  0  0  0  0
  7  9  1  0  0  0  0
  8  7  1  0  0  0  0
  9 10  1  0  0  0  0
  9 11  2  0  0  0  0
 11 12  1  0  0  0  0
 12 13  1  0  0  0  0
 12 14  2  0  0  0  0
 14 15  1  0  0  0  0
 16 32  1  0  0  0  0
 16 14  1  0  0  0  0
 17 11  1  0  0  0  0
 17 46  1  0  0  0  0
 18 17  2  0  0  0  0
 19  1  1  0  0  0  0
 19 20  1  1  0  0  0
 19 25  1  0  0  0  0
 21 19  1  0  0  0  0
 22 21  1  0  0  0  0
 23 21  1  0  0  0  0
 24 21  1  0  0  0  0
 25 28  1  0  0  0  0
 26 25  1  0  0  0  0
 27 25  1  0  0  0  0
 28 31  1  0  0  0  0
 28 30  1  0  0  0  0
 28 29  1  0  0  0  0
 32 33  1  1  0  0  0
 32 34  1  0  0  0  0
 34 35  1  0  0  0  0
 34 37  1  0  0  0  0
 36 34  1  0  0  0  0
 38 32  1  0  0  0  0
 39 38  1  0  0  0  0
 40 38  1  0  0  0  0
 41 38  1  0  0  0  0
 41 43  1  0  0  0  0
 41 44  1  0  0  0  0
 42 41  1  0  0  0  0
 45 18  1  0  0  0  0
 46 16  2  0  0  0  0
M  END
