11
 OpenBabel05122313063D

 22 22  0  0  0  0  0  0  0  0999 V2000
   -2.9876   -0.5307    0.4765 N   0  0  0  0  0  0  0  0  0  0  0  0
   -3.8690   -1.6316    0.8932 C   0  0  0  0  0  0  0  0  0  0  0  0
   -3.3103   -2.2207    1.6445 H   0  0  0  0  0  0  0  0  0  0  0  0
   -4.7465   -1.1737    1.3923 H   0  0  0  0  0  0  0  0  0  0  0  0
   -4.2923   -2.5237   -0.2705 C   0  0  0  0  0  0  0  0  0  0  0  0
   -4.9580   -3.3320    0.0918 H   0  0  0  0  0  0  0  0  0  0  0  0
   -3.4032   -2.9934   -0.7333 H   0  0  0  0  0  0  0  0  0  0  0  0
   -4.8389   -1.9492   -1.0457 H   0  0  0  0  0  0  0  0  0  0  0  0
   -1.6117   -0.8199    0.3380 C   0  0  0  0  0  0  0  0  0  0  0  0
   -1.2244   -1.9761    0.5385 O   0  0  0  0  0  0  0  0  0  0  0  0
   -0.7782    0.2317   -0.0293 N   0  0  0  0  0  2  0  0  0  0  0  0
   -1.2896    1.4497   -0.3648 C   0  0  0  0  0  0  0  0  0  0  0  0
   -0.4493    2.4147   -0.7782 N   0  0  0  0  0  0  0  0  0  0  0  0
    0.5366    2.3408   -0.4339 H   0  0  0  0  0  0  0  0  0  0  0  0
   -0.8280    3.3554   -0.8810 H   0  0  0  0  0  0  0  0  0  0  0  0
   -2.7105    1.7120   -0.3091 C   0  0  0  0  0  0  0  0  0  0  0  0
   -3.2632    3.0581   -0.6811 C   0  0  0  0  0  0  0  0  0  0  0  0
   -4.3645    3.0789   -0.5768 H   0  0  0  0  0  0  0  0  0  0  0  0
   -3.0235    3.3247   -1.7330 H   0  0  0  0  0  0  0  0  0  0  0  0
   -2.8554    3.8649   -0.0333 H   0  0  0  0  0  0  0  0  0  0  0  0
   -3.5029    0.6865    0.1385 C   0  0  0  0  0  3  0  0  0  0  0  0
   -4.5918    0.7986    0.2507 H   0  0  0  0  0  0  0  0  0  0  0  0
  1  2  1  0  0  0  0
  2  4  1  0  0  0  0
  2  3  1  0  0  0  0
  5  6  1  0  0  0  0
  5  2  1  0  0  0  0
  7  5  1  0  0  0  0
  8  5  1  0  0  0  0
  9  1  1  0  0  0  0
  9 10  2  0  0  0  0
 11  9  1  0  0  0  0
 12 16  2  0  0  0  0
 12 11  1  0  0  0  0
 13 14  1  0  0  0  0
 13 12  1  0  0  0  0
 15 13  1  0  0  0  0
 16 21  1  0  0  0  0
 17 18  1  0  0  0  0
 17 16  1  0  0  0  0
 17 20  1  0  0  0  0
 19 17  1  0  0  0  0
 21 22  1  0  0  0  0
 21  1  1  0  0  0  0
M  END
