2
 OpenBabel05122313063D

 16 16  0  0  1  0  0  0  0  0999 V2000
    0.9145    2.4876   -0.0699 O   0  0  0  0  0  0  0  0  0  0  0  0
    2.0655    0.6335   -0.6905 N   0  0  0  0  0  2  0  0  0  0  0  0
    4.3792    0.5049   -0.3459 N   0  0  0  0  0  0  0  0  0  0  0  0
    5.2395   -0.0421   -0.3988 H   0  0  0  0  0  0  0  0  0  0  0  0
    3.2015   -1.3271   -1.2203 N   0  0  0  0  0  0  0  0  0  0  0  0
    2.2641   -1.7726   -1.4041 H   0  0  0  0  0  0  0  0  0  0  0  0
    3.9890   -1.9389   -1.0113 H   0  0  0  0  0  0  0  0  0  0  0  0
    2.0184    1.9439   -0.2101 C   0  0  0  0  0  0  0  0  0  0  0  0
    3.2999    2.5623    0.1302 C   0  0  0  0  0  0  0  0  0  0  0  0
    3.3081    3.6025    0.4779 H   0  0  0  0  0  0  0  0  0  0  0  0
    4.4488    1.8242    0.0839 C   0  0  0  0  0  0  0  0  0  0  0  0
    3.1879   -0.0731   -0.7435 C   0  0  2  0  0  3  0  0  0  0  0  0
    5.8093    2.3173    0.4708 C   0  0  0  0  0  0  0  0  0  0  0  0
    5.7635    3.3757    0.7824 H   0  0  0  0  0  0  0  0  0  0  0  0
    6.5222    2.2345   -0.3771 H   0  0  0  0  0  0  0  0  0  0  0  0
    6.2222    1.7244    1.3145 H   0  0  0  0  0  0  0  0  0  0  0  0
  2  8  1  0  0  0  0
  3 11  1  0  0  0  0
  4  3  1  0  0  0  0
  5  7  1  0  0  0  0
  6  5  1  0  0  0  0
  8  1  2  0  0  0  0
  8  9  1  0  0  0  0
  9 10  1  0  0  0  0
 11  9  2  0  0  0  0
 11 13  1  0  0  0  0
 12  5  1  6  0  0  0
 12  2  1  0  0  0  0
 12  3  1  0  0  0  0
 13 14  1  0  0  0  0
 13 16  1  0  0  0  0
 15 13  1  0  0  0  0
M  END
