1
 OpenBabel05122313063D

 16 17  0  0  0  0  0  0  0  0999 V2000
    2.1133    2.0259   -0.6767 N   0  0  0  0  0  2  0  0  0  0  0  0
    3.3341   -1.7806   -0.0869 N   0  0  0  0  0  0  0  0  0  0  0  0
    3.9064   -2.9748    0.1172 N   0  0  0  0  0  0  0  0  0  0  0  0
    5.1473   -2.7475    0.4758 N   0  0  0  0  0  0  0  0  0  0  0  0
    5.4061   -1.4181    0.5301 N   0  0  0  0  0  0  0  0  0  0  0  0
    2.2741   -1.6121   -0.2908 H   0  0  0  0  0  0  0  0  0  0  0  0
    2.8732    0.9226   -0.7926 C   0  0  0  0  0  3  0  0  0  0  0  0
    2.5789    0.2073   -1.5737 H   0  0  0  0  0  0  0  0  0  0  0  0
    3.8999    0.5881    0.1055 C   0  0  0  0  0  0  0  0  0  0  0  0
    4.3286    1.5910    0.9972 C   0  0  0  0  0  0  0  0  0  0  0  0
    5.1522    1.3836    1.6965 H   0  0  0  0  0  0  0  0  0  0  0  0
    3.6362    2.8110    1.0165 C   0  0  0  0  0  0  0  0  0  0  0  0
    3.9335    3.6155    1.7042 H   0  0  0  0  0  0  0  0  0  0  0  0
    2.4839    2.9563    0.2293 C   0  0  0  0  0  0  0  0  0  0  0  0
    1.8197    3.8277    0.3403 H   0  0  0  0  0  0  0  0  0  0  0  0
    4.2693   -0.8214    0.1701 C   0  0  0  0  0  0  0  0  0  0  0  0
  1 14  1  0  0  0  0
  2  3  1  0  0  0  0
  2 16  1  0  0  0  0
  3  4  2  0  0  0  0
  4  5  1  0  0  0  0
  6  2  1  0  0  0  0
  7  1  1  0  0  0  0
  7  9  1  0  0  0  0
  8  7  1  0  0  0  0
  9 16  1  0  0  0  0
  9 10  2  0  0  0  0
 10 12  1  0  0  0  0
 10 11  1  0  0  0  0
 12 13  1  0  0  0  0
 14 15  1  0  0  0  0
 14 12  2  0  0  0  0
 16  5  2  0  0  0  0
M  END
