1
 OpenBabel05122313063D

 37 39  0  0  1  0  0  0  0  0999 V2000
    2.1307    0.4842   -0.4400 N   0  0  0  0  0  2  0  0  0  0  0  0
    3.0908    1.4173   -0.2317 N   0  0  0  0  0  0  0  0  0  0  0  0
    2.8343    2.3940   -0.0919 H   0  0  0  0  0  0  0  0  0  0  0  0
    9.0971    3.9022    0.2357 O   0  0  0  0  0  0  0  0  0  0  0  0
   -0.1380   -5.4644   -1.4683 O   0  0  0  0  0  0  0  0  0  0  0  0
    4.3523    0.9017   -0.3399 C   0  0  1  0  0  3  0  0  0  0  0  0
    4.1759   -0.4612   -0.6334 C   0  0  0  0  0  0  0  0  0  0  0  0
    4.9634   -1.2033   -0.7910 H   0  0  0  0  0  0  0  0  0  0  0  0
    2.7814   -0.6835   -0.6938 C   0  0  0  0  0  0  0  0  0  0  0  0
    5.5590    1.7067   -0.1693 C   0  0  0  0  0  0  0  0  0  0  0  0
    5.5512    2.9114    0.5669 C   0  0  0  0  0  0  0  0  0  0  0  0
    4.6298    3.2531    1.0648 H   0  0  0  0  0  0  0  0  0  0  0  0
    6.7101    3.6795    0.7251 C   0  0  0  0  0  0  0  0  0  0  0  0
    6.6659    4.6048    1.3139 H   0  0  0  0  0  0  0  0  0  0  0  0
    7.9233    3.2445    0.1448 C   0  0  0  0  0  0  0  0  0  0  0  0
    7.9447    2.0333   -0.5884 C   0  0  0  0  0  0  0  0  0  0  0  0
    8.8966    1.7135   -1.0350 H   0  0  0  0  0  0  0  0  0  0  0  0
    6.7848    1.2819   -0.7412 C   0  0  0  0  0  0  0  0  0  0  0  0
    6.8182    0.3552   -1.3326 H   0  0  0  0  0  0  0  0  0  0  0  0
    9.1489    5.1266    0.9553 C   0  0  0  0  0  0  0  0  0  0  0  0
    8.4782    5.8924    0.5077 H   0  0  0  0  0  0  0  0  0  0  0  0
   10.1939    5.4791    0.8908 H   0  0  0  0  0  0  0  0  0  0  0  0
    8.8786    4.9841    2.0244 H   0  0  0  0  0  0  0  0  0  0  0  0
    2.0346   -1.9227   -0.9494 C   0  0  0  0  0  0  0  0  0  0  0  0
    2.4632   -3.1547   -0.4019 C   0  0  0  0  0  0  0  0  0  0  0  0
    3.3760   -3.1884    0.2115 H   0  0  0  0  0  0  0  0  0  0  0  0
    1.7245   -4.3201   -0.5974 C   0  0  0  0  0  0  0  0  0  0  0  0
    2.0386   -5.2745   -0.1529 H   0  0  0  0  0  0  0  0  0  0  0  0
    0.5288   -4.2884   -1.3503 C   0  0  0  0  0  0  0  0  0  0  0  0
    0.1019   -3.0740   -1.9258 C   0  0  0  0  0  0  0  0  0  0  0  0
   -0.8070   -3.0256   -2.5385 H   0  0  0  0  0  0  0  0  0  0  0  0
    0.8568   -1.9116   -1.7266 C   0  0  0  0  0  0  0  0  0  0  0  0
    0.5415   -0.9822   -2.2277 H   0  0  0  0  0  0  0  0  0  0  0  0
   -1.2988   -5.5063   -2.2870 C   0  0  0  0  0  0  0  0  0  0  0  0
   -2.0941   -4.8311   -1.9023 H   0  0  0  0  0  0  0  0  0  0  0  0
   -1.6621   -6.5497   -2.2581 H   0  0  0  0  0  0  0  0  0  0  0  0
   -1.0637   -5.2332   -3.3386 H   0  0  0  0  0  0  0  0  0  0  0  0
  1  2  1  0  0  0  0
  2  3  1  0  0  0  0
  4 20  1  0  0  0  0
  5 29  1  0  0  0  0
  6  2  1  0  0  0  0
  6 10  1  6  0  0  0
  7  6  1  0  0  0  0
  8  7  1  0  0  0  0
  9  7  2  0  0  0  0
  9  1  1  0  0  0  0
 10 11  1  0  0  0  0
 11 13  2  0  0  0  0
 11 12  1  0  0  0  0
 13 14  1  0  0  0  0
 15  4  1  0  0  0  0
 15 13  1  0  0  0  0
 16 15  2  0  0  0  0
 17 16  1  0  0  0  0
 18 16  1  0  0  0  0
 18 10  2  0  0  0  0
 19 18  1  0  0  0  0
 20 23  1  0  0  0  0
 21 20  1  0  0  0  0
 22 20  1  0  0  0  0
 24  9  1  0  0  0  0
 24 25  1  0  0  0  0
 25 26  1  0  0  0  0
 27 25  2  0  0  0  0
 27 28  1  0  0  0  0
 29 27  1  0  0  0  0
 30 32  1  0  0  0  0
 30 29  2  0  0  0  0
 31 30  1  0  0  0  0
 32 24  2  0  0  0  0
 33 32  1  0  0  0  0
 34 36  1  0  0  0  0
 34 35  1  0  0  0  0
 34  5  1  0  0  0  0
 37 34  1  0  0  0  0
M  END
