1
 OpenBabel05122313063D

 31 32  0  0  0  0  0  0  0  0999 V2000
   -1.5016   -0.6444   -0.0917 N   0  0  0  0  0  2  0  0  0  0  0  0
   -1.3601    0.3564   -0.9155 C   0  0  0  0  0  3  0  0  0  0  0  0
   -2.3889    1.4215   -0.9971 C   0  0  0  0  0  0  0  0  0  0  0  0
   -3.1963    1.7310    0.1225 C   0  0  0  0  0  0  0  0  0  0  0  0
   -4.1901    2.7090    0.0387 C   0  0  0  0  0  0  0  0  0  0  0  0
   -4.4214    3.4183   -1.1608 C   0  0  0  0  0  0  0  0  0  0  0  0
   -3.6118    3.1101   -2.2725 C   0  0  0  0  0  0  0  0  0  0  0  0
   -2.6112    2.1335   -2.1963 C   0  0  0  0  0  0  0  0  0  0  0  0
   -5.5131    4.4524   -1.2468 C   0  0  0  0  0  0  0  0  0  0  0  0
   -0.1563    0.4253   -1.7773 C   0  0  0  0  0  0  0  0  0  0  0  0
    0.5368    1.6420   -1.9640 C   0  0  0  0  0  0  0  0  0  0  0  0
    1.7147    1.6803   -2.7166 C   0  0  0  0  0  0  0  0  0  0  0  0
    2.2264    0.5158   -3.3295 C   0  0  0  0  0  0  0  0  0  0  0  0
    1.5098   -0.6879   -3.1668 C   0  0  0  0  0  0  0  0  0  0  0  0
    0.3396   -0.7413   -2.3985 C   0  0  0  0  0  0  0  0  0  0  0  0
    3.5092    0.5687   -4.1178 C   0  0  0  0  0  0  0  0  0  0  0  0
   -2.4200   -0.6834    0.3827 H   0  0  0  0  0  0  0  0  0  0  0  0
   -3.0157    1.2195    1.0796 H   0  0  0  0  0  0  0  0  0  0  0  0
   -4.8007    2.9362    0.9271 H   0  0  0  0  0  0  0  0  0  0  0  0
   -5.3986    5.0977   -2.1389 H   0  0  0  0  0  0  0  0  0  0  0  0
   -6.5111    3.9681   -1.3122 H   0  0  0  0  0  0  0  0  0  0  0  0
   -5.5311    5.1013   -0.3480 H   0  0  0  0  0  0  0  0  0  0  0  0
   -3.7731    3.6451   -3.2216 H   0  0  0  0  0  0  0  0  0  0  0  0
   -2.0028    1.9031   -3.0828 H   0  0  0  0  0  0  0  0  0  0  0  0
    0.1577    2.5576   -1.4869 H   0  0  0  0  0  0  0  0  0  0  0  0
    2.2574    2.6324   -2.8270 H   0  0  0  0  0  0  0  0  0  0  0  0
    4.3605    0.8573   -3.4648 H   0  0  0  0  0  0  0  0  0  0  0  0
    3.7488   -0.4083   -4.5794 H   0  0  0  0  0  0  0  0  0  0  0  0
    3.4575    1.3273   -4.9260 H   0  0  0  0  0  0  0  0  0  0  0  0
    1.8771   -1.6065   -3.6509 H   0  0  0  0  0  0  0  0  0  0  0  0
   -0.2104   -1.6883   -2.2852 H   0  0  0  0  0  0  0  0  0  0  0  0
  1 17  1  0  0  0  0
  2  1  1  0  0  0  0
  3  2  1  0  0  0  0
  3  4  1  0  0  0  0
  4 18  1  0  0  0  0
  5  4  2  0  0  0  0
  5 19  1  0  0  0  0
  6  5  1  0  0  0  0
  7  8  1  0  0  0  0
  7  6  2  0  0  0  0
  8  3  2  0  0  0  0
  9  6  1  0  0  0  0
  9 22  1  0  0  0  0
 10  2  1  0  0  0  0
 11 10  1  0  0  0  0
 11 25  1  0  0  0  0
 12 11  2  0  0  0  0
 13 14  2  0  0  0  0
 13 12  1  0  0  0  0
 14 15  1  0  0  0  0
 15 31  1  0  0  0  0
 15 10  2  0  0  0  0
 16 27  1  0  0  0  0
 16 13  1  0  0  0  0
 20  9  1  0  0  0  0
 21  9  1  0  0  0  0
 23  7  1  0  0  0  0
 24  8  1  0  0  0  0
 26 12  1  0  0  0  0
 28 16  1  0  0  0  0
 29 16  1  0  0  0  0
 30 14  1  0  0  0  0
M  END
