1
 OpenBabel05122313063D

 18 18  0  0  1  0  0  0  0  0999 V2000
    2.1163   -0.3865   -0.2896 N   0  0  0  0  0  0  0  0  0  0  0  0
    2.0709   -0.5181   -1.3178 H   0  0  0  0  0  0  0  0  0  0  0  0
    1.1142    2.4612   -0.4609 O   0  0  0  0  0  0  0  0  0  0  0  0
    0.9105    2.2413    0.4799 H   0  0  0  0  0  0  0  0  0  0  0  0
    2.9155   -1.5001    0.2846 C   0  0  0  0  0  0  0  0  0  0  0  0
    2.5778   -2.4560   -0.1564 H   0  0  0  0  0  0  0  0  0  0  0  0
    2.7049   -1.5254    1.3716 H   0  0  0  0  0  0  0  0  0  0  0  0
    4.3892   -1.1272   -0.0023 C   0  0  0  0  0  0  0  0  0  0  0  0
    5.0362   -1.3871    0.8576 H   0  0  0  0  0  0  0  0  0  0  0  0
    4.7776   -1.6834   -0.8779 H   0  0  0  0  0  0  0  0  0  0  0  0
    4.3646    0.4017   -0.2799 C   0  0  0  0  0  0  0  0  0  0  0  0
    4.6111    0.6137   -1.3419 H   0  0  0  0  0  0  0  0  0  0  0  0
    5.0874    0.9654    0.3404 H   0  0  0  0  0  0  0  0  0  0  0  0
    2.9156    0.8352    0.0141 C   0  0  1  0  0  0  0  0  0  0  0  0
    2.7858    1.0057    1.1045 H   0  0  0  0  0  0  0  0  0  0  0  0
    2.4391    2.0761   -0.7349 C   0  0  0  0  0  0  0  0  0  0  0  0
    3.1709    2.8913   -0.5016 H   0  0  0  0  0  0  0  0  0  0  0  0
    2.5168    1.8936   -1.8319 H   0  0  0  0  0  0  0  0  0  0  0  0
  1 14  1  0  0  0  0
  1  5  1  0  0  0  0
  2  1  1  0  0  0  0
  3  4  1  0  0  0  0
  5  7  1  0  0  0  0
  6  5  1  0  0  0  0
  8  5  1  0  0  0  0
  8  9  1  0  0  0  0
 10  8  1  0  0  0  0
 11  8  1  0  0  0  0
 11 14  1  0  0  0  0
 11 13  1  0  0  0  0
 12 11  1  0  0  0  0
 14 15  1  1  0  0  0
 16 17  1  0  0  0  0
 16  3  1  0  0  0  0
 16 14  1  0  0  0  0
 18 16  1  0  0  0  0
M  END
