1
 OpenBabel05122313063D

 20 19  0  0  1  0  0  0  0  0999 V2000
   -1.8870    0.7592   -1.0522 N   0  0  0  0  0  0  0  0  0  0  0  0
   -3.1241    0.9741   -0.2515 C   0  0  2  0  0  0  0  0  0  0  0  0
   -3.8395    1.5265   -0.9094 H   0  0  0  0  0  0  0  0  0  0  0  0
   -2.7408    1.9167    0.9021 C   0  0  0  0  0  0  0  0  0  0  0  0
   -3.6659    2.2115    1.4458 H   0  0  0  0  0  0  0  0  0  0  0  0
   -2.0952    1.3507    1.6140 H   0  0  0  0  0  0  0  0  0  0  0  0
   -2.0874    3.0625    0.4020 O   0  0  0  0  0  0  0  0  0  0  0  0
   -1.1532    3.0474    0.7367 H   0  0  0  0  0  0  0  0  0  0  0  0
   -3.7955   -0.3406    0.1839 C   0  0  0  0  0  0  0  0  0  0  0  0
   -3.1105   -0.8345    0.9043 H   0  0  0  0  0  0  0  0  0  0  0  0
   -3.9927   -1.2960   -1.0020 C   0  0  0  0  0  0  0  0  0  0  0  0
   -4.5284   -2.2109   -0.6775 H   0  0  0  0  0  0  0  0  0  0  0  0
   -3.0333   -1.6337   -1.4447 H   0  0  0  0  0  0  0  0  0  0  0  0
   -4.6042   -0.8282   -1.8041 H   0  0  0  0  0  0  0  0  0  0  0  0
   -5.1370   -0.0633    0.8761 C   0  0  0  0  0  0  0  0  0  0  0  0
   -5.6276   -1.0150    1.1629 H   0  0  0  0  0  0  0  0  0  0  0  0
   -5.8332    0.4805    0.2020 H   0  0  0  0  0  0  0  0  0  0  0  0
   -5.0220    0.5386    1.7983 H   0  0  0  0  0  0  0  0  0  0  0  0
   -1.5841    1.6968   -1.3674 H   0  0  0  0  0  0  0  0  0  0  0  0
   -2.0826    0.1940   -1.8896 H   0  0  0  0  0  0  0  0  0  0  0  0
  1  2  1  0  0  0  0
  2  3  1  6  0  0  0
  2  9  1  0  0  0  0
  2  4  1  0  0  0  0
  4  5  1  0  0  0  0
  4  6  1  0  0  0  0
  7  8  1  0  0  0  0
  7  4  1  0  0  0  0
  9 15  1  0  0  0  0
  9 10  1  0  0  0  0
 11 12  1  0  0  0  0
 11  9  1  0  0  0  0
 13 11  1  0  0  0  0
 14 11  1  0  0  0  0
 15 16  1  0  0  0  0
 15 18  1  0  0  0  0
 17 15  1  0  0  0  0
 19  1  1  0  0  0  0
 20  1  1  0  0  0  0
M  END
