24
 OpenBabel05122313063D

 28 30  0  0  0  0  0  0  0  0999 V2000
   -2.3656    2.6638   -0.3382 C   0  0  0  0  0  3  0  0  0  0  0  0
   -3.3486    2.1997   -0.1452 H   0  0  0  0  0  0  0  0  0  0  0  0
    2.8696    2.2705   -0.0498 N   0  0  0  0  0  0  0  0  0  0  0  0
    2.5136    2.2324    0.9240 H   0  0  0  0  0  0  0  0  0  0  0  0
    3.8663    1.9647   -0.0352 H   0  0  0  0  0  0  0  0  0  0  0  0
   -2.1891    4.0577   -0.3581 C   0  0  0  0  0  0  0  0  0  0  0  0
   -3.0452    4.7245   -0.1816 H   0  0  0  0  0  0  0  0  0  0  0  0
   -0.9034    4.5676   -0.5892 C   0  0  0  0  0  0  0  0  0  0  0  0
   -0.7266    5.6536   -0.5999 H   0  0  0  0  0  0  0  0  0  0  0  0
    0.1597    3.6808   -0.8127 C   0  0  0  0  0  0  0  0  0  0  0  0
    1.1852    4.0304   -0.9946 H   0  0  0  0  0  0  0  0  0  0  0  0
   -0.1160    2.3021   -0.7900 C   0  0  0  0  0  0  0  0  0  0  0  0
    0.8802    1.2555   -1.0546 C   0  0  0  0  0  0  0  0  0  0  0  0
    2.6599   -0.0228   -1.0330 C   0  0  0  0  0  0  0  0  0  0  0  0
    4.0231   -0.5089   -0.8140 C   0  0  0  0  0  0  0  0  0  0  0  0
    4.3376   -1.8630   -1.0602 C   0  0  0  0  0  0  0  0  0  0  0  0
    3.5538   -2.5432   -1.4200 H   0  0  0  0  0  0  0  0  0  0  0  0
    5.6472   -2.2915   -0.8289 C   0  0  0  0  0  0  0  0  0  0  0  0
    5.9268   -3.3404   -1.0082 H   0  0  0  0  0  0  0  0  0  0  0  0
    6.5965   -1.3675   -0.3617 C   0  0  0  0  0  0  0  0  0  0  0  0
    7.6365   -1.6655   -0.1657 H   0  0  0  0  0  0  0  0  0  0  0  0
    6.1882   -0.0430   -0.1460 C   0  0  0  0  0  0  0  0  0  0  0  0
    6.9033    0.7127    0.2212 H   0  0  0  0  0  0  0  0  0  0  0  0
   -1.3517    1.8140   -0.5364 N   0  0  0  0  0  2  0  0  0  0  0  0
    0.5458    0.0581   -1.5459 N   0  0  0  0  0  0  0  0  0  0  0  0
    1.6473   -0.7285   -1.5473 N   0  0  0  0  0  0  0  0  0  0  0  0
    2.2088    1.2496   -0.7310 N   0  0  0  0  0  0  0  0  0  0  0  0
    4.9362    0.3835   -0.3670 N   0  0  0  0  0  0  0  0  0  0  0  0
  1  2  1  0  0  0  0
  3  5  1  0  0  0  0
  3  4  1  0  0  0  0
  6  1  1  0  0  0  0
  6  7  1  0  0  0  0
  8  6  2  0  0  0  0
  9  8  1  0  0  0  0
 10 12  2  0  0  0  0
 10  8  1  0  0  0  0
 11 10  1  0  0  0  0
 12 24  1  0  0  0  0
 13 12  1  0  0  0  0
 13 27  1  0  0  0  0
 14 15  1  0  0  0  0
 14 27  1  0  0  0  0
 15 28  1  0  0  0  0
 16 18  1  0  0  0  0
 16 15  2  0  0  0  0
 17 16  1  0  0  0  0
 18 20  2  0  0  0  0
 19 18  1  0  0  0  0
 20 21  1  0  0  0  0
 20 22  1  0  0  0  0
 22 23  1  0  0  0  0
 24  1  1  0  0  0  0
 25 13  2  0  0  0  0
 26 25  1  0  0  0  0
 26 14  2  0  0  0  0
 27  3  1  0  0  0  0
 28 22  2  0  0  0  0
M  END
