2
 OpenBabel05122313063D

 25 27  0  0  0  0  0  0  0  0999 V2000
    5.2893   -0.9519    0.0222 O   0  0  0  0  0  0  0  0  0  0  0  0
    1.1820   -1.5388   -0.2524 N   0  0  0  0  0  2  0  0  0  0  0  0
    5.8354   -3.1025   -0.0907 N   0  0  0  0  0  0  0  0  0  0  0  0
    6.9967   -2.3738    0.0347 N   0  0  0  0  0  0  0  0  0  0  0  0
    7.8207    2.4651    0.1822 C   0  0  0  0  0  0  0  0  0  0  0  0
    7.4481    3.4946    0.0758 H   0  0  0  0  0  0  0  0  0  0  0  0
    0.6963   -2.7588   -0.6020 C   0  0  0  0  0  3  0  0  0  0  0  0
   -0.3907   -2.8202   -0.7417 H   0  0  0  0  0  0  0  0  0  0  0  0
    1.5279   -3.8735   -0.7600 C   0  0  0  0  0  0  0  0  0  0  0  0
    1.0803   -4.8387   -1.0363 H   0  0  0  0  0  0  0  0  0  0  0  0
    2.9090   -3.7479   -0.5754 C   0  0  0  0  0  0  0  0  0  0  0  0
    3.5994   -4.5939   -0.7020 H   0  0  0  0  0  0  0  0  0  0  0  0
    3.4173   -2.4751   -0.2398 C   0  0  0  0  0  0  0  0  0  0  0  0
    2.5177   -1.4068   -0.0777 C   0  0  0  0  0  0  0  0  0  0  0  0
    2.8889   -0.3972    0.1463 H   0  0  0  0  0  0  0  0  0  0  0  0
    4.8452   -2.2390   -0.0975 C   0  0  0  0  0  0  0  0  0  0  0  0
    6.6489   -1.1040    0.0948 C   0  0  0  0  0  0  0  0  0  0  0  0
    7.4847    0.0798    0.2061 C   0  0  0  0  0  0  0  0  0  0  0  0
    8.8736   -0.0565    0.4477 C   0  0  0  0  0  0  0  0  0  0  0  0
    9.3041   -1.0673    0.5554 H   0  0  0  0  0  0  0  0  0  0  0  0
    9.7043    0.9847    0.5560 N   0  0  0  0  0  0  0  0  0  0  0  0
    9.1825    2.2176    0.4261 C   0  0  0  0  0  0  0  0  0  0  0  0
    9.8916    3.0597    0.5185 H   0  0  0  0  0  0  0  0  0  0  0  0
    6.9482    1.3784    0.0673 C   0  0  0  0  0  0  0  0  0  0  0  0
    5.8774    1.5329   -0.1484 H   0  0  0  0  0  0  0  0  0  0  0  0
  1 17  1  0  0  0  0
  2 14  1  0  0  0  0
  3  4  1  0  0  0  0
  4 17  2  0  0  0  0
  5 22  1  0  0  0  0
  6  5  1  0  0  0  0
  7  2  1  0  0  0  0
  8  7  1  0  0  0  0
  9  7  1  0  0  0  0
  9 11  2  0  0  0  0
 10  9  1  0  0  0  0
 11 13  1  0  0  0  0
 12 11  1  0  0  0  0
 13 16  1  0  0  0  0
 13 14  2  0  0  0  0
 14 15  1  0  0  0  0
 16  3  2  0  0  0  0
 16  1  1  0  0  0  0
 17 18  1  0  0  0  0
 18 19  2  0  0  0  0
 19 20  1  0  0  0  0
 19 21  1  0  0  0  0
 22 23  1  0  0  0  0
 22 21  2  0  0  0  0
 24  5  2  0  0  0  0
 24 18  1  0  0  0  0
 25 24  1  0  0  0  0
M  END
