2
 OpenBabel05122313063D

 23 24  0  0  1  0  0  0  0  0999 V2000
    2.9072    0.2811    0.0960 O   0  0  0  0  0  0  0  0  0  0  0  0
    1.7361    1.0048   -0.0639 N   0  0  0  0  0  2  0  0  0  0  0  0
    1.1386    3.2248   -0.6261 N   0  0  0  0  0  0  0  0  0  0  0  0
    1.4540    4.1902   -0.5406 H   0  0  0  0  0  0  0  0  0  0  0  0
    0.2066    3.0204   -0.2130 H   0  0  0  0  0  0  0  0  0  0  0  0
    3.9582    1.1084   -0.1072 C   0  0  2  0  0  3  0  0  0  0  0  0
    3.4991    2.3798   -0.3900 C   0  0  0  0  0  0  0  0  0  0  0  0
    4.0865    3.2711   -0.6264 H   0  0  0  0  0  0  0  0  0  0  0  0
    5.2814    0.5025   -0.0135 C   0  0  0  0  0  0  0  0  0  0  0  0
    6.6862   -1.4860    0.0807 C   0  0  0  0  0  0  0  0  0  0  0  0
    6.7759   -2.5838    0.0857 H   0  0  0  0  0  0  0  0  0  0  0  0
    2.0721    2.2751   -0.3562 C   0  0  0  0  0  0  0  0  0  0  0  0
    7.7066    0.7060    0.1237 C   0  0  0  0  0  0  0  0  0  0  0  0
    8.6031    1.3438    0.1719 H   0  0  0  0  0  0  0  0  0  0  0  0
    7.8552   -0.6963    0.1450 C   0  0  0  0  0  0  0  0  0  0  0  0
    5.4180   -0.9057    0.0021 C   0  0  0  0  0  0  0  0  0  0  0  0
    4.5163   -1.5319   -0.0672 H   0  0  0  0  0  0  0  0  0  0  0  0
    9.2137   -1.3395    0.2490 C   0  0  0  0  0  0  0  0  0  0  0  0
    9.3607   -1.7995    1.2496 H   0  0  0  0  0  0  0  0  0  0  0  0
   10.0285   -0.6060    0.0956 H   0  0  0  0  0  0  0  0  0  0  0  0
    9.3350   -2.1518   -0.4964 H   0  0  0  0  0  0  0  0  0  0  0  0
    6.4430    1.3013    0.0479 C   0  0  0  0  0  0  0  0  0  0  0  0
    6.3557    2.3981    0.0464 H   0  0  0  0  0  0  0  0  0  0  0  0
  2  1  1  0  0  0  0
  3  4  1  0  0  0  0
  3 12  1  0  0  0  0
  3  5  1  0  0  0  0
  6  9  1  6  0  0  0
  6  1  1  0  0  0  0
  7 12  2  0  0  0  0
  7  6  1  0  0  0  0
  8  7  1  0  0  0  0
  9 16  2  0  0  0  0
  9 22  1  0  0  0  0
 10 11  1  0  0  0  0
 10 15  2  0  0  0  0
 12  2  1  0  0  0  0
 13 15  1  0  0  0  0
 13 14  1  0  0  0  0
 15 18  1  0  0  0  0
 16 10  1  0  0  0  0
 17 16  1  0  0  0  0
 18 19  1  0  0  0  0
 20 18  1  0  0  0  0
 21 18  1  0  0  0  0
 22 13  2  0  0  0  0
 23 22  1  0  0  0  0
M  END
