1
 OpenBabel05122313063D

 21 21  0  0  0  0  0  0  0  0999 V2000
    0.8947    1.8892   -0.0454 N   0  0  0  0  0  2  0  0  0  0  0  0
    2.1608    2.1246   -0.1719 C   0  0  0  0  0  3  0  0  0  0  0  0
    2.4823    3.1877   -0.1507 H   0  0  0  0  0  0  0  0  0  0  0  0
    3.2256    1.1331   -0.3076 C   0  0  0  0  0  0  0  0  0  0  0  0
    4.5210    1.4816    0.1361 C   0  0  0  0  0  0  0  0  0  0  0  0
    4.6986    2.4822    0.5610 H   0  0  0  0  0  0  0  0  0  0  0  0
    5.5706    0.5595    0.0680 C   0  0  0  0  0  0  0  0  0  0  0  0
    6.5684    0.8420    0.4383 H   0  0  0  0  0  0  0  0  0  0  0  0
    5.3716   -0.7268   -0.4743 C   0  0  0  0  0  0  0  0  0  0  0  0
    4.0858   -1.0488   -0.9644 C   0  0  0  0  0  0  0  0  0  0  0  0
    3.9182   -2.0320   -1.4324 H   0  0  0  0  0  0  0  0  0  0  0  0
    3.0251   -0.1442   -0.8842 C   0  0  0  0  0  0  0  0  0  0  0  0
    2.0405   -0.3946   -1.3114 H   0  0  0  0  0  0  0  0  0  0  0  0
    6.4904   -1.7332   -0.5299 C   0  0  0  0  0  0  0  0  0  0  0  0
    6.3669   -2.5021    0.2631 H   0  0  0  0  0  0  0  0  0  0  0  0
    6.5045   -2.2722   -1.4987 H   0  0  0  0  0  0  0  0  0  0  0  0
    7.4794   -1.2588   -0.3804 H   0  0  0  0  0  0  0  0  0  0  0  0
   -0.0479    2.9909    0.0546 C   0  0  0  0  0  0  0  0  0  0  0  0
    0.4515    3.9748   -0.0763 H   0  0  0  0  0  0  0  0  0  0  0  0
   -0.8278    2.8604   -0.7227 H   0  0  0  0  0  0  0  0  0  0  0  0
   -0.5362    2.9499    1.0498 H   0  0  0  0  0  0  0  0  0  0  0  0
  1 18  1  0  0  0  0
  2  3  1  0  0  0  0
  2  1  1  0  0  0  0
  4  2  1  0  0  0  0
  4  5  1  0  0  0  0
  5  6  1  0  0  0  0
  7  5  2  0  0  0  0
  7  8  1  0  0  0  0
  9  7  1  0  0  0  0
 10 12  1  0  0  0  0
 10  9  2  0  0  0  0
 11 10  1  0  0  0  0
 12  4  2  0  0  0  0
 13 12  1  0  0  0  0
 14  9  1  0  0  0  0
 14 17  1  0  0  0  0
 14 15  1  0  0  0  0
 16 14  1  0  0  0  0
 18 21  1  0  0  0  0
 19 18  1  0  0  0  0
 20 18  1  0  0  0  0
M  END
