1
 OpenBabel05122313063D

 15 15  0  0  0  0  0  0  0  0999 V2000
   -3.4267   -0.7031    0.1060 N   0  0  0  0  0  0  0  0  0  0  0  0
   -4.0684   -1.5190   -0.9549 C   0  0  0  0  0  0  0  0  0  0  0  0
   -5.0694   -1.1846   -1.2738 H   0  0  0  0  0  0  0  0  0  0  0  0
   -3.4039   -1.8569   -1.7637 H   0  0  0  0  0  0  0  0  0  0  0  0
   -3.9128   -2.0683    0.4180 C   0  0  0  0  0  0  0  0  0  0  0  0
   -3.1337   -2.8150    0.6298 H   0  0  0  0  0  0  0  0  0  0  0  0
   -4.8032   -2.1185    1.0657 H   0  0  0  0  0  0  0  0  0  0  0  0
   -4.2289    0.4182    0.6501 C   0  0  0  0  0  0  0  0  0  0  0  0
   -3.8922    0.5945    1.6921 H   0  0  0  0  0  0  0  0  0  0  0  0
   -5.3019    0.1266    0.6816 H   0  0  0  0  0  0  0  0  0  0  0  0
   -4.0820    1.6945   -0.1618 C   0  0  0  0  0  0  0  0  0  0  0  0
   -4.3629    1.4929   -1.2229 H   0  0  0  0  0  0  0  0  0  0  0  0
   -4.8149    2.4334    0.2395 H   0  0  0  0  0  0  0  0  0  0  0  0
   -2.7470    2.1563   -0.0423 O   0  0  0  0  0  0  0  0  0  0  0  0
   -2.5905    2.8625   -0.6954 H   0  0  0  0  0  0  0  0  0  0  0  0
  1  5  1  0  0  0  0
  1  8  1  0  0  0  0
  2  1  1  0  0  0  0
  2  5  1  0  0  0  0
  3  2  1  0  0  0  0
  4  2  1  0  0  0  0
  5  6  1  0  0  0  0
  5  7  1  0  0  0  0
  8 10  1  0  0  0  0
  8  9  1  0  0  0  0
 11 14  1  0  0  0  0
 11 13  1  0  0  0  0
 11  8  1  0  0  0  0
 12 11  1  0  0  0  0
 15 14  1  0  0  0  0
M  END
