1
 OpenBabel05122313063D

 22 23  0  0  0  0  0  0  0  0999 V2000
    0.0933    0.6915    1.5414 N   0  0  0  0  0  0  0  0  0  0  0  0
    1.4311    1.0784    1.6688 C   0  0  0  0  0  0  0  0  0  0  0  0
    1.4767    2.2851    2.3786 C   0  0  0  0  0  0  0  0  0  0  0  0
    2.3941    2.8117    2.6675 H   0  0  0  0  0  0  0  0  0  0  0  0
    0.1359    2.6470    2.7041 C   0  0  0  0  0  0  0  0  0  0  0  0
   -0.1923    3.5110    3.2945 H   0  0  0  0  0  0  0  0  0  0  0  0
   -0.6823    1.6550    2.1712 C   0  0  0  0  0  3  0  0  0  0  0  0
   -1.7710    1.5483    2.2318 H   0  0  0  0  0  0  0  0  0  0  0  0
    2.5656    0.3255    1.1177 C   0  0  0  0  0  0  0  0  0  0  0  0
    2.6456   -1.0839    1.1975 C   0  0  0  0  0  0  0  0  0  0  0  0
    1.8392   -1.6374    1.6969 H   0  0  0  0  0  0  0  0  0  0  0  0
    3.7373   -1.7731    0.6597 C   0  0  0  0  0  0  0  0  0  0  0  0
    3.7692   -2.8722    0.7342 H   0  0  0  0  0  0  0  0  0  0  0  0
    4.8037   -1.0924    0.0342 C   0  0  0  0  0  0  0  0  0  0  0  0
    4.7390    0.3142   -0.0163 C   0  0  0  0  0  0  0  0  0  0  0  0
    5.5604    0.8755   -0.4903 H   0  0  0  0  0  0  0  0  0  0  0  0
    3.6425    1.0099    0.5097 C   0  0  0  0  0  0  0  0  0  0  0  0
    3.6018    2.1075    0.4331 H   0  0  0  0  0  0  0  0  0  0  0  0
    5.9577   -1.8499   -0.5731 C   0  0  0  0  0  0  0  0  0  0  0  0
    5.6733   -2.3023   -1.5480 H   0  0  0  0  0  0  0  0  0  0  0  0
    6.2888   -2.6823    0.0808 H   0  0  0  0  0  0  0  0  0  0  0  0
    6.8287   -1.1908   -0.7573 H   0  0  0  0  0  0  0  0  0  0  0  0
  1  2  2  0  0  0  0
  1  7  1  0  0  0  0
  2  3  1  0  0  0  0
  3  4  1  0  0  0  0
  3  5  2  0  0  0  0
  5  6  1  0  0  0  0
  7  8  1  0  0  0  0
  7  5  1  0  0  0  0
  9 10  1  0  0  0  0
  9  2  1  0  0  0  0
 10 11  1  0  0  0  0
 12 13  1  0  0  0  0
 12 10  2  0  0  0  0
 14 12  1  0  0  0  0
 15 14  2  0  0  0  0
 15 17  1  0  0  0  0
 16 15  1  0  0  0  0
 17  9  2  0  0  0  0
 18 17  1  0  0  0  0
 19 14  1  0  0  0  0
 19 21  1  0  0  0  0
 20 19  1  0  0  0  0
 22 19  1  0  0  0  0
M  END
