1
 OpenBabel05122313063D

 38 41  0  0  1  0  0  0  0  0999 V2000
   -1.7005   -1.4028   -0.3830 N   0  0  0  0  0  2  0  0  0  0  0  0
   -2.9745    0.2663   -1.1785 N   0  0  0  0  0  0  0  0  0  0  0  0
   -2.9825   -1.5533    0.1304 C   0  0  0  0  0  0  0  0  0  0  0  0
   -3.5067   -2.5085    1.0226 C   0  0  0  0  0  0  0  0  0  0  0  0
   -2.8568   -3.2917    1.4452 H   0  0  0  0  0  0  0  0  0  0  0  0
   -4.8581   -2.3863    1.3663 C   0  0  0  0  0  0  0  0  0  0  0  0
   -5.3009   -3.1140    2.0626 H   0  0  0  0  0  0  0  0  0  0  0  0
   -5.6714   -1.3486    0.8472 C   0  0  0  0  0  0  0  0  0  0  0  0
   -6.7283   -1.2918    1.1476 H   0  0  0  0  0  0  0  0  0  0  0  0
   -5.1589   -0.3833   -0.0300 C   0  0  0  0  0  0  0  0  0  0  0  0
   -5.7829    0.4369   -0.4125 H   0  0  0  0  0  0  0  0  0  0  0  0
   -3.8029   -0.5059   -0.3701 C   0  0  0  0  0  0  0  0  0  0  0  0
   -1.7100   -0.3047   -1.1450 C   0  0  1  0  0  3  0  0  0  0  0  0
   -0.5415    0.2800   -1.8227 C   0  0  0  0  0  0  0  0  0  0  0  0
    0.3761   -0.5472   -2.5075 C   0  0  0  0  0  0  0  0  0  0  0  0
    0.2115   -1.6363   -2.5766 H   0  0  0  0  0  0  0  0  0  0  0  0
    1.5147    0.0131   -3.1021 C   0  0  0  0  0  0  0  0  0  0  0  0
    2.2272   -0.6473   -3.6183 H   0  0  0  0  0  0  0  0  0  0  0  0
    1.7436    1.3968   -3.0395 C   0  0  0  0  0  0  0  0  0  0  0  0
    2.6374    1.8307   -3.5141 H   0  0  0  0  0  0  0  0  0  0  0  0
    0.8321    2.2252   -2.3634 C   0  0  0  0  0  0  0  0  0  0  0  0
    1.0119    3.3083   -2.2925 H   0  0  0  0  0  0  0  0  0  0  0  0
   -0.3001    1.6731   -1.7507 C   0  0  0  0  0  0  0  0  0  0  0  0
   -0.9824    2.3224   -1.1831 H   0  0  0  0  0  0  0  0  0  0  0  0
   -3.4352    1.3601   -2.0162 C   0  0  0  0  0  0  0  0  0  0  0  0
   -4.3915    1.0400   -2.4845 H   0  0  0  0  0  0  0  0  0  0  0  0
   -2.7079    1.4847   -2.8429 H   0  0  0  0  0  0  0  0  0  0  0  0
   -3.6379    2.6821   -1.2958 C   0  0  0  0  0  0  0  0  0  0  0  0
   -3.4876    2.8044    0.0964 C   0  0  0  0  0  0  0  0  0  0  0  0
   -3.2048    1.9279    0.6966 H   0  0  0  0  0  0  0  0  0  0  0  0
   -3.6886    4.0444    0.7249 C   0  0  0  0  0  0  0  0  0  0  0  0
   -3.5703    4.1236    1.8166 H   0  0  0  0  0  0  0  0  0  0  0  0
   -4.0406    5.1729   -0.0290 C   0  0  0  0  0  0  0  0  0  0  0  0
   -4.1985    6.1434    0.4649 H   0  0  0  0  0  0  0  0  0  0  0  0
   -4.1902    5.0564   -1.4214 C   0  0  0  0  0  0  0  0  0  0  0  0
   -4.4628    5.9368   -2.0229 H   0  0  0  0  0  0  0  0  0  0  0  0
   -3.9906    3.8197   -2.0493 C   0  0  0  0  0  0  0  0  0  0  0  0
   -4.1064    3.7357   -3.1420 H   0  0  0  0  0  0  0  0  0  0  0  0
  1  3  1  0  0  0  0
  2 13  1  0  0  0  0
  2 12  1  0  0  0  0
  3  4  1  0  0  0  0
  4  6  2  0  0  0  0
  4  5  1  0  0  0  0
  6  7  1  0  0  0  0
  8  9  1  0  0  0  0
  8  6  1  0  0  0  0
 10  8  2  0  0  0  0
 11 10  1  0  0  0  0
 12 10  1  0  0  0  0
 12  3  2  0  0  0  0
 13 14  1  1  0  0  0
 13  1  1  0  0  0  0
 14 23  1  0  0  0  0
 15 14  2  0  0  0  0
 16 15  1  0  0  0  0
 17 19  2  0  0  0  0
 17 15  1  0  0  0  0
 18 17  1  0  0  0  0
 19 21  1  0  0  0  0
 20 19  1  0  0  0  0
 21 22  1  0  0  0  0
 21 23  2  0  0  0  0
 23 24  1  0  0  0  0
 25 28  1  0  0  0  0
 25  2  1  0  0  0  0
 26 25  1  0  0  0  0
 27 25  1  0  0  0  0
 28 29  1  0  0  0  0
 29 30  1  0  0  0  0
 29 31  2  0  0  0  0
 31 32  1  0  0  0  0
 33 34  1  0  0  0  0
 33 31  1  0  0  0  0
 35 33  2  0  0  0  0
 36 35  1  0  0  0  0
 37 35  1  0  0  0  0
 37 28  2  0  0  0  0
 38 37  1  0  0  0  0
M  END
