1
 OpenBabel05122313063D

 23 23  0  0  0  0  0  0  0  0999 V2000
   -0.5558    0.3132   -0.3143 N   0  0  0  0  0  2  0  0  0  0  0  0
   -1.1775    1.4642   -0.2618 C   0  0  0  0  0  0  0  0  0  0  0  0
   -2.6392    1.5574   -0.3139 C   0  0  0  0  0  0  0  0  0  0  0  0
   -3.5179    0.5180   -0.2389 C   0  0  0  0  0  3  0  0  0  0  0  0
   -3.1158   -0.7667   -0.1823 O   0  0  0  0  0  0  0  0  0  0  0  0
   -4.0910   -1.7772    0.1420 C   0  0  0  0  0  0  0  0  0  0  0  0
   -3.3898   -3.1192    0.1367 C   0  0  0  0  0  0  0  0  0  0  0  0
   -0.3854    2.7094   -0.0954 C   0  0  0  0  0  0  0  0  0  0  0  0
   -0.8133    3.7771    0.9059 C   0  0  0  0  0  0  0  0  0  0  0  0
   -0.8759    4.0703   -0.5618 C   0  0  0  0  0  0  0  0  0  0  0  0
   -1.2287   -0.4528   -0.4339 H   0  0  0  0  0  0  0  0  0  0  0  0
   -3.0945    2.5551   -0.3752 H   0  0  0  0  0  0  0  0  0  0  0  0
   -4.6106    0.6880   -0.2333 H   0  0  0  0  0  0  0  0  0  0  0  0
   -4.9134   -1.7371   -0.6076 H   0  0  0  0  0  0  0  0  0  0  0  0
   -4.5238   -1.5494    1.1413 H   0  0  0  0  0  0  0  0  0  0  0  0
   -4.1061   -3.9223    0.3982 H   0  0  0  0  0  0  0  0  0  0  0  0
   -2.5626   -3.1331    0.8738 H   0  0  0  0  0  0  0  0  0  0  0  0
   -2.9686   -3.3405   -0.8639 H   0  0  0  0  0  0  0  0  0  0  0  0
    0.6955    2.5352   -0.1772 H   0  0  0  0  0  0  0  0  0  0  0  0
   -1.7579    3.6064    1.4461 H   0  0  0  0  0  0  0  0  0  0  0  0
   -0.0165    4.2300    1.5152 H   0  0  0  0  0  0  0  0  0  0  0  0
   -0.1173    4.7344   -1.0033 H   0  0  0  0  0  0  0  0  0  0  0  0
   -1.8610    4.1338   -1.0494 H   0  0  0  0  0  0  0  0  0  0  0  0
  1  2  1  0  0  0  0
  2  8  1  0  0  0  0
  3  2  2  0  0  0  0
  3  4  1  0  0  0  0
  4 13  1  0  0  0  0
  4  5  1  0  0  0  0
  5  6  1  0  0  0  0
  6 15  1  0  0  0  0
  7  6  1  0  0  0  0
  7 16  1  0  0  0  0
  7 17  1  0  0  0  0
  8  9  1  0  0  0  0
  9 20  1  0  0  0  0
  9 21  1  0  0  0  0
 10  8  1  0  0  0  0
 10  9  1  0  0  0  0
 11  1  1  0  0  0  0
 12  3  1  0  0  0  0
 14  6  1  0  0  0  0
 18  7  1  0  0  0  0
 19  8  1  0  0  0  0
 22 10  1  0  0  0  0
 23 10  1  0  0  0  0
M  END
