3
 OpenBabel05122313063D

 34 36  0  0  0  0  0  0  0  0999 V2000
   -6.5945    0.0703   -0.9993 P   0  0  0  0  0  0  0  0  0  0  0  0
   -6.8788    0.1729   -2.4869 O   0  0  0  0  0  0  0  0  0  0  0  0
   -2.0127   -0.0160   -0.2847 N   0  0  0  0  0  2  0  0  0  0  0  0
   -4.7859   -0.0064   -0.6511 C   0  0  0  0  0  0  0  0  0  0  0  0
   -4.2116   -0.6188    0.4759 C   0  0  0  0  0  0  0  0  0  0  0  0
   -4.8286   -1.1278    1.2311 H   0  0  0  0  0  0  0  0  0  0  0  0
   -3.9326    0.5766   -1.6037 C   0  0  0  0  0  0  0  0  0  0  0  0
   -4.3513    1.0284   -2.5152 H   0  0  0  0  0  0  0  0  0  0  0  0
   -2.5530    0.5650   -1.3830 C   0  0  0  0  0  3  0  0  0  0  0  0
   -1.8404    1.0494   -2.0653 H   0  0  0  0  0  0  0  0  0  0  0  0
   -8.2566    2.2318   -0.6198 C   0  0  0  0  0  0  0  0  0  0  0  0
   -8.6339    1.9223   -1.6068 H   0  0  0  0  0  0  0  0  0  0  0  0
   -8.3307   -3.8270    0.8059 C   0  0  0  0  0  0  0  0  0  0  0  0
   -8.7355   -4.7673    1.2102 H   0  0  0  0  0  0  0  0  0  0  0  0
   -7.2957   -1.4298   -0.2230 C   0  0  0  0  0  0  0  0  0  0  0  0
   -8.7929    3.3394    0.0522 C   0  0  0  0  0  0  0  0  0  0  0  0
   -9.6183    3.9081   -0.4022 H   0  0  0  0  0  0  0  0  0  0  0  0
   -8.1184   -2.7322    1.6596 C   0  0  0  0  0  0  0  0  0  0  0  0
   -8.3627   -2.8111    2.7298 H   0  0  0  0  0  0  0  0  0  0  0  0
   -7.6054   -1.5304    1.1477 C   0  0  0  0  0  0  0  0  0  0  0  0
   -7.4660   -0.6649    1.8138 H   0  0  0  0  0  0  0  0  0  0  0  0
   -7.5242   -2.5233   -1.0819 C   0  0  0  0  0  0  0  0  0  0  0  0
   -7.3061   -2.4105   -2.1551 H   0  0  0  0  0  0  0  0  0  0  0  0
   -8.2719    3.7281    1.2974 C   0  0  0  0  0  0  0  0  0  0  0  0
   -8.6915    4.6004    1.8211 H   0  0  0  0  0  0  0  0  0  0  0  0
   -7.1987    1.5048   -0.0386 C   0  0  0  0  0  0  0  0  0  0  0  0
   -6.6644    1.9053    1.2022 C   0  0  0  0  0  0  0  0  0  0  0  0
   -5.8106    1.3674    1.6426 H   0  0  0  0  0  0  0  0  0  0  0  0
   -7.2060    3.0147    1.8694 C   0  0  0  0  0  0  0  0  0  0  0  0
   -6.7855    3.3303    2.8362 H   0  0  0  0  0  0  0  0  0  0  0  0
   -8.0388   -3.7203   -0.5639 C   0  0  0  0  0  0  0  0  0  0  0  0
   -8.2182   -4.5745   -1.2343 H   0  0  0  0  0  0  0  0  0  0  0  0
   -2.8214   -0.6091    0.6247 C   0  0  0  0  0  0  0  0  0  0  0  0
   -2.3114   -1.1108    1.4594 H   0  0  0  0  0  0  0  0  0  0  0  0
  1  4  1  0  0  0  0
  1 15  1  0  0  0  0
  1 26  1  0  0  0  0
  2  1  2  0  0  0  0
  3 33  1  0  0  0  0
  4  5  1  0  0  0  0
  5 33  2  0  0  0  0
  5  6  1  0  0  0  0
  7  9  1  0  0  0  0
  7  4  2  0  0  0  0
  8  7  1  0  0  0  0
  9  3  1  0  0  0  0
 10  9  1  0  0  0  0
 11 26  2  0  0  0  0
 11 16  1  0  0  0  0
 12 11  1  0  0  0  0
 13 14  1  0  0  0  0
 13 18  1  0  0  0  0
 15 20  1  0  0  0  0
 16 24  2  0  0  0  0
 17 16  1  0  0  0  0
 18 19  1  0  0  0  0
 20 18  2  0  0  0  0
 20 21  1  0  0  0  0
 22 31  1  0  0  0  0
 22 15  2  0  0  0  0
 23 22  1  0  0  0  0
 24 25  1  0  0  0  0
 24 29  1  0  0  0  0
 26 27  1  0  0  0  0
 27 28  1  0  0  0  0
 27 29  2  0  0  0  0
 29 30  1  0  0  0  0
 31 13  2  0  0  0  0
 32 31  1  0  0  0  0
 33 34  1  0  0  0  0
M  END
