3
 OpenBabel05122313063D

 29 29  0  0  1  0  0  0  0  0999 V2000
    0.1789    2.3475    0.1948 C   0  0  1  0  0  0  0  0  0  0  0  0
    0.2989    2.0192   -0.8570 H   0  0  0  0  0  0  0  0  0  0  0  0
   -0.3453    1.2029    0.9681 N   0  0  0  0  0  0  0  0  0  0  0  0
   -1.3726    1.2835    1.0328 H   0  0  0  0  0  0  0  0  0  0  0  0
    0.0107    1.2547    1.9411 H   0  0  0  0  0  0  0  0  0  0  0  0
    1.8082    2.6932    1.9531 O   0  0  0  0  0  0  0  0  0  0  0  0
    2.3492    3.2003   -0.1976 O   0  0  0  0  0  0  0  0  0  0  0  0
   -3.2388    3.3155    0.6556 C   0  0  0  0  0  0  0  0  0  0  0  0
   -3.0651    3.5841    1.7100 H   0  0  0  0  0  0  0  0  0  0  0  0
   -3.6822    2.6334   -2.0228 C   0  0  0  0  0  0  0  0  0  0  0  0
   -3.8471    2.3531   -3.0740 H   0  0  0  0  0  0  0  0  0  0  0  0
   -4.7632    2.6745   -1.1254 C   0  0  0  0  0  0  0  0  0  0  0  0
   -5.7805    2.4398   -1.4746 H   0  0  0  0  0  0  0  0  0  0  0  0
   -2.3866    2.9378   -1.5835 C   0  0  0  0  0  0  0  0  0  0  0  0
   -1.5446    2.8728   -2.2884 H   0  0  0  0  0  0  0  0  0  0  0  0
   -0.7481    3.5891    0.2452 C   0  0  0  0  0  0  0  0  0  0  0  0
   -0.7769    3.9752    1.2857 H   0  0  0  0  0  0  0  0  0  0  0  0
   -0.2818    4.3753   -0.3846 H   0  0  0  0  0  0  0  0  0  0  0  0
   -2.1491    3.2913   -0.2379 C   0  0  0  0  0  0  0  0  0  0  0  0
    1.5313    2.7419    0.7663 C   0  0  0  0  0  0  0  0  0  0  0  0
    3.6589    3.6529    0.2191 C   0  0  0  0  0  0  0  0  0  0  0  0
    4.0265    2.9755    1.0160 H   0  0  0  0  0  0  0  0  0  0  0  0
    3.5522    4.6647    0.6670 H   0  0  0  0  0  0  0  0  0  0  0  0
    4.5579    3.6562   -0.9988 C   0  0  0  0  0  0  0  0  0  0  0  0
    5.5678    4.0190   -0.7222 H   0  0  0  0  0  0  0  0  0  0  0  0
    4.1569    4.3170   -1.7926 H   0  0  0  0  0  0  0  0  0  0  0  0
    4.6540    2.6321   -1.4106 H   0  0  0  0  0  0  0  0  0  0  0  0
   -4.5381    3.0123    0.2173 C   0  0  0  0  0  0  0  0  0  0  0  0
   -5.3761    3.0395    0.9301 H   0  0  0  0  0  0  0  0  0  0  0  0
  1  2  1  6  0  0  0
  1 16  1  0  0  0  0
  1 20  1  0  0  0  0
  1  3  1  0  0  0  0
  3  4  1  0  0  0  0
  3  5  1  0  0  0  0
  7 21  1  0  0  0  0
  7 20  1  0  0  0  0
  8  9  1  0  0  0  0
 10 14  2  0  0  0  0
 10 12  1  0  0  0  0
 11 10  1  0  0  0  0
 12 28  2  0  0  0  0
 13 12  1  0  0  0  0
 14 19  1  0  0  0  0
 15 14  1  0  0  0  0
 16 17  1  0  0  0  0
 18 16  1  0  0  0  0
 19 16  1  0  0  0  0
 19  8  2  0  0  0  0
 20  6  2  0  0  0  0
 21 23  1  0  0  0  0
 21 22  1  0  0  0  0
 24 25  1  0  0  0  0
 24 21  1  0  0  0  0
 26 24  1  0  0  0  0
 27 24  1  0  0  0  0
 28  8  1  0  0  0  0
 28 29  1  0  0  0  0
M  END
