3
 OpenBabel05122313063D

 29 28  0  0  0  0  0  0  0  0999 V2000
   -1.6585    1.7358   -1.6152 Si  0  0  0  0  0  0  0  0  0  0  0  0
   -3.5334   -0.8901    0.7724 Si  0  0  0  0  0  0  0  0  0  0  0  0
   -1.3193    0.4429   -0.4353 N   0  0  0  0  0  2  0  0  0  0  0  0
   -2.1208   -0.7351   -0.3638 N   0  0  0  0  0  0  0  0  0  0  0  0
   -2.4013    0.9036   -3.1408 C   0  0  0  0  0  0  0  0  0  0  0  0
   -3.4059    0.4802   -2.9358 H   0  0  0  0  0  0  0  0  0  0  0  0
   -1.7366    0.0825   -3.4820 H   0  0  0  0  0  0  0  0  0  0  0  0
   -2.5084    1.6301   -3.9722 H   0  0  0  0  0  0  0  0  0  0  0  0
   -2.8652    3.0023   -0.8940 C   0  0  0  0  0  0  0  0  0  0  0  0
   -2.4507    3.4698    0.0223 H   0  0  0  0  0  0  0  0  0  0  0  0
   -3.8347    2.5368   -0.6251 H   0  0  0  0  0  0  0  0  0  0  0  0
   -3.0711    3.8102   -1.6267 H   0  0  0  0  0  0  0  0  0  0  0  0
   -0.0224    2.5646   -2.0310 C   0  0  0  0  0  0  0  0  0  0  0  0
    0.4445    3.0133   -1.1330 H   0  0  0  0  0  0  0  0  0  0  0  0
   -0.1788    3.3706   -2.7771 H   0  0  0  0  0  0  0  0  0  0  0  0
    0.6894    1.8266   -2.4483 H   0  0  0  0  0  0  0  0  0  0  0  0
   -5.0802   -0.3167   -0.1538 C   0  0  0  0  0  0  0  0  0  0  0  0
   -5.2352   -0.9095   -1.0791 H   0  0  0  0  0  0  0  0  0  0  0  0
   -5.0194    0.7527   -0.4394 H   0  0  0  0  0  0  0  0  0  0  0  0
   -5.9831   -0.4456    0.4789 H   0  0  0  0  0  0  0  0  0  0  0  0
   -3.1803    0.1945    2.2594 C   0  0  0  0  0  0  0  0  0  0  0  0
   -3.0469    1.2502    1.9513 H   0  0  0  0  0  0  0  0  0  0  0  0
   -2.2555   -0.1506    2.7621 H   0  0  0  0  0  0  0  0  0  0  0  0
   -4.0204    0.1435    2.9816 H   0  0  0  0  0  0  0  0  0  0  0  0
   -3.6671   -2.7229    1.1620 C   0  0  0  0  0  0  0  0  0  0  0  0
   -2.7551   -3.0596    1.6931 H   0  0  0  0  0  0  0  0  0  0  0  0
   -3.7703   -3.3201    0.2325 H   0  0  0  0  0  0  0  0  0  0  0  0
   -4.5531   -2.9308    1.7964 H   0  0  0  0  0  0  0  0  0  0  0  0
   -2.2512   -1.1861   -1.2888 H   0  0  0  0  0  0  0  0  0  0  0  0
  1  9  1  0  0  0  0
  1  3  1  0  0  0  0
  2 25  1  0  0  0  0
  2 21  1  0  0  0  0
  3  4  1  0  0  0  0
  4  2  1  0  0  0  0
  5  6  1  0  0  0  0
  5  1  1  0  0  0  0
  7  5  1  0  0  0  0
  8  5  1  0  0  0  0
  9 11  1  0  0  0  0
  9 10  1  0  0  0  0
 12  9  1  0  0  0  0
 13  1  1  0  0  0  0
 13 14  1  0  0  0  0
 15 13  1  0  0  0  0
 16 13  1  0  0  0  0
 17 20  1  0  0  0  0
 17  2  1  0  0  0  0
 18 17  1  0  0  0  0
 19 17  1  0  0  0  0
 21 23  1  0  0  0  0
 21 24  1  0  0  0  0
 22 21  1  0  0  0  0
 25 26  1  0  0  0  0
 25 28  1  0  0  0  0
 27 25  1  0  0  0  0
 29  4  1  0  0  0  0
M  END
