16
 OpenBabel05122313063D

 19 20  0  0  1  0  0  0  0  0999 V2000
   -2.1838   -0.3677    0.7692 C   0  0  0  0  0  0  0  0  0  0  0  0
   -1.7862   -0.6381    1.7618 H   0  0  0  0  0  0  0  0  0  0  0  0
   -3.2980   -1.0861    0.2556 C   0  0  0  0  0  0  0  0  0  0  0  0
   -3.8908   -2.1544    0.9837 C   0  0  0  0  0  0  0  0  0  0  0  0
   -3.4836   -2.4300    1.9673 H   0  0  0  0  0  0  0  0  0  0  0  0
   -4.9749   -2.8194    0.4285 C   0  0  0  0  0  0  0  0  0  0  0  0
   -5.4489   -3.6502    0.9726 H   0  0  0  0  0  0  0  0  0  0  0  0
   -5.5046   -2.4392   -0.8265 C   0  0  0  0  0  0  0  0  0  0  0  0
   -6.3780   -2.9765   -1.2286 H   0  0  0  0  0  0  0  0  0  0  0  0
   -4.9565   -1.3849   -1.5726 C   0  0  0  0  0  0  0  0  0  0  0  0
   -3.8081   -0.6962   -1.0341 C   0  0  2  0  0  3  0  0  0  0  0  0
   -3.1345    0.3579   -1.7091 C   0  0  0  0  0  0  0  0  0  0  0  0
   -3.4462    0.6886   -2.7104 H   0  0  0  0  0  0  0  0  0  0  0  0
   -2.0487    0.9847   -1.1225 C   0  0  0  0  0  0  0  0  0  0  0  0
   -1.5284    1.8137   -1.6235 H   0  0  0  0  0  0  0  0  0  0  0  0
   -1.5832    0.6241    0.1121 N   0  0  0  0  0  2  0  0  0  0  0  0
   -5.4598   -1.0359   -2.8092 N   0  0  0  0  0  0  0  0  0  0  0  0
   -6.3723   -1.4184   -3.0562 H   0  0  0  0  0  0  0  0  0  0  0  0
   -5.3227   -0.0763   -3.1252 H   0  0  0  0  0  0  0  0  0  0  0  0
  1  2  1  0  0  0  0
  3  1  2  0  0  0  0
  3  4  1  0  0  0  0
  4  5  1  0  0  0  0
  6  7  1  0  0  0  0
  6  4  2  0  0  0  0
  8  6  1  0  0  0  0
  9  8  1  0  0  0  0
 10 11  1  0  0  0  0
 10  8  2  0  0  0  0
 11 12  1  6  0  0  0
 11  3  1  0  0  0  0
 12 14  2  0  0  0  0
 13 12  1  0  0  0  0
 14 16  1  0  0  0  0
 15 14  1  0  0  0  0
 16  1  1  0  0  0  0
 17 10  1  0  0  0  0
 18 17  1  0  0  0  0
 19 17  1  0  0  0  0
M  END
