2
 OpenBabel05122313063D

 51 53  0  0  0  0  0  0  0  0999 V2000
   -0.3049    1.1554   -0.0227 P   0  0  0  0  0  0  0  0  0  0  0  0
   -1.1510   -1.7035    0.5844 N   0  0  0  0  0  2  0  0  0  0  0  0
   -2.3554   -1.4408   -0.0030 N   0  0  0  0  0  0  0  0  0  0  0  0
   -2.5578   -0.3408   -1.1381 B   0  0  1  0  0  0  0  0  0  0  0  0
    0.4088    2.4431   -1.1355 C   0  0  0  0  0  0  0  0  0  0  0  0
    0.0308    2.4846   -2.4943 C   0  0  0  0  0  0  0  0  0  0  0  0
   -0.7381    1.7948   -2.8706 H   0  0  0  0  0  0  0  0  0  0  0  0
    0.6250    3.4025   -3.3731 C   0  0  0  0  0  0  0  0  0  0  0  0
    0.3128    3.4228   -4.4284 H   0  0  0  0  0  0  0  0  0  0  0  0
    1.6083    4.2915   -2.9113 C   0  0  0  0  0  0  0  0  0  0  0  0
    2.0733    5.0112   -3.6019 H   0  0  0  0  0  0  0  0  0  0  0  0
    1.9921    4.2580   -1.5615 C   0  0  0  0  0  0  0  0  0  0  0  0
    2.7590    4.9533   -1.1873 H   0  0  0  0  0  0  0  0  0  0  0  0
    1.3990    3.3419   -0.6799 C   0  0  0  0  0  0  0  0  0  0  0  0
    1.7032    3.3314    0.3774 H   0  0  0  0  0  0  0  0  0  0  0  0
   -0.2974    2.0191    1.6121 C   0  0  0  0  0  0  0  0  0  0  0  0
    0.0935    1.3356    2.7769 C   0  0  0  0  0  0  0  0  0  0  0  0
    0.4482    0.3009    2.6852 H   0  0  0  0  0  0  0  0  0  0  0  0
    0.0210    1.9648    4.0308 C   0  0  0  0  0  0  0  0  0  0  0  0
    0.3294    1.4175    4.9347 H   0  0  0  0  0  0  0  0  0  0  0  0
   -0.4440    3.2840    4.1297 C   0  0  0  0  0  0  0  0  0  0  0  0
   -0.4986    3.7796    5.1110 H   0  0  0  0  0  0  0  0  0  0  0  0
   -0.8471    3.9707    2.9710 C   0  0  0  0  0  0  0  0  0  0  0  0
   -1.2197    5.0040    3.0436 H   0  0  0  0  0  0  0  0  0  0  0  0
   -0.7800    3.3425    1.7202 C   0  0  0  0  0  0  0  0  0  0  0  0
   -1.1014    3.8847    0.8175 H   0  0  0  0  0  0  0  0  0  0  0  0
   -2.0935    1.0788   -0.4510 C   0  0  0  0  0  0  0  0  0  0  0  0
   -2.6362    1.2291    0.5046 H   0  0  0  0  0  0  0  0  0  0  0  0
   -2.3289    1.9481   -1.0995 H   0  0  0  0  0  0  0  0  0  0  0  0
   -1.3798   -2.5199    1.6438 C   0  0  0  0  0  3  0  0  0  0  0  0
   -0.5584   -2.8657    2.2771 H   0  0  0  0  0  0  0  0  0  0  0  0
   -2.7482   -2.7980    1.7419 C   0  0  0  0  0  0  0  0  0  0  0  0
   -3.2532   -3.4207    2.4862 H   0  0  0  0  0  0  0  0  0  0  0  0
   -3.3258   -2.0916    0.6806 C   0  0  0  0  0  0  0  0  0  0  0  0
   -4.3744   -1.9699    0.3961 H   0  0  0  0  0  0  0  0  0  0  0  0
   -1.6647   -0.7312   -2.4575 C   0  0  0  0  0  0  0  0  0  0  0  0
   -2.1528   -1.6009   -2.9512 H   0  0  0  0  0  0  0  0  0  0  0  0
   -1.7801    0.1096   -3.1761 H   0  0  0  0  0  0  0  0  0  0  0  0
   -0.1964   -1.0457   -2.2825 C   0  0  0  0  0  3  0  0  0  0  0  0
    0.5102   -0.4475   -2.8871 H   0  0  0  0  0  0  0  0  0  0  0  0
    0.2459   -2.3418   -1.8926 C   0  0  0  0  0  3  0  0  0  0  0  0
    1.1704   -2.7703   -2.3076 H   0  0  0  0  0  0  0  0  0  0  0  0
   -0.5177   -3.0900   -1.6185 H   0  0  0  0  0  0  0  0  0  0  0  0
   -4.1426   -0.2734   -1.5978 C   0  0  0  0  0  0  0  0  0  0  0  0
   -4.1162    0.3807   -2.5015 H   0  0  0  0  0  0  0  0  0  0  0  0
   -4.4847   -1.2683   -1.9627 H   0  0  0  0  0  0  0  0  0  0  0  0
   -5.1449    0.3006   -0.6494 C   0  0  0  0  0  0  0  0  0  0  0  0
   -4.9164    1.3133   -0.2643 H   0  0  0  0  0  0  0  0  0  0  0  0
   -6.2779   -0.2867   -0.2125 C   0  0  0  0  0  0  0  0  0  0  0  0
   -6.5774   -1.2890   -0.5671 H   0  0  0  0  0  0  0  0  0  0  0  0
   -6.9511    0.2092    0.5043 H   0  0  0  0  0  0  0  0  0  0  0  0
  1 16  1  0  0  0  0
  2 30  1  0  0  0  0
  3  2  1  0  0  0  0
  3 34  1  0  0  0  0
  4 36  1  6  0  0  0
  4 27  1  0  0  0  0
  4  3  1  0  0  0  0
  5 14  1  0  0  0  0
  5  1  1  0  0  0  0
  6  5  2  0  0  0  0
  7  6  1  0  0  0  0
  8 10  2  0  0  0  0
  8  6  1  0  0  0  0
  9  8  1  0  0  0  0
 10 12  1  0  0  0  0
 11 10  1  0  0  0  0
 12 13  1  0  0  0  0
 12 14  2  0  0  0  0
 14 15  1  0  0  0  0
 16 25  2  0  0  0  0
 16 17  1  0  0  0  0
 17 19  2  0  0  0  0
 18 17  1  0  0  0  0
 19 21  1  0  0  0  0
 19 20  1  0  0  0  0
 21 22  1  0  0  0  0
 23 24  1  0  0  0  0
 23 21  2  0  0  0  0
 25 23  1  0  0  0  0
 26 25  1  0  0  0  0
 27  1  1  0  0  0  0
 27 28  1  0  0  0  0
 29 27  1  0  0  0  0
 30 32  1  0  0  0  0
 30 31  1  0  0  0  0
 32 33  1  0  0  0  0
 34 32  2  0  0  0  0
 35 34  1  0  0  0  0
 36 39  1  0  0  0  0
 37 36  1  0  0  0  0
 38 36  1  0  0  0  0
 39 41  1  0  0  0  0
 40 39  1  0  0  0  0
 41 43  1  0  0  0  0
 42 41  1  0  0  0  0
 44  4  1  0  0  0  0
 44 47  1  0  0  0  0
 45 44  1  0  0  0  0
 46 44  1  0  0  0  0
 47 48  1  0  0  0  0
 47 49  2  0  0  0  0
 49 51  1  0  0  0  0
 50 49  1  0  0  0  0
M  END
