2
 OpenBabel05122313063D

 17 18  0  0  0  0  0  0  0  0999 V2000
    0.1827   -2.4725   -0.9584 S   0  0  0  0  0  0  0  0  0  0  0  0
   -1.3487   -0.6349   -0.1210 N   0  0  0  0  0  0  0  0  0  0  0  0
   -1.4053   -1.9072   -0.5769 C   0  0  0  0  0  0  0  0  0  0  0  0
   -2.6519   -2.5885   -0.7069 C   0  0  0  0  0  0  0  0  0  0  0  0
   -2.6588   -3.6257   -1.0691 H   0  0  0  0  0  0  0  0  0  0  0  0
   -3.8101   -1.9168   -0.3720 C   0  0  0  0  0  0  0  0  0  0  0  0
   -4.7881   -2.4175   -0.4475 H   0  0  0  0  0  0  0  0  0  0  0  0
   -4.9285    0.2097    0.3507 C   0  0  0  0  0  0  0  0  0  0  0  0
   -5.9103   -0.2855    0.2915 H   0  0  0  0  0  0  0  0  0  0  0  0
   -4.8339    1.5535    0.6963 C   0  0  0  0  0  0  0  0  0  0  0  0
   -5.7419    2.1316    0.9221 H   0  0  0  0  0  0  0  0  0  0  0  0
   -3.5659    2.1865    0.7321 C   0  0  0  0  0  0  0  0  0  0  0  0
   -3.4986    3.2594    0.9679 H   0  0  0  0  0  0  0  0  0  0  0  0
   -2.4053    1.4726    0.4552 C   0  0  0  0  0  0  0  0  0  0  0  0
   -1.4199    1.9567    0.4396 H   0  0  0  0  0  0  0  0  0  0  0  0
   -2.4800    0.0932    0.1320 C   0  0  0  0  0  0  0  0  0  0  0  0
   -3.7663   -0.5486    0.0476 C   0  0  0  0  0  3  0  0  0  0  0  0
  1  3  2  0  0  0  0
  2 16  2  0  0  0  0
  3  2  1  0  0  0  0
  4  3  1  0  0  0  0
  4  6  2  0  0  0  0
  5  4  1  0  0  0  0
  6 17  1  0  0  0  0
  7  6  1  0  0  0  0
  8 10  2  0  0  0  0
  9  8  1  0  0  0  0
 10 12  1  0  0  0  0
 10 11  1  0  0  0  0
 12 13  1  0  0  0  0
 14 12  2  0  0  0  0
 15 14  1  0  0  0  0
 16 14  1  0  0  0  0
 17 16  1  0  0  0  0
 17  8  1  0  0  0  0
M  END
