1
 OpenBabel05122313063D

 18 17  0  0  0  0  0  0  0  0999 V2000
    0.9042   -0.3957   -1.2268 N   0  0  0  0  0  0  0  0  0  0  0  0
    0.1912   -1.1495   -1.2652 H   0  0  0  0  0  0  0  0  0  0  0  0
    0.7960    0.0807   -2.1335 H   0  0  0  0  0  0  0  0  0  0  0  0
    2.3069   -0.8286   -1.0986 C   0  0  0  0  0  0  0  0  0  0  0  0
    2.9229    0.0921   -1.1177 H   0  0  0  0  0  0  0  0  0  0  0  0
    2.6135   -1.4602   -1.9622 H   0  0  0  0  0  0  0  0  0  0  0  0
    2.6278   -1.5996    0.2005 C   0  0  0  0  0  0  0  0  0  0  0  0
    1.9864   -0.8940    1.3273 N   0  0  0  0  0  0  0  0  0  0  0  0
    2.2036    0.1176    1.2485 H   0  0  0  0  0  0  0  0  0  0  0  0
    2.4016   -1.2211    2.2101 H   0  0  0  0  0  0  0  0  0  0  0  0
    2.0772   -3.0335    0.1435 C   0  0  0  0  0  0  0  0  0  0  0  0
    0.9837   -3.0398   -0.0366 H   0  0  0  0  0  0  0  0  0  0  0  0
    2.2572   -3.5590    1.1038 H   0  0  0  0  0  0  0  0  0  0  0  0
    2.5633   -3.6210   -0.6606 H   0  0  0  0  0  0  0  0  0  0  0  0
    4.1627   -1.6422    0.3420 C   0  0  0  0  0  0  0  0  0  0  0  0
    4.5708   -0.6173    0.4516 H   0  0  0  0  0  0  0  0  0  0  0  0
    4.6471   -2.1152   -0.5376 H   0  0  0  0  0  0  0  0  0  0  0  0
    4.4521   -2.2296    1.2379 H   0  0  0  0  0  0  0  0  0  0  0  0
  1  4  1  0  0  0  0
  2  1  1  0  0  0  0
  3  1  1  0  0  0  0
  4  7  1  0  0  0  0
  5  4  1  0  0  0  0
  6  4  1  0  0  0  0
  7 15  1  0  0  0  0
  7  8  1  0  0  0  0
  8 10  1  0  0  0  0
  9  8  1  0  0  0  0
 11  7  1  0  0  0  0
 11 13  1  0  0  0  0
 12 11  1  0  0  0  0
 14 11  1  0  0  0  0
 15 16  1  0  0  0  0
 15 18  1  0  0  0  0
 17 15  1  0  0  0  0
M  END
