2
 OpenBabel05122313063D

 42 45  0  0  1  0  0  0  0  0999 V2000
   -0.7846   -2.4490    0.2534 S   0  0  0  0  0  0  0  0  0  0  0  0
   -0.3342    0.1807   -0.1481 N   0  0  0  0  0  2  0  0  0  0  0  0
   -2.5940   -0.5728    0.0243 N   0  0  0  0  0  0  0  0  0  0  0  0
   -1.2248   -0.7532    0.0233 C   0  0  1  0  0  3  0  0  0  0  0  0
   -2.4996   -2.8680    0.4522 C   0  0  0  0  0  0  0  0  0  0  0  0
   -3.0548   -4.1241    0.7158 C   0  0  0  0  0  0  0  0  0  0  0  0
   -2.4085   -5.0054    0.8388 H   0  0  0  0  0  0  0  0  0  0  0  0
   -4.4533   -4.2370    0.8164 C   0  0  0  0  0  0  0  0  0  0  0  0
   -4.9035   -5.2190    1.0223 H   0  0  0  0  0  0  0  0  0  0  0  0
   -5.2745   -3.1080    0.6578 C   0  0  0  0  0  0  0  0  0  0  0  0
   -6.3663   -3.2096    0.7444 H   0  0  0  0  0  0  0  0  0  0  0  0
   -4.7234   -1.8421    0.3939 C   0  0  0  0  0  0  0  0  0  0  0  0
   -5.3702   -0.9604    0.2829 H   0  0  0  0  0  0  0  0  0  0  0  0
   -3.3289   -1.7295    0.2864 C   0  0  0  0  0  0  0  0  0  0  0  0
   -3.1707    0.7189   -0.3360 C   0  0  0  0  0  0  0  0  0  0  0  0
   -3.4829    1.2716    0.5792 H   0  0  0  0  0  0  0  0  0  0  0  0
   -4.0798    0.5202   -0.9354 H   0  0  0  0  0  0  0  0  0  0  0  0
   -2.1591    1.5324   -1.1504 C   0  0  2  0  0  0  0  0  0  0  0  0
   -1.9641    0.9728   -2.0934 H   0  0  0  0  0  0  0  0  0  0  0  0
   -0.7871    1.5534   -0.4175 C   0  0  1  0  0  0  0  0  0  0  0  0
   -0.0459    1.9650   -1.1288 H   0  0  0  0  0  0  0  0  0  0  0  0
   -2.6834    2.9369   -1.5290 C   0  0  0  0  0  0  0  0  0  0  0  0
   -2.7064    3.5490   -0.5989 H   0  0  0  0  0  0  0  0  0  0  0  0
   -4.1096    2.8925   -2.0988 C   0  0  0  0  0  0  0  0  0  0  0  0
   -4.1678    2.2174   -2.9792 H   0  0  0  0  0  0  0  0  0  0  0  0
   -4.4217    3.9013   -2.4351 H   0  0  0  0  0  0  0  0  0  0  0  0
   -4.8600    2.5539   -1.3568 H   0  0  0  0  0  0  0  0  0  0  0  0
   -1.7471    3.6212   -2.5355 C   0  0  0  0  0  0  0  0  0  0  0  0
   -2.1237    4.6304   -2.7965 H   0  0  0  0  0  0  0  0  0  0  0  0
   -1.6783    3.0302   -3.4725 H   0  0  0  0  0  0  0  0  0  0  0  0
   -0.7165    3.7424   -2.1516 H   0  0  0  0  0  0  0  0  0  0  0  0
   -0.7538    2.3910    0.8530 C   0  0  0  0  0  0  0  0  0  0  0  0
   -0.2202    3.6944    0.8240 C   0  0  0  0  0  0  0  0  0  0  0  0
    0.1947    4.0863   -0.1173 H   0  0  0  0  0  0  0  0  0  0  0  0
   -0.1920    4.4884    1.9803 C   0  0  0  0  0  0  0  0  0  0  0  0
    0.2350    5.5019    1.9363 H   0  0  0  0  0  0  0  0  0  0  0  0
   -0.6921    3.9864    3.1915 C   0  0  0  0  0  0  0  0  0  0  0  0
   -0.6652    4.6048    4.1014 H   0  0  0  0  0  0  0  0  0  0  0  0
   -1.2112    2.6830    3.2380 C   0  0  0  0  0  0  0  0  0  0  0  0
   -1.5880    2.2726    4.1872 H   0  0  0  0  0  0  0  0  0  0  0  0
   -1.2382    1.8916    2.0801 C   0  0  0  0  0  0  0  0  0  0  0  0
   -1.6117    0.8588    2.1444 H   0  0  0  0  0  0  0  0  0  0  0  0
  1  5  1  0  0  0  0
  3 14  1  0  0  0  0
  4  2  1  6  0  0  0
  4  3  1  0  0  0  0
  4  1  1  0  0  0  0
  5  6  1  0  0  0  0
  6  8  2  0  0  0  0
  6  7  1  0  0  0  0
  8  9  1  0  0  0  0
 10 11  1  0  0  0  0
 10  8  1  0  0  0  0
 12 10  2  0  0  0  0
 13 12  1  0  0  0  0
 14 12  1  0  0  0  0
 14  5  2  0  0  0  0
 15  3  1  0  0  0  0
 15 16  1  0  0  0  0
 17 15  1  0  0  0  0
 18 19  1  6  0  0  0
 18 20  1  0  0  0  0
 18 15  1  0  0  0  0
 20 21  1  6  0  0  0
 20  2  1  0  0  0  0
 20 32  1  0  0  0  0
 22 18  1  0  0  0  0
 22 23  1  0  0  0  0
 24 22  1  0  0  0  0
 24 27  1  0  0  0  0
 25 24  1  0  0  0  0
 26 24  1  0  0  0  0
 28 31  1  0  0  0  0
 28 22  1  0  0  0  0
 29 28  1  0  0  0  0
 30 28  1  0  0  0  0
 32 41  1  0  0  0  0
 33 32  2  0  0  0  0
 33 35  1  0  0  0  0
 34 33  1  0  0  0  0
 35 37  2  0  0  0  0
 36 35  1  0  0  0  0
 37 39  1  0  0  0  0
 37 38  1  0  0  0  0
 39 40  1  0  0  0  0
 41 42  1  0  0  0  0
 41 39  2  0  0  0  0
M  END
