2
 OpenBabel05122313063D

 15 15  0  0  0  0  0  0  0  0999 V2000
   -2.1156    1.3203    1.0710 O   0  0  0  0  0  0  0  0  0  0  0  0
   -1.4417    1.2769   -0.2130 N   0  0  0  0  0  0  0  0  0  0  0  0
   -3.4511    1.8288    0.9308 C   0  0  0  0  0  0  0  0  0  0  0  0
   -3.4495    3.2597    0.4049 C   0  0  0  0  0  0  0  0  0  0  0  0
   -2.6809    3.3117   -0.9195 C   0  0  0  0  0  0  0  0  0  0  0  0
   -1.3134    2.6441   -0.7678 C   0  0  0  0  0  0  0  0  0  0  0  0
   -2.0700    0.7113   -0.8222 H   0  0  0  0  0  0  0  0  0  0  0  0
   -4.0394    1.1546    0.2578 H   0  0  0  0  0  0  0  0  0  0  0  0
   -3.8775    1.7503    1.9507 H   0  0  0  0  0  0  0  0  0  0  0  0
   -4.4918    3.6214    0.2840 H   0  0  0  0  0  0  0  0  0  0  0  0
   -2.9563    3.9124    1.1556 H   0  0  0  0  0  0  0  0  0  0  0  0
   -3.2642    2.7923   -1.7137 H   0  0  0  0  0  0  0  0  0  0  0  0
   -2.5408    4.3562   -1.2646 H   0  0  0  0  0  0  0  0  0  0  0  0
   -0.6360    3.1990   -0.0895 H   0  0  0  0  0  0  0  0  0  0  0  0
   -0.7784    2.5348   -1.7315 H   0  0  0  0  0  0  0  0  0  0  0  0
  2  1  1  0  0  0  0
  3  1  1  0  0  0  0
  3  9  1  0  0  0  0
  4  3  1  0  0  0  0
  4 11  1  0  0  0  0
  5  6  1  0  0  0  0
  5  4  1  0  0  0  0
  6  2  1  0  0  0  0
  6 14  1  0  0  0  0
  7  2  1  0  0  0  0
  8  3  1  0  0  0  0
 10  4  1  0  0  0  0
 12  5  1  0  0  0  0
 13  5  1  0  0  0  0
 15  6  1  0  0  0  0
M  END
