4
 OpenBabel05122313063D

 14 15  0  0  1  0  0  0  0  0999 V2000
   -3.0126    2.2141   -1.6801 N   0  0  0  0  0  0  0  0  0  0  0  0
   -1.7638    1.8123   -1.5187 C   0  0  0  0  0  0  0  0  0  0  0  0
   -0.9237    2.1560   -2.1355 H   0  0  0  0  0  0  0  0  0  0  0  0
   -1.5923    0.8904   -0.5058 N   0  0  0  0  0  2  0  0  0  0  0  0
   -2.8233    0.7092   -0.0048 C   0  0  1  0  0  3  0  0  0  0  0  0
   -3.2757   -0.0672    0.9983 N   0  0  0  0  0  0  0  0  0  0  0  0
   -2.6041   -0.7000    1.5305 H   0  0  0  0  0  0  0  0  0  0  0  0
   -4.6538   -0.1599    1.3311 C   0  0  0  0  0  0  0  0  0  0  0  0
   -5.0314   -0.9261    2.2065 O   0  0  0  0  0  0  0  0  0  0  0  0
   -5.5230    0.7323    0.5389 C   0  0  0  0  0  0  0  0  0  0  0  0
   -6.5939    0.7131    0.7756 H   0  0  0  0  0  0  0  0  0  0  0  0
   -5.0392    1.5336   -0.4509 C   0  0  0  0  0  0  0  0  0  0  0  0
   -5.6323    2.2100   -1.0816 H   0  0  0  0  0  0  0  0  0  0  0  0
   -3.6827    1.5116   -0.7152 N   0  0  0  0  0  0  0  0  0  0  0  0
  1  2  2  0  0  0  0
  1 14  1  0  0  0  0
  2  4  1  0  0  0  0
  3  2  1  0  0  0  0
  5  4  1  1  0  0  0
  5  6  1  0  0  0  0
  6  8  1  0  0  0  0
  6  7  1  0  0  0  0
  8  9  2  0  0  0  0
 10 11  1  0  0  0  0
 10  8  1  0  0  0  0
 12 10  2  0  0  0  0
 13 12  1  0  0  0  0
 14 12  1  0  0  0  0
 14  5  1  0  0  0  0
M  END
