1
 OpenBabel05122313063D

 26 27  0  0  0  0  0  0  0  0999 V2000
    0.0563    0.9734    0.3832 N   0  0  0  0  0  2  0  0  0  0  0  0
    4.2878   -2.7474    0.0115 N   0  0  0  0  0  0  0  0  0  0  0  0
    0.4745    1.9931   -0.4084 C   0  0  0  0  0  3  0  0  0  0  0  0
   -0.2650    2.3892   -1.1188 H   0  0  0  0  0  0  0  0  0  0  0  0
    1.7733    2.5030   -0.3687 C   0  0  0  0  0  0  0  0  0  0  0  0
    2.0526    3.3094   -1.0636 H   0  0  0  0  0  0  0  0  0  0  0  0
    2.7174    1.9585    0.5227 C   0  0  0  0  0  0  0  0  0  0  0  0
    2.2545    0.9522    1.3907 C   0  0  0  0  0  0  0  0  0  0  0  0
    2.9312    0.4857    2.1214 H   0  0  0  0  0  0  0  0  0  0  0  0
    0.9398    0.4949    1.2940 C   0  0  0  0  0  0  0  0  0  0  0  0
    0.5777   -0.3148    1.9429 H   0  0  0  0  0  0  0  0  0  0  0  0
    4.1761    2.3189    0.4468 C   0  0  0  0  0  0  0  0  0  0  0  0
    4.6669    2.1123    1.4196 H   0  0  0  0  0  0  0  0  0  0  0  0
    4.2996    3.4007    0.2339 H   0  0  0  0  0  0  0  0  0  0  0  0
    4.8939    1.5039   -0.6699 C   0  0  0  0  0  0  0  0  0  0  0  0
    4.4848    1.8095   -1.6550 H   0  0  0  0  0  0  0  0  0  0  0  0
    5.9695    1.7753   -0.6630 H   0  0  0  0  0  0  0  0  0  0  0  0
    4.7272    0.0142   -0.4896 C   0  0  0  0  0  0  0  0  0  0  0  0
    5.5707   -0.7220    0.3635 C   0  0  0  0  0  0  0  0  0  0  0  0
    6.4254   -0.2377    0.8629 H   0  0  0  0  0  0  0  0  0  0  0  0
    5.3122   -2.0863    0.5735 C   0  0  0  0  0  0  0  0  0  0  0  0
    5.9715   -2.6755    1.2367 H   0  0  0  0  0  0  0  0  0  0  0  0
    3.4844   -2.0485   -0.8069 C   0  0  0  0  0  0  0  0  0  0  0  0
    2.6368   -2.5957   -1.2569 H   0  0  0  0  0  0  0  0  0  0  0  0
    3.6629   -0.6850   -1.0911 C   0  0  0  0  0  0  0  0  0  0  0  0
    2.9626   -0.1686   -1.7665 H   0  0  0  0  0  0  0  0  0  0  0  0
  1 10  1  0  0  0  0
  2 21  1  0  0  0  0
  3  5  1  0  0  0  0
  3  1  1  0  0  0  0
  4  3  1  0  0  0  0
  5  7  2  0  0  0  0
  6  5  1  0  0  0  0
  7  8  1  0  0  0  0
  8  9  1  0  0  0  0
 10  8  2  0  0  0  0
 10 11  1  0  0  0  0
 12  7  1  0  0  0  0
 12 13  1  0  0  0  0
 14 12  1  0  0  0  0
 15 17  1  0  0  0  0
 15 18  1  0  0  0  0
 15 12  1  0  0  0  0
 16 15  1  0  0  0  0
 18 19  1  0  0  0  0
 19 21  2  0  0  0  0
 19 20  1  0  0  0  0
 21 22  1  0  0  0  0
 23  2  2  0  0  0  0
 24 23  1  0  0  0  0
 25 23  1  0  0  0  0
 25 18  2  0  0  0  0
 26 25  1  0  0  0  0
M  END
