6
 OpenBabel05122313063D

 28 29  0  0  1  0  0  0  0  0999 V2000
   -0.5556   -0.1904   -1.2325 S   0  0  0  0  0  0  0  0  0  0  0  0
   -2.7078    0.8518   -0.0739 N   0  0  0  0  0  0  0  0  0  0  0  0
   -3.2234    1.7341    0.0102 H   0  0  0  0  0  0  0  0  0  0  0  0
   -0.7271    1.9179    0.4734 N   0  0  0  0  0  0  0  0  0  0  0  0
   -1.3354    2.4442    1.1085 H   0  0  0  0  0  0  0  0  0  0  0  0
    1.5869    1.7438   -0.1372 N   0  0  0  0  0  2  0  0  0  0  0  0
   -2.9260   -1.3955    0.4335 O   0  0  0  0  0  0  0  0  0  0  0  0
   -1.3380    0.9018   -0.2268 C   0  0  0  0  0  0  0  0  0  0  0  0
    0.5441    2.4784    0.3057 C   0  0  2  0  0  3  0  0  0  0  0  0
   -4.9389   -0.1664   -0.0029 C   0  0  0  0  0  0  0  0  0  0  0  0
   -3.4714   -0.3479    0.1281 C   0  0  0  0  0  0  0  0  0  0  0  0
    0.7262    3.8446    0.6320 C   0  0  0  0  0  0  0  0  0  0  0  0
   -0.1273    4.4377    1.0099 H   0  0  0  0  0  0  0  0  0  0  0  0
    1.8961    4.4612    0.4945 N   0  0  0  0  0  0  0  0  0  0  0  0
   -5.7667   -1.1535    0.5771 C   0  0  0  0  0  0  0  0  0  0  0  0
   -5.2927   -1.9955    1.1019 H   0  0  0  0  0  0  0  0  0  0  0  0
    2.7629    2.3862   -0.3389 C   0  0  0  0  0  0  0  0  0  0  0  0
    3.5667    1.7838   -0.7886 H   0  0  0  0  0  0  0  0  0  0  0  0
   -7.7339    0.0351   -0.2078 C   0  0  0  0  0  0  0  0  0  0  0  0
   -8.8284    0.1155   -0.2867 H   0  0  0  0  0  0  0  0  0  0  0  0
   -7.1575   -1.0474    0.4795 C   0  0  0  0  0  0  0  0  0  0  0  0
   -7.7995   -1.8135    0.9384 H   0  0  0  0  0  0  0  0  0  0  0  0
   -5.5241    0.9129   -0.7034 C   0  0  0  0  0  0  0  0  0  0  0  0
   -4.8991    1.6599   -1.2183 H   0  0  0  0  0  0  0  0  0  0  0  0
   -6.9174    1.0103   -0.8046 C   0  0  0  0  0  0  0  0  0  0  0  0
   -7.3696    1.8433   -1.3625 H   0  0  0  0  0  0  0  0  0  0  0  0
    2.9095    3.7395   -0.0119 C   0  0  0  0  0  0  0  0  0  0  0  0
    3.8756    4.2476   -0.1651 H   0  0  0  0  0  0  0  0  0  0  0  0
  1  8  2  0  0  0  0
  2  3  1  0  0  0  0
  2 11  1  0  0  0  0
  4  5  1  0  0  0  0
  6  9  1  0  0  0  0
  8  2  1  0  0  0  0
  8  4  1  0  0  0  0
  9  4  1  1  0  0  0
  9 12  1  0  0  0  0
 10 11  1  0  0  0  0
 10 15  1  0  0  0  0
 11  7  2  0  0  0  0
 12 13  1  0  0  0  0
 14 12  2  0  0  0  0
 15 16  1  0  0  0  0
 17  6  1  0  0  0  0
 17 27  2  0  0  0  0
 18 17  1  0  0  0  0
 19 21  1  0  0  0  0
 20 19  1  0  0  0  0
 21 15  2  0  0  0  0
 21 22  1  0  0  0  0
 23 10  2  0  0  0  0
 24 23  1  0  0  0  0
 25 23  1  0  0  0  0
 25 19  2  0  0  0  0
 26 25  1  0  0  0  0
 27 14  1  0  0  0  0
 28 27  1  0  0  0  0
M  END
