6
 OpenBabel05122313063D

 21 22  0  0  0  0  0  0  0  0999 V2000
   -1.0738    2.0867    0.2210 O   0  0  0  0  0  0  0  0  0  0  0  0
    0.1037    2.8435   -0.0456 C   0  0  0  0  0  0  0  0  0  0  0  0
    0.2577    3.6205    0.7378 H   0  0  0  0  0  0  0  0  0  0  0  0
    0.0079    3.3732   -1.0249 H   0  0  0  0  0  0  0  0  0  0  0  0
    1.2392    1.8676   -0.0540 C   0  0  0  0  0  0  0  0  0  0  0  0
    0.9553    0.5085   -0.0026 N   0  0  0  0  0  0  0  0  0  0  0  0
    2.2207   -0.0829    0.0091 C   0  0  0  0  0  0  0  0  0  0  0  0
    2.6325   -1.4234    0.1016 C   0  0  0  0  0  0  0  0  0  0  0  0
    1.8962   -2.2323    0.1867 H   0  0  0  0  0  0  0  0  0  0  0  0
    4.0103   -1.6810    0.0977 C   0  0  0  0  0  0  0  0  0  0  0  0
    4.3623   -2.7217    0.1683 H   0  0  0  0  0  0  0  0  0  0  0  0
    4.9592   -0.6335    0.0109 C   0  0  0  0  0  0  0  0  0  0  0  0
    6.0322   -0.8796    0.0104 H   0  0  0  0  0  0  0  0  0  0  0  0
    4.5568    0.7055   -0.0639 C   0  0  0  0  0  0  0  0  0  0  0  0
    5.2854    1.5278   -0.1183 H   0  0  0  0  0  0  0  0  0  0  0  0
    3.1762    0.9842   -0.0594 C   0  0  0  0  0  3  0  0  0  0  0  0
    2.5151    2.2048   -0.0929 N   0  0  0  0  0  0  0  0  0  0  0  0
   -2.2776    2.8326    0.2802 C   0  0  0  0  0  0  0  0  0  0  0  0
   -2.2278    3.5926    1.0911 H   0  0  0  0  0  0  0  0  0  0  0  0
   -3.0869    2.1107    0.4921 H   0  0  0  0  0  0  0  0  0  0  0  0
   -2.4800    3.3452   -0.6865 H   0  0  0  0  0  0  0  0  0  0  0  0
  1 18  1  0  0  0  0
  2  1  1  0  0  0  0
  2  3  1  0  0  0  0
  4  2  1  0  0  0  0
  5  2  1  0  0  0  0
  5  6  1  0  0  0  0
  6  7  2  0  0  0  0
  7  8  1  0  0  0  0
  8  9  1  0  0  0  0
 10  8  2  0  0  0  0
 10 11  1  0  0  0  0
 12 10  1  0  0  0  0
 13 12  1  0  0  0  0
 14 16  1  0  0  0  0
 14 12  2  0  0  0  0
 15 14  1  0  0  0  0
 16  7  1  0  0  0  0
 17 16  1  0  0  0  0
 17  5  2  0  0  0  0
 18 20  1  0  0  0  0
 18 19  1  0  0  0  0
 21 18  1  0  0  0  0
M  END
