1
 OpenBabel05122313063D

 35 36  0  0  0  0  0  0  0  0999 V2000
    1.3734   -0.5463   -0.4425 N   0  0  0  0  0  2  0  0  0  0  0  0
    3.1981   -1.4392   -1.0527 N   0  0  0  0  0  0  0  0  0  0  0  0
    2.3078    2.8621   -1.4537 C   0  0  0  0  0  0  0  0  0  0  0  0
    2.8537    2.5300   -2.3498 H   0  0  0  0  0  0  0  0  0  0  0  0
    3.4450   -0.0973   -1.0747 C   0  0  0  0  0  0  0  0  0  0  0  0
    4.4281    0.3100   -1.3208 H   0  0  0  0  0  0  0  0  0  0  0  0
    6.0356   -1.5055   -0.3581 O   0  0  0  0  0  0  0  0  0  0  0  0
    1.9425   -1.7043   -0.6654 N   0  0  0  0  0  2  0  0  0  0  0  0
    1.9047    1.9092   -0.4947 C   0  0  0  0  0  0  0  0  0  0  0  0
    1.9819    4.2153   -1.2883 C   0  0  0  0  0  0  0  0  0  0  0  0
    2.2892    4.9482   -2.0495 H   0  0  0  0  0  0  0  0  0  0  0  0
    5.2070   -2.6409   -0.2570 C   0  0  0  0  0  0  0  0  0  0  0  0
    4.7398   -2.7123    0.7556 H   0  0  0  0  0  0  0  0  0  0  0  0
    5.7845   -3.5837   -0.4249 H   0  0  0  0  0  0  0  0  0  0  0  0
    4.1184   -2.5360   -1.3154 C   0  0  0  0  0  0  0  0  0  0  0  0
    4.5776   -2.3863   -2.3134 H   0  0  0  0  0  0  0  0  0  0  0  0
    3.5052   -3.4557   -1.3375 H   0  0  0  0  0  0  0  0  0  0  0  0
    2.2491    0.4908   -0.6724 C   0  0  0  0  0  0  0  0  0  0  0  0
    1.2531    4.6312   -0.1624 C   0  0  0  0  0  0  0  0  0  0  0  0
    0.9961    5.6938   -0.0336 H   0  0  0  0  0  0  0  0  0  0  0  0
    1.1778    2.3320    0.6404 C   0  0  0  0  0  0  0  0  0  0  0  0
    0.8711    1.5925    1.3975 H   0  0  0  0  0  0  0  0  0  0  0  0
    0.8580    3.6876    0.8001 C   0  0  0  0  0  0  0  0  0  0  0  0
    0.3002    4.0084    1.6930 H   0  0  0  0  0  0  0  0  0  0  0  0
    7.7726   -0.1135    0.4760 C   0  0  0  0  0  0  0  0  0  0  0  0
    8.2262   -0.1085   -0.5478 H   0  0  0  0  0  0  0  0  0  0  0  0
    7.0681    0.7559    0.5217 H   0  0  0  0  0  0  0  0  0  0  0  0
    6.9961   -1.4060    0.6763 C   0  0  0  0  0  0  0  0  0  0  0  0
    7.7033   -2.2706    0.6572 H   0  0  0  0  0  0  0  0  0  0  0  0
    6.5086   -1.4002    1.6809 H   0  0  0  0  0  0  0  0  0  0  0  0
    8.7521   -0.0417    1.4813 O   0  0  0  0  0  0  0  0  0  0  0  0
    9.5271    1.1306    1.4123 C   0  0  0  0  0  0  0  0  0  0  0  0
   10.0800    1.2132    0.4442 H   0  0  0  0  0  0  0  0  0  0  0  0
   10.2643    1.0961    2.2377 H   0  0  0  0  0  0  0  0  0  0  0  0
    8.9062    2.0528    1.5278 H   0  0  0  0  0  0  0  0  0  0  0  0
  2  8  1  0  0  0  0
  3 10  2  0  0  0  0
  3  9  1  0  0  0  0
  4  3  1  0  0  0  0
  5  2  1  0  0  0  0
  5 18  2  0  0  0  0
  6  5  1  0  0  0  0
  7 12  1  0  0  0  0
  7 28  1  0  0  0  0
  8  1  1  0  0  0  0
  9 21  2  0  0  0  0
 10 19  1  0  0  0  0
 11 10  1  0  0  0  0
 12 13  1  0  0  0  0
 14 12  1  0  0  0  0
 15  2  1  0  0  0  0
 15 12  1  0  0  0  0
 16 15  1  0  0  0  0
 17 15  1  0  0  0  0
 18  9  1  0  0  0  0
 18  1  1  0  0  0  0
 19 20  1  0  0  0  0
 19 23  2  0  0  0  0
 21 23  1  0  0  0  0
 21 22  1  0  0  0  0
 23 24  1  0  0  0  0
 25 27  1  0  0  0  0
 25 28  1  0  0  0  0
 25 31  1  0  0  0  0
 26 25  1  0  0  0  0
 28 30  1  0  0  0  0
 29 28  1  0  0  0  0
 32 31  1  0  0  0  0
 32 35  1  0  0  0  0
 32 34  1  0  0  0  0
 33 32  1  0  0  0  0
M  END
