1
 OpenBabel05122313063D

 30 30  0  0  1  0  0  0  0  0999 V2000
   -1.6273    1.1730   -0.2510 N   0  0  0  0  0  2  0  0  0  0  0  0
   -2.4990    0.6138   -0.2840 H   0  0  0  0  0  0  0  0  0  0  0  0
   -1.8507    2.4386   -0.3497 C   0  0  2  0  0  3  0  0  0  0  0  0
   -0.8555    3.5469   -0.4083 C   0  0  0  0  0  0  0  0  0  0  0  0
    0.1387    3.0961   -0.5842 H   0  0  0  0  0  0  0  0  0  0  0  0
   -1.1196    4.1592   -1.2970 H   0  0  0  0  0  0  0  0  0  0  0  0
   -0.8603    4.4133    0.8605 C   0  0  0  0  0  0  0  0  0  0  0  0
   -1.8607    4.8464    1.0578 H   0  0  0  0  0  0  0  0  0  0  0  0
   -0.1397    5.2457    0.7452 H   0  0  0  0  0  0  0  0  0  0  0  0
   -0.5464    3.8060    1.7310 H   0  0  0  0  0  0  0  0  0  0  0  0
   -3.1401    2.9003   -0.3771 O   0  0  0  0  0  0  0  0  0  0  0  0
   -4.0746    1.8429   -0.3236 N   0  0  0  0  0  0  0  0  0  0  0  0
   -5.2693    2.2441   -0.0463 C   0  0  0  0  0  0  0  0  0  0  0  0
   -5.6979    3.6566    0.1817 C   0  0  0  0  0  0  0  0  0  0  0  0
   -5.3553    3.9966    1.1819 H   0  0  0  0  0  0  0  0  0  0  0  0
   -6.7999    3.7117    0.1335 H   0  0  0  0  0  0  0  0  0  0  0  0
   -5.2400    4.3329   -0.5653 H   0  0  0  0  0  0  0  0  0  0  0  0
   -6.3318    1.1447   -0.0370 C   0  0  0  0  0  0  0  0  0  0  0  0
   -7.4998    1.4960   -0.1925 O   0  0  0  0  0  0  0  0  0  0  0  0
   -5.9400   -0.2868    0.0863 C   0  0  0  0  0  0  0  0  0  0  0  0
   -4.7425   -0.7503    0.6840 C   0  0  0  0  0  0  0  0  0  0  0  0
   -4.0307   -0.0572    1.1492 H   0  0  0  0  0  0  0  0  0  0  0  0
   -4.4370   -2.1135    0.7181 C   0  0  0  0  0  0  0  0  0  0  0  0
   -3.4893   -2.4590    1.1545 H   0  0  0  0  0  0  0  0  0  0  0  0
   -5.3492   -3.0218    0.1672 C   0  0  0  0  0  0  0  0  0  0  0  0
   -6.5644   -2.6019   -0.3975 C   0  0  0  0  0  0  0  0  0  0  0  0
   -7.2541   -3.3513   -0.8112 H   0  0  0  0  0  0  0  0  0  0  0  0
   -6.8545   -1.2374   -0.4284 C   0  0  0  0  0  0  0  0  0  0  0  0
   -7.7935   -0.8708   -0.8681 H   0  0  0  0  0  0  0  0  0  0  0  0
   -5.0617   -4.3314    0.1839 F   0  0  0  0  0  0  0  0  0  0  0  0
  2  1  1  0  0  0  0
  3 11  1  1  0  0  0
  3  1  1  0  0  0  0
  4  3  1  0  0  0  0
  4  7  1  0  0  0  0
  5  4  1  0  0  0  0
  6  4  1  0  0  0  0
  7  8  1  0  0  0  0
  7 10  1  0  0  0  0
  9  7  1  0  0  0  0
 11 12  1  0  0  0  0
 12 13  2  0  0  0  0
 13 18  1  0  0  0  0
 13 14  1  0  0  0  0
 14 15  1  0  0  0  0
 16 14  1  0  0  0  0
 17 14  1  0  0  0  0
 18 20  1  0  0  0  0
 19 18  2  0  0  0  0
 20 21  1  0  0  0  0
 21 23  2  0  0  0  0
 21 22  1  0  0  0  0
 23 24  1  0  0  0  0
 25 30  1  0  0  0  0
 25 23  1  0  0  0  0
 26 25  2  0  0  0  0
 27 26  1  0  0  0  0
 28 26  1  0  0  0  0
 28 20  2  0  0  0  0
 29 28  1  0  0  0  0
M  END
