23
 OpenBabel05122313063D

 24 26  0  0  1  0  0  0  0  0999 V2000
   -0.4014   -2.5103   -0.8828 C   0  0  0  0  0  0  0  0  0  0  0  0
   -1.4399   -2.2975   -1.8110 C   0  0  0  0  0  0  0  0  0  0  0  0
   -1.9115   -1.3062   -1.8688 H   0  0  0  0  0  0  0  0  0  0  0  0
   -1.8217   -3.3535   -2.6409 C   0  0  0  0  0  0  0  0  0  0  0  0
   -2.6310   -3.2011   -3.3699 H   0  0  0  0  0  0  0  0  0  0  0  0
   -1.1798   -4.6106   -2.5670 C   0  0  0  0  0  0  0  0  0  0  0  0
   -1.4979   -5.4245   -3.2353 H   0  0  0  0  0  0  0  0  0  0  0  0
   -0.1363   -4.8355   -1.6619 C   0  0  0  0  0  0  0  0  0  0  0  0
    0.3713   -5.8093   -1.6112 H   0  0  0  0  0  0  0  0  0  0  0  0
    0.2458   -3.7750   -0.8240 C   0  0  0  0  0  0  0  0  0  0  0  0
    1.1013   -2.0557    0.7431 C   0  0  1  0  0  3  0  0  0  0  0  0
    1.8604   -1.3163    1.7545 C   0  0  0  0  0  0  0  0  0  0  0  0
    1.2098   -0.3887    2.5995 C   0  0  0  0  0  0  0  0  0  0  0  0
    0.1236   -0.2426    2.5074 H   0  0  0  0  0  0  0  0  0  0  0  0
    1.9522    0.3577    3.5205 C   0  0  0  0  0  0  0  0  0  0  0  0
    1.4407    1.0898    4.1619 H   0  0  0  0  0  0  0  0  0  0  0  0
    3.3443    0.1935    3.6071 C   0  0  0  0  0  0  0  0  0  0  0  0
    3.9278    0.8023    4.3136 H   0  0  0  0  0  0  0  0  0  0  0  0
    3.9938   -0.7403    2.7837 C   0  0  0  0  0  0  0  0  0  0  0  0
    5.0857   -0.8613    2.8386 H   0  0  0  0  0  0  0  0  0  0  0  0
    3.2573   -1.5004    1.8674 C   0  0  0  0  0  0  0  0  0  0  0  0
    3.7694   -2.2045    1.1939 H   0  0  0  0  0  0  0  0  0  0  0  0
    0.1021   -1.5721    0.0167 N   0  0  0  0  0  2  0  0  0  0  0  0
    1.5018   -3.7344    0.3925 S   0  0  0  0  0  0  0  0  0  0  0  0
  1 10  1  0  0  0  0
  1 23  1  0  0  0  0
  2  1  2  0  0  0  0
  3  2  1  0  0  0  0
  4  6  2  0  0  0  0
  4  2  1  0  0  0  0
  5  4  1  0  0  0  0
  6  8  1  0  0  0  0
  7  6  1  0  0  0  0
  8  9  1  0  0  0  0
  8 10  2  0  0  0  0
 10 24  1  0  0  0  0
 11 12  1  6  0  0  0
 12 21  2  0  0  0  0
 12 13  1  0  0  0  0
 13 15  2  0  0  0  0
 14 13  1  0  0  0  0
 15 17  1  0  0  0  0
 15 16  1  0  0  0  0
 17 18  1  0  0  0  0
 19 20  1  0  0  0  0
 19 17  2  0  0  0  0
 21 19  1  0  0  0  0
 22 21  1  0  0  0  0
 23 11  1  0  0  0  0
 24 11  1  0  0  0  0
M  END
