2
 OpenBabel05122313063D

 24 24  0  0  1  0  0  0  0  0999 V2000
    0.7107   -1.5514   -2.5096 O   0  0  0  0  0  0  0  0  0  0  0  0
    0.2261    0.4429   -1.5538 N   0  0  0  0  0  2  0  0  0  0  0  0
    1.9310   -0.9092   -0.6374 N   0  0  0  0  0  0  0  0  0  0  0  0
   -0.6142    0.3841   -2.7516 C   0  0  0  0  0  0  0  0  0  0  0  0
   -0.4806   -1.0848   -3.1925 C   0  0  0  0  0  0  0  0  0  0  0  0
    0.9710   -0.6466   -1.5275 C   0  0  2  0  0  3  0  0  0  0  0  0
    2.8011   -2.1056   -0.5923 C   0  0  0  0  0  0  0  0  0  0  0  0
    3.7043   -1.9222    0.6394 C   0  0  0  0  0  0  0  0  0  0  0  0
    3.6724   -2.1824   -1.8622 C   0  0  0  0  0  0  0  0  0  0  0  0
    1.9562   -3.3818   -0.4278 C   0  0  0  0  0  0  0  0  0  0  0  0
    2.2456   -0.0659   -0.0783 H   0  0  0  0  0  0  0  0  0  0  0  0
   -0.2430    1.0904   -3.5287 H   0  0  0  0  0  0  0  0  0  0  0  0
   -1.6610    0.6514   -2.5063 H   0  0  0  0  0  0  0  0  0  0  0  0
   -1.3345   -1.7092   -2.8525 H   0  0  0  0  0  0  0  0  0  0  0  0
   -0.3326   -1.2313   -4.2789 H   0  0  0  0  0  0  0  0  0  0  0  0
    4.4397   -2.7477    0.6964 H   0  0  0  0  0  0  0  0  0  0  0  0
    3.1044   -1.9288    1.5720 H   0  0  0  0  0  0  0  0  0  0  0  0
    4.2421   -0.9551    0.5969 H   0  0  0  0  0  0  0  0  0  0  0  0
    4.2883   -1.2661   -1.9598 H   0  0  0  0  0  0  0  0  0  0  0  0
    4.3539   -3.0554   -1.8127 H   0  0  0  0  0  0  0  0  0  0  0  0
    3.0435   -2.2822   -2.7673 H   0  0  0  0  0  0  0  0  0  0  0  0
    1.3112   -3.5550   -1.3093 H   0  0  0  0  0  0  0  0  0  0  0  0
    1.3081   -3.3029    0.4679 H   0  0  0  0  0  0  0  0  0  0  0  0
    2.6183   -4.2618   -0.3029 H   0  0  0  0  0  0  0  0  0  0  0  0
  1  6  1  0  0  0  0
  2  6  1  0  0  0  0
  3  7  1  0  0  0  0
  3 11  1  0  0  0  0
  4 13  1  0  0  0  0
  4  2  1  0  0  0  0
  5 14  1  0  0  0  0
  5  4  1  0  0  0  0
  5  1  1  0  0  0  0
  6  3  1  6  0  0  0
  7 10  1  0  0  0  0
  7  8  1  0  0  0  0
  8 16  1  0  0  0  0
  8 17  1  0  0  0  0
  9 20  1  0  0  0  0
  9  7  1  0  0  0  0
 10 24  1  0  0  0  0
 10 23  1  0  0  0  0
 12  4  1  0  0  0  0
 15  5  1  0  0  0  0
 18  8  1  0  0  0  0
 19  9  1  0  0  0  0
 21  9  1  0  0  0  0
 22 10  1  0  0  0  0
M  END
