3
 OpenBabel05122313063D

 21 21  0  0  1  0  0  0  0  0999 V2000
   -3.7967    2.8763    0.6323 O   0  0  0  0  0  0  0  0  0  0  0  0
   -3.1918    2.6997    1.3950 H   0  0  0  0  0  0  0  0  0  0  0  0
   -2.5694    0.7391   -0.6678 N   0  0  0  0  0  0  0  0  0  0  0  0
   -2.5973    1.7456   -0.9026 H   0  0  0  0  0  0  0  0  0  0  0  0
   -2.7049    0.2101   -1.5398 H   0  0  0  0  0  0  0  0  0  0  0  0
   -3.6726    0.4681    0.2954 C   0  0  1  0  0  0  0  0  0  0  0  0
   -3.2128    0.3336    1.2938 H   0  0  0  0  0  0  0  0  0  0  0  0
   -4.5721    1.7158    0.4161 C   0  0  0  0  0  0  0  0  0  0  0  0
   -5.1466    1.8758   -0.5228 H   0  0  0  0  0  0  0  0  0  0  0  0
   -5.3145    1.5278    1.2281 H   0  0  0  0  0  0  0  0  0  0  0  0
   -4.4228   -0.8005   -0.0327 C   0  0  0  0  0  0  0  0  0  0  0  0
   -4.9734   -1.0214   -1.3118 C   0  0  0  0  0  0  0  0  0  0  0  0
   -4.8654   -0.2582   -2.1004 H   0  0  0  0  0  0  0  0  0  0  0  0
   -5.6625   -2.2093   -1.5983 C   0  0  0  0  0  0  0  0  0  0  0  0
   -6.0822   -2.3697   -2.6030 H   0  0  0  0  0  0  0  0  0  0  0  0
   -5.8203   -3.1889   -0.6047 C   0  0  0  0  0  0  0  0  0  0  0  0
   -6.3607   -4.1209   -0.8293 H   0  0  0  0  0  0  0  0  0  0  0  0
   -5.2873   -2.9726    0.6764 C   0  0  0  0  0  0  0  0  0  0  0  0
   -5.4078   -3.7354    1.4608 H   0  0  0  0  0  0  0  0  0  0  0  0
   -4.5924   -1.7871    0.9579 C   0  0  0  0  0  0  0  0  0  0  0  0
   -4.1538   -1.6205    1.9541 H   0  0  0  0  0  0  0  0  0  0  0  0
  1  2  1  0  0  0  0
  3  6  1  0  0  0  0
  4  3  1  0  0  0  0
  5  3  1  0  0  0  0
  6  8  1  0  0  0  0
  6  7  1  1  0  0  0
  8  1  1  0  0  0  0
  8 10  1  0  0  0  0
  9  8  1  0  0  0  0
 11  6  1  0  0  0  0
 11 20  1  0  0  0  0
 12 11  2  0  0  0  0
 13 12  1  0  0  0  0
 14 12  1  0  0  0  0
 14 16  2  0  0  0  0
 15 14  1  0  0  0  0
 16 18  1  0  0  0  0
 17 16  1  0  0  0  0
 18 20  2  0  0  0  0
 18 19  1  0  0  0  0
 20 21  1  0  0  0  0
M  END
