3
 OpenBabel05122313063D

 35 36  0  0  0  0  0  0  0  0999 V2000
    0.7774    1.3441    1.5253 O   0  0  0  0  0  0  0  0  0  0  0  0
   -4.5678   -1.3967   -0.1288 O   0  0  0  0  0  0  0  0  0  0  0  0
   -1.3364    1.8578    0.0302 N   0  0  0  0  0  2  0  0  0  0  0  0
   -3.4370    0.9446   -0.4079 N   0  0  0  0  0  0  0  0  0  0  0  0
   -2.9672    0.0896   -0.8089 H   0  0  0  0  0  0  0  0  0  0  0  0
    1.9672    0.9417    2.1909 C   0  0  0  0  0  0  0  0  0  0  0  0
    2.0528    1.4292    3.1864 H   0  0  0  0  0  0  0  0  0  0  0  0
    2.8653    1.1664    1.5776 H   0  0  0  0  0  0  0  0  0  0  0  0
    1.8712   -0.1505    2.3257 H   0  0  0  0  0  0  0  0  0  0  0  0
    0.6031    2.6631    1.2219 C   0  0  0  0  0  0  0  0  0  0  0  0
    1.4618    3.6978    1.6204 C   0  0  0  0  0  0  0  0  0  0  0  0
    2.3672    3.4729    2.1995 H   0  0  0  0  0  0  0  0  0  0  0  0
    1.1589    5.0284    1.2791 C   0  0  0  0  0  0  0  0  0  0  0  0
    1.8375    5.8344    1.5966 H   0  0  0  0  0  0  0  0  0  0  0  0
    0.0117    5.3251    0.5319 C   0  0  0  0  0  0  0  0  0  0  0  0
   -0.2144    6.3635    0.2485 H   0  0  0  0  0  0  0  0  0  0  0  0
   -0.8368    4.2869    0.1149 C   0  0  0  0  0  0  0  0  0  0  0  0
   -1.7058    4.5037   -0.5245 H   0  0  0  0  0  0  0  0  0  0  0  0
   -0.5643    2.9493    0.4553 C   0  0  0  0  0  0  0  0  0  0  0  0
   -2.6422    1.9345    0.0401 C   0  0  0  0  0  3  0  0  0  0  0  0
   -3.1569    2.8184    0.4719 H   0  0  0  0  0  0  0  0  0  0  0  0
   -4.8391    0.9174   -0.3519 C   0  0  0  0  0  0  0  0  0  0  0  0
   -5.6549    2.0590   -0.4153 C   0  0  0  0  0  0  0  0  0  0  0  0
   -5.1929    3.0503   -0.5317 H   0  0  0  0  0  0  0  0  0  0  0  0
   -7.0539    1.9361   -0.3791 C   0  0  0  0  0  0  0  0  0  0  0  0
   -7.6799    2.8384   -0.4363 H   0  0  0  0  0  0  0  0  0  0  0  0
   -7.6453    0.6679   -0.3049 C   0  0  0  0  0  0  0  0  0  0  0  0
   -8.7408    0.5673   -0.2972 H   0  0  0  0  0  0  0  0  0  0  0  0
   -6.8451   -0.4870   -0.2435 C   0  0  0  0  0  0  0  0  0  0  0  0
   -7.3113   -1.4795   -0.1739 H   0  0  0  0  0  0  0  0  0  0  0  0
   -5.4468   -0.3684   -0.2449 C   0  0  0  0  0  0  0  0  0  0  0  0
   -4.9905   -2.7261   -0.3758 C   0  0  0  0  0  0  0  0  0  0  0  0
   -4.0655   -3.3313   -0.4124 H   0  0  0  0  0  0  0  0  0  0  0  0
   -5.5190   -2.8042   -1.3504 H   0  0  0  0  0  0  0  0  0  0  0  0
   -5.6567   -3.1052    0.4315 H   0  0  0  0  0  0  0  0  0  0  0  0
  1  6  1  0  0  0  0
  3 20  1  0  0  0  0
  3 19  1  0  0  0  0
  4 22  1  0  0  0  0
  4 20  1  0  0  0  0
  5  4  1  0  0  0  0
  6  9  1  0  0  0  0
  6  7  1  0  0  0  0
  8  6  1  0  0  0  0
 10  1  1  0  0  0  0
 10 11  1  0  0  0  0
 11 12  1  0  0  0  0
 13 14  1  0  0  0  0
 13 11  2  0  0  0  0
 15 13  1  0  0  0  0
 16 15  1  0  0  0  0
 17 19  1  0  0  0  0
 17 15  2  0  0  0  0
 18 17  1  0  0  0  0
 19 10  2  0  0  0  0
 20 21  1  0  0  0  0
 22 31  1  0  0  0  0
 23 25  1  0  0  0  0
 23 22  2  0  0  0  0
 24 23  1  0  0  0  0
 25 27  2  0  0  0  0
 26 25  1  0  0  0  0
 27 28  1  0  0  0  0
 27 29  1  0  0  0  0
 29 30  1  0  0  0  0
 31 29  2  0  0  0  0
 31  2  1  0  0  0  0
 32  2  1  0  0  0  0
 32 35  1  0  0  0  0
 33 32  1  0  0  0  0
 34 32  1  0  0  0  0
M  END
