5
 OpenBabel05122313063D

 25 24  0  0  0  0  0  0  0  0999 V2000
    0.2420    0.9765    1.9057 O   0  0  0  0  0  0  0  0  0  0  0  0
    4.2314   -1.8456   -0.4244 O   0  0  0  0  0  0  0  0  0  0  0  0
    4.1745   -1.6070   -1.3682 H   0  0  0  0  0  0  0  0  0  0  0  0
   -1.0377   -0.6727   -1.8111 O   0  0  0  0  0  0  0  0  0  0  0  0
    0.5749   -1.3299    0.3801 N   0  0  0  0  0  0  0  0  0  0  0  0
   -0.5038   -1.9783   -1.7557 C   0  0  0  0  0  0  0  0  0  0  0  0
    0.4135   -2.0146   -2.3847 H   0  0  0  0  0  0  0  0  0  0  0  0
   -1.2107   -2.7237   -2.1836 H   0  0  0  0  0  0  0  0  0  0  0  0
    0.5079   -1.4210    1.8515 C   0  0  0  0  0  0  0  0  0  0  0  0
    1.1104   -2.2656    2.2589 H   0  0  0  0  0  0  0  0  0  0  0  0
   -0.5542   -1.6204    2.1045 H   0  0  0  0  0  0  0  0  0  0  0  0
    2.9428   -2.2509   -0.0084 C   0  0  0  0  0  0  0  0  0  0  0  0
    3.0418   -2.5410    1.0586 H   0  0  0  0  0  0  0  0  0  0  0  0
    2.5905   -3.1611   -0.5536 H   0  0  0  0  0  0  0  0  0  0  0  0
    1.9347   -1.1025   -0.1565 C   0  0  0  0  0  0  0  0  0  0  0  0
    2.3603   -0.2029    0.3309 H   0  0  0  0  0  0  0  0  0  0  0  0
    1.8325   -0.8338   -1.2295 H   0  0  0  0  0  0  0  0  0  0  0  0
   -0.1857   -2.3890   -0.3118 C   0  0  0  0  0  0  0  0  0  0  0  0
   -1.1410   -2.5093    0.2397 H   0  0  0  0  0  0  0  0  0  0  0  0
    0.3340   -3.3748   -0.2882 H   0  0  0  0  0  0  0  0  0  0  0  0
    0.9305   -0.1015    2.5047 C   0  0  0  0  0  0  0  0  0  0  0  0
    0.6989   -0.1666    3.5923 H   0  0  0  0  0  0  0  0  0  0  0  0
    2.0325    0.0413    2.4226 H   0  0  0  0  0  0  0  0  0  0  0  0
   -2.0770   -0.7254   -1.5835 H   0  0  0  0  0  0  0  0  0  0  0  0
    0.9472    1.6683    1.5323 H   0  0  0  0  0  0  0  0  0  0  0  0
  1 21  1  0  0  0  0
  2 12  1  0  0  0  0
  3  2  1  0  0  0  0
  4  6  1  0  0  0  0
  4 24  1  0  0  0  0
  5  9  1  0  0  0  0
  6 18  1  0  0  0  0
  7  6  1  0  0  0  0
  8  6  1  0  0  0  0
  9 11  1  0  0  0  0
  9 10  1  0  0  0  0
  9 21  1  0  0  0  0
 12 13  1  0  0  0  0
 14 12  1  0  0  0  0
 15 12  1  0  0  0  0
 15 16  1  0  0  0  0
 15  5  1  0  0  0  0
 17 15  1  0  0  0  0
 18 20  1  0  0  0  0
 18 19  1  0  0  0  0
 18  5  1  0  0  0  0
 21 22  1  0  0  0  0
 23 21  1  0  0  0  0
 25  1  1  0  0  0  0
M  END
