3
 OpenBabel05122313063D

 37 37  0  0  1  0  0  0  0  0999 V2000
   -4.1665   -0.4105   -1.0262 O   0  0  0  0  0  0  0  0  0  0  0  0
   -7.4354   -2.4113    0.8748 O   0  0  0  0  0  0  0  0  0  0  0  0
   -1.9983    0.0484   -0.3359 N   0  0  0  0  0  2  0  0  0  0  0  0
   -2.3595    0.9173    0.0803 H   0  0  0  0  0  0  0  0  0  0  0  0
   -4.6942    0.7930   -0.4628 N   0  0  0  0  0  0  0  0  0  0  0  0
   -3.9479    1.5074   -0.4339 H   0  0  0  0  0  0  0  0  0  0  0  0
   -6.3503   -1.5816    1.1035 N   0  0  0  0  0  0  0  0  0  0  0  0
   -2.8628   -0.7348   -0.8964 C   0  0  1  0  0  3  0  0  0  0  0  0
   -2.5926   -2.0887   -1.4681 C   0  0  0  0  0  0  0  0  0  0  0  0
   -1.5019   -2.1988   -1.6129 H   0  0  0  0  0  0  0  0  0  0  0  0
   -3.0809   -2.1179   -2.4639 H   0  0  0  0  0  0  0  0  0  0  0  0
   -3.1576   -3.1943   -0.5602 C   0  0  0  0  0  0  0  0  0  0  0  0
   -2.6108   -3.2042    0.4024 H   0  0  0  0  0  0  0  0  0  0  0  0
   -3.0171   -4.1799   -1.0448 H   0  0  0  0  0  0  0  0  0  0  0  0
   -4.2377   -3.0465   -0.3628 H   0  0  0  0  0  0  0  0  0  0  0  0
   -5.2846    0.5494    0.8844 C   0  0  0  0  0  0  0  0  0  0  0  0
   -4.3031   -0.0441    1.9078 C   0  0  0  0  0  0  0  0  0  0  0  0
   -3.9272   -1.0361    1.6011 H   0  0  0  0  0  0  0  0  0  0  0  0
   -4.8152   -0.1864    2.8782 H   0  0  0  0  0  0  0  0  0  0  0  0
   -3.4381    0.6298    2.0676 H   0  0  0  0  0  0  0  0  0  0  0  0
   -5.7435    1.9433    1.3496 C   0  0  0  0  0  0  0  0  0  0  0  0
   -4.8654    2.5996    1.5206 H   0  0  0  0  0  0  0  0  0  0  0  0
   -6.2881    1.8512    2.3084 H   0  0  0  0  0  0  0  0  0  0  0  0
   -6.4139    2.4196    0.6104 H   0  0  0  0  0  0  0  0  0  0  0  0
   -6.5017   -0.3729    0.6621 C   0  0  0  0  0  0  0  0  0  0  0  0
   -7.7389    0.1433    0.0107 C   0  0  0  0  0  0  0  0  0  0  0  0
   -7.7062    0.7925   -1.2437 C   0  0  0  0  0  0  0  0  0  0  0  0
   -6.7427    0.9070   -1.7583 H   0  0  0  0  0  0  0  0  0  0  0  0
   -8.8870    1.2856   -1.8182 C   0  0  0  0  0  0  0  0  0  0  0  0
   -8.8463    1.7836   -2.7991 H   0  0  0  0  0  0  0  0  0  0  0  0
  -10.1135    1.1464   -1.1509 C   0  0  0  0  0  0  0  0  0  0  0  0
  -11.0379    1.5367   -1.6034 H   0  0  0  0  0  0  0  0  0  0  0  0
  -10.1553    0.5044    0.0974 C   0  0  0  0  0  0  0  0  0  0  0  0
  -11.1127    0.3916    0.6287 H   0  0  0  0  0  0  0  0  0  0  0  0
   -8.9806    0.0020    0.6714 C   0  0  0  0  0  0  0  0  0  0  0  0
   -9.0176   -0.5084    1.6439 H   0  0  0  0  0  0  0  0  0  0  0  0
   -7.1282   -3.2525    1.2619 H   0  0  0  0  0  0  0  0  0  0  0  0
  1  5  1  0  0  0  0
  2  7  1  0  0  0  0
  2 37  1  0  0  0  0
  3  4  1  0  0  0  0
  5  6  1  0  0  0  0
  5 16  1  0  0  0  0
  8  1  1  1  0  0  0
  8  3  1  0  0  0  0
  9  8  1  0  0  0  0
  9 12  1  0  0  0  0
 10  9  1  0  0  0  0
 11  9  1  0  0  0  0
 12 15  1  0  0  0  0
 12 13  1  0  0  0  0
 14 12  1  0  0  0  0
 16 21  1  0  0  0  0
 16 17  1  0  0  0  0
 17 20  1  0  0  0  0
 17 19  1  0  0  0  0
 18 17  1  0  0  0  0
 21 22  1  0  0  0  0
 21 23  1  0  0  0  0
 24 21  1  0  0  0  0
 25 16  1  0  0  0  0
 25  7  2  0  0  0  0
 26 25  1  0  0  0  0
 26 35  1  0  0  0  0
 27 26  2  0  0  0  0
 28 27  1  0  0  0  0
 29 27  1  0  0  0  0
 29 31  2  0  0  0  0
 30 29  1  0  0  0  0
 31 33  1  0  0  0  0
 32 31  1  0  0  0  0
 33 34  1  0  0  0  0
 33 35  2  0  0  0  0
 35 36  1  0  0  0  0
M  END
