3
 OpenBabel05122313063D

 61 61  0  0  1  0  0  0  0  0999 V2000
    2.1721   -0.4269   -0.0278 P   0  0  0  0  0  0  0  0  0  0  0  0
   -2.0635   -0.5232   -0.0251 P   0  0  0  0  0  0  0  0  0  0  0  0
    0.0077    1.3319   -0.0800 N   0  0  0  0  0  2  0  0  0  0  0  0
    2.3437    1.3367    0.0418 N   0  0  0  0  0  0  0  0  0  0  0  0
   -2.3226    1.2172    0.1118 N   0  0  0  0  0  0  0  0  0  0  0  0
    1.1699    2.0621   -0.0036 C   0  0  2  0  0  3  0  0  0  0  0  0
    1.1644    3.4751    0.0426 C   0  0  0  0  0  0  0  0  0  0  0  0
   -0.0631    4.1414    0.0678 C   0  0  0  0  0  0  0  0  0  0  0  0
   -1.2548    3.4123    0.0834 C   0  0  0  0  0  0  0  0  0  0  0  0
   -1.1877    2.0018    0.0336 C   0  0  0  0  0  0  0  0  0  0  0  0
    2.9623   -1.0058    1.5865 C   0  0  0  0  0  0  0  0  0  0  0  0
    2.5639   -0.0841    2.7437 C   0  0  0  0  0  0  0  0  0  0  0  0
    2.5223   -2.4500    1.8698 C   0  0  0  0  0  0  0  0  0  0  0  0
    3.5189   -0.7964   -1.2973 C   0  0  0  0  0  0  0  0  0  0  0  0
    3.1037   -0.2342   -2.6605 C   0  0  0  0  0  0  0  0  0  0  0  0
    3.8921   -2.2827   -1.3674 C   0  0  0  0  0  0  0  0  0  0  0  0
   -2.8741   -1.1988    1.5267 C   0  0  0  0  0  0  0  0  0  0  0  0
   -2.3372   -0.5056    2.7806 C   0  0  0  0  0  0  0  0  0  0  0  0
   -2.6437   -2.7158    1.5622 C   0  0  0  0  0  0  0  0  0  0  0  0
   -3.2262   -1.0369   -1.4171 C   0  0  0  0  0  0  0  0  0  0  0  0
   -2.9979   -0.1044   -2.6120 C   0  0  0  0  0  0  0  0  0  0  0  0
   -4.7126   -1.2350   -1.1060 C   0  0  0  0  0  0  0  0  0  0  0  0
    3.6064    2.0271    0.2220 C   0  0  0  0  0  0  0  0  0  0  0  0
   -3.6108    1.8353    0.3609 C   0  0  0  0  0  0  0  0  0  0  0  0
    2.1062    4.0344    0.0552 H   0  0  0  0  0  0  0  0  0  0  0  0
   -0.0910    5.2411    0.0889 H   0  0  0  0  0  0  0  0  0  0  0  0
   -2.2240    3.9212    0.1262 H   0  0  0  0  0  0  0  0  0  0  0  0
    4.0664   -0.9762    1.4451 H   0  0  0  0  0  0  0  0  0  0  0  0
    2.9803    0.9364    2.6437 H   0  0  0  0  0  0  0  0  0  0  0  0
    1.4584    0.0033    2.7956 H   0  0  0  0  0  0  0  0  0  0  0  0
    2.9201   -0.5039    3.7075 H   0  0  0  0  0  0  0  0  0  0  0  0
    2.7649   -3.1452    1.0436 H   0  0  0  0  0  0  0  0  0  0  0  0
    3.0130   -2.8274    2.7914 H   0  0  0  0  0  0  0  0  0  0  0  0
    1.4241   -2.4840    2.0169 H   0  0  0  0  0  0  0  0  0  0  0  0
    4.4149   -0.2401   -0.9403 H   0  0  0  0  0  0  0  0  0  0  0  0
    2.8450    0.8421   -2.5989 H   0  0  0  0  0  0  0  0  0  0  0  0
    3.9318   -0.3474   -3.3911 H   0  0  0  0  0  0  0  0  0  0  0  0
    2.2189   -0.7718   -3.0517 H   0  0  0  0  0  0  0  0  0  0  0  0
    4.3289   -2.6524   -0.4190 H   0  0  0  0  0  0  0  0  0  0  0  0
    3.0109   -2.9048   -1.6176 H   0  0  0  0  0  0  0  0  0  0  0  0
    4.6529   -2.4385   -2.1609 H   0  0  0  0  0  0  0  0  0  0  0  0
   -3.9651   -1.0009    1.4455 H   0  0  0  0  0  0  0  0  0  0  0  0
   -2.5492    0.5819    2.7788 H   0  0  0  0  0  0  0  0  0  0  0  0
   -2.7989   -0.9443    3.6897 H   0  0  0  0  0  0  0  0  0  0  0  0
   -1.2374   -0.6310    2.8506 H   0  0  0  0  0  0  0  0  0  0  0  0
   -3.0416   -3.2275    0.6625 H   0  0  0  0  0  0  0  0  0  0  0  0
   -1.5584   -2.9365    1.6155 H   0  0  0  0  0  0  0  0  0  0  0  0
   -3.1346   -3.1633    2.4514 H   0  0  0  0  0  0  0  0  0  0  0  0
   -2.7854   -2.0236   -1.6856 H   0  0  0  0  0  0  0  0  0  0  0  0
   -1.9168    0.0161   -2.8207 H   0  0  0  0  0  0  0  0  0  0  0  0
   -3.4777   -0.5195   -3.5223 H   0  0  0  0  0  0  0  0  0  0  0  0
   -3.4274    0.9027   -2.4316 H   0  0  0  0  0  0  0  0  0  0  0  0
   -4.8885   -1.9617   -0.2888 H   0  0  0  0  0  0  0  0  0  0  0  0
   -5.2222   -0.2867   -0.8383 H   0  0  0  0  0  0  0  0  0  0  0  0
   -5.2300   -1.6299   -2.0060 H   0  0  0  0  0  0  0  0  0  0  0  0
    4.4082    1.2912    0.4127 H   0  0  0  0  0  0  0  0  0  0  0  0
    3.8943    2.6183   -0.6760 H   0  0  0  0  0  0  0  0  0  0  0  0
    3.5728    2.7176    1.0930 H   0  0  0  0  0  0  0  0  0  0  0  0
   -4.3614    1.0507    0.5600 H   0  0  0  0  0  0  0  0  0  0  0  0
   -3.5761    2.5033    1.2495 H   0  0  0  0  0  0  0  0  0  0  0  0
   -3.9667    2.4346   -0.5069 H   0  0  0  0  0  0  0  0  0  0  0  0
  1  4  1  0  0  0  0
  1 11  1  0  0  0  0
  2  5  1  0  0  0  0
  2 17  1  0  0  0  0
  3  6  1  0  0  0  0
  3 10  1  0  0  0  0
  4 23  1  0  0  0  0
  5 24  1  0  0  0  0
  6  4  1  1  0  0  0
  6  7  1  0  0  0  0
  7 25  1  0  0  0  0
  7  8  2  0  0  0  0
  8  9  1  0  0  0  0
  8 26  1  0  0  0  0
  9 27  1  0  0  0  0
 10  9  2  0  0  0  0
 10  5  1  0  0  0  0
 11 13  1  0  0  0  0
 11 12  1  0  0  0  0
 12 30  1  0  0  0  0
 12 31  1  0  0  0  0
 13 34  1  0  0  0  0
 13 33  1  0  0  0  0
 14 35  1  0  0  0  0
 14  1  1  0  0  0  0
 15 36  1  0  0  0  0
 15 14  1  0  0  0  0
 16 14  1  0  0  0  0
 16 39  1  0  0  0  0
 17 19  1  0  0  0  0
 17 18  1  0  0  0  0
 18 45  1  0  0  0  0
 18 44  1  0  0  0  0
 19 47  1  0  0  0  0
 19 48  1  0  0  0  0
 20 22  1  0  0  0  0
 20  2  1  0  0  0  0
 21 52  1  0  0  0  0
 21 20  1  0  0  0  0
 22 54  1  0  0  0  0
 22 53  1  0  0  0  0
 23 56  1  0  0  0  0
 23 58  1  0  0  0  0
 24 59  1  0  0  0  0
 24 60  1  0  0  0  0
 28 11  1  0  0  0  0
 29 12  1  0  0  0  0
 32 13  1  0  0  0  0
 37 15  1  0  0  0  0
 38 15  1  0  0  0  0
 40 16  1  0  0  0  0
 41 16  1  0  0  0  0
 42 17  1  0  0  0  0
 43 18  1  0  0  0  0
 46 19  1  0  0  0  0
 49 20  1  0  0  0  0
 50 21  1  0  0  0  0
 51 21  1  0  0  0  0
 55 22  1  0  0  0  0
 57 23  1  0  0  0  0
 61 24  1  0  0  0  0
M  END
