1
 OpenBabel05122313063D

  7  7  0  0  0  0  0  0  0  0999 V2000
    2.7654   -0.0140   -0.0204 N   0  0  0  0  0  0  0  0  0  0  0  0
    3.7545   -0.5469    0.6899 N   0  0  0  0  0  2  0  0  0  0  0  0
    4.5233    1.2068   -0.5356 N   0  0  0  0  0  0  0  0  0  0  0  0
    3.2241    1.0311   -0.7703 C   0  0  0  0  0  0  0  0  0  0  0  0
    2.5884    1.5769   -1.4763 H   0  0  0  0  0  0  0  0  0  0  0  0
    4.8059    0.2111    0.3582 C   0  0  0  0  0  0  0  0  0  0  0  0
    5.8049    0.0398    0.7794 H   0  0  0  0  0  0  0  0  0  0  0  0
  1  2  1  0  0  0  0
  3  6  2  0  0  0  0
  4  3  1  0  0  0  0
  4  1  2  0  0  0  0
  5  4  1  0  0  0  0
  6  2  1  0  0  0  0
  6  7  1  0  0  0  0
M  END
