5
 OpenBabel05122313063D

 16 16  0  0  0  0  0  0  0  0999 V2000
   -7.3294   -0.6480   -0.3684 Cl  0  0  0  0  0  0  0  0  0  0  0  0
   -4.8360    4.1046    0.5921 Cl  0  0  0  0  0  0  0  0  0  0  0  0
   -0.6999    1.2948    0.3855 O   0  0  0  0  0  1  0  0  0  0  0  0
   -4.5798   -1.7120   -0.3454 O   0  0  0  0  0  0  0  0  0  0  0  0
   -0.9788    0.1000    0.1855 N   0  0  0  0  0  2  0  0  0  0  0  0
   -4.6478   -0.3913   -0.1356 C   0  0  0  0  0  0  0  0  0  0  0  0
   -3.4307    0.3484    0.0643 C   0  0  0  0  0  0  0  0  0  0  0  0
   -2.2086   -0.3992   -0.0075 C   0  0  0  0  0  3  0  0  0  0  0  0
   -3.5113    1.7481    0.2956 C   0  0  0  0  0  0  0  0  0  0  0  0
   -4.7492    2.3901    0.3083 C   0  0  0  0  0  0  0  0  0  0  0  0
   -5.9512    1.6776    0.1032 C   0  0  0  0  0  0  0  0  0  0  0  0
   -5.8811    0.3017   -0.1154 C   0  0  0  0  0  0  0  0  0  0  0  0
   -6.9210    2.1912    0.1240 H   0  0  0  0  0  0  0  0  0  0  0  0
   -2.5845    2.3094    0.4598 H   0  0  0  0  0  0  0  0  0  0  0  0
   -2.2357   -1.4827   -0.1744 H   0  0  0  0  0  0  0  0  0  0  0  0
   -5.4990   -2.0427   -0.4711 H   0  0  0  0  0  0  0  0  0  0  0  0
  1 12  1  0  0  0  0
  4  6  1  0  0  0  0
  5  3  1  0  0  0  0
  6 12  2  0  0  0  0
  6  7  1  0  0  0  0
  7  9  2  0  0  0  0
  8  7  1  0  0  0  0
  8  5  1  0  0  0  0
  9 10  1  0  0  0  0
  9 14  1  0  0  0  0
 10  2  1  0  0  0  0
 11 13  1  0  0  0  0
 11 10  2  0  0  0  0
 12 11  1  0  0  0  0
 15  8  1  0  0  0  0
 16  4  1  0  0  0  0
M  END
