1
 OpenBabel05122313063D

 25 25  0  0  0  0  0  0  0  0999 V2000
   -1.2264    0.5791    0.8558 N   0  0  0  0  0  2  0  0  0  0  0  0
   -3.1747   -0.9811   -0.3647 N   0  0  0  0  0  0  0  0  0  0  0  0
   -2.4307   -1.3100    0.2725 H   0  0  0  0  0  0  0  0  0  0  0  0
   -0.5464    0.4969    3.0340 O   0  0  0  0  0  0  0  0  0  0  0  0
   -5.0021   -1.7061   -1.5826 O   0  0  0  0  0  0  0  0  0  0  0  0
   -2.0268    1.1366   -0.1719 C   0  0  0  0  0  0  0  0  0  0  0  0
   -3.8439    0.9207   -1.8003 C   0  0  0  0  0  0  0  0  0  0  0  0
   -4.6250    0.3017   -2.2564 H   0  0  0  0  0  0  0  0  0  0  0  0
   -3.0359    0.3372   -0.7948 C   0  0  0  0  0  0  0  0  0  0  0  0
   -3.6397    2.2512   -2.1822 C   0  0  0  0  0  0  0  0  0  0  0  0
   -4.2793    2.6826   -2.9675 H   0  0  0  0  0  0  0  0  0  0  0  0
   -2.6369    3.0351   -1.5847 C   0  0  0  0  0  0  0  0  0  0  0  0
   -2.4811    4.0790   -1.8948 H   0  0  0  0  0  0  0  0  0  0  0  0
   -1.8361    2.4704   -0.5864 C   0  0  0  0  0  0  0  0  0  0  0  0
   -1.0372    3.0507   -0.1020 H   0  0  0  0  0  0  0  0  0  0  0  0
   -1.4017    0.8125    2.1990 C   0  0  0  0  0  0  0  0  0  0  0  0
   -2.7165    1.4713    2.5928 C   0  0  0  0  0  0  0  0  0  0  0  0
   -3.5816    0.9534    2.1339 H   0  0  0  0  0  0  0  0  0  0  0  0
   -2.7455    2.5217    2.2404 H   0  0  0  0  0  0  0  0  0  0  0  0
   -2.7963    1.4480    3.6936 H   0  0  0  0  0  0  0  0  0  0  0  0
   -4.1064   -1.9289   -0.7725 C   0  0  0  0  0  0  0  0  0  0  0  0
   -3.9185   -3.2808   -0.1034 C   0  0  0  0  0  0  0  0  0  0  0  0
   -4.1140   -3.2071    0.9862 H   0  0  0  0  0  0  0  0  0  0  0  0
   -2.8758   -3.6397   -0.2177 H   0  0  0  0  0  0  0  0  0  0  0  0
   -4.6283   -3.9955   -0.5543 H   0  0  0  0  0  0  0  0  0  0  0  0
  1 16  1  0  0  0  0
  2  3  1  0  0  0  0
  5 21  2  0  0  0  0
  6  1  1  0  0  0  0
  7  9  1  0  0  0  0
  8  7  1  0  0  0  0
  9  2  1  0  0  0  0
  9  6  2  0  0  0  0
 10  7  2  0  0  0  0
 10 12  1  0  0  0  0
 11 10  1  0  0  0  0
 12 14  2  0  0  0  0
 13 12  1  0  0  0  0
 14  6  1  0  0  0  0
 14 15  1  0  0  0  0
 16 17  1  0  0  0  0
 16  4  2  0  0  0  0
 17 20  1  0  0  0  0
 18 17  1  0  0  0  0
 19 17  1  0  0  0  0
 21  2  1  0  0  0  0
 21 22  1  0  0  0  0
 22 23  1  0  0  0  0
 24 22  1  0  0  0  0
 25 22  1  0  0  0  0
M  END
