1
 OpenBabel05122313063D

 23 22  0  0  0  0  0  0  0  0999 V2000
    1.7633    0.6981    0.2681 N   0  0  0  0  0  2  0  0  0  0  0  0
    2.3490    0.1300   -0.8942 N   0  0  0  0  0  0  0  0  0  0  0  0
    2.5627    1.3579    1.3154 C   0  0  0  0  0  0  0  0  0  0  0  0
    1.5807    1.6275    2.4669 C   0  0  0  0  0  0  0  0  0  0  0  0
    1.1884    0.6768    2.8753 H   0  0  0  0  0  0  0  0  0  0  0  0
    0.7176    2.2207    2.1087 H   0  0  0  0  0  0  0  0  0  0  0  0
    2.0795    2.1847    3.2846 H   0  0  0  0  0  0  0  0  0  0  0  0
    3.1444    2.7104    0.8380 C   0  0  0  0  0  0  0  0  0  0  0  0
    2.3466    3.3537    0.4170 H   0  0  0  0  0  0  0  0  0  0  0  0
    3.9217    2.5767    0.0622 H   0  0  0  0  0  0  0  0  0  0  0  0
    3.6128    3.2525    1.6853 H   0  0  0  0  0  0  0  0  0  0  0  0
    3.7202    0.4823    1.8409 C   0  0  0  0  0  0  0  0  0  0  0  0
    3.3558   -0.5138    2.1597 H   0  0  0  0  0  0  0  0  0  0  0  0
    4.1991    0.9672    2.7161 H   0  0  0  0  0  0  0  0  0  0  0  0
    4.5070    0.3376    1.0756 H   0  0  0  0  0  0  0  0  0  0  0  0
    3.0966   -1.1294   -0.7870 C   0  0  0  0  0  0  0  0  0  0  0  0
    4.1796   -0.9780   -0.5745 H   0  0  0  0  0  0  0  0  0  0  0  0
    3.0089   -1.6773   -1.7486 H   0  0  0  0  0  0  0  0  0  0  0  0
    2.6506   -1.7457    0.0129 H   0  0  0  0  0  0  0  0  0  0  0  0
    2.9259    1.0236   -1.9029 C   0  0  0  0  0  0  0  0  0  0  0  0
    3.9943    1.2622   -1.6913 H   0  0  0  0  0  0  0  0  0  0  0  0
    2.3437    1.9620   -1.9333 H   0  0  0  0  0  0  0  0  0  0  0  0
    2.8536    0.5401   -2.8971 H   0  0  0  0  0  0  0  0  0  0  0  0
  1  3  1  0  0  0  0
  2 16  1  0  0  0  0
  2  1  1  0  0  0  0
  3 12  1  0  0  0  0
  3  4  1  0  0  0  0
  4  5  1  0  0  0  0
  4  7  1  0  0  0  0
  6  4  1  0  0  0  0
  8  3  1  0  0  0  0
  8 11  1  0  0  0  0
  9  8  1  0  0  0  0
 10  8  1  0  0  0  0
 12 13  1  0  0  0  0
 12 14  1  0  0  0  0
 15 12  1  0  0  0  0
 16 17  1  0  0  0  0
 16 19  1  0  0  0  0
 18 16  1  0  0  0  0
 20 21  1  0  0  0  0
 20  2  1  0  0  0  0
 22 20  1  0  0  0  0
 23 20  1  0  0  0  0
M  END
