29
 OpenBabel05122313063D

 34 33  0  0  0  0  0  0  0  0999 V2000
    6.9071   -0.3942   -0.4743 C   0  0  0  0  0  0  0  0  0  0  0  0
    6.9576   -1.5064   -0.4969 H   0  0  0  0  0  0  0  0  0  0  0  0
    6.9502   -0.0721   -1.5394 H   0  0  0  0  0  0  0  0  0  0  0  0
   10.6870    0.2713    0.4081 C   0  0  0  0  0  0  0  0  0  0  0  0
   10.6443   -0.0517    1.4731 H   0  0  0  0  0  0  0  0  0  0  0  0
   10.6334    1.3835    0.4331 H   0  0  0  0  0  0  0  0  0  0  0  0
    8.1274    0.1535    0.2700 C   0  0  0  0  0  0  0  0  0  0  0  0
    8.0841   -0.1692    1.3349 H   0  0  0  0  0  0  0  0  0  0  0  0
    8.0745    1.2656    0.2943 H   0  0  0  0  0  0  0  0  0  0  0  0
    9.4661   -0.2765   -0.3353 C   0  0  0  0  0  0  0  0  0  0  0  0
    9.5185   -1.3887   -0.3598 H   0  0  0  0  0  0  0  0  0  0  0  0
    9.5086    0.0461   -1.4005 H   0  0  0  0  0  0  0  0  0  0  0  0
   12.0262   -0.1570   -0.1971 C   0  0  0  0  0  0  0  0  0  0  0  0
   12.0688    0.1658   -1.2624 H   0  0  0  0  0  0  0  0  0  0  0  0
   12.0798   -1.2694   -0.2223 H   0  0  0  0  0  0  0  0  0  0  0  0
    5.5701    0.0401    0.1317 C   0  0  0  0  0  0  0  0  0  0  0  0
    5.5166    1.1516    0.1527 H   0  0  0  0  0  0  0  0  0  0  0  0
    5.5251   -0.2818    1.1963 H   0  0  0  0  0  0  0  0  0  0  0  0
   13.2484    0.3909    0.5460 C   0  0  0  0  0  0  0  0  0  0  0  0
   13.2021    0.0676    1.6099 H   0  0  0  0  0  0  0  0  0  0  0  0
   13.1908    1.5022    0.5705 H   0  0  0  0  0  0  0  0  0  0  0  0
    4.3502   -0.5086   -0.6138 C   0  0  0  0  0  0  0  0  0  0  0  0
    4.3916   -1.6215   -0.6271 H   0  0  0  0  0  0  0  0  0  0  0  0
    4.3929   -0.1860   -1.6792 H   0  0  0  0  0  0  0  0  0  0  0  0
   14.5806   -0.0425   -0.0667 C   0  0  0  0  0  0  0  0  0  0  0  0
   15.4450    0.3694    0.4922 H   0  0  0  0  0  0  0  0  0  0  0  0
   14.6816   -1.1481   -0.0710 H   0  0  0  0  0  0  0  0  0  0  0  0
   14.6701    0.2987   -1.1194 H   0  0  0  0  0  0  0  0  0  0  0  0
    1.8425   -0.5794   -0.7187 N   0  0  0  0  0  0  0  0  0  0  0  0
    1.8962   -0.3199   -1.7165 H   0  0  0  0  0  0  0  0  0  0  0  0
    1.8189   -1.6159   -0.6827 H   0  0  0  0  0  0  0  0  0  0  0  0
    3.0290   -0.0511    0.0003 C   0  0  0  0  0  0  0  0  0  0  0  0
    2.9371    1.0537   -0.0026 H   0  0  0  0  0  0  0  0  0  0  0  0
    2.9424   -0.3781    1.0558 H   0  0  0  0  0  0  0  0  0  0  0  0
  1 16  1  0  0  0  0
  1  7  1  0  0  0  0
  2  1  1  0  0  0  0
  3  1  1  0  0  0  0
  4  6  1  0  0  0  0
  4  5  1  0  0  0  0
  7  9  1  0  0  0  0
  7  8  1  0  0  0  0
 10  7  1  0  0  0  0
 10  4  1  0  0  0  0
 11 10  1  0  0  0  0
 12 10  1  0  0  0  0
 13  4  1  0  0  0  0
 13 19  1  0  0  0  0
 14 13  1  0  0  0  0
 15 13  1  0  0  0  0
 16 17  1  0  0  0  0
 16 18  1  0  0  0  0
 19 21  1  0  0  0  0
 19 20  1  0  0  0  0
 22 32  1  0  0  0  0
 22 16  1  0  0  0  0
 23 22  1  0  0  0  0
 24 22  1  0  0  0  0
 25 26  1  0  0  0  0
 25 19  1  0  0  0  0
 27 25  1  0  0  0  0
 28 25  1  0  0  0  0
 29 31  1  0  0  0  0
 29 32  1  0  0  0  0
 30 29  1  0  0  0  0
 32 34  1  0  0  0  0
 33 32  1  0  0  0  0
M  END
