2
 OpenBabel05122313063D

 32 36  0  0  1  0  0  0  0  0999 V2000
    5.7063   -1.7355    1.2807 N   0  0  0  0  0  0  0  0  0  0  0  0
    1.7906    1.3431   -1.2128 N   0  0  0  0  0  2  0  0  0  0  0  0
    6.3267   -0.3139   -1.0947 N   0  0  0  0  0  0  0  0  0  0  0  0
    3.3047    2.0505   -2.9382 C   0  0  0  0  0  0  0  0  0  0  0  0
    3.4698    2.6487   -3.8458 H   0  0  0  0  0  0  0  0  0  0  0  0
    4.7903   -0.9950    0.6564 C   0  0  0  0  0  0  0  0  0  0  0  0
    6.9497   -1.7875    0.7457 C   0  0  0  0  0  0  0  0  0  0  0  0
    4.0756    0.5428   -1.2070 C   0  0  0  0  0  0  0  0  0  0  0  0
    2.7704    0.5990   -0.6560 C   0  0  0  0  0  0  0  0  0  0  0  0
    5.1080   -0.2675   -0.5567 C   0  0  1  0  0  3  0  0  0  0  0  0
    2.0382    2.0551   -2.3174 C   0  0  0  0  0  0  0  0  0  0  0  0
    1.1734    2.6437   -2.6806 H   0  0  0  0  0  0  0  0  0  0  0  0
    4.3310    1.2912   -2.3779 C   0  0  0  0  0  0  0  0  0  0  0  0
    5.3419    1.2533   -2.8090 H   0  0  0  0  0  0  0  0  0  0  0  0
    7.2664   -1.0621   -0.4685 C   0  0  0  0  0  0  0  0  0  0  0  0
    9.5487   -1.9054   -0.3635 C   0  0  0  0  0  0  0  0  0  0  0  0
   10.5668   -1.9649   -0.7770 H   0  0  0  0  0  0  0  0  0  0  0  0
    8.5867   -1.1419   -1.0036 C   0  0  0  0  0  0  0  0  0  0  0  0
    8.7997   -0.5809   -1.9251 H   0  0  0  0  0  0  0  0  0  0  0  0
    7.9658   -2.5642    1.3784 C   0  0  0  0  0  0  0  0  0  0  0  0
    7.6986   -3.1034    2.2988 H   0  0  0  0  0  0  0  0  0  0  0  0
    9.2372   -2.6190    0.8318 C   0  0  0  0  0  0  0  0  0  0  0  0
   10.0199   -3.2177    1.3216 H   0  0  0  0  0  0  0  0  0  0  0  0
    2.4411   -0.1513    0.5586 C   0  0  0  0  0  0  0  0  0  0  0  0
    3.4374   -0.9215    1.2129 C   0  0  0  0  0  0  0  0  0  0  0  0
    3.0743   -1.5979    2.3982 C   0  0  0  0  0  0  0  0  0  0  0  0
    3.8398   -2.1946    2.9147 H   0  0  0  0  0  0  0  0  0  0  0  0
    1.1763   -0.0593    1.0181 N   0  0  0  0  0  0  0  0  0  0  0  0
    0.8496   -0.6959    2.1412 C   0  0  0  0  0  0  0  0  0  0  0  0
   -0.1910   -0.5700    2.4844 H   0  0  0  0  0  0  0  0  0  0  0  0
    1.7678   -1.4807    2.8701 C   0  0  0  0  0  0  0  0  0  0  0  0
    1.4490   -1.9866    3.7931 H   0  0  0  0  0  0  0  0  0  0  0  0
  2  9  1  0  0  0  0
  3 10  1  0  0  0  0
  3 15  2  0  0  0  0
  4 13  1  0  0  0  0
  4 11  2  0  0  0  0
  5  4  1  0  0  0  0
  6 25  2  0  0  0  0
  6  1  1  0  0  0  0
  7  1  2  0  0  0  0
  7 20  1  0  0  0  0
  8  9  1  0  0  0  0
  9 24  2  0  0  0  0
 10  8  1  1  0  0  0
 10  6  1  0  0  0  0
 11  2  1  0  0  0  0
 12 11  1  0  0  0  0
 13  8  2  0  0  0  0
 14 13  1  0  0  0  0
 15  7  1  0  0  0  0
 16 22  1  0  0  0  0
 17 16  1  0  0  0  0
 18 15  1  0  0  0  0
 18 16  2  0  0  0  0
 19 18  1  0  0  0  0
 20 21  1  0  0  0  0
 22 23  1  0  0  0  0
 22 20  2  0  0  0  0
 24 28  1  0  0  0  0
 24 25  1  0  0  0  0
 25 26  1  0  0  0  0
 26 31  2  0  0  0  0
 26 27  1  0  0  0  0
 28 29  2  0  0  0  0
 29 30  1  0  0  0  0
 29 31  1  0  0  0  0
 31 32  1  0  0  0  0
M  END
