3
 OpenBabel05122313063D

 69 69  0  0  1  0  0  0  0  0999 V2000
   -2.3012   -0.2392   -0.0691 P   0  0  0  0  0  0  0  0  0  0  0  0
    2.2891   -0.2449    0.1110 P   0  0  0  0  0  0  0  0  0  0  0  0
   -0.0008    1.5562   -0.1067 N   0  0  0  0  0  2  0  0  0  0  0  0
   -2.3493    1.4777   -0.8170 C   0  0  0  0  0  0  0  0  0  0  0  0
   -2.3329    1.2876   -1.9128 H   0  0  0  0  0  0  0  0  0  0  0  0
   -3.2740    2.0511   -0.6027 H   0  0  0  0  0  0  0  0  0  0  0  0
   -1.1299    2.2646   -0.4441 C   0  0  2  0  0  3  0  0  0  0  0  0
   -1.1510    3.6667   -0.4530 C   0  0  0  0  0  0  0  0  0  0  0  0
   -2.0805    4.1795   -0.7391 H   0  0  0  0  0  0  0  0  0  0  0  0
   -0.0036    4.3910   -0.1114 C   0  0  0  0  0  0  0  0  0  0  0  0
   -0.0005    5.4905   -0.1266 H   0  0  0  0  0  0  0  0  0  0  0  0
    1.1345    3.6701    0.2696 C   0  0  0  0  0  0  0  0  0  0  0  0
    2.0542    4.1864    0.5801 H   0  0  0  0  0  0  0  0  0  0  0  0
    1.1096    2.2690    0.2864 C   0  0  0  0  0  0  0  0  0  0  0  0
    2.2828    1.4893    0.8053 C   0  0  0  0  0  0  0  0  0  0  0  0
    2.1362    1.3418    1.8982 H   0  0  0  0  0  0  0  0  0  0  0  0
    3.2304    2.0497    0.6756 H   0  0  0  0  0  0  0  0  0  0  0  0
   -3.5258   -1.1572   -1.2413 C   0  0  0  0  0  0  0  0  0  0  0  0
   -4.8325   -0.3917   -1.5211 C   0  0  0  0  0  0  0  0  0  0  0  0
   -4.6477    0.6013   -1.9772 H   0  0  0  0  0  0  0  0  0  0  0  0
   -5.4617   -0.2495   -0.6265 H   0  0  0  0  0  0  0  0  0  0  0  0
   -5.4308   -0.9733   -2.2553 H   0  0  0  0  0  0  0  0  0  0  0  0
   -2.8002   -1.3507   -2.5873 C   0  0  0  0  0  0  0  0  0  0  0  0
   -3.4859   -1.8762   -3.2859 H   0  0  0  0  0  0  0  0  0  0  0  0
   -1.8820   -1.9518   -2.4740 H   0  0  0  0  0  0  0  0  0  0  0  0
   -2.5272   -0.3867   -3.0638 H   0  0  0  0  0  0  0  0  0  0  0  0
   -3.8299   -2.5403   -0.6391 C   0  0  0  0  0  0  0  0  0  0  0  0
   -4.4011   -3.1453   -1.3756 H   0  0  0  0  0  0  0  0  0  0  0  0
   -4.4459   -2.4730    0.2790 H   0  0  0  0  0  0  0  0  0  0  0  0
   -2.8966   -3.0888   -0.4042 H   0  0  0  0  0  0  0  0  0  0  0  0
   -3.0944   -0.0356    1.6776 C   0  0  0  0  0  0  0  0  0  0  0  0
   -2.4118    1.1775    2.3389 C   0  0  0  0  0  0  0  0  0  0  0  0
   -2.7044    2.1357    1.8652 H   0  0  0  0  0  0  0  0  0  0  0  0
   -1.3084    1.0856    2.3028 H   0  0  0  0  0  0  0  0  0  0  0  0
   -2.7203    1.2269    3.4049 H   0  0  0  0  0  0  0  0  0  0  0  0
   -4.6112    0.1972    1.6983 C   0  0  0  0  0  0  0  0  0  0  0  0
   -5.1818   -0.6835    1.3475 H   0  0  0  0  0  0  0  0  0  0  0  0
   -4.9126    1.0766    1.0940 H   0  0  0  0  0  0  0  0  0  0  0  0
   -4.9301    0.3956    2.7445 H   0  0  0  0  0  0  0  0  0  0  0  0
   -2.7428   -1.3005    2.4837 C   0  0  0  0  0  0  0  0  0  0  0  0
   -3.0928   -1.1818    3.5317 H   0  0  0  0  0  0  0  0  0  0  0  0
   -1.6475   -1.4650    2.4925 H   0  0  0  0  0  0  0  0  0  0  0  0
   -3.2202   -2.2090    2.0692 H   0  0  0  0  0  0  0  0  0  0  0  0
    3.2994   -0.0326   -1.5191 C   0  0  0  0  0  0  0  0  0  0  0  0
    3.2501   -1.3268   -2.3487 C   0  0  0  0  0  0  0  0  0  0  0  0
    3.7199   -1.1368   -3.3377 H   0  0  0  0  0  0  0  0  0  0  0  0
    2.2090   -1.6594   -2.5148 H   0  0  0  0  0  0  0  0  0  0  0  0
    3.7974   -2.1609   -1.8732 H   0  0  0  0  0  0  0  0  0  0  0  0
    4.7584    0.3944   -1.3043 C   0  0  0  0  0  0  0  0  0  0  0  0
    5.3697   -0.4130   -0.8571 H   0  0  0  0  0  0  0  0  0  0  0  0
    4.8527    1.2981   -0.6685 H   0  0  0  0  0  0  0  0  0  0  0  0
    5.2136    0.6390   -2.2884 H   0  0  0  0  0  0  0  0  0  0  0  0
    2.5609    1.0641   -2.3140 C   0  0  0  0  0  0  0  0  0  0  0  0
    3.0003    1.1293   -3.3319 H   0  0  0  0  0  0  0  0  0  0  0  0
    2.6533    2.0655   -1.8497 H   0  0  0  0  0  0  0  0  0  0  0  0
    1.4831    0.8248   -2.4176 H   0  0  0  0  0  0  0  0  0  0  0  0
    3.3137   -1.2090    1.4177 C   0  0  0  0  0  0  0  0  0  0  0  0
    2.3520   -1.5161    2.5812 C   0  0  0  0  0  0  0  0  0  0  0  0
    1.4874   -2.1170    2.2433 H   0  0  0  0  0  0  0  0  0  0  0  0
    1.9505   -0.5953    3.0507 H   0  0  0  0  0  0  0  0  0  0  0  0
    2.9025   -2.0817    3.3632 H   0  0  0  0  0  0  0  0  0  0  0  0
    3.7754   -2.5417    0.8028 C   0  0  0  0  0  0  0  0  0  0  0  0
    4.1774   -3.1958    1.6058 H   0  0  0  0  0  0  0  0  0  0  0  0
    4.5830   -2.4011    0.0584 H   0  0  0  0  0  0  0  0  0  0  0  0
    2.9359   -3.0755    0.3135 H   0  0  0  0  0  0  0  0  0  0  0  0
    4.5178   -0.4263    1.9701 C   0  0  0  0  0  0  0  0  0  0  0  0
    4.2116    0.5088    2.4800 H   0  0  0  0  0  0  0  0  0  0  0  0
    5.2603   -0.1686    1.1940 H   0  0  0  0  0  0  0  0  0  0  0  0
    5.0360   -1.0516    2.7290 H   0  0  0  0  0  0  0  0  0  0  0  0
  1 31  1  0  0  0  0
  2 15  1  0  0  0  0
  2 57  1  0  0  0  0
  3 14  1  0  0  0  0
  4  6  1  0  0  0  0
  4  1  1  0  0  0  0
  5  4  1  0  0  0  0
  7  4  1  6  0  0  0
  7  3  1  0  0  0  0
  8  7  1  0  0  0  0
  8 10  2  0  0  0  0
  9  8  1  0  0  0  0
 10 12  1  0  0  0  0
 11 10  1  0  0  0  0
 12 14  2  0  0  0  0
 12 13  1  0  0  0  0
 14 15  1  0  0  0  0
 15 16  1  0  0  0  0
 17 15  1  0  0  0  0
 18 27  1  0  0  0  0
 18  1  1  0  0  0  0
 19 18  1  0  0  0  0
 19 21  1  0  0  0  0
 20 19  1  0  0  0  0
 22 19  1  0  0  0  0
 23 25  1  0  0  0  0
 23 18  1  0  0  0  0
 24 23  1  0  0  0  0
 26 23  1  0  0  0  0
 27 30  1  0  0  0  0
 27 29  1  0  0  0  0
 28 27  1  0  0  0  0
 31 36  1  0  0  0  0
 31 32  1  0  0  0  0
 31 40  1  0  0  0  0
 32 35  1  0  0  0  0
 33 32  1  0  0  0  0
 34 32  1  0  0  0  0
 36 39  1  0  0  0  0
 37 36  1  0  0  0  0
 38 36  1  0  0  0  0
 40 42  1  0  0  0  0
 40 41  1  0  0  0  0
 43 40  1  0  0  0  0
 44 49  1  0  0  0  0
 44  2  1  0  0  0  0
 45 48  1  0  0  0  0
 45 44  1  0  0  0  0
 46 45  1  0  0  0  0
 47 45  1  0  0  0  0
 49 50  1  0  0  0  0
 49 51  1  0  0  0  0
 52 49  1  0  0  0  0
 53 55  1  0  0  0  0
 53 44  1  0  0  0  0
 54 53  1  0  0  0  0
 56 53  1  0  0  0  0
 57 66  1  0  0  0  0
 57 58  1  0  0  0  0
 58 60  1  0  0  0  0
 58 61  1  0  0  0  0
 59 58  1  0  0  0  0
 62 57  1  0  0  0  0
 62 63  1  0  0  0  0
 64 62  1  0  0  0  0
 65 62  1  0  0  0  0
 66 67  1  0  0  0  0
 66 69  1  0  0  0  0
 68 66  1  0  0  0  0
M  END
