1
 OpenBabel05122313063D

 28 32  0  0  1  0  0  0  0  0999 V2000
    0.0680   -1.0333    1.7947 N   0  0  0  0  0  2  0  0  0  0  0  0
   -0.5413   -3.4082   -1.5311 B   0  0  2  0  0  0  0  0  0  0  0  0
   -0.6252   -4.5231   -1.0694 H   0  0  0  0  0  0  0  0  0  0  0  0
    0.7165   -2.7334   -2.5828 B   0  0  0  0  0  0  0  0  0  0  0  0
    1.6128   -3.4357   -2.9951 H   0  0  0  0  0  0  0  0  0  0  0  0
   -1.7316   -1.2820   -3.0461 B   0  0  0  0  0  0  0  0  0  0  0  0
   -2.6638   -0.8629   -3.6889 H   0  0  0  0  0  0  0  0  0  0  0  0
    0.9956   -1.0441   -2.1020 B   0  0  1  0  0  0  0  0  0  0  0  0
    2.0860   -0.5377   -2.2600 H   0  0  0  0  0  0  0  0  0  0  0  0
   -0.5357   -0.1778   -2.3380 B   0  0  2  0  0  0  0  0  0  0  0  0
   -0.6544    1.0142   -2.5407 H   0  0  0  0  0  0  0  0  0  0  0  0
   -1.6742   -0.9383   -1.3779 C   0  0  2  0  0  0  0  0  0  0  0  0
   -2.5443   -0.4176   -0.9511 H   0  0  0  0  0  0  0  0  0  0  0  0
   -1.0250   -2.1009   -0.5228 C   0  0  2  0  0  0  0  0  0  0  0  0
    0.6248   -2.2495   -0.8676 B   0  0  1  0  0  0  0  0  0  0  0  0
    1.3545   -2.6684    0.0095 H   0  0  0  0  0  0  0  0  0  0  0  0
   -1.6326   -2.4756    0.8325 C   0  0  0  0  0  0  0  0  0  0  0  0
   -2.6292   -1.9915    0.9319 H   0  0  0  0  0  0  0  0  0  0  0  0
   -1.8217   -3.5659    0.8769 H   0  0  0  0  0  0  0  0  0  0  0  0
   -0.7829   -2.0666    2.0012 C   0  0  2  0  0  3  0  0  0  0  0  0
   -0.8572   -2.6878    3.2594 C   0  0  0  0  0  0  0  0  0  0  0  0
   -1.5464   -3.5320    3.4041 H   0  0  0  0  0  0  0  0  0  0  0  0
   -0.0465   -2.2278    4.3030 C   0  0  0  0  0  0  0  0  0  0  0  0
   -0.0892   -2.7084    5.2919 H   0  0  0  0  0  0  0  0  0  0  0  0
    0.8274   -1.1544    4.0692 C   0  0  0  0  0  0  0  0  0  0  0  0
    1.4873   -0.7663    4.8573 H   0  0  0  0  0  0  0  0  0  0  0  0
    0.8555   -0.5821    2.7961 C   0  0  0  0  0  0  0  0  0  0  0  0
    1.5233    0.2546    2.5429 H   0  0  0  0  0  0  0  0  0  0  0  0
  1 20  1  0  0  0  0
  1 27  1  0  0  0  0
  2  3  1  1  0  0  0
  2 15  1  0  0  0  0
  2 14  1  0  0  0  0
  4  8  1  0  0  0  0
  4  2  1  0  0  0  0
  5  4  1  0  0  0  0
  6 10  1  0  0  0  0
  6 12  1  0  0  0  0
  7  6  1  0  0  0  0
  8  9  1  6  0  0  0
  8 15  1  0  0  0  0
 10 11  1  6  0  0  0
 10  8  1  0  0  0  0
 10 12  1  0  0  0  0
 12 13  1  1  0  0  0
 12 14  1  0  0  0  0
 14 17  1  1  0  0  0
 15 14  1  0  0  0  0
 15 16  1  1  0  0  0
 17 19  1  0  0  0  0
 17 18  1  0  0  0  0
 20 17  1  1  0  0  0
 20 21  1  0  0  0  0
 21 22  1  0  0  0  0
 21 23  2  0  0  0  0
 23 24  1  0  0  0  0
 25 23  1  0  0  0  0
 25 26  1  0  0  0  0
 27 25  2  0  0  0  0
 28 27  1  0  0  0  0
M  END
