4
 OpenBabel05122313063D

 35 35  0  0  0  0  0  0  0  0999 V2000
   -1.6015   -1.7914   -0.7752 O   0  0  0  0  0  0  0  0  0  0  0  0
   -7.0246    1.3383   -0.6648 O   0  0  0  0  0  0  0  0  0  0  0  0
   -7.6180   -0.4577    0.4357 O   0  0  0  0  0  0  0  0  0  0  0  0
   -0.8828    0.9386   -1.3957 N   0  0  0  0  0  2  0  0  0  0  0  0
    0.6770    4.0921    0.0625 N   0  0  0  0  0  0  0  0  0  0  0  0
   -6.7917    0.2360   -0.1629 N   0  0  0  0  0  0  0  0  0  0  0  0
   -3.1363   -0.0119   -1.0513 C   0  0  0  0  0  0  0  0  0  0  0  0
   -2.8222   -1.3306   -0.5676 C   0  0  0  0  0  0  0  0  0  0  0  0
   -3.8382   -2.0763    0.0840 C   0  0  0  0  0  0  0  0  0  0  0  0
   -3.5982   -3.0755    0.4723 H   0  0  0  0  0  0  0  0  0  0  0  0
   -5.1264   -1.5658    0.2287 C   0  0  0  0  0  0  0  0  0  0  0  0
   -5.9233   -2.1306    0.7307 H   0  0  0  0  0  0  0  0  0  0  0  0
   -5.4274   -0.2959   -0.2919 C   0  0  0  0  0  0  0  0  0  0  0  0
   -4.4523    0.4704   -0.9334 C   0  0  0  0  0  0  0  0  0  0  0  0
   -4.7299    1.4666   -1.3043 H   0  0  0  0  0  0  0  0  0  0  0  0
   -2.1517    0.8732   -1.6627 C   0  0  0  0  0  3  0  0  0  0  0  0
   -2.5629    1.5895   -2.4047 H   0  0  0  0  0  0  0  0  0  0  0  0
   -0.0365    1.8806   -2.1523 C   0  0  0  0  0  0  0  0  0  0  0  0
   -0.0062    1.5500   -3.2120 H   0  0  0  0  0  0  0  0  0  0  0  0
    0.9938    1.7612   -1.7735 H   0  0  0  0  0  0  0  0  0  0  0  0
   -0.4866    3.3458   -2.0868 C   0  0  0  0  0  0  0  0  0  0  0  0
    0.1953    3.9314   -2.7392 H   0  0  0  0  0  0  0  0  0  0  0  0
   -1.4864    3.4560   -2.5570 H   0  0  0  0  0  0  0  0  0  0  0  0
   -0.5914    3.9744   -0.6968 C   0  0  0  0  0  0  0  0  0  0  0  0
   -1.2997    3.3962   -0.0693 H   0  0  0  0  0  0  0  0  0  0  0  0
   -1.0388    4.9924   -0.8024 H   0  0  0  0  0  0  0  0  0  0  0  0
    1.6356    4.9878   -0.5942 C   0  0  0  0  0  0  0  0  0  0  0  0
    1.2102    6.0080   -0.7434 H   0  0  0  0  0  0  0  0  0  0  0  0
    1.9360    4.5856   -1.5807 H   0  0  0  0  0  0  0  0  0  0  0  0
    2.5442    5.0825    0.0319 H   0  0  0  0  0  0  0  0  0  0  0  0
    0.3880    4.5564    1.4329 C   0  0  0  0  0  0  0  0  0  0  0  0
    1.3171    4.5354    2.0350 H   0  0  0  0  0  0  0  0  0  0  0  0
   -0.3638    3.8920    1.9008 H   0  0  0  0  0  0  0  0  0  0  0  0
   -0.0170    5.5946    1.4322 H   0  0  0  0  0  0  0  0  0  0  0  0
   -1.3270   -2.7496   -0.3694 H   0  0  0  0  0  0  0  0  0  0  0  0
  1  8  1  0  0  0  0
  1 35  1  0  0  0  0
  2  6  2  0  0  0  0
  5 31  1  0  0  0  0
  6  3  2  0  0  0  0
  7 14  2  0  0  0  0
  7  8  1  0  0  0  0
  8  9  2  0  0  0  0
  9 11  1  0  0  0  0
  9 10  1  0  0  0  0
 11 12  1  0  0  0  0
 13  6  1  0  0  0  0
 13 11  2  0  0  0  0
 14 13  1  0  0  0  0
 15 14  1  0  0  0  0
 16  4  1  0  0  0  0
 16  7  1  0  0  0  0
 17 16  1  0  0  0  0
 18 21  1  0  0  0  0
 18 20  1  0  0  0  0
 18  4  1  0  0  0  0
 19 18  1  0  0  0  0
 21 24  1  0  0  0  0
 22 21  1  0  0  0  0
 23 21  1  0  0  0  0
 24 25  1  0  0  0  0
 24  5  1  0  0  0  0
 26 24  1  0  0  0  0
 27 30  1  0  0  0  0
 27  5  1  0  0  0  0
 28 27  1  0  0  0  0
 29 27  1  0  0  0  0
 31 33  1  0  0  0  0
 31 32  1  0  0  0  0
 34 31  1  0  0  0  0
M  END
