3
 OpenBabel05122313063D

 36 38  0  0  1  0  0  0  0  0999 V2000
    4.1068   -0.4821    0.5450 O   0  0  0  0  0  0  0  0  0  0  0  0
    2.4044    2.2602   -0.3605 O   0  0  0  0  0  0  0  0  0  0  0  0
    1.9493    0.0733    0.5140 N   0  0  0  0  0  2  0  0  0  0  0  0
    4.1141    0.9672    0.5676 N   0  0  1  0  0  0  0  0  0  0  0  0
    2.8247   -0.8947    0.4730 C   0  0  2  0  0  3  0  0  0  0  0  0
    4.5792    1.5220   -0.7635 C   0  0  0  0  0  0  0  0  0  0  0  0
    5.4315    0.5318   -1.5495 C   0  0  0  0  0  0  0  0  0  0  0  0
    6.3209    0.2202   -0.9674 H   0  0  0  0  0  0  0  0  0  0  0  0
    5.7834    1.0207   -2.4794 H   0  0  0  0  0  0  0  0  0  0  0  0
    4.8594   -0.3715   -1.8326 H   0  0  0  0  0  0  0  0  0  0  0  0
    5.3641    2.7958   -0.4208 C   0  0  0  0  0  0  0  0  0  0  0  0
    4.7202    3.5166    0.1202 H   0  0  0  0  0  0  0  0  0  0  0  0
    5.7278    3.2837   -1.3474 H   0  0  0  0  0  0  0  0  0  0  0  0
    6.2307    2.5521    0.2232 H   0  0  0  0  0  0  0  0  0  0  0  0
    3.2436    1.8680   -1.4545 C   0  0  0  0  0  0  0  0  0  0  0  0
    3.3150    2.7304   -2.1442 H   0  0  0  0  0  0  0  0  0  0  0  0
    2.8002    0.9972   -1.9874 H   0  0  0  0  0  0  0  0  0  0  0  0
    2.6636    1.3703    0.6897 C   0  0  1  0  0  0  0  0  0  0  0  0
    2.3406    2.0471    2.0156 C   0  0  0  0  0  0  0  0  0  0  0  0
    1.2675    2.3251    1.9937 H   0  0  0  0  0  0  0  0  0  0  0  0
    2.9393    2.9811    2.0308 H   0  0  0  0  0  0  0  0  0  0  0  0
    2.6419    1.1741    3.2288 C   0  0  0  0  0  0  0  0  0  0  0  0
    1.9696    0.2942    3.2514 H   0  0  0  0  0  0  0  0  0  0  0  0
    2.4719    1.7419    4.1642 H   0  0  0  0  0  0  0  0  0  0  0  0
    3.6960    0.8301    3.2220 H   0  0  0  0  0  0  0  0  0  0  0  0
    2.6150   -2.3422    0.3792 C   0  0  0  0  0  0  0  0  0  0  0  0
    3.7210   -3.1808    0.1069 C   0  0  0  0  0  0  0  0  0  0  0  0
    4.7177   -2.7371   -0.0256 H   0  0  0  0  0  0  0  0  0  0  0  0
    3.5409   -4.5644   -0.0011 C   0  0  0  0  0  0  0  0  0  0  0  0
    4.4037   -5.2109   -0.2206 H   0  0  0  0  0  0  0  0  0  0  0  0
    2.2629   -5.1247    0.1637 C   0  0  0  0  0  0  0  0  0  0  0  0
    2.1239   -6.2127    0.0708 H   0  0  0  0  0  0  0  0  0  0  0  0
    1.1650   -4.2959    0.4481 C   0  0  0  0  0  0  0  0  0  0  0  0
    0.1591   -4.7218    0.5793 H   0  0  0  0  0  0  0  0  0  0  0  0
    1.3353   -2.9126    0.5629 C   0  0  0  0  0  0  0  0  0  0  0  0
    0.4713   -2.2601    0.7741 H   0  0  0  0  0  0  0  0  0  0  0  0
  2 18  1  0  0  0  0
  3 18  1  0  0  0  0
  4  1  1  6  0  0  0
  4 18  1  0  0  0  0
  5 26  1  1  0  0  0
  5  3  1  0  0  0  0
  5  1  1  0  0  0  0
  6 11  1  0  0  0  0
  6  4  1  0  0  0  0
  7  8  1  0  0  0  0
  7  6  1  0  0  0  0
  9  7  1  0  0  0  0
 10  7  1  0  0  0  0
 11 12  1  0  0  0  0
 11 14  1  0  0  0  0
 13 11  1  0  0  0  0
 15  6  1  0  0  0  0
 15  2  1  0  0  0  0
 16 15  1  0  0  0  0
 17 15  1  0  0  0  0
 18 19  1  1  0  0  0
 19 21  1  0  0  0  0
 19 22  1  0  0  0  0
 20 19  1  0  0  0  0
 22 23  1  0  0  0  0
 22 24  1  0  0  0  0
 25 22  1  0  0  0  0
 26 35  1  0  0  0  0
 27 26  2  0  0  0  0
 28 27  1  0  0  0  0
 29 27  1  0  0  0  0
 29 31  2  0  0  0  0
 30 29  1  0  0  0  0
 31 33  1  0  0  0  0
 32 31  1  0  0  0  0
 33 35  2  0  0  0  0
 33 34  1  0  0  0  0
 35 36  1  0  0  0  0
M  END
