3
 OpenBabel05122313063D

 38 40  0  0  1  0  0  0  0  0999 V2000
    4.0725    0.0887    0.9511 O   0  0  0  0  0  0  0  0  0  0  0  0
    2.1282   -2.5403    0.0053 O   0  0  0  0  0  0  0  0  0  0  0  0
    1.8639   -0.2700    0.7628 N   0  0  0  0  0  2  0  0  0  0  0  0
    3.9444   -1.3350    0.7732 N   0  0  2  0  0  0  0  0  0  0  0  0
    2.7449    1.9655    0.9211 N   0  0  0  0  0  0  0  0  0  0  0  0
    2.8195    0.6281    0.8495 C   0  0  1  0  0  3  0  0  0  0  0  0
    4.2521   -1.7708   -0.6510 C   0  0  0  0  0  0  0  0  0  0  0  0
    4.8745   -0.6623   -1.4961 C   0  0  0  0  0  0  0  0  0  0  0  0
    5.8123   -0.2860   -1.0431 H   0  0  0  0  0  0  0  0  0  0  0  0
    5.1168   -1.0703   -2.4977 H   0  0  0  0  0  0  0  0  0  0  0  0
    4.1729    0.1818   -1.6416 H   0  0  0  0  0  0  0  0  0  0  0  0
    5.1860   -2.9800   -0.5143 C   0  0  0  0  0  0  0  0  0  0  0  0
    4.6969   -3.7753    0.0824 H   0  0  0  0  0  0  0  0  0  0  0  0
    5.4396   -3.3946   -1.5112 H   0  0  0  0  0  0  0  0  0  0  0  0
    6.1210   -2.6896    0.0032 H   0  0  0  0  0  0  0  0  0  0  0  0
    2.8612   -2.1946   -1.1784 C   0  0  0  0  0  0  0  0  0  0  0  0
    2.8962   -3.0972   -1.8183 H   0  0  0  0  0  0  0  0  0  0  0  0
    2.3568   -1.3642   -1.7188 H   0  0  0  0  0  0  0  0  0  0  0  0
    2.4770   -1.6100    0.9822 C   0  0  2  0  0  0  0  0  0  0  0  0
    2.1643   -2.1636    2.3574 C   0  0  0  0  0  0  0  0  0  0  0  0
    2.6360   -3.1580    2.4680 H   0  0  0  0  0  0  0  0  0  0  0  0
    2.5679   -1.4796    3.1274 H   0  0  0  0  0  0  0  0  0  0  0  0
    1.0677   -2.2296    2.4886 H   0  0  0  0  0  0  0  0  0  0  0  0
    3.9097    2.8127    0.6433 C   0  0  0  0  0  0  0  0  0  0  0  0
    4.1588    3.3833    1.5678 H   0  0  0  0  0  0  0  0  0  0  0  0
    4.7741    2.1664    0.4093 H   0  0  0  0  0  0  0  0  0  0  0  0
    3.5966    3.7819   -0.5025 C   0  0  0  0  0  0  0  0  0  0  0  0
    4.4776    4.4347   -0.6753 H   0  0  0  0  0  0  0  0  0  0  0  0
    3.4315    3.1900   -1.4284 H   0  0  0  0  0  0  0  0  0  0  0  0
    2.3426    4.6091   -0.1922 C   0  0  0  0  0  0  0  0  0  0  0  0
    2.5465    5.2690    0.6824 H   0  0  0  0  0  0  0  0  0  0  0  0
    2.1027    5.2803   -1.0425 H   0  0  0  0  0  0  0  0  0  0  0  0
    1.1576    3.6863    0.1137 C   0  0  0  0  0  0  0  0  0  0  0  0
    0.8846    3.1068   -0.7922 H   0  0  0  0  0  0  0  0  0  0  0  0
    0.2568    4.2579    0.4145 H   0  0  0  0  0  0  0  0  0  0  0  0
    1.4997    2.6877    1.2199 C   0  0  0  0  0  0  0  0  0  0  0  0
    0.6839    1.9456    1.3438 H   0  0  0  0  0  0  0  0  0  0  0  0
    1.6486    3.2132    2.1923 H   0  0  0  0  0  0  0  0  0  0  0  0
  2 19  1  0  0  0  0
  3  6  1  0  0  0  0
  3 19  1  0  0  0  0
  4  1  1  6  0  0  0
  4 19  1  0  0  0  0
  5 36  1  0  0  0  0
  6  5  1  1  0  0  0
  6  1  1  0  0  0  0
  7 12  1  0  0  0  0
  7  4  1  0  0  0  0
  8  9  1  0  0  0  0
  8  7  1  0  0  0  0
 10  8  1  0  0  0  0
 11  8  1  0  0  0  0
 12 15  1  0  0  0  0
 12 13  1  0  0  0  0
 14 12  1  0  0  0  0
 16  7  1  0  0  0  0
 16  2  1  0  0  0  0
 17 16  1  0  0  0  0
 18 16  1  0  0  0  0
 19 20  1  1  0  0  0
 20 21  1  0  0  0  0
 20 23  1  0  0  0  0
 20 22  1  0  0  0  0
 24  5  1  0  0  0  0
 24 25  1  0  0  0  0
 26 24  1  0  0  0  0
 27 30  1  0  0  0  0
 27 24  1  0  0  0  0
 28 27  1  0  0  0  0
 29 27  1  0  0  0  0
 30 33  1  0  0  0  0
 30 31  1  0  0  0  0
 32 30  1  0  0  0  0
 33 35  1  0  0  0  0
 33 36  1  0  0  0  0
 34 33  1  0  0  0  0
 36 37  1  0  0  0  0
 36 38  1  0  0  0  0
M  END
