2
q = -1.0, confidence = 0.0

 21 21  0  0  0  0  0  0  0  0999 V2000
   -0.3769    1.4938   -1.5034 S   0  0  0  0  0  0  0  0  0  0  0  0
    0.1084    0.6214    0.9393 N   0  0  0  0  0  2  0  0  0  0  0  0
    1.4306    2.3678    0.5302 N   0  0  0  0  0  0  0  0  0  0  0  0
    0.4762    1.5245    0.0130 C   0  0  0  0  0  0  0  0  0  0  0  0
    0.8159    0.8867    2.0868 C   0  0  0  0  0  0  0  0  0  0  0  0
    0.6725    0.3065    3.0038 H   0  0  0  0  0  0  0  0  0  0  0  0
    1.6494    1.9585    1.8497 C   0  0  0  0  0  0  0  0  0  0  0  0
    2.3734    2.4522    2.5001 H   0  0  0  0  0  0  0  0  0  0  0  0
    1.9832    3.5867   -0.1340 C   0  0  0  0  0  0  0  0  0  0  0  0
    0.8240    4.5747   -0.3613 C   0  0  0  0  0  0  0  0  0  0  0  0
    1.2034    5.4995   -0.8394 H   0  0  0  0  0  0  0  0  0  0  0  0
    0.0491    4.1287   -1.0148 H   0  0  0  0  0  0  0  0  0  0  0  0
    0.3494    4.8424    0.6033 H   0  0  0  0  0  0  0  0  0  0  0  0
    2.6367    3.1793   -1.4659 C   0  0  0  0  0  0  0  0  0  0  0  0
    3.0025    4.0831   -1.9919 H   0  0  0  0  0  0  0  0  0  0  0  0
    3.4989    2.5057   -1.2911 H   0  0  0  0  0  0  0  0  0  0  0  0
    1.9141    2.6610   -2.1254 H   0  0  0  0  0  0  0  0  0  0  0  0
    3.0406    4.2289    0.7739 C   0  0  0  0  0  0  0  0  0  0  0  0
    3.4647    5.1092    0.2536 H   0  0  0  0  0  0  0  0  0  0  0  0
    2.6071    4.5834    1.7295 H   0  0  0  0  0  0  0  0  0  0  0  0
    3.8746    3.5323    0.9922 H   0  0  0  0  0  0  0  0  0  0  0  0
  1  4  2  0  0  0  0
  2  5  1  0  0  0  0
  3  7  1  0  0  0  0
  4  3  1  0  0  0  0
  4  2  1  0  0  0  0
  5  6  1  0  0  0  0
  7  5  2  0  0  0  0
  7  8  1  0  0  0  0
  9  3  1  0  0  0  0
  9 18  1  0  0  0  0
 10  9  1  0  0  0  0
 10 13  1  0  0  0  0
 11 10  1  0  0  0  0
 12 10  1  0  0  0  0
 14 16  1  0  0  0  0
 14  9  1  0  0  0  0
 15 14  1  0  0  0  0
 17 14  1  0  0  0  0
 18 21  1  0  0  0  0
 18 20  1  0  0  0  0
 19 18  1  0  0  0  0
M  END
