1
 OpenBabel05122313063D

 22 23  0  0  0  0  0  0  0  0999 V2000
    1.2783   -1.4469   -0.6127 N   0  0  0  0  0  2  0  0  0  0  0  0
    2.6226   -1.2744   -0.7284 N   0  0  0  0  0  0  0  0  0  0  0  0
    3.2284   -2.4675   -0.9775 C   0  0  0  0  0  3  0  0  0  0  0  0
    2.2350   -3.4389   -1.0350 C   0  0  0  0  0  0  0  0  0  0  0  0
    1.0171   -2.7606   -0.7924 C   0  0  0  0  0  0  0  0  0  0  0  0
   -0.3692   -3.2981   -0.6732 C   0  0  0  0  0  0  0  0  0  0  0  0
   -1.0912   -2.6679   -1.2302 H   0  0  0  0  0  0  0  0  0  0  0  0
   -0.4181   -4.3339   -1.0561 H   0  0  0  0  0  0  0  0  0  0  0  0
   -0.6918   -3.3026    0.3883 H   0  0  0  0  0  0  0  0  0  0  0  0
    2.3637   -4.5088   -1.2227 H   0  0  0  0  0  0  0  0  0  0  0  0
    4.3132   -2.5179   -1.1116 H   0  0  0  0  0  0  0  0  0  0  0  0
    3.2434   -0.0003   -0.5519 C   0  0  0  0  0  0  0  0  0  0  0  0
    4.2409    0.1351    0.4277 C   0  0  0  0  0  0  0  0  0  0  0  0
    4.4794   -0.7220    1.0741 H   0  0  0  0  0  0  0  0  0  0  0  0
    4.8605    1.3817    0.5979 C   0  0  0  0  0  0  0  0  0  0  0  0
    5.6361    1.4995    1.3691 H   0  0  0  0  0  0  0  0  0  0  0  0
    4.4773    2.4772   -0.1921 C   0  0  0  0  0  0  0  0  0  0  0  0
    4.9621    3.4546   -0.0491 H   0  0  0  0  0  0  0  0  0  0  0  0
    3.4747    2.3269   -1.1647 C   0  0  0  0  0  0  0  0  0  0  0  0
    3.1775    3.1819   -1.7905 H   0  0  0  0  0  0  0  0  0  0  0  0
    2.8521    1.0856   -1.3551 C   0  0  0  0  0  0  0  0  0  0  0  0
    2.0659    0.9544   -2.1130 H   0  0  0  0  0  0  0  0  0  0  0  0
  2  1  1  0  0  0  0
  2 12  1  0  0  0  0
  3  2  1  0  0  0  0
  4  3  1  0  0  0  0
  4  5  2  0  0  0  0
  5  6  1  0  0  0  0
  5  1  1  0  0  0  0
  6  9  1  0  0  0  0
  7  6  1  0  0  0  0
  8  6  1  0  0  0  0
 10  4  1  0  0  0  0
 11  3  1  0  0  0  0
 12 13  1  0  0  0  0
 13 15  2  0  0  0  0
 13 14  1  0  0  0  0
 15 16  1  0  0  0  0
 17 18  1  0  0  0  0
 17 15  1  0  0  0  0
 19 17  2  0  0  0  0
 20 19  1  0  0  0  0
 21 19  1  0  0  0  0
 21 12  2  0  0  0  0
 22 21  1  0  0  0  0
M  END
