3
 OpenBabel05122313063D

 17 17  0  0  0  0  0  0  0  0999 V2000
    0.9635   -1.1456    2.0537 S   0  0  0  0  0  0  0  0  0  0  0  0
    2.0051   -1.8611    0.8696 C   0  0  0  0  0  0  0  0  0  0  0  0
    1.6202   -1.4133   -0.3618 N   0  0  0  0  0  2  0  0  0  0  0  0
    2.2683   -1.8244   -1.4706 C   0  0  0  0  0  0  0  0  0  0  0  0
    3.3436   -2.7176   -1.3975 C   0  0  0  0  0  0  0  0  0  0  0  0
    3.7608   -3.1840   -0.1439 C   0  0  0  0  0  0  0  0  0  0  0  0
    3.0949   -2.7554    1.0222 C   0  0  0  0  0  0  0  0  0  0  0  0
    3.4832   -3.2045    2.3816 C   0  0  0  0  0  0  0  0  0  0  0  0
    2.9263   -2.8694    3.4147 O   0  0  0  0  0  0  0  0  0  0  0  0
    4.5506   -4.0492    2.3534 O   0  0  0  0  0  0  0  0  0  0  0  0
    4.9773   -4.5258    3.6324 C   0  0  0  0  0  0  0  0  0  0  0  0
    4.1632   -5.0826    4.1396 H   0  0  0  0  0  0  0  0  0  0  0  0
    5.8383   -5.1907    3.4410 H   0  0  0  0  0  0  0  0  0  0  0  0
    5.2766   -3.6839    4.2893 H   0  0  0  0  0  0  0  0  0  0  0  0
    4.6017   -3.8841   -0.0453 H   0  0  0  0  0  0  0  0  0  0  0  0
    3.8433   -3.0393   -2.3214 H   0  0  0  0  0  0  0  0  0  0  0  0
    1.9047   -1.4148   -2.4236 H   0  0  0  0  0  0  0  0  0  0  0  0
  2  7  1  0  0  0  0
  2  1  2  0  0  0  0
  3  2  1  0  0  0  0
  4  5  2  0  0  0  0
  4  3  1  0  0  0  0
  5  6  1  0  0  0  0
  6 15  1  0  0  0  0
  6  7  2  0  0  0  0
  7  8  1  0  0  0  0
  8  9  2  0  0  0  0
 10  8  1  0  0  0  0
 10 11  1  0  0  0  0
 11 12  1  0  0  0  0
 11 14  1  0  0  0  0
 13 11  1  0  0  0  0
 16  5  1  0  0  0  0
 17  4  1  0  0  0  0
M  END
