2
 OpenBabel05122313063D

 22 23  0  0  0  0  0  0  0  0999 V2000
    4.1844   -2.6966   -1.0724 Cl  0  0  0  0  0  0  0  0  0  0  0  0
    2.1874    1.7822   -0.7350 N   0  0  0  0  0  2  0  0  0  0  0  0
    3.2651   -0.2435   -0.9199 N   0  0  0  0  0  0  0  0  0  0  0  0
    2.1920    3.1249   -0.7164 C   0  0  0  0  0  0  0  0  0  0  0  0
    3.3996    3.8597   -0.8631 C   0  0  0  0  0  0  0  0  0  0  0  0
    3.3510    4.9586   -0.8402 H   0  0  0  0  0  0  0  0  0  0  0  0
    4.6251    3.2248   -1.0486 C   0  0  0  0  0  0  0  0  0  0  0  0
    4.6179    1.7909   -1.0784 C   0  0  0  0  0  0  0  0  0  0  0  0
    5.7692    0.9750   -1.2753 C   0  0  0  0  0  3  0  0  0  0  0  0
    6.7560    1.4403   -1.4139 H   0  0  0  0  0  0  0  0  0  0  0  0
    5.6505   -0.4054   -1.2950 C   0  0  0  0  0  0  0  0  0  0  0  0
    6.5149   -1.0661   -1.4432 H   0  0  0  0  0  0  0  0  0  0  0  0
    4.3507   -0.9538   -1.1020 C   0  0  0  0  0  0  0  0  0  0  0  0
    3.3660    1.1104   -0.9097 C   0  0  0  0  0  0  0  0  0  0  0  0
    0.8586    3.7843   -0.5452 C   0  0  0  0  0  0  0  0  0  0  0  0
    0.1461    3.3479   -1.2800 H   0  0  0  0  0  0  0  0  0  0  0  0
    0.9115    4.8819   -0.6641 H   0  0  0  0  0  0  0  0  0  0  0  0
    0.4446    3.5519    0.4594 H   0  0  0  0  0  0  0  0  0  0  0  0
    5.9001    4.0008   -1.2203 C   0  0  0  0  0  0  0  0  0  0  0  0
    6.6419    3.7405   -0.4364 H   0  0  0  0  0  0  0  0  0  0  0  0
    5.7170    5.0900   -1.1670 H   0  0  0  0  0  0  0  0  0  0  0  0
    6.3776    3.7830   -2.1987 H   0  0  0  0  0  0  0  0  0  0  0  0
  2  4  1  0  0  0  0
  3 14  2  0  0  0  0
  4 15  1  0  0  0  0
  5  6  1  0  0  0  0
  5  4  2  0  0  0  0
  7  5  1  0  0  0  0
  8  7  2  0  0  0  0
  8 14  1  0  0  0  0
  9  8  1  0  0  0  0
 10  9  1  0  0  0  0
 11  9  1  0  0  0  0
 11 13  2  0  0  0  0
 12 11  1  0  0  0  0
 13  1  1  0  0  0  0
 13  3  1  0  0  0  0
 14  2  1  0  0  0  0
 15 18  1  0  0  0  0
 16 15  1  0  0  0  0
 17 15  1  0  0  0  0
 19 21  1  0  0  0  0
 19  7  1  0  0  0  0
 19 20  1  0  0  0  0
 22 19  1  0  0  0  0
M  END
