3
 OpenBabel05122313063D

 31 33  0  0  1  0  0  0  0  0999 V2000
    4.1816   -0.1362   -0.0233 N   0  0  0  0  0  0  0  0  0  0  0  0
    2.6326    1.4702   -0.2757 C   0  0  0  0  0  0  0  0  0  0  0  0
    1.9882    0.2492   -0.1920 N   0  0  0  0  0  2  0  0  0  0  0  0
    2.1234    2.7683   -0.4442 C   0  0  0  0  0  0  0  0  0  0  0  0
    1.0401    2.9263   -0.5419 H   0  0  0  0  0  0  0  0  0  0  0  0
    3.0493    3.8163   -0.4917 C   0  0  0  0  0  0  0  0  0  0  0  0
    2.6889    4.8474   -0.6253 H   0  0  0  0  0  0  0  0  0  0  0  0
    4.4421    3.5827   -0.3768 C   0  0  0  0  0  0  0  0  0  0  0  0
    5.1355    4.4359   -0.4181 H   0  0  0  0  0  0  0  0  0  0  0  0
    4.9603    2.2905   -0.2121 C   0  0  0  0  0  0  0  0  0  0  0  0
    6.0418    2.1153   -0.1213 H   0  0  0  0  0  0  0  0  0  0  0  0
    4.0306    1.2400   -0.1629 C   0  0  0  0  0  0  0  0  0  0  0  0
    2.9197   -0.7000   -0.0439 C   0  0  1  0  0  3  0  0  0  0  0  0
    2.6166   -2.1340    0.0525 C   0  0  0  0  0  0  0  0  0  0  0  0
    1.6668   -2.6701   -0.8445 C   0  0  0  0  0  0  0  0  0  0  0  0
    1.2198   -2.0126   -1.6084 H   0  0  0  0  0  0  0  0  0  0  0  0
    1.2677   -4.0160   -0.7610 C   0  0  0  0  0  0  0  0  0  0  0  0
    1.8431   -4.8231    0.2432 C   0  0  0  0  0  0  0  0  0  0  0  0
    1.5343   -5.8769    0.3333 H   0  0  0  0  0  0  0  0  0  0  0  0
    2.7930   -4.3008    1.1342 C   0  0  0  0  0  0  0  0  0  0  0  0
    3.2156   -4.9418    1.9225 H   0  0  0  0  0  0  0  0  0  0  0  0
    3.1844   -2.9575    1.0475 C   0  0  0  0  0  0  0  0  0  0  0  0
    3.8841   -2.5373    1.7846 H   0  0  0  0  0  0  0  0  0  0  0  0
    0.2539   -4.5608   -1.7356 C   0  0  0  0  0  0  0  0  0  0  0  0
   -0.4248   -3.7599   -2.0888 H   0  0  0  0  0  0  0  0  0  0  0  0
    0.7535   -4.9903   -2.6305 H   0  0  0  0  0  0  0  0  0  0  0  0
   -0.3575   -5.3667   -1.2830 H   0  0  0  0  0  0  0  0  0  0  0  0
    5.4549   -0.8276    0.0146 C   0  0  0  0  0  0  0  0  0  0  0  0
    5.2988   -1.8984   -0.2065 H   0  0  0  0  0  0  0  0  0  0  0  0
    6.1323   -0.3996   -0.7508 H   0  0  0  0  0  0  0  0  0  0  0  0
    5.9364   -0.7320    1.0099 H   0  0  0  0  0  0  0  0  0  0  0  0
  1 28  1  0  0  0  0
  2  3  1  0  0  0  0
  2 12  1  0  0  0  0
  3 13  1  0  0  0  0
  4  2  2  0  0  0  0
  5  4  1  0  0  0  0
  6  4  1  0  0  0  0
  6  8  2  0  0  0  0
  7  6  1  0  0  0  0
  8 10  1  0  0  0  0
  9  8  1  0  0  0  0
 10 12  2  0  0  0  0
 10 11  1  0  0  0  0
 12  1  1  0  0  0  0
 13  1  1  0  0  0  0
 13 14  1  6  0  0  0
 14 22  1  0  0  0  0
 15 17  1  0  0  0  0
 15 14  2  0  0  0  0
 16 15  1  0  0  0  0
 17 18  2  0  0  0  0
 18 19  1  0  0  0  0
 18 20  1  0  0  0  0
 20 21  1  0  0  0  0
 22 20  2  0  0  0  0
 22 23  1  0  0  0  0
 24 27  1  0  0  0  0
 24 17  1  0  0  0  0
 25 24  1  0  0  0  0
 26 24  1  0  0  0  0
 28 31  1  0  0  0  0
 29 28  1  0  0  0  0
 30 28  1  0  0  0  0
M  END
