1
 OpenBabel05122313063D

 34 36  0  0  1  0  0  0  0  0999 V2000
   -1.3297   -0.6408   -0.6248 N   0  0  0  0  0  2  0  0  0  0  0  0
   -3.4079   -1.4169    0.6051 C   0  0  0  0  0  0  0  0  0  0  0  0
   -2.9775   -2.3799    0.9121 H   0  0  0  0  0  0  0  0  0  0  0  0
   -2.1576    1.3067   -1.3748 N   0  0  0  0  0  0  0  0  0  0  0  0
   -2.6397   -0.5345   -0.1750 C   0  0  0  0  0  0  0  0  0  0  0  0
   -2.2928    2.4994   -2.2298 C   0  0  0  0  0  0  0  0  0  0  0  0
   -1.3194    2.5848   -2.7507 H   0  0  0  0  0  0  0  0  0  0  0  0
   -1.0641    0.4571   -1.3421 C   0  0  1  0  0  3  0  0  0  0  0  0
    0.2276    0.7146   -1.9955 C   0  0  0  0  0  0  0  0  0  0  0  0
   -4.4868    1.0926   -0.3096 C   0  0  0  0  0  0  0  0  0  0  0  0
   -4.9152    2.0450   -0.6478 H   0  0  0  0  0  0  0  0  0  0  0  0
   -3.1737    0.7019   -0.6330 C   0  0  0  0  0  0  0  0  0  0  0  0
   -4.7128   -1.0275    0.9171 C   0  0  0  0  0  0  0  0  0  0  0  0
   -5.3463   -1.6966    1.5181 H   0  0  0  0  0  0  0  0  0  0  0  0
   -5.2405    0.2092    0.4728 C   0  0  0  0  0  0  0  0  0  0  0  0
   -6.2720    0.4832    0.7410 H   0  0  0  0  0  0  0  0  0  0  0  0
   -2.4951    3.7655   -1.3909 C   0  0  0  0  0  0  0  0  0  0  0  0
   -1.6714    3.8947   -0.6613 H   0  0  0  0  0  0  0  0  0  0  0  0
   -3.4462    3.7395   -0.8242 H   0  0  0  0  0  0  0  0  0  0  0  0
   -2.5161    4.6561   -2.0492 H   0  0  0  0  0  0  0  0  0  0  0  0
   -3.3700    2.2954   -3.3013 C   0  0  0  0  0  0  0  0  0  0  0  0
   -3.1688    1.3766   -3.8858 H   0  0  0  0  0  0  0  0  0  0  0  0
   -3.3699    3.1561   -3.9987 H   0  0  0  0  0  0  0  0  0  0  0  0
   -4.3841    2.2089   -2.8662 H   0  0  0  0  0  0  0  0  0  0  0  0
    2.0876   -0.1146   -3.3324 C   0  0  0  0  0  0  0  0  0  0  0  0
    2.5527   -0.9260   -3.9110 H   0  0  0  0  0  0  0  0  0  0  0  0
    0.8308   -0.3174   -2.7491 C   0  0  0  0  0  0  0  0  0  0  0  0
    0.3088   -1.2802   -2.8549 H   0  0  0  0  0  0  0  0  0  0  0  0
    2.7619    1.1055   -3.1628 C   0  0  0  0  0  0  0  0  0  0  0  0
    3.7591    1.2505   -3.6036 H   0  0  0  0  0  0  0  0  0  0  0  0
    0.9093    1.9408   -1.8306 C   0  0  0  0  0  0  0  0  0  0  0  0
    0.4643    2.7347   -1.2125 H   0  0  0  0  0  0  0  0  0  0  0  0
    2.1722    2.1310   -2.4081 C   0  0  0  0  0  0  0  0  0  0  0  0
    2.7064    3.0803   -2.2524 H   0  0  0  0  0  0  0  0  0  0  0  0
  1  5  1  0  0  0  0
  2  3  1  0  0  0  0
  2 13  1  0  0  0  0
  4  8  1  0  0  0  0
  4 12  1  0  0  0  0
  5  2  2  0  0  0  0
  6 17  1  0  0  0  0
  6  4  1  0  0  0  0
  7  6  1  0  0  0  0
  8  9  1  1  0  0  0
  8  1  1  0  0  0  0
  9 31  1  0  0  0  0
 10 15  1  0  0  0  0
 11 10  1  0  0  0  0
 12 10  2  0  0  0  0
 12  5  1  0  0  0  0
 13 14  1  0  0  0  0
 15 16  1  0  0  0  0
 15 13  2  0  0  0  0
 17 19  1  0  0  0  0
 17 18  1  0  0  0  0
 20 17  1  0  0  0  0
 21 24  1  0  0  0  0
 21  6  1  0  0  0  0
 22 21  1  0  0  0  0
 23 21  1  0  0  0  0
 25 29  2  0  0  0  0
 25 27  1  0  0  0  0
 26 25  1  0  0  0  0
 27  9  2  0  0  0  0
 28 27  1  0  0  0  0
 29 33  1  0  0  0  0
 30 29  1  0  0  0  0
 31 32  1  0  0  0  0
 33 34  1  0  0  0  0
 33 31  2  0  0  0  0
M  END
