1
 OpenBabel05122313063D

 25 25  0  0  0  0  0  0  0  0999 V2000
   -1.5059    0.7701   -1.1807 N   0  0  0  0  0  2  0  0  0  0  0  0
   -5.1310    2.1200    0.4117 N   0  0  0  0  0  0  0  0  0  0  0  0
   -1.3815    0.3425   -2.5804 C   0  0  0  0  0  0  0  0  0  0  0  0
   -2.0821    0.9656   -3.1834 H   0  0  0  0  0  0  0  0  0  0  0  0
   -1.7664   -1.1299   -2.7930 C   0  0  0  0  0  0  0  0  0  0  0  0
   -1.0315   -1.8048   -2.3159 H   0  0  0  0  0  0  0  0  0  0  0  0
   -1.8006   -1.3642   -3.8768 H   0  0  0  0  0  0  0  0  0  0  0  0
   -2.7606   -1.3537   -2.3569 H   0  0  0  0  0  0  0  0  0  0  0  0
    0.0287    0.6556   -3.0869 C   0  0  0  0  0  0  0  0  0  0  0  0
    0.2528    1.7293   -2.9324 H   0  0  0  0  0  0  0  0  0  0  0  0
    0.1126    0.4237   -4.1685 H   0  0  0  0  0  0  0  0  0  0  0  0
    0.7864    0.0615   -2.5399 H   0  0  0  0  0  0  0  0  0  0  0  0
   -2.6629    1.2260   -0.7316 C   0  0  0  0  0  0  0  0  0  0  0  0
   -3.9229    1.1993   -1.4565 C   0  0  0  0  0  0  0  0  0  0  0  0
   -3.9823    0.8095   -2.4796 H   0  0  0  0  0  0  0  0  0  0  0  0
   -5.0886    1.6163   -0.8654 C   0  0  0  0  0  3  0  0  0  0  0  0
   -6.0551    1.5627   -1.3873 H   0  0  0  0  0  0  0  0  0  0  0  0
   -2.7500    1.8115    0.5946 C   0  0  0  0  0  0  0  0  0  0  0  0
   -1.8083    1.9877    1.1306 H   0  0  0  0  0  0  0  0  0  0  0  0
   -3.9413    2.2249    1.1152 C   0  0  0  0  0  0  0  0  0  0  0  0
   -4.0191    2.6834    2.1113 H   0  0  0  0  0  0  0  0  0  0  0  0
   -6.3927    2.4525    1.0552 C   0  0  0  0  0  0  0  0  0  0  0  0
   -7.1728    2.6082    0.2873 H   0  0  0  0  0  0  0  0  0  0  0  0
   -6.2876    3.3884    1.6388 H   0  0  0  0  0  0  0  0  0  0  0  0
   -6.7270    1.6446    1.7414 H   0  0  0  0  0  0  0  0  0  0  0  0
  1 13  1  0  0  0  0
  2 22  1  0  0  0  0
  2 20  1  0  0  0  0
  3  1  1  0  0  0  0
  4  3  1  0  0  0  0
  5  3  1  0  0  0  0
  5  8  1  0  0  0  0
  5  6  1  0  0  0  0
  7  5  1  0  0  0  0
  9 10  1  0  0  0  0
  9  3  1  0  0  0  0
  9 12  1  0  0  0  0
 11  9  1  0  0  0  0
 13 18  1  0  0  0  0
 14 16  1  0  0  0  0
 14 13  2  0  0  0  0
 15 14  1  0  0  0  0
 16  2  1  0  0  0  0
 17 16  1  0  0  0  0
 18 20  2  0  0  0  0
 18 19  1  0  0  0  0
 20 21  1  0  0  0  0
 22 24  1  0  0  0  0
 22 25  1  0  0  0  0
 23 22  1  0  0  0  0
M  END
