1
 OpenBabel05122313063D

 34 36  0  0  1  0  0  0  0  0999 V2000
   -1.4155   -0.0691    1.7380 N   0  0  0  0  0  2  0  0  0  0  0  0
   -0.3792   -0.1037    2.6123 C   0  0  1  0  0  3  0  0  0  0  0  0
    0.8792   -0.0447    2.1412 O   0  0  0  0  0  0  0  0  0  0  0  0
   -0.5772   -0.1913    4.0027 C   0  0  0  0  0  0  0  0  0  0  0  0
    0.3025   -0.2089    4.6593 H   0  0  0  0  0  0  0  0  0  0  0  0
   -1.8822   -0.2691    4.4874 C   0  0  0  0  0  0  0  0  0  0  0  0
   -2.0631   -0.3451    5.5696 H   0  0  0  0  0  0  0  0  0  0  0  0
   -2.9570   -0.2687    3.5790 C   0  0  0  0  0  0  0  0  0  0  0  0
   -3.9981   -0.3533    3.9179 H   0  0  0  0  0  0  0  0  0  0  0  0
   -2.6800   -0.1787    2.2182 C   0  0  0  0  0  0  0  0  0  0  0  0
   -3.4772   -0.2124    1.4655 H   0  0  0  0  0  0  0  0  0  0  0  0
    1.1081   -0.0499    0.4330 P   0  0  0  0  0  0  0  0  0  0  0  0
    2.0453    1.5007    0.2659 C   0  0  0  0  0  0  0  0  0  0  0  0
    1.6280    2.6423    0.9841 C   0  0  0  0  0  0  0  0  0  0  0  0
    0.7799    2.5771    1.6823 H   0  0  0  0  0  0  0  0  0  0  0  0
    2.3065    3.8570    0.8195 C   0  0  0  0  0  0  0  0  0  0  0  0
    1.9913    4.7413    1.3930 H   0  0  0  0  0  0  0  0  0  0  0  0
    3.3888    3.9447   -0.0732 C   0  0  0  0  0  0  0  0  0  0  0  0
    3.9181    4.9006   -0.2018 H   0  0  0  0  0  0  0  0  0  0  0  0
    3.8019    2.8123   -0.7932 C   0  0  0  0  0  0  0  0  0  0  0  0
    4.6563    2.8777   -1.4831 H   0  0  0  0  0  0  0  0  0  0  0  0
    3.1384    1.5878   -0.6227 C   0  0  0  0  0  0  0  0  0  0  0  0
    3.4788    0.6960   -1.1700 H   0  0  0  0  0  0  0  0  0  0  0  0
    2.3247   -1.3607    0.1662 C   0  0  0  0  0  0  0  0  0  0  0  0
    3.4955   -1.3938    0.9566 C   0  0  0  0  0  0  0  0  0  0  0  0
    3.6520   -0.6484    1.7509 H   0  0  0  0  0  0  0  0  0  0  0  0
    4.4542   -2.3872    0.7239 C   0  0  0  0  0  0  0  0  0  0  0  0
    5.3627   -2.4251    1.3431 H   0  0  0  0  0  0  0  0  0  0  0  0
    4.2573   -3.3309   -0.2998 C   0  0  0  0  0  0  0  0  0  0  0  0
    5.0164   -4.1066   -0.4811 H   0  0  0  0  0  0  0  0  0  0  0  0
    3.0959   -3.2919   -1.0870 C   0  0  0  0  0  0  0  0  0  0  0  0
    2.9406   -4.0382   -1.8800 H   0  0  0  0  0  0  0  0  0  0  0  0
    2.1190   -2.3136   -0.8516 C   0  0  0  0  0  0  0  0  0  0  0  0
    1.1853   -2.3013   -1.4305 H   0  0  0  0  0  0  0  0  0  0  0  0
  1 10  1  0  0  0  0
  1  2  1  0  0  0  0
  2  3  1  1  0  0  0
  2  4  1  0  0  0  0
  4  6  2  0  0  0  0
  4  5  1  0  0  0  0
  6  7  1  0  0  0  0
  8  9  1  0  0  0  0
  8  6  1  0  0  0  0
 10  8  2  0  0  0  0
 11 10  1  0  0  0  0
 12  3  1  0  0  0  0
 13 12  1  0  0  0  0
 13 14  1  0  0  0  0
 14 15  1  0  0  0  0
 16 14  2  0  0  0  0
 16 17  1  0  0  0  0
 18 16  1  0  0  0  0
 19 18  1  0  0  0  0
 20 22  1  0  0  0  0
 20 18  2  0  0  0  0
 21 20  1  0  0  0  0
 22 13  2  0  0  0  0
 23 22  1  0  0  0  0
 24 12  1  0  0  0  0
 24 25  1  0  0  0  0
 25 26  1  0  0  0  0
 27 25  2  0  0  0  0
 27 28  1  0  0  0  0
 29 27  1  0  0  0  0
 30 29  1  0  0  0  0
 31 33  1  0  0  0  0
 31 29  2  0  0  0  0
 32 31  1  0  0  0  0
 33 24  2  0  0  0  0
 34 33  1  0  0  0  0
M  END
