1
 OpenBabel05122313063D

 21 22  0  0  0  0  0  0  0  0999 V2000
    1.0264    1.2778    0.3657 N   0  0  0  0  0  2  0  0  0  0  0  0
    4.6854   -0.5996    0.0243 N   0  0  0  0  0  0  0  0  0  0  0  0
    7.2612   -1.0188   -1.0166 N   0  0  0  0  0  0  0  0  0  0  0  0
    2.2597    0.9164   -0.0342 C   0  0  0  0  0  3  0  0  0  0  0  0
    2.6582   -0.0140    0.3984 H   0  0  0  0  0  0  0  0  0  0  0  0
    3.0102    1.7025   -0.9324 C   0  0  0  0  0  0  0  0  0  0  0  0
    2.4205    2.8948   -1.4088 C   0  0  0  0  0  0  0  0  0  0  0  0
    2.9972    3.5101   -2.1159 H   0  0  0  0  0  0  0  0  0  0  0  0
    1.1450    3.2636   -0.9722 C   0  0  0  0  0  0  0  0  0  0  0  0
    0.6707    4.1939   -1.3167 H   0  0  0  0  0  0  0  0  0  0  0  0
    0.4735    2.4247   -0.0721 C   0  0  0  0  0  0  0  0  0  0  0  0
   -0.5238    2.6506    0.3459 H   0  0  0  0  0  0  0  0  0  0  0  0
    4.3940    1.3821   -1.4417 C   0  0  0  0  0  0  0  0  0  0  0  0
    5.1922    0.2096   -0.9214 C   0  0  0  0  0  0  0  0  0  0  0  0
    5.4504   -1.6069    0.4551 C   0  0  0  0  0  0  0  0  0  0  0  0
    5.0213   -2.2602    1.2349 H   0  0  0  0  0  0  0  0  0  0  0  0
    6.7415   -1.8134   -0.0667 C   0  0  0  0  0  0  0  0  0  0  0  0
    7.3705   -2.6459    0.2957 H   0  0  0  0  0  0  0  0  0  0  0  0
    6.4895   -0.0098   -1.4423 C   0  0  0  0  0  0  0  0  0  0  0  0
    6.8873    0.6627   -2.2199 H   0  0  0  0  0  0  0  0  0  0  0  0
    4.9012    2.1032   -2.2996 O   0  0  0  0  0  0  0  0  0  0  0  0
  2 15  1  0  0  0  0
  3 17  1  0  0  0  0
  4  1  1  0  0  0  0
  4  5  1  0  0  0  0
  6  4  1  0  0  0  0
  7  9  1  0  0  0  0
  7  6  2  0  0  0  0
  8  7  1  0  0  0  0
  9 11  2  0  0  0  0
 10  9  1  0  0  0  0
 11 12  1  0  0  0  0
 11  1  1  0  0  0  0
 13  6  1  0  0  0  0
 13 14  1  0  0  0  0
 14  2  2  0  0  0  0
 15 16  1  0  0  0  0
 17 18  1  0  0  0  0
 17 15  2  0  0  0  0
 19  3  2  0  0  0  0
 19 14  1  0  0  0  0
 20 19  1  0  0  0  0
 21 13  2  0  0  0  0
M  END
