4
 OpenBabel05122313063D

 38 39  0  0  1  0  0  0  0  0999 V2000
    0.5461   -1.1271   -0.9743 N   0  0  0  0  0  0  0  0  0  0  0  0
    0.4603   -0.8371   -1.9610 H   0  0  0  0  0  0  0  0  0  0  0  0
    0.4521   -0.1008    1.5695 N   0  0  0  0  0  0  0  0  0  0  0  0
    0.4561    1.5720   -0.9203 N   0  0  0  0  0  2  0  0  0  0  0  0
    0.6464    2.8364   -1.4378 C   0  0  0  0  0  0  0  0  0  0  0  0
   -0.1687    3.5560   -1.5606 H   0  0  0  0  0  0  0  0  0  0  0  0
    1.7580   -0.4367   -0.4389 C   0  0  2  0  0  0  0  0  0  0  0  0
    2.7085   -0.9052   -0.7629 H   0  0  0  0  0  0  0  0  0  0  0  0
    0.5852   -2.6523   -1.0246 C   0  0  0  0  0  0  0  0  0  0  0  0
    0.3042   -0.0493    2.9116 C   0  0  0  0  0  0  0  0  0  0  0  0
   -0.7034    0.1758    3.2854 H   0  0  0  0  0  0  0  0  0  0  0  0
    1.3595   -0.2733    3.8021 C   0  0  0  0  0  0  0  0  0  0  0  0
    1.1772   -0.2156    4.8843 H   0  0  0  0  0  0  0  0  0  0  0  0
    1.9825    2.9925   -1.7573 C   0  0  0  0  0  0  0  0  0  0  0  0
    2.5317    3.8369   -2.1858 H   0  0  0  0  0  0  0  0  0  0  0  0
    1.8573   -3.1098   -1.7635 C   0  0  0  0  0  0  0  0  0  0  0  0
    1.9421   -2.6379   -2.7646 H   0  0  0  0  0  0  0  0  0  0  0  0
    1.8183   -4.2047   -1.9194 H   0  0  0  0  0  0  0  0  0  0  0  0
    2.7854   -2.9073   -1.1920 H   0  0  0  0  0  0  0  0  0  0  0  0
   -0.6437   -3.0898   -1.8344 C   0  0  0  0  0  0  0  0  0  0  0  0
   -0.6552   -2.6221   -2.8407 H   0  0  0  0  0  0  0  0  0  0  0  0
   -1.5888   -2.8365   -1.3233 H   0  0  0  0  0  0  0  0  0  0  0  0
   -0.6192   -4.1868   -1.9778 H   0  0  0  0  0  0  0  0  0  0  0  0
    1.6782   -0.4102    1.0778 C   0  0  0  0  0  0  0  0  0  0  0  0
    0.5496   -3.2506    0.3857 C   0  0  0  0  0  0  0  0  0  0  0  0
    1.4672   -3.0238    0.9623 H   0  0  0  0  0  0  0  0  0  0  0  0
    0.4768   -4.3524    0.3075 H   0  0  0  0  0  0  0  0  0  0  0  0
   -0.3264   -2.8939    0.9571 H   0  0  0  0  0  0  0  0  0  0  0  0
    2.6108    1.7985   -1.4399 N   0  0  0  0  0  0  0  0  0  0  0  0
    2.7874   -0.6460    1.8990 C   0  0  0  0  0  0  0  0  0  0  0  0
    3.7579   -0.9023    1.4491 H   0  0  0  0  0  0  0  0  0  0  0  0
    1.6503    0.9699   -0.9420 C   0  0  2  0  0  3  0  0  0  0  0  0
    2.6296   -0.5732    3.2896 C   0  0  0  0  0  0  0  0  0  0  0  0
    3.4798   -0.7604    3.9618 H   0  0  0  0  0  0  0  0  0  0  0  0
    4.0282    1.4967   -1.5964 C   0  0  0  0  0  0  0  0  0  0  0  0
    4.1674    0.5745   -2.1933 H   0  0  0  0  0  0  0  0  0  0  0  0
    4.5160    1.3743   -0.6092 H   0  0  0  0  0  0  0  0  0  0  0  0
    4.5157    2.3317   -2.1295 H   0  0  0  0  0  0  0  0  0  0  0  0
  1  7  1  0  0  0  0
  2  1  1  0  0  0  0
  3 10  1  0  0  0  0
  5  4  1  0  0  0  0
  6  5  1  0  0  0  0
  7  8  1  6  0  0  0
  7 24  1  0  0  0  0
  9  1  1  0  0  0  0
  9 25  1  0  0  0  0
 10 11  1  0  0  0  0
 10 12  2  0  0  0  0
 12 13  1  0  0  0  0
 14 29  1  0  0  0  0
 14  5  2  0  0  0  0
 15 14  1  0  0  0  0
 16 19  1  0  0  0  0
 16  9  1  0  0  0  0
 17 16  1  0  0  0  0
 18 16  1  0  0  0  0
 20 22  1  0  0  0  0
 20  9  1  0  0  0  0
 21 20  1  0  0  0  0
 23 20  1  0  0  0  0
 24  3  2  0  0  0  0
 24 30  1  0  0  0  0
 25 28  1  0  0  0  0
 25 26  1  0  0  0  0
 27 25  1  0  0  0  0
 29 32  1  0  0  0  0
 30 33  2  0  0  0  0
 31 30  1  0  0  0  0
 32  4  1  0  0  0  0
 32  7  1  1  0  0  0
 33 12  1  0  0  0  0
 33 34  1  0  0  0  0
 35 29  1  0  0  0  0
 35 37  1  0  0  0  0
 36 35  1  0  0  0  0
 38 35  1  0  0  0  0
M  END
