16
 OpenBabel05122313063D

 47 50  0  0  1  0  0  0  0  0999 V2000
   -0.5834    0.0935   -0.1516 P   0  0  2  0  0  0  0  0  0  0  0  0
   -1.6853   -0.3743   -1.3017 O   0  0  0  0  0  0  0  0  0  0  0  0
   -0.4524   -1.2062    0.8701 O   0  0  0  0  0  0  0  0  0  0  0  0
   -1.6346    3.1428    2.3321 C   0  0  0  0  0  0  0  0  0  0  0  0
   -1.1289    3.9471    2.8856 H   0  0  0  0  0  0  0  0  0  0  0  0
    2.6537   -2.1072    1.9453 O   0  0  0  0  0  0  0  0  0  0  0  0
    3.9063   -1.3706    1.9885 C   0  0  0  0  0  0  0  0  0  0  0  0
    4.6993   -2.0417    1.6002 H   0  0  0  0  0  0  0  0  0  0  0  0
    4.1195   -1.1218    3.0449 H   0  0  0  0  0  0  0  0  0  0  0  0
   -0.8976    2.2523    1.5455 C   0  0  0  0  0  0  0  0  0  0  0  0
    0.1976    2.3498    1.4684 H   0  0  0  0  0  0  0  0  0  0  0  0
   -1.5545    1.2234    0.8425 C   0  0  0  0  0  0  0  0  0  0  0  0
    3.6693   -0.1301    1.0824 C   0  0  0  0  0  0  0  0  0  0  0  0
   -2.9997   -0.6697   -0.9435 C   0  0  0  0  0  0  0  0  0  0  0  0
   -2.9687    1.0628    0.8930 C   0  0  0  0  0  0  0  0  0  0  0  0
    2.4119   -0.5308    0.3672 N   0  0  0  0  0  2  0  0  0  0  0  0
    0.5688   -2.2347    0.6853 C   0  0  0  0  0  0  0  0  0  0  0  0
   -3.6500   -1.6331   -1.7251 C   0  0  0  0  0  0  0  0  0  0  0  0
   -3.0976   -2.0996   -2.5531 H   0  0  0  0  0  0  0  0  0  0  0  0
    1.9215   -1.5772    0.9641 C   0  0  2  0  0  3  0  0  0  0  0  0
    0.5387   -2.8126   -0.7348 C   0  0  0  0  0  0  0  0  0  0  0  0
   -0.4689   -3.2214   -0.9413 H   0  0  0  0  0  0  0  0  0  0  0  0
    1.2801   -3.6298   -0.8299 H   0  0  0  0  0  0  0  0  0  0  0  0
    0.7774   -2.0409   -1.4949 H   0  0  0  0  0  0  0  0  0  0  0  0
   -4.9824   -0.3914    0.4014 C   0  0  0  0  0  0  0  0  0  0  0  0
   -5.5118    0.0699    1.2467 H   0  0  0  0  0  0  0  0  0  0  0  0
   -3.6862    1.9911    1.6840 C   0  0  0  0  0  0  0  0  0  0  0  0
   -4.7825    1.9340    1.7271 H   0  0  0  0  0  0  0  0  0  0  0  0
   -3.0328    3.0040    2.3942 C   0  0  0  0  0  0  0  0  0  0  0  0
   -3.6263    3.7081    2.9962 H   0  0  0  0  0  0  0  0  0  0  0  0
    0.2400   -3.2969    1.7314 C   0  0  0  0  0  0  0  0  0  0  0  0
   -0.7644   -3.7050    1.5147 H   0  0  0  0  0  0  0  0  0  0  0  0
    0.2366   -2.8610    2.7470 H   0  0  0  0  0  0  0  0  0  0  0  0
    0.9792   -4.1185    1.7006 H   0  0  0  0  0  0  0  0  0  0  0  0
   -3.6472   -0.0046    0.1295 C   0  0  0  0  0  0  0  0  0  0  0  0
    4.8389    0.0832    0.1227 C   0  0  0  0  0  0  0  0  0  0  0  0
    4.9558   -0.7783   -0.5633 H   0  0  0  0  0  0  0  0  0  0  0  0
    5.7781    0.1986    0.6998 H   0  0  0  0  0  0  0  0  0  0  0  0
    4.7023    1.0008   -0.4773 H   0  0  0  0  0  0  0  0  0  0  0  0
    3.3689    1.1353    1.8972 C   0  0  0  0  0  0  0  0  0  0  0  0
    3.0672    1.9620    1.2222 H   0  0  0  0  0  0  0  0  0  0  0  0
    4.2685    1.4601    2.4570 H   0  0  0  0  0  0  0  0  0  0  0  0
    2.5489    0.9590    2.6220 H   0  0  0  0  0  0  0  0  0  0  0  0
   -4.9758   -1.9769   -1.4371 C   0  0  0  0  0  0  0  0  0  0  0  0
   -5.4880   -2.7360   -2.0463 H   0  0  0  0  0  0  0  0  0  0  0  0
   -5.6392   -1.3596   -0.3625 C   0  0  0  0  0  0  0  0  0  0  0  0
   -6.6743   -1.6376   -0.1179 H   0  0  0  0  0  0  0  0  0  0  0  0
  1 12  1  0  0  0  0
  1  3  1  1  0  0  0
  2 14  1  0  0  0  0
  2  1  1  0  0  0  0
  4 29  1  0  0  0  0
  4  5  1  0  0  0  0
  6  7  1  0  0  0  0
  7  9  1  0  0  0  0
  8  7  1  0  0  0  0
 10  4  2  0  0  0  0
 11 10  1  0  0  0  0
 12 15  2  0  0  0  0
 12 10  1  0  0  0  0
 13 40  1  0  0  0  0
 13  7  1  0  0  0  0
 14 35  1  0  0  0  0
 15 27  1  0  0  0  0
 16 20  1  0  0  0  0
 16 13  1  0  0  0  0
 17  3  1  0  0  0  0
 17 31  1  0  0  0  0
 18 44  1  0  0  0  0
 18 14  2  0  0  0  0
 19 18  1  0  0  0  0
 20 17  1  1  0  0  0
 20  6  1  0  0  0  0
 21 17  1  0  0  0  0
 22 21  1  0  0  0  0
 23 21  1  0  0  0  0
 24 21  1  0  0  0  0
 25 26  1  0  0  0  0
 27 28  1  0  0  0  0
 27 29  2  0  0  0  0
 29 30  1  0  0  0  0
 31 33  1  0  0  0  0
 32 31  1  0  0  0  0
 34 31  1  0  0  0  0
 35 25  2  0  0  0  0
 35 15  1  0  0  0  0
 36 38  1  0  0  0  0
 36 13  1  0  0  0  0
 37 36  1  0  0  0  0
 39 36  1  0  0  0  0
 40 42  1  0  0  0  0
 40 43  1  0  0  0  0
 41 40  1  0  0  0  0
 44 46  2  0  0  0  0
 45 44  1  0  0  0  0
 46 47  1  0  0  0  0
 46 25  1  0  0  0  0
M  END
