4
 OpenBabel05122313063D

 31 34  0  0  1  0  0  0  0  0999 V2000
    1.1899    1.6373   -1.6957 S   0  0  0  0  0  0  0  0  0  0  0  0
    2.1167    4.5075   -1.6095 S   0  0  0  0  0  0  0  0  0  0  0  0
    2.4419    2.8802    0.4236 N   0  0  0  0  0  0  0  0  0  0  0  0
    2.1385   -1.6504   -0.2046 N   0  0  0  0  0  2  0  0  0  0  0  0
    2.9882    4.0945    0.8093 C   0  0  0  0  0  0  0  0  0  0  0  0
    2.9274    5.1217   -0.1799 C   0  0  0  0  0  0  0  0  0  0  0  0
    1.9520    2.9356   -0.7954 C   0  0  0  0  0  0  0  0  0  0  0  0
    3.4562    6.4001    0.0524 C   0  0  0  0  0  0  0  0  0  0  0  0
    3.4066    7.1841   -0.7168 H   0  0  0  0  0  0  0  0  0  0  0  0
    3.0155    0.1391    0.8106 N   0  0  0  0  0  0  0  0  0  0  0  0
    3.0628    1.1616    1.0022 H   0  0  0  0  0  0  0  0  0  0  0  0
    0.8140    0.4855   -0.3051 C   0  0  0  0  0  0  0  0  0  0  0  0
    0.4360    1.0911    0.5407 H   0  0  0  0  0  0  0  0  0  0  0  0
    0.0107   -0.1439   -0.7245 H   0  0  0  0  0  0  0  0  0  0  0  0
    3.3672   -2.0162    0.3405 C   0  0  0  0  0  0  0  0  0  0  0  0
    4.0501    6.6502    1.2974 C   0  0  0  0  0  0  0  0  0  0  0  0
    4.4701    7.6458    1.5033 H   0  0  0  0  0  0  0  0  0  0  0  0
    1.9693   -0.3592    0.0917 C   0  0  1  0  0  3  0  0  0  0  0  0
    4.0466   -3.2488    0.3217 C   0  0  0  0  0  0  0  0  0  0  0  0
    3.5952   -4.1104   -0.1952 H   0  0  0  0  0  0  0  0  0  0  0  0
    5.1865   -0.9337    1.6259 C   0  0  0  0  0  0  0  0  0  0  0  0
    5.6232   -0.0530    2.1182 H   0  0  0  0  0  0  0  0  0  0  0  0
    5.2896   -3.3008    0.9618 C   0  0  0  0  0  0  0  0  0  0  0  0
    5.8519   -4.2465    0.9642 H   0  0  0  0  0  0  0  0  0  0  0  0
    3.9381   -0.8776    0.9857 C   0  0  0  0  0  0  0  0  0  0  0  0
    3.5897    4.3701    2.0543 C   0  0  0  0  0  0  0  0  0  0  0  0
    3.6340    3.5827    2.8207 H   0  0  0  0  0  0  0  0  0  0  0  0
    4.1152    5.6455    2.2868 C   0  0  0  0  0  0  0  0  0  0  0  0
    4.5864    5.8691    3.2554 H   0  0  0  0  0  0  0  0  0  0  0  0
    5.8494   -2.1669    1.6021 C   0  0  0  0  0  0  0  0  0  0  0  0
    6.8318   -2.2561    2.0899 H   0  0  0  0  0  0  0  0  0  0  0  0
  1  7  1  0  0  0  0
  1 12  1  0  0  0  0
  2  7  1  0  0  0  0
  2  6  1  0  0  0  0
  3  5  1  0  0  0  0
  4 18  1  0  0  0  0
  4 15  1  0  0  0  0
  5 26  1  0  0  0  0
  6  8  1  0  0  0  0
  6  5  2  0  0  0  0
  7  3  2  0  0  0  0
  8 16  2  0  0  0  0
  9  8  1  0  0  0  0
 10 25  1  0  0  0  0
 10 11  1  0  0  0  0
 12 13  1  0  0  0  0
 14 12  1  0  0  0  0
 15 25  1  0  0  0  0
 16 17  1  0  0  0  0
 16 28  1  0  0  0  0
 18 12  1  6  0  0  0
 18 10  1  0  0  0  0
 19 15  2  0  0  0  0
 19 23  1  0  0  0  0
 20 19  1  0  0  0  0
 21 22  1  0  0  0  0
 23 24  1  0  0  0  0
 23 30  2  0  0  0  0
 25 21  2  0  0  0  0
 26 28  2  0  0  0  0
 26 27  1  0  0  0  0
 28 29  1  0  0  0  0
 30 21  1  0  0  0  0
 30 31  1  0  0  0  0
M  END
