2
 OpenBabel05122313063D

 32 33  0  0  1  0  0  0  0  0999 V2000
    1.0904    3.9247   -0.3227 O   0  0  0  0  0  0  0  0  0  0  0  0
    0.8690    1.7658   -0.1044 N   0  0  0  0  0  2  0  0  0  0  0  0
    2.3905    3.3839   -0.4152 N   0  0  0  0  0  0  0  0  0  0  0  0
    0.2273    2.9213   -0.1455 C   0  0  1  0  0  3  0  0  0  0  0  0
   -1.2258    3.1686    0.0344 C   0  0  0  0  0  0  0  0  0  0  0  0
   -1.7552    2.3847   -0.5474 H   0  0  0  0  0  0  0  0  0  0  0  0
   -1.4680    4.1542   -0.4092 H   0  0  0  0  0  0  0  0  0  0  0  0
   -1.6404    3.1042    1.5159 C   0  0  0  0  0  0  0  0  0  0  0  0
   -1.1747    3.9228    2.0990 H   0  0  0  0  0  0  0  0  0  0  0  0
   -2.7405    3.1926    1.5978 H   0  0  0  0  0  0  0  0  0  0  0  0
   -1.3323    2.1396    1.9656 H   0  0  0  0  0  0  0  0  0  0  0  0
    2.2119    2.0854   -0.2769 C   0  0  0  0  0  0  0  0  0  0  0  0
    3.3024    1.0857   -0.3179 C   0  0  0  0  0  0  0  0  0  0  0  0
    3.5874    0.4317   -1.5437 C   0  0  0  0  0  0  0  0  0  0  0  0
    4.5852   -0.5575   -1.5477 C   0  0  0  0  0  0  0  0  0  0  0  0
    4.8143   -1.0714   -2.4952 H   0  0  0  0  0  0  0  0  0  0  0  0
    5.2970   -0.9025   -0.3836 C   0  0  0  0  0  0  0  0  0  0  0  0
    5.0124   -0.2055    0.8047 C   0  0  0  0  0  0  0  0  0  0  0  0
    5.5792   -0.4422    1.7194 H   0  0  0  0  0  0  0  0  0  0  0  0
    4.0289    0.7975    0.8636 C   0  0  0  0  0  0  0  0  0  0  0  0
    2.8486    0.7976   -2.8032 C   0  0  0  0  0  0  0  0  0  0  0  0
    3.2572    0.2565   -3.6775 H   0  0  0  0  0  0  0  0  0  0  0  0
    1.7661    0.5567   -2.7233 H   0  0  0  0  0  0  0  0  0  0  0  0
    2.9226    1.8858   -3.0057 H   0  0  0  0  0  0  0  0  0  0  0  0
    6.3259   -2.0045   -0.4097 C   0  0  0  0  0  0  0  0  0  0  0  0
    5.8416   -3.0007   -0.3114 H   0  0  0  0  0  0  0  0  0  0  0  0
    6.8896   -2.0147   -1.3637 H   0  0  0  0  0  0  0  0  0  0  0  0
    7.0506   -1.9095    0.4222 H   0  0  0  0  0  0  0  0  0  0  0  0
    3.7565    1.5474    2.1403 C   0  0  0  0  0  0  0  0  0  0  0  0
    2.7227    1.3470    2.4930 H   0  0  0  0  0  0  0  0  0  0  0  0
    4.4583    1.2440    2.9399 H   0  0  0  0  0  0  0  0  0  0  0  0
    3.8528    2.6416    1.9888 H   0  0  0  0  0  0  0  0  0  0  0  0
  1  4  1  0  0  0  0
  3  1  1  0  0  0  0
  3 12  2  0  0  0  0
  4  2  1  0  0  0  0
  4  5  1  1  0  0  0
  5  8  1  0  0  0  0
  6  5  1  0  0  0  0
  7  5  1  0  0  0  0
  8 10  1  0  0  0  0
  8 11  1  0  0  0  0
  8  9  1  0  0  0  0
 12  2  1  0  0  0  0
 13 12  1  0  0  0  0
 13 20  1  0  0  0  0
 14 13  2  0  0  0  0
 15 14  1  0  0  0  0
 15 17  2  0  0  0  0
 16 15  1  0  0  0  0
 17 18  1  0  0  0  0
 18 20  2  0  0  0  0
 18 19  1  0  0  0  0
 20 29  1  0  0  0  0
 21 23  1  0  0  0  0
 21 14  1  0  0  0  0
 22 21  1  0  0  0  0
 24 21  1  0  0  0  0
 25 17  1  0  0  0  0
 25 26  1  0  0  0  0
 25 28  1  0  0  0  0
 27 25  1  0  0  0  0
 29 30  1  0  0  0  0
 29 31  1  0  0  0  0
 32 29  1  0  0  0  0
M  END
