4
 OpenBabel05122313063D

 32 34  0  0  0  0  0  0  0  0999 V2000
   -3.3254    0.6093    0.4616 N   0  0  0  0  0  0  0  0  0  0  0  0
   -2.5787    1.7435    0.4782 C   0  0  0  0  0  3  0  0  0  0  0  0
   -2.7687    2.6198    1.1146 H   0  0  0  0  0  0  0  0  0  0  0  0
   -1.5186    1.6243   -0.3157 N   0  0  0  0  0  2  0  0  0  0  0  0
   -1.5612    0.3558   -0.8764 C   0  0  0  0  0  0  0  0  0  0  0  0
   -2.7057   -0.2992   -0.3983 C   0  0  0  0  0  0  0  0  0  0  0  0
   -4.5344    0.3983    1.2382 C   0  0  0  0  0  0  0  0  0  0  0  0
   -4.3079   -0.1467    2.1769 H   0  0  0  0  0  0  0  0  0  0  0  0
   -5.2648   -0.1874    0.6499 H   0  0  0  0  0  0  0  0  0  0  0  0
   -4.9733    1.3807    1.4908 H   0  0  0  0  0  0  0  0  0  0  0  0
   -0.5028   -0.1590   -1.7594 C   0  0  0  0  0  0  0  0  0  0  0  0
    0.2406    0.7241   -2.5747 C   0  0  0  0  0  0  0  0  0  0  0  0
    0.0362    1.8070   -2.5555 H   0  0  0  0  0  0  0  0  0  0  0  0
    1.2717    0.2370   -3.3902 C   0  0  0  0  0  0  0  0  0  0  0  0
    1.8387    0.9472   -4.0119 H   0  0  0  0  0  0  0  0  0  0  0  0
    1.5728   -1.1345   -3.4197 C   0  0  0  0  0  0  0  0  0  0  0  0
    2.3716   -1.5156   -4.0755 H   0  0  0  0  0  0  0  0  0  0  0  0
    0.8387   -2.0198   -2.6104 C   0  0  0  0  0  0  0  0  0  0  0  0
    1.0705   -3.0959   -2.6138 H   0  0  0  0  0  0  0  0  0  0  0  0
   -0.1831   -1.5380   -1.7833 C   0  0  0  0  0  0  0  0  0  0  0  0
   -0.7302   -2.2335   -1.1322 H   0  0  0  0  0  0  0  0  0  0  0  0
   -3.2707   -1.6198   -0.7189 C   0  0  0  0  0  0  0  0  0  0  0  0
   -3.4602   -1.9932   -2.0699 C   0  0  0  0  0  0  0  0  0  0  0  0
   -3.1910   -1.2807   -2.8634 H   0  0  0  0  0  0  0  0  0  0  0  0
   -3.9796   -3.2525   -2.3939 C   0  0  0  0  0  0  0  0  0  0  0  0
   -4.1205   -3.5279   -3.4501 H   0  0  0  0  0  0  0  0  0  0  0  0
   -4.3285   -4.1575   -1.3773 C   0  0  0  0  0  0  0  0  0  0  0  0
   -4.7402   -5.1453   -1.6339 H   0  0  0  0  0  0  0  0  0  0  0  0
   -4.1479   -3.7966   -0.0330 C   0  0  0  0  0  0  0  0  0  0  0  0
   -4.4103   -4.5041    0.7684 H   0  0  0  0  0  0  0  0  0  0  0  0
   -3.6191   -2.5401    0.2960 C   0  0  0  0  0  0  0  0  0  0  0  0
   -3.4388   -2.2765    1.3478 H   0  0  0  0  0  0  0  0  0  0  0  0
  1  2  1  0  0  0  0
  1  7  1  0  0  0  0
  2  3  1  0  0  0  0
  4  2  1  0  0  0  0
  5  6  2  0  0  0  0
  5  4  1  0  0  0  0
  6  1  1  0  0  0  0
  7 10  1  0  0  0  0
  7  8  1  0  0  0  0
  9  7  1  0  0  0  0
 11  5  1  0  0  0  0
 12 13  1  0  0  0  0
 12 11  2  0  0  0  0
 14 12  1  0  0  0  0
 15 14  1  0  0  0  0
 16 14  2  0  0  0  0
 16 18  1  0  0  0  0
 17 16  1  0  0  0  0
 18 20  2  0  0  0  0
 19 18  1  0  0  0  0
 20 11  1  0  0  0  0
 20 21  1  0  0  0  0
 22  6  1  0  0  0  0
 22 31  1  0  0  0  0
 23 22  2  0  0  0  0
 24 23  1  0  0  0  0
 25 23  1  0  0  0  0
 25 27  2  0  0  0  0
 26 25  1  0  0  0  0
 27 29  1  0  0  0  0
 28 27  1  0  0  0  0
 29 31  2  0  0  0  0
 29 30  1  0  0  0  0
 31 32  1  0  0  0  0
M  END
