1
 OpenBabel05122313063D

 24 24  0  0  0  0  0  0  0  0999 V2000
   -0.8976    1.5412   -0.0706 N   0  0  0  0  0  2  0  0  0  0  0  0
    0.3959    1.8686   -0.1349 C   0  0  0  0  0  2  0  0  0  0  0  0
    0.7500    3.2299   -0.2232 C   0  0  0  0  0  0  0  0  0  0  0  0
    1.8050    3.5440   -0.2535 H   0  0  0  0  0  0  0  0  0  0  0  0
   -0.2774    4.1879   -0.2497 C   0  0  0  0  0  0  0  0  0  0  0  0
   -0.0341    5.2603   -0.3133 H   0  0  0  0  0  0  0  0  0  0  0  0
   -1.6251    3.7934   -0.1910 C   0  0  0  0  0  0  0  0  0  0  0  0
   -2.4394    4.5301   -0.2142 H   0  0  0  0  0  0  0  0  0  0  0  0
   -1.9344    2.4194   -0.0945 C   0  0  0  0  0  0  0  0  0  0  0  0
   -3.2587    1.8966   -0.0267 C   0  0  0  0  0  0  0  0  0  0  0  0
   -4.3753    1.3867    0.0270 C   0  0  0  0  0  0  0  0  0  0  0  0
   -5.6729    0.7295    0.0913 C   0  0  0  0  0  0  0  0  0  0  0  0
   -6.3020    1.0906   -0.7520 H   0  0  0  0  0  0  0  0  0  0  0  0
   -6.2021    1.0535    1.0165 H   0  0  0  0  0  0  0  0  0  0  0  0
   -5.5758   -0.8118    0.0637 C   0  0  0  0  0  0  0  0  0  0  0  0
   -4.9149   -1.1364    0.8955 H   0  0  0  0  0  0  0  0  0  0  0  0
   -5.0681   -1.1198   -0.8764 H   0  0  0  0  0  0  0  0  0  0  0  0
   -6.9334   -1.5167    0.1777 C   0  0  0  0  0  0  0  0  0  0  0  0
   -6.7487   -2.6073    0.2777 H   0  0  0  0  0  0  0  0  0  0  0  0
   -7.4259   -1.2080    1.1267 H   0  0  0  0  0  0  0  0  0  0  0  0
   -7.8791   -1.2711   -1.0003 C   0  0  0  0  0  0  0  0  0  0  0  0
   -8.8172   -1.8505   -0.8890 H   0  0  0  0  0  0  0  0  0  0  0  0
   -7.4119   -1.5737   -1.9609 H   0  0  0  0  0  0  0  0  0  0  0  0
   -8.1681   -0.2039   -1.0931 H   0  0  0  0  0  0  0  0  0  0  0  0
  2  1  1  0  0  0  0
  3  2  1  0  0  0  0
  4  3  1  0  0  0  0
  5  3  2  0  0  0  0
  5  7  1  0  0  0  0
  6  5  1  0  0  0  0
  7  9  2  0  0  0  0
  8  7  1  0  0  0  0
  9  1  1  0  0  0  0
  9 10  1  0  0  0  0
 10 11  3  0  0  0  0
 11 12  1  0  0  0  0
 12 14  1  0  0  0  0
 13 12  1  0  0  0  0
 15 12  1  0  0  0  0
 15 18  1  0  0  0  0
 15 16  1  0  0  0  0
 17 15  1  0  0  0  0
 18 19  1  0  0  0  0
 18 20  1  0  0  0  0
 21 22  1  0  0  0  0
 21 18  1  0  0  0  0
 23 21  1  0  0  0  0
 24 21  1  0  0  0  0
M  END
