2
 OpenBabel05122313063D

 15 15  0  0  0  0  0  0  0  0999 V2000
   -5.8061   -2.3427    0.1896 S   0  0  0  0  0  0  0  0  0  0  0  0
   -1.4989    0.3042   -0.8034 N   0  0  0  0  0  2  0  0  0  0  0  0
   -4.8926   -0.2521    1.5493 N   0  0  0  0  0  0  0  0  0  0  0  0
   -4.3473    0.6063    1.6547 H   0  0  0  0  0  0  0  0  0  0  0  0
   -5.6511   -0.4376    2.2072 H   0  0  0  0  0  0  0  0  0  0  0  0
   -2.5254   -0.0210    0.0022 C   0  0  0  0  0  3  0  0  0  0  0  0
   -2.4115    0.3338    1.0418 H   0  0  0  0  0  0  0  0  0  0  0  0
   -3.6447   -0.7412   -0.4502 C   0  0  0  0  0  0  0  0  0  0  0  0
   -3.6482   -1.1562   -1.7981 C   0  0  0  0  0  0  0  0  0  0  0  0
   -4.5083   -1.7435   -2.1562 H   0  0  0  0  0  0  0  0  0  0  0  0
   -2.5767   -0.8116   -2.6286 C   0  0  0  0  0  0  0  0  0  0  0  0
   -2.5637   -1.1065   -3.6875 H   0  0  0  0  0  0  0  0  0  0  0  0
   -1.5158   -0.0632   -2.0982 C   0  0  0  0  0  0  0  0  0  0  0  0
   -0.6581    0.2859   -2.6982 H   0  0  0  0  0  0  0  0  0  0  0  0
   -4.7804   -1.0594    0.4671 C   0  0  0  0  0  0  0  0  0  0  0  0
  1 15  2  0  0  0  0
  2  6  1  0  0  0  0
  3  4  1  0  0  0  0
  3  5  1  0  0  0  0
  6  7  1  0  0  0  0
  8  6  1  0  0  0  0
  8 15  1  0  0  0  0
  9  8  2  0  0  0  0
 10  9  1  0  0  0  0
 11 13  2  0  0  0  0
 11  9  1  0  0  0  0
 12 11  1  0  0  0  0
 13  2  1  0  0  0  0
 14 13  1  0  0  0  0
 15  3  1  0  0  0  0
M  END
