2
 OpenBabel05122313063D

 43 45  0  0  1  0  0  0  0  0999 V2000
   -1.0649    0.6436    0.4471 P   0  0  0  0  0  0  0  0  0  0  0  0
    1.9204    0.7555    0.4069 N   0  0  0  0  0  2  0  0  0  0  0  0
    1.8080    1.3936    1.6098 N   0  0  0  0  0  0  0  0  0  0  0  0
    2.8054    1.4662   -0.3337 C   0  0  2  0  0  3  0  0  0  0  0  0
    3.2636    2.5655    0.4275 C   0  0  0  0  0  0  0  0  0  0  0  0
    3.9895    3.3226    0.1148 H   0  0  0  0  0  0  0  0  0  0  0  0
    2.6092    2.5026    1.6582 C   0  0  0  0  0  0  0  0  0  0  0  0
    0.7910    0.9734    2.5620 C   0  0  0  0  0  0  0  0  0  0  0  0
    1.0365    1.4383    3.5354 H   0  0  0  0  0  0  0  0  0  0  0  0
    0.8691   -0.1277    2.6776 H   0  0  0  0  0  0  0  0  0  0  0  0
   -0.6284    1.3616    2.1232 C   0  0  0  0  0  0  0  0  0  0  0  0
   -0.7427    2.4630    2.0780 H   0  0  0  0  0  0  0  0  0  0  0  0
   -1.3576    0.9813    2.8651 H   0  0  0  0  0  0  0  0  0  0  0  0
    3.1649    1.1123   -1.7397 C   0  0  0  0  0  0  0  0  0  0  0  0
    4.1632    0.6311   -1.7972 H   0  0  0  0  0  0  0  0  0  0  0  0
    3.2076    2.0278   -2.3610 H   0  0  0  0  0  0  0  0  0  0  0  0
    2.4199    0.4241   -2.1803 H   0  0  0  0  0  0  0  0  0  0  0  0
    2.6937    3.3955    2.8507 C   0  0  0  0  0  0  0  0  0  0  0  0
    1.7186    3.8682    3.0890 H   0  0  0  0  0  0  0  0  0  0  0  0
    3.4192    4.2059    2.6570 H   0  0  0  0  0  0  0  0  0  0  0  0
    3.0347    2.8490    3.7543 H   0  0  0  0  0  0  0  0  0  0  0  0
   -1.1466    2.0775   -0.6873 C   0  0  0  0  0  0  0  0  0  0  0  0
   -0.4637    2.0091   -1.9182 C   0  0  0  0  0  0  0  0  0  0  0  0
    0.1030    1.0964   -2.1647 H   0  0  0  0  0  0  0  0  0  0  0  0
   -0.5112    3.0900   -2.8117 C   0  0  0  0  0  0  0  0  0  0  0  0
    0.0224    3.0315   -3.7721 H   0  0  0  0  0  0  0  0  0  0  0  0
   -1.2415    4.2414   -2.4796 C   0  0  0  0  0  0  0  0  0  0  0  0
   -1.2788    5.0900   -3.1789 H   0  0  0  0  0  0  0  0  0  0  0  0
   -1.9325    4.3106   -1.2573 C   0  0  0  0  0  0  0  0  0  0  0  0
   -2.5129    5.2098   -1.0022 H   0  0  0  0  0  0  0  0  0  0  0  0
   -1.8899    3.2325   -0.3627 C   0  0  0  0  0  0  0  0  0  0  0  0
   -2.4510    3.2881    0.5836 H   0  0  0  0  0  0  0  0  0  0  0  0
   -2.7921    0.0549    0.6024 C   0  0  0  0  0  0  0  0  0  0  0  0
   -3.7108    0.2686   -0.4464 C   0  0  0  0  0  0  0  0  0  0  0  0
   -3.4197    0.8694   -1.3211 H   0  0  0  0  0  0  0  0  0  0  0  0
   -5.0030   -0.2729   -0.3686 C   0  0  0  0  0  0  0  0  0  0  0  0
   -5.7165   -0.0957   -1.1871 H   0  0  0  0  0  0  0  0  0  0  0  0
   -5.3870   -1.0303    0.7486 C   0  0  0  0  0  0  0  0  0  0  0  0
   -6.4024   -1.4494    0.8081 H   0  0  0  0  0  0  0  0  0  0  0  0
   -4.4731   -1.2535    1.7914 C   0  0  0  0  0  0  0  0  0  0  0  0
   -4.7693   -1.8483    2.6683 H   0  0  0  0  0  0  0  0  0  0  0  0
   -3.1784   -0.7204    1.7179 C   0  0  0  0  0  0  0  0  0  0  0  0
   -2.4686   -0.9175    2.5371 H   0  0  0  0  0  0  0  0  0  0  0  0
  1 33  1  0  0  0  0
  1 11  1  0  0  0  0
  2  3  1  0  0  0  0
  3  7  1  0  0  0  0
  3  8  1  0  0  0  0
  4 14  1  6  0  0  0
  4  2  1  0  0  0  0
  4  5  1  0  0  0  0
  5  7  2  0  0  0  0
  6  5  1  0  0  0  0
  7 18  1  0  0  0  0
  8 10  1  0  0  0  0
  8  9  1  0  0  0  0
 11  8  1  0  0  0  0
 11 13  1  0  0  0  0
 12 11  1  0  0  0  0
 15 14  1  0  0  0  0
 16 14  1  0  0  0  0
 17 14  1  0  0  0  0
 18 19  1  0  0  0  0
 18 21  1  0  0  0  0
 20 18  1  0  0  0  0
 22 31  1  0  0  0  0
 22  1  1  0  0  0  0
 23 22  2  0  0  0  0
 24 23  1  0  0  0  0
 25 27  2  0  0  0  0
 25 23  1  0  0  0  0
 26 25  1  0  0  0  0
 27 29  1  0  0  0  0
 28 27  1  0  0  0  0
 29 30  1  0  0  0  0
 29 31  2  0  0  0  0
 31 32  1  0  0  0  0
 33 42  1  0  0  0  0
 34 36  1  0  0  0  0
 34 33  2  0  0  0  0
 35 34  1  0  0  0  0
 36 38  2  0  0  0  0
 37 36  1  0  0  0  0
 38 39  1  0  0  0  0
 38 40  1  0  0  0  0
 40 41  1  0  0  0  0
 42 40  2  0  0  0  0
 42 43  1  0  0  0  0
M  END
