1
 OpenBabel05122313063D

 33 35  0  0  1  0  0  0  0  0999 V2000
   -1.7457    0.9490   -0.3543 N   0  0  0  0  0  2  0  0  0  0  0  0
   -4.3185   -1.5569    0.0235 N   0  0  0  0  0  0  0  0  0  0  0  0
   -3.9430    1.3677   -0.3332 N   0  0  0  0  0  0  0  0  0  0  0  0
   -1.9076    2.3204   -0.2744 C   0  0  0  0  0  0  0  0  0  0  0  0
   -3.2082   -1.0507   -0.5438 C   0  0  0  0  0  0  0  0  0  0  0  0
   -3.3016    2.5975   -0.2442 C   0  0  0  0  0  0  0  0  0  0  0  0
   -2.9673    0.3952   -0.3978 C   0  0  1  0  0  3  0  0  0  0  0  0
   -5.3953    1.1961   -0.3307 C   0  0  0  0  0  0  0  0  0  0  0  0
   -5.8187    2.0459   -0.9051 H   0  0  0  0  0  0  0  0  0  0  0  0
   -5.6246    0.2657   -0.8807 H   0  0  0  0  0  0  0  0  0  0  0  0
   -3.7917    3.9117   -0.1555 C   0  0  0  0  0  0  0  0  0  0  0  0
   -4.8686    4.1296   -0.1244 H   0  0  0  0  0  0  0  0  0  0  0  0
   -1.4487    4.6655   -0.1485 C   0  0  0  0  0  0  0  0  0  0  0  0
   -0.7389    5.5060   -0.1235 H   0  0  0  0  0  0  0  0  0  0  0  0
   -4.5436   -2.8825   -0.0478 C   0  0  0  0  0  0  0  0  0  0  0  0
   -0.9596    3.3587   -0.2349 C   0  0  0  0  0  0  0  0  0  0  0  0
    0.1110    3.1234   -0.3077 H   0  0  0  0  0  0  0  0  0  0  0  0
   -2.2839   -1.8370   -1.2678 C   0  0  0  0  0  0  0  0  0  0  0  0
   -1.4113   -1.3688   -1.7479 H   0  0  0  0  0  0  0  0  0  0  0  0
   -5.9720    1.1296    1.0805 C   0  0  0  0  0  0  0  0  0  0  0  0
   -7.0764    1.0465    1.0353 H   0  0  0  0  0  0  0  0  0  0  0  0
   -5.5711    0.2362    1.5966 H   0  0  0  0  0  0  0  0  0  0  0  0
   -5.7153    2.0340    1.6672 H   0  0  0  0  0  0  0  0  0  0  0  0
   -2.5195   -3.2126   -1.3436 C   0  0  0  0  0  0  0  0  0  0  0  0
   -1.8211   -3.8625   -1.8924 H   0  0  0  0  0  0  0  0  0  0  0  0
   -2.8398    4.9375   -0.1046 C   0  0  0  0  0  0  0  0  0  0  0  0
   -3.1813    5.9811   -0.0340 H   0  0  0  0  0  0  0  0  0  0  0  0
   -5.7881   -3.3889    0.6334 C   0  0  0  0  0  0  0  0  0  0  0  0
   -6.6774   -2.8300    0.2784 H   0  0  0  0  0  0  0  0  0  0  0  0
   -5.9491   -4.4688    0.4567 H   0  0  0  0  0  0  0  0  0  0  0  0
   -5.7198   -3.2174    1.7276 H   0  0  0  0  0  0  0  0  0  0  0  0
   -3.6524   -3.7486   -0.7144 C   0  0  0  0  0  0  0  0  0  0  0  0
   -3.8579   -4.8289   -0.7475 H   0  0  0  0  0  0  0  0  0  0  0  0
  1  4  1  0  0  0  0
  3  8  1  0  0  0  0
  3  6  1  0  0  0  0
  4  6  2  0  0  0  0
  4 16  1  0  0  0  0
  5  2  2  0  0  0  0
  6 11  1  0  0  0  0
  7  5  1  6  0  0  0
  7  1  1  0  0  0  0
  7  3  1  0  0  0  0
  8 20  1  0  0  0  0
  9  8  1  0  0  0  0
 10  8  1  0  0  0  0
 11 12  1  0  0  0  0
 11 26  2  0  0  0  0
 13 14  1  0  0  0  0
 13 26  1  0  0  0  0
 15  2  1  0  0  0  0
 15 28  1  0  0  0  0
 16 13  2  0  0  0  0
 17 16  1  0  0  0  0
 18  5  1  0  0  0  0
 19 18  1  0  0  0  0
 20 22  1  0  0  0  0
 20 23  1  0  0  0  0
 21 20  1  0  0  0  0
 24 18  2  0  0  0  0
 24 32  1  0  0  0  0
 25 24  1  0  0  0  0
 26 27  1  0  0  0  0
 28 31  1  0  0  0  0
 29 28  1  0  0  0  0
 30 28  1  0  0  0  0
 32 15  2  0  0  0  0
 33 32  1  0  0  0  0
M  END
