2
 OpenBabel05122313063D

 21 22  0  0  0  0  0  0  0  0999 V2000
   -1.0081   -0.6590    0.0243 N   0  0  0  0  0  0  0  0  0  0  0  0
    0.1026   -1.4104   -0.0335 N   0  0  0  0  0  2  0  0  0  0  0  0
   -0.1559   -2.6898   -0.1184 N   0  0  0  0  0  2  0  0  0  0  0  0
   -1.4937   -2.7798   -0.1179 N   0  0  0  0  0  0  0  0  0  0  0  0
   -2.1177   -4.0896   -0.2544 C   0  0  0  0  0  0  0  0  0  0  0  0
   -1.3569   -4.7772   -0.6630 H   0  0  0  0  0  0  0  0  0  0  0  0
   -2.9749   -4.0193   -0.9485 H   0  0  0  0  0  0  0  0  0  0  0  0
   -2.4575   -4.4642    0.7305 H   0  0  0  0  0  0  0  0  0  0  0  0
   -2.0312   -1.5203   -0.0247 C   0  0  0  0  0  0  0  0  0  0  0  0
   -3.4398   -1.1215   -0.0131 C   0  0  0  0  0  0  0  0  0  0  0  0
   -3.7483    0.1971   -0.4268 C   0  0  0  0  0  0  0  0  0  0  0  0
   -2.9337    0.8590   -0.7530 H   0  0  0  0  0  0  0  0  0  0  0  0
   -5.0668    0.6489   -0.4263 C   0  0  0  0  0  0  0  0  0  0  0  0
   -5.3063    1.6695   -0.7557 H   0  0  0  0  0  0  0  0  0  0  0  0
   -6.1102   -0.2095   -0.0029 C   0  0  0  0  0  0  0  0  0  0  0  0
   -4.4823   -1.9715    0.4213 C   0  0  0  0  0  0  0  0  0  0  0  0
   -4.2715   -2.9824    0.7929 H   0  0  0  0  0  0  0  0  0  0  0  0
   -7.4666    0.2541   -0.0027 C   0  0  0  0  0  0  0  0  0  0  0  0
   -8.5753    0.6389   -0.0030 N   0  0  0  0  0  0  0  0  0  0  0  0
   -5.8052   -1.5214    0.4258 C   0  0  0  0  0  0  0  0  0  0  0  0
   -6.6132   -2.1815    0.7705 H   0  0  0  0  0  0  0  0  0  0  0  0
  2  1  1  0  0  0  0
  3  4  1  0  0  0  0
  3  2  1  0  0  0  0
  4  9  1  0  0  0  0
  5  4  1  0  0  0  0
  5  8  1  0  0  0  0
  6  5  1  0  0  0  0
  7  5  1  0  0  0  0
  9 10  1  0  0  0  0
  9  1  2  0  0  0  0
 10 16  1  0  0  0  0
 11 13  1  0  0  0  0
 11 10  2  0  0  0  0
 12 11  1  0  0  0  0
 13 15  2  0  0  0  0
 14 13  1  0  0  0  0
 15 18  1  0  0  0  0
 15 20  1  0  0  0  0
 16 20  2  0  0  0  0
 16 17  1  0  0  0  0
 19 18  3  0  0  0  0
 20 21  1  0  0  0  0
M  END
