1
 OpenBabel05122313063D

 50 51  0  0  1  0  0  0  0  0999 V2000
   -5.1495    0.7366    0.0544 N   0  0  0  0  0  2  0  0  0  0  0  0
   -3.8208    0.5446   -0.0173 N   0  0  0  0  0  0  0  0  0  0  0  0
   -3.5288   -0.4502   -0.1313 H   0  0  0  0  0  0  0  0  0  0  0  0
    2.5180    2.0298   -0.1425 O   0  0  0  0  0  0  0  0  0  0  0  0
   -3.1232    1.7091    0.0454 C   0  0  1  0  0  3  0  0  0  0  0  0
   -4.0936    2.7281    0.1623 C   0  0  0  0  0  0  0  0  0  0  0  0
   -3.9130    3.8026    0.2562 H   0  0  0  0  0  0  0  0  0  0  0  0
   -5.3345    2.0704    0.1648 C   0  0  0  0  0  0  0  0  0  0  0  0
   -6.3460    2.4827    0.2455 H   0  0  0  0  0  0  0  0  0  0  0  0
   -1.6621    1.7576    0.0046 C   0  0  0  0  0  0  0  0  0  0  0  0
   -0.8800    0.5962    0.1845 C   0  0  0  0  0  0  0  0  0  0  0  0
   -1.3630   -0.3732    0.3822 H   0  0  0  0  0  0  0  0  0  0  0  0
    0.5186    0.6421    0.1404 C   0  0  0  0  0  0  0  0  0  0  0  0
    1.0887   -0.2840    0.2889 H   0  0  0  0  0  0  0  0  0  0  0  0
    1.1743    1.8725   -0.0826 C   0  0  0  0  0  0  0  0  0  0  0  0
    0.4014    3.0439   -0.2584 C   0  0  0  0  0  0  0  0  0  0  0  0
    0.9280    3.9926   -0.4344 H   0  0  0  0  0  0  0  0  0  0  0  0
   -0.9887    2.9839   -0.2165 C   0  0  0  0  0  0  0  0  0  0  0  0
   -1.5701    3.9043   -0.3728 H   0  0  0  0  0  0  0  0  0  0  0  0
    3.3597    0.8877    0.0151 C   0  0  0  0  0  0  0  0  0  0  0  0
    3.1179    0.1272   -0.7640 H   0  0  0  0  0  0  0  0  0  0  0  0
    3.1763    0.4141    1.0081 H   0  0  0  0  0  0  0  0  0  0  0  0
    4.8053    1.3410   -0.1057 C   0  0  0  0  0  0  0  0  0  0  0  0
    4.9985    2.1195    0.6634 H   0  0  0  0  0  0  0  0  0  0  0  0
    4.9400    1.8374   -1.0908 H   0  0  0  0  0  0  0  0  0  0  0  0
    5.8012    0.1889    0.0463 C   0  0  0  0  0  0  0  0  0  0  0  0
    5.5896   -0.5904   -0.7206 H   0  0  0  0  0  0  0  0  0  0  0  0
    5.6475   -0.3098    1.0300 H   0  0  0  0  0  0  0  0  0  0  0  0
    7.2630    0.6284   -0.0727 C   0  0  0  0  0  0  0  0  0  0  0  0
    7.4167    1.1290   -1.0552 H   0  0  0  0  0  0  0  0  0  0  0  0
    7.4757    1.4068    0.6944 H   0  0  0  0  0  0  0  0  0  0  0  0
    8.2662   -0.5181    0.0753 C   0  0  0  0  0  0  0  0  0  0  0  0
    8.1106   -1.0191    1.0578 H   0  0  0  0  0  0  0  0  0  0  0  0
    8.0518   -1.2962   -0.6921 H   0  0  0  0  0  0  0  0  0  0  0  0
    9.7281   -0.0799   -0.0433 C   0  0  0  0  0  0  0  0  0  0  0  0
    9.9424    0.6977    0.7247 H   0  0  0  0  0  0  0  0  0  0  0  0
    9.8827    0.4225   -1.0252 H   0  0  0  0  0  0  0  0  0  0  0  0
   10.7328   -1.2256    0.1024 C   0  0  0  0  0  0  0  0  0  0  0  0
   10.5776   -1.7281    1.0842 H   0  0  0  0  0  0  0  0  0  0  0  0
   10.5180   -2.0028   -0.6658 H   0  0  0  0  0  0  0  0  0  0  0  0
   12.1948   -0.7878   -0.0162 C   0  0  0  0  0  0  0  0  0  0  0  0
   12.3498   -0.2844   -0.9977 H   0  0  0  0  0  0  0  0  0  0  0  0
   12.4099   -0.0108    0.7525 H   0  0  0  0  0  0  0  0  0  0  0  0
   13.2011   -1.9336    0.1284 C   0  0  0  0  0  0  0  0  0  0  0  0
   12.9826   -2.7084   -0.6401 H   0  0  0  0  0  0  0  0  0  0  0  0
   13.0425   -2.4351    1.1092 H   0  0  0  0  0  0  0  0  0  0  0  0
   14.6580   -1.4855    0.0085 C   0  0  0  0  0  0  0  0  0  0  0  0
   15.3612   -2.3358    0.1171 H   0  0  0  0  0  0  0  0  0  0  0  0
   14.9152   -0.7376    0.7876 H   0  0  0  0  0  0  0  0  0  0  0  0
   14.8547   -1.0130   -0.9768 H   0  0  0  0  0  0  0  0  0  0  0  0
  1  8  1  0  0  0  0
  2  5  1  0  0  0  0
  2  1  1  0  0  0  0
  3  2  1  0  0  0  0
  4 15  1  0  0  0  0
  4 20  1  0  0  0  0
  5 10  1  1  0  0  0
  5  6  1  0  0  0  0
  6  8  2  0  0  0  0
  6  7  1  0  0  0  0
  8  9  1  0  0  0  0
 10 11  1  0  0  0  0
 11 12  1  0  0  0  0
 13 11  2  0  0  0  0
 13 14  1  0  0  0  0
 15 13  1  0  0  0  0
 16 18  1  0  0  0  0
 16 15  2  0  0  0  0
 17 16  1  0  0  0  0
 18 10  2  0  0  0  0
 19 18  1  0  0  0  0
 20 22  1  0  0  0  0
 21 20  1  0  0  0  0
 23 20  1  0  0  0  0
 23 26  1  0  0  0  0
 23 24  1  0  0  0  0
 25 23  1  0  0  0  0
 26 28  1  0  0  0  0
 27 26  1  0  0  0  0
 29 26  1  0  0  0  0
 29 32  1  0  0  0  0
 29 31  1  0  0  0  0
 30 29  1  0  0  0  0
 32 33  1  0  0  0  0
 34 32  1  0  0  0  0
 35 32  1  0  0  0  0
 35 38  1  0  0  0  0
 35 36  1  0  0  0  0
 37 35  1  0  0  0  0
 38 39  1  0  0  0  0
 40 38  1  0  0  0  0
 41 38  1  0  0  0  0
 41 44  1  0  0  0  0
 41 43  1  0  0  0  0
 42 41  1  0  0  0  0
 44 46  1  0  0  0  0
 45 44  1  0  0  0  0
 47 48  1  0  0  0  0
 47 44  1  0  0  0  0
 47 49  1  0  0  0  0
 50 47  1  0  0  0  0
M  END
