1
 OpenBabel05122313063D

 44 45  0  0  1  0  0  0  0  0999 V2000
   -3.8649    0.9686    0.0498 N   0  0  0  0  0  2  0  0  0  0  0  0
   -2.6466    0.4296   -0.1312 N   0  0  0  0  0  0  0  0  0  0  0  0
   -2.6153   -0.6110   -0.0652 H   0  0  0  0  0  0  0  0  0  0  0  0
    3.7657    0.1787   -1.2318 O   0  0  0  0  0  0  0  0  0  0  0  0
   -1.6872    1.3702   -0.3343 C   0  0  2  0  0  3  0  0  0  0  0  0
   -2.3537    2.6133   -0.2723 C   0  0  0  0  0  0  0  0  0  0  0  0
   -1.9128    3.6049   -0.4079 H   0  0  0  0  0  0  0  0  0  0  0  0
   -3.7035    2.3074   -0.0338 C   0  0  0  0  0  0  0  0  0  0  0  0
   -4.5647    2.9751    0.0757 H   0  0  0  0  0  0  0  0  0  0  0  0
   -0.2853    1.0289   -0.5737 C   0  0  0  0  0  0  0  0  0  0  0  0
    0.1077   -0.2865   -0.9021 C   0  0  0  0  0  0  0  0  0  0  0  0
   -0.6467   -1.0816   -1.0057 H   0  0  0  0  0  0  0  0  0  0  0  0
    1.4502   -0.6142   -1.1272 C   0  0  0  0  0  0  0  0  0  0  0  0
    1.7118   -1.6484   -1.3849 H   0  0  0  0  0  0  0  0  0  0  0  0
    2.4426    0.3857   -1.0318 C   0  0  0  0  0  0  0  0  0  0  0  0
    2.0601    1.7086   -0.7095 C   0  0  0  0  0  0  0  0  0  0  0  0
    2.8455    2.4743   -0.6364 H   0  0  0  0  0  0  0  0  0  0  0  0
    0.7222    2.0203   -0.4841 C   0  0  0  0  0  0  0  0  0  0  0  0
    0.4493    3.0520   -0.2176 H   0  0  0  0  0  0  0  0  0  0  0  0
    4.2277   -1.1380   -1.5434 C   0  0  0  0  0  0  0  0  0  0  0  0
    3.7600   -1.4845   -2.4933 H   0  0  0  0  0  0  0  0  0  0  0  0
    3.9192   -1.8434   -0.7365 H   0  0  0  0  0  0  0  0  0  0  0  0
    5.7422   -1.0930   -1.6670 C   0  0  0  0  0  0  0  0  0  0  0  0
    6.0825   -2.0936   -2.0118 H   0  0  0  0  0  0  0  0  0  0  0  0
    6.0101   -0.3780   -2.4752 H   0  0  0  0  0  0  0  0  0  0  0  0
    6.4592   -0.7088   -0.3700 C   0  0  0  0  0  0  0  0  0  0  0  0
    6.1957   -1.4421    0.4257 H   0  0  0  0  0  0  0  0  0  0  0  0
    6.0675    0.2706   -0.0206 H   0  0  0  0  0  0  0  0  0  0  0  0
    7.9809   -0.6341   -0.5120 C   0  0  0  0  0  0  0  0  0  0  0  0
    8.3688   -1.6141   -0.8723 H   0  0  0  0  0  0  0  0  0  0  0  0
    8.2394    0.0990   -1.3095 H   0  0  0  0  0  0  0  0  0  0  0  0
    8.7019   -0.2488    0.7822 C   0  0  0  0  0  0  0  0  0  0  0  0
    8.4449   -0.9835    1.5789 H   0  0  0  0  0  0  0  0  0  0  0  0
    8.3096    0.7291    1.1427 H   0  0  0  0  0  0  0  0  0  0  0  0
   10.2239   -0.1647    0.6433 C   0  0  0  0  0  0  0  0  0  0  0  0
   10.6153   -1.1427    0.2810 H   0  0  0  0  0  0  0  0  0  0  0  0
   10.4808    0.5707   -0.1529 H   0  0  0  0  0  0  0  0  0  0  0  0
   10.9458    0.2198    1.9383 C   0  0  0  0  0  0  0  0  0  0  0  0
   10.5514    1.1964    2.2982 H   0  0  0  0  0  0  0  0  0  0  0  0
   10.6859   -0.5161    2.7318 H   0  0  0  0  0  0  0  0  0  0  0  0
   12.4654    0.3014    1.7891 C   0  0  0  0  0  0  0  0  0  0  0  0
   12.9587    0.5812    2.7417 H   0  0  0  0  0  0  0  0  0  0  0  0
   12.7558    1.0559    1.0281 H   0  0  0  0  0  0  0  0  0  0  0  0
   12.8914   -0.6714    1.4653 H   0  0  0  0  0  0  0  0  0  0  0  0
  2  3  1  0  0  0  0
  2  1  1  0  0  0  0
  4 15  1  0  0  0  0
  5 10  1  6  0  0  0
  5  6  1  0  0  0  0
  5  2  1  0  0  0  0
  6  8  2  0  0  0  0
  7  6  1  0  0  0  0
  8  1  1  0  0  0  0
  8  9  1  0  0  0  0
 10 18  1  0  0  0  0
 11 10  2  0  0  0  0
 12 11  1  0  0  0  0
 13 15  2  0  0  0  0
 13 11  1  0  0  0  0
 14 13  1  0  0  0  0
 15 16  1  0  0  0  0
 16 17  1  0  0  0  0
 16 18  2  0  0  0  0
 18 19  1  0  0  0  0
 20  4  1  0  0  0  0
 20 22  1  0  0  0  0
 21 20  1  0  0  0  0
 23 20  1  0  0  0  0
 23 26  1  0  0  0  0
 24 23  1  0  0  0  0
 25 23  1  0  0  0  0
 26 28  1  0  0  0  0
 26 27  1  0  0  0  0
 29 26  1  0  0  0  0
 29 32  1  0  0  0  0
 30 29  1  0  0  0  0
 31 29  1  0  0  0  0
 32 34  1  0  0  0  0
 32 33  1  0  0  0  0
 35 32  1  0  0  0  0
 35 38  1  0  0  0  0
 36 35  1  0  0  0  0
 37 35  1  0  0  0  0
 38 39  1  0  0  0  0
 38 40  1  0  0  0  0
 41 38  1  0  0  0  0
 41 42  1  0  0  0  0
 43 41  1  0  0  0  0
 44 41  1  0  0  0  0
M  END
