2
q = -1.0, confidence = 0.0

 25 26  0  0  1  0  0  0  0  0999 V2000
    1.9237    0.3866   -1.4902 S   0  0  0  0  0  0  0  0  0  0  0  0
    0.2254    0.3505   -1.1988 N   0  0  0  0  0  2  0  0  0  0  0  0
    0.4038   -1.9683   -0.5012 N   0  0  0  0  0  0  0  0  0  0  0  0
    2.6231   -1.0241   -0.8281 N   0  0  0  0  0  2  0  0  0  0  0  0
    3.7107   -3.2341    0.0493 F   0  0  0  0  0  0  0  0  0  0  0  0
    1.9566   -3.4613    1.3265 F   0  0  0  0  0  0  0  0  0  0  0  0
    1.9557   -4.2994   -0.6909 F   0  0  0  0  0  0  0  0  0  0  0  0
   -5.7996   -1.0077    0.4170 O   0  0  0  0  0  0  0  0  0  0  0  0
   -0.2789   -0.8494   -0.7390 C   0  0  1  0  0  3  0  0  0  0  0  0
    1.7637   -1.9505   -0.4874 C   0  0  0  0  0  0  0  0  0  0  0  0
   -1.7265   -0.8644   -0.4804 C   0  0  0  0  0  0  0  0  0  0  0  0
   -2.5567    0.2048   -0.8771 C   0  0  0  0  0  0  0  0  0  0  0  0
   -2.1091    1.0464   -1.4228 H   0  0  0  0  0  0  0  0  0  0  0  0
   -3.9260    0.1973   -0.5982 C   0  0  0  0  0  0  0  0  0  0  0  0
   -4.5497    1.0392   -0.9260 H   0  0  0  0  0  0  0  0  0  0  0  0
   -4.4900   -0.8997    0.0941 C   0  0  0  0  0  0  0  0  0  0  0  0
   -3.6638   -1.9789    0.4918 C   0  0  0  0  0  0  0  0  0  0  0  0
   -4.1281   -2.8171    1.0307 H   0  0  0  0  0  0  0  0  0  0  0  0
   -2.3039   -1.9597    0.2087 C   0  0  0  0  0  0  0  0  0  0  0  0
   -1.6426   -2.7815    0.5172 H   0  0  0  0  0  0  0  0  0  0  0  0
   -6.6828    0.0428    0.0599 C   0  0  0  0  0  0  0  0  0  0  0  0
   -6.3926    1.0046    0.5376 H   0  0  0  0  0  0  0  0  0  0  0  0
   -7.6828   -0.2542    0.4251 H   0  0  0  0  0  0  0  0  0  0  0  0
   -6.7271    0.1868   -1.0422 H   0  0  0  0  0  0  0  0  0  0  0  0
    2.3702   -3.2541    0.0577 C   0  0  0  0  0  0  0  0  0  0  0  0
  1  2  1  0  0  0  0
  1  4  1  0  0  0  0
  2  9  1  0  0  0  0
  3 10  2  0  0  0  0
  4 10  1  0  0  0  0
  5 25  1  0  0  0  0
  7 25  1  0  0  0  0
  9  3  1  0  0  0  0
  9 11  1  1  0  0  0
 10 25  1  0  0  0  0
 11 19  1  0  0  0  0
 12 14  1  0  0  0  0
 12 11  2  0  0  0  0
 13 12  1  0  0  0  0
 14 16  2  0  0  0  0
 15 14  1  0  0  0  0
 16  8  1  0  0  0  0
 16 17  1  0  0  0  0
 17 18  1  0  0  0  0
 19 17  2  0  0  0  0
 19 20  1  0  0  0  0
 21  8  1  0  0  0  0
 21 23  1  0  0  0  0
 21 22  1  0  0  0  0
 24 21  1  0  0  0  0
 25  6  1  0  0  0  0
M  END
