3
 OpenBabel05122313063D

 52 54  0  0  0  0  0  0  0  0999 V2000
   -0.3704    2.6872   -1.0837 O   0  0  0  0  0  0  0  0  0  0  0  0
   -2.7918    1.3035   -0.6067 O   0  0  0  0  0  0  0  0  0  0  0  0
    1.8345   -0.1603   -1.8690 N   0  0  0  0  0  0  0  0  0  0  0  0
    2.8361   -0.3189   -1.6160 H   0  0  0  0  0  0  0  0  0  0  0  0
    0.6379   -2.7677   -1.1527 N   0  0  0  0  0  0  0  0  0  0  0  0
    1.0359   -3.4158   -0.4620 H   0  0  0  0  0  0  0  0  0  0  0  0
   -1.5820   -1.2750    0.0179 N   0  0  0  0  0  0  0  0  0  0  0  0
   -1.6927   -0.6761   -0.8136 H   0  0  0  0  0  0  0  0  0  0  0  0
   -1.4822    3.2757   -0.4262 C   0  0  0  0  0  0  0  0  0  0  0  0
   -1.4960    4.3797   -0.5829 H   0  0  0  0  0  0  0  0  0  0  0  0
   -1.4363    3.0698    0.6667 H   0  0  0  0  0  0  0  0  0  0  0  0
    0.8856    2.9237   -0.5908 C   0  0  0  0  0  0  0  0  0  0  0  0
    1.1549    3.8077    0.4718 C   0  0  0  0  0  0  0  0  0  0  0  0
    0.3455    4.3708    0.9537 H   0  0  0  0  0  0  0  0  0  0  0  0
    2.4697    3.9544    0.9406 C   0  0  0  0  0  0  0  0  0  0  0  0
    2.6635    4.6353    1.7830 H   0  0  0  0  0  0  0  0  0  0  0  0
    3.5214    3.2355    0.3585 C   0  0  0  0  0  0  0  0  0  0  0  0
    4.5476    3.3393    0.7387 H   0  0  0  0  0  0  0  0  0  0  0  0
    3.2515    2.3721   -0.7135 C   0  0  0  0  0  0  0  0  0  0  0  0
    4.0694    1.7868   -1.1637 H   0  0  0  0  0  0  0  0  0  0  0  0
    1.9450    2.2062   -1.2050 C   0  0  0  0  0  0  0  0  0  0  0  0
    1.6601    1.2323   -2.3203 C   0  0  0  0  0  0  0  0  0  0  0  0
    0.6187    1.3574   -2.6738 H   0  0  0  0  0  0  0  0  0  0  0  0
    2.3340    1.4376   -3.1859 H   0  0  0  0  0  0  0  0  0  0  0  0
    1.4526   -1.1645   -2.8603 C   0  0  0  0  0  0  0  0  0  0  0  0
    2.1026   -1.1071   -3.7648 H   0  0  0  0  0  0  0  0  0  0  0  0
    0.4171   -0.9437   -3.2019 H   0  0  0  0  0  0  0  0  0  0  0  0
    1.5411   -2.5836   -2.2857 C   0  0  0  0  0  0  0  0  0  0  0  0
    1.3437   -3.3148   -3.1052 H   0  0  0  0  0  0  0  0  0  0  0  0
    2.5769   -2.7585   -1.9336 H   0  0  0  0  0  0  0  0  0  0  0  0
   -0.7527   -3.0592   -1.4786 C   0  0  0  0  0  0  0  0  0  0  0  0
   -0.9129   -4.1300   -1.7509 H   0  0  0  0  0  0  0  0  0  0  0  0
   -1.0199   -2.4707   -2.3832 H   0  0  0  0  0  0  0  0  0  0  0  0
   -1.7146   -2.6824   -0.3515 C   0  0  0  0  0  0  0  0  0  0  0  0
   -2.7516   -2.9362   -0.6788 H   0  0  0  0  0  0  0  0  0  0  0  0
   -1.5063   -3.2934    0.5534 H   0  0  0  0  0  0  0  0  0  0  0  0
   -2.5606   -0.8086    1.0253 C   0  0  0  0  0  0  0  0  0  0  0  0
   -2.6379   -1.5701    1.8237 H   0  0  0  0  0  0  0  0  0  0  0  0
   -2.1395    0.1045    1.4905 H   0  0  0  0  0  0  0  0  0  0  0  0
   -3.9053   -0.4866    0.4170 C   0  0  0  0  0  0  0  0  0  0  0  0
   -5.0712   -1.2349    0.6345 C   0  0  0  0  0  0  0  0  0  0  0  0
   -5.0209   -2.1143    1.2959 H   0  0  0  0  0  0  0  0  0  0  0  0
   -6.2941   -0.8613    0.0483 C   0  0  0  0  0  0  0  0  0  0  0  0
   -7.2003   -1.4557    0.2358 H   0  0  0  0  0  0  0  0  0  0  0  0
   -6.3523    0.2758   -0.7686 C   0  0  0  0  0  0  0  0  0  0  0  0
   -7.3048    0.5753   -1.2317 H   0  0  0  0  0  0  0  0  0  0  0  0
   -5.1990    1.0431   -1.0119 C   0  0  0  0  0  0  0  0  0  0  0  0
   -5.2505    1.9255   -1.6654 H   0  0  0  0  0  0  0  0  0  0  0  0
   -3.9847    0.6570   -0.4221 C   0  0  0  0  0  0  0  0  0  0  0  0
   -2.7542    2.6724   -0.9884 C   0  0  0  0  0  0  0  0  0  0  0  0
   -3.6254    3.2204   -0.5666 H   0  0  0  0  0  0  0  0  0  0  0  0
   -2.7806    2.7722   -2.0974 H   0  0  0  0  0  0  0  0  0  0  0  0
  1 12  1  0  0  0  0
  1  9  1  0  0  0  0
  2 49  1  0  0  0  0
  3  4  1  0  0  0  0
  5  6  1  0  0  0  0
  7 37  1  0  0  0  0
  8  7  1  0  0  0  0
  9 11  1  0  0  0  0
 10  9  1  0  0  0  0
 12 13  1  0  0  0  0
 13 15  2  0  0  0  0
 13 14  1  0  0  0  0
 15 16  1  0  0  0  0
 17 18  1  0  0  0  0
 17 15  1  0  0  0  0
 19 17  2  0  0  0  0
 20 19  1  0  0  0  0
 21 19  1  0  0  0  0
 21 12  2  0  0  0  0
 22  3  1  0  0  0  0
 22 21  1  0  0  0  0
 23 22  1  0  0  0  0
 24 22  1  0  0  0  0
 25 28  1  0  0  0  0
 25  3  1  0  0  0  0
 26 25  1  0  0  0  0
 27 25  1  0  0  0  0
 28 30  1  0  0  0  0
 28  5  1  0  0  0  0
 29 28  1  0  0  0  0
 31  5  1  0  0  0  0
 31 34  1  0  0  0  0
 32 31  1  0  0  0  0
 33 31  1  0  0  0  0
 34  7  1  0  0  0  0
 34 36  1  0  0  0  0
 35 34  1  0  0  0  0
 37 39  1  0  0  0  0
 37 38  1  0  0  0  0
 40 41  1  0  0  0  0
 40 37  1  0  0  0  0
 41 42  1  0  0  0  0
 43 44  1  0  0  0  0
 43 41  2  0  0  0  0
 45 43  1  0  0  0  0
 46 45  1  0  0  0  0
 47 45  2  0  0  0  0
 47 49  1  0  0  0  0
 48 47  1  0  0  0  0
 49 40  2  0  0  0  0
 50  2  1  0  0  0  0
 50 51  1  0  0  0  0
 50  9  1  0  0  0  0
 52 50  1  0  0  0  0
M  END
