2
 OpenBabel05122313063D

 31 32  0  0  1  0  0  0  0  0999 V2000
    0.0110    1.6165    0.7956 S   0  0  0  0  0  0  0  0  0  0  0  0
   -1.3587   -0.9719    0.4854 N   0  0  0  0  0  0  0  0  0  0  0  0
   -1.5299   -1.2721   -0.4932 H   0  0  0  0  0  0  0  0  0  0  0  0
   -1.6200   -1.7643    1.0896 H   0  0  0  0  0  0  0  0  0  0  0  0
   -2.2757    0.1851    0.7831 C   0  0  1  0  0  0  0  0  0  0  0  0
   -2.2750    0.3112    1.8860 H   0  0  0  0  0  0  0  0  0  0  0  0
   -1.7023    1.4532    0.1472 C   0  0  0  0  0  0  0  0  0  0  0  0
   -2.2841    2.3467    0.4418 H   0  0  0  0  0  0  0  0  0  0  0  0
   -1.6458    1.3742   -0.9558 H   0  0  0  0  0  0  0  0  0  0  0  0
   -3.6907   -0.1011    0.3174 C   0  0  0  0  0  0  0  0  0  0  0  0
   -4.7525   -0.1289    1.2406 C   0  0  0  0  0  0  0  0  0  0  0  0
   -4.5551    0.0623    2.3076 H   0  0  0  0  0  0  0  0  0  0  0  0
   -6.0607   -0.3943    0.8080 C   0  0  0  0  0  0  0  0  0  0  0  0
   -6.8846   -0.4125    1.5366 H   0  0  0  0  0  0  0  0  0  0  0  0
   -6.3152   -0.6372   -0.5504 C   0  0  0  0  0  0  0  0  0  0  0  0
   -7.3406   -0.8466   -0.8895 H   0  0  0  0  0  0  0  0  0  0  0  0
   -5.2599   -0.6130   -1.4775 C   0  0  0  0  0  0  0  0  0  0  0  0
   -5.4568   -0.8013   -2.5432 H   0  0  0  0  0  0  0  0  0  0  0  0
   -3.9533   -0.3439   -1.0482 C   0  0  0  0  0  0  0  0  0  0  0  0
   -3.1333   -0.3241   -1.7861 H   0  0  0  0  0  0  0  0  0  0  0  0
    0.7587    2.9289   -0.1789 C   0  0  0  0  0  0  0  0  0  0  0  0
    1.0194    4.1232    0.5214 C   0  0  0  0  0  0  0  0  0  0  0  0
    0.7495    4.2112    1.5847 H   0  0  0  0  0  0  0  0  0  0  0  0
    1.6199    5.1953   -0.1554 C   0  0  0  0  0  0  0  0  0  0  0  0
    1.8234    6.1330    0.3826 H   0  0  0  0  0  0  0  0  0  0  0  0
    1.9577    5.0685   -1.5118 C   0  0  0  0  0  0  0  0  0  0  0  0
    2.4289    5.9105   -2.0402 H   0  0  0  0  0  0  0  0  0  0  0  0
    1.6979    3.8687   -2.1960 C   0  0  0  0  0  0  0  0  0  0  0  0
    1.9654    3.7708   -3.2587 H   0  0  0  0  0  0  0  0  0  0  0  0
    1.0991    2.7859   -1.5361 C   0  0  0  0  0  0  0  0  0  0  0  0
    0.8960    1.8394   -2.0588 H   0  0  0  0  0  0  0  0  0  0  0  0
  2  5  1  0  0  0  0
  2  4  1  0  0  0  0
  3  2  1  0  0  0  0
  5  6  1  1  0  0  0
  7  8  1  0  0  0  0
  7  5  1  0  0  0  0
  7  1  1  0  0  0  0
  9  7  1  0  0  0  0
 10  5  1  0  0  0  0
 10 11  1  0  0  0  0
 11 12  1  0  0  0  0
 13 11  2  0  0  0  0
 13 14  1  0  0  0  0
 15 13  1  0  0  0  0
 16 15  1  0  0  0  0
 17 19  1  0  0  0  0
 17 15  2  0  0  0  0
 18 17  1  0  0  0  0
 19 10  2  0  0  0  0
 20 19  1  0  0  0  0
 21 22  1  0  0  0  0
 21  1  1  0  0  0  0
 22 23  1  0  0  0  0
 24 25  1  0  0  0  0
 24 22  2  0  0  0  0
 26 24  1  0  0  0  0
 27 26  1  0  0  0  0
 28 30  1  0  0  0  0
 28 26  2  0  0  0  0
 29 28  1  0  0  0  0
 30 21  2  0  0  0  0
 31 30  1  0  0  0  0
M  END
