1
 OpenBabel05122313063D

 23 24  0  0  1  0  0  0  0  0999 V2000
   -0.8530   -0.2633   -1.5374 N   0  0  0  0  0  2  0  0  0  0  0  0
    0.2344    0.4105   -1.7705 C   0  0  1  0  0  3  0  0  0  0  0  0
    0.0934    1.5604   -2.4623 O   0  0  0  0  0  0  0  0  0  0  0  0
   -1.3389    1.7726   -2.6343 C   0  0  0  0  0  0  0  0  0  0  0  0
   -1.5159    2.0540   -3.6892 H   0  0  0  0  0  0  0  0  0  0  0  0
   -1.6302    2.6128   -1.9707 H   0  0  0  0  0  0  0  0  0  0  0  0
   -1.9601    0.4273   -2.2178 C   0  0  0  0  0  0  0  0  0  0  0  0
   -2.8242    0.5078   -1.5285 H   0  0  0  0  0  0  0  0  0  0  0  0
   -2.2889   -0.1876   -3.0836 H   0  0  0  0  0  0  0  0  0  0  0  0
    1.5980    0.0523   -1.3570 C   0  0  0  0  0  0  0  0  0  0  0  0
    2.5510    1.0720   -1.1514 C   0  0  0  0  0  0  0  0  0  0  0  0
    2.2528    2.1178   -1.3155 H   0  0  0  0  0  0  0  0  0  0  0  0
    3.8547    0.7684   -0.7227 C   0  0  0  0  0  0  0  0  0  0  0  0
    4.1937   -0.5897   -0.5391 C   0  0  0  0  0  0  0  0  0  0  0  0
    5.2163   -0.8493   -0.2208 H   0  0  0  0  0  0  0  0  0  0  0  0
    3.2553   -1.6091   -0.7654 C   0  0  0  0  0  0  0  0  0  0  0  0
    3.5414   -2.6634   -0.6303 H   0  0  0  0  0  0  0  0  0  0  0  0
    1.9500   -1.3001   -1.1678 C   0  0  0  0  0  0  0  0  0  0  0  0
    1.2086   -2.1027   -1.3233 H   0  0  0  0  0  0  0  0  0  0  0  0
    4.8497    1.8645   -0.4365 C   0  0  0  0  0  0  0  0  0  0  0  0
    4.8431    2.1318    0.6425 H   0  0  0  0  0  0  0  0  0  0  0  0
    4.6165    2.7862   -1.0043 H   0  0  0  0  0  0  0  0  0  0  0  0
    5.8836    1.5548   -0.6867 H   0  0  0  0  0  0  0  0  0  0  0  0
  2  1  1  0  0  0  0
  2 10  1  1  0  0  0
  3  2  1  0  0  0  0
  4  3  1  0  0  0  0
  4  7  1  0  0  0  0
  4  6  1  0  0  0  0
  5  4  1  0  0  0  0
  7  1  1  0  0  0  0
  7  8  1  0  0  0  0
  9  7  1  0  0  0  0
 10 18  2  0  0  0  0
 10 11  1  0  0  0  0
 11 13  2  0  0  0  0
 12 11  1  0  0  0  0
 13 14  1  0  0  0  0
 13 20  1  0  0  0  0
 14 15  1  0  0  0  0
 16 17  1  0  0  0  0
 16 14  2  0  0  0  0
 18 16  1  0  0  0  0
 19 18  1  0  0  0  0
 20 21  1  0  0  0  0
 22 20  1  0  0  0  0
 23 20  1  0  0  0  0
M  END
