29
 OpenBabel05122313063D

 43 46  0  0  1  0  0  0  0  0999 V2000
    0.1128    0.1697   -0.2044 B   0  0  0  0  0  0  0  0  0  0  0  0
    0.5546    0.7797   -1.3070 H   0  0  0  0  0  0  0  0  0  0  0  0
    1.0377   -0.7538    0.0409 H   0  0  0  0  0  0  0  0  0  0  0  0
    0.0983    1.2414    0.9741 C   0  0  0  0  0  0  0  0  0  0  0  0
   -0.1807    2.6473    0.5785 C   0  0  0  0  0  0  0  0  0  0  0  0
   -1.1073    2.9259   -0.4561 C   0  0  0  0  0  0  0  0  0  0  0  0
   -1.6265    2.0951   -0.9575 H   0  0  0  0  0  0  0  0  0  0  0  0
   -1.3950    4.2428   -0.8399 C   0  0  0  0  0  0  0  0  0  0  0  0
   -2.1288    4.4289   -1.6390 H   0  0  0  0  0  0  0  0  0  0  0  0
   -0.7483    5.3186   -0.2128 C   0  0  0  0  0  0  0  0  0  0  0  0
   -0.9654    6.3529   -0.5196 H   0  0  0  0  0  0  0  0  0  0  0  0
    0.1932    5.0616    0.7980 C   0  0  0  0  0  0  0  0  0  0  0  0
    0.7267    5.8959    1.2789 H   0  0  0  0  0  0  0  0  0  0  0  0
    0.4747    3.7460    1.1855 C   0  0  0  0  0  0  0  0  0  0  0  0
    1.2447    3.5586    1.9487 H   0  0  0  0  0  0  0  0  0  0  0  0
    0.4707    0.9576    2.2599 C   0  0  0  0  0  0  0  0  0  0  0  0
    0.5631    1.8032    2.9667 H   0  0  0  0  0  0  0  0  0  0  0  0
    0.8123   -0.3429    2.8451 C   0  0  0  0  0  0  0  0  0  0  0  0
    1.7238   -0.3811    3.9303 C   0  0  0  0  0  0  0  0  0  0  0  0
    2.1418    0.5659    4.3068 H   0  0  0  0  0  0  0  0  0  0  0  0
    2.1162   -1.5941    4.5073 C   0  0  0  0  0  0  0  0  0  0  0  0
    2.8379   -1.5959    5.3384 H   0  0  0  0  0  0  0  0  0  0  0  0
    1.5896   -2.8058    4.0291 C   0  0  0  0  0  0  0  0  0  0  0  0
    1.8935   -3.7607    4.4837 H   0  0  0  0  0  0  0  0  0  0  0  0
    0.6579   -2.7868    2.9792 C   0  0  0  0  0  0  0  0  0  0  0  0
    0.2176   -3.7282    2.6163 H   0  0  0  0  0  0  0  0  0  0  0  0
    0.2693   -1.5732    2.3973 C   0  0  0  0  0  0  0  0  0  0  0  0
   -0.4995   -1.5772    1.6136 H   0  0  0  0  0  0  0  0  0  0  0  0
    0.2230   -1.5358   -2.2209 N   0  0  0  0  0  2  0  0  0  0  0  0
    0.2985   -2.1882   -3.0054 H   0  0  0  0  0  0  0  0  0  0  0  0
   -0.9642   -1.4304   -1.6803 C   0  0  2  0  0  3  0  0  0  0  0  0
   -1.1472   -0.5761   -0.6222 N   0  0  0  0  0  0  0  0  0  0  0  0
   -2.4561   -0.5747   -0.1236 C   0  0  0  0  0  0  0  0  0  0  0  0
   -2.9585    0.1686    0.9577 C   0  0  0  0  0  0  0  0  0  0  0  0
   -2.2941    0.8396    1.5168 H   0  0  0  0  0  0  0  0  0  0  0  0
   -4.3105    0.0268    1.3021 C   0  0  0  0  0  0  0  0  0  0  0  0
   -4.7083    0.6065    2.1478 H   0  0  0  0  0  0  0  0  0  0  0  0
   -5.1594   -0.8391    0.5890 C   0  0  0  0  0  0  0  0  0  0  0  0
   -6.2167   -0.9338    0.8764 H   0  0  0  0  0  0  0  0  0  0  0  0
   -4.6679   -1.5900   -0.4905 C   0  0  0  0  0  0  0  0  0  0  0  0
   -5.3234   -2.2714   -1.0514 H   0  0  0  0  0  0  0  0  0  0  0  0
   -3.3183   -1.4500   -0.8340 C   0  0  0  0  0  0  0  0  0  0  0  0
   -2.4512   -2.2789   -2.1339 S   0  0  0  0  0  0  0  0  0  0  0  0
  1  3  1  0  0  0  0
  1  4  1  0  0  0  0
  2  1  1  0  0  0  0
  4 16  2  0  0  0  0
  5  4  1  0  0  0  0
  5 14  1  0  0  0  0
  6  5  2  0  0  0  0
  7  6  1  0  0  0  0
  8  6  1  0  0  0  0
  8 10  2  0  0  0  0
  9  8  1  0  0  0  0
 10 12  1  0  0  0  0
 11 10  1  0  0  0  0
 12 14  2  0  0  0  0
 12 13  1  0  0  0  0
 14 15  1  0  0  0  0
 16 18  1  0  0  0  0
 16 17  1  0  0  0  0
 18 19  1  0  0  0  0
 19 20  1  0  0  0  0
 19 21  2  0  0  0  0
 21 22  1  0  0  0  0
 23 24  1  0  0  0  0
 23 21  1  0  0  0  0
 25 23  2  0  0  0  0
 26 25  1  0  0  0  0
 27 18  2  0  0  0  0
 27 25  1  0  0  0  0
 28 27  1  0  0  0  0
 30 29  1  0  0  0  0
 31 29  1  1  0  0  0
 31 32  1  0  0  0  0
 32  1  1  0  0  0  0
 32 33  1  0  0  0  0
 33 34  1  0  0  0  0
 34 36  2  0  0  0  0
 34 35  1  0  0  0  0
 36 37  1  0  0  0  0
 38 39  1  0  0  0  0
 38 36  1  0  0  0  0
 40 38  2  0  0  0  0
 41 40  1  0  0  0  0
 42 40  1  0  0  0  0
 42 33  2  0  0  0  0
 43 31  1  0  0  0  0
 43 42  1  0  0  0  0
M  END
