2
 OpenBabel05122313063D

 33 35  0  0  1  0  0  0  0  0999 V2000
    0.6591   -3.5073    0.7533 S   0  0  0  0  0  0  0  0  0  0  0  0
   -1.5604   -1.8631    0.5305 N   0  0  0  0  0  2  0  0  0  0  0  0
   -2.0777   -2.6454    0.9393 H   0  0  0  0  0  0  0  0  0  0  0  0
   -0.2761   -2.0569    0.3636 C   0  0  2  0  0  3  0  0  0  0  0  0
    2.1196   -2.7271    0.1347 C   0  0  0  0  0  0  0  0  0  0  0  0
    3.4075   -3.2723    0.0784 C   0  0  0  0  0  0  0  0  0  0  0  0
    3.6040   -4.2892    0.4472 H   0  0  0  0  0  0  0  0  0  0  0  0
    4.4371   -2.4873   -0.4627 C   0  0  0  0  0  0  0  0  0  0  0  0
    5.4573   -2.8946   -0.5167 H   0  0  0  0  0  0  0  0  0  0  0  0
    4.1693   -1.1903   -0.9367 C   0  0  0  0  0  0  0  0  0  0  0  0
    4.9839   -0.5861   -1.3623 H   0  0  0  0  0  0  0  0  0  0  0  0
    2.8792   -0.6440   -0.8795 C   0  0  0  0  0  0  0  0  0  0  0  0
    2.6761    0.3646   -1.2572 H   0  0  0  0  0  0  0  0  0  0  0  0
    1.8398   -1.4165   -0.3335 C   0  0  0  0  0  0  0  0  0  0  0  0
    0.4928   -1.0587   -0.1788 N   0  0  0  0  0  0  0  0  0  0  0  0
   -0.2903    0.2054   -0.5218 B   0  0  0  0  0  0  0  0  0  0  0  0
   -0.9273    0.5707    0.5911 H   0  0  0  0  0  0  0  0  0  0  0  0
   -1.2707   -0.1799   -1.3315 H   0  0  0  0  0  0  0  0  0  0  0  0
    0.4569    1.4724   -1.1339 C   0  0  0  0  0  0  0  0  0  0  0  0
    0.3495    1.7130   -2.4655 C   0  0  0  0  0  0  0  0  0  0  0  0
    0.8471    2.5620   -2.9638 H   0  0  0  0  0  0  0  0  0  0  0  0
   -0.2465    1.0527   -3.1151 H   0  0  0  0  0  0  0  0  0  0  0  0
    1.2159    2.3739   -0.2246 C   0  0  0  0  0  0  0  0  0  0  0  0
    1.6127    1.9269    1.0588 C   0  0  0  0  0  0  0  0  0  0  0  0
    1.3560    0.9070    1.3818 H   0  0  0  0  0  0  0  0  0  0  0  0
    2.3394    2.7525    1.9282 C   0  0  0  0  0  0  0  0  0  0  0  0
    2.6383    2.3728    2.9170 H   0  0  0  0  0  0  0  0  0  0  0  0
    2.6800    4.0567    1.5414 C   0  0  0  0  0  0  0  0  0  0  0  0
    3.2446    4.7098    2.2240 H   0  0  0  0  0  0  0  0  0  0  0  0
    2.2800    4.5267    0.2785 C   0  0  0  0  0  0  0  0  0  0  0  0
    2.5245    5.5551   -0.0290 H   0  0  0  0  0  0  0  0  0  0  0  0
    1.5572    3.6993   -0.5881 C   0  0  0  0  0  0  0  0  0  0  0  0
    1.2279    4.0964   -1.5596 H   0  0  0  0  0  0  0  0  0  0  0  0
  2  3  1  0  0  0  0
  4  2  1  6  0  0  0
  4  1  1  0  0  0  0
  5  1  1  0  0  0  0
  6  5  1  0  0  0  0
  6  7  1  0  0  0  0
  8  6  2  0  0  0  0
  9  8  1  0  0  0  0
 10 12  2  0  0  0  0
 10  8  1  0  0  0  0
 11 10  1  0  0  0  0
 12 14  1  0  0  0  0
 13 12  1  0  0  0  0
 14 15  1  0  0  0  0
 14  5  2  0  0  0  0
 15  4  1  0  0  0  0
 16 15  1  0  0  0  0
 16 17  1  0  0  0  0
 18 16  1  0  0  0  0
 19 16  1  0  0  0  0
 19 23  1  0  0  0  0
 20 19  2  0  0  0  0
 21 20  1  0  0  0  0
 22 20  1  0  0  0  0
 23 24  1  0  0  0  0
 24 25  1  0  0  0  0
 24 26  2  0  0  0  0
 26 27  1  0  0  0  0
 28 26  1  0  0  0  0
 28 29  1  0  0  0  0
 30 28  2  0  0  0  0
 31 30  1  0  0  0  0
 32 23  2  0  0  0  0
 32 30  1  0  0  0  0
 33 32  1  0  0  0  0
M  END
