2
 OpenBabel05122313063D

 36 38  0  0  1  0  0  0  0  0999 V2000
    0.5595    3.5007    0.9014 S   0  0  0  0  0  0  0  0  0  0  0  0
    2.2548    1.3259    0.6614 N   0  0  0  0  0  2  0  0  0  0  0  0
    2.9348    1.9115    1.1527 H   0  0  0  0  0  0  0  0  0  0  0  0
    1.0850    1.8744    0.4467 C   0  0  2  0  0  3  0  0  0  0  0  0
   -1.0040    3.2046    0.1329 C   0  0  0  0  0  0  0  0  0  0  0  0
   -2.0749    4.1004    0.0332 C   0  0  0  0  0  0  0  0  0  0  0  0
   -2.0096    5.1054    0.4743 H   0  0  0  0  0  0  0  0  0  0  0  0
   -3.2274    3.6831   -0.6497 C   0  0  0  0  0  0  0  0  0  0  0  0
   -4.0823    4.3691   -0.7397 H   0  0  0  0  0  0  0  0  0  0  0  0
   -3.2869    2.4011   -1.2251 C   0  0  0  0  0  0  0  0  0  0  0  0
   -4.1903    2.0878   -1.7686 H   0  0  0  0  0  0  0  0  0  0  0  0
   -2.2137    1.5046   -1.1238 C   0  0  0  0  0  0  0  0  0  0  0  0
   -2.2694    0.5122   -1.5831 H   0  0  0  0  0  0  0  0  0  0  0  0
   -1.0614    1.8998   -0.4236 C   0  0  0  0  0  0  0  0  0  0  0  0
    0.1109    1.1612   -0.2043 N   0  0  0  0  0  0  0  0  0  0  0  0
    0.5315   -0.2577   -0.5769 B   0  0  0  0  0  0  0  0  0  0  0  0
    1.6254   -0.1423   -1.3181 H   0  0  0  0  0  0  0  0  0  0  0  0
    0.9856   -0.8231    0.5453 H   0  0  0  0  0  0  0  0  0  0  0  0
   -0.5045   -1.2628   -1.2463 C   0  0  0  0  0  0  0  0  0  0  0  0
   -0.2118   -1.7987   -2.4591 C   0  0  0  0  0  0  0  0  0  0  0  0
   -0.8457   -2.5608   -2.9425 H   0  0  0  0  0  0  0  0  0  0  0  0
    0.6991   -1.5080   -3.0051 H   0  0  0  0  0  0  0  0  0  0  0  0
   -1.7305   -1.6494   -0.4964 C   0  0  0  0  0  0  0  0  0  0  0  0
   -1.8173   -1.4457    0.8992 C   0  0  0  0  0  0  0  0  0  0  0  0
   -0.9610   -1.0135    1.4379 H   0  0  0  0  0  0  0  0  0  0  0  0
   -2.9676   -1.7925    1.6205 C   0  0  0  0  0  0  0  0  0  0  0  0
   -2.9946   -1.6226    2.7086 H   0  0  0  0  0  0  0  0  0  0  0  0
   -4.0906   -2.3498    0.9816 C   0  0  0  0  0  0  0  0  0  0  0  0
   -4.0147   -2.5430   -0.4157 C   0  0  0  0  0  0  0  0  0  0  0  0
   -4.8826   -2.9626   -0.9498 H   0  0  0  0  0  0  0  0  0  0  0  0
   -2.8678   -2.2009   -1.1362 C   0  0  0  0  0  0  0  0  0  0  0  0
   -2.8597   -2.3418   -2.2277 H   0  0  0  0  0  0  0  0  0  0  0  0
   -5.3304   -2.7313    1.7488 C   0  0  0  0  0  0  0  0  0  0  0  0
   -5.2799   -2.3941    2.8021 H   0  0  0  0  0  0  0  0  0  0  0  0
   -5.4749   -3.8327    1.7553 H   0  0  0  0  0  0  0  0  0  0  0  0
   -6.2417   -2.2931    1.2918 H   0  0  0  0  0  0  0  0  0  0  0  0
  2  3  1  0  0  0  0
  4  2  1  6  0  0  0
  4  1  1  0  0  0  0
  5  1  1  0  0  0  0
  6  5  1  0  0  0  0
  6  7  1  0  0  0  0
  8  6  2  0  0  0  0
  9  8  1  0  0  0  0
 10 12  2  0  0  0  0
 10  8  1  0  0  0  0
 11 10  1  0  0  0  0
 12 14  1  0  0  0  0
 13 12  1  0  0  0  0
 14 15  1  0  0  0  0
 14  5  2  0  0  0  0
 15  4  1  0  0  0  0
 16 15  1  0  0  0  0
 16 18  1  0  0  0  0
 17 16  1  0  0  0  0
 19 16  1  0  0  0  0
 19 23  1  0  0  0  0
 20 19  2  0  0  0  0
 21 20  1  0  0  0  0
 22 20  1  0  0  0  0
 23 24  1  0  0  0  0
 24 25  1  0  0  0  0
 24 26  2  0  0  0  0
 26 27  1  0  0  0  0
 28 26  1  0  0  0  0
 28 33  1  0  0  0  0
 29 28  2  0  0  0  0
 30 29  1  0  0  0  0
 31 23  2  0  0  0  0
 31 29  1  0  0  0  0
 32 31  1  0  0  0  0
 33 35  1  0  0  0  0
 33 34  1  0  0  0  0
 36 33  1  0  0  0  0
M  END
