63
 OpenBabel05122313063D

 73 76  0  0  0  0  0  0  0  0999 V2000
    0.7001    2.6606   -0.6279 C   0  0  0  0  0  0  0  0  0  0  0  0
    1.5042    3.5267    0.1691 C   0  0  0  0  0  0  0  0  0  0  0  0
    1.2393    4.9200    0.1549 C   0  0  0  0  0  0  0  0  0  0  0  0
    1.8587    5.5920    0.7665 H   0  0  0  0  0  0  0  0  0  0  0  0
    0.1988    5.4469   -0.6076 C   0  0  0  0  0  0  0  0  0  0  0  0
   -0.5906    4.5925   -1.3998 C   0  0  0  0  0  0  0  0  0  0  0  0
   -1.4014    5.0160   -2.0113 H   0  0  0  0  0  0  0  0  0  0  0  0
   -0.3390    3.2180   -1.4295 C   0  0  0  0  0  0  0  0  0  0  0  0
    2.5981    3.0899    1.0192 C   0  0  0  0  0  3  0  0  0  0  0  0
    3.1257    3.9304    1.5252 H   0  0  0  0  0  0  0  0  0  0  0  0
    4.1286    1.7534    2.1923 C   0  0  0  0  0  0  0  0  0  0  0  0
    4.6646    2.7179    2.3360 H   0  0  0  0  0  0  0  0  0  0  0  0
    3.7183    1.4340    3.1764 H   0  0  0  0  0  0  0  0  0  0  0  0
    5.0886    0.6748    1.7238 C   0  0  0  0  0  0  0  0  0  0  0  0
    5.5062    0.8977    0.7137 H   0  0  0  0  0  0  0  0  0  0  0  0
    5.9394    0.5976    2.4403 H   0  0  0  0  0  0  0  0  0  0  0  0
    5.1504   -1.7047    1.5061 C   0  0  0  0  0  0  0  0  0  0  0  0
    6.0740   -1.6075    2.1212 H   0  0  0  0  0  0  0  0  0  0  0  0
    5.4489   -1.7910    0.4373 H   0  0  0  0  0  0  0  0  0  0  0  0
    4.3879   -2.9267    1.9621 C   0  0  0  0  0  0  0  0  0  0  0  0
    5.1193   -3.7573    2.1407 H   0  0  0  0  0  0  0  0  0  0  0  0
    3.9067   -2.6951    2.9448 H   0  0  0  0  0  0  0  0  0  0  0  0
    2.5721   -4.3113    1.4477 C   0  0  0  0  0  0  0  0  0  0  0  0
    1.8078   -3.8942    2.1477 H   0  0  0  0  0  0  0  0  0  0  0  0
    3.1452   -5.0971    2.0008 H   0  0  0  0  0  0  0  0  0  0  0  0
    1.8842   -4.9811    0.2611 C   0  0  0  0  0  0  0  0  0  0  0  0
    2.6827   -5.3463   -0.4223 H   0  0  0  0  0  0  0  0  0  0  0  0
    1.3235   -5.8728    0.6492 H   0  0  0  0  0  0  0  0  0  0  0  0
   -0.2017   -4.2926   -0.5109 C   0  0  0  0  0  0  0  0  0  0  0  0
   -0.6444   -5.2079   -0.0343 H   0  0  0  0  0  0  0  0  0  0  0  0
   -1.1930   -3.4281   -1.1647 C   0  0  0  0  0  0  0  0  0  0  0  0
   -0.8801   -2.1744   -1.7679 C   0  0  0  0  0  0  0  0  0  0  0  0
   -1.9224   -1.3904   -2.3255 C   0  0  0  0  0  0  0  0  0  0  0  0
   -3.2460   -1.8636   -2.3091 C   0  0  0  0  0  0  0  0  0  0  0  0
   -4.0512   -1.2599   -2.7517 H   0  0  0  0  0  0  0  0  0  0  0  0
   -3.5504   -3.0911   -1.7116 C   0  0  0  0  0  0  0  0  0  0  0  0
   -2.5326   -3.8605   -1.1429 C   0  0  0  0  0  0  0  0  0  0  0  0
   -2.7761   -4.8141   -0.6524 H   0  0  0  0  0  0  0  0  0  0  0  0
   -1.6323   -0.0148   -2.8587 C   0  0  0  0  0  0  0  0  0  0  0  0
   -2.5017    0.3412   -3.4561 H   0  0  0  0  0  0  0  0  0  0  0  0
   -0.7668   -0.0208   -3.5614 H   0  0  0  0  0  0  0  0  0  0  0  0
   -1.0883    2.3099   -2.3739 C   0  0  0  0  0  0  0  0  0  0  0  0
   -0.4720    2.1633   -3.2896 H   0  0  0  0  0  0  0  0  0  0  0  0
   -2.0410    2.7793   -2.7079 H   0  0  0  0  0  0  0  0  0  0  0  0
   -2.2235    0.9569   -0.6235 C   0  0  0  0  0  0  0  0  0  0  0  0
   -1.7823    1.6182    0.1498 H   0  0  0  0  0  0  0  0  0  0  0  0
   -2.1963   -0.0633   -0.1900 H   0  0  0  0  0  0  0  0  0  0  0  0
   -3.6773    1.3806   -0.8847 C   0  0  0  0  0  0  0  0  0  0  0  0
   -3.7248    2.4456   -1.1949 H   0  0  0  0  0  0  0  0  0  0  0  0
   -4.1024    0.7838   -1.7176 H   0  0  0  0  0  0  0  0  0  0  0  0
   -4.5092    1.1765    0.3613 C   0  0  0  0  0  0  0  0  0  0  0  0
   -4.7610    2.2370    1.2543 C   0  0  0  0  0  0  0  0  0  0  0  0
   -4.3959    3.2479    1.0098 H   0  0  0  0  0  0  0  0  0  0  0  0
   -5.4658    2.0383    2.4470 C   0  0  0  0  0  0  0  0  0  0  0  0
   -5.6636    2.8679    3.1409 H   0  0  0  0  0  0  0  0  0  0  0  0
   -5.9323    0.7514    2.7785 C   0  0  0  0  0  0  0  0  0  0  0  0
   -5.6888   -0.3190    1.8951 C   0  0  0  0  0  0  0  0  0  0  0  0
   -6.0497   -1.3306    2.1444 H   0  0  0  0  0  0  0  0  0  0  0  0
   -4.9840   -0.1050    0.7051 C   0  0  0  0  0  0  0  0  0  0  0  0
   -4.8024   -0.9591    0.0346 H   0  0  0  0  0  0  0  0  0  0  0  0
   -0.1264    7.1595   -0.5907 Cl  0  0  0  0  0  0  0  0  0  0  0  0
   -5.2128   -3.6291   -1.6371 Cl  0  0  0  0  0  0  0  0  0  0  0  0
    3.0137    1.8881    1.2613 N   0  0  0  0  0  2  0  0  0  0  0  0
    1.0542   -4.0560   -0.4596 N   0  0  0  0  0  0  0  0  0  0  0  0
   -1.3045    0.9690   -1.7909 N   0  0  0  0  0  0  0  0  0  0  0  0
    0.8945    1.3391   -0.6334 O   0  0  0  0  0  0  0  0  0  0  0  0
    0.0212    0.9214   -1.1357 H   0  0  0  0  0  0  0  0  0  0  0  0
    4.3467   -0.5360    1.7147 O   0  0  0  0  0  0  0  0  0  0  0  0
    3.4399   -3.2930    0.9937 O   0  0  0  0  0  0  0  0  0  0  0  0
    0.4056   -1.7641   -1.7622 O   0  0  0  0  0  0  0  0  0  0  0  0
    0.5158   -0.9449   -2.2806 H   0  0  0  0  0  0  0  0  0  0  0  0
   -6.6095    0.6005    3.9504 O   0  0  0  0  0  0  0  0  0  0  0  0
   -6.8438   -0.3410    4.0488 H   0  0  0  0  0  0  0  0  0  0  0  0
  1  2  1  0  0  0  0
  2  9  1  0  0  0  0
  3  2  2  0  0  0  0
  3  4  1  0  0  0  0
  5 61  1  0  0  0  0
  5  3  1  0  0  0  0
  6  5  2  0  0  0  0
  7  6  1  0  0  0  0
  8  6  1  0  0  0  0
  8  1  2  0  0  0  0
  9 63  1  0  0  0  0
  9 10  1  0  0  0  0
 11 12  1  0  0  0  0
 11 13  1  0  0  0  0
 14 11  1  0  0  0  0
 14 16  1  0  0  0  0
 15 14  1  0  0  0  0
 17 68  1  0  0  0  0
 17 20  1  0  0  0  0
 17 18  1  0  0  0  0
 19 17  1  0  0  0  0
 20 21  1  0  0  0  0
 20 22  1  0  0  0  0
 23 25  1  0  0  0  0
 23 24  1  0  0  0  0
 26 28  1  0  0  0  0
 26 23  1  0  0  0  0
 27 26  1  0  0  0  0
 29 64  2  0  0  0  0
 29 30  1  0  0  0  0
 31 37  1  0  0  0  0
 31 29  1  0  0  0  0
 32 70  1  0  0  0  0
 32 31  2  0  0  0  0
 33 34  2  0  0  0  0
 33 32  1  0  0  0  0
 34 36  1  0  0  0  0
 35 34  1  0  0  0  0
 36 62  1  0  0  0  0
 36 37  2  0  0  0  0
 37 38  1  0  0  0  0
 39 33  1  0  0  0  0
 39 65  1  0  0  0  0
 40 39  1  0  0  0  0
 41 39  1  0  0  0  0
 42 65  1  0  0  0  0
 42  8  1  0  0  0  0
 43 42  1  0  0  0  0
 44 42  1  0  0  0  0
 45 47  1  0  0  0  0
 45 46  1  0  0  0  0
 48 45  1  0  0  0  0
 48 51  1  0  0  0  0
 49 48  1  0  0  0  0
 50 48  1  0  0  0  0
 51 59  2  0  0  0  0
 51 52  1  0  0  0  0
 52 54  2  0  0  0  0
 53 52  1  0  0  0  0
 54 56  1  0  0  0  0
 54 55  1  0  0  0  0
 56 72  1  0  0  0  0
 57 58  1  0  0  0  0
 57 56  2  0  0  0  0
 59 57  1  0  0  0  0
 60 59  1  0  0  0  0
 63 11  1  0  0  0  0
 64 26  1  0  0  0  0
 65 45  1  0  0  0  0
 66  1  1  0  0  0  0
 67 66  1  0  0  0  0
 68 14  1  0  0  0  0
 69 23  1  0  0  0  0
 69 20  1  0  0  0  0
 71 70  1  0  0  0  0
 72 73  1  0  0  0  0
M  END
