1
 OpenBabel05122313063D

 26 27  0  0  0  0  0  0  0  0999 V2000
    1.2141   -1.0222    0.8918 N   0  0  0  0  0  2  0  0  0  0  0  0
    1.9708   -0.0389    0.1508 C   0  0  0  0  0  0  0  0  0  0  0  0
    2.6505    1.0061    1.0529 C   0  0  0  0  0  0  0  0  0  0  0  0
    3.6475    1.8663    0.5466 C   0  0  0  0  0  0  0  0  0  0  0  0
    4.2060    2.8724    1.3476 C   0  0  0  0  0  0  0  0  0  0  0  0
    3.7840    3.0374    2.6776 C   0  0  0  0  0  0  0  0  0  0  0  0
    2.8009    2.1813    3.1962 C   0  0  0  0  0  0  0  0  0  0  0  0
    2.2435    1.1763    2.3894 C   0  0  0  0  0  0  0  0  0  0  0  0
    2.9857   -0.6256   -0.8357 C   0  0  0  0  0  0  0  0  0  0  0  0
    3.0079   -0.2149   -2.1808 C   0  0  0  0  0  0  0  0  0  0  0  0
    3.9230   -0.7707   -3.0906 C   0  0  0  0  0  0  0  0  0  0  0  0
    4.8362   -1.7447   -2.6607 C   0  0  0  0  0  0  0  0  0  0  0  0
    4.8332   -2.1520   -1.3147 C   0  0  0  0  0  0  0  0  0  0  0  0
    3.9168   -1.5945   -0.4127 C   0  0  0  0  0  0  0  0  0  0  0  0
    3.9889    1.7462   -0.4923 H   0  0  0  0  0  0  0  0  0  0  0  0
    4.9813    3.5331    0.9296 H   0  0  0  0  0  0  0  0  0  0  0  0
    4.2241    3.8258    3.3071 H   0  0  0  0  0  0  0  0  0  0  0  0
    2.4624    2.2958    4.2378 H   0  0  0  0  0  0  0  0  0  0  0  0
    1.4627    0.5115    2.7844 H   0  0  0  0  0  0  0  0  0  0  0  0
    2.2909    0.5519   -2.5181 H   0  0  0  0  0  0  0  0  0  0  0  0
    3.9186   -0.4438   -4.1420 H   0  0  0  0  0  0  0  0  0  0  0  0
    5.5511   -2.1867   -3.3713 H   0  0  0  0  0  0  0  0  0  0  0  0
    5.5520   -2.9108   -0.9682 H   0  0  0  0  0  0  0  0  0  0  0  0
    3.9111   -1.9228    0.6388 H   0  0  0  0  0  0  0  0  0  0  0  0
    1.7546   -1.3971    1.6773 H   0  0  0  0  0  0  0  0  0  0  0  0
    1.2314    0.5305   -0.4582 H   0  0  0  0  0  0  0  0  0  0  0  0
  1 25  1  0  0  0  0
  2  1  1  0  0  0  0
  2  3  1  0  0  0  0
  3  8  1  0  0  0  0
  4  3  2  0  0  0  0
  4  5  1  0  0  0  0
  5  6  2  0  0  0  0
  6  7  1  0  0  0  0
  6 17  1  0  0  0  0
  7 18  1  0  0  0  0
  8 19  1  0  0  0  0
  8  7  2  0  0  0  0
  9 14  1  0  0  0  0
  9  2  1  0  0  0  0
 10  9  2  0  0  0  0
 11 12  2  0  0  0  0
 11 10  1  0  0  0  0
 12 13  1  0  0  0  0
 13 23  1  0  0  0  0
 13 14  2  0  0  0  0
 14 24  1  0  0  0  0
 15  4  1  0  0  0  0
 16  5  1  0  0  0  0
 20 10  1  0  0  0  0
 21 11  1  0  0  0  0
 22 12  1  0  0  0  0
 26  2  1  0  0  0  0
M  END
