1
 OpenBabel05122313063D

 22 23  0  0  0  0  0  0  0  0999 V2000
    0.9367    1.8119   -0.0113 N   0  0  0  0  0  2  0  0  0  0  0  0
    2.2931    1.9498    0.1142 N   0  0  0  0  0  0  0  0  0  0  0  0
   -1.9372    2.1993   -0.5616 O   0  0  0  0  0  0  0  0  0  0  0  0
    5.0973    1.9815    0.4258 O   0  0  0  0  0  0  0  0  0  0  0  0
   -3.1731    2.7380   -0.6868 C   0  0  0  0  0  0  0  0  0  0  0  0
   -3.9520    2.0565   -1.0451 H   0  0  0  0  0  0  0  0  0  0  0  0
   -3.1648    4.0730   -0.3289 C   0  0  0  0  0  0  0  0  0  0  0  0
   -4.0218    4.7549   -0.3341 H   0  0  0  0  0  0  0  0  0  0  0  0
   -1.8211    4.3693    0.0343 C   0  0  0  0  0  0  0  0  0  0  0  0
   -1.4139    5.3286    0.3720 H   0  0  0  0  0  0  0  0  0  0  0  0
   -1.0974    3.1858   -0.1161 C   0  0  0  0  0  0  0  0  0  0  0  0
    0.2971    2.9584    0.0759 C   0  0  0  0  0  3  0  0  0  0  0  0
    0.9139    3.8486    0.2901 H   0  0  0  0  0  0  0  0  0  0  0  0
    3.0080    0.9277   -0.2602 C   0  0  0  0  0  0  0  0  0  0  0  0
    2.5382    0.0331   -0.7206 H   0  0  0  0  0  0  0  0  0  0  0  0
    4.4389    0.9301   -0.1607 C   0  0  0  0  0  0  0  0  0  0  0  0
    5.3680   -0.0139   -0.5919 C   0  0  0  0  0  0  0  0  0  0  0  0
    5.1296   -0.9493   -1.1105 H   0  0  0  0  0  0  0  0  0  0  0  0
    6.6542    0.4955   -0.2463 C   0  0  0  0  0  0  0  0  0  0  0  0
    7.6296    0.0321   -0.4294 H   0  0  0  0  0  0  0  0  0  0  0  0
    6.4234    1.7096    0.3700 C   0  0  0  0  0  0  0  0  0  0  0  0
    7.0843    2.4649    0.8084 H   0  0  0  0  0  0  0  0  0  0  0  0
  1 12  1  0  0  0  0
  1  2  1  0  0  0  0
  3 11  1  0  0  0  0
  5  3  1  0  0  0  0
  5  7  2  0  0  0  0
  6  5  1  0  0  0  0
  7  9  1  0  0  0  0
  8  7  1  0  0  0  0
  9 10  1  0  0  0  0
 11  9  2  0  0  0  0
 11 12  1  0  0  0  0
 12 13  1  0  0  0  0
 14 16  1  0  0  0  0
 14  2  2  0  0  0  0
 15 14  1  0  0  0  0
 16  4  1  0  0  0  0
 17 19  1  0  0  0  0
 17 16  2  0  0  0  0
 18 17  1  0  0  0  0
 19 21  2  0  0  0  0
 20 19  1  0  0  0  0
 21  4  1  0  0  0  0
 21 22  1  0  0  0  0
M  END
