6
 OpenBabel05122313063D

 35 36  0  0  0  0  0  0  0  0999 V2000
    3.4327    3.0365    0.0224 S   0  0  0  0  0  0  0  0  0  0  0  0
    3.4365    4.1148   -0.9782 O   0  0  0  0  0  0  0  0  0  0  0  0
    4.1614    3.1102    1.2990 O   0  0  0  0  0  0  0  0  0  0  0  0
    4.1934   -2.8423   -1.7264 O   0  0  0  0  0  0  0  0  0  0  0  0
    4.9500   -1.5665    2.5842 O   0  0  0  0  0  0  0  0  0  0  0  0
   -2.2439    1.3844    1.0302 N   0  0  0  0  0  0  0  0  0  0  0  0
   -2.9460    2.0913    0.7710 H   0  0  0  0  0  0  0  0  0  0  0  0
   -2.4150    1.0987    2.0059 H   0  0  0  0  0  0  0  0  0  0  0  0
    4.0412    1.6834   -0.8401 N   0  0  0  0  0  0  0  0  0  0  0  0
    3.8099    1.7161   -1.8397 H   0  0  0  0  0  0  0  0  0  0  0  0
    4.0990   -0.5804   -1.2738 N   0  0  0  0  0  0  0  0  0  0  0  0
    4.5594   -2.2289    0.4079 N   0  0  0  0  0  4  0  0  0  0  0  0
   -0.9067    1.8558    0.8451 C   0  0  0  0  0  0  0  0  0  0  0  0
   -0.6021    2.6719   -0.2593 C   0  0  0  0  0  0  0  0  0  0  0  0
   -1.3968    2.9593   -0.9633 H   0  0  0  0  0  0  0  0  0  0  0  0
    0.7236    3.0430   -0.4991 C   0  0  0  0  0  0  0  0  0  0  0  0
    0.9913    3.6727   -1.3595 H   0  0  0  0  0  0  0  0  0  0  0  0
    1.7287    2.6004    0.3766 C   0  0  0  0  0  0  0  0  0  0  0  0
    1.4316    1.8032    1.4942 C   0  0  0  0  0  0  0  0  0  0  0  0
    2.2303    1.4892    2.1793 H   0  0  0  0  0  0  0  0  0  0  0  0
    0.1054    1.4178    1.7175 C   0  0  0  0  0  0  0  0  0  0  0  0
   -0.1444    0.7479    2.5545 H   0  0  0  0  0  0  0  0  0  0  0  0
    4.2315    0.3931   -0.3416 C   0  0  0  0  0  0  0  0  0  0  0  0
    4.2915   -1.8334   -0.8464 C   0  0  0  0  0  0  0  0  0  0  0  0
    4.6807   -1.2523    1.3087 C   0  0  0  0  0  0  0  0  0  0  0  0
    4.5430    0.1204    0.9960 C   0  0  0  0  0  0  0  0  0  0  0  0
    4.7058    0.9068    1.7402 H   0  0  0  0  0  0  0  0  0  0  0  0
    5.0925   -2.9561    2.8991 C   0  0  0  0  0  0  0  0  0  0  0  0
    4.1586   -3.5120    2.6801 H   0  0  0  0  0  0  0  0  0  0  0  0
    5.3212   -2.9939    3.9792 H   0  0  0  0  0  0  0  0  0  0  0  0
    5.9112   -3.4166    2.3108 H   0  0  0  0  0  0  0  0  0  0  0  0
    3.9521   -2.5129   -3.0951 C   0  0  0  0  0  0  0  0  0  0  0  0
    2.9534   -2.0503   -3.2264 H   0  0  0  0  0  0  0  0  0  0  0  0
    3.9982   -3.4703   -3.6447 H   0  0  0  0  0  0  0  0  0  0  0  0
    4.7167   -1.8085   -3.4800 H   0  0  0  0  0  0  0  0  0  0  0  0
  1 18  1  0  0  0  0
  1  3  2  0  0  0  0
  2  1  2  0  0  0  0
  4 24  1  0  0  0  0
  5 28  1  0  0  0  0
  6  8  1  0  0  0  0
  7  6  1  0  0  0  0
  9 23  1  0  0  0  0
  9  1  1  0  0  0  0
 10  9  1  0  0  0  0
 11 24  2  0  0  0  0
 11 23  1  0  0  0  0
 12 25  2  0  0  0  0
 13  6  1  0  0  0  0
 13 21  1  0  0  0  0
 14 13  2  0  0  0  0
 15 14  1  0  0  0  0
 16 14  1  0  0  0  0
 16 18  2  0  0  0  0
 17 16  1  0  0  0  0
 18 19  1  0  0  0  0
 19 21  2  0  0  0  0
 19 20  1  0  0  0  0
 21 22  1  0  0  0  0
 23 26  2  0  0  0  0
 24 12  2  0  0  0  0
 25  5  1  0  0  0  0
 26 25  1  0  0  0  0
 26 27  1  0  0  0  0
 28 30  1  0  0  0  0
 29 28  1  0  0  0  0
 31 28  1  0  0  0  0
 32  4  1  0  0  0  0
 33 32  1  0  0  0  0
 34 32  1  0  0  0  0
 35 32  1  0  0  0  0
M  END
