5
 OpenBabel05122313063D

 31 32  0  0  0  0  0  0  0  0999 V2000
    3.4080    2.8925   -0.2492 S   0  0  0  0  0  0  0  0  0  0  0  0
    4.1517    2.7490   -1.5109 O   0  0  0  0  0  0  0  0  0  0  0  0
    3.4534    4.1172    0.5723 O   0  0  0  0  0  0  0  0  0  0  0  0
    6.0876   -3.0896   -0.6078 O   0  0  0  0  0  0  0  0  0  0  0  0
   -2.2908    1.2557   -1.0314 N   0  0  0  0  0  0  0  0  0  0  0  0
   -2.5157    0.9586   -1.9930 H   0  0  0  0  0  0  0  0  0  0  0  0
   -2.9898    1.9508   -0.7346 H   0  0  0  0  0  0  0  0  0  0  0  0
    3.9073    1.6700    0.8700 N   0  0  0  0  0  0  0  0  0  0  0  0
    4.3402    2.1011    1.6952 H   0  0  0  0  0  0  0  0  0  0  0  0
    5.4401   -0.0161    1.2977 N   0  0  0  0  0  0  0  0  0  0  0  0
    3.9944   -0.1528   -0.6122 N   0  0  0  0  0  0  0  0  0  0  0  0
   -0.9529    1.7455   -0.9182 C   0  0  0  0  0  0  0  0  0  0  0  0
    0.0233    1.3072   -1.8315 C   0  0  0  0  0  0  0  0  0  0  0  0
   -0.2646    0.6464   -2.6637 H   0  0  0  0  0  0  0  0  0  0  0  0
    1.3611    1.6718   -1.6452 C   0  0  0  0  0  0  0  0  0  0  0  0
    2.1531    1.3298   -2.3247 H   0  0  0  0  0  0  0  0  0  0  0  0
    1.6944    2.4699   -0.5425 C   0  0  0  0  0  0  0  0  0  0  0  0
    0.7251    2.9356    0.3597 C   0  0  0  0  0  0  0  0  0  0  0  0
    1.0255    3.5700    1.2052 H   0  0  0  0  0  0  0  0  0  0  0  0
   -0.6087    2.5669    0.1707 C   0  0  0  0  0  0  0  0  0  0  0  0
   -1.3778    2.8591    0.9003 H   0  0  0  0  0  0  0  0  0  0  0  0
    4.4786    0.4530    0.4905 C   0  0  0  0  0  0  0  0  0  0  0  0
    5.9828   -1.1995    0.9777 C   0  0  0  0  0  0  0  0  0  0  0  0
    6.7583   -1.5851    1.6605 H   0  0  0  0  0  0  0  0  0  0  0  0
    5.5902   -1.9070   -0.1783 C   0  0  0  0  0  0  0  0  0  0  0  0
    4.5649   -1.3105   -0.9466 C   0  0  0  0  0  0  0  0  0  0  0  0
    4.2027   -1.8299   -1.8515 H   0  0  0  0  0  0  0  0  0  0  0  0
    7.1026   -3.7039    0.1713 C   0  0  0  0  0  0  0  0  0  0  0  0
    8.0100   -3.0636    0.2430 H   0  0  0  0  0  0  0  0  0  0  0  0
    7.3652   -4.6455   -0.3440 H   0  0  0  0  0  0  0  0  0  0  0  0
    6.7462   -3.9396    1.1989 H   0  0  0  0  0  0  0  0  0  0  0  0
  1  3  2  0  0  0  0
  1  8  1  0  0  0  0
  2  1  2  0  0  0  0
  4 25  1  0  0  0  0
  4 28  1  0  0  0  0
  5 12  1  0  0  0  0
  5  7  1  0  0  0  0
  6  5  1  0  0  0  0
  8  9  1  0  0  0  0
 11 22  1  0  0  0  0
 12 20  1  0  0  0  0
 13 15  1  0  0  0  0
 13 12  2  0  0  0  0
 14 13  1  0  0  0  0
 15 17  2  0  0  0  0
 16 15  1  0  0  0  0
 17  1  1  0  0  0  0
 17 18  1  0  0  0  0
 18 19  1  0  0  0  0
 20 18  2  0  0  0  0
 20 21  1  0  0  0  0
 22  8  1  0  0  0  0
 22 10  2  0  0  0  0
 23 10  1  0  0  0  0
 23 24  1  0  0  0  0
 25 23  2  0  0  0  0
 26 11  2  0  0  0  0
 26 25  1  0  0  0  0
 27 26  1  0  0  0  0
 28 29  1  0  0  0  0
 28 31  1  0  0  0  0
 30 28  1  0  0  0  0
M  END
