3
 OpenBabel05122313063D

 24 25  0  0  1  0  0  0  0  0999 V2000
   -5.3311   -0.1728    0.0098 O   0  0  0  0  0  0  0  0  0  0  0  0
    0.8359    1.3833   -1.3163 N   0  0  0  0  0  0  0  0  0  0  0  0
   -1.5283    0.0141   -1.3154 N   0  0  0  0  0  2  0  0  0  0  0  0
   -2.5248    1.4873   -2.7134 N   0  0  0  0  0  0  0  0  0  0  0  0
   -3.3780    0.5125   -2.3313 N   0  0  0  0  0  0  0  0  0  0  0  0
   -3.9462   -1.1668    1.5609 N   0  0  0  0  0  0  0  0  0  0  0  0
   -0.1231    1.8648   -2.1364 C   0  0  0  0  0  0  0  0  0  0  0  0
    0.0852    2.9659   -2.9885 C   0  0  0  0  0  0  0  0  0  0  0  0
    1.3459    3.5738   -2.9875 C   0  0  0  0  0  0  0  0  0  0  0  0
    2.3479    3.0657   -2.1456 C   0  0  0  0  0  0  0  0  0  0  0  0
    2.0414    1.9676   -1.3265 C   0  0  0  0  0  0  0  0  0  0  0  0
   -1.4018    1.1467   -2.0763 C   0  0  0  0  0  0  0  0  0  0  0  0
   -2.7906   -0.3831   -1.4930 C   0  0  2  0  0  3  0  0  0  0  0  0
   -3.4856   -1.4965   -0.8069 C   0  0  0  0  0  0  0  0  0  0  0  0
   -4.3659   -0.8790    0.3097 C   0  0  0  0  0  0  0  0  0  0  0  0
   -0.7344    3.3155   -3.6317 H   0  0  0  0  0  0  0  0  0  0  0  0
    1.5477    4.4351   -3.6418 H   0  0  0  0  0  0  0  0  0  0  0  0
    3.3537    3.5090   -2.1183 H   0  0  0  0  0  0  0  0  0  0  0  0
    2.8022    1.5434   -0.6504 H   0  0  0  0  0  0  0  0  0  0  0  0
   -4.3727    0.5491   -2.5714 H   0  0  0  0  0  0  0  0  0  0  0  0
   -2.9973   -1.5641    1.7093 H   0  0  0  0  0  0  0  0  0  0  0  0
   -4.4541   -0.7453    2.3403 H   0  0  0  0  0  0  0  0  0  0  0  0
   -2.7244   -2.2027   -0.4323 H   0  0  0  0  0  0  0  0  0  0  0  0
   -4.1689   -2.0170   -1.5055 H   0  0  0  0  0  0  0  0  0  0  0  0
  1 15  2  0  0  0  0
  4  5  1  0  0  0  0
  4 12  2  0  0  0  0
  5 13  1  0  0  0  0
  6 21  1  0  0  0  0
  6 22  1  0  0  0  0
  7 12  1  0  0  0  0
  7  2  2  0  0  0  0
  8  9  2  0  0  0  0
  8  7  1  0  0  0  0
  9 10  1  0  0  0  0
 10 18  1  0  0  0  0
 10 11  2  0  0  0  0
 11  2  1  0  0  0  0
 11 19  1  0  0  0  0
 12  3  1  0  0  0  0
 13  3  1  0  0  0  0
 13 14  1  1  0  0  0
 14 23  1  0  0  0  0
 14 15  1  0  0  0  0
 15  6  1  0  0  0  0
 16  8  1  0  0  0  0
 17  9  1  0  0  0  0
 20  5  1  0  0  0  0
 24 14  1  0  0  0  0
M  END
