2
 OpenBabel05122313063D

 13 13  0  0  0  0  0  0  0  0999 V2000
    1.1836   -0.2647   -0.4317 N   0  0  0  0  0  0  0  0  0  0  0  0
    0.1004   -0.8877    0.0118 N   0  0  0  0  0  0  0  0  0  0  0  0
    1.7447   -2.0208    0.8497 N   0  0  0  0  0  0  0  0  0  0  0  0
    0.4324   -1.9407    0.7958 N   0  0  0  0  0  0  0  0  0  0  0  0
    3.6041   -0.6302   -0.0416 C   0  0  0  0  0  0  0  0  0  0  0  0
    4.0413    0.6658   -0.3280 C   0  0  0  0  0  0  0  0  0  0  0  0
    4.5671   -1.6676    0.1613 C   0  0  0  0  0  0  0  0  0  0  0  0
    2.2028   -0.9771    0.1010 C   0  0  0  0  0  0  0  0  0  0  0  0
    5.4249    0.9742   -0.5136 C   0  0  0  0  0  0  0  0  0  0  0  0
    3.1315    1.7699   -0.3697 C   0  0  0  0  0  0  0  0  0  0  0  0
    6.5540    1.2568   -0.6726 N   0  0  0  0  0  0  0  0  0  0  0  0
    2.4080    2.6961   -0.3461 N   0  0  0  0  0  0  0  0  0  0  0  0
    5.3595   -2.5181    0.3249 N   0  0  0  0  0  0  0  0  0  0  0  0
  1  2  2  0  0  0  0
  1  8  1  0  0  0  0
  2  4  1  0  0  0  0
  4  3  2  0  0  0  0
  5  8  1  0  0  0  0
  5  7  1  0  0  0  0
  6  5  2  0  0  0  0
  7 13  3  0  0  0  0
  8  3  1  0  0  0  0
  9  6  1  0  0  0  0
 10 12  3  0  0  0  0
 10  6  1  0  0  0  0
 11  9  3  0  0  0  0
M  END
