13
 OpenBabel05122313063D

 64 67  0  0  0  0  0  0  0  0999 V2000
   -1.7058    0.2803    0.5534 P   0  0  0  0  0  0  0  0  0  0  0  0
   -3.0403   -0.8425    1.1114 C   0  0  0  0  0  0  0  0  0  0  0  0
    3.6755   -3.0140    1.7271 C   0  0  0  0  0  0  0  0  0  0  0  0
    3.7854   -3.2526    0.6497 H   0  0  0  0  0  0  0  0  0  0  0  0
    3.1425   -3.8576    2.2108 H   0  0  0  0  0  0  0  0  0  0  0  0
    4.6937   -2.9799    2.1675 H   0  0  0  0  0  0  0  0  0  0  0  0
   -1.2569    1.8751    3.0664 C   0  0  0  0  0  0  0  0  0  0  0  0
   -2.0666    1.4681    3.7094 H   0  0  0  0  0  0  0  0  0  0  0  0
   -1.6280    2.8550    2.6793 H   0  0  0  0  0  0  0  0  0  0  0  0
    4.8524   -0.3859    0.9417 C   0  0  0  0  0  0  0  0  0  0  0  0
    5.5407   -1.1473    1.3384 H   0  0  0  0  0  0  0  0  0  0  0  0
   -0.8399    0.9538    1.9441 C   0  0  0  0  0  0  0  0  0  0  0  0
    1.1874    0.3094    0.7477 N   0  0  0  0  0  2  0  0  0  0  0  0
   -2.5688    1.6970   -0.2443 C   0  0  0  0  0  0  0  0  0  0  0  0
   -2.9107   -1.4882    2.3573 C   0  0  0  0  0  0  0  0  0  0  0  0
   -2.0452   -1.2441    2.9943 H   0  0  0  0  0  0  0  0  0  0  0  0
    2.1941    2.7037   -0.5886 C   0  0  0  0  0  0  0  0  0  0  0  0
    1.1961    2.5326   -0.1384 H   0  0  0  0  0  0  0  0  0  0  0  0
   -1.9155    2.3734   -1.2975 C   0  0  0  0  0  0  0  0  0  0  0  0
   -0.9622    1.9699   -1.6767 H   0  0  0  0  0  0  0  0  0  0  0  0
   -5.0905   -2.0926    0.6914 C   0  0  0  0  0  0  0  0  0  0  0  0
   -5.9441   -2.3283    0.0375 H   0  0  0  0  0  0  0  0  0  0  0  0
    4.5067    1.6924   -0.2579 C   0  0  0  0  0  0  0  0  0  0  0  0
    4.9234    2.5570   -0.7979 H   0  0  0  0  0  0  0  0  0  0  0  0
    2.5953    0.4690    0.6227 C   0  0  0  0  0  0  0  0  0  0  0  0
   -3.7859    2.2045    0.2558 C   0  0  0  0  0  0  0  0  0  0  0  0
   -4.3010    1.6844    1.0781 H   0  0  0  0  0  0  0  0  0  0  0  0
    1.1811    1.8792    2.7790 C   0  0  0  0  0  0  0  0  0  0  0  0
    1.4097    2.8461    2.2759 H   0  0  0  0  0  0  0  0  0  0  0  0
    2.1455    1.5066    3.1770 H   0  0  0  0  0  0  0  0  0  0  0  0
    2.8385   -1.3786    3.4546 C   0  0  0  0  0  0  0  0  0  0  0  0
    3.8457   -1.1396    3.8558 H   0  0  0  0  0  0  0  0  0  0  0  0
    2.4415   -2.2454    4.0226 H   0  0  0  0  0  0  0  0  0  0  0  0
    2.1773   -0.5153    3.6568 H   0  0  0  0  0  0  0  0  0  0  0  0
    5.3713    0.7082    0.2370 C   0  0  0  0  0  0  0  0  0  0  0  0
    6.4571    0.7974    0.0793 H   0  0  0  0  0  0  0  0  0  0  0  0
    2.0027    2.6369   -2.1136 C   0  0  0  0  0  0  0  0  0  0  0  0
    2.9729    2.7080   -2.6484 H   0  0  0  0  0  0  0  0  0  0  0  0
    1.3606    3.4725   -2.4625 H   0  0  0  0  0  0  0  0  0  0  0  0
    1.5131    1.6884   -2.4080 H   0  0  0  0  0  0  0  0  0  0  0  0
   -4.1350   -1.1525    0.2770 C   0  0  0  0  0  0  0  0  0  0  0  0
   -4.2442   -0.6495   -0.6965 H   0  0  0  0  0  0  0  0  0  0  0  0
    3.4676   -0.5276    1.1504 C   0  0  0  0  0  0  0  0  0  0  0  0
    3.1147    1.6001   -0.0702 C   0  0  0  0  0  0  0  0  0  0  0  0
   -4.9599   -2.7304    1.9361 C   0  0  0  0  0  0  0  0  0  0  0  0
   -5.7121   -3.4660    2.2596 H   0  0  0  0  0  0  0  0  0  0  0  0
   -3.8689   -2.4267    2.7672 C   0  0  0  0  0  0  0  0  0  0  0  0
   -3.7642   -2.9243    3.7435 H   0  0  0  0  0  0  0  0  0  0  0  0
   -3.6898    4.0365   -1.3454 C   0  0  0  0  0  0  0  0  0  0  0  0
   -4.1307    4.9480   -1.7771 H   0  0  0  0  0  0  0  0  0  0  0  0
    2.6688    4.1007   -0.1560 C   0  0  0  0  0  0  0  0  0  0  0  0
    2.8290    4.1555    0.9398 H   0  0  0  0  0  0  0  0  0  0  0  0
    1.9171    4.8683   -0.4327 H   0  0  0  0  0  0  0  0  0  0  0  0
    3.6234    4.3839   -0.6460 H   0  0  0  0  0  0  0  0  0  0  0  0
    2.9082   -1.7025    1.9505 C   0  0  0  0  0  0  0  0  0  0  0  0
    1.8622   -1.8462    1.6032 H   0  0  0  0  0  0  0  0  0  0  0  0
    0.5390    0.9571    1.7580 C   0  0  0  0  0  0  0  0  0  0  0  0
    0.0751    2.0476    3.8413 C   0  0  0  0  0  0  0  0  0  0  0  0
    0.1668    1.2298    4.5871 H   0  0  0  0  0  0  0  0  0  0  0  0
    0.1421    3.0073    4.3914 H   0  0  0  0  0  0  0  0  0  0  0  0
   -4.3427    3.3687   -0.2967 C   0  0  0  0  0  0  0  0  0  0  0  0
   -5.2941    3.7582    0.0972 H   0  0  0  0  0  0  0  0  0  0  0  0
   -2.4740    3.5379   -1.8428 C   0  0  0  0  0  0  0  0  0  0  0  0
   -1.9585    4.0563   -2.6660 H   0  0  0  0  0  0  0  0  0  0  0  0
  1  2  1  0  0  0  0
  1 12  1  0  0  0  0
  2 15  1  0  0  0  0
  3 55  1  0  0  0  0
  3  6  1  0  0  0  0
  3  5  1  0  0  0  0
  4  3  1  0  0  0  0
  7  8  1  0  0  0  0
  7 58  1  0  0  0  0
  9  7  1  0  0  0  0
 10 43  1  0  0  0  0
 10 11  1  0  0  0  0
 12  7  1  0  0  0  0
 13 57  1  0  0  0  0
 14 26  1  0  0  0  0
 14  1  1  0  0  0  0
 15 47  2  0  0  0  0
 15 16  1  0  0  0  0
 17 51  1  0  0  0  0
 17 18  1  0  0  0  0
 17 44  1  0  0  0  0
 19 14  2  0  0  0  0
 20 19  1  0  0  0  0
 21 45  2  0  0  0  0
 22 21  1  0  0  0  0
 23 44  2  0  0  0  0
 23 35  1  0  0  0  0
 24 23  1  0  0  0  0
 25 13  1  0  0  0  0
 25 43  2  0  0  0  0
 26 27  1  0  0  0  0
 28 30  1  0  0  0  0
 28 58  1  0  0  0  0
 29 28  1  0  0  0  0
 31 34  1  0  0  0  0
 31 32  1  0  0  0  0
 31 33  1  0  0  0  0
 35 10  2  0  0  0  0
 36 35  1  0  0  0  0
 37 17  1  0  0  0  0
 38 37  1  0  0  0  0
 39 37  1  0  0  0  0
 40 37  1  0  0  0  0
 41 21  1  0  0  0  0
 41  2  2  0  0  0  0
 42 41  1  0  0  0  0
 43 55  1  0  0  0  0
 44 25  1  0  0  0  0
 45 46  1  0  0  0  0
 45 47  1  0  0  0  0
 47 48  1  0  0  0  0
 49 61  1  0  0  0  0
 50 49  1  0  0  0  0
 51 52  1  0  0  0  0
 53 51  1  0  0  0  0
 54 51  1  0  0  0  0
 55 31  1  0  0  0  0
 56 55  1  0  0  0  0
 57 12  2  0  0  0  0
 57 28  1  0  0  0  0
 58 60  1  0  0  0  0
 58 59  1  0  0  0  0
 61 62  1  0  0  0  0
 61 26  2  0  0  0  0
 63 49  2  0  0  0  0
 63 19  1  0  0  0  0
 64 63  1  0  0  0  0
M  END
