28
 OpenBabel05122313063D

 31 33  0  0  1  0  0  0  0  0999 V2000
    5.8319   -0.3730    0.3174 C   0  0  0  0  0  0  0  0  0  0  0  0
    5.9398    0.4126   -0.4602 H   0  0  0  0  0  0  0  0  0  0  0  0
    6.4319   -1.2448   -0.0013 H   0  0  0  0  0  0  0  0  0  0  0  0
    6.2748    0.0186    1.2567 H   0  0  0  0  0  0  0  0  0  0  0  0
    4.4036   -0.7673    0.4959 C   0  0  0  0  0  0  0  0  0  0  0  0
    3.6985   -1.9145    0.1353 C   0  0  0  0  0  0  0  0  0  0  0  0
    4.1000   -2.7920   -0.3813 H   0  0  0  0  0  0  0  0  0  0  0  0
    2.3468   -1.6500    0.4959 C   0  0  0  0  0  0  0  0  0  0  0  0
    1.1467   -2.4516    0.2431 C   0  0  1  0  0  3  0  0  0  0  0  0
    1.1698   -3.8598    0.2481 C   0  0  0  0  0  0  0  0  0  0  0  0
    2.1111   -4.3797    0.4725 H   0  0  0  0  0  0  0  0  0  0  0  0
   -0.0146   -4.5637    0.0052 C   0  0  0  0  0  0  0  0  0  0  0  0
   -0.0178   -5.6639    0.0067 H   0  0  0  0  0  0  0  0  0  0  0  0
   -1.1949   -3.8536   -0.2397 C   0  0  0  0  0  0  0  0  0  0  0  0
   -2.1391   -4.3686   -0.4628 H   0  0  0  0  0  0  0  0  0  0  0  0
   -1.1636   -2.4455   -0.2385 C   0  0  0  0  0  0  0  0  0  0  0  0
   -2.3587   -1.6376   -0.4944 C   0  0  0  0  0  0  0  0  0  0  0  0
   -3.7128   -1.8946   -0.1374 C   0  0  0  0  0  0  0  0  0  0  0  0
   -4.1205   -2.7695    0.3789 H   0  0  0  0  0  0  0  0  0  0  0  0
   -4.4109   -0.7442   -0.5013 C   0  0  0  0  0  0  0  0  0  0  0  0
   -5.8379   -0.3427   -0.3282 C   0  0  0  0  0  0  0  0  0  0  0  0
   -5.9447    0.4453    0.4470 H   0  0  0  0  0  0  0  0  0  0  0  0
   -6.4430   -1.2109   -0.0092 H   0  0  0  0  0  0  0  0  0  0  0  0
   -6.2760    0.0486   -1.2699 H   0  0  0  0  0  0  0  0  0  0  0  0
    3.4661    0.0651    1.0550 N   0  0  0  0  0  0  0  0  0  0  0  0
    3.6304    0.9912    1.4530 H   0  0  0  0  0  0  0  0  0  0  0  0
    2.2262   -0.4380    1.0766 N   0  0  0  0  0  0  0  0  0  0  0  0
   -0.0065   -1.7711    0.0015 N   0  0  0  0  0  2  0  0  0  0  0  0
   -2.2302   -0.4269   -1.0761 N   0  0  0  0  0  0  0  0  0  0  0  0
   -3.4675    0.0827   -1.0586 N   0  0  0  0  0  0  0  0  0  0  0  0
   -3.6257    1.0092   -1.4580 H   0  0  0  0  0  0  0  0  0  0  0  0
  1  5  1  0  0  0  0
  1  4  1  0  0  0  0
  2  1  1  0  0  0  0
  3  1  1  0  0  0  0
  5 25  1  0  0  0  0
  6  5  2  0  0  0  0
  6  8  1  0  0  0  0
  7  6  1  0  0  0  0
  8 27  2  0  0  0  0
  9 10  1  0  0  0  0
  9  8  1  1  0  0  0
 10 11  1  0  0  0  0
 12 13  1  0  0  0  0
 12 10  2  0  0  0  0
 14 16  2  0  0  0  0
 14 12  1  0  0  0  0
 15 14  1  0  0  0  0
 16 28  1  0  0  0  0
 17 16  1  0  0  0  0
 17 18  1  0  0  0  0
 18 19  1  0  0  0  0
 20 21  1  0  0  0  0
 20 18  2  0  0  0  0
 21 23  1  0  0  0  0
 21 22  1  0  0  0  0
 24 21  1  0  0  0  0
 25 27  1  0  0  0  0
 25 26  1  0  0  0  0
 28  9  1  0  0  0  0
 29 30  1  0  0  0  0
 29 17  2  0  0  0  0
 30 20  1  0  0  0  0
 31 30  1  0  0  0  0
M  END
