3
 OpenBabel05122313063D

 69 69  0  0  1  0  0  0  0  0999 V2000
    2.3739   -0.1804    0.1854 As  0  0  0  0  0  0  0  0  0  0  0  0
   -2.3829   -0.1561    0.0282 As  0  0  0  0  0  0  0  0  0  0  0  0
   -0.0135    1.6949    0.0840 N   0  0  0  0  0  2  0  0  0  0  0  0
    2.2189    1.5707    1.1202 C   0  0  0  0  0  0  0  0  0  0  0  0
    1.0739    2.3670    0.5640 C   0  0  2  0  0  3  0  0  0  0  0  0
    1.1094    3.7721    0.5797 C   0  0  0  0  0  0  0  0  0  0  0  0
    0.0012    4.4977    0.1305 C   0  0  0  0  0  0  0  0  0  0  0  0
   -1.1226    3.7992   -0.3192 C   0  0  0  0  0  0  0  0  0  0  0  0
   -1.1105    2.3926   -0.3392 C   0  0  0  0  0  0  0  0  0  0  0  0
   -2.3007    1.6311   -0.8412 C   0  0  0  0  0  0  0  0  0  0  0  0
    3.3734   -1.3105    1.5533 C   0  0  0  0  0  0  0  0  0  0  0  0
    3.8631   -2.5762    0.8333 C   0  0  0  0  0  0  0  0  0  0  0  0
    4.5397   -0.5485    2.1978 C   0  0  0  0  0  0  0  0  0  0  0  0
    2.3655   -1.7045    2.6419 C   0  0  0  0  0  0  0  0  0  0  0  0
    3.5836    0.2384   -1.4021 C   0  0  0  0  0  0  0  0  0  0  0  0
    3.4088   -0.9250   -2.3908 C   0  0  0  0  0  0  0  0  0  0  0  0
    5.0553    0.4363   -1.0295 C   0  0  0  0  0  0  0  0  0  0  0  0
    3.0230    1.5305   -2.0171 C   0  0  0  0  0  0  0  0  0  0  0  0
   -3.1671    0.2232    1.8713 C   0  0  0  0  0  0  0  0  0  0  0  0
   -3.0057   -1.0562    2.7062 C   0  0  0  0  0  0  0  0  0  0  0  0
   -4.6283    0.6809    1.8117 C   0  0  0  0  0  0  0  0  0  0  0  0
   -2.3072    1.3338    2.4937 C   0  0  0  0  0  0  0  0  0  0  0  0
   -3.7451   -1.1752   -1.0959 C   0  0  0  0  0  0  0  0  0  0  0  0
   -4.3490   -2.3108   -0.2577 C   0  0  0  0  0  0  0  0  0  0  0  0
   -4.8382   -0.2326   -1.6166 C   0  0  0  0  0  0  0  0  0  0  0  0
   -2.9679   -1.7844   -2.2711 C   0  0  0  0  0  0  0  0  0  0  0  0
    1.9776    1.2809    2.1657 H   0  0  0  0  0  0  0  0  0  0  0  0
    3.1541    2.1628    1.1379 H   0  0  0  0  0  0  0  0  0  0  0  0
    2.0051    4.2825    0.9604 H   0  0  0  0  0  0  0  0  0  0  0  0
    0.0115    5.5979    0.1377 H   0  0  0  0  0  0  0  0  0  0  0  0
   -2.0165    4.3315   -0.6733 H   0  0  0  0  0  0  0  0  0  0  0  0
   -2.0942    1.3403   -1.8974 H   0  0  0  0  0  0  0  0  0  0  0  0
   -3.2260    2.2362   -0.7874 H   0  0  0  0  0  0  0  0  0  0  0  0
    4.3097   -3.2746    1.5741 H   0  0  0  0  0  0  0  0  0  0  0  0
    3.0294   -3.1100    0.3336 H   0  0  0  0  0  0  0  0  0  0  0  0
    4.6403   -2.3576    0.0752 H   0  0  0  0  0  0  0  0  0  0  0  0
    5.3161   -0.2498    1.4714 H   0  0  0  0  0  0  0  0  0  0  0  0
    4.1971    0.3606    2.7321 H   0  0  0  0  0  0  0  0  0  0  0  0
    5.0271   -1.2027    2.9537 H   0  0  0  0  0  0  0  0  0  0  0  0
    2.8861   -2.3253    3.4034 H   0  0  0  0  0  0  0  0  0  0  0  0
    1.9403   -0.8229    3.1632 H   0  0  0  0  0  0  0  0  0  0  0  0
    1.5192   -2.2863    2.2331 H   0  0  0  0  0  0  0  0  0  0  0  0
    3.7650   -1.8887   -1.9761 H   0  0  0  0  0  0  0  0  0  0  0  0
    2.3445   -1.0291   -2.6854 H   0  0  0  0  0  0  0  0  0  0  0  0
    4.0021   -0.7163   -3.3080 H   0  0  0  0  0  0  0  0  0  0  0  0
    5.6162    0.7394   -1.9411 H   0  0  0  0  0  0  0  0  0  0  0  0
    5.1992    1.2395   -0.2779 H   0  0  0  0  0  0  0  0  0  0  0  0
    5.5310   -0.4893   -0.6504 H   0  0  0  0  0  0  0  0  0  0  0  0
    1.9444    1.4283   -2.2580 H   0  0  0  0  0  0  0  0  0  0  0  0
    3.1776    2.4111   -1.3611 H   0  0  0  0  0  0  0  0  0  0  0  0
    3.5616    1.7323   -2.9692 H   0  0  0  0  0  0  0  0  0  0  0  0
   -3.2937   -0.8509    3.7603 H   0  0  0  0  0  0  0  0  0  0  0  0
   -3.6406   -1.8857    2.3426 H   0  0  0  0  0  0  0  0  0  0  0  0
   -1.9511   -1.3996    2.6997 H   0  0  0  0  0  0  0  0  0  0  0  0
   -4.9739    0.9461    2.8351 H   0  0  0  0  0  0  0  0  0  0  0  0
   -4.7545    1.5843    1.1805 H   0  0  0  0  0  0  0  0  0  0  0  0
   -5.3088   -0.1049    1.4318 H   0  0  0  0  0  0  0  0  0  0  0  0
   -1.2318    1.0666    2.4799 H   0  0  0  0  0  0  0  0  0  0  0  0
   -2.4333    2.3057    1.9769 H   0  0  0  0  0  0  0  0  0  0  0  0
   -2.6144    1.4777    3.5524 H   0  0  0  0  0  0  0  0  0  0  0  0
   -3.5644   -2.9664    0.1714 H   0  0  0  0  0  0  0  0  0  0  0  0
   -4.9950   -1.9490    0.5653 H   0  0  0  0  0  0  0  0  0  0  0  0
   -4.9807   -2.9445   -0.9173 H   0  0  0  0  0  0  0  0  0  0  0  0
   -5.4018    0.2674   -0.8059 H   0  0  0  0  0  0  0  0  0  0  0  0
   -4.4247    0.5459   -2.2872 H   0  0  0  0  0  0  0  0  0  0  0  0
   -5.5684   -0.8211   -2.2146 H   0  0  0  0  0  0  0  0  0  0  0  0
   -3.6863   -2.3089   -2.9386 H   0  0  0  0  0  0  0  0  0  0  0  0
   -2.4125   -1.0295   -2.8605 H   0  0  0  0  0  0  0  0  0  0  0  0
   -2.2198   -2.5229   -1.9237 H   0  0  0  0  0  0  0  0  0  0  0  0
  1  4  1  0  0  0  0
  1 11  1  0  0  0  0
  2 19  1  0  0  0  0
  3  5  1  0  0  0  0
  4 28  1  0  0  0  0
  4 27  1  0  0  0  0
  5  6  1  0  0  0  0
  5  4  1  1  0  0  0
  6 29  1  0  0  0  0
  7 30  1  0  0  0  0
  7  6  2  0  0  0  0
  8  7  1  0  0  0  0
  9  8  2  0  0  0  0
  9  3  1  0  0  0  0
 10 33  1  0  0  0  0
 10  9  1  0  0  0  0
 10  2  1  0  0  0  0
 11 13  1  0  0  0  0
 11 14  1  0  0  0  0
 12 11  1  0  0  0  0
 12 34  1  0  0  0  0
 13 38  1  0  0  0  0
 13 39  1  0  0  0  0
 14 41  1  0  0  0  0
 14 40  1  0  0  0  0
 15 17  1  0  0  0  0
 15  1  1  0  0  0  0
 16 43  1  0  0  0  0
 16 15  1  0  0  0  0
 17 48  1  0  0  0  0
 17 47  1  0  0  0  0
 18 15  1  0  0  0  0
 18 50  1  0  0  0  0
 19 22  1  0  0  0  0
 19 20  1  0  0  0  0
 20 52  1  0  0  0  0
 21 19  1  0  0  0  0
 21 55  1  0  0  0  0
 22 60  1  0  0  0  0
 23 24  1  0  0  0  0
 23  2  1  0  0  0  0
 24 61  1  0  0  0  0
 24 62  1  0  0  0  0
 25 23  1  0  0  0  0
 25 64  1  0  0  0  0
 26 69  1  0  0  0  0
 26 23  1  0  0  0  0
 31  8  1  0  0  0  0
 32 10  1  0  0  0  0
 35 12  1  0  0  0  0
 36 12  1  0  0  0  0
 37 13  1  0  0  0  0
 42 14  1  0  0  0  0
 44 16  1  0  0  0  0
 45 16  1  0  0  0  0
 46 17  1  0  0  0  0
 49 18  1  0  0  0  0
 51 18  1  0  0  0  0
 53 20  1  0  0  0  0
 54 20  1  0  0  0  0
 56 21  1  0  0  0  0
 57 21  1  0  0  0  0
 58 22  1  0  0  0  0
 59 22  1  0  0  0  0
 63 24  1  0  0  0  0
 65 25  1  0  0  0  0
 66 25  1  0  0  0  0
 67 26  1  0  0  0  0
 68 26  1  0  0  0  0
M  END
