2
 OpenBabel05122313063D

 35 36  0  0  0  0  0  0  0  0999 V2000
    1.2050    0.1055   -0.1135 Si  0  0  0  0  0  3  0  0  0  0  0  0
    0.3705   -0.3678    1.4385 N   0  0  0  0  0  0  0  0  0  0  0  0
    0.7497   -1.5092    2.3084 C   0  0  0  0  0  0  0  0  0  0  0  0
   -0.4199   -1.9062    3.2077 C   0  0  0  0  0  0  0  0  0  0  0  0
    2.0128   -1.1770    3.1075 C   0  0  0  0  0  0  0  0  0  0  0  0
    1.8182    1.8856    0.0329 C   0  0  0  0  0  0  0  0  0  0  0  0
    2.0455    2.6322   -1.1473 C   0  0  0  0  0  0  0  0  0  0  0  0
    2.4221    3.9821   -1.0905 C   0  0  0  0  0  0  0  0  0  0  0  0
    2.5699    4.6197    0.1527 C   0  0  0  0  0  0  0  0  0  0  0  0
    2.3525    3.8958    1.3357 C   0  0  0  0  0  0  0  0  0  0  0  0
    1.9855    2.5416    1.2741 C   0  0  0  0  0  0  0  0  0  0  0  0
    2.6456   -1.0455   -0.4941 C   0  0  0  0  0  0  0  0  0  0  0  0
    3.9786   -0.5793   -0.4205 C   0  0  0  0  0  0  0  0  0  0  0  0
    5.0569   -1.4432   -0.6666 C   0  0  0  0  0  0  0  0  0  0  0  0
    4.8186   -2.7888   -0.9899 C   0  0  0  0  0  0  0  0  0  0  0  0
    3.5000   -3.2653   -1.0740 C   0  0  0  0  0  0  0  0  0  0  0  0
    2.4226   -2.3993   -0.8357 C   0  0  0  0  0  0  0  0  0  0  0  0
    0.1423    0.4478    2.0255 H   0  0  0  0  0  0  0  0  0  0  0  0
    0.9718   -2.3525    1.6225 H   0  0  0  0  0  0  0  0  0  0  0  0
   -0.6671   -1.0869    3.9171 H   0  0  0  0  0  0  0  0  0  0  0  0
   -0.1701   -2.8040    3.8070 H   0  0  0  0  0  0  0  0  0  0  0  0
   -1.3181   -2.1287    2.6005 H   0  0  0  0  0  0  0  0  0  0  0  0
    2.8524   -0.9185    2.4318 H   0  0  0  0  0  0  0  0  0  0  0  0
    2.3257   -2.0383    3.7311 H   0  0  0  0  0  0  0  0  0  0  0  0
    1.8345   -0.3175    3.7897 H   0  0  0  0  0  0  0  0  0  0  0  0
    1.9165    2.1504   -2.1311 H   0  0  0  0  0  0  0  0  0  0  0  0
    2.5952    4.5437   -2.0216 H   0  0  0  0  0  0  0  0  0  0  0  0
    2.8582    5.6810    0.1992 H   0  0  0  0  0  0  0  0  0  0  0  0
    2.4770    4.3870    2.3133 H   0  0  0  0  0  0  0  0  0  0  0  0
    1.8396    1.9859    2.2152 H   0  0  0  0  0  0  0  0  0  0  0  0
    4.1737    0.4750   -0.1663 H   0  0  0  0  0  0  0  0  0  0  0  0
    6.0890   -1.0647   -0.6058 H   0  0  0  0  0  0  0  0  0  0  0  0
    5.6637   -3.4673   -1.1837 H   0  0  0  0  0  0  0  0  0  0  0  0
    3.3088   -4.3172   -1.3362 H   0  0  0  0  0  0  0  0  0  0  0  0
    1.3908   -2.7749   -0.9199 H   0  0  0  0  0  0  0  0  0  0  0  0
  1  6  1  0  0  0  0
  1  2  1  0  0  0  0
  2 18  1  0  0  0  0
  2  3  1  0  0  0  0
  3  5  1  0  0  0  0
  3  4  1  0  0  0  0
  4 21  1  0  0  0  0
  4 20  1  0  0  0  0
  5 24  1  0  0  0  0
  5 25  1  0  0  0  0
  6 11  1  0  0  0  0
  7  8  1  0  0  0  0
  7  6  2  0  0  0  0
  8  9  2  0  0  0  0
  9 28  1  0  0  0  0
  9 10  1  0  0  0  0
 10 29  1  0  0  0  0
 11 10  2  0  0  0  0
 11 30  1  0  0  0  0
 12 13  1  0  0  0  0
 12  1  1  0  0  0  0
 13 31  1  0  0  0  0
 14 32  1  0  0  0  0
 14 13  2  0  0  0  0
 15 14  1  0  0  0  0
 16 15  2  0  0  0  0
 16 17  1  0  0  0  0
 17 12  2  0  0  0  0
 19  3  1  0  0  0  0
 22  4  1  0  0  0  0
 23  5  1  0  0  0  0
 26  7  1  0  0  0  0
 27  8  1  0  0  0  0
 33 15  1  0  0  0  0
 34 16  1  0  0  0  0
 35 17  1  0  0  0  0
M  END
