4
 OpenBabel05122313063D

 10  9  0  0  0  0  0  0  0  0999 V2000
   -0.3151    1.6340   -2.2372 O   0  0  0  0  0  0  0  0  0  0  0  0
   -0.2309    3.6319   -1.3622 O   0  0  0  0  0  0  0  0  0  0  0  0
    0.3129    1.7674    2.1660 O   0  0  0  0  0  0  0  0  0  0  0  0
   -0.0041    1.7759   -0.0503 N   0  0  0  0  0  2  0  0  0  0  0  0
   -0.1920    2.4043   -1.2681 N   0  0  0  0  0  0  0  0  0  0  0  0
    0.1993    2.4618    1.1482 C   0  0  0  0  0  0  0  0  0  0  0  0
    0.2972    3.9656    1.2283 C   0  0  0  0  0  0  0  0  0  0  0  0
    0.4940    4.2160    2.2862 H   0  0  0  0  0  0  0  0  0  0  0  0
   -0.6352    4.4438    0.8742 H   0  0  0  0  0  0  0  0  0  0  0  0
    1.1097    4.3447    0.5800 H   0  0  0  0  0  0  0  0  0  0  0  0
  1  5  2  0  0  0  0
  2  5  2  0  0  0  0
  4  6  1  0  0  0  0
  5  4  1  0  0  0  0
  6  7  1  0  0  0  0
  6  3  2  0  0  0  0
  7  8  1  0  0  0  0
  9  7  1  0  0  0  0
 10  7  1  0  0  0  0
M  END
