5
 OpenBabel05122313063D

 11 10  0  0  0  0  0  0  0  0999 V2000
    0.2361   -0.5171   -2.5677 O   0  0  0  0  0  0  0  0  0  0  0  0
    0.0745   -2.6952   -2.6433 O   0  0  0  0  0  0  0  0  0  0  0  0
   -0.2603   -3.9210   -0.3114 O   0  0  0  0  0  0  0  0  0  0  0  0
   -0.4560   -2.3920    1.3673 O   0  0  0  0  0  0  0  0  0  0  0  0
   -0.0547   -1.5830   -0.6554 N   0  0  0  0  0  2  0  0  0  0  0  0
    0.0917   -1.6371   -2.0332 N   0  0  0  0  0  0  0  0  0  0  0  0
   -0.2506   -2.7618    0.0540 C   0  0  0  0  0  0  0  0  0  0  0  0
   -0.6923   -3.4766    2.2606 C   0  0  0  0  0  0  0  0  0  0  0  0
   -0.9081   -3.0179    3.2429 H   0  0  0  0  0  0  0  0  0  0  0  0
    0.1939   -4.1410    2.3319 H   0  0  0  0  0  0  0  0  0  0  0  0
   -1.5537   -4.0916    1.9272 H   0  0  0  0  0  0  0  0  0  0  0  0
  1  6  2  0  0  0  0
  2  6  2  0  0  0  0
  3  7  2  0  0  0  0
  4  8  1  0  0  0  0
  5  7  1  0  0  0  0
  6  5  1  0  0  0  0
  7  4  1  0  0  0  0
  8 10  1  0  0  0  0
  8  9  1  0  0  0  0
 11  8  1  0  0  0  0
M  END
