4
 OpenBabel05122313063D

 37 38  0  0  1  0  0  0  0  0999 V2000
    0.1804   -3.4823   -0.7263 N   0  0  0  0  0  0  0  0  0  0  0  0
    1.2135   -2.6456   -0.8220 C   0  0  0  0  0  0  0  0  0  0  0  0
    2.1296   -2.8594   -1.3861 H   0  0  0  0  0  0  0  0  0  0  0  0
    1.0674   -1.4866   -0.1146 N   0  0  0  0  0  2  0  0  0  0  0  0
   -0.1333   -1.5960    0.4978 C   0  0  2  0  0  3  0  0  0  0  0  0
   -0.7405   -0.7512    1.3296 N   0  0  0  0  0  0  0  0  0  0  0  0
   -1.9438   -1.1003    1.7788 C   0  0  0  0  0  0  0  0  0  0  0  0
   -2.6694   -0.1382    2.7245 C   0  0  0  0  0  0  0  0  0  0  0  0
   -3.1407   -0.9004    3.9827 C   0  0  0  0  0  0  0  0  0  0  0  0
   -3.6449   -0.1995    4.6782 H   0  0  0  0  0  0  0  0  0  0  0  0
   -2.2836   -1.3549    4.5187 H   0  0  0  0  0  0  0  0  0  0  0  0
   -3.8639   -1.7057    3.7444 H   0  0  0  0  0  0  0  0  0  0  0  0
   -3.8934    0.4425    1.9769 C   0  0  0  0  0  0  0  0  0  0  0  0
   -4.4388    1.1486    2.6361 H   0  0  0  0  0  0  0  0  0  0  0  0
   -4.6059   -0.3487    1.6670 H   0  0  0  0  0  0  0  0  0  0  0  0
   -3.5782    0.9930    1.0678 H   0  0  0  0  0  0  0  0  0  0  0  0
   -1.7365    1.0072    3.1476 C   0  0  0  0  0  0  0  0  0  0  0  0
   -0.8294    0.6227    3.6520 H   0  0  0  0  0  0  0  0  0  0  0  0
   -2.2688    1.6843    3.8450 H   0  0  0  0  0  0  0  0  0  0  0  0
   -1.3970    1.6017    2.2801 H   0  0  0  0  0  0  0  0  0  0  0  0
   -2.5604   -2.3283    1.3759 C   0  0  0  0  0  0  0  0  0  0  0  0
   -3.5568   -2.5811    1.7518 H   0  0  0  0  0  0  0  0  0  0  0  0
   -1.9296   -3.2245    0.5235 C   0  0  0  0  0  0  0  0  0  0  0  0
   -2.5065   -4.5536    0.0506 C   0  0  0  0  0  0  0  0  0  0  0  0
   -3.9079   -4.7717    0.6468 C   0  0  0  0  0  0  0  0  0  0  0  0
   -4.3039   -5.7419    0.2891 H   0  0  0  0  0  0  0  0  0  0  0  0
   -4.6219   -3.9845    0.3307 H   0  0  0  0  0  0  0  0  0  0  0  0
   -3.8890   -4.8089    1.7545 H   0  0  0  0  0  0  0  0  0  0  0  0
   -2.6206   -4.5438   -1.4938 C   0  0  0  0  0  0  0  0  0  0  0  0
   -3.0558   -5.5057   -1.8307 H   0  0  0  0  0  0  0  0  0  0  0  0
   -1.6314   -4.4217   -1.9716 H   0  0  0  0  0  0  0  0  0  0  0  0
   -3.2861   -3.7263   -1.8366 H   0  0  0  0  0  0  0  0  0  0  0  0
   -1.5800   -5.7046    0.5146 C   0  0  0  0  0  0  0  0  0  0  0  0
   -2.0081   -6.6715    0.1827 H   0  0  0  0  0  0  0  0  0  0  0  0
   -1.4996   -5.7262    1.6200 H   0  0  0  0  0  0  0  0  0  0  0  0
   -0.5668   -5.6045    0.0846 H   0  0  0  0  0  0  0  0  0  0  0  0
   -0.6773   -2.8260    0.0984 N   0  0  0  0  0  0  0  0  0  0  0  0
  1 37  1  0  0  0  0
  2  1  2  0  0  0  0
  2  4  1  0  0  0  0
  3  2  1  0  0  0  0
  5  4  1  1  0  0  0
  5  6  1  0  0  0  0
  6  7  2  0  0  0  0
  7  8  1  0  0  0  0
  8 17  1  0  0  0  0
  8  9  1  0  0  0  0
  9 11  1  0  0  0  0
  9 10  1  0  0  0  0
 12  9  1  0  0  0  0
 13 14  1  0  0  0  0
 13  8  1  0  0  0  0
 15 13  1  0  0  0  0
 16 13  1  0  0  0  0
 17 18  1  0  0  0  0
 17 19  1  0  0  0  0
 20 17  1  0  0  0  0
 21 22  1  0  0  0  0
 21  7  1  0  0  0  0
 23 21  2  0  0  0  0
 24 33  1  0  0  0  0
 24 23  1  0  0  0  0
 24 25  1  0  0  0  0
 25 28  1  0  0  0  0
 26 25  1  0  0  0  0
 27 25  1  0  0  0  0
 29 24  1  0  0  0  0
 30 29  1  0  0  0  0
 31 29  1  0  0  0  0
 32 29  1  0  0  0  0
 33 35  1  0  0  0  0
 34 33  1  0  0  0  0
 36 33  1  0  0  0  0
 37  5  1  0  0  0  0
 37 23  1  0  0  0  0
M  END
