1
q = -1.0, confidence = 0.0

 28 30  0  0  0  0  0  0  0  0999 V2000
    1.8036    0.0957   -0.1630 N   0  0  0  0  0  0  0  0  0  0  0  0
    2.7105   -0.7940    0.1704 N   0  0  0  0  0  2  0  0  0  0  0  0
    2.3554    1.1213   -0.9579 C   0  0  0  0  0  0  0  0  0  0  0  0
    3.6807    0.7691   -1.1893 C   0  0  0  0  0  0  0  0  0  0  0  0
    4.4159    1.3325   -1.7721 H   0  0  0  0  0  0  0  0  0  0  0  0
    3.8814   -0.4313   -0.4359 C   0  0  0  0  0  0  0  0  0  0  0  0
    5.0805   -1.2370   -0.2765 C   0  0  0  0  0  0  0  0  0  0  0  0
    6.2807   -0.9189   -0.9626 C   0  0  0  0  0  0  0  0  0  0  0  0
    6.3044   -0.0605   -1.6496 H   0  0  0  0  0  0  0  0  0  0  0  0
    7.4333   -1.6857   -0.7693 C   0  0  0  0  0  0  0  0  0  0  0  0
    8.3594   -1.4261   -1.3041 H   0  0  0  0  0  0  0  0  0  0  0  0
    7.4104   -2.7891    0.1030 C   0  0  0  0  0  0  0  0  0  0  0  0
    8.3178   -3.3944    0.2492 H   0  0  0  0  0  0  0  0  0  0  0  0
    6.2230   -3.1211    0.7822 C   0  0  0  0  0  0  0  0  0  0  0  0
    6.2023   -3.9865    1.4617 H   0  0  0  0  0  0  0  0  0  0  0  0
    5.0683   -2.3588    0.5947 C   0  0  0  0  0  0  0  0  0  0  0  0
    4.1285   -2.6042    1.1095 H   0  0  0  0  0  0  0  0  0  0  0  0
    1.5482    2.2271   -1.4713 C   0  0  0  0  0  0  0  0  0  0  0  0
    0.4668    2.7530   -0.7253 C   0  0  0  0  0  0  0  0  0  0  0  0
    0.2815    2.3924    0.3007 H   0  0  0  0  0  0  0  0  0  0  0  0
   -0.3388    3.7684   -1.2527 C   0  0  0  0  0  0  0  0  0  0  0  0
   -1.1812    4.1527   -0.6594 H   0  0  0  0  0  0  0  0  0  0  0  0
   -0.0631    4.2985   -2.5249 C   0  0  0  0  0  0  0  0  0  0  0  0
   -0.6980    5.0968   -2.9383 H   0  0  0  0  0  0  0  0  0  0  0  0
    1.0252    3.8071   -3.2647 C   0  0  0  0  0  0  0  0  0  0  0  0
    1.2460    4.2178   -4.2616 H   0  0  0  0  0  0  0  0  0  0  0  0
    1.8196    2.7763   -2.7474 C   0  0  0  0  0  0  0  0  0  0  0  0
    2.6451    2.3624   -3.3458 H   0  0  0  0  0  0  0  0  0  0  0  0
  1  2  1  0  0  0  0
  3  1  2  0  0  0  0
  4  3  1  0  0  0  0
  4  6  2  0  0  0  0
  5  4  1  0  0  0  0
  6  7  1  0  0  0  0
  6  2  1  0  0  0  0
  7 16  1  0  0  0  0
  8 10  1  0  0  0  0
  8  7  2  0  0  0  0
  9  8  1  0  0  0  0
 10 12  2  0  0  0  0
 11 10  1  0  0  0  0
 12 13  1  0  0  0  0
 12 14  1  0  0  0  0
 14 15  1  0  0  0  0
 16 14  2  0  0  0  0
 16 17  1  0  0  0  0
 18  3  1  0  0  0  0
 18 19  1  0  0  0  0
 19 20  1  0  0  0  0
 21 19  2  0  0  0  0
 21 22  1  0  0  0  0
 23 21  1  0  0  0  0
 24 23  1  0  0  0  0
 25 27  1  0  0  0  0
 25 23  2  0  0  0  0
 26 25  1  0  0  0  0
 27 18  2  0  0  0  0
 28 27  1  0  0  0  0
M  END
