2
q = 0.0, confidence = 0.978

 18 19  0  0  1  0  0  0  0  0999 V2000
   -2.0386    2.2702    0.5565 N   0  0  0  0  0  0  0  0  0  0  0  0
   -1.2198   -0.6426    0.9863 N   0  0  0  0  0  2  0  0  0  0  0  0
   -3.7798    1.3360   -0.4904 N   0  0  0  0  0  0  0  0  0  0  0  0
   -2.4809   -0.1318    1.0600 C   0  0  2  0  0  3  0  0  0  0  0  0
   -2.7400    1.1469    0.3829 C   0  0  0  0  0  0  0  0  0  0  0  0
   -3.4861   -0.8165    1.7645 C   0  0  0  0  0  0  0  0  0  0  0  0
   -4.4967   -0.3868    1.7981 H   0  0  0  0  0  0  0  0  0  0  0  0
   -0.9023   -1.7800    1.6429 C   0  0  0  0  0  0  0  0  0  0  0  0
    0.1399   -2.1335    1.5099 H   0  0  0  0  0  0  0  0  0  0  0  0
   -1.8571   -2.4839    2.3846 C   0  0  0  0  0  0  0  0  0  0  0  0
   -1.5629   -3.4110    2.8963 H   0  0  0  0  0  0  0  0  0  0  0  0
   -3.7059    2.6364   -0.9330 C   0  0  0  0  0  0  0  0  0  0  0  0
   -4.3934    3.0324   -1.6869 H   0  0  0  0  0  0  0  0  0  0  0  0
   -2.6332    3.2039   -0.2555 C   0  0  0  0  0  0  0  0  0  0  0  0
   -2.2653    4.2352   -0.3142 H   0  0  0  0  0  0  0  0  0  0  0  0
   -3.1748   -2.0077    2.4296 C   0  0  0  0  0  0  0  0  0  0  0  0
   -3.9524   -2.5533    2.9846 H   0  0  0  0  0  0  0  0  0  0  0  0
   -4.2546    0.5512   -0.9809 H   0  0  0  0  0  0  0  0  0  0  0  0
  2  4  1  0  0  0  0
  2  8  1  0  0  0  0
  3  5  1  0  0  0  0
  4  5  1  1  0  0  0
  4  6  1  0  0  0  0
  5  1  2  0  0  0  0
  6  7  1  0  0  0  0
  6 16  2  0  0  0  0
  8 10  2  0  0  0  0
  9  8  1  0  0  0  0
 10 16  1  0  0  0  0
 10 11  1  0  0  0  0
 12  3  1  0  0  0  0
 12 14  2  0  0  0  0
 13 12  1  0  0  0  0
 14  1  1  0  0  0  0
 15 14  1  0  0  0  0
 16 17  1  0  0  0  0
 18  3  1  0  0  0  0
M  END
