8
q = 0.0, confidence = 0.956

 20 20  0  0  0  0  0  0  0  0999 V2000
    0.5896    2.9992    0.9417 S   0  0  0  0  0  0  0  0  0  0  0  0
    1.6120    2.0413   -1.5604 S   0  0  0  0  0  0  0  0  0  0  0  0
   -0.7743    0.8484   -0.4143 P   0  0  2  0  0  4  0  0  0  0  0  0
   -3.6240   -0.2607   -0.0983 Si  0  0  0  0  0  0  0  0  0  0  0  0
   -2.0728    0.1494   -0.8488 N   0  0  0  0  0  2  0  0  0  0  0  0
   -0.7602    2.1309    0.6199 N   0  0  0  0  0  0  0  0  0  0  0  0
    1.6851    3.0182   -0.2402 N   0  0  0  0  0  2  0  0  0  0  0  0
    0.6119    0.6826   -1.2946 N   0  0  0  0  0  2  0  0  0  0  0  0
   -3.5489   -2.1022    0.3024 C   0  0  0  0  0  0  0  0  0  0  0  0
   -4.9372    0.0975   -1.4003 C   0  0  0  0  0  0  0  0  0  0  0  0
   -3.9030    0.7543    1.4654 C   0  0  0  0  0  0  0  0  0  0  0  0
   -4.5294   -2.4636    0.6759 H   0  0  0  0  0  0  0  0  0  0  0  0
   -2.7908   -2.3029    1.0862 H   0  0  0  0  0  0  0  0  0  0  0  0
   -3.2782   -2.6898   -0.5976 H   0  0  0  0  0  0  0  0  0  0  0  0
   -5.9434   -0.1849   -1.0275 H   0  0  0  0  0  0  0  0  0  0  0  0
   -4.7372   -0.4757   -2.3278 H   0  0  0  0  0  0  0  0  0  0  0  0
   -4.9561    1.1754   -1.6593 H   0  0  0  0  0  0  0  0  0  0  0  0
   -4.8865    0.5200    1.9229 H   0  0  0  0  0  0  0  0  0  0  0  0
   -3.8693    1.8407    1.2471 H   0  0  0  0  0  0  0  0  0  0  0  0
   -3.1131    0.5364    2.2125 H   0  0  0  0  0  0  0  0  0  0  0  0
  2  8  1  0  0  0  0
  2  7  1  0  0  0  0
  3  5  1  6  0  0  0
  3  6  2  0  0  0  0
  4  9  1  0  0  0  0
  4 11  1  0  0  0  0
  5  4  1  0  0  0  0
  6  1  1  0  0  0  0
  7  1  1  0  0  0  0
  8  3  1  0  0  0  0
  9 12  1  0  0  0  0
  9 13  1  0  0  0  0
 10 15  1  0  0  0  0
 10  4  1  0  0  0  0
 11 18  1  0  0  0  0
 11 20  1  0  0  0  0
 14  9  1  0  0  0  0
 16 10  1  0  0  0  0
 17 10  1  0  0  0  0
 19 11  1  0  0  0  0
M  END
