2
q = 0.0, confidence = 1.0

 44 47  0  0  0  0  0  0  0  0999 V2000
   -1.8867    0.2211   -1.7068 S   0  0  0  0  0  0  0  0  0  0  0  0
    0.7368   -0.1244   -0.3845 N   0  0  0  0  0  2  0  0  0  0  0  0
    0.7994    0.2232   -1.8115 C   0  0  0  0  0  0  0  0  0  0  0  0
    0.7551   -0.7043   -2.4224 H   0  0  0  0  0  0  0  0  0  0  0  0
    1.7625    0.7230   -2.0410 H   0  0  0  0  0  0  0  0  0  0  0  0
   -3.2154    1.4303   -1.7458 C   0  0  0  0  0  0  0  0  0  0  0  0
    1.7927   -0.0365    0.3756 C   0  0  0  0  0  3  0  0  0  0  0  0
    1.5883   -0.1069    1.4594 H   0  0  0  0  0  0  0  0  0  0  0  0
   -3.3547    2.4571   -0.7948 C   0  0  0  0  0  0  0  0  0  0  0  0
   -2.6171    2.5618    0.0158 H   0  0  0  0  0  0  0  0  0  0  0  0
    3.8695    1.2750    0.6114 C   0  0  0  0  0  0  0  0  0  0  0  0
    3.2288    2.1574    1.5389 C   0  0  0  0  0  0  0  0  0  0  0  0
    2.1531    2.0489    1.7465 H   0  0  0  0  0  0  0  0  0  0  0  0
   -4.1589    1.2528   -2.7769 C   0  0  0  0  0  0  0  0  0  0  0  0
   -4.0349    0.4364   -3.5043 H   0  0  0  0  0  0  0  0  0  0  0  0
    3.8410   -0.6452   -0.9729 C   0  0  0  0  0  0  0  0  0  0  0  0
    3.9177   -2.5878   -2.4703 C   0  0  0  0  0  0  0  0  0  0  0  0
    3.4264   -3.4707   -2.9064 H   0  0  0  0  0  0  0  0  0  0  0  0
    5.2613   -2.2820   -2.8359 C   0  0  0  0  0  0  0  0  0  0  0  0
    5.7888   -2.9177   -3.5618 H   0  0  0  0  0  0  0  0  0  0  0  0
    3.1775    0.2035   -0.0342 C   0  0  0  0  0  0  0  0  0  0  0  0
    3.2312   -1.7987   -1.5641 C   0  0  0  0  0  0  0  0  0  0  0  0
    2.2094   -2.0769   -1.2710 H   0  0  0  0  0  0  0  0  0  0  0  0
    5.9584    2.5855    0.9304 C   0  0  0  0  0  0  0  0  0  0  0  0
    7.0150    2.7554    0.6732 H   0  0  0  0  0  0  0  0  0  0  0  0
    5.2273   -0.3690   -1.3060 C   0  0  0  0  0  0  0  0  0  0  0  0
    5.2626    1.5123    0.2862 C   0  0  0  0  0  0  0  0  0  0  0  0
    5.8940    0.6948   -0.6698 C   0  0  0  0  0  0  0  0  0  0  0  0
    6.9482    0.8889   -0.9239 H   0  0  0  0  0  0  0  0  0  0  0  0
    3.9401    3.1772    2.1488 C   0  0  0  0  0  0  0  0  0  0  0  0
    3.4313    3.8410    2.8639 H   0  0  0  0  0  0  0  0  0  0  0  0
   -4.4519    3.3243   -0.8986 C   0  0  0  0  0  0  0  0  0  0  0  0
   -4.5698    4.1338   -0.1627 H   0  0  0  0  0  0  0  0  0  0  0  0
   -5.2509    2.1292   -2.8638 C   0  0  0  0  0  0  0  0  0  0  0  0
   -5.9902    1.9998   -3.6681 H   0  0  0  0  0  0  0  0  0  0  0  0
   -5.3964    3.1642   -1.9269 C   0  0  0  0  0  0  0  0  0  0  0  0
   -6.2538    3.8501   -1.9967 H   0  0  0  0  0  0  0  0  0  0  0  0
    5.9006   -1.2046   -2.2558 C   0  0  0  0  0  0  0  0  0  0  0  0
    6.9479   -0.9741   -2.5034 H   0  0  0  0  0  0  0  0  0  0  0  0
    5.3168    3.3934    1.8489 C   0  0  0  0  0  0  0  0  0  0  0  0
    5.8596    4.2142    2.3403 H   0  0  0  0  0  0  0  0  0  0  0  0
   -0.3634    1.1479   -2.1586 C   0  0  0  0  0  0  0  0  0  0  0  0
   -0.3895    1.3837   -3.2395 H   0  0  0  0  0  0  0  0  0  0  0  0
   -0.3370    2.0749   -1.5530 H   0  0  0  0  0  0  0  0  0  0  0  0
  2  7  1  0  0  0  0
  3  2  1  0  0  0  0
  4  3  1  0  0  0  0
  5  3  1  0  0  0  0
  6  1  1  0  0  0  0
  6  9  1  0  0  0  0
  7  8  1  0  0  0  0
  9 10  1  0  0  0  0
 11 12  2  0  0  0  0
 12 13  1  0  0  0  0
 12 30  1  0  0  0  0
 14  6  2  0  0  0  0
 15 14  1  0  0  0  0
 16 21  2  0  0  0  0
 17 22  2  0  0  0  0
 18 17  1  0  0  0  0
 19 17  1  0  0  0  0
 19 38  2  0  0  0  0
 20 19  1  0  0  0  0
 21  7  1  0  0  0  0
 21 11  1  0  0  0  0
 22 23  1  0  0  0  0
 22 16  1  0  0  0  0
 24 40  1  0  0  0  0
 25 24  1  0  0  0  0
 26 16  1  0  0  0  0
 26 28  2  0  0  0  0
 27 11  1  0  0  0  0
 27 24  2  0  0  0  0
 28 27  1  0  0  0  0
 29 28  1  0  0  0  0
 30 31  1  0  0  0  0
 32  9  2  0  0  0  0
 32 33  1  0  0  0  0
 34 14  1  0  0  0  0
 34 36  2  0  0  0  0
 35 34  1  0  0  0  0
 36 32  1  0  0  0  0
 37 36  1  0  0  0  0
 38 26  1  0  0  0  0
 39 38  1  0  0  0  0
 40 30  2  0  0  0  0
 40 41  1  0  0  0  0
 42  3  1  0  0  0  0
 42  1  1  0  0  0  0
 42 44  1  0  0  0  0
 43 42  1  0  0  0  0
M  END
