2
q = -1.0, confidence = 0.0

 11 11  0  0  0  0  0  0  0  0999 V2000
   -6.1332    0.0001    0.1261 O   0  0  0  0  0  0  0  0  0  0  0  0
   -1.9667   -0.0001   -0.0279 N   0  0  0  0  0  0  0  0  0  0  0  0
   -2.7323   -0.0002   -1.1659 C   0  0  0  0  0  0  0  0  0  0  0  0
   -2.1627   -0.0003   -2.1126 H   0  0  0  0  0  0  0  0  0  0  0  0
   -4.1112   -0.0002   -1.1657 C   0  0  0  0  0  3  0  0  0  0  0  0
   -4.6667   -0.0003   -2.1159 H   0  0  0  0  0  0  0  0  0  0  0  0
   -4.8896   -0.0000    0.0803 C   0  0  0  0  0  0  0  0  0  0  0  0
   -4.0227    0.0002    1.2664 C   0  0  0  0  0  0  0  0  0  0  0  0
   -4.5062    0.0003    2.2551 H   0  0  0  0  0  0  0  0  0  0  0  0
   -2.6475    0.0001    1.1628 C   0  0  0  0  0  0  0  0  0  0  0  0
   -2.0128    0.0002    2.0681 H   0  0  0  0  0  0  0  0  0  0  0  0
  2 10  1  0  0  0  0
  3  5  1  0  0  0  0
  3  2  2  0  0  0  0
  4  3  1  0  0  0  0
  5  7  1  0  0  0  0
  6  5  1  0  0  0  0
  7  1  2  0  0  0  0
  7  8  1  0  0  0  0
  8  9  1  0  0  0  0
 10  8  2  0  0  0  0
 10 11  1  0  0  0  0
M  END
