1
q = 0.0, confidence = 0.998

 23 25  0  0  0  0  0  0  0  0999 V2000
   -1.3500   -1.2570    0.4017 N   0  0  0  0  0  2  0  0  0  0  0  0
   -1.2708   -2.5959    0.4746 C   0  0  0  0  0  0  0  0  0  0  0  0
   -2.3640   -3.4403    0.2133 C   0  0  0  0  0  0  0  0  0  0  0  0
   -3.5654   -2.8614   -0.1732 C   0  0  0  0  0  0  0  0  0  0  0  0
   -4.9154   -0.8189   -0.6068 C   0  0  0  0  0  3  0  0  0  0  0  0
   -5.0289    0.5467   -0.6166 C   0  0  0  0  0  0  0  0  0  0  0  0
   -4.1211    2.7917   -0.0784 C   0  0  0  0  0  0  0  0  0  0  0  0
   -3.1215    3.6013    0.4483 C   0  0  0  0  0  0  0  0  0  0  0  0
   -1.9303    3.0154    0.9336 C   0  0  0  0  0  0  0  0  0  0  0  0
   -1.7324    1.6409    0.8462 C   0  0  0  0  0  0  0  0  0  0  0  0
   -3.6888   -1.4511   -0.2081 C   0  0  0  0  0  0  0  0  0  0  0  0
   -3.9548    1.3829   -0.1565 C   0  0  0  0  0  0  0  0  0  0  0  0
   -2.7147    0.7943    0.2702 C   0  0  0  0  0  0  0  0  0  0  0  0
   -2.5538   -0.6482    0.1548 C   0  0  0  0  0  0  0  0  0  0  0  0
   -0.8008    1.1951    1.2328 H   0  0  0  0  0  0  0  0  0  0  0  0
   -0.2801   -2.9962    0.7365 H   0  0  0  0  0  0  0  0  0  0  0  0
   -2.2386   -4.5296    0.2826 H   0  0  0  0  0  0  0  0  0  0  0  0
   -4.4337   -3.4810   -0.4464 H   0  0  0  0  0  0  0  0  0  0  0  0
   -5.7558   -1.4599   -0.9137 H   0  0  0  0  0  0  0  0  0  0  0  0
   -5.9632    1.0282   -0.9440 H   0  0  0  0  0  0  0  0  0  0  0  0
   -5.0689    3.2292   -0.4284 H   0  0  0  0  0  0  0  0  0  0  0  0
   -3.2662    4.6907    0.5084 H   0  0  0  0  0  0  0  0  0  0  0  0
   -1.1543    3.6466    1.3922 H   0  0  0  0  0  0  0  0  0  0  0  0
  1  2  1  0  0  0  0
  2 16  1  0  0  0  0
  3 17  1  0  0  0  0
  3  2  2  0  0  0  0
  4  3  1  0  0  0  0
  5 11  1  0  0  0  0
  6  5  1  0  0  0  0
  6 12  2  0  0  0  0
  7  8  2  0  0  0  0
  8 22  1  0  0  0  0
  8  9  1  0  0  0  0
  9 23  1  0  0  0  0
 10  9  2  0  0  0  0
 10 15  1  0  0  0  0
 11  4  2  0  0  0  0
 11 14  1  0  0  0  0
 12  7  1  0  0  0  0
 12 13  1  0  0  0  0
 13 10  1  0  0  0  0
 14 13  2  0  0  0  0
 14  1  1  0  0  0  0
 18  4  1  0  0  0  0
 19  5  1  0  0  0  0
 20  6  1  0  0  0  0
 21  7  1  0  0  0  0
M  END
