6
q = 0.0, confidence = 0.972

 26 28  0  0  1  0  0  0  0  0999 V2000
   -0.3448   -0.9367   -2.6265 N   0  0  0  0  0  0  0  0  0  0  0  0
    0.6574   -0.7149   -2.7997 H   0  0  0  0  0  0  0  0  0  0  0  0
   -0.9786   -0.1225   -1.7730 N   0  0  0  0  0  0  0  0  0  0  0  0
   -1.9854   -1.2534    1.2764 N   0  0  0  0  0  0  0  0  0  0  0  0
   -3.1482   -0.8833    0.6926 N   0  0  0  0  0  0  0  0  0  0  0  0
   -1.8301    1.7415    0.3690 N   0  0  0  0  0  2  0  0  0  0  0  0
   -2.9232    1.2997   -0.2933 N   0  0  0  0  0  0  0  0  0  0  0  0
   -1.0792   -2.0337   -2.9577 C   0  0  0  0  0  0  0  0  0  0  0  0
   -0.6999   -2.8012   -3.6412 H   0  0  0  0  0  0  0  0  0  0  0  0
   -2.2930   -1.9179   -2.2795 C   0  0  0  0  0  0  0  0  0  0  0  0
   -3.1396   -2.6116   -2.3089 H   0  0  0  0  0  0  0  0  0  0  0  0
   -3.1411   -0.1249   -0.5549 C   0  0  1  0  0  0  0  0  0  0  0  0
   -4.1681   -0.1964   -0.9618 H   0  0  0  0  0  0  0  0  0  0  0  0
   -2.1678   -0.7052   -1.5516 C   0  0  0  0  0  0  0  0  0  0  0  0
   -2.3442   -1.8209    2.4371 C   0  0  0  0  0  0  0  0  0  0  0  0
   -1.5718   -2.2200    3.1063 H   0  0  0  0  0  0  0  0  0  0  0  0
   -3.7531   -1.8145    2.6065 C   0  0  0  0  0  0  0  0  0  0  0  0
   -4.3366   -2.2182    3.4401 H   0  0  0  0  0  0  0  0  0  0  0  0
   -4.2390   -1.1933    1.4625 C   0  0  0  0  0  0  0  0  0  0  0  0
   -5.2585   -0.9584    1.1359 H   0  0  0  0  0  0  0  0  0  0  0  0
   -1.9600    3.0767    0.4339 C   0  0  0  0  0  3  0  0  0  0  0  0
   -1.1901    3.6730    0.9375 H   0  0  0  0  0  0  0  0  0  0  0  0
   -3.1518    3.5023   -0.1973 C   0  0  0  0  0  0  0  0  0  0  0  0
   -3.5350    4.5223   -0.2994 H   0  0  0  0  0  0  0  0  0  0  0  0
   -3.7471    2.3296   -0.6502 C   0  0  0  0  0  0  0  0  0  0  0  0
   -4.6842    2.1499   -1.1890 H   0  0  0  0  0  0  0  0  0  0  0  0
  1  3  1  0  0  0  0
  2  1  1  0  0  0  0
  3 14  2  0  0  0  0
  4 15  2  0  0  0  0
  5  4  1  0  0  0  0
  5 19  1  0  0  0  0
  6 21  1  0  0  0  0
  7  6  1  0  0  0  0
  8  1  1  0  0  0  0
  8 10  2  0  0  0  0
  9  8  1  0  0  0  0
 10 14  1  0  0  0  0
 11 10  1  0  0  0  0
 12 13  1  6  0  0  0
 12  7  1  0  0  0  0
 12  5  1  0  0  0  0
 14 12  1  0  0  0  0
 15 17  1  0  0  0  0
 15 16  1  0  0  0  0
 17 18  1  0  0  0  0
 19 17  2  0  0  0  0
 20 19  1  0  0  0  0
 21 22  1  0  0  0  0
 23 21  1  0  0  0  0
 24 23  1  0  0  0  0
 25  7  1  0  0  0  0
 25 23  2  0  0  0  0
 26 25  1  0  0  0  0
M  END
