2
q = 0.0, confidence = 0.992

 18 17  0  0  0  0  0  0  0  0999 V2000
   -2.9398   -0.4173   -1.7487 N   0  0  0  0  0  0  0  0  0  0  0  0
   -1.5385   -0.0259    1.7662 N   0  0  0  0  0  0  0  0  0  0  0  0
   -2.0816    0.5279   -2.4738 C   0  0  0  0  0  0  0  0  0  0  0  0
   -3.9675    0.2379   -0.9276 C   0  0  0  0  0  0  0  0  0  0  0  0
   -3.4317    0.8453    0.3767 C   0  0  0  0  0  0  0  0  0  0  0  0
   -2.9691   -0.1857    1.4252 C   0  0  0  0  0  0  0  0  0  0  0  0
   -1.4493    1.0950   -1.7609 H   0  0  0  0  0  0  0  0  0  0  0  0
   -1.3795   -0.0271   -3.1251 H   0  0  0  0  0  0  0  0  0  0  0  0
   -2.6588    1.2536   -3.0952 H   0  0  0  0  0  0  0  0  0  0  0  0
   -3.4138   -1.0226   -2.4297 H   0  0  0  0  0  0  0  0  0  0  0  0
   -4.7443   -0.5192   -0.6842 H   0  0  0  0  0  0  0  0  0  0  0  0
   -4.4844    1.0475   -1.5009 H   0  0  0  0  0  0  0  0  0  0  0  0
   -4.2333    1.4809    0.8046 H   0  0  0  0  0  0  0  0  0  0  0  0
   -2.5883    1.5324    0.1524 H   0  0  0  0  0  0  0  0  0  0  0  0
   -3.1139   -1.2157    1.0367 H   0  0  0  0  0  0  0  0  0  0  0  0
   -3.5888   -0.1158    2.3459 H   0  0  0  0  0  0  0  0  0  0  0  0
   -1.2177   -0.7469    2.4339 H   0  0  0  0  0  0  0  0  0  0  0  0
   -1.3630    0.8966    2.1969 H   0  0  0  0  0  0  0  0  0  0  0  0
  1  4  1  0  0  0  0
  2 18  1  0  0  0  0
  2 17  1  0  0  0  0
  3  7  1  0  0  0  0
  3  1  1  0  0  0  0
  4 11  1  0  0  0  0
  4  5  1  0  0  0  0
  5 13  1  0  0  0  0
  5  6  1  0  0  0  0
  6  2  1  0  0  0  0
  6 16  1  0  0  0  0
  8  3  1  0  0  0  0
  9  3  1  0  0  0  0
 10  1  1  0  0  0  0
 12  4  1  0  0  0  0
 14  5  1  0  0  0  0
 15  6  1  0  0  0  0
M  END
