1
q = 0.0, confidence = 0.962

 16 15  0  0  0  0  0  0  0  0999 V2000
   -0.8346   -1.8027   -0.2523 N   0  0  0  0  0  0  0  0  0  0  0  0
    1.2107   -1.8513    2.0204 N   0  0  0  0  0  0  0  0  0  0  0  0
    0.0869   -2.7993   -0.8386 C   0  0  0  0  0  0  0  0  0  0  0  0
    0.8800   -3.5588    0.2250 C   0  0  0  0  0  0  0  0  0  0  0  0
    1.8668   -2.7433    1.0696 C   0  0  0  0  0  0  0  0  0  0  0  0
    1.6979   -0.6688    2.1314 C   0  0  0  0  0  0  0  0  0  0  0  0
   -1.6156   -1.5193   -0.9041 H   0  0  0  0  0  0  0  0  0  0  0  0
   -1.2914   -2.2409    0.5605 H   0  0  0  0  0  0  0  0  0  0  0  0
    0.7641   -2.2634   -1.5316 H   0  0  0  0  0  0  0  0  0  0  0  0
   -0.4976   -3.5325   -1.4388 H   0  0  0  0  0  0  0  0  0  0  0  0
    1.4523   -4.3557   -0.2937 H   0  0  0  0  0  0  0  0  0  0  0  0
    0.1735   -4.0825    0.9096 H   0  0  0  0  0  0  0  0  0  0  0  0
    2.5919   -2.2062    0.4110 H   0  0  0  0  0  0  0  0  0  0  0  0
    2.4570   -3.4699    1.6722 H   0  0  0  0  0  0  0  0  0  0  0  0
    2.5808   -0.3050    1.5560 H   0  0  0  0  0  0  0  0  0  0  0  0
    1.2641    0.0372    2.8658 H   0  0  0  0  0  0  0  0  0  0  0  0
  1  8  1  0  0  0  0
  2  6  2  0  0  0  0
  3  1  1  0  0  0  0
  3  4  1  0  0  0  0
  4 12  1  0  0  0  0
  4  5  1  0  0  0  0
  5 14  1  0  0  0  0
  5  2  1  0  0  0  0
  6 16  1  0  0  0  0
  7  1  1  0  0  0  0
  9  3  1  0  0  0  0
 10  3  1  0  0  0  0
 11  4  1  0  0  0  0
 13  5  1  0  0  0  0
 15  6  1  0  0  0  0
M  END
