1
q = -1.0, confidence = 0.0

 32 39  0  0  1  0  0  0  0  0999 V2000
   -0.2732   -2.0456   -0.8493 N   0  0  0  0  0  2  0  0  0  0  0  0
   -2.0077   -0.2502    0.4122 C   0  0  1  0  0  0  0  0  0  0  0  0
   -2.6073   -1.6601   -0.2418 C   0  0  2  0  0  0  0  0  0  0  0  0
   -1.5577   -2.4995   -0.8990 C   0  0  2  0  0  3  0  0  0  0  0  0
   -1.8877   -3.7159   -1.5161 C   0  0  0  0  0  0  0  0  0  0  0  0
   -2.9381   -4.0338   -1.5342 H   0  0  0  0  0  0  0  0  0  0  0  0
   -0.8757   -4.4953   -2.0864 C   0  0  0  0  0  0  0  0  0  0  0  0
   -1.1177   -5.4515   -2.5732 H   0  0  0  0  0  0  0  0  0  0  0  0
    0.4467   -4.0347   -2.0186 C   0  0  0  0  0  0  0  0  0  0  0  0
    1.2809   -4.6101   -2.4439 H   0  0  0  0  0  0  0  0  0  0  0  0
    0.7020   -2.8104   -1.3954 C   0  0  0  0  0  0  0  0  0  0  0  0
    1.7204   -2.4017   -1.3268 H   0  0  0  0  0  0  0  0  0  0  0  0
   -3.2468    0.9375    0.3236 B   0  0  2  0  0  0  0  0  0  0  0  0
   -2.9175    2.0868    0.1667 H   0  0  0  0  0  0  0  0  0  0  0  0
   -2.9053    0.0911    1.8327 B   0  0  1  0  0  0  0  0  0  0  0  0
   -2.3496    0.6685    2.7362 H   0  0  0  0  0  0  0  0  0  0  0  0
   -4.5984    0.3424    1.3354 B   0  0  2  0  0  0  0  0  0  0  0  0
   -5.3160    1.1116    1.9320 H   0  0  0  0  0  0  0  0  0  0  0  0
   -4.6699    0.1577   -0.4383 B   0  0  1  0  0  0  0  0  0  0  0  0
   -5.4210    0.7792   -1.1535 H   0  0  0  0  0  0  0  0  0  0  0  0
   -3.0334   -0.1984   -1.0000 B   0  0  2  0  0  0  0  0  0  0  0  0
   -2.5780    0.0375   -2.0825 H   0  0  0  0  0  0  0  0  0  0  0  0
   -2.4689   -1.5720    1.4453 B   0  0  2  0  0  0  0  0  0  0  0  0
   -1.6142   -2.2480    1.9514 H   0  0  0  0  0  0  0  0  0  0  0  0
   -4.1004   -1.2245    2.0372 B   0  0  0  0  0  0  0  0  0  0  0  0
   -4.4309   -1.6133    3.1338 H   0  0  0  0  0  0  0  0  0  0  0  0
   -5.1949   -1.1844    0.6219 B   0  0  1  0  0  0  0  0  0  0  0  0
   -6.3469   -1.5479    0.6833 H   0  0  0  0  0  0  0  0  0  0  0  0
   -4.2151   -1.5181   -0.8254 B   0  0  2  0  0  0  0  0  0  0  0  0
   -4.5081   -2.1385   -1.8196 H   0  0  0  0  0  0  0  0  0  0  0  0
   -3.8704   -2.3654    0.6919 B   0  0  1  0  0  0  0  0  0  0  0  0
   -3.9184   -3.5711    0.7453 H   0  0  0  0  0  0  0  0  0  0  0  0
  2 23  1  0  0  0  0
  2 15  1  0  0  0  0
  3  2  1  0  0  0  0
  3 23  1  0  0  0  0
  4  1  1  0  0  0  0
  4  3  1  0  0  0  0
  5  4  1  0  0  0  0
  6  5  1  0  0  0  0
  7  9  1  0  0  0  0
  7  5  2  0  0  0  0
  8  7  1  0  0  0  0
  9 11  2  0  0  0  0
 10  9  1  0  0  0  0
 11 12  1  0  0  0  0
 11  1  1  0  0  0  0
 13  2  1  0  0  0  0
 13 15  1  0  0  0  0
 14 13  1  0  0  0  0
 15 16  1  0  0  0  0
 17 18  1  0  0  0  0
 17 25  1  0  0  0  0
 19 17  1  0  0  0  0
 20 19  1  0  0  0  0
 21 19  1  0  0  0  0
 21  3  1  0  0  0  0
 21 13  1  0  0  0  0
 22 21  1  0  0  0  0
 23 15  1  0  0  0  0
 23 24  1  0  0  0  0
 25 26  1  0  0  0  0
 27 28  1  0  0  0  0
 27 31  1  0  0  0  0
 27 17  1  0  0  0  0
 29 19  1  0  0  0  0
 29 27  1  0  0  0  0
 29 31  1  0  0  0  0
 30 29  1  0  0  0  0
 31 32  1  0  0  0  0
 31 25  1  0  0  0  0
M  END
