2
q = 0.0, confidence = 0.982

 14 14  0  0  0  0  0  0  0  0999 V2000
   -4.3551   -1.1571   -0.0001 S   0  0  0  0  0  0  0  0  0  0  0  0
   -0.6876    0.4126    0.0001 N   0  0  0  0  0  2  0  0  0  0  0  0
   -3.3224    1.3403    0.0001 N   0  0  0  0  0  0  0  0  0  0  0  0
   -1.7150   -0.4489   -0.0000 C   0  0  0  0  0  3  0  0  0  0  0  0
   -1.4877   -1.5255   -0.0001 H   0  0  0  0  0  0  0  0  0  0  0  0
   -3.0498    0.0272   -0.0000 C   0  0  0  0  0  0  0  0  0  0  0  0
   -2.2775    2.1802    0.0001 C   0  0  0  0  0  0  0  0  0  0  0  0
   -2.4987    3.2607    0.0002 H   0  0  0  0  0  0  0  0  0  0  0  0
   -0.9474    1.7431    0.0001 C   0  0  0  0  0  0  0  0  0  0  0  0
   -0.0801    2.4167    0.0002 H   0  0  0  0  0  0  0  0  0  0  0  0
   -5.7978   -0.0564   -0.0000 C   0  0  0  0  0  0  0  0  0  0  0  0
   -5.7985    0.5827    0.9023 H   0  0  0  0  0  0  0  0  0  0  0  0
   -6.6797   -0.7239   -0.0000 H   0  0  0  0  0  0  0  0  0  0  0  0
   -5.7986    0.5827   -0.9023 H   0  0  0  0  0  0  0  0  0  0  0  0
  1 11  1  0  0  0  0
  1  6  1  0  0  0  0
  2  9  1  0  0  0  0
  3  7  1  0  0  0  0
  4  6  1  0  0  0  0
  4  2  1  0  0  0  0
  5  4  1  0  0  0  0
  6  3  2  0  0  0  0
  7  8  1  0  0  0  0
  9  7  2  0  0  0  0
  9 10  1  0  0  0  0
 11 13  1  0  0  0  0
 11 12  1  0  0  0  0
 14 11  1  0  0  0  0
M  END
