5
q = 0.0, confidence = 0.998

 25 26  0  0  1  0  0  0  0  0999 V2000
   -1.1807   -0.9779    1.0567 Se  0  0  0  0  0  0  0  0  0  0  0  0
   -1.3048    0.7408    2.0519 C   0  0  0  0  0  0  0  0  0  0  0  0
   -2.2849    0.8042    2.5597 H   0  0  0  0  0  0  0  0  0  0  0  0
   -0.5052    0.6533    2.8171 H   0  0  0  0  0  0  0  0  0  0  0  0
   -0.1489    1.7285    0.1338 N   0  0  0  0  0  2  0  0  0  0  0  0
   -1.0588    1.8991    1.1362 C   0  0  1  0  0  3  0  0  0  0  0  0
    0.0959    2.7421   -0.7314 C   0  0  0  0  0  0  0  0  0  0  0  0
    0.7878    2.5117   -1.5534 H   0  0  0  0  0  0  0  0  0  0  0  0
   -1.7356    3.1198    1.2872 C   0  0  0  0  0  0  0  0  0  0  0  0
   -2.4737    3.2285    2.0942 H   0  0  0  0  0  0  0  0  0  0  0  0
   -3.1611    0.0974   -0.8541 C   0  0  0  0  0  0  0  0  0  0  0  0
   -2.3996    0.8225   -1.1668 H   0  0  0  0  0  0  0  0  0  0  0  0
   -2.8719   -0.8836    0.1100 C   0  0  0  0  0  0  0  0  0  0  0  0
   -1.4648    4.1790    0.4114 C   0  0  0  0  0  0  0  0  0  0  0  0
   -1.9872    5.1405    0.5234 H   0  0  0  0  0  0  0  0  0  0  0  0
   -0.5323    3.9845   -0.6165 C   0  0  0  0  0  0  0  0  0  0  0  0
   -0.3016    4.7762   -1.3426 H   0  0  0  0  0  0  0  0  0  0  0  0
   -4.4299    0.0979   -1.4528 C   0  0  0  0  0  0  0  0  0  0  0  0
   -4.6668    0.8572   -2.2129 H   0  0  0  0  0  0  0  0  0  0  0  0
   -3.8155   -1.8653    0.4645 C   0  0  0  0  0  0  0  0  0  0  0  0
   -3.5729   -2.6310    1.2172 H   0  0  0  0  0  0  0  0  0  0  0  0
   -5.3846   -0.8715   -1.1038 C   0  0  0  0  0  0  0  0  0  0  0  0
   -6.3737   -0.8652   -1.5853 H   0  0  0  0  0  0  0  0  0  0  0  0
   -5.0773   -1.8539   -0.1500 C   0  0  0  0  0  0  0  0  0  0  0  0
   -5.8212   -2.6175    0.1215 H   0  0  0  0  0  0  0  0  0  0  0  0
  1  2  1  0  0  0  0
  2  3  1  0  0  0  0
  2  4  1  0  0  0  0
  5  6  1  0  0  0  0
  6  9  1  0  0  0  0
  6  2  1  6  0  0  0
  7 16  2  0  0  0  0
  7  5  1  0  0  0  0
  8  7  1  0  0  0  0
  9 10  1  0  0  0  0
 11 13  1  0  0  0  0
 12 11  1  0  0  0  0
 13 20  2  0  0  0  0
 13  1  1  0  0  0  0
 14 15  1  0  0  0  0
 14  9  2  0  0  0  0
 16 14  1  0  0  0  0
 17 16  1  0  0  0  0
 18 22  1  0  0  0  0
 18 11  2  0  0  0  0
 19 18  1  0  0  0  0
 20 21  1  0  0  0  0
 22 24  2  0  0  0  0
 23 22  1  0  0  0  0
 24 25  1  0  0  0  0
 24 20  1  0  0  0  0
M  END
