2
q = 0.0, confidence = 0.998

 25 26  0  0  1  0  0  0  0  0999 V2000
   -0.7846   -0.7137    1.2966 S   0  0  0  0  0  0  0  0  0  0  0  0
    0.6509    1.5107    0.0273 N   0  0  0  0  0  2  0  0  0  0  0  0
   -2.7976    0.4122   -0.3479 C   0  0  0  0  0  0  0  0  0  0  0  0
   -2.1454    1.2722   -0.5435 H   0  0  0  0  0  0  0  0  0  0  0  0
   -4.0695    0.3506   -0.9320 C   0  0  0  0  0  0  0  0  0  0  0  0
   -4.4124    1.1797   -1.5683 H   0  0  0  0  0  0  0  0  0  0  0  0
   -4.8935   -0.7694   -0.7295 C   0  0  0  0  0  0  0  0  0  0  0  0
   -5.8864   -0.8111   -1.2011 H   0  0  0  0  0  0  0  0  0  0  0  0
   -4.4523   -1.8355    0.0687 C   0  0  0  0  0  0  0  0  0  0  0  0
   -5.0958   -2.7127    0.2301 H   0  0  0  0  0  0  0  0  0  0  0  0
   -3.1893   -1.7811    0.6761 C   0  0  0  0  0  0  0  0  0  0  0  0
   -2.8427   -2.6044    1.3187 H   0  0  0  0  0  0  0  0  0  0  0  0
   -2.3736   -0.6532    0.4676 C   0  0  0  0  0  0  0  0  0  0  0  0
   -0.6239    0.9682    2.0354 C   0  0  0  0  0  0  0  0  0  0  0  0
   -1.5845    1.2531    2.5059 H   0  0  0  0  0  0  0  0  0  0  0  0
    0.1311    0.8377    2.8404 H   0  0  0  0  0  0  0  0  0  0  0  0
   -0.1594    1.9714    1.0217 C   0  0  2  0  0  3  0  0  0  0  0  0
   -0.5404    3.3205    1.0761 C   0  0  0  0  0  0  0  0  0  0  0  0
   -1.2016    3.6617    1.8853 H   0  0  0  0  0  0  0  0  0  0  0  0
   -0.0810    4.2100    0.0961 C   0  0  0  0  0  0  0  0  0  0  0  0
   -0.3685    5.2712    0.1286 H   0  0  0  0  0  0  0  0  0  0  0  0
    0.7311    3.7175   -0.9344 C   0  0  0  0  0  0  0  0  0  0  0  0
    1.0957    4.3680   -1.7414 H   0  0  0  0  0  0  0  0  0  0  0  0
    1.0648    2.3609   -0.9424 C   0  0  0  0  0  0  0  0  0  0  0  0
    1.6554    1.9147   -1.7539 H   0  0  0  0  0  0  0  0  0  0  0  0
  1 14  1  0  0  0  0
  2 17  1  0  0  0  0
  3 13  1  0  0  0  0
  4  3  1  0  0  0  0
  5  7  1  0  0  0  0
  5  3  2  0  0  0  0
  6  5  1  0  0  0  0
  7  9  2  0  0  0  0
  8  7  1  0  0  0  0
  9 10  1  0  0  0  0
  9 11  1  0  0  0  0
 11 12  1  0  0  0  0
 13 11  2  0  0  0  0
 13  1  1  0  0  0  0
 14 15  1  0  0  0  0
 14 16  1  0  0  0  0
 17 18  1  0  0  0  0
 17 14  1  6  0  0  0
 18 19  1  0  0  0  0
 20 21  1  0  0  0  0
 20 18  2  0  0  0  0
 22 20  1  0  0  0  0
 23 22  1  0  0  0  0
 24 22  2  0  0  0  0
 24  2  1  0  0  0  0
 25 24  1  0  0  0  0
M  END
