1
q = 0.0, confidence = 1.0

 20 20  0  0  0  0  0  0  0  0999 V2000
   -1.5749    0.2224   -0.2750 N   0  0  0  0  0  0  0  0  0  0  0  0
   -2.3496    0.8602   -0.0302 H   0  0  0  0  0  0  0  0  0  0  0  0
   -1.4109    0.3765   -1.2839 H   0  0  0  0  0  0  0  0  0  0  0  0
   -7.9701   -0.5543   -1.4539 F   0  0  0  0  0  0  0  0  0  0  0  0
   -3.3048   -1.4216   -0.9085 C   0  0  0  0  0  0  0  0  0  0  0  0
   -2.0544   -1.1831   -0.0997 C   0  0  0  0  0  0  0  0  0  0  0  0
   -2.2394   -1.3472    0.9789 H   0  0  0  0  0  0  0  0  0  0  0  0
   -1.2350   -1.8560   -0.4116 H   0  0  0  0  0  0  0  0  0  0  0  0
   -4.5644   -1.1002   -0.3705 C   0  0  0  0  0  0  0  0  0  0  0  0
   -4.6497   -0.7327    0.6643 H   0  0  0  0  0  0  0  0  0  0  0  0
   -5.7259   -1.2524   -1.1431 C   0  0  0  0  0  0  0  0  0  0  0  0
   -6.9822    0.0218    0.4114 F   0  0  0  0  0  0  0  0  0  0  0  0
   -7.5839   -2.0491    0.0861 F   0  0  0  0  0  0  0  0  0  0  0  0
   -3.2226   -1.8984   -2.2325 C   0  0  0  0  0  0  0  0  0  0  0  0
   -2.2405   -2.1616   -2.6577 H   0  0  0  0  0  0  0  0  0  0  0  0
   -7.0770   -0.9558   -0.5262 C   0  0  0  0  0  0  0  0  0  0  0  0
   -5.6370   -1.7250   -2.4635 C   0  0  0  0  0  0  0  0  0  0  0  0
   -6.5506   -1.8364   -3.0648 H   0  0  0  0  0  0  0  0  0  0  0  0
   -4.3840   -2.0502   -3.0034 C   0  0  0  0  0  0  0  0  0  0  0  0
   -4.3139   -2.4276   -4.0341 H   0  0  0  0  0  0  0  0  0  0  0  0
  1  6  1  0  0  0  0
  1  2  1  0  0  0  0
  3  1  1  0  0  0  0
  4 16  1  0  0  0  0
  5  9  1  0  0  0  0
  5  6  1  0  0  0  0
  6  7  1  0  0  0  0
  8  6  1  0  0  0  0
  9 10  1  0  0  0  0
 11 16  1  0  0  0  0
 11  9  2  0  0  0  0
 14  5  2  0  0  0  0
 15 14  1  0  0  0  0
 16 13  1  0  0  0  0
 16 12  1  0  0  0  0
 17 11  1  0  0  0  0
 18 17  1  0  0  0  0
 19 17  2  0  0  0  0
 19 14  1  0  0  0  0
 20 19  1  0  0  0  0
M  END
