3
q = 0.0, confidence = 0.986

 13 14  0  0  0  0  0  0  0  0999 V2000
    1.2170   -1.5206    0.0042 S   0  0  0  0  0  0  0  0  0  0  0  0
    1.0636    1.0577   -0.0001 N   0  0  0  0  0  0  0  0  0  0  0  0
    0.2870    0.0363    0.0016 N   0  0  0  0  0  2  0  0  0  0  0  0
    2.4038    0.7631    0.0000 C   0  0  0  0  0  0  0  0  0  0  0  0
    3.4485    1.7123   -0.0017 C   0  0  0  0  0  3  0  0  0  0  0  0
    4.7697    1.2589   -0.0014 C   0  0  0  0  0  0  0  0  0  0  0  0
    5.0615   -0.1234    0.0007 C   0  0  0  0  0  0  0  0  0  0  0  0
    4.0388   -1.0828    0.0024 C   0  0  0  0  0  0  0  0  0  0  0  0
    2.7062   -0.6382    0.0021 C   0  0  0  0  0  0  0  0  0  0  0  0
    3.1990    2.7825   -0.0034 H   0  0  0  0  0  0  0  0  0  0  0  0
    5.5942    1.9869   -0.0028 H   0  0  0  0  0  0  0  0  0  0  0  0
    6.1098   -0.4572    0.0009 H   0  0  0  0  0  0  0  0  0  0  0  0
    4.2758   -2.1559    0.0040 H   0  0  0  0  0  0  0  0  0  0  0  0
  2  4  2  0  0  0  0
  2  3  1  0  0  0  0
  3  1  1  0  0  0  0
  4  9  1  0  0  0  0
  5  6  1  0  0  0  0
  5  4  1  0  0  0  0
  6  7  2  0  0  0  0
  7 12  1  0  0  0  0
  7  8  1  0  0  0  0
  8 13  1  0  0  0  0
  9  8  2  0  0  0  0
  9  1  1  0  0  0  0
 10  5  1  0  0  0  0
 11  6  1  0  0  0  0
M  END
