2
q = 0.0, confidence = 0.988

 25 26  0  0  1  0  0  0  0  0999 V2000
    1.5889    0.6728    1.0640 O   0  0  0  0  0  0  0  0  0  0  0  0
    0.9992   -1.6182   -0.0508 N   0  0  0  0  0  2  0  0  0  0  0  0
    0.5526   -2.7726   -0.6069 C   0  0  0  0  0  3  0  0  0  0  0  0
    2.6493   -3.8878   -0.1676 C   0  0  0  0  0  0  0  0  0  0  0  0
    2.2585   -1.5851    0.4638 C   0  0  0  0  0  0  0  0  0  0  0  0
    3.1065   -2.6975    0.4138 C   0  0  0  0  0  0  0  0  0  0  0  0
    1.3424   -3.9196   -0.6823 C   0  0  0  0  0  0  0  0  0  0  0  0
    3.9289    0.3249    0.4768 C   0  0  0  0  0  0  0  0  0  0  0  0
    2.6884   -0.2764    1.1041 C   0  0  1  0  0  0  0  0  0  0  0  0
    5.0584    0.5900    1.2728 C   0  0  0  0  0  0  0  0  0  0  0  0
    6.2478    1.4416   -0.6655 C   0  0  0  0  0  0  0  0  0  0  0  0
    3.9655    0.6206   -0.9010 C   0  0  0  0  0  0  0  0  0  0  0  0
    5.1198    1.1824   -1.4629 C   0  0  0  0  0  0  0  0  0  0  0  0
    6.2171    1.1428    0.7048 C   0  0  0  0  0  0  0  0  0  0  0  0
    4.1236   -2.6152    0.8247 H   0  0  0  0  0  0  0  0  0  0  0  0
    7.0958    1.3438    1.3363 H   0  0  0  0  0  0  0  0  0  0  0  0
    1.0225    0.4835    1.8850 H   0  0  0  0  0  0  0  0  0  0  0  0
    0.9313   -4.8292   -1.1429 H   0  0  0  0  0  0  0  0  0  0  0  0
    7.1534    1.8778   -1.1143 H   0  0  0  0  0  0  0  0  0  0  0  0
    5.1388    1.4181   -2.5379 H   0  0  0  0  0  0  0  0  0  0  0  0
    3.2993   -4.7734   -0.2179 H   0  0  0  0  0  0  0  0  0  0  0  0
    5.0292    0.3625    2.3508 H   0  0  0  0  0  0  0  0  0  0  0  0
   -0.4785   -2.7470   -0.9882 H   0  0  0  0  0  0  0  0  0  0  0  0
    3.0795    0.4227   -1.5269 H   0  0  0  0  0  0  0  0  0  0  0  0
    2.9108   -0.4793    2.1747 H   0  0  0  0  0  0  0  0  0  0  0  0
  1  9  1  0  0  0  0
  1 17  1  0  0  0  0
  2  5  1  0  0  0  0
  3  2  1  0  0  0  0
  4  6  1  0  0  0  0
  5  9  1  0  0  0  0
  6  5  2  0  0  0  0
  6 15  1  0  0  0  0
  7  3  1  0  0  0  0
  7  4  2  0  0  0  0
  8  9  1  0  0  0  0
  8 10  1  0  0  0  0
  9 25  1  1  0  0  0
 10 22  1  0  0  0  0
 11 14  1  0  0  0  0
 12  8  2  0  0  0  0
 13 12  1  0  0  0  0
 13 11  2  0  0  0  0
 14 10  2  0  0  0  0
 14 16  1  0  0  0  0
 18  7  1  0  0  0  0
 19 11  1  0  0  0  0
 20 13  1  0  0  0  0
 21  4  1  0  0  0  0
 23  3  1  0  0  0  0
 24 12  1  0  0  0  0
M  END
