3
q = -1.0, confidence = 0.0

  5  4  0  0  0  0  0  0  0  0999 V2000
    3.0515    0.1146   -1.1133 Cl  0  0  0  0  0  0  0  0  0  0  0  0
    3.8860   -2.0249    0.6731 O   0  0  0  0  0  0  0  0  0  0  0  0
    2.0622   -0.7439    0.0472 N   0  0  0  0  0  2  0  0  0  0  0  0
    2.6988   -1.7508    0.7409 C   0  0  0  0  0  0  0  0  0  0  0  0
    1.9580   -2.2590    1.4119 H   0  0  0  0  0  0  0  0  0  0  0  0
  1  3  1  0  0  0  0
  2  4  2  0  0  0  0
  3  4  1  0  0  0  0
  4  5  1  0  0  0  0
M  END
