7
q = -1.0, confidence = 0.002

 15 15  0  0  0  0  0  0  0  0999 V2000
    2.8298   -0.0956    2.9181 F   0  0  0  0  0  0  0  0  0  0  0  0
    3.8124   -1.4977    1.5651 F   0  0  0  0  0  0  0  0  0  0  0  0
    4.1645    0.6399    1.3450 F   0  0  0  0  0  0  0  0  0  0  0  0
    4.2170   -0.7067   -1.3578 F   0  0  0  0  0  0  0  0  0  0  0  0
    2.7971   -0.1705   -2.9374 F   0  0  0  0  0  0  0  0  0  0  0  0
    3.6395    1.3742   -1.6476 F   0  0  0  0  0  0  0  0  0  0  0  0
   -0.1281   -0.1565    0.0150 N   0  0  0  0  0  0  0  0  0  0  0  0
    0.6916   -0.2200    1.1098 C   0  0  0  0  0  3  0  0  0  0  0  0
    0.2931   -0.2844    2.1294 H   0  0  0  0  0  0  0  0  0  0  0  0
    2.0339   -0.1736    0.7080 C   0  0  0  0  0  0  0  0  0  0  0  0
    3.2048   -0.2814    1.6205 C   0  0  0  0  0  0  0  0  0  0  0  0
    0.6690   -0.0726   -1.0961 C   0  0  0  0  0  0  0  0  0  0  0  0
    0.2495    0.0074   -2.1064 H   0  0  0  0  0  0  0  0  0  0  0  0
    2.0193   -0.0888   -0.7197 C   0  0  0  0  0  0  0  0  0  0  0  0
    3.1639    0.0960   -1.6520 C   0  0  0  0  0  0  0  0  0  0  0  0
  2 11  1  0  0  0  0
  3 11  1  0  0  0  0
  5 15  1  0  0  0  0
  7  8  1  0  0  0  0
  8  9  1  0  0  0  0
 10  8  1  0  0  0  0
 10 11  1  0  0  0  0
 11  1  1  0  0  0  0
 12 14  1  0  0  0  0
 12  7  2  0  0  0  0
 13 12  1  0  0  0  0
 14 10  2  0  0  0  0
 15  6  1  0  0  0  0
 15  4  1  0  0  0  0
 15 14  1  0  0  0  0
M  END
