3
q = 0.0, confidence = 0.998

 18 17  0  0  0  0  0  0  0  0999 V2000
    0.7499    0.4350   -1.8770 O   0  0  0  0  0  0  0  0  0  0  0  0
   -0.7028   -0.4989    2.2225 O   0  0  0  0  0  0  0  0  0  0  0  0
   -0.4617    1.5826    0.3370 N   0  0  0  0  0  0  0  0  0  0  0  0
   -0.5090    1.8695    1.7688 C   0  0  0  0  0  0  0  0  0  0  0  0
   -0.9660    2.8619    1.9931 H   0  0  0  0  0  0  0  0  0  0  0  0
    0.5307    1.8860    2.1626 H   0  0  0  0  0  0  0  0  0  0  0  0
    0.4043    1.8118   -1.9231 C   0  0  0  0  0  0  0  0  0  0  0  0
   -0.6025    1.8859   -2.3884 H   0  0  0  0  0  0  0  0  0  0  0  0
    1.1144    2.3798   -2.5633 H   0  0  0  0  0  0  0  0  0  0  0  0
    0.3657    2.4347   -0.5191 C   0  0  0  0  0  0  0  0  0  0  0  0
    1.3920    2.4717   -0.0929 H   0  0  0  0  0  0  0  0  0  0  0  0
   -0.0128    3.4823   -0.5753 H   0  0  0  0  0  0  0  0  0  0  0  0
   -1.3085    0.7714    2.4721 C   0  0  0  0  0  0  0  0  0  0  0  0
   -1.3257    0.9718    3.5659 H   0  0  0  0  0  0  0  0  0  0  0  0
   -2.3579    0.7899    2.1057 H   0  0  0  0  0  0  0  0  0  0  0  0
   -1.3637   -1.0949    1.8085 H   0  0  0  0  0  0  0  0  0  0  0  0
    1.7676    0.3278   -1.6199 H   0  0  0  0  0  0  0  0  0  0  0  0
   -1.4288    1.4639   -0.0546 H   0  0  0  0  0  0  0  0  0  0  0  0
  1 17  1  0  0  0  0
  2 13  1  0  0  0  0
  3  4  1  0  0  0  0
  4  5  1  0  0  0  0
  4  6  1  0  0  0  0
  4 13  1  0  0  0  0
  7  1  1  0  0  0  0
  7 10  1  0  0  0  0
  8  7  1  0  0  0  0
  9  7  1  0  0  0  0
 10 11  1  0  0  0  0
 10  3  1  0  0  0  0
 12 10  1  0  0  0  0
 13 14  1  0  0  0  0
 15 13  1  0  0  0  0
 16  2  1  0  0  0  0
 18  3  1  0  0  0  0
M  END
