2
q = 0.0, confidence = 0.998

 20 21  0  0  1  0  0  0  0  0999 V2000
   -2.5177   -1.7289   -0.0110 C   0  0  2  0  0  3  0  0  0  0  0  0
   -1.2171   -1.6003   -0.0030 N   0  0  0  0  0  2  0  0  0  0  0  0
   -0.6008   -2.9361   -0.0352 C   0  0  0  0  0  0  0  0  0  0  0  0
   -0.0664   -3.0422   -1.0030 H   0  0  0  0  0  0  0  0  0  0  0  0
    0.1434   -3.0232    0.7804 H   0  0  0  0  0  0  0  0  0  0  0  0
   -1.8063   -3.8775    0.1417 C   0  0  0  0  0  0  0  0  0  0  0  0
   -1.8448   -4.3571    1.1414 H   0  0  0  0  0  0  0  0  0  0  0  0
   -1.8874   -4.6590   -0.6380 H   0  0  0  0  0  0  0  0  0  0  0  0
   -2.9601   -3.0062    0.0214 O   0  0  0  0  0  0  0  0  0  0  0  0
   -3.5498   -0.6922   -0.0685 C   0  0  0  0  0  0  0  0  0  0  0  0
   -4.8882   -1.0441    0.2251 C   0  0  0  0  0  0  0  0  0  0  0  0
   -5.1239   -2.0804    0.5027 H   0  0  0  0  0  0  0  0  0  0  0  0
   -5.9034   -0.0852    0.1724 C   0  0  0  0  0  0  0  0  0  0  0  0
   -6.9477   -0.3361    0.4053 H   0  0  0  0  0  0  0  0  0  0  0  0
   -5.5740    1.2288   -0.1867 C   0  0  0  0  0  0  0  0  0  0  0  0
   -4.2585    1.6006   -0.4965 C   0  0  0  0  0  0  0  0  0  0  0  0
   -4.0446    2.6401   -0.7821 H   0  0  0  0  0  0  0  0  0  0  0  0
   -3.2488    0.6385   -0.4361 C   0  0  0  0  0  0  0  0  0  0  0  0
   -2.2039    0.9038   -0.6703 H   0  0  0  0  0  0  0  0  0  0  0  0
   -6.5454    2.1539   -0.2405 F   0  0  0  0  0  0  0  0  0  0  0  0
  1 10  1  6  0  0  0
  1  2  1  0  0  0  0
  1  9  1  0  0  0  0
  3  2  1  0  0  0  0
  3  6  1  0  0  0  0
  3  5  1  0  0  0  0
  4  3  1  0  0  0  0
  6  7  1  0  0  0  0
  8  6  1  0  0  0  0
  9  6  1  0  0  0  0
 10 11  1  0  0  0  0
 11 12  1  0  0  0  0
 13 11  2  0  0  0  0
 13 14  1  0  0  0  0
 15 13  1  0  0  0  0
 16 18  1  0  0  0  0
 16 15  2  0  0  0  0
 17 16  1  0  0  0  0
 18 10  2  0  0  0  0
 19 18  1  0  0  0  0
 20 15  1  0  0  0  0
M  END
