21
q = 0.0, confidence = 0.996

 26 26  0  0  0  0  0  0  0  0999 V2000
   -2.2272    0.4574   -0.6530 C   0  0  0  0  0  3  0  0  0  0  0  0
   -2.4379    1.4451   -0.2013 H   0  0  0  0  0  0  0  0  0  0  0  0
   -3.1691   -0.5901   -0.6803 C   0  0  0  0  0  0  0  0  0  0  0  0
   -2.8202   -1.8011   -1.3156 C   0  0  0  0  0  0  0  0  0  0  0  0
   -3.5505   -2.6215   -1.3432 H   0  0  0  0  0  0  0  0  0  0  0  0
   -1.5546   -1.9091   -1.8980 C   0  0  0  0  0  0  0  0  0  0  0  0
   -1.2510   -2.8328   -2.4113 H   0  0  0  0  0  0  0  0  0  0  0  0
   -0.6683   -0.8240   -1.8304 C   0  0  0  0  0  0  0  0  0  0  0  0
    0.3359   -0.8249   -2.2882 H   0  0  0  0  0  0  0  0  0  0  0  0
   -6.5047   -1.1193    0.4947 C   0  0  0  0  0  0  0  0  0  0  0  0
   -7.4434   -2.2824    0.4052 C   0  0  0  0  0  0  0  0  0  0  0  0
   -6.8542    0.1601    1.1741 C   0  0  0  0  0  0  0  0  0  0  0  0
   -8.1987    0.3645    1.8152 C   0  0  0  0  0  0  0  0  0  0  0  0
   -8.3895   -0.4075    2.5861 H   0  0  0  0  0  0  0  0  0  0  0  0
   -9.0115    0.2273    1.0752 H   0  0  0  0  0  0  0  0  0  0  0  0
   -8.2243    1.3799    2.2508 H   0  0  0  0  0  0  0  0  0  0  0  0
   -6.9494   -3.5206   -0.3237 C   0  0  0  0  0  0  0  0  0  0  0  0
   -7.7515   -4.2794   -0.2998 H   0  0  0  0  0  0  0  0  0  0  0  0
   -6.0316   -3.9208    0.1508 H   0  0  0  0  0  0  0  0  0  0  0  0
   -6.6812   -3.2826   -1.3722 H   0  0  0  0  0  0  0  0  0  0  0  0
   -1.0153    0.3208   -1.2111 N   0  0  0  0  0  2  0  0  0  0  0  0
   -4.4111   -0.3851   -0.0788 N   0  0  0  0  0  0  0  0  0  0  0  0
   -4.6867    0.5146    0.4070 H   0  0  0  0  0  0  0  0  0  0  0  0
   -5.3217   -1.3223   -0.0846 N   0  0  0  0  0  0  0  0  0  0  0  0
   -6.0107    1.0809    1.2108 O   0  0  0  0  0  0  0  0  0  0  0  0
   -8.5685   -2.2424    0.8981 O   0  0  0  0  0  0  0  0  0  0  0  0
  1  2  1  0  0  0  0
  3  1  1  0  0  0  0
  3 22  1  0  0  0  0
  4  3  2  0  0  0  0
  5  4  1  0  0  0  0
  6  8  2  0  0  0  0
  6  4  1  0  0  0  0
  7  6  1  0  0  0  0
  8 21  1  0  0  0  0
  9  8  1  0  0  0  0
 10 12  1  0  0  0  0
 11 10  1  0  0  0  0
 11 26  2  0  0  0  0
 12 25  2  0  0  0  0
 12 13  1  0  0  0  0
 13 16  1  0  0  0  0
 13 14  1  0  0  0  0
 15 13  1  0  0  0  0
 17 18  1  0  0  0  0
 17 19  1  0  0  0  0
 17 11  1  0  0  0  0
 20 17  1  0  0  0  0
 21  1  1  0  0  0  0
 22 23  1  0  0  0  0
 24 22  1  0  0  0  0
 24 10  2  0  0  0  0
M  END
