3
q = 0.0, confidence = 1.0

 40 43  0  0  1  0  0  0  0  0999 V2000
    4.0397   -3.8774   -0.7775 O   0  0  0  0  0  0  0  0  0  0  0  0
    0.0373   -0.0706   -0.7197 N   0  0  0  0  0  0  0  0  0  0  0  0
   -2.1466    1.6055   -0.2523 N   0  0  0  0  0  2  0  0  0  0  0  0
    1.0591   -0.9543   -0.6850 C   0  0  0  0  0  0  0  0  0  0  0  0
    0.7628   -2.3390   -0.8918 C   0  0  0  0  0  0  0  0  0  0  0  0
   -0.2914   -2.6255   -1.0167 H   0  0  0  0  0  0  0  0  0  0  0  0
    1.7742   -3.2738   -0.8987 C   0  0  0  0  0  0  0  0  0  0  0  0
    1.5704   -4.3439   -1.0476 H   0  0  0  0  0  0  0  0  0  0  0  0
    3.1351   -2.8719   -0.7150 C   0  0  0  0  0  0  0  0  0  0  0  0
    5.4106   -3.5643   -0.5959 C   0  0  0  0  0  0  0  0  0  0  0  0
    5.7778   -2.8617   -1.3765 H   0  0  0  0  0  0  0  0  0  0  0  0
    5.9623   -4.5185   -0.6772 H   0  0  0  0  0  0  0  0  0  0  0  0
    5.5995   -3.1165    0.4048 H   0  0  0  0  0  0  0  0  0  0  0  0
    3.4553   -1.5316   -0.4880 C   0  0  0  0  0  0  0  0  0  0  0  0
    4.4951   -1.2135   -0.3480 H   0  0  0  0  0  0  0  0  0  0  0  0
    2.4258   -0.5519   -0.4447 C   0  0  0  0  0  0  0  0  0  0  0  0
    2.6609    0.8434   -0.1860 C   0  0  0  0  0  0  0  0  0  0  0  0
    4.0121    1.3684    0.1420 C   0  0  0  0  0  0  0  0  0  0  0  0
    4.7581    0.8382    1.2190 C   0  0  0  0  0  0  0  0  0  0  0  0
    4.3303    0.0225    1.8210 H   0  0  0  0  0  0  0  0  0  0  0  0
    6.0156    1.3663    1.5426 C   0  0  0  0  0  0  0  0  0  0  0  0
    6.5782    0.9513    2.3927 H   0  0  0  0  0  0  0  0  0  0  0  0
    6.5516    2.4274    0.7948 C   0  0  0  0  0  0  0  0  0  0  0  0
    7.5405    2.8382    1.0485 H   0  0  0  0  0  0  0  0  0  0  0  0
    5.8180    2.9643   -0.2745 C   0  0  0  0  0  0  0  0  0  0  0  0
    6.2320    3.7946   -0.8665 H   0  0  0  0  0  0  0  0  0  0  0  0
    4.5568    2.4418   -0.5957 C   0  0  0  0  0  0  0  0  0  0  0  0
    3.9868    2.8543   -1.4424 H   0  0  0  0  0  0  0  0  0  0  0  0
    1.5751    1.7165   -0.2279 C   0  0  0  0  0  0  0  0  0  0  0  0
    1.7347    2.7759    0.0173 H   0  0  0  0  0  0  0  0  0  0  0  0
    0.2697    1.2183   -0.4946 C   0  0  0  0  0  0  0  0  0  0  0  0
   -0.9122    2.1182   -0.5125 C   0  0  1  0  0  3  0  0  0  0  0  0
   -3.2520    2.3765   -0.3185 C   0  0  0  0  0  0  0  0  0  0  0  0
   -4.2073    1.8641   -0.1372 H   0  0  0  0  0  0  0  0  0  0  0  0
   -3.1845    3.7391   -0.6144 C   0  0  0  0  0  0  0  0  0  0  0  0
   -4.1075    4.3335   -0.6494 H   0  0  0  0  0  0  0  0  0  0  0  0
   -1.9263    4.3053   -0.8655 C   0  0  0  0  0  0  0  0  0  0  0  0
   -1.8302    5.3733   -1.1110 H   0  0  0  0  0  0  0  0  0  0  0  0
   -0.7936    3.4894   -0.8221 C   0  0  0  0  0  0  0  0  0  0  0  0
    0.1977    3.8969   -1.0597 H   0  0  0  0  0  0  0  0  0  0  0  0
  1  9  1  0  0  0  0
  1 10  1  0  0  0  0
  2  4  2  0  0  0  0
  2 31  1  0  0  0  0
  4 16  1  0  0  0  0
  5  4  1  0  0  0  0
  6  5  1  0  0  0  0
  7  5  2  0  0  0  0
  7  9  1  0  0  0  0
  8  7  1  0  0  0  0
  9 14  2  0  0  0  0
 10 13  1  0  0  0  0
 11 10  1  0  0  0  0
 12 10  1  0  0  0  0
 14 16  1  0  0  0  0
 14 15  1  0  0  0  0
 16 17  2  0  0  0  0
 17 18  1  0  0  0  0
 18 19  1  0  0  0  0
 19 21  2  0  0  0  0
 19 20  1  0  0  0  0
 21 22  1  0  0  0  0
 23 24  1  0  0  0  0
 23 21  1  0  0  0  0
 25 23  2  0  0  0  0
 26 25  1  0  0  0  0
 27 25  1  0  0  0  0
 27 18  2  0  0  0  0
 28 27  1  0  0  0  0
 29 17  1  0  0  0  0
 29 30  1  0  0  0  0
 31 29  2  0  0  0  0
 32 31  1  6  0  0  0
 32  3  1  0  0  0  0
 33  3  1  0  0  0  0
 33 34  1  0  0  0  0
 35 33  2  0  0  0  0
 36 35  1  0  0  0  0
 37 39  2  0  0  0  0
 37 35  1  0  0  0  0
 38 37  1  0  0  0  0
 39 32  1  0  0  0  0
 40 39  1  0  0  0  0
M  END
