1
q = 0.0, confidence = 0.992

 29 31  0  0  0  0  0  0  0  0999 V2000
   -1.4411    1.3567   -0.9461 N   0  0  0  0  0  2  0  0  0  0  0  0
   -3.3616    0.2755   -1.1244 N   0  0  0  0  0  0  0  0  0  0  0  0
   -2.5704    1.0534   -0.3208 C   0  0  0  0  0  3  0  0  0  0  0  0
   -2.8198    1.3893    0.6940 H   0  0  0  0  0  0  0  0  0  0  0  0
   -4.6482   -0.2340   -0.7915 C   0  0  0  0  0  0  0  0  0  0  0  0
   -7.2097   -1.2485   -0.1171 C   0  0  0  0  0  0  0  0  0  0  0  0
   -2.6747    0.0883   -2.3235 C   0  0  0  0  0  0  0  0  0  0  0  0
   -3.1155   -0.4662   -3.1567 H   0  0  0  0  0  0  0  0  0  0  0  0
   -5.0519   -1.4985   -1.2563 C   0  0  0  0  0  0  0  0  0  0  0  0
   -4.3675   -2.1030   -1.8687 H   0  0  0  0  0  0  0  0  0  0  0  0
   -6.3191   -1.9896   -0.9267 C   0  0  0  0  0  0  0  0  0  0  0  0
   -6.6310   -2.9687   -1.3189 H   0  0  0  0  0  0  0  0  0  0  0  0
   -8.5504   -1.7784    0.2345 C   0  0  0  0  0  0  0  0  0  0  0  0
   -5.5205    0.5266    0.0084 C   0  0  0  0  0  0  0  0  0  0  0  0
   -5.2168    1.5234    0.3593 H   0  0  0  0  0  0  0  0  0  0  0  0
   -6.7781    0.0163    0.3443 C   0  0  0  0  0  0  0  0  0  0  0  0
   -7.4388    0.6116    0.9913 H   0  0  0  0  0  0  0  0  0  0  0  0
   -1.4851    0.7762   -2.1943 C   0  0  0  0  0  0  0  0  0  0  0  0
   -0.6670    0.9354   -2.9066 H   0  0  0  0  0  0  0  0  0  0  0  0
   -8.7508   -3.1606    0.4538 C   0  0  0  0  0  0  0  0  0  0  0  0
   -7.8944   -3.8488    0.3908 H   0  0  0  0  0  0  0  0  0  0  0  0
   -9.6628   -0.9149    0.3597 C   0  0  0  0  0  0  0  0  0  0  0  0
   -9.5379    0.1612    0.1664 H   0  0  0  0  0  0  0  0  0  0  0  0
  -11.1118   -2.7906    0.9062 C   0  0  0  0  0  0  0  0  0  0  0  0
  -12.1061   -3.1834    1.1671 H   0  0  0  0  0  0  0  0  0  0  0  0
  -10.0167   -3.6608    0.7863 C   0  0  0  0  0  0  0  0  0  0  0  0
  -10.1471   -4.7394    0.9627 H   0  0  0  0  0  0  0  0  0  0  0  0
  -10.9289   -1.4154    0.6911 C   0  0  0  0  0  0  0  0  0  0  0  0
  -11.7825   -0.7256    0.7735 H   0  0  0  0  0  0  0  0  0  0  0  0
  1  3  1  0  0  0  0
  2  5  1  0  0  0  0
  2  3  1  0  0  0  0
  3  4  1  0  0  0  0
  5 14  1  0  0  0  0
  6 13  1  0  0  0  0
  6 16  1  0  0  0  0
  7 18  2  0  0  0  0
  7  2  1  0  0  0  0
  8  7  1  0  0  0  0
  9 11  1  0  0  0  0
  9  5  2  0  0  0  0
 10  9  1  0  0  0  0
 11  6  2  0  0  0  0
 12 11  1  0  0  0  0
 13 22  2  0  0  0  0
 13 20  1  0  0  0  0
 14 16  2  0  0  0  0
 14 15  1  0  0  0  0
 16 17  1  0  0  0  0
 18  1  1  0  0  0  0
 19 18  1  0  0  0  0
 20 26  2  0  0  0  0
 21 20  1  0  0  0  0
 22 28  1  0  0  0  0
 23 22  1  0  0  0  0
 24 25  1  0  0  0  0
 26 24  1  0  0  0  0
 26 27  1  0  0  0  0
 28 29  1  0  0  0  0
 28 24  2  0  0  0  0
M  END
