4
q = 0.0, confidence = 1.0

 34 36  0  0  0  0  0  0  0  0999 V2000
   -0.1195    3.7068   -0.2397 S   0  0  0  0  0  0  0  0  0  0  0  0
    3.4349   -0.6510    0.3076 O   0  0  0  0  0  0  0  0  0  0  0  0
    4.7316   -2.3464   -0.5474 O   0  0  0  0  0  0  0  0  0  0  0  0
   -1.0197    1.2612   -0.0915 N   0  0  0  0  0  2  0  0  0  0  0  0
   -2.1441    2.0710   -0.2161 C   0  0  0  0  0  0  0  0  0  0  0  0
   -3.4826    1.6319   -0.2520 C   0  0  0  0  0  0  0  0  0  0  0  0
   -4.4940    2.5862   -0.3898 C   0  0  0  0  0  0  0  0  0  0  0  0
   -4.1927    3.9631   -0.4915 C   0  0  0  0  0  0  0  0  0  0  0  0
   -2.8669    4.4144   -0.4558 C   0  0  0  0  0  0  0  0  0  0  0  0
   -1.8487    3.4577   -0.3156 C   0  0  0  0  0  0  0  0  0  0  0  0
    0.1228    1.9571   -0.0777 C   0  0  0  0  0  0  0  0  0  0  0  0
    1.4255    1.3711    0.0778 C   0  0  0  0  0  0  0  0  0  0  0  0
    2.5809    2.1015    0.1463 C   0  0  0  0  0  3  0  0  0  0  0  0
    3.9578    1.6701    0.3364 C   0  0  0  0  0  0  0  0  0  0  0  0
    4.4073    0.3131    0.4092 C   0  0  0  0  0  0  0  0  0  0  0  0
    5.7659    0.0155    0.6218 C   0  0  0  0  0  0  0  0  0  0  0  0
    6.7039    1.0501    0.7513 C   0  0  0  0  0  0  0  0  0  0  0  0
    6.2963    2.3910    0.6702 C   0  0  0  0  0  0  0  0  0  0  0  0
    4.9454    2.6822    0.4684 C   0  0  0  0  0  0  0  0  0  0  0  0
    3.6437   -1.9418   -0.1979 C   0  0  0  0  0  0  0  0  0  0  0  0
    2.3397   -2.6621   -0.2598 C   0  0  0  0  0  0  0  0  0  0  0  0
   -3.6811    0.5544   -0.1608 H   0  0  0  0  0  0  0  0  0  0  0  0
   -5.5436    2.2572   -0.4170 H   0  0  0  0  0  0  0  0  0  0  0  0
   -5.0084    4.6945   -0.5999 H   0  0  0  0  0  0  0  0  0  0  0  0
   -2.6283    5.4852   -0.5347 H   0  0  0  0  0  0  0  0  0  0  0  0
    1.4141    0.2767    0.1597 H   0  0  0  0  0  0  0  0  0  0  0  0
    2.4864    3.2007    0.0643 H   0  0  0  0  0  0  0  0  0  0  0  0
    6.0775   -1.0328    0.6655 H   0  0  0  0  0  0  0  0  0  0  0  0
    7.7628    0.7981    0.9161 H   0  0  0  0  0  0  0  0  0  0  0  0
    7.0290    3.2064    0.7673 H   0  0  0  0  0  0  0  0  0  0  0  0
    4.6131    3.7309    0.4106 H   0  0  0  0  0  0  0  0  0  0  0  0
    1.7314   -2.5170    0.6534 H   0  0  0  0  0  0  0  0  0  0  0  0
    1.7150   -2.2286   -1.0782 H   0  0  0  0  0  0  0  0  0  0  0  0
    2.5090   -3.7344   -0.4555 H   0  0  0  0  0  0  0  0  0  0  0  0
  1 11  1  0  0  0  0
  2 15  1  0  0  0  0
  3 20  2  0  0  0  0
  4 11  1  0  0  0  0
  5  4  1  0  0  0  0
  6  5  1  0  0  0  0
  6 22  1  0  0  0  0
  7  6  2  0  0  0  0
  8  9  2  0  0  0  0
  8  7  1  0  0  0  0
  9 10  1  0  0  0  0
 10  1  1  0  0  0  0
 10  5  2  0  0  0  0
 11 12  2  0  0  0  0
 12 13  1  0  0  0  0
 12 26  1  0  0  0  0
 13 14  1  0  0  0  0
 14 15  2  0  0  0  0
 14 19  1  0  0  0  0
 15 16  1  0  0  0  0
 16 28  1  0  0  0  0
 16 17  2  0  0  0  0
 17 29  1  0  0  0  0
 18 17  1  0  0  0  0
 18 30  1  0  0  0  0
 19 18  2  0  0  0  0
 20  2  1  0  0  0  0
 21 20  1  0  0  0  0
 21 32  1  0  0  0  0
 23  7  1  0  0  0  0
 24  8  1  0  0  0  0
 25  9  1  0  0  0  0
 27 13  1  0  0  0  0
 31 19  1  0  0  0  0
 33 21  1  0  0  0  0
 34 21  1  0  0  0  0
M  END
