1
q = 0.0, confidence = 0.998

 28 30  0  0  1  0  0  0  0  0999 V2000
    0.1529    1.4839    0.9289 N   0  0  0  0  0  0  0  0  0  0  0  0
    0.2693    1.4821    1.9543 H   0  0  0  0  0  0  0  0  0  0  0  0
    0.9022    2.1033    0.5733 H   0  0  0  0  0  0  0  0  0  0  0  0
   -1.2915    3.5269    1.0818 C   0  0  0  0  0  0  0  0  0  0  0  0
   -0.4823    4.1410    0.6277 H   0  0  0  0  0  0  0  0  0  0  0  0
   -1.1496    3.5593    2.1851 H   0  0  0  0  0  0  0  0  0  0  0  0
   -2.7205    2.6060   -1.3267 C   0  0  1  0  0  0  0  0  0  0  0  0
   -2.8284    2.5742   -2.4311 H   0  0  0  0  0  0  0  0  0  0  0  0
   -1.3439    2.0359   -0.9415 C   0  0  0  0  0  0  0  0  0  0  0  0
   -1.2415    0.9829   -1.2859 H   0  0  0  0  0  0  0  0  0  0  0  0
   -0.5259    2.6126   -1.4248 H   0  0  0  0  0  0  0  0  0  0  0  0
   -1.1706    2.0710    0.5882 C   0  0  1  0  0  0  0  0  0  0  0  0
   -2.2772    1.2224    1.2386 C   0  0  0  0  0  0  0  0  0  0  0  0
   -2.1486    1.2232    2.3442 H   0  0  0  0  0  0  0  0  0  0  0  0
   -2.1687    0.1712    0.9000 H   0  0  0  0  0  0  0  0  0  0  0  0
   -3.6598    1.7839    0.8597 C   0  0  2  0  0  0  0  0  0  0  0  0
   -4.4445    1.1566    1.3324 H   0  0  0  0  0  0  0  0  0  0  0  0
   -3.8216    1.7497   -0.6727 C   0  0  0  0  0  0  0  0  0  0  0  0
   -4.8244    2.1348   -0.9567 H   0  0  0  0  0  0  0  0  0  0  0  0
   -3.7555    0.7052   -1.0402 H   0  0  0  0  0  0  0  0  0  0  0  0
   -3.7747    3.2385    1.3566 C   0  0  0  0  0  0  0  0  0  0  0  0
   -4.7751    3.6506    1.1046 H   0  0  0  0  0  0  0  0  0  0  0  0
   -3.6802    3.2746    2.4636 H   0  0  0  0  0  0  0  0  0  0  0  0
   -2.8318    4.0608   -0.8305 C   0  0  0  0  0  0  0  0  0  0  0  0
   -3.8153    4.4890   -1.1198 H   0  0  0  0  0  0  0  0  0  0  0  0
   -2.0515    4.6903   -1.3102 H   0  0  0  0  0  0  0  0  0  0  0  0
   -2.6733    4.0970    0.7025 C   0  0  2  0  0  0  0  0  0  0  0  0
   -2.7495    5.1445    1.0638 H   0  0  0  0  0  0  0  0  0  0  0  0
  1  2  1  0  0  0  0
  3  1  1  0  0  0  0
  4  6  1  0  0  0  0
  5  4  1  0  0  0  0
  7  8  1  6  0  0  0
  7  9  1  0  0  0  0
  7 24  1  0  0  0  0
  7 18  1  0  0  0  0
  9 12  1  0  0  0  0
 10  9  1  0  0  0  0
 11  9  1  0  0  0  0
 12  1  1  1  0  0  0
 12  4  1  0  0  0  0
 12 13  1  0  0  0  0
 13 14  1  0  0  0  0
 15 13  1  0  0  0  0
 16 13  1  0  0  0  0
 16 17  1  1  0  0  0
 16 21  1  0  0  0  0
 18 16  1  0  0  0  0
 19 18  1  0  0  0  0
 20 18  1  0  0  0  0
 21 23  1  0  0  0  0
 22 21  1  0  0  0  0
 24 27  1  0  0  0  0
 25 24  1  0  0  0  0
 26 24  1  0  0  0  0
 27 28  1  1  0  0  0
 27  4  1  0  0  0  0
 27 21  1  0  0  0  0
M  END
