1
q = -1.0, confidence = 0.0

 28 28  0  0  0  0  0  0  0  0999 V2000
    0.4113   -0.9128   -0.4046 N   0  0  0  0  0  2  0  0  0  0  0  0
    0.4418    0.1861   -1.3065 N   0  0  0  0  0  0  0  0  0  0  0  0
    1.7118   -2.1116   -0.3635 Si  0  0  0  0  0  0  0  0  0  0  0  0
    7.1180    0.6856   -0.3719 O   0  0  0  0  0  0  0  0  0  0  0  0
    1.3476    1.2917   -0.9608 C   0  0  0  0  0  0  0  0  0  0  0  0
    0.6120   -0.1955   -2.7139 C   0  0  0  0  0  0  0  0  0  0  0  0
    3.4103   -1.2972   -0.3146 C   0  0  0  0  0  0  0  0  0  0  0  0
    3.8570   -0.6030    0.8297 C   0  0  0  0  0  0  0  0  0  0  0  0
    5.0868    0.0720    0.8586 C   0  0  0  0  0  0  0  0  0  0  0  0
    5.9123    0.0628   -0.2864 C   0  0  0  0  0  0  0  0  0  0  0  0
    5.4913   -0.6352   -1.4400 C   0  0  0  0  0  0  0  0  0  0  0  0
    4.2639   -1.3019   -1.4447 C   0  0  0  0  0  0  0  0  0  0  0  0
    7.5909    1.3983    0.7555 C   0  0  0  0  0  0  0  0  0  0  0  0
    1.4926   -2.9273    0.8724 H   0  0  0  0  0  0  0  0  0  0  0  0
    1.7097   -3.0260   -1.5667 H   0  0  0  0  0  0  0  0  0  0  0  0
    1.3487    1.4422    0.1285 H   0  0  0  0  0  0  0  0  0  0  0  0
    2.3883    1.0892   -1.2970 H   0  0  0  0  0  0  0  0  0  0  0  0
    0.9853    2.2173   -1.4524 H   0  0  0  0  0  0  0  0  0  0  0  0
   -0.1410   -0.9615   -2.9687 H   0  0  0  0  0  0  0  0  0  0  0  0
    1.6409   -0.5852   -2.8978 H   0  0  0  0  0  0  0  0  0  0  0  0
    0.4595    0.6913   -3.3566 H   0  0  0  0  0  0  0  0  0  0  0  0
    3.2271   -0.5752    1.7338 H   0  0  0  0  0  0  0  0  0  0  0  0
    5.3933    0.5982    1.7726 H   0  0  0  0  0  0  0  0  0  0  0  0
    6.1542   -0.6376   -2.3176 H   0  0  0  0  0  0  0  0  0  0  0  0
    3.9584   -1.8426   -2.3558 H   0  0  0  0  0  0  0  0  0  0  0  0
    8.5722    1.8206    0.4700 H   0  0  0  0  0  0  0  0  0  0  0  0
    7.7264    0.7354    1.6394 H   0  0  0  0  0  0  0  0  0  0  0  0
    6.9076    2.2308    1.0374 H   0  0  0  0  0  0  0  0  0  0  0  0
  1  3  1  0  0  0  0
  2  5  1  0  0  0  0
  2  1  1  0  0  0  0
  3  7  1  0  0  0  0
  3 14  1  0  0  0  0
  4 10  1  0  0  0  0
  4 13  1  0  0  0  0
  5 16  1  0  0  0  0
  6  2  1  0  0  0  0
  7  8  1  0  0  0  0
  8  9  2  0  0  0  0
  8 22  1  0  0  0  0
  9 23  1  0  0  0  0
 10  9  1  0  0  0  0
 11 10  2  0  0  0  0
 12 11  1  0  0  0  0
 12  7  2  0  0  0  0
 13 28  1  0  0  0  0
 13 27  1  0  0  0  0
 15  3  1  0  0  0  0
 17  5  1  0  0  0  0
 18  5  1  0  0  0  0
 19  6  1  0  0  0  0
 20  6  1  0  0  0  0
 21  6  1  0  0  0  0
 24 11  1  0  0  0  0
 25 12  1  0  0  0  0
 26 13  1  0  0  0  0
M  END
