1
q = -1.0, confidence = 0.002

 50 50  0  0  0  0  0  0  0  0999 V2000
    0.2069   -0.0110    0.2103 N   0  0  0  0  0  2  0  0  0  0  0  0
    0.2521    0.0152    1.6102 N   0  0  0  0  0  0  0  0  0  0  0  0
   -2.2148   -1.7394   -0.4039 N   0  0  0  0  0  0  0  0  0  0  0  0
   -3.1140   -0.3498    1.1585 N   0  0  0  0  0  0  0  0  0  0  0  0
   -1.1864   -0.3273   -0.8292 Si  0  0  1  0  0  0  0  0  0  0  0  0
   -0.2056   -1.1616    2.3652 C   0  0  0  0  0  0  0  0  0  0  0  0
   -0.1709    1.2771    2.2304 C   0  0  0  0  0  0  0  0  0  0  0  0
   -2.2678    1.1639   -1.2318 C   0  0  0  0  0  0  0  0  0  0  0  0
   -3.4211    0.9861   -2.0270 C   0  0  0  0  0  0  0  0  0  0  0  0
   -4.2411    2.0735   -2.3649 C   0  0  0  0  0  0  0  0  0  0  0  0
   -3.9147    3.3656   -1.9200 C   0  0  0  0  0  0  0  0  0  0  0  0
   -2.7652    3.5610   -1.1381 C   0  0  0  0  0  0  0  0  0  0  0  0
   -1.9528    2.4684   -0.7986 C   0  0  0  0  0  0  0  0  0  0  0  0
   -3.2259   -1.4697    0.5115 C   0  0  0  0  0  0  0  0  0  0  0  0
   -4.3439   -2.4780    0.6631 C   0  0  0  0  0  0  0  0  0  0  0  0
   -4.1490    0.1899    2.0240 C   0  0  0  0  0  0  0  0  0  0  0  0
   -4.3113    1.6904    1.7489 C   0  0  0  0  0  0  0  0  0  0  0  0
   -3.8141   -0.0777    3.5001 C   0  0  0  0  0  0  0  0  0  0  0  0
   -2.0444   -3.0638   -1.0407 C   0  0  0  0  0  0  0  0  0  0  0  0
   -2.5490   -3.0641   -2.4910 C   0  0  0  0  0  0  0  0  0  0  0  0
   -0.5993   -3.5643   -0.9299 C   0  0  0  0  0  0  0  0  0  0  0  0
   -0.5420   -0.7806   -2.1033 H   0  0  0  0  0  0  0  0  0  0  0  0
    0.1052   -2.0735    1.8300 H   0  0  0  0  0  0  0  0  0  0  0  0
    0.2979   -1.1464    3.3516 H   0  0  0  0  0  0  0  0  0  0  0  0
   -1.3064   -1.1289    2.4910 H   0  0  0  0  0  0  0  0  0  0  0  0
   -1.2737    1.3773    2.1521 H   0  0  0  0  0  0  0  0  0  0  0  0
    0.3259    2.1221    1.7193 H   0  0  0  0  0  0  0  0  0  0  0  0
    0.1496    1.2823    3.2885 H   0  0  0  0  0  0  0  0  0  0  0  0
   -3.6906   -0.0230   -2.3805 H   0  0  0  0  0  0  0  0  0  0  0  0
   -5.1397    1.9138   -2.9809 H   0  0  0  0  0  0  0  0  0  0  0  0
   -4.5562    4.2201   -2.1847 H   0  0  0  0  0  0  0  0  0  0  0  0
   -2.5037    4.5705   -0.7848 H   0  0  0  0  0  0  0  0  0  0  0  0
   -1.0640    2.6303   -0.1697 H   0  0  0  0  0  0  0  0  0  0  0  0
   -4.7427   -2.8033   -0.3176 H   0  0  0  0  0  0  0  0  0  0  0  0
   -5.1750   -2.0580    1.2568 H   0  0  0  0  0  0  0  0  0  0  0  0
   -3.9836   -3.3833    1.1938 H   0  0  0  0  0  0  0  0  0  0  0  0
   -5.1401   -0.2854    1.8194 H   0  0  0  0  0  0  0  0  0  0  0  0
   -4.5577    1.8740    0.6852 H   0  0  0  0  0  0  0  0  0  0  0  0
   -3.3701    2.2337    1.9696 H   0  0  0  0  0  0  0  0  0  0  0  0
   -5.1157    2.1197    2.3800 H   0  0  0  0  0  0  0  0  0  0  0  0
   -4.6015    0.3325    4.1646 H   0  0  0  0  0  0  0  0  0  0  0  0
   -3.7244   -1.1648    3.6995 H   0  0  0  0  0  0  0  0  0  0  0  0
   -2.8513    0.3981    3.7765 H   0  0  0  0  0  0  0  0  0  0  0  0
   -2.6722   -3.7754   -0.4687 H   0  0  0  0  0  0  0  0  0  0  0  0
   -1.9465   -2.3769   -3.1188 H   0  0  0  0  0  0  0  0  0  0  0  0
   -3.6070   -2.7367   -2.5461 H   0  0  0  0  0  0  0  0  0  0  0  0
   -2.4789   -4.0782   -2.9341 H   0  0  0  0  0  0  0  0  0  0  0  0
   -0.2594   -3.5957    0.1224 H   0  0  0  0  0  0  0  0  0  0  0  0
   -0.5147   -4.5857   -1.3525 H   0  0  0  0  0  0  0  0  0  0  0  0
    0.1060   -2.9127   -1.4807 H   0  0  0  0  0  0  0  0  0  0  0  0
  1  2  1  0  0  0  0
  2  7  1  0  0  0  0
  2  6  1  0  0  0  0
  3 14  1  0  0  0  0
  4 16  1  0  0  0  0
  5 22  1  6  0  0  0
  5  3  1  0  0  0  0
  5  1  1  0  0  0  0
  6 25  1  0  0  0  0
  6 24  1  0  0  0  0
  7 28  1  0  0  0  0
  8  5  1  0  0  0  0
  8 13  1  0  0  0  0
  9  8  2  0  0  0  0
 10  9  1  0  0  0  0
 10 11  2  0  0  0  0
 11 12  1  0  0  0  0
 12 13  2  0  0  0  0
 12 32  1  0  0  0  0
 13 33  1  0  0  0  0
 14 15  1  0  0  0  0
 14  4  2  0  0  0  0
 15 36  1  0  0  0  0
 15 35  1  0  0  0  0
 16 18  1  0  0  0  0
 17 39  1  0  0  0  0
 17 16  1  0  0  0  0
 17 40  1  0  0  0  0
 18 42  1  0  0  0  0
 18 43  1  0  0  0  0
 18 41  1  0  0  0  0
 19 21  1  0  0  0  0
 19 44  1  0  0  0  0
 19  3  1  0  0  0  0
 20 19  1  0  0  0  0
 21 48  1  0  0  0  0
 23  6  1  0  0  0  0
 26  7  1  0  0  0  0
 27  7  1  0  0  0  0
 29  9  1  0  0  0  0
 30 10  1  0  0  0  0
 31 11  1  0  0  0  0
 34 15  1  0  0  0  0
 37 16  1  0  0  0  0
 38 17  1  0  0  0  0
 45 20  1  0  0  0  0
 46 20  1  0  0  0  0
 47 20  1  0  0  0  0
 49 21  1  0  0  0  0
 50 21  1  0  0  0  0
M  END
