1
q = -1.0, confidence = 0.0

 41 43  0  0  0  0  0  0  0  0999 V2000
    0.0025   -0.7490    0.1177 N   0  0  0  0  0  2  0  0  0  0  0  0
   -1.4012   -0.6181    0.0613 N   0  0  0  0  0  0  0  0  0  0  0  0
    0.8308   -2.3206   -0.0979 Si  0  0  2  0  0  0  0  0  0  0  0  0
   -2.1296   -1.4719   -0.8634 C   0  0  0  0  0  0  0  0  0  0  0  0
   -3.2150   -2.2511   -0.4129 C   0  0  0  0  0  0  0  0  0  0  0  0
   -3.8821   -3.1063   -1.3018 C   0  0  0  0  0  0  0  0  0  0  0  0
   -3.4750   -3.1989   -2.6410 C   0  0  0  0  0  0  0  0  0  0  0  0
   -2.3869   -2.4299   -3.0820 C   0  0  0  0  0  0  0  0  0  0  0  0
   -1.7145   -1.5695   -2.2049 C   0  0  0  0  0  0  0  0  0  0  0  0
   -2.0864   -0.2947    1.2867 C   0  0  0  0  0  0  0  0  0  0  0  0
   -1.5819   -0.6946    2.5340 C   0  0  0  0  0  0  0  0  0  0  0  0
   -2.2936   -0.3834    3.7030 C   0  0  0  0  0  0  0  0  0  0  0  0
   -3.5087    0.3165    3.6306 C   0  0  0  0  0  0  0  0  0  0  0  0
   -4.0075    0.7126    2.3769 C   0  0  0  0  0  0  0  0  0  0  0  0
   -3.2999    0.4172    1.2058 C   0  0  0  0  0  0  0  0  0  0  0  0
    0.0098   -3.6367    0.9761 C   0  0  0  0  0  0  0  0  0  0  0  0
    2.6468   -2.1062    0.3491 C   0  0  0  0  0  0  0  0  0  0  0  0
    3.6070   -1.9340   -0.6726 C   0  0  0  0  0  0  0  0  0  0  0  0
    4.9702   -1.8009   -0.3670 C   0  0  0  0  0  0  0  0  0  0  0  0
    5.3972   -1.8334    0.9700 C   0  0  0  0  0  0  0  0  0  0  0  0
    4.4583   -2.0113    1.9997 C   0  0  0  0  0  0  0  0  0  0  0  0
    3.0972   -2.1533    1.6880 C   0  0  0  0  0  0  0  0  0  0  0  0
    0.7850   -2.7490   -1.5380 H   0  0  0  0  0  0  0  0  0  0  0  0
   -3.5382   -2.1931    0.6348 H   0  0  0  0  0  0  0  0  0  0  0  0
   -4.7262   -3.7099   -0.9353 H   0  0  0  0  0  0  0  0  0  0  0  0
   -4.0017   -3.8686   -3.3370 H   0  0  0  0  0  0  0  0  0  0  0  0
   -2.0526   -2.4906   -4.1285 H   0  0  0  0  0  0  0  0  0  0  0  0
   -0.8589   -0.9817   -2.5651 H   0  0  0  0  0  0  0  0  0  0  0  0
   -0.6299   -1.2380    2.5740 H   0  0  0  0  0  0  0  0  0  0  0  0
   -1.8950   -0.6982    4.6795 H   0  0  0  0  0  0  0  0  0  0  0  0
   -4.0647    0.5565    4.5490 H   0  0  0  0  0  0  0  0  0  0  0  0
   -4.9527    1.2724    2.3111 H   0  0  0  0  0  0  0  0  0  0  0  0
   -3.6603    0.7395    0.2182 H   0  0  0  0  0  0  0  0  0  0  0  0
   -1.0733   -3.7095    0.7528 H   0  0  0  0  0  0  0  0  0  0  0  0
    0.1285   -3.4327    2.0591 H   0  0  0  0  0  0  0  0  0  0  0  0
    0.4725   -4.6217    0.7607 H   0  0  0  0  0  0  0  0  0  0  0  0
    3.2763   -1.8826   -1.7217 H   0  0  0  0  0  0  0  0  0  0  0  0
    5.7035   -1.6632   -1.1765 H   0  0  0  0  0  0  0  0  0  0  0  0
    6.4657   -1.7238    1.2116 H   0  0  0  0  0  0  0  0  0  0  0  0
    4.7898   -2.0449    3.0491 H   0  0  0  0  0  0  0  0  0  0  0  0
    2.3757   -2.3082    2.5069 H   0  0  0  0  0  0  0  0  0  0  0  0
  2  1  1  0  0  0  0
  2 10  1  0  0  0  0
  3 23  1  6  0  0  0
  3  1  1  0  0  0  0
  3 17  1  0  0  0  0
  3 16  1  0  0  0  0
  4  5  1  0  0  0  0
  4  2  1  0  0  0  0
  5 24  1  0  0  0  0
  6 25  1  0  0  0  0
  6  5  2  0  0  0  0
  7  6  1  0  0  0  0
  8  7  2  0  0  0  0
  8  9  1  0  0  0  0
  9  4  2  0  0  0  0
 10 11  1  0  0  0  0
 11 29  1  0  0  0  0
 11 12  2  0  0  0  0
 12 30  1  0  0  0  0
 13 12  1  0  0  0  0
 13 31  1  0  0  0  0
 14 13  2  0  0  0  0
 15 10  2  0  0  0  0
 15 14  1  0  0  0  0
 16 35  1  0  0  0  0
 17 22  1  0  0  0  0
 18 19  1  0  0  0  0
 18 17  2  0  0  0  0
 19 20  2  0  0  0  0
 20 39  1  0  0  0  0
 20 21  1  0  0  0  0
 21 40  1  0  0  0  0
 22 21  2  0  0  0  0
 22 41  1  0  0  0  0
 26  7  1  0  0  0  0
 27  8  1  0  0  0  0
 28  9  1  0  0  0  0
 32 14  1  0  0  0  0
 33 15  1  0  0  0  0
 34 16  1  0  0  0  0
 36 16  1  0  0  0  0
 37 18  1  0  0  0  0
 38 19  1  0  0  0  0
M  END
