3
q = 0.0, confidence = 0.998

 22 23  0  0  1  0  0  0  0  0999 V2000
   -2.6729    1.9951    1.5068 S   0  0  0  0  0  0  0  0  0  0  0  0
   -2.9470    0.4411    2.8674 S   0  0  0  0  0  0  0  0  0  0  0  0
   -2.4003    1.4716   -1.0971 N   0  0  0  0  0  2  0  0  0  0  0  0
   -0.2364    0.2225    2.6174 N   0  0  0  0  0  0  0  0  0  0  0  0
   -3.2557    1.3353   -0.0624 C   0  0  2  0  0  3  0  0  0  0  0  0
   -4.5455    0.8034   -0.2158 C   0  0  0  0  0  0  0  0  0  0  0  0
   -5.2036    0.7050    0.6584 H   0  0  0  0  0  0  0  0  0  0  0  0
   -4.9492    0.3994   -1.4932 C   0  0  0  0  0  0  0  0  0  0  0  0
   -5.9446   -0.0444   -1.6437 H   0  0  0  0  0  0  0  0  0  0  0  0
   -4.0769    0.5793   -2.5764 C   0  0  0  0  0  0  0  0  0  0  0  0
   -4.3562    0.2743   -3.5939 H   0  0  0  0  0  0  0  0  0  0  0  0
   -2.8104    1.1192   -2.3353 C   0  0  0  0  0  0  0  0  0  0  0  0
   -2.0698    1.2270   -3.1417 H   0  0  0  0  0  0  0  0  0  0  0  0
   -1.3771   -0.4452    2.8226 C   0  0  0  0  0  0  0  0  0  0  0  0
   -1.4292   -1.8339    3.0387 C   0  0  0  0  0  0  0  0  0  0  0  0
   -2.3956   -2.3416    3.1677 H   0  0  0  0  0  0  0  0  0  0  0  0
   -0.2252   -2.5470    3.0177 C   0  0  0  0  0  0  0  0  0  0  0  0
   -0.2302   -3.6396    3.1477 H   0  0  0  0  0  0  0  0  0  0  0  0
    0.9729   -1.8587    2.7796 C   0  0  0  0  0  0  0  0  0  0  0  0
    1.9378   -2.3801    2.7128 H   0  0  0  0  0  0  0  0  0  0  0  0
    0.9165   -0.4746    2.5815 C   0  0  0  0  0  0  0  0  0  0  0  0
    1.8283    0.1008    2.3550 H   0  0  0  0  0  0  0  0  0  0  0  0
  1  2  1  0  0  0  0
  3  5  1  0  0  0  0
  4 14  1  0  0  0  0
  5  1  1  6  0  0  0
  6  5  1  0  0  0  0
  6  7  1  0  0  0  0
  8  6  2  0  0  0  0
  9  8  1  0  0  0  0
 10 12  2  0  0  0  0
 10  8  1  0  0  0  0
 11 10  1  0  0  0  0
 12  3  1  0  0  0  0
 13 12  1  0  0  0  0
 14  2  1  0  0  0  0
 14 15  2  0  0  0  0
 15 16  1  0  0  0  0
 17 15  1  0  0  0  0
 17 18  1  0  0  0  0
 19 17  2  0  0  0  0
 20 19  1  0  0  0  0
 21  4  2  0  0  0  0
 21 19  1  0  0  0  0
 22 21  1  0  0  0  0
M  END
