1
q = 0.0, confidence = 0.998

 15 15  0  0  0  0  0  0  0  0999 V2000
    1.2345    1.1846   -0.5695 N   0  0  0  0  0  2  0  0  0  0  0  0
    4.6985    1.7384    0.4758 O   0  0  0  0  0  0  0  0  0  0  0  0
    2.4980    0.9245   -0.1763 C   0  0  0  0  0  3  0  0  0  0  0  0
    2.7267   -0.1369    0.0014 H   0  0  0  0  0  0  0  0  0  0  0  0
    3.4343    1.9536    0.0557 C   0  0  0  0  0  0  0  0  0  0  0  0
    3.0288    3.2891   -0.1501 C   0  0  0  0  0  0  0  0  0  0  0  0
    3.7504    4.1000    0.0258 H   0  0  0  0  0  0  0  0  0  0  0  0
    1.7176    3.5356   -0.5630 C   0  0  0  0  0  0  0  0  0  0  0  0
    1.3644    4.5636   -0.7285 H   0  0  0  0  0  0  0  0  0  0  0  0
    0.8418    2.4587   -0.7628 C   0  0  0  0  0  0  0  0  0  0  0  0
   -0.1987    2.6095   -1.0834 H   0  0  0  0  0  0  0  0  0  0  0  0
    5.0974    0.3929    0.7310 C   0  0  0  0  0  0  0  0  0  0  0  0
    6.1329    0.4471    1.1122 H   0  0  0  0  0  0  0  0  0  0  0  0
    5.0795   -0.2189   -0.1971 H   0  0  0  0  0  0  0  0  0  0  0  0
    4.4442   -0.0907    1.4890 H   0  0  0  0  0  0  0  0  0  0  0  0
  1  3  1  0  0  0  0
  2 12  1  0  0  0  0
  3  4  1  0  0  0  0
  3  5  1  0  0  0  0
  5  2  1  0  0  0  0
  6  7  1  0  0  0  0
  6  5  2  0  0  0  0
  8  6  1  0  0  0  0
  9  8  1  0  0  0  0
 10  1  1  0  0  0  0
 10  8  2  0  0  0  0
 11 10  1  0  0  0  0
 12 13  1  0  0  0  0
 12 15  1  0  0  0  0
 14 12  1  0  0  0  0
M  END
