1
q = 0.0, confidence = 0.998

 18 19  0  0  1  0  0  0  0  0999 V2000
   -2.4663   -2.4320   -0.5630 N   0  0  0  0  0  0  0  0  0  0  0  0
   -2.5206   -3.1172   -1.3288 H   0  0  0  0  0  0  0  0  0  0  0  0
   -3.3834   -2.7465    0.5579 C   0  0  0  0  0  0  0  0  0  0  0  0
   -2.9916   -2.5075    1.5571 H   0  0  0  0  0  0  0  0  0  0  0  0
   -3.9283   -3.7008    0.4920 H   0  0  0  0  0  0  0  0  0  0  0  0
   -3.7484   -1.6491   -0.3769 C   0  0  1  0  0  0  0  0  0  0  0  0
   -4.5140   -1.8857   -1.1342 H   0  0  0  0  0  0  0  0  0  0  0  0
   -3.5935   -0.1932   -0.0751 C   0  0  0  0  0  0  0  0  0  0  0  0
   -3.9458    0.7427   -1.0685 C   0  0  0  0  0  0  0  0  0  0  0  0
   -4.4025    0.3947   -2.0082 H   0  0  0  0  0  0  0  0  0  0  0  0
   -3.7114    2.1117   -0.8709 C   0  0  0  0  0  0  0  0  0  0  0  0
   -3.9957    2.8326   -1.6519 H   0  0  0  0  0  0  0  0  0  0  0  0
   -3.1157    2.5593    0.3197 C   0  0  0  0  0  0  0  0  0  0  0  0
   -2.9242    3.6319    0.4718 H   0  0  0  0  0  0  0  0  0  0  0  0
   -2.7752    1.6361    1.3214 C   0  0  0  0  0  0  0  0  0  0  0  0
   -2.3127    1.9791    2.2587 H   0  0  0  0  0  0  0  0  0  0  0  0
   -3.0218    0.2694    1.1296 C   0  0  0  0  0  0  0  0  0  0  0  0
   -2.7621   -0.4346    1.9344 H   0  0  0  0  0  0  0  0  0  0  0  0
  1  6  1  0  0  0  0
  1  3  1  0  0  0  0
  2  1  1  0  0  0  0
  3  4  1  0  0  0  0
  5  3  1  0  0  0  0
  6  7  1  6  0  0  0
  6  8  1  0  0  0  0
  6  3  1  0  0  0  0
  8 17  1  0  0  0  0
  9 11  1  0  0  0  0
  9  8  2  0  0  0  0
 10  9  1  0  0  0  0
 11 13  2  0  0  0  0
 12 11  1  0  0  0  0
 13 14  1  0  0  0  0
 13 15  1  0  0  0  0
 15 16  1  0  0  0  0
 17 15  2  0  0  0  0
 17 18  1  0  0  0  0
M  END
