1
q = -1.0, confidence = 0.0

 18 19  0  0  0  0  0  0  0  0999 V2000
    1.1638   -0.4688    0.0266 N   0  0  0  0  0  0  0  0  0  0  0  0
    1.4592   -1.1893    1.1837 C   0  0  0  0  0  3  0  0  0  0  0  0
    0.6548   -1.5870    1.8167 H   0  0  0  0  0  0  0  0  0  0  0  0
    2.8251   -1.3343    1.3719 C   0  0  0  0  0  0  0  0  0  0  0  0
    3.4478   -0.6570    0.2531 C   0  0  0  0  0  0  0  0  0  0  0  0
    2.3882   -0.1370   -0.5611 C   0  0  0  0  0  0  0  0  0  0  0  0
    2.6577    0.5878   -1.7335 C   0  0  0  0  0  0  0  0  0  0  0  0
    1.8321    0.9788   -2.3450 H   0  0  0  0  0  0  0  0  0  0  0  0
    3.9987    0.7827   -2.0922 C   0  0  0  0  0  0  0  0  0  0  0  0
    4.2340    1.3425   -3.0102 H   0  0  0  0  0  0  0  0  0  0  0  0
    5.0538    0.2761   -1.2975 C   0  0  0  0  0  0  0  0  0  0  0  0
    6.0956    0.4518   -1.6066 H   0  0  0  0  0  0  0  0  0  0  0  0
    4.7889   -0.4433   -0.1252 C   0  0  0  0  0  0  0  0  0  0  0  0
    5.6129   -0.8351    0.4915 H   0  0  0  0  0  0  0  0  0  0  0  0
    3.5257   -2.0473    2.4835 C   0  0  0  0  0  0  0  0  0  0  0  0
    2.8087   -2.4778    3.2099 H   0  0  0  0  0  0  0  0  0  0  0  0
    4.2042   -1.3665    3.0417 H   0  0  0  0  0  0  0  0  0  0  0  0
    4.1586   -2.8773    2.1012 H   0  0  0  0  0  0  0  0  0  0  0  0
  1  2  1  0  0  0  0
  2  4  1  0  0  0  0
  2  3  1  0  0  0  0
  4 15  1  0  0  0  0
  5  4  2  0  0  0  0
  6  1  2  0  0  0  0
  6  5  1  0  0  0  0
  7  6  1  0  0  0  0
  8  7  1  0  0  0  0
  9  7  2  0  0  0  0
  9 11  1  0  0  0  0
 10  9  1  0  0  0  0
 11 13  2  0  0  0  0
 12 11  1  0  0  0  0
 13  5  1  0  0  0  0
 13 14  1  0  0  0  0
 15 17  1  0  0  0  0
 15 16  1  0  0  0  0
 18 15  1  0  0  0  0
M  END
