2
q = -1.0, confidence = 0.0

 18 19  0  0  0  0  0  0  0  0999 V2000
   -6.1996   -0.3445   -1.1726 F   0  0  0  0  0  0  0  0  0  0  0  0
   -0.9245    0.4767    0.1756 N   0  0  0  0  0  0  0  0  0  0  0  0
   -1.1234    1.2005    1.3493 C   0  0  0  0  0  3  0  0  0  0  0  0
   -0.2695    1.5757    1.9290 H   0  0  0  0  0  0  0  0  0  0  0  0
   -2.4701    1.3804    1.6307 C   0  0  0  0  0  0  0  0  0  0  0  0
   -3.1830    0.7226    0.5568 C   0  0  0  0  0  0  0  0  0  0  0  0
   -4.5544    0.5496    0.2774 C   0  0  0  0  0  0  0  0  0  0  0  0
   -5.3452    0.9488    0.9287 H   0  0  0  0  0  0  0  0  0  0  0  0
   -4.8928   -0.1600   -0.8761 C   0  0  0  0  0  0  0  0  0  0  0  0
   -3.9273   -0.6990   -1.7518 C   0  0  0  0  0  0  0  0  0  0  0  0
   -4.2706   -1.2443   -2.6424 H   0  0  0  0  0  0  0  0  0  0  0  0
   -2.5631   -0.5364   -1.4791 C   0  0  0  0  0  0  0  0  0  0  0  0
   -1.7937   -0.9477   -2.1475 H   0  0  0  0  0  0  0  0  0  0  0  0
   -2.1944    0.1775   -0.3273 C   0  0  0  0  0  0  0  0  0  0  0  0
   -3.0767    2.1065    2.7879 C   0  0  0  0  0  0  0  0  0  0  0  0
   -2.3019    2.5179    3.4642 H   0  0  0  0  0  0  0  0  0  0  0  0
   -3.7313    1.4402    3.3904 H   0  0  0  0  0  0  0  0  0  0  0  0
   -3.7140    2.9523    2.4505 H   0  0  0  0  0  0  0  0  0  0  0  0
  1  9  1  0  0  0  0
  2  3  1  0  0  0  0
  3  5  1  0  0  0  0
  3  4  1  0  0  0  0
  5 15  1  0  0  0  0
  6  5  2  0  0  0  0
  7  6  1  0  0  0  0
  7  8  1  0  0  0  0
  9  7  2  0  0  0  0
 10 12  2  0  0  0  0
 10  9  1  0  0  0  0
 11 10  1  0  0  0  0
 12 14  1  0  0  0  0
 13 12  1  0  0  0  0
 14  2  2  0  0  0  0
 14  6  1  0  0  0  0
 15 17  1  0  0  0  0
 15 16  1  0  0  0  0
 18 15  1  0  0  0  0
M  END
