5
q = 0.0, confidence = 0.998

 30 31  0  0  0  0  0  0  0  0999 V2000
   -4.4275   -0.0033    1.0741 O   0  0  0  0  0  0  0  0  0  0  0  0
   -7.4612   -1.5574   -2.1966 O   0  0  0  0  0  0  0  0  0  0  0  0
   -7.9172   -1.6041    1.9743 O   0  0  0  0  0  0  0  0  0  0  0  0
   -8.1839   -1.6531    2.9108 H   0  0  0  0  0  0  0  0  0  0  0  0
   -1.2911    1.8385   -0.9951 N   0  0  0  0  0  2  0  0  0  0  0  0
   -5.4060   -0.6485   -0.8707 N   0  0  0  0  0  0  0  0  0  0  0  0
   -5.5510   -0.6612   -1.8892 H   0  0  0  0  0  0  0  0  0  0  0  0
   -6.5027   -1.1145   -0.2011 N   0  0  0  0  0  0  0  0  0  0  0  0
   -6.4818   -1.0318    0.8244 H   0  0  0  0  0  0  0  0  0  0  0  0
   -1.0269    1.4778   -2.2669 C   0  0  0  0  0  3  0  0  0  0  0  0
   -0.1389    1.9602   -2.7134 H   0  0  0  0  0  0  0  0  0  0  0  0
   -1.8403    0.5678   -2.9533 C   0  0  0  0  0  0  0  0  0  0  0  0
   -1.5955    0.2818   -3.9861 H   0  0  0  0  0  0  0  0  0  0  0  0
   -2.9550    0.0292   -2.2980 C   0  0  0  0  0  0  0  0  0  0  0  0
   -3.5864   -0.7113   -2.8137 H   0  0  0  0  0  0  0  0  0  0  0  0
   -2.3612    1.3364   -0.3580 C   0  0  0  0  0  0  0  0  0  0  0  0
   -2.5357    1.6908    0.6725 H   0  0  0  0  0  0  0  0  0  0  0  0
   -3.2358    0.4226   -0.9746 C   0  0  0  0  0  0  0  0  0  0  0  0
   -4.3852   -0.0828   -0.1583 C   0  0  0  0  0  0  0  0  0  0  0  0
   -7.5504   -1.5659   -0.9579 C   0  0  0  0  0  0  0  0  0  0  0  0
   -8.7613   -2.0523   -0.2291 C   0  0  0  0  0  0  0  0  0  0  0  0
   -8.9311   -2.0636    1.1807 C   0  0  0  0  0  0  0  0  0  0  0  0
  -10.1291   -2.5421    1.7423 C   0  0  0  0  0  0  0  0  0  0  0  0
  -10.2450   -2.5429    2.8388 H   0  0  0  0  0  0  0  0  0  0  0  0
  -11.1614   -3.0110    0.9208 C   0  0  0  0  0  0  0  0  0  0  0  0
  -12.0908   -3.3809    1.3793 H   0  0  0  0  0  0  0  0  0  0  0  0
  -11.0081   -3.0066   -0.4757 C   0  0  0  0  0  0  0  0  0  0  0  0
  -11.8159   -3.3730   -1.1252 H   0  0  0  0  0  0  0  0  0  0  0  0
   -9.8181   -2.5299   -1.0324 C   0  0  0  0  0  0  0  0  0  0  0  0
   -9.6555   -2.5049   -2.1199 H   0  0  0  0  0  0  0  0  0  0  0  0
  2 20  2  0  0  0  0
  3  4  1  0  0  0  0
  5 16  1  0  0  0  0
  6  8  1  0  0  0  0
  6 19  1  0  0  0  0
  7  6  1  0  0  0  0
  8  9  1  0  0  0  0
 10  5  1  0  0  0  0
 11 10  1  0  0  0  0
 12 14  2  0  0  0  0
 12 10  1  0  0  0  0
 13 12  1  0  0  0  0
 14 18  1  0  0  0  0
 15 14  1  0  0  0  0
 16 17  1  0  0  0  0
 18 16  2  0  0  0  0
 18 19  1  0  0  0  0
 19  1  2  0  0  0  0
 20 21  1  0  0  0  0
 20  8  1  0  0  0  0
 21 22  1  0  0  0  0
 22 23  2  0  0  0  0
 22  3  1  0  0  0  0
 23 24  1  0  0  0  0
 25 26  1  0  0  0  0
 25 23  1  0  0  0  0
 27 25  2  0  0  0  0
 28 27  1  0  0  0  0
 29 27  1  0  0  0  0
 29 21  2  0  0  0  0
 30 29  1  0  0  0  0
M  END
