3
q = 0.0, confidence = 0.986

 16 16  0  0  0  0  0  0  0  0999 V2000
   -4.2972    0.1336   -1.0327 O   0  0  0  0  0  0  0  0  0  0  0  0
   -5.5456    0.1840    0.8690 O   0  0  0  0  0  0  0  0  0  0  0  0
   -0.7443    0.0581    0.9352 N   0  0  0  0  0  2  0  0  0  0  0  0
   -3.1601    0.1907    2.3556 N   0  0  0  0  0  0  0  0  0  0  0  0
   -1.9276    0.0744    0.2898 C   0  0  0  0  0  3  0  0  0  0  0  0
   -1.8997    0.0114   -0.8070 H   0  0  0  0  0  0  0  0  0  0  0  0
   -3.1336    0.1435    1.0139 C   0  0  0  0  0  0  0  0  0  0  0  0
   -1.9765    0.1722    2.9778 C   0  0  0  0  0  0  0  0  0  0  0  0
   -1.9797    0.2111    4.0806 H   0  0  0  0  0  0  0  0  0  0  0  0
   -0.7574    0.1086    2.2833 C   0  0  0  0  0  0  0  0  0  0  0  0
    0.2229    0.1156    2.7840 H   0  0  0  0  0  0  0  0  0  0  0  0
   -4.4716    0.1585    0.3094 C   0  0  0  0  0  0  0  0  0  0  0  0
   -5.5031    0.1184   -1.8100 C   0  0  0  0  0  0  0  0  0  0  0  0
   -5.1850    0.0784   -2.8661 H   0  0  0  0  0  0  0  0  0  0  0  0
   -6.1039    1.0293   -1.6151 H   0  0  0  0  0  0  0  0  0  0  0  0
   -6.1191   -0.7669   -1.5548 H   0  0  0  0  0  0  0  0  0  0  0  0
  1 12  1  0  0  0  0
  3 10  1  0  0  0  0
  4  8  1  0  0  0  0
  5  3  1  0  0  0  0
  5  7  1  0  0  0  0
  6  5  1  0  0  0  0
  7  4  2  0  0  0  0
  8  9  1  0  0  0  0
 10 11  1  0  0  0  0
 10  8  2  0  0  0  0
 12  2  2  0  0  0  0
 12  7  1  0  0  0  0
 13 15  1  0  0  0  0
 13 16  1  0  0  0  0
 13  1  1  0  0  0  0
 14 13  1  0  0  0  0
M  END
