2
q = 0.0, confidence = 1.0

 28 28  0  0  1  0  0  0  0  0999 V2000
    4.0580   -1.0095   -1.1002 N   0  0  0  0  0  0  0  0  0  0  0  0
    2.0400   -0.4395   -0.6839 N   0  0  0  0  0  2  0  0  0  0  0  0
    3.0559   -1.1673   -0.2018 C   0  0  1  0  0  3  0  0  0  0  0  0
    3.6469   -0.1797   -2.1011 N   0  0  0  0  0  0  0  0  0  0  0  0
    2.4293    0.1499   -1.8383 N   0  0  0  0  0  0  0  0  0  0  0  0
    5.7424   -0.2175    0.9787 O   0  0  0  0  0  0  0  0  0  0  0  0
    6.2338   -0.7848    0.0254 C   0  0  0  0  0  0  0  0  0  0  0  0
    5.4193   -1.4861   -1.0666 C   0  0  0  0  0  0  0  0  0  0  0  0
    5.8617   -1.2999   -2.0623 H   0  0  0  0  0  0  0  0  0  0  0  0
    5.4411   -2.5808   -0.8853 H   0  0  0  0  0  0  0  0  0  0  0  0
    3.0511   -1.9726    1.0398 C   0  0  0  0  0  0  0  0  0  0  0  0
    3.9320   -2.6364    1.1017 H   0  0  0  0  0  0  0  0  0  0  0  0
    2.1099   -2.5621    1.0560 H   0  0  0  0  0  0  0  0  0  0  0  0
    3.0587   -1.2961    1.9174 H   0  0  0  0  0  0  0  0  0  0  0  0
    7.5433   -0.9373   -0.2306 O   0  0  0  0  0  0  0  0  0  0  0  0
    8.4829   -0.3325    0.7010 C   0  0  0  0  0  0  0  0  0  0  0  0
    9.2716   -1.0955    0.8495 H   0  0  0  0  0  0  0  0  0  0  0  0
    7.9561   -0.1512    1.6592 H   0  0  0  0  0  0  0  0  0  0  0  0
    9.0585    0.9540    0.1256 C   0  0  0  0  0  0  0  0  0  0  0  0
    9.5789    0.7243   -0.8303 H   0  0  0  0  0  0  0  0  0  0  0  0
    9.8497    1.2959    0.8295 H   0  0  0  0  0  0  0  0  0  0  0  0
    8.0375    2.0764   -0.0907 C   0  0  0  0  0  0  0  0  0  0  0  0
    7.2673    1.7387   -0.8178 H   0  0  0  0  0  0  0  0  0  0  0  0
    7.4892    2.2633    0.8576 H   0  0  0  0  0  0  0  0  0  0  0  0
    8.6758    3.3699   -0.5970 C   0  0  0  0  0  0  0  0  0  0  0  0
    9.4217    3.7627    0.1253 H   0  0  0  0  0  0  0  0  0  0  0  0
    7.9163    4.1605   -0.7568 H   0  0  0  0  0  0  0  0  0  0  0  0
    9.2019    3.2114   -1.5616 H   0  0  0  0  0  0  0  0  0  0  0  0
  1  8  1  0  0  0  0
  1  3  1  0  0  0  0
  2  3  1  0  0  0  0
  3 11  1  6  0  0  0
  4  5  2  0  0  0  0
  4  1  1  0  0  0  0
  5  2  1  0  0  0  0
  7  6  2  0  0  0  0
  8 10  1  0  0  0  0
  8  7  1  0  0  0  0
  9  8  1  0  0  0  0
 11 13  1  0  0  0  0
 11 12  1  0  0  0  0
 11 14  1  0  0  0  0
 15  7  1  0  0  0  0
 15 16  1  0  0  0  0
 16 17  1  0  0  0  0
 16 18  1  0  0  0  0
 19 16  1  0  0  0  0
 19 21  1  0  0  0  0
 20 19  1  0  0  0  0
 22 19  1  0  0  0  0
 22 24  1  0  0  0  0
 23 22  1  0  0  0  0
 25 22  1  0  0  0  0
 25 26  1  0  0  0  0
 27 25  1  0  0  0  0
 28 25  1  0  0  0  0
M  END
