10
q = -1.0, confidence = 0.002

 18 17  0  0  0  0  0  0  0  0999 V2000
   -4.8383   -1.8065   -0.0701 C   0  0  0  0  0  0  0  0  0  0  0  0
   -6.0587   -1.7904   -0.0205 O   0  0  0  0  0  0  0  0  0  0  0  0
   -4.1297   -2.9792   -0.0982 O   0  0  0  0  0  0  0  0  0  0  0  0
   -4.9345   -4.1528   -0.0639 C   0  0  0  0  0  0  0  0  0  0  0  0
   -5.5506   -4.1958    0.8589 H   0  0  0  0  0  0  0  0  0  0  0  0
   -4.2330   -5.0067   -0.0945 H   0  0  0  0  0  0  0  0  0  0  0  0
   -5.6281   -4.1951   -0.9299 H   0  0  0  0  0  0  0  0  0  0  0  0
   -3.9383   -0.6278   -0.1092 C   0  0  0  0  0  0  0  0  0  0  0  0
   -2.6175   -0.8893   -0.1657 N   0  0  0  0  0  0  0  0  0  0  0  0
   -1.7183    0.0259   -0.2130 N   0  0  0  0  0  2  0  0  0  0  0  0
   -4.4299    0.7532   -0.0623 C   0  0  0  0  0  0  0  0  0  0  0  0
   -3.6828    1.7522   -0.0957 O   0  0  0  0  0  0  0  0  0  0  0  0
   -5.7688    0.8976    0.0320 O   0  0  0  0  0  0  0  0  0  0  0  0
   -6.2381    2.2439    0.0876 C   0  0  0  0  0  0  0  0  0  0  0  0
   -7.3391    2.1764    0.1484 H   0  0  0  0  0  0  0  0  0  0  0  0
   -5.9355    2.8138   -0.8152 H   0  0  0  0  0  0  0  0  0  0  0  0
   -5.8358    2.7747    0.9754 H   0  0  0  0  0  0  0  0  0  0  0  0
   -2.1026    0.9970   -0.2107 H   0  0  0  0  0  0  0  0  0  0  0  0
  1  2  2  0  0  0  0
  3  1  1  0  0  0  0
  3  4  1  0  0  0  0
  4  5  1  0  0  0  0
  6  4  1  0  0  0  0
  7  4  1  0  0  0  0
  8  1  1  0  0  0  0
  8 11  1  0  0  0  0
  9  8  2  0  0  0  0
 10 18  1  0  0  0  0
 10  9  1  0  0  0  0
 11 13  1  0  0  0  0
 12 11  2  0  0  0  0
 13 14  1  0  0  0  0
 14 15  1  0  0  0  0
 14 17  1  0  0  0  0
 16 14  1  0  0  0  0
M  END
