1
q = -1.0, confidence = 0.0

 28 29  0  0  0  0  0  0  0  0999 V2000
    1.3246    1.4723   -0.8757 N   0  0  0  0  0  0  0  0  0  0  0  0
    0.8199    2.5052   -1.6684 C   0  0  0  0  0  0  0  0  0  0  0  0
   -0.2111    2.8599   -1.5359 H   0  0  0  0  0  0  0  0  0  0  0  0
    1.8190    2.9632   -2.5162 C   0  0  0  0  0  0  0  0  0  0  0  0
    1.7307    3.7841   -3.2382 H   0  0  0  0  0  0  0  0  0  0  0  0
    2.9880    2.1809   -2.2397 C   0  0  0  0  0  0  0  0  0  0  0  0
    3.9729    2.2738   -2.7133 H   0  0  0  0  0  0  0  0  0  0  0  0
    2.6607    1.2770   -1.2294 C   0  0  0  0  0  3  0  0  0  0  0  0
    3.6065    1.7600    1.4881 C   0  0  0  0  0  0  0  0  0  0  0  0
    2.5266    1.7704    1.7421 H   0  0  0  0  0  0  0  0  0  0  0  0
    3.7808    2.6518    0.8527 H   0  0  0  0  0  0  0  0  0  0  0  0
    4.1797    1.8729    2.4284 H   0  0  0  0  0  0  0  0  0  0  0  0
    3.3287   -1.2220   -2.6160 C   0  0  0  0  0  0  0  0  0  0  0  0
    2.2207   -1.1514   -2.6301 H   0  0  0  0  0  0  0  0  0  0  0  0
    3.6201   -2.2335   -2.9591 H   0  0  0  0  0  0  0  0  0  0  0  0
    3.6877   -0.4851   -3.3620 H   0  0  0  0  0  0  0  0  0  0  0  0
    6.1094   -2.6403    1.3791 C   0  0  0  0  0  0  0  0  0  0  0  0
    5.8017   -2.8382    2.4262 H   0  0  0  0  0  0  0  0  0  0  0  0
    7.1522   -2.2587    1.4191 H   0  0  0  0  0  0  0  0  0  0  0  0
    6.1308   -3.6066    0.8386 H   0  0  0  0  0  0  0  0  0  0  0  0
    3.5121    0.2623   -0.5614 C   0  0  0  0  0  0  0  0  0  0  0  0
    3.8696   -0.9319   -1.2372 C   0  0  0  0  0  0  0  0  0  0  0  0
    4.7079   -1.8615   -0.5922 C   0  0  0  0  0  0  0  0  0  0  0  0
    4.9820   -2.7887   -1.1220 H   0  0  0  0  0  0  0  0  0  0  0  0
    5.1926   -1.6469    0.7096 C   0  0  0  0  0  0  0  0  0  0  0  0
    4.8080   -0.4640    1.3713 C   0  0  0  0  0  0  0  0  0  0  0  0
    5.1744   -0.2752    2.3941 H   0  0  0  0  0  0  0  0  0  0  0  0
    3.9829    0.4952    0.7591 C   0  0  0  0  0  0  0  0  0  0  0  0
  2  3  1  0  0  0  0
  2  1  2  0  0  0  0
  4  6  2  0  0  0  0
  4  2  1  0  0  0  0
  5  4  1  0  0  0  0
  6  8  1  0  0  0  0
  7  6  1  0  0  0  0
  8  1  1  0  0  0  0
  8 21  1  0  0  0  0
  9 10  1  0  0  0  0
  9 12  1  0  0  0  0
 11  9  1  0  0  0  0
 13 22  1  0  0  0  0
 14 13  1  0  0  0  0
 15 13  1  0  0  0  0
 16 13  1  0  0  0  0
 17 19  1  0  0  0  0
 17 18  1  0  0  0  0
 20 17  1  0  0  0  0
 21 28  1  0  0  0  0
 22 23  1  0  0  0  0
 22 21  2  0  0  0  0
 23 25  2  0  0  0  0
 24 23  1  0  0  0  0
 25 26  1  0  0  0  0
 25 17  1  0  0  0  0
 26 27  1  0  0  0  0
 28 26  2  0  0  0  0
 28  9  1  0  0  0  0
M  END
