25
q = 0.0, confidence = 0.994

 37 41  0  0  1  0  0  0  0  0999 V2000
    5.0542    0.6060    0.3102 C   0  0  0  0  0  0  0  0  0  0  0  0
    4.9634   -0.4023    0.7387 H   0  0  0  0  0  0  0  0  0  0  0  0
    4.0223    1.1061   -0.5520 C   0  0  0  0  0  0  0  0  0  0  0  0
    6.1548    1.3799    0.6301 C   0  0  0  0  0  0  0  0  0  0  0  0
    6.9313    0.9733    1.2953 H   0  0  0  0  0  0  0  0  0  0  0  0
    6.2922    2.7043    0.1181 C   0  0  0  0  0  0  0  0  0  0  0  0
    7.1784    3.3012    0.3787 H   0  0  0  0  0  0  0  0  0  0  0  0
    5.3055    3.2356   -0.6877 C   0  0  0  0  0  0  0  0  0  0  0  0
    5.3884    4.2634   -1.0728 H   0  0  0  0  0  0  0  0  0  0  0  0
    4.1459    2.4697   -1.0374 C   0  0  0  0  0  0  0  0  0  0  0  0
    1.9687    2.2832   -2.1736 C   0  0  0  0  0  0  0  0  0  0  0  0
    0.9309    2.8619   -2.9756 C   0  0  0  0  0  0  0  0  0  0  0  0
    1.0380    3.9119   -3.2885 H   0  0  0  0  0  0  0  0  0  0  0  0
   -0.1689    2.1208   -3.3581 C   0  0  0  0  0  0  0  0  0  0  0  0
   -0.9591    2.5713   -3.9759 H   0  0  0  0  0  0  0  0  0  0  0  0
   -0.2742    0.7525   -2.9703 C   0  0  0  0  0  0  0  0  0  0  0  0
   -1.1369    0.1598   -3.3082 H   0  0  0  0  0  0  0  0  0  0  0  0
    0.7004    0.1601   -2.1873 C   0  0  0  0  0  0  0  0  0  0  0  0
    0.6058   -0.9028   -1.9245 H   0  0  0  0  0  0  0  0  0  0  0  0
    1.8445    0.9034   -1.7385 C   0  0  0  0  0  0  0  0  0  0  0  0
    2.8725    0.3469   -0.9188 C   0  0  0  0  0  0  0  0  0  0  0  0
    3.1139    3.0194   -1.8192 C   0  0  0  0  0  0  0  0  0  0  0  0
    3.2057    4.0608   -2.1661 H   0  0  0  0  0  0  0  0  0  0  0  0
    2.7139   -1.0270   -0.4172 C   0  0  1  0  0  3  0  0  0  0  0  0
    1.6906   -1.4689    0.3323 N   0  0  0  0  0  2  0  0  0  0  0  0
    1.8990   -2.8244    0.5688 C   0  0  0  0  0  0  0  0  0  0  0  0
    1.1288   -3.7628    1.2771 C   0  0  0  0  0  0  0  0  0  0  0  0
    0.1810   -3.4668    1.7497 H   0  0  0  0  0  0  0  0  0  0  0  0
    1.6096   -5.0748    1.3348 C   0  0  0  0  0  0  0  0  0  0  0  0
    1.0330   -5.8377    1.8782 H   0  0  0  0  0  0  0  0  0  0  0  0
    2.8240   -5.4488    0.7073 C   0  0  0  0  0  0  0  0  0  0  0  0
    3.1653   -6.4919    0.7786 H   0  0  0  0  0  0  0  0  0  0  0  0
    3.6005   -4.5257   -0.0037 C   0  0  0  0  0  0  0  0  0  0  0  0
    4.5402   -4.8209   -0.4916 H   0  0  0  0  0  0  0  0  0  0  0  0
    3.1154   -3.2100   -0.0620 C   0  0  0  0  0  0  0  0  0  0  0  0
    3.5907   -2.0522   -0.6629 N   0  0  0  0  0  0  0  0  0  0  0  0
    4.4284   -1.9616   -1.2398 H   0  0  0  0  0  0  0  0  0  0  0  0
  1  4  1  0  0  0  0
  1  2  1  0  0  0  0
  3  1  2  0  0  0  0
  4  5  1  0  0  0  0
  6  7  1  0  0  0  0
  6  4  2  0  0  0  0
  8  6  1  0  0  0  0
  9  8  1  0  0  0  0
 10  8  2  0  0  0  0
 10  3  1  0  0  0  0
 11 22  2  0  0  0  0
 11 20  1  0  0  0  0
 12 11  1  0  0  0  0
 13 12  1  0  0  0  0
 14 12  2  0  0  0  0
 14 16  1  0  0  0  0
 15 14  1  0  0  0  0
 16 18  2  0  0  0  0
 17 16  1  0  0  0  0
 18 19  1  0  0  0  0
 18 20  1  0  0  0  0
 20 21  2  0  0  0  0
 21  3  1  0  0  0  0
 22 10  1  0  0  0  0
 23 22  1  0  0  0  0
 24 21  1  6  0  0  0
 24 25  1  0  0  0  0
 25 26  1  0  0  0  0
 26 27  1  0  0  0  0
 27 29  2  0  0  0  0
 27 28  1  0  0  0  0
 29 30  1  0  0  0  0
 31 32  1  0  0  0  0
 31 29  1  0  0  0  0
 33 31  2  0  0  0  0
 34 33  1  0  0  0  0
 35 33  1  0  0  0  0
 35 26  2  0  0  0  0
 36 24  1  0  0  0  0
 36 35  1  0  0  0  0
 37 36  1  0  0  0  0
M  END
