2
q = 0.0, confidence = 0.994

 37 40  0  0  0  0  0  0  0  0999 V2000
   -4.4159    0.0976   -0.1475 C   0  0  0  0  0  0  0  0  0  0  0  0
    2.2630   -0.1446    0.1042 N   0  0  0  0  0  2  0  0  0  0  0  0
   -2.9618    0.2202   -0.2558 C   0  0  0  0  0  0  0  0  0  0  0  0
   -2.6005    1.0522   -0.8847 H   0  0  0  0  0  0  0  0  0  0  0  0
   -0.5799   -0.3883    0.2561 C   0  0  0  0  0  0  0  0  0  0  0  0
   -6.6342    1.2197    0.0852 C   0  0  0  0  0  0  0  0  0  0  0  0
   -6.5177   -1.2338    0.0136 C   0  0  0  0  0  0  0  0  0  0  0  0
    0.0549    0.4446   -0.6994 C   0  0  0  0  0  0  0  0  0  0  0  0
   -0.5302    1.0188   -1.4316 H   0  0  0  0  0  0  0  0  0  0  0  0
    1.6688   -0.9530    1.0162 C   0  0  0  0  0  3  0  0  0  0  0  0
    2.3442   -1.5024    1.6885 H   0  0  0  0  0  0  0  0  0  0  0  0
   -7.2535   -0.0418    0.1327 C   0  0  0  0  0  0  0  0  0  0  0  0
   -8.3463   -0.0979    0.2595 H   0  0  0  0  0  0  0  0  0  0  0  0
   -5.0748   -1.1760   -0.1565 C   0  0  0  0  0  0  0  0  0  0  0  0
   -7.4016    2.4253    0.1890 C   0  0  0  0  0  0  0  0  0  0  0  0
   -8.4950    2.3399    0.2861 H   0  0  0  0  0  0  0  0  0  0  0  0
   -4.3930   -2.4161   -0.3870 C   0  0  0  0  0  0  0  0  0  0  0  0
   -3.3176   -2.4019   -0.6049 H   0  0  0  0  0  0  0  0  0  0  0  0
   -5.1915    1.2998   -0.0468 C   0  0  0  0  0  0  0  0  0  0  0  0
    1.4427    0.5374   -0.7370 C   0  0  0  0  0  0  0  0  0  0  0  0
    1.9402    1.1823   -1.4762 H   0  0  0  0  0  0  0  0  0  0  0  0
   -7.1760   -2.5069    0.0351 C   0  0  0  0  0  0  0  0  0  0  0  0
   -8.2670   -2.5251    0.1829 H   0  0  0  0  0  0  0  0  0  0  0  0
    0.2870   -1.1001    1.1205 C   0  0  0  0  0  0  0  0  0  0  0  0
   -0.1245   -1.7729    1.8875 H   0  0  0  0  0  0  0  0  0  0  0  0
   -4.5989    2.6044   -0.0280 C   0  0  0  0  0  0  0  0  0  0  0  0
   -3.5058    2.7038   -0.0740 H   0  0  0  0  0  0  0  0  0  0  0  0
   -6.4693   -3.6789   -0.1412 C   0  0  0  0  0  0  0  0  0  0  0  0
   -6.9870   -4.6496   -0.1259 H   0  0  0  0  0  0  0  0  0  0  0  0
   -6.7902    3.6628    0.1726 C   0  0  0  0  0  0  0  0  0  0  0  0
   -7.3901    4.5817    0.2516 H   0  0  0  0  0  0  0  0  0  0  0  0
   -5.3714    3.7484    0.0666 C   0  0  0  0  0  0  0  0  0  0  0  0
   -4.8845    4.7353    0.0706 H   0  0  0  0  0  0  0  0  0  0  0  0
   -5.0647   -3.6254   -0.3773 C   0  0  0  0  0  0  0  0  0  0  0  0
   -4.5100   -4.5563   -0.5695 H   0  0  0  0  0  0  0  0  0  0  0  0
   -2.0244   -0.5391    0.3820 C   0  0  0  0  0  0  0  0  0  0  0  0
   -2.3587   -1.3077    1.0977 H   0  0  0  0  0  0  0  0  0  0  0  0
  1 19  1  0  0  0  0
  2 10  1  0  0  0  0
  3  1  1  0  0  0  0
  3 36  2  0  0  0  0
  4  3  1  0  0  0  0
  5 36  1  0  0  0  0
  5 24  2  0  0  0  0
  6 12  1  0  0  0  0
  6 15  1  0  0  0  0
  7 22  1  0  0  0  0
  7 12  2  0  0  0  0
  8  5  1  0  0  0  0
  9  8  1  0  0  0  0
 10 24  1  0  0  0  0
 10 11  1  0  0  0  0
 12 13  1  0  0  0  0
 14  1  2  0  0  0  0
 14  7  1  0  0  0  0
 15 16  1  0  0  0  0
 17 34  2  0  0  0  0
 17 14  1  0  0  0  0
 18 17  1  0  0  0  0
 19 26  1  0  0  0  0
 19  6  2  0  0  0  0
 20  8  2  0  0  0  0
 20  2  1  0  0  0  0
 21 20  1  0  0  0  0
 22 23  1  0  0  0  0
 24 25  1  0  0  0  0
 26 32  2  0  0  0  0
 27 26  1  0  0  0  0
 28 29  1  0  0  0  0
 28 22  2  0  0  0  0
 30 15  2  0  0  0  0
 30 31  1  0  0  0  0
 32 33  1  0  0  0  0
 32 30  1  0  0  0  0
 34 28  1  0  0  0  0
 35 34  1  0  0  0  0
 36 37  1  0  0  0  0
M  END
