5
q = 0.0, confidence = 0.996

 15 14  0  0  0  0  0  0  0  0999 V2000
   -0.6193    2.5971    2.0414 N   0  0  0  0  0  0  0  0  0  0  0  0
   -1.4927    2.2680    2.4615 H   0  0  0  0  0  0  0  0  0  0  0  0
   -0.3451    3.5370    2.3595 H   0  0  0  0  0  0  0  0  0  0  0  0
   -0.5985    2.3873    0.7039 N   0  0  0  0  0  2  0  0  0  0  0  0
   -0.4037    1.6357   -1.8165 N   0  0  0  0  0  2  0  0  0  0  0  0
   -0.2611    1.1558   -3.0758 N   0  0  0  0  0  0  0  0  0  0  0  0
   -0.1307    1.8615   -3.8124 H   0  0  0  0  0  0  0  0  0  0  0  0
   -0.9508    0.4351   -3.2969 H   0  0  0  0  0  0  0  0  0  0  0  0
    0.1151    3.1728   -0.0815 C   0  0  0  0  0  0  0  0  0  0  0  0
    0.1669    2.7666   -1.4652 C   0  0  0  0  0  0  0  0  0  0  0  0
    0.7127    3.3767   -2.2054 H   0  0  0  0  0  0  0  0  0  0  0  0
    0.8813    4.3619    0.4143 C   0  0  0  0  0  0  0  0  0  0  0  0
    0.2485    5.0334    1.0348 H   0  0  0  0  0  0  0  0  0  0  0  0
    1.2763    4.9625   -0.4246 H   0  0  0  0  0  0  0  0  0  0  0  0
    1.7466    4.0372    1.0321 H   0  0  0  0  0  0  0  0  0  0  0  0
  1  3  1  0  0  0  0
  1  2  1  0  0  0  0
  4  1  1  0  0  0  0
  5 10  1  0  0  0  0
  6  5  1  0  0  0  0
  7  6  1  0  0  0  0
  8  6  1  0  0  0  0
  9 12  1  0  0  0  0
  9  4  1  0  0  0  0
 10  9  2  0  0  0  0
 11 10  1  0  0  0  0
 12 15  1  0  0  0  0
 12 13  1  0  0  0  0
 14 12  1  0  0  0  0
M  END
