2
q = 0.0, confidence = 0.994

 23 25  0  0  1  0  0  0  0  0999 V2000
   -1.0328   -1.3387    0.0813 S   0  0  0  0  0  0  0  0  0  0  0  0
    0.2814    1.0166   -0.0582 N   0  0  0  0  0  2  0  0  0  0  0  0
   -2.1152    1.0324   -0.0647 N   0  0  0  0  0  0  0  0  0  0  0  0
   -0.8809    0.4152   -0.0231 C   0  0  1  0  0  3  0  0  0  0  0  0
   -2.7982   -1.1996    0.0403 C   0  0  0  0  0  0  0  0  0  0  0  0
   -3.7429   -2.2301    0.0786 C   0  0  0  0  0  0  0  0  0  0  0  0
   -3.4232   -3.2799    0.1478 H   0  0  0  0  0  0  0  0  0  0  0  0
   -5.1068   -1.8935    0.0258 C   0  0  0  0  0  0  0  0  0  0  0  0
   -5.8621   -2.6922    0.0546 H   0  0  0  0  0  0  0  0  0  0  0  0
   -5.5094   -0.5503   -0.0676 C   0  0  0  0  0  0  0  0  0  0  0  0
   -6.5800   -0.3029   -0.1148 H   0  0  0  0  0  0  0  0  0  0  0  0
   -4.5647    0.4891   -0.1073 C   0  0  0  0  0  0  0  0  0  0  0  0
   -4.8886    1.5359   -0.1915 H   0  0  0  0  0  0  0  0  0  0  0  0
   -3.2031    0.1559   -0.0458 C   0  0  0  0  0  0  0  0  0  0  0  0
   -2.2218    2.4899   -0.1096 C   0  0  0  0  0  0  0  0  0  0  0  0
   -3.1077    2.7909    0.4848 H   0  0  0  0  0  0  0  0  0  0  0  0
   -2.3949    2.8170   -1.1589 H   0  0  0  0  0  0  0  0  0  0  0  0
   -0.9466    3.1083    0.4621 C   0  0  0  0  0  0  0  0  0  0  0  0
   -0.9550    4.2018    0.2876 H   0  0  0  0  0  0  0  0  0  0  0  0
   -0.9195    2.9487    1.5604 H   0  0  0  0  0  0  0  0  0  0  0  0
    0.2953    2.4802   -0.1713 C   0  0  0  0  0  0  0  0  0  0  0  0
    0.3748    2.7569   -1.2472 H   0  0  0  0  0  0  0  0  0  0  0  0
    1.2152    2.8509    0.3189 H   0  0  0  0  0  0  0  0  0  0  0  0
  3 14  1  0  0  0  0
  3  4  1  0  0  0  0
  4  2  1  6  0  0  0
  4  1  1  0  0  0  0
  5  6  1  0  0  0  0
  5  1  1  0  0  0  0
  6  7  1  0  0  0  0
  8  9  1  0  0  0  0
  8  6  2  0  0  0  0
 10  8  1  0  0  0  0
 11 10  1  0  0  0  0
 12 10  2  0  0  0  0
 12 14  1  0  0  0  0
 13 12  1  0  0  0  0
 14  5  2  0  0  0  0
 15  3  1  0  0  0  0
 15 18  1  0  0  0  0
 15 16  1  0  0  0  0
 17 15  1  0  0  0  0
 18 20  1  0  0  0  0
 19 18  1  0  0  0  0
 21  2  1  0  0  0  0
 21 23  1  0  0  0  0
 21 18  1  0  0  0  0
 22 21  1  0  0  0  0
M  END
