2
q = 0.0, confidence = 0.972

 30 33  0  0  1  0  0  0  0  0999 V2000
    2.1194   -1.6479    0.3323 S   0  0  0  0  0  0  0  0  0  0  0  0
    0.0362    0.0609   -0.4157 N   0  0  0  0  0  2  0  0  0  0  0  0
    2.1711    0.8225   -0.4861 N   0  0  0  0  0  0  0  0  0  0  0  0
    1.3004   -0.2088   -0.2246 C   0  0  1  0  0  3  0  0  0  0  0  0
    3.6721   -0.7676    0.2723 C   0  0  0  0  0  0  0  0  0  0  0  0
    4.9380   -1.2492    0.6143 C   0  0  0  0  0  0  0  0  0  0  0  0
    5.0707   -2.2827    0.9658 H   0  0  0  0  0  0  0  0  0  0  0  0
    6.0378   -0.3782    0.5053 C   0  0  0  0  0  0  0  0  0  0  0  0
    7.0406   -0.7409    0.7732 H   0  0  0  0  0  0  0  0  0  0  0  0
    5.8659    0.9448    0.0627 C   0  0  0  0  0  0  0  0  0  0  0  0
    6.7374    1.6116   -0.0125 H   0  0  0  0  0  0  0  0  0  0  0  0
    4.5969    1.4350   -0.2884 C   0  0  0  0  0  0  0  0  0  0  0  0
    4.4612    2.4689   -0.6368 H   0  0  0  0  0  0  0  0  0  0  0  0
    3.4993    0.5683   -0.1840 C   0  0  0  0  0  0  0  0  0  0  0  0
    1.4046    2.0275   -0.7869 C   0  0  0  0  0  0  0  0  0  0  0  0
    1.7649    2.5228   -1.7095 H   0  0  0  0  0  0  0  0  0  0  0  0
    1.4692    2.7486    0.0566 H   0  0  0  0  0  0  0  0  0  0  0  0
   -0.0516    1.4505   -0.9452 C   0  0  2  0  0  0  0  0  0  0  0  0
   -0.3077    1.3782   -2.0244 H   0  0  0  0  0  0  0  0  0  0  0  0
   -1.1024    2.2932   -0.2555 C   0  0  0  0  0  0  0  0  0  0  0  0
   -1.3107    2.1893    1.1336 C   0  0  0  0  0  0  0  0  0  0  0  0
   -0.7487    1.4418    1.7139 H   0  0  0  0  0  0  0  0  0  0  0  0
   -2.2541    3.0084    1.7689 C   0  0  0  0  0  0  0  0  0  0  0  0
   -2.4216    2.9084    2.8518 H   0  0  0  0  0  0  0  0  0  0  0  0
   -2.9933    3.9426    1.0249 C   0  0  0  0  0  0  0  0  0  0  0  0
   -3.7376    4.5808    1.5245 H   0  0  0  0  0  0  0  0  0  0  0  0
   -2.7911    4.0492   -0.3594 C   0  0  0  0  0  0  0  0  0  0  0  0
   -3.3765    4.7699   -0.9500 H   0  0  0  0  0  0  0  0  0  0  0  0
   -1.8521    3.2240   -0.9967 C   0  0  0  0  0  0  0  0  0  0  0  0
   -1.7075    3.2947   -2.0867 H   0  0  0  0  0  0  0  0  0  0  0  0
  3  4  1  0  0  0  0
  3 14  1  0  0  0  0
  4  2  1  1  0  0  0
  4  1  1  0  0  0  0
  5  1  1  0  0  0  0
  5  6  1  0  0  0  0
  6  7  1  0  0  0  0
  8  6  2  0  0  0  0
  8  9  1  0  0  0  0
 10  8  1  0  0  0  0
 11 10  1  0  0  0  0
 12 14  1  0  0  0  0
 12 10  2  0  0  0  0
 13 12  1  0  0  0  0
 14  5  2  0  0  0  0
 15  3  1  0  0  0  0
 15 17  1  0  0  0  0
 16 15  1  0  0  0  0
 18 19  1  6  0  0  0
 18 15  1  0  0  0  0
 18  2  1  0  0  0  0
 18 20  1  0  0  0  0
 20 21  1  0  0  0  0
 21 22  1  0  0  0  0
 21 23  2  0  0  0  0
 23 24  1  0  0  0  0
 25 26  1  0  0  0  0
 25 23  1  0  0  0  0
 27 25  2  0  0  0  0
 28 27  1  0  0  0  0
 29 27  1  0  0  0  0
 29 20  2  0  0  0  0
 30 29  1  0  0  0  0
M  END
