2
q = -1.0, confidence = 0.0

 40 40  0  0  0  0  0  0  0  0999 V2000
    0.6585   -0.0016    2.3355 Si  0  0  0  0  0  0  0  0  0  0  0  0
    0.6444    0.0299    0.5447 N   0  0  0  0  0  2  0  0  0  0  0  0
    1.8873    0.3093   -0.1281 C   0  0  0  0  0  0  0  0  0  0  0  0
    2.1959    1.6561   -0.4990 C   0  0  0  0  0  0  0  0  0  0  0  0
    3.4450    1.9311   -1.0821 C   0  0  0  0  0  0  0  0  0  0  0  0
    3.6846    2.9679   -1.3627 H   0  0  0  0  0  0  0  0  0  0  0  0
    4.3853    0.9204   -1.3153 C   0  0  0  0  0  0  0  0  0  0  0  0
    5.3579    1.1598   -1.7713 H   0  0  0  0  0  0  0  0  0  0  0  0
    4.0699   -0.3972   -0.9726 C   0  0  0  0  0  0  0  0  0  0  0  0
    4.8008   -1.1979   -1.1670 H   0  0  0  0  0  0  0  0  0  0  0  0
    2.5421   -2.1884   -0.0658 C   0  0  0  0  0  0  0  0  0  0  0  0
    1.5634   -2.2123    0.4522 H   0  0  0  0  0  0  0  0  0  0  0  0
    3.5822   -2.8232    0.8707 C   0  0  0  0  0  0  0  0  0  0  0  0
    3.3013   -3.8683    1.1164 H   0  0  0  0  0  0  0  0  0  0  0  0
    3.6711   -2.2627    1.8224 H   0  0  0  0  0  0  0  0  0  0  0  0
    4.5895   -2.8520    0.4065 H   0  0  0  0  0  0  0  0  0  0  0  0
    2.4034   -3.0022   -1.3650 C   0  0  0  0  0  0  0  0  0  0  0  0
    1.6496   -2.5522   -2.0414 H   0  0  0  0  0  0  0  0  0  0  0  0
    2.1028   -4.0502   -1.1554 H   0  0  0  0  0  0  0  0  0  0  0  0
    3.3640   -3.0335   -1.9193 H   0  0  0  0  0  0  0  0  0  0  0  0
    1.2125    2.7928   -0.2560 C   0  0  0  0  0  0  0  0  0  0  0  0
    0.2246    2.3157   -0.1294 H   0  0  0  0  0  0  0  0  0  0  0  0
    1.5315    3.5634    1.0372 C   0  0  0  0  0  0  0  0  0  0  0  0
    2.5422    4.0209    0.9912 H   0  0  0  0  0  0  0  0  0  0  0  0
    1.5007    2.9089    1.9299 H   0  0  0  0  0  0  0  0  0  0  0  0
    0.7973    4.3807    1.1960 H   0  0  0  0  0  0  0  0  0  0  0  0
    1.1021    3.7526   -1.4489 C   0  0  0  0  0  0  0  0  0  0  0  0
    0.8856    3.1993   -2.3827 H   0  0  0  0  0  0  0  0  0  0  0  0
    2.0277    4.3477   -1.5956 H   0  0  0  0  0  0  0  0  0  0  0  0
    0.2762    4.4746   -1.2815 H   0  0  0  0  0  0  0  0  0  0  0  0
    2.3999    0.3740    2.9679 C   0  0  0  0  0  0  0  0  0  0  0  0
    2.3717    0.5079    4.0689 H   0  0  0  0  0  0  0  0  0  0  0  0
    2.8275    1.2876    2.5124 H   0  0  0  0  0  0  0  0  0  0  0  0
    3.0887   -0.4633    2.7396 H   0  0  0  0  0  0  0  0  0  0  0  0
    0.1197   -1.6585    3.0709 C   0  0  0  0  0  0  0  0  0  0  0  0
   -0.9522   -1.8565    2.8818 H   0  0  0  0  0  0  0  0  0  0  0  0
    0.2840   -1.6465    4.1689 H   0  0  0  0  0  0  0  0  0  0  0  0
    0.7089   -2.4971    2.6469 H   0  0  0  0  0  0  0  0  0  0  0  0
    2.8346   -0.7271   -0.3827 C   0  0  0  0  0  0  0  0  0  0  0  0
   -0.2888    1.0518    2.8588 H   0  0  0  0  0  0  0  0  0  0  0  0
  1 40  1  0  0  0  0
  1 31  1  0  0  0  0
  1 35  1  0  0  0  0
  2  1  1  0  0  0  0
  3  2  1  0  0  0  0
  4 21  1  0  0  0  0
  4  3  2  0  0  0  0
  5  4  1  0  0  0  0
  6  5  1  0  0  0  0
  7  5  2  0  0  0  0
  7  9  1  0  0  0  0
  8  7  1  0  0  0  0
  9 39  2  0  0  0  0
 10  9  1  0  0  0  0
 11 12  1  0  0  0  0
 11 13  1  0  0  0  0
 13 14  1  0  0  0  0
 13 15  1  0  0  0  0
 16 13  1  0  0  0  0
 17 19  1  0  0  0  0
 17 11  1  0  0  0  0
 18 17  1  0  0  0  0
 20 17  1  0  0  0  0
 21 22  1  0  0  0  0
 21 23  1  0  0  0  0
 23 26  1  0  0  0  0
 23 25  1  0  0  0  0
 24 23  1  0  0  0  0
 27 30  1  0  0  0  0
 27 21  1  0  0  0  0
 28 27  1  0  0  0  0
 29 27  1  0  0  0  0
 31 32  1  0  0  0  0
 33 31  1  0  0  0  0
 34 31  1  0  0  0  0
 35 37  1  0  0  0  0
 36 35  1  0  0  0  0
 38 35  1  0  0  0  0
 39  3  1  0  0  0  0
 39 11  1  0  0  0  0
M  END
