1
q = 0.0, confidence = 0.998

 24 25  0  0  1  0  0  0  0  0999 V2000
    0.2771    2.0043   -0.1658 N   0  0  0  0  0  2  0  0  0  0  0  0
   -0.8443    2.9553   -0.2431 C   0  0  0  0  0  0  0  0  0  0  0  0
   -1.3604    2.9466    0.7419 H   0  0  0  0  0  0  0  0  0  0  0  0
   -1.5712    2.6187   -1.0087 H   0  0  0  0  0  0  0  0  0  0  0  0
   -0.1587    4.2941   -0.5699 C   0  0  0  0  0  0  0  0  0  0  0  0
   -0.6799    5.1559   -0.1145 H   0  0  0  0  0  0  0  0  0  0  0  0
   -0.1384    4.4492   -1.6667 H   0  0  0  0  0  0  0  0  0  0  0  0
    1.2780    4.1091   -0.0413 C   0  0  0  0  0  0  0  0  0  0  0  0
    2.0604    4.6154   -0.6381 H   0  0  0  0  0  0  0  0  0  0  0  0
    1.3996    4.4527    1.0104 H   0  0  0  0  0  0  0  0  0  0  0  0
    1.4444    2.6064   -0.0537 C   0  0  1  0  0  3  0  0  0  0  0  0
    2.6551    1.9158    0.0644 C   0  0  0  0  0  0  0  0  0  0  0  0
    3.7135    1.2792    0.0985 C   0  0  0  0  0  0  0  0  0  0  0  0
    4.8789    0.4777    0.0995 C   0  0  0  0  0  0  0  0  0  0  0  0
    6.1202    0.9804    0.5720 C   0  0  0  0  0  0  0  0  0  0  0  0
    6.1786    2.0115    0.9485 H   0  0  0  0  0  0  0  0  0  0  0  0
    7.2497    0.1576    0.5600 C   0  0  0  0  0  0  0  0  0  0  0  0
    8.2105    0.5436    0.9309 H   0  0  0  0  0  0  0  0  0  0  0  0
    7.1613   -1.1580    0.0712 C   0  0  0  0  0  0  0  0  0  0  0  0
    8.0563   -1.7980    0.0604 H   0  0  0  0  0  0  0  0  0  0  0  0
    5.9376   -1.6588   -0.4092 C   0  0  0  0  0  0  0  0  0  0  0  0
    5.8794   -2.6850   -0.8011 H   0  0  0  0  0  0  0  0  0  0  0  0
    4.7963   -0.8537   -0.3949 C   0  0  0  0  0  0  0  0  0  0  0  0
    3.8337   -1.2167   -0.7844 H   0  0  0  0  0  0  0  0  0  0  0  0
  1 11  1  0  0  0  0
  2  1  1  0  0  0  0
  2  3  1  0  0  0  0
  4  2  1  0  0  0  0
  5  2  1  0  0  0  0
  5  6  1  0  0  0  0
  5  8  1  0  0  0  0
  7  5  1  0  0  0  0
  8 10  1  0  0  0  0
  9  8  1  0  0  0  0
 11  8  1  0  0  0  0
 11 12  1  1  0  0  0
 12 13  3  0  0  0  0
 13 14  1  0  0  0  0
 14 15  1  0  0  0  0
 15 16  1  0  0  0  0
 17 15  2  0  0  0  0
 17 18  1  0  0  0  0
 19 17  1  0  0  0  0
 20 19  1  0  0  0  0
 21 23  1  0  0  0  0
 21 19  2  0  0  0  0
 22 21  1  0  0  0  0
 23 14  2  0  0  0  0
 24 23  1  0  0  0  0
M  END
