1
q = 0.0, confidence = 1.0

 38 41  0  0  0  0  0  0  0  0999 V2000
    1.3886    0.7823   -0.0668 N   0  0  0  0  0  2  0  0  0  0  0  0
    2.7579    0.6754   -0.1475 C   0  0  0  0  0  0  0  0  0  0  0  0
    3.4140   -0.5625    0.0860 C   0  0  0  0  0  0  0  0  0  0  0  0
    2.8125   -1.4504    0.3279 H   0  0  0  0  0  0  0  0  0  0  0  0
    4.7970   -0.6367    0.0119 C   0  0  0  0  0  0  0  0  0  0  0  0
    5.2960   -1.5988    0.1987 H   0  0  0  0  0  0  0  0  0  0  0  0
    5.5734    0.5105   -0.3018 C   0  0  0  0  0  0  0  0  0  0  0  0
    6.6689    0.4287   -0.3581 H   0  0  0  0  0  0  0  0  0  0  0  0
    4.9537    1.7278   -0.5361 C   0  0  0  0  0  3  0  0  0  0  0  0
    5.5428    2.6241   -0.7825 H   0  0  0  0  0  0  0  0  0  0  0  0
    3.5358    1.8421   -0.4638 C   0  0  0  0  0  0  0  0  0  0  0  0
    2.8461    3.0564   -0.7165 C   0  0  0  0  0  0  0  0  0  0  0  0
    3.4264    3.9452   -1.0120 H   0  0  0  0  0  0  0  0  0  0  0  0
    1.4639    3.1374   -0.6164 C   0  0  0  0  0  0  0  0  0  0  0  0
    0.7576    1.9488   -0.2407 C   0  0  0  0  0  0  0  0  0  0  0  0
   -0.7368    1.9682   -0.0811 C   0  0  0  0  0  0  0  0  0  0  0  0
   -1.4038    1.3630   -1.0504 N   0  0  0  0  0  0  0  0  0  0  0  0
   -2.7622    1.2962   -0.9796 C   0  0  0  0  0  0  0  0  0  0  0  0
   -3.4718    0.6019   -2.0009 C   0  0  0  0  0  0  0  0  0  0  0  0
   -2.8824    0.1371   -2.8042 H   0  0  0  0  0  0  0  0  0  0  0  0
   -4.8545    0.5164   -1.9460 C   0  0  0  0  0  0  0  0  0  0  0  0
   -5.4030   -0.0266   -2.7304 H   0  0  0  0  0  0  0  0  0  0  0  0
   -5.5752    1.1183   -0.8769 C   0  0  0  0  0  0  0  0  0  0  0  0
   -6.6725    1.0384   -0.8511 H   0  0  0  0  0  0  0  0  0  0  0  0
   -4.9077    1.7929    0.1352 C   0  0  0  0  0  0  0  0  0  0  0  0
   -5.4633    2.2479    0.9701 H   0  0  0  0  0  0  0  0  0  0  0  0
   -3.4873    1.8938    0.1131 C   0  0  0  0  0  0  0  0  0  0  0  0
   -2.7272    2.5337    1.1295 C   0  0  0  0  0  0  0  0  0  0  0  0
   -3.2521    2.9731    1.9934 H   0  0  0  0  0  0  0  0  0  0  0  0
   -1.3391    2.5832    1.0710 C   0  0  0  0  0  0  0  0  0  0  0  0
    0.7042    4.3887   -0.9647 C   0  0  0  0  0  0  0  0  0  0  0  0
    0.0102    4.1941   -1.8079 H   0  0  0  0  0  0  0  0  0  0  0  0
    1.3937    5.2018   -1.2597 H   0  0  0  0  0  0  0  0  0  0  0  0
    0.0805    4.7497   -0.1231 H   0  0  0  0  0  0  0  0  0  0  0  0
   -0.5100    3.1516    2.1892 C   0  0  0  0  0  0  0  0  0  0  0  0
    0.0413    2.3280    2.6914 H   0  0  0  0  0  0  0  0  0  0  0  0
   -1.1467    3.6506    2.9441 H   0  0  0  0  0  0  0  0  0  0  0  0
    0.2454    3.8823    1.8367 H   0  0  0  0  0  0  0  0  0  0  0  0
  2  1  1  0  0  0  0
  2  3  2  0  0  0  0
  3  4  1  0  0  0  0
  5  3  1  0  0  0  0
  5  6  1  0  0  0  0
  7  5  2  0  0  0  0
  8  7  1  0  0  0  0
  9 11  1  0  0  0  0
  9  7  1  0  0  0  0
 10  9  1  0  0  0  0
 11  2  1  0  0  0  0
 12 14  1  0  0  0  0
 12 11  2  0  0  0  0
 13 12  1  0  0  0  0
 14 15  2  0  0  0  0
 15 16  1  0  0  0  0
 15  1  1  0  0  0  0
 16 30  1  0  0  0  0
 17 18  1  0  0  0  0
 17 16  2  0  0  0  0
 18 27  1  0  0  0  0
 19 21  1  0  0  0  0
 19 18  2  0  0  0  0
 20 19  1  0  0  0  0
 21 23  2  0  0  0  0
 22 21  1  0  0  0  0
 23 24  1  0  0  0  0
 23 25  1  0  0  0  0
 25 26  1  0  0  0  0
 27 25  2  0  0  0  0
 27 28  1  0  0  0  0
 28 29  1  0  0  0  0
 30 28  2  0  0  0  0
 30 35  1  0  0  0  0
 31 14  1  0  0  0  0
 31 34  1  0  0  0  0
 32 31  1  0  0  0  0
 33 31  1  0  0  0  0
 35 36  1  0  0  0  0
 35 37  1  0  0  0  0
 38 35  1  0  0  0  0
M  END
