2
q = 0.0, confidence = 0.944

  9  9  0  0  0  0  0  0  0  0999 V2000
    2.6697   -0.6779   -1.9082 Cl  0  0  0  0  0  0  0  0  0  0  0  0
    2.0537    0.1948    0.4806 N   0  0  0  0  0  2  0  0  0  0  0  0
    3.0669   -0.0493   -0.3746 N   0  0  0  0  0  0  0  0  0  0  0  0
    4.2800    0.3308    0.1165 C   0  0  0  0  0  3  0  0  0  0  0  0
    5.2003    0.2015   -0.4626 H   0  0  0  0  0  0  0  0  0  0  0  0
    4.0180    0.8501    1.3845 C   0  0  0  0  0  0  0  0  0  0  0  0
    4.7547    1.2506    2.0883 H   0  0  0  0  0  0  0  0  0  0  0  0
    2.6215    0.7479    1.5685 C   0  0  0  0  0  0  0  0  0  0  0  0
    1.9993    1.0391    2.4220 H   0  0  0  0  0  0  0  0  0  0  0  0
  1  3  1  0  0  0  0
  2  8  1  0  0  0  0
  3  4  1  0  0  0  0
  3  2  1  0  0  0  0
  4  6  1  0  0  0  0
  5  4  1  0  0  0  0
  6  8  2  0  0  0  0
  6  7  1  0  0  0  0
  8  9  1  0  0  0  0
M  END
