18
q = 0.0, confidence = 0.998

 21 22  0  0  0  0  0  0  0  0999 V2000
   -4.4327    1.8935    0.4096 O   0  0  0  0  0  0  0  0  0  0  0  0
   -1.8993    0.1216   -1.3332 C   0  0  0  0  0  3  0  0  0  0  0  0
   -1.4298    0.1178   -2.3337 H   0  0  0  0  0  0  0  0  0  0  0  0
   -2.0320   -0.8457    0.7464 C   0  0  0  0  0  0  0  0  0  0  0  0
   -3.0677    0.0753    1.0796 C   0  0  0  0  0  0  0  0  0  0  0  0
   -3.4624    1.0176    0.1090 C   0  0  0  0  0  0  0  0  0  0  0  0
   -2.7447   -1.2749    2.8373 C   0  0  0  0  0  0  0  0  0  0  0  0
   -2.9300   -1.6680    3.8434 H   0  0  0  0  0  0  0  0  0  0  0  0
   -1.8383   -1.7018    1.8755 C   0  0  0  0  0  0  0  0  0  0  0  0
   -1.1393   -2.5458    1.9159 H   0  0  0  0  0  0  0  0  0  0  0  0
   -4.8209    2.8315   -0.6222 C   0  0  0  0  0  0  0  0  0  0  0  0
   -5.1369    2.2631   -1.5217 H   0  0  0  0  0  0  0  0  0  0  0  0
   -3.9311    3.4252   -0.9191 H   0  0  0  0  0  0  0  0  0  0  0  0
   -5.9318    3.6939   -0.0615 C   0  0  0  0  0  0  0  0  0  0  0  0
   -5.5921    4.2527    0.8332 H   0  0  0  0  0  0  0  0  0  0  0  0
   -6.8092    3.0801    0.2235 H   0  0  0  0  0  0  0  0  0  0  0  0
   -6.2578    4.4283   -0.8240 H   0  0  0  0  0  0  0  0  0  0  0  0
   -1.4369   -0.8023   -0.4796 N   0  0  0  0  0  2  0  0  0  0  0  0
   -3.4797   -0.2052    2.3603 N   0  0  0  0  0  0  0  0  0  0  0  0
   -4.2183    0.2900    2.8567 H   0  0  0  0  0  0  0  0  0  0  0  0
   -2.8729    1.0194   -1.0867 N   0  0  0  0  0  0  0  0  0  0  0  0
  2 21  1  0  0  0  0
  2 18  1  0  0  0  0
  3  2  1  0  0  0  0
  4  5  2  0  0  0  0
  4  9  1  0  0  0  0
  5 19  1  0  0  0  0
  6  1  1  0  0  0  0
  6  5  1  0  0  0  0
  7  8  1  0  0  0  0
  9 10  1  0  0  0  0
  9  7  2  0  0  0  0
 11 14  1  0  0  0  0
 11  1  1  0  0  0  0
 12 11  1  0  0  0  0
 13 11  1  0  0  0  0
 14 16  1  0  0  0  0
 14 15  1  0  0  0  0
 17 14  1  0  0  0  0
 18  4  1  0  0  0  0
 19  7  1  0  0  0  0
 19 20  1  0  0  0  0
 21  6  2  0  0  0  0
M  END
