4
q = 0.0, confidence = 0.998

 48 50  0  0  1  0  0  0  0  0999 V2000
    0.9529    0.1909    0.2261 P   0  0  0  0  0  0  0  0  0  0  0  0
    0.5859    0.4716    1.8357 O   0  0  0  0  0  0  0  0  0  0  0  0
   -2.7489    0.9453    2.0423 O   0  0  0  0  0  0  0  0  0  0  0  0
   -1.9457   -0.3564    0.4019 N   0  0  0  0  0  2  0  0  0  0  0  0
   -0.5809   -0.1138    2.4945 C   0  0  0  0  0  0  0  0  0  0  0  0
    2.7552   -0.0017    0.2738 C   0  0  0  0  0  0  0  0  0  0  0  0
    0.5974    1.7984   -0.5569 C   0  0  0  0  0  0  0  0  0  0  0  0
   -0.3632   -1.6129    2.7164 C   0  0  0  0  0  0  0  0  0  0  0  0
    0.5437   -1.7615    3.3331 H   0  0  0  0  0  0  0  0  0  0  0  0
   -0.2328   -2.1432    1.7484 H   0  0  0  0  0  0  0  0  0  0  0  0
   -1.2300   -2.0623    3.2391 H   0  0  0  0  0  0  0  0  0  0  0  0
   -3.2418    0.1416   -0.1588 C   0  0  0  0  0  0  0  0  0  0  0  0
   -0.7053    0.6398    3.8154 C   0  0  0  0  0  0  0  0  0  0  0  0
    0.2209    0.4895    4.4001 H   0  0  0  0  0  0  0  0  0  0  0  0
   -1.5650    0.2602    4.3991 H   0  0  0  0  0  0  0  0  0  0  0  0
   -0.8504    1.7221    3.6445 H   0  0  0  0  0  0  0  0  0  0  0  0
    3.2859   -1.2700    0.5945 C   0  0  0  0  0  0  0  0  0  0  0  0
    2.6097   -2.1186    0.7826 H   0  0  0  0  0  0  0  0  0  0  0  0
   -3.0086    0.8106   -1.5151 C   0  0  0  0  0  0  0  0  0  0  0  0
   -2.6441    0.0691   -2.2539 H   0  0  0  0  0  0  0  0  0  0  0  0
   -2.2581    1.6216   -1.4384 H   0  0  0  0  0  0  0  0  0  0  0  0
   -3.9561    1.2382   -1.8992 H   0  0  0  0  0  0  0  0  0  0  0  0
   -4.2274   -1.0279   -0.2574 C   0  0  0  0  0  0  0  0  0  0  0  0
   -3.8469   -1.8008   -0.9508 H   0  0  0  0  0  0  0  0  0  0  0  0
   -5.2049   -0.6722   -0.6394 H   0  0  0  0  0  0  0  0  0  0  0  0
   -4.3888   -1.4984    0.7328 H   0  0  0  0  0  0  0  0  0  0  0  0
    3.6186    1.0863    0.0301 C   0  0  0  0  0  0  0  0  0  0  0  0
    3.2062    2.0753   -0.2192 H   0  0  0  0  0  0  0  0  0  0  0  0
   -1.7931    0.1284    1.5961 C   0  0  1  0  0  3  0  0  0  0  0  0
   -3.6705    1.1659    0.9346 C   0  0  0  0  0  0  0  0  0  0  0  0
   -3.5476    2.2198    0.6128 H   0  0  0  0  0  0  0  0  0  0  0  0
   -4.6986    1.0114    1.3120 H   0  0  0  0  0  0  0  0  0  0  0  0
    0.3807    3.1156   -2.5921 C   0  0  0  0  0  0  0  0  0  0  0  0
    0.4860    3.2079   -3.6833 H   0  0  0  0  0  0  0  0  0  0  0  0
    5.0066    0.8995    0.1069 C   0  0  0  0  0  0  0  0  0  0  0  0
    5.6818    1.7466   -0.0851 H   0  0  0  0  0  0  0  0  0  0  0  0
    0.1180    2.8840    0.2016 C   0  0  0  0  0  0  0  0  0  0  0  0
    0.0297    2.7870    1.2935 H   0  0  0  0  0  0  0  0  0  0  0  0
   -0.1054    4.1970   -1.8363 C   0  0  0  0  0  0  0  0  0  0  0  0
   -0.3816    5.1366   -2.3377 H   0  0  0  0  0  0  0  0  0  0  0  0
    5.5326   -0.3612    0.4307 C   0  0  0  0  0  0  0  0  0  0  0  0
    6.6222   -0.5021    0.4894 H   0  0  0  0  0  0  0  0  0  0  0  0
    0.7257    1.9148   -1.9576 C   0  0  0  0  0  0  0  0  0  0  0  0
    1.0907    1.0626   -2.5531 H   0  0  0  0  0  0  0  0  0  0  0  0
    4.6727   -1.4453    0.6780 C   0  0  0  0  0  0  0  0  0  0  0  0
    5.0870   -2.4323    0.9316 H   0  0  0  0  0  0  0  0  0  0  0  0
   -0.2351    4.0805   -0.4433 C   0  0  0  0  0  0  0  0  0  0  0  0
   -0.6061    4.9302    0.1492 H   0  0  0  0  0  0  0  0  0  0  0  0
  1  6  1  0  0  0  0
  1  2  1  0  0  0  0
  2  5  1  0  0  0  0
  4 29  1  0  0  0  0
  5  8  1  0  0  0  0
  5 13  1  0  0  0  0
  6 17  1  0  0  0  0
  7 37  1  0  0  0  0
  7  1  1  0  0  0  0
  8 11  1  0  0  0  0
  8  9  1  0  0  0  0
 10  8  1  0  0  0  0
 12  4  1  0  0  0  0
 12 30  1  0  0  0  0
 13 15  1  0  0  0  0
 13 14  1  0  0  0  0
 16 13  1  0  0  0  0
 17 45  2  0  0  0  0
 17 18  1  0  0  0  0
 19 21  1  0  0  0  0
 19 12  1  0  0  0  0
 20 19  1  0  0  0  0
 22 19  1  0  0  0  0
 23 12  1  0  0  0  0
 23 26  1  0  0  0  0
 24 23  1  0  0  0  0
 25 23  1  0  0  0  0
 27 35  1  0  0  0  0
 27  6  2  0  0  0  0
 28 27  1  0  0  0  0
 29  3  1  0  0  0  0
 29  5  1  6  0  0  0
 30 32  1  0  0  0  0
 30  3  1  0  0  0  0
 31 30  1  0  0  0  0
 33 43  1  0  0  0  0
 33 39  2  0  0  0  0
 34 33  1  0  0  0  0
 35 41  2  0  0  0  0
 36 35  1  0  0  0  0
 37 38  1  0  0  0  0
 39 47  1  0  0  0  0
 40 39  1  0  0  0  0
 41 42  1  0  0  0  0
 41 45  1  0  0  0  0
 43  7  2  0  0  0  0
 44 43  1  0  0  0  0
 45 46  1  0  0  0  0
 47 48  1  0  0  0  0
 47 37  2  0  0  0  0
M  END
