2
q = 0.0, confidence = 1.0

 41 44  0  0  1  0  0  0  0  0999 V2000
   -0.0457   -0.0034   -0.3852 N   0  0  0  0  0  0  0  0  0  0  0  0
    2.5570   -1.0853   -0.2426 N   0  0  0  0  0  2  0  0  0  0  0  0
   -1.0077   -1.9856   -0.1271 N   0  0  0  0  0  0  0  0  0  0  0  0
   -1.1351   -2.9936   -0.0320 H   0  0  0  0  0  0  0  0  0  0  0  0
    1.4939   -1.9196   -0.4346 C   0  0  2  0  0  3  0  0  0  0  0  0
    4.0673   -2.8825   -0.7159 C   0  0  0  0  0  0  0  0  0  0  0  0
    5.1052   -3.2311   -0.8084 H   0  0  0  0  0  0  0  0  0  0  0  0
   -3.4391   -1.4867    0.0038 C   0  0  0  0  0  0  0  0  0  0  0  0
   -1.3995    0.1881   -0.2796 C   0  0  0  0  0  0  0  0  0  0  0  0
   -2.0402   -1.0623   -0.1166 C   0  0  0  0  0  0  0  0  0  0  0  0
    2.9908   -3.7566   -0.9150 C   0  0  0  0  0  0  0  0  0  0  0  0
    3.1669   -4.8085   -1.1836 H   0  0  0  0  0  0  0  0  0  0  0  0
    1.6882   -3.2705   -0.7762 C   0  0  0  0  0  0  0  0  0  0  0  0
    0.8226   -3.9233   -0.9578 H   0  0  0  0  0  0  0  0  0  0  0  0
    0.1771   -1.3124   -0.2961 C   0  0  0  0  0  0  0  0  0  0  0  0
   -1.2141    2.5217   -1.0946 C   0  0  0  0  0  0  0  0  0  0  0  0
   -0.2717    2.2202   -1.5789 H   0  0  0  0  0  0  0  0  0  0  0  0
   -6.1271   -2.3517    0.1948 C   0  0  0  0  0  0  0  0  0  0  0  0
   -7.1729   -2.6858    0.2695 H   0  0  0  0  0  0  0  0  0  0  0  0
   -1.9420    1.5545   -0.3593 C   0  0  0  0  0  0  0  0  0  0  0  0
    3.8297   -1.5396   -0.3735 C   0  0  0  0  0  0  0  0  0  0  0  0
   -3.7990   -2.5480    0.8685 C   0  0  0  0  0  0  0  0  0  0  0  0
   -3.0312   -3.0195    1.5021 H   0  0  0  0  0  0  0  0  0  0  0  0
   -4.4527   -0.8681   -0.7660 C   0  0  0  0  0  0  0  0  0  0  0  0
   -4.1834   -0.0547   -1.4550 H   0  0  0  0  0  0  0  0  0  0  0  0
   -1.6756    3.8419   -1.1768 C   0  0  0  0  0  0  0  0  0  0  0  0
   -1.1020    4.5821   -1.7557 H   0  0  0  0  0  0  0  0  0  0  0  0
   -2.8611    4.2225   -0.5258 C   0  0  0  0  0  0  0  0  0  0  0  0
   -3.2218    5.2603   -0.5921 H   0  0  0  0  0  0  0  0  0  0  0  0
   -5.7819   -1.2953   -0.6652 C   0  0  0  0  0  0  0  0  0  0  0  0
   -6.5566   -0.8048   -1.2739 H   0  0  0  0  0  0  0  0  0  0  0  0
   -5.1299   -2.9778    0.9587 C   0  0  0  0  0  0  0  0  0  0  0  0
   -5.3916   -3.7999    1.6420 H   0  0  0  0  0  0  0  0  0  0  0  0
   -3.5791    3.2723    0.2190 C   0  0  0  0  0  0  0  0  0  0  0  0
   -4.4982    3.5666    0.7483 H   0  0  0  0  0  0  0  0  0  0  0  0
   -3.1243    1.9491    0.3052 C   0  0  0  0  0  0  0  0  0  0  0  0
   -3.6790    1.2192    0.9122 H   0  0  0  0  0  0  0  0  0  0  0  0
    4.9320   -0.5664   -0.1006 C   0  0  0  0  0  0  0  0  0  0  0  0
    4.8444    0.2999   -0.7891 H   0  0  0  0  0  0  0  0  0  0  0  0
    5.9257   -1.0399   -0.2100 H   0  0  0  0  0  0  0  0  0  0  0  0
    4.8140   -0.1704    0.9298 H   0  0  0  0  0  0  0  0  0  0  0  0
  1 15  2  0  0  0  0
  1  9  1  0  0  0  0
  3 10  1  0  0  0  0
  3  4  1  0  0  0  0
  5 15  1  6  0  0  0
  5  2  1  0  0  0  0
  6 21  2  0  0  0  0
  7  6  1  0  0  0  0
  8 22  1  0  0  0  0
  9 10  2  0  0  0  0
 10  8  1  0  0  0  0
 11 13  2  0  0  0  0
 11  6  1  0  0  0  0
 12 11  1  0  0  0  0
 13  5  1  0  0  0  0
 14 13  1  0  0  0  0
 15  3  1  0  0  0  0
 16 20  1  0  0  0  0
 17 16  1  0  0  0  0
 18 19  1  0  0  0  0
 18 32  1  0  0  0  0
 20  9  1  0  0  0  0
 20 36  2  0  0  0  0
 21  2  1  0  0  0  0
 21 38  1  0  0  0  0
 22 32  2  0  0  0  0
 22 23  1  0  0  0  0
 24 30  1  0  0  0  0
 24  8  2  0  0  0  0
 25 24  1  0  0  0  0
 26 16  2  0  0  0  0
 26 28  1  0  0  0  0
 27 26  1  0  0  0  0
 28 34  2  0  0  0  0
 29 28  1  0  0  0  0
 30 18  2  0  0  0  0
 31 30  1  0  0  0  0
 32 33  1  0  0  0  0
 34 36  1  0  0  0  0
 34 35  1  0  0  0  0
 36 37  1  0  0  0  0
 38 41  1  0  0  0  0
 39 38  1  0  0  0  0
 40 38  1  0  0  0  0
M  END
