1
q = 0.0, confidence = 0.998

 38 41  0  0  1  0  0  0  0  0999 V2000
    2.2864   -1.4572   -1.1784 N   0  0  0  0  0  2  0  0  0  0  0  0
    0.4428    0.6384   -1.6207 N   0  0  0  0  0  0  0  0  0  0  0  0
   -1.1719   -0.8092   -2.0977 N   0  0  0  0  0  0  0  0  0  0  0  0
   -1.6482   -1.6830   -2.3269 H   0  0  0  0  0  0  0  0  0  0  0  0
   -6.0825    0.7673   -2.0240 C   0  0  0  0  0  0  0  0  0  0  0  0
   -7.1773    0.8648   -2.0726 H   0  0  0  0  0  0  0  0  0  0  0  0
    1.1944   -1.6740   -1.9670 C   0  0  1  0  0  3  0  0  0  0  0  0
   -0.7622    1.2923   -1.5311 C   0  0  0  0  0  0  0  0  0  0  0  0
   -1.8098    0.3902   -1.8359 C   0  0  0  0  0  0  0  0  0  0  0  0
   -0.7902    2.6969   -1.0883 C   0  0  0  0  0  0  0  0  0  0  0  0
    1.0789   -2.8538   -2.7271 C   0  0  0  0  0  0  0  0  0  0  0  0
    0.1983   -3.0053   -3.3670 H   0  0  0  0  0  0  0  0  0  0  0  0
    0.1809   -0.6272   -1.9421 C   0  0  0  0  0  0  0  0  0  0  0  0
    3.2431   -3.5358   -1.9096 C   0  0  0  0  0  0  0  0  0  0  0  0
    4.0835   -4.2415   -1.8616 H   0  0  0  0  0  0  0  0  0  0  0  0
   -1.8187    4.5605    0.1158 C   0  0  0  0  0  0  0  0  0  0  0  0
   -2.6640    4.9675    0.6917 H   0  0  0  0  0  0  0  0  0  0  0  0
    0.3298    3.5177   -1.3579 C   0  0  0  0  0  0  0  0  0  0  0  0
    1.1721    3.0920   -1.9229 H   0  0  0  0  0  0  0  0  0  0  0  0
    2.1095   -3.7960   -2.6944 C   0  0  0  0  0  0  0  0  0  0  0  0
    2.0368   -4.7183   -3.2888 H   0  0  0  0  0  0  0  0  0  0  0  0
   -1.8620    3.2345   -0.3385 C   0  0  0  0  0  0  0  0  0  0  0  0
   -2.7391    2.6090   -0.1150 H   0  0  0  0  0  0  0  0  0  0  0  0
   -3.2696    0.5211   -1.9029 C   0  0  0  0  0  0  0  0  0  0  0  0
    3.2950   -2.3532   -1.1687 C   0  0  0  0  0  0  0  0  0  0  0  0
    4.1439   -2.1099   -0.5177 H   0  0  0  0  0  0  0  0  0  0  0  0
   -3.8667    1.6799   -2.4526 C   0  0  0  0  0  0  0  0  0  0  0  0
   -3.2264    2.4811   -2.8490 H   0  0  0  0  0  0  0  0  0  0  0  0
   -4.1069   -0.5129   -1.4214 C   0  0  0  0  0  0  0  0  0  0  0  0
   -3.6635   -1.4081   -0.9587 H   0  0  0  0  0  0  0  0  0  0  0  0
   -0.7084    5.3723   -0.1724 C   0  0  0  0  0  0  0  0  0  0  0  0
   -0.6833    6.4167    0.1735 H   0  0  0  0  0  0  0  0  0  0  0  0
   -5.2605    1.7998   -2.5076 C   0  0  0  0  0  0  0  0  0  0  0  0
   -5.7110    2.7037   -2.9440 H   0  0  0  0  0  0  0  0  0  0  0  0
    0.3641    4.8442   -0.9098 C   0  0  0  0  0  0  0  0  0  0  0  0
    1.2371    5.4730   -1.1406 H   0  0  0  0  0  0  0  0  0  0  0  0
   -5.5014   -0.3904   -1.4835 C   0  0  0  0  0  0  0  0  0  0  0  0
   -6.1367   -1.2005   -1.0955 H   0  0  0  0  0  0  0  0  0  0  0  0
  1 25  1  0  0  0  0
  2  8  1  0  0  0  0
  3 13  1  0  0  0  0
  3  9  1  0  0  0  0
  4  3  1  0  0  0  0
  5 37  1  0  0  0  0
  6  5  1  0  0  0  0
  7 13  1  1  0  0  0
  7  1  1  0  0  0  0
  8 10  1  0  0  0  0
  9  8  2  0  0  0  0
 10 22  1  0  0  0  0
 11 20  2  0  0  0  0
 11  7  1  0  0  0  0
 12 11  1  0  0  0  0
 13  2  2  0  0  0  0
 14 15  1  0  0  0  0
 14 25  2  0  0  0  0
 16 17  1  0  0  0  0
 18 10  2  0  0  0  0
 18 35  1  0  0  0  0
 19 18  1  0  0  0  0
 20 14  1  0  0  0  0
 21 20  1  0  0  0  0
 22 23  1  0  0  0  0
 22 16  2  0  0  0  0
 24  9  1  0  0  0  0
 24 29  1  0  0  0  0
 25 26  1  0  0  0  0
 27 24  2  0  0  0  0
 28 27  1  0  0  0  0
 29 30  1  0  0  0  0
 31 16  1  0  0  0  0
 31 32  1  0  0  0  0
 33 27  1  0  0  0  0
 33  5  2  0  0  0  0
 34 33  1  0  0  0  0
 35 31  2  0  0  0  0
 36 35  1  0  0  0  0
 37 29  2  0  0  0  0
 37 38  1  0  0  0  0
M  END
