3
q = 0.0, confidence = 1.0

 34 36  0  0  0  0  0  0  0  0999 V2000
   -5.9157   -3.6601    0.4693 O   0  0  0  0  0  0  0  0  0  0  0  0
   -1.4012   -2.8414    0.9835 O   0  0  0  0  0  0  0  0  0  0  0  0
   -1.8260   -0.3401   -0.7526 N   0  0  0  0  0  2  0  0  0  0  0  0
   -3.8525    0.1658   -1.5414 N   0  0  0  0  0  0  0  0  0  0  0  0
   -5.0824   -1.7875   -0.5770 N   0  0  0  0  0  0  0  0  0  0  0  0
   -3.6612   -3.2241    0.7180 N   0  0  0  0  0  0  0  0  0  0  0  0
   -2.5200    0.5342   -1.4573 C   0  0  0  0  0  3  0  0  0  0  0  0
   -2.1284    1.4609   -1.8892 H   0  0  0  0  0  0  0  0  0  0  0  0
   -3.9753   -1.0143   -0.8243 C   0  0  0  0  0  0  0  0  0  0  0  0
   -4.9463   -2.9493    0.2307 C   0  0  0  0  0  0  0  0  0  0  0  0
   -2.4607   -2.4833    0.4889 C   0  0  0  0  0  0  0  0  0  0  0  0
   -2.7029   -1.3256   -0.3499 C   0  0  0  0  0  0  0  0  0  0  0  0
   -3.5050   -4.4054    1.5670 C   0  0  0  0  0  0  0  0  0  0  0  0
   -4.4840   -4.9057    1.6410 H   0  0  0  0  0  0  0  0  0  0  0  0
   -2.7473   -5.0819    1.1276 H   0  0  0  0  0  0  0  0  0  0  0  0
   -3.1433   -4.1014    2.5684 H   0  0  0  0  0  0  0  0  0  0  0  0
   -6.4004   -1.5186   -1.1419 C   0  0  0  0  0  0  0  0  0  0  0  0
   -7.0606   -2.3293   -0.7871 H   0  0  0  0  0  0  0  0  0  0  0  0
   -6.7946   -0.5457   -0.7893 H   0  0  0  0  0  0  0  0  0  0  0  0
   -6.3644   -1.5371   -2.2499 H   0  0  0  0  0  0  0  0  0  0  0  0
   -4.8845    1.1193   -1.9462 C   0  0  0  0  0  0  0  0  0  0  0  0
   -4.3725    1.8640   -2.5905 H   0  0  0  0  0  0  0  0  0  0  0  0
   -5.6338    0.6211   -2.5890 H   0  0  0  0  0  0  0  0  0  0  0  0
   -5.5476    1.8053   -0.7632 C   0  0  0  0  0  0  0  0  0  0  0  0
   -6.8697    2.2748   -0.8910 C   0  0  0  0  0  0  0  0  0  0  0  0
   -7.4179    2.1169   -1.8342 H   0  0  0  0  0  0  0  0  0  0  0  0
   -7.4939    2.9401    0.1744 C   0  0  0  0  0  0  0  0  0  0  0  0
   -8.5275    3.3011    0.0630 H   0  0  0  0  0  0  0  0  0  0  0  0
   -6.8030    3.1358    1.3810 C   0  0  0  0  0  0  0  0  0  0  0  0
   -7.2935    3.6521    2.2199 H   0  0  0  0  0  0  0  0  0  0  0  0
   -5.4875    2.6655    1.5136 C   0  0  0  0  0  0  0  0  0  0  0  0
   -4.9338    2.8094    2.4535 H   0  0  0  0  0  0  0  0  0  0  0  0
   -4.8574    2.0033    0.4489 C   0  0  0  0  0  0  0  0  0  0  0  0
   -3.8216    1.6482    0.5900 H   0  0  0  0  0  0  0  0  0  0  0  0
  3 12  1  0  0  0  0
  4  7  1  0  0  0  0
  4  9  1  0  0  0  0
  5 10  1  0  0  0  0
  6 13  1  0  0  0  0
  7  3  1  0  0  0  0
  8  7  1  0  0  0  0
  9  5  1  0  0  0  0
  9 12  2  0  0  0  0
 10  1  2  0  0  0  0
 10  6  1  0  0  0  0
 11  6  1  0  0  0  0
 11  2  2  0  0  0  0
 12 11  1  0  0  0  0
 13 14  1  0  0  0  0
 13 16  1  0  0  0  0
 15 13  1  0  0  0  0
 17 19  1  0  0  0  0
 17 18  1  0  0  0  0
 17  5  1  0  0  0  0
 20 17  1  0  0  0  0
 21  4  1  0  0  0  0
 21 24  1  0  0  0  0
 22 21  1  0  0  0  0
 23 21  1  0  0  0  0
 24 33  1  0  0  0  0
 25 24  2  0  0  0  0
 25 27  1  0  0  0  0
 26 25  1  0  0  0  0
 27 29  2  0  0  0  0
 28 27  1  0  0  0  0
 29 31  1  0  0  0  0
 29 30  1  0  0  0  0
 31 32  1  0  0  0  0
 33 34  1  0  0  0  0
 33 31  2  0  0  0  0
M  END
