2
q = 0.0, confidence = 0.946

 30 30  0  0  1  0  0  0  0  0999 V2000
    0.8735    1.8328    1.0655 O   0  0  0  0  0  0  0  0  0  0  0  0
    1.7236    0.7115   -0.7746 N   0  0  0  0  0  2  0  0  0  0  0  0
    2.4831    0.6059   -1.4780 H   0  0  0  0  0  0  0  0  0  0  0  0
   -0.4050    1.6105    0.4985 N   0  0  0  0  0  0  0  0  0  0  0  0
    1.8782    1.5894    0.1716 C   0  0  2  0  0  3  0  0  0  0  0  0
    3.0048    2.3043    0.4253 N   0  0  0  0  0  0  0  0  0  0  0  0
   -2.7130    1.4820    0.9040 C   0  0  0  0  0  0  0  0  0  0  0  0
   -5.3469    1.2489   -0.1042 C   0  0  0  0  0  0  0  0  0  0  0  0
   -6.3749    1.1798   -0.4910 H   0  0  0  0  0  0  0  0  0  0  0  0
   -1.3289    1.6083    1.4182 C   0  0  0  0  0  0  0  0  0  0  0  0
   -1.0154    1.7403    2.8812 C   0  0  0  0  0  0  0  0  0  0  0  0
   -0.2348    1.0118    3.1792 H   0  0  0  0  0  0  0  0  0  0  0  0
   -1.9039    1.6143    3.5214 H   0  0  0  0  0  0  0  0  0  0  0  0
   -0.5926    2.7464    3.0828 H   0  0  0  0  0  0  0  0  0  0  0  0
    4.2174    1.9956   -0.3212 C   0  0  0  0  0  0  0  0  0  0  0  0
    4.9096    2.8536   -0.2410 H   0  0  0  0  0  0  0  0  0  0  0  0
    3.9906    1.8347   -1.3931 H   0  0  0  0  0  0  0  0  0  0  0  0
    4.7229    1.0851    0.0697 H   0  0  0  0  0  0  0  0  0  0  0  0
    3.1322    3.1755    1.5869 C   0  0  0  0  0  0  0  0  0  0  0  0
    2.1358    3.4746    1.9517 H   0  0  0  0  0  0  0  0  0  0  0  0
    3.6928    4.0874    1.3009 H   0  0  0  0  0  0  0  0  0  0  0  0
    3.6798    2.6732    2.4152 H   0  0  0  0  0  0  0  0  0  0  0  0
   -3.7708    1.0529    1.7376 C   0  0  0  0  0  0  0  0  0  0  0  0
   -3.5805    0.8019    2.7910 H   0  0  0  0  0  0  0  0  0  0  0  0
   -5.0751    0.9342    1.2361 C   0  0  0  0  0  0  0  0  0  0  0  0
   -5.8876    0.6102    1.9040 H   0  0  0  0  0  0  0  0  0  0  0  0
   -2.9968    1.7849   -0.4523 C   0  0  0  0  0  0  0  0  0  0  0  0
   -2.1801    2.1179   -1.1088 H   0  0  0  0  0  0  0  0  0  0  0  0
   -4.3013    1.6722   -0.9448 C   0  0  0  0  0  0  0  0  0  0  0  0
   -4.5093    1.9365   -1.9930 H   0  0  0  0  0  0  0  0  0  0  0  0
  3  2  1  0  0  0  0
  4  1  1  0  0  0  0
  4 10  2  0  0  0  0
  5  2  1  1  0  0  0
  5  6  1  0  0  0  0
  5  1  1  0  0  0  0
  6 19  1  0  0  0  0
  7 10  1  0  0  0  0
  7 23  1  0  0  0  0
  8 25  1  0  0  0  0
  9  8  1  0  0  0  0
 10 11  1  0  0  0  0
 11 14  1  0  0  0  0
 11 12  1  0  0  0  0
 11 13  1  0  0  0  0
 15 16  1  0  0  0  0
 15 18  1  0  0  0  0
 15  6  1  0  0  0  0
 17 15  1  0  0  0  0
 19 20  1  0  0  0  0
 19 22  1  0  0  0  0
 21 19  1  0  0  0  0
 23 24  1  0  0  0  0
 25 23  2  0  0  0  0
 25 26  1  0  0  0  0
 27  7  2  0  0  0  0
 28 27  1  0  0  0  0
 29 27  1  0  0  0  0
 29  8  2  0  0  0  0
 30 29  1  0  0  0  0
M  END
