10
q = -2.0, confidence = 0.972

 36 36  0  0  1  0  0  0  0  0999 V2000
    0.3739   -0.2473    1.2147 S   0  0  0  0  0  0  0  0  0  0  0  0
    2.3614    0.8109   -1.0004 S   0  0  0  0  0  0  0  0  0  0  0  0
   -0.7842   -2.4918   -0.1601 S   0  0  0  0  0  0  0  0  0  0  0  0
   -1.5241    1.7573    2.1925 O   0  0  0  0  0  0  0  0  0  0  0  0
   -0.6114    3.5499    1.1284 O   0  0  0  0  0  0  0  0  0  0  0  0
    0.0876    3.4249   -1.7862 O   0  0  0  0  0  0  0  0  0  0  0  0
    2.0189    3.9843   -0.7252 O   0  0  0  0  0  0  0  0  0  0  0  0
   -0.5083   -3.2959   -1.3728 O   0  0  0  0  0  0  0  0  0  0  0  0
   -0.6615   -3.1048    1.1898 O   0  0  0  0  0  0  0  0  0  0  0  0
    0.1720   -1.0640   -0.3235 N   0  0  0  0  0  2  0  0  0  0  0  0
    0.3127    1.4342    0.7015 C   0  0  1  0  0  3  0  0  0  0  0  0
    1.1548    1.8243   -0.3319 C   0  0  0  0  0  0  0  0  0  0  0  0
   -0.6998    2.2245    1.4151 C   0  0  0  0  0  0  0  0  0  0  0  0
   -1.6275    4.3705    1.7091 C   0  0  0  0  0  0  0  0  0  0  0  0
    0.9933    3.1614   -1.0242 C   0  0  0  0  0  0  0  0  0  0  0  0
    1.9564    5.2742   -1.3483 C   0  0  0  0  0  0  0  0  0  0  0  0
   -2.4097   -1.7520   -0.2973 C   0  0  0  0  0  0  0  0  0  0  0  0
   -2.9839   -1.1392    0.8276 C   0  0  0  0  0  0  0  0  0  0  0  0
   -4.2161   -0.4925    0.6835 C   0  0  0  0  0  0  0  0  0  0  0  0
   -4.8897   -0.4661   -0.5568 C   0  0  0  0  0  0  0  0  0  0  0  0
   -4.2873   -1.1030   -1.6625 C   0  0  0  0  0  0  0  0  0  0  0  0
   -3.0458   -1.7405   -1.5458 C   0  0  0  0  0  0  0  0  0  0  0  0
   -6.2313    0.2075   -0.6874 C   0  0  0  0  0  0  0  0  0  0  0  0
   -2.6363    4.0268    1.4029 H   0  0  0  0  0  0  0  0  0  0  0  0
   -1.5732    4.3443    2.8163 H   0  0  0  0  0  0  0  0  0  0  0  0
   -1.4423    5.3943    1.3380 H   0  0  0  0  0  0  0  0  0  0  0  0
    1.0475    5.8196   -1.0225 H   0  0  0  0  0  0  0  0  0  0  0  0
    2.8652    5.8133   -1.0280 H   0  0  0  0  0  0  0  0  0  0  0  0
    1.9279    5.1786   -2.4523 H   0  0  0  0  0  0  0  0  0  0  0  0
   -2.4650   -1.1518    1.7960 H   0  0  0  0  0  0  0  0  0  0  0  0
   -4.6605    0.0112    1.5559 H   0  0  0  0  0  0  0  0  0  0  0  0
   -4.7974   -1.0889   -2.6385 H   0  0  0  0  0  0  0  0  0  0  0  0
   -2.5596   -2.2255   -2.4042 H   0  0  0  0  0  0  0  0  0  0  0  0
   -6.4424    0.5011   -1.7340 H   0  0  0  0  0  0  0  0  0  0  0  0
   -7.0478   -0.4740   -0.3647 H   0  0  0  0  0  0  0  0  0  0  0  0
   -6.2955    1.1123   -0.0510 H   0  0  0  0  0  0  0  0  0  0  0  0
  2 12  2  0  0  0  0
  3  9  2  0  0  0  0
  5 13  1  0  0  0  0
  5 14  1  0  0  0  0
  6 15  2  0  0  0  0
  8  3  2  0  0  0  0
 10  3  1  0  0  0  0
 10  1  1  0  0  0  0
 11 12  1  6  0  0  0
 11  1  1  0  0  0  0
 11 13  1  0  0  0  0
 13  4  2  0  0  0  0
 14 25  1  0  0  0  0
 15  7  1  0  0  0  0
 15 12  1  0  0  0  0
 16 28  1  0  0  0  0
 16 27  1  0  0  0  0
 16  7  1  0  0  0  0
 17  3  1  0  0  0  0
 17 18  1  0  0  0  0
 18 30  1  0  0  0  0
 19 18  2  0  0  0  0
 19 31  1  0  0  0  0
 20 19  1  0  0  0  0
 21 22  1  0  0  0  0
 21 20  2  0  0  0  0
 22 17  2  0  0  0  0
 23 20  1  0  0  0  0
 23 35  1  0  0  0  0
 23 36  1  0  0  0  0
 24 14  1  0  0  0  0
 26 14  1  0  0  0  0
 29 16  1  0  0  0  0
 32 21  1  0  0  0  0
 33 22  1  0  0  0  0
 34 23  1  0  0  0  0
M  END
