1
q = 0.0, confidence = 0.992

 15 14  0  0  1  0  0  0  0  0999 V2000
    1.4413    0.3978   -1.1513 N   0  0  0  0  0  0  0  0  0  0  0  0
    1.9227   -0.5246   -1.1980 H   0  0  0  0  0  0  0  0  0  0  0  0
    1.1723    0.6554   -2.1098 H   0  0  0  0  0  0  0  0  0  0  0  0
    3.7858   -0.6656   -0.2645 N   0  0  0  0  0  0  0  0  0  0  0  0
    3.5107   -0.6923    0.7322 H   0  0  0  0  0  0  0  0  0  0  0  0
    4.6878   -1.1459   -0.3550 H   0  0  0  0  0  0  0  0  0  0  0  0
    2.4610    1.3209   -0.6072 C   0  0  0  0  0  0  0  0  0  0  0  0
    2.2533    1.4857    0.4690 H   0  0  0  0  0  0  0  0  0  0  0  0
    2.3965    2.3077   -1.1053 H   0  0  0  0  0  0  0  0  0  0  0  0
    3.8756    0.7242   -0.7238 C   0  0  1  0  0  0  0  0  0  0  0  0
    4.1605    0.6909   -1.8015 H   0  0  0  0  0  0  0  0  0  0  0  0
    4.8907    1.5948    0.0243 C   0  0  0  0  0  0  0  0  0  0  0  0
    5.9129    1.1739   -0.0615 H   0  0  0  0  0  0  0  0  0  0  0  0
    4.6333    1.6521    1.1027 H   0  0  0  0  0  0  0  0  0  0  0  0
    4.9180    2.6301   -0.3755 H   0  0  0  0  0  0  0  0  0  0  0  0
  1  7  1  0  0  0  0
  2  1  1  0  0  0  0
  3  1  1  0  0  0  0
  4  5  1  0  0  0  0
  6  4  1  0  0  0  0
  7  8  1  0  0  0  0
  9  7  1  0  0  0  0
 10 11  1  6  0  0  0
 10  7  1  0  0  0  0
 10  4  1  0  0  0  0
 10 12  1  0  0  0  0
 12 14  1  0  0  0  0
 13 12  1  0  0  0  0
 15 12  1  0  0  0  0
M  END
