3
q = 0.0, confidence = 0.974

 24 25  0  0  1  0  0  0  0  0999 V2000
   -3.9652    2.2931    0.4098 S   0  0  0  0  0  0  0  0  0  0  0  0
   -4.2325   -0.5488    1.2790 O   0  0  0  0  0  0  0  0  0  0  0  0
   -1.3191   -1.4806   -0.4493 N   0  0  0  0  0  2  0  0  0  0  0  0
   -2.6309   -1.5164   -0.0547 N   0  0  0  0  0  0  0  0  0  0  0  0
   -0.9852   -2.7287   -0.8287 C   0  0  1  0  0  3  0  0  0  0  0  0
    0.3979   -3.0913   -1.2451 C   0  0  0  0  0  0  0  0  0  0  0  0
    0.8160   -2.3121   -1.9129 H   0  0  0  0  0  0  0  0  0  0  0  0
    0.4033   -4.0730   -1.7540 H   0  0  0  0  0  0  0  0  0  0  0  0
    1.0607   -3.1550   -0.3578 H   0  0  0  0  0  0  0  0  0  0  0  0
   -2.1164   -3.5730   -0.6902 C   0  0  0  0  0  0  0  0  0  0  0  0
   -2.1707   -4.6386   -0.9341 H   0  0  0  0  0  0  0  0  0  0  0  0
   -3.1461   -2.7910   -0.1813 C   0  0  0  0  0  0  0  0  0  0  0  0
   -4.5526   -3.1607    0.1478 C   0  0  0  0  0  0  0  0  0  0  0  0
   -4.7441   -3.0729    1.2344 H   0  0  0  0  0  0  0  0  0  0  0  0
   -4.7411   -4.2006   -0.1769 H   0  0  0  0  0  0  0  0  0  0  0  0
   -5.2833   -2.4953   -0.3542 H   0  0  0  0  0  0  0  0  0  0  0  0
   -3.3871   -0.3752    0.4158 C   0  0  0  0  0  0  0  0  0  0  0  0
   -3.1760    0.8925   -0.2792 C   0  0  0  0  0  0  0  0  0  0  0  0
   -2.5565    1.1984   -1.4914 C   0  0  0  0  0  0  0  0  0  0  0  0
   -1.9966    0.4729   -2.0961 H   0  0  0  0  0  0  0  0  0  0  0  0
   -2.7083    2.5656   -1.8440 C   0  0  0  0  0  0  0  0  0  0  0  0
   -2.2838    3.0112   -2.7535 H   0  0  0  0  0  0  0  0  0  0  0  0
   -3.4450    3.2764   -0.9062 C   0  0  0  0  0  0  0  0  0  0  0  0
   -3.7067    4.3422   -0.9240 H   0  0  0  0  0  0  0  0  0  0  0  0
  3  4  1  0  0  0  0
  4 17  1  0  0  0  0
  5  6  1  1  0  0  0
  5 10  1  0  0  0  0
  5  3  1  0  0  0  0
  6  9  1  0  0  0  0
  7  6  1  0  0  0  0
  8  6  1  0  0  0  0
 10 12  2  0  0  0  0
 11 10  1  0  0  0  0
 12  4  1  0  0  0  0
 12 13  1  0  0  0  0
 13 14  1  0  0  0  0
 15 13  1  0  0  0  0
 16 13  1  0  0  0  0
 17  2  2  0  0  0  0
 18  1  1  0  0  0  0
 18 17  1  0  0  0  0
 19 18  2  0  0  0  0
 20 19  1  0  0  0  0
 21 19  1  0  0  0  0
 21 23  2  0  0  0  0
 22 21  1  0  0  0  0
 23  1  1  0  0  0  0
 24 23  1  0  0  0  0
M  END
