3
q = 0.0, confidence = 0.998

 22 22  0  0  1  0  0  0  0  0999 V2000
   -0.6431   -1.6326    0.0979 O   0  0  0  0  0  0  0  0  0  0  0  0
   -2.9367   -2.0752   -0.0444 O   0  0  0  0  0  0  0  0  0  0  0  0
   -1.0777    1.0248   -0.0272 N   0  0  0  0  0  2  0  0  0  0  0  0
   -1.9002   -1.2657   -0.5006 C   0  0  0  0  0  0  0  0  0  0  0  0
   -1.8287   -1.4326   -1.5983 H   0  0  0  0  0  0  0  0  0  0  0  0
   -2.1420    0.2213   -0.2596 C   0  0  2  0  0  3  0  0  0  0  0  0
   -3.4445    0.7318   -0.3575 C   0  0  0  0  0  0  0  0  0  0  0  0
   -4.2719    0.0348   -0.5505 H   0  0  0  0  0  0  0  0  0  0  0  0
   -3.6521    2.1081   -0.2129 C   0  0  0  0  0  0  0  0  0  0  0  0
   -4.6647    2.5311   -0.2893 H   0  0  0  0  0  0  0  0  0  0  0  0
   -2.5447    2.9353    0.0268 C   0  0  0  0  0  0  0  0  0  0  0  0
   -2.6531    4.0226    0.1430 H   0  0  0  0  0  0  0  0  0  0  0  0
   -1.2770    2.3561    0.1143 C   0  0  0  0  0  0  0  0  0  0  0  0
   -0.3770    2.9603    0.2984 H   0  0  0  0  0  0  0  0  0  0  0  0
   -0.1691   -2.9178   -0.3686 C   0  0  0  0  0  0  0  0  0  0  0  0
    0.6577   -3.2087    0.3029 H   0  0  0  0  0  0  0  0  0  0  0  0
    0.1974   -2.8100   -1.4104 H   0  0  0  0  0  0  0  0  0  0  0  0
   -0.9939   -3.6536   -0.3055 H   0  0  0  0  0  0  0  0  0  0  0  0
   -3.1272   -2.0809    1.3731 C   0  0  0  0  0  0  0  0  0  0  0  0
   -2.2456   -2.5025    1.8990 H   0  0  0  0  0  0  0  0  0  0  0  0
   -4.0106   -2.7165    1.5657 H   0  0  0  0  0  0  0  0  0  0  0  0
   -3.3180   -1.0599    1.7711 H   0  0  0  0  0  0  0  0  0  0  0  0
  2 19  1  0  0  0  0
  3 13  1  0  0  0  0
  4  2  1  0  0  0  0
  4  1  1  0  0  0  0
  5  4  1  0  0  0  0
  6  4  1  6  0  0  0
  6  3  1  0  0  0  0
  7  6  1  0  0  0  0
  7  9  2  0  0  0  0
  8  7  1  0  0  0  0
  9 11  1  0  0  0  0
 10  9  1  0  0  0  0
 11 13  2  0  0  0  0
 11 12  1  0  0  0  0
 13 14  1  0  0  0  0
 15 18  1  0  0  0  0
 15  1  1  0  0  0  0
 15 16  1  0  0  0  0
 17 15  1  0  0  0  0
 19 21  1  0  0  0  0
 19 22  1  0  0  0  0
 19 20  1  0  0  0  0
M  END
