2
q = 0.0, confidence = 0.996

 31 32  0  0  1  0  0  0  0  0999 V2000
   -4.1011   -1.5301    0.0771 O   0  0  0  0  0  0  0  0  0  0  0  0
   -1.9720   -0.6620    0.2505 N   0  0  0  0  0  2  0  0  0  0  0  0
   -2.5120    0.1685   -0.0604 H   0  0  0  0  0  0  0  0  0  0  0  0
   -4.4241   -0.1847   -0.2500 N   0  0  0  0  0  2  0  0  0  0  0  0
   -6.3399   -1.2271   -1.1778 N   0  0  0  0  0  4  0  0  0  0  0  0
   -5.9477   -2.1424   -0.9490 H   0  0  0  0  0  0  0  0  0  0  0  0
   -6.9717   -1.1807   -1.9761 H   0  0  0  0  0  0  0  0  0  0  0  0
   -2.7615   -1.6817    0.3375 C   0  0  2  0  0  3  0  0  0  0  0  0
   -2.4113   -3.0786    0.6412 C   0  0  0  0  0  0  0  0  0  0  0  0
   -1.1334   -3.5799    0.3138 C   0  0  0  0  0  0  0  0  0  0  0  0
   -0.3926   -2.9023   -0.1372 H   0  0  0  0  0  0  0  0  0  0  0  0
   -0.8241   -4.9199    0.5711 C   0  0  0  0  0  0  0  0  0  0  0  0
    0.1749   -5.3032    0.3156 H   0  0  0  0  0  0  0  0  0  0  0  0
   -1.7767   -5.7686    1.1584 C   0  0  0  0  0  0  0  0  0  0  0  0
   -1.5252   -6.8202    1.3650 H   0  0  0  0  0  0  0  0  0  0  0  0
   -3.0505   -5.2745    1.4836 C   0  0  0  0  0  0  0  0  0  0  0  0
   -3.7973   -5.9346    1.9502 H   0  0  0  0  0  0  0  0  0  0  0  0
   -3.3716   -3.9368    1.2213 C   0  0  0  0  0  0  0  0  0  0  0  0
   -4.3629   -3.5402    1.4828 H   0  0  0  0  0  0  0  0  0  0  0  0
   -5.5385   -0.1478   -0.9339 C   0  0  0  0  0  0  0  0  0  0  0  0
   -5.9479    1.1856   -1.4405 C   0  0  0  0  0  0  0  0  0  0  0  0
   -7.3122    1.5138   -1.5868 C   0  0  0  0  0  0  0  0  0  0  0  0
   -8.0846    0.7897   -1.2851 H   0  0  0  0  0  0  0  0  0  0  0  0
   -7.6856    2.7727   -2.0780 C   0  0  0  0  0  0  0  0  0  0  0  0
   -8.7519    3.0244   -2.1819 H   0  0  0  0  0  0  0  0  0  0  0  0
   -6.7017    3.7126   -2.4227 C   0  0  0  0  0  0  0  0  0  0  0  0
   -6.9956    4.7008   -2.8082 H   0  0  0  0  0  0  0  0  0  0  0  0
   -5.3418    3.3899   -2.2762 C   0  0  0  0  0  0  0  0  0  0  0  0
   -4.5675    4.1215   -2.5514 H   0  0  0  0  0  0  0  0  0  0  0  0
   -4.9602    2.1332   -1.7904 C   0  0  0  0  0  0  0  0  0  0  0  0
   -3.8964    1.8675   -1.6945 H   0  0  0  0  0  0  0  0  0  0  0  0
  2  8  1  0  0  0  0
  3  2  1  0  0  0  0
  4  1  1  0  0  0  0
  5  6  1  0  0  0  0
  5 20  2  0  0  0  0
  7  5  1  0  0  0  0
  8  1  1  6  0  0  0
  8  9  1  0  0  0  0
  9 18  1  0  0  0  0
 10 12  1  0  0  0  0
 10  9  2  0  0  0  0
 11 10  1  0  0  0  0
 12 14  2  0  0  0  0
 13 12  1  0  0  0  0
 14 15  1  0  0  0  0
 14 16  1  0  0  0  0
 16 17  1  0  0  0  0
 18 19  1  0  0  0  0
 18 16  2  0  0  0  0
 20  4  1  0  0  0  0
 21 20  1  0  0  0  0
 22 21  1  0  0  0  0
 22 23  1  0  0  0  0
 24 22  2  0  0  0  0
 25 24  1  0  0  0  0
 26 28  2  0  0  0  0
 26 24  1  0  0  0  0
 27 26  1  0  0  0  0
 28 30  1  0  0  0  0
 29 28  1  0  0  0  0
 30 31  1  0  0  0  0
 30 21  2  0  0  0  0
M  END
