2
q = 0.0, confidence = 0.998

 15 15  0  0  0  0  0  0  0  0999 V2000
    1.5669    1.1814    1.3291 O   0  0  0  0  0  0  0  0  0  0  0  0
    1.4251   -0.5243   -0.1564 N   0  0  0  0  0  2  0  0  0  0  0  0
    1.9858   -1.4435   -0.9810 C   0  0  0  0  0  3  0  0  0  0  0  0
    3.3456   -1.4346   -1.2875 C   0  0  0  0  0  0  0  0  0  0  0  0
    4.1546   -0.4419   -0.7137 C   0  0  0  0  0  0  0  0  0  0  0  0
    3.5891    0.4846    0.1658 C   0  0  0  0  0  0  0  0  0  0  0  0
    2.2109    0.4040    0.4488 C   0  0  0  0  0  0  0  0  0  0  0  0
    2.1906    2.3877    1.7572 C   0  0  0  0  0  0  0  0  0  0  0  0
    1.2903   -2.1965   -1.3763 H   0  0  0  0  0  0  0  0  0  0  0  0
    3.7537   -2.1926   -1.9692 H   0  0  0  0  0  0  0  0  0  0  0  0
    5.2300   -0.3932   -0.9407 H   0  0  0  0  0  0  0  0  0  0  0  0
    4.2069    1.2537    0.6447 H   0  0  0  0  0  0  0  0  0  0  0  0
    1.4566    2.8927    2.4106 H   0  0  0  0  0  0  0  0  0  0  0  0
    2.4148    3.0355    0.8850 H   0  0  0  0  0  0  0  0  0  0  0  0
    3.1111    2.1878    2.3460 H   0  0  0  0  0  0  0  0  0  0  0  0
  1  8  1  0  0  0  0
  2  7  1  0  0  0  0
  3  2  1  0  0  0  0
  4  3  1  0  0  0  0
  4  5  2  0  0  0  0
  5  6  1  0  0  0  0
  6  7  2  0  0  0  0
  6 12  1  0  0  0  0
  7  1  1  0  0  0  0
  8 15  1  0  0  0  0
  8 13  1  0  0  0  0
  9  3  1  0  0  0  0
 10  4  1  0  0  0  0
 11  5  1  0  0  0  0
 14  8  1  0  0  0  0
M  END
