2
q = 0.0, confidence = 0.994

 66 71  0  0  1  0  0  0  0  0999 V2000
    1.9485   -2.0709    1.1834 N   0  0  0  0  0  0  0  0  0  0  0  0
    1.6009    0.0177   -0.4468 N   0  0  0  0  0  2  0  0  0  0  0  0
    1.6946    1.5196    1.2318 O   0  0  0  0  0  0  0  0  0  0  0  0
   -0.9565    0.9899   -0.1081 O   0  0  0  0  0  0  0  0  0  0  0  0
    2.0967   -3.1567    1.9624 C   0  0  0  0  0  0  0  0  0  0  0  0
    2.2698   -3.0608    3.3528 C   0  0  0  0  0  0  0  0  0  0  0  0
    2.2935   -1.7955    3.9539 C   0  0  0  0  0  0  0  0  0  0  0  0
    2.1423   -0.6584    3.1460 C   0  0  0  0  0  0  0  0  0  0  0  0
    1.9699   -0.8397    1.7693 C   0  0  0  0  0  0  0  0  0  0  0  0
    1.7615    0.2626    0.8222 C   0  0  1  0  0  3  0  0  0  0  0  0
    1.5001    2.3459   -0.0054 C   0  0  2  0  0  0  0  0  0  0  0  0
    1.1579    1.2667   -1.0811 C   0  0  2  0  0  0  0  0  0  0  0  0
    2.7297    3.1732   -0.2501 C   0  0  0  0  0  0  0  0  0  0  0  0
    3.9303    2.5780   -0.6939 C   0  0  0  0  0  0  0  0  0  0  0  0
    5.0716    3.3627   -0.9017 C   0  0  0  0  0  0  0  0  0  0  0  0
    5.0234    4.7495   -0.6782 C   0  0  0  0  0  0  0  0  0  0  0  0
    3.8324    5.3489   -0.2420 C   0  0  0  0  0  0  0  0  0  0  0  0
    2.6912    4.5622   -0.0254 C   0  0  0  0  0  0  0  0  0  0  0  0
   -0.3435    1.1591   -1.3649 C   0  0  0  0  0  0  0  0  0  0  0  0
   -2.3067    0.4743   -0.0286 C   0  0  0  0  0  0  0  0  0  0  0  0
   -2.6091    0.3831    1.4783 C   0  0  0  0  0  0  0  0  0  0  0  0
   -3.8352   -0.1635    1.9068 C   0  0  0  0  0  0  0  0  0  0  0  0
   -4.1377   -0.2585    3.2709 C   0  0  0  0  0  0  0  0  0  0  0  0
   -3.2202    0.1974    4.2323 C   0  0  0  0  0  0  0  0  0  0  0  0
   -2.0016    0.7481    3.8129 C   0  0  0  0  0  0  0  0  0  0  0  0
   -1.6952    0.8414    2.4443 C   0  0  0  0  0  0  0  0  0  0  0  0
   -2.3232   -0.9202   -0.6816 C   0  0  0  0  0  0  0  0  0  0  0  0
   -2.5971   -1.0988   -2.0542 C   0  0  0  0  0  0  0  0  0  0  0  0
   -2.5527   -2.3761   -2.6390 C   0  0  0  0  0  0  0  0  0  0  0  0
   -2.2285   -3.4985   -1.8612 C   0  0  0  0  0  0  0  0  0  0  0  0
   -1.9179   -3.3279   -0.5017 C   0  0  0  0  0  0  0  0  0  0  0  0
   -1.9543   -2.0509    0.0773 C   0  0  0  0  0  0  0  0  0  0  0  0
   -3.2966    1.4826   -0.6357 C   0  0  0  0  0  0  0  0  0  0  0  0
   -2.9881    2.8564   -0.5757 C   0  0  0  0  0  0  0  0  0  0  0  0
   -3.8950    3.8183   -1.0416 C   0  0  0  0  0  0  0  0  0  0  0  0
   -5.1371    3.4228   -1.5619 C   0  0  0  0  0  0  0  0  0  0  0  0
   -5.4651    2.0597   -1.6032 C   0  0  0  0  0  0  0  0  0  0  0  0
   -4.5534    1.0968   -1.1429 C   0  0  0  0  0  0  0  0  0  0  0  0
    2.0742   -4.1314    1.4541 H   0  0  0  0  0  0  0  0  0  0  0  0
    2.3832   -3.9778    3.9480 H   0  0  0  0  0  0  0  0  0  0  0  0
    2.4275   -1.6930    5.0406 H   0  0  0  0  0  0  0  0  0  0  0  0
    2.1498    0.3599    3.5585 H   0  0  0  0  0  0  0  0  0  0  0  0
    0.6281    2.9864    0.2210 H   0  0  0  0  0  0  0  0  0  0  0  0
    1.7078    1.4475   -2.0259 H   0  0  0  0  0  0  0  0  0  0  0  0
   -0.7010    2.0770   -1.8883 H   0  0  0  0  0  0  0  0  0  0  0  0
   -0.5181    0.2892   -2.0364 H   0  0  0  0  0  0  0  0  0  0  0  0
    3.9772    1.4923   -0.8758 H   0  0  0  0  0  0  0  0  0  0  0  0
    6.0050    2.8925   -1.2452 H   0  0  0  0  0  0  0  0  0  0  0  0
    5.9195    5.3649   -0.8478 H   0  0  0  0  0  0  0  0  0  0  0  0
    3.7910    6.4343   -0.0682 H   0  0  0  0  0  0  0  0  0  0  0  0
    1.7571    5.0315    0.3214 H   0  0  0  0  0  0  0  0  0  0  0  0
   -4.5636   -0.5230    1.1652 H   0  0  0  0  0  0  0  0  0  0  0  0
   -5.1003   -0.6883    3.5859 H   0  0  0  0  0  0  0  0  0  0  0  0
   -3.4605    0.1284    5.3038 H   0  0  0  0  0  0  0  0  0  0  0  0
   -1.2793    1.1182    4.5569 H   0  0  0  0  0  0  0  0  0  0  0  0
   -0.7412    1.2777    2.1236 H   0  0  0  0  0  0  0  0  0  0  0  0
   -2.8768   -0.2336   -2.6728 H   0  0  0  0  0  0  0  0  0  0  0  0
   -2.7934   -2.4942   -3.7064 H   0  0  0  0  0  0  0  0  0  0  0  0
   -2.2249   -4.5023   -2.3125 H   0  0  0  0  0  0  0  0  0  0  0  0
   -1.6650   -4.1997    0.1213 H   0  0  0  0  0  0  0  0  0  0  0  0
   -1.7264   -1.9285    1.1460 H   0  0  0  0  0  0  0  0  0  0  0  0
   -2.0306    3.1707   -0.1354 H   0  0  0  0  0  0  0  0  0  0  0  0
   -3.6337    4.8859   -0.9887 H   0  0  0  0  0  0  0  0  0  0  0  0
   -5.8513    4.1760   -1.9264 H   0  0  0  0  0  0  0  0  0  0  0  0
   -6.4409    1.7382   -1.9969 H   0  0  0  0  0  0  0  0  0  0  0  0
   -4.8326    0.0339   -1.1794 H   0  0  0  0  0  0  0  0  0  0  0  0
  1  9  2  0  0  0  0
  1  5  1  0  0  0  0
  2 10  1  0  0  0  0
  4 20  1  0  0  0  0
  5  6  2  0  0  0  0
  6 40  1  0  0  0  0
  6  7  1  0  0  0  0
  7 41  1  0  0  0  0
  8 42  1  0  0  0  0
  8  7  2  0  0  0  0
  9  8  1  0  0  0  0
 10  3  1  0  0  0  0
 10  9  1  1  0  0  0
 11 43  1  1  0  0  0
 11  3  1  0  0  0  0
 12 44  1  6  0  0  0
 12  2  1  0  0  0  0
 12 11  1  0  0  0  0
 13 18  1  0  0  0  0
 13 11  1  0  0  0  0
 14 13  2  0  0  0  0
 15 14  1  0  0  0  0
 15 16  2  0  0  0  0
 16 17  1  0  0  0  0
 17 50  1  0  0  0  0
 17 18  2  0  0  0  0
 18 51  1  0  0  0  0
 19 12  1  0  0  0  0
 19  4  1  0  0  0  0
 20 21  1  0  0  0  0
 21 22  2  0  0  0  0
 21 26  1  0  0  0  0
 22 23  1  0  0  0  0
 23 53  1  0  0  0  0
 23 24  2  0  0  0  0
 24 54  1  0  0  0  0
 25 24  1  0  0  0  0
 25 55  1  0  0  0  0
 26 25  2  0  0  0  0
 27 20  1  0  0  0  0
 27 32  1  0  0  0  0
 28 27  2  0  0  0  0
 29 28  1  0  0  0  0
 29 30  2  0  0  0  0
 30 31  1  0  0  0  0
 31 32  2  0  0  0  0
 31 60  1  0  0  0  0
 32 61  1  0  0  0  0
 33 34  1  0  0  0  0
 33 20  1  0  0  0  0
 34 62  1  0  0  0  0
 35 63  1  0  0  0  0
 35 34  2  0  0  0  0
 36 35  1  0  0  0  0
 37 36  2  0  0  0  0
 37 38  1  0  0  0  0
 38 33  2  0  0  0  0
 39  5  1  0  0  0  0
 45 19  1  0  0  0  0
 46 19  1  0  0  0  0
 47 14  1  0  0  0  0
 48 15  1  0  0  0  0
 49 16  1  0  0  0  0
 52 22  1  0  0  0  0
 56 26  1  0  0  0  0
 57 28  1  0  0  0  0
 58 29  1  0  0  0  0
 59 30  1  0  0  0  0
 64 36  1  0  0  0  0
 65 37  1  0  0  0  0
 66 38  1  0  0  0  0
M  END
