1
q = 0.0, confidence = 0.998

 28 27  0  0  0  0  0  0  0  0999 V2000
   -1.8565    0.5403   -0.7133 N   0  0  0  0  0  0  0  0  0  0  0  0
   -1.9199    0.2488   -1.7016 H   0  0  0  0  0  0  0  0  0  0  0  0
   -1.8419    1.5776   -0.7105 H   0  0  0  0  0  0  0  0  0  0  0  0
   -6.9158    0.3189   -0.4014 C   0  0  0  0  0  0  0  0  0  0  0  0
   -6.9685   -0.0377   -1.4550 H   0  0  0  0  0  0  0  0  0  0  0  0
   -6.9764    1.4294   -0.4592 H   0  0  0  0  0  0  0  0  0  0  0  0
  -10.6801   -0.3499    0.5483 C   0  0  0  0  0  0  0  0  0  0  0  0
  -10.6235    0.0077    1.6007 H   0  0  0  0  0  0  0  0  0  0  0  0
  -10.6128   -1.4593    0.6074 H   0  0  0  0  0  0  0  0  0  0  0  0
   -5.5679   -0.0841    0.2019 C   0  0  0  0  0  0  0  0  0  0  0  0
   -5.5040   -1.1938    0.2579 H   0  0  0  0  0  0  0  0  0  0  0  0
   -5.5131    0.2723    1.2550 H   0  0  0  0  0  0  0  0  0  0  0  0
   -9.4719    0.1839   -0.2272 C   0  0  0  0  0  0  0  0  0  0  0  0
   -9.5349    1.2944   -0.2868 H   0  0  0  0  0  0  0  0  0  0  0  0
   -9.5248   -0.1732   -1.2810 H   0  0  0  0  0  0  0  0  0  0  0  0
   -4.3620    0.4510   -0.5756 C   0  0  0  0  0  0  0  0  0  0  0  0
   -4.4136    1.5625   -0.6241 H   0  0  0  0  0  0  0  0  0  0  0  0
   -4.4144    0.0939   -1.6295 H   0  0  0  0  0  0  0  0  0  0  0  0
   -8.1223   -0.2149    0.3749 C   0  0  0  0  0  0  0  0  0  0  0  0
   -8.0689    0.1423    1.4283 H   0  0  0  0  0  0  0  0  0  0  0  0
   -8.0589   -1.3252    0.4340 H   0  0  0  0  0  0  0  0  0  0  0  0
  -12.0231    0.0531   -0.0613 C   0  0  0  0  0  0  0  0  0  0  0  0
  -12.8770   -0.3476    0.5212 H   0  0  0  0  0  0  0  0  0  0  0  0
  -12.1335    1.1572   -0.0995 H   0  0  0  0  0  0  0  0  0  0  0  0
  -12.1227   -0.3224   -1.1014 H   0  0  0  0  0  0  0  0  0  0  0  0
   -3.0295    0.0250    0.0367 C   0  0  0  0  0  0  0  0  0  0  0  0
   -2.9332    0.3863    1.0801 H   0  0  0  0  0  0  0  0  0  0  0  0
   -2.9275   -1.0785    0.0680 H   0  0  0  0  0  0  0  0  0  0  0  0
  1  3  1  0  0  0  0
  1 26  1  0  0  0  0
  2  1  1  0  0  0  0
  4 10  1  0  0  0  0
  4 19  1  0  0  0  0
  5  4  1  0  0  0  0
  6  4  1  0  0  0  0
  7  9  1  0  0  0  0
  7  8  1  0  0  0  0
 10 11  1  0  0  0  0
 10 12  1  0  0  0  0
 13 19  1  0  0  0  0
 13  7  1  0  0  0  0
 14 13  1  0  0  0  0
 15 13  1  0  0  0  0
 16 26  1  0  0  0  0
 16 10  1  0  0  0  0
 17 16  1  0  0  0  0
 18 16  1  0  0  0  0
 19 21  1  0  0  0  0
 19 20  1  0  0  0  0
 22 23  1  0  0  0  0
 22  7  1  0  0  0  0
 24 22  1  0  0  0  0
 25 22  1  0  0  0  0
 26 28  1  0  0  0  0
 26 27  1  0  0  0  0
M  END
