2
q = 0.0, confidence = 0.994

 25 27  0  0  1  0  0  0  0  0999 V2000
    5.6753   -0.3426    0.7836 Br  0  0  0  0  0  0  0  0  0  0  0  0
    1.6047    1.1378   -0.4345 N   0  0  0  0  0  2  0  0  0  0  0  0
    3.7226    1.7799   -0.6155 N   0  0  0  0  0  0  0  0  0  0  0  0
    4.7381    1.6909   -0.6728 H   0  0  0  0  0  0  0  0  0  0  0  0
    1.6323    2.5223   -0.3786 C   0  0  0  0  0  0  0  0  0  0  0  0
    0.5903    3.4575   -0.2483 C   0  0  0  0  0  0  0  0  0  0  0  0
   -0.4528    3.1143   -0.2100 H   0  0  0  0  0  0  0  0  0  0  0  0
    0.9485    4.8083   -0.2101 C   0  0  0  0  0  0  0  0  0  0  0  0
    0.1612    5.5710   -0.1163 H   0  0  0  0  0  0  0  0  0  0  0  0
    2.3015    5.2236   -0.3003 C   0  0  0  0  0  0  0  0  0  0  0  0
    2.5369    6.2977   -0.2661 H   0  0  0  0  0  0  0  0  0  0  0  0
    3.3464    4.3021   -0.4406 C   0  0  0  0  0  0  0  0  0  0  0  0
    4.3938    4.6270   -0.5184 H   0  0  0  0  0  0  0  0  0  0  0  0
    2.9879    2.9452   -0.4806 C   0  0  0  0  0  0  0  0  0  0  0  0
    2.8651    0.7083   -0.5852 C   0  0  2  0  0  3  0  0  0  0  0  0
    3.2403   -0.6961   -0.7870 C   0  0  0  0  0  0  0  0  0  0  0  0
    4.4069   -1.3093   -0.2733 C   0  0  0  0  0  0  0  0  0  0  0  0
    4.6656   -2.6718   -0.4848 C   0  0  0  0  0  0  0  0  0  0  0  0
    5.5722   -3.1215   -0.0568 H   0  0  0  0  0  0  0  0  0  0  0  0
    3.7622   -3.4466   -1.2253 C   0  0  0  0  0  0  0  0  0  0  0  0
    3.9710   -4.5154   -1.3828 H   0  0  0  0  0  0  0  0  0  0  0  0
    2.6083   -2.8568   -1.7646 C   0  0  0  0  0  0  0  0  0  0  0  0
    1.8990   -3.4525   -2.3574 H   0  0  0  0  0  0  0  0  0  0  0  0
    2.3550   -1.4992   -1.5491 C   0  0  0  0  0  0  0  0  0  0  0  0
    1.4553   -1.0257   -1.9730 H   0  0  0  0  0  0  0  0  0  0  0  0
  2  5  1  0  0  0  0
  3 15  1  0  0  0  0
  3 14  1  0  0  0  0
  4  3  1  0  0  0  0
  5  6  1  0  0  0  0
  6  8  2  0  0  0  0
  6  7  1  0  0  0  0
  8  9  1  0  0  0  0
 10 11  1  0  0  0  0
 10  8  1  0  0  0  0
 12 10  2  0  0  0  0
 13 12  1  0  0  0  0
 14 12  1  0  0  0  0
 14  5  2  0  0  0  0
 15 16  1  6  0  0  0
 15  2  1  0  0  0  0
 16 17  1  0  0  0  0
 17  1  1  0  0  0  0
 18 17  2  0  0  0  0
 18 19  1  0  0  0  0
 20 18  1  0  0  0  0
 21 20  1  0  0  0  0
 22 24  1  0  0  0  0
 22 20  2  0  0  0  0
 23 22  1  0  0  0  0
 24 16  2  0  0  0  0
 25 24  1  0  0  0  0
M  END
