24
q = 0.0, confidence = 1.0

 27 29  0  0  0  0  0  0  0  0999 V2000
    2.6639    2.1474    0.1612 C   0  0  0  0  0  3  0  0  0  0  0  0
    3.5950    1.5627    0.1697 H   0  0  0  0  0  0  0  0  0  0  0  0
    2.6509    3.5375    0.2878 C   0  0  0  0  0  0  0  0  0  0  0  0
    3.5978    4.0772    0.4251 H   0  0  0  0  0  0  0  0  0  0  0  0
    1.4186    4.2059    0.2344 C   0  0  0  0  0  0  0  0  0  0  0  0
    1.3693    5.3006    0.3312 H   0  0  0  0  0  0  0  0  0  0  0  0
    0.2536    3.4643    0.0255 C   0  0  0  0  0  0  0  0  0  0  0  0
   -0.7226    3.9570   -0.0808 H   0  0  0  0  0  0  0  0  0  0  0  0
    0.3215    2.0612   -0.0948 C   0  0  0  0  0  0  0  0  0  0  0  0
   -0.8737    1.2596   -0.3519 C   0  0  0  0  0  0  0  0  0  0  0  0
   -2.1823    1.4486    0.0854 C   0  0  0  0  0  0  0  0  0  0  0  0
   -2.6402    2.1824    0.7533 H   0  0  0  0  0  0  0  0  0  0  0  0
   -4.2297    0.0279   -0.2632 C   0  0  0  0  0  0  0  0  0  0  0  0
   -5.1903    1.0233   -0.0124 C   0  0  0  0  0  0  0  0  0  0  0  0
   -4.8984    2.0824    0.0305 H   0  0  0  0  0  0  0  0  0  0  0  0
   -6.5318    0.6540    0.1565 C   0  0  0  0  0  0  0  0  0  0  0  0
   -7.2858    1.4306    0.3530 H   0  0  0  0  0  0  0  0  0  0  0  0
   -6.9136   -0.6933    0.0604 C   0  0  0  0  0  0  0  0  0  0  0  0
   -7.9683   -0.9775    0.1898 H   0  0  0  0  0  0  0  0  0  0  0  0
   -5.9457   -1.6762   -0.2041 C   0  0  0  0  0  0  0  0  0  0  0  0
   -6.2388   -2.7338   -0.2797 H   0  0  0  0  0  0  0  0  0  0  0  0
   -4.5992   -1.3256   -0.3625 C   0  0  0  0  0  0  0  0  0  0  0  0
   -3.8239   -2.0776   -0.5599 H   0  0  0  0  0  0  0  0  0  0  0  0
    1.5264    1.4355    0.0061 N   0  0  0  0  0  2  0  0  0  0  0  0
   -0.8374    0.1083   -1.1014 N   0  0  0  0  0  0  0  0  0  0  0  0
   -2.0198   -0.4195   -1.1474 N   0  0  0  0  0  0  0  0  0  0  0  0
   -2.8594    0.3796   -0.4210 N   0  0  0  0  0  0  0  0  0  0  0  0
  1  2  1  0  0  0  0
  1  3  1  0  0  0  0
  3  4  1  0  0  0  0
  5  3  2  0  0  0  0
  5  6  1  0  0  0  0
  7  5  1  0  0  0  0
  8  7  1  0  0  0  0
  9 24  1  0  0  0  0
  9  7  2  0  0  0  0
 10  9  1  0  0  0  0
 10 11  2  0  0  0  0
 11 12  1  0  0  0  0
 13 14  1  0  0  0  0
 14 15  1  0  0  0  0
 14 16  2  0  0  0  0
 16 17  1  0  0  0  0
 18 16  1  0  0  0  0
 18 19  1  0  0  0  0
 20 18  2  0  0  0  0
 21 20  1  0  0  0  0
 22 13  2  0  0  0  0
 22 20  1  0  0  0  0
 23 22  1  0  0  0  0
 24  1  1  0  0  0  0
 25 10  1  0  0  0  0
 26 25  2  0  0  0  0
 26 27  1  0  0  0  0
 27 13  1  0  0  0  0
 27 11  1  0  0  0  0
M  END
