1
q = 0.0, confidence = 0.99

 21 20  0  0  1  0  0  0  0  0999 V2000
    2.0064   -0.2858   -0.0320 N   0  0  0  0  0  2  0  0  0  0  0  0
    3.0457    0.2730    0.5091 C   0  0  1  0  0  3  0  0  0  0  0  0
    4.2865   -0.1414    0.2287 O   0  0  0  0  0  0  0  0  0  0  0  0
    4.4937   -1.1981   -0.7338 C   0  0  0  0  0  0  0  0  0  0  0  0
    5.9906   -1.3792   -0.9214 C   0  0  0  0  0  0  0  0  0  0  0  0
    6.6888   -0.1473   -1.4977 C   0  0  0  0  0  0  0  0  0  0  0  0
    7.7758   -0.3232   -1.6177 H   0  0  0  0  0  0  0  0  0  0  0  0
    6.2778    0.1204   -2.4931 H   0  0  0  0  0  0  0  0  0  0  0  0
    6.5584    0.7298   -0.8331 H   0  0  0  0  0  0  0  0  0  0  0  0
    6.1303   -2.2563   -1.5884 H   0  0  0  0  0  0  0  0  0  0  0  0
    6.4360   -1.6591    0.0569 H   0  0  0  0  0  0  0  0  0  0  0  0
    3.9999   -0.9118   -1.6909 H   0  0  0  0  0  0  0  0  0  0  0  0
    4.0149   -2.1292   -0.3562 H   0  0  0  0  0  0  0  0  0  0  0  0
    3.0190    1.4299    1.4564 C   0  0  0  0  0  0  0  0  0  0  0  0
    3.5524    2.7147    0.8055 C   0  0  0  0  0  0  0  0  0  0  0  0
    3.5702    3.5318    1.5524 H   0  0  0  0  0  0  0  0  0  0  0  0
    4.5810    2.5804    0.4154 H   0  0  0  0  0  0  0  0  0  0  0  0
    2.8852    3.0241   -0.0219 H   0  0  0  0  0  0  0  0  0  0  0  0
    3.6553    1.1413    2.3192 H   0  0  0  0  0  0  0  0  0  0  0  0
    1.9850    1.5634    1.8225 H   0  0  0  0  0  0  0  0  0  0  0  0
    2.1795   -1.0853   -0.6555 H   0  0  0  0  0  0  0  0  0  0  0  0
  2  1  1  6  0  0  0
  2 14  1  0  0  0  0
  3  2  1  0  0  0  0
  4 13  1  0  0  0  0
  4  3  1  0  0  0  0
  5  4  1  0  0  0  0
  5 11  1  0  0  0  0
  6  5  1  0  0  0  0
  6  9  1  0  0  0  0
  7  6  1  0  0  0  0
  8  6  1  0  0  0  0
 10  5  1  0  0  0  0
 12  4  1  0  0  0  0
 14 20  1  0  0  0  0
 14 19  1  0  0  0  0
 15 14  1  0  0  0  0
 15 16  1  0  0  0  0
 17 15  1  0  0  0  0
 18 15  1  0  0  0  0
 21  1  1  0  0  0  0
M  END
