1
q = 0.0, confidence = 0.502

 34 38  0  0  1  0  0  0  0  0999 V2000
    1.6564    0.9557    0.0180 N   0  0  0  0  0  2  0  0  0  0  0  0
   -1.1916    1.3565    0.2684 C   0  0  2  0  0  0  0  0  0  0  0  0
   -1.8830    0.2347    1.1307 C   0  0  1  0  0  0  0  0  0  0  0  0
   -1.5972    0.1822    2.1897 H   0  0  0  0  0  0  0  0  0  0  0  0
   -0.1782    2.2922    0.9413 C   0  0  0  0  0  0  0  0  0  0  0  0
   -0.5078    3.3458    0.8555 H   0  0  0  0  0  0  0  0  0  0  0  0
   -0.1562    2.0696    2.0318 H   0  0  0  0  0  0  0  0  0  0  0  0
    1.2293    2.1815    0.4219 C   0  0  1  0  0  3  0  0  0  0  0  0
    2.0930    3.2893    0.3679 C   0  0  0  0  0  0  0  0  0  0  0  0
    1.7212    4.2741    0.6846 H   0  0  0  0  0  0  0  0  0  0  0  0
    3.4038    3.1284   -0.0949 C   0  0  0  0  0  0  0  0  0  0  0  0
    4.0851    3.9911   -0.1451 H   0  0  0  0  0  0  0  0  0  0  0  0
    3.8303    1.8566   -0.5069 C   0  0  0  0  0  0  0  0  0  0  0  0
    4.8461    1.6835   -0.8884 H   0  0  0  0  0  0  0  0  0  0  0  0
    2.9219    0.7988   -0.4385 C   0  0  0  0  0  0  0  0  0  0  0  0
    3.1844   -0.2182   -0.7705 H   0  0  0  0  0  0  0  0  0  0  0  0
   -3.8463    1.2038   -0.5345 B   0  0  0  0  0  2  0  0  0  0  0  0
   -4.9164    1.7542   -0.6591 H   0  0  0  0  0  0  0  0  0  0  0  0
   -2.3140    2.0738   -0.8249 B   0  0  2  0  0  0  0  0  0  0  0  0
   -2.1761    3.2498   -1.0770 H   0  0  0  0  0  0  0  0  0  0  0  0
   -2.8016    1.6427    0.8259 B   0  0  2  0  0  0  0  0  0  0  0  0
   -2.9579    2.4474    1.7133 H   0  0  0  0  0  0  0  0  0  0  0  0
   -3.5429    0.0342    0.7810 B   0  0  1  0  0  0  0  0  0  0  0  0
   -4.3015   -0.2510    1.6778 H   0  0  0  0  0  0  0  0  0  0  0  0
   -3.5559   -0.5277   -0.9085 B   0  0  0  0  0  0  0  0  0  0  0  0
   -4.4410   -1.2486   -1.3131 H   0  0  0  0  0  0  0  0  0  0  0  0
   -2.7935    0.7490   -1.9097 B   0  0  0  0  0  2  0  0  0  0  0  0
   -3.0998    0.9780   -3.0593 H   0  0  0  0  0  0  0  0  0  0  0  0
   -2.2960   -1.0983    0.2193 B   0  0  1  0  0  0  0  0  0  0  0  0
   -2.2669   -2.2051    0.7270 H   0  0  0  0  0  0  0  0  0  0  0  0
   -1.8730   -0.7039   -1.4526 B   0  0  2  0  0  0  0  0  0  0  0  0
   -1.5885   -1.5350   -2.2965 H   0  0  0  0  0  0  0  0  0  0  0  0
   -1.1135    0.8878   -1.3435 B   0  0  2  0  0  0  0  0  0  0  0  0
   -0.1822    1.2956   -2.0179 H   0  0  0  0  0  0  0  0  0  0  0  0
  1  8  1  0  0  0  0
  2  5  1  1  0  0  0
  2  3  1  0  0  0  0
  3  4  1  1  0  0  0
  5  7  1  0  0  0  0
  6  5  1  0  0  0  0
  8  5  1  1  0  0  0
  9  8  1  0  0  0  0
  9 10  1  0  0  0  0
 11  9  2  0  0  0  0
 12 11  1  0  0  0  0
 13 15  2  0  0  0  0
 13 11  1  0  0  0  0
 14 13  1  0  0  0  0
 15  1  1  0  0  0  0
 16 15  1  0  0  0  0
 17 21  1  0  0  0  0
 18 17  1  0  0  0  0
 19 20  1  6  0  0  0
 19  2  1  0  0  0  0
 19 21  1  0  0  0  0
 21 22  1  1  0  0  0
 23 21  1  0  0  0  0
 23  3  1  0  0  0  0
 23 24  1  1  0  0  0
 26 25  1  0  0  0  0
 27 25  1  0  0  0  0
 28 27  1  0  0  0  0
 29 30  1  1  0  0  0
 29 23  1  0  0  0  0
 29  3  1  0  0  0  0
 31 32  1  6  0  0  0
 31 33  1  0  0  0  0
 31 25  1  0  0  0  0
 31 29  1  0  0  0  0
 33 34  1  6  0  0  0
 33 19  1  0  0  0  0
 33  2  1  0  0  0  0
M  END
