2
q = 0.0, confidence = 1.0

 25 26  0  0  0  0  0  0  0  0999 V2000
    2.7633    0.3408    0.7821 N   0  0  0  0  0  0  0  0  0  0  0  0
    0.6717   -0.3529    0.4056 N   0  0  0  0  0  2  0  0  0  0  0  0
    1.4294    0.6032    0.9323 C   0  0  0  0  0  3  0  0  0  0  0  0
    1.0171    1.4639    1.4761 H   0  0  0  0  0  0  0  0  0  0  0  0
    1.5386   -1.3148   -0.1081 C   0  0  0  0  0  0  0  0  0  0  0  0
    1.2891   -2.5562   -0.7192 C   0  0  0  0  0  0  0  0  0  0  0  0
    0.2596   -2.9250   -0.8095 H   0  0  0  0  0  0  0  0  0  0  0  0
    2.3963   -3.3023   -1.1364 C   0  0  0  0  0  0  0  0  0  0  0  0
    2.2366   -4.2820   -1.6109 H   0  0  0  0  0  0  0  0  0  0  0  0
    3.7218   -2.8367   -0.9502 C   0  0  0  0  0  0  0  0  0  0  0  0
    4.5627   -3.4543   -1.2990 H   0  0  0  0  0  0  0  0  0  0  0  0
    3.9878   -1.6146   -0.3206 C   0  0  0  0  0  0  0  0  0  0  0  0
    5.0146   -1.2527   -0.1730 H   0  0  0  0  0  0  0  0  0  0  0  0
    2.8750   -0.8711    0.1052 C   0  0  0  0  0  0  0  0  0  0  0  0
    3.8550    1.2326    1.1511 C   0  0  0  0  0  0  0  0  0  0  0  0
    4.6063    0.6647    1.7365 H   0  0  0  0  0  0  0  0  0  0  0  0
    3.4206    2.0005    1.8257 H   0  0  0  0  0  0  0  0  0  0  0  0
    4.4994    1.8986   -0.0514 C   0  0  0  0  0  0  0  0  0  0  0  0
    3.5620    2.5985   -0.9969 C   0  0  0  0  0  0  0  0  0  0  0  0
    4.1094    3.1091   -1.8111 H   0  0  0  0  0  0  0  0  0  0  0  0
    2.9408    3.3515   -0.4649 H   0  0  0  0  0  0  0  0  0  0  0  0
    2.8513    1.8787   -1.4573 H   0  0  0  0  0  0  0  0  0  0  0  0
    5.8358    1.8578   -0.2185 C   0  0  0  0  0  0  0  0  0  0  0  0
    6.4869    1.3224    0.4913 H   0  0  0  0  0  0  0  0  0  0  0  0
    6.3239    2.3664   -1.0643 H   0  0  0  0  0  0  0  0  0  0  0  0
  1  3  1  0  0  0  0
  1 15  1  0  0  0  0
  2  3  1  0  0  0  0
  3  4  1  0  0  0  0
  5 14  1  0  0  0  0
  5  2  1  0  0  0  0
  6  5  2  0  0  0  0
  7  6  1  0  0  0  0
  8 10  2  0  0  0  0
  8  6  1  0  0  0  0
  9  8  1  0  0  0  0
 10 12  1  0  0  0  0
 11 10  1  0  0  0  0
 12 13  1  0  0  0  0
 12 14  2  0  0  0  0
 14  1  1  0  0  0  0
 15 16  1  0  0  0  0
 15 17  1  0  0  0  0
 18 15  1  0  0  0  0
 19 21  1  0  0  0  0
 19 18  1  0  0  0  0
 20 19  1  0  0  0  0
 22 19  1  0  0  0  0
 23 18  2  0  0  0  0
 23 24  1  0  0  0  0
 25 23  1  0  0  0  0
M  END
