1
q = 0.0, confidence = 0.998

 33 34  0  0  1  0  0  0  0  0999 V2000
    1.0632    1.6783   -0.2589 N   0  0  0  0  0  2  0  0  0  0  0  0
    6.4224    2.5309    0.5056 O   0  0  0  0  0  0  0  0  0  0  0  0
    2.8676    2.8298   -0.2100 N   0  0  0  0  0  0  0  0  0  0  0  0
    1.2603    2.2277   -1.4799 N   0  0  0  0  0  0  0  0  0  0  0  0
    4.9213    0.9262   -0.1772 N   0  0  0  0  0  0  0  0  0  0  0  0
    3.9553    0.6876   -0.4378 H   0  0  0  0  0  0  0  0  0  0  0  0
    2.3475    2.9221   -1.4671 N   0  0  0  0  0  0  0  0  0  0  0  0
    6.4526   -2.2870    1.2425 C   0  0  0  0  0  0  0  0  0  0  0  0
    7.5014   -1.9474    1.3991 H   0  0  0  0  0  0  0  0  0  0  0  0
    6.1880   -2.9012    2.1282 H   0  0  0  0  0  0  0  0  0  0  0  0
    5.8384   -0.2090   -0.0841 C   0  0  0  0  0  0  0  0  0  0  0  0
    6.8506    0.2346    0.0274 H   0  0  0  0  0  0  0  0  0  0  0  0
    2.0582    2.0576    0.5545 C   0  0  2  0  0  3  0  0  0  0  0  0
    4.2099    3.2920    0.0821 C   0  0  0  0  0  0  0  0  0  0  0  0
    4.4889    4.0079   -0.7135 H   0  0  0  0  0  0  0  0  0  0  0  0
    4.2248    3.8304    1.0493 H   0  0  0  0  0  0  0  0  0  0  0  0
    2.2649    1.6553    1.9649 C   0  0  0  0  0  0  0  0  0  0  0  0
    2.7357    2.4661    2.5529 H   0  0  0  0  0  0  0  0  0  0  0  0
    1.2897    1.3850    2.4111 H   0  0  0  0  0  0  0  0  0  0  0  0
    2.9162    0.7580    2.0034 H   0  0  0  0  0  0  0  0  0  0  0  0
    5.2969    2.1886    0.1547 C   0  0  0  0  0  0  0  0  0  0  0  0
    6.7005   -2.2761   -1.2753 C   0  0  0  0  0  0  0  0  0  0  0  0
    7.7595   -1.9366   -1.2208 H   0  0  0  0  0  0  0  0  0  0  0  0
    6.6150   -2.8826   -2.2007 H   0  0  0  0  0  0  0  0  0  0  0  0
    5.7824   -1.0507   -1.3685 C   0  0  0  0  0  0  0  0  0  0  0  0
    6.0525   -0.4159   -2.2378 H   0  0  0  0  0  0  0  0  0  0  0  0
    4.7315   -1.3836   -1.5255 H   0  0  0  0  0  0  0  0  0  0  0  0
    5.5311   -1.0639    1.1597 C   0  0  0  0  0  0  0  0  0  0  0  0
    4.4704   -1.3956    1.1009 H   0  0  0  0  0  0  0  0  0  0  0  0
    5.6294   -0.4323    2.0678 H   0  0  0  0  0  0  0  0  0  0  0  0
    6.3796   -3.1265   -0.0395 C   0  0  0  0  0  0  0  0  0  0  0  0
    5.3540   -3.5466   -0.1419 H   0  0  0  0  0  0  0  0  0  0  0  0
    7.0710   -3.9925    0.0243 H   0  0  0  0  0  0  0  0  0  0  0  0
  1 13  1  0  0  0  0
  3 14  1  0  0  0  0
  3 13  1  0  0  0  0
  4  7  2  0  0  0  0
  4  1  1  0  0  0  0
  5 11  1  0  0  0  0
  5 21  1  0  0  0  0
  6  5  1  0  0  0  0
  7  3  1  0  0  0  0
  8  9  1  0  0  0  0
  8 10  1  0  0  0  0
 11 12  1  0  0  0  0
 11 28  1  0  0  0  0
 13 17  1  6  0  0  0
 14 21  1  0  0  0  0
 14 16  1  0  0  0  0
 15 14  1  0  0  0  0
 17 20  1  0  0  0  0
 17 19  1  0  0  0  0
 17 18  1  0  0  0  0
 21  2  2  0  0  0  0
 22 23  1  0  0  0  0
 22 31  1  0  0  0  0
 24 22  1  0  0  0  0
 25 22  1  0  0  0  0
 25 11  1  0  0  0  0
 26 25  1  0  0  0  0
 27 25  1  0  0  0  0
 28  8  1  0  0  0  0
 28 30  1  0  0  0  0
 29 28  1  0  0  0  0
 31 33  1  0  0  0  0
 31  8  1  0  0  0  0
 32 31  1  0  0  0  0
M  END
