1
q = 0.0, confidence = 0.998

 36 38  0  0  0  0  0  0  0  0999 V2000
   -1.8113   -0.2539   -0.7653 N   0  0  0  0  0  2  0  0  0  0  0  0
   -3.2441    0.0539   -0.0382 P   0  0  0  0  0  4  0  0  0  0  0  0
   -3.6612   -1.1884    1.2127 C   0  0  0  0  0  0  0  0  0  0  0  0
   -3.2316   -2.5093    0.9718 C   0  0  0  0  0  0  0  0  0  0  0  0
   -2.5948   -2.7282    0.1020 H   0  0  0  0  0  0  0  0  0  0  0  0
   -3.5735   -3.5193    1.8820 C   0  0  0  0  0  0  0  0  0  0  0  0
   -3.2237   -4.5475    1.7056 H   0  0  0  0  0  0  0  0  0  0  0  0
   -4.3375   -3.2173    3.0203 C   0  0  0  0  0  0  0  0  0  0  0  0
   -4.5975   -4.0129    3.7352 H   0  0  0  0  0  0  0  0  0  0  0  0
   -4.7591   -1.8979    3.2570 C   0  0  0  0  0  0  0  0  0  0  0  0
   -5.3452   -1.6579    4.1569 H   0  0  0  0  0  0  0  0  0  0  0  0
   -4.4206   -0.8790    2.3566 C   0  0  0  0  0  0  0  0  0  0  0  0
   -4.7252    0.1588    2.5561 H   0  0  0  0  0  0  0  0  0  0  0  0
   -4.5373   -0.0338   -1.3285 C   0  0  0  0  0  0  0  0  0  0  0  0
   -4.5495    0.9628   -2.3290 C   0  0  0  0  0  0  0  0  0  0  0  0
   -3.8380    1.8021   -2.2795 H   0  0  0  0  0  0  0  0  0  0  0  0
   -5.4733    0.8896   -3.3803 C   0  0  0  0  0  0  0  0  0  0  0  0
   -5.4772    1.6671   -4.1592 H   0  0  0  0  0  0  0  0  0  0  0  0
   -6.3941   -0.1700   -3.4360 C   0  0  0  0  0  0  0  0  0  0  0  0
   -7.1213   -0.2238   -4.2603 H   0  0  0  0  0  0  0  0  0  0  0  0
   -6.3878   -1.1582   -2.4391 C   0  0  0  0  0  0  0  0  0  0  0  0
   -7.1099   -1.9877   -2.4791 H   0  0  0  0  0  0  0  0  0  0  0  0
   -5.4612   -1.0951   -1.3870 C   0  0  0  0  0  0  0  0  0  0  0  0
   -5.4525   -1.8717   -0.6077 H   0  0  0  0  0  0  0  0  0  0  0  0
   -3.4508    1.7391    0.6501 C   0  0  0  0  0  0  0  0  0  0  0  0
   -2.3153    2.5258    0.9201 C   0  0  0  0  0  0  0  0  0  0  0  0
   -1.3145    2.0972    0.7687 H   0  0  0  0  0  0  0  0  0  0  0  0
   -2.4748    3.8294    1.4124 C   0  0  0  0  0  0  0  0  0  0  0  0
   -1.5856    4.4417    1.6265 H   0  0  0  0  0  0  0  0  0  0  0  0
   -3.7594    4.3495    1.6385 C   0  0  0  0  0  0  0  0  0  0  0  0
   -3.8789    5.3722    2.0277 H   0  0  0  0  0  0  0  0  0  0  0  0
   -4.8934    3.5683    1.3623 C   0  0  0  0  0  0  0  0  0  0  0  0
   -5.9015    3.9768    1.5296 H   0  0  0  0  0  0  0  0  0  0  0  0
   -4.7420    2.2671    0.8604 C   0  0  0  0  0  0  0  0  0  0  0  0
   -5.6318    1.6656    0.6171 H   0  0  0  0  0  0  0  0  0  0  0  0
   -1.8336   -0.0902   -1.7823 H   0  0  0  0  0  0  0  0  0  0  0  0
  1  2  1  0  0  0  0
  2 25  1  0  0  0  0
  2  3  1  0  0  0  0
  3 12  1  0  0  0  0
  4  3  2  0  0  0  0
  4  6  1  0  0  0  0
  5  4  1  0  0  0  0
  6  8  2  0  0  0  0
  7  6  1  0  0  0  0
  8 10  1  0  0  0  0
  8  9  1  0  0  0  0
 10 11  1  0  0  0  0
 12 13  1  0  0  0  0
 12 10  2  0  0  0  0
 14  2  1  0  0  0  0
 15 16  1  0  0  0  0
 15 14  2  0  0  0  0
 17 15  1  0  0  0  0
 18 17  1  0  0  0  0
 19 17  2  0  0  0  0
 19 21  1  0  0  0  0
 20 19  1  0  0  0  0
 21 23  2  0  0  0  0
 22 21  1  0  0  0  0
 23 14  1  0  0  0  0
 23 24  1  0  0  0  0
 25 34  2  0  0  0  0
 25 26  1  0  0  0  0
 26 28  2  0  0  0  0
 27 26  1  0  0  0  0
 28 29  1  0  0  0  0
 28 30  1  0  0  0  0
 30 31  1  0  0  0  0
 32 33  1  0  0  0  0
 32 30  2  0  0  0  0
 34 32  1  0  0  0  0
 35 34  1  0  0  0  0
 36  1  1  0  0  0  0
M  END
