2
q = -1.0, confidence = 0.0

 23 23  0  0  0  0  0  0  0  0999 V2000
   -0.0147   -0.6839    2.3039 S   0  0  0  0  0  0  0  0  0  0  0  0
    1.7653   -0.4828    0.5262 N   0  0  0  0  0  2  0  0  0  0  0  0
    2.5036    0.3089    2.6930 N   0  0  0  0  0  0  0  0  0  0  0  0
    1.6164   -0.2425    1.8327 C   0  0  0  0  0  0  0  0  0  0  0  0
    2.1866    0.4070    4.1117 C   0  0  0  0  0  0  0  0  0  0  0  0
    1.8395    1.4304    4.3717 H   0  0  0  0  0  0  0  0  0  0  0  0
    3.0902    0.1717    4.7092 H   0  0  0  0  0  0  0  0  0  0  0  0
    1.3945   -0.3177    4.3777 H   0  0  0  0  0  0  0  0  0  0  0  0
    3.7385    0.9576    2.2687 C   0  0  0  0  0  0  0  0  0  0  0  0
    4.6235    0.3056    2.4304 H   0  0  0  0  0  0  0  0  0  0  0  0
    3.8646    1.8901    2.8532 H   0  0  0  0  0  0  0  0  0  0  0  0
    3.6894    1.2275    1.2013 H   0  0  0  0  0  0  0  0  0  0  0  0
    2.9866   -0.7105   -0.1428 C   0  0  0  0  0  0  0  0  0  0  0  0
    3.2392   -0.1046   -1.3912 C   0  0  0  0  0  0  0  0  0  0  0  0
    2.4877    0.5744   -1.8170 H   0  0  0  0  0  0  0  0  0  0  0  0
    4.4347   -0.3655   -2.0741 C   0  0  0  0  0  0  0  0  0  0  0  0
    4.6238    0.1212   -3.0428 H   0  0  0  0  0  0  0  0  0  0  0  0
    5.3907   -1.2386   -1.5282 C   0  0  0  0  0  0  0  0  0  0  0  0
    6.3281   -1.4412   -2.0663 H   0  0  0  0  0  0  0  0  0  0  0  0
    5.1392   -1.8528   -0.2901 C   0  0  0  0  0  0  0  0  0  0  0  0
    5.8779   -2.5448    0.1418 H   0  0  0  0  0  0  0  0  0  0  0  0
    3.9444   -1.5989    0.3986 C   0  0  0  0  0  0  0  0  0  0  0  0
    3.7367   -2.0903    1.3612 H   0  0  0  0  0  0  0  0  0  0  0  0
  2  4  1  0  0  0  0
  3  5  1  0  0  0  0
  4  1  2  0  0  0  0
  4  3  1  0  0  0  0
  5  6  1  0  0  0  0
  5  8  1  0  0  0  0
  5  7  1  0  0  0  0
  9 10  1  0  0  0  0
  9  3  1  0  0  0  0
  9 11  1  0  0  0  0
 12  9  1  0  0  0  0
 13 22  1  0  0  0  0
 13  2  1  0  0  0  0
 14 13  2  0  0  0  0
 15 14  1  0  0  0  0
 16 18  2  0  0  0  0
 16 14  1  0  0  0  0
 17 16  1  0  0  0  0
 18 20  1  0  0  0  0
 19 18  1  0  0  0  0
 20 21  1  0  0  0  0
 20 22  2  0  0  0  0
 22 23  1  0  0  0  0
M  END
