1
q = 0.0, confidence = 0.996

 15 16  0  0  1  0  0  0  0  0999 V2000
    0.5857   -1.3685   -0.1090 N   0  0  0  0  0  0  0  0  0  0  0  0
    0.3089   -1.9494    0.7110 H   0  0  0  0  0  0  0  0  0  0  0  0
    0.4188   -1.9368   -0.9552 H   0  0  0  0  0  0  0  0  0  0  0  0
    1.9504   -0.9125    0.0142 C   0  0  1  0  0  0  0  0  0  0  0  0
    2.7246   -0.5163   -1.2249 C   0  0  1  0  0  0  0  0  0  0  0  0
    2.2311   -0.6367   -2.2083 H   0  0  0  0  0  0  0  0  0  0  0  0
    3.7543    0.5235   -1.0799 C   0  0  0  0  0  0  0  0  0  0  0  0
    4.2199    0.9401   -1.9857 H   0  0  0  0  0  0  0  0  0  0  0  0
    4.1040    0.9723    0.1639 C   0  0  0  0  0  0  0  0  0  0  0  0
    4.9104    1.7144    0.2698 H   0  0  0  0  0  0  0  0  0  0  0  0
    3.3567    0.5961    1.3493 C   0  0  0  0  0  0  0  0  0  0  0  0
    3.6225    1.0682    2.3074 H   0  0  0  0  0  0  0  0  0  0  0  0
    2.2707   -0.2278    1.2816 C   0  0  0  0  0  0  0  0  0  0  0  0
    1.5910   -0.3870    2.1336 H   0  0  0  0  0  0  0  0  0  0  0  0
    2.9418   -1.7718   -0.5368 O   0  0  0  0  0  0  0  0  0  0  0  0
  1  2  1  0  0  0  0
  3  1  1  0  0  0  0
  4  1  1  6  0  0  0
  4 13  1  0  0  0  0
  5  6  1  6  0  0  0
  5  7  1  0  0  0  0
  5 15  1  0  0  0  0
  5  4  1  0  0  0  0
  7  9  2  0  0  0  0
  8  7  1  0  0  0  0
  9 10  1  0  0  0  0
  9 11  1  0  0  0  0
 11 12  1  0  0  0  0
 13 11  2  0  0  0  0
 13 14  1  0  0  0  0
 15  4  1  0  0  0  0
M  END
