3
q = 0.0, confidence = 0.998

 25 25  0  0  1  0  0  0  0  0999 V2000
   -1.7823    1.6877    0.4875 O   0  0  0  0  0  0  0  0  0  0  0  0
    3.6009   -1.2271   -0.2894 O   0  0  0  0  0  0  0  0  0  0  0  0
    0.6878    0.9409   -0.2981 N   0  0  0  0  0  2  0  0  0  0  0  0
   -1.8397    1.9600    1.8975 C   0  0  0  0  0  0  0  0  0  0  0  0
   -0.8269    1.9596    2.3534 H   0  0  0  0  0  0  0  0  0  0  0  0
   -2.4550    1.1632    2.3503 H   0  0  0  0  0  0  0  0  0  0  0  0
   -2.3259    2.9439    2.0600 H   0  0  0  0  0  0  0  0  0  0  0  0
   -1.0155    2.6528   -0.2539 C   0  0  0  0  0  0  0  0  0  0  0  0
   -1.1889    3.6746    0.1427 H   0  0  0  0  0  0  0  0  0  0  0  0
   -1.4064    2.6043   -1.2921 H   0  0  0  0  0  0  0  0  0  0  0  0
    0.4437    2.2821   -0.2351 C   0  0  2  0  0  3  0  0  0  0  0  0
    1.4716    3.2282   -0.1940 C   0  0  0  0  0  0  0  0  0  0  0  0
    1.2259    4.2982   -0.1340 H   0  0  0  0  0  0  0  0  0  0  0  0
    2.8014    2.7857   -0.2351 C   0  0  0  0  0  0  0  0  0  0  0  0
    3.6326    3.5054   -0.2083 H   0  0  0  0  0  0  0  0  0  0  0  0
    3.0506    1.4120   -0.3066 C   0  0  0  0  0  0  0  0  0  0  0  0
    4.0666    0.9983   -0.3381 H   0  0  0  0  0  0  0  0  0  0  0  0
    1.9756    0.5085   -0.3325 C   0  0  0  0  0  0  0  0  0  0  0  0
    2.2320   -0.9751   -0.4268 C   0  0  0  0  0  0  0  0  0  0  0  0
    1.6198   -1.5050    0.3447 H   0  0  0  0  0  0  0  0  0  0  0  0
    1.8449   -1.3374   -1.4144 H   0  0  0  0  0  0  0  0  0  0  0  0
    3.9326   -2.5914   -0.4488 C   0  0  0  0  0  0  0  0  0  0  0  0
    3.4290   -3.2324    0.3139 H   0  0  0  0  0  0  0  0  0  0  0  0
    5.0275   -2.6836   -0.3245 H   0  0  0  0  0  0  0  0  0  0  0  0
    3.6523   -2.9707   -1.4603 H   0  0  0  0  0  0  0  0  0  0  0  0
  1  4  1  0  0  0  0
  3 11  1  0  0  0  0
  4  7  1  0  0  0  0
  4  6  1  0  0  0  0
  4  5  1  0  0  0  0
  8  9  1  0  0  0  0
  8  1  1  0  0  0  0
 10  8  1  0  0  0  0
 11  8  1  6  0  0  0
 11 12  1  0  0  0  0
 12 13  1  0  0  0  0
 14 15  1  0  0  0  0
 14 12  2  0  0  0  0
 16 14  1  0  0  0  0
 17 16  1  0  0  0  0
 18 16  2  0  0  0  0
 18  3  1  0  0  0  0
 19 18  1  0  0  0  0
 19  2  1  0  0  0  0
 19 20  1  0  0  0  0
 21 19  1  0  0  0  0
 22 24  1  0  0  0  0
 22  2  1  0  0  0  0
 22 23  1  0  0  0  0
 25 22  1  0  0  0  0
M  END
