1
q = -1.0, confidence = 0.0

 19 19  0  0  0  0  0  0  0  0999 V2000
   -0.0392   -0.5903    1.4348 N   0  0  0  0  0  2  0  0  0  0  0  0
   -0.5065    0.1553    2.4812 C   0  0  0  0  0  0  0  0  0  0  0  0
    0.0804    0.4814    3.5098 O   0  0  0  0  0  0  0  0  0  0  0  0
   -1.8263    0.5305    2.2644 O   0  0  0  0  0  0  0  0  0  0  0  0
   -2.4147    1.2900    3.3110 C   0  0  0  0  0  0  0  0  0  0  0  0
   -2.2127    0.8355    4.3014 H   0  0  0  0  0  0  0  0  0  0  0  0
   -3.5027    1.3042    3.1083 H   0  0  0  0  0  0  0  0  0  0  0  0
   -2.0206    2.3304    3.3293 H   0  0  0  0  0  0  0  0  0  0  0  0
    1.2962   -1.0500    1.5530 C   0  0  0  0  0  0  0  0  0  0  0  0
    2.3672   -0.1662    1.8308 C   0  0  0  0  0  0  0  0  0  0  0  0
    2.1424    0.8874    2.0456 H   0  0  0  0  0  0  0  0  0  0  0  0
    3.6913   -0.6232    1.8310 C   0  0  0  0  0  0  0  0  0  0  0  0
    4.5072    0.0869    2.0400 H   0  0  0  0  0  0  0  0  0  0  0  0
    3.9857   -1.9719    1.5653 C   0  0  0  0  0  0  0  0  0  0  0  0
    5.0275   -2.3266    1.5671 H   0  0  0  0  0  0  0  0  0  0  0  0
    2.9296   -2.8632    1.3194 C   0  0  0  0  0  0  0  0  0  0  0  0
    3.1365   -3.9291    1.1353 H   0  0  0  0  0  0  0  0  0  0  0  0
    1.6017   -2.4095    1.3189 C   0  0  0  0  0  0  0  0  0  0  0  0
    0.7785   -3.1144    1.1412 H   0  0  0  0  0  0  0  0  0  0  0  0
  1  9  1  0  0  0  0
  1  2  1  0  0  0  0
  2  3  2  0  0  0  0
  4  2  1  0  0  0  0
  4  5  1  0  0  0  0
  5  8  1  0  0  0  0
  5  6  1  0  0  0  0
  7  5  1  0  0  0  0
  9 10  1  0  0  0  0
 10 12  2  0  0  0  0
 10 11  1  0  0  0  0
 12 13  1  0  0  0  0
 14 15  1  0  0  0  0
 14 12  1  0  0  0  0
 16 14  2  0  0  0  0
 17 16  1  0  0  0  0
 18 16  1  0  0  0  0
 18  9  2  0  0  0  0
 19 18  1  0  0  0  0
M  END
