3
q = 0.0, confidence = 0.966

 27 30  0  0  1  0  0  0  0  0999 V2000
    6.4498    1.0692   -0.8333 O   0  0  0  0  0  0  0  0  0  0  0  0
    4.2374    1.3741   -0.3787 N   0  0  0  0  0  0  0  0  0  0  0  0
    2.0699    1.9217   -0.1704 N   0  0  0  0  0  2  0  0  0  0  0  0
    5.3975    0.5809   -0.4470 C   0  0  0  0  0  0  0  0  0  0  0  0
    2.9695    0.9685   -0.0228 C   0  0  1  0  0  3  0  0  0  0  0  0
    2.7769   -0.4057    0.4448 C   0  0  0  0  0  0  0  0  0  0  0  0
    1.5563   -0.8841    0.9317 C   0  0  0  0  0  0  0  0  0  0  0  0
    0.6940   -0.2027    1.0126 H   0  0  0  0  0  0  0  0  0  0  0  0
    1.4094   -2.2274    1.3393 C   0  0  0  0  0  0  0  0  0  0  0  0
    0.4355   -2.5763    1.7115 H   0  0  0  0  0  0  0  0  0  0  0  0
    2.4914   -3.0982    1.2758 C   0  0  0  0  0  0  0  0  0  0  0  0
    2.3809   -4.1463    1.5933 H   0  0  0  0  0  0  0  0  0  0  0  0
    3.7632   -2.6510    0.8179 C   0  0  0  0  0  0  0  0  0  0  0  0
    3.9133   -1.2817    0.4017 C   0  0  0  0  0  0  0  0  0  0  0  0
    5.1956   -0.8289   -0.0320 C   0  0  0  0  0  0  0  0  0  0  0  0
    6.2828   -1.7030   -0.0619 C   0  0  0  0  0  0  0  0  0  0  0  0
    7.2536   -1.3096   -0.3983 H   0  0  0  0  0  0  0  0  0  0  0  0
    6.1313   -3.0517    0.3346 C   0  0  0  0  0  0  0  0  0  0  0  0
    6.9968   -3.7293    0.3040 H   0  0  0  0  0  0  0  0  0  0  0  0
    4.8960   -3.5163    0.7676 C   0  0  0  0  0  0  0  0  0  0  0  0
    4.7746   -4.5633    1.0847 H   0  0  0  0  0  0  0  0  0  0  0  0
    4.2321    2.7738   -0.8196 C   0  0  0  0  0  0  0  0  0  0  0  0
    4.5876    2.8368   -1.8674 H   0  0  0  0  0  0  0  0  0  0  0  0
    4.9289    3.3693   -0.1980 H   0  0  0  0  0  0  0  0  0  0  0  0
    2.7441    3.1550   -0.6339 C   0  0  0  0  0  0  0  0  0  0  0  0
    2.6056    3.9563    0.1213 H   0  0  0  0  0  0  0  0  0  0  0  0
    2.2763    3.5089   -1.5751 H   0  0  0  0  0  0  0  0  0  0  0  0
  1  4  2  0  0  0  0
  2  5  1  0  0  0  0
  4  2  1  0  0  0  0
  4 15  1  0  0  0  0
  5  3  1  6  0  0  0
  5  6  1  0  0  0  0
  6  7  1  0  0  0  0
  7  8  1  0  0  0  0
  7  9  2  0  0  0  0
  9 10  1  0  0  0  0
 11  9  1  0  0  0  0
 11 12  1  0  0  0  0
 13 11  2  0  0  0  0
 14  6  2  0  0  0  0
 14 13  1  0  0  0  0
 15 14  1  0  0  0  0
 16 15  2  0  0  0  0
 16 18  1  0  0  0  0
 17 16  1  0  0  0  0
 18 20  2  0  0  0  0
 19 18  1  0  0  0  0
 20 13  1  0  0  0  0
 20 21  1  0  0  0  0
 22 25  1  0  0  0  0
 22  2  1  0  0  0  0
 22 24  1  0  0  0  0
 23 22  1  0  0  0  0
 25  3  1  0  0  0  0
 25 26  1  0  0  0  0
 27 25  1  0  0  0  0
M  END
