1
q = 0.0, confidence = 0.994

 16 16  0  0  1  0  0  0  0  0999 V2000
   -2.1861   -0.0321    0.1071 N   0  0  0  0  0  2  0  0  0  0  0  0
   -3.1455   -1.0206   -0.3971 C   0  0  0  0  0  0  0  0  0  0  0  0
   -4.5110   -0.4752   -0.1051 C   0  0  1  0  0  3  0  0  0  0  0  0
   -4.3197    0.7263    0.5129 C   0  0  0  0  0  0  0  0  0  0  0  0
   -2.8843    0.9653    0.6286 C   0  0  0  0  0  0  0  0  0  0  0  0
   -5.7792   -1.1701   -0.4566 C   0  0  0  0  0  0  0  0  0  0  0  0
   -2.3312    2.2005    1.2524 C   0  0  0  0  0  0  0  0  0  0  0  0
   -2.7596    2.3289    2.2673 H   0  0  0  0  0  0  0  0  0  0  0  0
   -2.6478    3.0844    0.6603 H   0  0  0  0  0  0  0  0  0  0  0  0
   -1.2341    2.1964    1.3222 H   0  0  0  0  0  0  0  0  0  0  0  0
   -5.0921    1.4173    0.8750 H   0  0  0  0  0  0  0  0  0  0  0  0
   -5.8339   -2.1692    0.0256 H   0  0  0  0  0  0  0  0  0  0  0  0
   -5.8440   -1.3503   -1.5508 H   0  0  0  0  0  0  0  0  0  0  0  0
   -6.6653   -0.5859   -0.1472 H   0  0  0  0  0  0  0  0  0  0  0  0
   -2.9795   -1.1963   -1.4834 H   0  0  0  0  0  0  0  0  0  0  0  0
   -2.9652   -2.0029    0.0908 H   0  0  0  0  0  0  0  0  0  0  0  0
  1  5  1  0  0  0  0
  2  3  1  0  0  0  0
  2 16  1  0  0  0  0
  2  1  1  0  0  0  0
  3  6  1  6  0  0  0
  3  4  1  0  0  0  0
  4  5  2  0  0  0  0
  4 11  1  0  0  0  0
  5  7  1  0  0  0  0
  6 14  1  0  0  0  0
  6 12  1  0  0  0  0
  7 10  1  0  0  0  0
  7  8  1  0  0  0  0
  9  7  1  0  0  0  0
 13  6  1  0  0  0  0
 15  2  1  0  0  0  0
M  END
