1
q = 0.0, confidence = 1.0

 26 27  0  0  1  0  0  0  0  0999 V2000
   -0.1353    1.5505    0.0485 N   0  0  0  0  0  2  0  0  0  0  0  0
   -2.0163    2.7211    0.2098 N   0  0  0  0  0  0  0  0  0  0  0  0
   -3.1298   -1.8101    0.0828 N   0  0  0  0  0  0  0  0  0  0  0  0
   -3.4060    0.0875   -1.0843 N   0  0  0  0  0  0  0  0  0  0  0  0
    0.0961    2.8297   -0.4242 C   0  0  0  0  0  0  0  0  0  0  0  0
    1.0794    3.1338   -0.7956 H   0  0  0  0  0  0  0  0  0  0  0  0
   -1.0682    3.5644   -0.3358 C   0  0  0  0  0  0  0  0  0  0  0  0
   -1.3013    4.5975   -0.6099 H   0  0  0  0  0  0  0  0  0  0  0  0
   -1.4212    1.5103    0.4314 C   0  0  1  0  0  3  0  0  0  0  0  0
   -3.4320    3.0048    0.3927 C   0  0  0  0  0  0  0  0  0  0  0  0
   -4.0150    2.3817   -0.3148 H   0  0  0  0  0  0  0  0  0  0  0  0
   -3.6117    4.0778    0.2029 H   0  0  0  0  0  0  0  0  0  0  0  0
   -3.7383    2.7625    1.4283 H   0  0  0  0  0  0  0  0  0  0  0  0
   -2.1373    0.3413    1.0078 C   0  0  0  0  0  0  0  0  0  0  0  0
   -2.0815    0.1145    2.3439 C   0  0  0  0  0  0  0  0  0  0  0  0
   -2.6210   -0.7148    2.8222 H   0  0  0  0  0  0  0  0  0  0  0  0
   -1.4703    0.7586    2.9918 H   0  0  0  0  0  0  0  0  0  0  0  0
   -2.8808   -0.4501    0.0241 C   0  0  0  0  0  0  0  0  0  0  0  0
   -3.8493   -2.1278   -1.0499 C   0  0  0  0  0  0  0  0  0  0  0  0
   -4.1465   -3.1590   -1.2674 H   0  0  0  0  0  0  0  0  0  0  0  0
   -4.0155   -0.9391   -1.7490 C   0  0  0  0  0  0  0  0  0  0  0  0
   -4.5366   -0.7868   -2.7021 H   0  0  0  0  0  0  0  0  0  0  0  0
   -2.6157   -2.7771    1.0394 C   0  0  0  0  0  0  0  0  0  0  0  0
   -1.6404   -2.4372    1.4324 H   0  0  0  0  0  0  0  0  0  0  0  0
   -2.4660   -3.7455    0.5277 H   0  0  0  0  0  0  0  0  0  0  0  0
   -3.3136   -2.9235    1.8893 H   0  0  0  0  0  0  0  0  0  0  0  0
  1  9  1  0  0  0  0
  2 10  1  0  0  0  0
  2  9  1  0  0  0  0
  3 23  1  0  0  0  0
  4 18  2  0  0  0  0
  5  7  2  0  0  0  0
  5  1  1  0  0  0  0
  6  5  1  0  0  0  0
  7  2  1  0  0  0  0
  8  7  1  0  0  0  0
  9 14  1  6  0  0  0
 10 13  1  0  0  0  0
 11 10  1  0  0  0  0
 12 10  1  0  0  0  0
 14 15  2  0  0  0  0
 15 16  1  0  0  0  0
 15 17  1  0  0  0  0
 18  3  1  0  0  0  0
 18 14  1  0  0  0  0
 19  3  1  0  0  0  0
 20 19  1  0  0  0  0
 21  4  1  0  0  0  0
 21 19  2  0  0  0  0
 22 21  1  0  0  0  0
 23 24  1  0  0  0  0
 23 26  1  0  0  0  0
 25 23  1  0  0  0  0
M  END
