2
q = -1.0, confidence = 0.0

 26 26  0  0  0  0  0  0  0  0999 V2000
    0.5597    0.6894    0.2680 N   0  0  0  0  0  0  0  0  0  0  0  0
    0.6674   -0.6411    0.0694 N   0  0  0  0  0  0  0  0  0  0  0  0
    1.7804    1.2626    0.2306 C   0  0  0  0  0  3  0  0  0  0  0  0
    2.7126    0.2195   -0.0054 C   0  0  0  0  0  0  0  0  0  0  0  0
    1.9621   -0.9770   -0.1122 C   0  0  0  0  0  0  0  0  0  0  0  0
    1.9829    2.7384    0.4691 C   0  0  0  0  0  0  0  0  0  0  0  0
    0.7772    3.5572   -0.0154 C   0  0  0  0  0  0  0  0  0  0  0  0
    3.3007    3.2331   -0.1405 C   0  0  0  0  0  0  0  0  0  0  0  0
    2.3854   -2.4041   -0.3517 C   0  0  0  0  0  0  0  0  0  0  0  0
    1.8504   -3.3250    0.7595 C   0  0  0  0  0  0  0  0  0  0  0  0
    3.9037   -2.5236   -0.5173 C   0  0  0  0  0  0  0  0  0  0  0  0
    3.8004    0.3163   -0.0795 H   0  0  0  0  0  0  0  0  0  0  0  0
    2.0502    2.8739    1.5740 H   0  0  0  0  0  0  0  0  0  0  0  0
    0.9059    4.6270    0.2438 H   0  0  0  0  0  0  0  0  0  0  0  0
   -0.1635    3.1982    0.4463 H   0  0  0  0  0  0  0  0  0  0  0  0
    0.6715    3.4869   -1.1187 H   0  0  0  0  0  0  0  0  0  0  0  0
    3.4429    4.3126    0.0656 H   0  0  0  0  0  0  0  0  0  0  0  0
    3.3062    3.0920   -1.2413 H   0  0  0  0  0  0  0  0  0  0  0  0
    4.1770    2.6965    0.2748 H   0  0  0  0  0  0  0  0  0  0  0  0
    1.9092   -2.7245   -1.3079 H   0  0  0  0  0  0  0  0  0  0  0  0
    2.3086   -3.0623    1.7353 H   0  0  0  0  0  0  0  0  0  0  0  0
    2.0925   -4.3844    0.5391 H   0  0  0  0  0  0  0  0  0  0  0  0
    0.7520   -3.2279    0.8676 H   0  0  0  0  0  0  0  0  0  0  0  0
    4.1908   -3.5725   -0.7293 H   0  0  0  0  0  0  0  0  0  0  0  0
    4.4282   -2.2137    0.4105 H   0  0  0  0  0  0  0  0  0  0  0  0
    4.2799   -1.8937   -1.3482 H   0  0  0  0  0  0  0  0  0  0  0  0
  2  1  2  0  0  0  0
  3  1  1  0  0  0  0
  3  6  1  0  0  0  0
  4  3  1  0  0  0  0
  5  4  2  0  0  0  0
  5  2  1  0  0  0  0
  6 13  1  0  0  0  0
  7 14  1  0  0  0  0
  7 15  1  0  0  0  0
  7  6  1  0  0  0  0
  8 17  1  0  0  0  0
  8 19  1  0  0  0  0
  8  6  1  0  0  0  0
  9  5  1  0  0  0  0
  9 10  1  0  0  0  0
 10 23  1  0  0  0  0
 10 21  1  0  0  0  0
 11  9  1  0  0  0  0
 11 25  1  0  0  0  0
 12  4  1  0  0  0  0
 16  7  1  0  0  0  0
 18  8  1  0  0  0  0
 20  9  1  0  0  0  0
 22 10  1  0  0  0  0
 24 11  1  0  0  0  0
 26 11  1  0  0  0  0
M  END
