1
q = 0.0, confidence = 0.99

 39 40  0  0  0  0  0  0  0  0999 V2000
   -0.9754    0.7557    0.0015 N   0  0  0  0  0  2  0  0  0  0  0  0
    0.7011    2.4402    0.0060 N   0  0  0  0  0  0  0  0  0  0  0  0
    0.8127    3.4561    0.0104 H   0  0  0  0  0  0  0  0  0  0  0  0
   -0.5771    1.9997    0.0051 C   0  0  0  0  0  3  0  0  0  0  0  0
   -1.3413    2.8012    0.0077 H   0  0  0  0  0  0  0  0  0  0  0  0
   -2.3932    0.5199    0.0012 C   0  0  0  0  0  0  0  0  0  0  0  0
   -3.0641    0.3859   -1.2381 C   0  0  0  0  0  0  0  0  0  0  0  0
   -4.4482    0.1330   -1.2135 C   0  0  0  0  0  0  0  0  0  0  0  0
   -4.9863    0.0239   -2.1680 H   0  0  0  0  0  0  0  0  0  0  0  0
   -5.1377    0.0091    0.0003 C   0  0  0  0  0  0  0  0  0  0  0  0
   -6.2197   -0.1914   -0.0000 H   0  0  0  0  0  0  0  0  0  0  0  0
   -4.4477    0.1264    1.2145 C   0  0  0  0  0  0  0  0  0  0  0  0
   -4.9855    0.0122    2.1686 H   0  0  0  0  0  0  0  0  0  0  0  0
   -3.0636    0.3793    1.2399 C   0  0  0  0  0  0  0  0  0  0  0  0
   -2.2982    0.4615    2.5341 C   0  0  0  0  0  0  0  0  0  0  0  0
   -1.4698   -0.2802    2.5432 H   0  0  0  0  0  0  0  0  0  0  0  0
   -2.9562    0.2649    3.4012 H   0  0  0  0  0  0  0  0  0  0  0  0
   -1.8280    1.4564    2.6813 H   0  0  0  0  0  0  0  0  0  0  0  0
   -2.2991    0.4751   -2.5321 C   0  0  0  0  0  0  0  0  0  0  0  0
   -2.9574    0.2826   -3.4000 H   0  0  0  0  0  0  0  0  0  0  0  0
   -1.4703   -0.2661   -2.5453 H   0  0  0  0  0  0  0  0  0  0  0  0
   -1.8296    1.4711   -2.6744 H   0  0  0  0  0  0  0  0  0  0  0  0
    1.9006    1.6441    0.0035 C   0  0  0  0  0  0  0  0  0  0  0  0
    2.4765    1.2842   -1.2382 C   0  0  0  0  0  0  0  0  0  0  0  0
    3.6587    0.5240   -1.2152 C   0  0  0  0  0  0  0  0  0  0  0  0
    4.1126    0.2130   -2.1682 H   0  0  0  0  0  0  0  0  0  0  0  0
    4.2415    0.1395   -0.0014 C   0  0  0  0  0  0  0  0  0  0  0  0
    5.1558   -0.4721   -0.0033 H   0  0  0  0  0  0  0  0  0  0  0  0
    3.6604    0.5188    1.2149 C   0  0  0  0  0  0  0  0  0  0  0  0
    4.1157    0.2037    2.1659 H   0  0  0  0  0  0  0  0  0  0  0  0
    2.4783    1.2789    1.2428 C   0  0  0  0  0  0  0  0  0  0  0  0
    1.8027    1.6311    2.5411 C   0  0  0  0  0  0  0  0  0  0  0  0
    0.8788    1.0267    2.6693 H   0  0  0  0  0  0  0  0  0  0  0  0
    1.4998    2.6970    2.5833 H   0  0  0  0  0  0  0  0  0  0  0  0
    2.4620    1.4221    3.4042 H   0  0  0  0  0  0  0  0  0  0  0  0
    1.7993    1.6423   -2.5340 C   0  0  0  0  0  0  0  0  0  0  0  0
    0.8749    1.0389   -2.6635 H   0  0  0  0  0  0  0  0  0  0  0  0
    2.4573    1.4368   -3.3989 H   0  0  0  0  0  0  0  0  0  0  0  0
    1.4968    2.7086   -2.5710 H   0  0  0  0  0  0  0  0  0  0  0  0
  1  4  1  0  0  0  0
  2  3  1  0  0  0  0
  4  2  1  0  0  0  0
  4  5  1  0  0  0  0
  6  1  1  0  0  0  0
  6 14  1  0  0  0  0
  7  8  1  0  0  0  0
  7  6  2  0  0  0  0
  8 10  2  0  0  0  0
  9  8  1  0  0  0  0
 10 12  1  0  0  0  0
 11 10  1  0  0  0  0
 12 14  2  0  0  0  0
 12 13  1  0  0  0  0
 14 15  1  0  0  0  0
 15 16  1  0  0  0  0
 15 18  1  0  0  0  0
 15 17  1  0  0  0  0
 19  7  1  0  0  0  0
 20 19  1  0  0  0  0
 21 19  1  0  0  0  0
 22 19  1  0  0  0  0
 23  2  1  0  0  0  0
 23 31  1  0  0  0  0
 24 25  1  0  0  0  0
 24 23  2  0  0  0  0
 25 27  2  0  0  0  0
 26 25  1  0  0  0  0
 27 29  1  0  0  0  0
 28 27  1  0  0  0  0
 29 31  2  0  0  0  0
 29 30  1  0  0  0  0
 31 32  1  0  0  0  0
 32 34  1  0  0  0  0
 32 33  1  0  0  0  0
 32 35  1  0  0  0  0
 36 24  1  0  0  0  0
 37 36  1  0  0  0  0
 38 36  1  0  0  0  0
 39 36  1  0  0  0  0
M  END
