1
q = 0.0, confidence = 0.994

 27 27  0  0  0  0  0  0  0  0999 V2000
   -0.6635    1.2662    0.1365 N   0  0  0  0  0  2  0  0  0  0  0  0
    0.4871    1.8547    0.1606 C   0  0  0  0  0  3  0  0  0  0  0  0
    0.5209    2.9636    0.1265 H   0  0  0  0  0  0  0  0  0  0  0  0
    1.7734    1.1720    0.1834 C   0  0  0  0  0  0  0  0  0  0  0  0
    2.9183    1.8390   -0.3077 C   0  0  0  0  0  0  0  0  0  0  0  0
    2.8308    2.8757   -0.6691 H   0  0  0  0  0  0  0  0  0  0  0  0
    4.1503    1.1804   -0.3673 C   0  0  0  0  0  0  0  0  0  0  0  0
    5.0298    1.7067   -0.7692 H   0  0  0  0  0  0  0  0  0  0  0  0
    4.2866   -0.1520    0.0779 C   0  0  0  0  0  0  0  0  0  0  0  0
    3.1467   -0.7969    0.6094 C   0  0  0  0  0  0  0  0  0  0  0  0
    3.2277   -1.8274    0.9886 H   0  0  0  0  0  0  0  0  0  0  0  0
    1.9143   -0.1480    0.6692 C   0  0  0  0  0  0  0  0  0  0  0  0
    1.0648   -0.6498    1.1569 H   0  0  0  0  0  0  0  0  0  0  0  0
    5.6036   -0.8752   -0.0087 C   0  0  0  0  0  0  0  0  0  0  0  0
    6.4350   -0.1904   -0.2629 H   0  0  0  0  0  0  0  0  0  0  0  0
    5.5653   -1.6644   -0.7896 H   0  0  0  0  0  0  0  0  0  0  0  0
    5.8489   -1.3838    0.9457 H   0  0  0  0  0  0  0  0  0  0  0  0
   -1.9084    2.0855    0.1129 C   0  0  0  0  0  0  0  0  0  0  0  0
   -2.7386    1.3509    0.1757 H   0  0  0  0  0  0  0  0  0  0  0  0
   -2.0074    2.9909    1.3426 C   0  0  0  0  0  0  0  0  0  0  0  0
   -1.2302    3.7824    1.3343 H   0  0  0  0  0  0  0  0  0  0  0  0
   -1.8977    2.3889    2.2653 H   0  0  0  0  0  0  0  0  0  0  0  0
   -2.9958    3.4907    1.3615 H   0  0  0  0  0  0  0  0  0  0  0  0
   -2.0382    2.8244   -1.2230 C   0  0  0  0  0  0  0  0  0  0  0  0
   -1.9398    2.1144   -2.0667 H   0  0  0  0  0  0  0  0  0  0  0  0
   -1.2586    3.6068   -1.3287 H   0  0  0  0  0  0  0  0  0  0  0  0
   -3.0274    3.3187   -1.2858 H   0  0  0  0  0  0  0  0  0  0  0  0
  1  2  1  0  0  0  0
  2  4  1  0  0  0  0
  3  2  1  0  0  0  0
  4 12  1  0  0  0  0
  5  4  2  0  0  0  0
  6  5  1  0  0  0  0
  7  5  1  0  0  0  0
  7  9  2  0  0  0  0
  8  7  1  0  0  0  0
  9 10  1  0  0  0  0
 10 12  2  0  0  0  0
 10 11  1  0  0  0  0
 12 13  1  0  0  0  0
 14  9  1  0  0  0  0
 14 17  1  0  0  0  0
 15 14  1  0  0  0  0
 16 14  1  0  0  0  0
 18  1  1  0  0  0  0
 18 19  1  0  0  0  0
 18 20  1  0  0  0  0
 20 23  1  0  0  0  0
 20 22  1  0  0  0  0
 21 20  1  0  0  0  0
 24 18  1  0  0  0  0
 25 24  1  0  0  0  0
 26 24  1  0  0  0  0
 27 24  1  0  0  0  0
M  END
