1
q = -1.0, confidence = 0.0

 22 23  0  0  0  0  0  0  0  0999 V2000
    1.8239    0.9837   -0.0002 N   0  0  0  0  0  0  0  0  0  0  0  0
    1.8642    2.3838    0.0001 C   0  0  0  0  0  0  0  0  0  0  0  0
    0.8241    3.0512    0.0002 O   0  0  0  0  0  0  0  0  0  0  0  0
    3.2233    2.9454   -0.0001 C   0  0  0  0  0  0  0  0  0  0  0  0
    4.3432    2.1555   -0.0001 C   0  0  0  0  0  0  0  0  0  0  0  0
    4.2415    0.7193   -0.0002 C   0  0  0  0  0  0  0  0  0  0  0  0
    5.3298   -0.2004   -0.0001 C   0  0  0  0  0  0  0  0  0  0  0  0
    6.7531    0.2889    0.0000 C   0  0  0  0  0  0  0  0  0  0  0  0
    5.0323   -1.5681   -0.0001 C   0  0  0  0  0  0  0  0  0  0  0  0
    3.6860   -2.0180   -0.0004 C   0  0  0  0  0  0  0  0  0  0  0  0
    3.3399   -3.4829   -0.0005 C   0  0  0  0  0  0  0  0  0  0  0  0
    2.6644   -1.1555   -0.0006 N   0  0  0  0  0  2  0  0  0  0  0  0
    2.9248    0.1677   -0.0003 C   0  0  0  0  0  0  0  0  0  0  0  0
    3.2850    4.0428   -0.0000 H   0  0  0  0  0  0  0  0  0  0  0  0
    5.3394    2.6242   -0.0001 H   0  0  0  0  0  0  0  0  0  0  0  0
    7.4682   -0.5550    0.0001 H   0  0  0  0  0  0  0  0  0  0  0  0
    6.9646    0.9166    0.8906 H   0  0  0  0  0  0  0  0  0  0  0  0
    6.9648    0.9165   -0.8906 H   0  0  0  0  0  0  0  0  0  0  0  0
    5.8488   -2.3062   -0.0000 H   0  0  0  0  0  0  0  0  0  0  0  0
    3.7640   -3.9904    0.8908 H   0  0  0  0  0  0  0  0  0  0  0  0
    3.7641   -3.9904   -0.8917 H   0  0  0  0  0  0  0  0  0  0  0  0
    2.2408   -3.6077   -0.0005 H   0  0  0  0  0  0  0  0  0  0  0  0
  1  2  1  0  0  0  0
  2  3  2  0  0  0  0
  4 14  1  0  0  0  0
  4  2  1  0  0  0  0
  5 15  1  0  0  0  0
  5  4  2  0  0  0  0
  6  5  1  0  0  0  0
  6  7  2  0  0  0  0
  7  8  1  0  0  0  0
  8 16  1  0  0  0  0
  8 17  1  0  0  0  0
  9  7  1  0  0  0  0
  9 19  1  0  0  0  0
 10  9  2  0  0  0  0
 11 10  1  0  0  0  0
 11 20  1  0  0  0  0
 12 10  1  0  0  0  0
 12 13  1  0  0  0  0
 13  6  1  0  0  0  0
 13  1  2  0  0  0  0
 18  8  1  0  0  0  0
 21 11  1  0  0  0  0
 22 11  1  0  0  0  0
M  END
