3
q = 0.0, confidence = 0.998

 36 38  0  0  1  0  0  0  0  0999 V2000
    0.2277    0.3738   -1.9901 S   0  0  0  0  0  1  0  0  0  0  0  0
    1.1359    0.1444   -0.2147 P   0  0  0  0  0  4  0  0  0  0  0  0
   -1.5997    1.7560    0.3909 N   0  0  0  0  0  2  0  0  0  0  0  0
    0.6643    1.3206    0.9721 N   0  0  0  0  0  0  0  0  0  0  0  0
    1.4777    1.7189    1.4518 H   0  0  0  0  0  0  0  0  0  0  0  0
   -0.4532    2.1491    0.9971 C   0  0  2  0  0  3  0  0  0  0  0  0
   -0.3714    3.3872    1.6797 C   0  0  0  0  0  0  0  0  0  0  0  0
    0.5748    3.6809    2.1574 H   0  0  0  0  0  0  0  0  0  0  0  0
   -1.4872    4.2178    1.7299 C   0  0  0  0  0  0  0  0  0  0  0  0
   -1.4338    5.1805    2.2591 H   0  0  0  0  0  0  0  0  0  0  0  0
   -2.6709    3.8129    1.0872 C   0  0  0  0  0  0  0  0  0  0  0  0
   -3.5750    4.4362    1.0925 H   0  0  0  0  0  0  0  0  0  0  0  0
   -2.6768    2.5843    0.4343 C   0  0  0  0  0  0  0  0  0  0  0  0
   -3.5768    2.2213   -0.0815 H   0  0  0  0  0  0  0  0  0  0  0  0
    0.9168   -1.4867    0.5523 C   0  0  0  0  0  0  0  0  0  0  0  0
    0.5822   -1.6178    1.9142 C   0  0  0  0  0  0  0  0  0  0  0  0
    0.3731   -0.7213    2.5164 H   0  0  0  0  0  0  0  0  0  0  0  0
    0.5176   -2.8966    2.4890 C   0  0  0  0  0  0  0  0  0  0  0  0
    0.2556   -3.0040    3.5521 H   0  0  0  0  0  0  0  0  0  0  0  0
    0.7917   -4.0338    1.7123 C   0  0  0  0  0  0  0  0  0  0  0  0
    0.7467   -5.0338    2.1686 H   0  0  0  0  0  0  0  0  0  0  0  0
    1.1207   -3.8988    0.3514 C   0  0  0  0  0  0  0  0  0  0  0  0
    1.3327   -4.7908   -0.2565 H   0  0  0  0  0  0  0  0  0  0  0  0
    1.1830   -2.6276   -0.2349 C   0  0  0  0  0  0  0  0  0  0  0  0
    1.4374   -2.5157   -1.3004 H   0  0  0  0  0  0  0  0  0  0  0  0
    2.9245    0.4485   -0.3204 C   0  0  0  0  0  0  0  0  0  0  0  0
    3.4012    1.4106   -1.2366 C   0  0  0  0  0  0  0  0  0  0  0  0
    2.6980    1.9304   -1.9058 H   0  0  0  0  0  0  0  0  0  0  0  0
    4.7739    1.6824   -1.2979 C   0  0  0  0  0  0  0  0  0  0  0  0
    5.1509    2.4259   -2.0156 H   0  0  0  0  0  0  0  0  0  0  0  0
    5.6663    1.0024   -0.4512 C   0  0  0  0  0  0  0  0  0  0  0  0
    6.7441    1.2167   -0.5063 H   0  0  0  0  0  0  0  0  0  0  0  0
    5.1902    0.0445    0.4580 C   0  0  0  0  0  0  0  0  0  0  0  0
    5.8915   -0.4929    1.1132 H   0  0  0  0  0  0  0  0  0  0  0  0
    3.8182   -0.2403    0.5270 C   0  0  0  0  0  0  0  0  0  0  0  0
    3.4477   -1.0033    1.2282 H   0  0  0  0  0  0  0  0  0  0  0  0
  1  2  1  0  0  0  0
  2 15  1  0  0  0  0
  2  4  1  0  0  0  0
  3 13  1  0  0  0  0
  3  6  1  0  0  0  0
  4  5  1  0  0  0  0
  6  4  1  1  0  0  0
  6  7  1  0  0  0  0
  7  9  2  0  0  0  0
  7  8  1  0  0  0  0
  9 10  1  0  0  0  0
 11 12  1  0  0  0  0
 11  9  1  0  0  0  0
 13 11  2  0  0  0  0
 14 13  1  0  0  0  0
 15 16  1  0  0  0  0
 16 18  2  0  0  0  0
 16 17  1  0  0  0  0
 18 19  1  0  0  0  0
 20 21  1  0  0  0  0
 20 18  1  0  0  0  0
 22 20  2  0  0  0  0
 23 22  1  0  0  0  0
 24 22  1  0  0  0  0
 24 15  2  0  0  0  0
 25 24  1  0  0  0  0
 26  2  1  0  0  0  0
 26 35  1  0  0  0  0
 27 26  2  0  0  0  0
 28 27  1  0  0  0  0
 29 27  1  0  0  0  0
 29 31  2  0  0  0  0
 30 29  1  0  0  0  0
 31 33  1  0  0  0  0
 32 31  1  0  0  0  0
 33 35  2  0  0  0  0
 33 34  1  0  0  0  0
 35 36  1  0  0  0  0
M  END
