15
q = 0.0, confidence = 0.986

 15 16  0  0  0  0  0  0  0  0999 V2000
   -2.3795    0.2103   -1.3469 N   0  0  0  0  0  0  0  0  0  0  0  0
   -2.0122   -0.6756   -1.7418 H   0  0  0  0  0  0  0  0  0  0  0  0
   -3.3668    1.0227   -1.8801 C   0  0  0  0  0  0  0  0  0  0  0  0
   -3.6268    0.9802   -2.9424 H   0  0  0  0  0  0  0  0  0  0  0  0
   -3.2482    1.4544    0.3551 C   0  0  0  0  0  0  0  0  0  0  0  0
   -3.8994    1.8157   -0.8737 C   0  0  0  0  0  0  0  0  0  0  0  0
   -5.1242    3.0169   -1.0414 Cl  0  0  0  0  0  0  0  0  0  0  0  0
   -3.3552    1.8187    1.7070 C   0  0  0  0  0  0  0  0  0  0  0  0
   -4.0639    2.5960    2.0280 H   0  0  0  0  0  0  0  0  0  0  0  0
   -2.5485    1.1296    2.6204 C   0  0  0  0  0  0  0  0  0  0  0  0
   -2.6085    1.3391    3.6973 H   0  0  0  0  0  0  0  0  0  0  0  0
   -1.6410    0.1476    2.1793 C   0  0  0  0  0  3  0  0  0  0  0  0
   -1.0239   -0.4102    2.8940 H   0  0  0  0  0  0  0  0  0  0  0  0
   -2.3026    0.4380   -0.0023 C   0  0  0  0  0  0  0  0  0  0  0  0
   -1.4775   -0.1794    0.8755 N   0  0  0  0  0  2  0  0  0  0  0  0
  1 14  1  0  0  0  0
  2  1  1  0  0  0  0
  3  1  1  0  0  0  0
  3  6  2  0  0  0  0
  4  3  1  0  0  0  0
  5  8  1  0  0  0  0
  6  5  1  0  0  0  0
  7  6  1  0  0  0  0
  8  9  1  0  0  0  0
  8 10  2  0  0  0  0
 10 11  1  0  0  0  0
 12 10  1  0  0  0  0
 12 13  1  0  0  0  0
 14  5  2  0  0  0  0
 14 15  1  0  0  0  0
 15 12  1  0  0  0  0
M  END
