3
q = 0.0, confidence = 0.996

 27 28  0  0  1  0  0  0  0  0999 V2000
   -4.2212    0.4798    1.3827 O   0  0  0  0  0  0  0  0  0  0  0  0
   -2.6941    1.4030   -0.0464 N   0  0  0  0  0  0  0  0  0  0  0  0
   -1.3876    1.4112   -0.4635 N   0  0  0  0  0  2  0  0  0  0  0  0
   -4.6896    2.9692    0.1003 C   0  0  0  0  0  0  0  0  0  0  0  0
   -4.8520    2.9638    1.1952 H   0  0  0  0  0  0  0  0  0  0  0  0
   -4.9375    3.9684   -0.3031 H   0  0  0  0  0  0  0  0  0  0  0  0
   -5.3972    2.2297   -0.3248 H   0  0  0  0  0  0  0  0  0  0  0  0
   -1.1238    2.6495   -0.9200 C   0  0  1  0  0  3  0  0  0  0  0  0
   -3.2736    2.6435   -0.2350 C   0  0  0  0  0  0  0  0  0  0  0  0
   -3.3809    0.2645    0.5275 C   0  0  0  0  0  0  0  0  0  0  0  0
   -2.5009   -2.5698   -1.8797 C   0  0  0  0  0  0  0  0  0  0  0  0
   -2.0361   -2.7146   -2.8656 H   0  0  0  0  0  0  0  0  0  0  0  0
   -2.5740   -1.2760   -1.3435 C   0  0  0  0  0  0  0  0  0  0  0  0
   -2.1834   -0.4332   -1.9280 H   0  0  0  0  0  0  0  0  0  0  0  0
   -2.2940    3.4433   -0.8083 C   0  0  0  0  0  0  0  0  0  0  0  0
   -2.4060    4.4883   -1.1141 H   0  0  0  0  0  0  0  0  0  0  0  0
   -3.5870   -3.4667    0.1074 C   0  0  0  0  0  0  0  0  0  0  0  0
   -3.9824   -4.3237    0.6730 H   0  0  0  0  0  0  0  0  0  0  0  0
    0.2294    3.0570   -1.3865 C   0  0  0  0  0  0  0  0  0  0  0  0
    0.6731    2.2649   -2.0217 H   0  0  0  0  0  0  0  0  0  0  0  0
    0.1745    4.0094   -1.9456 H   0  0  0  0  0  0  0  0  0  0  0  0
    0.9055    3.2009   -0.5200 H   0  0  0  0  0  0  0  0  0  0  0  0
   -3.0054   -3.6634   -1.1592 C   0  0  0  0  0  0  0  0  0  0  0  0
   -2.9456   -4.6767   -1.5852 H   0  0  0  0  0  0  0  0  0  0  0  0
   -3.1445   -1.0766   -0.0679 C   0  0  0  0  0  0  0  0  0  0  0  0
   -3.6554   -2.1807    0.6509 C   0  0  0  0  0  0  0  0  0  0  0  0
   -4.1083   -1.9970    1.6356 H   0  0  0  0  0  0  0  0  0  0  0  0
  2 10  1  0  0  0  0
  3  2  1  0  0  0  0
  4  5  1  0  0  0  0
  6  4  1  0  0  0  0
  7  4  1  0  0  0  0
  8 19  1  1  0  0  0
  8 15  1  0  0  0  0
  8  3  1  0  0  0  0
  9  2  1  0  0  0  0
  9  4  1  0  0  0  0
 10  1  2  0  0  0  0
 11 13  2  0  0  0  0
 11 23  1  0  0  0  0
 12 11  1  0  0  0  0
 13 25  1  0  0  0  0
 14 13  1  0  0  0  0
 15  9  2  0  0  0  0
 16 15  1  0  0  0  0
 17 26  1  0  0  0  0
 17 18  1  0  0  0  0
 19 22  1  0  0  0  0
 20 19  1  0  0  0  0
 21 19  1  0  0  0  0
 23 17  2  0  0  0  0
 24 23  1  0  0  0  0
 25 10  1  0  0  0  0
 25 26  2  0  0  0  0
 26 27  1  0  0  0  0
M  END
