1
q = 0.0, confidence = 1.0

 32 33  0  0  0  0  0  0  0  0999 V2000
    1.6341   -0.7260    0.1678 N   0  0  0  0  0  2  0  0  0  0  0  0
    2.1472   -1.9546    0.1585 C   0  0  0  0  0  3  0  0  0  0  0  0
    1.5425   -2.8664    0.1310 H   0  0  0  0  0  0  0  0  0  0  0  0
    3.5163   -1.9391    0.1283 N   0  0  0  0  0  0  0  0  0  0  0  0
    4.4188   -3.0909   -0.0014 C   0  0  0  0  0  0  0  0  0  0  0  0
    5.3158   -2.8300    0.6020 H   0  0  0  0  0  0  0  0  0  0  0  0
    4.8420   -3.2756   -1.4643 C   0  0  0  0  0  0  0  0  0  0  0  0
    3.9634   -3.5360   -2.0888 H   0  0  0  0  0  0  0  0  0  0  0  0
    5.5877   -4.0905   -1.5524 H   0  0  0  0  0  0  0  0  0  0  0  0
    5.2897   -2.3482   -1.8720 H   0  0  0  0  0  0  0  0  0  0  0  0
    3.7985   -4.3558    0.5914 C   0  0  0  0  0  0  0  0  0  0  0  0
    3.4622   -4.1927    1.6339 H   0  0  0  0  0  0  0  0  0  0  0  0
    4.5489   -5.1697    0.5919 H   0  0  0  0  0  0  0  0  0  0  0  0
    2.9336   -4.7045   -0.0081 H   0  0  0  0  0  0  0  0  0  0  0  0
    3.9076   -0.6019    0.0973 C   0  0  0  0  0  0  0  0  0  0  0  0
    5.1775    0.0073    0.0496 C   0  0  0  0  0  0  0  0  0  0  0  0
    6.0979   -0.5880    0.0196 H   0  0  0  0  0  0  0  0  0  0  0  0
    5.2168    1.4085    0.0396 C   0  0  0  0  0  0  0  0  0  0  0  0
    6.3585    2.1448   -0.0037 O   0  0  0  0  0  0  0  0  0  0  0  0
    7.5888    1.4555   -0.0355 C   0  0  0  0  0  0  0  0  0  0  0  0
    7.7343    0.8218    0.8696 H   0  0  0  0  0  0  0  0  0  0  0  0
    8.3817    2.2257   -0.0656 H   0  0  0  0  0  0  0  0  0  0  0  0
    7.6799    0.8077   -0.9378 H   0  0  0  0  0  0  0  0  0  0  0  0
    3.9992    2.1852    0.0784 C   0  0  0  0  0  0  0  0  0  0  0  0
    4.1834    3.5316    0.0804 O   0  0  0  0  0  0  0  0  0  0  0  0
    3.0245    4.3418    0.1493 C   0  0  0  0  0  0  0  0  0  0  0  0
    2.3698    4.2015   -0.7407 H   0  0  0  0  0  0  0  0  0  0  0  0
    3.3767    5.3895    0.1791 H   0  0  0  0  0  0  0  0  0  0  0  0
    2.4217    4.1270    1.0598 H   0  0  0  0  0  0  0  0  0  0  0  0
    2.7503    1.5616    0.1169 C   0  0  0  0  0  0  0  0  0  0  0  0
    1.8092    2.1210    0.1789 H   0  0  0  0  0  0  0  0  0  0  0  0
    2.7116    0.1530    0.1300 C   0  0  0  0  0  0  0  0  0  0  0  0
  2  1  1  0  0  0  0
  3  2  1  0  0  0  0
  4  2  1  0  0  0  0
  5  4  1  0  0  0  0
  5 11  1  0  0  0  0
  5  6  1  0  0  0  0
  7  5  1  0  0  0  0
  8  7  1  0  0  0  0
  9  7  1  0  0  0  0
 10  7  1  0  0  0  0
 11 13  1  0  0  0  0
 11 12  1  0  0  0  0
 14 11  1  0  0  0  0
 15  4  1  0  0  0  0
 15 32  1  0  0  0  0
 16 15  2  0  0  0  0
 17 16  1  0  0  0  0
 18 16  1  0  0  0  0
 18 24  2  0  0  0  0
 19 18  1  0  0  0  0
 20 19  1  0  0  0  0
 20 21  1  0  0  0  0
 22 20  1  0  0  0  0
 23 20  1  0  0  0  0
 24 25  1  0  0  0  0
 24 30  1  0  0  0  0
 25 26  1  0  0  0  0
 26 28  1  0  0  0  0
 26 29  1  0  0  0  0
 27 26  1  0  0  0  0
 30 32  2  0  0  0  0
 30 31  1  0  0  0  0
 32  1  1  0  0  0  0
M  END
