3
q = -2.0, confidence = 0.942

 51 57  0  0  1  0  0  0  0  0999 V2000
    3.7213    3.9938   -1.0102 O   0  0  0  0  0  0  0  0  0  0  0  0
    4.0257    1.9282   -0.0977 O   0  0  0  0  0  0  0  0  0  0  0  0
    0.1836    0.8852   -0.5577 N   0  0  0  0  0  2  0  0  0  0  0  0
    1.3932    1.3537   -0.5154 N   0  0  0  0  0  0  0  0  0  0  0  0
   -1.0831   -1.5781   -0.0134 C   0  0  1  0  0  0  0  0  0  0  0  0
   -2.4163   -0.4580   -0.1527 C   0  0  1  0  0  0  0  0  0  0  0  0
   -2.1775    1.0716   -0.0317 C   0  0  1  0  0  0  0  0  0  0  0  0
   -1.9003    1.2410    1.0295 H   0  0  0  0  0  0  0  0  0  0  0  0
   -1.0122    1.6051   -0.8792 C   0  0  0  0  0  0  0  0  0  0  0  0
   -1.2461    1.5166   -1.9647 H   0  0  0  0  0  0  0  0  0  0  0  0
   -0.8753    2.6867   -0.6596 H   0  0  0  0  0  0  0  0  0  0  0  0
   -3.4373    1.9154   -0.3189 C   0  0  0  0  0  0  0  0  0  0  0  0
   -4.3235    1.3924    0.0865 H   0  0  0  0  0  0  0  0  0  0  0  0
   -3.5962    1.9763   -1.4166 H   0  0  0  0  0  0  0  0  0  0  0  0
   -3.3877    3.3247    0.2816 C   0  0  0  0  0  0  0  0  0  0  0  0
   -3.2241    3.2475    1.3805 H   0  0  0  0  0  0  0  0  0  0  0  0
   -2.5161    3.8947   -0.1119 H   0  0  0  0  0  0  0  0  0  0  0  0
   -4.6617    4.1331    0.0154 C   0  0  0  0  0  0  0  0  0  0  0  0
   -4.8250    4.2019   -1.0830 H   0  0  0  0  0  0  0  0  0  0  0  0
   -5.5360    3.5710    0.4115 H   0  0  0  0  0  0  0  0  0  0  0  0
   -4.6281    5.5355    0.6227 C   0  0  0  0  0  0  0  0  0  0  0  0
   -4.5026    5.4949    1.7249 H   0  0  0  0  0  0  0  0  0  0  0  0
   -5.5620    6.0947    0.4137 H   0  0  0  0  0  0  0  0  0  0  0  0
   -3.7840    6.1318    0.2170 H   0  0  0  0  0  0  0  0  0  0  0  0
    1.8591    2.5355   -0.8473 C   0  0  0  0  0  0  0  0  0  0  0  0
    1.1994    3.3096   -1.2732 H   0  0  0  0  0  0  0  0  0  0  0  0
    3.2665    2.9101   -0.6799 C   0  0  0  0  0  0  0  0  0  0  0  0
    5.4026    2.2734    0.0887 C   0  0  0  0  0  0  0  0  0  0  0  0
    5.5042    3.1645    0.7406 H   0  0  0  0  0  0  0  0  0  0  0  0
    5.8923    2.4987   -0.8802 H   0  0  0  0  0  0  0  0  0  0  0  0
    5.8769    1.3955    0.5640 H   0  0  0  0  0  0  0  0  0  0  0  0
   -1.9067   -1.3331   -1.5173 B   0  0  2  0  0  0  0  0  0  0  0  0
   -1.3490   -0.7557   -2.4162 H   0  0  0  0  0  0  0  0  0  0  0  0
   -1.4990   -2.9583   -0.9600 B   0  0  2  0  0  0  0  0  0  0  0  0
   -0.6369   -3.5791   -1.5219 H   0  0  0  0  0  0  0  0  0  0  0  0
   -1.6692   -2.9804    0.7858 B   0  0  2  0  0  0  0  0  0  0  0  0
   -0.8901   -3.5854    1.4856 H   0  0  0  0  0  0  0  0  0  0  0  0
   -2.2094   -1.3739    1.2755 B   0  0  1  0  0  0  0  0  0  0  0  0
   -1.8953   -0.7871    2.2779 H   0  0  0  0  0  0  0  0  0  0  0  0
   -3.6389   -1.0732   -1.1786 B   0  0  1  0  0  0  0  0  0  0  0  0
   -4.2424   -0.2863   -1.8636 H   0  0  0  0  0  0  0  0  0  0  0  0
   -3.0851   -2.6691   -1.6963 B   0  0  1  0  0  0  0  0  0  0  0  0
   -3.3471   -3.0979   -2.7963 H   0  0  0  0  0  0  0  0  0  0  0  0
   -2.9438   -3.6989   -0.2404 B   0  0  1  0  0  0  0  0  0  0  0  0
   -3.1023   -4.8976   -0.2786 H   0  0  0  0  0  0  0  0  0  0  0  0
   -3.3840   -2.7113    1.1769 B   0  0  0  0  0  0  0  0  0  0  0  0
   -3.8798   -3.1542    2.1872 H   0  0  0  0  0  0  0  0  0  0  0  0
   -3.8218   -1.0994    0.5864 B   0  0  2  0  0  0  0  0  0  0  0  0
   -4.5547   -0.3356    1.1643 H   0  0  0  0  0  0  0  0  0  0  0  0
   -4.2734   -2.5271   -0.3671 B   0  0  1  0  0  0  0  0  0  0  0  0
   -5.4352   -2.8403   -0.4915 H   0  0  0  0  0  0  0  0  0  0  0  0
  1 27  2  0  0  0  0
  2 28  1  0  0  0  0
  3  4  1  0  0  0  0
  5 36  1  0  0  0  0
  5 38  1  0  0  0  0
  6  7  1  0  0  0  0
  6 38  1  0  0  0  0
  7  8  1  1  0  0  0
  9 11  1  0  0  0  0
  9  3  1  0  0  0  0
  9  7  1  0  0  0  0
 10  9  1  0  0  0  0
 12  7  1  0  0  0  0
 12 13  1  0  0  0  0
 12 15  1  0  0  0  0
 14 12  1  0  0  0  0
 15 16  1  0  0  0  0
 17 15  1  0  0  0  0
 18 15  1  0  0  0  0
 18 20  1  0  0  0  0
 18 21  1  0  0  0  0
 19 18  1  0  0  0  0
 21 22  1  0  0  0  0
 23 21  1  0  0  0  0
 24 21  1  0  0  0  0
 25 27  1  0  0  0  0
 25  4  2  0  0  0  0
 26 25  1  0  0  0  0
 27  2  1  0  0  0  0
 28 31  1  0  0  0  0
 28 29  1  0  0  0  0
 30 28  1  0  0  0  0
 32 33  1  6  0  0  0
 32 34  1  0  0  0  0
 32  6  1  0  0  0  0
 32  5  1  0  0  0  0
 34 35  1  6  0  0  0
 34  5  1  0  0  0  0
 34 36  1  0  0  0  0
 36 38  1  0  0  0  0
 36 37  1  1  0  0  0
 38 39  1  1  0  0  0
 40 41  1  6  0  0  0
 40  6  1  0  0  0  0
 40 48  1  0  0  0  0
 42 43  1  6  0  0  0
 42 40  1  0  0  0  0
 42 50  1  0  0  0  0
 42 44  1  0  0  0  0
 44 45  1  6  0  0  0
 44 46  1  0  0  0  0
 46 47  1  0  0  0  0
 48 49  1  1  0  0  0
 48 46  1  0  0  0  0
 50 51  1  6  0  0  0
 50 44  1  0  0  0  0
 50 48  1  0  0  0  0
M  END
