2
q = 0.0, confidence = 0.986

 17 18  0  0  0  0  0  0  0  0999 V2000
    2.0092    2.0137    0.0279 Br  0  0  0  0  0  0  0  0  0  0  0  0
    2.4889   -1.2262   -0.0070 N   0  0  0  0  0  2  0  0  0  0  0  0
    2.5956   -2.5646   -0.0232 C   0  0  0  0  0  0  0  0  0  0  0  0
    1.6497   -3.1261   -0.0309 H   0  0  0  0  0  0  0  0  0  0  0  0
    3.8264   -3.2499   -0.0315 C   0  0  0  0  0  0  0  0  0  0  0  0
    3.8359   -4.3482   -0.0448 H   0  0  0  0  0  0  0  0  0  0  0  0
    4.9913   -2.5044   -0.0228 C   0  0  0  0  0  0  0  0  0  0  0  0
    5.9779   -2.9925   -0.0284 H   0  0  0  0  0  0  0  0  0  0  0  0
    6.1227   -0.3097   -0.0001 C   0  0  0  0  0  3  0  0  0  0  0  0
    7.0902   -0.8326   -0.0061 H   0  0  0  0  0  0  0  0  0  0  0  0
    4.9295   -1.0846   -0.0072 C   0  0  0  0  0  0  0  0  0  0  0  0
    6.0573    1.0717    0.0134 C   0  0  0  0  0  0  0  0  0  0  0  0
    6.9736    1.6794    0.0185 H   0  0  0  0  0  0  0  0  0  0  0  0
    3.6108    0.9892    0.0143 C   0  0  0  0  0  0  0  0  0  0  0  0
    4.7982    1.7163    0.0202 C   0  0  0  0  0  0  0  0  0  0  0  0
    4.7473    2.8142    0.0303 H   0  0  0  0  0  0  0  0  0  0  0  0
    3.6276   -0.4455    0.0004 C   0  0  0  0  0  0  0  0  0  0  0  0
  2 17  1  0  0  0  0
  3  2  1  0  0  0  0
  4  3  1  0  0  0  0
  5  3  2  0  0  0  0
  5  7  1  0  0  0  0
  6  5  1  0  0  0  0
  7 11  2  0  0  0  0
  8  7  1  0  0  0  0
  9 12  1  0  0  0  0
 10  9  1  0  0  0  0
 11  9  1  0  0  0  0
 11 17  1  0  0  0  0
 12 13  1  0  0  0  0
 12 15  2  0  0  0  0
 14 15  1  0  0  0  0
 14  1  1  0  0  0  0
 15 16  1  0  0  0  0
 17 14  2  0  0  0  0
M  END
