1
q = 0.0, confidence = 0.998

 36 38  0  0  1  0  0  0  0  0999 V2000
   -1.8578    0.7494   -0.2518 N   0  0  0  0  0  2  0  0  0  0  0  0
   -2.1756    2.0887   -0.1299 C   0  0  0  0  0  0  0  0  0  0  0  0
   -3.0062    0.0578   -0.2625 C   0  0  1  0  0  3  0  0  0  0  0  0
   -3.5912    2.2028   -0.0368 C   0  0  0  0  0  0  0  0  0  0  0  0
   -4.0884    0.9032   -0.1285 N   0  0  0  0  0  0  0  0  0  0  0  0
   -4.0101   -2.0905    0.2194 N   0  0  0  0  0  0  0  0  0  0  0  0
   -3.0523   -1.4077   -0.4338 C   0  0  0  0  0  0  0  0  0  0  0  0
   -2.0884   -2.0288   -1.2596 C   0  0  0  0  0  0  0  0  0  0  0  0
   -1.3479   -1.4236   -1.8041 H   0  0  0  0  0  0  0  0  0  0  0  0
   -4.2050    3.4615    0.1136 C   0  0  0  0  0  0  0  0  0  0  0  0
   -5.2934    3.5747    0.1957 H   0  0  0  0  0  0  0  0  0  0  0  0
   -1.9578    4.4652    0.0471 C   0  0  0  0  0  0  0  0  0  0  0  0
   -1.3406    5.3759    0.0677 H   0  0  0  0  0  0  0  0  0  0  0  0
   -1.3412    3.2202   -0.0981 C   0  0  0  0  0  0  0  0  0  0  0  0
   -0.2562    3.0985   -0.2199 H   0  0  0  0  0  0  0  0  0  0  0  0
   -4.0298   -3.4342    0.1351 C   0  0  0  0  0  0  0  0  0  0  0  0
   -5.5118    0.5090   -0.1401 C   0  0  0  0  0  0  0  0  0  0  0  0
   -5.4885   -0.5893   -0.2658 H   0  0  0  0  0  0  0  0  0  0  0  0
   -3.0801   -4.1401   -0.6322 C   0  0  0  0  0  0  0  0  0  0  0  0
   -3.1149   -5.2390   -0.6733 H   0  0  0  0  0  0  0  0  0  0  0  0
   -6.1529    0.7804    1.2237 C   0  0  0  0  0  0  0  0  0  0  0  0
   -5.6020    0.2343    2.0139 H   0  0  0  0  0  0  0  0  0  0  0  0
   -6.1616    1.8577    1.4820 H   0  0  0  0  0  0  0  0  0  0  0  0
   -7.2012    0.4215    1.2210 H   0  0  0  0  0  0  0  0  0  0  0  0
   -3.3660    4.5814    0.1577 C   0  0  0  0  0  0  0  0  0  0  0  0
   -3.8162    5.5784    0.2749 H   0  0  0  0  0  0  0  0  0  0  0  0
   -2.1120   -3.4240   -1.3504 C   0  0  0  0  0  0  0  0  0  0  0  0
   -1.3752   -3.9484   -1.9775 H   0  0  0  0  0  0  0  0  0  0  0  0
   -6.2535    1.1345   -1.3246 C   0  0  0  0  0  0  0  0  0  0  0  0
   -5.7435    0.8961   -2.2788 H   0  0  0  0  0  0  0  0  0  0  0  0
   -7.2817    0.7246   -1.3733 H   0  0  0  0  0  0  0  0  0  0  0  0
   -6.3341    2.2362   -1.2465 H   0  0  0  0  0  0  0  0  0  0  0  0
   -5.1130   -4.1379    0.9099 C   0  0  0  0  0  0  0  0  0  0  0  0
   -6.1126   -3.7775    0.5913 H   0  0  0  0  0  0  0  0  0  0  0  0
   -5.0725   -5.2353    0.7782 H   0  0  0  0  0  0  0  0  0  0  0  0
   -5.0200   -3.9049    1.9902 H   0  0  0  0  0  0  0  0  0  0  0  0
  1  2  1  0  0  0  0
  2 14  2  0  0  0  0
  2  4  1  0  0  0  0
  3  7  1  6  0  0  0
  3  1  1  0  0  0  0
  3  5  1  0  0  0  0
  4 10  2  0  0  0  0
  5  4  1  0  0  0  0
  7  6  2  0  0  0  0
  8  7  1  0  0  0  0
  9  8  1  0  0  0  0
 10 25  1  0  0  0  0
 10 11  1  0  0  0  0
 12 13  1  0  0  0  0
 12 25  2  0  0  0  0
 14 12  1  0  0  0  0
 15 14  1  0  0  0  0
 16  6  1  0  0  0  0
 16 33  1  0  0  0  0
 17  5  1  0  0  0  0
 17 21  1  0  0  0  0
 18 17  1  0  0  0  0
 19 16  2  0  0  0  0
 20 19  1  0  0  0  0
 21 23  1  0  0  0  0
 21 22  1  0  0  0  0
 24 21  1  0  0  0  0
 25 26  1  0  0  0  0
 27  8  2  0  0  0  0
 27 19  1  0  0  0  0
 28 27  1  0  0  0  0
 29 32  1  0  0  0  0
 29 17  1  0  0  0  0
 30 29  1  0  0  0  0
 31 29  1  0  0  0  0
 33 36  1  0  0  0  0
 34 33  1  0  0  0  0
 35 33  1  0  0  0  0
M  END
