2
q = 0.0, confidence = 1.0

 35 37  0  0  1  0  0  0  0  0999 V2000
    6.8445   -3.1545    0.1595 O   0  0  0  0  0  0  0  0  0  0  0  0
    1.4260    1.3708   -0.4022 N   0  0  0  0  0  2  0  0  0  0  0  0
    4.5185   -0.4800   -0.1798 N   0  0  0  0  0  0  0  0  0  0  0  0
    3.4535    2.3135   -0.4444 N   0  0  0  0  0  0  0  0  0  0  0  0
    1.2503    2.7386   -0.2948 C   0  0  0  0  0  0  0  0  0  0  0  0
    0.0798    3.5126   -0.1992 C   0  0  0  0  0  0  0  0  0  0  0  0
   -0.9033    3.0242   -0.2420 H   0  0  0  0  0  0  0  0  0  0  0  0
    0.2383    4.8978   -0.1004 C   0  0  0  0  0  0  0  0  0  0  0  0
   -0.6534    5.5388   -0.0331 H   0  0  0  0  0  0  0  0  0  0  0  0
    1.5218    5.5012   -0.0986 C   0  0  0  0  0  0  0  0  0  0  0  0
    1.6004    6.5956   -0.0178 H   0  0  0  0  0  0  0  0  0  0  0  0
    2.6927    4.7408   -0.2051 C   0  0  0  0  0  0  0  0  0  0  0  0
    3.6839    5.2157   -0.2086 H   0  0  0  0  0  0  0  0  0  0  0  0
    2.5348    3.3480   -0.3057 C   0  0  0  0  0  0  0  0  0  0  0  0
    2.7432    1.1344   -0.5007 C   0  0  2  0  0  3  0  0  0  0  0  0
    3.3102   -0.2099   -0.7048 C   0  0  0  0  0  0  0  0  0  0  0  0
    2.5650   -1.1591   -1.4463 C   0  0  0  0  0  0  0  0  0  0  0  0
    1.6028   -0.8725   -1.8977 H   0  0  0  0  0  0  0  0  0  0  0  0
    3.0854   -2.4505   -1.5877 C   0  0  0  0  0  0  0  0  0  0  0  0
    2.5260   -3.2114   -2.1526 H   0  0  0  0  0  0  0  0  0  0  0  0
    4.3216   -2.7495   -1.0031 C   0  0  0  0  0  0  0  0  0  0  0  0
    4.7910   -3.7418   -1.0634 H   0  0  0  0  0  0  0  0  0  0  0  0
    5.0092   -1.7256   -0.3228 C   0  0  0  0  0  0  0  0  0  0  0  0
    6.3600   -2.0364    0.2841 C   0  0  0  0  0  0  0  0  0  0  0  0
    7.0533   -0.9259    1.0399 C   0  0  0  0  0  0  0  0  0  0  0  0
    8.0307   -1.2886    1.4040 H   0  0  0  0  0  0  0  0  0  0  0  0
    7.1858   -0.0354    0.3935 H   0  0  0  0  0  0  0  0  0  0  0  0
    6.4243   -0.5936    1.8905 H   0  0  0  0  0  0  0  0  0  0  0  0
    4.9034    2.4972   -0.4723 C   0  0  0  0  0  0  0  0  0  0  0  0
    5.3405    1.6333   -1.0045 H   0  0  0  0  0  0  0  0  0  0  0  0
    5.1040    3.4065   -1.0760 H   0  0  0  0  0  0  0  0  0  0  0  0
    5.4952    2.6141    0.9297 C   0  0  0  0  0  0  0  0  0  0  0  0
    6.5920    2.7610    0.8703 H   0  0  0  0  0  0  0  0  0  0  0  0
    5.0604    3.4695    1.4838 H   0  0  0  0  0  0  0  0  0  0  0  0
    5.2946    1.6850    1.4965 H   0  0  0  0  0  0  0  0  0  0  0  0
  1 24  2  0  0  0  0
  2  5  1  0  0  0  0
  4 14  1  0  0  0  0
  5  6  1  0  0  0  0
  6  8  2  0  0  0  0
  7  6  1  0  0  0  0
  8 10  1  0  0  0  0
  8  9  1  0  0  0  0
 10 11  1  0  0  0  0
 12 10  2  0  0  0  0
 13 12  1  0  0  0  0
 14  5  2  0  0  0  0
 14 12  1  0  0  0  0
 15 16  1  6  0  0  0
 15  4  1  0  0  0  0
 15  2  1  0  0  0  0
 16  3  2  0  0  0  0
 17 16  1  0  0  0  0
 18 17  1  0  0  0  0
 19 17  2  0  0  0  0
 19 21  1  0  0  0  0
 20 19  1  0  0  0  0
 21 23  2  0  0  0  0
 22 21  1  0  0  0  0
 23  3  1  0  0  0  0
 23 24  1  0  0  0  0
 24 25  1  0  0  0  0
 25 26  1  0  0  0  0
 25 28  1  0  0  0  0
 27 25  1  0  0  0  0
 29  4  1  0  0  0  0
 29 32  1  0  0  0  0
 30 29  1  0  0  0  0
 31 29  1  0  0  0  0
 32 34  1  0  0  0  0
 32 35  1  0  0  0  0
 33 32  1  0  0  0  0
M  END
