1
q = 0.0, confidence = 1.0

 38 39  0  0  1  0  0  0  0  0999 V2000
    3.0273    0.9589    0.0394 N   0  0  0  0  0  2  0  0  0  0  0  0
    1.7946    0.4370   -0.0858 N   0  0  0  0  0  0  0  0  0  0  0  0
    1.7569   -0.6051   -0.0616 H   0  0  0  0  0  0  0  0  0  0  0  0
   -4.6768    0.2800   -0.7849 O   0  0  0  0  0  0  0  0  0  0  0  0
    0.8338    1.3924   -0.1884 C   0  0  1  0  0  3  0  0  0  0  0  0
    1.5154    2.6268   -0.1175 C   0  0  0  0  0  0  0  0  0  0  0  0
    1.0769    3.6265   -0.1837 H   0  0  0  0  0  0  0  0  0  0  0  0
    2.8744    2.3012    0.0217 C   0  0  0  0  0  0  0  0  0  0  0  0
    3.7475    2.9573    0.1037 H   0  0  0  0  0  0  0  0  0  0  0  0
   -0.5838    1.0719   -0.3519 C   0  0  0  0  0  0  0  0  0  0  0  0
   -1.5736    2.0663   -0.1580 C   0  0  0  0  0  0  0  0  0  0  0  0
   -1.2740    3.0840    0.1325 H   0  0  0  0  0  0  0  0  0  0  0  0
   -2.9262    1.7742   -0.3103 C   0  0  0  0  0  0  0  0  0  0  0  0
   -3.6976    2.5421   -0.1561 H   0  0  0  0  0  0  0  0  0  0  0  0
   -3.3416    0.4687   -0.6613 C   0  0  0  0  0  0  0  0  0  0  0  0
   -2.3674   -0.5338   -0.8604 C   0  0  0  0  0  0  0  0  0  0  0  0
   -2.6552   -1.5545   -1.1429 H   0  0  0  0  0  0  0  0  0  0  0  0
   -1.0101   -0.2258   -0.7080 C   0  0  0  0  0  0  0  0  0  0  0  0
   -0.2718   -1.0215   -0.8918 H   0  0  0  0  0  0  0  0  0  0  0  0
   -5.1707   -1.0187   -1.1215 C   0  0  0  0  0  0  0  0  0  0  0  0
   -4.8197   -1.7599   -0.3657 H   0  0  0  0  0  0  0  0  0  0  0  0
   -4.7667   -1.3283   -2.1125 H   0  0  0  0  0  0  0  0  0  0  0  0
   -6.6894   -0.9572   -1.1482 C   0  0  0  0  0  0  0  0  0  0  0  0
   -6.9997   -0.2062   -1.9070 H   0  0  0  0  0  0  0  0  0  0  0  0
   -7.0605   -1.9395   -1.5133 H   0  0  0  0  0  0  0  0  0  0  0  0
   -7.3206   -0.6239    0.2062 C   0  0  0  0  0  0  0  0  0  0  0  0
   -6.8984    0.3370    0.5713 H   0  0  0  0  0  0  0  0  0  0  0  0
   -7.0150   -1.3925    0.9521 H   0  0  0  0  0  0  0  0  0  0  0  0
   -8.8474   -0.5327    0.1634 C   0  0  0  0  0  0  0  0  0  0  0  0
   -9.1486    0.2360   -0.5842 H   0  0  0  0  0  0  0  0  0  0  0  0
   -9.2667   -1.4937   -0.2135 H   0  0  0  0  0  0  0  0  0  0  0  0
   -9.4837   -0.1988    1.5160 C   0  0  0  0  0  0  0  0  0  0  0  0
   -9.0579    0.7588    1.8900 H   0  0  0  0  0  0  0  0  0  0  0  0
   -9.1816   -0.9693    2.2601 H   0  0  0  0  0  0  0  0  0  0  0  0
  -11.0087   -0.1013    1.4652 C   0  0  0  0  0  0  0  0  0  0  0  0
  -11.4388    0.1408    2.4578 H   0  0  0  0  0  0  0  0  0  0  0  0
  -11.4630   -1.0566    1.1283 H   0  0  0  0  0  0  0  0  0  0  0  0
  -11.3390    0.6869    0.7566 H   0  0  0  0  0  0  0  0  0  0  0  0
  2  3  1  0  0  0  0
  2  1  1  0  0  0  0
  4 15  1  0  0  0  0
  5 10  1  6  0  0  0
  5  6  1  0  0  0  0
  5  2  1  0  0  0  0
  6  8  2  0  0  0  0
  7  6  1  0  0  0  0
  8  1  1  0  0  0  0
  8  9  1  0  0  0  0
 10 11  1  0  0  0  0
 11 12  1  0  0  0  0
 13 11  2  0  0  0  0
 13 14  1  0  0  0  0
 15 13  1  0  0  0  0
 16 18  1  0  0  0  0
 16 15  2  0  0  0  0
 17 16  1  0  0  0  0
 18 10  2  0  0  0  0
 19 18  1  0  0  0  0
 20  4  1  0  0  0  0
 20 21  1  0  0  0  0
 22 20  1  0  0  0  0
 23 20  1  0  0  0  0
 23 26  1  0  0  0  0
 24 23  1  0  0  0  0
 25 23  1  0  0  0  0
 26 27  1  0  0  0  0
 26 28  1  0  0  0  0
 29 26  1  0  0  0  0
 29 32  1  0  0  0  0
 30 29  1  0  0  0  0
 31 29  1  0  0  0  0
 32 33  1  0  0  0  0
 32 34  1  0  0  0  0
 35 32  1  0  0  0  0
 35 36  1  0  0  0  0
 37 35  1  0  0  0  0
 38 35  1  0  0  0  0
M  END
