1
q = 0.0, confidence = 1.0

 18 18  0  0  0  0  0  0  0  0999 V2000
   -2.1472    0.5210   -1.6604 N   0  0  0  0  0  0  0  0  0  0  0  0
   -2.0943    1.5533   -1.5687 H   0  0  0  0  0  0  0  0  0  0  0  0
   -2.2156    0.3123   -2.6661 H   0  0  0  0  0  0  0  0  0  0  0  0
   -3.2892   -0.0205   -0.9431 C   0  0  0  0  0  0  0  0  0  0  0  0
   -3.5346    0.4091    0.3693 C   0  0  0  0  0  0  0  0  0  0  0  0
   -2.8759    1.1632    0.8271 H   0  0  0  0  0  0  0  0  0  0  0  0
   -4.6122   -0.1192    1.1133 C   0  0  0  0  0  0  0  0  0  0  0  0
   -5.4282   -1.1006    0.4983 C   0  0  0  0  0  0  0  0  0  0  0  0
   -6.2735   -1.5342    1.0509 H   0  0  0  0  0  0  0  0  0  0  0  0
   -5.1728   -1.5272   -0.8074 C   0  0  0  0  0  0  0  0  0  0  0  0
   -5.8181   -2.2881   -1.2706 H   0  0  0  0  0  0  0  0  0  0  0  0
   -4.1007   -0.9921   -1.5427 C   0  0  0  0  0  0  0  0  0  0  0  0
   -3.9041   -1.3311   -2.5716 H   0  0  0  0  0  0  0  0  0  0  0  0
   -4.8304    0.3682    2.4845 C   0  0  0  0  0  0  0  0  0  0  0  0
   -4.1111    1.1343    2.8237 H   0  0  0  0  0  0  0  0  0  0  0  0
   -5.7993   -0.0202    3.3395 C   0  0  0  0  0  0  0  0  0  0  0  0
   -6.5555   -0.7763    3.0761 H   0  0  0  0  0  0  0  0  0  0  0  0
   -5.8700    0.4156    4.3468 H   0  0  0  0  0  0  0  0  0  0  0  0
  1  2  1  0  0  0  0
  1  4  1  0  0  0  0
  3  1  1  0  0  0  0
  4  5  1  0  0  0  0
  5  6  1  0  0  0  0
  5  7  2  0  0  0  0
  7 14  1  0  0  0  0
  8  9  1  0  0  0  0
  8  7  1  0  0  0  0
 10  8  2  0  0  0  0
 11 10  1  0  0  0  0
 12  4  2  0  0  0  0
 12 10  1  0  0  0  0
 13 12  1  0  0  0  0
 14 15  1  0  0  0  0
 14 16  2  0  0  0  0
 16 18  1  0  0  0  0
 17 16  1  0  0  0  0
M  END
