1
q = -1.0, confidence = 0.0

 27 26  0  0  0  0  0  0  0  0999 V2000
   -0.3948   -1.0163   -1.4547 N   0  0  0  0  0  2  0  0  0  0  0  0
   -2.0362   -0.2986   -0.2064 N   0  0  0  0  0  0  0  0  0  0  0  0
    1.1887   -0.7173   -3.2879 C   0  0  0  0  0  0  0  0  0  0  0  0
    0.5541    0.0501   -3.7724 H   0  0  0  0  0  0  0  0  0  0  0  0
    1.7858   -1.2338   -4.0667 H   0  0  0  0  0  0  0  0  0  0  0  0
    1.8735   -0.1860   -2.6007 H   0  0  0  0  0  0  0  0  0  0  0  0
    0.3223   -1.7103   -2.5039 C   0  0  0  0  0  0  0  0  0  0  0  0
   -0.4206   -2.1255   -3.2237 H   0  0  0  0  0  0  0  0  0  0  0  0
    1.1210   -2.8950   -1.9357 C   0  0  0  0  0  0  0  0  0  0  0  0
    0.4408   -3.6155   -1.4380 H   0  0  0  0  0  0  0  0  0  0  0  0
    1.8429   -2.5355   -1.1800 H   0  0  0  0  0  0  0  0  0  0  0  0
    1.6739   -3.4311   -2.7349 H   0  0  0  0  0  0  0  0  0  0  0  0
   -1.6944   -1.1217   -1.2175 C   0  0  0  0  0  0  0  0  0  0  0  0
   -2.6176   -2.0495   -1.9728 C   0  0  0  0  0  0  0  0  0  0  0  0
   -3.5343   -2.2626   -1.3977 H   0  0  0  0  0  0  0  0  0  0  0  0
   -2.1157   -3.0156   -2.1740 H   0  0  0  0  0  0  0  0  0  0  0  0
   -2.9204   -1.6180   -2.9496 H   0  0  0  0  0  0  0  0  0  0  0  0
   -4.1477   -0.9800    0.9991 C   0  0  0  0  0  0  0  0  0  0  0  0
   -3.5996   -1.2042    1.9316 H   0  0  0  0  0  0  0  0  0  0  0  0
   -4.2935   -1.9352    0.4554 H   0  0  0  0  0  0  0  0  0  0  0  0
   -5.1529   -0.5989    1.2744 H   0  0  0  0  0  0  0  0  0  0  0  0
   -3.4046    0.0670    0.1436 C   0  0  0  0  0  0  0  0  0  0  0  0
   -3.3037    0.9585    0.7920 H   0  0  0  0  0  0  0  0  0  0  0  0
   -4.2798    0.4864   -1.0596 C   0  0  0  0  0  0  0  0  0  0  0  0
   -3.6968    1.0762   -1.7931 H   0  0  0  0  0  0  0  0  0  0  0  0
   -5.1391    1.1009   -0.7207 H   0  0  0  0  0  0  0  0  0  0  0  0
   -4.6996   -0.3882   -1.5942 H   0  0  0  0  0  0  0  0  0  0  0  0
  1 13  1  0  0  0  0
  2 22  1  0  0  0  0
  3  6  1  0  0  0  0
  3  7  1  0  0  0  0
  4  3  1  0  0  0  0
  5  3  1  0  0  0  0
  7  9  1  0  0  0  0
  7  1  1  0  0  0  0
  8  7  1  0  0  0  0
  9 10  1  0  0  0  0
  9 11  1  0  0  0  0
 12  9  1  0  0  0  0
 13  2  2  0  0  0  0
 14 15  1  0  0  0  0
 14 13  1  0  0  0  0
 16 14  1  0  0  0  0
 17 14  1  0  0  0  0
 18 21  1  0  0  0  0
 18 19  1  0  0  0  0
 20 18  1  0  0  0  0
 22 23  1  0  0  0  0
 22 18  1  0  0  0  0
 24 26  1  0  0  0  0
 24 22  1  0  0  0  0
 25 24  1  0  0  0  0
 27 24  1  0  0  0  0
M  END
