20
q = 0.0, confidence = 0.976

 21 22  0  0  0  0  0  0  0  0999 V2000
    3.5999    1.3253    0.7949 C   0  0  0  0  0  0  0  0  0  0  0  0
    4.4653    2.4404    0.8345 C   0  0  0  0  0  0  0  0  0  0  0  0
    4.1249    3.3485    1.3538 H   0  0  0  0  0  0  0  0  0  0  0  0
    4.0072    0.1216    0.1647 C   0  0  0  0  0  0  0  0  0  0  0  0
    3.3335   -0.7506    0.2079 H   0  0  0  0  0  0  0  0  0  0  0  0
    6.1149    1.1882   -0.4339 C   0  0  0  0  0  0  0  0  0  0  0  0
    7.1045    1.1311   -0.9126 H   0  0  0  0  0  0  0  0  0  0  0  0
    5.7147    2.3741    0.2065 C   0  0  0  0  0  0  0  0  0  0  0  0
    6.3860    3.2458    0.2233 H   0  0  0  0  0  0  0  0  0  0  0  0
    5.2645    0.0646   -0.4422 C   0  0  0  0  0  0  0  0  0  0  0  0
    5.5976   -0.8717   -0.9160 H   0  0  0  0  0  0  0  0  0  0  0  0
    0.3221    0.5808    1.7494 C   0  0  0  0  0  0  0  0  0  0  0  0
   -1.3166    1.0251    3.1796 C   0  0  0  0  0  3  0  0  0  0  0  0
   -1.8510    1.5254    3.9936 H   0  0  0  0  0  0  0  0  0  0  0  0
   -1.6712   -0.0492    2.3635 C   0  0  0  0  0  0  0  0  0  0  0  0
   -2.5757   -0.6689    2.3474 H   0  0  0  0  0  0  0  0  0  0  0  0
    1.5056    0.5794    1.0630 N   0  0  0  0  0  0  0  0  0  0  0  0
   -0.0595    1.4056    2.7768 N   0  0  0  0  0  0  0  0  0  0  0  0
    0.5425    2.1471    3.1433 H   0  0  0  0  0  0  0  0  0  0  0  0
   -0.6536   -0.3004    1.4917 N   0  0  0  0  0  0  0  0  0  0  0  0
    2.3564    1.4510    1.4414 N   0  0  0  0  0  2  0  0  0  0  0  0
  1  2  1  0  0  0  0
  1 21  1  0  0  0  0
  2  3  1  0  0  0  0
  4  5  1  0  0  0  0
  4  1  2  0  0  0  0
  6  8  1  0  0  0  0
  7  6  1  0  0  0  0
  8  9  1  0  0  0  0
  8  2  2  0  0  0  0
 10  6  2  0  0  0  0
 10  4  1  0  0  0  0
 11 10  1  0  0  0  0
 12 18  1  0  0  0  0
 13 14  1  0  0  0  0
 15 13  1  0  0  0  0
 16 15  1  0  0  0  0
 17 21  1  0  0  0  0
 17 12  2  0  0  0  0
 18 19  1  0  0  0  0
 18 13  1  0  0  0  0
 20 12  1  0  0  0  0
 20 15  2  0  0  0  0
M  END
