4
q = -1.0, confidence = 0.01

 58 59  0  0  1  0  0  0  0  0999 V2000
   -1.1964    1.6217   -0.1263 P   0  0  0  0  0  0  0  0  0  0  0  0
    0.4356    2.2001   -0.1680 N   0  0  0  0  0  2  0  0  0  0  0  0
   -1.8189    2.2836   -1.8107 C   0  0  0  0  0  0  0  0  0  0  0  0
    0.9698   -0.1184   -0.1567 N   0  0  0  0  0  2  0  0  0  0  0  0
   -1.1313    1.3641   -2.8402 C   0  0  0  0  0  0  0  0  0  0  0  0
   -1.3976    0.3010   -2.6701 H   0  0  0  0  0  0  0  0  0  0  0  0
   -0.0285    1.4552   -2.7854 H   0  0  0  0  0  0  0  0  0  0  0  0
   -1.4499    1.6531   -3.8647 H   0  0  0  0  0  0  0  0  0  0  0  0
   -3.3405    2.1267   -1.9201 C   0  0  0  0  0  0  0  0  0  0  0  0
   -3.6605    2.3282   -2.9648 H   0  0  0  0  0  0  0  0  0  0  0  0
   -3.8822    2.8387   -1.2670 H   0  0  0  0  0  0  0  0  0  0  0  0
   -3.6618    1.1006   -1.6568 H   0  0  0  0  0  0  0  0  0  0  0  0
   -1.3929    3.7344   -2.0789 C   0  0  0  0  0  0  0  0  0  0  0  0
   -0.3157    3.8740   -1.8657 H   0  0  0  0  0  0  0  0  0  0  0  0
   -1.9673    4.4605   -1.4745 H   0  0  0  0  0  0  0  0  0  0  0  0
   -1.5782    3.9747   -3.1481 H   0  0  0  0  0  0  0  0  0  0  0  0
   -1.8306    2.6299    1.3663 C   0  0  0  0  0  0  0  0  0  0  0  0
   -1.0180    2.0718    2.5522 C   0  0  0  0  0  0  0  0  0  0  0  0
    0.0620    2.2843    2.4295 H   0  0  0  0  0  0  0  0  0  0  0  0
   -1.1426    0.9746    2.6430 H   0  0  0  0  0  0  0  0  0  0  0  0
   -1.3623    2.5477    3.4950 H   0  0  0  0  0  0  0  0  0  0  0  0
   -3.3241    2.3794    1.6048 C   0  0  0  0  0  0  0  0  0  0  0  0
   -3.6337    2.8611    2.5568 H   0  0  0  0  0  0  0  0  0  0  0  0
   -3.5412    1.2979    1.6873 H   0  0  0  0  0  0  0  0  0  0  0  0
   -3.9571    2.7974    0.7989 H   0  0  0  0  0  0  0  0  0  0  0  0
   -1.5485    4.1323    1.2238 C   0  0  0  0  0  0  0  0  0  0  0  0
   -1.7003    4.6264    2.2077 H   0  0  0  0  0  0  0  0  0  0  0  0
   -2.2345    4.6181    0.5041 H   0  0  0  0  0  0  0  0  0  0  0  0
   -0.5060    4.3107    0.8975 H   0  0  0  0  0  0  0  0  0  0  0  0
    1.3194    1.2298   -0.1675 C   0  0  2  0  0  3  0  0  0  0  0  0
    2.7565    1.6681   -0.1245 C   0  0  0  0  0  0  0  0  0  0  0  0
    3.7885    1.0850   -0.8893 C   0  0  0  0  0  0  0  0  0  0  0  0
    3.5720    0.2505   -1.5659 H   0  0  0  0  0  0  0  0  0  0  0  0
    5.1018    1.5707   -0.8033 C   0  0  0  0  0  0  0  0  0  0  0  0
    5.8905    1.1051   -1.4137 H   0  0  0  0  0  0  0  0  0  0  0  0
    5.4115    2.6369    0.0539 C   0  0  0  0  0  0  0  0  0  0  0  0
    6.4455    3.0073    0.1268 H   0  0  0  0  0  0  0  0  0  0  0  0
    4.3906    3.2325    0.8130 C   0  0  0  0  0  0  0  0  0  0  0  0
    4.6196    4.0753    1.4831 H   0  0  0  0  0  0  0  0  0  0  0  0
    3.0764    2.7598    0.7150 C   0  0  0  0  0  0  0  0  0  0  0  0
    2.2639    3.2300    1.2871 H   0  0  0  0  0  0  0  0  0  0  0  0
    1.9724   -1.1236   -0.0861 C   0  0  0  0  0  0  0  0  0  0  0  0
    2.6083   -1.4111    1.1509 C   0  0  0  0  0  0  0  0  0  0  0  0
    3.5680   -2.4404    1.1919 C   0  0  0  0  0  0  0  0  0  0  0  0
    4.0621   -2.6693    2.1497 H   0  0  0  0  0  0  0  0  0  0  0  0
    3.9018   -3.1670    0.0405 C   0  0  0  0  0  0  0  0  0  0  0  0
    4.6557   -3.9671    0.0910 H   0  0  0  0  0  0  0  0  0  0  0  0
    3.2706   -2.8695   -1.1767 C   0  0  0  0  0  0  0  0  0  0  0  0
    3.5318   -3.4345   -2.0858 H   0  0  0  0  0  0  0  0  0  0  0  0
    2.3026   -1.8533   -1.2608 C   0  0  0  0  0  0  0  0  0  0  0  0
    2.2571   -0.6170    2.3793 C   0  0  0  0  0  0  0  0  0  0  0  0
    2.5998   -1.1252    3.3011 H   0  0  0  0  0  0  0  0  0  0  0  0
    1.1620   -0.4492    2.4371 H   0  0  0  0  0  0  0  0  0  0  0  0
    2.7263    0.3899    2.3521 H   0  0  0  0  0  0  0  0  0  0  0  0
    1.6408   -1.5040   -2.5662 C   0  0  0  0  0  0  0  0  0  0  0  0
    1.8887   -2.2378   -3.3568 H   0  0  0  0  0  0  0  0  0  0  0  0
    1.9493   -0.4976   -2.9245 H   0  0  0  0  0  0  0  0  0  0  0  0
    0.5390   -1.4472   -2.4449 H   0  0  0  0  0  0  0  0  0  0  0  0
  1 17  1  0  0  0  0
  2  1  1  0  0  0  0
  3  1  1  0  0  0  0
  4 42  1  0  0  0  0
  5  7  1  0  0  0  0
  5  6  1  0  0  0  0
  5  3  1  0  0  0  0
  8  5  1  0  0  0  0
  9  3  1  0  0  0  0
  9 12  1  0  0  0  0
  9 11  1  0  0  0  0
 10  9  1  0  0  0  0
 13 14  1  0  0  0  0
 13  3  1  0  0  0  0
 13 15  1  0  0  0  0
 16 13  1  0  0  0  0
 17 22  1  0  0  0  0
 17 18  1  0  0  0  0
 18 20  1  0  0  0  0
 18 21  1  0  0  0  0
 19 18  1  0  0  0  0
 22 24  1  0  0  0  0
 22 23  1  0  0  0  0
 25 22  1  0  0  0  0
 26 17  1  0  0  0  0
 26 27  1  0  0  0  0
 28 26  1  0  0  0  0
 29 26  1  0  0  0  0
 30  2  1  1  0  0  0
 30  4  1  0  0  0  0
 30 31  1  0  0  0  0
 31 40  1  0  0  0  0
 32 34  1  0  0  0  0
 32 31  2  0  0  0  0
 33 32  1  0  0  0  0
 34 36  2  0  0  0  0
 35 34  1  0  0  0  0
 36 37  1  0  0  0  0
 36 38  1  0  0  0  0
 38 39  1  0  0  0  0
 40 38  2  0  0  0  0
 40 41  1  0  0  0  0
 42 43  1  0  0  0  0
 43 44  2  0  0  0  0
 43 51  1  0  0  0  0
 44 45  1  0  0  0  0
 46 47  1  0  0  0  0
 46 44  1  0  0  0  0
 48 46  2  0  0  0  0
 49 48  1  0  0  0  0
 50 48  1  0  0  0  0
 50 42  2  0  0  0  0
 51 53  1  0  0  0  0
 51 52  1  0  0  0  0
 54 51  1  0  0  0  0
 55 58  1  0  0  0  0
 55 50  1  0  0  0  0
 56 55  1  0  0  0  0
 57 55  1  0  0  0  0
M  END
