3
q = 0.0, confidence = 1.0

 30 31  0  0  1  0  0  0  0  0999 V2000
    1.4563    2.9406    0.0607 O   0  0  0  0  0  0  0  0  0  0  0  0
    0.7575   -0.9418   -1.2776 O   0  0  0  0  0  0  0  0  0  0  0  0
   -0.1329    1.3566    0.0411 N   0  0  0  0  0  2  0  0  0  0  0  0
   -0.8931    2.6177    0.2306 C   0  0  0  0  0  0  0  0  0  0  0  0
    0.2589    3.6147    0.5282 C   0  0  0  0  0  0  0  0  0  0  0  0
    0.1708    4.5737   -0.0160 H   0  0  0  0  0  0  0  0  0  0  0  0
    0.3821    3.8127    1.6144 H   0  0  0  0  0  0  0  0  0  0  0  0
    1.1290    1.6373   -0.0911 C   0  0  2  0  0  3  0  0  0  0  0  0
    2.2283    0.7082   -0.3595 C   0  0  0  0  0  0  0  0  0  0  0  0
    3.5429    1.1181   -0.0454 C   0  0  0  0  0  0  0  0  0  0  0  0
    3.6815    2.1242    0.3732 H   0  0  0  0  0  0  0  0  0  0  0  0
    4.6362    0.2714   -0.2433 C   0  0  0  0  0  0  0  0  0  0  0  0
    5.6501    0.6066    0.0170 H   0  0  0  0  0  0  0  0  0  0  0  0
    4.4200   -1.0118   -0.7666 C   0  0  0  0  0  0  0  0  0  0  0  0
    5.2667   -1.6984   -0.9168 H   0  0  0  0  0  0  0  0  0  0  0  0
    3.1292   -1.4412   -1.1030 C   0  0  0  0  0  0  0  0  0  0  0  0
    2.9835   -2.4496   -1.5085 H   0  0  0  0  0  0  0  0  0  0  0  0
    2.0255   -0.5905   -0.9150 C   0  0  0  0  0  0  0  0  0  0  0  0
   -1.8721    2.4649    1.3968 C   0  0  0  0  0  0  0  0  0  0  0  0
   -2.6483    1.7144    1.1426 H   0  0  0  0  0  0  0  0  0  0  0  0
   -2.3840    3.4256    1.6059 H   0  0  0  0  0  0  0  0  0  0  0  0
   -1.3472    2.1314    2.3139 H   0  0  0  0  0  0  0  0  0  0  0  0
   -1.6238    2.9395   -1.0817 C   0  0  0  0  0  0  0  0  0  0  0  0
   -0.8992    3.0948   -1.9062 H   0  0  0  0  0  0  0  0  0  0  0  0
   -2.2340    3.8586   -0.9691 H   0  0  0  0  0  0  0  0  0  0  0  0
   -2.2884    2.0956   -1.3558 H   0  0  0  0  0  0  0  0  0  0  0  0
    0.5222   -2.2360   -1.8533 C   0  0  0  0  0  0  0  0  0  0  0  0
    1.1242   -2.3676   -2.7751 H   0  0  0  0  0  0  0  0  0  0  0  0
   -0.5566   -2.2499   -2.0966 H   0  0  0  0  0  0  0  0  0  0  0  0
    0.7494   -3.0313   -1.1138 H   0  0  0  0  0  0  0  0  0  0  0  0
  1  5  1  0  0  0  0
  2 18  1  0  0  0  0
  3  4  1  0  0  0  0
  4  5  1  0  0  0  0
  4 19  1  0  0  0  0
  5  7  1  0  0  0  0
  6  5  1  0  0  0  0
  8  9  1  1  0  0  0
  8  3  1  0  0  0  0
  8  1  1  0  0  0  0
  9 10  1  0  0  0  0
 10 11  1  0  0  0  0
 12 10  2  0  0  0  0
 12 13  1  0  0  0  0
 14 12  1  0  0  0  0
 15 14  1  0  0  0  0
 16 18  1  0  0  0  0
 16 14  2  0  0  0  0
 17 16  1  0  0  0  0
 18  9  2  0  0  0  0
 19 21  1  0  0  0  0
 19 22  1  0  0  0  0
 20 19  1  0  0  0  0
 23 25  1  0  0  0  0
 23  4  1  0  0  0  0
 24 23  1  0  0  0  0
 26 23  1  0  0  0  0
 27  2  1  0  0  0  0
 27 30  1  0  0  0  0
 28 27  1  0  0  0  0
 29 27  1  0  0  0  0
M  END
