5
q = -1.0, confidence = 0.0

 31 32  0  0  0  0  0  0  0  0999 V2000
    7.3349    0.6138   -0.0023 O   0  0  0  0  0  0  0  0  0  0  0  0
    6.3616   -1.4418   -0.0309 O   0  0  0  0  0  0  0  0  0  0  0  0
    3.9266   -2.0139    1.3802 O   0  0  0  0  0  0  0  0  0  0  0  0
    3.3274   -2.2728   -0.7948 O   0  0  0  0  0  0  0  0  0  0  0  0
    0.1927    0.7113   -0.0641 N   0  0  0  0  0  0  0  0  0  0  0  0
    1.2676   -0.0917    0.1339 C   0  0  0  0  0  3  0  0  0  0  0  0
    1.1095   -1.1526    0.3673 H   0  0  0  0  0  0  0  0  0  0  0  0
    2.4888    0.6004   -0.0165 C   0  0  0  0  0  0  0  0  0  0  0  0
    2.1138    1.9712   -0.3134 C   0  0  0  0  0  0  0  0  0  0  0  0
    2.8137    3.1689   -0.5788 C   0  0  0  0  0  0  0  0  0  0  0  0
    3.9122    3.1911   -0.5775 H   0  0  0  0  0  0  0  0  0  0  0  0
    2.0975    4.3409   -0.8516 C   0  0  0  0  0  0  0  0  0  0  0  0
    2.6442    5.2740   -1.0563 H   0  0  0  0  0  0  0  0  0  0  0  0
    0.6836    4.3441   -0.8713 C   0  0  0  0  0  0  0  0  0  0  0  0
    0.1445    5.2783   -1.0914 H   0  0  0  0  0  0  0  0  0  0  0  0
   -0.0405    3.1716   -0.6209 C   0  0  0  0  0  0  0  0  0  0  0  0
   -1.1401    3.1561   -0.6498 H   0  0  0  0  0  0  0  0  0  0  0  0
    0.6715    1.9900   -0.3409 C   0  0  0  0  0  0  0  0  0  0  0  0
    3.7701   -0.0532    0.0551 C   0  0  0  0  0  0  0  0  0  0  0  0
    5.0026    0.5494   -0.0076 C   0  0  0  0  0  0  0  0  0  0  0  0
    5.0977    1.6404   -0.0681 H   0  0  0  0  0  0  0  0  0  0  0  0
    6.2453   -0.2197   -0.0110 C   0  0  0  0  0  0  0  0  0  0  0  0
    8.5955   -0.0503   -0.0194 C   0  0  0  0  0  0  0  0  0  0  0  0
    8.7214   -0.6987    0.8729 H   0  0  0  0  0  0  0  0  0  0  0  0
    9.3649    0.7435   -0.0253 H   0  0  0  0  0  0  0  0  0  0  0  0
    8.6997   -0.6933   -0.9182 H   0  0  0  0  0  0  0  0  0  0  0  0
    3.6812   -1.5648    0.1315 C   0  0  0  0  0  0  0  0  0  0  0  0
    3.9439   -3.4386    1.5123 C   0  0  0  0  0  0  0  0  0  0  0  0
    4.0802   -3.6465    2.5888 H   0  0  0  0  0  0  0  0  0  0  0  0
    4.7888   -3.8580    0.9291 H   0  0  0  0  0  0  0  0  0  0  0  0
    2.9975   -3.8847    1.1451 H   0  0  0  0  0  0  0  0  0  0  0  0
  2 22  2  0  0  0  0
  3 28  1  0  0  0  0
  4 27  2  0  0  0  0
  5  6  1  0  0  0  0
  6  7  1  0  0  0  0
  8 19  1  0  0  0  0
  8  6  1  0  0  0  0
  9  8  2  0  0  0  0
 10 11  1  0  0  0  0
 10  9  1  0  0  0  0
 12 10  2  0  0  0  0
 13 12  1  0  0  0  0
 14 12  1  0  0  0  0
 14 16  2  0  0  0  0
 15 14  1  0  0  0  0
 16 18  1  0  0  0  0
 17 16  1  0  0  0  0
 18  9  1  0  0  0  0
 18  5  2  0  0  0  0
 19 27  1  0  0  0  0
 20 19  2  0  0  0  0
 21 20  1  0  0  0  0
 22 20  1  0  0  0  0
 22  1  1  0  0  0  0
 23  1  1  0  0  0  0
 23 24  1  0  0  0  0
 25 23  1  0  0  0  0
 26 23  1  0  0  0  0
 27  3  1  0  0  0  0
 28 29  1  0  0  0  0
 30 28  1  0  0  0  0
 31 28  1  0  0  0  0
M  END
