2
q = 0.0, confidence = 0.998

 32 34  0  0  1  0  0  0  0  0999 V2000
    0.2232    2.0920   -2.1094 Se  0  0  0  0  0  0  0  0  0  0  0  0
   -1.6559    0.8002    0.0039 N   0  0  0  0  0  2  0  0  0  0  0  0
   -3.3459    2.2707    0.1404 N   0  0  0  0  0  0  0  0  0  0  0  0
   -3.5507    1.3416    1.1602 C   0  0  0  0  0  0  0  0  0  0  0  0
   -4.5518    1.2219    2.1367 C   0  0  0  0  0  0  0  0  0  0  0  0
   -5.3886    1.9309    2.2088 H   0  0  0  0  0  0  0  0  0  0  0  0
   -4.4309    0.1437    3.0238 C   0  0  0  0  0  0  0  0  0  0  0  0
   -5.1914    0.0083    3.8067 H   0  0  0  0  0  0  0  0  0  0  0  0
   -3.3553   -0.7750    2.9390 C   0  0  0  0  0  0  0  0  0  0  0  0
   -3.3046   -1.6069    3.6565 H   0  0  0  0  0  0  0  0  0  0  0  0
   -2.3613   -0.6521    1.9626 C   0  0  0  0  0  0  0  0  0  0  0  0
   -1.5282   -1.3644    1.8819 H   0  0  0  0  0  0  0  0  0  0  0  0
   -2.4727    0.4211    1.0633 C   0  0  0  0  0  0  0  0  0  0  0  0
   -4.2297    3.3856   -0.1506 C   0  0  0  0  0  0  0  0  0  0  0  0
   -5.2322    3.0195   -0.4517 H   0  0  0  0  0  0  0  0  0  0  0  0
   -3.8159    3.9935   -0.9740 H   0  0  0  0  0  0  0  0  0  0  0  0
   -4.3419    4.0302    0.7440 H   0  0  0  0  0  0  0  0  0  0  0  0
   -2.1988    1.8997   -0.5250 C   0  0  1  0  0  3  0  0  0  0  0  0
   -1.6273    2.6366   -1.6970 C   0  0  0  0  0  0  0  0  0  0  0  0
   -1.6382    3.7359   -1.5568 H   0  0  0  0  0  0  0  0  0  0  0  0
   -2.1873    2.4177   -2.6314 H   0  0  0  0  0  0  0  0  0  0  0  0
    1.1709    2.9823   -0.6795 C   0  0  0  0  0  0  0  0  0  0  0  0
    0.5386    3.5883    0.4207 C   0  0  0  0  0  0  0  0  0  0  0  0
   -0.5548    3.5874    0.5265 H   0  0  0  0  0  0  0  0  0  0  0  0
    1.3205    4.1983    1.4164 C   0  0  0  0  0  0  0  0  0  0  0  0
    0.8217    4.6762    2.2731 H   0  0  0  0  0  0  0  0  0  0  0  0
    2.7202    4.1977    1.3256 C   0  0  0  0  0  0  0  0  0  0  0  0
    3.3257    4.6762    2.1090 H   0  0  0  0  0  0  0  0  0  0  0  0
    3.3437    3.5842    0.2268 C   0  0  0  0  0  0  0  0  0  0  0  0
    4.4407    3.5779    0.1454 H   0  0  0  0  0  0  0  0  0  0  0  0
    2.5760    2.9813   -0.7785 C   0  0  0  0  0  0  0  0  0  0  0  0
    3.0745    2.5128   -1.6414 H   0  0  0  0  0  0  0  0  0  0  0  0
  1 19  1  0  0  0  0
  1 22  1  0  0  0  0
  2 13  1  0  0  0  0
  3  4  1  0  0  0  0
  4  5  1  0  0  0  0
  5  6  1  0  0  0  0
  5  7  2  0  0  0  0
  7  8  1  0  0  0  0
  9  7  1  0  0  0  0
  9 10  1  0  0  0  0
 11  9  2  0  0  0  0
 12 11  1  0  0  0  0
 13  4  2  0  0  0  0
 13 11  1  0  0  0  0
 14  3  1  0  0  0  0
 14 17  1  0  0  0  0
 15 14  1  0  0  0  0
 16 14  1  0  0  0  0
 18 19  1  1  0  0  0
 18  2  1  0  0  0  0
 18  3  1  0  0  0  0
 19 20  1  0  0  0  0
 21 19  1  0  0  0  0
 22 23  1  0  0  0  0
 23 24  1  0  0  0  0
 23 25  2  0  0  0  0
 25 26  1  0  0  0  0
 27 25  1  0  0  0  0
 27 28  1  0  0  0  0
 29 27  2  0  0  0  0
 30 29  1  0  0  0  0
 31 22  2  0  0  0  0
 31 29  1  0  0  0  0
 32 31  1  0  0  0  0
M  END
