1
q = 0.0, confidence = 0.996

 17 17  0  0  0  0  0  0  0  0999 V2000
    1.2674   -0.3642   -0.9531 N   0  0  0  0  0  0  0  0  0  0  0  0
    1.3534    0.5825   -1.3736 H   0  0  0  0  0  0  0  0  0  0  0  0
    1.2830   -1.0689   -1.7067 H   0  0  0  0  0  0  0  0  0  0  0  0
    2.3997   -0.6149   -0.0157 C   0  0  0  0  0  0  0  0  0  0  0  0
    2.2088   -1.6266    0.3909 H   0  0  0  0  0  0  0  0  0  0  0  0
    3.7902   -0.5394   -0.7139 C   0  0  0  0  0  0  0  0  0  0  0  0
    3.7046   -0.5204   -1.8203 H   0  0  0  0  0  0  0  0  0  0  0  0
    4.3702   -1.4499   -0.4598 H   0  0  0  0  0  0  0  0  0  0  0  0
    4.4790    0.7080   -0.1309 C   0  0  0  0  0  0  0  0  0  0  0  0
    5.5845    0.6595   -0.1876 H   0  0  0  0  0  0  0  0  0  0  0  0
    4.1618    1.6183   -0.6847 H   0  0  0  0  0  0  0  0  0  0  0  0
    3.9312    0.7651    1.3027 C   0  0  0  0  0  0  0  0  0  0  0  0
    4.1052    1.7367    1.8065 H   0  0  0  0  0  0  0  0  0  0  0  0
    4.4140   -0.0197    1.9247 H   0  0  0  0  0  0  0  0  0  0  0  0
    2.4405    0.4516    1.1057 C   0  0  0  0  0  0  0  0  0  0  0  0
    1.9146    0.1142    2.0199 H   0  0  0  0  0  0  0  0  0  0  0  0
    1.9231    1.3630    0.7378 H   0  0  0  0  0  0  0  0  0  0  0  0
  1  4  1  0  0  0  0
  2  1  1  0  0  0  0
  3  1  1  0  0  0  0
  4  5  1  0  0  0  0
  4 15  1  0  0  0  0
  6  8  1  0  0  0  0
  6  9  1  0  0  0  0
  6  4  1  0  0  0  0
  7  6  1  0  0  0  0
  9 12  1  0  0  0  0
 10  9  1  0  0  0  0
 11  9  1  0  0  0  0
 12 13  1  0  0  0  0
 12 14  1  0  0  0  0
 15 12  1  0  0  0  0
 15 16  1  0  0  0  0
 17 15  1  0  0  0  0
M  END
