4
q = 0.0, confidence = 0.998

 14 14  0  0  0  0  0  0  0  0999 V2000
   -6.4906   -0.0268    0.1387 O   0  0  0  0  0  0  0  0  0  0  0  0
   -5.4827   -1.5554    1.3570 O   0  0  0  0  0  0  0  0  0  0  0  0
   -4.0085    0.9667   -0.6953 N   0  0  0  0  0  0  0  0  0  0  0  0
   -2.0122    0.1737   -0.1169 N   0  0  0  0  0  2  0  0  0  0  0  0
   -5.4868   -0.5995    0.5836 N   0  0  0  0  0  0  0  0  0  0  0  0
   -5.0052    1.8186   -1.3393 C   0  0  0  0  0  0  0  0  0  0  0  0
   -2.6686    1.1050   -0.8347 C   0  0  0  0  0  3  0  0  0  0  0  0
   -2.9519   -0.5997    0.5132 C   0  0  0  0  0  0  0  0  0  0  0  0
   -4.2023   -0.1112    0.1634 C   0  0  0  0  0  0  0  0  0  0  0  0
   -4.4657    2.5741   -1.9381 H   0  0  0  0  0  0  0  0  0  0  0  0
   -5.6635    1.2149   -1.9893 H   0  0  0  0  0  0  0  0  0  0  0  0
   -5.6329    2.3149   -0.5779 H   0  0  0  0  0  0  0  0  0  0  0  0
   -2.1875    1.8913   -1.4261 H   0  0  0  0  0  0  0  0  0  0  0  0
   -2.6999   -1.4510    1.1510 H   0  0  0  0  0  0  0  0  0  0  0  0
  1  5  2  0  0  0  0
  3  9  1  0  0  0  0
  4  8  1  0  0  0  0
  5  2  2  0  0  0  0
  6  3  1  0  0  0  0
  6 12  1  0  0  0  0
  7  3  1  0  0  0  0
  7  4  1  0  0  0  0
  8 14  1  0  0  0  0
  9  8  2  0  0  0  0
  9  5  1  0  0  0  0
 10  6  1  0  0  0  0
 11  6  1  0  0  0  0
 13  7  1  0  0  0  0
M  END
