4
q = -1.0, confidence = 0.0

 11 11  0  0  0  0  0  0  0  0999 V2000
   -3.1523    0.0355    1.1920 N   0  0  0  0  0  0  0  0  0  0  0  0
   -1.8034    0.0294    0.9973 C   0  0  0  0  0  0  0  0  0  0  0  0
   -0.5735    0.0668    2.2069 S   0  0  0  0  0  0  0  0  0  0  0  0
   -1.2929   -0.0081   -0.2378 N   0  0  0  0  0  2  0  0  0  0  0  0
   -2.0750   -0.0439   -1.4310 C   0  0  0  0  0  0  0  0  0  0  0  0
   -1.5372   -0.0774   -2.5286 O   0  0  0  0  0  0  0  0  0  0  0  0
   -3.5205   -0.0353   -1.1702 C   0  0  0  0  0  0  0  0  0  0  0  0
   -4.0088    0.0032    0.1029 C   0  0  0  0  0  0  0  0  0  0  0  0
   -3.5178    0.0648    2.1476 H   0  0  0  0  0  0  0  0  0  0  0  0
   -4.1976   -0.0607   -2.0337 H   0  0  0  0  0  0  0  0  0  0  0  0
   -5.0825    0.0109    0.3390 H   0  0  0  0  0  0  0  0  0  0  0  0
  1  9  1  0  0  0  0
  2  1  1  0  0  0  0
  2  3  2  0  0  0  0
  4  2  1  0  0  0  0
  5  7  1  0  0  0  0
  5  4  1  0  0  0  0
  6  5  2  0  0  0  0
  7  8  2  0  0  0  0
  8 11  1  0  0  0  0
  8  1  1  0  0  0  0
 10  7  1  0  0  0  0
M  END
