3
q = -2.0, confidence = 0.868

 11 11  0  0  0  0  0  0  0  0999 V2000
   -0.4802   -1.3167    2.3779 S   0  0  0  0  0  0  0  0  0  0  0  0
    0.4802   -1.3167   -2.3778 S   0  0  0  0  0  0  0  0  0  0  0  0
   -0.0000   -1.9776    0.0000 N   0  0  0  0  0  2  0  0  0  0  0  0
   -0.2367   -2.5708    1.1871 C   0  0  0  0  0  0  0  0  0  0  0  0
   -0.2377   -3.9824    1.2203 C   0  0  0  0  0  0  0  0  0  0  0  0
   -0.4201   -4.5309    2.1534 H   0  0  0  0  0  0  0  0  0  0  0  0
   -0.0001   -4.6507    0.0000 C   0  0  0  0  0  0  0  0  0  0  0  0
   -0.0001   -5.7525    0.0000 H   0  0  0  0  0  0  0  0  0  0  0  0
    0.2376   -3.9824   -1.2202 C   0  0  0  0  0  3  0  0  0  0  0  0
    0.4199   -4.5309   -2.1533 H   0  0  0  0  0  0  0  0  0  0  0  0
    0.2366   -2.5708   -1.1871 C   0  0  0  0  0  0  0  0  0  0  0  0
  2 11  2  0  0  0  0
  3  4  1  0  0  0  0
  4  5  1  0  0  0  0
  4  1  2  0  0  0  0
  5  6  1  0  0  0  0
  7  5  2  0  0  0  0
  8  7  1  0  0  0  0
  9 11  1  0  0  0  0
  9  7  1  0  0  0  0
 10  9  1  0  0  0  0
 11  3  1  0  0  0  0
M  END
