1
q = 0.0, confidence = 1.0

 30 31  0  0  0  0  0  0  0  0999 V2000
    1.9703    0.9960   -0.4266 N   0  0  0  0  0  2  0  0  0  0  0  0
    4.1330    0.3739   -0.3481 N   0  0  0  0  0  0  0  0  0  0  0  0
    2.8605    0.2081    0.1058 C   0  0  0  0  0  3  0  0  0  0  0  0
    2.6162   -0.5427    0.8699 H   0  0  0  0  0  0  0  0  0  0  0  0
    2.6441    1.8765   -1.4008 C   0  0  0  0  0  0  0  0  0  0  0  0
    2.5363    2.9263   -1.0611 H   0  0  0  0  0  0  0  0  0  0  0  0
    2.1396    1.8006   -2.3844 H   0  0  0  0  0  0  0  0  0  0  0  0
    4.1151    1.3788   -1.4313 C   0  0  0  0  0  0  0  0  0  0  0  0
    4.3912    0.8956   -2.3935 H   0  0  0  0  0  0  0  0  0  0  0  0
    4.8477    2.1881   -1.2354 H   0  0  0  0  0  0  0  0  0  0  0  0
    5.1985   -0.5492   -0.1309 C   0  0  0  0  0  0  0  0  0  0  0  0
    6.3762   -0.1010    0.5135 C   0  0  0  0  0  0  0  0  0  0  0  0
    7.4196   -1.0228    0.7126 C   0  0  0  0  0  0  0  0  0  0  0  0
    8.3376   -0.6825    1.2185 H   0  0  0  0  0  0  0  0  0  0  0  0
    7.3177   -2.3629    0.2996 C   0  0  0  0  0  0  0  0  0  0  0  0
    6.1345   -2.7719   -0.3447 C   0  0  0  0  0  0  0  0  0  0  0  0
    6.0428   -3.8140   -0.6918 H   0  0  0  0  0  0  0  0  0  0  0  0
    5.0663   -1.8896   -0.5800 C   0  0  0  0  0  0  0  0  0  0  0  0
    6.5064    1.3259    0.9795 C   0  0  0  0  0  0  0  0  0  0  0  0
    6.7905    2.0040    0.1456 H   0  0  0  0  0  0  0  0  0  0  0  0
    7.2874    1.4230    1.7574 H   0  0  0  0  0  0  0  0  0  0  0  0
    5.5491    1.7050    1.3891 H   0  0  0  0  0  0  0  0  0  0  0  0
    8.4317   -3.3460    0.5581 C   0  0  0  0  0  0  0  0  0  0  0  0
    9.3910   -2.8336    0.7660 H   0  0  0  0  0  0  0  0  0  0  0  0
    8.5822   -4.0264   -0.3040 H   0  0  0  0  0  0  0  0  0  0  0  0
    8.2008   -3.9861    1.4367 H   0  0  0  0  0  0  0  0  0  0  0  0
    3.8311   -2.3537   -1.3112 C   0  0  0  0  0  0  0  0  0  0  0  0
    3.9966   -3.3480   -1.7672 H   0  0  0  0  0  0  0  0  0  0  0  0
    3.5458   -1.6496   -2.1193 H   0  0  0  0  0  0  0  0  0  0  0  0
    2.9387   -2.4321   -0.6547 H   0  0  0  0  0  0  0  0  0  0  0  0
  1  3  1  0  0  0  0
  2 11  1  0  0  0  0
  2  3  1  0  0  0  0
  3  4  1  0  0  0  0
  5  6  1  0  0  0  0
  5  1  1  0  0  0  0
  7  5  1  0  0  0  0
  8  5  1  0  0  0  0
  8 10  1  0  0  0  0
  8  2  1  0  0  0  0
  9  8  1  0  0  0  0
 11 12  1  0  0  0  0
 12 13  2  0  0  0  0
 12 19  1  0  0  0  0
 13 14  1  0  0  0  0
 15 23  1  0  0  0  0
 15 13  1  0  0  0  0
 16 15  2  0  0  0  0
 17 16  1  0  0  0  0
 18 16  1  0  0  0  0
 18 11  2  0  0  0  0
 19 22  1  0  0  0  0
 19 21  1  0  0  0  0
 20 19  1  0  0  0  0
 23 24  1  0  0  0  0
 23 26  1  0  0  0  0
 25 23  1  0  0  0  0
 27 30  1  0  0  0  0
 27 18  1  0  0  0  0
 28 27  1  0  0  0  0
 29 27  1  0  0  0  0
M  END
