5
q = -2.0, confidence = 0.79

 17 16  0  0  0  0  0  0  0  0999 V2000
    2.3019    0.9925   -0.7365 O   0  5  0  0  0  0  0  0  0  0  0  0
    3.3309    2.4074    0.6947 O   0  0  0  0  0  0  0  0  0  0  0  0
   -2.4061    0.7614   -1.1638 O   0  5  0  0  0  0  0  0  0  0  0  0
   -3.7781    2.4137   -0.4607 O   0  0  0  0  0  0  0  0  0  0  0  0
   -0.1474    2.2698   -0.4343 N   0  0  0  0  0  0  0  0  0  0  0  0
    0.9686    2.6275    0.4570 C   0  0  0  0  0  0  0  0  0  0  0  0
    0.7007    2.2899    1.4809 H   0  0  0  0  0  0  0  0  0  0  0  0
    1.1258    3.7302    0.4844 H   0  0  0  0  0  0  0  0  0  0  0  0
    2.3175    1.9474    0.0942 C   0  0  0  0  0  0  0  0  0  0  0  0
   -1.4715    2.6128    0.0966 C   0  0  0  0  0  0  0  0  0  0  0  0
   -1.6674    3.7076    0.0343 H   0  0  0  0  0  0  0  0  0  0  0  0
   -1.4902    2.3228    1.1678 H   0  0  0  0  0  0  0  0  0  0  0  0
   -2.6543    1.8755   -0.5842 C   0  0  0  0  0  0  0  0  0  0  0  0
    0.0400    2.7899   -1.7970 C   0  0  0  0  0  0  0  0  0  0  0  0
    0.0285    3.9056   -1.7957 H   0  0  0  0  0  0  0  0  0  0  0  0
   -0.7784    2.4190   -2.4423 H   0  0  0  0  0  0  0  0  0  0  0  0
    1.0080    2.4267   -2.1874 H   0  0  0  0  0  0  0  0  0  0  0  0
  1  9  1  0  0  0  0
  3 13  1  0  0  0  0
  5 10  1  0  0  0  0
  5  6  1  0  0  0  0
  6  8  1  0  0  0  0
  6  7  1  0  0  0  0
  9  6  1  0  0  0  0
  9  2  2  0  0  0  0
 10 12  1  0  0  0  0
 11 10  1  0  0  0  0
 13  4  2  0  0  0  0
 13 10  1  0  0  0  0
 14 15  1  0  0  0  0
 14  5  1  0  0  0  0
 16 14  1  0  0  0  0
 17 14  1  0  0  0  0
M  CHG  2   1  -1   3  -1
M  END
