2
q = 0.0, confidence = 0.982

 14 14  0  0  0  0  0  0  0  0999 V2000
    1.3403    4.7004    1.0884 O   0  0  0  0  0  0  0  0  0  0  0  0
    0.0731    0.7437    1.3369 N   0  0  0  0  0  2  0  0  0  0  0  0
    0.4862    2.3153    3.6244 N   0  0  0  0  0  0  0  0  0  0  0  0
    1.2033    4.9221    3.3784 N   0  0  0  0  0  0  0  0  0  0  0  0
    1.5370    5.8848    3.3747 H   0  0  0  0  0  0  0  0  0  0  0  0
    1.0070    4.4267    4.2508 H   0  0  0  0  0  0  0  0  0  0  0  0
    0.4051    2.0474    1.2322 C   0  0  0  0  0  3  0  0  0  0  0  0
    0.5086    2.4978    0.2343 H   0  0  0  0  0  0  0  0  0  0  0  0
    0.6317    2.8142    2.3845 C   0  0  0  0  0  0  0  0  0  0  0  0
    0.1364    1.0235    3.7105 C   0  0  0  0  0  0  0  0  0  0  0  0
    0.0112    0.5901    4.7167 H   0  0  0  0  0  0  0  0  0  0  0  0
   -0.0584    0.2206    2.5790 C   0  0  0  0  0  0  0  0  0  0  0  0
   -0.3125   -0.8473    2.6510 H   0  0  0  0  0  0  0  0  0  0  0  0
    1.0942    4.2485    2.2050 C   0  0  0  0  0  0  0  0  0  0  0  0
  1 14  2  0  0  0  0
  2 12  1  0  0  0  0
  3 10  1  0  0  0  0
  4  6  1  0  0  0  0
  5  4  1  0  0  0  0
  7  2  1  0  0  0  0
  7  9  1  0  0  0  0
  8  7  1  0  0  0  0
  9  3  2  0  0  0  0
 10 11  1  0  0  0  0
 12 13  1  0  0  0  0
 12 10  2  0  0  0  0
 14  9  1  0  0  0  0
 14  4  1  0  0  0  0
M  END
