1
q = 0.0, confidence = 0.986

 15 15  0  0  0  0  0  0  0  0999 V2000
    0.8660    1.7389    1.0410 N   0  0  0  0  0  2  0  0  0  0  0  0
    1.8659    2.2180    0.1391 C   0  0  0  0  0  0  0  0  0  0  0  0
    3.2013    2.3979    0.5539 C   0  0  0  0  0  0  0  0  0  0  0  0
    3.4803    2.1805    1.5950 H   0  0  0  0  0  0  0  0  0  0  0  0
    0.7960    2.2741    2.2212 C   0  0  0  0  0  3  0  0  0  0  0  0
    1.4391    3.1287    2.5091 H   0  0  0  0  0  0  0  0  0  0  0  0
    0.0740    1.8652    2.9453 H   0  0  0  0  0  0  0  0  0  0  0  0
    3.8244    3.0250   -1.7147 C   0  0  0  0  0  0  0  0  0  0  0  0
    4.5917    3.3278   -2.4427 H   0  0  0  0  0  0  0  0  0  0  0  0
    2.4885    2.8619   -2.1224 C   0  0  0  0  0  0  0  0  0  0  0  0
    2.2044    3.0442   -3.1696 H   0  0  0  0  0  0  0  0  0  0  0  0
    1.5133    2.4521   -1.2050 C   0  0  0  0  0  0  0  0  0  0  0  0
    0.4682    2.2931   -1.5052 H   0  0  0  0  0  0  0  0  0  0  0  0
    4.1758    2.7924   -0.3763 C   0  0  0  0  0  0  0  0  0  0  0  0
    5.2210    2.9069   -0.0512 H   0  0  0  0  0  0  0  0  0  0  0  0
  1  5  1  0  0  0  0
  2  3  1  0  0  0  0
  2  1  1  0  0  0  0
  3  4  1  0  0  0  0
  5  6  1  0  0  0  0
  5  7  1  0  0  0  0
  8 14  1  0  0  0  0
  9  8  1  0  0  0  0
 10  8  2  0  0  0  0
 10 12  1  0  0  0  0
 11 10  1  0  0  0  0
 12  2  2  0  0  0  0
 13 12  1  0  0  0  0
 14 15  1  0  0  0  0
 14  3  2  0  0  0  0
M  END
