4
q = -1.0, confidence = 0.008

 10  9  0  0  0  0  0  0  0  0999 V2000
    0.3574    1.2661   -2.8077 O   0  0  0  0  0  1  0  0  0  0  0  0
   -0.2957    2.2201    1.4847 O   0  0  0  0  0  0  0  0  0  0  0  0
   -0.0921    3.8724   -0.0607 O   0  0  0  0  0  0  0  0  0  0  0  0
    0.0255    1.6627   -0.7171 N   0  0  0  0  0  2  0  0  0  0  0  0
    0.2117    2.1457   -1.9524 N   0  0  0  0  0  2  0  0  0  0  0  0
   -0.1324    2.5798    0.3228 C   0  0  0  0  0  0  0  0  0  0  0  0
   -0.2660    4.8108    1.0023 C   0  0  0  0  0  0  0  0  0  0  0  0
   -0.2090    5.8099    0.5336 H   0  0  0  0  0  0  0  0  0  0  0  0
    0.5316    4.6975    1.7646 H   0  0  0  0  0  0  0  0  0  0  0  0
   -1.2502    4.6729    1.4947 H   0  0  0  0  0  0  0  0  0  0  0  0
  1  5  1  0  0  0  0
  3  6  1  0  0  0  0
  3  7  1  0  0  0  0
  4  6  1  0  0  0  0
  5  4  1  0  0  0  0
  6  2  2  0  0  0  0
  7 10  1  0  0  0  0
  7  9  1  0  0  0  0
  8  7  1  0  0  0  0
M  END
