1,2,3,4
q = -2.0, confidence = 0.678

 74 79  0  0  0  0  0  0  0  0999 V2000
    1.3419    2.6350   -0.0502 N   0  0  0  0  0  2  0  0  0  0  0  0
   -1.3416    2.6351    0.0504 N   0  0  0  0  0  2  0  0  0  0  0  0
    1.8277   -0.2280   -0.0275 P   0  0  0  0  0  0  0  0  0  0  0  0
   -1.8277   -0.2279    0.0275 P   0  0  0  0  0  0  0  0  0  0  0  0
    0.7356    3.9291    0.2298 C   0  0  0  0  0  0  0  0  0  0  0  0
    1.2724    4.7528   -0.2931 H   0  0  0  0  0  0  0  0  0  0  0  0
    0.7853    4.1548    1.3235 H   0  0  0  0  0  0  0  0  0  0  0  0
   -0.7352    3.9292   -0.2294 C   0  0  0  0  0  0  0  0  0  0  0  0
   -1.2720    4.7529    0.2935 H   0  0  0  0  0  0  0  0  0  0  0  0
   -0.7849    4.1551   -1.3231 H   0  0  0  0  0  0  0  0  0  0  0  0
    2.6830    2.3920   -0.0069 C   0  0  0  0  0  0  0  0  0  0  0  0
    3.6856    3.4059    0.0926 C   0  0  0  0  0  0  0  0  0  0  0  0
    3.3841    4.4589    0.1812 H   0  0  0  0  0  0  0  0  0  0  0  0
    5.0421    3.0753    0.0740 C   0  0  0  0  0  0  0  0  0  0  0  0
    5.7852    3.8856    0.1453 H   0  0  0  0  0  0  0  0  0  0  0  0
    5.4813    1.7386   -0.0245 C   0  0  0  0  0  0  0  0  0  0  0  0
    6.5537    1.4976   -0.0347 H   0  0  0  0  0  0  0  0  0  0  0  0
    4.5196    0.7212   -0.0838 C   0  0  0  0  0  0  0  0  0  0  0  0
    4.8358   -0.3334   -0.1309 H   0  0  0  0  0  0  0  0  0  0  0  0
    3.1490    1.0274   -0.0697 C   0  0  0  0  0  0  0  0  0  0  0  0
   -2.6827    2.3922    0.0073 C   0  0  0  0  0  0  0  0  0  0  0  0
   -3.6852    3.4062   -0.0920 C   0  0  0  0  0  0  0  0  0  0  0  0
   -3.3836    4.4592   -0.1806 H   0  0  0  0  0  0  0  0  0  0  0  0
   -5.0418    3.0758   -0.0732 C   0  0  0  0  0  0  0  0  0  0  0  0
   -5.7848    3.8862   -0.1443 H   0  0  0  0  0  0  0  0  0  0  0  0
   -5.4811    1.7391    0.0252 C   0  0  0  0  0  0  0  0  0  0  0  0
   -6.5535    1.4982    0.0356 H   0  0  0  0  0  0  0  0  0  0  0  0
   -4.5195    0.7217    0.0843 C   0  0  0  0  0  0  0  0  0  0  0  0
   -4.8358   -0.3329    0.1314 H   0  0  0  0  0  0  0  0  0  0  0  0
   -3.1489    1.0277    0.0701 C   0  0  0  0  0  0  0  0  0  0  0  0
    2.1017   -1.3049    1.4328 C   0  0  0  0  0  0  0  0  0  0  0  0
    1.3669   -1.0312    2.6045 C   0  0  0  0  0  0  0  0  0  0  0  0
    0.6281   -0.2142    2.5941 H   0  0  0  0  0  0  0  0  0  0  0  0
    1.5662   -1.8036    3.7573 C   0  0  0  0  0  0  0  0  0  0  0  0
    0.9786   -1.5897    4.6624 H   0  0  0  0  0  0  0  0  0  0  0  0
    2.4956   -2.8558    3.7475 C   0  0  0  0  0  0  0  0  0  0  0  0
    2.6468   -3.4669    4.6505 H   0  0  0  0  0  0  0  0  0  0  0  0
    3.2307   -3.1323    2.5825 C   0  0  0  0  0  0  0  0  0  0  0  0
    3.9603   -3.9565    2.5726 H   0  0  0  0  0  0  0  0  0  0  0  0
    3.0375   -2.3606    1.4272 C   0  0  0  0  0  0  0  0  0  0  0  0
    3.6076   -2.5880    0.5134 H   0  0  0  0  0  0  0  0  0  0  0  0
    2.0219   -1.3249   -1.4845 C   0  0  0  0  0  0  0  0  0  0  0  0
    1.4737   -2.6246   -1.4797 C   0  0  0  0  0  0  0  0  0  0  0  0
    1.0308   -3.0287   -0.5569 H   0  0  0  0  0  0  0  0  0  0  0  0
    1.4894   -3.4016   -2.6462 C   0  0  0  0  0  0  0  0  0  0  0  0
    1.0549   -4.4125   -2.6342 H   0  0  0  0  0  0  0  0  0  0  0  0
    2.0453   -2.8863   -3.8283 C   0  0  0  0  0  0  0  0  0  0  0  0
    2.0542   -3.4960   -4.7446 H   0  0  0  0  0  0  0  0  0  0  0  0
    2.5891   -1.5913   -3.8386 C   0  0  0  0  0  0  0  0  0  0  0  0
    3.0288   -1.1846   -4.7621 H   0  0  0  0  0  0  0  0  0  0  0  0
    2.5795   -0.8109   -2.6726 C   0  0  0  0  0  0  0  0  0  0  0  0
    3.0057    0.2042   -2.6747 H   0  0  0  0  0  0  0  0  0  0  0  0
   -2.1019   -1.3045   -1.4330 C   0  0  0  0  0  0  0  0  0  0  0  0
   -1.3670   -1.0308   -2.6046 C   0  0  0  0  0  0  0  0  0  0  0  0
   -0.6279   -0.2140   -2.5941 H   0  0  0  0  0  0  0  0  0  0  0  0
   -1.5665   -1.8031   -3.7575 C   0  0  0  0  0  0  0  0  0  0  0  0
   -0.9787   -1.5891   -4.6626 H   0  0  0  0  0  0  0  0  0  0  0  0
   -2.4961   -2.8549   -3.7479 C   0  0  0  0  0  0  0  0  0  0  0  0
   -2.6475   -3.4659   -4.6510 H   0  0  0  0  0  0  0  0  0  0  0  0
   -3.2313   -3.1313   -2.5829 C   0  0  0  0  0  0  0  0  0  0  0  0
   -3.9612   -3.9553   -2.5732 H   0  0  0  0  0  0  0  0  0  0  0  0
   -3.0380   -2.3598   -1.4275 C   0  0  0  0  0  0  0  0  0  0  0  0
   -3.6081   -2.5872   -0.5137 H   0  0  0  0  0  0  0  0  0  0  0  0
   -2.0219   -1.3251    1.4842 C   0  0  0  0  0  0  0  0  0  0  0  0
   -2.5799   -0.8116    2.6724 C   0  0  0  0  0  0  0  0  0  0  0  0
   -3.0063    0.2035    2.6748 H   0  0  0  0  0  0  0  0  0  0  0  0
   -2.5896   -1.5924    3.8381 C   0  0  0  0  0  0  0  0  0  0  0  0
   -3.0295   -1.1860    4.7617 H   0  0  0  0  0  0  0  0  0  0  0  0
   -2.0455   -2.8873    3.8275 C   0  0  0  0  0  0  0  0  0  0  0  0
   -2.0545   -3.4973    4.7436 H   0  0  0  0  0  0  0  0  0  0  0  0
   -1.4893   -3.4020    2.6454 C   0  0  0  0  0  0  0  0  0  0  0  0
   -1.0545   -4.4129    2.6331 H   0  0  0  0  0  0  0  0  0  0  0  0
   -1.4735   -2.6247    1.4792 C   0  0  0  0  0  0  0  0  0  0  0  0
   -1.0303   -3.0283    0.5562 H   0  0  0  0  0  0  0  0  0  0  0  0
  1 11  1  0  0  0  0
  1  5  1  0  0  0  0
  3 31  1  0  0  0  0
  4 30  1  0  0  0  0
  4 64  1  0  0  0  0
  5  7  1  0  0  0  0
  6  5  1  0  0  0  0
  8  2  1  0  0  0  0
  8  5  1  0  0  0  0
  8  9  1  0  0  0  0
 10  8  1  0  0  0  0
 11 12  1  0  0  0  0
 12 13  1  0  0  0  0
 14 12  2  0  0  0  0
 14 15  1  0  0  0  0
 16 14  1  0  0  0  0
 17 16  1  0  0  0  0
 18 20  1  0  0  0  0
 18 16  2  0  0  0  0
 19 18  1  0  0  0  0
 20  3  1  0  0  0  0
 20 11  2  0  0  0  0
 21  2  1  0  0  0  0
 21 30  1  0  0  0  0
 22 24  1  0  0  0  0
 22 21  2  0  0  0  0
 23 22  1  0  0  0  0
 24 26  2  0  0  0  0
 25 24  1  0  0  0  0
 26 27  1  0  0  0  0
 26 28  1  0  0  0  0
 28 29  1  0  0  0  0
 30 28  2  0  0  0  0
 31 32  1  0  0  0  0
 32 34  2  0  0  0  0
 33 32  1  0  0  0  0
 34 35  1  0  0  0  0
 36 34  1  0  0  0  0
 36 37  1  0  0  0  0
 38 36  2  0  0  0  0
 39 38  1  0  0  0  0
 40 31  2  0  0  0  0
 40 38  1  0  0  0  0
 41 40  1  0  0  0  0
 42 43  1  0  0  0  0
 42  3  1  0  0  0  0
 43 44  1  0  0  0  0
 45 46  1  0  0  0  0
 45 43  2  0  0  0  0
 47 45  1  0  0  0  0
 48 47  1  0  0  0  0
 49 47  2  0  0  0  0
 49 51  1  0  0  0  0
 50 49  1  0  0  0  0
 51 42  2  0  0  0  0
 52 51  1  0  0  0  0
 53 62  1  0  0  0  0
 53  4  1  0  0  0  0
 54 55  1  0  0  0  0
 54 53  2  0  0  0  0
 56 58  2  0  0  0  0
 56 54  1  0  0  0  0
 57 56  1  0  0  0  0
 58 60  1  0  0  0  0
 59 58  1  0  0  0  0
 60 61  1  0  0  0  0
 60 62  2  0  0  0  0
 62 63  1  0  0  0  0
 64 65  1  0  0  0  0
 65 66  1  0  0  0  0
 65 67  2  0  0  0  0
 67 68  1  0  0  0  0
 69 67  1  0  0  0  0
 69 70  1  0  0  0  0
 71 69  2  0  0  0  0
 72 71  1  0  0  0  0
 73 64  2  0  0  0  0
 73 71  1  0  0  0  0
 74 73  1  0  0  0  0
M  END
