1,2,3,4
q = 0.0, confidence = 0.858

 70 73  0  0  1  0  0  0  0  0999 V2000
    1.4618    0.0245   -0.8522 P   0  0  0  0  0  0  0  0  0  0  0  0
   -1.4657   -0.0213    0.8493 P   0  0  0  0  0  0  0  0  0  0  0  0
    0.7395   -2.6572   -1.0616 N   0  0  0  0  0  2  0  0  0  0  0  0
   -0.6591   -2.6795    1.0550 N   0  0  0  0  0  2  0  0  0  0  0  0
    1.2582   -5.1065   -1.0608 C   0  0  0  0  0  0  0  0  0  0  0  0
    1.1088   -5.2528   -2.1535 H   0  0  0  0  0  0  0  0  0  0  0  0
    0.9382   -6.0355   -0.5540 H   0  0  0  0  0  0  0  0  0  0  0  0
    2.3558   -5.0145   -0.9033 H   0  0  0  0  0  0  0  0  0  0  0  0
    0.5254   -3.9036   -0.5357 C   0  0  1  0  0  3  0  0  0  0  0  0
   -0.4038   -3.9186    0.5302 C   0  0  2  0  0  3  0  0  0  0  0  0
   -1.0967   -5.1446    1.0560 C   0  0  0  0  0  0  0  0  0  0  0  0
   -0.9425   -5.2856    2.1488 H   0  0  0  0  0  0  0  0  0  0  0  0
   -0.7465   -6.0629    0.5496 H   0  0  0  0  0  0  0  0  0  0  0  0
   -2.1968   -5.0886    0.8987 H   0  0  0  0  0  0  0  0  0  0  0  0
    1.8715   -2.4243   -1.9545 C   0  0  0  0  0  0  0  0  0  0  0  0
    1.8130   -3.0908   -2.8457 H   0  0  0  0  0  0  0  0  0  0  0  0
    2.8517   -2.6518   -1.4657 H   0  0  0  0  0  0  0  0  0  0  0  0
    1.8638   -0.9557   -2.3940 C   0  0  0  0  0  0  0  0  0  0  0  0
    1.0323   -0.7681   -3.1035 H   0  0  0  0  0  0  0  0  0  0  0  0
    2.8145   -0.6428   -2.8718 H   0  0  0  0  0  0  0  0  0  0  0  0
    0.9737    1.7004   -1.4185 C   0  0  0  0  0  0  0  0  0  0  0  0
   -0.1609    1.7912   -2.2568 C   0  0  0  0  0  0  0  0  0  0  0  0
   -0.6645    0.8707   -2.5917 H   0  0  0  0  0  0  0  0  0  0  0  0
   -0.6682    3.0403   -2.6379 C   0  0  0  0  0  0  0  0  0  0  0  0
   -1.5508    3.0927   -3.2937 H   0  0  0  0  0  0  0  0  0  0  0  0
   -0.0621    4.2190   -2.1721 C   0  0  0  0  0  0  0  0  0  0  0  0
   -0.4643    5.2009   -2.4647 H   0  0  0  0  0  0  0  0  0  0  0  0
    1.0476    4.1371   -1.3176 C   0  0  0  0  0  0  0  0  0  0  0  0
    1.5128    5.0550   -0.9269 H   0  0  0  0  0  0  0  0  0  0  0  0
    1.5636    2.8873   -0.9409 C   0  0  0  0  0  0  0  0  0  0  0  0
    2.4218    2.8364   -0.2556 H   0  0  0  0  0  0  0  0  0  0  0  0
    3.1170    0.2494   -0.0590 C   0  0  0  0  0  0  0  0  0  0  0  0
    3.2937   -0.3019    1.2247 C   0  0  0  0  0  0  0  0  0  0  0  0
    2.4368   -0.8167    1.6936 H   0  0  0  0  0  0  0  0  0  0  0  0
    4.5355   -0.2112    1.8730 C   0  0  0  0  0  0  0  0  0  0  0  0
    4.6647   -0.6471    2.8757 H   0  0  0  0  0  0  0  0  0  0  0  0
    5.6115    0.4301    1.2398 C   0  0  0  0  0  0  0  0  0  0  0  0
    6.5865    0.5027    1.7460 H   0  0  0  0  0  0  0  0  0  0  0  0
    5.4460    0.9755   -0.0452 C   0  0  0  0  0  0  0  0  0  0  0  0
    6.2911    1.4736   -0.5453 H   0  0  0  0  0  0  0  0  0  0  0  0
    4.2057    0.8837   -0.6939 C   0  0  0  0  0  0  0  0  0  0  0  0
    4.0815    1.3146   -1.7002 H   0  0  0  0  0  0  0  0  0  0  0  0
   -1.7969   -2.4836    1.9494 C   0  0  0  0  0  0  0  0  0  0  0  0
   -1.7155   -3.1481    2.8403 H   0  0  0  0  0  0  0  0  0  0  0  0
   -2.7698   -2.7426    1.4620 H   0  0  0  0  0  0  0  0  0  0  0  0
   -1.8358   -1.0157    2.3898 C   0  0  0  0  0  0  0  0  0  0  0  0
   -1.0103   -0.8021    3.0991 H   0  0  0  0  0  0  0  0  0  0  0  0
   -2.7956   -0.7340    2.8687 H   0  0  0  0  0  0  0  0  0  0  0  0
   -3.1279    0.1635    0.0604 C   0  0  0  0  0  0  0  0  0  0  0  0
   -4.2333    0.7595    0.7034 C   0  0  0  0  0  0  0  0  0  0  0  0
   -4.1203    1.1823    1.7145 H   0  0  0  0  0  0  0  0  0  0  0  0
   -5.4765    0.8239    0.0569 C   0  0  0  0  0  0  0  0  0  0  0  0
   -6.3347    1.2922    0.5634 H   0  0  0  0  0  0  0  0  0  0  0  0
   -5.6279    0.2893   -1.2344 C   0  0  0  0  0  0  0  0  0  0  0  0
   -6.6051    0.3403   -1.7390 H   0  0  0  0  0  0  0  0  0  0  0  0
   -4.5349   -0.3138   -1.8760 C   0  0  0  0  0  0  0  0  0  0  0  0
   -4.6528   -0.7412   -2.8837 H   0  0  0  0  0  0  0  0  0  0  0  0
   -3.2904   -0.3772   -1.2296 C   0  0  0  0  0  0  0  0  0  0  0  0
   -2.4198   -0.8618   -1.7052 H   0  0  0  0  0  0  0  0  0  0  0  0
   -1.0217    1.6660    1.4194 C   0  0  0  0  0  0  0  0  0  0  0  0
    0.1153    1.7853    2.2507 C   0  0  0  0  0  0  0  0  0  0  0  0
    0.6484    0.8780    2.5760 H   0  0  0  0  0  0  0  0  0  0  0  0
    0.5880    3.0465    2.6362 C   0  0  0  0  0  0  0  0  0  0  0  0
    1.4731    3.1211    3.2866 H   0  0  0  0  0  0  0  0  0  0  0  0
   -0.0555    4.2096    2.1814 C   0  0  0  0  0  0  0  0  0  0  0  0
    0.3194    5.2012    2.4774 H   0  0  0  0  0  0  0  0  0  0  0  0
   -1.1677    4.1000    1.3332 C   0  0  0  0  0  0  0  0  0  0  0  0
   -1.6621    5.0060    0.9509 H   0  0  0  0  0  0  0  0  0  0  0  0
   -1.6493    2.8377    0.9525 C   0  0  0  0  0  0  0  0  0  0  0  0
   -2.5102    2.7655    0.2724 H   0  0  0  0  0  0  0  0  0  0  0  0
  1 32  1  0  0  0  0
  2 60  1  0  0  0  0
  2 46  1  0  0  0  0
  4 43  1  0  0  0  0
  5  8  1  0  0  0  0
  5  7  1  0  0  0  0
  5  9  1  0  0  0  0
  6  5  1  0  0  0  0
  9  3  1  1  0  0  0
  9 10  1  0  0  0  0
 10  4  1  6  0  0  0
 10 11  1  0  0  0  0
 11 12  1  0  0  0  0
 13 11  1  0  0  0  0
 14 11  1  0  0  0  0
 15 17  1  0  0  0  0
 15  3  1  0  0  0  0
 16 15  1  0  0  0  0
 18 15  1  0  0  0  0
 18  1  1  0  0  0  0
 19 18  1  0  0  0  0
 20 18  1  0  0  0  0
 21 30  1  0  0  0  0
 21  1  1  0  0  0  0
 22 21  2  0  0  0  0
 23 22  1  0  0  0  0
 24 22  1  0  0  0  0
 24 26  2  0  0  0  0
 25 24  1  0  0  0  0
 26 28  1  0  0  0  0
 27 26  1  0  0  0  0
 28 30  2  0  0  0  0
 28 29  1  0  0  0  0
 30 31  1  0  0  0  0
 32 33  1  0  0  0  0
 33 34  1  0  0  0  0
 33 35  2  0  0  0  0
 35 36  1  0  0  0  0
 37 38  1  0  0  0  0
 37 35  1  0  0  0  0
 39 37  2  0  0  0  0
 40 39  1  0  0  0  0
 41 32  2  0  0  0  0
 41 39  1  0  0  0  0
 42 41  1  0  0  0  0
 43 46  1  0  0  0  0
 43 44  1  0  0  0  0
 45 43  1  0  0  0  0
 46 48  1  0  0  0  0
 46 47  1  0  0  0  0
 49 50  1  0  0  0  0
 49  2  1  0  0  0  0
 50 51  1  0  0  0  0
 52 53  1  0  0  0  0
 52 50  2  0  0  0  0
 54 52  1  0  0  0  0
 55 54  1  0  0  0  0
 56 54  2  0  0  0  0
 56 58  1  0  0  0  0
 57 56  1  0  0  0  0
 58 49  2  0  0  0  0
 59 58  1  0  0  0  0
 60 61  1  0  0  0  0
 61 62  1  0  0  0  0
 61 63  2  0  0  0  0
 63 64  1  0  0  0  0
 65 66  1  0  0  0  0
 65 63  1  0  0  0  0
 67 65  2  0  0  0  0
 68 67  1  0  0  0  0
 69 67  1  0  0  0  0
 69 60  2  0  0  0  0
 70 69  1  0  0  0  0
M  END
