1,2,3,4
q = 0.0, confidence = 0.906

 72 71  0  0  0  0  0  0  0  0999 V2000
    0.7917   -1.7940   -0.1018 P   0  0  0  0  0  0  0  0  0  0  0  0
    0.7949    1.7926    0.1017 P   0  0  0  0  0  0  0  0  0  0  0  0
   -1.8583   -0.7483    1.0497 N   0  0  0  0  0  2  0  0  0  0  0  0
   -1.8570    0.7515   -1.0494 N   0  0  0  0  0  2  0  0  0  0  0  0
   -4.3276   -1.1308    1.0614 C   0  0  0  0  0  0  0  0  0  0  0  0
   -4.2966   -2.2324    0.9123 H   0  0  0  0  0  0  0  0  0  0  0  0
   -5.2398   -0.7657    0.5581 H   0  0  0  0  0  0  0  0  0  0  0  0
   -4.4595   -0.9703    2.1541 H   0  0  0  0  0  0  0  0  0  0  0  0
   -3.0812   -0.4711    0.5339 C   0  0  0  0  0  0  0  0  0  0  0  0
   -3.0804    0.4765   -0.5336 C   0  0  0  0  0  0  0  0  0  0  0  0
   -4.3256    1.1382   -1.0613 C   0  0  0  0  0  0  0  0  0  0  0  0
   -4.2928    2.2398   -0.9123 H   0  0  0  0  0  0  0  0  0  0  0  0
   -5.2385    0.7747   -0.5580 H   0  0  0  0  0  0  0  0  0  0  0  0
   -4.4578    0.9778   -2.1540 H   0  0  0  0  0  0  0  0  0  0  0  0
   -1.7976   -1.7601    2.0949 C   0  0  0  0  0  0  0  0  0  0  0  0
   -2.4187   -2.6556    1.8446 H   0  0  0  0  0  0  0  0  0  0  0  0
   -2.2459   -1.3403    3.0269 H   0  0  0  0  0  0  0  0  0  0  0  0
   -0.3892   -2.2558    2.4128 C   0  0  0  0  0  0  0  0  0  0  0  0
   -0.4612   -2.9356    3.2891 H   0  0  0  0  0  0  0  0  0  0  0  0
    0.2444   -1.3967    2.7226 H   0  0  0  0  0  0  0  0  0  0  0  0
    0.2628   -2.9955    1.2376 C   0  0  0  0  0  0  0  0  0  0  0  0
   -0.4564   -3.7220    0.8041 H   0  0  0  0  0  0  0  0  0  0  0  0
    1.1391   -3.5864    1.5754 H   0  0  0  0  0  0  0  0  0  0  0  0
    2.6730   -1.8804    0.0878 C   0  0  0  0  0  0  0  0  0  0  0  0
    3.0473   -1.1196   -0.6277 H   0  0  0  0  0  0  0  0  0  0  0  0
    3.0564   -1.4316    1.5045 C   0  0  0  0  0  0  0  0  0  0  0  0
    2.8248   -2.2165    2.2539 H   0  0  0  0  0  0  0  0  0  0  0  0
    2.5053   -0.5175    1.8028 H   0  0  0  0  0  0  0  0  0  0  0  0
    4.1449   -1.2241    1.5727 H   0  0  0  0  0  0  0  0  0  0  0  0
    3.3024   -3.2318   -0.2615 C   0  0  0  0  0  0  0  0  0  0  0  0
    4.3994   -3.2033   -0.0874 H   0  0  0  0  0  0  0  0  0  0  0  0
    3.1431   -3.5141   -1.3204 H   0  0  0  0  0  0  0  0  0  0  0  0
    2.8965   -4.0493    0.3710 H   0  0  0  0  0  0  0  0  0  0  0  0
    0.4425   -2.7678   -1.6830 C   0  0  0  0  0  0  0  0  0  0  0  0
    0.8766   -3.7860   -1.5680 H   0  0  0  0  0  0  0  0  0  0  0  0
   -1.0768   -2.8701   -1.8684 C   0  0  0  0  0  0  0  0  0  0  0  0
   -1.5251   -1.8544   -1.8946 H   0  0  0  0  0  0  0  0  0  0  0  0
   -1.5670   -3.4238   -1.0424 H   0  0  0  0  0  0  0  0  0  0  0  0
   -1.3190   -3.3964   -2.8157 H   0  0  0  0  0  0  0  0  0  0  0  0
    1.0869   -2.0583   -2.8782 C   0  0  0  0  0  0  0  0  0  0  0  0
    0.8453   -2.5831   -3.8263 H   0  0  0  0  0  0  0  0  0  0  0  0
    2.1914   -2.0002   -2.7991 H   0  0  0  0  0  0  0  0  0  0  0  0
    0.6966   -1.0208   -2.9519 H   0  0  0  0  0  0  0  0  0  0  0  0
   -1.7945    1.7631   -2.0948 C   0  0  0  0  0  0  0  0  0  0  0  0
   -2.4141    2.6597   -1.8446 H   0  0  0  0  0  0  0  0  0  0  0  0
   -2.2435    1.3439   -3.0268 H   0  0  0  0  0  0  0  0  0  0  0  0
   -0.3853    2.2563   -2.4128 C   0  0  0  0  0  0  0  0  0  0  0  0
   -0.4561    2.9361   -3.2892 H   0  0  0  0  0  0  0  0  0  0  0  0
    0.2468    1.3960   -2.7224 H   0  0  0  0  0  0  0  0  0  0  0  0
    0.2680    2.9950   -1.2377 C   0  0  0  0  0  0  0  0  0  0  0  0
   -0.4499    3.7228   -0.8043 H   0  0  0  0  0  0  0  0  0  0  0  0
    1.1453    3.5842   -1.5756 H   0  0  0  0  0  0  0  0  0  0  0  0
    2.6763    1.8758   -0.0881 C   0  0  0  0  0  0  0  0  0  0  0  0
    3.0494    1.1145    0.6276 H   0  0  0  0  0  0  0  0  0  0  0  0
    3.3080    3.2263    0.2609 C   0  0  0  0  0  0  0  0  0  0  0  0
    4.4049    3.1960    0.0866 H   0  0  0  0  0  0  0  0  0  0  0  0
    3.1494    3.5090    1.3198 H   0  0  0  0  0  0  0  0  0  0  0  0
    2.9032    4.0443   -0.3716 H   0  0  0  0  0  0  0  0  0  0  0  0
    3.0589    1.4261   -1.5047 C   0  0  0  0  0  0  0  0  0  0  0  0
    2.8284    2.2111   -2.2543 H   0  0  0  0  0  0  0  0  0  0  0  0
    2.5064    0.5127   -1.8027 H   0  0  0  0  0  0  0  0  0  0  0  0
    4.1471    1.2170   -1.5729 H   0  0  0  0  0  0  0  0  0  0  0  0
    0.4476    2.7672    1.6829 C   0  0  0  0  0  0  0  0  0  0  0  0
    0.8827    3.7850    1.5673 H   0  0  0  0  0  0  0  0  0  0  0  0
    1.0919    2.0576    2.8780 C   0  0  0  0  0  0  0  0  0  0  0  0
    0.8516    2.5833    3.8260 H   0  0  0  0  0  0  0  0  0  0  0  0
    2.1964    1.9983    2.7983 H   0  0  0  0  0  0  0  0  0  0  0  0
    0.7007    1.0206    2.9527 H   0  0  0  0  0  0  0  0  0  0  0  0
   -1.0715    2.8711    1.8690 C   0  0  0  0  0  0  0  0  0  0  0  0
   -1.5208    1.8559    1.8961 H   0  0  0  0  0  0  0  0  0  0  0  0
   -1.5616    3.4247    1.0429 H   0  0  0  0  0  0  0  0  0  0  0  0
   -1.3127    3.3983    2.8160 H   0  0  0  0  0  0  0  0  0  0  0  0
  1 24  1  0  0  0  0
  1 21  1  0  0  0  0
  2 63  1  0  0  0  0
  3 15  1  0  0  0  0
  4 10  1  0  0  0  0
  5  8  1  0  0  0  0
  6  5  1  0  0  0  0
  7  5  1  0  0  0  0
  9  3  1  0  0  0  0
  9  5  1  0  0  0  0
 10  9  2  0  0  0  0
 11 12  1  0  0  0  0
 11 13  1  0  0  0  0
 11 10  1  0  0  0  0
 14 11  1  0  0  0  0
 15 18  1  0  0  0  0
 15 17  1  0  0  0  0
 16 15  1  0  0  0  0
 18 20  1  0  0  0  0
 18 19  1  0  0  0  0
 21 23  1  0  0  0  0
 21 18  1  0  0  0  0
 22 21  1  0  0  0  0
 24 26  1  0  0  0  0
 25 24  1  0  0  0  0
 26 29  1  0  0  0  0
 26 28  1  0  0  0  0
 26 27  1  0  0  0  0
 30 31  1  0  0  0  0
 30 24  1  0  0  0  0
 30 33  1  0  0  0  0
 32 30  1  0  0  0  0
 34 35  1  0  0  0  0
 34  1  1  0  0  0  0
 36 34  1  0  0  0  0
 36 38  1  0  0  0  0
 37 36  1  0  0  0  0
 39 36  1  0  0  0  0
 40 42  1  0  0  0  0
 40 34  1  0  0  0  0
 41 40  1  0  0  0  0
 43 40  1  0  0  0  0
 44 45  1  0  0  0  0
 44  4  1  0  0  0  0
 46 44  1  0  0  0  0
 47 44  1  0  0  0  0
 47 50  1  0  0  0  0
 48 47  1  0  0  0  0
 49 47  1  0  0  0  0
 50 51  1  0  0  0  0
 50  2  1  0  0  0  0
 52 50  1  0  0  0  0
 53  2  1  0  0  0  0
 53 55  1  0  0  0  0
 53 54  1  0  0  0  0
 55 57  1  0  0  0  0
 56 55  1  0  0  0  0
 58 55  1  0  0  0  0
 59 53  1  0  0  0  0
 60 59  1  0  0  0  0
 61 59  1  0  0  0  0
 62 59  1  0  0  0  0
 63 69  1  0  0  0  0
 63 65  1  0  0  0  0
 64 63  1  0  0  0  0
 65 68  1  0  0  0  0
 65 66  1  0  0  0  0
 67 65  1  0  0  0  0
 69 70  1  0  0  0  0
 69 72  1  0  0  0  0
 71 69  1  0  0  0  0
M  END
