1,2,3,4
q = -1.0, confidence = 0.02

 68 69  0  0  1  0  0  0  0  0999 V2000
   -2.4598   -0.1946   -0.1708 P   0  0  0  0  0  0  0  0  0  0  0  0
    2.0343   -1.0133   -0.2334 P   0  0  0  0  0  0  0  0  0  0  0  0
   -0.2295   -0.0067    1.6791 N   0  0  0  0  0  2  0  0  0  0  0  0
    0.6511    1.8057   -0.3794 N   0  0  0  0  0  2  0  0  0  0  0  0
   -2.5643   -0.6303    1.5491 C   0  0  0  0  0  0  0  0  0  0  0  0
   -3.5177   -0.8485    2.0521 H   0  0  0  0  0  0  0  0  0  0  0  0
   -1.4228   -0.3893    2.3184 C   0  0  0  0  0  0  0  0  0  0  0  0
   -1.4015   -0.4698    3.7596 C   0  0  0  0  0  0  0  0  0  0  0  0
   -2.2924   -0.8655    4.2683 H   0  0  0  0  0  0  0  0  0  0  0  0
   -0.3167   -0.0114    4.4779 C   0  0  0  0  0  0  0  0  0  0  0  0
   -0.3225   -0.0587    5.5782 H   0  0  0  0  0  0  0  0  0  0  0  0
    0.7917    0.5589    3.7958 C   0  0  0  0  0  0  0  0  0  0  0  0
    1.6364    1.0074    4.3360 H   0  0  0  0  0  0  0  0  0  0  0  0
    0.7839    0.5286    2.3998 C   0  0  0  0  0  0  0  0  0  0  0  0
    2.8999    0.0420    1.0335 C   0  0  0  0  0  0  0  0  0  0  0  0
    3.2785   -0.5921    1.8600 H   0  0  0  0  0  0  0  0  0  0  0  0
    3.7770    0.5356    0.5677 H   0  0  0  0  0  0  0  0  0  0  0  0
    1.9570    1.1219    1.6345 C   0  0  1  0  0  0  0  0  0  0  0  0
    2.5602    1.6725    2.3826 H   0  0  0  0  0  0  0  0  0  0  0  0
    1.5286    2.1556    0.6031 C   0  0  1  0  0  3  0  0  0  0  0  0
    2.0852    3.4478    0.6492 C   0  0  0  0  0  0  0  0  0  0  0  0
    2.7772    3.6978    1.4669 H   0  0  0  0  0  0  0  0  0  0  0  0
    1.7727    4.3912   -0.3354 C   0  0  0  0  0  0  0  0  0  0  0  0
    2.2089    5.4006   -0.3066 H   0  0  0  0  0  0  0  0  0  0  0  0
    0.8906    4.0107   -1.3582 C   0  0  0  0  0  0  0  0  0  0  0  0
    0.6063    4.7027   -2.1636 H   0  0  0  0  0  0  0  0  0  0  0  0
    0.3530    2.7236   -1.3344 C   0  0  0  0  0  0  0  0  0  0  0  0
   -0.3572    2.3878   -2.1032 H   0  0  0  0  0  0  0  0  0  0  0  0
   -3.4615   -1.4425   -1.1685 C   0  0  0  0  0  0  0  0  0  0  0  0
   -3.3600   -1.1022   -2.2228 H   0  0  0  0  0  0  0  0  0  0  0  0
   -4.9455   -1.4348   -0.7774 C   0  0  0  0  0  0  0  0  0  0  0  0
   -5.0769   -1.7037    0.2914 H   0  0  0  0  0  0  0  0  0  0  0  0
   -5.5019   -2.1866   -1.3756 H   0  0  0  0  0  0  0  0  0  0  0  0
   -5.4329   -0.4547   -0.9457 H   0  0  0  0  0  0  0  0  0  0  0  0
   -2.8779   -2.8537   -1.0544 C   0  0  0  0  0  0  0  0  0  0  0  0
   -1.8544   -2.9079   -1.4687 H   0  0  0  0  0  0  0  0  0  0  0  0
   -3.5181   -3.5759   -1.6032 H   0  0  0  0  0  0  0  0  0  0  0  0
   -2.8268   -3.1703    0.0082 H   0  0  0  0  0  0  0  0  0  0  0  0
   -3.4571    1.3987   -0.3955 C   0  0  0  0  0  0  0  0  0  0  0  0
   -4.4751    1.1772   -0.0058 H   0  0  0  0  0  0  0  0  0  0  0  0
   -3.5550    1.8014   -1.8698 C   0  0  0  0  0  0  0  0  0  0  0  0
   -2.5466    1.8903   -2.3261 H   0  0  0  0  0  0  0  0  0  0  0  0
   -4.0608    2.7841   -1.9800 H   0  0  0  0  0  0  0  0  0  0  0  0
   -4.1235    1.0659   -2.4733 H   0  0  0  0  0  0  0  0  0  0  0  0
   -2.8425    2.4976    0.4754 C   0  0  0  0  0  0  0  0  0  0  0  0
   -2.7566    2.1686    1.5300 H   0  0  0  0  0  0  0  0  0  0  0  0
   -3.4666    3.4155    0.4448 H   0  0  0  0  0  0  0  0  0  0  0  0
   -1.8256    2.7651    0.1276 H   0  0  0  0  0  0  0  0  0  0  0  0
    2.2107   -2.7539    0.4412 C   0  0  0  0  0  0  0  0  0  0  0  0
    3.2926   -2.8777    0.6721 H   0  0  0  0  0  0  0  0  0  0  0  0
    1.7927   -3.7812   -0.6167 C   0  0  0  0  0  0  0  0  0  0  0  0
    0.7448   -3.6021   -0.9343 H   0  0  0  0  0  0  0  0  0  0  0  0
    1.8508   -4.8067   -0.1970 H   0  0  0  0  0  0  0  0  0  0  0  0
    2.4345   -3.7526   -1.5198 H   0  0  0  0  0  0  0  0  0  0  0  0
    1.4011   -2.9185    1.7330 C   0  0  0  0  0  0  0  0  0  0  0  0
    1.6877   -2.1898    2.5177 H   0  0  0  0  0  0  0  0  0  0  0  0
    1.5569   -3.9373    2.1444 H   0  0  0  0  0  0  0  0  0  0  0  0
    0.3194   -2.7805    1.5353 H   0  0  0  0  0  0  0  0  0  0  0  0
    3.1797   -0.9633   -1.7219 C   0  0  0  0  0  0  0  0  0  0  0  0
    2.6650   -1.6278   -2.4504 H   0  0  0  0  0  0  0  0  0  0  0  0
    4.5878   -1.5036   -1.4538 C   0  0  0  0  0  0  0  0  0  0  0  0
    5.1164   -0.9035   -0.6836 H   0  0  0  0  0  0  0  0  0  0  0  0
    5.1997   -1.4555   -2.3790 H   0  0  0  0  0  0  0  0  0  0  0  0
    4.5822   -2.5586   -1.1165 H   0  0  0  0  0  0  0  0  0  0  0  0
    3.2061    0.4490   -2.3184 C   0  0  0  0  0  0  0  0  0  0  0  0
    2.1887    0.8022   -2.5706 H   0  0  0  0  0  0  0  0  0  0  0  0
    3.8156    0.4606   -3.2454 H   0  0  0  0  0  0  0  0  0  0  0  0
    3.6575    1.1846   -1.6195 H   0  0  0  0  0  0  0  0  0  0  0  0
  1  5  1  0  0  0  0
  2 49  1  0  0  0  0
  2 15  1  0  0  0  0
  3  7  1  0  0  0  0
  3 14  1  0  0  0  0
  4 20  1  0  0  0  0
  5  6  1  0  0  0  0
  5  7  2  0  0  0  0
  7  8  1  0  0  0  0
  8  9  1  0  0  0  0
  8 10  2  0  0  0  0
 10 11  1  0  0  0  0
 12 13  1  0  0  0  0
 12 10  1  0  0  0  0
 14 12  2  0  0  0  0
 15 18  1  0  0  0  0
 15 16  1  0  0  0  0
 17 15  1  0  0  0  0
 18 19  1  1  0  0  0
 18 14  1  0  0  0  0
 20 21  1  0  0  0  0
 20 18  1  6  0  0  0
 21 22  1  0  0  0  0
 23 24  1  0  0  0  0
 23 21  2  0  0  0  0
 25 27  2  0  0  0  0
 25 23  1  0  0  0  0
 26 25  1  0  0  0  0
 27  4  1  0  0  0  0
 28 27  1  0  0  0  0
 29 35  1  0  0  0  0
 29 31  1  0  0  0  0
 29  1  1  0  0  0  0
 30 29  1  0  0  0  0
 31 32  1  0  0  0  0
 33 31  1  0  0  0  0
 34 31  1  0  0  0  0
 35 38  1  0  0  0  0
 36 35  1  0  0  0  0
 37 35  1  0  0  0  0
 39  1  1  0  0  0  0
 39 40  1  0  0  0  0
 39 45  1  0  0  0  0
 41 39  1  0  0  0  0
 42 41  1  0  0  0  0
 43 41  1  0  0  0  0
 44 41  1  0  0  0  0
 45 46  1  0  0  0  0
 47 45  1  0  0  0  0
 48 45  1  0  0  0  0
 49 50  1  0  0  0  0
 49 55  1  0  0  0  0
 51 53  1  0  0  0  0
 51 49  1  0  0  0  0
 52 51  1  0  0  0  0
 54 51  1  0  0  0  0
 55 57  1  0  0  0  0
 55 56  1  0  0  0  0
 58 55  1  0  0  0  0
 59 61  1  0  0  0  0
 59  2  1  0  0  0  0
 60 59  1  0  0  0  0
 61 64  1  0  0  0  0
 61 62  1  0  0  0  0
 63 61  1  0  0  0  0
 65 59  1  0  0  0  0
 65 68  1  0  0  0  0
 66 65  1  0  0  0  0
 67 65  1  0  0  0  0
M  END
