1,2,3,4
q = 0.0, confidence = 0.98

 72 77  0  0  1  0  0  0  0  0999 V2000
    1.8865   -0.2395   -0.6199 P   0  0  2  0  0  0  0  0  0  0  0  0
   -0.9726   -0.2185   -1.3773 P   0  0  1  0  0  0  0  0  0  0  0  0
    0.1373    1.3001    1.2945 N   0  0  0  0  0  2  0  0  0  0  0  0
   -1.7527   -0.4700    1.3519 N   0  0  0  0  0  2  0  0  0  0  0  0
    0.7148    2.3955    0.8949 C   0  0  0  0  0  3  0  0  0  0  0  0
    0.5517    3.3110    1.4905 H   0  0  0  0  0  0  0  0  0  0  0  0
    1.5818    2.5781   -0.2626 C   0  0  0  0  0  0  0  0  0  0  0  0
    1.8616    3.9231   -0.6190 C   0  0  0  0  0  0  0  0  0  0  0  0
    1.4194    4.7328   -0.0181 H   0  0  0  0  0  0  0  0  0  0  0  0
    2.6644    4.2340   -1.7182 C   0  0  0  0  0  0  0  0  0  0  0  0
    2.8550    5.2847   -1.9818 H   0  0  0  0  0  0  0  0  0  0  0  0
    3.2354    3.1973   -2.4763 C   0  0  0  0  0  0  0  0  0  0  0  0
    3.8796    3.4279   -3.3377 H   0  0  0  0  0  0  0  0  0  0  0  0
    2.9965    1.8626   -2.1199 C   0  0  0  0  0  0  0  0  0  0  0  0
    3.4792    1.0611   -2.6990 H   0  0  0  0  0  0  0  0  0  0  0  0
    2.1696    1.5305   -1.0275 C   0  0  0  0  0  0  0  0  0  0  0  0
    3.5182   -0.8675   -0.0866 C   0  0  0  0  0  0  0  0  0  0  0  0
    4.5734    0.0061    0.2501 C   0  0  0  0  0  0  0  0  0  0  0  0
    4.4467    1.0947    0.1570 H   0  0  0  0  0  0  0  0  0  0  0  0
    5.7943   -0.5140    0.7049 C   0  0  0  0  0  0  0  0  0  0  0  0
    6.6149    0.1718    0.9636 H   0  0  0  0  0  0  0  0  0  0  0  0
    5.9686   -1.9008    0.8293 C   0  0  0  0  0  0  0  0  0  0  0  0
    6.9281   -2.3052    1.1848 H   0  0  0  0  0  0  0  0  0  0  0  0
    4.9146   -2.7715    0.5076 C   0  0  0  0  0  0  0  0  0  0  0  0
    5.0435   -3.8588    0.6144 H   0  0  0  0  0  0  0  0  0  0  0  0
    3.6891   -2.2626    0.0574 C   0  0  0  0  0  0  0  0  0  0  0  0
    2.8536   -2.9472   -0.1579 H   0  0  0  0  0  0  0  0  0  0  0  0
    1.5554   -1.0020   -2.2885 C   0  0  0  0  0  0  0  0  0  0  0  0
    2.3843   -0.7989   -2.9944 H   0  0  0  0  0  0  0  0  0  0  0  0
    1.5123   -2.0932   -2.1039 H   0  0  0  0  0  0  0  0  0  0  0  0
    0.2121   -0.4777   -2.8017 C   0  0  0  0  0  0  0  0  0  0  0  0
   -0.2338   -1.1590   -3.5513 H   0  0  0  0  0  0  0  0  0  0  0  0
    0.3290    0.5090   -3.2913 H   0  0  0  0  0  0  0  0  0  0  0  0
   -1.8423    1.3657   -1.7123 C   0  0  0  0  0  0  0  0  0  0  0  0
   -3.2124    1.5091   -1.4002 C   0  0  0  0  0  0  0  0  0  0  0  0
   -3.8006    0.6370   -1.0796 H   0  0  0  0  0  0  0  0  0  0  0  0
   -3.8416    2.7566   -1.5280 C   0  0  0  0  0  0  0  0  0  0  0  0
   -4.9122    2.8517   -1.2925 H   0  0  0  0  0  0  0  0  0  0  0  0
   -3.1160    3.8736   -1.9708 C   0  0  0  0  0  0  0  0  0  0  0  0
   -3.6135    4.8492   -2.0763 H   0  0  0  0  0  0  0  0  0  0  0  0
   -1.7566    3.7364   -2.2928 C   0  0  0  0  0  0  0  0  0  0  0  0
   -1.1817    4.6029   -2.6528 H   0  0  0  0  0  0  0  0  0  0  0  0
   -1.1214    2.4934   -2.1612 C   0  0  0  0  0  0  0  0  0  0  0  0
   -0.0547    2.4121   -2.4149 H   0  0  0  0  0  0  0  0  0  0  0  0
   -2.3055   -1.4838   -1.4750 C   0  0  0  0  0  0  0  0  0  0  0  0
   -3.6974   -3.0397   -2.7411 C   0  0  0  0  0  0  0  0  0  0  0  0
   -3.9554   -3.5085   -3.7021 H   0  0  0  0  0  0  0  0  0  0  0  0
   -4.3904   -3.3904   -1.5743 C   0  0  0  0  0  0  0  0  0  0  0  0
   -5.1945   -4.1396   -1.6101 H   0  0  0  0  0  0  0  0  0  0  0  0
   -4.0692   -2.7644   -0.3637 C   0  0  0  0  0  0  0  0  0  0  0  0
   -4.6334   -3.0100    0.5492 H   0  0  0  0  0  0  0  0  0  0  0  0
   -3.0156   -1.8281   -0.2860 C   0  0  0  0  0  0  0  0  0  0  0  0
   -2.6758   -2.0745   -2.6900 C   0  0  0  0  0  0  0  0  0  0  0  0
   -2.1644   -1.7937   -3.6224 H   0  0  0  0  0  0  0  0  0  0  0  0
   -2.8219   -1.1054    0.9714 C   0  0  0  0  0  3  0  0  0  0  0  0
   -3.7371   -0.9966    1.5881 H   0  0  0  0  0  0  0  0  0  0  0  0
   -1.9382    0.6075    2.3517 C   0  0  2  0  0  0  0  0  0  0  0  0
   -2.5951    1.3603    1.8563 H   0  0  0  0  0  0  0  0  0  0  0  0
   -0.5913    1.2960    2.5875 C   0  0  2  0  0  0  0  0  0  0  0  0
    0.0120    0.6368    3.2492 H   0  0  0  0  0  0  0  0  0  0  0  0
   -0.7995    2.6074    3.3465 C   0  0  0  0  0  0  0  0  0  0  0  0
    0.1695    3.1163    3.5266 H   0  0  0  0  0  0  0  0  0  0  0  0
   -1.4346    3.3006    2.7517 H   0  0  0  0  0  0  0  0  0  0  0  0
   -1.4681    2.2922    4.6978 C   0  0  0  0  0  0  0  0  0  0  0  0
   -1.6648    3.2355    5.2453 H   0  0  0  0  0  0  0  0  0  0  0  0
   -0.7515    1.7150    5.3221 H   0  0  0  0  0  0  0  0  0  0  0  0
   -2.7663    1.4891    4.5410 C   0  0  0  0  0  0  0  0  0  0  0  0
   -3.5382    2.1281    4.0580 H   0  0  0  0  0  0  0  0  0  0  0  0
   -3.1685    1.2163    5.5372 H   0  0  0  0  0  0  0  0  0  0  0  0
   -2.5715    0.2220    3.6928 C   0  0  0  0  0  0  0  0  0  0  0  0
   -1.9073   -0.5046    4.2088 H   0  0  0  0  0  0  0  0  0  0  0  0
   -3.5460   -0.2841    3.5399 H   0  0  0  0  0  0  0  0  0  0  0  0
  1 17  1  6  0  0  0
  2 34  1  6  0  0  0
  3 59  1  0  0  0  0
  4 57  1  0  0  0  0
  5  3  1  0  0  0  0
  5  6  1  0  0  0  0
  7  5  1  0  0  0  0
  8  7  1  0  0  0  0
  8  9  1  0  0  0  0
 10  8  2  0  0  0  0
 11 10  1  0  0  0  0
 12 14  2  0  0  0  0
 12 10  1  0  0  0  0
 13 12  1  0  0  0  0
 14 16  1  0  0  0  0
 15 14  1  0  0  0  0
 16  1  1  0  0  0  0
 16  7  2  0  0  0  0
 17 26  2  0  0  0  0
 17 18  1  0  0  0  0
 18 20  2  0  0  0  0
 19 18  1  0  0  0  0
 20 22  1  0  0  0  0
 20 21  1  0  0  0  0
 22 23  1  0  0  0  0
 24 25  1  0  0  0  0
 24 22  2  0  0  0  0
 26 24  1  0  0  0  0
 27 26  1  0  0  0  0
 28 30  1  0  0  0  0
 28  1  1  0  0  0  0
 29 28  1  0  0  0  0
 31 28  1  0  0  0  0
 31  2  1  0  0  0  0
 32 31  1  0  0  0  0
 33 31  1  0  0  0  0
 34 35  1  0  0  0  0
 35 36  1  0  0  0  0
 37 35  2  0  0  0  0
 37 38  1  0  0  0  0
 39 37  1  0  0  0  0
 40 39  1  0  0  0  0
 41 43  1  0  0  0  0
 41 39  2  0  0  0  0
 42 41  1  0  0  0  0
 43 34  2  0  0  0  0
 44 43  1  0  0  0  0
 45  2  1  0  0  0  0
 45 52  1  0  0  0  0
 46 53  1  0  0  0  0
 46 48  2  0  0  0  0
 47 46  1  0  0  0  0
 48 50  1  0  0  0  0
 49 48  1  0  0  0  0
 50 52  2  0  0  0  0
 50 51  1  0  0  0  0
 52 55  1  0  0  0  0
 53 45  2  0  0  0  0
 54 53  1  0  0  0  0
 55  4  1  0  0  0  0
 55 56  1  0  0  0  0
 57 58  1  6  0  0  0
 57 59  1  0  0  0  0
 57 70  1  0  0  0  0
 59 60  1  1  0  0  0
 59 61  1  0  0  0  0
 61 62  1  0  0  0  0
 61 64  1  0  0  0  0
 63 61  1  0  0  0  0
 64 65  1  0  0  0  0
 64 66  1  0  0  0  0
 67 64  1  0  0  0  0
 67 69  1  0  0  0  0
 68 67  1  0  0  0  0
 70 71  1  0  0  0  0
 70 67  1  0  0  0  0
 72 70  1  0  0  0  0
M  END
