2,3,4,5
q = -1.0, confidence = 0.014

 78 77  0  0  0  0  0  0  0  0999 V2000
    2.1384   -1.0957   -1.2578 Si  0  0  0  0  0  0  0  0  0  0  0  0
   -1.8995   -1.0876   -0.2242 P   0  0  0  0  0  0  0  0  0  0  0  0
    0.0527    2.0486   -0.1847 P   0  0  0  0  0  0  0  0  0  0  0  0
    2.0355   -0.4983    0.3387 N   0  0  0  0  0  2  0  0  0  0  0  0
    0.4928   -0.4369   -1.8290 N   0  0  0  0  0  0  0  0  0  0  0  0
    2.8132   -1.0211    1.4665 C   0  0  0  0  0  0  0  0  0  0  0  0
    2.2676   -2.3717    1.9878 C   0  0  0  0  0  0  0  0  0  0  0  0
    1.2188   -2.2556    2.3233 H   0  0  0  0  0  0  0  0  0  0  0  0
    2.8641   -2.7548    2.8426 H   0  0  0  0  0  0  0  0  0  0  0  0
    2.2844   -3.1385    1.1878 H   0  0  0  0  0  0  0  0  0  0  0  0
    4.2823   -1.2233    1.0220 C   0  0  0  0  0  0  0  0  0  0  0  0
    4.6950   -0.2767    0.6181 H   0  0  0  0  0  0  0  0  0  0  0  0
    4.3647   -2.0015    0.2340 H   0  0  0  0  0  0  0  0  0  0  0  0
    4.9202   -1.5489    1.8691 H   0  0  0  0  0  0  0  0  0  0  0  0
    2.8275   -0.0186    2.6380 C   0  0  0  0  0  0  0  0  0  0  0  0
    1.8079    0.1575    3.0263 H   0  0  0  0  0  0  0  0  0  0  0  0
    3.2511    0.9523    2.3155 H   0  0  0  0  0  0  0  0  0  0  0  0
    3.4434   -0.4009    3.4779 H   0  0  0  0  0  0  0  0  0  0  0  0
    2.2036   -2.9653   -1.6121 C   0  0  0  0  0  0  0  0  0  0  0  0
    1.4431   -3.5504   -1.0628 H   0  0  0  0  0  0  0  0  0  0  0  0
    3.1994   -3.3360   -1.2916 H   0  0  0  0  0  0  0  0  0  0  0  0
    2.1130   -3.1855   -2.6968 H   0  0  0  0  0  0  0  0  0  0  0  0
    3.5018   -0.4034   -2.3930 C   0  0  0  0  0  0  0  0  0  0  0  0
    3.6285    0.6945   -2.3283 H   0  0  0  0  0  0  0  0  0  0  0  0
    3.3153   -0.6734   -3.4545 H   0  0  0  0  0  0  0  0  0  0  0  0
    4.4699   -0.8627   -2.1051 H   0  0  0  0  0  0  0  0  0  0  0  0
   -0.3983   -1.4091   -2.5073 C   0  0  0  0  0  0  0  0  0  0  0  0
   -0.0728   -2.4291   -2.2418 H   0  0  0  0  0  0  0  0  0  0  0  0
   -0.2855   -1.3184   -3.6132 H   0  0  0  0  0  0  0  0  0  0  0  0
   -1.8562   -1.2311   -2.0912 C   0  0  0  0  0  0  0  0  0  0  0  0
   -2.4848   -2.0655   -2.4671 H   0  0  0  0  0  0  0  0  0  0  0  0
   -2.2830   -0.2890   -2.4968 H   0  0  0  0  0  0  0  0  0  0  0  0
   -2.3053   -2.8599    0.3237 C   0  0  0  0  0  0  0  0  0  0  0  0
   -3.2059   -3.1630   -0.2554 H   0  0  0  0  0  0  0  0  0  0  0  0
   -1.1430   -3.7916   -0.0288 C   0  0  0  0  0  0  0  0  0  0  0  0
   -1.3246   -4.8069    0.3811 H   0  0  0  0  0  0  0  0  0  0  0  0
   -0.2012   -3.3997    0.4079 H   0  0  0  0  0  0  0  0  0  0  0  0
   -0.9989   -3.8995   -1.1218 H   0  0  0  0  0  0  0  0  0  0  0  0
   -2.6163   -2.9442    1.8225 C   0  0  0  0  0  0  0  0  0  0  0  0
   -2.7383   -4.0063    2.1219 H   0  0  0  0  0  0  0  0  0  0  0  0
   -3.5491   -2.4166    2.0949 H   0  0  0  0  0  0  0  0  0  0  0  0
   -1.7964   -2.5158    2.4328 H   0  0  0  0  0  0  0  0  0  0  0  0
   -3.5408   -0.1709    0.0185 C   0  0  0  0  0  0  0  0  0  0  0  0
   -3.3402    0.7462   -0.5794 H   0  0  0  0  0  0  0  0  0  0  0  0
   -4.7619   -0.8803   -0.5773 C   0  0  0  0  0  0  0  0  0  0  0  0
   -5.6515   -0.2165   -0.5329 H   0  0  0  0  0  0  0  0  0  0  0  0
   -5.0161   -1.7981   -0.0085 H   0  0  0  0  0  0  0  0  0  0  0  0
   -4.6161   -1.1667   -1.6380 H   0  0  0  0  0  0  0  0  0  0  0  0
   -3.7993    0.2737    1.4639 C   0  0  0  0  0  0  0  0  0  0  0  0
   -4.5681    1.0740    1.4841 H   0  0  0  0  0  0  0  0  0  0  0  0
   -2.8871    0.6609    1.9558 H   0  0  0  0  0  0  0  0  0  0  0  0
   -4.1796   -0.5579    2.0878 H   0  0  0  0  0  0  0  0  0  0  0  0
    0.5270    0.8388   -2.5935 C   0  0  0  0  0  0  0  0  0  0  0  0
   -0.5065    1.0727   -2.9332 H   0  0  0  0  0  0  0  0  0  0  0  0
    1.1402    0.7106   -3.5161 H   0  0  0  0  0  0  0  0  0  0  0  0
    1.0568    1.9877   -1.7506 C   0  0  0  0  0  0  0  0  0  0  0  0
    1.0697    2.9344   -2.3269 H   0  0  0  0  0  0  0  0  0  0  0  0
    2.0931    1.7723   -1.4296 H   0  0  0  0  0  0  0  0  0  0  0  0
    0.9506    3.3315    0.8774 C   0  0  0  0  0  0  0  0  0  0  0  0
    0.5625    4.3288    0.5706 H   0  0  0  0  0  0  0  0  0  0  0  0
    2.4675    3.3024    0.6512 C   0  0  0  0  0  0  0  0  0  0  0  0
    2.9801    3.9179    1.4202 H   0  0  0  0  0  0  0  0  0  0  0  0
    2.7521    3.7043   -0.3408 H   0  0  0  0  0  0  0  0  0  0  0  0
    2.8535    2.2656    0.7275 H   0  0  0  0  0  0  0  0  0  0  0  0
    0.6051    3.0974    2.3545 C   0  0  0  0  0  0  0  0  0  0  0  0
    1.0349    3.9047    2.9843 H   0  0  0  0  0  0  0  0  0  0  0  0
    1.0228    2.1339    2.7010 H   0  0  0  0  0  0  0  0  0  0  0  0
   -0.4857    3.0664    2.5394 H   0  0  0  0  0  0  0  0  0  0  0  0
   -1.4816    3.0197   -0.7486 C   0  0  0  0  0  0  0  0  0  0  0  0
   -2.0415    2.2542   -1.3316 H   0  0  0  0  0  0  0  0  0  0  0  0
   -1.2177    4.2228   -1.6583 C   0  0  0  0  0  0  0  0  0  0  0  0
   -2.1711    4.7391   -1.9014 H   0  0  0  0  0  0  0  0  0  0  0  0
   -0.7463    3.9382   -2.6194 H   0  0  0  0  0  0  0  0  0  0  0  0
   -0.5611    4.9715   -1.1669 H   0  0  0  0  0  0  0  0  0  0  0  0
   -2.3399    3.4162    0.4577 C   0  0  0  0  0  0  0  0  0  0  0  0
   -3.3453    3.7559    0.1314 H   0  0  0  0  0  0  0  0  0  0  0  0
   -1.8777    4.2541    1.0187 H   0  0  0  0  0  0  0  0  0  0  0  0
   -2.4757    2.5731    1.1606 H   0  0  0  0  0  0  0  0  0  0  0  0
  1  4  1  0  0  0  0
  2 43  1  0  0  0  0
  2 33  1  0  0  0  0
  3 59  1  0  0  0  0
  4  6  1  0  0  0  0
  5  1  1  0  0  0  0
  6  7  1  0  0  0  0
  6 15  1  0  0  0  0
  7  8  1  0  0  0  0
  7  9  1  0  0  0  0
 10  7  1  0  0  0  0
 11  6  1  0  0  0  0
 11 14  1  0  0  0  0
 12 11  1  0  0  0  0
 13 11  1  0  0  0  0
 15 16  1  0  0  0  0
 15 18  1  0  0  0  0
 17 15  1  0  0  0  0
 19 21  1  0  0  0  0
 19  1  1  0  0  0  0
 19 20  1  0  0  0  0
 22 19  1  0  0  0  0
 23 24  1  0  0  0  0
 23 26  1  0  0  0  0
 23  1  1  0  0  0  0
 25 23  1  0  0  0  0
 27 28  1  0  0  0  0
 27 30  1  0  0  0  0
 27  5  1  0  0  0  0
 29 27  1  0  0  0  0
 30  2  1  0  0  0  0
 31 30  1  0  0  0  0
 32 30  1  0  0  0  0
 33 39  1  0  0  0  0
 34 33  1  0  0  0  0
 35 33  1  0  0  0  0
 35 36  1  0  0  0  0
 35 37  1  0  0  0  0
 38 35  1  0  0  0  0
 39 41  1  0  0  0  0
 39 40  1  0  0  0  0
 39 42  1  0  0  0  0
 43 49  1  0  0  0  0
 44 43  1  0  0  0  0
 45 46  1  0  0  0  0
 45 47  1  0  0  0  0
 45 43  1  0  0  0  0
 48 45  1  0  0  0  0
 49 50  1  0  0  0  0
 49 51  1  0  0  0  0
 49 52  1  0  0  0  0
 53  5  1  0  0  0  0
 53 56  1  0  0  0  0
 54 53  1  0  0  0  0
 55 53  1  0  0  0  0
 56 58  1  0  0  0  0
 56  3  1  0  0  0  0
 57 56  1  0  0  0  0
 59 65  1  0  0  0  0
 60 59  1  0  0  0  0
 61 64  1  0  0  0  0
 61 59  1  0  0  0  0
 61 62  1  0  0  0  0
 63 61  1  0  0  0  0
 65 68  1  0  0  0  0
 65 67  1  0  0  0  0
 65 66  1  0  0  0  0
 69  3  1  0  0  0  0
 69 75  1  0  0  0  0
 70 69  1  0  0  0  0
 71 74  1  0  0  0  0
 71 69  1  0  0  0  0
 72 71  1  0  0  0  0
 73 71  1  0  0  0  0
 75 77  1  0  0  0  0
 75 78  1  0  0  0  0
 76 75  1  0  0  0  0
M  END
