1,2,5,6
q = -2.0, confidence = 0.8

 64 64  0  0  0  0  0  0  0  0999 V2000
    0.9049    1.7782   -0.0152 P   0  0  0  0  0  0  0  0  0  0  0  0
    1.3007   -1.6548   -0.0640 P   0  0  0  0  0  0  0  0  0  0  0  0
   -2.4558    3.1332   -1.3085 O   0  0  0  0  0  0  0  0  0  0  0  0
   -1.9636   -3.6911    0.4364 O   0  0  0  0  0  0  0  0  0  0  0  0
   -1.6500    1.0558   -0.5943 N   0  0  0  0  0  2  0  0  0  0  0  0
   -1.4745   -1.4568   -0.0627 N   0  0  0  0  0  2  0  0  0  0  0  0
   -2.8941    0.4333   -0.3489 C   0  0  0  0  0  0  0  0  0  0  0  0
   -4.1600    1.0581   -0.3840 C   0  0  0  0  0  0  0  0  0  0  0  0
   -5.3126    0.3081   -0.1094 C   0  0  0  0  0  0  0  0  0  0  0  0
   -5.2163   -1.0583    0.1938 C   0  0  0  0  0  0  0  0  0  0  0  0
   -3.9677   -1.6958    0.2275 C   0  0  0  0  0  0  0  0  0  0  0  0
   -2.7953   -0.9547   -0.0406 C   0  0  0  0  0  0  0  0  0  0  0  0
   -1.5385    2.3548   -1.0362 C   0  0  0  0  0  0  0  0  0  0  0  0
   -0.0773    2.8189   -1.1657 C   0  0  0  0  0  0  0  0  0  0  0  0
    0.6549    2.6401    1.6396 C   0  0  0  0  0  0  0  0  0  0  0  0
   -0.8239    2.6717    2.0464 C   0  0  0  0  0  0  0  0  0  0  0  0
    1.5174    2.0350    2.7500 C   0  0  0  0  0  0  0  0  0  0  0  0
    2.7091    2.0663   -0.4582 C   0  0  0  0  0  0  0  0  0  0  0  0
    2.9201    1.8145   -1.9571 C   0  0  0  0  0  0  0  0  0  0  0  0
    3.2334    3.4509   -0.0593 C   0  0  0  0  0  0  0  0  0  0  0  0
   -1.1910   -2.7971    0.0840 C   0  0  0  0  0  0  0  0  0  0  0  0
    0.2533   -3.1444   -0.3051 C   0  0  0  0  0  0  0  0  0  0  0  0
    2.1362   -2.0306    1.5682 C   0  0  0  0  0  0  0  0  0  0  0  0
    1.0782   -2.0273    2.6792 C   0  0  0  0  0  0  0  0  0  0  0  0
    3.3140   -1.0993    1.8608 C   0  0  0  0  0  0  0  0  0  0  0  0
    2.6377   -1.7735   -1.3714 C   0  0  0  0  0  0  0  0  0  0  0  0
    1.9938   -1.6514   -2.7591 C   0  0  0  0  0  0  0  0  0  0  0  0
    3.4983   -3.0350   -1.2480 C   0  0  0  0  0  0  0  0  0  0  0  0
   -4.2153    2.1205   -0.6418 H   0  0  0  0  0  0  0  0  0  0  0  0
   -6.2954    0.8036   -0.1360 H   0  0  0  0  0  0  0  0  0  0  0  0
   -6.1230   -1.6433    0.4132 H   0  0  0  0  0  0  0  0  0  0  0  0
   -3.8732   -2.7595    0.4676 H   0  0  0  0  0  0  0  0  0  0  0  0
   -0.0182    3.9080   -0.9690 H   0  0  0  0  0  0  0  0  0  0  0  0
    0.2721    2.6386   -2.2026 H   0  0  0  0  0  0  0  0  0  0  0  0
    0.9918    3.6829    1.4483 H   0  0  0  0  0  0  0  0  0  0  0  0
   -1.2381    1.6487    2.1470 H   0  0  0  0  0  0  0  0  0  0  0  0
   -1.4594    3.2158    1.3224 H   0  0  0  0  0  0  0  0  0  0  0  0
   -0.9198    3.1831    3.0267 H   0  0  0  0  0  0  0  0  0  0  0  0
    1.2040    0.9961    2.9735 H   0  0  0  0  0  0  0  0  0  0  0  0
    1.3962    2.6236    3.6825 H   0  0  0  0  0  0  0  0  0  0  0  0
    2.5984    2.0236    2.5058 H   0  0  0  0  0  0  0  0  0  0  0  0
    3.2608    1.2888    0.1144 H   0  0  0  0  0  0  0  0  0  0  0  0
    2.5352    2.6619   -2.5594 H   0  0  0  0  0  0  0  0  0  0  0  0
    2.4105    0.8976   -2.3068 H   0  0  0  0  0  0  0  0  0  0  0  0
    4.0014    1.7140   -2.1835 H   0  0  0  0  0  0  0  0  0  0  0  0
    2.6368    4.2586   -0.5317 H   0  0  0  0  0  0  0  0  0  0  0  0
    4.2802    3.5708   -0.4084 H   0  0  0  0  0  0  0  0  0  0  0  0
    3.2300    3.6167    1.0347 H   0  0  0  0  0  0  0  0  0  0  0  0
    0.2536   -3.4200   -1.3804 H   0  0  0  0  0  0  0  0  0  0  0  0
    0.5991   -4.0285    0.2655 H   0  0  0  0  0  0  0  0  0  0  0  0
    2.5213   -3.0675    1.4483 H   0  0  0  0  0  0  0  0  0  0  0  0
    0.5840   -1.0377    2.7562 H   0  0  0  0  0  0  0  0  0  0  0  0
    1.5477   -2.2590    3.6575 H   0  0  0  0  0  0  0  0  0  0  0  0
    0.2801   -2.7746    2.5010 H   0  0  0  0  0  0  0  0  0  0  0  0
    2.9859   -0.0455    1.9340 H   0  0  0  0  0  0  0  0  0  0  0  0
    4.1051   -1.1608    1.0867 H   0  0  0  0  0  0  0  0  0  0  0  0
    3.7793   -1.3653    2.8324 H   0  0  0  0  0  0  0  0  0  0  0  0
    3.2755   -0.8793   -1.1994 H   0  0  0  0  0  0  0  0  0  0  0  0
    2.7698   -1.4980   -3.5365 H   0  0  0  0  0  0  0  0  0  0  0  0
    1.2752   -0.8078   -2.8078 H   0  0  0  0  0  0  0  0  0  0  0  0
    1.4359   -2.5716   -3.0264 H   0  0  0  0  0  0  0  0  0  0  0  0
    4.0511   -3.0837   -0.2896 H   0  0  0  0  0  0  0  0  0  0  0  0
    4.2491   -3.0647   -2.0651 H   0  0  0  0  0  0  0  0  0  0  0  0
    2.8826   -3.9539   -1.3346 H   0  0  0  0  0  0  0  0  0  0  0  0
  1 15  1  0  0  0  0
  2 23  1  0  0  0  0
  3 13  2  0  0  0  0
  5  7  1  0  0  0  0
  6 12  1  0  0  0  0
  6 21  1  0  0  0  0
  7 12  1  0  0  0  0
  8  7  2  0  0  0  0
  8  9  1  0  0  0  0
  9 10  2  0  0  0  0
 10 11  1  0  0  0  0
 10 31  1  0  0  0  0
 11 32  1  0  0  0  0
 12 11  2  0  0  0  0
 13  5  1  0  0  0  0
 14 13  1  0  0  0  0
 14 33  1  0  0  0  0
 14  1  1  0  0  0  0
 15 16  1  0  0  0  0
 15 17  1  0  0  0  0
 16 36  1  0  0  0  0
 16 38  1  0  0  0  0
 17 39  1  0  0  0  0
 17 40  1  0  0  0  0
 18 20  1  0  0  0  0
 18  1  1  0  0  0  0
 18 42  1  0  0  0  0
 19 18  1  0  0  0  0
 20 48  1  0  0  0  0
 21  4  2  0  0  0  0
 22  2  1  0  0  0  0
 22 21  1  0  0  0  0
 22 50  1  0  0  0  0
 23 25  1  0  0  0  0
 23 24  1  0  0  0  0
 24 52  1  0  0  0  0
 24 53  1  0  0  0  0
 25 55  1  0  0  0  0
 25 57  1  0  0  0  0
 26 28  1  0  0  0  0
 26 58  1  0  0  0  0
 26  2  1  0  0  0  0
 27 26  1  0  0  0  0
 28 62  1  0  0  0  0
 29  8  1  0  0  0  0
 30  9  1  0  0  0  0
 34 14  1  0  0  0  0
 35 15  1  0  0  0  0
 37 16  1  0  0  0  0
 41 17  1  0  0  0  0
 43 19  1  0  0  0  0
 44 19  1  0  0  0  0
 45 19  1  0  0  0  0
 46 20  1  0  0  0  0
 47 20  1  0  0  0  0
 49 22  1  0  0  0  0
 51 23  1  0  0  0  0
 54 24  1  0  0  0  0
 56 25  1  0  0  0  0
 59 27  1  0  0  0  0
 60 27  1  0  0  0  0
 61 27  1  0  0  0  0
 63 28  1  0  0  0  0
 64 28  1  0  0  0  0
M  END
