1,2,3,4
q = 0.0, confidence = 0.986

 60 61  0  0  0  0  0  0  0  0999 V2000
   -1.0611    0.8235    0.5190 P   0  0  2  0  0  0  0  0  0  0  0  0
    1.5003   -0.1571   -1.0182 P   0  0  1  0  0  0  0  0  0  0  0  0
   -1.3361   -1.8583    1.4475 N   0  0  0  0  0  0  0  0  0  0  0  0
    1.5610   -2.1454    1.2070 N   0  0  0  0  0  0  0  0  0  0  0  0
   -1.3975   -1.4370    2.8668 C   0  0  0  0  0  0  0  0  0  0  0  0
   -1.9922   -0.0364    3.0376 C   0  0  0  0  0  0  0  0  0  0  0  0
   -1.2425    1.1144    2.3476 C   0  0  0  0  0  0  0  0  0  0  0  0
   -0.4671    2.4159   -0.2093 C   0  0  0  0  0  0  0  0  0  0  0  0
   -0.7456    2.5180   -1.7211 C   0  0  0  0  0  0  0  0  0  0  0  0
   -0.4782    1.2645   -2.5646 C   0  0  0  0  0  0  0  0  0  0  0  0
    0.9442    0.6995   -2.5681 C   0  0  0  0  0  0  0  0  0  0  0  0
    2.6165   -1.4810   -1.6644 C   0  0  0  0  0  0  0  0  0  0  0  0
    3.3022   -2.3084   -0.5748 C   0  0  0  0  0  0  0  0  0  0  0  0
    2.3490   -3.0666    0.3459 C   0  0  0  0  0  0  0  0  0  0  0  0
   -2.8208    0.7259   -0.0296 C   0  0  0  0  0  0  0  0  0  0  0  0
   -3.7344    1.7418    0.3270 C   0  0  0  0  0  0  0  0  0  0  0  0
   -5.0708    1.6648   -0.0910 C   0  0  0  0  0  0  0  0  0  0  0  0
   -5.5060    0.5757   -0.8650 C   0  0  0  0  0  0  0  0  0  0  0  0
   -4.6004   -0.4332   -1.2253 C   0  0  0  0  0  0  0  0  0  0  0  0
   -3.2592   -0.3624   -0.8132 C   0  0  0  0  0  0  0  0  0  0  0  0
    2.6757    0.9688   -0.1520 C   0  0  0  0  0  0  0  0  0  0  0  0
    3.7283    1.6094   -0.8386 C   0  0  0  0  0  0  0  0  0  0  0  0
    4.6393    2.4143   -0.1379 C   0  0  0  0  0  0  0  0  0  0  0  0
    4.5133    2.5834    1.2510 C   0  0  0  0  0  0  0  0  0  0  0  0
    3.4714    1.9460    1.9427 C   0  0  0  0  0  0  0  0  0  0  0  0
    2.5594    1.1426    1.2423 C   0  0  0  0  0  0  0  0  0  0  0  0
   -1.1190   -2.8608    1.3330 H   0  0  0  0  0  0  0  0  0  0  0  0
   -2.2637   -1.7534    1.0024 H   0  0  0  0  0  0  0  0  0  0  0  0
    2.2148   -1.5337    1.7201 H   0  0  0  0  0  0  0  0  0  0  0  0
    1.1005   -2.7056    1.9381 H   0  0  0  0  0  0  0  0  0  0  0  0
   -0.3666   -1.4719    3.2796 H   0  0  0  0  0  0  0  0  0  0  0  0
   -2.0065   -2.1571    3.4544 H   0  0  0  0  0  0  0  0  0  0  0  0
   -3.0451   -0.0483    2.6807 H   0  0  0  0  0  0  0  0  0  0  0  0
   -2.0463    0.1719    4.1259 H   0  0  0  0  0  0  0  0  0  0  0  0
   -0.2217    1.2412    2.7652 H   0  0  0  0  0  0  0  0  0  0  0  0
   -1.7826    2.0690    2.5207 H   0  0  0  0  0  0  0  0  0  0  0  0
   -0.9598    3.2526    0.3288 H   0  0  0  0  0  0  0  0  0  0  0  0
    0.6156    2.4880    0.0202 H   0  0  0  0  0  0  0  0  0  0  0  0
   -0.1575    3.3730   -2.1181 H   0  0  0  0  0  0  0  0  0  0  0  0
   -1.8120    2.7890   -1.8628 H   0  0  0  0  0  0  0  0  0  0  0  0
   -0.7427    1.5043   -3.6153 H   0  0  0  0  0  0  0  0  0  0  0  0
   -1.1655    0.4439   -2.2713 H   0  0  0  0  0  0  0  0  0  0  0  0
    1.7007    1.4739   -2.8153 H   0  0  0  0  0  0  0  0  0  0  0  0
    1.0111   -0.0877   -3.3463 H   0  0  0  0  0  0  0  0  0  0  0  0
    3.3690   -0.9893   -2.3166 H   0  0  0  0  0  0  0  0  0  0  0  0
    1.9596   -2.1196   -2.2899 H   0  0  0  0  0  0  0  0  0  0  0  0
    3.9595   -3.0544   -1.0669 H   0  0  0  0  0  0  0  0  0  0  0  0
    3.9798   -1.6637    0.0297 H   0  0  0  0  0  0  0  0  0  0  0  0
    2.9336   -3.7725    0.9744 H   0  0  0  0  0  0  0  0  0  0  0  0
    1.6172   -3.6463   -0.2537 H   0  0  0  0  0  0  0  0  0  0  0  0
   -3.4098    2.6043    0.9305 H   0  0  0  0  0  0  0  0  0  0  0  0
   -5.7769    2.4613    0.1880 H   0  0  0  0  0  0  0  0  0  0  0  0
   -6.5554    0.5183   -1.1907 H   0  0  0  0  0  0  0  0  0  0  0  0
   -4.9340   -1.2834   -1.8392 H   0  0  0  0  0  0  0  0  0  0  0  0
   -2.5428   -1.1473   -1.1220 H   0  0  0  0  0  0  0  0  0  0  0  0
    3.8475    1.4851   -1.9266 H   0  0  0  0  0  0  0  0  0  0  0  0
    5.4553    2.9136   -0.6815 H   0  0  0  0  0  0  0  0  0  0  0  0
    5.2305    3.2159    1.7950 H   0  0  0  0  0  0  0  0  0  0  0  0
    3.3676    2.0785    3.0302 H   0  0  0  0  0  0  0  0  0  0  0  0
    1.7182    0.6496    1.7581 H   0  0  0  0  0  0  0  0  0  0  0  0
  1  8  1  6  0  0  0
  1  7  1  0  0  0  0
  2 11  1  6  0  0  0
  2 21  1  0  0  0  0
  3  5  1  0  0  0  0
  4 29  1  0  0  0  0
  4 30  1  0  0  0  0
  5  6  1  0  0  0  0
  5 31  1  0  0  0  0
  5 32  1  0  0  0  0
  6 34  1  0  0  0  0
  7 36  1  0  0  0  0
  7 35  1  0  0  0  0
  7  6  1  0  0  0  0
  8 38  1  0  0  0  0
  8 37  1  0  0  0  0
  9  8  1  0  0  0  0
 10 42  1  0  0  0  0
 10  9  1  0  0  0  0
 11 10  1  0  0  0  0
 12  2  1  0  0  0  0
 12 13  1  0  0  0  0
 13 48  1  0  0  0  0
 13 14  1  0  0  0  0
 14 49  1  0  0  0  0
 14  4  1  0  0  0  0
 15 16  1  0  0  0  0
 15  1  1  0  0  0  0
 16 51  1  0  0  0  0
 17 52  1  0  0  0  0
 17 16  2  0  0  0  0
 18 17  1  0  0  0  0
 19 18  2  0  0  0  0
 19 20  1  0  0  0  0
 20 15  2  0  0  0  0
 21 26  1  0  0  0  0
 22 21  2  0  0  0  0
 22 23  1  0  0  0  0
 23 24  2  0  0  0  0
 24 58  1  0  0  0  0
 24 25  1  0  0  0  0
 25 59  1  0  0  0  0
 26 60  1  0  0  0  0
 26 25  2  0  0  0  0
 27  3  1  0  0  0  0
 28  3  1  0  0  0  0
 33  6  1  0  0  0  0
 39  9  1  0  0  0  0
 40  9  1  0  0  0  0
 41 10  1  0  0  0  0
 43 11  1  0  0  0  0
 44 11  1  0  0  0  0
 45 12  1  0  0  0  0
 46 12  1  0  0  0  0
 47 13  1  0  0  0  0
 50 14  1  0  0  0  0
 53 18  1  0  0  0  0
 54 19  1  0  0  0  0
 55 20  1  0  0  0  0
 56 22  1  0  0  0  0
 57 23  1  0  0  0  0
M  END
