1,2,3,4
 OpenBabel05122313063D

 72 77  0  0  1  0  0  0  0  0999 V2000
   -1.1245   -1.4024   -0.7244 P   0  0  2  0  0  0  0  0  0  0  0  0
    1.7253   -0.4162   -0.6600 P   0  0  1  0  0  0  0  0  0  0  0  0
   -1.9721    1.5211    0.1858 N   0  0  0  0  0  2  0  0  0  0  0  0
    0.5965    2.3076    0.4857 N   0  0  0  0  0  2  0  0  0  0  0  0
   -2.8639   -1.2031   -1.2635 C   0  0  0  0  0  0  0  0  0  0  0  0
   -3.5051   -2.2799   -1.9049 C   0  0  0  0  0  0  0  0  0  0  0  0
   -2.9419   -3.2127   -2.0660 H   0  0  0  0  0  0  0  0  0  0  0  0
   -4.8349   -2.1947   -2.3378 C   0  0  0  0  0  0  0  0  0  0  0  0
   -5.3074   -3.0469   -2.8489 H   0  0  0  0  0  0  0  0  0  0  0  0
   -5.5530   -1.0093   -2.1097 C   0  0  0  0  0  0  0  0  0  0  0  0
   -6.5995   -0.9205   -2.4379 H   0  0  0  0  0  0  0  0  0  0  0  0
   -4.9363    0.0608   -1.4592 C   0  0  0  0  0  0  0  0  0  0  0  0
   -5.5096    0.9837   -1.2782 H   0  0  0  0  0  0  0  0  0  0  0  0
   -3.5851    0.0088   -1.0167 C   0  0  0  0  0  0  0  0  0  0  0  0
   -3.1229    1.2366   -0.3591 C   0  0  0  0  0  3  0  0  0  0  0  0
   -3.8947    2.0312   -0.3592 H   0  0  0  0  0  0  0  0  0  0  0  0
   -1.7629    2.9047    0.6829 C   0  0  1  0  0  0  0  0  0  0  0  0
   -1.7614    3.5636   -0.2178 H   0  0  0  0  0  0  0  0  0  0  0  0
   -2.8271    3.3937    1.6756 C   0  0  0  0  0  0  0  0  0  0  0  0
   -3.8378    3.3316    1.2245 H   0  0  0  0  0  0  0  0  0  0  0  0
   -2.8218    2.7082    2.5505 H   0  0  0  0  0  0  0  0  0  0  0  0
   -2.5408    4.8353    2.1160 C   0  0  0  0  0  0  0  0  0  0  0  0
   -2.6509    5.5111    1.2384 H   0  0  0  0  0  0  0  0  0  0  0  0
   -3.2986    5.1608    2.8583 H   0  0  0  0  0  0  0  0  0  0  0  0
   -1.1288    4.9846    2.6935 C   0  0  0  0  0  0  0  0  0  0  0  0
   -1.0590    4.4095    3.6426 H   0  0  0  0  0  0  0  0  0  0  0  0
   -0.9256    6.0443    2.9519 H   0  0  0  0  0  0  0  0  0  0  0  0
   -0.0612    4.4649    1.7196 C   0  0  0  0  0  0  0  0  0  0  0  0
   -0.0374    5.1029    0.8076 H   0  0  0  0  0  0  0  0  0  0  0  0
    0.9422    4.5306    2.1889 H   0  0  0  0  0  0  0  0  0  0  0  0
   -0.3639    3.0157    1.3369 C   0  0  2  0  0  0  0  0  0  0  0  0
   -0.4012    2.3892    2.2623 H   0  0  0  0  0  0  0  0  0  0  0  0
    1.7020    2.8497    0.0669 C   0  0  0  0  0  3  0  0  0  0  0  0
    1.9042    3.9012    0.3449 H   0  0  0  0  0  0  0  0  0  0  0  0
    2.7590    2.2587   -0.7663 C   0  0  0  0  0  0  0  0  0  0  0  0
    3.7588    3.1826   -1.1731 C   0  0  0  0  0  0  0  0  0  0  0  0
    3.6692    4.2280   -0.8377 H   0  0  0  0  0  0  0  0  0  0  0  0
    4.8317    2.8156   -1.9881 C   0  0  0  0  0  0  0  0  0  0  0  0
    5.5758    3.5684   -2.2886 H   0  0  0  0  0  0  0  0  0  0  0  0
    4.9528    1.4847   -2.4153 C   0  0  0  0  0  0  0  0  0  0  0  0
    5.7901    1.1760   -3.0590 H   0  0  0  0  0  0  0  0  0  0  0  0
    3.9970    0.5450   -2.0044 C   0  0  0  0  0  0  0  0  0  0  0  0
    4.1094   -0.5022   -2.3244 H   0  0  0  0  0  0  0  0  0  0  0  0
    2.9022    0.9003   -1.1963 C   0  0  0  0  0  0  0  0  0  0  0  0
    1.3359   -1.4477   -2.1961 C   0  0  0  0  0  0  0  0  0  0  0  0
    1.5082   -0.7563   -3.0418 H   0  0  0  0  0  0  0  0  0  0  0  0
    2.0461   -2.2918   -2.2850 H   0  0  0  0  0  0  0  0  0  0  0  0
   -0.1324   -1.9489   -2.2280 C   0  0  0  0  0  0  0  0  0  0  0  0
   -0.1949   -3.0490   -2.3428 H   0  0  0  0  0  0  0  0  0  0  0  0
   -0.6613   -1.4762   -3.0773 H   0  0  0  0  0  0  0  0  0  0  0  0
   -1.1634   -2.8713    0.3782 C   0  0  0  0  0  0  0  0  0  0  0  0
   -2.2471   -3.0757    1.2555 C   0  0  0  0  0  0  0  0  0  0  0  0
   -3.1222   -2.4103    1.2067 H   0  0  0  0  0  0  0  0  0  0  0  0
   -2.2094   -4.1166    2.1934 C   0  0  0  0  0  0  0  0  0  0  0  0
   -3.0625   -4.2695    2.8719 H   0  0  0  0  0  0  0  0  0  0  0  0
   -1.0847   -4.9533    2.2772 C   0  0  0  0  0  0  0  0  0  0  0  0
   -1.0546   -5.7653    3.0197 H   0  0  0  0  0  0  0  0  0  0  0  0
    0.0047   -4.7440    1.4176 C   0  0  0  0  0  0  0  0  0  0  0  0
    0.8977   -5.3840    1.4853 H   0  0  0  0  0  0  0  0  0  0  0  0
   -0.0336   -3.7088    0.4724 C   0  0  0  0  0  0  0  0  0  0  0  0
    0.8393   -3.5468   -0.1769 H   0  0  0  0  0  0  0  0  0  0  0  0
    2.8034   -1.5061    0.3778 C   0  0  0  0  0  0  0  0  0  0  0  0
    2.7489   -1.3329    1.7765 C   0  0  0  0  0  0  0  0  0  0  0  0
    2.0329   -0.6115    2.2025 H   0  0  0  0  0  0  0  0  0  0  0  0
    3.5456   -2.1274    2.6155 C   0  0  0  0  0  0  0  0  0  0  0  0
    3.4824   -1.9926    3.7061 H   0  0  0  0  0  0  0  0  0  0  0  0
    4.4015   -3.0985    2.0741 C   0  0  0  0  0  0  0  0  0  0  0  0
    5.0205   -3.7237    2.7359 H   0  0  0  0  0  0  0  0  0  0  0  0
    4.4609   -3.2755    0.6820 C   0  0  0  0  0  0  0  0  0  0  0  0
    5.1292   -4.0354    0.2482 H   0  0  0  0  0  0  0  0  0  0  0  0
    3.6670   -2.4842   -0.1613 C   0  0  0  0  0  0  0  0  0  0  0  0
    3.7290   -2.6426   -1.2488 H   0  0  0  0  0  0  0  0  0  0  0  0
  1 51  1  1  0  0  0
  2 62  1  1  0  0  0
  3 17  1  0  0  0  0
  4 31  1  0  0  0  0
  5 14  1  0  0  0  0
  5  1  1  0  0  0  0
  6  5  2  0  0  0  0
  7  6  1  0  0  0  0
  8 10  2  0  0  0  0
  8  6  1  0  0  0  0
  9  8  1  0  0  0  0
 10 12  1  0  0  0  0
 11 10  1  0  0  0  0
 12 13  1  0  0  0  0
 12 14  2  0  0  0  0
 14 15  1  0  0  0  0
 15  3  1  0  0  0  0
 16 15  1  0  0  0  0
 17 18  1  6  0  0  0
 17 31  1  0  0  0  0
 17 19  1  0  0  0  0
 19 22  1  0  0  0  0
 19 21  1  0  0  0  0
 20 19  1  0  0  0  0
 22 25  1  0  0  0  0
 22 24  1  0  0  0  0
 23 22  1  0  0  0  0
 25 27  1  0  0  0  0
 25 26  1  0  0  0  0
 28 30  1  0  0  0  0
 28 25  1  0  0  0  0
 29 28  1  0  0  0  0
 31 28  1  0  0  0  0
 31 32  1  1  0  0  0
 33 34  1  0  0  0  0
 33  4  1  0  0  0  0
 35 33  1  0  0  0  0
 36 37  1  0  0  0  0
 36 35  1  0  0  0  0
 38 36  2  0  0  0  0
 39 38  1  0  0  0  0
 40 42  2  0  0  0  0
 40 38  1  0  0  0  0
 41 40  1  0  0  0  0
 42 44  1  0  0  0  0
 43 42  1  0  0  0  0
 44 35  2  0  0  0  0
 44  2  1  0  0  0  0
 45  2  1  0  0  0  0
 46 45  1  0  0  0  0
 47 45  1  0  0  0  0
 48 45  1  0  0  0  0
 48  1  1  0  0  0  0
 49 48  1  0  0  0  0
 50 48  1  0  0  0  0
 51 60  2  0  0  0  0
 51 52  1  0  0  0  0
 52 54  2  0  0  0  0
 53 52  1  0  0  0  0
 54 56  1  0  0  0  0
 54 55  1  0  0  0  0
 56 57  1  0  0  0  0
 58 59  1  0  0  0  0
 58 56  2  0  0  0  0
 60 58  1  0  0  0  0
 61 60  1  0  0  0  0
 62 63  1  0  0  0  0
 63 64  1  0  0  0  0
 63 65  2  0  0  0  0
 65 66  1  0  0  0  0
 67 65  1  0  0  0  0
 67 68  1  0  0  0  0
 69 67  2  0  0  0  0
 70 69  1  0  0  0  0
 71 62  2  0  0  0  0
 71 69  1  0  0  0  0
 72 71  1  0  0  0  0
M  END
