1,2,3,6
 OpenBabel05122313063D

 51 52  0  0  0  0  0  0  0  0999 V2000
   -0.4697    1.6558    0.5486 P   0  0  2  0  0  0  0  0  0  0  0  0
   -0.0709   -1.5642    0.8085 P   0  0  2  0  0  0  0  0  0  0  0  0
   -2.7453    1.2448   -1.3582 N   0  0  0  0  0  0  0  0  0  0  0  0
   -2.8810    0.9844   -2.3454 H   0  0  0  0  0  0  0  0  0  0  0  0
   -3.6448    1.1448   -0.8604 H   0  0  0  0  0  0  0  0  0  0  0  0
   -2.3626   -2.0059   -1.0953 N   0  0  0  0  0  0  0  0  0  0  0  0
   -3.2814   -1.9938   -0.6234 H   0  0  0  0  0  0  0  0  0  0  0  0
   -2.5160   -1.9713   -2.1131 H   0  0  0  0  0  0  0  0  0  0  0  0
   -2.2454    2.6423   -1.2708 C   0  0  0  0  0  0  0  0  0  0  0  0
   -3.0390    3.3626   -1.5628 H   0  0  0  0  0  0  0  0  0  0  0  0
   -1.4157    2.7375   -2.0007 H   0  0  0  0  0  0  0  0  0  0  0  0
   -1.7430    2.9427    0.1422 C   0  0  0  0  0  0  0  0  0  0  0  0
   -2.5586    2.8403    0.8884 H   0  0  0  0  0  0  0  0  0  0  0  0
   -1.3334    3.9693    0.2109 H   0  0  0  0  0  0  0  0  0  0  0  0
   -0.3464    1.5065    2.3859 C   0  0  0  0  0  0  0  0  0  0  0  0
    0.0554    2.4675    2.7682 H   0  0  0  0  0  0  0  0  0  0  0  0
   -1.3811    1.3777    2.7628 H   0  0  0  0  0  0  0  0  0  0  0  0
    0.5544    0.3431    2.8378 C   0  0  0  0  0  0  0  0  0  0  0  0
    0.7072    0.4461    3.9320 H   0  0  0  0  0  0  0  0  0  0  0  0
    1.5633    0.4496    2.3834 H   0  0  0  0  0  0  0  0  0  0  0  0
   -0.0100   -1.0698    2.5838 C   0  0  0  0  0  0  0  0  0  0  0  0
   -1.0609   -1.1334    2.9317 H   0  0  0  0  0  0  0  0  0  0  0  0
    0.5728   -1.8312    3.1404 H   0  0  0  0  0  0  0  0  0  0  0  0
   -1.0454   -3.1451    0.6809 C   0  0  0  0  0  0  0  0  0  0  0  0
   -0.4149   -4.0232    0.9232 H   0  0  0  0  0  0  0  0  0  0  0  0
   -1.8619   -3.0733    1.4299 H   0  0  0  0  0  0  0  0  0  0  0  0
   -1.6121   -3.2400   -0.7365 C   0  0  0  0  0  0  0  0  0  0  0  0
   -0.7915   -3.3554   -1.4719 H   0  0  0  0  0  0  0  0  0  0  0  0
   -2.2638   -4.1349   -0.8292 H   0  0  0  0  0  0  0  0  0  0  0  0
    1.1621    2.2960    0.0387 C   0  0  0  0  0  0  0  0  0  0  0  0
    2.0948    1.4645   -0.6121 C   0  0  0  0  0  0  0  0  0  0  0  0
    1.8088    0.4506   -0.9176 H   0  0  0  0  0  0  0  0  0  0  0  0
    3.3807    1.9477   -0.8982 C   0  0  0  0  0  0  0  0  0  0  0  0
    4.1020    1.2921   -1.4082 H   0  0  0  0  0  0  0  0  0  0  0  0
    3.7396    3.2568   -0.5452 C   0  0  0  0  0  0  0  0  0  0  0  0
    4.7469    3.6345   -0.7762 H   0  0  0  0  0  0  0  0  0  0  0  0
    2.8111    4.0902    0.1016 C   0  0  0  0  0  0  0  0  0  0  0  0
    3.0887    5.1181    0.3786 H   0  0  0  0  0  0  0  0  0  0  0  0
    1.5276    3.6133    0.3987 C   0  0  0  0  0  0  0  0  0  0  0  0
    0.8170    4.2760    0.9179 H   0  0  0  0  0  0  0  0  0  0  0  0
    1.6432   -1.9629    0.3090 C   0  0  0  0  0  0  0  0  0  0  0  0
    2.6914   -2.0089    1.2548 C   0  0  0  0  0  0  0  0  0  0  0  0
    2.5090   -1.7900    2.3159 H   0  0  0  0  0  0  0  0  0  0  0  0
    3.9928   -2.3399    0.8504 C   0  0  0  0  0  0  0  0  0  0  0  0
    4.8010   -2.3698    1.5962 H   0  0  0  0  0  0  0  0  0  0  0  0
    4.2622   -2.6336   -0.4951 C   0  0  0  0  0  0  0  0  0  0  0  0
    5.2844   -2.8930   -0.8085 H   0  0  0  0  0  0  0  0  0  0  0  0
    3.2243   -2.5925   -1.4396 C   0  0  0  0  0  0  0  0  0  0  0  0
    3.4294   -2.8145   -2.4974 H   0  0  0  0  0  0  0  0  0  0  0  0
    1.9219   -2.2548   -1.0458 C   0  0  0  0  0  0  0  0  0  0  0  0
    1.1322   -2.1630   -1.8046 H   0  0  0  0  0  0  0  0  0  0  0  0
  1 12  1  1  0  0  0
  1 15  1  0  0  0  0
  2 24  1  1  0  0  0
  2 21  1  0  0  0  0
  3  9  1  0  0  0  0
  3  5  1  0  0  0  0
  4  3  1  0  0  0  0
  6 27  1  0  0  0  0
  6  7  1  0  0  0  0
  8  6  1  0  0  0  0
  9 12  1  0  0  0  0
 10  9  1  0  0  0  0
 11  9  1  0  0  0  0
 12 14  1  0  0  0  0
 12 13  1  0  0  0  0
 15 17  1  0  0  0  0
 15 16  1  0  0  0  0
 15 18  1  0  0  0  0
 18 19  1  0  0  0  0
 20 18  1  0  0  0  0
 21 18  1  0  0  0  0
 21 22  1  0  0  0  0
 21 23  1  0  0  0  0
 24 25  1  0  0  0  0
 24 26  1  0  0  0  0
 27 24  1  0  0  0  0
 28 27  1  0  0  0  0
 29 27  1  0  0  0  0
 30 39  1  0  0  0  0
 30  1  1  0  0  0  0
 31 30  2  0  0  0  0
 32 31  1  0  0  0  0
 33 31  1  0  0  0  0
 33 35  2  0  0  0  0
 34 33  1  0  0  0  0
 35 37  1  0  0  0  0
 36 35  1  0  0  0  0
 37 38  1  0  0  0  0
 37 39  2  0  0  0  0
 39 40  1  0  0  0  0
 41  2  1  0  0  0  0
 41 42  1  0  0  0  0
 42 43  1  0  0  0  0
 44 42  2  0  0  0  0
 44 45  1  0  0  0  0
 46 44  1  0  0  0  0
 47 46  1  0  0  0  0
 48 50  1  0  0  0  0
 48 46  2  0  0  0  0
 49 48  1  0  0  0  0
 50 41  2  0  0  0  0
 51 50  1  0  0  0  0
M  END
