1,2,5,6
 OpenBabel05122313063D

 82 88  0  0  0  0  0  0  0  0999 V2000
    1.8482   -0.0466   -0.0834 P   0  0  0  0  0  0  0  0  0  0  0  0
   -1.3345    1.1087   -0.0252 P   0  0  0  0  0  0  0  0  0  0  0  0
    1.6721   -4.3355   -0.9973 O   0  0  0  0  0  0  0  0  0  0  0  0
   -3.7111   -1.5312   -2.4990 O   0  0  0  0  0  0  0  0  0  0  0  0
    0.4133   -2.4259   -0.6486 N   0  0  0  0  0  2  0  0  0  0  0  0
   -1.8684   -1.2641   -1.1369 N   0  0  0  0  0  2  0  0  0  0  0  0
   -0.7313   -3.1648   -0.2448 C   0  0  0  0  0  0  0  0  0  0  0  0
   -1.9726   -2.5423   -0.5449 C   0  0  0  0  0  0  0  0  0  0  0  0
   -3.1833   -3.1606   -0.1800 C   0  0  0  0  0  0  0  0  0  0  0  0
   -4.1318   -2.6745   -0.4363 H   0  0  0  0  0  0  0  0  0  0  0  0
   -3.1608   -4.3863    0.5006 C   0  0  0  0  0  0  0  0  0  0  0  0
   -4.1097   -4.8602    0.7951 H   0  0  0  0  0  0  0  0  0  0  0  0
   -1.9363   -5.0006    0.8066 C   0  0  0  0  0  0  0  0  0  0  0  0
   -1.9179   -5.9605    1.3455 H   0  0  0  0  0  0  0  0  0  0  0  0
   -0.7230   -4.4043    0.4281 C   0  0  0  0  0  0  0  0  0  0  0  0
    0.2336   -4.8915    0.6410 H   0  0  0  0  0  0  0  0  0  0  0  0
    1.5423   -3.0995   -1.0220 C   0  0  0  0  0  0  0  0  0  0  0  0
    2.7383   -2.3005   -1.5002 C   0  0  0  0  0  0  0  0  0  0  0  0
    3.0496   -0.9782   -1.1087 C   0  0  0  0  0  0  0  0  0  0  0  0
    4.2824   -0.4031   -1.4857 C   0  0  0  0  0  0  0  0  0  0  0  0
    4.5410    0.6115   -1.1524 H   0  0  0  0  0  0  0  0  0  0  0  0
    5.1835   -1.1157   -2.2879 C   0  0  0  0  0  0  0  0  0  0  0  0
    6.1356   -0.6499   -2.5841 H   0  0  0  0  0  0  0  0  0  0  0  0
    4.8676   -2.4196   -2.7012 C   0  0  0  0  0  0  0  0  0  0  0  0
    5.5686   -2.9852   -3.3339 H   0  0  0  0  0  0  0  0  0  0  0  0
    3.6676   -3.0088   -2.2891 C   0  0  0  0  0  0  0  0  0  0  0  0
    3.4134   -4.0478   -2.5436 H   0  0  0  0  0  0  0  0  0  0  0  0
   -2.8328   -0.8139   -1.9982 C   0  0  0  0  0  0  0  0  0  0  0  0
   -2.8863    0.6719   -2.2917 C   0  0  0  0  0  0  0  0  0  0  0  0
   -2.3886    1.6683   -1.4164 C   0  0  0  0  0  0  0  0  0  0  0  0
   -2.7112    3.0222   -1.6402 C   0  0  0  0  0  0  0  0  0  0  0  0
   -2.3759    3.7936   -0.9331 H   0  0  0  0  0  0  0  0  0  0  0  0
   -3.4661    3.3960   -2.7626 C   0  0  0  0  0  0  0  0  0  0  0  0
   -3.7041    4.4575   -2.9293 H   0  0  0  0  0  0  0  0  0  0  0  0
   -3.9228    2.4152   -3.6564 C   0  0  0  0  0  0  0  0  0  0  0  0
   -4.5128    2.7033   -4.5398 H   0  0  0  0  0  0  0  0  0  0  0  0
   -3.6553    1.0642   -3.4026 C   0  0  0  0  0  0  0  0  0  0  0  0
   -4.0616    0.2620   -4.0360 H   0  0  0  0  0  0  0  0  0  0  0  0
    2.1641   -0.5525    1.6521 C   0  0  0  0  0  0  0  0  0  0  0  0
    2.9510   -1.6817    1.9515 C   0  0  0  0  0  0  0  0  0  0  0  0
    3.4561   -2.2328    1.1448 H   0  0  0  0  0  0  0  0  0  0  0  0
    3.0814   -2.1117    3.2810 C   0  0  0  0  0  0  0  0  0  0  0  0
    3.6923   -2.9991    3.5049 H   0  0  0  0  0  0  0  0  0  0  0  0
    2.4346   -1.4210    4.3173 C   0  0  0  0  0  0  0  0  0  0  0  0
    2.5378   -1.7643    5.3577 H   0  0  0  0  0  0  0  0  0  0  0  0
    1.6496   -0.2942    4.0219 C   0  0  0  0  0  0  0  0  0  0  0  0
    1.1348    0.2508    4.8277 H   0  0  0  0  0  0  0  0  0  0  0  0
    1.5070    0.1346    2.6953 C   0  0  0  0  0  0  0  0  0  0  0  0
    0.8803    1.0100    2.4702 H   0  0  0  0  0  0  0  0  0  0  0  0
    2.4815    1.6673   -0.2573 C   0  0  0  0  0  0  0  0  0  0  0  0
    3.1495    2.3613    0.7670 C   0  0  0  0  0  0  0  0  0  0  0  0
    3.2510    1.9087    1.7639 H   0  0  0  0  0  0  0  0  0  0  0  0
    3.6992    3.6283    0.5121 C   0  0  0  0  0  0  0  0  0  0  0  0
    4.2154    4.1684    1.3201 H   0  0  0  0  0  0  0  0  0  0  0  0
    3.6035    4.1979   -0.7664 C   0  0  0  0  0  0  0  0  0  0  0  0
    4.0482    5.1849   -0.9651 H   0  0  0  0  0  0  0  0  0  0  0  0
    2.9389    3.5058   -1.7937 C   0  0  0  0  0  0  0  0  0  0  0  0
    2.8603    3.9473   -2.7987 H   0  0  0  0  0  0  0  0  0  0  0  0
    2.3705    2.2517   -1.5378 C   0  0  0  0  0  0  0  0  0  0  0  0
    1.8446    1.7081   -2.3396 H   0  0  0  0  0  0  0  0  0  0  0  0
   -0.6909    2.6527    0.7433 C   0  0  0  0  0  0  0  0  0  0  0  0
   -0.0467    3.6335   -0.0410 C   0  0  0  0  0  0  0  0  0  0  0  0
    0.0406    3.4980   -1.1272 H   0  0  0  0  0  0  0  0  0  0  0  0
    0.4749    4.7896    0.5537 C   0  0  0  0  0  0  0  0  0  0  0  0
    0.9687    5.5456   -0.0741 H   0  0  0  0  0  0  0  0  0  0  0  0
    0.3792    4.9752    1.9423 C   0  0  0  0  0  0  0  0  0  0  0  0
    0.7959    5.8807    2.4086 H   0  0  0  0  0  0  0  0  0  0  0  0
   -0.2554    4.0043    2.7311 C   0  0  0  0  0  0  0  0  0  0  0  0
   -0.3448    4.1463    3.8188 H   0  0  0  0  0  0  0  0  0  0  0  0
   -0.7954    2.8531    2.1363 C   0  0  0  0  0  0  0  0  0  0  0  0
   -1.3157    2.1087    2.7570 H   0  0  0  0  0  0  0  0  0  0  0  0
   -2.4628    0.4407    1.2606 C   0  0  0  0  0  0  0  0  0  0  0  0
   -3.7582    0.9645    1.4371 C   0  0  0  0  0  0  0  0  0  0  0  0
   -4.1085    1.7923    0.8014 H   0  0  0  0  0  0  0  0  0  0  0  0
   -4.6042    0.4147    2.4114 C   0  0  0  0  0  0  0  0  0  0  0  0
   -5.6200    0.8180    2.5413 H   0  0  0  0  0  0  0  0  0  0  0  0
   -4.1622   -0.6535    3.2101 C   0  0  0  0  0  0  0  0  0  0  0  0
   -4.8338   -1.0890    3.9655 H   0  0  0  0  0  0  0  0  0  0  0  0
   -2.8719   -1.1766    3.0330 C   0  0  0  0  0  0  0  0  0  0  0  0
   -2.5273   -2.0284    3.6378 H   0  0  0  0  0  0  0  0  0  0  0  0
   -2.0225   -0.6356    2.0578 C   0  0  0  0  0  0  0  0  0  0  0  0
   -1.0201   -1.0627    1.9011 H   0  0  0  0  0  0  0  0  0  0  0  0
  1 39  1  0  0  0  0
  2 61  1  0  0  0  0
  2 72  1  0  0  0  0
  4 28  2  0  0  0  0
  5  7  1  0  0  0  0
  6  8  1  0  0  0  0
  7 15  1  0  0  0  0
  8  7  2  0  0  0  0
  8  9  1  0  0  0  0
  9 11  2  0  0  0  0
 10  9  1  0  0  0  0
 11 12  1  0  0  0  0
 11 13  1  0  0  0  0
 13 14  1  0  0  0  0
 15 16  1  0  0  0  0
 15 13  2  0  0  0  0
 17  3  2  0  0  0  0
 17  5  1  0  0  0  0
 18 19  1  0  0  0  0
 18 17  1  0  0  0  0
 19  1  1  0  0  0  0
 20 21  1  0  0  0  0
 20 19  2  0  0  0  0
 22 20  1  0  0  0  0
 23 22  1  0  0  0  0
 24 26  1  0  0  0  0
 24 22  2  0  0  0  0
 25 24  1  0  0  0  0
 26 18  2  0  0  0  0
 27 26  1  0  0  0  0
 28  6  1  0  0  0  0
 29 28  1  0  0  0  0
 29 30  1  0  0  0  0
 30  2  1  0  0  0  0
 31 30  2  0  0  0  0
 31 32  1  0  0  0  0
 33 31  1  0  0  0  0
 34 33  1  0  0  0  0
 35 37  1  0  0  0  0
 35 33  2  0  0  0  0
 36 35  1  0  0  0  0
 37 29  2  0  0  0  0
 38 37  1  0  0  0  0
 39 40  2  0  0  0  0
 39 48  1  0  0  0  0
 40 42  1  0  0  0  0
 41 40  1  0  0  0  0
 42 43  1  0  0  0  0
 42 44  2  0  0  0  0
 44 45  1  0  0  0  0
 46 44  1  0  0  0  0
 46 47  1  0  0  0  0
 48 46  2  0  0  0  0
 49 48  1  0  0  0  0
 50  1  1  0  0  0  0
 50 51  1  0  0  0  0
 51 52  1  0  0  0  0
 53 51  2  0  0  0  0
 53 54  1  0  0  0  0
 55 53  1  0  0  0  0
 56 55  1  0  0  0  0
 57 59  1  0  0  0  0
 57 55  2  0  0  0  0
 58 57  1  0  0  0  0
 59 50  2  0  0  0  0
 60 59  1  0  0  0  0
 61 70  1  0  0  0  0
 62 64  1  0  0  0  0
 62 61  2  0  0  0  0
 63 62  1  0  0  0  0
 64 66  2  0  0  0  0
 65 64  1  0  0  0  0
 66 67  1  0  0  0  0
 66 68  1  0  0  0  0
 68 69  1  0  0  0  0
 70 68  2  0  0  0  0
 70 71  1  0  0  0  0
 72 73  2  0  0  0  0
 72 81  1  0  0  0  0
 73 75  1  0  0  0  0
 74 73  1  0  0  0  0
 75 76  1  0  0  0  0
 75 77  2  0  0  0  0
 77 78  1  0  0  0  0
 79 77  1  0  0  0  0
 79 80  1  0  0  0  0
 81 79  2  0  0  0  0
 82 81  1  0  0  0  0
M  END
