1,2,3,4
 OpenBabel05122313063D

 76 79  0  0  0  0  0  0  0  0999 V2000
    1.3788    0.7694    0.6434 P   0  0  0  0  0  0  0  0  0  0  0  0
   -1.6790   -0.2844   -0.6144 P   0  0  0  0  0  0  0  0  0  0  0  0
    1.0139   -2.0894    1.4462 N   0  0  0  0  0  2  0  0  0  0  0  0
    0.5969   -2.1498   -1.0170 N   0  0  0  0  0  2  0  0  0  0  0  0
    2.5031   -4.1088    1.5600 C   0  0  0  0  0  0  0  0  0  0  0  0
    3.4238   -3.6147    1.9399 H   0  0  0  0  0  0  0  0  0  0  0  0
    2.8301   -4.9347    0.9034 H   0  0  0  0  0  0  0  0  0  0  0  0
    1.9999   -4.5683    2.4381 H   0  0  0  0  0  0  0  0  0  0  0  0
    1.6057   -3.1463    0.8297 C   0  0  0  0  0  0  0  0  0  0  0  0
    1.3070   -3.2201   -0.5544 C   0  0  0  0  0  0  0  0  0  0  0  0
    1.7393   -4.3315   -1.4690 C   0  0  0  0  0  0  0  0  0  0  0  0
    0.8770   -4.7649   -2.0193 H   0  0  0  0  0  0  0  0  0  0  0  0
    2.2210   -5.1563   -0.9143 H   0  0  0  0  0  0  0  0  0  0  0  0
    2.4621   -3.9891   -2.2437 H   0  0  0  0  0  0  0  0  0  0  0  0
    1.3659   -1.7440    2.8158 C   0  0  0  0  0  0  0  0  0  0  0  0
    1.7622   -2.6246    3.3643 H   0  0  0  0  0  0  0  0  0  0  0  0
    0.4451   -1.4216    3.3442 H   0  0  0  0  0  0  0  0  0  0  0  0
    2.4130   -0.6129    2.8965 C   0  0  0  0  0  0  0  0  0  0  0  0
    2.7521   -0.5294    3.9522 H   0  0  0  0  0  0  0  0  0  0  0  0
    3.3072   -0.9068    2.3038 H   0  0  0  0  0  0  0  0  0  0  0  0
    1.9139    0.7623    2.4374 C   0  0  0  0  0  0  0  0  0  0  0  0
    2.6964    1.5343    2.5920 H   0  0  0  0  0  0  0  0  0  0  0  0
    1.0263    1.0571    3.0346 H   0  0  0  0  0  0  0  0  0  0  0  0
    3.0493    0.7694   -0.1764 C   0  0  0  0  0  0  0  0  0  0  0  0
    3.3961   -0.3300   -0.9827 C   0  0  0  0  0  0  0  0  0  0  0  0
    2.6455   -1.1207   -1.1279 H   0  0  0  0  0  0  0  0  0  0  0  0
    4.6692   -0.4081   -1.5712 C   0  0  0  0  0  0  0  0  0  0  0  0
    4.9293   -1.2748   -2.1988 H   0  0  0  0  0  0  0  0  0  0  0  0
    5.6058    0.6147   -1.3594 C   0  0  0  0  0  0  0  0  0  0  0  0
    6.6031    0.5571   -1.8223 H   0  0  0  0  0  0  0  0  0  0  0  0
    5.2675    1.7158   -0.5533 C   0  0  0  0  0  0  0  0  0  0  0  0
    5.9986    2.5221   -0.3865 H   0  0  0  0  0  0  0  0  0  0  0  0
    3.9983    1.7920    0.0382 C   0  0  0  0  0  0  0  0  0  0  0  0
    3.7370    2.6630    0.6598 H   0  0  0  0  0  0  0  0  0  0  0  0
    0.8514    2.5180    0.3951 C   0  0  0  0  0  0  0  0  0  0  0  0
    1.1647    3.1942   -0.8047 C   0  0  0  0  0  0  0  0  0  0  0  0
    1.7638    2.6847   -1.5753 H   0  0  0  0  0  0  0  0  0  0  0  0
    0.7436    4.5153   -1.0125 C   0  0  0  0  0  0  0  0  0  0  0  0
    1.0111    5.0315   -1.9476 H   0  0  0  0  0  0  0  0  0  0  0  0
   -0.0073    5.1805   -0.0299 C   0  0  0  0  0  0  0  0  0  0  0  0
   -0.3339    6.2193   -0.1897 H   0  0  0  0  0  0  0  0  0  0  0  0
   -0.3547    4.5044    1.1500 C   0  0  0  0  0  0  0  0  0  0  0  0
   -0.9670    5.0066    1.9140 H   0  0  0  0  0  0  0  0  0  0  0  0
    0.0643    3.1830    1.3592 C   0  0  0  0  0  0  0  0  0  0  0  0
   -0.2308    2.6650    2.2836 H   0  0  0  0  0  0  0  0  0  0  0  0
    0.3487   -2.0778   -2.4533 C   0  0  0  0  0  0  0  0  0  0  0  0
   -0.3561   -2.8855   -2.7695 H   0  0  0  0  0  0  0  0  0  0  0  0
    1.2956   -2.2769   -3.0068 H   0  0  0  0  0  0  0  0  0  0  0  0
   -0.1954   -0.7323   -2.9360 C   0  0  0  0  0  0  0  0  0  0  0  0
   -0.1582   -0.7333   -4.0467 H   0  0  0  0  0  0  0  0  0  0  0  0
    0.4867    0.0724   -2.5853 H   0  0  0  0  0  0  0  0  0  0  0  0
   -1.6263   -0.4359   -2.4809 C   0  0  0  0  0  0  0  0  0  0  0  0
   -2.3085   -1.2601   -2.7761 H   0  0  0  0  0  0  0  0  0  0  0  0
   -2.0146    0.4900   -2.9494 H   0  0  0  0  0  0  0  0  0  0  0  0
   -3.0924   -1.4116   -0.1842 C   0  0  0  0  0  0  0  0  0  0  0  0
   -2.8306   -2.5219    0.6384 C   0  0  0  0  0  0  0  0  0  0  0  0
   -1.8055   -2.6460    1.0298 H   0  0  0  0  0  0  0  0  0  0  0  0
   -3.8572   -3.4289    0.9481 C   0  0  0  0  0  0  0  0  0  0  0  0
   -3.6462   -4.2956    1.5938 H   0  0  0  0  0  0  0  0  0  0  0  0
   -5.1496   -3.2294    0.4386 C   0  0  0  0  0  0  0  0  0  0  0  0
   -5.9554   -3.9393    0.6819 H   0  0  0  0  0  0  0  0  0  0  0  0
   -5.4171   -2.1178   -0.3800 C   0  0  0  0  0  0  0  0  0  0  0  0
   -6.4320   -1.9561   -0.7756 H   0  0  0  0  0  0  0  0  0  0  0  0
   -4.3933   -1.2109   -0.6896 C   0  0  0  0  0  0  0  0  0  0  0  0
   -4.6085   -0.3331   -1.3201 H   0  0  0  0  0  0  0  0  0  0  0  0
   -2.4476    1.3589   -0.2845 C   0  0  0  0  0  0  0  0  0  0  0  0
   -3.1528    1.5393    0.9252 C   0  0  0  0  0  0  0  0  0  0  0  0
   -3.2513    0.6949    1.6247 H   0  0  0  0  0  0  0  0  0  0  0  0
   -3.7403    2.7744    1.2310 C   0  0  0  0  0  0  0  0  0  0  0  0
   -4.2973    2.8951    2.1730 H   0  0  0  0  0  0  0  0  0  0  0  0
   -3.6263    3.8510    0.3364 C   0  0  0  0  0  0  0  0  0  0  0  0
   -4.0916    4.8201    0.5730 H   0  0  0  0  0  0  0  0  0  0  0  0
   -2.9038    3.6879   -0.8548 C   0  0  0  0  0  0  0  0  0  0  0  0
   -2.7867    4.5323   -1.5505 H   0  0  0  0  0  0  0  0  0  0  0  0
   -2.3131    2.4526   -1.1609 C   0  0  0  0  0  0  0  0  0  0  0  0
   -1.7333    2.3532   -2.0906 H   0  0  0  0  0  0  0  0  0  0  0  0
  1 21  1  0  0  0  0
  2 66  1  0  0  0  0
  2 55  1  0  0  0  0
  3 15  1  0  0  0  0
  4 10  1  0  0  0  0
  5  6  1  0  0  0  0
  5  8  1  0  0  0  0
  7  5  1  0  0  0  0
  9  3  1  0  0  0  0
  9  5  1  0  0  0  0
 10  9  2  0  0  0  0
 11 13  1  0  0  0  0
 11 10  1  0  0  0  0
 12 11  1  0  0  0  0
 14 11  1  0  0  0  0
 15 18  1  0  0  0  0
 15 17  1  0  0  0  0
 15 16  1  0  0  0  0
 18 19  1  0  0  0  0
 20 18  1  0  0  0  0
 21 22  1  0  0  0  0
 21 18  1  0  0  0  0
 21 23  1  0  0  0  0
 24 33  1  0  0  0  0
 24  1  1  0  0  0  0
 25 24  2  0  0  0  0
 26 25  1  0  0  0  0
 27 29  2  0  0  0  0
 27 25  1  0  0  0  0
 28 27  1  0  0  0  0
 29 31  1  0  0  0  0
 30 29  1  0  0  0  0
 31 32  1  0  0  0  0
 31 33  2  0  0  0  0
 33 34  1  0  0  0  0
 35  1  1  0  0  0  0
 35 44  1  0  0  0  0
 36 35  2  0  0  0  0
 37 36  1  0  0  0  0
 38 36  1  0  0  0  0
 38 40  2  0  0  0  0
 39 38  1  0  0  0  0
 40 42  1  0  0  0  0
 41 40  1  0  0  0  0
 42 44  2  0  0  0  0
 42 43  1  0  0  0  0
 44 45  1  0  0  0  0
 46  4  1  0  0  0  0
 47 46  1  0  0  0  0
 48 46  1  0  0  0  0
 49 51  1  0  0  0  0
 49 52  1  0  0  0  0
 49 46  1  0  0  0  0
 50 49  1  0  0  0  0
 52  2  1  0  0  0  0
 53 52  1  0  0  0  0
 54 52  1  0  0  0  0
 55 56  1  0  0  0  0
 56 58  2  0  0  0  0
 56 57  1  0  0  0  0
 58 59  1  0  0  0  0
 60 61  1  0  0  0  0
 60 58  1  0  0  0  0
 62 60  2  0  0  0  0
 63 62  1  0  0  0  0
 64 62  1  0  0  0  0
 64 55  2  0  0  0  0
 65 64  1  0  0  0  0
 66 67  1  0  0  0  0
 67 69  2  0  0  0  0
 67 68  1  0  0  0  0
 69 70  1  0  0  0  0
 71 72  1  0  0  0  0
 71 69  1  0  0  0  0
 73 71  2  0  0  0  0
 74 73  1  0  0  0  0
 75 73  1  0  0  0  0
 75 66  2  0  0  0  0
 76 75  1  0  0  0  0
M  END
