1,2,3,4
 OpenBabel05122313063D

 62 62  0  0  0  0  0  0  0  0999 V2000
   -1.1565   -1.6587    0.2729 P   0  0  0  0  0  0  0  0  0  0  0  0
   -0.7198    1.8566   -0.0865 P   0  0  0  0  0  0  0  0  0  0  0  0
    1.8747    1.0397   -0.4564 N   0  0  0  0  0  2  0  0  0  0  0  0
    1.6095   -1.3227    0.3421 N   0  0  0  0  0  2  0  0  0  0  0  0
    0.5411    2.9826   -0.7284 C   0  0  0  0  0  0  0  0  0  0  0  0
    0.3863    4.0374   -0.9944 H   0  0  0  0  0  0  0  0  0  0  0  0
    1.7670    2.3740   -0.7673 C   0  0  0  0  0  0  0  0  0  0  0  0
    2.6844    2.9331   -1.0246 H   0  0  0  0  0  0  0  0  0  0  0  0
    3.0928    0.4062   -0.2501 C   0  0  0  0  0  0  0  0  0  0  0  0
    4.3854    0.9532   -0.4106 C   0  0  0  0  0  0  0  0  0  0  0  0
    4.5134    1.9937   -0.7410 H   0  0  0  0  0  0  0  0  0  0  0  0
    5.5135    0.1649   -0.1534 C   0  0  0  0  0  0  0  0  0  0  0  0
    6.5177    0.5944   -0.2878 H   0  0  0  0  0  0  0  0  0  0  0  0
    5.3695   -1.1701    0.2719 C   0  0  0  0  0  0  0  0  0  0  0  0
    6.2608   -1.7849    0.4678 H   0  0  0  0  0  0  0  0  0  0  0  0
    4.0951   -1.7245    0.4473 C   0  0  0  0  0  0  0  0  0  0  0  0
    4.0020   -2.7692    0.7759 H   0  0  0  0  0  0  0  0  0  0  0  0
    2.9452   -0.9440    0.1990 C   0  0  0  0  0  0  0  0  0  0  0  0
    1.2633   -2.5719    0.8231 C   0  0  0  0  0  0  0  0  0  0  0  0
    2.0715   -3.2427    1.1645 H   0  0  0  0  0  0  0  0  0  0  0  0
   -0.0438   -2.9544    0.8818 C   0  0  0  0  0  0  0  0  0  0  0  0
   -0.3556   -3.9470    1.2372 H   0  0  0  0  0  0  0  0  0  0  0  0
   -2.2237   -2.5890   -0.9681 C   0  0  0  0  0  0  0  0  0  0  0  0
   -2.6953   -3.3913   -0.3594 H   0  0  0  0  0  0  0  0  0  0  0  0
   -3.3244   -1.7150   -1.5722 C   0  0  0  0  0  0  0  0  0  0  0  0
   -3.9415   -2.3084   -2.2787 H   0  0  0  0  0  0  0  0  0  0  0  0
   -2.8931   -0.8668   -2.1401 H   0  0  0  0  0  0  0  0  0  0  0  0
   -4.0083   -1.3016   -0.8037 H   0  0  0  0  0  0  0  0  0  0  0  0
   -1.3624   -3.2602   -2.0449 C   0  0  0  0  0  0  0  0  0  0  0  0
   -1.9927   -3.9405   -2.6550 H   0  0  0  0  0  0  0  0  0  0  0  0
   -0.5444   -3.8582   -1.5979 H   0  0  0  0  0  0  0  0  0  0  0  0
   -0.9104   -2.5186   -2.7296 H   0  0  0  0  0  0  0  0  0  0  0  0
   -2.3105   -1.3281    1.7356 C   0  0  0  0  0  0  0  0  0  0  0  0
   -2.8560   -0.4039    1.4468 H   0  0  0  0  0  0  0  0  0  0  0  0
   -3.3239   -2.4394    2.0218 C   0  0  0  0  0  0  0  0  0  0  0  0
   -3.9080   -2.1914    2.9334 H   0  0  0  0  0  0  0  0  0  0  0  0
   -2.8175   -3.4084    2.2133 H   0  0  0  0  0  0  0  0  0  0  0  0
   -4.0486   -2.5861    1.1976 H   0  0  0  0  0  0  0  0  0  0  0  0
   -1.4479   -1.0309    2.9679 C   0  0  0  0  0  0  0  0  0  0  0  0
   -2.0637   -0.5971    3.7830 H   0  0  0  0  0  0  0  0  0  0  0  0
   -0.6302   -0.3229    2.7354 H   0  0  0  0  0  0  0  0  0  0  0  0
   -0.9766   -1.9592    3.3479 H   0  0  0  0  0  0  0  0  0  0  0  0
   -2.3141    2.4710   -0.8544 C   0  0  0  0  0  0  0  0  0  0  0  0
   -2.3023    3.5612   -0.6318 H   0  0  0  0  0  0  0  0  0  0  0  0
   -2.2897    2.2970   -2.3767 C   0  0  0  0  0  0  0  0  0  0  0  0
   -3.1424    2.8394   -2.8354 H   0  0  0  0  0  0  0  0  0  0  0  0
   -2.3712    1.2325   -2.6691 H   0  0  0  0  0  0  0  0  0  0  0  0
   -1.3524    2.6879   -2.8194 H   0  0  0  0  0  0  0  0  0  0  0  0
   -3.5585    1.8505   -0.2162 C   0  0  0  0  0  0  0  0  0  0  0  0
   -4.4775    2.2648   -0.6802 H   0  0  0  0  0  0  0  0  0  0  0  0
   -3.6202    2.0421    0.8736 H   0  0  0  0  0  0  0  0  0  0  0  0
   -3.5750    0.7549   -0.3737 H   0  0  0  0  0  0  0  0  0  0  0  0
   -0.8732    2.3549    1.7369 C   0  0  0  0  0  0  0  0  0  0  0  0
   -1.6282    1.6518    2.1512 H   0  0  0  0  0  0  0  0  0  0  0  0
   -1.3575    3.7934    1.9407 C   0  0  0  0  0  0  0  0  0  0  0  0
   -1.3905    4.0319    3.0249 H   0  0  0  0  0  0  0  0  0  0  0  0
   -2.3729    3.9710    1.5353 H   0  0  0  0  0  0  0  0  0  0  0  0
   -0.6633    4.5152    1.4631 H   0  0  0  0  0  0  0  0  0  0  0  0
    0.4646    2.1141    2.4462 C   0  0  0  0  0  0  0  0  0  0  0  0
    0.3519    2.2590    3.5403 H   0  0  0  0  0  0  0  0  0  0  0  0
    1.2324    2.8263    2.0825 H   0  0  0  0  0  0  0  0  0  0  0  0
    0.8584    1.0941    2.2641 H   0  0  0  0  0  0  0  0  0  0  0  0
  1 21  1  0  0  0  0
  1 33  1  0  0  0  0
  2 53  1  0  0  0  0
  3  9  1  0  0  0  0
  4 19  1  0  0  0  0
  5  2  1  0  0  0  0
  6  5  1  0  0  0  0
  7  5  2  0  0  0  0
  7  3  1  0  0  0  0
  8  7  1  0  0  0  0
  9 18  1  0  0  0  0
 10  9  2  0  0  0  0
 10 12  1  0  0  0  0
 11 10  1  0  0  0  0
 12 14  2  0  0  0  0
 13 12  1  0  0  0  0
 14 16  1  0  0  0  0
 14 15  1  0  0  0  0
 16 17  1  0  0  0  0
 18  4  1  0  0  0  0
 18 16  2  0  0  0  0
 19 21  2  0  0  0  0
 19 20  1  0  0  0  0
 21 22  1  0  0  0  0
 23 24  1  0  0  0  0
 23  1  1  0  0  0  0
 25 23  1  0  0  0  0
 25 28  1  0  0  0  0
 26 25  1  0  0  0  0
 27 25  1  0  0  0  0
 29 31  1  0  0  0  0
 29 23  1  0  0  0  0
 30 29  1  0  0  0  0
 32 29  1  0  0  0  0
 33 35  1  0  0  0  0
 33 39  1  0  0  0  0
 34 33  1  0  0  0  0
 35 37  1  0  0  0  0
 35 36  1  0  0  0  0
 38 35  1  0  0  0  0
 39 42  1  0  0  0  0
 39 40  1  0  0  0  0
 41 39  1  0  0  0  0
 43 44  1  0  0  0  0
 43 49  1  0  0  0  0
 43  2  1  0  0  0  0
 45 43  1  0  0  0  0
 46 45  1  0  0  0  0
 47 45  1  0  0  0  0
 48 45  1  0  0  0  0
 49 51  1  0  0  0  0
 50 49  1  0  0  0  0
 52 49  1  0  0  0  0
 53 55  1  0  0  0  0
 53 54  1  0  0  0  0
 53 59  1  0  0  0  0
 55 56  1  0  0  0  0
 57 55  1  0  0  0  0
 58 55  1  0  0  0  0
 59 60  1  0  0  0  0
 61 59  1  0  0  0  0
 62 59  1  0  0  0  0
M  END
