1,2,3,4
 OpenBabel05122313063D

 78 83  0  0  0  0  0  0  0  0999 V2000
    1.7843    0.1386   -0.0239 P   0  0  0  0  0  0  0  0  0  0  0  0
   -1.7918    0.2552    0.1102 P   0  0  0  0  0  0  0  0  0  0  0  0
    1.1093   -2.9479   -0.1559 N   0  0  0  0  0  2  0  0  0  0  0  0
   -1.4046   -2.7643   -0.5649 N   0  0  0  0  0  2  0  0  0  0  0  0
    1.6182    1.7062   -0.9911 C   0  0  0  0  0  0  0  0  0  0  0  0
    1.7807    1.7342   -2.3947 C   0  0  0  0  0  0  0  0  0  0  0  0
    2.0666    0.8193   -2.9289 H   0  0  0  0  0  0  0  0  0  0  0  0
    1.5370    2.9161   -3.1114 C   0  0  0  0  0  0  0  0  0  0  0  0
    1.6704    2.9217   -4.2040 H   0  0  0  0  0  0  0  0  0  0  0  0
    1.1102    4.0765   -2.4459 C   0  0  0  0  0  0  0  0  0  0  0  0
    0.9117    4.9989   -3.0128 H   0  0  0  0  0  0  0  0  0  0  0  0
    0.9324    4.0507   -1.0543 C   0  0  0  0  0  0  0  0  0  0  0  0
    0.5855    4.9472   -0.5189 H   0  0  0  0  0  0  0  0  0  0  0  0
    1.1876    2.8767   -0.3301 C   0  0  0  0  0  0  0  0  0  0  0  0
    1.0439    2.8751    0.7596 H   0  0  0  0  0  0  0  0  0  0  0  0
    2.5955    0.7481    1.5368 C   0  0  0  0  0  0  0  0  0  0  0  0
    3.5475    1.7907    1.4929 C   0  0  0  0  0  0  0  0  0  0  0  0
    3.7701    2.2957    0.5415 H   0  0  0  0  0  0  0  0  0  0  0  0
    4.2078    2.1977    2.6596 C   0  0  0  0  0  0  0  0  0  0  0  0
    4.9430    3.0157    2.6118 H   0  0  0  0  0  0  0  0  0  0  0  0
    3.9343    1.5645    3.8842 C   0  0  0  0  0  0  0  0  0  0  0  0
    4.4532    1.8871    4.8000 H   0  0  0  0  0  0  0  0  0  0  0  0
    3.0009    0.5193    3.9303 C   0  0  0  0  0  0  0  0  0  0  0  0
    2.7804    0.0149    4.8839 H   0  0  0  0  0  0  0  0  0  0  0  0
    2.3333    0.1089    2.7638 C   0  0  0  0  0  0  0  0  0  0  0  0
    1.5809   -0.6960    2.8061 H   0  0  0  0  0  0  0  0  0  0  0  0
    3.2541   -0.7226   -0.7721 C   0  0  0  0  0  0  0  0  0  0  0  0
    4.2351   -0.0125   -1.4914 C   0  0  0  0  0  0  0  0  0  0  0  0
    4.1275    1.0724   -1.6305 H   0  0  0  0  0  0  0  0  0  0  0  0
    5.3506   -0.6628   -2.0381 C   0  0  0  0  0  0  0  0  0  0  0  0
    6.0998   -0.0842   -2.5993 H   0  0  0  0  0  0  0  0  0  0  0  0
    5.5029   -2.0446   -1.8660 C   0  0  0  0  0  0  0  0  0  0  0  0
    6.3679   -2.5702   -2.2977 H   0  0  0  0  0  0  0  0  0  0  0  0
    4.5458   -2.7560   -1.1293 C   0  0  0  0  0  0  0  0  0  0  0  0
    4.6698   -3.8399   -0.9764 H   0  0  0  0  0  0  0  0  0  0  0  0
    3.4263   -2.1158   -0.5663 C   0  0  0  0  0  0  0  0  0  0  0  0
    2.4890   -2.9437    0.2940 C   0  0  0  0  0  0  0  0  0  0  0  0
    2.8805   -3.9816    0.3597 H   0  0  0  0  0  0  0  0  0  0  0  0
    2.4631   -2.5351    1.3309 H   0  0  0  0  0  0  0  0  0  0  0  0
    0.4981   -4.0859   -0.4173 C   0  0  0  0  0  0  0  0  0  0  0  0
    1.0301   -5.0525   -0.3873 H   0  0  0  0  0  0  0  0  0  0  0  0
   -0.9043   -3.9754   -0.6865 C   0  0  0  0  0  0  0  0  0  0  0  0
   -1.5311   -4.8378   -0.9727 H   0  0  0  0  0  0  0  0  0  0  0  0
   -2.8090   -2.5083   -0.8520 C   0  0  0  0  0  0  0  0  0  0  0  0
   -3.3166   -3.4389   -1.1846 H   0  0  0  0  0  0  0  0  0  0  0  0
   -2.8246   -1.7915   -1.7044 H   0  0  0  0  0  0  0  0  0  0  0  0
   -3.5394   -1.9311    0.3476 C   0  0  0  0  0  0  0  0  0  0  0  0
   -4.5756   -2.6645    0.9483 C   0  0  0  0  0  0  0  0  0  0  0  0
   -4.8443   -3.6492    0.5335 H   0  0  0  0  0  0  0  0  0  0  0  0
   -5.2654   -2.1649    2.0642 C   0  0  0  0  0  0  0  0  0  0  0  0
   -6.0732   -2.7569    2.5204 H   0  0  0  0  0  0  0  0  0  0  0  0
   -4.9139   -0.9173    2.5963 C   0  0  0  0  0  0  0  0  0  0  0  0
   -5.4443   -0.5183    3.4742 H   0  0  0  0  0  0  0  0  0  0  0  0
   -3.8782   -0.1736    2.0095 C   0  0  0  0  0  0  0  0  0  0  0  0
   -3.5969    0.8034    2.4293 H   0  0  0  0  0  0  0  0  0  0  0  0
   -3.1899   -0.6661    0.8882 C   0  0  0  0  0  0  0  0  0  0  0  0
   -2.5984    0.9903   -1.3802 C   0  0  0  0  0  0  0  0  0  0  0  0
   -3.9942    0.9476   -1.5739 C   0  0  0  0  0  0  0  0  0  0  0  0
   -4.6376    0.4501   -0.8331 H   0  0  0  0  0  0  0  0  0  0  0  0
   -4.5688    1.5464   -2.7066 C   0  0  0  0  0  0  0  0  0  0  0  0
   -5.6597    1.5066   -2.8489 H   0  0  0  0  0  0  0  0  0  0  0  0
   -3.7574    2.1986   -3.6483 C   0  0  0  0  0  0  0  0  0  0  0  0
   -4.2100    2.6694   -4.5345 H   0  0  0  0  0  0  0  0  0  0  0  0
   -2.3674    2.2465   -3.4554 C   0  0  0  0  0  0  0  0  0  0  0  0
   -1.7195    2.7527   -4.1872 H   0  0  0  0  0  0  0  0  0  0  0  0
   -1.7874    1.6385   -2.3339 C   0  0  0  0  0  0  0  0  0  0  0  0
   -0.7005    1.6668   -2.1981 H   0  0  0  0  0  0  0  0  0  0  0  0
   -1.5517    1.7362    1.1900 C   0  0  0  0  0  0  0  0  0  0  0  0
   -2.0271    3.0124    0.8267 C   0  0  0  0  0  0  0  0  0  0  0  0
   -2.6109    3.1399   -0.0960 H   0  0  0  0  0  0  0  0  0  0  0  0
   -1.7327    4.1279    1.6269 C   0  0  0  0  0  0  0  0  0  0  0  0
   -2.1009    5.1218    1.3291 H   0  0  0  0  0  0  0  0  0  0  0  0
   -0.9641    3.9806    2.7925 C   0  0  0  0  0  0  0  0  0  0  0  0
   -0.7235    4.8596    3.4101 H   0  0  0  0  0  0  0  0  0  0  0  0
   -0.5059    2.7064    3.1680 C   0  0  0  0  0  0  0  0  0  0  0  0
    0.1000    2.5783    4.0780 H   0  0  0  0  0  0  0  0  0  0  0  0
   -0.7994    1.5881    2.3751 C   0  0  0  0  0  0  0  0  0  0  0  0
   -0.4486    0.5851    2.6631 H   0  0  0  0  0  0  0  0  0  0  0  0
  1 16  1  0  0  0  0
  2 56  1  0  0  0  0
  2 68  1  0  0  0  0
  3 37  1  0  0  0  0
  5 14  1  0  0  0  0
  5  1  1  0  0  0  0
  6  5  2  0  0  0  0
  7  6  1  0  0  0  0
  8 10  2  0  0  0  0
  8  6  1  0  0  0  0
  9  8  1  0  0  0  0
 10 12  1  0  0  0  0
 11 10  1  0  0  0  0
 12 13  1  0  0  0  0
 12 14  2  0  0  0  0
 14 15  1  0  0  0  0
 16 25  1  0  0  0  0
 17 16  2  0  0  0  0
 17 19  1  0  0  0  0
 18 17  1  0  0  0  0
 19 21  2  0  0  0  0
 20 19  1  0  0  0  0
 21 23  1  0  0  0  0
 21 22  1  0  0  0  0
 23 24  1  0  0  0  0
 25 26  1  0  0  0  0
 25 23  2  0  0  0  0
 27 36  1  0  0  0  0
 27  1  1  0  0  0  0
 28 27  2  0  0  0  0
 29 28  1  0  0  0  0
 30 32  2  0  0  0  0
 30 28  1  0  0  0  0
 31 30  1  0  0  0  0
 32 34  1  0  0  0  0
 33 32  1  0  0  0  0
 34 35  1  0  0  0  0
 34 36  2  0  0  0  0
 36 37  1  0  0  0  0
 37 38  1  0  0  0  0
 37 39  1  0  0  0  0
 40 41  1  0  0  0  0
 40  3  1  0  0  0  0
 42  4  1  0  0  0  0
 42 40  2  0  0  0  0
 43 42  1  0  0  0  0
 44  4  1  0  0  0  0
 44 47  1  0  0  0  0
 45 44  1  0  0  0  0
 46 44  1  0  0  0  0
 47 56  2  0  0  0  0
 47 48  1  0  0  0  0
 48 50  2  0  0  0  0
 49 48  1  0  0  0  0
 50 51  1  0  0  0  0
 50 52  1  0  0  0  0
 52 53  1  0  0  0  0
 54 55  1  0  0  0  0
 54 52  2  0  0  0  0
 56 54  1  0  0  0  0
 57  2  1  0  0  0  0
 58 57  1  0  0  0  0
 58 59  1  0  0  0  0
 60 58  2  0  0  0  0
 61 60  1  0  0  0  0
 62 64  2  0  0  0  0
 62 60  1  0  0  0  0
 63 62  1  0  0  0  0
 64 66  1  0  0  0  0
 65 64  1  0  0  0  0
 66 67  1  0  0  0  0
 66 57  2  0  0  0  0
 68 77  1  0  0  0  0
 69 68  2  0  0  0  0
 69 71  1  0  0  0  0
 70 69  1  0  0  0  0
 71 73  2  0  0  0  0
 72 71  1  0  0  0  0
 73 75  1  0  0  0  0
 73 74  1  0  0  0  0
 75 76  1  0  0  0  0
 77 78  1  0  0  0  0
 77 75  2  0  0  0  0
M  END
