1,2,3,4
 OpenBabel05122313063D

 80 82  0  0  0  0  0  0  0  0999 V2000
   -1.1019    2.0349   -0.1034 P   0  0  0  0  0  0  0  0  0  0  0  0
   -1.1029   -2.0344    0.1034 P   0  0  0  0  0  0  0  0  0  0  0  0
    1.6746    1.2821   -0.2603 N   0  0  0  0  0  2  0  0  0  0  0  0
    1.6740   -1.2829    0.2603 N   0  0  0  0  0  2  0  0  0  0  0  0
    0.1877    2.9941   -1.0983 C   0  0  0  0  0  0  0  0  0  0  0  0
    0.0119    2.6585   -2.1447 H   0  0  0  0  0  0  0  0  0  0  0  0
    0.0753    4.0950   -1.0574 H   0  0  0  0  0  0  0  0  0  0  0  0
    1.5737    2.5403   -0.7455 C   0  0  0  0  0  0  0  0  0  0  0  0
    2.7456    3.3020   -0.9750 C   0  0  0  0  0  0  0  0  0  0  0  0
    2.6399    4.3358   -1.3344 H   0  0  0  0  0  0  0  0  0  0  0  0
    4.0116    2.7529   -0.7638 C   0  0  0  0  0  0  0  0  0  0  0  0
    4.9180    3.3541   -0.9304 H   0  0  0  0  0  0  0  0  0  0  0  0
    4.1244    1.3936   -0.3697 C   0  0  0  0  0  0  0  0  0  0  0  0
    2.9078    0.6940   -0.1568 C   0  0  0  0  0  0  0  0  0  0  0  0
    5.3523    0.6645   -0.1824 C   0  0  0  0  0  0  0  0  0  0  0  0
    6.3048    1.1951   -0.3329 H   0  0  0  0  0  0  0  0  0  0  0  0
    5.3520   -0.6670    0.1824 C   0  0  0  0  0  0  0  0  0  0  0  0
    6.3043   -1.1981    0.3330 H   0  0  0  0  0  0  0  0  0  0  0  0
    4.1237   -1.3955    0.3697 C   0  0  0  0  0  0  0  0  0  0  0  0
    2.9074   -0.6954    0.1568 C   0  0  0  0  0  0  0  0  0  0  0  0
    4.0103   -2.7548    0.7639 C   0  0  0  0  0  0  0  0  0  0  0  0
    4.9164   -3.3565    0.9305 H   0  0  0  0  0  0  0  0  0  0  0  0
    2.7440   -3.3033    0.9751 C   0  0  0  0  0  0  0  0  0  0  0  0
    2.6378   -4.3370    1.3345 H   0  0  0  0  0  0  0  0  0  0  0  0
    1.5725   -2.5410    0.7455 C   0  0  0  0  0  0  0  0  0  0  0  0
    0.1862   -2.9941    1.0983 C   0  0  0  0  0  0  0  0  0  0  0  0
    0.0106   -2.6585    2.1447 H   0  0  0  0  0  0  0  0  0  0  0  0
    0.0733   -4.0950    1.0575 H   0  0  0  0  0  0  0  0  0  0  0  0
   -1.2191    3.1641    1.4667 C   0  0  0  0  0  0  0  0  0  0  0  0
    0.2168    3.3750    1.9910 C   0  0  0  0  0  0  0  0  0  0  0  0
    0.1557    3.9214    2.9565 H   0  0  0  0  0  0  0  0  0  0  0  0
    0.8289    3.9947    1.3066 H   0  0  0  0  0  0  0  0  0  0  0  0
    0.7313    2.4137    2.1793 H   0  0  0  0  0  0  0  0  0  0  0  0
   -1.8147    4.5505    1.1671 C   0  0  0  0  0  0  0  0  0  0  0  0
   -2.8843    4.5142    0.8888 H   0  0  0  0  0  0  0  0  0  0  0  0
   -1.2637    5.0917    0.3718 H   0  0  0  0  0  0  0  0  0  0  0  0
   -1.7389    5.1673    2.0882 H   0  0  0  0  0  0  0  0  0  0  0  0
   -2.0447    2.4714    2.5656 C   0  0  0  0  0  0  0  0  0  0  0  0
   -2.0531    3.1217    3.4670 H   0  0  0  0  0  0  0  0  0  0  0  0
   -1.5830    1.5060    2.8447 H   0  0  0  0  0  0  0  0  0  0  0  0
   -3.0964    2.3032    2.2710 H   0  0  0  0  0  0  0  0  0  0  0  0
   -2.7169    2.2742   -1.1418 C   0  0  0  0  0  0  0  0  0  0  0  0
   -3.9470    2.1234   -0.2290 C   0  0  0  0  0  0  0  0  0  0  0  0
   -4.0791    2.9690    0.4712 H   0  0  0  0  0  0  0  0  0  0  0  0
   -3.9045    1.1868    0.3619 H   0  0  0  0  0  0  0  0  0  0  0  0
   -4.8577    2.0727   -0.8629 H   0  0  0  0  0  0  0  0  0  0  0  0
   -2.7589    1.1333   -2.1687 C   0  0  0  0  0  0  0  0  0  0  0  0
   -2.7104    0.1491   -1.6674 H   0  0  0  0  0  0  0  0  0  0  0  0
   -1.9091    1.1653   -2.8754 H   0  0  0  0  0  0  0  0  0  0  0  0
   -3.7082    1.1960   -2.7427 H   0  0  0  0  0  0  0  0  0  0  0  0
   -2.7705    3.6125   -1.8992 C   0  0  0  0  0  0  0  0  0  0  0  0
   -3.7222    3.6600   -2.4712 H   0  0  0  0  0  0  0  0  0  0  0  0
   -1.9496    3.6989   -2.6372 H   0  0  0  0  0  0  0  0  0  0  0  0
   -2.7385    4.4957   -1.2371 H   0  0  0  0  0  0  0  0  0  0  0  0
   -2.7181   -2.2729    1.1417 C   0  0  0  0  0  0  0  0  0  0  0  0
   -2.7724   -3.6111    1.8993 C   0  0  0  0  0  0  0  0  0  0  0  0
   -1.9516   -3.6978    2.6374 H   0  0  0  0  0  0  0  0  0  0  0  0
   -2.7408   -4.4944    1.2373 H   0  0  0  0  0  0  0  0  0  0  0  0
   -3.7242   -3.6580    2.4712 H   0  0  0  0  0  0  0  0  0  0  0  0
   -3.9481   -2.1216    0.2289 C   0  0  0  0  0  0  0  0  0  0  0  0
   -4.0806   -2.9671   -0.4712 H   0  0  0  0  0  0  0  0  0  0  0  0
   -3.9051   -1.1850   -0.3620 H   0  0  0  0  0  0  0  0  0  0  0  0
   -4.8588   -2.0704    0.8628 H   0  0  0  0  0  0  0  0  0  0  0  0
   -2.7596   -1.1319    2.1686 C   0  0  0  0  0  0  0  0  0  0  0  0
   -3.7090   -1.1942    2.7425 H   0  0  0  0  0  0  0  0  0  0  0  0
   -2.7108   -0.1477    1.6672 H   0  0  0  0  0  0  0  0  0  0  0  0
   -1.9099   -1.1642    2.8754 H   0  0  0  0  0  0  0  0  0  0  0  0
   -1.2206   -3.1636   -1.4667 C   0  0  0  0  0  0  0  0  0  0  0  0
   -1.8168   -4.5497   -1.1671 C   0  0  0  0  0  0  0  0  0  0  0  0
   -2.8864   -4.5130   -0.8887 H   0  0  0  0  0  0  0  0  0  0  0  0
   -1.2660   -5.0912   -0.3718 H   0  0  0  0  0  0  0  0  0  0  0  0
   -1.7413   -5.1665   -2.0882 H   0  0  0  0  0  0  0  0  0  0  0  0
   -2.0459   -2.4707   -2.5657 C   0  0  0  0  0  0  0  0  0  0  0  0
   -1.5837   -1.5055   -2.8448 H   0  0  0  0  0  0  0  0  0  0  0  0
   -3.0976   -2.3020   -2.2710 H   0  0  0  0  0  0  0  0  0  0  0  0
   -2.0546   -3.1210   -3.4670 H   0  0  0  0  0  0  0  0  0  0  0  0
    0.2151   -3.3753   -1.9910 C   0  0  0  0  0  0  0  0  0  0  0  0
    0.1538   -3.9217   -2.9565 H   0  0  0  0  0  0  0  0  0  0  0  0
    0.8270   -3.9954   -1.3067 H   0  0  0  0  0  0  0  0  0  0  0  0
    0.7302   -2.4143   -2.1793 H   0  0  0  0  0  0  0  0  0  0  0  0
  1 29  1  0  0  0  0
  2 26  1  0  0  0  0
  2 55  1  0  0  0  0
  3 14  1  0  0  0  0
  4 25  1  0  0  0  0
  5  7  1  0  0  0  0
  5  8  1  0  0  0  0
  5  1  1  0  0  0  0
  6  5  1  0  0  0  0
  8  3  1  0  0  0  0
  9 11  1  0  0  0  0
  9  8  2  0  0  0  0
 10  9  1  0  0  0  0
 11 13  2  0  0  0  0
 12 11  1  0  0  0  0
 13 15  1  0  0  0  0
 13 14  1  0  0  0  0
 14 20  2  0  0  0  0
 15 17  2  0  0  0  0
 16 15  1  0  0  0  0
 17 18  1  0  0  0  0
 17 19  1  0  0  0  0
 19 21  2  0  0  0  0
 20  4  1  0  0  0  0
 20 19  1  0  0  0  0
 21 22  1  0  0  0  0
 21 23  1  0  0  0  0
 23 24  1  0  0  0  0
 25 23  2  0  0  0  0
 25 26  1  0  0  0  0
 26 27  1  0  0  0  0
 28 26  1  0  0  0  0
 29 30  1  0  0  0  0
 29 38  1  0  0  0  0
 30 33  1  0  0  0  0
 30 31  1  0  0  0  0
 32 30  1  0  0  0  0
 34 29  1  0  0  0  0
 34 37  1  0  0  0  0
 35 34  1  0  0  0  0
 36 34  1  0  0  0  0
 38 40  1  0  0  0  0
 38 39  1  0  0  0  0
 41 38  1  0  0  0  0
 42 43  1  0  0  0  0
 42  1  1  0  0  0  0
 43 45  1  0  0  0  0
 43 44  1  0  0  0  0
 46 43  1  0  0  0  0
 47 48  1  0  0  0  0
 47 42  1  0  0  0  0
 49 47  1  0  0  0  0
 50 47  1  0  0  0  0
 51 54  1  0  0  0  0
 51 42  1  0  0  0  0
 52 51  1  0  0  0  0
 53 51  1  0  0  0  0
 55 56  1  0  0  0  0
 55 64  1  0  0  0  0
 56 59  1  0  0  0  0
 56 57  1  0  0  0  0
 58 56  1  0  0  0  0
 60 63  1  0  0  0  0
 60 55  1  0  0  0  0
 61 60  1  0  0  0  0
 62 60  1  0  0  0  0
 64 65  1  0  0  0  0
 64 67  1  0  0  0  0
 66 64  1  0  0  0  0
 68 69  1  0  0  0  0
 68  2  1  0  0  0  0
 69 70  1  0  0  0  0
 69 71  1  0  0  0  0
 72 69  1  0  0  0  0
 73 75  1  0  0  0  0
 73 68  1  0  0  0  0
 74 73  1  0  0  0  0
 76 73  1  0  0  0  0
 77 68  1  0  0  0  0
 77 79  1  0  0  0  0
 78 77  1  0  0  0  0
 80 77  1  0  0  0  0
M  END
