1,2,3,4
 OpenBabel05122313063D

 80 83  0  0  0  0  0  0  0  0999 V2000
   -1.6904    0.0762   -1.0094 P   0  0  0  0  0  0  0  0  0  0  0  0
    1.6903    0.0762    1.0094 P   0  0  0  0  0  0  0  0  0  0  0  0
    0.3858    2.7626   -1.4553 N   0  0  0  0  0  0  0  0  0  0  0  0
   -0.3859    2.7625    1.4554 N   0  0  0  0  0  0  0  0  0  0  0  0
   -2.4081    1.1465   -2.3565 C   0  0  0  0  0  0  0  0  0  0  0  0
   -1.3165    1.8622   -3.1643 C   0  0  0  0  0  0  0  0  0  0  0  0
   -0.6716    3.0587   -2.4598 C   0  0  0  0  0  0  0  0  0  0  0  0
    0.5355    3.9207   -0.5450 C   0  0  0  0  0  0  0  0  0  0  0  0
   -0.5355    3.9207    0.5452 C   0  0  0  0  0  0  0  0  0  0  0  0
    0.6716    3.0586    2.4600 C   0  0  0  0  0  0  0  0  0  0  0  0
    1.3165    1.8620    3.1644 C   0  0  0  0  0  0  0  0  0  0  0  0
    2.4081    1.1464    2.3565 C   0  0  0  0  0  0  0  0  0  0  0  0
   -3.1577   -0.5460   -0.0965 C   0  0  0  0  0  0  0  0  0  0  0  0
   -3.1679   -1.8610    0.4200 C   0  0  0  0  0  0  0  0  0  0  0  0
   -4.2338   -2.3026    1.2176 C   0  0  0  0  0  0  0  0  0  0  0  0
   -5.3008   -1.4406    1.5171 C   0  0  0  0  0  0  0  0  0  0  0  0
   -5.2983   -0.1316    1.0106 C   0  0  0  0  0  0  0  0  0  0  0  0
   -4.2347    0.3143    0.2116 C   0  0  0  0  0  0  0  0  0  0  0  0
   -1.1056   -1.3559   -2.0038 C   0  0  0  0  0  0  0  0  0  0  0  0
    0.2792   -1.4963   -2.2174 C   0  0  0  0  0  0  0  0  0  0  0  0
    0.7710   -2.5161   -3.0472 C   0  0  0  0  0  0  0  0  0  0  0  0
   -0.1205   -3.4069   -3.6631 C   0  0  0  0  0  0  0  0  0  0  0  0
   -1.5044   -3.2732   -3.4533 C   0  0  0  0  0  0  0  0  0  0  0  0
   -1.9987   -2.2500   -2.6325 C   0  0  0  0  0  0  0  0  0  0  0  0
    1.6531    2.4512   -2.1393 C   0  0  0  0  0  0  0  0  0  0  0  0
   -1.6531    2.4511    2.1394 C   0  0  0  0  0  0  0  0  0  0  0  0
    1.1057   -1.3560    2.0038 C   0  0  0  0  0  0  0  0  0  0  0  0
    1.9988   -2.2501    2.6323 C   0  0  0  0  0  0  0  0  0  0  0  0
    1.5044   -3.2734    3.4531 C   0  0  0  0  0  0  0  0  0  0  0  0
    0.1206   -3.4072    3.6629 C   0  0  0  0  0  0  0  0  0  0  0  0
   -0.7710   -2.5163    3.0471 C   0  0  0  0  0  0  0  0  0  0  0  0
   -0.2791   -1.4965    2.2173 C   0  0  0  0  0  0  0  0  0  0  0  0
    3.1577   -0.5460    0.0964 C   0  0  0  0  0  0  0  0  0  0  0  0
    4.2346    0.3144   -0.2116 C   0  0  0  0  0  0  0  0  0  0  0  0
    5.2983   -0.1315   -1.0106 C   0  0  0  0  0  0  0  0  0  0  0  0
    5.3009   -1.4404   -1.5172 C   0  0  0  0  0  0  0  0  0  0  0  0
    4.2338   -2.3025   -1.2177 C   0  0  0  0  0  0  0  0  0  0  0  0
    3.1679   -1.8609   -0.4201 C   0  0  0  0  0  0  0  0  0  0  0  0
   -3.0852    1.8938   -1.8923 H   0  0  0  0  0  0  0  0  0  0  0  0
   -3.0312    0.5036   -3.0112 H   0  0  0  0  0  0  0  0  0  0  0  0
   -1.7804    2.2528   -4.0935 H   0  0  0  0  0  0  0  0  0  0  0  0
   -0.5468    1.1379   -3.5078 H   0  0  0  0  0  0  0  0  0  0  0  0
   -1.4741    3.6308   -1.9514 H   0  0  0  0  0  0  0  0  0  0  0  0
   -0.2365    3.7490   -3.2217 H   0  0  0  0  0  0  0  0  0  0  0  0
    1.5418    3.8633   -0.0832 H   0  0  0  0  0  0  0  0  0  0  0  0
    0.5047    4.8839   -1.1084 H   0  0  0  0  0  0  0  0  0  0  0  0
   -1.5418    3.8633    0.0834 H   0  0  0  0  0  0  0  0  0  0  0  0
   -0.5047    4.8839    1.1087 H   0  0  0  0  0  0  0  0  0  0  0  0
    1.4741    3.6307    1.9516 H   0  0  0  0  0  0  0  0  0  0  0  0
    0.2365    3.7489    3.2219 H   0  0  0  0  0  0  0  0  0  0  0  0
    1.7803    2.2525    4.0937 H   0  0  0  0  0  0  0  0  0  0  0  0
    0.5468    1.1377    3.5078 H   0  0  0  0  0  0  0  0  0  0  0  0
    3.0851    1.8937    1.8924 H   0  0  0  0  0  0  0  0  0  0  0  0
    3.0312    0.5034    3.0112 H   0  0  0  0  0  0  0  0  0  0  0  0
   -2.3389   -2.5476    0.1922 H   0  0  0  0  0  0  0  0  0  0  0  0
   -4.2323   -3.3339    1.6021 H   0  0  0  0  0  0  0  0  0  0  0  0
   -6.1374   -1.7904    2.1399 H   0  0  0  0  0  0  0  0  0  0  0  0
   -6.1343    0.5484    1.2329 H   0  0  0  0  0  0  0  0  0  0  0  0
   -4.2582    1.3435   -0.1786 H   0  0  0  0  0  0  0  0  0  0  0  0
    0.9712   -0.7979   -1.7213 H   0  0  0  0  0  0  0  0  0  0  0  0
    1.8559   -2.6132   -3.2040 H   0  0  0  0  0  0  0  0  0  0  0  0
    0.2613   -4.2108   -4.3103 H   0  0  0  0  0  0  0  0  0  0  0  0
   -2.2044   -3.9718   -3.9358 H   0  0  0  0  0  0  0  0  0  0  0  0
   -3.0841   -2.1518   -2.4743 H   0  0  0  0  0  0  0  0  0  0  0  0
    1.5226    1.5650   -2.7884 H   0  0  0  0  0  0  0  0  0  0  0  0
    2.4345    2.2056   -1.3962 H   0  0  0  0  0  0  0  0  0  0  0  0
    2.0018    3.3018   -2.7719 H   0  0  0  0  0  0  0  0  0  0  0  0
   -2.4345    2.2056    1.3963 H   0  0  0  0  0  0  0  0  0  0  0  0
   -2.0019    3.3017    2.7721 H   0  0  0  0  0  0  0  0  0  0  0  0
   -1.5226    1.5649    2.7885 H   0  0  0  0  0  0  0  0  0  0  0  0
    3.0842   -2.1519    2.4742 H   0  0  0  0  0  0  0  0  0  0  0  0
    2.2045   -3.9720    3.9356 H   0  0  0  0  0  0  0  0  0  0  0  0
   -0.2612   -4.2111    4.3100 H   0  0  0  0  0  0  0  0  0  0  0  0
   -1.8559   -2.6134    3.2038 H   0  0  0  0  0  0  0  0  0  0  0  0
   -0.9712   -0.7980    1.7213 H   0  0  0  0  0  0  0  0  0  0  0  0
    4.2582    1.3436    0.1787 H   0  0  0  0  0  0  0  0  0  0  0  0
    6.1343    0.5485   -1.2328 H   0  0  0  0  0  0  0  0  0  0  0  0
    6.1374   -1.7902   -2.1400 H   0  0  0  0  0  0  0  0  0  0  0  0
    4.2324   -3.3338   -1.6023 H   0  0  0  0  0  0  0  0  0  0  0  0
    2.3389   -2.5475   -0.1923 H   0  0  0  0  0  0  0  0  0  0  0  0
  1 13  1  0  0  0  0
  2 27  1  0  0  0  0
  2 12  1  0  0  0  0
  3  8  1  0  0  0  0
  4 26  1  0  0  0  0
  4 10  1  0  0  0  0
  5 39  1  0  0  0  0
  5  1  1  0  0  0  0
  6  7  1  0  0  0  0
  6  5  1  0  0  0  0
  7 43  1  0  0  0  0
  7  3  1  0  0  0  0
  8 45  1  0  0  0  0
  8  9  1  0  0  0  0
  9 48  1  0  0  0  0
  9  4  1  0  0  0  0
 10 11  1  0  0  0  0
 10 50  1  0  0  0  0
 11 52  1  0  0  0  0
 11 51  1  0  0  0  0
 12 54  1  0  0  0  0
 12 11  1  0  0  0  0
 13 18  2  0  0  0  0
 13 14  1  0  0  0  0
 14 15  2  0  0  0  0
 15 16  1  0  0  0  0
 15 56  1  0  0  0  0
 16 57  1  0  0  0  0
 17 58  1  0  0  0  0
 17 16  2  0  0  0  0
 18 17  1  0  0  0  0
 19  1  1  0  0  0  0
 20 19  1  0  0  0  0
 20 60  1  0  0  0  0
 21 20  2  0  0  0  0
 22 23  2  0  0  0  0
 22 21  1  0  0  0  0
 23 24  1  0  0  0  0
 24 64  1  0  0  0  0
 24 19  2  0  0  0  0
 25  3  1  0  0  0  0
 25 66  1  0  0  0  0
 26 69  1  0  0  0  0
 26 70  1  0  0  0  0
 27 32  2  0  0  0  0
 27 28  1  0  0  0  0
 28 29  2  0  0  0  0
 29 30  1  0  0  0  0
 29 72  1  0  0  0  0
 30 73  1  0  0  0  0
 31 74  1  0  0  0  0
 31 30  2  0  0  0  0
 32 31  1  0  0  0  0
 33  2  1  0  0  0  0
 34 33  1  0  0  0  0
 34 76  1  0  0  0  0
 35 34  2  0  0  0  0
 36 37  2  0  0  0  0
 36 35  1  0  0  0  0
 37 38  1  0  0  0  0
 38 80  1  0  0  0  0
 38 33  2  0  0  0  0
 40  5  1  0  0  0  0
 41  6  1  0  0  0  0
 42  6  1  0  0  0  0
 44  7  1  0  0  0  0
 46  8  1  0  0  0  0
 47  9  1  0  0  0  0
 49 10  1  0  0  0  0
 53 12  1  0  0  0  0
 55 14  1  0  0  0  0
 59 18  1  0  0  0  0
 61 21  1  0  0  0  0
 62 22  1  0  0  0  0
 63 23  1  0  0  0  0
 65 25  1  0  0  0  0
 67 25  1  0  0  0  0
 68 26  1  0  0  0  0
 71 28  1  0  0  0  0
 75 32  1  0  0  0  0
 77 35  1  0  0  0  0
 78 36  1  0  0  0  0
 79 37  1  0  0  0  0
M  END
