1,2,3,4
q = 0.0, confidence = 0.994

 81 86  0  0  0  0  0  0  0  0999 V2000
    1.7379    0.1977   -0.0320 P   0  0  0  0  0  0  0  0  0  0  0  0
   -1.7355    0.3474   -0.0422 P   0  0  0  0  0  0  0  0  0  0  0  0
    1.2208   -2.8775   -0.0840 N   0  0  0  0  0  2  0  0  0  0  0  0
   -1.6036   -2.6351    0.4198 N   0  0  0  0  0  2  0  0  0  0  0  0
    0.5784   -4.0874   -0.6119 C   0  0  0  0  0  0  0  0  0  0  0  0
    1.3464   -4.8092   -0.9641 H   0  0  0  0  0  0  0  0  0  0  0  0
   -0.0135   -3.7593   -1.4926 H   0  0  0  0  0  0  0  0  0  0  0  0
   -0.3263   -4.7608    0.4255 C   0  0  0  0  0  0  0  0  0  0  0  0
    0.2821   -5.3627    1.1331 H   0  0  0  0  0  0  0  0  0  0  0  0
   -0.9897   -5.4674   -0.1170 H   0  0  0  0  0  0  0  0  0  0  0  0
   -1.1629   -3.7675    1.2418 C   0  0  0  0  0  0  0  0  0  0  0  0
   -2.0385   -4.2848    1.6893 H   0  0  0  0  0  0  0  0  0  0  0  0
   -0.5594   -3.3306    2.0655 H   0  0  0  0  0  0  0  0  0  0  0  0
    2.4765   -3.0050    0.2367 C   0  0  0  0  0  3  0  0  0  0  0  0
    2.9184   -4.0163    0.1191 H   0  0  0  0  0  0  0  0  0  0  0  0
   -2.8484   -2.6606    0.0358 C   0  0  0  0  0  3  0  0  0  0  0  0
   -3.4480   -3.5444    0.3373 H   0  0  0  0  0  0  0  0  0  0  0  0
    3.4312   -2.0095    0.7079 C   0  0  0  0  0  0  0  0  0  0  0  0
    4.6649   -2.5373    1.1733 C   0  0  0  0  0  0  0  0  0  0  0  0
    4.7926   -3.6313    1.1909 H   0  0  0  0  0  0  0  0  0  0  0  0
    5.7031   -1.7125    1.6073 C   0  0  0  0  0  0  0  0  0  0  0  0
    6.6412   -2.1529    1.9769 H   0  0  0  0  0  0  0  0  0  0  0  0
    5.5416   -0.3192    1.5505 C   0  0  0  0  0  0  0  0  0  0  0  0
    6.3521    0.3514    1.8735 H   0  0  0  0  0  0  0  0  0  0  0  0
    4.3404    0.2196    1.0704 C   0  0  0  0  0  0  0  0  0  0  0  0
    4.2305    1.3122    1.0195 H   0  0  0  0  0  0  0  0  0  0  0  0
    3.2681   -0.5977    0.6657 C   0  0  0  0  0  0  0  0  0  0  0  0
   -3.5834   -1.6849   -0.7628 C   0  0  0  0  0  0  0  0  0  0  0  0
   -4.7849   -2.1430   -1.3562 C   0  0  0  0  0  0  0  0  0  0  0  0
   -5.0890   -3.1893   -1.1943 H   0  0  0  0  0  0  0  0  0  0  0  0
   -5.5694   -1.3058   -2.1556 C   0  0  0  0  0  0  0  0  0  0  0  0
   -6.4877   -1.6921   -2.6226 H   0  0  0  0  0  0  0  0  0  0  0  0
   -5.1764    0.0261   -2.3526 C   0  0  0  0  0  0  0  0  0  0  0  0
   -5.7814    0.6987   -2.9793 H   0  0  0  0  0  0  0  0  0  0  0  0
   -4.0108    0.5088   -1.7350 C   0  0  0  0  0  0  0  0  0  0  0  0
   -3.7212    1.5604   -1.8733 H   0  0  0  0  0  0  0  0  0  0  0  0
   -3.2059   -0.3253   -0.9429 C   0  0  0  0  0  0  0  0  0  0  0  0
   -2.5008    0.9169    1.5389 C   0  0  0  0  0  0  0  0  0  0  0  0
   -3.8741    0.7719    1.8198 C   0  0  0  0  0  0  0  0  0  0  0  0
   -4.5449    0.3160    1.0772 H   0  0  0  0  0  0  0  0  0  0  0  0
   -4.3950    1.2154    3.0462 C   0  0  0  0  0  0  0  0  0  0  0  0
   -5.4693    1.0963    3.2555 H   0  0  0  0  0  0  0  0  0  0  0  0
   -3.5531    1.8115    3.9976 C   0  0  0  0  0  0  0  0  0  0  0  0
   -3.9645    2.1609    4.9571 H   0  0  0  0  0  0  0  0  0  0  0  0
   -2.1837    1.9559    3.7216 C   0  0  0  0  0  0  0  0  0  0  0  0
   -1.5106    2.4155    4.4614 H   0  0  0  0  0  0  0  0  0  0  0  0
   -1.6563    1.5014    2.5060 C   0  0  0  0  0  0  0  0  0  0  0  0
   -0.5826    1.5995    2.3071 H   0  0  0  0  0  0  0  0  0  0  0  0
   -1.4455    1.9243   -0.9622 C   0  0  0  0  0  0  0  0  0  0  0  0
   -1.8952    3.1710   -0.4853 C   0  0  0  0  0  0  0  0  0  0  0  0
   -2.4405    3.2301    0.4678 H   0  0  0  0  0  0  0  0  0  0  0  0
   -1.6261    4.3408   -1.2142 C   0  0  0  0  0  0  0  0  0  0  0  0
   -1.9735    5.3126   -0.8305 H   0  0  0  0  0  0  0  0  0  0  0  0
   -0.9078    4.2742   -2.4189 C   0  0  0  0  0  0  0  0  0  0  0  0
   -0.6876    5.1945   -2.9815 H   0  0  0  0  0  0  0  0  0  0  0  0
   -0.4743    3.0287   -2.9053 C   0  0  0  0  0  0  0  0  0  0  0  0
    0.0909    2.9651   -3.8477 H   0  0  0  0  0  0  0  0  0  0  0  0
   -0.7447    1.8562   -2.1853 C   0  0  0  0  0  0  0  0  0  0  0  0
   -0.4187    0.8749   -2.5647 H   0  0  0  0  0  0  0  0  0  0  0  0
    1.6377    1.7327    1.0065 C   0  0  0  0  0  0  0  0  0  0  0  0
    1.9079    1.6659    2.3933 C   0  0  0  0  0  0  0  0  0  0  0  0
    2.2147    0.7119    2.8407 H   0  0  0  0  0  0  0  0  0  0  0  0
    1.7523    2.7996    3.2034 C   0  0  0  0  0  0  0  0  0  0  0  0
    1.9629    2.7258    4.2812 H   0  0  0  0  0  0  0  0  0  0  0  0
    1.3224    4.0162    2.6483 C   0  0  0  0  0  0  0  0  0  0  0  0
    1.1958    4.9036    3.2873 H   0  0  0  0  0  0  0  0  0  0  0  0
    1.0573    4.0917    1.2737 C   0  0  0  0  0  0  0  0  0  0  0  0
    0.7162    5.0351    0.8215 H   0  0  0  0  0  0  0  0  0  0  0  0
    1.2145    2.9602    0.4574 C   0  0  0  0  0  0  0  0  0  0  0  0
    1.0023    3.0431   -0.6161 H   0  0  0  0  0  0  0  0  0  0  0  0
    2.4816    0.7992   -1.6268 C   0  0  0  0  0  0  0  0  0  0  0  0
    2.3409   -0.0280   -2.7598 C   0  0  0  0  0  0  0  0  0  0  0  0
    1.7160   -0.9323   -2.6955 H   0  0  0  0  0  0  0  0  0  0  0  0
    2.9437    0.3304   -3.9757 C   0  0  0  0  0  0  0  0  0  0  0  0
    2.8141   -0.3193   -4.8549 H   0  0  0  0  0  0  0  0  0  0  0  0
    3.6959    1.5107   -4.0747 C   0  0  0  0  0  0  0  0  0  0  0  0
    4.1629    1.7931   -5.0309 H   0  0  0  0  0  0  0  0  0  0  0  0
    3.8537    2.3293   -2.9444 C   0  0  0  0  0  0  0  0  0  0  0  0
    4.4492    3.2531   -3.0090 H   0  0  0  0  0  0  0  0  0  0  0  0
    3.2569    1.9743   -1.7261 C   0  0  0  0  0  0  0  0  0  0  0  0
    3.3957    2.6247   -0.8508 H   0  0  0  0  0  0  0  0  0  0  0  0
  1 27  1  0  0  0  0
  1 60  1  0  0  0  0
  2 38  1  0  0  0  0
  3 14  1  0  0  0  0
  4 11  1  0  0  0  0
  5  3  1  0  0  0  0
  5  8  1  0  0  0  0
  6  5  1  0  0  0  0
  7  5  1  0  0  0  0
  8  9  1  0  0  0  0
  8 11  1  0  0  0  0
 10  8  1  0  0  0  0
 11 12  1  0  0  0  0
 11 13  1  0  0  0  0
 14 18  1  0  0  0  0
 15 14  1  0  0  0  0
 16 17  1  0  0  0  0
 16  4  1  0  0  0  0
 18 19  1  0  0  0  0
 19 20  1  0  0  0  0
 19 21  2  0  0  0  0
 21 22  1  0  0  0  0
 23 21  1  0  0  0  0
 23 24  1  0  0  0  0
 25 23  2  0  0  0  0
 26 25  1  0  0  0  0
 27 18  2  0  0  0  0
 27 25  1  0  0  0  0
 28 16  1  0  0  0  0
 29 30  1  0  0  0  0
 29 28  2  0  0  0  0
 31 29  1  0  0  0  0
 32 31  1  0  0  0  0
 33 31  2  0  0  0  0
 33 35  1  0  0  0  0
 34 33  1  0  0  0  0
 35 37  2  0  0  0  0
 36 35  1  0  0  0  0
 37 28  1  0  0  0  0
 37  2  1  0  0  0  0
 38 39  2  0  0  0  0
 38 47  1  0  0  0  0
 39 41  1  0  0  0  0
 40 39  1  0  0  0  0
 41 42  1  0  0  0  0
 41 43  2  0  0  0  0
 43 44  1  0  0  0  0
 45 43  1  0  0  0  0
 45 46  1  0  0  0  0
 47 45  2  0  0  0  0
 48 47  1  0  0  0  0
 49 50  1  0  0  0  0
 49  2  1  0  0  0  0
 50 51  1  0  0  0  0
 52 53  1  0  0  0  0
 52 50  2  0  0  0  0
 54 52  1  0  0  0  0
 55 54  1  0  0  0  0
 56 54  2  0  0  0  0
 56 58  1  0  0  0  0
 57 56  1  0  0  0  0
 58 49  2  0  0  0  0
 59 58  1  0  0  0  0
 60 61  1  0  0  0  0
 61 62  1  0  0  0  0
 61 63  2  0  0  0  0
 63 64  1  0  0  0  0
 65 63  1  0  0  0  0
 65 66  1  0  0  0  0
 67 65  2  0  0  0  0
 68 67  1  0  0  0  0
 69 60  2  0  0  0  0
 69 67  1  0  0  0  0
 70 69  1  0  0  0  0
 71  1  1  0  0  0  0
 72 73  1  0  0  0  0
 72 71  2  0  0  0  0
 74 72  1  0  0  0  0
 75 74  1  0  0  0  0
 76 74  2  0  0  0  0
 76 78  1  0  0  0  0
 77 76  1  0  0  0  0
 78 80  2  0  0  0  0
 79 78  1  0  0  0  0
 80 71  1  0  0  0  0
 80 81  1  0  0  0  0
M  END
