3
q = -1.0

 13 14  0  0  0  0  0  0  0  0999 V2000
    3.1965   -0.5317    0.2650 O   0  0  0  0  0  0  0  0  0  0  0  0
    3.1846   -0.7066   -2.0272 O   0  0  0  0  0  0  0  0  0  0  0  0
    2.3560   -0.5801   -0.8943 B   0  0  0  0  0  2  0  0  0  0  0  0
    4.4996   -0.6136   -0.1804 C   0  0  0  0  0  0  0  0  0  0  0  0
    5.6828   -0.5929    0.5524 C   0  0  0  0  0  0  0  0  0  0  0  0
    5.6770   -0.4989    1.6475 H   0  0  0  0  0  0  0  0  0  0  0  0
    6.8810   -0.6917   -0.1856 C   0  0  0  0  0  0  0  0  0  0  0  0
    7.8422   -0.6792    0.3491 H   0  0  0  0  0  0  0  0  0  0  0  0
    6.8704   -0.8036   -1.5885 C   0  0  0  0  0  0  0  0  0  0  0  0
    7.8247   -0.8782   -2.1306 H   0  0  0  0  0  0  0  0  0  0  0  0
    5.6636   -0.8202   -2.3180 C   0  0  0  0  0  0  0  0  0  0  0  0
    5.6425   -0.9049   -3.4133 H   0  0  0  0  0  0  0  0  0  0  0  0
    4.4843   -0.7216   -1.5817 C   0  0  0  0  0  0  0  0  0  0  0  0
  2 13  1  0  0  0  0
  2  3  1  0  0  0  0
  3  1  1  0  0  0  0
  4  1  1  0  0  0  0
  4  5  1  0  0  0  0
  5  6  1  0  0  0  0
  7  8  1  0  0  0  0
  7  5  2  0  0  0  0
  9  7  1  0  0  0  0
 10  9  1  0  0  0  0
 11  9  2  0  0  0  0
 11 13  1  0  0  0  0
 12 11  1  0  0  0  0
 13  4  2  0  0  0  0
M  END
