16
q = -1.0

 30 33  0  0  1  0  0  0  0  0999 V2000
   -1.7570    2.0587   -0.4955 S   0  0  0  0  0  3  0  0  0  0  0  0
   -1.0212   -0.8860   -1.2810 C   0  0  1  0  0  0  0  0  0  0  0  0
   -1.1218   -3.0472    0.3806 B   0  0  1  0  0  0  0  0  0  0  0  0
   -0.1790   -2.1032   -0.6768 C   0  0  2  0  0  0  0  0  0  0  0  0
   -0.6685   -0.3688    1.4570 B   0  0  0  0  0  0  0  0  0  0  0  0
   -2.4231   -0.5901    1.0775 B   0  0  0  0  0  2  0  0  0  0  0  0
   -3.5640    2.2613   -0.3686 C   0  0  0  0  0  0  0  0  0  0  0  0
   -3.7795    3.3453   -0.3326 H   0  0  0  0  0  0  0  0  0  0  0  0
   -3.9312    1.7333    0.5312 H   0  0  0  0  0  0  0  0  0  0  0  0
   -4.0050    1.8138   -1.2759 H   0  0  0  0  0  0  0  0  0  0  0  0
   -2.7039   -2.2361    0.4577 B   0  0  1  0  0  0  0  0  0  0  0  0
   -1.2560    2.9164    1.0233 C   0  0  0  0  0  0  0  0  0  0  0  0
   -1.5357    3.9812    0.9258 H   0  0  0  0  0  0  0  0  0  0  0  0
   -0.1622    2.7995    1.1066 H   0  0  0  0  0  0  0  0  0  0  0  0
   -1.7452    2.4353    1.8900 H   0  0  0  0  0  0  0  0  0  0  0  0
    0.1449   -1.9257    0.9771 B   0  0  0  0  0  0  0  0  0  0  0  0
   -2.6183   -0.8678   -0.6697 B   0  0  2  0  0  0  0  0  0  0  0  0
   -1.4757   -1.9480    1.7357 B   0  0  0  0  0  0  0  0  0  0  0  0
   -1.3443    0.2281   -0.0589 B   0  0  1  0  0  0  0  0  0  0  0  0
   -1.8388   -2.3869   -1.0871 B   0  0  1  0  0  0  0  0  0  0  0  0
    1.0624   -2.5211    1.4925 H   0  0  0  0  0  0  0  0  0  0  0  0
   -0.9100   -0.6353   -2.3444 H   0  0  0  0  0  0  0  0  0  0  0  0
    0.4773   -2.6528   -1.3628 H   0  0  0  0  0  0  0  0  0  0  0  0
   -3.2729    0.0065    1.7097 H   0  0  0  0  0  0  0  0  0  0  0  0
   -0.4314    0.3075    2.4375 H   0  0  0  0  0  0  0  0  0  0  0  0
   -0.9346   -4.2388    0.4365 H   0  0  0  0  0  0  0  0  0  0  0  0
   -3.7326   -2.8454    0.6389 H   0  0  0  0  0  0  0  0  0  0  0  0
   -2.0979   -3.0226   -2.0782 H   0  0  0  0  0  0  0  0  0  0  0  0
   -3.4940   -0.4550   -1.3956 H   0  0  0  0  0  0  0  0  0  0  0  0
   -1.6404   -2.3703    2.8583 H   0  0  0  0  0  0  0  0  0  0  0  0
  1  7  1  0  0  0  0
  1 19  1  0  0  0  0
  1 12  1  0  0  0  0
  2 22  1  6  0  0  0
  2  4  1  0  0  0  0
  2 17  1  0  0  0  0
  2 19  1  0  0  0  0
  3 26  1  1  0  0  0
  3 11  1  0  0  0  0
  4 23  1  6  0  0  0
  4  3  1  0  0  0  0
  4 16  1  0  0  0  0
  5 18  1  0  0  0  0
  5 25  1  0  0  0  0
  6 24  1  0  0  0  0
  7  8  1  0  0  0  0
  7  9  1  0  0  0  0
 10  7  1  0  0  0  0
 11 27  1  1  0  0  0
 12 14  1  0  0  0  0
 12 15  1  0  0  0  0
 13 12  1  0  0  0  0
 16 21  1  0  0  0  0
 16 18  1  0  0  0  0
 17 29  1  6  0  0  0
 17 11  1  0  0  0  0
 18 30  1  0  0  0  0
 19  6  1  1  0  0  0
 19  5  1  0  0  0  0
 20 28  1  6  0  0  0
 20 17  1  0  0  0  0
 20  3  1  0  0  0  0
 20 11  1  0  0  0  0
M  END
