2
q = -1

 15 14  0  0  0  0  0  0  0  0999 V2000
    4.3822   -0.0130   -0.1238 Si  0  0  0  0  0  0  0  0  0  0  0  0
    1.3786   -0.0147   -0.1892 B   0  0  0  0  0  1  0  0  0  0  0  0
    2.6614   -0.0211   -0.1113 N   0  0  0  0  0  2  0  0  0  0  0  0
    5.0288   -1.0957   -1.5324 C   0  0  0  0  0  0  0  0  0  0  0  0
    4.6596   -0.7209   -2.5088 H   0  0  0  0  0  0  0  0  0  0  0  0
    4.6723   -2.1399   -1.4171 H   0  0  0  0  0  0  0  0  0  0  0  0
    6.1381   -1.1111   -1.5626 H   0  0  0  0  0  0  0  0  0  0  0  0
    5.0083   -0.6951    1.5329 C   0  0  0  0  0  0  0  0  0  0  0  0
    4.6329   -0.0846    2.3806 H   0  0  0  0  0  0  0  0  0  0  0  0
    6.1171   -0.6975    1.5820 H   0  0  0  0  0  0  0  0  0  0  0  0
    4.6604   -1.7380    1.6858 H   0  0  0  0  0  0  0  0  0  0  0  0
    5.0030    1.7632   -0.3394 C   0  0  0  0  0  0  0  0  0  0  0  0
    4.6374    2.4116    0.4838 H   0  0  0  0  0  0  0  0  0  0  0  0
    4.6323    2.1892   -1.2943 H   0  0  0  0  0  0  0  0  0  0  0  0
    6.1117    1.8129   -0.3474 H   0  0  0  0  0  0  0  0  0  0  0  0
  1  3  1  0  0  0  0
  1  8  1  0  0  0  0
  2  3  1  0  0  0  0
  4  6  1  0  0  0  0
  4  1  1  0  0  0  0
  5  4  1  0  0  0  0
  7  4  1  0  0  0  0
  8 10  1  0  0  0  0
  8 11  1  0  0  0  0
  8  9  1  0  0  0  0
 12  1  1  0  0  0  0
 12 13  1  0  0  0  0
 14 12  1  0  0  0  0
 15 12  1  0  0  0  0
M  END
