1
q = -1.0

 42 44  0  0  0  0  0  0  0  0999 V2000
    0.7765    0.4087   -0.7959 B   0  0  0  0  0  2  0  0  0  0  0  0
    0.7186    0.8905   -2.0690 F   0  0  0  0  0  0  0  0  0  0  0  0
   -1.0659   -0.0294   -0.0288 Si  0  0  0  0  0  0  0  0  0  0  0  0
   -2.3140   -0.6124   -1.9538 Si  0  0  0  0  0  0  0  0  0  0  0  0
   -4.0200   -1.3343   -1.5252 C   0  0  0  0  0  0  0  0  0  0  0  0
   -4.5873   -1.5581   -2.4534 H   0  0  0  0  0  0  0  0  0  0  0  0
   -4.6174   -0.6221   -0.9212 H   0  0  0  0  0  0  0  0  0  0  0  0
   -3.9277   -2.2774   -0.9491 H   0  0  0  0  0  0  0  0  0  0  0  0
   -1.3338   -1.9154   -2.9398 C   0  0  0  0  0  0  0  0  0  0  0  0
   -1.1169   -2.8150   -2.3283 H   0  0  0  0  0  0  0  0  0  0  0  0
   -0.3705   -1.4875   -3.2859 H   0  0  0  0  0  0  0  0  0  0  0  0
   -1.9003   -2.2417   -3.8376 H   0  0  0  0  0  0  0  0  0  0  0  0
   -2.5390    0.9081   -3.0707 C   0  0  0  0  0  0  0  0  0  0  0  0
   -1.5521    1.3450   -3.3219 H   0  0  0  0  0  0  0  0  0  0  0  0
   -3.1465    1.6936   -2.5779 H   0  0  0  0  0  0  0  0  0  0  0  0
   -3.0479    0.6254   -4.0165 H   0  0  0  0  0  0  0  0  0  0  0  0
   -1.9197    2.0238    0.7850 Si  0  0  0  0  0  0  0  0  0  0  0  0
   -1.5322    2.2628    2.6276 C   0  0  0  0  0  0  0  0  0  0  0  0
   -1.9139    3.2481    2.9701 H   0  0  0  0  0  0  0  0  0  0  0  0
   -0.4439    2.2207    2.8272 H   0  0  0  0  0  0  0  0  0  0  0  0
   -2.0209    1.4788    3.2416 H   0  0  0  0  0  0  0  0  0  0  0  0
   -1.1312    3.4293   -0.2206 C   0  0  0  0  0  0  0  0  0  0  0  0
   -1.5431    4.4149    0.0827 H   0  0  0  0  0  0  0  0  0  0  0  0
   -1.3177    3.2939   -1.3050 H   0  0  0  0  0  0  0  0  0  0  0  0
   -0.0320    3.4577   -0.0721 H   0  0  0  0  0  0  0  0  0  0  0  0
   -3.8096    2.0670    0.5740 C   0  0  0  0  0  0  0  0  0  0  0  0
   -4.2870    1.2261    1.1171 H   0  0  0  0  0  0  0  0  0  0  0  0
   -4.1059    1.9961   -0.4916 H   0  0  0  0  0  0  0  0  0  0  0  0
   -4.2205    3.0152    0.9811 H   0  0  0  0  0  0  0  0  0  0  0  0
   -1.3297   -1.7241    1.5879 Si  0  0  0  0  0  0  0  0  0  0  0  0
   -0.1761   -1.5892    3.0903 C   0  0  0  0  0  0  0  0  0  0  0  0
   -0.2704   -0.6000    3.5798 H   0  0  0  0  0  0  0  0  0  0  0  0
    0.8905   -1.7212    2.8230 H   0  0  0  0  0  0  0  0  0  0  0  0
   -0.4439   -2.3725    3.8308 H   0  0  0  0  0  0  0  0  0  0  0  0
   -3.1158   -1.6138    2.2344 C   0  0  0  0  0  0  0  0  0  0  0  0
   -3.3241   -2.4456    2.9403 H   0  0  0  0  0  0  0  0  0  0  0  0
   -3.8532   -1.6687    1.4093 H   0  0  0  0  0  0  0  0  0  0  0  0
   -3.2823   -0.6601    2.7757 H   0  0  0  0  0  0  0  0  0  0  0  0
   -1.0955   -3.4341    0.7810 C   0  0  0  0  0  0  0  0  0  0  0  0
   -1.2250   -4.2413    1.5328 H   0  0  0  0  0  0  0  0  0  0  0  0
   -0.0894   -3.5486    0.3283 H   0  0  0  0  0  0  0  0  0  0  0  0
   -1.8426   -3.5964   -0.0226 H   0  0  0  0  0  0  0  0  0  0  0  0
  1  3  1  0  0  0  0
  2  1  1  0  0  0  0
  3 17  1  0  0  0  0
  3 30  1  0  0  0  0
  3  2  1  0  0  0  0
  3 35  1  0  0  0  0
  3 22  1  0  0  0  0
  4  5  1  0  0  0  0
  4  3  1  0  0  0  0
  5  8  1  0  0  0  0
  5  7  1  0  0  0  0
  6  5  1  0  0  0  0
  9 10  1  0  0  0  0
  9  4  1  0  0  0  0
 11  9  1  0  0  0  0
 12  9  1  0  0  0  0
 13 15  1  0  0  0  0
 13  4  1  0  0  0  0
 14 13  1  0  0  0  0
 16 13  1  0  0  0  0
 17 18  1  0  0  0  0
 18 20  1  0  0  0  0
 18 19  1  0  0  0  0
 18 21  1  0  0  0  0
 22 25  1  0  0  0  0
 22 23  1  0  0  0  0
 22 17  1  0  0  0  0
 24 22  1  0  0  0  0
 26 17  1  0  0  0  0
 26 29  1  0  0  0  0
 26 27  1  0  0  0  0
 28 26  1  0  0  0  0
 30 35  1  0  0  0  0
 30 31  1  0  0  0  0
 31 32  1  0  0  0  0
 31 34  1  0  0  0  0
 33 31  1  0  0  0  0
 35 38  1  0  0  0  0
 35 36  1  0  0  0  0
 37 35  1  0  0  0  0
 39 40  1  0  0  0  0
 39 30  1  0  0  0  0
 41 39  1  0  0  0  0
 42 39  1  0  0  0  0
M  ZBO  3   5   0   6   0   7   0
M  END
