2
q = -1.0, confidence = 0.0

 41 41  0  0  0  0  0  0  0  0999 V2000
   -0.4991    1.9683   -0.1121 N   0  0  0  0  0  0  0  0  0  0  0  0
   -0.1883    0.5502   -0.0903 B   0  0  0  0  0  2  0  0  0  0  0  0
    0.6897    3.0125   -1.0026 Si  0  0  0  0  0  0  0  0  0  0  0  0
   -0.1893    4.5760   -1.6235 C   0  0  0  0  0  0  0  0  0  0  0  0
   -1.0207    4.3152   -2.3091 H   0  0  0  0  0  0  0  0  0  0  0  0
    0.5496    5.1666   -2.2047 H   0  0  0  0  0  0  0  0  0  0  0  0
   -0.5883    5.2345   -0.8288 H   0  0  0  0  0  0  0  0  0  0  0  0
    1.2959    2.1567   -2.5736 C   0  0  0  0  0  0  0  0  0  0  0  0
    1.9152    1.2637   -2.3699 H   0  0  0  0  0  0  0  0  0  0  0  0
    1.9102    2.8806   -3.1493 H   0  0  0  0  0  0  0  0  0  0  0  0
    0.4458    1.8445   -3.2117 H   0  0  0  0  0  0  0  0  0  0  0  0
    2.1659    3.5141    0.0685 C   0  0  0  0  0  0  0  0  0  0  0  0
    1.8553    4.0890    0.9624 H   0  0  0  0  0  0  0  0  0  0  0  0
    2.8583    4.1482   -0.5241 H   0  0  0  0  0  0  0  0  0  0  0  0
    2.7226    2.6180    0.4045 H   0  0  0  0  0  0  0  0  0  0  0  0
   -1.7210    2.7767    0.9233 Si  0  0  0  0  0  0  0  0  0  0  0  0
   -2.3819    1.6027    2.2464 C   0  0  0  0  0  0  0  0  0  0  0  0
   -3.0994    0.8636    1.8511 H   0  0  0  0  0  0  0  0  0  0  0  0
   -2.9026    2.2057    3.0194 H   0  0  0  0  0  0  0  0  0  0  0  0
   -1.5502    1.0593    2.7379 H   0  0  0  0  0  0  0  0  0  0  0  0
   -3.1645    3.5277   -0.0367 C   0  0  0  0  0  0  0  0  0  0  0  0
   -2.8324    4.3048   -0.7511 H   0  0  0  0  0  0  0  0  0  0  0  0
   -3.8679    4.0029    0.6791 H   0  0  0  0  0  0  0  0  0  0  0  0
   -3.7201    2.7501   -0.5943 H   0  0  0  0  0  0  0  0  0  0  0  0
   -0.8580    4.1520    1.9098 C   0  0  0  0  0  0  0  0  0  0  0  0
   -0.0517    3.7280    2.5423 H   0  0  0  0  0  0  0  0  0  0  0  0
   -1.6047    4.6226    2.5834 H   0  0  0  0  0  0  0  0  0  0  0  0
   -0.4186    4.9558    1.2889 H   0  0  0  0  0  0  0  0  0  0  0  0
    1.2987    0.1647   -0.0187 C   0  0  0  0  0  0  0  0  0  0  0  0
    2.4936   -0.1367    0.1170 C   0  0  0  0  0  0  0  0  0  0  0  0
    3.8680   -0.4674    0.2803 C   0  0  0  0  0  0  0  0  0  0  0  0
    4.6043    0.0357    1.3861 C   0  0  0  0  0  0  0  0  0  0  0  0
    4.0951    0.6876    2.1109 H   0  0  0  0  0  0  0  0  0  0  0  0
    5.9543   -0.2936    1.5490 C   0  0  0  0  0  0  0  0  0  0  0  0
    6.5100    0.1025    2.4127 H   0  0  0  0  0  0  0  0  0  0  0  0
    6.6024   -1.1197    0.6150 C   0  0  0  0  0  0  0  0  0  0  0  0
    7.6654   -1.3727    0.7446 H   0  0  0  0  0  0  0  0  0  0  0  0
    5.8872   -1.6191   -0.4865 C   0  0  0  0  0  0  0  0  0  0  0  0
    6.3903   -2.2642   -1.2229 H   0  0  0  0  0  0  0  0  0  0  0  0
    4.5340   -1.3041   -0.6543 C   0  0  0  0  0  0  0  0  0  0  0  0
    3.9716   -1.6939   -1.5151 H   0  0  0  0  0  0  0  0  0  0  0  0
  1  2  1  0  0  0  0
  1 16  1  0  0  0  0
  2 29  1  0  0  0  0
  3  1  1  0  0  0  0
  3 12  1  0  0  0  0
  4  3  1  0  0  0  0
  4  7  1  0  0  0  0
  5  4  1  0  0  0  0
  6  4  1  0  0  0  0
  8  9  1  0  0  0  0
  8  3  1  0  0  0  0
 10  8  1  0  0  0  0
 11  8  1  0  0  0  0
 12 15  1  0  0  0  0
 12 13  1  0  0  0  0
 14 12  1  0  0  0  0
 16 25  1  0  0  0  0
 16 17  1  0  0  0  0
 17 20  1  0  0  0  0
 17 19  1  0  0  0  0
 18 17  1  0  0  0  0
 21 23  1  0  0  0  0
 21 16  1  0  0  0  0
 22 21  1  0  0  0  0
 24 21  1  0  0  0  0
 25 26  1  0  0  0  0
 25 27  1  0  0  0  0
 28 25  1  0  0  0  0
 29 30  3  0  0  0  0
 30 31  1  0  0  0  0
 31 32  1  0  0  0  0
 32 34  2  0  0  0  0
 32 33  1  0  0  0  0
 34 35  1  0  0  0  0
 36 37  1  0  0  0  0
 36 34  1  0  0  0  0
 38 36  2  0  0  0  0
 39 38  1  0  0  0  0
 40 38  1  0  0  0  0
 40 31  2  0  0  0  0
 41 40  1  0  0  0  0
M  END
