9
q = -1.0

 21 26  0  0  1  0  0  0  0  0999 V2000
    2.0660   -1.4891   -0.4138 C   0  0  2  0  0  3  0  0  0  0  0  0
    2.2554   -0.4610    0.9547 C   0  0  2  0  0  0  0  0  0  0  0  0
    3.2463   -1.8474    0.7895 B   0  0  2  0  0  0  0  0  0  0  0  0
    3.0539   -2.7941    1.5079 H   0  0  0  0  0  0  0  0  0  0  0  0
    3.5710   -1.9913   -0.9750 B   0  0  2  0  0  0  0  0  0  0  0  0
    3.6523   -3.0948   -1.4545 H   0  0  0  0  0  0  0  0  0  0  0  0
    2.6394   -0.7046   -1.7955 B   0  0  1  0  0  0  0  0  0  0  0  0
    2.1249   -0.9583   -2.8555 H   0  0  0  0  0  0  0  0  0  0  0  0
    1.7183    0.2172   -0.5313 B   0  0  0  0  0  1  0  0  0  0  0  0
    3.2425    0.8668   -1.2531 B   0  0  0  0  0  0  0  0  0  0  0  0
    3.2193    1.8365   -1.9755 H   0  0  0  0  0  0  0  0  0  0  0  0
    2.9768    0.9950    0.4937 B   0  0  2  0  0  0  0  0  0  0  0  0
    2.6593    1.9861    1.0970 H   0  0  0  0  0  0  0  0  0  0  0  0
    3.8930   -0.2753    1.3374 B   0  0  1  0  0  0  0  0  0  0  0  0
    4.1975   -0.1525    2.4980 H   0  0  0  0  0  0  0  0  0  0  0  0
    4.7602   -1.2180    0.1008 B   0  0  1  0  0  0  0  0  0  0  0  0
    5.8149   -1.7559    0.3429 H   0  0  0  0  0  0  0  0  0  0  0  0
    4.3830   -0.4968   -1.5033 B   0  0  1  0  0  0  0  0  0  0  0  0
    5.1697   -0.5259   -2.4212 H   0  0  0  0  0  0  0  0  0  0  0  0
    4.5823    0.5590   -0.0911 B   0  0  1  0  0  0  0  0  0  0  0  0
    5.5113    1.3224    0.0388 H   0  0  0  0  0  0  0  0  0  0  0  0
  1  3  1  0  0  0  0
  2 14  1  0  0  0  0
  3  2  1  0  0  0  0
  3  4  1  0  0  0  0
  5  1  1  0  0  0  0
  5 16  1  0  0  0  0
  6  5  1  0  0  0  0
  7 18  1  0  0  0  0
  7 10  1  0  0  0  0
  7  1  1  0  0  0  0
  8  7  1  0  0  0  0
  9  2  1  0  0  0  0
 10 12  1  0  0  0  0
 11 10  1  0  0  0  0
 12  2  1  0  0  0  0
 12 13  1  0  0  0  0
 14 15  1  0  0  0  0
 16 17  1  0  0  0  0
 16  3  1  0  0  0  0
 16 14  1  0  0  0  0
 18  5  1  0  0  0  0
 18 20  1  0  0  0  0
 19 18  1  0  0  0  0
 20 21  1  0  0  0  0
 20 12  1  0  0  0  0
 20 14  1  0  0  0  0
M  END
