24
q = -1.0

 27 32  0  0  1  0  0  0  0  0999 V2000
   -2.1801    2.2146    1.3206 C   0  0  0  0  0  0  0  0  0  0  0  0
   -2.2420    3.2629    1.6756 H   0  0  0  0  0  0  0  0  0  0  0  0
   -2.1372    1.5530    2.2099 H   0  0  0  0  0  0  0  0  0  0  0  0
   -3.0940    1.9447    0.7586 H   0  0  0  0  0  0  0  0  0  0  0  0
    0.8350    0.2961    2.6299 C   0  0  0  0  0  0  0  0  0  0  0  0
    1.5197    0.8631    3.2925 H   0  0  0  0  0  0  0  0  0  0  0  0
    1.1224   -0.7728    2.5987 H   0  0  0  0  0  0  0  0  0  0  0  0
   -0.1794    0.3404    3.0761 H   0  0  0  0  0  0  0  0  0  0  0  0
    1.5179    3.1748   -0.2792 B   0  0  1  0  0  0  0  0  0  0  0  0
    2.1660    4.1944   -0.2735 H   0  0  0  0  0  0  0  0  0  0  0  0
    0.5211    2.5752    1.1545 B   0  0  0  0  0  0  0  0  0  0  0  0
    0.4545    3.1735    2.2019 H   0  0  0  0  0  0  0  0  0  0  0  0
    2.0747    1.8116    0.6756 B   0  0  1  0  0  0  0  0  0  0  0  0
    3.0342    1.8915    1.4090 H   0  0  0  0  0  0  0  0  0  0  0  0
    2.0453    1.6965   -1.1099 B   0  0  2  0  0  0  0  0  0  0  0  0
    3.0653    1.6276   -1.7614 H   0  0  0  0  0  0  0  0  0  0  0  0
    0.6376    2.5849   -1.7156 B   0  0  2  0  0  0  0  0  0  0  0  0
    0.6788    3.1501   -2.7839 H   0  0  0  0  0  0  0  0  0  0  0  0
   -0.2419    3.2687   -0.3251 B   0  0  1  0  0  0  0  0  0  0  0  0
   -0.7941    4.3399   -0.2370 H   0  0  0  0  0  0  0  0  0  0  0  0
   -0.9680    2.0221    0.4525 C   0  0  2  0  0  0  0  0  0  0  0  0
    0.8139    0.8906    1.2471 C   0  0  1  0  0  0  0  0  0  0  0  0
    1.5192    0.3221   -0.1255 B   0  0  1  0  0  0  0  0  0  0  0  0
    0.5564    0.7898   -1.6117 B   0  0  0  0  0  0  0  0  0  0  0  0
    0.5502    0.0828   -2.5966 H   0  0  0  0  0  0  0  0  0  0  0  0
   -0.9037    1.8355   -1.1901 B   0  0  2  0  0  0  0  0  0  0  0  0
   -1.9014    1.8969   -1.8615 H   0  0  0  0  0  0  0  0  0  0  0  0
  1  2  1  0  0  0  0
  1  3  1  0  0  0  0
  4  1  1  0  0  0  0
  5  8  1  0  0  0  0
  5  6  1  0  0  0  0
  7  5  1  0  0  0  0
  9 10  1  6  0  0  0
  9 13  1  0  0  0  0
 11 22  1  0  0  0  0
 11 12  1  0  0  0  0
 13 22  1  0  0  0  0
 13 14  1  1  0  0  0
 15 16  1  6  0  0  0
 15  9  1  0  0  0  0
 15 23  1  0  0  0  0
 17 18  1  6  0  0  0
 17 26  1  0  0  0  0
 17 15  1  0  0  0  0
 17 19  1  0  0  0  0
 19  9  1  0  0  0  0
 19 20  1  6  0  0  0
 19 21  1  0  0  0  0
 21 11  1  0  0  0  0
 21  1  1  1  0  0  0
 22  5  1  1  0  0  0
 23 24  1  6  0  0  0
 23 13  1  0  0  0  0
 23 22  1  0  0  0  0
 24 26  1  0  0  0  0
 25 24  1  0  0  0  0
 26 27  1  6  0  0  0
 26 21  1  0  0  0  0
M  END
