12
q = -2.0, confidence = 0.518

 16 17  0  0  0  0  0  0  0  0999 V2000
    5.6691    4.9686   -0.7172 Cl  0  0  0  0  0  0  0  0  0  0  0  0
    3.6659    0.9340    0.0762 C   0  0  0  0  0  0  0  0  0  0  0  0
    5.0738    1.0584    0.0289 C   0  0  0  0  0  0  0  0  0  0  0  0
    5.7026    0.1681    0.1823 H   0  0  0  0  0  0  0  0  0  0  0  0
    5.6979    2.2885   -0.2104 C   0  0  0  0  0  0  0  0  0  0  0  0
    6.7932    2.3739   -0.2437 H   0  0  0  0  0  0  0  0  0  0  0  0
    4.9040    3.4300   -0.4157 C   0  0  0  0  0  0  0  0  0  0  0  0
    3.5022    3.3445   -0.3877 C   0  0  0  0  0  0  0  0  0  0  0  0
    2.8970    4.2458   -0.5590 H   0  0  0  0  0  0  0  0  0  0  0  0
    2.9011    2.1033   -0.1456 C   0  0  0  0  0  0  0  0  0  0  0  0
    1.8019    2.0432   -0.1343 H   0  0  0  0  0  0  0  0  0  0  0  0
    1.2642   -0.5478    0.8549 B   0  0  0  0  0  0  0  0  0  0  0  0
    0.6664    0.4200    1.2426 H   0  0  0  0  0  0  0  0  0  0  0  0
    1.7484   -1.0437   -0.8410 B   0  0  0  0  0  0  0  0  0  0  0  0
    1.5611   -0.3843   -1.8297 H   0  0  0  0  0  0  0  0  0  0  0  0
    2.9741   -0.4588    0.3366 B   0  0  0  0  0  0  0  0  0  0  0  0
  1  7  1  0  0  0  0
  2 16  1  0  0  0  0
  3  2  1  0  0  0  0
  3  4  1  0  0  0  0
  5  3  2  0  0  0  0
  6  5  1  0  0  0  0
  7  8  2  0  0  0  0
  7  5  1  0  0  0  0
  8 10  1  0  0  0  0
  9  8  1  0  0  0  0
 10 11  1  0  0  0  0
 10  2  2  0  0  0  0
 12 13  1  0  0  0  0
 14 16  1  0  0  0  0
 14 12  1  0  0  0  0
 15 14  1  0  0  0  0
 16 12  1  0  0  0  0
M  END
