1
q = -1.0, confidence = 0.002

 37 38  0  0  0  0  0  0  0  0999 V2000
   -0.2300   -0.8929    0.0603 B   0  0  0  0  0  2  0  0  0  0  0  0
    0.0529   -2.2324   -0.0414 F   0  0  0  0  0  0  0  0  0  0  0  0
    0.8915   -0.0201    0.0176 N   0  0  0  0  0  0  0  0  0  0  0  0
    0.7511    1.4396    0.0130 C   0  0  0  0  0  0  0  0  0  0  0  0
    1.3361    2.1128    1.2673 C   0  0  0  0  0  0  0  0  0  0  0  0
    1.0663    3.6229    1.2621 C   0  0  0  0  0  0  0  0  0  0  0  0
    1.5889    4.2855   -0.0188 C   0  0  0  0  0  0  0  0  0  0  0  0
    1.0109    3.6115   -1.2697 C   0  0  0  0  0  0  0  0  0  0  0  0
    1.2838    2.1010   -1.2724 C   0  0  0  0  0  0  0  0  0  0  0  0
    2.2792   -0.5325   -0.0395 C   0  0  0  0  0  0  0  0  0  0  0  0
    2.5940   -1.2904   -1.3429 C   0  0  0  0  0  0  0  0  0  0  0  0
    4.0643   -1.7266   -1.3909 C   0  0  0  0  0  0  0  0  0  0  0  0
    4.4435   -2.5576   -0.1580 C   0  0  0  0  0  0  0  0  0  0  0  0
    4.1337   -1.7991    1.1393 C   0  0  0  0  0  0  0  0  0  0  0  0
    2.6640   -1.3629    1.1982 C   0  0  0  0  0  0  0  0  0  0  0  0
   -0.3394    1.6294    0.0277 H   0  0  0  0  0  0  0  0  0  0  0  0
    0.8940    1.6390    2.1670 H   0  0  0  0  0  0  0  0  0  0  0  0
    2.4338    1.9338    1.3122 H   0  0  0  0  0  0  0  0  0  0  0  0
   -0.0312    3.7890    1.3436 H   0  0  0  0  0  0  0  0  0  0  0  0
    1.5184    4.0962    2.1585 H   0  0  0  0  0  0  0  0  0  0  0  0
    1.3536    5.3704   -0.0203 H   0  0  0  0  0  0  0  0  0  0  0  0
    2.6995    4.2065   -0.0450 H   0  0  0  0  0  0  0  0  0  0  0  0
   -0.0898    3.7830   -1.2970 H   0  0  0  0  0  0  0  0  0  0  0  0
    1.4197    4.0773   -2.1908 H   0  0  0  0  0  0  0  0  0  0  0  0
    0.8155    1.6162   -2.1553 H   0  0  0  0  0  0  0  0  0  0  0  0
    2.3795    1.9289   -1.3626 H   0  0  0  0  0  0  0  0  0  0  0  0
    2.9426    0.3600   -0.0309 H   0  0  0  0  0  0  0  0  0  0  0  0
    2.3466   -0.6429   -2.2104 H   0  0  0  0  0  0  0  0  0  0  0  0
    1.9359   -2.1812   -1.4051 H   0  0  0  0  0  0  0  0  0  0  0  0
    4.7154   -0.8236   -1.4346 H   0  0  0  0  0  0  0  0  0  0  0  0
    4.2634   -2.2969   -2.3225 H   0  0  0  0  0  0  0  0  0  0  0  0
    3.8670   -3.5098   -0.1696 H   0  0  0  0  0  0  0  0  0  0  0  0
    5.5167   -2.8400   -0.1960 H   0  0  0  0  0  0  0  0  0  0  0  0
    4.7883   -0.8996    1.1990 H   0  0  0  0  0  0  0  0  0  0  0  0
    4.3824   -2.4219    2.0240 H   0  0  0  0  0  0  0  0  0  0  0  0
    2.4639   -0.7650    2.1116 H   0  0  0  0  0  0  0  0  0  0  0  0
    2.0089   -2.2569    1.2486 H   0  0  0  0  0  0  0  0  0  0  0  0
  2  1  1  0  0  0  0
  3  1  1  0  0  0  0
  4  3  1  0  0  0  0
  4 16  1  0  0  0  0
  4  5  1  0  0  0  0
  5 18  1  0  0  0  0
  5 17  1  0  0  0  0
  6  5  1  0  0  0  0
  6 19  1  0  0  0  0
  6 20  1  0  0  0  0
  7  6  1  0  0  0  0
  8  7  1  0  0  0  0
  9  8  1  0  0  0  0
  9  4  1  0  0  0  0
 10 27  1  0  0  0  0
 10  3  1  0  0  0  0
 10 15  1  0  0  0  0
 11 10  1  0  0  0  0
 12 11  1  0  0  0  0
 12 13  1  0  0  0  0
 13 14  1  0  0  0  0
 14 15  1  0  0  0  0
 14 34  1  0  0  0  0
 14 35  1  0  0  0  0
 15 37  1  0  0  0  0
 15 36  1  0  0  0  0
 21  7  1  0  0  0  0
 22  7  1  0  0  0  0
 23  8  1  0  0  0  0
 24  8  1  0  0  0  0
 25  9  1  0  0  0  0
 26  9  1  0  0  0  0
 28 11  1  0  0  0  0
 29 11  1  0  0  0  0
 30 12  1  0  0  0  0
 31 12  1  0  0  0  0
 32 13  1  0  0  0  0
 33 13  1  0  0  0  0
M  END
