3
q = -1.0

  5  4  0  0  0  0  0  0  0  0999 V2000
   -0.2028   -2.9438    0.7331 O   0  0  0  0  0  0  0  0  0  0  0  0
    0.1613   -1.4078    2.4870 O   0  0  0  0  0  0  0  0  0  0  0  0
   -0.0147   -1.6260    1.1315 B   0  0  0  0  0  2  0  0  0  0  0  0
   -0.1979   -3.5213    1.5220 H   0  0  0  0  0  0  0  0  0  0  0  0
    0.2732   -0.4499    2.6615 H   0  0  0  0  0  0  0  0  0  0  0  0
  1  3  1  0  0  0  0
  1  4  1  0  0  0  0
  2  5  1  0  0  0  0
  3  2  1  0  0  0  0
M  END
