3
q = -1.0

 25 26  0  0  0  0  0  0  0  0999 V2000
   -0.2074   -2.4682   -0.9549 Cl  0  0  0  0  0  0  0  0  0  0  0  0
   -1.0909    0.0205   -0.2024 N   0  0  0  0  0  0  0  0  0  0  0  0
    0.0929   -0.7965   -0.3038 B   0  0  0  0  0  2  0  0  0  0  0  0
   -2.4160   -0.5301   -0.1391 C   0  0  0  0  0  0  0  0  0  0  0  0
   -3.4156   -0.0708   -1.0181 C   0  0  0  0  0  0  0  0  0  0  0  0
   -3.1642    0.6993   -1.7620 H   0  0  0  0  0  0  0  0  0  0  0  0
   -4.7138   -0.5930   -0.9400 C   0  0  0  0  0  0  0  0  0  0  0  0
   -5.4876   -0.2307   -1.6339 H   0  0  0  0  0  0  0  0  0  0  0  0
   -5.0259   -1.5774    0.0118 C   0  0  0  0  0  0  0  0  0  0  0  0
   -6.0455   -1.9867    0.0708 H   0  0  0  0  0  0  0  0  0  0  0  0
   -4.0304   -2.0314    0.8918 C   0  0  0  0  0  0  0  0  0  0  0  0
   -4.2673   -2.7958    1.6474 H   0  0  0  0  0  0  0  0  0  0  0  0
   -2.7323   -1.5073    0.8243 C   0  0  0  0  0  0  0  0  0  0  0  0
   -1.9509   -1.8499    1.5183 H   0  0  0  0  0  0  0  0  0  0  0  0
   -1.0285    1.4475   -0.1637 C   0  0  0  0  0  0  0  0  0  0  0  0
   -0.2793    2.1474   -1.1298 C   0  0  0  0  0  0  0  0  0  0  0  0
    0.2169    1.5778   -1.9277 H   0  0  0  0  0  0  0  0  0  0  0  0
   -0.1820    3.5450   -1.0722 C   0  0  0  0  0  0  0  0  0  0  0  0
    0.4101    4.0817   -1.8294 H   0  0  0  0  0  0  0  0  0  0  0  0
   -0.8520    4.2586   -0.0667 C   0  0  0  0  0  0  0  0  0  0  0  0
   -0.7776    5.3554   -0.0224 H   0  0  0  0  0  0  0  0  0  0  0  0
   -1.6285    3.5643    0.8763 C   0  0  0  0  0  0  0  0  0  0  0  0
   -2.1596    4.1168    1.6661 H   0  0  0  0  0  0  0  0  0  0  0  0
   -1.7199    2.1680    0.8304 C   0  0  0  0  0  0  0  0  0  0  0  0
   -2.3136    1.6188    1.5754 H   0  0  0  0  0  0  0  0  0  0  0  0
  1  3  1  0  0  0  0
  2 15  1  0  0  0  0
  2  4  1  0  0  0  0
  3  2  1  0  0  0  0
  4 13  1  0  0  0  0
  5  7  1  0  0  0  0
  5  4  2  0  0  0  0
  6  5  1  0  0  0  0
  7  9  2  0  0  0  0
  8  7  1  0  0  0  0
  9 10  1  0  0  0  0
  9 11  1  0  0  0  0
 11 12  1  0  0  0  0
 13 11  2  0  0  0  0
 13 14  1  0  0  0  0
 15 24  1  0  0  0  0
 16 18  1  0  0  0  0
 16 15  2  0  0  0  0
 17 16  1  0  0  0  0
 18 20  2  0  0  0  0
 19 18  1  0  0  0  0
 20 21  1  0  0  0  0
 20 22  1  0  0  0  0
 22 23  1  0  0  0  0
 24 22  2  0  0  0  0
 24 25  1  0  0  0  0
M  END
