14
q = -2.0, confidence = 0.93

 36 40  0  0  1  0  0  0  0  0999 V2000
   -1.4354   -0.6098    0.1990 C   0  0  1  0  0  0  0  0  0  0  0  0
   -0.6683    0.4414   -0.8366 C   0  0  2  0  0  0  0  0  0  0  0  0
   -2.1430   -0.1048    1.4519 C   0  0  0  0  0  0  0  0  0  0  0  0
   -3.5265    0.0132    1.2472 O   0  0  0  0  0  0  0  0  0  0  0  0
   -4.2114    0.4181    2.4066 C   0  0  0  0  0  0  0  0  0  0  0  0
   -0.6225    1.9390   -0.5648 C   0  0  0  0  0  0  0  0  0  0  0  0
   -1.6272    2.6230   -1.2689 O   0  0  0  0  0  0  0  0  0  0  0  0
   -1.5291    4.0183   -1.1276 C   0  0  0  0  0  0  0  0  0  0  0  0
   -0.8939   -2.7669   -1.4844 B   0  0  2  0  0  0  0  0  0  0  0  0
   -0.6569   -2.1780    0.1771 B   0  0  1  0  0  0  0  0  0  0  0  0
   -2.1990   -0.1968   -1.2955 B   0  0  1  0  0  0  0  0  0  0  0  0
   -0.8687   -0.0522   -2.4494 B   0  0  2  0  0  0  0  0  0  0  0  0
   -0.0593   -1.6346   -2.5895 B   0  0  0  0  0  0  0  0  0  0  0  0
    0.6679   -0.3553   -1.5985 B   0  0  0  0  0  2  0  0  0  0  0  0
    0.6797   -2.0654   -1.0242 B   0  0  2  0  0  0  0  0  0  0  0  0
   -2.1950   -1.8546   -0.6705 B   0  0  2  0  0  0  0  0  0  0  0  0
   -1.8285   -1.5495   -2.3869 B   0  0  2  0  0  0  0  0  0  0  0  0
    0.3896    2.2951   -0.8716 H   0  0  0  0  0  0  0  0  0  0  0  0
   -3.1515    0.5283   -1.2644 H   0  0  0  0  0  0  0  0  0  0  0  0
   -2.6126   -1.8374   -3.2604 H   0  0  0  0  0  0  0  0  0  0  0  0
    0.4482   -1.9746   -3.6348 H   0  0  0  0  0  0  0  0  0  0  0  0
    1.6814   -2.7481   -0.9802 H   0  0  0  0  0  0  0  0  0  0  0  0
   -1.7121    0.8779    1.7646 H   0  0  0  0  0  0  0  0  0  0  0  0
    1.6293    0.3142   -1.9035 H   0  0  0  0  0  0  0  0  0  0  0  0
   -1.0191   -3.9508   -1.7039 H   0  0  0  0  0  0  0  0  0  0  0  0
   -3.2146   -2.3124   -0.2198 H   0  0  0  0  0  0  0  0  0  0  0  0
   -0.9153    0.8072   -3.2936 H   0  0  0  0  0  0  0  0  0  0  0  0
   -0.7343   -2.8737    1.1666 H   0  0  0  0  0  0  0  0  0  0  0  0
   -1.9280   -0.8294    2.2738 H   0  0  0  0  0  0  0  0  0  0  0  0
   -0.7146    2.1360    0.5325 H   0  0  0  0  0  0  0  0  0  0  0  0
   -4.0861   -0.3098    3.2454 H   0  0  0  0  0  0  0  0  0  0  0  0
   -3.8685    1.4187    2.7699 H   0  0  0  0  0  0  0  0  0  0  0  0
   -0.5566    4.4128   -1.5122 H   0  0  0  0  0  0  0  0  0  0  0  0
   -5.2863    0.4840    2.1519 H   0  0  0  0  0  0  0  0  0  0  0  0
   -2.3519    4.4714   -1.7128 H   0  0  0  0  0  0  0  0  0  0  0  0
   -1.6295    4.3419   -0.0615 H   0  0  0  0  0  0  0  0  0  0  0  0
  1  3  1  1  0  0  0
  2  6  1  1  0  0  0
  2  1  1  0  0  0  0
  3 23  1  0  0  0  0
  3 29  1  0  0  0  0
  4  3  1  0  0  0  0
  4  5  1  0  0  0  0
  5 32  1  0  0  0  0
  5 31  1  0  0  0  0
  6 30  1  0  0  0  0
  7  8  1  0  0  0  0
  7  6  1  0  0  0  0
  8 36  1  0  0  0  0
  9 25  1  6  0  0  0
  9 15  1  0  0  0  0
  9 10  1  0  0  0  0
 10 28  1  1  0  0  0
 11 19  1  6  0  0  0
 11  2  1  0  0  0  0
 11  1  1  0  0  0  0
 12 27  1  6  0  0  0
 12 17  1  0  0  0  0
 12 11  1  0  0  0  0
 12  2  1  0  0  0  0
 13 14  1  0  0  0  0
 13 15  1  0  0  0  0
 15 22  1  1  0  0  0
 15 10  1  0  0  0  0
 16 26  1  1  0  0  0
 16 10  1  0  0  0  0
 16  1  1  0  0  0  0
 17 20  1  6  0  0  0
 17  9  1  0  0  0  0
 17 16  1  0  0  0  0
 18  6  1  0  0  0  0
 21 13  1  0  0  0  0
 24 14  1  0  0  0  0
 33  8  1  0  0  0  0
 34  5  1  0  0  0  0
 35  8  1  0  0  0  0
M  END
