45
q = -1.0, confidence = 0.004

 45 46  0  0  0  0  0  0  0  0999 V2000
   -0.0064   -1.3393    0.2738 O   0  0  0  0  0  0  0  0  0  0  0  0
   -1.3641   -1.1076    0.2495 C   0  0  0  0  0  0  0  0  0  0  0  0
   -1.9946   -0.1744    1.0835 C   0  0  0  0  0  0  0  0  0  0  0  0
   -1.4015    0.4241    1.7866 H   0  0  0  0  0  0  0  0  0  0  0  0
   -3.3868   -0.0081    1.0116 C   0  0  0  0  0  0  0  0  0  0  0  0
   -3.8502    0.7344    1.6752 H   0  0  0  0  0  0  0  0  0  0  0  0
   -4.1823   -0.7581    0.1236 C   0  0  0  0  0  0  0  0  0  0  0  0
   -3.5199   -1.7033   -0.6925 C   0  0  0  0  0  0  0  0  0  0  0  0
   -4.0989   -2.3204   -1.3967 H   0  0  0  0  0  0  0  0  0  0  0  0
   -2.1343   -1.8839   -0.6345 C   0  0  0  0  0  0  0  0  0  0  0  0
   -1.6217   -2.6222   -1.2685 H   0  0  0  0  0  0  0  0  0  0  0  0
   -5.7080   -0.5878    0.0181 C   0  0  0  0  0  0  0  0  0  0  0  0
   -6.2401    0.4826    0.9864 C   0  0  0  0  0  0  0  0  0  0  0  0
   -7.3395    0.5751    0.8769 H   0  0  0  0  0  0  0  0  0  0  0  0
   -5.7992    1.4791    0.7820 H   0  0  0  0  0  0  0  0  0  0  0  0
   -6.0310    0.2226    2.0437 H   0  0  0  0  0  0  0  0  0  0  0  0
   -6.0723   -0.1639   -1.4231 C   0  0  0  0  0  0  0  0  0  0  0  0
   -5.7472   -0.9172   -2.1679 H   0  0  0  0  0  0  0  0  0  0  0  0
   -5.5899    0.7994   -1.6853 H   0  0  0  0  0  0  0  0  0  0  0  0
   -7.1705   -0.0401   -1.5263 H   0  0  0  0  0  0  0  0  0  0  0  0
   -6.3969   -1.9308    0.3508 C   0  0  0  0  0  0  0  0  0  0  0  0
   -6.0821   -2.7375   -0.3407 H   0  0  0  0  0  0  0  0  0  0  0  0
   -7.4996   -1.8317    0.2729 H   0  0  0  0  0  0  0  0  0  0  0  0
   -6.1512   -2.2563    1.3818 H   0  0  0  0  0  0  0  0  0  0  0  0
    0.6705    1.1350    0.0287 C   0  0  0  0  0  0  0  0  0  0  0  0
    0.8078    2.0245    1.1287 C   0  0  0  0  0  0  0  0  0  0  0  0
    0.5329    3.3924    0.9528 C   0  0  0  0  0  0  0  0  0  0  0  0
    0.6310    4.0712    1.8167 H   0  0  0  0  0  0  0  0  0  0  0  0
    0.1281    3.9175   -0.2892 C   0  0  0  0  0  0  0  0  0  0  0  0
   -0.0213    3.0225   -1.3631 C   0  0  0  0  0  0  0  0  0  0  0  0
   -0.3585    3.4063   -2.3406 H   0  0  0  0  0  0  0  0  0  0  0  0
    0.2317    1.6455   -1.2219 C   0  0  0  0  0  0  0  0  0  0  0  0
    1.2315    1.5143    2.4870 C   0  0  0  0  0  0  0  0  0  0  0  0
    0.6734    0.6034    2.7871 H   0  0  0  0  0  0  0  0  0  0  0  0
    1.0819    2.2792    3.2734 H   0  0  0  0  0  0  0  0  0  0  0  0
    2.3037    1.2250    2.5014 H   0  0  0  0  0  0  0  0  0  0  0  0
   -0.1195    5.3953   -0.4620 C   0  0  0  0  0  0  0  0  0  0  0  0
   -0.7785    5.6011   -1.3283 H   0  0  0  0  0  0  0  0  0  0  0  0
    0.8316    5.9442   -0.6354 H   0  0  0  0  0  0  0  0  0  0  0  0
   -0.5865    5.8392    0.4402 H   0  0  0  0  0  0  0  0  0  0  0  0
   -0.0073    0.7088   -2.3827 C   0  0  0  0  0  0  0  0  0  0  0  0
   -0.0685    1.2512   -3.3462 H   0  0  0  0  0  0  0  0  0  0  0  0
   -0.9612    0.1544   -2.2495 H   0  0  0  0  0  0  0  0  0  0  0  0
    0.7913   -0.0585   -2.4643 H   0  0  0  0  0  0  0  0  0  0  0  0
    1.0078   -0.4037    0.1446 B   0  0  0  0  0  2  0  0  0  0  0  0
  2  1  1  0  0  0  0
  2  3  1  0  0  0  0
  3  4  1  0  0  0  0
  5  3  2  0  0  0  0
  5  6  1  0  0  0  0
  7  5  1  0  0  0  0
  8 10  1  0  0  0  0
  8  7  2  0  0  0  0
  9  8  1  0  0  0  0
 10  2  2  0  0  0  0
 11 10  1  0  0  0  0
 12  7  1  0  0  0  0
 12 21  1  0  0  0  0
 12 13  1  0  0  0  0
 13 16  1  0  0  0  0
 14 13  1  0  0  0  0
 15 13  1  0  0  0  0
 17 12  1  0  0  0  0
 18 17  1  0  0  0  0
 19 17  1  0  0  0  0
 20 17  1  0  0  0  0
 21 24  1  0  0  0  0
 22 21  1  0  0  0  0
 23 21  1  0  0  0  0
 25 45  1  0  0  0  0
 25 26  1  0  0  0  0
 26 33  1  0  0  0  0
 27 26  2  0  0  0  0
 27 28  1  0  0  0  0
 29 27  1  0  0  0  0
 30 32  1  0  0  0  0
 30 29  2  0  0  0  0
 31 30  1  0  0  0  0
 32 25  2  0  0  0  0
 33 36  1  0  0  0  0
 33 34  1  0  0  0  0
 33 35  1  0  0  0  0
 37 29  1  0  0  0  0
 37 40  1  0  0  0  0
 38 37  1  0  0  0  0
 39 37  1  0  0  0  0
 41 43  1  0  0  0  0
 41 32  1  0  0  0  0
 42 41  1  0  0  0  0
 44 41  1  0  0  0  0
 45  1  1  0  0  0  0
M  END
