7
q = -2.0, confidence = 0.736

 28 31  0  0  1  0  0  0  0  0999 V2000
    1.5692    1.3614    0.1026 C   0  0  2  0  0  0  0  0  0  0  0  0
    1.4296    0.0725    1.3325 C   0  0  1  0  0  0  0  0  0  0  0  0
    1.6582    0.5966   -1.4441 B   0  0  0  0  0  0  0  0  0  0  0  0
    3.1073    1.2333   -0.6082 B   0  0  1  0  0  0  0  0  0  0  0  0
    2.8895    0.9756    1.1145 B   0  0  1  0  0  0  0  0  0  0  0  0
    1.4963   -1.5264    0.6904 B   0  0  2  0  0  0  0  0  0  0  0  0
    1.6616   -1.2861   -1.1274 B   0  0  0  0  0  2  0  0  0  0  0  0
    3.1650   -0.3556   -1.3980 B   0  0  0  0  0  0  0  0  0  0  0  0
    3.9667   -0.0907    0.1782 B   0  0  0  0  0  0  0  0  0  0  0  0
    2.9103   -0.7624    1.4411 B   0  0  1  0  0  0  0  0  0  0  0  0
    3.0840   -1.6063   -0.0992 B   0  0  1  0  0  0  0  0  0  0  0  0
    1.0308    2.7582    0.3416 C   0  0  0  0  0  0  0  0  0  0  0  0
    0.7450    0.3863    2.6546 C   0  0  0  0  0  0  0  0  0  0  0  0
    1.2978    1.1828   -2.4418 H   0  0  0  0  0  0  0  0  0  0  0  0
    3.5979    2.2669   -0.9970 H   0  0  0  0  0  0  0  0  0  0  0  0
    3.1670    1.7907    1.9603 H   0  0  0  0  0  0  0  0  0  0  0  0
    1.0080   -2.4456    1.3086 H   0  0  0  0  0  0  0  0  0  0  0  0
    1.3293   -2.1067   -1.9554 H   0  0  0  0  0  0  0  0  0  0  0  0
    3.8058   -0.5224   -2.4112 H   0  0  0  0  0  0  0  0  0  0  0  0
    5.1665   -0.0452    0.3205 H   0  0  0  0  0  0  0  0  0  0  0  0
    3.2673   -1.1084    2.5424 H   0  0  0  0  0  0  0  0  0  0  0  0
    3.6519   -2.6697   -0.2036 H   0  0  0  0  0  0  0  0  0  0  0  0
    0.5076    3.1087   -0.5676 H   0  0  0  0  0  0  0  0  0  0  0  0
    0.3023    2.7803    1.1751 H   0  0  0  0  0  0  0  0  0  0  0  0
    1.8448    3.4704    0.5798 H   0  0  0  0  0  0  0  0  0  0  0  0
    0.2054    1.3518    2.6235 H   0  0  0  0  0  0  0  0  0  0  0  0
    0.0207   -0.4084    2.9098 H   0  0  0  0  0  0  0  0  0  0  0  0
    1.4979    0.4469    3.4633 H   0  0  0  0  0  0  0  0  0  0  0  0
  1  3  1  6  0  0  0
  1 12  1  0  0  0  0
  1  5  1  0  0  0  0
  2 10  1  0  0  0  0
  2 13  1  1  0  0  0
  3  8  1  0  0  0  0
  4 15  1  6  0  0  0
  4  1  1  0  0  0  0
  4  9  1  0  0  0  0
  4  5  1  0  0  0  0
  5  2  1  0  0  0  0
  5 16  1  1  0  0  0
  6 17  1  1  0  0  0
  6  2  1  0  0  0  0
  6 10  1  0  0  0  0
  8  7  1  0  0  0  0
  9 20  1  0  0  0  0
 10 21  1  1  0  0  0
 11 22  1  6  0  0  0
 11  9  1  0  0  0  0
 11  6  1  0  0  0  0
 11 10  1  0  0  0  0
 12 25  1  0  0  0  0
 12 24  1  0  0  0  0
 13 27  1  0  0  0  0
 13 28  1  0  0  0  0
 14  3  1  0  0  0  0
 18  7  1  0  0  0  0
 19  8  1  0  0  0  0
 23 12  1  0  0  0  0
 26 13  1  0  0  0  0
M  END
