3
q = -1.0, confidence = 0.006

 73 74  0  0  0  0  0  0  0  0999 V2000
    2.3196   -0.5556    0.0180 P   0  0  0  0  0  0  0  0  0  0  0  0
   -2.3195   -0.5558    0.0180 P   0  0  0  0  0  0  0  0  0  0  0  0
   -0.0000    0.9854    0.1185 B   0  0  0  0  0  2  0  0  0  0  0  0
    1.1554    1.8604    0.1043 N   0  0  0  0  0  0  0  0  0  0  0  0
    0.7190    3.1858    0.0500 C   0  0  0  0  0  0  0  0  0  0  0  0
    1.4301    4.3893   -0.0147 C   0  0  0  0  0  0  0  0  0  0  0  0
    2.5303    4.3914   -0.0263 H   0  0  0  0  0  0  0  0  0  0  0  0
    0.7026    5.5953   -0.0781 C   0  0  0  0  0  0  0  0  0  0  0  0
    1.2465    6.5502   -0.1333 H   0  0  0  0  0  0  0  0  0  0  0  0
   -0.7031    5.5952   -0.0783 C   0  0  0  0  0  0  0  0  0  0  0  0
   -1.2470    6.5501   -0.1336 H   0  0  0  0  0  0  0  0  0  0  0  0
   -1.4305    4.3892   -0.0151 C   0  0  0  0  0  0  0  0  0  0  0  0
   -2.5307    4.3911   -0.0270 H   0  0  0  0  0  0  0  0  0  0  0  0
   -0.7193    3.1857    0.0498 C   0  0  0  0  0  0  0  0  0  0  0  0
   -1.1556    1.8603    0.1039 N   0  0  0  0  0  0  0  0  0  0  0  0
    2.4602    1.3289   -0.1994 C   0  0  0  0  0  0  0  0  0  0  0  0
    3.2645    1.7351    0.4521 H   0  0  0  0  0  0  0  0  0  0  0  0
    2.7508    1.5447   -1.2531 H   0  0  0  0  0  0  0  0  0  0  0  0
    2.9472   -0.7587    1.8332 C   0  0  0  0  0  0  0  0  0  0  0  0
    2.0734    0.1612    2.7085 C   0  0  0  0  0  0  0  0  0  0  0  0
    1.0000   -0.0888    2.6093 H   0  0  0  0  0  0  0  0  0  0  0  0
    2.1929    1.2346    2.4674 H   0  0  0  0  0  0  0  0  0  0  0  0
    2.3624    0.0173    3.7709 H   0  0  0  0  0  0  0  0  0  0  0  0
    2.7649   -2.2024    2.3288 C   0  0  0  0  0  0  0  0  0  0  0  0
    3.3839   -2.9292    1.7730 H   0  0  0  0  0  0  0  0  0  0  0  0
    1.7144   -2.5342    2.2538 H   0  0  0  0  0  0  0  0  0  0  0  0
    3.0682   -2.2488    3.3963 H   0  0  0  0  0  0  0  0  0  0  0  0
    4.4213   -0.3532    1.9984 C   0  0  0  0  0  0  0  0  0  0  0  0
    4.6683   -0.3527    3.0813 H   0  0  0  0  0  0  0  0  0  0  0  0
    4.6383    0.6640    1.6156 H   0  0  0  0  0  0  0  0  0  0  0  0
    5.1097   -1.0681    1.5092 H   0  0  0  0  0  0  0  0  0  0  0  0
    3.6172   -1.2306   -1.2242 C   0  0  0  0  0  0  0  0  0  0  0  0
    2.9236   -1.2269   -2.5995 C   0  0  0  0  0  0  0  0  0  0  0  0
    2.6202   -0.2111   -2.9209 H   0  0  0  0  0  0  0  0  0  0  0  0
    2.0226   -1.8700   -2.5985 H   0  0  0  0  0  0  0  0  0  0  0  0
    3.6317   -1.6191   -3.3597 H   0  0  0  0  0  0  0  0  0  0  0  0
    3.9480   -2.6856   -0.8501 C   0  0  0  0  0  0  0  0  0  0  0  0
    3.0287   -3.2822   -0.6801 H   0  0  0  0  0  0  0  0  0  0  0  0
    4.5827   -2.7525    0.0546 H   0  0  0  0  0  0  0  0  0  0  0  0
    4.5114   -3.1565   -1.6834 H   0  0  0  0  0  0  0  0  0  0  0  0
    4.9008   -0.3874   -1.3219 C   0  0  0  0  0  0  0  0  0  0  0  0
    5.5635   -0.8361   -2.0927 H   0  0  0  0  0  0  0  0  0  0  0  0
    5.4721   -0.3525   -0.3780 H   0  0  0  0  0  0  0  0  0  0  0  0
    4.6950    0.6529   -1.6429 H   0  0  0  0  0  0  0  0  0  0  0  0
   -2.4603    1.3286   -0.2000 C   0  0  0  0  0  0  0  0  0  0  0  0
   -2.7505    1.5441   -1.2538 H   0  0  0  0  0  0  0  0  0  0  0  0
   -3.2647    1.7350    0.4512 H   0  0  0  0  0  0  0  0  0  0  0  0
   -2.9470   -0.7582    1.8332 C   0  0  0  0  0  0  0  0  0  0  0  0
   -4.4212   -0.3528    1.9982 C   0  0  0  0  0  0  0  0  0  0  0  0
   -5.1095   -1.0681    1.5094 H   0  0  0  0  0  0  0  0  0  0  0  0
   -4.6383    0.6641    1.6150 H   0  0  0  0  0  0  0  0  0  0  0  0
   -4.6682   -0.3519    3.0811 H   0  0  0  0  0  0  0  0  0  0  0  0
   -2.7644   -2.2016    2.3296 C   0  0  0  0  0  0  0  0  0  0  0  0
   -3.0684   -2.2477    3.3968 H   0  0  0  0  0  0  0  0  0  0  0  0
   -1.7138   -2.5329    2.2554 H   0  0  0  0  0  0  0  0  0  0  0  0
   -3.3827   -2.9289    1.7736 H   0  0  0  0  0  0  0  0  0  0  0  0
   -2.0734    0.1622    2.7082 C   0  0  0  0  0  0  0  0  0  0  0  0
   -2.1932    1.2355    2.4667 H   0  0  0  0  0  0  0  0  0  0  0  0
   -1.0000   -0.0876    2.6091 H   0  0  0  0  0  0  0  0  0  0  0  0
   -2.3624    0.0186    3.7706 H   0  0  0  0  0  0  0  0  0  0  0  0
   -3.6171   -1.2312   -1.2240 C   0  0  0  0  0  0  0  0  0  0  0  0
   -4.9007   -0.3881   -1.3220 C   0  0  0  0  0  0  0  0  0  0  0  0
   -5.5636   -0.8371   -2.0924 H   0  0  0  0  0  0  0  0  0  0  0  0
   -4.6950    0.6521   -1.6435 H   0  0  0  0  0  0  0  0  0  0  0  0
   -5.4720   -0.3527   -0.3780 H   0  0  0  0  0  0  0  0  0  0  0  0
   -3.9480   -2.6861   -0.8495 C   0  0  0  0  0  0  0  0  0  0  0  0
   -4.5825   -2.7529    0.0553 H   0  0  0  0  0  0  0  0  0  0  0  0
   -3.0287   -3.2827   -0.6796 H   0  0  0  0  0  0  0  0  0  0  0  0
   -4.5115   -3.1572   -1.6827 H   0  0  0  0  0  0  0  0  0  0  0  0
   -2.9237   -1.2279   -2.5993 C   0  0  0  0  0  0  0  0  0  0  0  0
   -3.6318   -1.6204   -3.3594 H   0  0  0  0  0  0  0  0  0  0  0  0
   -2.0226   -1.8709   -2.5982 H   0  0  0  0  0  0  0  0  0  0  0  0
   -2.6204   -0.2122   -2.9211 H   0  0  0  0  0  0  0  0  0  0  0  0
  1 19  1  0  0  0  0
  2 48  1  0  0  0  0
  4  3  1  0  0  0  0
  5  4  1  0  0  0  0
  6  5  2  0  0  0  0
  7  6  1  0  0  0  0
  8  6  1  0  0  0  0
  9  8  1  0  0  0  0
 10  8  2  0  0  0  0
 10 12  1  0  0  0  0
 11 10  1  0  0  0  0
 12 14  2  0  0  0  0
 13 12  1  0  0  0  0
 14  5  1  0  0  0  0
 14 15  1  0  0  0  0
 15  3  1  0  0  0  0
 16  1  1  0  0  0  0
 16  4  1  0  0  0  0
 16 17  1  0  0  0  0
 18 16  1  0  0  0  0
 19 28  1  0  0  0  0
 19 24  1  0  0  0  0
 19 20  1  0  0  0  0
 20 23  1  0  0  0  0
 21 20  1  0  0  0  0
 22 20  1  0  0  0  0
 24 27  1  0  0  0  0
 25 24  1  0  0  0  0
 26 24  1  0  0  0  0
 28 29  1  0  0  0  0
 30 28  1  0  0  0  0
 31 28  1  0  0  0  0
 32 37  1  0  0  0  0
 32  1  1  0  0  0  0
 33 35  1  0  0  0  0
 33 32  1  0  0  0  0
 34 33  1  0  0  0  0
 36 33  1  0  0  0  0
 37 38  1  0  0  0  0
 37 39  1  0  0  0  0
 40 37  1  0  0  0  0
 41 32  1  0  0  0  0
 41 43  1  0  0  0  0
 42 41  1  0  0  0  0
 44 41  1  0  0  0  0
 45  2  1  0  0  0  0
 45 15  1  0  0  0  0
 45 47  1  0  0  0  0
 46 45  1  0  0  0  0
 48 49  1  0  0  0  0
 48 53  1  0  0  0  0
 48 57  1  0  0  0  0
 49 52  1  0  0  0  0
 50 49  1  0  0  0  0
 51 49  1  0  0  0  0
 53 54  1  0  0  0  0
 55 53  1  0  0  0  0
 56 53  1  0  0  0  0
 57 60  1  0  0  0  0
 58 57  1  0  0  0  0
 59 57  1  0  0  0  0
 61 66  1  0  0  0  0
 61  2  1  0  0  0  0
 62 61  1  0  0  0  0
 62 65  1  0  0  0  0
 63 62  1  0  0  0  0
 64 62  1  0  0  0  0
 66 68  1  0  0  0  0
 66 67  1  0  0  0  0
 69 66  1  0  0  0  0
 70 72  1  0  0  0  0
 70 61  1  0  0  0  0
 71 70  1  0  0  0  0
 73 70  1  0  0  0  0
M  END
