5
q = -1.0

 11 10  0  0  0  0  0  0  0  0999 V2000
    2.1498   -2.0227    0.0598 Cl  0  0  0  0  0  0  0  0  0  0  0  0
    2.6709    0.6723    0.1201 N   0  0  0  0  0  0  0  0  0  0  0  0
    4.0814    0.3360   -0.0418 C   0  0  0  0  0  0  0  0  0  0  0  0
    2.4837    2.1134    0.1531 C   0  0  0  0  0  0  0  0  0  0  0  0
    1.6104   -0.2695    0.2316 B   0  0  0  0  0  2  0  0  0  0  0  0
    4.4759    0.7413   -1.0014 H   0  0  0  0  0  0  0  0  0  0  0  0
    4.2262   -0.7572   -0.0331 H   0  0  0  0  0  0  0  0  0  0  0  0
    4.6846    0.7853    0.7787 H   0  0  0  0  0  0  0  0  0  0  0  0
    2.9202    2.5846   -0.7573 H   0  0  0  0  0  0  0  0  0  0  0  0
    2.9891    2.5676    1.0351 H   0  0  0  0  0  0  0  0  0  0  0  0
    1.4144    2.3680    0.1970 H   0  0  0  0  0  0  0  0  0  0  0  0
  1  5  1  0  0  0  0
  2  4  1  0  0  0  0
  2  5  1  0  0  0  0
  3  7  1  0  0  0  0
  3  2  1  0  0  0  0
  3  8  1  0  0  0  0
  4 11  1  0  0  0  0
  4 10  1  0  0  0  0
  6  3  1  0  0  0  0
  9  4  1  0  0  0  0
M  END
