4
q = -1.0, confidence = 0.0

 28 29  0  0  1  0  0  0  0  0999 V2000
    1.7254   -2.8113    0.0138 B   0  0  0  0  0  2  0  0  0  0  0  0
    3.0370   -1.8264    0.6674 B   0  0  0  0  0  0  0  0  0  0  0  0
    2.5847   -1.6437   -1.0195 B   0  0  2  0  0  0  0  0  0  0  0  0
    0.8110   -1.7708   -1.1227 B   0  0  0  0  0  2  0  0  0  0  0  0
    0.1847   -2.1113    0.5633 B   0  0  0  0  0  0  0  0  0  0  0  0
    1.6103   -2.1197    1.6625 B   0  0  2  0  0  0  0  0  0  0  0  0
    0.4896   -0.7353    1.6874 B   0  0  0  0  0  0  0  0  0  0  0  0
    2.3280   -0.4768    1.5948 B   0  0  0  0  0  0  0  0  0  0  0  0
    2.7986   -0.2664   -0.0151 C   0  0  2  0  0  0  0  0  0  0  0  0
    1.6058   -0.2584   -0.9851 C   0  0  1  0  0  0  0  0  0  0  0  0
    3.9631    0.6410   -0.2978 C   0  0  0  0  0  0  0  0  0  0  0  0
    3.8749    1.6975   -1.1392 C   0  0  0  0  0  0  0  0  0  0  0  0
    5.2584    0.3292    0.4047 C   0  0  0  0  0  0  0  0  0  0  0  0
    4.7475    2.3433   -1.3202 H   0  0  0  0  0  0  0  0  0  0  0  0
    2.9551    1.9462   -1.6887 H   0  0  0  0  0  0  0  0  0  0  0  0
    5.1072    0.2153    1.4970 H   0  0  0  0  0  0  0  0  0  0  0  0
    6.0100    1.1217    0.2285 H   0  0  0  0  0  0  0  0  0  0  0  0
    5.6740   -0.6352    0.0474 H   0  0  0  0  0  0  0  0  0  0  0  0
    1.8504   -4.0011   -0.1663 H   0  0  0  0  0  0  0  0  0  0  0  0
    4.1464   -2.1968    0.9635 H   0  0  0  0  0  0  0  0  0  0  0  0
    3.3325   -1.8422   -1.9452 H   0  0  0  0  0  0  0  0  0  0  0  0
    0.4436   -2.2250   -2.1839 H   0  0  0  0  0  0  0  0  0  0  0  0
   -0.7023   -2.9041    0.8158 H   0  0  0  0  0  0  0  0  0  0  0  0
    1.6820   -2.8272    2.6427 H   0  0  0  0  0  0  0  0  0  0  0  0
    1.7923    0.3353   -1.8903 H   0  0  0  0  0  0  0  0  0  0  0  0
   -0.0923   -0.5380    2.7356 H   0  0  0  0  0  0  0  0  0  0  0  0
    3.0018   -0.0138    2.4905 H   0  0  0  0  0  0  0  0  0  0  0  0
    1.2623    0.3179    1.4975 H   0  0  0  0  0  0  0  0  0  0  0  0
  1  5  1  0  0  0  0
  2 20  1  0  0  0  0
  2  6  1  0  0  0  0
  3 21  1  6  0  0  0
  3 10  1  0  0  0  0
  3  9  1  0  0  0  0
  3  2  1  0  0  0  0
  4 10  1  0  0  0  0
  5 23  1  0  0  0  0
  5  7  1  0  0  0  0
  6  7  1  0  0  0  0
  6 24  1  1  0  0  0
  7 26  1  0  0  0  0
  8  6  1  0  0  0  0
  8 27  1  0  0  0  0
  9 11  1  6  0  0  0
  9  8  1  0  0  0  0
 10 25  1  6  0  0  0
 10  9  1  0  0  0  0
 11 13  1  0  0  0  0
 12 11  2  0  0  0  0
 13 16  1  0  0  0  0
 14 12  1  0  0  0  0
 15 12  1  0  0  0  0
 17 13  1  0  0  0  0
 18 13  1  0  0  0  0
 19  1  1  0  0  0  0
 22  4  1  0  0  0  0
 28  7  1  0  0  0  0
M  END
