18
q = -1.0

 30 33  0  0  1  0  0  0  0  0999 V2000
   -2.1683    1.9595    0.3113 S   0  0  0  0  0  3  0  0  0  0  0  0
   -2.8557   -2.5136   -0.1226 B   0  0  0  0  0  0  0  0  0  0  0  0
   -3.8460   -3.2008   -0.1225 H   0  0  0  0  0  0  0  0  0  0  0  0
   -1.2154   -3.2044   -0.1813 B   0  0  0  0  0  0  0  0  0  0  0  0
   -0.9294   -4.3743   -0.1688 H   0  0  0  0  0  0  0  0  0  0  0  0
   -1.8221   -2.2530   -1.5579 B   0  0  1  0  0  0  0  0  0  0  0  0
   -2.0846   -2.7748   -2.6137 H   0  0  0  0  0  0  0  0  0  0  0  0
   -2.7858   -0.9091   -0.8888 B   0  0  2  0  0  0  0  0  0  0  0  0
   -3.7532   -0.4311   -1.4407 H   0  0  0  0  0  0  0  0  0  0  0  0
   -2.7536   -1.0554    0.8902 B   0  0  1  0  0  0  0  0  0  0  0  0
   -3.5755   -0.6603    1.6788 H   0  0  0  0  0  0  0  0  0  0  0  0
   -1.8114   -2.4819    1.3183 B   0  0  1  0  0  0  0  0  0  0  0  0
   -1.9025   -3.0473    2.3757 H   0  0  0  0  0  0  0  0  0  0  0  0
   -0.2429   -2.1424    0.7095 C   0  0  2  0  0  0  0  0  0  0  0  0
    0.5380   -2.5825    1.3443 H   0  0  0  0  0  0  0  0  0  0  0  0
   -1.1168   -0.9002    1.3330 C   0  0  1  0  0  0  0  0  0  0  0  0
   -0.9070   -0.5668    2.3584 H   0  0  0  0  0  0  0  0  0  0  0  0
   -1.6933    0.1056    0.0509 B   0  0  0  0  0  0  0  0  0  0  0  0
   -1.1182   -0.6020   -1.5148 B   0  0  0  0  0  0  0  0  0  0  0  0
   -1.0031    0.0133   -2.5521 H   0  0  0  0  0  0  0  0  0  0  0  0
   -0.1280   -2.0566   -1.0313 B   0  0  0  0  0  0  0  0  0  0  0  0
    0.7971   -2.5759   -1.6085 H   0  0  0  0  0  0  0  0  0  0  0  0
   -2.4478    2.4770   -1.4111 C   0  0  0  0  0  0  0  0  0  0  0  0
   -2.7474    3.5407   -1.3950 H   0  0  0  0  0  0  0  0  0  0  0  0
   -3.2248    1.8321   -1.8607 H   0  0  0  0  0  0  0  0  0  0  0  0
   -1.4944    2.3470   -1.9484 H   0  0  0  0  0  0  0  0  0  0  0  0
   -3.8800    2.0200    0.9316 C   0  0  0  0  0  0  0  0  0  0  0  0
   -4.2206    3.0680    0.8366 H   0  0  0  0  0  0  0  0  0  0  0  0
   -3.8591    1.7256    1.9954 H   0  0  0  0  0  0  0  0  0  0  0  0
   -4.5154    1.3286    0.3479 H   0  0  0  0  0  0  0  0  0  0  0  0
  1 27  1  0  0  0  0
  2  3  1  0  0  0  0
  2 10  1  0  0  0  0
  4  5  1  0  0  0  0
  4 14  1  0  0  0  0
  6  7  1  6  0  0  0
  6 21  1  0  0  0  0
  6  8  1  0  0  0  0
  6  4  1  0  0  0  0
  8  9  1  6  0  0  0
  8  2  1  0  0  0  0
  8 18  1  0  0  0  0
 10 12  1  0  0  0  0
 10 16  1  0  0  0  0
 10 11  1  1  0  0  0
 12 16  1  0  0  0  0
 12 13  1  1  0  0  0
 14 12  1  0  0  0  0
 14 16  1  0  0  0  0
 14 15  1  1  0  0  0
 16 17  1  1  0  0  0
 18  1  1  0  0  0  0
 19 21  1  0  0  0  0
 19 18  1  0  0  0  0
 20 19  1  0  0  0  0
 22 21  1  0  0  0  0
 23 24  1  0  0  0  0
 23  1  1  0  0  0  0
 25 23  1  0  0  0  0
 26 23  1  0  0  0  0
 27 29  1  0  0  0  0
 28 27  1  0  0  0  0
 30 27  1  0  0  0  0
M  END
