5
q = -1.0

 36 39  0  0  1  0  0  0  0  0999 V2000
    1.2768   -0.6145   -0.2495 C   0  0  1  0  0  0  0  0  0  0  0  0
    0.2094   -1.1958   -1.5010 B   0  0  0  0  0  0  0  0  0  0  0  0
   -1.2037   -2.0894   -0.7323 B   0  0  1  0  0  0  0  0  0  0  0  0
   -0.9880   -1.9398    1.0749 B   0  0  1  0  0  0  0  0  0  0  0  0
    0.5467   -0.9482    1.3397 B   0  0  0  0  0  2  0  0  0  0  0  0
    1.9156   -1.8930    0.6799 B   0  0  2  0  0  0  0  0  0  0  0  0
    1.7037   -2.0640   -1.0717 B   0  0  1  0  0  0  0  0  0  0  0  0
    0.2107   -2.9665   -1.3692 B   0  0  2  0  0  0  0  0  0  0  0  0
   -0.4942   -3.4167    0.2145 B   0  0  2  0  0  0  0  0  0  0  0  0
    0.5651   -2.7119    1.4835 B   0  0  2  0  0  0  0  0  0  0  0  0
    1.2666   -3.4095   -0.0030 B   0  0  0  0  0  2  0  0  0  0  0  0
    1.9880    0.5667   -0.5750 N   0  0  0  0  0  0  0  0  0  0  0  0
    3.2390    1.0986    0.0171 C   0  0  0  0  0  0  0  0  0  0  0  0
    3.3975    2.5076   -0.5866 C   0  0  0  0  0  0  0  0  0  0  0  0
    3.1346    1.2258    1.5427 C   0  0  0  0  0  0  0  0  0  0  0  0
    4.4676    0.2498   -0.3777 C   0  0  0  0  0  0  0  0  0  0  0  0
    0.2030   -0.5901   -2.5564 H   0  0  0  0  0  0  0  0  0  0  0  0
   -2.2821   -2.1870   -1.2807 H   0  0  0  0  0  0  0  0  0  0  0  0
   -1.9033   -1.9321    1.8747 H   0  0  0  0  0  0  0  0  0  0  0  0
    0.7509   -0.2075    2.2733 H   0  0  0  0  0  0  0  0  0  0  0  0
    3.0008   -1.7598    1.1866 H   0  0  0  0  0  0  0  0  0  0  0  0
    2.6439   -1.9767   -1.8278 H   0  0  0  0  0  0  0  0  0  0  0  0
    0.0937   -3.6430   -2.3675 H   0  0  0  0  0  0  0  0  0  0  0  0
   -1.1057   -4.4483    0.3901 H   0  0  0  0  0  0  0  0  0  0  0  0
    0.7206   -3.2181    2.5732 H   0  0  0  0  0  0  0  0  0  0  0  0
    1.9365   -4.4179    0.0135 H   0  0  0  0  0  0  0  0  0  0  0  0
    4.3447    2.9724   -0.2497 H   0  0  0  0  0  0  0  0  0  0  0  0
    2.5592    3.1669   -0.2829 H   0  0  0  0  0  0  0  0  0  0  0  0
    3.4233    2.4664   -1.6962 H   0  0  0  0  0  0  0  0  0  0  0  0
    4.0376    1.7369    1.9308 H   0  0  0  0  0  0  0  0  0  0  0  0
    3.0592    0.2413    2.0363 H   0  0  0  0  0  0  0  0  0  0  0  0
    2.2464    1.8239    1.8267 H   0  0  0  0  0  0  0  0  0  0  0  0
    4.3838   -0.7814    0.0096 H   0  0  0  0  0  0  0  0  0  0  0  0
    5.3985    0.6996    0.0238 H   0  0  0  0  0  0  0  0  0  0  0  0
    4.5626    0.1928   -1.4810 H   0  0  0  0  0  0  0  0  0  0  0  0
    2.0079    0.6754   -1.5930 H   0  0  0  0  0  0  0  0  0  0  0  0
  1 12  1  6  0  0  0
  1  6  1  0  0  0  0
  2  8  1  0  0  0  0
  2  1  1  0  0  0  0
  3 18  1  6  0  0  0
  3  9  1  0  0  0  0
  3  4  1  0  0  0  0
  4 10  1  0  0  0  0
  4 19  1  1  0  0  0
  5 10  1  0  0  0  0
  5 20  1  0  0  0  0
  6 21  1  1  0  0  0
  6 10  1  0  0  0  0
  7 22  1  6  0  0  0
  7  1  1  0  0  0  0
  7  6  1  0  0  0  0
  8 23  1  6  0  0  0
  8  7  1  0  0  0  0
  8  3  1  0  0  0  0
  9 24  1  1  0  0  0
  9  4  1  0  0  0  0
 10 25  1  1  0  0  0
 11 26  1  0  0  0  0
 11  9  1  0  0  0  0
 12 13  1  0  0  0  0
 13 15  1  0  0  0  0
 14 28  1  0  0  0  0
 14 27  1  0  0  0  0
 14 13  1  0  0  0  0
 15 32  1  0  0  0  0
 15 30  1  0  0  0  0
 15 31  1  0  0  0  0
 16 33  1  0  0  0  0
 16 13  1  0  0  0  0
 16 34  1  0  0  0  0
 17  2  1  0  0  0  0
 29 14  1  0  0  0  0
 35 16  1  0  0  0  0
 36 12  1  0  0  0  0
M  END
