4
q = -1.0

 21 22  0  0  1  0  0  0  0  0999 V2000
    2.9641   -1.7906    0.0003 B   0  0  0  0  0  2  0  0  0  0  0  0
    3.8603   -0.3610    0.5328 B   0  0  2  0  0  0  0  0  0  0  0  0
    3.3038   -0.4573   -1.1327 B   0  0  0  0  0  0  0  0  0  0  0  0
    1.6957   -1.2265   -1.1353 B   0  0  0  0  0  2  0  0  0  0  0  0
    1.2964   -1.6532    0.6032 B   0  0  0  0  0  0  0  0  0  0  0  0
    2.6691   -1.0787    1.6205 B   0  0  2  0  0  0  0  0  0  0  0  0
    3.0284    0.9341   -0.1915 C   0  0  1  0  0  0  0  0  0  0  0  0
    1.8920    0.4836   -1.1151 C   0  0  1  0  0  0  0  0  0  0  0  0
    1.1240   -0.1865    1.6422 B   0  0  0  0  0  0  0  0  0  0  0  0
    2.7430    0.7117    1.4325 B   0  0  0  0  0  0  0  0  0  0  0  0
    3.5002   -2.8671   -0.1313 H   0  0  0  0  0  0  0  0  0  0  0  0
    5.0425   -0.2637    0.7649 H   0  0  0  0  0  0  0  0  0  0  0  0
    4.0408   -0.4356   -2.0882 H   0  0  0  0  0  0  0  0  0  0  0  0
    1.4774   -1.8572   -2.1459 H   0  0  0  0  0  0  0  0  0  0  0  0
    0.7598   -2.6902    0.9456 H   0  0  0  0  0  0  0  0  0  0  0  0
    3.0183   -1.6531    2.6279 H   0  0  0  0  0  0  0  0  0  0  0  0
    3.6067    1.8102   -0.5171 H   0  0  0  0  0  0  0  0  0  0  0  0
    1.8198    1.0672   -2.0449 H   0  0  0  0  0  0  0  0  0  0  0  0
    0.5483   -0.1511    2.7110 H   0  0  0  0  0  0  0  0  0  0  0  0
    3.2475    1.4424    2.2595 H   0  0  0  0  0  0  0  0  0  0  0  0
    1.4529    1.0622    1.3795 H   0  0  0  0  0  0  0  0  0  0  0  0
  1  5  1  0  0  0  0
  2 12  1  1  0  0  0
  2  6  1  0  0  0  0
  3  8  1  0  0  0  0
  3  2  1  0  0  0  0
  4  8  1  0  0  0  0
  5 15  1  0  0  0  0
  5  9  1  0  0  0  0
  6  9  1  0  0  0  0
  6 16  1  1  0  0  0
  7 17  1  6  0  0  0
  7  2  1  0  0  0  0
  7 10  1  0  0  0  0
  8 18  1  6  0  0  0
  8  7  1  0  0  0  0
  9 19  1  0  0  0  0
 10  6  1  0  0  0  0
 10 20  1  0  0  0  0
 11  1  1  0  0  0  0
 13  3  1  0  0  0  0
 14  4  1  0  0  0  0
 21  9  1  0  0  0  0
M  END
