11
q = -1.0, confidence = 0.12

 25 30  0  0  0  0  0  0  0  0999 V2000
    1.2301   -1.7420    0.5257 Si  0  0  1  0  0  0  0  0  0  0  0  0
    0.2560   -3.1696    1.2809 C   0  0  0  0  0  0  0  0  0  0  0  0
    2.1177   -0.0774    1.4279 B   0  0  0  0  0  0  0  0  0  0  0  0
    3.2097   -1.5065    0.9393 B   0  0  0  0  0  0  0  0  0  0  0  0
    2.7527   -2.1041   -0.7764 B   0  0  0  0  0  0  0  0  0  0  0  0
    1.3505   -1.0806   -1.4546 B   0  0  2  0  0  0  0  0  0  0  0  0
    2.4061    1.2149    0.1856 B   0  0  0  0  0  0  0  0  0  0  0  0
    3.7451    0.1824    0.7725 B   0  0  0  0  0  0  0  0  0  0  0  0
    4.1329   -1.0144   -0.5004 B   0  0  1  0  0  0  0  0  0  0  0  0
    3.0366   -0.7446   -1.8890 B   0  0  0  0  0  0  0  0  0  0  0  0
    1.9585    0.6289   -1.4967 B   0  0  0  0  0  0  0  0  0  0  0  0
    3.6570    0.6434   -0.9514 B   0  0  1  0  0  0  0  0  0  0  0  0
   -0.1827   -2.8666    2.2521 H   0  0  0  0  0  0  0  0  0  0  0  0
   -0.5631   -3.4774    0.6013 H   0  0  0  0  0  0  0  0  0  0  0  0
    0.9299   -4.0331    1.4449 H   0  0  0  0  0  0  0  0  0  0  0  0
    1.8626    0.1382    2.6041 H   0  0  0  0  0  0  0  0  0  0  0  0
    3.6659   -2.2691    1.7746 H   0  0  0  0  0  0  0  0  0  0  0  0
    2.9003   -3.2703   -1.1011 H   0  0  0  0  0  0  0  0  0  0  0  0
    0.5668   -1.5563   -2.2635 H   0  0  0  0  0  0  0  0  0  0  0  0
    2.3600    2.3991    0.4887 H   0  0  0  0  0  0  0  0  0  0  0  0
    4.6063    0.6238    1.5125 H   0  0  0  0  0  0  0  0  0  0  0  0
    5.2674   -1.4263   -0.6591 H   0  0  0  0  0  0  0  0  0  0  0  0
    3.3960   -0.9597   -3.0330 H   0  0  0  0  0  0  0  0  0  0  0  0
    1.5974    1.4014   -2.3736 H   0  0  0  0  0  0  0  0  0  0  0  0
    4.4591    1.4214   -1.4358 H   0  0  0  0  0  0  0  0  0  0  0  0
  1  2  1  1  0  0  0
  1  5  1  0  0  0  0
  1  4  1  0  0  0  0
  1  3  1  0  0  0  0
  2 15  1  0  0  0  0
  2 13  1  0  0  0  0
  3 16  1  0  0  0  0
  4  3  1  0  0  0  0
  4 17  1  0  0  0  0
  5  9  1  0  0  0  0
  6 19  1  6  0  0  0
  6  5  1  0  0  0  0
  7 20  1  0  0  0  0
  7  3  1  0  0  0  0
  8  4  1  0  0  0  0
  8  3  1  0  0  0  0
  8 21  1  0  0  0  0
  9 22  1  6  0  0  0
  9  4  1  0  0  0  0
 10  6  1  0  0  0  0
 10  5  1  0  0  0  0
 11  6  1  0  0  0  0
 11 12  1  0  0  0  0
 12 25  1  6  0  0  0
 12  9  1  0  0  0  0
 12  7  1  0  0  0  0
 14  2  1  0  0  0  0
 18  5  1  0  0  0  0
 23 10  1  0  0  0  0
 24 11  1  0  0  0  0
M  ZBO  3   2   0   3   0   4   0
M  END
