1
q = -1.0, confidence = 0.0

 22 22  0  0  0  0  0  0  0  0999 V2000
    1.2164    1.1745   -0.2145 B   0  0  0  0  0  2  0  0  0  0  0  0
    2.7296    2.1293   -0.6011 Cl  0  0  0  0  0  0  0  0  0  0  0  0
    0.0031    1.9079   -0.3331 N   0  0  0  0  0  0  0  0  0  0  0  0
   -0.1023    3.3318   -0.6688 C   0  0  0  0  0  0  0  0  0  0  0  0
   -1.2796    1.2856   -0.1764 C   0  0  0  0  0  0  0  0  0  0  0  0
   -1.7880    0.4332   -1.1684 C   0  0  0  0  0  0  0  0  0  0  0  0
   -3.0399   -0.1855   -1.0236 C   0  0  0  0  0  0  0  0  0  0  0  0
   -3.8158    0.0723    0.1252 C   0  0  0  0  0  0  0  0  0  0  0  0
   -5.0378   -0.4742    0.3706 O   0  0  0  0  0  0  0  0  0  0  0  0
   -5.5695   -1.3808   -0.5748 C   0  0  0  0  0  0  0  0  0  0  0  0
   -3.3234    0.9566    1.1103 C   0  0  0  0  0  0  0  0  0  0  0  0
   -2.0732    1.5544    0.9578 C   0  0  0  0  0  0  0  0  0  0  0  0
   -0.6690    3.8775    0.1149 H   0  0  0  0  0  0  0  0  0  0  0  0
   -0.6451    3.4668   -1.6292 H   0  0  0  0  0  0  0  0  0  0  0  0
    0.9048    3.7745   -0.7574 H   0  0  0  0  0  0  0  0  0  0  0  0
   -1.1837    0.2498   -2.0687 H   0  0  0  0  0  0  0  0  0  0  0  0
   -3.4030   -0.8569   -1.8132 H   0  0  0  0  0  0  0  0  0  0  0  0
   -6.5483   -1.7098   -0.1790 H   0  0  0  0  0  0  0  0  0  0  0  0
   -4.9160   -2.2725   -0.7083 H   0  0  0  0  0  0  0  0  0  0  0  0
   -5.7251   -0.9032   -1.5688 H   0  0  0  0  0  0  0  0  0  0  0  0
   -3.9411    1.1396    2.0010 H   0  0  0  0  0  0  0  0  0  0  0  0
   -1.6811    2.2179    1.7431 H   0  0  0  0  0  0  0  0  0  0  0  0
  2  1  1  0  0  0  0
  3  1  1  0  0  0  0
  3  5  1  0  0  0  0
  4  3  1  0  0  0  0
  4 13  1  0  0  0  0
  5 12  1  0  0  0  0
  6  7  1  0  0  0  0
  6  5  2  0  0  0  0
  7  8  2  0  0  0  0
  8  9  1  0  0  0  0
  8 11  1  0  0  0  0
 10 18  1  0  0  0  0
 10  9  1  0  0  0  0
 11 21  1  0  0  0  0
 12 11  2  0  0  0  0
 12 22  1  0  0  0  0
 14  4  1  0  0  0  0
 15  4  1  0  0  0  0
 16  6  1  0  0  0  0
 17  7  1  0  0  0  0
 19 10  1  0  0  0  0
 20 10  1  0  0  0  0
M  END
