27
q = -2.0, confidence = 0.804

 28 32  0  0  1  0  0  0  0  0999 V2000
   -2.1172   -2.1075    0.8381 B   0  0  1  0  0  0  0  0  0  0  0  0
   -2.2038   -2.9232    1.7259 H   0  0  0  0  0  0  0  0  0  0  0  0
   -1.9840    0.6273    0.3531 C   0  0  1  0  0  0  0  0  0  0  0  0
   -2.2214    1.9814    1.0053 C   0  0  0  0  0  0  0  0  0  0  0  0
   -3.2675    2.0790    1.3533 H   0  0  0  0  0  0  0  0  0  0  0  0
   -2.0310    2.7796    0.2667 H   0  0  0  0  0  0  0  0  0  0  0  0
   -1.5526    2.1461    1.8715 H   0  0  0  0  0  0  0  0  0  0  0  0
   -2.5511   -1.0584   -1.8017 B   0  0  1  0  0  0  0  0  0  0  0  0
   -3.0330   -1.1827   -2.9056 H   0  0  0  0  0  0  0  0  0  0  0  0
   -0.8851   -0.4901    2.6725 C   0  0  0  0  0  0  0  0  0  0  0  0
   -0.6960    0.5695    2.9312 H   0  0  0  0  0  0  0  0  0  0  0  0
    0.0490   -1.0563    2.8465 H   0  0  0  0  0  0  0  0  0  0  0  0
   -1.6600   -0.8815    3.3593 H   0  0  0  0  0  0  0  0  0  0  0  0
   -0.5175   -1.7644    0.1309 B   0  0  0  0  0  0  0  0  0  0  0  0
    0.3616   -2.4740    0.5693 H   0  0  0  0  0  0  0  0  0  0  0  0
   -3.0108   -0.6037    0.9901 B   0  0  2  0  0  0  0  0  0  0  0  0
   -3.6731   -0.3047    1.9533 H   0  0  0  0  0  0  0  0  0  0  0  0
   -3.3687   -1.6977   -0.3555 B   0  0  2  0  0  0  0  0  0  0  0  0
   -4.4296   -2.2782   -0.3818 H   0  0  0  0  0  0  0  0  0  0  0  0
   -3.2657    0.0575   -0.6201 B   0  0  1  0  0  0  0  0  0  0  0  0
   -4.1911    0.8164   -0.7905 H   0  0  0  0  0  0  0  0  0  0  0  0
   -1.8290   -2.4146   -0.8866 B   0  0  2  0  0  0  0  0  0  0  0  0
   -1.7706   -3.5475   -1.3108 H   0  0  0  0  0  0  0  0  0  0  0  0
   -1.3015   -0.6508    1.2175 C   0  0  2  0  0  0  0  0  0  0  0  0
   -0.7784   -1.1261   -1.5540 B   0  0  0  0  0  0  0  0  0  0  0  0
   -0.0750   -1.3931   -2.5076 H   0  0  0  0  0  0  0  0  0  0  0  0
   -1.6856    0.4361   -1.3582 B   0  0  0  0  0  0  0  0  0  0  0  0
   -1.6888    1.4202   -2.0694 H   0  0  0  0  0  0  0  0  0  0  0  0
  1 16  1  0  0  0  0
  1 24  1  0  0  0  0
  1  2  1  1  0  0  0
  3 16  1  0  0  0  0
  3  4  1  1  0  0  0
  3 24  1  0  0  0  0
  4  5  1  0  0  0  0
  4  7  1  0  0  0  0
  6  4  1  0  0  0  0
  8  9  1  6  0  0  0
  8 27  1  0  0  0  0
  8 20  1  0  0  0  0
  8 18  1  0  0  0  0
 10 12  1  0  0  0  0
 10 11  1  0  0  0  0
 10 13  1  0  0  0  0
 14 15  1  0  0  0  0
 16 24  1  0  0  0  0
 16 17  1  1  0  0  0
 18 19  1  6  0  0  0
 20 21  1  6  0  0  0
 20 18  1  0  0  0  0
 20  3  1  0  0  0  0
 22 23  1  6  0  0  0
 22 18  1  0  0  0  0
 22 14  1  0  0  0  0
 22  1  1  0  0  0  0
 24 10  1  1  0  0  0
 25 27  1  0  0  0  0
 25 14  1  0  0  0  0
 26 25  1  0  0  0  0
 28 27  1  0  0  0  0
M  END
