13
q = -1.0

 25 26  0  0  0  0  0  0  0  0999 V2000
   -0.4299   -1.7448   -1.4343 O   0  0  0  0  0  0  0  0  0  0  0  0
   -0.0067   -1.7427    0.8308 O   0  0  0  0  0  0  0  0  0  0  0  0
    0.7084   -2.4676   -1.1863 C   0  0  0  0  0  0  0  0  0  0  0  0
    1.5513   -3.1334   -2.0737 C   0  0  0  0  0  0  0  0  0  0  0  0
    2.6647   -3.7965   -1.5219 C   0  0  0  0  0  0  0  0  0  0  0  0
    2.9445   -3.8061   -0.1342 C   0  0  0  0  0  0  0  0  0  0  0  0
    2.0678   -3.1216    0.7422 C   0  0  0  0  0  0  0  0  0  0  0  0
    0.9675   -2.4668    0.1918 C   0  0  0  0  0  0  0  0  0  0  0  0
    4.1915   -4.5516    0.3815 C   0  0  0  0  0  0  0  0  0  0  0  0
    4.0942   -6.0448   -0.0055 C   0  0  0  0  0  0  0  0  0  0  0  0
    5.4565   -3.9343   -0.2572 C   0  0  0  0  0  0  0  0  0  0  0  0
    4.3305   -4.4591    1.9108 C   0  0  0  0  0  0  0  0  0  0  0  0
   -0.9060   -1.2654   -0.1737 B   0  0  0  0  0  2  0  0  0  0  0  0
    1.3553   -3.1358   -3.1553 H   0  0  0  0  0  0  0  0  0  0  0  0
    3.3426   -4.3249   -2.2089 H   0  0  0  0  0  0  0  0  0  0  0  0
    2.2303   -3.0893    1.8266 H   0  0  0  0  0  0  0  0  0  0  0  0
    3.1942   -6.5111    0.4439 H   0  0  0  0  0  0  0  0  0  0  0  0
    4.0310   -6.1817   -1.1032 H   0  0  0  0  0  0  0  0  0  0  0  0
    4.9866   -6.5992    0.3530 H   0  0  0  0  0  0  0  0  0  0  0  0
    5.5485   -2.8616    0.0077 H   0  0  0  0  0  0  0  0  0  0  0  0
    6.3683   -4.4584    0.0985 H   0  0  0  0  0  0  0  0  0  0  0  0
    5.4354   -4.0065   -1.3626 H   0  0  0  0  0  0  0  0  0  0  0  0
    3.4608   -4.9081    2.4316 H   0  0  0  0  0  0  0  0  0  0  0  0
    5.2362   -5.0073    2.2401 H   0  0  0  0  0  0  0  0  0  0  0  0
    4.4336   -3.4094    2.2523 H   0  0  0  0  0  0  0  0  0  0  0  0
  1  3  1  0  0  0  0
  1 13  1  0  0  0  0
  3  8  1  0  0  0  0
  4  5  1  0  0  0  0
  4  3  2  0  0  0  0
  5  6  2  0  0  0  0
  6  9  1  0  0  0  0
  6  7  1  0  0  0  0
  7 16  1  0  0  0  0
  8  7  2  0  0  0  0
  8  2  1  0  0  0  0
  9 12  1  0  0  0  0
 10 19  1  0  0  0  0
 10  9  1  0  0  0  0
 10 17  1  0  0  0  0
 11 20  1  0  0  0  0
 11 21  1  0  0  0  0
 11  9  1  0  0  0  0
 12 24  1  0  0  0  0
 12 25  1  0  0  0  0
 12 23  1  0  0  0  0
 13  2  1  0  0  0  0
 14  4  1  0  0  0  0
 15  5  1  0  0  0  0
 18 10  1  0  0  0  0
 22 11  1  0  0  0  0
M  END
