11
q = -1.0, confidence = 0.0

 21 24  0  0  1  0  0  0  0  0999 V2000
   -5.0642   -1.3724   -0.2993 B   0  0  0  0  0  2  0  0  0  0  0  0
   -3.8552   -1.5546   -1.6298 B   0  0  1  0  0  0  0  0  0  0  0  0
   -3.8590   -2.6778   -0.2566 B   0  0  2  0  0  0  0  0  0  0  0  0
   -4.2390   -1.7922    1.2245 B   0  0  0  0  0  2  0  0  0  0  0  0
   -4.4858   -0.0945    0.7894 B   0  0  1  0  0  0  0  0  0  0  0  0
   -4.2600    0.0782   -0.9736 B   0  0  0  0  0  0  0  0  0  0  0  0
   -2.6213   -2.0642    0.7322 C   0  0  2  0  0  0  0  0  0  0  0  0
   -2.9428   -0.6588    1.2877 C   0  0  1  0  0  0  0  0  0  0  0  0
   -2.9356    0.4561    0.1159 B   0  0  2  0  0  0  0  0  0  0  0  0
   -2.5819   -0.3191   -1.4627 B   0  0  1  0  0  0  0  0  0  0  0  0
   -2.2984   -2.0500   -0.8971 B   0  0  0  0  0  0  0  0  0  0  0  0
   -6.2447   -1.5864   -0.4591 H   0  0  0  0  0  0  0  0  0  0  0  0
   -4.2110   -1.9025   -2.7352 H   0  0  0  0  0  0  0  0  0  0  0  0
   -4.0968   -3.8628   -0.2908 H   0  0  0  0  0  0  0  0  0  0  0  0
   -4.6824   -2.2884    2.2324 H   0  0  0  0  0  0  0  0  0  0  0  0
   -5.1592    0.6025    1.5196 H   0  0  0  0  0  0  0  0  0  0  0  0
   -4.8684    0.9201   -1.6043 H   0  0  0  0  0  0  0  0  0  0  0  0
   -2.0939   -2.7506    1.4091 H   0  0  0  0  0  0  0  0  0  0  0  0
   -2.6096   -0.4350    2.3116 H   0  0  0  0  0  0  0  0  0  0  0  0
   -2.2656    0.2385   -2.5047 H   0  0  0  0  0  0  0  0  0  0  0  0
   -1.6617   -2.9536   -1.4089 H   0  0  0  0  0  0  0  0  0  0  0  0
  1  5  1  0  0  0  0
  2 13  1  6  0  0  0
  2 10  1  0  0  0  0
  2 11  1  0  0  0  0
  2  3  1  0  0  0  0
  3 14  1  6  0  0  0
  3  7  1  0  0  0  0
  3  4  1  0  0  0  0
  4 15  1  0  0  0  0
  5  8  1  0  0  0  0
  5 16  1  1  0  0  0
  7  8  1  0  0  0  0
  7 18  1  1  0  0  0
  8 19  1  1  0  0  0
  9  6  1  6  0  0  0
  9  5  1  0  0  0  0
  9  8  1  0  0  0  0
 10 20  1  6  0  0  0
 10  6  1  0  0  0  0
 10  9  1  0  0  0  0
 11  7  1  0  0  0  0
 12  1  1  0  0  0  0
 17  6  1  0  0  0  0
 21 11  1  0  0  0  0
M  END
