2
q = -1.0

 21 20  0  0  0  0  0  0  0  0999 V2000
   -1.7131   -2.8130   -1.4569 I   0  0  0  0  0  0  0  0  0  0  0  0
   -0.0891   -1.3539    1.1349 B   0  0  0  0  0  2  0  0  0  0  0  0
   -0.2109   -2.7860    0.1792 B   0  0  0  0  0  0  0  0  0  0  0  0
   -0.1575   -1.4325    2.5638 N   0  0  0  0  0  0  0  0  0  0  0  0
    0.6000   -3.9478    0.2767 N   0  0  0  0  0  0  0  0  0  0  0  0
    0.1939   -0.3350    3.4539 C   0  0  0  0  0  0  0  0  0  0  0  0
    0.5337    0.5267    2.8472 H   0  0  0  0  0  0  0  0  0  0  0  0
    1.0028   -0.6387    4.1570 H   0  0  0  0  0  0  0  0  0  0  0  0
   -0.6687   -0.0119    4.0809 H   0  0  0  0  0  0  0  0  0  0  0  0
   -0.6352   -2.5996    3.2906 C   0  0  0  0  0  0  0  0  0  0  0  0
    0.1374   -3.0011    3.9870 H   0  0  0  0  0  0  0  0  0  0  0  0
   -0.9318   -3.3977    2.5851 H   0  0  0  0  0  0  0  0  0  0  0  0
   -1.5258   -2.3418    3.9070 H   0  0  0  0  0  0  0  0  0  0  0  0
    1.5010   -4.1580    1.4063 C   0  0  0  0  0  0  0  0  0  0  0  0
    2.5325   -4.3798    1.0538 H   0  0  0  0  0  0  0  0  0  0  0  0
    1.1657   -5.0270    2.0160 H   0  0  0  0  0  0  0  0  0  0  0  0
    1.5319   -3.2653    2.0514 H   0  0  0  0  0  0  0  0  0  0  0  0
    0.6362   -5.0879   -0.6310 C   0  0  0  0  0  0  0  0  0  0  0  0
    0.3221   -6.0182   -0.1075 H   0  0  0  0  0  0  0  0  0  0  0  0
    1.6720   -5.2481   -1.0045 H   0  0  0  0  0  0  0  0  0  0  0  0
   -0.0332   -4.9260   -1.4936 H   0  0  0  0  0  0  0  0  0  0  0  0
  1  3  1  0  0  0  0
  2  4  1  0  0  0  0
  3  5  1  0  0  0  0
  3  2  1  0  0  0  0
  4 10  1  0  0  0  0
  4  6  1  0  0  0  0
  5 14  1  0  0  0  0
  6  9  1  0  0  0  0
  6  8  1  0  0  0  0
  7  6  1  0  0  0  0
 10 13  1  0  0  0  0
 10 11  1  0  0  0  0
 12 10  1  0  0  0  0
 14 16  1  0  0  0  0
 14 17  1  0  0  0  0
 15 14  1  0  0  0  0
 18 19  1  0  0  0  0
 18  5  1  0  0  0  0
 20 18  1  0  0  0  0
 21 18  1  0  0  0  0
M  END
