1
q = -1.0

 23 22  0  0  0  0  0  0  0  0999 V2000
    0.6556   -0.6120    0.0038 B   0  0  0  0  0  2  0  0  0  0  0  0
    0.7899   -2.4021   -0.3459 Cl  0  0  0  0  0  0  0  0  0  0  0  0
    1.8429    0.1602   -0.0407 N   0  0  0  0  0  0  0  0  0  0  0  0
    1.7886    1.6360    0.0841 C   0  0  0  0  0  0  0  0  0  0  0  0
    2.4910    2.1498    1.3467 C   0  0  0  0  0  0  0  0  0  0  0  0
    2.2788    2.3455   -1.1862 C   0  0  0  0  0  0  0  0  0  0  0  0
    3.2273   -0.3684   -0.2189 C   0  0  0  0  0  0  0  0  0  0  0  0
    3.6551   -1.3009    0.9208 C   0  0  0  0  0  0  0  0  0  0  0  0
    3.4742   -0.9632   -1.6119 C   0  0  0  0  0  0  0  0  0  0  0  0
    0.7145    1.8756    0.1838 H   0  0  0  0  0  0  0  0  0  0  0  0
    2.3352    3.2424    1.4507 H   0  0  0  0  0  0  0  0  0  0  0  0
    2.0804    1.6598    2.2504 H   0  0  0  0  0  0  0  0  0  0  0  0
    3.5864    1.9743    1.3207 H   0  0  0  0  0  0  0  0  0  0  0  0
    2.1169    3.4387   -1.0965 H   0  0  0  0  0  0  0  0  0  0  0  0
    1.7278    1.9861   -2.0785 H   0  0  0  0  0  0  0  0  0  0  0  0
    3.3618    2.1895   -1.3693 H   0  0  0  0  0  0  0  0  0  0  0  0
    3.8856    0.5213   -0.1461 H   0  0  0  0  0  0  0  0  0  0  0  0
    4.7299   -1.5548    0.8192 H   0  0  0  0  0  0  0  0  0  0  0  0
    3.0763   -2.2432    0.9163 H   0  0  0  0  0  0  0  0  0  0  0  0
    3.5079   -0.8079    1.9019 H   0  0  0  0  0  0  0  0  0  0  0  0
    4.5513   -1.1969   -1.7366 H   0  0  0  0  0  0  0  0  0  0  0  0
    2.8982   -1.8943   -1.7648 H   0  0  0  0  0  0  0  0  0  0  0  0
    3.1876   -0.2429   -2.4035 H   0  0  0  0  0  0  0  0  0  0  0  0
  2  1  1  0  0  0  0
  3  1  1  0  0  0  0
  3  4  1  0  0  0  0
  4 10  1  0  0  0  0
  4  5  1  0  0  0  0
  5 11  1  0  0  0  0
  5 12  1  0  0  0  0
  6 14  1  0  0  0  0
  6  4  1  0  0  0  0
  7 17  1  0  0  0  0
  7  3  1  0  0  0  0
  7  8  1  0  0  0  0
  8 20  1  0  0  0  0
  9  7  1  0  0  0  0
 13  5  1  0  0  0  0
 15  6  1  0  0  0  0
 16  6  1  0  0  0  0
 18  8  1  0  0  0  0
 19  8  1  0  0  0  0
 21  9  1  0  0  0  0
 22  9  1  0  0  0  0
 23  9  1  0  0  0  0
M  END
