7
q = -1.0

 21 26  0  0  1  0  0  0  0  0999 V2000
   -1.5202   -1.7132   -0.9117 C   0  0  2  0  0  0  0  0  0  0  0  0
   -1.1971   -2.5716   -1.5175 H   0  0  0  0  0  0  0  0  0  0  0  0
   -1.5176   -1.8658    0.6743 C   0  0  1  0  0  0  0  0  0  0  0  0
   -1.1925   -2.8244    1.1027 H   0  0  0  0  0  0  0  0  0  0  0  0
   -1.2942   -0.3935    1.4889 B   0  0  2  0  0  0  0  0  0  0  0  0
   -0.9269   -0.3587    2.6278 H   0  0  0  0  0  0  0  0  0  0  0  0
   -1.1545    0.8102    0.1366 B   0  0  0  0  0  2  0  0  0  0  0  0
   -1.2987   -0.1126   -1.4294 B   0  0  2  0  0  0  0  0  0  0  0  0
   -0.9473    0.1444   -2.5451 H   0  0  0  0  0  0  0  0  0  0  0  0
   -3.0375   -2.0120   -0.1388 B   0  0  2  0  0  0  0  0  0  0  0  0
   -3.5371   -3.1021   -0.2460 H   0  0  0  0  0  0  0  0  0  0  0  0
   -2.9001   -1.1372    1.3759 B   0  0  1  0  0  0  0  0  0  0  0  0
   -3.3655   -1.6094    2.3830 H   0  0  0  0  0  0  0  0  0  0  0  0
   -2.6900    0.6114    1.0202 B   0  0  1  0  0  0  0  0  0  0  0  0
   -3.1041    1.4618    1.7743 H   0  0  0  0  0  0  0  0  0  0  0  0
   -2.6866    0.7863   -0.7655 B   0  0  1  0  0  0  0  0  0  0  0  0
   -3.1087    1.7614   -1.3460 H   0  0  0  0  0  0  0  0  0  0  0  0
   -2.9026   -0.8607   -1.4560 B   0  0  2  0  0  0  0  0  0  0  0  0
   -3.3740   -1.1278   -2.5331 H   0  0  0  0  0  0  0  0  0  0  0  0
   -3.7745   -0.3927    0.0214 B   0  0  1  0  0  0  0  0  0  0  0  0
   -4.9760   -0.2704    0.0317 H   0  0  0  0  0  0  0  0  0  0  0  0
  1  2  1  6  0  0  0
  1  3  1  0  0  0  0
  3  4  1  1  0  0  0
  3 12  1  0  0  0  0
  3  5  1  0  0  0  0
  5  6  1  1  0  0  0
  7 14  1  0  0  0  0
  8  9  1  6  0  0  0
  8  1  1  0  0  0  0
  8 16  1  0  0  0  0
 10 11  1  6  0  0  0
 10 20  1  0  0  0  0
 10 12  1  0  0  0  0
 12  5  1  0  0  0  0
 12 13  1  1  0  0  0
 14  5  1  0  0  0  0
 14 15  1  1  0  0  0
 16 17  1  6  0  0  0
 16 20  1  0  0  0  0
 16  7  1  0  0  0  0
 18 19  1  6  0  0  0
 18  8  1  0  0  0  0
 18  1  1  0  0  0  0
 18 10  1  0  0  0  0
 20 21  1  1  0  0  0
 20 14  1  0  0  0  0
M  END
