8
q = 0.0, confidence = 0.58

 21 23  0  0  1  0  0  0  0  0999 V2000
   -0.7116    2.0672    0.4906 C   0  0  1  0  0  0  0  0  0  0  0  0
    0.2841    2.2325    0.9251 H   0  0  0  0  0  0  0  0  0  0  0  0
   -1.8560    1.1073    1.3065 B   0  0  0  0  0  2  0  0  0  0  0  0
   -1.6551    0.6229    2.4000 H   0  0  0  0  0  0  0  0  0  0  0  0
   -2.9761    0.5663    0.0190 B   0  0  0  0  0  0  0  0  0  0  0  0
   -2.4118    1.1254   -1.5812 B   0  0  0  0  0  2  0  0  0  0  0  0
   -2.7050    0.6373   -2.6553 H   0  0  0  0  0  0  0  0  0  0  0  0
   -0.8954    2.0800   -1.2091 B   0  0  0  0  0  0  0  0  0  0  0  0
    0.0469    2.3205   -1.9278 H   0  0  0  0  0  0  0  0  0  0  0  0
   -1.3393    3.4836   -0.2138 B   0  0  1  0  0  0  0  0  0  0  0  0
   -0.6415    4.4689   -0.2663 H   0  0  0  0  0  0  0  0  0  0  0  0
   -1.9329    2.8875    1.3443 B   0  0  1  0  0  0  0  0  0  0  0  0
   -1.6563    3.4526    2.3770 H   0  0  0  0  0  0  0  0  0  0  0  0
   -3.4091    1.9554    1.0375 B   0  0  0  0  0  0  0  0  0  0  0  0
   -4.2952    1.8334    1.8611 H   0  0  0  0  0  0  0  0  0  0  0  0
   -3.7344    1.9936   -0.7121 B   0  0  2  0  0  0  0  0  0  0  0  0
   -4.8671    1.9438   -1.1471 H   0  0  0  0  0  0  0  0  0  0  0  0
   -2.4418    2.9209   -1.4945 B   0  0  1  0  0  0  0  0  0  0  0  0
   -2.6157    3.5670   -2.5042 H   0  0  0  0  0  0  0  0  0  0  0  0
   -3.0894    3.4331    0.0975 B   0  0  0  0  0  0  0  0  0  0  0  0
   -3.7360    4.4466    0.2434 H   0  0  0  0  0  0  0  0  0  0  0  0
  1  2  1  1  0  0  0
  1  3  1  0  0  0  0
  1 12  1  0  0  0  0
  3  4  1  0  0  0  0
  5 14  1  0  0  0  0
  6  5  1  0  0  0  0
  7  6  1  0  0  0  0
  8 10  1  0  0  0  0
  9  8  1  0  0  0  0
 10 11  1  6  0  0  0
 10  1  1  0  0  0  0
 10 12  1  0  0  0  0
 12 13  1  1  0  0  0
 14 12  1  0  0  0  0
 14 15  1  0  0  0  0
 16 17  1  6  0  0  0
 16  5  1  0  0  0  0
 16 20  1  0  0  0  0
 18 19  1  6  0  0  0
 18  8  1  0  0  0  0
 18 16  1  0  0  0  0
 18 20  1  0  0  0  0
 20 21  1  0  0  0  0
M  END
