9
q = -2.0, confidence = 0.53

 20 23  0  0  1  0  0  0  0  0999 V2000
   -3.0283    0.2365    1.5433 C   0  0  2  0  0  0  0  0  0  0  0  0
   -2.9832    1.4041    0.5804 C   0  0  2  0  0  0  0  0  0  0  0  0
   -4.3296   -0.7602    1.3266 B   0  0  0  0  0  0  0  0  0  0  0  0
   -4.5131    1.0025    1.2702 B   0  0  1  0  0  0  0  0  0  0  0  0
   -2.7231   -0.9020   -1.1386 B   0  0  2  0  0  0  0  0  0  0  0  0
   -4.2162   -1.4052   -0.3400 B   0  0  1  0  0  0  0  0  0  0  0  0
   -5.2551    0.0079   -0.0030 B   0  0  1  0  0  0  0  0  0  0  0  0
   -4.2900    1.4675   -0.4375 B   0  0  0  0  0  0  0  0  0  0  0  0
   -2.6974    0.9161   -1.0856 B   0  0  0  0  0  2  0  0  0  0  0  0
   -4.2209   -0.0149   -1.4455 B   0  0  1  0  0  0  0  0  0  0  0  0
   -2.5713    0.3643    2.5331 H   0  0  0  0  0  0  0  0  0  0  0  0
   -2.5259    2.3364    0.9368 H   0  0  0  0  0  0  0  0  0  0  0  0
   -4.7566   -1.3814    2.2715 H   0  0  0  0  0  0  0  0  0  0  0  0
   -5.0217    1.6957    2.1166 H   0  0  0  0  0  0  0  0  0  0  0  0
   -2.2987   -1.6172   -2.0274 H   0  0  0  0  0  0  0  0  0  0  0  0
   -4.7138   -2.4844   -0.5779 H   0  0  0  0  0  0  0  0  0  0  0  0
   -6.4621   -0.0319   -0.0744 H   0  0  0  0  0  0  0  0  0  0  0  0
   -4.7054    2.5363   -0.8194 H   0  0  0  0  0  0  0  0  0  0  0  0
   -2.3511    1.7627   -1.8881 H   0  0  0  0  0  0  0  0  0  0  0  0
   -4.7149   -0.0029   -2.5518 H   0  0  0  0  0  0  0  0  0  0  0  0
  1 11  1  1  0  0  0
  2 12  1  1  0  0  0
  2  4  1  0  0  0  0
  2  1  1  0  0  0  0
  3  1  1  0  0  0  0
  3 13  1  0  0  0  0
  4  3  1  0  0  0  0
  4  1  1  0  0  0  0
  4 14  1  1  0  0  0
  5 15  1  6  0  0  0
  5  9  1  0  0  0  0
  5  6  1  0  0  0  0
  6 16  1  6  0  0  0
  6  7  1  0  0  0  0
  7 17  1  6  0  0  0
  8  7  1  0  0  0  0
  8  2  1  0  0  0  0
 10 20  1  6  0  0  0
 10  5  1  0  0  0  0
 10  6  1  0  0  0  0
 10  7  1  0  0  0  0
 18  8  1  0  0  0  0
 19  9  1  0  0  0  0
M  END
