3
q = -1.0, confidence = 0.0

 16 15  0  0  0  0  0  0  0  0999 V2000
   -1.4772    1.8650    1.2199 Cl  0  0  0  0  0  0  0  0  0  0  0  0
   -2.8313   -0.1126   -0.5179 P   0  0  0  0  0  4  0  0  0  0  0  0
   -1.1464    0.1162    0.5311 B   0  0  0  0  0  0  0  0  0  0  0  0
   -1.4891   -1.1913    1.8799 Cl  0  0  0  0  0  0  0  0  0  0  0  0
   -4.2762    0.1610    0.5764 C   0  0  0  0  0  0  0  0  0  0  0  0
   -5.2221    0.0341    0.0151 H   0  0  0  0  0  0  0  0  0  0  0  0
   -4.2038    1.1828    0.9938 H   0  0  0  0  0  0  0  0  0  0  0  0
   -4.2171   -0.5648    1.4092 H   0  0  0  0  0  0  0  0  0  0  0  0
   -3.0770    1.0668   -1.8948 C   0  0  0  0  0  0  0  0  0  0  0  0
   -2.8598    2.0834   -1.5148 H   0  0  0  0  0  0  0  0  0  0  0  0
   -4.1210    1.0137   -2.2605 H   0  0  0  0  0  0  0  0  0  0  0  0
   -2.3786    0.8470   -2.7222 H   0  0  0  0  0  0  0  0  0  0  0  0
   -3.1082   -1.7812   -1.2157 C   0  0  0  0  0  0  0  0  0  0  0  0
   -4.1545   -1.8782   -1.5653 H   0  0  0  0  0  0  0  0  0  0  0  0
   -2.9066   -2.5184   -0.4150 H   0  0  0  0  0  0  0  0  0  0  0  0
   -2.4126   -1.9745   -2.0517 H   0  0  0  0  0  0  0  0  0  0  0  0
  2  3  1  0  0  0  0
  2  5  1  0  0  0  0
  3  1  1  0  0  0  0
  3  4  1  0  0  0  0
  5  7  1  0  0  0  0
  5  8  1  0  0  0  0
  6  5  1  0  0  0  0
  9 10  1  0  0  0  0
  9  2  1  0  0  0  0
 11  9  1  0  0  0  0
 12  9  1  0  0  0  0
 13  2  1  0  0  0  0
 13 15  1  0  0  0  0
 14 13  1  0  0  0  0
 16 13  1  0  0  0  0
M  END
