2,3
q = -1.0, confidence = 0.0

 20 21  0  0  0  0  0  0  0  0999 V2000
   -3.8835   -2.9769   -0.1671 F   0  0  0  0  0  0  0  0  0  0  0  0
   -0.7136   -1.3274    0.7840 C   0  0  0  0  0  3  0  0  0  0  0  0
   -1.0495   -0.0045   -1.4534 N   0  0  0  0  0  2  0  0  0  0  0  0
   -1.0507    0.7617   -2.5656 C   0  0  0  0  0  3  0  0  0  0  0  0
   -0.1967    1.4493   -2.6546 H   0  0  0  0  0  0  0  0  0  0  0  0
   -1.8748   -1.6767    0.0096 C   0  0  0  0  0  0  0  0  0  0  0  0
   -1.1727   -3.5765    3.6289 F   0  0  0  0  0  0  0  0  0  0  0  0
   -2.0440   -0.9336   -1.2350 C   0  0  0  0  0  0  0  0  0  0  0  0
   -2.0536    0.6595   -3.5306 C   0  0  0  0  0  0  0  0  0  0  0  0
   -2.0166    1.3007   -4.4219 H   0  0  0  0  0  0  0  0  0  0  0  0
   -3.0808   -0.2776   -3.3342 C   0  0  0  0  0  0  0  0  0  0  0  0
   -3.8869   -0.3881   -4.0748 H   0  0  0  0  0  0  0  0  0  0  0  0
   -3.0756   -1.0749   -2.1871 C   0  0  0  0  0  0  0  0  0  0  0  0
   -3.8635   -1.8131   -2.0085 H   0  0  0  0  0  0  0  0  0  0  0  0
   -1.3974   -2.9531    2.4566 C   0  0  0  0  0  0  0  0  0  0  0  0
   -2.7592   -2.6519    0.5155 C   0  0  0  0  0  0  0  0  0  0  0  0
   -0.4883   -1.9898    2.0085 C   0  0  0  0  0  0  0  0  0  0  0  0
    0.3933   -1.7710    2.6276 H   0  0  0  0  0  0  0  0  0  0  0  0
   -2.5466   -3.3022    1.7312 C   0  0  0  0  0  0  0  0  0  0  0  0
   -3.2521   -4.0575    2.0989 H   0  0  0  0  0  0  0  0  0  0  0  0
  1 16  1  0  0  0  0
  2 17  1  0  0  0  0
  3  8  1  0  0  0  0
  4  3  1  0  0  0  0
  5  4  1  0  0  0  0
  6 16  1  0  0  0  0
  6  2  2  0  0  0  0
  8  6  1  0  0  0  0
  9 11  2  0  0  0  0
  9  4  1  0  0  0  0
 10  9  1  0  0  0  0
 11 13  1  0  0  0  0
 12 11  1  0  0  0  0
 13 14  1  0  0  0  0
 13  8  2  0  0  0  0
 15  7  1  0  0  0  0
 16 19  2  0  0  0  0
 17 15  2  0  0  0  0
 17 18  1  0  0  0  0
 19 20  1  0  0  0  0
 19 15  1  0  0  0  0
M  END
