1,14
q = -1.0

 22 22  0  0  0  0  0  0  0  0999 V2000
    0.2485    2.3022    0.2966 C   0  0  0  0  0  3  0  0  0  0  0  0
   -0.4714    3.5332    0.3567 C   0  0  0  0  0  0  0  0  0  0  0  0
    0.1910    4.7688    0.4590 C   0  0  0  0  0  0  0  0  0  0  0  0
   -0.4003    5.6986    0.4894 H   0  0  0  0  0  0  0  0  0  0  0  0
    1.5912    4.8238    0.5141 C   0  0  0  0  0  0  0  0  0  0  0  0
    2.1073    5.7924    0.5955 H   0  0  0  0  0  0  0  0  0  0  0  0
    2.3175    3.6277    0.4491 C   0  0  0  0  0  0  0  0  0  0  0  0
    3.4184    3.6448    0.4825 H   0  0  0  0  0  0  0  0  0  0  0  0
    1.6545    2.3920    0.3389 C   0  0  0  0  0  0  0  0  0  0  0  0
    2.2677    1.4852    0.2974 H   0  0  0  0  0  0  0  0  0  0  0  0
   -1.9697    3.4591    0.2996 C   0  0  0  0  0  0  0  0  0  0  0  0
   -2.3898    3.2539    1.3080 H   0  0  0  0  0  0  0  0  0  0  0  0
   -2.4282    4.4110   -0.0607 H   0  0  0  0  0  0  0  0  0  0  0  0
   -2.3796    2.3292   -0.5734 N   0  0  0  0  0  0  0  0  0  0  0  0
   -2.0994    2.6184   -1.9982 C   0  0  0  0  0  0  0  0  0  0  0  0
   -2.7308    3.4678   -2.3500 H   0  0  0  0  0  0  0  0  0  0  0  0
   -2.3180    1.7082   -2.5866 H   0  0  0  0  0  0  0  0  0  0  0  0
   -1.0338    2.8860   -2.1167 H   0  0  0  0  0  0  0  0  0  0  0  0
   -3.8156    2.0532   -0.3920 C   0  0  0  0  0  0  0  0  0  0  0  0
   -4.4025    2.9869   -0.5530 H   0  0  0  0  0  0  0  0  0  0  0  0
   -4.0038    1.6706    0.6276 H   0  0  0  0  0  0  0  0  0  0  0  0
   -4.1536    1.3018   -1.1238 H   0  0  0  0  0  0  0  0  0  0  0  0
  1  9  2  0  0  0  0
  1  2  1  0  0  0  0
  2  3  2  0  0  0  0
  3  4  1  0  0  0  0
  3  5  1  0  0  0  0
  5  6  1  0  0  0  0
  7  8  1  0  0  0  0
  7  5  2  0  0  0  0
  9  7  1  0  0  0  0
 10  9  1  0  0  0  0
 11  2  1  0  0  0  0
 11 12  1  0  0  0  0
 13 11  1  0  0  0  0
 14 19  1  0  0  0  0
 14 11  1  0  0  0  0
 15 14  1  0  0  0  0
 16 15  1  0  0  0  0
 17 15  1  0  0  0  0
 18 15  1  0  0  0  0
 19 21  1  0  0  0  0
 20 19  1  0  0  0  0
 22 19  1  0  0  0  0
M  END
