2,3
q = 0.0, confidence = 0.936

 24 24  0  0  1  0  0  0  0  0999 V2000
    1.6682   -1.5794   -0.1290 Si  0  0  0  0  0  0  0  0  0  0  0  0
    0.7707    1.0614   -0.0245 N   0  0  0  0  0  2  0  0  0  0  0  0
   -0.4566   -0.8381   -1.9438 C   0  0  0  0  0  3  0  0  0  0  0  0
   -0.0348   -1.7003   -0.8579 C   0  0  0  0  0  3  0  0  0  0  0  0
    1.7887   -2.2788    1.6223 C   0  0  0  0  0  0  0  0  0  0  0  0
    3.0594   -2.3087   -1.1906 C   0  0  0  0  0  0  0  0  0  0  0  0
    1.9183    0.3188   -0.0613 C   0  0  1  0  0  3  0  0  0  0  0  0
    3.1727    0.9562   -0.0268 C   0  0  0  0  0  0  0  0  0  0  0  0
    3.2613    2.3508    0.0612 C   0  0  0  0  0  0  0  0  0  0  0  0
    2.0716    3.0903    0.1042 C   0  0  0  0  0  0  0  0  0  0  0  0
    0.8516    2.4098    0.0569 C   0  0  0  0  0  0  0  0  0  0  0  0
    0.2729   -0.1585   -2.4201 H   0  0  0  0  0  0  0  0  0  0  0  0
   -1.2416   -1.1845   -2.6357 H   0  0  0  0  0  0  0  0  0  0  0  0
   -0.5677   -2.6608   -0.7353 H   0  0  0  0  0  0  0  0  0  0  0  0
    1.5504   -3.3628    1.6116 H   0  0  0  0  0  0  0  0  0  0  0  0
    1.0790   -1.7794    2.3095 H   0  0  0  0  0  0  0  0  0  0  0  0
    2.8145   -2.1626    2.0274 H   0  0  0  0  0  0  0  0  0  0  0  0
    2.9340   -3.4080   -1.2750 H   0  0  0  0  0  0  0  0  0  0  0  0
    3.0390   -1.8868   -2.2156 H   0  0  0  0  0  0  0  0  0  0  0  0
    4.0633   -2.1233   -0.7545 H   0  0  0  0  0  0  0  0  0  0  0  0
    4.0839    0.3402   -0.0652 H   0  0  0  0  0  0  0  0  0  0  0  0
    4.2394    2.8545    0.0950 H   0  0  0  0  0  0  0  0  0  0  0  0
    2.0759    4.1876    0.1699 H   0  0  0  0  0  0  0  0  0  0  0  0
   -0.1020    2.9554    0.0850 H   0  0  0  0  0  0  0  0  0  0  0  0
  1  5  1  0  0  0  0
  2 11  1  0  0  0  0
  3  4  1  0  0  0  0
  4 14  1  0  0  0  0
  4  1  1  0  0  0  0
  5 17  1  0  0  0  0
  5 16  1  0  0  0  0
  6 20  1  0  0  0  0
  6  1  1  0  0  0  0
  7  1  1  1  0  0  0
  7  8  1  0  0  0  0
  7  2  1  0  0  0  0
  8  9  2  0  0  0  0
  9 22  1  0  0  0  0
  9 10  1  0  0  0  0
 10 23  1  0  0  0  0
 11 24  1  0  0  0  0
 11 10  2  0  0  0  0
 12  3  1  0  0  0  0
 13  3  1  0  0  0  0
 15  5  1  0  0  0  0
 18  6  1  0  0  0  0
 19  6  1  0  0  0  0
 21  8  1  0  0  0  0
M  END
