8,17
q = -2.0, confidence = 0.784

 36 37  0  0  1  0  0  0  0  0999 V2000
    0.7393    1.6399    1.7151 S   0  0  0  0  0  0  0  0  0  0  0  0
   -1.8413    2.3868    1.4330 F   0  0  0  0  0  0  0  0  0  0  0  0
   -0.4246    3.5219    0.2080 F   0  0  0  0  0  0  0  0  0  0  0  0
   -0.5490    3.8789    2.3575 F   0  0  0  0  0  0  0  0  0  0  0  0
    1.9680    2.4599    1.8190 O   0  0  0  0  0  0  0  0  0  0  0  0
    0.2182    0.9104    2.8966 O   0  0  0  0  0  0  0  0  0  0  0  0
    0.8371   -0.7427   -1.8599 N   0  0  0  0  0  0  0  0  0  0  0  0
    0.8256    0.6679    0.4177 N   0  0  0  0  0  2  0  0  0  0  0  0
   -0.6146    2.9378    1.4040 C   0  0  0  0  0  0  0  0  0  0  0  0
    1.1330    0.7122   -1.9750 C   0  0  2  0  0  0  0  0  0  0  0  0
    1.7906    1.0677   -0.6095 C   0  0  2  0  0  0  0  0  0  0  0  0
   -0.2053    1.3770   -2.1441 C   0  0  0  0  0  0  0  0  0  0  0  0
   -0.4191    2.4976   -2.9592 C   0  0  0  0  0  0  0  0  0  0  0  0
   -1.6924    3.0856   -3.0053 C   0  0  0  0  0  0  0  0  0  0  0  0
   -2.7283    2.5433   -2.2278 C   0  0  0  0  0  0  0  0  0  0  0  0
   -2.5065    1.4187   -1.4141 C   0  0  0  0  0  0  0  0  0  0  0  0
   -1.2409    0.8035   -1.3542 C   0  0  0  0  0  3  0  0  0  0  0  0
    3.1282    0.3419   -0.4683 C   0  0  0  0  0  0  0  0  0  0  0  0
    3.2841   -0.7246    0.4372 C   0  0  0  0  0  0  0  0  0  0  0  0
    4.4967   -1.4292    0.5087 C   0  0  0  0  0  0  0  0  0  0  0  0
    5.5721   -1.0715   -0.3186 C   0  0  0  0  0  0  0  0  0  0  0  0
    5.4303    0.0019   -1.2142 C   0  0  0  0  0  0  0  0  0  0  0  0
    4.2169    0.7008   -1.2885 C   0  0  0  0  0  0  0  0  0  0  0  0
    1.6958   -1.2766   -1.6485 H   0  0  0  0  0  0  0  0  0  0  0  0
    0.4182   -1.1049   -2.7258 H   0  0  0  0  0  0  0  0  0  0  0  0
    1.8371    0.9323   -2.8050 H   0  0  0  0  0  0  0  0  0  0  0  0
    1.9769    2.1609   -0.5957 H   0  0  0  0  0  0  0  0  0  0  0  0
    0.4098    2.9144   -3.5547 H   0  0  0  0  0  0  0  0  0  0  0  0
   -1.8745    3.9660   -3.6397 H   0  0  0  0  0  0  0  0  0  0  0  0
   -3.7261    3.0098   -2.2456 H   0  0  0  0  0  0  0  0  0  0  0  0
   -3.3336    1.0474   -0.7939 H   0  0  0  0  0  0  0  0  0  0  0  0
    2.4403   -0.9688    1.0990 H   0  0  0  0  0  0  0  0  0  0  0  0
    4.6053   -2.2565    1.2273 H   0  0  0  0  0  0  0  0  0  0  0  0
    6.5252   -1.6186   -0.2580 H   0  0  0  0  0  0  0  0  0  0  0  0
    6.2748    0.3018   -1.8534 H   0  0  0  0  0  0  0  0  0  0  0  0
    4.1184    1.5502   -1.9842 H   0  0  0  0  0  0  0  0  0  0  0  0
  1  5  2  0  0  0  0
  1  6  2  0  0  0  0
  3  9  1  0  0  0  0
  7 24  1  0  0  0  0
  8  1  1  0  0  0  0
  9  2  1  0  0  0  0
  9  1  1  0  0  0  0
  9  4  1  0  0  0  0
 10 26  1  6  0  0  0
 10  7  1  0  0  0  0
 10 11  1  0  0  0  0
 11 27  1  1  0  0  0
 11 18  1  0  0  0  0
 11  8  1  0  0  0  0
 12 10  1  0  0  0  0
 12 17  1  0  0  0  0
 13 12  2  0  0  0  0
 14 13  1  0  0  0  0
 14 15  2  0  0  0  0
 15 16  1  0  0  0  0
 16 17  2  0  0  0  0
 16 31  1  0  0  0  0
 18 19  1  0  0  0  0
 19 20  2  0  0  0  0
 19 32  1  0  0  0  0
 20 33  1  0  0  0  0
 21 34  1  0  0  0  0
 21 20  1  0  0  0  0
 22 21  2  0  0  0  0
 23 22  1  0  0  0  0
 23 18  2  0  0  0  0
 25  7  1  0  0  0  0
 28 13  1  0  0  0  0
 29 14  1  0  0  0  0
 30 15  1  0  0  0  0
 35 22  1  0  0  0  0
 36 23  1  0  0  0  0
M  END
