2,3
q = -1.0

 17 18  0  0  1  0  0  0  0  0999 V2000
   -2.9888    3.0856   -1.6829 S   0  0  0  0  0  0  0  0  0  0  0  0
   -0.3209    1.7795    1.0559 N   0  0  0  0  0  2  0  0  0  0  0  0
   -1.5793    0.9374   -1.0991 C   0  0  0  0  0  3  0  0  0  0  0  0
   -1.1729    2.7261    0.5122 C   0  0  2  0  0  3  0  0  0  0  0  0
   -1.3210    3.9830    1.1404 C   0  0  0  0  0  0  0  0  0  0  0  0
   -1.9981    4.7245    0.6928 H   0  0  0  0  0  0  0  0  0  0  0  0
    0.3462    2.0535    2.1991 C   0  0  0  0  0  0  0  0  0  0  0  0
    0.9894    1.2464    2.5790 H   0  0  0  0  0  0  0  0  0  0  0  0
   -2.3487    0.6211   -2.2604 C   0  0  0  0  0  0  0  0  0  0  0  0
   -2.3346   -0.3498   -2.7745 H   0  0  0  0  0  0  0  0  0  0  0  0
    0.2244    3.2751    2.8626 C   0  0  0  0  0  0  0  0  0  0  0  0
    0.7821    3.4484    3.7928 H   0  0  0  0  0  0  0  0  0  0  0  0
   -0.6232    4.2584    2.3157 C   0  0  0  0  0  0  0  0  0  0  0  0
   -0.7405    5.2326    2.8128 H   0  0  0  0  0  0  0  0  0  0  0  0
   -1.8324    2.2536   -0.6714 C   0  0  0  0  0  0  0  0  0  0  0  0
   -3.1427    1.6782   -2.6821 C   0  0  0  0  0  0  0  0  0  0  0  0
   -3.8297    1.7081   -3.5379 H   0  0  0  0  0  0  0  0  0  0  0  0
  1 15  1  0  0  0  0
  2  7  1  0  0  0  0
  3 15  2  0  0  0  0
  4 15  1  1  0  0  0
  4  2  1  0  0  0  0
  4  5  1  0  0  0  0
  5 13  2  0  0  0  0
  6  5  1  0  0  0  0
  7  8  1  0  0  0  0
  7 11  2  0  0  0  0
  9  3  1  0  0  0  0
 10  9  1  0  0  0  0
 11 12  1  0  0  0  0
 13 14  1  0  0  0  0
 13 11  1  0  0  0  0
 16  9  2  0  0  0  0
 16  1  1  0  0  0  0
 17 16  1  0  0  0  0
M  END
