1,5
q = -1.0

 28 28  0  0  0  0  0  0  0  0999 V2000
    1.8114   -0.8022   -0.5572 N   0  0  0  0  0  0  0  0  0  0  0  0
    1.7468   -1.6041   -1.2053 H   0  0  0  0  0  0  0  0  0  0  0  0
   -0.1685    2.5048    0.6860 C   0  0  0  0  0  0  0  0  0  0  0  0
   -1.1154    2.3681    1.2326 H   0  0  0  0  0  0  0  0  0  0  0  0
    0.4198    1.4222    0.0049 C   0  0  0  0  0  3  0  0  0  0  0  0
    2.9900   -0.1001    1.5523 C   0  0  0  0  0  0  0  0  0  0  0  0
    2.0549    0.3508    1.9354 H   0  0  0  0  0  0  0  0  0  0  0  0
    3.5844    0.7029    1.0756 H   0  0  0  0  0  0  0  0  0  0  0  0
    3.5731   -0.4891    2.4103 H   0  0  0  0  0  0  0  0  0  0  0  0
    3.9898   -1.8383    0.0153 C   0  0  0  0  0  0  0  0  0  0  0  0
    4.6454   -2.1950    0.8336 H   0  0  0  0  0  0  0  0  0  0  0  0
    4.5626   -1.0834   -0.5603 H   0  0  0  0  0  0  0  0  0  0  0  0
    3.7807   -2.7025   -0.6487 H   0  0  0  0  0  0  0  0  0  0  0  0
    1.9321   -2.3637    1.3543 C   0  0  0  0  0  0  0  0  0  0  0  0
    1.0296   -1.9483    1.8450 H   0  0  0  0  0  0  0  0  0  0  0  0
    2.5934   -2.7990    2.1298 H   0  0  0  0  0  0  0  0  0  0  0  0
    1.5851   -3.1657    0.6742 H   0  0  0  0  0  0  0  0  0  0  0  0
    2.2789    0.4142   -1.2931 C   0  0  0  0  0  0  0  0  0  0  0  0
    3.3883    0.4656   -1.3410 H   0  0  0  0  0  0  0  0  0  0  0  0
    1.9135    0.3061   -2.3364 H   0  0  0  0  0  0  0  0  0  0  0  0
    2.2779    2.8966   -0.6427 C   0  0  0  0  0  0  0  0  0  0  0  0
    3.2470    3.0435   -1.1480 H   0  0  0  0  0  0  0  0  0  0  0  0
    2.6859   -1.2615    0.5984 C   0  0  0  0  0  0  0  0  0  0  0  0
    1.6603    3.9738    0.0162 C   0  0  0  0  0  0  0  0  0  0  0  0
    2.1383    4.9651    0.0194 H   0  0  0  0  0  0  0  0  0  0  0  0
    1.6695    1.6319   -0.6439 C   0  0  0  0  0  0  0  0  0  0  0  0
    0.4447    3.7725    0.6877 C   0  0  0  0  0  0  0  0  0  0  0  0
   -0.0299    4.6081    1.2267 H   0  0  0  0  0  0  0  0  0  0  0  0
  1 23  1  0  0  0  0
  2  1  1  0  0  0  0
  3 27  1  0  0  0  0
  3  4  1  0  0  0  0
  5  3  2  0  0  0  0
  6  7  1  0  0  0  0
  6  9  1  0  0  0  0
  8  6  1  0  0  0  0
 10 23  1  0  0  0  0
 10 11  1  0  0  0  0
 12 10  1  0  0  0  0
 13 10  1  0  0  0  0
 14 15  1  0  0  0  0
 14 16  1  0  0  0  0
 17 14  1  0  0  0  0
 18 26  1  0  0  0  0
 18  1  1  0  0  0  0
 19 18  1  0  0  0  0
 20 18  1  0  0  0  0
 21 24  1  0  0  0  0
 22 21  1  0  0  0  0
 23 14  1  0  0  0  0
 23  6  1  0  0  0  0
 24 25  1  0  0  0  0
 24 27  2  0  0  0  0
 26 21  2  0  0  0  0
 26  5  1  0  0  0  0
 27 28  1  0  0  0  0
M  END
