1,20
q = -1.0

 20 21  0  0  0  0  0  0  0  0999 V2000
   -3.3926    1.9739    0.4731 N   0  0  0  0  0  2  0  0  0  0  0  0
   -2.6526    3.0556    0.7872 C   0  0  0  0  0  0  0  0  0  0  0  0
   -1.5826    2.9816    0.5352 H   0  0  0  0  0  0  0  0  0  0  0  0
   -3.2211    4.1774    1.3988 C   0  0  0  0  0  0  0  0  0  0  0  0
   -2.5899    5.0440    1.6392 H   0  0  0  0  0  0  0  0  0  0  0  0
   -4.5949    4.1611    1.6899 C   0  0  0  0  0  0  0  0  0  0  0  0
   -5.0740    5.0278    2.1696 H   0  0  0  0  0  0  0  0  0  0  0  0
   -5.3527    3.0307    1.3676 C   0  0  0  0  0  0  0  0  0  0  0  0
   -6.4277    2.9942    1.5904 H   0  0  0  0  0  0  0  0  0  0  0  0
   -4.7346    1.9254    0.7520 C   0  0  0  0  0  0  0  0  0  0  0  0
   -5.3711    0.6692    0.3550 C   0  0  0  0  0  0  0  0  0  0  0  0
   -6.7406    0.3859    0.5404 C   0  0  0  0  0  3  0  0  0  0  0  0
   -7.4033    1.1292    1.0104 H   0  0  0  0  0  0  0  0  0  0  0  0
   -7.2655   -0.8434    0.1263 C   0  0  0  0  0  0  0  0  0  0  0  0
   -8.3335   -1.0643    0.2705 H   0  0  0  0  0  0  0  0  0  0  0  0
   -6.4199   -1.7904   -0.4774 C   0  0  0  0  0  0  0  0  0  0  0  0
   -6.8305   -2.7574   -0.8090 H   0  0  0  0  0  0  0  0  0  0  0  0
   -5.0537   -1.5162   -0.6644 C   0  0  0  0  0  0  0  0  0  0  0  0
   -4.4213   -2.2789   -1.1430 H   0  0  0  0  0  0  0  0  0  0  0  0
   -4.5008   -0.2907   -0.2515 C   0  0  0  0  0  3  0  0  0  0  0  0
  1 10  1  0  0  0  0
  1  2  1  0  0  0  0
  2  4  2  0  0  0  0
  3  2  1  0  0  0  0
  4  5  1  0  0  0  0
  4  6  1  0  0  0  0
  6  7  1  0  0  0  0
  8  9  1  0  0  0  0
  8  6  2  0  0  0  0
 10  8  1  0  0  0  0
 11 12  1  0  0  0  0
 11 10  2  0  0  0  0
 12 13  1  0  0  0  0
 14 15  1  0  0  0  0
 14 12  1  0  0  0  0
 16 14  2  0  0  0  0
 17 16  1  0  0  0  0
 18 16  1  0  0  0  0
 18 20  2  0  0  0  0
 19 18  1  0  0  0  0
 20 11  1  0  0  0  0
M  END
