1,7
q = -1.0

 23 25  0  0  1  0  0  0  0  0999 V2000
   -0.2143    1.6065   -2.0466 N   0  0  0  0  0  2  0  0  0  0  0  0
    0.4870    1.0397   -3.1029 C   0  0  0  0  0  0  0  0  0  0  0  0
   -0.1157    1.2896   -4.3693 C   0  0  0  0  0  0  0  0  0  0  0  0
   -1.5559    2.2781   -4.1705 S   0  0  0  0  0  0  0  0  0  0  0  0
   -1.2888    2.3060   -2.4422 C   0  0  2  0  0  3  0  0  0  0  0  0
   -2.0285    3.0289   -1.4392 C   0  0  0  0  0  0  0  0  0  0  0  0
   -1.4659    2.8768   -0.1259 C   0  0  0  0  0  3  0  0  0  0  0  0
   -2.0703    3.6143    0.9151 C   0  0  0  0  0  0  0  0  0  0  0  0
   -1.6693    3.5427    1.9375 H   0  0  0  0  0  0  0  0  0  0  0  0
   -3.1833    4.4318    0.6689 C   0  0  0  0  0  0  0  0  0  0  0  0
   -3.6375    4.9921    1.5016 H   0  0  0  0  0  0  0  0  0  0  0  0
   -3.7329    4.5490   -0.6257 C   0  0  0  0  0  0  0  0  0  0  0  0
   -4.6079    5.1922   -0.8001 H   0  0  0  0  0  0  0  0  0  0  0  0
   -3.1527    3.8482   -1.6850 C   0  0  0  0  0  0  0  0  0  0  0  0
   -3.5624    3.9354   -2.7045 H   0  0  0  0  0  0  0  0  0  0  0  0
    1.6882    0.3066   -3.0296 C   0  0  0  0  0  0  0  0  0  0  0  0
    2.1617    0.1488   -2.0520 H   0  0  0  0  0  0  0  0  0  0  0  0
    2.2426   -0.1837   -4.2158 C   0  0  0  0  0  0  0  0  0  0  0  0
    3.1796   -0.7584   -4.1714 H   0  0  0  0  0  0  0  0  0  0  0  0
    1.6259    0.0475   -5.4650 C   0  0  0  0  0  0  0  0  0  0  0  0
    2.0824   -0.3526   -6.3824 H   0  0  0  0  0  0  0  0  0  0  0  0
    0.4419    0.7919   -5.5561 C   0  0  0  0  0  0  0  0  0  0  0  0
   -0.0326    0.9858   -6.5288 H   0  0  0  0  0  0  0  0  0  0  0  0
  2 16  1  0  0  0  0
  2  1  1  0  0  0  0
  3  4  1  0  0  0  0
  3  2  2  0  0  0  0
  4  5  1  0  0  0  0
  5  1  1  0  0  0  0
  5  6  1  6  0  0  0
  6  7  1  0  0  0  0
  7  8  2  0  0  0  0
  8  9  1  0  0  0  0
 10  8  1  0  0  0  0
 10 11  1  0  0  0  0
 12 10  2  0  0  0  0
 13 12  1  0  0  0  0
 14  6  2  0  0  0  0
 14 12  1  0  0  0  0
 15 14  1  0  0  0  0
 16 17  1  0  0  0  0
 18 19  1  0  0  0  0
 18 16  2  0  0  0  0
 20 18  1  0  0  0  0
 21 20  1  0  0  0  0
 22 20  2  0  0  0  0
 22  3  1  0  0  0  0
 23 22  1  0  0  0  0
M  END
