4,23
q = -1.0

 23 25  0  0  1  0  0  0  0  0999 V2000
    1.0030   -3.7939   -4.6166 F   0  0  0  0  0  0  0  0  0  0  0  0
   -2.1056   -1.8640   -1.6472 F   0  0  0  0  0  0  0  0  0  0  0  0
    3.7926   -0.5454   -1.4024 O   0  0  0  0  0  0  0  0  0  0  0  0
    2.0263    0.1966   -0.2332 N   0  0  0  0  0  2  0  0  0  0  0  0
    3.1584    0.7494    0.3500 C   0  0  0  0  0  0  0  0  0  0  0  0
    3.3495    1.5883    1.4582 C   0  0  0  0  0  0  0  0  0  0  0  0
    2.4912    1.9222    2.0551 H   0  0  0  0  0  0  0  0  0  0  0  0
    4.6724    1.9439    1.7594 C   0  0  0  0  0  0  0  0  0  0  0  0
    4.8686    2.5981    2.6219 H   0  0  0  0  0  0  0  0  0  0  0  0
    5.7646    1.4802    0.9903 C   0  0  0  0  0  0  0  0  0  0  0  0
    6.7848    1.7858    1.2651 H   0  0  0  0  0  0  0  0  0  0  0  0
    5.5819    0.6284   -0.1140 C   0  0  0  0  0  0  0  0  0  0  0  0
    6.4218    0.2516   -0.7131 H   0  0  0  0  0  0  0  0  0  0  0  0
    4.2638    0.2819   -0.3989 C   0  0  0  0  0  0  0  0  0  0  0  0
    2.4455   -0.5621   -1.2452 C   0  0  2  0  0  3  0  0  0  0  0  0
    1.4879   -1.3395   -1.9797 C   0  0  0  0  0  0  0  0  0  0  0  0
    1.8052   -2.2153   -3.0406 C   0  0  0  0  0  0  0  0  0  0  0  0
    2.8323   -2.3309   -3.4119 H   0  0  0  0  0  0  0  0  0  0  0  0
    0.7587   -2.9439   -3.6002 C   0  0  0  0  0  0  0  0  0  0  0  0
   -0.5576   -2.8205   -3.1256 C   0  0  0  0  0  0  0  0  0  0  0  0
   -1.3691   -3.4102   -3.5737 H   0  0  0  0  0  0  0  0  0  0  0  0
   -0.8225   -1.9381   -2.0707 C   0  0  0  0  0  0  0  0  0  0  0  0
    0.1648   -1.1478   -1.4549 C   0  0  0  0  0  3  0  0  0  0  0  0
  1 19  1  0  0  0  0
  3 15  1  0  0  0  0
  3 14  1  0  0  0  0
  4  5  1  0  0  0  0
  5  6  1  0  0  0  0
  6  8  2  0  0  0  0
  6  7  1  0  0  0  0
  8  9  1  0  0  0  0
 10 11  1  0  0  0  0
 10  8  1  0  0  0  0
 12 10  2  0  0  0  0
 13 12  1  0  0  0  0
 14 12  1  0  0  0  0
 14  5  2  0  0  0  0
 15 16  1  1  0  0  0
 15  4  1  0  0  0  0
 16 23  1  0  0  0  0
 17 16  2  0  0  0  0
 18 17  1  0  0  0  0
 19 20  2  0  0  0  0
 19 17  1  0  0  0  0
 20 22  1  0  0  0  0
 21 20  1  0  0  0  0
 22  2  1  0  0  0  0
 22 23  2  0  0  0  0
M  END
