1,16
q = -1.0

 35 38  0  0  1  0  0  0  0  0999 V2000
    1.9664    0.5397    0.4967 N   0  0  0  0  0  2  0  0  0  0  0  0
    4.0587    0.1703   -0.2118 N   0  0  0  0  0  0  0  0  0  0  0  0
   -1.0297   -4.7646   -3.7781 N   0  0  0  0  0  0  0  0  0  0  0  0
    2.7456   -0.2608   -0.2636 C   0  0  2  0  0  3  0  0  0  0  0  0
    2.7614    1.5358    1.0341 C   0  0  0  0  0  0  0  0  0  0  0  0
    4.0982    1.3108    0.5976 C   0  0  0  0  0  0  0  0  0  0  0  0
    5.1570    2.1426    0.9871 C   0  0  0  0  0  0  0  0  0  0  0  0
    6.1871    1.9539    0.6535 H   0  0  0  0  0  0  0  0  0  0  0  0
    4.8335    3.2295    1.8117 C   0  0  0  0  0  0  0  0  0  0  0  0
    5.6333    3.9119    2.1355 H   0  0  0  0  0  0  0  0  0  0  0  0
    3.5022    3.4754    2.2281 C   0  0  0  0  0  0  0  0  0  0  0  0
    3.2937    4.3507    2.8611 H   0  0  0  0  0  0  0  0  0  0  0  0
    2.4471    2.6372    1.8500 C   0  0  0  0  0  0  0  0  0  0  0  0
    1.4057    2.8167    2.1475 H   0  0  0  0  0  0  0  0  0  0  0  0
    2.0769   -1.2930   -1.0302 C   0  0  0  0  0  0  0  0  0  0  0  0
    0.6549   -1.2885   -0.7955 C   0  0  0  0  0  3  0  0  0  0  0  0
   -0.1199   -2.2041   -1.5315 C   0  0  0  0  0  0  0  0  0  0  0  0
   -1.2095   -2.2411   -1.3917 H   0  0  0  0  0  0  0  0  0  0  0  0
    0.4752   -3.0924   -2.4565 C   0  0  0  0  0  0  0  0  0  0  0  0
    1.8770   -3.0754   -2.6716 C   0  0  0  0  0  0  0  0  0  0  0  0
    2.3264   -3.7654   -3.3987 H   0  0  0  0  0  0  0  0  0  0  0  0
    2.6707   -2.1762   -1.9600 C   0  0  0  0  0  0  0  0  0  0  0  0
    3.7543   -2.1599   -2.1378 H   0  0  0  0  0  0  0  0  0  0  0  0
   -0.3482   -4.0132   -3.1849 C   0  0  0  0  0  0  0  0  0  0  0  0
    5.2013   -0.4425   -0.8102 C   0  0  0  0  0  0  0  0  0  0  0  0
    5.6401   -1.6969   -0.3507 C   0  0  0  0  0  0  0  0  0  0  0  0
    5.0901   -2.1966    0.4600 H   0  0  0  0  0  0  0  0  0  0  0  0
    6.7620   -2.2932   -0.9429 C   0  0  0  0  0  0  0  0  0  0  0  0
    7.1035   -3.2783   -0.5919 H   0  0  0  0  0  0  0  0  0  0  0  0
    7.4512   -1.6329   -1.9737 C   0  0  0  0  0  0  0  0  0  0  0  0
    8.3332   -2.1028   -2.4339 H   0  0  0  0  0  0  0  0  0  0  0  0
    7.0159   -0.3737   -2.4166 C   0  0  0  0  0  0  0  0  0  0  0  0
    7.5523    0.1440   -3.2256 H   0  0  0  0  0  0  0  0  0  0  0  0
    5.8865    0.2255   -1.8395 C   0  0  0  0  0  0  0  0  0  0  0  0
    5.5208    1.2027   -2.1868 H   0  0  0  0  0  0  0  0  0  0  0  0
  1  5  1  0  0  0  0
  2  6  1  0  0  0  0
  3 24  3  0  0  0  0
  4 15  1  6  0  0  0
  4  2  1  0  0  0  0
  4  1  1  0  0  0  0
  5 13  1  0  0  0  0
  6  7  1  0  0  0  0
  6  5  2  0  0  0  0
  7  9  2  0  0  0  0
  8  7  1  0  0  0  0
  9 10  1  0  0  0  0
  9 11  1  0  0  0  0
 11 12  1  0  0  0  0
 13 14  1  0  0  0  0
 13 11  2  0  0  0  0
 15 16  1  0  0  0  0
 17 18  1  0  0  0  0
 17 16  2  0  0  0  0
 19 17  1  0  0  0  0
 20 19  2  0  0  0  0
 20 22  1  0  0  0  0
 21 20  1  0  0  0  0
 22 15  2  0  0  0  0
 23 22  1  0  0  0  0
 24 19  1  0  0  0  0
 25 26  1  0  0  0  0
 25  2  1  0  0  0  0
 26 27  1  0  0  0  0
 28 29  1  0  0  0  0
 28 26  2  0  0  0  0
 30 28  1  0  0  0  0
 31 30  1  0  0  0  0
 32 30  2  0  0  0  0
 32 34  1  0  0  0  0
 33 32  1  0  0  0  0
 34 25  2  0  0  0  0
 35 34  1  0  0  0  0
M  END
