1,5
q = -1.0

 36 37  0  0  0  0  0  0  0  0999 V2000
    2.0934    0.0620   -0.5391 N   0  0  0  0  0  2  0  0  0  0  0  0
    1.8117   -2.1658    0.1464 C   0  0  0  0  0  0  0  0  0  0  0  0
   -0.4429   -2.8993    0.6143 C   0  0  0  0  0  0  0  0  0  0  0  0
   -1.5277   -2.7375    0.6902 H   0  0  0  0  0  0  0  0  0  0  0  0
    0.4114   -1.8542    0.2171 C   0  0  0  0  0  2  0  0  0  0  0  0
    2.6921   -1.0708   -0.2656 C   0  0  0  0  0  0  0  0  0  0  0  0
    4.1679   -1.2548   -0.3635 C   0  0  0  0  0  0  0  0  0  0  0  0
    4.7100   -2.1102   -1.3468 C   0  0  0  0  0  0  0  0  0  0  0  0
    4.0366   -2.6277   -2.0466 H   0  0  0  0  0  0  0  0  0  0  0  0
    5.0307   -0.5921    0.5359 C   0  0  0  0  0  0  0  0  0  0  0  0
    4.5976    0.0706    1.3001 H   0  0  0  0  0  0  0  0  0  0  0  0
    2.8044    1.2461   -0.9640 C   0  0  0  0  0  0  0  0  0  0  0  0
    2.1967    1.7835   -1.7167 H   0  0  0  0  0  0  0  0  0  0  0  0
    3.7976    0.9982   -1.3982 H   0  0  0  0  0  0  0  0  0  0  0  0
    3.0341    2.2060    0.2019 C   0  0  0  0  0  0  0  0  0  0  0  0
    2.3013   -3.4466    0.4807 C   0  0  0  0  0  0  0  0  0  0  0  0
    3.3837   -3.6405    0.4410 H   0  0  0  0  0  0  0  0  0  0  0  0
    0.0440   -4.1826    0.9298 C   0  0  0  0  0  0  0  0  0  0  0  0
   -0.6637   -4.9706    1.2328 H   0  0  0  0  0  0  0  0  0  0  0  0
    1.4175   -4.4608    0.8688 C   0  0  0  0  0  0  0  0  0  0  0  0
    1.7976   -5.4601    1.1272 H   0  0  0  0  0  0  0  0  0  0  0  0
    6.0982   -2.2872   -1.4382 C   0  0  0  0  0  0  0  0  0  0  0  0
    6.5142   -2.9468   -2.2147 H   0  0  0  0  0  0  0  0  0  0  0  0
    6.9533   -1.6268   -0.5415 C   0  0  0  0  0  0  0  0  0  0  0  0
    8.0421   -1.7714   -0.6114 H   0  0  0  0  0  0  0  0  0  0  0  0
    6.4169   -0.7834    0.4446 C   0  0  0  0  0  0  0  0  0  0  0  0
    7.0839   -0.2678    1.1521 H   0  0  0  0  0  0  0  0  0  0  0  0
    3.2456    3.4500   -0.2641 O   0  0  0  0  0  0  0  0  0  0  0  0
    3.0702    1.8837    1.3758 O   0  0  0  0  0  0  0  0  0  0  0  0
    4.9531    4.5198    1.1354 C   0  0  0  0  0  0  0  0  0  0  0  0
    5.6089    4.6578    0.2526 H   0  0  0  0  0  0  0  0  0  0  0  0
    5.2427    3.5853    1.6542 H   0  0  0  0  0  0  0  0  0  0  0  0
    5.1270    5.3661    1.8304 H   0  0  0  0  0  0  0  0  0  0  0  0
    3.4900    4.4746    0.7271 C   0  0  0  0  0  0  0  0  0  0  0  0
    2.8357    4.2815    1.6009 H   0  0  0  0  0  0  0  0  0  0  0  0
    3.1715    5.4142    0.2358 H   0  0  0  0  0  0  0  0  0  0  0  0
  1  6  1  0  0  0  0
  2  5  1  0  0  0  0
  2 16  1  0  0  0  0
  3  4  1  0  0  0  0
  3 18  2  0  0  0  0
  5  3  1  0  0  0  0
  6  2  2  0  0  0  0
  7  6  1  0  0  0  0
  7 10  1  0  0  0  0
  8  7  2  0  0  0  0
  9  8  1  0  0  0  0
 10 11  1  0  0  0  0
 12  1  1  0  0  0  0
 12 15  1  0  0  0  0
 13 12  1  0  0  0  0
 14 12  1  0  0  0  0
 15 29  2  0  0  0  0
 16 20  2  0  0  0  0
 17 16  1  0  0  0  0
 18 19  1  0  0  0  0
 20 18  1  0  0  0  0
 20 21  1  0  0  0  0
 22  8  1  0  0  0  0
 22 24  2  0  0  0  0
 23 22  1  0  0  0  0
 24 26  1  0  0  0  0
 25 24  1  0  0  0  0
 26 10  2  0  0  0  0
 26 27  1  0  0  0  0
 28 15  1  0  0  0  0
 28 34  1  0  0  0  0
 30 32  1  0  0  0  0
 30 33  1  0  0  0  0
 31 30  1  0  0  0  0
 34 30  1  0  0  0  0
 34 35  1  0  0  0  0
 36 34  1  0  0  0  0
M  END
