3,11
q = -1.0

 27 28  0  0  0  0  0  0  0  0999 V2000
    2.1850    2.5289   -0.3106 O   0  0  0  0  0  0  0  0  0  0  0  0
   -5.2364   -0.8209   -0.0213 O   0  0  0  0  0  0  0  0  0  0  0  0
    0.1562    1.5987   -0.0286 N   0  0  0  0  0  2  0  0  0  0  0  0
   -3.2723    0.4053    0.0884 N   0  0  0  0  0  2  0  0  0  0  0  0
    0.9142    2.7248   -0.0024 C   0  0  0  0  0  0  0  0  0  0  0  0
    0.3403    3.9801    0.3069 C   0  0  0  0  0  0  0  0  0  0  0  0
   -1.0369    4.0548    0.5330 C   0  0  0  0  0  0  0  0  0  0  0  0
   -1.8243    2.9012    0.4389 C   0  0  0  0  0  0  0  0  0  0  0  0
   -1.1989    1.6821    0.1519 C   0  0  0  0  0  0  0  0  0  0  0  0
   -1.9249    0.4165   -0.0051 C   0  0  0  0  0  0  0  0  0  0  0  0
   -1.1503   -0.7238   -0.2831 C   0  0  0  0  0  3  0  0  0  0  0  0
   -1.8181   -1.9430   -0.5018 C   0  0  0  0  0  0  0  0  0  0  0  0
   -3.2101   -1.9656   -0.4186 C   0  0  0  0  0  0  0  0  0  0  0  0
   -3.8919   -0.7563   -0.1088 C   0  0  0  0  0  0  0  0  0  0  0  0
    3.1556    3.5502   -0.1315 C   0  0  0  0  0  0  0  0  0  0  0  0
   -5.9271    0.3881    0.2841 C   0  0  0  0  0  0  0  0  0  0  0  0
    0.9725    4.8759    0.3408 H   0  0  0  0  0  0  0  0  0  0  0  0
   -1.4983    5.0259    0.7676 H   0  0  0  0  0  0  0  0  0  0  0  0
   -2.9134    2.8968    0.5760 H   0  0  0  0  0  0  0  0  0  0  0  0
   -1.2442   -2.8520   -0.7384 H   0  0  0  0  0  0  0  0  0  0  0  0
   -3.7926   -2.8833   -0.5827 H   0  0  0  0  0  0  0  0  0  0  0  0
    4.1269    3.0552   -0.3092 H   0  0  0  0  0  0  0  0  0  0  0  0
    3.0132    4.3769   -0.8600 H   0  0  0  0  0  0  0  0  0  0  0  0
    3.1302    3.9525    0.9032 H   0  0  0  0  0  0  0  0  0  0  0  0
   -7.0002    0.1254    0.3075 H   0  0  0  0  0  0  0  0  0  0  0  0
   -5.6113    0.7957    1.2671 H   0  0  0  0  0  0  0  0  0  0  0  0
   -5.7395    1.1651   -0.4860 H   0  0  0  0  0  0  0  0  0  0  0  0
  1 15  1  0  0  0  0
  1  5  1  0  0  0  0
  2 16  1  0  0  0  0
  3  5  1  0  0  0  0
  3  9  1  0  0  0  0
  5  6  2  0  0  0  0
  6 17  1  0  0  0  0
  6  7  1  0  0  0  0
  7 18  1  0  0  0  0
  8  7  2  0  0  0  0
  8 19  1  0  0  0  0
  9  8  1  0  0  0  0
 10  4  1  0  0  0  0
 10  9  2  0  0  0  0
 11 10  1  0  0  0  0
 12 13  1  0  0  0  0
 12 11  2  0  0  0  0
 13 14  2  0  0  0  0
 14  2  1  0  0  0  0
 14  4  1  0  0  0  0
 15 24  1  0  0  0  0
 16 25  1  0  0  0  0
 16 26  1  0  0  0  0
 20 12  1  0  0  0  0
 21 13  1  0  0  0  0
 22 15  1  0  0  0  0
 23 15  1  0  0  0  0
 27 16  1  0  0  0  0
M  END
