1,20
q = -1.0

 35 38  0  0  0  0  0  0  0  0999 V2000
   -0.1812    1.1824    0.0520 N   0  0  0  0  0  2  0  0  0  0  0  0
   -1.5306    0.9514   -0.0089 C   0  0  0  0  0  0  0  0  0  0  0  0
   -2.4366    2.0250   -0.2386 C   0  0  0  0  0  0  0  0  0  0  0  0
   -3.4908    1.7809   -0.4101 H   0  0  0  0  0  0  0  0  0  0  0  0
   -2.0239    3.3410   -0.3190 C   0  0  0  0  0  0  0  0  0  0  0  0
   -0.1038    4.9284   -0.1644 C   0  0  0  0  0  0  0  0  0  0  0  0
   -0.7989    5.7699   -0.2919 H   0  0  0  0  0  0  0  0  0  0  0  0
    1.2550    5.1713   -0.0219 C   0  0  0  0  0  0  0  0  0  0  0  0
    1.6393    6.2021   -0.0345 H   0  0  0  0  0  0  0  0  0  0  0  0
    2.1378    4.0788    0.1417 C   0  0  0  0  0  0  0  0  0  0  0  0
    3.2173    4.2594    0.2602 H   0  0  0  0  0  0  0  0  0  0  0  0
    1.6671    2.7717    0.1608 C   0  0  0  0  0  0  0  0  0  0  0  0
    2.3677    1.9387    0.2954 H   0  0  0  0  0  0  0  0  0  0  0  0
    0.2808    2.4922    0.0199 C   0  0  0  0  0  0  0  0  0  0  0  0
   -0.6248    3.6049   -0.1469 C   0  0  0  0  0  0  0  0  0  0  0  0
   -3.0071    4.4451   -0.5882 C   0  0  0  0  0  0  0  0  0  0  0  0
   -2.7377    5.0133   -1.5026 H   0  0  0  0  0  0  0  0  0  0  0  0
   -3.0312    5.1771    0.2462 H   0  0  0  0  0  0  0  0  0  0  0  0
   -4.0298    4.0450   -0.7202 H   0  0  0  0  0  0  0  0  0  0  0  0
   -0.8390   -1.3255   -0.1941 C   0  0  0  0  0  3  0  0  0  0  0  0
   -1.9284   -0.4484    0.0162 C   0  0  0  0  0  0  0  0  0  0  0  0
   -4.3798   -0.2323    0.6899 C   0  0  0  0  0  0  0  0  0  0  0  0
   -4.2315    0.7888    1.0630 H   0  0  0  0  0  0  0  0  0  0  0  0
   -5.6445   -0.8014    0.8005 C   0  0  0  0  0  0  0  0  0  0  0  0
   -6.4718   -0.2047    1.2147 H   0  0  0  0  0  0  0  0  0  0  0  0
   -5.8708   -2.1433    0.4101 C   0  0  0  0  0  0  0  0  0  0  0  0
   -6.8772   -2.5811    0.4885 H   0  0  0  0  0  0  0  0  0  0  0  0
   -4.8009   -2.9104   -0.0292 C   0  0  0  0  0  3  0  0  0  0  0  0
   -4.9435   -3.9716   -0.2875 H   0  0  0  0  0  0  0  0  0  0  0  0
   -2.3783   -3.1896   -0.4748 C   0  0  0  0  0  0  0  0  0  0  0  0
   -2.5699   -4.2482   -0.7145 H   0  0  0  0  0  0  0  0  0  0  0  0
   -1.0841   -2.7021   -0.4594 C   0  0  0  0  0  0  0  0  0  0  0  0
   -0.2289   -3.3639   -0.6552 H   0  0  0  0  0  0  0  0  0  0  0  0
   -3.4907   -2.3633   -0.1287 C   0  0  0  0  0  0  0  0  0  0  0  0
   -3.2698   -0.9677    0.1760 C   0  0  0  0  0  0  0  0  0  0  0  0
  2 21  2  0  0  0  0
  2  1  1  0  0  0  0
  3  2  1  0  0  0  0
  4  3  1  0  0  0  0
  5  3  2  0  0  0  0
  5 15  1  0  0  0  0
  6 15  2  0  0  0  0
  6  8  1  0  0  0  0
  7  6  1  0  0  0  0
  8 10  2  0  0  0  0
  9  8  1  0  0  0  0
 10 12  1  0  0  0  0
 10 11  1  0  0  0  0
 12 13  1  0  0  0  0
 14  1  1  0  0  0  0
 14 12  2  0  0  0  0
 15 14  1  0  0  0  0
 16  5  1  0  0  0  0
 16 18  1  0  0  0  0
 17 16  1  0  0  0  0
 19 16  1  0  0  0  0
 20 21  1  0  0  0  0
 21 35  1  0  0  0  0
 22 24  1  0  0  0  0
 22 23  1  0  0  0  0
 24 25  1  0  0  0  0
 26 27  1  0  0  0  0
 26 24  2  0  0  0  0
 28 26  1  0  0  0  0
 29 28  1  0  0  0  0
 30 32  1  0  0  0  0
 30 34  2  0  0  0  0
 31 30  1  0  0  0  0
 32 20  2  0  0  0  0
 33 32  1  0  0  0  0
 34 28  1  0  0  0  0
 34 35  1  0  0  0  0
 35 22  2  0  0  0  0
M  END
