1
q = -1.0

 74 75  0  0  1  0  0  0  0  0999 V2000
    0.6092   -0.0001    0.1458 N   0  0  0  0  0  2  0  0  0  0  0  0
   -1.2353    0.0001    1.5711 N   0  0  0  0  0  0  0  0  0  0  0  0
    0.0670    0.0001    1.4080 C   0  0  0  0  0  0  0  0  0  0  0  0
   -2.1012   -0.0003    0.4889 C   0  0  1  0  0  3  0  0  0  0  0  0
   -2.5893   -1.2444   -0.0476 C   0  0  2  0  0  3  0  0  0  0  0  0
   -3.5914   -1.2129   -1.0363 C   0  0  0  0  0  0  0  0  0  0  0  0
   -3.9809   -2.1605   -1.4359 H   0  0  0  0  0  0  0  0  0  0  0  0
   -4.0986   -0.0010   -1.5238 C   0  0  0  0  0  0  0  0  0  0  0  0
   -4.8773   -0.0013   -2.3006 H   0  0  0  0  0  0  0  0  0  0  0  0
   -3.5920    1.2113   -1.0366 C   0  0  0  0  0  0  0  0  0  0  0  0
   -3.9819    2.1586   -1.4365 H   0  0  0  0  0  0  0  0  0  0  0  0
   -2.5899    1.2435   -0.0479 C   0  0  0  0  0  0  0  0  0  0  0  0
   -2.0724   -2.5487    0.5439 C   0  0  0  0  0  0  0  0  0  0  0  0
   -0.9954   -2.3877    0.7649 H   0  0  0  0  0  0  0  0  0  0  0  0
   -2.7690   -2.8309    1.8884 C   0  0  0  0  0  0  0  0  0  0  0  0
   -2.6449   -1.9726    2.5768 H   0  0  0  0  0  0  0  0  0  0  0  0
   -2.3412   -3.7332    2.3724 H   0  0  0  0  0  0  0  0  0  0  0  0
   -3.8545   -3.0043    1.7362 H   0  0  0  0  0  0  0  0  0  0  0  0
   -2.1779   -3.7459   -0.4064 C   0  0  0  0  0  0  0  0  0  0  0  0
   -3.2322   -4.0469   -0.5785 H   0  0  0  0  0  0  0  0  0  0  0  0
   -1.6578   -4.6247    0.0255 H   0  0  0  0  0  0  0  0  0  0  0  0
   -1.7208   -3.5288   -1.3927 H   0  0  0  0  0  0  0  0  0  0  0  0
   -2.0736    2.5482    0.5433 C   0  0  0  0  0  0  0  0  0  0  0  0
   -0.9965    2.3878    0.7642 H   0  0  0  0  0  0  0  0  0  0  0  0
   -2.7702    2.8302    1.8878 C   0  0  0  0  0  0  0  0  0  0  0  0
   -3.8559    3.0030    1.7356 H   0  0  0  0  0  0  0  0  0  0  0  0
   -2.3430    3.7329    2.3715 H   0  0  0  0  0  0  0  0  0  0  0  0
   -2.6456    1.9722    2.5763 H   0  0  0  0  0  0  0  0  0  0  0  0
   -2.1799    3.7452   -0.4072 C   0  0  0  0  0  0  0  0  0  0  0  0
   -1.7228    3.5282   -1.3936 H   0  0  0  0  0  0  0  0  0  0  0  0
   -1.6602    4.6243    0.0244 H   0  0  0  0  0  0  0  0  0  0  0  0
   -3.2344    4.0455   -0.5792 H   0  0  0  0  0  0  0  0  0  0  0  0
    1.9876    0.0003   -0.2205 C   0  0  0  0  0  0  0  0  0  0  0  0
    2.6546    1.2356   -0.4758 C   0  0  0  0  0  0  0  0  0  0  0  0
    3.9952    1.2103   -0.9016 C   0  0  0  0  0  0  0  0  0  0  0  0
    4.5184    2.1599   -1.0893 H   0  0  0  0  0  0  0  0  0  0  0  0
    4.6718    0.0010   -1.0996 C   0  0  0  0  0  0  0  0  0  0  0  0
    5.7229    0.0013   -1.4258 H   0  0  0  0  0  0  0  0  0  0  0  0
    3.9958   -1.2086   -0.9019 C   0  0  0  0  0  0  0  0  0  0  0  0
    4.5194   -2.1580   -1.0899 H   0  0  0  0  0  0  0  0  0  0  0  0
    2.6551   -1.2347   -0.4761 C   0  0  0  0  0  0  0  0  0  0  0  0
    1.9060    2.5604   -0.3819 C   0  0  0  0  0  0  0  0  0  0  0  0
    1.0411    2.3968    0.2913 H   0  0  0  0  0  0  0  0  0  0  0  0
    1.3444    2.9384   -1.7654 C   0  0  0  0  0  0  0  0  0  0  0  0
    2.1659    3.0846   -2.4967 H   0  0  0  0  0  0  0  0  0  0  0  0
    0.7545    3.8765   -1.7146 H   0  0  0  0  0  0  0  0  0  0  0  0
    0.6843    2.1436   -2.1722 H   0  0  0  0  0  0  0  0  0  0  0  0
    2.7388    3.7105    0.1988 C   0  0  0  0  0  0  0  0  0  0  0  0
    3.1820    3.4421    1.1781 H   0  0  0  0  0  0  0  0  0  0  0  0
    2.1039    4.6082    0.3443 H   0  0  0  0  0  0  0  0  0  0  0  0
    3.5666    4.0071   -0.4780 H   0  0  0  0  0  0  0  0  0  0  0  0
    1.9073   -2.5599   -0.3824 C   0  0  0  0  0  0  0  0  0  0  0  0
    1.0421   -2.3967    0.2907 H   0  0  0  0  0  0  0  0  0  0  0  0
    2.7405   -3.7095    0.1985 C   0  0  0  0  0  0  0  0  0  0  0  0
    3.5687   -4.0055   -0.4780 H   0  0  0  0  0  0  0  0  0  0  0  0
    2.1061   -4.6075    0.3438 H   0  0  0  0  0  0  0  0  0  0  0  0
    3.1833   -3.4408    1.1780 H   0  0  0  0  0  0  0  0  0  0  0  0
    1.3461   -2.9382   -1.7660 C   0  0  0  0  0  0  0  0  0  0  0  0
    0.6857   -2.1438   -2.1729 H   0  0  0  0  0  0  0  0  0  0  0  0
    0.7568   -3.8766   -1.7153 H   0  0  0  0  0  0  0  0  0  0  0  0
    2.1679   -3.0839   -2.4971 H   0  0  0  0  0  0  0  0  0  0  0  0
    0.9086    0.0002    2.7107 C   0  0  0  0  0  0  0  0  0  0  0  0
    1.7963    1.2599    2.7924 C   0  0  0  0  0  0  0  0  0  0  0  0
    1.1913    2.1838    2.6953 H   0  0  0  0  0  0  0  0  0  0  0  0
    2.5815    1.2687    2.0151 H   0  0  0  0  0  0  0  0  0  0  0  0
    2.3003    1.2901    3.7801 H   0  0  0  0  0  0  0  0  0  0  0  0
    1.7967   -1.2592    2.7921 C   0  0  0  0  0  0  0  0  0  0  0  0
    2.3007   -1.2897    3.7797 H   0  0  0  0  0  0  0  0  0  0  0  0
    2.5820   -1.2676    2.0148 H   0  0  0  0  0  0  0  0  0  0  0  0
    1.1920   -2.1834    2.6947 H   0  0  0  0  0  0  0  0  0  0  0  0
   -0.0348   -0.0001    3.9284 C   0  0  0  0  0  0  0  0  0  0  0  0
    0.5706   -0.0001    4.8581 H   0  0  0  0  0  0  0  0  0  0  0  0
   -0.6900   -0.8914    3.9331 H   0  0  0  0  0  0  0  0  0  0  0  0
   -0.6904    0.8909    3.9332 H   0  0  0  0  0  0  0  0  0  0  0  0
  1  3  1  0  0  0  0
  3  2  2  0  0  0  0
  3 62  1  0  0  0  0
  4  2  1  1  0  0  0
  5  4  1  0  0  0  0
  5 13  1  1  0  0  0
  6  5  1  0  0  0  0
  7  6  1  0  0  0  0
  8 10  1  0  0  0  0
  8  6  2  0  0  0  0
  9  8  1  0  0  0  0
 10 12  2  0  0  0  0
 11 10  1  0  0  0  0
 12  4  1  0  0  0  0
 12 23  1  0  0  0  0
 13 14  1  0  0  0  0
 13 15  1  0  0  0  0
 15 17  1  0  0  0  0
 15 16  1  0  0  0  0
 18 15  1  0  0  0  0
 19 21  1  0  0  0  0
 19 13  1  0  0  0  0
 20 19  1  0  0  0  0
 22 19  1  0  0  0  0
 23 24  1  0  0  0  0
 23 25  1  0  0  0  0
 25 27  1  0  0  0  0
 25 28  1  0  0  0  0
 26 25  1  0  0  0  0
 29 31  1  0  0  0  0
 29 23  1  0  0  0  0
 30 29  1  0  0  0  0
 32 29  1  0  0  0  0
 33  1  1  0  0  0  0
 34 42  1  0  0  0  0
 34 33  1  0  0  0  0
 35 34  2  0  0  0  0
 36 35  1  0  0  0  0
 37 39  2  0  0  0  0
 37 35  1  0  0  0  0
 38 37  1  0  0  0  0
 39 41  1  0  0  0  0
 40 39  1  0  0  0  0
 41 52  1  0  0  0  0
 41 33  2  0  0  0  0
 42 48  1  0  0  0  0
 42 43  1  0  0  0  0
 44 46  1  0  0  0  0
 44 42  1  0  0  0  0
 45 44  1  0  0  0  0
 47 44  1  0  0  0  0
 48 50  1  0  0  0  0
 48 49  1  0  0  0  0
 51 48  1  0  0  0  0
 52 54  1  0  0  0  0
 52 53  1  0  0  0  0
 54 56  1  0  0  0  0
 54 57  1  0  0  0  0
 55 54  1  0  0  0  0
 58 60  1  0  0  0  0
 58 52  1  0  0  0  0
 59 58  1  0  0  0  0
 61 58  1  0  0  0  0
 62 67  1  0  0  0  0
 62 63  1  0  0  0  0
 62 71  1  0  0  0  0
 63 66  1  0  0  0  0
 64 63  1  0  0  0  0
 65 63  1  0  0  0  0
 67 68  1  0  0  0  0
 69 67  1  0  0  0  0
 70 67  1  0  0  0  0
 71 73  1  0  0  0  0
 71 74  1  0  0  0  0
 71 72  1  0  0  0  0
M  END
