1,12
q = -1.0

 23 24  0  0  0  0  0  0  0  0999 V2000
   -0.0016    1.4923   -0.0001 N   0  0  0  0  0  2  0  0  0  0  0  0
    0.6787    2.6585   -0.0001 C   0  0  0  0  0  0  0  0  0  0  0  0
    1.7792    2.5701   -0.0001 H   0  0  0  0  0  0  0  0  0  0  0  0
    0.0262    3.8981   -0.0001 C   0  0  0  0  0  0  0  0  0  0  0  0
    0.6242    4.8205   -0.0002 H   0  0  0  0  0  0  0  0  0  0  0  0
   -1.3774    3.9317   -0.0000 C   0  0  0  0  0  0  0  0  0  0  0  0
   -1.9163    4.8915   -0.0000 H   0  0  0  0  0  0  0  0  0  0  0  0
   -2.0803    2.7232   -0.0000 C   0  0  0  0  0  0  0  0  0  0  0  0
   -3.1775    2.6660    0.0000 H   0  0  0  0  0  0  0  0  0  0  0  0
   -1.3672    1.5126   -0.0001 C   0  0  0  0  0  0  0  0  0  0  0  0
   -2.0103    0.1909   -0.0000 C   0  0  0  0  0  0  0  0  0  0  0  0
   -1.1536   -0.9399   -0.0001 C   0  0  0  0  0  2  0  0  0  0  0  0
   -1.8126   -2.1928   -0.0001 C   0  0  0  0  0  0  0  0  0  0  0  0
   -1.2315   -3.1267   -0.0002 H   0  0  0  0  0  0  0  0  0  0  0  0
   -3.3628    0.1433    0.0000 N   0  0  0  0  0  0  0  0  0  0  0  0
   -3.2055   -2.2650   -0.0001 C   0  0  0  0  0  0  0  0  0  0  0  0
   -3.7455   -3.2228   -0.0001 H   0  0  0  0  0  0  0  0  0  0  0  0
   -3.9398   -1.0527    0.0000 C   0  0  0  0  0  0  0  0  0  0  0  0
   -5.2922   -1.1477    0.0001 O   0  0  0  0  0  0  0  0  0  0  0  0
   -6.0207    0.0743    0.0003 C   0  0  0  0  0  0  0  0  0  0  0  0
   -5.7879    0.6869    0.8969 H   0  0  0  0  0  0  0  0  0  0  0  0
   -7.0896   -0.2089    0.0007 H   0  0  0  0  0  0  0  0  0  0  0  0
   -5.7885    0.6868   -0.8965 H   0  0  0  0  0  0  0  0  0  0  0  0
  1 10  1  0  0  0  0
  2  3  1  0  0  0  0
  2  4  2  0  0  0  0
  2  1  1  0  0  0  0
  4  6  1  0  0  0  0
  5  4  1  0  0  0  0
  6  8  2  0  0  0  0
  6  7  1  0  0  0  0
  8  9  1  0  0  0  0
 10 11  2  0  0  0  0
 10  8  1  0  0  0  0
 11 15  1  0  0  0  0
 12 11  1  0  0  0  0
 13 12  1  0  0  0  0
 13 16  2  0  0  0  0
 14 13  1  0  0  0  0
 15 18  2  0  0  0  0
 16 18  1  0  0  0  0
 17 16  1  0  0  0  0
 18 19  1  0  0  0  0
 19 20  1  0  0  0  0
 20 22  1  0  0  0  0
 20 21  1  0  0  0  0
 23 20  1  0  0  0  0
M  END
