1,2
q = -1.0, confidence = 0.048

 48 52  0  0  1  0  0  0  0  0999 V2000
   -0.0062    0.4858    0.0853 N   0  0  0  0  0  2  0  0  0  0  0  0
   -2.3072    1.5489   -0.3159 C   0  0  0  0  0  3  0  0  0  0  0  0
   -1.2305    2.4661   -0.0915 C   0  0  0  0  0  0  0  0  0  0  0  0
    1.6913    0.0991    2.4532 C   0  0  0  0  0  0  0  0  0  0  0  0
    1.0944    1.0204    2.4145 H   0  0  0  0  0  0  0  0  0  0  0  0
    2.2932   -0.2867    3.6617 C   0  0  0  0  0  0  0  0  0  0  0  0
    2.1700    0.3441    4.5553 H   0  0  0  0  0  0  0  0  0  0  0  0
    0.0573    1.8077    0.0994 C   0  0  2  0  0  3  0  0  0  0  0  0
    3.3565   -0.4069   -1.4373 C   0  0  0  0  0  0  0  0  0  0  0  0
   -2.7064    4.3567   -0.5330 C   0  0  0  0  0  0  0  0  0  0  0  0
   -2.8642    5.4409   -0.6323 H   0  0  0  0  0  0  0  0  0  0  0  0
    2.4736    1.8208   -0.4386 C   0  0  0  0  0  0  0  0  0  0  0  0
    1.5725    3.7104    0.8333 C   0  0  0  0  0  0  0  0  0  0  0  0
    0.7423    4.1763    1.3814 H   0  0  0  0  0  0  0  0  0  0  0  0
    1.8310   -0.6919    1.2966 C   0  0  0  0  0  0  0  0  0  0  0  0
    3.0440   -1.4699    3.7334 C   0  0  0  0  0  0  0  0  0  0  0  0
    3.5136   -1.7722    4.6817 H   0  0  0  0  0  0  0  0  0  0  0  0
    1.3717    2.4792    0.1748 C   0  0  0  0  0  0  0  0  0  0  0  0
    3.2553   -1.1470   -2.6338 C   0  0  0  0  0  0  0  0  0  0  0  0
    2.3495   -1.0361   -3.2517 H   0  0  0  0  0  0  0  0  0  0  0  0
   -3.5617    2.0752   -0.6767 C   0  0  0  0  0  0  0  0  0  0  0  0
   -4.3900    1.3960   -0.9254 H   0  0  0  0  0  0  0  0  0  0  0  0
    2.1862    0.4529   -1.0202 C   0  0  2  0  0  0  0  0  0  0  0  0
    1.5443    0.5995   -1.9190 H   0  0  0  0  0  0  0  0  0  0  0  0
    3.7164    2.4695   -0.4789 C   0  0  0  0  0  0  0  0  0  0  0  0
    4.5591    1.9904   -0.9967 H   0  0  0  0  0  0  0  0  0  0  0  0
   -3.7676    3.4601   -0.7610 C   0  0  0  0  0  0  0  0  0  0  0  0
   -4.7620    3.8466   -1.0362 H   0  0  0  0  0  0  0  0  0  0  0  0
    3.8961    3.7174    0.1408 C   0  0  0  0  0  0  0  0  0  0  0  0
    4.8809    4.2074    0.1031 H   0  0  0  0  0  0  0  0  0  0  0  0
    2.5786   -1.8854    1.3836 C   0  0  0  0  0  0  0  0  0  0  0  0
    2.6801   -2.5232    0.4931 H   0  0  0  0  0  0  0  0  0  0  0  0
    2.8323    4.3245    0.8234 C   0  0  0  0  0  0  0  0  0  0  0  0
    2.9797    5.2818    1.3452 H   0  0  0  0  0  0  0  0  0  0  0  0
    1.2190   -0.3032   -0.0393 C   0  0  2  0  0  0  0  0  0  0  0  0
    0.9239   -1.2318   -0.5655 H   0  0  0  0  0  0  0  0  0  0  0  0
    3.1833   -2.2704    2.5881 C   0  0  0  0  0  0  0  0  0  0  0  0
    3.7614   -3.2059    2.6332 H   0  0  0  0  0  0  0  0  0  0  0  0
   -1.4377    3.8609   -0.2226 C   0  0  0  0  0  0  0  0  0  0  0  0
   -0.5953    4.5588   -0.1251 H   0  0  0  0  0  0  0  0  0  0  0  0
    4.5081   -0.5754   -0.6383 C   0  0  0  0  0  0  0  0  0  0  0  0
    4.5971   -0.0305    0.3123 H   0  0  0  0  0  0  0  0  0  0  0  0
    4.2776   -2.0217   -3.0301 C   0  0  0  0  0  0  0  0  0  0  0  0
    4.1789   -2.5880   -3.9688 H   0  0  0  0  0  0  0  0  0  0  0  0
    5.5341   -1.4456   -1.0363 C   0  0  0  0  0  0  0  0  0  0  0  0
    6.4252   -1.5623   -0.4005 H   0  0  0  0  0  0  0  0  0  0  0  0
    5.4238   -2.1709   -2.2332 C   0  0  0  0  0  0  0  0  0  0  0  0
    6.2301   -2.8527   -2.5440 H   0  0  0  0  0  0  0  0  0  0  0  0
  1  8  1  0  0  0  0
  2  3  1  0  0  0  0
  4  6  1  0  0  0  0
  5  4  1  0  0  0  0
  6 16  2  0  0  0  0
  6  7  1  0  0  0  0
  8  3  1  6  0  0  0
  8 18  1  0  0  0  0
  9 23  1  0  0  0  0
  9 41  1  0  0  0  0
 10 39  1  0  0  0  0
 11 10  1  0  0  0  0
 12 18  1  0  0  0  0
 13 14  1  0  0  0  0
 15 31  1  0  0  0  0
 15  4  2  0  0  0  0
 16 17  1  0  0  0  0
 18 13  2  0  0  0  0
 19  9  2  0  0  0  0
 20 19  1  0  0  0  0
 21  2  2  0  0  0  0
 22 21  1  0  0  0  0
 23 24  1  6  0  0  0
 23 12  1  0  0  0  0
 23 35  1  0  0  0  0
 25 12  2  0  0  0  0
 25 29  1  0  0  0  0
 26 25  1  0  0  0  0
 27 21  1  0  0  0  0
 27 10  2  0  0  0  0
 28 27  1  0  0  0  0
 29 33  2  0  0  0  0
 30 29  1  0  0  0  0
 31 37  2  0  0  0  0
 32 31  1  0  0  0  0
 33 13  1  0  0  0  0
 33 34  1  0  0  0  0
 35 36  1  6  0  0  0
 35  1  1  0  0  0  0
 35 15  1  0  0  0  0
 37 38  1  0  0  0  0
 37 16  1  0  0  0  0
 39 40  1  0  0  0  0
 39  3  2  0  0  0  0
 41 42  1  0  0  0  0
 43 19  1  0  0  0  0
 43 47  2  0  0  0  0
 44 43  1  0  0  0  0
 45 41  2  0  0  0  0
 45 46  1  0  0  0  0
 47 45  1  0  0  0  0
 48 47  1  0  0  0  0
M  END
