2,12
q = -1.0

 19 20  0  0  1  0  0  0  0  0999 V2000
   -2.5791    3.4244   -0.2944 S   0  0  0  0  0  0  0  0  0  0  0  0
   -1.0933    1.3508    0.4137 C   0  0  0  0  0  3  0  0  0  0  0  0
   -2.7158    2.7868    1.3259 C   0  0  0  0  0  0  0  0  0  0  0  0
   -1.8748    1.6923    1.5510 C   0  0  0  0  0  0  0  0  0  0  0  0
   -1.8490    1.1684    2.5176 H   0  0  0  0  0  0  0  0  0  0  0  0
   -0.8745    2.7052   -3.1157 C   0  0  0  0  0  0  0  0  0  0  0  0
   -1.5915    3.5383   -3.1424 H   0  0  0  0  0  0  0  0  0  0  0  0
   -1.3850    2.2131   -0.6630 C   0  0  0  0  0  0  0  0  0  0  0  0
   -0.1470    2.3400   -4.2489 C   0  0  0  0  0  0  0  0  0  0  0  0
   -0.2801    2.8878   -5.1933 H   0  0  0  0  0  0  0  0  0  0  0  0
   -0.7010    1.9919   -1.9109 C   0  0  1  0  0  3  0  0  0  0  0  0
    0.1962    0.9411   -1.8477 N   0  0  0  0  0  2  0  0  0  0  0  0
    0.8940    0.5922   -2.9518 C   0  0  0  0  0  0  0  0  0  0  0  0
    1.5819   -0.2575   -2.8386 H   0  0  0  0  0  0  0  0  0  0  0  0
   -3.6568    3.4296    2.2518 C   0  0  0  0  0  0  0  0  0  0  0  0
   -3.6934    2.9454    3.2720 H   0  0  0  0  0  0  0  0  0  0  0  0
   -4.3425    4.3977    1.9649 O   0  0  0  0  0  0  0  0  0  0  0  0
    0.7527    1.2608   -4.1691 C   0  0  0  0  0  0  0  0  0  0  0  0
    1.3405    0.9362   -5.0384 H   0  0  0  0  0  0  0  0  0  0  0  0
  1  3  1  0  0  0  0
  2  4  1  0  0  0  0
  3  4  2  0  0  0  0
  3 15  1  0  0  0  0
  4  5  1  0  0  0  0
  6 11  1  0  0  0  0
  7  6  1  0  0  0  0
  8  1  1  0  0  0  0
  8  2  2  0  0  0  0
  9 18  1  0  0  0  0
  9  6  2  0  0  0  0
 10  9  1  0  0  0  0
 11 12  1  0  0  0  0
 11  8  1  6  0  0  0
 13 14  1  0  0  0  0
 13 12  1  0  0  0  0
 15 16  1  0  0  0  0
 17 15  2  0  0  0  0
 18 13  2  0  0  0  0
 19 18  1  0  0  0  0
M  END
