1,28
q = -1.0

 45 47  0  0  1  0  0  0  0  0999 V2000
    1.8945   -1.9254   -0.0992 N   0  0  0  0  0  2  0  0  0  0  0  0
    2.2027   -2.8936   -0.2276 H   0  0  0  0  0  0  0  0  0  0  0  0
    2.3433    0.3085   -0.1111 N   0  0  0  0  0  0  0  0  0  0  0  0
    0.4778    1.6534    0.1640 N   0  0  0  0  0  2  0  0  0  0  0  0
    2.8057   -0.9853   -0.1545 C   0  0  2  0  0  3  0  0  0  0  0  0
    4.2514   -1.2945   -0.2799 C   0  0  0  0  0  0  0  0  0  0  0  0
    4.7917   -2.3488    0.4877 C   0  0  0  0  0  0  0  0  0  0  0  0
    4.1495   -2.8798    1.2068 H   0  0  0  0  0  0  0  0  0  0  0  0
    6.1423   -2.6985    0.3566 C   0  0  0  0  0  0  0  0  0  0  0  0
    6.5565   -3.5138    0.9682 H   0  0  0  0  0  0  0  0  0  0  0  0
    6.9630   -2.0064   -0.5476 C   0  0  0  0  0  0  0  0  0  0  0  0
    8.0236   -2.2809   -0.6507 H   0  0  0  0  0  0  0  0  0  0  0  0
    6.4284   -0.9622   -1.3203 C   0  0  0  0  0  0  0  0  0  0  0  0
    7.0667   -0.4221   -2.0354 H   0  0  0  0  0  0  0  0  0  0  0  0
    5.0824   -0.6010   -1.1861 C   0  0  0  0  0  0  0  0  0  0  0  0
    4.6687    0.2171   -1.7916 H   0  0  0  0  0  0  0  0  0  0  0  0
    3.2048    1.4313    0.1279 C   0  0  0  0  0  0  0  0  0  0  0  0
    4.0228    1.4599    1.2695 C   0  0  0  0  0  0  0  0  0  0  0  0
    3.9905    0.6210    1.9797 H   0  0  0  0  0  0  0  0  0  0  0  0
    4.8751    2.5520    1.4886 C   0  0  0  0  0  0  0  0  0  0  0  0
    5.5214    2.5675    2.3790 H   0  0  0  0  0  0  0  0  0  0  0  0
    4.8952    3.6231    0.5824 C   0  0  0  0  0  0  0  0  0  0  0  0
    5.5601    4.4820    0.7583 H   0  0  0  0  0  0  0  0  0  0  0  0
    4.0594    3.5995   -0.5469 C   0  0  0  0  0  0  0  0  0  0  0  0
    4.0669    4.4405   -1.2565 H   0  0  0  0  0  0  0  0  0  0  0  0
    3.2141    2.5065   -0.7778 C   0  0  0  0  0  0  0  0  0  0  0  0
    2.5574    2.4732   -1.6580 H   0  0  0  0  0  0  0  0  0  0  0  0
    0.9020    0.4645   -0.0399 C   0  0  0  0  0  2  0  0  0  0  0  0
   -0.8560    1.9932    0.3714 C   0  0  0  0  0  0  0  0  0  0  0  0
   -1.5600    2.6703   -0.6606 C   0  0  0  0  0  0  0  0  0  0  0  0
   -0.8685    2.9357   -1.9701 C   0  0  0  0  0  0  0  0  0  0  0  0
    0.0971    3.4592   -1.8076 H   0  0  0  0  0  0  0  0  0  0  0  0
   -1.4963    3.5483   -2.6453 H   0  0  0  0  0  0  0  0  0  0  0  0
   -0.6227    1.9859   -2.4920 H   0  0  0  0  0  0  0  0  0  0  0  0
   -2.8973    3.0371   -0.4346 C   0  0  0  0  0  0  0  0  0  0  0  0
   -3.4479    3.5627   -1.2312 H   0  0  0  0  0  0  0  0  0  0  0  0
   -3.5333    2.7458    0.7818 C   0  0  0  0  0  0  0  0  0  0  0  0
   -4.5852    3.0276    0.9376 H   0  0  0  0  0  0  0  0  0  0  0  0
   -2.8176    2.1030    1.8014 C   0  0  0  0  0  0  0  0  0  0  0  0
   -3.3073    1.8888    2.7647 H   0  0  0  0  0  0  0  0  0  0  0  0
   -1.4755    1.7214    1.6244 C   0  0  0  0  0  0  0  0  0  0  0  0
   -0.7035    1.0332    2.7185 C   0  0  0  0  0  0  0  0  0  0  0  0
   -1.2508    1.0717    3.6798 H   0  0  0  0  0  0  0  0  0  0  0  0
    0.2947    1.4981    2.8553 H   0  0  0  0  0  0  0  0  0  0  0  0
   -0.5160   -0.0346    2.4713 H   0  0  0  0  0  0  0  0  0  0  0  0
  2  1  1  0  0  0  0
  3 28  1  0  0  0  0
  3 17  1  0  0  0  0
  4 29  1  0  0  0  0
  5  3  1  0  0  0  0
  5  1  1  6  0  0  0
  6  5  1  0  0  0  0
  6  7  1  0  0  0  0
  7  8  1  0  0  0  0
  9  7  2  0  0  0  0
  9 10  1  0  0  0  0
 11  9  1  0  0  0  0
 12 11  1  0  0  0  0
 13 15  1  0  0  0  0
 13 11  2  0  0  0  0
 14 13  1  0  0  0  0
 15  6  2  0  0  0  0
 16 15  1  0  0  0  0
 17 18  1  0  0  0  0
 18 20  2  0  0  0  0
 18 19  1  0  0  0  0
 20 21  1  0  0  0  0
 22 23  1  0  0  0  0
 22 20  1  0  0  0  0
 24 22  2  0  0  0  0
 25 24  1  0  0  0  0
 26 24  1  0  0  0  0
 26 17  2  0  0  0  0
 27 26  1  0  0  0  0
 28  4  1  0  0  0  0
 29 41  1  0  0  0  0
 30 35  1  0  0  0  0
 30 29  2  0  0  0  0
 31 32  1  0  0  0  0
 31 30  1  0  0  0  0
 33 31  1  0  0  0  0
 34 31  1  0  0  0  0
 35 37  2  0  0  0  0
 36 35  1  0  0  0  0
 37 38  1  0  0  0  0
 37 39  1  0  0  0  0
 39 40  1  0  0  0  0
 41 39  2  0  0  0  0
 41 42  1  0  0  0  0
 42 44  1  0  0  0  0
 42 43  1  0  0  0  0
 45 42  1  0  0  0  0
M  END
