2,4
q = -1.0

 42 46  0  0  0  0  0  0  0  0999 V2000
   -5.9993    3.5455   -0.4728 O   0  0  0  0  0  0  0  0  0  0  0  0
   -0.9935    1.0712   -0.1402 N   0  0  0  0  0  2  0  0  0  0  0  0
    1.3382    0.9532   -0.0450 C   0  0  0  0  0  0  0  0  0  0  0  0
    1.0795   -0.4585   -0.1059 C   0  0  0  0  0  3  0  0  0  0  0  0
    2.1799   -1.3227   -0.2005 C   0  0  0  0  0  0  0  0  0  0  0  0
    2.0199   -2.4049   -0.3232 H   0  0  0  0  0  0  0  0  0  0  0  0
    4.6340   -1.7444   -0.2308 C   0  0  0  0  0  0  0  0  0  0  0  0
    4.4322   -2.8232   -0.3220 H   0  0  0  0  0  0  0  0  0  0  0  0
    5.9269   -1.2814   -0.1823 C   0  0  0  0  0  0  0  0  0  0  0  0
    6.7729   -1.9847   -0.2341 H   0  0  0  0  0  0  0  0  0  0  0  0
    7.5327    0.6254   -0.0200 C   0  0  0  0  0  0  0  0  0  0  0  0
    8.3735   -0.0842   -0.0663 H   0  0  0  0  0  0  0  0  0  0  0  0
    7.7771    2.0032    0.0822 C   0  0  0  0  0  0  0  0  0  0  0  0
    8.8129    2.3733    0.1179 H   0  0  0  0  0  0  0  0  0  0  0  0
    6.7114    2.9095    0.1350 C   0  0  0  0  0  0  0  0  0  0  0  0
    6.9049    3.9909    0.2102 H   0  0  0  0  0  0  0  0  0  0  0  0
    4.2523    3.3526    0.1322 C   0  0  0  0  0  0  0  0  0  0  0  0
    4.4489    4.4337    0.2053 H   0  0  0  0  0  0  0  0  0  0  0  0
    2.9575    2.8877    0.0826 C   0  0  0  0  0  0  0  0  0  0  0  0
    2.1282    3.6088    0.1192 H   0  0  0  0  0  0  0  0  0  0  0  0
    3.5107   -0.8483   -0.1631 C   0  0  0  0  0  0  0  0  0  0  0  0
    6.2133    0.1245   -0.0684 C   0  0  0  0  0  0  0  0  0  0  0  0
    5.3719    2.4555    0.0893 C   0  0  0  0  0  0  0  0  0  0  0  0
    2.6664    1.4839   -0.0062 C   0  0  0  0  0  0  0  0  0  0  0  0
    5.1119    1.0465   -0.0090 C   0  0  0  0  0  0  0  0  0  0  0  0
    3.7658    0.5654   -0.0534 C   0  0  0  0  0  0  0  0  0  0  0  0
    0.1432    1.7384   -0.0885 C   0  0  0  0  0  3  0  0  0  0  0  0
    0.1232    2.8407   -0.1286 H   0  0  0  0  0  0  0  0  0  0  0  0
   -2.2408    1.7367   -0.2015 C   0  0  0  0  0  0  0  0  0  0  0  0
   -3.1524    1.4028   -1.2300 C   0  0  0  0  0  0  0  0  0  0  0  0
   -2.8418    0.6540   -1.9759 H   0  0  0  0  0  0  0  0  0  0  0  0
   -4.3913    2.0347   -1.2940 C   0  0  0  0  0  0  0  0  0  0  0  0
   -5.1080    1.8017   -2.0950 H   0  0  0  0  0  0  0  0  0  0  0  0
   -4.7616    2.9992   -0.3266 C   0  0  0  0  0  0  0  0  0  0  0  0
   -3.8593    3.3268    0.7054 C   0  0  0  0  0  0  0  0  0  0  0  0
   -4.1227    4.0616    1.4776 H   0  0  0  0  0  0  0  0  0  0  0  0
   -2.6041    2.6964    0.7598 C   0  0  0  0  0  0  0  0  0  0  0  0
   -1.9055    2.9348    1.5761 H   0  0  0  0  0  0  0  0  0  0  0  0
   -6.4178    4.5210    0.4616 C   0  0  0  0  0  0  0  0  0  0  0  0
   -6.4612    4.1134    1.4971 H   0  0  0  0  0  0  0  0  0  0  0  0
   -7.4338    4.8329    0.1566 H   0  0  0  0  0  0  0  0  0  0  0  0
   -5.7503    5.4122    0.4592 H   0  0  0  0  0  0  0  0  0  0  0  0
  1 34  1  0  0  0  0
  1 39  1  0  0  0  0
  2 27  1  0  0  0  0
  3 24  1  0  0  0  0
  4  3  2  0  0  0  0
  5 21  2  0  0  0  0
  5  4  1  0  0  0  0
  6  5  1  0  0  0  0
  7  9  2  0  0  0  0
  7 21  1  0  0  0  0
  8  7  1  0  0  0  0
  9 22  1  0  0  0  0
 10  9  1  0  0  0  0
 11 13  1  0  0  0  0
 12 11  1  0  0  0  0
 13 14  1  0  0  0  0
 13 15  2  0  0  0  0
 15 16  1  0  0  0  0
 17 18  1  0  0  0  0
 19 20  1  0  0  0  0
 19 17  2  0  0  0  0
 21 26  1  0  0  0  0
 22 11  2  0  0  0  0
 22 25  1  0  0  0  0
 23 17  1  0  0  0  0
 23 15  1  0  0  0  0
 24 19  1  0  0  0  0
 25 23  2  0  0  0  0
 26 25  1  0  0  0  0
 26 24  2  0  0  0  0
 27  3  1  0  0  0  0
 28 27  1  0  0  0  0
 29  2  1  0  0  0  0
 29 37  1  0  0  0  0
 30 29  2  0  0  0  0
 31 30  1  0  0  0  0
 32 30  1  0  0  0  0
 32 34  2  0  0  0  0
 33 32  1  0  0  0  0
 34 35  1  0  0  0  0
 35 37  2  0  0  0  0
 35 36  1  0  0  0  0
 37 38  1  0  0  0  0
 39 40  1  0  0  0  0
 41 39  1  0  0  0  0
 42 39  1  0  0  0  0
M  END
