2,4
q = -1.0, confidence = 0.0

 38 39  0  0  0  0  0  0  0  0999 V2000
    4.1461    3.2082   -1.1144 Cl  0  0  0  0  0  0  0  0  0  0  0  0
    2.1505   -0.2193   -1.3489 N   0  0  0  0  0  2  0  0  0  0  0  0
    4.0691   -2.3900   -0.9075 N   0  0  0  0  0  0  0  0  0  0  0  0
    0.7587   -1.0771    0.9257 C   0  0  0  0  0  2  0  0  0  0  0  0
    0.3021   -2.3803    1.2364 C   0  0  0  0  0  0  0  0  0  0  0  0
   -0.4347   -2.8598    0.5732 H   0  0  0  0  0  0  0  0  0  0  0  0
    0.7305   -3.0627    2.3838 C   0  0  0  0  0  0  0  0  0  0  0  0
    0.3439   -4.0713    2.5978 H   0  0  0  0  0  0  0  0  0  0  0  0
    1.6425   -2.4529    3.2611 C   0  0  0  0  0  0  0  0  0  0  0  0
    1.9872   -2.9775    4.1650 H   0  0  0  0  0  0  0  0  0  0  0  0
    2.1170   -1.1680    2.9704 C   0  0  0  0  0  0  0  0  0  0  0  0
    2.8447   -0.6880    3.6437 H   0  0  0  0  0  0  0  0  0  0  0  0
    1.6961   -0.4758    1.8089 C   0  0  0  0  0  0  0  0  0  0  0  0
    2.1977    0.9125    1.6046 C   0  0  0  0  0  0  0  0  0  0  0  0
    2.0901    1.8265    2.6744 C   0  0  0  0  0  0  0  0  0  0  0  0
    1.5904    1.4940    3.5961 H   0  0  0  0  0  0  0  0  0  0  0  0
    2.5857    3.1332    2.5806 C   0  0  0  0  0  0  0  0  0  0  0  0
    2.4706    3.8286    3.4256 H   0  0  0  0  0  0  0  0  0  0  0  0
    3.2258    3.5632    1.4118 C   0  0  0  0  0  0  0  0  0  0  0  0
    3.6184    4.5839    1.3089 H   0  0  0  0  0  0  0  0  0  0  0  0
    3.3534    2.6614    0.3482 C   0  0  0  0  0  0  0  0  0  0  0  0
    2.8390    1.3437    0.4050 C   0  0  0  0  0  0  0  0  0  0  0  0
    3.0716    0.4672   -0.7562 C   0  0  0  0  0  0  0  0  0  0  0  0
    4.0913    0.4656   -1.1867 H   0  0  0  0  0  0  0  0  0  0  0  0
    2.5361   -1.1426   -2.4024 C   0  0  0  0  0  0  0  0  0  0  0  0
    3.4045   -0.7379   -2.9668 H   0  0  0  0  0  0  0  0  0  0  0  0
    1.6849   -1.2442   -3.1024 H   0  0  0  0  0  0  0  0  0  0  0  0
    2.9032   -2.4982   -1.7625 C   0  0  0  0  0  0  0  0  0  0  0  0
    2.0392   -2.8287   -1.1519 H   0  0  0  0  0  0  0  0  0  0  0  0
    3.0329   -3.2505   -2.5819 H   0  0  0  0  0  0  0  0  0  0  0  0
    4.0287   -3.2109    0.2891 C   0  0  0  0  0  0  0  0  0  0  0  0
    4.8680   -2.9353    0.9603 H   0  0  0  0  0  0  0  0  0  0  0  0
    4.1128   -4.3103    0.0786 H   0  0  0  0  0  0  0  0  0  0  0  0
    3.0855   -3.0329    0.8404 H   0  0  0  0  0  0  0  0  0  0  0  0
    5.3284   -2.4679   -1.6182 C   0  0  0  0  0  0  0  0  0  0  0  0
    6.1666   -2.2067   -0.9402 H   0  0  0  0  0  0  0  0  0  0  0  0
    5.3469   -1.7478   -2.4621 H   0  0  0  0  0  0  0  0  0  0  0  0
    5.5371   -3.4868   -2.0421 H   0  0  0  0  0  0  0  0  0  0  0  0
  1 21  1  0  0  0  0
  2 23  1  0  0  0  0
  3 31  1  0  0  0  0
  4  5  1  0  0  0  0
  4 13  1  0  0  0  0
  5  7  2  0  0  0  0
  6  5  1  0  0  0  0
  7  8  1  0  0  0  0
  7  9  1  0  0  0  0
  9 10  1  0  0  0  0
 11  9  2  0  0  0  0
 11 12  1  0  0  0  0
 13 11  1  0  0  0  0
 14 13  2  0  0  0  0
 14 15  1  0  0  0  0
 15 16  1  0  0  0  0
 17 15  2  0  0  0  0
 17 18  1  0  0  0  0
 19 17  1  0  0  0  0
 20 19  1  0  0  0  0
 21 22  1  0  0  0  0
 21 19  2  0  0  0  0
 22 14  1  0  0  0  0
 23 22  2  0  0  0  0
 24 23  1  0  0  0  0
 25 28  1  0  0  0  0
 25  2  1  0  0  0  0
 26 25  1  0  0  0  0
 27 25  1  0  0  0  0
 28 29  1  0  0  0  0
 28  3  1  0  0  0  0
 30 28  1  0  0  0  0
 31 34  1  0  0  0  0
 31 32  1  0  0  0  0
 33 31  1  0  0  0  0
 35 36  1  0  0  0  0
 35  3  1  0  0  0  0
 37 35  1  0  0  0  0
 38 35  1  0  0  0  0
M  END
