1,3
q = -1.0

 29 32  0  0  1  0  0  0  0  0999 V2000
    0.4496    1.4330    1.6097 C   0  0  0  0  0  3  0  0  0  0  0  0
   -2.8459    2.8963    0.9171 O   0  0  0  0  0  0  0  0  0  0  0  0
   -1.8266    0.9682    0.3769 N   0  0  0  0  0  2  0  0  0  0  0  0
    1.6362    1.6012    2.3560 C   0  0  0  0  0  0  0  0  0  0  0  0
    2.4069    0.8156    2.3421 H   0  0  0  0  0  0  0  0  0  0  0  0
    1.8552    2.7657    3.1080 C   0  0  0  0  0  0  0  0  0  0  0  0
    2.7932    2.8725    3.6759 H   0  0  0  0  0  0  0  0  0  0  0  0
    0.9001    3.8043    3.1493 C   0  0  0  0  0  0  0  0  0  0  0  0
    1.0944    4.7104    3.7420 H   0  0  0  0  0  0  0  0  0  0  0  0
   -0.2958    3.6710    2.4399 C   0  0  0  0  0  0  0  0  0  0  0  0
   -1.0631    4.4598    2.4632 H   0  0  0  0  0  0  0  0  0  0  0  0
   -0.5132    2.4951    1.6903 C   0  0  0  0  0  0  0  0  0  0  0  0
   -1.7112    2.1611    0.9812 C   0  0  2  0  0  3  0  0  0  0  0  0
   -3.7575    2.1044    0.2513 C   0  0  0  0  0  0  0  0  0  0  0  0
   -5.0877    2.4381   -0.0543 C   0  0  0  0  0  0  0  0  0  0  0  0
   -5.5041    3.4185    0.2137 H   0  0  0  0  0  0  0  0  0  0  0  0
   -5.8302    1.4592   -0.7007 C   0  0  0  0  0  0  0  0  0  0  0  0
   -6.8786    1.6578   -0.9693 H   0  0  0  0  0  0  0  0  0  0  0  0
   -5.2839    0.1710   -1.0125 C   0  0  0  0  0  0  0  0  0  0  0  0
   -6.0910   -0.8308   -1.6264 C   0  0  0  0  0  0  0  0  0  0  0  0
   -7.1324   -0.5809   -1.8822 H   0  0  0  0  0  0  0  0  0  0  0  0
   -5.5892   -2.0982   -1.8854 C   0  0  0  0  0  0  0  0  0  0  0  0
   -6.2312   -2.8594   -2.3539 H   0  0  0  0  0  0  0  0  0  0  0  0
   -4.2531   -2.4182   -1.5335 C   0  0  0  0  0  0  0  0  0  0  0  0
   -3.8656   -3.4316   -1.7192 H   0  0  0  0  0  0  0  0  0  0  0  0
   -3.4253   -1.4683   -0.9471 C   0  0  0  0  0  0  0  0  0  0  0  0
   -2.3889   -1.7210   -0.6871 H   0  0  0  0  0  0  0  0  0  0  0  0
   -3.9097   -0.1579   -0.6892 C   0  0  0  0  0  0  0  0  0  0  0  0
   -3.1448    0.8833   -0.0735 C   0  0  0  0  0  0  0  0  0  0  0  0
  1 12  2  0  0  0  0
  1  4  1  0  0  0  0
  2 13  1  0  0  0  0
  3 13  1  0  0  0  0
  4  6  2  0  0  0  0
  5  4  1  0  0  0  0
  6  8  1  0  0  0  0
  6  7  1  0  0  0  0
  8  9  1  0  0  0  0
 10 11  1  0  0  0  0
 10  8  2  0  0  0  0
 12 10  1  0  0  0  0
 13 12  1  1  0  0  0
 14  2  1  0  0  0  0
 15 16  1  0  0  0  0
 15 14  1  0  0  0  0
 17 15  2  0  0  0  0
 18 17  1  0  0  0  0
 19 17  1  0  0  0  0
 19 28  1  0  0  0  0
 20 19  2  0  0  0  0
 21 20  1  0  0  0  0
 22 20  1  0  0  0  0
 22 24  2  0  0  0  0
 23 22  1  0  0  0  0
 24 26  1  0  0  0  0
 25 24  1  0  0  0  0
 26 28  2  0  0  0  0
 26 27  1  0  0  0  0
 28 29  1  0  0  0  0
 29 14  2  0  0  0  0
 29  3  1  0  0  0  0
M  END
