1,2
q = -1.0

 17 18  0  0  0  0  0  0  0  0999 V2000
   -2.3160   -1.1072   -0.5264 C   0  0  0  0  0  2  0  0  0  0  0  0
   -0.1243   -2.6485   -0.7325 N   0  0  0  0  0  2  0  0  0  0  0  0
   -2.4470   -2.4102   -1.0298 C   0  0  0  0  0  0  0  0  0  0  0  0
   -1.2864   -3.2620   -1.1450 C   0  0  0  0  0  0  0  0  0  0  0  0
    1.0458   -3.3173   -0.7622 C   0  0  0  0  0  0  0  0  0  0  0  0
    1.9294   -2.7675   -0.4047 H   0  0  0  0  0  0  0  0  0  0  0  0
   -1.2514   -4.5921   -1.6117 C   0  0  0  0  0  0  0  0  0  0  0  0
   -2.1847   -5.0709   -1.9409 H   0  0  0  0  0  0  0  0  0  0  0  0
   -0.0359   -5.2800   -1.6454 C   0  0  0  0  0  0  0  0  0  0  0  0
   -0.0008   -6.3184   -2.0071 H   0  0  0  0  0  0  0  0  0  0  0  0
   -4.0928   -2.8037   -1.4520 S   0  0  0  0  0  0  0  0  0  0  0  0
   -4.6163   -1.2299   -0.9626 C   0  0  0  0  0  0  0  0  0  0  0  0
   -5.6800   -0.9717   -1.0454 H   0  0  0  0  0  0  0  0  0  0  0  0
    1.1369   -4.6375   -1.2119 C   0  0  0  0  0  0  0  0  0  0  0  0
    2.1103   -5.1460   -1.2188 H   0  0  0  0  0  0  0  0  0  0  0  0
   -3.5755   -0.4386   -0.4932 C   0  0  0  0  0  0  0  0  0  0  0  0
   -3.7339    0.5863   -0.1292 H   0  0  0  0  0  0  0  0  0  0  0  0
  1 16  1  0  0  0  0
  3  1  1  0  0  0  0
  4  3  2  0  0  0  0
  4  2  1  0  0  0  0
  5  2  1  0  0  0  0
  5  6  1  0  0  0  0
  7  4  1  0  0  0  0
  8  7  1  0  0  0  0
  9  7  2  0  0  0  0
  9 14  1  0  0  0  0
 10  9  1  0  0  0  0
 11  3  1  0  0  0  0
 11 12  1  0  0  0  0
 12 16  2  0  0  0  0
 13 12  1  0  0  0  0
 14  5  2  0  0  0  0
 15 14  1  0  0  0  0
 16 17  1  0  0  0  0
M  END
