1,33
q = -1.0, confidence = 0.014

 33 36  0  0  1  0  0  0  0  0999 V2000
   -0.6970    1.3254   -1.2848 C   0  0  0  0  0  3  0  0  0  0  0  0
   -1.8935    1.2771   -2.0132 C   0  0  0  0  0  0  0  0  0  0  0  0
   -2.5409    0.3884   -1.9995 H   0  0  0  0  0  0  0  0  0  0  0  0
   -2.3239    2.3812   -2.7822 C   0  0  0  0  0  0  0  0  0  0  0  0
   -1.5546    3.5718   -2.8440 C   0  0  0  0  0  0  0  0  0  0  0  0
   -1.8872    4.4326   -3.4377 H   0  0  0  0  0  0  0  0  0  0  0  0
   -0.3497    3.6402   -2.1406 C   0  0  0  0  0  0  0  0  0  0  0  0
    0.2655    4.5519   -2.1841 H   0  0  0  0  0  0  0  0  0  0  0  0
    0.0779    2.5352   -1.3796 C   0  0  0  0  0  0  0  0  0  0  0  0
    1.3131    2.4198   -0.6740 C   0  0  2  0  0  3  0  0  0  0  0  0
    3.3375    2.7277    0.0578 C   0  0  0  0  0  0  0  0  0  0  0  0
    4.5883    3.2907    0.3599 C   0  0  0  0  0  0  0  0  0  0  0  0
    4.8282    4.3252    0.0796 H   0  0  0  0  0  0  0  0  0  0  0  0
    5.4889    2.4646    1.0197 C   0  0  0  0  0  0  0  0  0  0  0  0
    6.4859    2.8461    1.2865 H   0  0  0  0  0  0  0  0  0  0  0  0
    5.1739    1.1053    1.3460 C   0  0  0  0  0  0  0  0  0  0  0  0
    6.1408    0.2653    1.9720 C   0  0  0  0  0  0  0  0  0  0  0  0
    7.1220    0.6956    2.2267 H   0  0  0  0  0  0  0  0  0  0  0  0
    5.8669   -1.0673    2.2437 C   0  0  0  0  0  0  0  0  0  0  0  0
    6.6303   -1.7000    2.7217 H   0  0  0  0  0  0  0  0  0  0  0  0
    4.6084   -1.6192    1.8923 C   0  0  0  0  0  0  0  0  0  0  0  0
    4.4031   -2.6829    2.0874 H   0  0  0  0  0  0  0  0  0  0  0  0
    3.6299   -0.8338    1.2950 C   0  0  0  0  0  0  0  0  0  0  0  0
    2.6548   -1.2658    1.0339 H   0  0  0  0  0  0  0  0  0  0  0  0
    3.8785    0.5388    1.0248 C   0  0  0  0  0  0  0  0  0  0  0  0
    2.9442    1.4231    0.3979 C   0  0  0  0  0  0  0  0  0  0  0  0
   -4.0093    3.2790   -4.2192 C   0  0  0  0  0  0  0  0  0  0  0  0
   -4.9656    2.9258   -4.6481 H   0  0  0  0  0  0  0  0  0  0  0  0
   -3.3195    3.5491   -5.0502 H   0  0  0  0  0  0  0  0  0  0  0  0
   -4.2028    4.1890   -3.6079 H   0  0  0  0  0  0  0  0  0  0  0  0
    2.3041    3.3418   -0.6190 O   0  0  0  0  0  0  0  0  0  0  0  0
   -3.5044    2.2142   -3.4372 O   0  0  0  0  0  0  0  0  0  0  0  0
    1.6321    1.2722   -0.0516 N   0  0  0  0  0  2  0  0  0  0  0  0
  2  3  1  0  0  0  0
  2  1  2  0  0  0  0
  4  2  1  0  0  0  0
  5  4  2  0  0  0  0
  5  7  1  0  0  0  0
  6  5  1  0  0  0  0
  7  9  2  0  0  0  0
  8  7  1  0  0  0  0
  9  1  1  0  0  0  0
 10  9  1  6  0  0  0
 10 31  1  0  0  0  0
 10 33  1  0  0  0  0
 11 12  2  0  0  0  0
 11 26  1  0  0  0  0
 12 14  1  0  0  0  0
 13 12  1  0  0  0  0
 14 15  1  0  0  0  0
 14 16  2  0  0  0  0
 16 17  1  0  0  0  0
 17 18  1  0  0  0  0
 17 19  2  0  0  0  0
 19 20  1  0  0  0  0
 21 22  1  0  0  0  0
 21 19  1  0  0  0  0
 23 21  2  0  0  0  0
 24 23  1  0  0  0  0
 25 23  1  0  0  0  0
 25 16  1  0  0  0  0
 26 25  2  0  0  0  0
 27 30  1  0  0  0  0
 27 32  1  0  0  0  0
 28 27  1  0  0  0  0
 29 27  1  0  0  0  0
 31 11  1  0  0  0  0
 32  4  1  0  0  0  0
 33 26  1  0  0  0  0
M  END
