3,4
q = -1.0

 37 37  0  0  1  0  0  0  0  0999 V2000
   -3.0314    0.9231   -1.3154 Si  0  0  0  0  0  0  0  0  0  0  0  0
   -2.6337    0.1210    1.7804 Si  0  0  0  0  0  0  0  0  0  0  0  0
   -0.5485   -1.7775   -0.1077 N   0  0  0  0  0  2  0  0  0  0  0  0
   -2.0719   -0.0657   -0.0220 C   0  0  0  0  0  3  0  0  0  0  0  0
   -1.8765   -1.5070   -0.3066 C   0  0  2  0  0  3  0  0  0  0  0  0
   -2.7540   -2.5546   -0.6553 C   0  0  0  0  0  0  0  0  0  0  0  0
   -2.2517   -3.8619   -0.7334 C   0  0  0  0  0  0  0  0  0  0  0  0
   -0.8897   -4.1089   -0.4835 C   0  0  0  0  0  0  0  0  0  0  0  0
   -0.0563   -3.0261   -0.1842 C   0  0  0  0  0  0  0  0  0  0  0  0
   -3.6815    2.5903   -0.6660 C   0  0  0  0  0  0  0  0  0  0  0  0
   -4.5764    0.0019   -1.9484 C   0  0  0  0  0  0  0  0  0  0  0  0
   -1.9499    1.2745   -2.8324 C   0  0  0  0  0  0  0  0  0  0  0  0
   -2.1209    1.7733    2.5530 C   0  0  0  0  0  0  0  0  0  0  0  0
   -4.5275   -0.0615    1.9147 C   0  0  0  0  0  0  0  0  0  0  0  0
   -1.9059   -1.2616    2.8531 C   0  0  0  0  0  0  0  0  0  0  0  0
   -3.8170   -2.3423   -0.8261 H   0  0  0  0  0  0  0  0  0  0  0  0
   -2.9271   -4.6964   -0.9774 H   0  0  0  0  0  0  0  0  0  0  0  0
   -0.4740   -5.1252   -0.5242 H   0  0  0  0  0  0  0  0  0  0  0  0
    1.0215   -3.1410   -0.0080 H   0  0  0  0  0  0  0  0  0  0  0  0
   -4.3857    2.4641    0.1802 H   0  0  0  0  0  0  0  0  0  0  0  0
   -2.8874    3.2888   -0.3376 H   0  0  0  0  0  0  0  0  0  0  0  0
   -4.2347    3.0914   -1.4876 H   0  0  0  0  0  0  0  0  0  0  0  0
   -5.2442   -0.3072   -1.1188 H   0  0  0  0  0  0  0  0  0  0  0  0
   -5.1564    0.6725   -2.6169 H   0  0  0  0  0  0  0  0  0  0  0  0
   -4.3090   -0.8991   -2.5363 H   0  0  0  0  0  0  0  0  0  0  0  0
   -1.4862    0.3397   -3.2094 H   0  0  0  0  0  0  0  0  0  0  0  0
   -2.5490    1.7172   -3.6553 H   0  0  0  0  0  0  0  0  0  0  0  0
   -1.1316    1.9796   -2.5854 H   0  0  0  0  0  0  0  0  0  0  0  0
   -1.0163    1.8609    2.5811 H   0  0  0  0  0  0  0  0  0  0  0  0
   -2.5231    2.6474    2.0048 H   0  0  0  0  0  0  0  0  0  0  0  0
   -2.4971    1.8271    3.5960 H   0  0  0  0  0  0  0  0  0  0  0  0
   -4.8497   -1.0410    1.5034 H   0  0  0  0  0  0  0  0  0  0  0  0
   -4.8475   -0.0228    2.9771 H   0  0  0  0  0  0  0  0  0  0  0  0
   -5.0773    0.7305    1.3678 H   0  0  0  0  0  0  0  0  0  0  0  0
   -2.1738   -2.2656    2.4645 H   0  0  0  0  0  0  0  0  0  0  0  0
   -0.8025   -1.1997    2.9039 H   0  0  0  0  0  0  0  0  0  0  0  0
   -2.3026   -1.1814    3.8866 H   0  0  0  0  0  0  0  0  0  0  0  0
  1 10  1  0  0  0  0
  1  4  1  0  0  0  0
  2 14  1  0  0  0  0
  2 13  1  0  0  0  0
  2 15  1  0  0  0  0
  4  2  1  0  0  0  0
  5  3  1  0  0  0  0
  5  4  1  1  0  0  0
  6  5  1  0  0  0  0
  7  6  2  0  0  0  0
  7  8  1  0  0  0  0
  8  9  2  0  0  0  0
  9  3  1  0  0  0  0
  9 19  1  0  0  0  0
 10 21  1  0  0  0  0
 10 20  1  0  0  0  0
 11  1  1  0  0  0  0
 11 23  1  0  0  0  0
 12 28  1  0  0  0  0
 12  1  1  0  0  0  0
 13 29  1  0  0  0  0
 13 31  1  0  0  0  0
 14 33  1  0  0  0  0
 15 36  1  0  0  0  0
 15 37  1  0  0  0  0
 16  6  1  0  0  0  0
 17  7  1  0  0  0  0
 18  8  1  0  0  0  0
 22 10  1  0  0  0  0
 24 11  1  0  0  0  0
 25 11  1  0  0  0  0
 26 12  1  0  0  0  0
 27 12  1  0  0  0  0
 30 13  1  0  0  0  0
 32 14  1  0  0  0  0
 34 14  1  0  0  0  0
 35 15  1  0  0  0  0
M  END
