2,3
q = -1.0

 35 36  0  0  1  0  0  0  0  0999 V2000
    1.8502   -1.4693    1.9209 Si  0  0  0  0  0  0  0  0  0  0  0  0
   -0.1343   -1.7505   -0.6319 N   0  0  0  0  0  2  0  0  0  0  0  0
    1.8486   -0.8583    0.1097 C   0  0  2  0  0  3  0  0  0  0  0  0
    1.2238   -1.8617   -0.7786 C   0  0  1  0  0  3  0  0  0  0  0  0
    1.7618   -2.8289   -1.6505 C   0  0  0  0  0  0  0  0  0  0  0  0
    0.8821   -3.7399   -2.2518 C   0  0  0  0  0  0  0  0  0  0  0  0
   -0.5045   -3.6536   -2.0092 C   0  0  0  0  0  0  0  0  0  0  0  0
   -0.9885   -2.6156   -1.2058 C   0  0  0  0  0  0  0  0  0  0  0  0
    2.9955    0.2932   -1.8176 C   0  0  0  0  0  0  0  0  0  0  0  0
    3.9611    1.1608   -2.3399 C   0  0  0  0  0  0  0  0  0  0  0  0
    4.9028    1.7733   -1.4949 C   0  0  0  0  0  0  0  0  0  0  0  0
    4.8608    1.4954   -0.1197 C   0  0  0  0  0  0  0  0  0  0  0  0
    3.8965    0.6218    0.4026 C   0  0  0  0  0  0  0  0  0  0  0  0
    2.9312   -0.0065   -0.4283 C   0  0  0  0  0  0  0  0  0  0  0  0
    0.4382   -2.6952    2.2279 C   0  0  0  0  0  0  0  0  0  0  0  0
    1.6545   -0.0823    3.2026 C   0  0  0  0  0  0  0  0  0  0  0  0
    3.4721   -2.4090    2.2538 C   0  0  0  0  0  0  0  0  0  0  0  0
    2.8478   -2.8748   -1.8132 H   0  0  0  0  0  0  0  0  0  0  0  0
    1.2761   -4.5374   -2.9006 H   0  0  0  0  0  0  0  0  0  0  0  0
   -1.2046   -4.3758   -2.4519 H   0  0  0  0  0  0  0  0  0  0  0  0
   -2.0609   -2.4495   -1.0163 H   0  0  0  0  0  0  0  0  0  0  0  0
    2.2513   -0.1547   -2.4946 H   0  0  0  0  0  0  0  0  0  0  0  0
    3.9723    1.3708   -3.4209 H   0  0  0  0  0  0  0  0  0  0  0  0
    5.6591    2.4596   -1.9044 H   0  0  0  0  0  0  0  0  0  0  0  0
    5.5928    1.9607    0.5590 H   0  0  0  0  0  0  0  0  0  0  0  0
    3.8930    0.4205    1.4832 H   0  0  0  0  0  0  0  0  0  0  0  0
    0.4748   -3.5547    1.5283 H   0  0  0  0  0  0  0  0  0  0  0  0
    0.5362   -3.0951    3.2591 H   0  0  0  0  0  0  0  0  0  0  0  0
   -0.5593   -2.2219    2.1324 H   0  0  0  0  0  0  0  0  0  0  0  0
    2.4081    0.7240    3.1125 H   0  0  0  0  0  0  0  0  0  0  0  0
    0.6531    0.3858    3.1178 H   0  0  0  0  0  0  0  0  0  0  0  0
    1.7449   -0.5156    4.2208 H   0  0  0  0  0  0  0  0  0  0  0  0
    3.5534   -3.2745    1.5638 H   0  0  0  0  0  0  0  0  0  0  0  0
    4.3710   -1.7788    2.1043 H   0  0  0  0  0  0  0  0  0  0  0  0
    3.4940   -2.7995    3.2928 H   0  0  0  0  0  0  0  0  0  0  0  0
  1 15  1  0  0  0  0
  1 17  1  0  0  0  0
  1 16  1  0  0  0  0
  3  1  1  1  0  0  0
  4  2  1  0  0  0  0
  4  3  1  1  0  0  0
  5  4  1  0  0  0  0
  6  7  1  0  0  0  0
  6  5  2  0  0  0  0
  7  8  2  0  0  0  0
  8 21  1  0  0  0  0
  8  2  1  0  0  0  0
  9 14  1  0  0  0  0
 10  9  2  0  0  0  0
 10 11  1  0  0  0  0
 11 12  2  0  0  0  0
 12 13  1  0  0  0  0
 12 25  1  0  0  0  0
 13 26  1  0  0  0  0
 14  3  1  0  0  0  0
 14 13  2  0  0  0  0
 15 28  1  0  0  0  0
 16 32  1  0  0  0  0
 17 35  1  0  0  0  0
 18  5  1  0  0  0  0
 19  6  1  0  0  0  0
 20  7  1  0  0  0  0
 22  9  1  0  0  0  0
 23 10  1  0  0  0  0
 24 11  1  0  0  0  0
 27 15  1  0  0  0  0
 29 15  1  0  0  0  0
 30 16  1  0  0  0  0
 31 16  1  0  0  0  0
 33 17  1  0  0  0  0
 34 17  1  0  0  0  0
M  END
