1,2
q = -1.0

 25 25  0  0  1  0  0  0  0  0999 V2000
   -1.3315   -1.6890   -0.0624 N   0  0  0  0  0  0  0  0  0  0  0  0
   -1.0549    0.9933   -0.2560 C   0  0  0  0  0  3  0  0  0  0  0  0
   -0.9945    2.3291   -0.7008 C   0  0  0  0  0  0  0  0  0  0  0  0
   -0.0598    2.7609   -1.1003 H   0  0  0  0  0  0  0  0  0  0  0  0
   -2.1244    3.1668   -0.6652 C   0  0  0  0  0  0  0  0  0  0  0  0
   -2.0445    4.2063   -1.0209 H   0  0  0  0  0  0  0  0  0  0  0  0
   -3.3516    2.6805   -0.1905 C   0  0  0  0  0  0  0  0  0  0  0  0
   -4.2383    3.3318   -0.1709 H   0  0  0  0  0  0  0  0  0  0  0  0
   -3.4405    1.3504    0.2518 C   0  0  0  0  0  0  0  0  0  0  0  0
   -4.4011    0.9560    0.6229 H   0  0  0  0  0  0  0  0  0  0  0  0
   -2.3081    0.5212    0.2230 C   0  0  0  0  0  0  0  0  0  0  0  0
   -2.3189   -0.8904    0.7618 C   0  0  2  0  0  0  0  0  0  0  0  0
   -3.3230   -1.3613    0.6339 H   0  0  0  0  0  0  0  0  0  0  0  0
   -1.9653   -0.8831    2.2534 C   0  0  0  0  0  0  0  0  0  0  0  0
   -0.9243   -0.5246    2.3913 H   0  0  0  0  0  0  0  0  0  0  0  0
   -2.0783   -1.8753    2.7311 H   0  0  0  0  0  0  0  0  0  0  0  0
   -2.6405   -0.1758    2.7716 H   0  0  0  0  0  0  0  0  0  0  0  0
   -1.0201   -2.9986    0.5501 C   0  0  0  0  0  0  0  0  0  0  0  0
   -1.9598   -3.5753    0.7113 H   0  0  0  0  0  0  0  0  0  0  0  0
   -0.4918   -2.8600    1.5074 H   0  0  0  0  0  0  0  0  0  0  0  0
   -0.3364   -3.5466   -0.1209 H   0  0  0  0  0  0  0  0  0  0  0  0
   -1.8876   -1.9251   -1.4182 C   0  0  0  0  0  0  0  0  0  0  0  0
   -1.1104   -2.4006   -2.0438 H   0  0  0  0  0  0  0  0  0  0  0  0
   -2.1845   -0.9632   -1.8721 H   0  0  0  0  0  0  0  0  0  0  0  0
   -2.7763   -2.5949   -1.3573 H   0  0  0  0  0  0  0  0  0  0  0  0
  1 18  1  0  0  0  0
  1 12  1  0  0  0  0
  2 11  1  0  0  0  0
  3  5  1  0  0  0  0
  3  2  2  0  0  0  0
  4  3  1  0  0  0  0
  5  7  2  0  0  0  0
  6  5  1  0  0  0  0
  7  8  1  0  0  0  0
  7  9  1  0  0  0  0
  9 10  1  0  0  0  0
 11  9  2  0  0  0  0
 11 12  1  0  0  0  0
 12 13  1  6  0  0  0
 12 14  1  0  0  0  0
 14 15  1  0  0  0  0
 14 16  1  0  0  0  0
 14 17  1  0  0  0  0
 18 19  1  0  0  0  0
 18 20  1  0  0  0  0
 21 18  1  0  0  0  0
 22 25  1  0  0  0  0
 22  1  1  0  0  0  0
 23 22  1  0  0  0  0
 24 22  1  0  0  0  0
M  END
