1,2
q = -1.0

 23 24  0  0  1  0  0  0  0  0999 V2000
    1.6213   -1.4917   -0.0680 N   0  0  0  0  0  2  0  0  0  0  0  0
    1.2623    1.3370    0.3783 C   0  0  0  0  0  3  0  0  0  0  0  0
    0.8593    2.3178    1.3012 C   0  0  0  0  0  0  0  0  0  0  0  0
   -0.1673    2.3118    1.6974 H   0  0  0  0  0  0  0  0  0  0  0  0
    1.7613    3.3160    1.7067 C   0  0  0  0  0  0  0  0  0  0  0  0
    1.4369    4.0834    2.4261 H   0  0  0  0  0  0  0  0  0  0  0  0
    3.0676    3.3341    1.1949 C   0  0  0  0  0  0  0  0  0  0  0  0
    3.7753    4.1169    1.5067 H   0  0  0  0  0  0  0  0  0  0  0  0
    3.4747    2.3445    0.2880 C   0  0  0  0  0  0  0  0  0  0  0  0
    4.5024    2.3505   -0.1100 H   0  0  0  0  0  0  0  0  0  0  0  0
    2.5785    1.3402   -0.1264 C   0  0  0  0  0  0  0  0  0  0  0  0
    3.0206    0.2505   -1.0856 C   0  0  0  0  0  0  0  0  0  0  0  0
    2.4075    0.2990   -2.0152 H   0  0  0  0  0  0  0  0  0  0  0  0
    4.0747    0.3958   -1.3866 H   0  0  0  0  0  0  0  0  0  0  0  0
    2.8580   -1.1298   -0.5002 C   0  0  2  0  0  3  0  0  0  0  0  0
    3.9199   -2.0420   -0.3948 C   0  0  0  0  0  0  0  0  0  0  0  0
    4.9180   -1.7386   -0.7411 H   0  0  0  0  0  0  0  0  0  0  0  0
    3.6978   -3.3186    0.1376 C   0  0  0  0  0  0  0  0  0  0  0  0
    4.5284   -4.0346    0.2259 H   0  0  0  0  0  0  0  0  0  0  0  0
    2.4033   -3.6711    0.5475 C   0  0  0  0  0  0  0  0  0  0  0  0
    2.1768   -4.6662    0.9547 H   0  0  0  0  0  0  0  0  0  0  0  0
    1.3820   -2.7275    0.4309 C   0  0  0  0  0  0  0  0  0  0  0  0
    0.3295   -2.9281    0.6925 H   0  0  0  0  0  0  0  0  0  0  0  0
  1 22  1  0  0  0  0
  2  3  1  0  0  0  0
  3  4  1  0  0  0  0
  3  5  2  0  0  0  0
  5  6  1  0  0  0  0
  7  8  1  0  0  0  0
  7  5  1  0  0  0  0
  9  7  2  0  0  0  0
 10  9  1  0  0  0  0
 11  9  1  0  0  0  0
 11  2  2  0  0  0  0
 12 11  1  0  0  0  0
 13 12  1  0  0  0  0
 14 12  1  0  0  0  0
 15 12  1  6  0  0  0
 15 16  1  0  0  0  0
 15  1  1  0  0  0  0
 16 18  2  0  0  0  0
 17 16  1  0  0  0  0
 18 19  1  0  0  0  0
 18 20  1  0  0  0  0
 20 21  1  0  0  0  0
 22 20  2  0  0  0  0
 22 23  1  0  0  0  0
M  END
