1,2
q = -1.0

 34 34  0  0  1  0  0  0  0  0999 V2000
   -3.3945   -0.9744    0.4653 N   0  0  0  0  0  0  0  0  0  0  0  0
   -0.7745   -1.0663    1.1438 C   0  0  0  0  0  3  0  0  0  0  0  0
    0.3548   -0.9072    1.9735 C   0  0  0  0  0  0  0  0  0  0  0  0
    0.9474    0.0173    1.9344 H   0  0  0  0  0  0  0  0  0  0  0  0
    0.7449   -1.9062    2.8806 C   0  0  0  0  0  0  0  0  0  0  0  0
    1.6345   -1.7502    3.5109 H   0  0  0  0  0  0  0  0  0  0  0  0
   -0.0046   -3.0864    2.9961 C   0  0  0  0  0  0  0  0  0  0  0  0
    0.2895   -3.8680    3.7129 H   0  0  0  0  0  0  0  0  0  0  0  0
   -1.1541   -3.2480    2.2097 C   0  0  0  0  0  0  0  0  0  0  0  0
   -1.7726   -4.1520    2.3272 H   0  0  0  0  0  0  0  0  0  0  0  0
   -1.5379   -2.2593    1.2832 C   0  0  0  0  0  0  0  0  0  0  0  0
   -2.8169   -2.3777    0.4771 C   0  0  2  0  0  0  0  0  0  0  0  0
   -3.5388   -3.0220    1.0354 H   0  0  0  0  0  0  0  0  0  0  0  0
   -2.6267   -3.1017   -0.9189 C   0  0  0  0  0  0  0  0  0  0  0  0
   -1.7645   -4.3619   -0.6752 C   0  0  0  0  0  0  0  0  0  0  0  0
   -1.6755   -4.9304   -1.6227 H   0  0  0  0  0  0  0  0  0  0  0  0
   -2.2243   -5.0372    0.0754 H   0  0  0  0  0  0  0  0  0  0  0  0
   -0.7461   -4.1083   -0.3261 H   0  0  0  0  0  0  0  0  0  0  0  0
   -1.8968   -2.2355   -1.9573 C   0  0  0  0  0  0  0  0  0  0  0  0
   -2.4306   -1.2963   -2.1990 H   0  0  0  0  0  0  0  0  0  0  0  0
   -1.7691   -2.8072   -2.8998 H   0  0  0  0  0  0  0  0  0  0  0  0
   -0.8940   -1.9514   -1.5869 H   0  0  0  0  0  0  0  0  0  0  0  0
   -3.9686   -3.6150   -1.4935 C   0  0  0  0  0  0  0  0  0  0  0  0
   -4.6169   -2.8197   -1.8989 H   0  0  0  0  0  0  0  0  0  0  0  0
   -4.5461   -4.1685   -0.7243 H   0  0  0  0  0  0  0  0  0  0  0  0
   -3.7656   -4.3205   -2.3247 H   0  0  0  0  0  0  0  0  0  0  0  0
   -3.8337   -0.6134    1.8382 C   0  0  0  0  0  0  0  0  0  0  0  0
   -4.7052   -1.2394    2.1411 H   0  0  0  0  0  0  0  0  0  0  0  0
   -4.1309    0.4518    1.8412 H   0  0  0  0  0  0  0  0  0  0  0  0
   -3.0112   -0.7670    2.5578 H   0  0  0  0  0  0  0  0  0  0  0  0
   -4.5530   -0.7671   -0.4216 C   0  0  0  0  0  0  0  0  0  0  0  0
   -5.3751   -1.4708   -0.1617 H   0  0  0  0  0  0  0  0  0  0  0  0
   -4.2690   -0.8922   -1.4777 H   0  0  0  0  0  0  0  0  0  0  0  0
   -4.8919    0.2773   -0.3022 H   0  0  0  0  0  0  0  0  0  0  0  0
  1 12  1  0  0  0  0
  1 27  1  0  0  0  0
  2 11  2  0  0  0  0
  2  3  1  0  0  0  0
  3  5  2  0  0  0  0
  4  3  1  0  0  0  0
  5  7  1  0  0  0  0
  5  6  1  0  0  0  0
  7  8  1  0  0  0  0
  9 10  1  0  0  0  0
  9  7  2  0  0  0  0
 11  9  1  0  0  0  0
 12 13  1  1  0  0  0
 12 11  1  0  0  0  0
 14 15  1  0  0  0  0
 14 12  1  0  0  0  0
 15 18  1  0  0  0  0
 15 17  1  0  0  0  0
 16 15  1  0  0  0  0
 19 22  1  0  0  0  0
 19 14  1  0  0  0  0
 20 19  1  0  0  0  0
 21 19  1  0  0  0  0
 23 14  1  0  0  0  0
 23 25  1  0  0  0  0
 24 23  1  0  0  0  0
 26 23  1  0  0  0  0
 27 29  1  0  0  0  0
 27 28  1  0  0  0  0
 27 30  1  0  0  0  0
 31 34  1  0  0  0  0
 31 32  1  0  0  0  0
 31  1  1  0  0  0  0
 33 31  1  0  0  0  0
M  END
