3,4
q = 0.0, confidence = 0.982

 46 47  0  0  1  0  0  0  0  0999 V2000
    2.6825   -1.5930   -0.4169 N   0  0  0  0  0  0  0  0  0  0  0  0
    2.6624   -2.2309   -1.2207 H   0  0  0  0  0  0  0  0  0  0  0  0
   -0.8048   -1.2701   -0.1467 N   0  0  0  0  0  2  0  0  0  0  0  0
    1.2788   -0.0310    0.8850 C   0  0  0  0  0  3  0  0  0  0  0  0
    2.1523    0.6417    0.9333 H   0  0  0  0  0  0  0  0  0  0  0  0
    0.8747   -0.2583    1.8909 H   0  0  0  0  0  0  0  0  0  0  0  0
    1.4972   -1.2241    0.0883 C   0  0  1  0  0  3  0  0  0  0  0  0
    0.2990   -2.0027   -0.2088 C   0  0  2  0  0  3  0  0  0  0  0  0
    0.3403   -3.4541   -0.5632 C   0  0  0  0  0  0  0  0  0  0  0  0
   -0.6739   -3.8938   -0.5628 H   0  0  0  0  0  0  0  0  0  0  0  0
    0.9905   -4.0245    0.1300 H   0  0  0  0  0  0  0  0  0  0  0  0
    0.7533   -3.5871   -1.5882 H   0  0  0  0  0  0  0  0  0  0  0  0
    3.9568   -1.0301   -0.1041 C   0  0  0  0  0  0  0  0  0  0  0  0
    4.7226   -0.5117   -1.1811 C   0  0  0  0  0  0  0  0  0  0  0  0
    5.9865    0.0247   -0.8855 C   0  0  0  0  0  0  0  0  0  0  0  0
    6.5923    0.4420   -1.7038 H   0  0  0  0  0  0  0  0  0  0  0  0
    6.4736    0.0400    0.4293 C   0  0  0  0  0  0  0  0  0  0  0  0
    7.4657    0.4650    0.6418 H   0  0  0  0  0  0  0  0  0  0  0  0
    5.7089   -0.5001    1.4699 C   0  0  0  0  0  0  0  0  0  0  0  0
    6.1086   -0.5141    2.4953 H   0  0  0  0  0  0  0  0  0  0  0  0
    4.4376   -1.0568    1.2306 C   0  0  0  0  0  0  0  0  0  0  0  0
    4.1780   -0.5189   -2.5849 C   0  0  0  0  0  0  0  0  0  0  0  0
    4.8754   -0.0196   -3.2823 H   0  0  0  0  0  0  0  0  0  0  0  0
    3.1957   -0.0042   -2.6369 H   0  0  0  0  0  0  0  0  0  0  0  0
    4.0281   -1.5534   -2.9680 H   0  0  0  0  0  0  0  0  0  0  0  0
    3.6621   -1.6805    2.3610 C   0  0  0  0  0  0  0  0  0  0  0  0
    3.0502   -2.5409    2.0253 H   0  0  0  0  0  0  0  0  0  0  0  0
    2.9679   -0.9544    2.8353 H   0  0  0  0  0  0  0  0  0  0  0  0
    4.3487   -2.0364    3.1522 H   0  0  0  0  0  0  0  0  0  0  0  0
   -2.1054   -1.8701   -0.1659 C   0  0  0  0  0  0  0  0  0  0  0  0
   -2.8611   -1.8558   -1.3633 C   0  0  0  0  0  0  0  0  0  0  0  0
   -4.1627   -2.3897   -1.3136 C   0  0  0  0  0  0  0  0  0  0  0  0
   -4.7672   -2.3963   -2.2335 H   0  0  0  0  0  0  0  0  0  0  0  0
   -4.6936   -2.9029   -0.1226 C   0  0  0  0  0  0  0  0  0  0  0  0
   -5.7176   -3.3040   -0.1053 H   0  0  0  0  0  0  0  0  0  0  0  0
   -3.9174   -2.9165    1.0447 C   0  0  0  0  0  0  0  0  0  0  0  0
   -4.3294   -3.3329    1.9767 H   0  0  0  0  0  0  0  0  0  0  0  0
   -2.6020   -2.4148    1.0454 C   0  0  0  0  0  0  0  0  0  0  0  0
   -2.2864   -1.3054   -2.6397 C   0  0  0  0  0  0  0  0  0  0  0  0
   -1.3773   -1.8598   -2.9519 H   0  0  0  0  0  0  0  0  0  0  0  0
   -1.9538   -0.2537   -2.5259 H   0  0  0  0  0  0  0  0  0  0  0  0
   -3.0209   -1.3642   -3.4638 H   0  0  0  0  0  0  0  0  0  0  0  0
   -1.7391   -2.4817    2.2797 C   0  0  0  0  0  0  0  0  0  0  0  0
   -2.3468   -2.6852    3.1811 H   0  0  0  0  0  0  0  0  0  0  0  0
   -1.1779   -1.5402    2.4415 H   0  0  0  0  0  0  0  0  0  0  0  0
   -0.9871   -3.2960    2.2024 H   0  0  0  0  0  0  0  0  0  0  0  0
  1 13  1  0  0  0  0
  1  7  1  0  0  0  0
  2  1  1  0  0  0  0
  4  5  1  0  0  0  0
  4  6  1  0  0  0  0
  7  4  1  6  0  0  0
  8  3  1  6  0  0  0
  8  7  1  0  0  0  0
  9 10  1  0  0  0  0
  9  8  1  0  0  0  0
  9 11  1  0  0  0  0
 12  9  1  0  0  0  0
 13 21  1  0  0  0  0
 14 15  1  0  0  0  0
 14 13  2  0  0  0  0
 15 17  2  0  0  0  0
 16 15  1  0  0  0  0
 17 18  1  0  0  0  0
 17 19  1  0  0  0  0
 19 20  1  0  0  0  0
 21 19  2  0  0  0  0
 21 26  1  0  0  0  0
 22 14  1  0  0  0  0
 23 22  1  0  0  0  0
 24 22  1  0  0  0  0
 25 22  1  0  0  0  0
 26 28  1  0  0  0  0
 26 29  1  0  0  0  0
 27 26  1  0  0  0  0
 30  3  1  0  0  0  0
 30 38  1  0  0  0  0
 31 32  1  0  0  0  0
 31 30  2  0  0  0  0
 32 34  2  0  0  0  0
 33 32  1  0  0  0  0
 34 35  1  0  0  0  0
 34 36  1  0  0  0  0
 36 38  2  0  0  0  0
 36 37  1  0  0  0  0
 38 43  1  0  0  0  0
 39 41  1  0  0  0  0
 39 31  1  0  0  0  0
 40 39  1  0  0  0  0
 42 39  1  0  0  0  0
 43 45  1  0  0  0  0
 43 44  1  0  0  0  0
 46 43  1  0  0  0  0
M  END
