1,16
q = 0.0, confidence = 0.99

 40 42  0  0  0  0  0  0  0  0999 V2000
    2.1983    0.5537   -1.1292 N   0  0  0  0  0  2  0  0  0  0  0  0
    2.3780    1.8602   -1.4536 C   0  0  0  0  0  3  0  0  0  0  0  0
    1.7647    2.5760   -0.8888 H   0  0  0  0  0  0  0  0  0  0  0  0
    1.2883   -2.1949   -1.4528 N   0  0  0  0  0  0  0  0  0  0  0  0
    3.2799    2.2821   -2.4324 C   0  0  0  0  0  0  0  0  0  0  0  0
    3.3854    3.3558   -2.6422 H   0  0  0  0  0  0  0  0  0  0  0  0
   -0.8402   -2.0713   -1.1060 N   0  0  0  0  0  0  0  0  0  0  0  0
    4.0279    1.3223   -3.1290 C   0  0  0  0  0  0  0  0  0  0  0  0
    4.7471    1.6177   -3.9066 H   0  0  0  0  0  0  0  0  0  0  0  0
    3.8288   -0.0277   -2.8143 C   0  0  0  0  0  0  0  0  0  0  0  0
    4.3842   -0.8165   -3.3423 H   0  0  0  0  0  0  0  0  0  0  0  0
    2.9140   -0.3848   -1.8123 C   0  0  0  0  0  0  0  0  0  0  0  0
    2.6979   -1.8327   -1.4312 C   0  0  0  0  0  0  0  0  0  0  0  0
    3.2416   -2.4934   -2.1303 H   0  0  0  0  0  0  0  0  0  0  0  0
    3.0994   -2.0067   -0.4124 H   0  0  0  0  0  0  0  0  0  0  0  0
    0.3512   -1.4855   -0.7368 C   0  0  0  0  0  2  0  0  0  0  0  0
    0.7125   -3.1899   -2.2345 C   0  0  0  0  0  0  0  0  0  0  0  0
    1.3001   -3.8655   -2.8632 H   0  0  0  0  0  0  0  0  0  0  0  0
   -0.6342   -3.1143   -2.0099 C   0  0  0  0  0  0  0  0  0  0  0  0
   -1.4663   -3.7016   -2.4085 H   0  0  0  0  0  0  0  0  0  0  0  0
   -2.1576   -1.5974   -0.7742 C   0  0  0  0  0  0  0  0  0  0  0  0
   -2.8702   -2.1928    0.2859 C   0  0  0  0  0  0  0  0  0  0  0  0
   -4.1582   -1.6978    0.5670 C   0  0  0  0  0  0  0  0  0  0  0  0
   -4.7242   -2.1401    1.4021 H   0  0  0  0  0  0  0  0  0  0  0  0
   -4.7526   -0.6856   -0.2068 C   0  0  0  0  0  0  0  0  0  0  0  0
   -4.0310   -0.1761   -1.3062 C   0  0  0  0  0  0  0  0  0  0  0  0
   -4.5055    0.5749   -1.9579 H   0  0  0  0  0  0  0  0  0  0  0  0
   -2.7324   -0.6134   -1.6122 C   0  0  0  0  0  0  0  0  0  0  0  0
   -2.3226   -3.3825    1.0286 C   0  0  0  0  0  0  0  0  0  0  0  0
   -1.2216   -3.3426    1.1246 H   0  0  0  0  0  0  0  0  0  0  0  0
   -2.5624   -4.3214    0.4848 H   0  0  0  0  0  0  0  0  0  0  0  0
   -2.7668   -3.4701    2.0378 H   0  0  0  0  0  0  0  0  0  0  0  0
   -6.1261   -0.1575    0.1184 C   0  0  0  0  0  0  0  0  0  0  0  0
   -6.7467   -0.0524   -0.7939 H   0  0  0  0  0  0  0  0  0  0  0  0
   -6.0640    0.8509    0.5815 H   0  0  0  0  0  0  0  0  0  0  0  0
   -6.6627   -0.8150    0.8283 H   0  0  0  0  0  0  0  0  0  0  0  0
   -1.9852   -0.0965   -2.8140 C   0  0  0  0  0  0  0  0  0  0  0  0
   -2.5947    0.6296   -3.3825 H   0  0  0  0  0  0  0  0  0  0  0  0
   -1.7127   -0.9218   -3.5038 H   0  0  0  0  0  0  0  0  0  0  0  0
   -1.0388    0.4009   -2.5198 H   0  0  0  0  0  0  0  0  0  0  0  0
  2  1  1  0  0  0  0
  2  3  1  0  0  0  0
  4 13  1  0  0  0  0
  4 16  1  0  0  0  0
  5  2  1  0  0  0  0
  6  5  1  0  0  0  0
  7 21  1  0  0  0  0
  7 16  1  0  0  0  0
  8 10  1  0  0  0  0
  8  5  2  0  0  0  0
  9  8  1  0  0  0  0
 10 12  2  0  0  0  0
 11 10  1  0  0  0  0
 12 13  1  0  0  0  0
 12  1  1  0  0  0  0
 13 15  1  0  0  0  0
 14 13  1  0  0  0  0
 17 19  2  0  0  0  0
 17  4  1  0  0  0  0
 18 17  1  0  0  0  0
 19  7  1  0  0  0  0
 20 19  1  0  0  0  0
 21 22  1  0  0  0  0
 22 23  2  0  0  0  0
 22 29  1  0  0  0  0
 23 24  1  0  0  0  0
 25 33  1  0  0  0  0
 25 23  1  0  0  0  0
 26 25  2  0  0  0  0
 27 26  1  0  0  0  0
 28 26  1  0  0  0  0
 28 21  2  0  0  0  0
 29 30  1  0  0  0  0
 29 32  1  0  0  0  0
 31 29  1  0  0  0  0
 33 35  1  0  0  0  0
 33 36  1  0  0  0  0
 34 33  1  0  0  0  0
 37 40  1  0  0  0  0
 37 28  1  0  0  0  0
 38 37  1  0  0  0  0
 39 37  1  0  0  0  0
M  END
