2,12
q = -1.0, confidence = 0.002

 28 29  0  0  0  0  0  0  0  0999 V2000
   -3.1968   -3.6238    0.0784 S   0  0  0  0  0  0  0  0  0  0  0  0
   -0.8546   -2.5634    0.0266 N   0  0  0  0  0  2  0  0  0  0  0  0
   -2.5745   -0.9389    0.1371 N   0  0  0  0  0  0  0  0  0  0  0  0
   -2.1602   -2.2176    0.0851 C   0  0  0  0  0  0  0  0  0  0  0  0
   -1.7959    1.2339    0.2025 N   0  0  0  0  0  0  0  0  0  0  0  0
   -0.9951    1.8630    0.1452 H   0  0  0  0  0  0  0  0  0  0  0  0
   -3.6968    2.0338   -1.1846 C   0  0  0  0  0  0  0  0  0  0  0  0
   -3.7296    1.0533   -1.7011 H   0  0  0  0  0  0  0  0  0  0  0  0
   -2.9942    2.6820   -1.7558 H   0  0  0  0  0  0  0  0  0  0  0  0
   -1.7905   -4.6666   -0.0061 C   0  0  0  0  0  0  0  0  0  0  0  0
   -1.8991   -5.7560   -0.0362 H   0  0  0  0  0  0  0  0  0  0  0  0
   -1.5449   -0.0870    0.1325 C   0  0  0  0  0  2  0  0  0  0  0  0
   -0.6399   -3.9186   -0.0246 C   0  0  0  0  0  0  0  0  0  0  0  0
    0.3949   -4.2832   -0.0744 H   0  0  0  0  0  0  0  0  0  0  0  0
   -5.0853    2.6835   -1.1399 C   0  0  0  0  0  0  0  0  0  0  0  0
   -5.4613    2.8509   -2.1705 H   0  0  0  0  0  0  0  0  0  0  0  0
   -5.8003    1.9791   -0.6587 H   0  0  0  0  0  0  0  0  0  0  0  0
   -3.1107    3.1406    1.0249 C   0  0  0  0  0  0  0  0  0  0  0  0
   -2.7346    2.9514    2.0520 H   0  0  0  0  0  0  0  0  0  0  0  0
   -2.3888    3.8395    0.5408 H   0  0  0  0  0  0  0  0  0  0  0  0
   -3.1327    1.8274    0.2327 C   0  0  0  0  0  0  0  0  0  0  0  0
   -3.7802    1.0907    0.7537 H   0  0  0  0  0  0  0  0  0  0  0  0
   -4.4988    3.7936    1.0603 C   0  0  0  0  0  0  0  0  0  0  0  0
   -5.1893    3.1408    1.6397 H   0  0  0  0  0  0  0  0  0  0  0  0
   -4.4502    4.7578    1.6078 H   0  0  0  0  0  0  0  0  0  0  0  0
   -5.0647    3.9995   -0.3510 C   0  0  0  0  0  0  0  0  0  0  0  0
   -4.4346    4.7408   -0.8928 H   0  0  0  0  0  0  0  0  0  0  0  0
   -6.0835    4.4366   -0.2969 H   0  0  0  0  0  0  0  0  0  0  0  0
  1  4  1  0  0  0  0
  2  4  1  0  0  0  0
  4  3  2  0  0  0  0
  5 21  1  0  0  0  0
  6  5  1  0  0  0  0
  7 15  1  0  0  0  0
  7 21  1  0  0  0  0
  8  7  1  0  0  0  0
  9  7  1  0  0  0  0
 10  1  1  0  0  0  0
 11 10  1  0  0  0  0
 12  3  1  0  0  0  0
 12  5  1  0  0  0  0
 13 10  2  0  0  0  0
 13  2  1  0  0  0  0
 14 13  1  0  0  0  0
 15 17  1  0  0  0  0
 15 26  1  0  0  0  0
 16 15  1  0  0  0  0
 18 23  1  0  0  0  0
 18 19  1  0  0  0  0
 20 18  1  0  0  0  0
 21 22  1  0  0  0  0
 21 18  1  0  0  0  0
 23 25  1  0  0  0  0
 23 24  1  0  0  0  0
 26 28  1  0  0  0  0
 26 23  1  0  0  0  0
 27 26  1  0  0  0  0
M  END
