1,4
q = -1.0

 19 19  0  0  1  0  0  0  0  0999 V2000
    2.4071   -1.4790   -0.3948 N   0  0  0  0  0  0  0  0  0  0  0  0
    2.4987   -2.4209    0.0158 H   0  0  0  0  0  0  0  0  0  0  0  0
    2.5672   -1.5707   -1.4080 H   0  0  0  0  0  0  0  0  0  0  0  0
    1.3457    0.9469   -0.2975 C   0  0  0  0  0  3  0  0  0  0  0  0
    2.7599    0.8880   -0.1330 C   0  0  0  0  0  0  0  0  0  0  0  0
    0.7595    2.2035   -0.5506 C   0  0  0  0  0  0  0  0  0  0  0  0
   -0.3310    2.2851   -0.6863 H   0  0  0  0  0  0  0  0  0  0  0  0
    3.5468    2.0480   -0.2215 C   0  0  0  0  0  0  0  0  0  0  0  0
    4.6409    1.9831   -0.0980 H   0  0  0  0  0  0  0  0  0  0  0  0
    2.9418    3.2913   -0.4693 C   0  0  0  0  0  0  0  0  0  0  0  0
    3.5581    4.2004   -0.5407 H   0  0  0  0  0  0  0  0  0  0  0  0
    3.3385   -0.4717    0.2011 C   0  0  1  0  0  0  0  0  0  0  0  0
    4.3542   -0.5921   -0.2400 H   0  0  0  0  0  0  0  0  0  0  0  0
    1.5491    3.3648   -0.6315 C   0  0  0  0  0  0  0  0  0  0  0  0
    1.0707    4.3376   -0.8286 H   0  0  0  0  0  0  0  0  0  0  0  0
    3.4248   -0.7041    1.7121 C   0  0  0  0  0  0  0  0  0  0  0  0
    4.0837    0.0549    2.1751 H   0  0  0  0  0  0  0  0  0  0  0  0
    3.8311   -1.7101    1.9477 H   0  0  0  0  0  0  0  0  0  0  0  0
    2.4152   -0.6137    2.1619 H   0  0  0  0  0  0  0  0  0  0  0  0
  1  2  1  0  0  0  0
  1 12  1  0  0  0  0
  3  1  1  0  0  0  0
  4  5  1  0  0  0  0
  5 12  1  0  0  0  0
  6  4  2  0  0  0  0
  7  6  1  0  0  0  0
  8  5  2  0  0  0  0
  8  9  1  0  0  0  0
 10  8  1  0  0  0  0
 11 10  1  0  0  0  0
 12 13  1  6  0  0  0
 12 16  1  0  0  0  0
 14  6  1  0  0  0  0
 14 10  2  0  0  0  0
 15 14  1  0  0  0  0
 16 18  1  0  0  0  0
 16 19  1  0  0  0  0
 16 17  1  0  0  0  0
M  END
