8,15
q = -1.0

 32 33  0  0  1  0  0  0  0  0999 V2000
    1.0968    1.1551   -0.7853 N   0  0  0  0  0  0  0  0  0  0  0  0
    0.3923    2.4668   -0.6622 C   0  0  2  0  0  0  0  0  0  0  0  0
    1.3333    3.6708   -0.5792 C   0  0  0  0  0  0  0  0  0  0  0  0
    0.5395    4.9789   -0.4540 C   0  0  0  0  0  0  0  0  0  0  0  0
   -0.4220    4.9380    0.7392 C   0  0  0  0  0  0  0  0  0  0  0  0
   -1.3631    3.7260    0.6734 C   0  0  0  0  0  0  0  0  0  0  0  0
   -0.5643    2.4247    0.5523 C   0  0  1  0  0  0  0  0  0  0  0  0
   -1.3581    1.1981    0.4489 N   0  0  0  0  0  2  0  0  0  0  0  0
   -2.5779    0.9787    0.8721 C   0  0  0  0  0  3  0  0  0  0  0  0
   -3.0925   -0.3599    0.6946 C   0  0  0  0  0  0  0  0  0  0  0  0
   -4.3788   -0.7571    1.1200 C   0  0  0  0  0  0  0  0  0  0  0  0
   -4.7911   -2.0813    0.9294 C   0  0  0  0  0  0  0  0  0  0  0  0
   -3.9177   -2.9966    0.3188 C   0  0  0  0  0  0  0  0  0  0  0  0
   -2.6299   -2.6080   -0.1097 C   0  0  0  0  0  0  0  0  0  0  0  0
   -2.1908   -1.2900    0.0619 C   0  0  0  0  0  3  0  0  0  0  0  0
    1.8311    1.0625   -0.0640 H   0  0  0  0  0  0  0  0  0  0  0  0
    1.5973    1.1051   -1.6843 H   0  0  0  0  0  0  0  0  0  0  0  0
   -0.2411    2.5570   -1.5718 H   0  0  0  0  0  0  0  0  0  0  0  0
    1.9906    3.6931   -1.4735 H   0  0  0  0  0  0  0  0  0  0  0  0
    1.9983    3.5458    0.3056 H   0  0  0  0  0  0  0  0  0  0  0  0
    1.2370    5.8348   -0.3604 H   0  0  0  0  0  0  0  0  0  0  0  0
   -0.0361    5.1473   -1.3905 H   0  0  0  0  0  0  0  0  0  0  0  0
   -1.0207    5.8692    0.7864 H   0  0  0  0  0  0  0  0  0  0  0  0
    0.1620    4.8964    1.6848 H   0  0  0  0  0  0  0  0  0  0  0  0
   -2.0045    3.6965    1.5778 H   0  0  0  0  0  0  0  0  0  0  0  0
   -2.0413    3.8110   -0.2041 H   0  0  0  0  0  0  0  0  0  0  0  0
    0.0702    2.3105    1.4655 H   0  0  0  0  0  0  0  0  0  0  0  0
   -3.1691    1.7788    1.3533 H   0  0  0  0  0  0  0  0  0  0  0  0
   -5.0485   -0.0272    1.6011 H   0  0  0  0  0  0  0  0  0  0  0  0
   -5.7902   -2.4035    1.2556 H   0  0  0  0  0  0  0  0  0  0  0  0
   -4.2416   -4.0380    0.1680 H   0  0  0  0  0  0  0  0  0  0  0  0
   -1.9859   -3.3645   -0.5847 H   0  0  0  0  0  0  0  0  0  0  0  0
  1  2  1  0  0  0  0
  1 16  1  0  0  0  0
  2 18  1  6  0  0  0
  2  3  1  0  0  0  0
  2  7  1  0  0  0  0
  3  4  1  0  0  0  0
  3 20  1  0  0  0  0
  4 21  1  0  0  0  0
  4  5  1  0  0  0  0
  5 23  1  0  0  0  0
  5 24  1  0  0  0  0
  6  5  1  0  0  0  0
  6 25  1  0  0  0  0
  7  6  1  0  0  0  0
  7 27  1  1  0  0  0
  8  7  1  0  0  0  0
  8  9  1  0  0  0  0
  9 28  1  0  0  0  0
 10  9  1  0  0  0  0
 10 11  1  0  0  0  0
 11 29  1  0  0  0  0
 12 11  2  0  0  0  0
 12 30  1  0  0  0  0
 13 12  1  0  0  0  0
 14 15  1  0  0  0  0
 14 13  2  0  0  0  0
 15 10  2  0  0  0  0
 17  1  1  0  0  0  0
 19  3  1  0  0  0  0
 22  4  1  0  0  0  0
 26  6  1  0  0  0  0
 31 13  1  0  0  0  0
 32 14  1  0  0  0  0
M  END
