2,6
q = -1.0

 34 36  0  0  1  0  0  0  0  0999 V2000
    3.9602   -0.3023   -0.2947 O   0  0  0  0  0  0  0  0  0  0  0  0
    1.8094    0.9526    0.0075 C   0  0  0  0  0  3  0  0  0  0  0  0
   -0.0970    2.4351    0.1414 C   0  0  1  0  0  3  0  0  0  0  0  0
    5.3601    1.5268   -0.2002 O   0  0  0  0  0  0  0  0  0  0  0  0
   -6.3267    0.8083    0.1364 O   0  0  0  0  0  0  0  0  0  0  0  0
   -0.7434    1.2824    0.0836 N   0  0  0  0  0  2  0  0  0  0  0  0
   -2.8124    0.6634   -1.0559 C   0  0  0  0  0  0  0  0  0  0  0  0
   -2.1933    0.3597   -1.9153 H   0  0  0  0  0  0  0  0  0  0  0  0
   -4.3158    1.4280    1.1892 C   0  0  0  0  0  0  0  0  0  0  0  0
   -4.9249    1.7113    2.0597 H   0  0  0  0  0  0  0  0  0  0  0  0
    4.0624    1.9470   -0.0728 C   0  0  0  0  0  0  0  0  0  0  0  0
    3.6113    3.2576    0.1073 C   0  0  0  0  0  0  0  0  0  0  0  0
    4.3121    4.1015    0.1502 H   0  0  0  0  0  0  0  0  0  0  0  0
   -2.9249    1.5692    1.1985 C   0  0  0  0  0  0  0  0  0  0  0  0
   -2.4152    1.9672    2.0887 H   0  0  0  0  0  0  0  0  0  0  0  0
   -7.0307    0.2849   -0.9731 C   0  0  0  0  0  0  0  0  0  0  0  0
   -8.1013    0.2901   -0.6962 H   0  0  0  0  0  0  0  0  0  0  0  0
   -6.7231   -0.7597   -1.2061 H   0  0  0  0  0  0  0  0  0  0  0  0
   -6.8911    0.9067   -1.8861 H   0  0  0  0  0  0  0  0  0  0  0  0
    1.3459    2.3132    0.1388 C   0  0  0  0  0  0  0  0  0  0  0  0
    2.2214    3.4242    0.1985 C   0  0  0  0  0  0  0  0  0  0  0  0
    1.8122    4.4399    0.3013 H   0  0  0  0  0  0  0  0  0  0  0  0
   -2.1599    1.1921    0.0732 C   0  0  0  0  0  0  0  0  0  0  0  0
   -4.2070    0.5282   -1.0732 C   0  0  0  0  0  0  0  0  0  0  0  0
   -4.6897    0.1215   -1.9720 H   0  0  0  0  0  0  0  0  0  0  0  0
    5.2589    0.1652   -0.6374 C   0  0  0  0  0  0  0  0  0  0  0  0
    5.3972    0.1259   -1.7475 H   0  0  0  0  0  0  0  0  0  0  0  0
    6.0288   -0.4468   -0.1241 H   0  0  0  0  0  0  0  0  0  0  0  0
    3.1909    0.8447   -0.1305 C   0  0  0  0  0  0  0  0  0  0  0  0
   -4.9711    0.9081    0.0523 C   0  0  0  0  0  0  0  0  0  0  0  0
   -0.7902    3.7672    0.1547 C   0  0  0  0  0  0  0  0  0  0  0  0
   -1.8637    3.6758   -0.0879 H   0  0  0  0  0  0  0  0  0  0  0  0
   -0.3154    4.4479   -0.5788 H   0  0  0  0  0  0  0  0  0  0  0  0
   -0.7006    4.2504    1.1503 H   0  0  0  0  0  0  0  0  0  0  0  0
  1 29  1  0  0  0  0
  2 20  1  0  0  0  0
  3  6  1  6  0  0  0
  3 31  1  0  0  0  0
  4 11  1  0  0  0  0
  7 23  1  0  0  0  0
  8  7  1  0  0  0  0
  9 14  1  0  0  0  0
  9 10  1  0  0  0  0
 11 12  2  0  0  0  0
 12 13  1  0  0  0  0
 12 21  1  0  0  0  0
 14 15  1  0  0  0  0
 16 17  1  0  0  0  0
 16  5  1  0  0  0  0
 18 16  1  0  0  0  0
 19 16  1  0  0  0  0
 20  3  1  0  0  0  0
 20 21  2  0  0  0  0
 21 22  1  0  0  0  0
 23  6  1  0  0  0  0
 23 14  2  0  0  0  0
 24  7  2  0  0  0  0
 24 30  1  0  0  0  0
 25 24  1  0  0  0  0
 26  1  1  0  0  0  0
 26  4  1  0  0  0  0
 26 28  1  0  0  0  0
 27 26  1  0  0  0  0
 29 11  1  0  0  0  0
 29  2  2  0  0  0  0
 30  5  1  0  0  0  0
 30  9  2  0  0  0  0
 31 34  1  0  0  0  0
 32 31  1  0  0  0  0
 33 31  1  0  0  0  0
M  END
