2,3
q = -1.0, confidence = 0.006

 18 19  0  0  0  0  0  0  0  0999 V2000
   -1.5238    0.1231   -2.0853 O   0  0  0  0  0  0  0  0  0  0  0  0
   -2.1008   -1.5786    1.4343 N   0  0  0  0  0  2  0  0  0  0  0  0
   -1.7154   -0.3308   -0.9610 C   0  0  0  0  0  3  0  0  0  0  0  0
   -3.0791   -0.9056   -0.6251 C   0  0  0  0  0  0  0  0  0  0  0  0
   -3.2145   -1.5487    0.6332 C   0  0  0  0  0  0  0  0  0  0  0  0
   -4.1730   -0.8501   -1.4837 C   0  0  0  0  0  0  0  0  0  0  0  0
   -4.0448   -0.3585   -2.4603 H   0  0  0  0  0  0  0  0  0  0  0  0
   -2.1584   -2.1778    2.6218 C   0  0  0  0  0  0  0  0  0  0  0  0
   -1.2162   -2.1521    3.1991 H   0  0  0  0  0  0  0  0  0  0  0  0
   -4.4548   -2.1409    1.0326 C   0  0  0  0  0  0  0  0  0  0  0  0
   -3.3480   -2.7920    3.0931 C   0  0  0  0  0  0  0  0  0  0  0  0
   -3.3430   -3.2742    4.0810 H   0  0  0  0  0  0  0  0  0  0  0  0
   -4.4916   -2.7744    2.3078 C   0  0  0  0  0  0  0  0  0  0  0  0
   -5.4258   -3.2430    2.6549 H   0  0  0  0  0  0  0  0  0  0  0  0
   -5.4139   -1.4214   -1.0988 C   0  0  0  0  0  0  0  0  0  0  0  0
   -6.2728   -1.3650   -1.7848 H   0  0  0  0  0  0  0  0  0  0  0  0
   -5.5564   -2.0554    0.1312 C   0  0  0  0  0  3  0  0  0  0  0  0
   -6.5198   -2.5007    0.4240 H   0  0  0  0  0  0  0  0  0  0  0  0
  1  3  2  0  0  0  0
  2  8  1  0  0  0  0
  3  4  1  0  0  0  0
  4  5  2  0  0  0  0
  5 10  1  0  0  0  0
  5  2  1  0  0  0  0
  6 15  2  0  0  0  0
  6  4  1  0  0  0  0
  7  6  1  0  0  0  0
  8 11  2  0  0  0  0
  8  9  1  0  0  0  0
 10 13  2  0  0  0  0
 11 12  1  0  0  0  0
 13 14  1  0  0  0  0
 13 11  1  0  0  0  0
 15 17  1  0  0  0  0
 16 15  1  0  0  0  0
 17 18  1  0  0  0  0
 17 10  1  0  0  0  0
M  END
