1,9
q = -1.0, confidence = 0.0

 26 25  0  0  0  0  0  0  0  0999 V2000
    1.3237   -1.4987    0.2973 C   0  0  0  0  0  3  0  0  0  0  0  0
    2.7014   -1.7346   -0.3458 C   0  0  0  0  0  0  0  0  0  0  0  0
    3.5860   -0.5410    0.0555 C   0  0  0  0  0  0  0  0  0  0  0  0
    3.3504   -3.0252    0.1970 C   0  0  0  0  0  0  0  0  0  0  0  0
    1.2003   -1.3589    1.7574 C   0  0  0  0  0  0  0  0  0  0  0  0
    2.5310   -1.8571   -1.8712 C   0  0  0  0  0  0  0  0  0  0  0  0
    3.2768    1.4494   -1.3780 C   0  0  0  0  0  0  0  0  0  0  0  0
    3.2177    1.6775    1.0302 C   0  0  0  0  0  0  0  0  0  0  0  0
    2.8900    0.7847   -0.1098 N   0  0  0  0  0  0  0  0  0  0  0  0
    2.1094   -1.1428    2.5719 O   0  0  0  0  0  0  0  0  0  0  0  0
    0.5323   -2.1571   -0.1179 H   0  0  0  0  0  0  0  0  0  0  0  0
    3.8074   -0.6519    1.1318 H   0  0  0  0  0  0  0  0  0  0  0  0
    4.5438   -0.5247   -0.5102 H   0  0  0  0  0  0  0  0  0  0  0  0
    2.7192   -3.9038   -0.0476 H   0  0  0  0  0  0  0  0  0  0  0  0
    3.4634   -2.9732    1.2974 H   0  0  0  0  0  0  0  0  0  0  0  0
    4.3509   -3.1949   -0.2542 H   0  0  0  0  0  0  0  0  0  0  0  0
    0.1324   -1.4521    2.1251 H   0  0  0  0  0  0  0  0  0  0  0  0
    3.5130   -1.9192   -2.3852 H   0  0  0  0  0  0  0  0  0  0  0  0
    1.9614   -1.0005   -2.2863 H   0  0  0  0  0  0  0  0  0  0  0  0
    1.9612   -2.7765   -2.1198 H   0  0  0  0  0  0  0  0  0  0  0  0
    3.0656    0.7841   -2.2327 H   0  0  0  0  0  0  0  0  0  0  0  0
    4.3654    1.6839   -1.3620 H   0  0  0  0  0  0  0  0  0  0  0  0
    2.6810    2.3749   -1.4854 H   0  0  0  0  0  0  0  0  0  0  0  0
    2.9088    1.1813    1.9694 H   0  0  0  0  0  0  0  0  0  0  0  0
    2.6603    2.6242    0.9029 H   0  0  0  0  0  0  0  0  0  0  0  0
    4.3135    1.8749    1.0577 H   0  0  0  0  0  0  0  0  0  0  0  0
  1  5  1  0  0  0  0
  2  3  1  0  0  0  0
  2  4  1  0  0  0  0
  2  1  1  0  0  0  0
  3 12  1  0  0  0  0
  4 15  1  0  0  0  0
  5 17  1  0  0  0  0
  5 10  2  0  0  0  0
  6  2  1  0  0  0  0
  7 22  1  0  0  0  0
  7  9  1  0  0  0  0
  8 26  1  0  0  0  0
  8 24  1  0  0  0  0
  9  3  1  0  0  0  0
  9  8  1  0  0  0  0
 11  1  1  0  0  0  0
 13  3  1  0  0  0  0
 14  4  1  0  0  0  0
 16  4  1  0  0  0  0
 18  6  1  0  0  0  0
 19  6  1  0  0  0  0
 20  6  1  0  0  0  0
 21  7  1  0  0  0  0
 23  7  1  0  0  0  0
 25  8  1  0  0  0  0
M  END
