1,4
q = -1.0

 18 18  0  0  0  0  0  0  0  0999 V2000
   -1.4473    1.5387    0.3070 N   0  0  0  0  0  2  0  0  0  0  0  0
   -1.2028    2.8293    0.5947 O   0  0  0  0  0  0  0  0  0  0  0  0
   -0.1638    2.8081    0.6351 H   0  0  0  0  0  0  0  0  0  0  0  0
   -1.4089   -1.0047   -0.1705 C   0  0  0  0  0  2  0  0  0  0  0  0
   -2.6886   -0.3597   -0.0894 C   0  0  0  0  0  0  0  0  0  0  0  0
   -3.8736   -1.0878   -0.3103 C   0  0  0  0  0  0  0  0  0  0  0  0
   -4.8504   -0.5845   -0.2392 H   0  0  0  0  0  0  0  0  0  0  0  0
   -3.8117   -2.4530   -0.6319 C   0  0  0  0  0  0  0  0  0  0  0  0
   -4.7385   -3.0201   -0.8050 H   0  0  0  0  0  0  0  0  0  0  0  0
   -2.5646   -3.0832   -0.7453 C   0  0  0  0  0  0  0  0  0  0  0  0
   -2.5102   -4.1492   -1.0174 H   0  0  0  0  0  0  0  0  0  0  0  0
   -1.3729   -2.3619   -0.5201 C   0  0  0  0  0  0  0  0  0  0  0  0
   -0.4114   -2.8850   -0.6347 H   0  0  0  0  0  0  0  0  0  0  0  0
   -2.6711    1.0765    0.2036 C   0  0  0  0  0  0  0  0  0  0  0  0
   -3.8807    1.9373    0.3654 C   0  0  0  0  0  0  0  0  0  0  0  0
   -3.5910    2.9741    0.6097 H   0  0  0  0  0  0  0  0  0  0  0  0
   -4.5339    1.5439    1.1713 H   0  0  0  0  0  0  0  0  0  0  0  0
   -4.4826    1.9430   -0.5671 H   0  0  0  0  0  0  0  0  0  0  0  0
  1  2  1  0  0  0  0
  2  3  1  0  0  0  0
  4  5  1  0  0  0  0
  5 14  2  0  0  0  0
  6  7  1  0  0  0  0
  6  5  1  0  0  0  0
  8  6  2  0  0  0  0
  9  8  1  0  0  0  0
 10  8  1  0  0  0  0
 10 12  2  0  0  0  0
 11 10  1  0  0  0  0
 12  4  1  0  0  0  0
 13 12  1  0  0  0  0
 14  1  1  0  0  0  0
 14 15  1  0  0  0  0
 15 16  1  0  0  0  0
 15 17  1  0  0  0  0
 18 15  1  0  0  0  0
M  END
