1,4
q = -1.0

 22 23  0  0  0  0  0  0  0  0999 V2000
   -1.0346    3.5220   -0.4141 N   0  0  0  0  0  0  0  0  0  0  0  0
   -1.3005    3.6867   -1.3957 H   0  0  0  0  0  0  0  0  0  0  0  0
   -0.2492    4.1625   -0.1987 H   0  0  0  0  0  0  0  0  0  0  0  0
   -1.7110    0.7561   -0.2119 C   0  0  0  0  0  3  0  0  0  0  0  0
   -1.8172   -0.6270   -0.3442 O   0  0  0  0  0  0  0  0  0  0  0  0
   -2.9770    1.3042   -0.0399 C   0  0  0  0  0  0  0  0  0  0  0  0
   -3.9178    0.2044   -0.0551 C   0  0  0  0  0  0  0  0  0  0  0  0
   -5.3172    0.0705    0.0711 C   0  0  0  0  0  0  0  0  0  0  0  0
   -5.9599    0.9536    0.2101 H   0  0  0  0  0  0  0  0  0  0  0  0
   -5.8743   -1.2155    0.0162 C   0  0  0  0  0  0  0  0  0  0  0  0
   -6.9638   -1.3382    0.1145 H   0  0  0  0  0  0  0  0  0  0  0  0
   -5.0657   -2.3616   -0.1624 C   0  0  0  0  0  0  0  0  0  0  0  0
   -5.5359   -3.3559   -0.1975 H   0  0  0  0  0  0  0  0  0  0  0  0
   -3.6708   -2.2536   -0.2947 C   0  0  0  0  0  0  0  0  0  0  0  0
   -3.0224   -3.1308   -0.4296 H   0  0  0  0  0  0  0  0  0  0  0  0
   -3.1368   -0.9655   -0.2394 C   0  0  0  0  0  0  0  0  0  0  0  0
   -3.3421    2.7554    0.0866 C   0  0  0  0  0  0  0  0  0  0  0  0
   -4.1546    2.8769    0.8352 H   0  0  0  0  0  0  0  0  0  0  0  0
   -3.7813    3.1206   -0.8732 H   0  0  0  0  0  0  0  0  0  0  0  0
   -2.1922    3.6789    0.4848 C   0  0  0  0  0  0  0  0  0  0  0  0
   -2.5469    4.7336    0.4824 H   0  0  0  0  0  0  0  0  0  0  0  0
   -1.8444    3.4422    1.5107 H   0  0  0  0  0  0  0  0  0  0  0  0
  1  3  1  0  0  0  0
  1 20  1  0  0  0  0
  2  1  1  0  0  0  0
  4  6  2  0  0  0  0
  5 16  1  0  0  0  0
  5  4  1  0  0  0  0
  6 17  1  0  0  0  0
  7  6  1  0  0  0  0
  7  8  1  0  0  0  0
  8  9  1  0  0  0  0
 10  8  2  0  0  0  0
 10 11  1  0  0  0  0
 12 10  1  0  0  0  0
 13 12  1  0  0  0  0
 14 16  1  0  0  0  0
 14 12  2  0  0  0  0
 15 14  1  0  0  0  0
 16  7  2  0  0  0  0
 17 20  1  0  0  0  0
 17 18  1  0  0  0  0
 19 17  1  0  0  0  0
 20 22  1  0  0  0  0
 21 20  1  0  0  0  0
M  END
