1,4
q = -1.0, confidence = 0.0

 22 23  0  0  0  0  0  0  0  0999 V2000
   -0.2322   -3.1004    0.1978 N   0  0  0  0  0  0  0  0  0  0  0  0
    0.5219   -3.7713   -0.0390 H   0  0  0  0  0  0  0  0  0  0  0  0
   -0.5077   -3.2918    1.1725 H   0  0  0  0  0  0  0  0  0  0  0  0
   -0.8350   -0.2801    0.0658 C   0  0  0  0  0  3  0  0  0  0  0  0
   -2.1224   -0.7755   -0.0961 C   0  0  0  0  0  0  0  0  0  0  0  0
   -3.1424    0.2559   -0.0516 C   0  0  0  0  0  0  0  0  0  0  0  0
   -4.5484    0.1281   -0.1620 C   0  0  0  0  0  0  0  0  0  0  0  0
   -5.0032   -0.8649   -0.3002 H   0  0  0  0  0  0  0  0  0  0  0  0
   -5.3613    1.2634   -0.0922 C   0  0  0  0  0  0  0  0  0  0  0  0
   -6.4533    1.1570   -0.1796 H   0  0  0  0  0  0  0  0  0  0  0  0
   -4.7988    2.5465    0.0907 C   0  0  0  0  0  0  0  0  0  0  0  0
   -5.4538    3.4292    0.1435 H   0  0  0  0  0  0  0  0  0  0  0  0
   -3.4125    2.7050    0.2085 C   0  0  0  0  0  0  0  0  0  0  0  0
   -2.9699    3.7018    0.3544 H   0  0  0  0  0  0  0  0  0  0  0  0
   -2.5978    1.5626    0.1392 C   0  0  0  0  0  0  0  0  0  0  0  0
   -0.8548    1.4725    0.2658 S   0  0  0  0  0  0  0  0  0  0  0  0
   -2.5071   -2.2276   -0.2536 C   0  0  0  0  0  0  0  0  0  0  0  0
   -3.3364   -2.3135   -0.9880 H   0  0  0  0  0  0  0  0  0  0  0  0
   -2.9362   -2.6053    0.7059 H   0  0  0  0  0  0  0  0  0  0  0  0
   -1.3979   -3.1719   -0.7025 C   0  0  0  0  0  0  0  0  0  0  0  0
   -1.7915   -4.2115   -0.7415 H   0  0  0  0  0  0  0  0  0  0  0  0
   -1.0463   -2.9043   -1.7191 H   0  0  0  0  0  0  0  0  0  0  0  0
  1  3  1  0  0  0  0
  2  1  1  0  0  0  0
  4 16  1  0  0  0  0
  5  6  1  0  0  0  0
  5  4  2  0  0  0  0
  6 15  1  0  0  0  0
  7  9  1  0  0  0  0
  7  6  2  0  0  0  0
  8  7  1  0  0  0  0
  9 11  2  0  0  0  0
 10  9  1  0  0  0  0
 11 12  1  0  0  0  0
 11 13  1  0  0  0  0
 13 14  1  0  0  0  0
 15 13  2  0  0  0  0
 15 16  1  0  0  0  0
 17  5  1  0  0  0  0
 17 19  1  0  0  0  0
 18 17  1  0  0  0  0
 20 17  1  0  0  0  0
 20  1  1  0  0  0  0
 21 20  1  0  0  0  0
 22 20  1  0  0  0  0
M  END
