3,16
q = -1.0

 23 25  0  0  1  0  0  0  0  0999 V2000
   -5.3167    1.8111   -0.3732 Cl  0  0  0  0  0  0  0  0  0  0  0  0
    1.6906    3.4854    0.4183 S   0  0  0  0  0  0  0  0  0  0  0  0
    1.1832    0.9622    0.0396 N   0  0  0  0  0  2  0  0  0  0  0  0
    2.5557    1.0749   -0.1029 C   0  0  0  0  0  0  0  0  0  0  0  0
    3.4507    0.0549   -0.4746 C   0  0  0  0  0  0  0  0  0  0  0  0
    3.0500   -0.9371   -0.7181 H   0  0  0  0  0  0  0  0  0  0  0  0
    4.8119    0.3591   -0.5703 C   0  0  0  0  0  0  0  0  0  0  0  0
    5.5219   -0.4268   -0.8677 H   0  0  0  0  0  0  0  0  0  0  0  0
    5.2883    1.6627   -0.3081 C   0  0  0  0  0  0  0  0  0  0  0  0
    6.3644    1.8766   -0.3875 H   0  0  0  0  0  0  0  0  0  0  0  0
    4.4053    2.6991    0.0256 C   0  0  0  0  0  0  0  0  0  0  0  0
    4.7718    3.7214    0.1974 H   0  0  0  0  0  0  0  0  0  0  0  0
    3.0382    2.3978    0.1121 C   0  0  0  0  0  0  0  0  0  0  0  0
    0.5832    2.1372    0.2561 C   0  0  2  0  0  3  0  0  0  0  0  0
   -0.8531    2.1550    0.2362 C   0  0  0  0  0  0  0  0  0  0  0  0
   -1.4034    0.8627   -0.0603 C   0  0  0  0  0  3  0  0  0  0  0  0
   -2.7934    0.7970   -0.2803 C   0  0  0  0  0  0  0  0  0  0  0  0
   -3.2704   -0.1427   -0.5893 H   0  0  0  0  0  0  0  0  0  0  0  0
   -3.5909    1.9403   -0.1251 C   0  0  0  0  0  0  0  0  0  0  0  0
   -3.0477    3.1963    0.2210 C   0  0  0  0  0  0  0  0  0  0  0  0
   -3.7066    4.0675    0.3330 H   0  0  0  0  0  0  0  0  0  0  0  0
   -1.6664    3.2997    0.3837 C   0  0  0  0  0  0  0  0  0  0  0  0
   -1.2136    4.2774    0.6140 H   0  0  0  0  0  0  0  0  0  0  0  0
  1 19  1  0  0  0  0
  3 14  1  0  0  0  0
  4  3  1  0  0  0  0
  4 13  1  0  0  0  0
  5  4  2  0  0  0  0
  6  5  1  0  0  0  0
  7  5  1  0  0  0  0
  7  9  2  0  0  0  0
  8  7  1  0  0  0  0
  9 11  1  0  0  0  0
 10  9  1  0  0  0  0
 11 13  2  0  0  0  0
 11 12  1  0  0  0  0
 13  2  1  0  0  0  0
 14 15  1  6  0  0  0
 14  2  1  0  0  0  0
 15 22  1  0  0  0  0
 16 15  2  0  0  0  0
 17 19  2  0  0  0  0
 17 16  1  0  0  0  0
 18 17  1  0  0  0  0
 19 20  1  0  0  0  0
 20 21  1  0  0  0  0
 20 22  2  0  0  0  0
 22 23  1  0  0  0  0
M  END
