1,3
q = -1.0

 22 22  0  0  0  0  0  0  0  0999 V2000
    0.1565    1.4842   -0.6539 N   0  0  0  0  0  2  0  0  0  0  0  0
    0.0329    3.6067    1.4884 N   0  0  0  0  0  0  0  0  0  0  0  0
    1.3601   -0.7606   -0.0063 C   0  0  0  0  0  2  0  0  0  0  0  0
    1.9782   -1.9754    0.3117 C   0  0  0  0  0  0  0  0  0  0  0  0
    3.3871   -2.0703    0.3474 C   0  0  0  0  0  0  0  0  0  0  0  0
    4.1957   -0.9580    0.0654 C   0  0  0  0  0  0  0  0  0  0  0  0
    3.5994    0.2671   -0.2609 C   0  0  0  0  0  0  0  0  0  0  0  0
    2.1931    0.3656   -0.2964 C   0  0  0  0  0  0  0  0  0  0  0  0
    1.4641    1.5668   -0.6224 C   0  0  0  0  0  0  0  0  0  0  0  0
   -0.6479    2.6782   -0.7852 C   0  0  0  0  0  0  0  0  0  0  0  0
   -1.0456    3.2339    0.6179 C   0  0  0  0  0  0  0  0  0  0  0  0
    1.3970   -2.8851    0.5335 H   0  0  0  0  0  0  0  0  0  0  0  0
    3.8548   -3.0347    0.5988 H   0  0  0  0  0  0  0  0  0  0  0  0
    5.2908   -1.0499    0.0977 H   0  0  0  0  0  0  0  0  0  0  0  0
    4.2199    1.1476   -0.4888 H   0  0  0  0  0  0  0  0  0  0  0  0
    1.9673    2.5239   -0.8566 H   0  0  0  0  0  0  0  0  0  0  0  0
   -0.0801    3.4591   -1.3377 H   0  0  0  0  0  0  0  0  0  0  0  0
   -1.5592    2.4531   -1.3774 H   0  0  0  0  0  0  0  0  0  0  0  0
   -1.6699    2.4696    1.1317 H   0  0  0  0  0  0  0  0  0  0  0  0
   -1.7052    4.1108    0.4433 H   0  0  0  0  0  0  0  0  0  0  0  0
    0.6294    2.8210    1.7677 H   0  0  0  0  0  0  0  0  0  0  0  0
    0.6176    4.3630    1.1180 H   0  0  0  0  0  0  0  0  0  0  0  0
  1  9  1  0  0  0  0
  2 21  1  0  0  0  0
  3  4  1  0  0  0  0
  4  5  2  0  0  0  0
  4 12  1  0  0  0  0
  5 13  1  0  0  0  0
  6 14  1  0  0  0  0
  6  5  1  0  0  0  0
  7  6  2  0  0  0  0
  8  7  1  0  0  0  0
  8  3  1  0  0  0  0
  9  8  2  0  0  0  0
 10  1  1  0  0  0  0
 10 11  1  0  0  0  0
 11 19  1  0  0  0  0
 11  2  1  0  0  0  0
 15  7  1  0  0  0  0
 16  9  1  0  0  0  0
 17 10  1  0  0  0  0
 18 10  1  0  0  0  0
 20 11  1  0  0  0  0
 22  2  1  0  0  0  0
M  END
