1,2
q = -1.0

 22 22  0  0  0  0  0  0  0  0999 V2000
   -0.2978    1.8603   -1.6109 N   0  0  0  0  0  0  0  0  0  0  0  0
   -0.0013    1.8227    1.1784 C   0  0  0  0  0  3  0  0  0  0  0  0
   -1.0863    2.0740    1.1473 H   0  0  0  0  0  0  0  0  0  0  0  0
    0.3140    1.8167    2.2394 H   0  0  0  0  0  0  0  0  0  0  0  0
    0.8304    2.7416    0.3749 C   0  0  0  0  0  0  0  0  0  0  0  0
    0.7197    2.7443   -1.0466 C   0  0  0  0  0  0  0  0  0  0  0  0
    1.5608    3.5320   -1.8471 C   0  0  0  0  0  0  0  0  0  0  0  0
    1.4554    3.5239   -2.9408 H   0  0  0  0  0  0  0  0  0  0  0  0
    2.5600    4.3270   -1.2596 C   0  0  0  0  0  0  0  0  0  0  0  0
    3.2249    4.9313   -1.8943 H   0  0  0  0  0  0  0  0  0  0  0  0
    2.6954    4.3389    0.1366 C   0  0  0  0  0  0  0  0  0  0  0  0
    3.4716    4.9589    0.6112 H   0  0  0  0  0  0  0  0  0  0  0  0
    1.8384    3.5670    0.9328 C   0  0  0  0  0  0  0  0  0  0  0  0
    1.9420    3.5911    2.0290 H   0  0  0  0  0  0  0  0  0  0  0  0
   -0.0648    1.4883   -3.0160 C   0  0  0  0  0  0  0  0  0  0  0  0
   -0.2822    2.3332   -3.7086 H   0  0  0  0  0  0  0  0  0  0  0  0
   -0.7297    0.6428   -3.2752 H   0  0  0  0  0  0  0  0  0  0  0  0
    0.9847    1.1802   -3.1598 H   0  0  0  0  0  0  0  0  0  0  0  0
   -1.6335    2.5012   -1.5257 C   0  0  0  0  0  0  0  0  0  0  0  0
   -1.8948    2.7331   -0.4783 H   0  0  0  0  0  0  0  0  0  0  0  0
   -2.4019    1.8189   -1.9279 H   0  0  0  0  0  0  0  0  0  0  0  0
   -1.6379    3.4486   -2.1104 H   0  0  0  0  0  0  0  0  0  0  0  0
  1 19  1  0  0  0  0
  1  6  1  0  0  0  0
  2  4  1  0  0  0  0
  3  2  1  0  0  0  0
  5 13  1  0  0  0  0
  5  2  1  0  0  0  0
  6  5  2  0  0  0  0
  7  9  2  0  0  0  0
  7  6  1  0  0  0  0
  8  7  1  0  0  0  0
  9 11  1  0  0  0  0
 10  9  1  0  0  0  0
 11 12  1  0  0  0  0
 11 13  2  0  0  0  0
 13 14  1  0  0  0  0
 15  1  1  0  0  0  0
 16 15  1  0  0  0  0
 17 15  1  0  0  0  0
 18 15  1  0  0  0  0
 19 20  1  0  0  0  0
 21 19  1  0  0  0  0
 22 19  1  0  0  0  0
M  END
