1,18
q = 0.0, confidence = 0.988

 31 33  0  0  1  0  0  0  0  0999 V2000
    0.4324    0.3732   -0.1618 N   0  0  0  0  0  2  0  0  0  0  0  0
    2.6585    0.1096   -0.0523 N   0  0  0  0  0  0  0  0  0  0  0  0
    3.9497   -1.7569    0.5132 N   0  0  0  0  0  0  0  0  0  0  0  0
    1.4244   -0.5134   -0.2019 C   0  0  1  0  0  3  0  0  0  0  0  0
    0.9967    1.6324    0.0231 C   0  0  0  0  0  0  0  0  0  0  0  0
    0.3885    2.8906    0.1533 C   0  0  0  0  0  0  0  0  0  0  0  0
    1.2239    3.9882    0.3918 C   0  0  0  0  0  0  0  0  0  0  0  0
    2.6250    3.8350    0.5077 C   0  0  0  0  0  0  0  0  0  0  0  0
    3.2434    2.5838    0.3681 C   0  0  0  0  0  0  0  0  0  0  0  0
    2.4088    1.4854    0.1055 C   0  0  0  0  0  0  0  0  0  0  0  0
    3.9157   -0.5409   -0.0488 C   0  0  0  0  0  0  0  0  0  0  0  0
    5.0420    0.0762   -0.6348 C   0  0  0  0  0  0  0  0  0  0  0  0
    6.2607   -0.6088   -0.5850 C   0  0  0  0  0  0  0  0  0  0  0  0
    6.3124   -1.8768    0.0157 C   0  0  0  0  0  0  0  0  0  0  0  0
    5.1209   -2.4088    0.5320 C   0  0  0  0  0  0  0  0  0  0  0  0
    1.0933   -1.9533   -0.3577 C   0  0  0  0  0  0  0  0  0  0  0  0
   -0.3618   -2.0636   -0.8126 C   0  0  0  0  0  3  0  0  0  0  0  0
   -0.8320   -1.4559   -2.0181 C   0  0  0  0  0  3  0  0  0  0  0  0
   -0.6988    2.9786    0.0340 H   0  0  0  0  0  0  0  0  0  0  0  0
    0.7832    4.9912    0.4918 H   0  0  0  0  0  0  0  0  0  0  0  0
    3.2501    4.7171    0.7119 H   0  0  0  0  0  0  0  0  0  0  0  0
    4.3307    2.4786    0.4795 H   0  0  0  0  0  0  0  0  0  0  0  0
    4.9517    1.0470   -1.1397 H   0  0  0  0  0  0  0  0  0  0  0  0
    7.1613   -0.1607   -1.0311 H   0  0  0  0  0  0  0  0  0  0  0  0
    7.2505   -2.4473    0.0715 H   0  0  0  0  0  0  0  0  0  0  0  0
    5.1096   -3.4127    0.9919 H   0  0  0  0  0  0  0  0  0  0  0  0
    1.8001   -2.4566   -1.0538 H   0  0  0  0  0  0  0  0  0  0  0  0
    1.2463   -2.4555    0.6218 H   0  0  0  0  0  0  0  0  0  0  0  0
   -0.8465   -2.9954   -0.4803 H   0  0  0  0  0  0  0  0  0  0  0  0
   -1.6606   -1.9188   -2.5783 H   0  0  0  0  0  0  0  0  0  0  0  0
   -0.1436   -0.8578   -2.6394 H   0  0  0  0  0  0  0  0  0  0  0  0
  1  5  1  0  0  0  0
  2 11  1  0  0  0  0
  2 10  1  0  0  0  0
  3 15  1  0  0  0  0
  4 16  1  1  0  0  0
  4  1  1  0  0  0  0
  4  2  1  0  0  0  0
  5 10  2  0  0  0  0
  5  6  1  0  0  0  0
  6  7  2  0  0  0  0
  7 20  1  0  0  0  0
  7  8  1  0  0  0  0
  8 21  1  0  0  0  0
  9 22  1  0  0  0  0
  9  8  2  0  0  0  0
 10  9  1  0  0  0  0
 11  3  2  0  0  0  0
 12 13  2  0  0  0  0
 12 11  1  0  0  0  0
 13 14  1  0  0  0  0
 14 25  1  0  0  0  0
 14 15  2  0  0  0  0
 15 26  1  0  0  0  0
 16 28  1  0  0  0  0
 17 29  1  0  0  0  0
 17 16  1  0  0  0  0
 18 17  1  0  0  0  0
 19  6  1  0  0  0  0
 23 12  1  0  0  0  0
 24 13  1  0  0  0  0
 27 16  1  0  0  0  0
 30 18  1  0  0  0  0
 31 18  1  0  0  0  0
M  END
