1,3
q = -1.0

 33 33  0  0  0  0  0  0  0  0999 V2000
    2.5587   -0.1961   -1.6715 N   0  0  0  0  0  0  0  0  0  0  0  0
   -2.5245    3.1952    0.2420 N   0  0  0  0  0  0  0  0  0  0  0  0
    0.8487    1.5160   -0.2497 C   0  0  0  0  0  3  0  0  0  0  0  0
    2.1540    1.9740   -0.5737 C   0  0  0  0  0  0  0  0  0  0  0  0
    2.4814    3.3393   -0.5063 C   0  0  0  0  0  0  0  0  0  0  0  0
    1.5133    4.2652   -0.0978 C   0  0  0  0  0  0  0  0  0  0  0  0
    0.2171    3.8245    0.1899 C   0  0  0  0  0  0  0  0  0  0  0  0
   -0.1439    2.4623    0.0971 C   0  0  0  0  0  0  0  0  0  0  0  0
   -1.5904    2.0862    0.3817 C   0  0  0  0  0  0  0  0  0  0  0  0
   -2.7844    3.5302   -1.1468 C   0  0  0  0  0  0  0  0  0  0  0  0
   -3.7446    3.0059    1.0030 C   0  0  0  0  0  0  0  0  0  0  0  0
    3.1910    0.9587   -0.9813 C   0  0  0  0  0  0  0  0  0  0  0  0
    2.0944    0.1634   -3.0262 C   0  0  0  0  0  0  0  0  0  0  0  0
    3.4813   -1.3431   -1.7300 C   0  0  0  0  0  0  0  0  0  0  0  0
    3.4964    3.6720   -0.7772 H   0  0  0  0  0  0  0  0  0  0  0  0
    1.7631    5.3347   -0.0255 H   0  0  0  0  0  0  0  0  0  0  0  0
   -0.5773    4.5287    0.4822 H   0  0  0  0  0  0  0  0  0  0  0  0
   -1.8664    1.2208   -0.2676 H   0  0  0  0  0  0  0  0  0  0  0  0
   -1.6640    1.7008    1.4201 H   0  0  0  0  0  0  0  0  0  0  0  0
   -3.3050    2.7076   -1.7066 H   0  0  0  0  0  0  0  0  0  0  0  0
   -1.8315    3.7423   -1.6722 H   0  0  0  0  0  0  0  0  0  0  0  0
   -3.4176    4.4389   -1.2093 H   0  0  0  0  0  0  0  0  0  0  0  0
   -4.3713    2.1448    0.6466 H   0  0  0  0  0  0  0  0  0  0  0  0
   -4.3717    3.9194    0.9442 H   0  0  0  0  0  0  0  0  0  0  0  0
   -3.5039    2.8216    2.0694 H   0  0  0  0  0  0  0  0  0  0  0  0
    3.9808    1.4101   -1.6258 H   0  0  0  0  0  0  0  0  0  0  0  0
    3.6944    0.5469   -0.0821 H   0  0  0  0  0  0  0  0  0  0  0  0
    2.9600    0.4029   -3.6853 H   0  0  0  0  0  0  0  0  0  0  0  0
    1.4257    1.0416   -2.9675 H   0  0  0  0  0  0  0  0  0  0  0  0
    1.5340   -0.6890   -3.4534 H   0  0  0  0  0  0  0  0  0  0  0  0
    4.3737   -1.0885   -2.3455 H   0  0  0  0  0  0  0  0  0  0  0  0
    2.9535   -2.2177   -2.1512 H   0  0  0  0  0  0  0  0  0  0  0  0
    3.7999   -1.6085   -0.7050 H   0  0  0  0  0  0  0  0  0  0  0  0
  1 12  1  0  0  0  0
  2  9  1  0  0  0  0
  2 11  1  0  0  0  0
  3  8  1  0  0  0  0
  4  5  1  0  0  0  0
  4  3  2  0  0  0  0
  5  6  2  0  0  0  0
  6 16  1  0  0  0  0
  6  7  1  0  0  0  0
  7 17  1  0  0  0  0
  8  7  2  0  0  0  0
  8  9  1  0  0  0  0
  9 19  1  0  0  0  0
 10  2  1  0  0  0  0
 11 25  1  0  0  0  0
 12  4  1  0  0  0  0
 12 27  1  0  0  0  0
 13 29  1  0  0  0  0
 13  1  1  0  0  0  0
 14  1  1  0  0  0  0
 14 33  1  0  0  0  0
 15  5  1  0  0  0  0
 18  9  1  0  0  0  0
 20 10  1  0  0  0  0
 21 10  1  0  0  0  0
 22 10  1  0  0  0  0
 23 11  1  0  0  0  0
 24 11  1  0  0  0  0
 26 12  1  0  0  0  0
 28 13  1  0  0  0  0
 30 13  1  0  0  0  0
 31 14  1  0  0  0  0
 32 14  1  0  0  0  0
M  END
