2,22
q = -1.0

 26 28  0  0  1  0  0  0  0  0999 V2000
   -2.7121   -4.0245   -1.4834 S   0  0  0  0  0  0  0  0  0  0  0  0
   -2.2826   -0.3231    0.0729 N   0  0  0  0  0  2  0  0  0  0  0  0
   -5.0794   -0.0594   -0.4557 C   0  0  0  0  0  0  0  0  0  0  0  0
   -5.0126    2.1418    0.7405 C   0  0  0  0  0  0  0  0  0  0  0  0
   -6.0829    2.2835    0.5338 H   0  0  0  0  0  0  0  0  0  0  0  0
   -2.9604    0.7911    0.5285 C   0  0  2  0  0  3  0  0  0  0  0  0
   -2.9860   -1.3230   -0.5415 C   0  0  0  0  0  0  0  0  0  0  0  0
   -2.2020   -2.4866   -0.8218 C   0  0  0  0  0  0  0  0  0  0  0  0
   -2.2798    1.7785    1.2924 C   0  0  0  0  0  0  0  0  0  0  0  0
   -1.2152    1.6304    1.5104 H   0  0  0  0  0  0  0  0  0  0  0  0
   -1.1108   -4.6599   -1.2561 C   0  0  0  0  0  0  0  0  0  0  0  0
   -0.9063   -5.6977   -1.5497 H   0  0  0  0  0  0  0  0  0  0  0  0
   -4.3692    0.9663    0.2654 C   0  0  0  0  0  0  0  0  0  0  0  0
   -4.3191    3.1037    1.4652 C   0  0  0  0  0  0  0  0  0  0  0  0
   -4.8368    4.0058    1.8237 H   0  0  0  0  0  0  0  0  0  0  0  0
   -2.9469    2.9086    1.7481 C   0  0  0  0  0  0  0  0  0  0  0  0
   -2.3934    3.6569    2.3354 H   0  0  0  0  0  0  0  0  0  0  0  0
   -6.5402    0.0840   -0.7784 C   0  0  0  0  0  0  0  0  0  0  0  0
   -7.1498    0.1939    0.1428 H   0  0  0  0  0  0  0  0  0  0  0  0
   -6.9152   -0.7959   -1.3339 H   0  0  0  0  0  0  0  0  0  0  0  0
   -6.7304    0.9871   -1.3951 H   0  0  0  0  0  0  0  0  0  0  0  0
   -0.8470   -2.4727   -0.4518 C   0  0  0  0  0  3  0  0  0  0  0  0
   -4.3746   -1.1891   -0.8238 C   0  0  0  0  0  0  0  0  0  0  0  0
   -4.8768   -2.0147   -1.3499 H   0  0  0  0  0  0  0  0  0  0  0  0
   -0.2336   -3.7412   -0.7030 C   0  0  0  0  0  0  0  0  0  0  0  0
    0.8197   -3.9732   -0.4936 H   0  0  0  0  0  0  0  0  0  0  0  0
  1 11  1  0  0  0  0
  1  8  1  0  0  0  0
  3 13  2  0  0  0  0
  4 14  2  0  0  0  0
  5  4  1  0  0  0  0
  6  2  1  1  0  0  0
  6  9  1  0  0  0  0
  7  2  1  0  0  0  0
  8  7  1  0  0  0  0
  8 22  2  0  0  0  0
  9 10  1  0  0  0  0
  9 16  2  0  0  0  0
 11 25  2  0  0  0  0
 12 11  1  0  0  0  0
 13  6  1  0  0  0  0
 13  4  1  0  0  0  0
 14 16  1  0  0  0  0
 14 15  1  0  0  0  0
 16 17  1  0  0  0  0
 18  3  1  0  0  0  0
 18 19  1  0  0  0  0
 20 18  1  0  0  0  0
 21 18  1  0  0  0  0
 23  7  2  0  0  0  0
 23  3  1  0  0  0  0
 24 23  1  0  0  0  0
 25 26  1  0  0  0  0
 25 22  1  0  0  0  0
M  END
