1,9
q = -1.0, confidence = 0.0

 19 20  0  0  0  0  0  0  0  0999 V2000
    2.9110   -1.0888   -0.0103 N   0  0  0  0  0  2  0  0  0  0  0  0
    3.8005    2.4048    0.0758 N   0  0  0  0  0  2  0  0  0  0  0  0
    3.7354   -0.0037    0.0022 C   0  0  0  0  0  0  0  0  0  0  0  0
    5.1318   -0.1559   -0.0233 C   0  0  0  0  0  0  0  0  0  0  0  0
    5.6743   -1.4431   -0.0622 C   0  0  0  0  0  0  0  0  0  0  0  0
    4.8087   -2.5509   -0.0741 C   0  0  0  0  0  0  0  0  0  0  0  0
    3.4271   -2.3344   -0.0474 C   0  0  0  0  0  0  0  0  0  0  0  0
    3.0449    1.2908    0.0496 C   0  0  0  0  0  0  0  0  0  0  0  0
    1.6126    1.2503    0.0731 C   0  0  0  0  0  3  0  0  0  0  0  0
    0.9948    2.5196    0.1523 C   0  0  0  0  0  0  0  0  0  0  0  0
    1.7695    3.6877    0.1846 C   0  0  0  0  0  0  0  0  0  0  0  0
    3.1713    3.5826    0.1379 C   0  0  0  0  0  0  0  0  0  0  0  0
    5.7386    0.7602   -0.0106 H   0  0  0  0  0  0  0  0  0  0  0  0
    6.7654   -1.5868   -0.0831 H   0  0  0  0  0  0  0  0  0  0  0  0
    5.1928   -3.5802   -0.1044 H   0  0  0  0  0  0  0  0  0  0  0  0
    2.6780   -3.1445   -0.0561 H   0  0  0  0  0  0  0  0  0  0  0  0
   -0.0997    2.6154    0.1852 H   0  0  0  0  0  0  0  0  0  0  0  0
    1.2890    4.6767    0.2446 H   0  0  0  0  0  0  0  0  0  0  0  0
    3.8063    4.4861    0.1556 H   0  0  0  0  0  0  0  0  0  0  0  0
  1  3  1  0  0  0  0
  2 12  1  0  0  0  0
  3  8  2  0  0  0  0
  4 13  1  0  0  0  0
  4  3  1  0  0  0  0
  5  4  2  0  0  0  0
  6  5  1  0  0  0  0
  6  7  2  0  0  0  0
  7  1  1  0  0  0  0
  8  9  1  0  0  0  0
  8  2  1  0  0  0  0
  9 10  2  0  0  0  0
 10 11  1  0  0  0  0
 10 17  1  0  0  0  0
 11 18  1  0  0  0  0
 12 19  1  0  0  0  0
 12 11  2  0  0  0  0
 14  5  1  0  0  0  0
 15  6  1  0  0  0  0
 16  7  1  0  0  0  0
M  END
