5,22
q = -1.0

 22 23  0  0  0  0  0  0  0  0999 V2000
    2.2497    5.2604   -1.5301 F   0  0  0  0  0  0  0  0  0  0  0  0
   -2.3431    5.5705   -0.6007 F   0  0  0  0  0  0  0  0  0  0  0  0
    4.9329   -1.6102    0.0129 O   0  0  0  0  0  0  0  0  0  0  0  0
    6.4584   -0.1969   -0.6728 O   0  0  0  0  0  0  0  0  0  0  0  0
    1.9402    1.0774   -0.5040 N   0  0  0  0  0  2  0  0  0  0  0  0
    5.2985   -0.5068   -0.4021 N   0  0  0  0  0  0  0  0  0  0  0  0
    2.9391    0.1945   -0.3347 C   0  0  0  0  0  3  0  0  0  0  0  0
    2.6899   -0.8111    0.0150 H   0  0  0  0  0  0  0  0  0  0  0  0
    4.2683    0.5241   -0.5928 C   0  0  0  0  0  0  0  0  0  0  0  0
    4.6047    1.8113   -1.0358 C   0  0  0  0  0  0  0  0  0  0  0  0
    5.6529    2.0548   -1.2547 H   0  0  0  0  0  0  0  0  0  0  0  0
    3.5757    2.7396   -1.1641 C   0  0  0  0  0  0  0  0  0  0  0  0
    3.7881    3.7649   -1.4828 H   0  0  0  0  0  0  0  0  0  0  0  0
    2.2348    2.3820   -0.8750 C   0  0  0  0  0  0  0  0  0  0  0  0
    1.0834    3.2632   -0.8761 C   0  0  0  0  0  0  0  0  0  0  0  0
    1.1010    4.6508   -1.1626 C   0  0  0  0  0  0  0  0  0  0  0  0
   -0.0405    5.4425   -1.0783 C   0  0  0  0  0  0  0  0  0  0  0  0
   -0.0006    6.5153   -1.3040 H   0  0  0  0  0  0  0  0  0  0  0  0
   -1.2368    4.8168   -0.6943 C   0  0  0  0  0  0  0  0  0  0  0  0
   -1.3152    3.4491   -0.4098 C   0  0  0  0  0  0  0  0  0  0  0  0
   -2.2914    3.0321   -0.1276 H   0  0  0  0  0  0  0  0  0  0  0  0
   -0.1628    2.6564   -0.5082 C   0  0  0  0  0  3  0  0  0  0  0  0
  1 16  1  0  0  0  0
  4  6  2  0  0  0  0
  5  7  1  0  0  0  0
  6  3  2  0  0  0  0
  7  8  1  0  0  0  0
  9  6  1  0  0  0  0
  9  7  1  0  0  0  0
 10  9  2  0  0  0  0
 11 10  1  0  0  0  0
 12 10  1  0  0  0  0
 12 14  2  0  0  0  0
 13 12  1  0  0  0  0
 14  5  1  0  0  0  0
 15 14  1  0  0  0  0
 15 22  1  0  0  0  0
 16 17  1  0  0  0  0
 16 15  2  0  0  0  0
 17 19  2  0  0  0  0
 18 17  1  0  0  0  0
 19  2  1  0  0  0  0
 19 20  1  0  0  0  0
 20 21  1  0  0  0  0
 22 20  2  0  0  0  0
M  END
