1,2
q = -1.0, confidence = 0.0

 28 29  0  0  0  0  0  0  0  0999 V2000
    2.1584   -0.5456    1.0725 N   0  0  0  0  0  2  0  0  0  0  0  0
   -0.5301   -0.9283    1.3277 C   0  0  0  0  0  2  0  0  0  0  0  0
    0.2204   -0.6119    2.4508 C   0  0  0  0  0  0  0  0  0  0  0  0
    1.6244   -0.4334    2.2765 C   0  0  0  0  0  0  0  0  0  0  0  0
    3.5532   -0.3757    0.9045 C   0  0  0  0  0  0  0  0  0  0  0  0
    4.2814    0.5710    1.6598 C   0  0  0  0  0  0  0  0  0  0  0  0
    3.7529    1.2246    2.3673 H   0  0  0  0  0  0  0  0  0  0  0  0
    5.6580    0.7295    1.4596 C   0  0  0  0  0  0  0  0  0  0  0  0
    6.2038    1.4894    2.0396 H   0  0  0  0  0  0  0  0  0  0  0  0
    6.3340   -0.0521    0.5095 C   0  0  0  0  0  0  0  0  0  0  0  0
    7.4141    0.0813    0.3475 H   0  0  0  0  0  0  0  0  0  0  0  0
    5.6167   -1.0011   -0.2378 C   0  0  0  0  0  0  0  0  0  0  0  0
    6.1342   -1.6258   -0.9814 H   0  0  0  0  0  0  0  0  0  0  0  0
    4.2392   -1.1603   -0.0478 C   0  0  0  0  0  0  0  0  0  0  0  0
    3.6774   -1.9076   -0.6232 H   0  0  0  0  0  0  0  0  0  0  0  0
   -1.9602   -1.2364    1.5001 C   0  0  0  0  0  0  0  0  0  0  0  0
   -2.5640   -2.3089    0.7965 C   0  0  0  0  0  0  0  0  0  0  0  0
   -1.9478   -2.9076    0.1112 H   0  0  0  0  0  0  0  0  0  0  0  0
   -3.9126   -2.6348    0.9943 C   0  0  0  0  0  0  0  0  0  0  0  0
   -4.3484   -3.4897    0.4549 H   0  0  0  0  0  0  0  0  0  0  0  0
   -4.7073   -1.8711    1.8650 C   0  0  0  0  0  0  0  0  0  0  0  0
   -5.7719   -2.1133    2.0028 H   0  0  0  0  0  0  0  0  0  0  0  0
   -4.1368   -0.7815    2.5438 C   0  0  0  0  0  0  0  0  0  0  0  0
   -4.7571   -0.1618    3.2094 H   0  0  0  0  0  0  0  0  0  0  0  0
   -2.7804   -0.4772    2.3756 C   0  0  0  0  0  0  0  0  0  0  0  0
   -2.3414    0.3828    2.9038 H   0  0  0  0  0  0  0  0  0  0  0  0
   -0.1902   -0.5972    3.4764 H   0  0  0  0  0  0  0  0  0  0  0  0
    2.2858   -0.2619    3.1474 H   0  0  0  0  0  0  0  0  0  0  0  0
  1  4  1  0  0  0  0
  2 16  1  0  0  0  0
  2  3  1  0  0  0  0
  3 27  1  0  0  0  0
  4  3  2  0  0  0  0
  4 28  1  0  0  0  0
  5  1  1  0  0  0  0
  5  6  1  0  0  0  0
  6  7  1  0  0  0  0
  8  6  2  0  0  0  0
  8  9  1  0  0  0  0
 10  8  1  0  0  0  0
 11 10  1  0  0  0  0
 12 14  1  0  0  0  0
 12 10  2  0  0  0  0
 13 12  1  0  0  0  0
 14  5  2  0  0  0  0
 15 14  1  0  0  0  0
 16 25  1  0  0  0  0
 17 19  1  0  0  0  0
 17 16  2  0  0  0  0
 18 17  1  0  0  0  0
 19 21  2  0  0  0  0
 20 19  1  0  0  0  0
 21 22  1  0  0  0  0
 21 23  1  0  0  0  0
 23 24  1  0  0  0  0
 25 23  2  0  0  0  0
 25 26  1  0  0  0  0
M  END
