2,3
q = -1.0

 28 29  0  0  0  0  0  0  0  0999 V2000
    7.3062   -0.2456    0.2194 F   0  0  0  0  0  0  0  0  0  0  0  0
    1.8275   -0.7452    1.0695 N   0  0  0  0  0  2  0  0  0  0  0  0
   -0.8818   -0.9676    1.3354 C   0  0  0  0  0  2  0  0  0  0  0  0
   -0.1083   -0.6892    2.4531 C   0  0  0  0  0  0  0  0  0  0  0  0
   -0.5136   -0.6403    3.4797 H   0  0  0  0  0  0  0  0  0  0  0  0
    1.3025   -0.5924    2.2735 C   0  0  0  0  0  0  0  0  0  0  0  0
    1.9729   -0.4457    3.1420 H   0  0  0  0  0  0  0  0  0  0  0  0
    3.2253   -0.6277    0.8913 C   0  0  0  0  0  0  0  0  0  0  0  0
    4.0004    0.2814    1.6482 C   0  0  0  0  0  0  0  0  0  0  0  0
    3.5113    0.9372    2.3809 H   0  0  0  0  0  0  0  0  0  0  0  0
    5.3756    0.4122    1.4272 C   0  0  0  0  0  0  0  0  0  0  0  0
    5.9777    1.1454    1.9824 H   0  0  0  0  0  0  0  0  0  0  0  0
    5.9867   -0.3792    0.4472 C   0  0  0  0  0  0  0  0  0  0  0  0
    5.2487   -1.3019   -0.3056 C   0  0  0  0  0  0  0  0  0  0  0  0
    5.7591   -1.9166   -1.0605 H   0  0  0  0  0  0  0  0  0  0  0  0
    3.8731   -1.4184   -0.0835 C   0  0  0  0  0  0  0  0  0  0  0  0
    3.2820   -2.1415   -0.6596 H   0  0  0  0  0  0  0  0  0  0  0  0
   -2.3274   -1.1841    1.5178 C   0  0  0  0  0  0  0  0  0  0  0  0
   -3.0018   -2.2243    0.8297 C   0  0  0  0  0  0  0  0  0  0  0  0
   -2.4292   -2.8686    0.1481 H   0  0  0  0  0  0  0  0  0  0  0  0
   -4.3667   -2.4632    1.0395 C   0  0  0  0  0  0  0  0  0  0  0  0
   -4.8585   -3.2952    0.5124 H   0  0  0  0  0  0  0  0  0  0  0  0
   -5.1060   -1.6427    1.9070 C   0  0  0  0  0  0  0  0  0  0  0  0
   -6.1825   -1.8172    2.0549 H   0  0  0  0  0  0  0  0  0  0  0  0
   -4.4642   -0.5836    2.5701 C   0  0  0  0  0  0  0  0  0  0  0  0
   -5.0400    0.0804    3.2330 H   0  0  0  0  0  0  0  0  0  0  0  0
   -3.0928   -0.3658    2.3898 C   0  0  0  0  0  0  0  0  0  0  0  0
   -2.5977    0.4709    2.9056 H   0  0  0  0  0  0  0  0  0  0  0  0
  1 13  1  0  0  0  0
  2  6  1  0  0  0  0
  3 18  1  0  0  0  0
  3  4  1  0  0  0  0
  4  5  1  0  0  0  0
  6  4  2  0  0  0  0
  6  7  1  0  0  0  0
  8  2  1  0  0  0  0
  8  9  1  0  0  0  0
  9 10  1  0  0  0  0
 11  9  2  0  0  0  0
 11 12  1  0  0  0  0
 13 11  1  0  0  0  0
 14 16  1  0  0  0  0
 14 13  2  0  0  0  0
 15 14  1  0  0  0  0
 16  8  2  0  0  0  0
 17 16  1  0  0  0  0
 18 27  1  0  0  0  0
 19 21  1  0  0  0  0
 19 18  2  0  0  0  0
 20 19  1  0  0  0  0
 21 23  2  0  0  0  0
 22 21  1  0  0  0  0
 23 24  1  0  0  0  0
 23 25  1  0  0  0  0
 25 26  1  0  0  0  0
 27 25  2  0  0  0  0
 27 28  1  0  0  0  0
M  END
