1,4
q = 0.0, confidence = 1.0

 53 55  0  0  1  0  0  0  0  0999 V2000
   -1.0298   -0.1916    0.1047 N   0  0  0  0  0  2  0  0  0  0  0  0
   -0.6991   -2.4407   -0.0815 N   0  0  0  0  0  0  0  0  0  0  0  0
    1.2197   -3.4199    0.1778 N   0  0  0  0  0  0  0  0  0  0  0  0
    0.6620   -2.1787    0.0892 C   0  0  0  0  0  2  0  0  0  0  0  0
    0.2521   -4.4219    0.0743 C   0  0  0  0  0  0  0  0  0  0  0  0
   -0.9619   -3.8145   -0.0798 C   0  0  0  0  0  0  0  0  0  0  0  0
    2.6421   -3.6795    0.3654 C   0  0  0  0  0  0  0  0  0  0  0  0
   -1.5937   -1.3525   -0.0927 C   0  0  2  0  0  3  0  0  0  0  0  0
   -3.0139   -1.6302   -0.4202 C   0  0  0  0  0  0  0  0  0  0  0  0
   -4.0905   -1.0997    0.3225 C   0  0  0  0  0  0  0  0  0  0  0  0
   -5.4110   -1.3322   -0.0862 C   0  0  0  0  0  0  0  0  0  0  0  0
   -5.6785   -2.0863   -1.2383 C   0  0  0  0  0  0  0  0  0  0  0  0
   -4.6142   -2.6137   -1.9874 C   0  0  0  0  0  0  0  0  0  0  0  0
   -3.2927   -2.3910   -1.5823 C   0  0  0  0  0  0  0  0  0  0  0  0
   -1.7850    0.9969    0.3261 C   0  0  0  0  0  0  0  0  0  0  0  0
   -2.2104    1.2681    1.6584 C   0  0  0  0  0  0  0  0  0  0  0  0
   -2.8654    2.4894    1.8952 C   0  0  0  0  0  0  0  0  0  0  0  0
   -3.0840    3.4098    0.8610 C   0  0  0  0  0  0  0  0  0  0  0  0
   -2.6364    3.1264   -0.4329 C   0  0  0  0  0  0  0  0  0  0  0  0
   -1.9672    1.9242   -0.7272 C   0  0  0  0  0  0  0  0  0  0  0  0
   -1.9132    0.2948    2.7992 C   0  0  0  0  0  0  0  0  0  0  0  0
   -0.4807    0.4823    3.3350 C   0  0  0  0  0  0  0  0  0  0  0  0
   -2.9373    0.3608    3.9403 C   0  0  0  0  0  0  0  0  0  0  0  0
   -1.4679    1.6229   -2.1324 C   0  0  0  0  0  0  0  0  0  0  0  0
   -2.5921    1.0182   -2.9947 C   0  0  0  0  0  0  0  0  0  0  0  0
   -0.8481    2.8486   -2.8163 C   0  0  0  0  0  0  0  0  0  0  0  0
    0.5067   -5.4846    0.1356 H   0  0  0  0  0  0  0  0  0  0  0  0
   -1.9686   -4.2304   -0.1607 H   0  0  0  0  0  0  0  0  0  0  0  0
    2.7661   -4.6240    0.9276 H   0  0  0  0  0  0  0  0  0  0  0  0
    3.1624   -3.7528   -0.6094 H   0  0  0  0  0  0  0  0  0  0  0  0
    3.0933   -2.8413    0.9254 H   0  0  0  0  0  0  0  0  0  0  0  0
   -3.8975   -0.5031    1.2209 H   0  0  0  0  0  0  0  0  0  0  0  0
   -6.2390   -0.9136    0.5050 H   0  0  0  0  0  0  0  0  0  0  0  0
   -6.7173   -2.2599   -1.5570 H   0  0  0  0  0  0  0  0  0  0  0  0
   -4.8128   -3.1929   -2.9015 H   0  0  0  0  0  0  0  0  0  0  0  0
   -2.4631   -2.7772   -2.1929 H   0  0  0  0  0  0  0  0  0  0  0  0
   -3.2073    2.7292    2.9121 H   0  0  0  0  0  0  0  0  0  0  0  0
   -3.5977    4.3600    1.0714 H   0  0  0  0  0  0  0  0  0  0  0  0
   -2.7910    3.8617   -1.2357 H   0  0  0  0  0  0  0  0  0  0  0  0
   -1.9614   -0.7352    2.3834 H   0  0  0  0  0  0  0  0  0  0  0  0
   -0.2696   -0.2496    4.1417 H   0  0  0  0  0  0  0  0  0  0  0  0
   -0.3486    1.5018    3.7515 H   0  0  0  0  0  0  0  0  0  0  0  0
    0.2747    0.3349    2.5325 H   0  0  0  0  0  0  0  0  0  0  0  0
   -2.7493   -0.4531    4.6688 H   0  0  0  0  0  0  0  0  0  0  0  0
   -2.8697    1.3162    4.4997 H   0  0  0  0  0  0  0  0  0  0  0  0
   -3.9799    0.2593    3.5740 H   0  0  0  0  0  0  0  0  0  0  0  0
   -0.6618    0.8647   -2.0248 H   0  0  0  0  0  0  0  0  0  0  0  0
   -3.0306    0.1121   -2.5340 H   0  0  0  0  0  0  0  0  0  0  0  0
   -3.4147    1.7512   -3.1323 H   0  0  0  0  0  0  0  0  0  0  0  0
   -2.2107    0.7448   -4.0003 H   0  0  0  0  0  0  0  0  0  0  0  0
   -0.3677    2.5474   -3.7692 H   0  0  0  0  0  0  0  0  0  0  0  0
   -1.6134    3.6132   -3.0660 H   0  0  0  0  0  0  0  0  0  0  0  0
   -0.0751    3.3182   -2.1790 H   0  0  0  0  0  0  0  0  0  0  0  0
  1 15  1  0  0  0  0
  2  6  1  0  0  0  0
  2  4  1  0  0  0  0
  3  7  1  0  0  0  0
  4  3  1  0  0  0  0
  5 27  1  0  0  0  0
  5  3  1  0  0  0  0
  6  5  2  0  0  0  0
  7 31  1  0  0  0  0
  7 29  1  0  0  0  0
  8  2  1  0  0  0  0
  8  1  1  6  0  0  0
  9  8  1  0  0  0  0
  9 10  1  0  0  0  0
 10 32  1  0  0  0  0
 11 10  2  0  0  0  0
 11 33  1  0  0  0  0
 12 11  1  0  0  0  0
 13 14  1  0  0  0  0
 13 12  2  0  0  0  0
 14  9  2  0  0  0  0
 15 16  1  0  0  0  0
 16 17  2  0  0  0  0
 16 21  1  0  0  0  0
 17 37  1  0  0  0  0
 18 38  1  0  0  0  0
 18 17  1  0  0  0  0
 19 18  2  0  0  0  0
 20 19  1  0  0  0  0
 20 15  2  0  0  0  0
 21 22  1  0  0  0  0
 21 23  1  0  0  0  0
 22 42  1  0  0  0  0
 22 41  1  0  0  0  0
 23 45  1  0  0  0  0
 23 44  1  0  0  0  0
 24 47  1  0  0  0  0
 24 20  1  0  0  0  0
 25 48  1  0  0  0  0
 25 24  1  0  0  0  0
 26 53  1  0  0  0  0
 26 24  1  0  0  0  0
 28  6  1  0  0  0  0
 30  7  1  0  0  0  0
 34 12  1  0  0  0  0
 35 13  1  0  0  0  0
 36 14  1  0  0  0  0
 39 19  1  0  0  0  0
 40 21  1  0  0  0  0
 43 22  1  0  0  0  0
 46 23  1  0  0  0  0
 49 25  1  0  0  0  0
 50 25  1  0  0  0  0
 51 26  1  0  0  0  0
 52 26  1  0  0  0  0
M  END
