6,8
q = -1.0

 25 27  0  0  1  0  0  0  0  0999 V2000
    2.3321    0.9821   -0.3032 C   0  0  1  0  0  0  0  0  0  0  0  0
    2.5542   -0.4251   -0.2933 N   0  0  0  0  0  0  0  0  0  0  0  0
    3.8400   -0.8848   -0.3482 N   0  0  0  0  0  0  0  0  0  0  0  0
    3.6903   -2.2114   -0.2719 C   0  0  0  0  0  0  0  0  0  0  0  0
    2.3249   -2.5968   -0.1671 C   0  0  0  0  0  0  0  0  0  0  0  0
    1.5765   -1.4110   -0.1814 C   0  0  0  0  0  3  0  0  0  0  0  0
    1.3632    1.3791   -1.3181 N   0  0  0  0  0  0  0  0  0  0  0  0
    0.1412    0.8065   -1.3481 N   0  0  0  0  0  2  0  0  0  0  0  0
   -0.5340    1.4256   -2.3323 C   0  0  0  0  0  3  0  0  0  0  0  0
    0.2692    2.4233   -2.9327 C   0  0  0  0  0  0  0  0  0  0  0  0
    1.4802    2.3672   -2.2494 C   0  0  0  0  0  0  0  0  0  0  0  0
    1.8693    1.4665    1.0036 N   0  0  0  0  0  0  0  0  0  0  0  0
    1.3359    2.7006    1.0968 N   0  0  0  0  0  0  0  0  0  0  0  0
    1.0824    2.8548    2.4051 C   0  0  0  0  0  0  0  0  0  0  0  0
    1.4658    1.7107    3.1540 C   0  0  0  0  0  0  0  0  0  0  0  0
    1.9761    0.8269    2.2083 C   0  0  0  0  0  0  0  0  0  0  0  0
    3.2965    1.4576   -0.5709 H   0  0  0  0  0  0  0  0  0  0  0  0
    4.5822   -2.8524   -0.2997 H   0  0  0  0  0  0  0  0  0  0  0  0
    1.9193   -3.6116   -0.0966 H   0  0  0  0  0  0  0  0  0  0  0  0
   -1.5572    1.1106   -2.5660 H   0  0  0  0  0  0  0  0  0  0  0  0
    0.0046    3.0920   -3.7572 H   0  0  0  0  0  0  0  0  0  0  0  0
    2.4031    2.9487   -2.3408 H   0  0  0  0  0  0  0  0  0  0  0  0
    0.6312    3.7897    2.7624 H   0  0  0  0  0  0  0  0  0  0  0  0
    1.3766    1.5412    4.2318 H   0  0  0  0  0  0  0  0  0  0  0  0
    2.3793   -0.1877    2.2834 H   0  0  0  0  0  0  0  0  0  0  0  0
  1 17  1  6  0  0  0
  1  2  1  0  0  0  0
  1 12  1  0  0  0  0
  2  6  1  0  0  0  0
  3  2  1  0  0  0  0
  3  4  2  0  0  0  0
  4  5  1  0  0  0  0
  5 19  1  0  0  0  0
  6  5  2  0  0  0  0
  7  1  1  0  0  0  0
  8  7  1  0  0  0  0
  9  8  1  0  0  0  0
 10  9  1  0  0  0  0
 10 11  2  0  0  0  0
 11  7  1  0  0  0  0
 12 13  1  0  0  0  0
 12 16  1  0  0  0  0
 13 14  2  0  0  0  0
 14 23  1  0  0  0  0
 14 15  1  0  0  0  0
 15 24  1  0  0  0  0
 16 25  1  0  0  0  0
 16 15  2  0  0  0  0
 18  4  1  0  0  0  0
 20  9  1  0  0  0  0
 21 10  1  0  0  0  0
 22 11  1  0  0  0  0
M  END
