2,3
q = -1.0

 38 42  0  0  0  0  0  0  0  0999 V2000
    6.6112   -2.6675   -0.1698 Br  0  0  0  0  0  0  0  0  0  0  0  0
    0.8285   -0.6878   -0.0449 N   0  0  0  0  0  2  0  0  0  0  0  0
   -1.4299    0.5657   -0.1406 C   0  0  0  0  0  3  0  0  0  0  0  0
   -2.6190    1.2755   -0.3348 C   0  0  0  0  0  0  0  0  0  0  0  0
   -2.5918    2.3577   -0.5335 H   0  0  0  0  0  0  0  0  0  0  0  0
   -3.8807    0.6353   -0.3003 C   0  0  0  0  0  0  0  0  0  0  0  0
   -5.1044    1.3718   -0.4669 C   0  0  0  0  0  0  0  0  0  0  0  0
   -5.0377    2.4581   -0.6348 H   0  0  0  0  0  0  0  0  0  0  0  0
   -6.3292    0.7500   -0.4183 C   0  0  0  0  0  0  0  0  0  0  0  0
   -7.2549    1.3326   -0.5466 H   0  0  0  0  0  0  0  0  0  0  0  0
   -6.4386   -0.6689   -0.2058 C   0  0  0  0  0  0  0  0  0  0  0  0
   -7.6850   -1.3311   -0.1560 C   0  0  0  0  0  0  0  0  0  0  0  0
   -8.6066   -0.7411   -0.2791 H   0  0  0  0  0  0  0  0  0  0  0  0
   -7.7565   -2.7179    0.0431 C   0  0  0  0  0  0  0  0  0  0  0  0
   -8.7376   -3.2151    0.0782 H   0  0  0  0  0  0  0  0  0  0  0  0
   -6.5872   -3.4729    0.1934 C   0  0  0  0  0  0  0  0  0  0  0  0
   -6.6448   -4.5621    0.3446 H   0  0  0  0  0  0  0  0  0  0  0  0
   -5.3153   -2.8543    0.1504 C   0  0  0  0  0  0  0  0  0  0  0  0
   -4.0938   -3.5947    0.2914 C   0  0  0  0  0  0  0  0  0  0  0  0
   -4.1548   -4.6840    0.4411 H   0  0  0  0  0  0  0  0  0  0  0  0
   -2.8671   -2.9720    0.2422 C   0  0  0  0  0  0  0  0  0  0  0  0
   -1.9556   -3.5759    0.3575 H   0  0  0  0  0  0  0  0  0  0  0  0
   -2.7533   -1.5523    0.0557 C   0  0  0  0  0  0  0  0  0  0  0  0
   -1.5021   -0.8586    0.0117 C   0  0  0  0  0  0  0  0  0  0  0  0
   -3.9574   -0.7877   -0.0903 C   0  0  0  0  0  0  0  0  0  0  0  0
   -5.2325   -1.4343   -0.0465 C   0  0  0  0  0  0  0  0  0  0  0  0
   -0.2155   -1.4867    0.0334 C   0  0  0  0  0  3  0  0  0  0  0  0
   -0.0630   -2.5804    0.0468 H   0  0  0  0  0  0  0  0  0  0  0  0
    2.1480   -1.1825   -0.0745 C   0  0  0  0  0  0  0  0  0  0  0  0
    3.0215   -0.7356   -1.0902 C   0  0  0  0  0  0  0  0  0  0  0  0
    2.6234   -0.0421   -1.8489 H   0  0  0  0  0  0  0  0  0  0  0  0
    4.3435   -1.1886   -1.1264 C   0  0  0  0  0  0  0  0  0  0  0  0
    5.0231   -0.8542   -1.9231 H   0  0  0  0  0  0  0  0  0  0  0  0
    4.8031   -2.0758   -0.1355 C   0  0  0  0  0  0  0  0  0  0  0  0
    3.9479   -2.5232    0.8832 C   0  0  0  0  0  0  0  0  0  0  0  0
    4.3216   -3.2083    1.6572 H   0  0  0  0  0  0  0  0  0  0  0  0
    2.6183   -2.0767    0.9100 C   0  0  0  0  0  0  0  0  0  0  0  0
    1.9433   -2.4012    1.7161 H   0  0  0  0  0  0  0  0  0  0  0  0
  1 34  1  0  0  0  0
  2 27  1  0  0  0  0
  3 24  1  0  0  0  0
  4  6  1  0  0  0  0
  4  3  2  0  0  0  0
  5  4  1  0  0  0  0
  6 25  1  0  0  0  0
  7  9  1  0  0  0  0
  7  6  2  0  0  0  0
  8  7  1  0  0  0  0
  9 11  2  0  0  0  0
 10  9  1  0  0  0  0
 11 12  1  0  0  0  0
 11 26  1  0  0  0  0
 12 14  2  0  0  0  0
 13 12  1  0  0  0  0
 14 15  1  0  0  0  0
 14 16  1  0  0  0  0
 16 17  1  0  0  0  0
 18 16  2  0  0  0  0
 18 19  1  0  0  0  0
 19 20  1  0  0  0  0
 21 19  2  0  0  0  0
 21 22  1  0  0  0  0
 23 21  1  0  0  0  0
 24 27  1  0  0  0  0
 24 23  2  0  0  0  0
 25 26  2  0  0  0  0
 25 23  1  0  0  0  0
 26 18  1  0  0  0  0
 27 28  1  0  0  0  0
 29  2  1  0  0  0  0
 29 37  1  0  0  0  0
 30 29  2  0  0  0  0
 31 30  1  0  0  0  0
 32 30  1  0  0  0  0
 32 34  2  0  0  0  0
 33 32  1  0  0  0  0
 34 35  1  0  0  0  0
 35 37  2  0  0  0  0
 35 36  1  0  0  0  0
 37 38  1  0  0  0  0
M  END
