5,13
q = -1.0

 31 31  0  0  0  0  0  0  0  0999 V2000
   -1.4508    3.1551    1.1252 O   0  0  0  0  0  0  0  0  0  0  0  0
    0.4140    2.2631    2.0442 O   0  0  0  0  0  0  0  0  0  0  0  0
    2.4867    2.7601    0.2690 O   0  0  0  0  0  0  0  0  0  0  0  0
    2.0243    2.1139   -1.8522 O   0  0  0  0  0  0  0  0  0  0  0  0
   -2.0066    0.3679   -0.0003 N   0  0  0  0  0  2  0  0  0  0  0  0
   -2.6887   -0.0608    1.0862 C   0  0  0  0  0  3  0  0  0  0  0  0
   -4.0271    0.2806    1.2938 C   0  0  0  0  0  0  0  0  0  0  0  0
   -4.6800    1.0676    0.3361 C   0  0  0  0  0  0  0  0  0  0  0  0
   -3.9649    1.5000   -0.7869 C   0  0  0  0  0  0  0  0  0  0  0  0
   -2.6136    1.1480   -0.9321 C   0  0  0  0  0  0  0  0  0  0  0  0
   -1.7396    1.6445   -2.0393 C   0  0  0  0  0  0  0  0  0  0  0  0
   -0.6814    2.6527   -1.5264 C   0  0  0  0  0  0  0  0  0  0  0  0
    0.1950    2.1915   -0.3496 C   0  0  0  0  0  3  0  0  0  0  0  0
   -0.3623    2.6125    0.9718 C   0  0  0  0  0  0  0  0  0  0  0  0
    1.6566    2.4015   -0.5537 C   0  0  0  0  0  0  0  0  0  0  0  0
   -0.1341    2.5993    3.3184 C   0  0  0  0  0  0  0  0  0  0  0  0
    3.4191    2.2420   -2.1233 C   0  0  0  0  0  0  0  0  0  0  0  0
   -2.1329   -0.7164    1.7723 H   0  0  0  0  0  0  0  0  0  0  0  0
   -4.5447   -0.0877    2.1900 H   0  0  0  0  0  0  0  0  0  0  0  0
   -5.7370    1.3455    0.4638 H   0  0  0  0  0  0  0  0  0  0  0  0
   -4.4382    2.1256   -1.5568 H   0  0  0  0  0  0  0  0  0  0  0  0
   -2.3591    2.1238   -2.8235 H   0  0  0  0  0  0  0  0  0  0  0  0
   -1.2243    0.7703   -2.4940 H   0  0  0  0  0  0  0  0  0  0  0  0
   -1.2122    3.5759   -1.2152 H   0  0  0  0  0  0  0  0  0  0  0  0
   -0.0273    2.9003   -2.3814 H   0  0  0  0  0  0  0  0  0  0  0  0
   -1.0777    2.0452    3.5058 H   0  0  0  0  0  0  0  0  0  0  0  0
   -0.3534    3.6837    3.3879 H   0  0  0  0  0  0  0  0  0  0  0  0
    0.6298    2.3142    4.0648 H   0  0  0  0  0  0  0  0  0  0  0  0
    4.0035    1.4781   -1.5684 H   0  0  0  0  0  0  0  0  0  0  0  0
    3.7968    3.2424   -1.8305 H   0  0  0  0  0  0  0  0  0  0  0  0
    3.5365    2.0869   -3.2115 H   0  0  0  0  0  0  0  0  0  0  0  0
  2 16  1  0  0  0  0
  4 15  1  0  0  0  0
  5  6  1  0  0  0  0
  6  7  1  0  0  0  0
  6 18  1  0  0  0  0
  7 19  1  0  0  0  0
  8 20  1  0  0  0  0
  8  7  2  0  0  0  0
  9  8  1  0  0  0  0
 10  9  2  0  0  0  0
 10  5  1  0  0  0  0
 11 12  1  0  0  0  0
 11 10  1  0  0  0  0
 12 24  1  0  0  0  0
 12 13  1  0  0  0  0
 13 14  1  0  0  0  0
 14  1  2  0  0  0  0
 14  2  1  0  0  0  0
 15 13  1  0  0  0  0
 15  3  2  0  0  0  0
 16 27  1  0  0  0  0
 16 26  1  0  0  0  0
 16 28  1  0  0  0  0
 17  4  1  0  0  0  0
 17 30  1  0  0  0  0
 17 29  1  0  0  0  0
 21  9  1  0  0  0  0
 22 11  1  0  0  0  0
 23 11  1  0  0  0  0
 25 12  1  0  0  0  0
 31 17  1  0  0  0  0
M  END
