2,20
q = -1.0

 32 34  0  0  0  0  0  0  0  0999 V2000
    6.3149    0.5102   -0.4603 O   0  0  0  0  0  0  0  0  0  0  0  0
    1.0831   -2.2560    0.5773 N   0  0  0  0  0  2  0  0  0  0  0  0
    0.4960   -3.4031    0.9491 C   0  0  0  0  0  0  0  0  0  0  0  0
   -0.5945   -3.3784    1.0881 H   0  0  0  0  0  0  0  0  0  0  0  0
    1.2251   -4.5922    1.1574 C   0  0  0  0  0  0  0  0  0  0  0  0
    0.6886   -5.5036    1.4565 H   0  0  0  0  0  0  0  0  0  0  0  0
    2.6080   -4.5913    0.9807 C   0  0  0  0  0  0  0  0  0  0  0  0
    3.1965   -5.5099    1.1311 H   0  0  0  0  0  0  0  0  0  0  0  0
    3.2637   -3.3880    0.6205 C   0  0  0  0  0  0  0  0  0  0  0  0
    4.6840   -3.2424    0.4441 C   0  0  0  0  0  3  0  0  0  0  0  0
    5.3229   -4.1298    0.5698 H   0  0  0  0  0  0  0  0  0  0  0  0
    5.2397   -2.0171    0.1368 C   0  0  0  0  0  0  0  0  0  0  0  0
    6.3271   -1.9136    0.0127 H   0  0  0  0  0  0  0  0  0  0  0  0
    4.4305   -0.8405   -0.0148 C   0  0  0  0  0  0  0  0  0  0  0  0
    4.9636    0.4565   -0.2976 C   0  0  0  0  0  0  0  0  0  0  0  0
    4.0844    1.5462   -0.3955 C   0  0  0  0  0  0  0  0  0  0  0  0
    4.4731    2.5515   -0.6089 H   0  0  0  0  0  0  0  0  0  0  0  0
    2.6841    1.3921   -0.2358 C   0  0  0  0  0  0  0  0  0  0  0  0
    2.0381    2.2734   -0.3453 H   0  0  0  0  0  0  0  0  0  0  0  0
    2.1192    0.1428    0.0234 C   0  0  0  0  0  3  0  0  0  0  0  0
    3.0155   -0.9552    0.1327 C   0  0  0  0  0  0  0  0  0  0  0  0
    2.4494   -2.2297    0.4386 C   0  0  0  0  0  0  0  0  0  0  0  0
    6.9765    1.7713   -0.6688 C   0  0  0  0  0  0  0  0  0  0  0  0
    6.3762    2.3732   -1.3889 H   0  0  0  0  0  0  0  0  0  0  0  0
    7.1168    2.5286    0.6508 C   0  0  0  0  0  0  0  0  0  0  0  0
    6.1310    2.7183    1.1177 H   0  0  0  0  0  0  0  0  0  0  0  0
    7.6139    3.5057    0.4870 H   0  0  0  0  0  0  0  0  0  0  0  0
    7.7287    1.9395    1.3635 H   0  0  0  0  0  0  0  0  0  0  0  0
    8.3183    1.4367   -1.3072 C   0  0  0  0  0  0  0  0  0  0  0  0
    8.9235    0.8067   -0.6241 H   0  0  0  0  0  0  0  0  0  0  0  0
    8.8862    2.3628   -1.5233 H   0  0  0  0  0  0  0  0  0  0  0  0
    8.1727    0.8823   -2.2545 H   0  0  0  0  0  0  0  0  0  0  0  0
  1 15  1  0  0  0  0
  2  3  1  0  0  0  0
  3  4  1  0  0  0  0
  3  5  2  0  0  0  0
  5  6  1  0  0  0  0
  7  8  1  0  0  0  0
  7  5  1  0  0  0  0
  9  7  2  0  0  0  0
 10 11  1  0  0  0  0
 10  9  1  0  0  0  0
 12 10  1  0  0  0  0
 13 12  1  0  0  0  0
 14 21  1  0  0  0  0
 14 12  2  0  0  0  0
 15 14  1  0  0  0  0
 16 15  2  0  0  0  0
 16 18  1  0  0  0  0
 17 16  1  0  0  0  0
 18 20  2  0  0  0  0
 19 18  1  0  0  0  0
 20 21  1  0  0  0  0
 21 22  2  0  0  0  0
 22  2  1  0  0  0  0
 22  9  1  0  0  0  0
 23  1  1  0  0  0  0
 23 25  1  0  0  0  0
 24 23  1  0  0  0  0
 25 26  1  0  0  0  0
 25 28  1  0  0  0  0
 27 25  1  0  0  0  0
 29 23  1  0  0  0  0
 29 30  1  0  0  0  0
 31 29  1  0  0  0  0
 32 29  1  0  0  0  0
M  END
