1,3
q = -1.0, confidence = 0.062

 48 50  0  0  1  0  0  0  0  0999 V2000
    1.9939    0.2049    0.0444 N   0  0  0  0  0  0  0  0  0  0  0  0
    2.2769    0.1809    1.0447 H   0  0  0  0  0  0  0  0  0  0  0  0
    0.2111   -1.4813    0.9806 C   0  0  0  0  0  3  0  0  0  0  0  0
   -0.5397   -2.2345    1.9030 C   0  0  0  0  0  0  0  0  0  0  0  0
   -1.4725   -1.8316    2.3249 H   0  0  0  0  0  0  0  0  0  0  0  0
   -0.1321   -3.5220    2.2943 C   0  0  0  0  0  0  0  0  0  0  0  0
   -0.7443   -4.0894    3.0128 H   0  0  0  0  0  0  0  0  0  0  0  0
    1.0394   -4.0866    1.7693 C   0  0  0  0  0  0  0  0  0  0  0  0
    1.3529   -5.0987    2.0672 H   0  0  0  0  0  0  0  0  0  0  0  0
    1.8183   -3.3486    0.8630 C   0  0  0  0  0  0  0  0  0  0  0  0
    2.7487   -3.7792    0.4625 H   0  0  0  0  0  0  0  0  0  0  0  0
    1.4157   -2.0562    0.4867 C   0  0  0  0  0  0  0  0  0  0  0  0
    2.1779   -1.1746   -0.4932 C   0  0  2  0  0  0  0  0  0  0  0  0
    3.7382   -1.2677   -0.6102 C   0  0  1  0  0  0  0  0  0  0  0  0
    4.0510   -2.0722   -1.2991 H   0  0  0  0  0  0  0  0  0  0  0  0
    4.0837    0.1418   -1.1579 C   0  0  0  0  0  0  0  0  0  0  0  0
    4.0361    0.1213   -2.2625 H   0  0  0  0  0  0  0  0  0  0  0  0
    5.0977    0.4739   -0.8676 H   0  0  0  0  0  0  0  0  0  0  0  0
    2.9775    1.0911   -0.5997 C   0  0  2  0  0  0  0  0  0  0  0  0
    2.4982    1.6746   -1.4112 H   0  0  0  0  0  0  0  0  0  0  0  0
    0.9005   -0.3265   -2.5901 C   0  0  0  0  0  0  0  0  0  0  0  0
    0.8141    0.6844   -2.1628 H   0  0  0  0  0  0  0  0  0  0  0  0
    0.2855   -0.5833   -3.8280 C   0  0  0  0  0  0  0  0  0  0  0  0
   -0.2412    0.2357   -4.3408 H   0  0  0  0  0  0  0  0  0  0  0  0
    0.3286   -1.8655   -4.3928 C   0  0  0  0  0  0  0  0  0  0  0  0
   -0.1606   -2.0656   -5.3582 H   0  0  0  0  0  0  0  0  0  0  0  0
    1.0009   -2.8948   -3.7122 C   0  0  0  0  0  0  0  0  0  0  0  0
    1.0425   -3.9079   -4.1406 H   0  0  0  0  0  0  0  0  0  0  0  0
    1.6097   -2.6398   -2.4757 C   0  0  0  0  0  0  0  0  0  0  0  0
    2.1013   -3.4641   -1.9369 H   0  0  0  0  0  0  0  0  0  0  0  0
    1.5624   -1.3563   -1.8941 C   0  0  0  0  0  0  0  0  0  0  0  0
    4.2924   -0.7192    1.6850 O   0  0  0  0  0  0  0  0  0  0  0  0
    4.9960   -2.6940    0.8204 O   0  0  0  0  0  0  0  0  0  0  0  0
    3.0777    2.1485    1.5863 O   0  0  0  0  0  0  0  0  0  0  0  0
    4.3267    2.9673   -0.1255 O   0  0  0  0  0  0  0  0  0  0  0  0
    4.3594   -1.5011    0.7514 C   0  0  0  0  0  0  0  0  0  0  0  0
    5.5287   -3.0269    2.1118 C   0  0  0  0  0  0  0  0  0  0  0  0
    6.0888   -3.9690    1.9781 H   0  0  0  0  0  0  0  0  0  0  0  0
    4.7046   -3.1654    2.8408 H   0  0  0  0  0  0  0  0  0  0  0  0
    6.1937   -2.2223    2.4825 H   0  0  0  0  0  0  0  0  0  0  0  0
    3.4487    2.1108    0.4304 C   0  0  0  0  0  0  0  0  0  0  0  0
    4.8142    4.0159    0.7438 C   0  0  0  0  0  0  0  0  0  0  0  0
    3.9440    4.6023    1.1066 H   0  0  0  0  0  0  0  0  0  0  0  0
    5.2836    3.5495    1.6355 H   0  0  0  0  0  0  0  0  0  0  0  0
    5.7883    4.8612   -0.0490 C   0  0  0  0  0  0  0  0  0  0  0  0
    6.1802    5.6811    0.5848 H   0  0  0  0  0  0  0  0  0  0  0  0
    5.2947    5.3120   -0.9326 H   0  0  0  0  0  0  0  0  0  0  0  0
    6.6471    4.2562   -0.4021 H   0  0  0  0  0  0  0  0  0  0  0  0
  1  2  1  0  0  0  0
  3  4  1  0  0  0  0
  4  6  2  0  0  0  0
  4  5  1  0  0  0  0
  6  7  1  0  0  0  0
  8  9  1  0  0  0  0
  8  6  1  0  0  0  0
 10  8  2  0  0  0  0
 11 10  1  0  0  0  0
 12 10  1  0  0  0  0
 12  3  2  0  0  0  0
 13 31  1  6  0  0  0
 13  1  1  0  0  0  0
 13 12  1  0  0  0  0
 14 15  1  6  0  0  0
 14 13  1  0  0  0  0
 14 36  1  0  0  0  0
 16 18  1  0  0  0  0
 16 14  1  0  0  0  0
 16 19  1  0  0  0  0
 17 16  1  0  0  0  0
 19 20  1  6  0  0  0
 19  1  1  0  0  0  0
 19 41  1  0  0  0  0
 21 22  1  0  0  0  0
 21 31  1  0  0  0  0
 23 21  2  0  0  0  0
 24 23  1  0  0  0  0
 25 23  1  0  0  0  0
 25 27  2  0  0  0  0
 26 25  1  0  0  0  0
 27 29  1  0  0  0  0
 28 27  1  0  0  0  0
 29 30  1  0  0  0  0
 29 31  2  0  0  0  0
 33 37  1  0  0  0  0
 35 41  1  0  0  0  0
 35 42  1  0  0  0  0
 36 33  1  0  0  0  0
 36 32  2  0  0  0  0
 37 40  1  0  0  0  0
 37 39  1  0  0  0  0
 38 37  1  0  0  0  0
 41 34  2  0  0  0  0
 42 43  1  0  0  0  0
 42 44  1  0  0  0  0
 45 46  1  0  0  0  0
 45 42  1  0  0  0  0
 47 45  1  0  0  0  0
 48 45  1  0  0  0  0
M  END
