2,4
q = -1.0

 33 33  0  0  0  0  0  0  0  0999 V2000
   -5.1543    2.7314   -0.6004 Br  0  0  0  0  0  0  0  0  0  0  0  0
   -2.2878   -3.0833   -0.2975 N   0  0  0  0  0  0  0  0  0  0  0  0
   -1.2204    3.3489    1.7283 N   0  0  0  0  0  0  0  0  0  0  0  0
   -1.6164   -0.4148   -0.2479 C   0  0  0  0  0  3  0  0  0  0  0  0
   -2.8816   -0.7621   -0.7941 C   0  0  0  0  0  0  0  0  0  0  0  0
   -3.9166    0.1775   -0.8867 C   0  0  0  0  0  0  0  0  0  0  0  0
   -4.8934   -0.0983   -1.3120 H   0  0  0  0  0  0  0  0  0  0  0  0
   -3.7074    1.4847   -0.4198 C   0  0  0  0  0  0  0  0  0  0  0  0
   -2.4845    1.8705    0.1649 C   0  0  0  0  0  0  0  0  0  0  0  0
   -1.4587    0.9023    0.2299 C   0  0  0  0  0  0  0  0  0  0  0  0
   -0.5152    1.2207    0.6967 H   0  0  0  0  0  0  0  0  0  0  0  0
   -3.0357   -2.1902   -1.2348 C   0  0  0  0  0  0  0  0  0  0  0  0
   -4.1032   -2.5078   -1.3005 H   0  0  0  0  0  0  0  0  0  0  0  0
   -2.5797   -2.3356   -2.2371 H   0  0  0  0  0  0  0  0  0  0  0  0
   -2.1413   -4.4111   -0.9088 C   0  0  0  0  0  0  0  0  0  0  0  0
   -3.1343   -4.8488   -1.1668 H   0  0  0  0  0  0  0  0  0  0  0  0
   -1.6380   -5.0990   -0.2054 H   0  0  0  0  0  0  0  0  0  0  0  0
   -1.5341   -4.3302   -1.8305 H   0  0  0  0  0  0  0  0  0  0  0  0
   -2.9990   -3.1847    0.9912 C   0  0  0  0  0  0  0  0  0  0  0  0
   -3.1427   -2.1713    1.4080 H   0  0  0  0  0  0  0  0  0  0  0  0
   -2.3940   -3.7775    1.7027 H   0  0  0  0  0  0  0  0  0  0  0  0
   -3.9941   -3.6734    0.8631 H   0  0  0  0  0  0  0  0  0  0  0  0
   -2.2468    3.2708    0.6981 C   0  0  0  0  0  0  0  0  0  0  0  0
   -1.9280    3.9186   -0.1495 H   0  0  0  0  0  0  0  0  0  0  0  0
   -3.2245    3.6974    1.0466 H   0  0  0  0  0  0  0  0  0  0  0  0
   -1.6233    2.7019    2.9658 C   0  0  0  0  0  0  0  0  0  0  0  0
   -0.7814    2.7122    3.6875 H   0  0  0  0  0  0  0  0  0  0  0  0
   -1.8978    1.6459    2.7754 H   0  0  0  0  0  0  0  0  0  0  0  0
   -2.5026    3.2036    3.4530 H   0  0  0  0  0  0  0  0  0  0  0  0
   -0.7909    4.7154    1.9575 C   0  0  0  0  0  0  0  0  0  0  0  0
   -1.6036    5.3725    2.3710 H   0  0  0  0  0  0  0  0  0  0  0  0
   -0.4395    5.1694    1.0096 H   0  0  0  0  0  0  0  0  0  0  0  0
    0.0523    4.7309    2.6778 H   0  0  0  0  0  0  0  0  0  0  0  0
  1  8  1  0  0  0  0
  2 19  1  0  0  0  0
  3 30  1  0  0  0  0
  3 26  1  0  0  0  0
  4 10  1  0  0  0  0
  5  4  2  0  0  0  0
  6  5  1  0  0  0  0
  6  8  2  0  0  0  0
  7  6  1  0  0  0  0
  8  9  1  0  0  0  0
  9 10  2  0  0  0  0
  9 23  1  0  0  0  0
 10 11  1  0  0  0  0
 12  5  1  0  0  0  0
 12  2  1  0  0  0  0
 13 12  1  0  0  0  0
 14 12  1  0  0  0  0
 15  2  1  0  0  0  0
 15 17  1  0  0  0  0
 16 15  1  0  0  0  0
 18 15  1  0  0  0  0
 19 20  1  0  0  0  0
 19 21  1  0  0  0  0
 22 19  1  0  0  0  0
 23 25  1  0  0  0  0
 23  3  1  0  0  0  0
 24 23  1  0  0  0  0
 26 29  1  0  0  0  0
 26 27  1  0  0  0  0
 28 26  1  0  0  0  0
 30 31  1  0  0  0  0
 30 33  1  0  0  0  0
 32 30  1  0  0  0  0
M  END
