2,3
q = 0.0, confidence = 0.996

 48 50  0  0  1  0  0  0  0  0999 V2000
   -1.3191    2.6347   -0.0384 N   0  0  0  0  0  2  0  0  0  0  0  0
    2.6384    0.5048    0.2293 N   0  0  0  0  0  2  0  0  0  0  0  0
    0.0086    0.7852    0.1160 C   0  0  0  0  0  3  0  0  0  0  0  0
    3.1963    2.8650    0.1283 C   0  0  0  0  0  0  0  0  0  0  0  0
    2.8702    3.9101    0.0591 H   0  0  0  0  0  0  0  0  0  0  0  0
   -2.9828    0.1213   -1.2393 C   0  0  0  0  0  0  0  0  0  0  0  0
    2.2504    1.8229    0.1438 C   0  0  2  0  0  3  0  0  0  0  0  0
   -1.2596    1.2971    0.0387 N   0  0  0  0  0  0  0  0  0  0  0  0
   -4.1965   -0.6576    1.2063 C   0  0  0  0  0  0  0  0  0  0  0  0
   -4.6650   -0.9892    2.1436 H   0  0  0  0  0  0  0  0  0  0  0  0
   -0.0491    3.0170   -0.0085 N   0  0  0  0  0  0  0  0  0  0  0  0
   -4.7562   -1.0362   -0.0211 C   0  0  0  0  0  0  0  0  0  0  0  0
   -5.6659   -1.6556   -0.0364 H   0  0  0  0  0  0  0  0  0  0  0  0
   -2.3986    0.5529    2.5751 C   0  0  0  0  0  0  0  0  0  0  0  0
   -1.3089    0.6624    2.3931 H   0  0  0  0  0  0  0  0  0  0  0  0
   -3.0305    0.1267    1.2561 C   0  0  0  0  0  0  0  0  0  0  0  0
   -4.1532   -0.6596   -1.2268 C   0  0  0  0  0  0  0  0  0  0  0  0
   -4.5838   -0.9965   -2.1804 H   0  0  0  0  0  0  0  0  0  0  0  0
   -2.2885    0.5126   -2.5358 C   0  0  0  0  0  0  0  0  0  0  0  0
   -1.2113    0.6614   -2.3087 H   0  0  0  0  0  0  0  0  0  0  0  0
    4.9459    1.2110    0.2817 C   0  0  0  0  0  0  0  0  0  0  0  0
    6.0037    0.9187    0.3340 H   0  0  0  0  0  0  0  0  0  0  0  0
    0.2417    4.4386   -0.0983 C   0  0  0  0  0  0  0  0  0  0  0  0
   -0.7212    4.9718   -0.1762 H   0  0  0  0  0  0  0  0  0  0  0  0
    0.8540    4.6423   -0.9978 H   0  0  0  0  0  0  0  0  0  0  0  0
    0.7822    4.7751    0.8073 H   0  0  0  0  0  0  0  0  0  0  0  0
   -2.3308   -0.5984   -3.5925 C   0  0  0  0  0  0  0  0  0  0  0  0
   -1.6801   -0.3236   -4.4458 H   0  0  0  0  0  0  0  0  0  0  0  0
   -1.9490   -1.5516   -3.1785 H   0  0  0  0  0  0  0  0  0  0  0  0
   -3.3536   -0.7661   -3.9902 H   0  0  0  0  0  0  0  0  0  0  0  0
    0.8058    1.9454    0.0890 C   0  0  0  0  0  0  0  0  0  0  0  0
   -2.9446    1.9258    3.0131 C   0  0  0  0  0  0  0  0  0  0  0  0
   -2.7840    2.6950    2.2313 H   0  0  0  0  0  0  0  0  0  0  0  0
   -4.0357    1.8676    3.2068 H   0  0  0  0  0  0  0  0  0  0  0  0
   -2.4496    2.2658    3.9460 H   0  0  0  0  0  0  0  0  0  0  0  0
   -2.4746    0.5182    0.0170 C   0  0  0  0  0  0  0  0  0  0  0  0
   -2.8585    1.8375   -3.0755 C   0  0  0  0  0  0  0  0  0  0  0  0
   -2.3208    2.1447   -3.9960 H   0  0  0  0  0  0  0  0  0  0  0  0
   -3.9347    1.7328   -3.3274 H   0  0  0  0  0  0  0  0  0  0  0  0
   -2.7661    2.6525   -2.3295 H   0  0  0  0  0  0  0  0  0  0  0  0
    3.9542    0.2234    0.2938 C   0  0  0  0  0  0  0  0  0  0  0  0
    4.2140   -0.8434    0.3494 H   0  0  0  0  0  0  0  0  0  0  0  0
   -2.5494   -0.4939    3.6856 C   0  0  0  0  0  0  0  0  0  0  0  0
   -1.9602   -0.1904    4.5736 H   0  0  0  0  0  0  0  0  0  0  0  0
   -3.6038   -0.6056    4.0127 H   0  0  0  0  0  0  0  0  0  0  0  0
   -2.1756   -1.4838    3.3593 H   0  0  0  0  0  0  0  0  0  0  0  0
    4.5590    2.5560    0.1963 C   0  0  0  0  0  0  0  0  0  0  0  0
    5.3105    3.3589    0.1806 H   0  0  0  0  0  0  0  0  0  0  0  0
  1 11  1  0  0  0  0
  1  8  1  0  0  0  0
  2 41  1  0  0  0  0
  4  7  1  0  0  0  0
  4 47  2  0  0  0  0
  5  4  1  0  0  0  0
  6 17  2  0  0  0  0
  6 36  1  0  0  0  0
  7 31  1  1  0  0  0
  7  2  1  0  0  0  0
  8  3  1  0  0  0  0
  9 16  1  0  0  0  0
  9 10  1  0  0  0  0
 11 31  1  0  0  0  0
 12  9  2  0  0  0  0
 13 12  1  0  0  0  0
 14 32  1  0  0  0  0
 14 43  1  0  0  0  0
 15 14  1  0  0  0  0
 16 14  1  0  0  0  0
 17 12  1  0  0  0  0
 18 17  1  0  0  0  0
 19 20  1  0  0  0  0
 19  6  1  0  0  0  0
 21 41  2  0  0  0  0
 21 22  1  0  0  0  0
 23 11  1  0  0  0  0
 23 26  1  0  0  0  0
 24 23  1  0  0  0  0
 25 23  1  0  0  0  0
 27 29  1  0  0  0  0
 27 19  1  0  0  0  0
 28 27  1  0  0  0  0
 30 27  1  0  0  0  0
 31  3  2  0  0  0  0
 32 34  1  0  0  0  0
 32 35  1  0  0  0  0
 33 32  1  0  0  0  0
 36  8  1  0  0  0  0
 36 16  2  0  0  0  0
 37 19  1  0  0  0  0
 37 40  1  0  0  0  0
 38 37  1  0  0  0  0
 39 37  1  0  0  0  0
 41 42  1  0  0  0  0
 43 45  1  0  0  0  0
 43 44  1  0  0  0  0
 46 43  1  0  0  0  0
 47 21  1  0  0  0  0
 48 47  1  0  0  0  0
M  END
