4,5
q = 0.0, confidence = 0.998

 22 23  0  0  0  0  0  0  0  0999 V2000
    1.5038    2.3891   -0.5015 N   0  0  0  0  0  0  0  0  0  0  0  0
    2.2162    0.8236    0.8037 N   0  0  0  0  0  0  0  0  0  0  0  0
    2.1284   -1.5200    0.3882 N   0  0  0  0  0  0  0  0  0  0  0  0
    1.0063   -1.5479   -0.3763 N   0  0  0  0  0  2  0  0  0  0  0  0
    1.1200    1.2086    0.0677 C   0  0  0  0  0  2  0  0  0  0  0  0
    2.8005    2.7317   -0.1237 C   0  0  0  0  0  0  0  0  0  0  0  0
    3.2859    3.6496   -0.4694 H   0  0  0  0  0  0  0  0  0  0  0  0
    3.2601    1.7356    0.6944 C   0  0  0  0  0  0  0  0  0  0  0  0
    4.2191    1.6131    1.2073 H   0  0  0  0  0  0  0  0  0  0  0  0
    0.7073    3.1805   -1.4336 C   0  0  0  0  0  0  0  0  0  0  0  0
   -0.0610    2.5291   -1.8841 H   0  0  0  0  0  0  0  0  0  0  0  0
    1.3624    3.5721   -2.2338 H   0  0  0  0  0  0  0  0  0  0  0  0
    0.2214    4.0310   -0.9161 H   0  0  0  0  0  0  0  0  0  0  0  0
    2.2581   -0.4957    1.4094 C   0  0  0  0  0  0  0  0  0  0  0  0
    3.2178   -0.6413    1.9359 H   0  0  0  0  0  0  0  0  0  0  0  0
    1.4150   -0.5934    2.1227 H   0  0  0  0  0  0  0  0  0  0  0  0
    2.9962   -2.5133    0.0348 C   0  0  0  0  0  3  0  0  0  0  0  0
    3.9502   -2.6496    0.5563 H   0  0  0  0  0  0  0  0  0  0  0  0
    2.4050   -3.2184   -1.0090 C   0  0  0  0  0  0  0  0  0  0  0  0
    2.8144   -4.0834   -1.5396 H   0  0  0  0  0  0  0  0  0  0  0  0
    1.1670   -2.5757   -1.2317 C   0  0  0  0  0  0  0  0  0  0  0  0
    0.3913   -2.8049   -1.9707 H   0  0  0  0  0  0  0  0  0  0  0  0
  1  6  1  0  0  0  0
  1  5  1  0  0  0  0
  2 14  1  0  0  0  0
  3 14  1  0  0  0  0
  4  3  1  0  0  0  0
  5  2  1  0  0  0  0
  6  8  2  0  0  0  0
  7  6  1  0  0  0  0
  8  2  1  0  0  0  0
  8  9  1  0  0  0  0
 10 13  1  0  0  0  0
 10  1  1  0  0  0  0
 11 10  1  0  0  0  0
 12 10  1  0  0  0  0
 14 15  1  0  0  0  0
 14 16  1  0  0  0  0
 17  3  1  0  0  0  0
 17 18  1  0  0  0  0
 19 17  1  0  0  0  0
 20 19  1  0  0  0  0
 21 19  2  0  0  0  0
 21  4  1  0  0  0  0
 22 21  1  0  0  0  0
M  END
