2,3
q = -1.0

 30 31  0  0  0  0  0  0  0  0999 V2000
    5.5742    1.4903   -2.0001 Cl  0  0  0  0  0  0  0  0  0  0  0  0
    1.2181   -2.3023    1.1452 N   0  0  0  0  0  2  0  0  0  0  0  0
    0.0055   -1.5881   -1.2433 C   0  0  0  0  0  3  0  0  0  0  0  0
   -0.4631   -1.0199   -2.0690 H   0  0  0  0  0  0  0  0  0  0  0  0
    1.0754   -1.7525   -1.5028 H   0  0  0  0  0  0  0  0  0  0  0  0
   -0.7001   -2.8840   -1.0300 C   0  0  0  0  0  0  0  0  0  0  0  0
   -1.8517   -3.2330   -1.7651 C   0  0  0  0  0  0  0  0  0  0  0  0
   -2.2551   -2.5075   -2.4879 H   0  0  0  0  0  0  0  0  0  0  0  0
   -2.4740   -4.4797   -1.6032 C   0  0  0  0  0  0  0  0  0  0  0  0
   -3.3746   -4.7159   -2.1911 H   0  0  0  0  0  0  0  0  0  0  0  0
   -1.9456   -5.4337   -0.7164 C   0  0  0  0  0  0  0  0  0  0  0  0
   -2.4240   -6.4175   -0.6032 H   0  0  0  0  0  0  0  0  0  0  0  0
   -0.8022   -5.1144    0.0258 C   0  0  0  0  0  0  0  0  0  0  0  0
   -0.3795   -5.8450    0.7338 H   0  0  0  0  0  0  0  0  0  0  0  0
   -0.2019   -3.8429   -0.0910 C   0  0  0  0  0  0  0  0  0  0  0  0
    0.9375   -3.5092    0.7566 C   0  0  0  0  0  3  0  0  0  0  0  0
    1.5948   -4.3371    1.0968 H   0  0  0  0  0  0  0  0  0  0  0  0
    2.4708   -2.0248    1.8534 C   0  0  0  0  0  0  0  0  0  0  0  0
    2.9843   -2.9780    2.1059 H   0  0  0  0  0  0  0  0  0  0  0  0
    2.2048   -1.4765    2.7810 H   0  0  0  0  0  0  0  0  0  0  0  0
    3.3388   -1.1545    0.9622 C   0  0  0  0  0  0  0  0  0  0  0  0
    3.3719    0.2424    1.1377 C   0  0  0  0  0  0  0  0  0  0  0  0
    2.8051    0.6905    1.9691 H   0  0  0  0  0  0  0  0  0  0  0  0
    4.0745    1.0608    0.2420 C   0  0  0  0  0  0  0  0  0  0  0  0
    4.0905    2.1521    0.3689 H   0  0  0  0  0  0  0  0  0  0  0  0
    4.7370    0.4734   -0.8466 C   0  0  0  0  0  0  0  0  0  0  0  0
    4.7284   -0.9181   -1.0362 C   0  0  0  0  0  0  0  0  0  0  0  0
    5.2601   -1.3574   -1.8916 H   0  0  0  0  0  0  0  0  0  0  0  0
    4.0261   -1.7212   -0.1273 C   0  0  0  0  0  0  0  0  0  0  0  0
    4.0020   -2.8119   -0.2831 H   0  0  0  0  0  0  0  0  0  0  0  0
  1 26  1  0  0  0  0
  2 18  1  0  0  0  0
  3  6  1  0  0  0  0
  4  3  1  0  0  0  0
  5  3  1  0  0  0  0
  6 15  1  0  0  0  0
  7  9  1  0  0  0  0
  7  6  2  0  0  0  0
  8  7  1  0  0  0  0
  9 11  2  0  0  0  0
 10  9  1  0  0  0  0
 11 12  1  0  0  0  0
 11 13  1  0  0  0  0
 13 14  1  0  0  0  0
 15 13  2  0  0  0  0
 15 16  1  0  0  0  0
 16 17  1  0  0  0  0
 16  2  1  0  0  0  0
 18 19  1  0  0  0  0
 18 20  1  0  0  0  0
 21 22  1  0  0  0  0
 21 18  1  0  0  0  0
 22 23  1  0  0  0  0
 24 25  1  0  0  0  0
 24 22  2  0  0  0  0
 26 24  1  0  0  0  0
 27 26  2  0  0  0  0
 27 29  1  0  0  0  0
 28 27  1  0  0  0  0
 29 21  2  0  0  0  0
 30 29  1  0  0  0  0
M  END
