2,3
q = -1.0

 29 29  0  0  1  0  0  0  0  0999 V2000
    1.3678   -1.7395   -0.0593 O   0  0  0  0  0  0  0  0  0  0  0  0
    2.4024    0.6688    0.1102 N   0  0  0  0  0  2  0  0  0  0  0  0
    0.2616    2.3218    0.2378 C   0  0  0  0  0  3  0  0  0  0  0  0
   -0.5270    2.8028   -0.3722 H   0  0  0  0  0  0  0  0  0  0  0  0
    0.0396    2.5199    1.3118 H   0  0  0  0  0  0  0  0  0  0  0  0
    1.6236    2.9250   -0.1001 C   0  0  0  0  0  0  0  0  0  0  0  0
    1.7708    4.0925   -0.4082 O   0  0  0  0  0  0  0  0  0  0  0  0
    2.7827    1.9607   -0.0237 C   0  0  2  0  0  3  0  0  0  0  0  0
    4.1317    2.3105   -0.1249 C   0  0  0  0  0  0  0  0  0  0  0  0
    4.3970    3.3706   -0.2494 H   0  0  0  0  0  0  0  0  0  0  0  0
    5.0875    1.2827   -0.0741 C   0  0  0  0  0  0  0  0  0  0  0  0
    6.1599    1.5168   -0.1482 H   0  0  0  0  0  0  0  0  0  0  0  0
    4.6692   -0.0505    0.0644 C   0  0  0  0  0  0  0  0  0  0  0  0
    5.3912   -0.8792    0.1008 H   0  0  0  0  0  0  0  0  0  0  0  0
    3.2958   -0.3345    0.1481 C   0  0  0  0  0  0  0  0  0  0  0  0
    2.7745   -1.7662    0.3599 C   0  0  0  0  0  0  0  0  0  0  0  0
    2.9115   -2.1574    1.8303 C   0  0  0  0  0  0  0  0  0  0  0  0
    2.6004   -3.2090    1.9738 H   0  0  0  0  0  0  0  0  0  0  0  0
    2.2946   -1.4928    2.4647 H   0  0  0  0  0  0  0  0  0  0  0  0
    3.9686   -2.0729    2.1434 H   0  0  0  0  0  0  0  0  0  0  0  0
    3.4624   -2.5358   -1.8099 C   0  0  0  0  0  0  0  0  0  0  0  0
    2.4380   -2.6582   -2.2174 H   0  0  0  0  0  0  0  0  0  0  0  0
    4.1176   -3.3259   -2.2178 H   0  0  0  0  0  0  0  0  0  0  0  0
    3.8537   -1.5427   -2.1199 H   0  0  0  0  0  0  0  0  0  0  0  0
    3.4834   -2.6991   -0.3865 O   0  0  0  0  0  0  0  0  0  0  0  0
    0.6435   -2.9697    0.1175 C   0  0  0  0  0  0  0  0  0  0  0  0
    1.2892   -3.8290   -0.1498 H   0  0  0  0  0  0  0  0  0  0  0  0
   -0.2183   -2.9274   -0.5736 H   0  0  0  0  0  0  0  0  0  0  0  0
    0.2794   -3.0781    1.1596 H   0  0  0  0  0  0  0  0  0  0  0  0
  1 26  1  0  0  0  0
  1 16  1  0  0  0  0
  2 15  1  0  0  0  0
  3  5  1  0  0  0  0
  4  3  1  0  0  0  0
  6  3  1  0  0  0  0
  7  6  2  0  0  0  0
  8  6  1  6  0  0  0
  8  2  1  0  0  0  0
  9 11  2  0  0  0  0
  9  8  1  0  0  0  0
 10  9  1  0  0  0  0
 11 13  1  0  0  0  0
 12 11  1  0  0  0  0
 13 14  1  0  0  0  0
 13 15  2  0  0  0  0
 15 16  1  0  0  0  0
 16 17  1  0  0  0  0
 17 18  1  0  0  0  0
 17 20  1  0  0  0  0
 17 19  1  0  0  0  0
 21 25  1  0  0  0  0
 22 21  1  0  0  0  0
 23 21  1  0  0  0  0
 24 21  1  0  0  0  0
 25 16  1  0  0  0  0
 26 29  1  0  0  0  0
 27 26  1  0  0  0  0
 28 26  1  0  0  0  0
M  END
