1,7
q = -1.0

 22 23  0  0  0  0  0  0  0  0999 V2000
    0.8338    1.4088   -0.6152 N   0  0  0  0  0  2  0  0  0  0  0  0
    0.4495    2.5272   -1.2745 C   0  0  0  0  0  3  0  0  0  0  0  0
   -0.5075    2.4426   -1.8131 H   0  0  0  0  0  0  0  0  0  0  0  0
    1.2282    3.6882   -1.2721 C   0  0  0  0  0  0  0  0  0  0  0  0
    0.8772    4.5742   -1.8198 H   0  0  0  0  0  0  0  0  0  0  0  0
    3.5402    0.1685    1.3730 O   0  0  0  0  0  0  0  0  0  0  0  0
    0.8451   -1.3835   -0.5687 C   0  0  0  0  0  3  0  0  0  0  0  0
    2.8486    2.5198    0.0765 C   0  0  0  0  0  0  0  0  0  0  0  0
    3.7937    2.4333    0.6306 H   0  0  0  0  0  0  0  0  0  0  0  0
    2.4389    3.6950   -0.5604 C   0  0  0  0  0  0  0  0  0  0  0  0
    3.0617    4.6012   -0.5191 H   0  0  0  0  0  0  0  0  0  0  0  0
    2.1189   -1.2109    0.0337 C   0  0  0  0  0  0  0  0  0  0  0  0
    2.5955    0.0825    0.5844 C   0  0  0  0  0  0  0  0  0  0  0  0
    2.7186   -3.5169   -0.4990 C   0  0  0  0  0  0  0  0  0  0  0  0
    3.4350   -4.3515   -0.4640 H   0  0  0  0  0  0  0  0  0  0  0  0
    2.0378    1.3719    0.0068 C   0  0  0  0  0  0  0  0  0  0  0  0
    0.5577   -2.6148   -1.1951 C   0  0  0  0  0  0  0  0  0  0  0  0
   -0.4073   -2.7407   -1.7093 H   0  0  0  0  0  0  0  0  0  0  0  0
    3.0341   -2.2945    0.0930 C   0  0  0  0  0  0  0  0  0  0  0  0
    3.9960   -2.1282    0.6016 H   0  0  0  0  0  0  0  0  0  0  0  0
    1.4834   -3.6668   -1.1635 C   0  0  0  0  0  0  0  0  0  0  0  0
    1.2400   -4.6206   -1.6587 H   0  0  0  0  0  0  0  0  0  0  0  0
  1 16  1  0  0  0  0
  2  4  1  0  0  0  0
  2  1  1  0  0  0  0
  3  2  1  0  0  0  0
  4 10  2  0  0  0  0
  5  4  1  0  0  0  0
  7 12  1  0  0  0  0
  8  9  1  0  0  0  0
 10 11  1  0  0  0  0
 10  8  1  0  0  0  0
 12 19  2  0  0  0  0
 12 13  1  0  0  0  0
 13  6  2  0  0  0  0
 14 15  1  0  0  0  0
 14 19  1  0  0  0  0
 16  8  2  0  0  0  0
 16 13  1  0  0  0  0
 17 21  1  0  0  0  0
 17  7  2  0  0  0  0
 18 17  1  0  0  0  0
 19 20  1  0  0  0  0
 21 14  2  0  0  0  0
 22 21  1  0  0  0  0
M  END
