3,5
q = -1.0

 18 19  0  0  0  0  0  0  0  0999 V2000
    5.5370   -1.0641   -1.4693 F   0  0  0  0  0  0  0  0  0  0  0  0
    4.8461   -1.0810    3.2017 F   0  0  0  0  0  0  0  0  0  0  0  0
    1.3527   -0.6760   -1.8815 N   0  0  0  0  0  2  0  0  0  0  0  0
    2.7170   -0.7772   -1.8831 N   0  0  0  0  0  0  0  0  0  0  0  0
    2.4319   -0.7533    0.4930 C   0  0  0  0  0  3  0  0  0  0  0  0
    3.3260   -0.8347   -0.6091 C   0  0  0  0  0  0  0  0  0  0  0  0
    4.7084   -0.9902   -0.4089 C   0  0  0  0  0  0  0  0  0  0  0  0
    5.2403   -1.0743    0.8789 C   0  0  0  0  0  0  0  0  0  0  0  0
    6.3204   -1.1951    1.0316 H   0  0  0  0  0  0  0  0  0  0  0  0
    4.3511   -0.9993    1.9600 C   0  0  0  0  0  0  0  0  0  0  0  0
    2.9675   -0.8403    1.7886 C   0  0  0  0  0  0  0  0  0  0  0  0
    2.3327   -0.7808    2.6834 H   0  0  0  0  0  0  0  0  0  0  0  0
    3.1857   -0.8754   -3.1618 C   0  0  0  0  0  3  0  0  0  0  0  0
    4.2570   -0.9625   -3.3591 H   0  0  0  0  0  0  0  0  0  0  0  0
    2.0790   -0.8467   -4.0110 C   0  0  0  0  0  0  0  0  0  0  0  0
    2.0882   -0.9057   -5.1033 H   0  0  0  0  0  0  0  0  0  0  0  0
    0.9559   -0.7276   -3.1681 C   0  0  0  0  0  0  0  0  0  0  0  0
   -0.1089   -0.6827   -3.4131 H   0  0  0  0  0  0  0  0  0  0  0  0
  1  7  1  0  0  0  0
  4  3  1  0  0  0  0
  4  6  1  0  0  0  0
  5 11  1  0  0  0  0
  6  7  1  0  0  0  0
  6  5  2  0  0  0  0
  7  8  2  0  0  0  0
  8  9  1  0  0  0  0
  8 10  1  0  0  0  0
 10  2  1  0  0  0  0
 11 10  2  0  0  0  0
 11 12  1  0  0  0  0
 13  4  1  0  0  0  0
 14 13  1  0  0  0  0
 15 17  2  0  0  0  0
 15 13  1  0  0  0  0
 16 15  1  0  0  0  0
 17  3  1  0  0  0  0
 18 17  1  0  0  0  0
M  END
