4,39
q = -1.0

 50 52  0  0  1  0  0  0  0  0999 V2000
   -0.5280   -2.7512   -0.7452 O   0  0  0  0  0  0  0  0  0  0  0  0
   -3.8322   -3.0516   -1.0696 O   0  0  0  0  0  0  0  0  0  0  0  0
   -3.6419    3.2270    0.0033 O   0  0  0  0  0  0  0  0  0  0  0  0
   -0.3791   -0.2378    0.4331 N   0  0  0  0  0  2  0  0  0  0  0  0
   -2.5486   -1.0516    0.0295 N   0  0  0  0  0  0  0  0  0  0  0  0
   -2.1430   -1.9444   -0.2955 H   0  0  0  0  0  0  0  0  0  0  0  0
   -2.0532    1.2177   -0.2828 N   0  0  0  0  0  0  0  0  0  0  0  0
   -3.0160    1.3071   -0.6192 H   0  0  0  0  0  0  0  0  0  0  0  0
   -1.6391   -0.0221    0.0687 C   0  0  2  0  0  3  0  0  0  0  0  0
    0.0211   -1.4180    1.1269 C   0  0  0  0  0  0  0  0  0  0  0  0
    0.5635   -1.2893    2.4167 C   0  0  0  0  0  0  0  0  0  0  0  0
    0.5998   -0.2829    2.8572 H   0  0  0  0  0  0  0  0  0  0  0  0
    1.0805   -2.3981    3.0991 C   0  0  0  0  0  0  0  0  0  0  0  0
    1.5163   -2.2704    4.1000 H   0  0  0  0  0  0  0  0  0  0  0  0
    1.0720   -3.6548    2.4812 C   0  0  0  0  0  0  0  0  0  0  0  0
    1.4980   -4.5296    2.9943 H   0  0  0  0  0  0  0  0  0  0  0  0
    0.5358   -3.8095    1.1931 C   0  0  0  0  0  0  0  0  0  0  0  0
    0.5541   -4.7953    0.7110 H   0  0  0  0  0  0  0  0  0  0  0  0
    0.0131   -2.6973    0.5124 C   0  0  0  0  0  0  0  0  0  0  0  0
   -0.4352   -3.9609   -1.4810 C   0  0  0  0  0  0  0  0  0  0  0  0
   -0.8886   -3.7536   -2.4675 H   0  0  0  0  0  0  0  0  0  0  0  0
    0.6245   -4.2594   -1.6148 H   0  0  0  0  0  0  0  0  0  0  0  0
   -0.9958   -4.7860   -0.9874 H   0  0  0  0  0  0  0  0  0  0  0  0
   -3.9467   -0.9886    0.0558 C   0  0  0  0  0  0  0  0  0  0  0  0
   -4.6963    0.0393    0.6584 C   0  0  0  0  0  0  0  0  0  0  0  0
   -4.1830    0.8803    1.1430 H   0  0  0  0  0  0  0  0  0  0  0  0
   -6.1008   -0.0008    0.6483 C   0  0  0  0  0  0  0  0  0  0  0  0
   -6.6645    0.8157    1.1232 H   0  0  0  0  0  0  0  0  0  0  0  0
   -6.7734   -1.0750    0.0557 C   0  0  0  0  0  0  0  0  0  0  0  0
   -7.8725   -1.1118    0.0491 H   0  0  0  0  0  0  0  0  0  0  0  0
   -6.0422   -2.1248   -0.5301 C   0  0  0  0  0  0  0  0  0  0  0  0
   -6.5737   -2.9698   -0.9874 H   0  0  0  0  0  0  0  0  0  0  0  0
   -4.6407   -2.0871   -0.5360 C   0  0  0  0  0  0  0  0  0  0  0  0
   -4.4319   -4.2021   -1.6351 C   0  0  0  0  0  0  0  0  0  0  0  0
   -3.6041   -4.8460   -1.9852 H   0  0  0  0  0  0  0  0  0  0  0  0
   -5.0366   -4.7609   -0.8866 H   0  0  0  0  0  0  0  0  0  0  0  0
   -5.0814   -3.9440   -2.5009 H   0  0  0  0  0  0  0  0  0  0  0  0
   -1.4243    2.4416    0.0265 C   0  0  1  0  0  3  0  0  0  0  0  0
   -0.0246    2.5950    0.1636 C   0  0  0  0  0  2  0  0  0  0  0  0
    0.4397    3.8903    0.4999 C   0  0  0  0  0  0  0  0  0  0  0  0
    1.5176    4.0767    0.5828 H   0  0  0  0  0  0  0  0  0  0  0  0
   -0.4351    4.9699    0.6592 C   0  0  0  0  0  0  0  0  0  0  0  0
   -0.0313    5.9637    0.9056 H   0  0  0  0  0  0  0  0  0  0  0  0
   -1.8223    4.8129    0.4919 C   0  0  0  0  0  0  0  0  0  0  0  0
   -2.4992    5.6686    0.6130 H   0  0  0  0  0  0  0  0  0  0  0  0
   -2.3140    3.5412    0.1793 C   0  0  0  0  0  0  0  0  0  0  0  0
   -4.5968    4.2689    0.0656 C   0  0  0  0  0  0  0  0  0  0  0  0
   -5.5816    3.8020   -0.1229 H   0  0  0  0  0  0  0  0  0  0  0  0
   -4.6099    4.7549    1.0666 H   0  0  0  0  0  0  0  0  0  0  0  0
   -4.4067    5.0477   -0.7061 H   0  0  0  0  0  0  0  0  0  0  0  0
  1 19  1  0  0  0  0
  2 33  1  0  0  0  0
  3 47  1  0  0  0  0
  3 46  1  0  0  0  0
  4 10  1  0  0  0  0
  5 24  1  0  0  0  0
  5  9  1  0  0  0  0
  6  5  1  0  0  0  0
  7  9  1  0  0  0  0
  8  7  1  0  0  0  0
  9  4  1  6  0  0  0
 10 11  1  0  0  0  0
 11 12  1  0  0  0  0
 11 13  2  0  0  0  0
 13 14  1  0  0  0  0
 15 16  1  0  0  0  0
 15 13  1  0  0  0  0
 17 15  2  0  0  0  0
 18 17  1  0  0  0  0
 19 10  2  0  0  0  0
 19 17  1  0  0  0  0
 20 23  1  0  0  0  0
 20  1  1  0  0  0  0
 21 20  1  0  0  0  0
 22 20  1  0  0  0  0
 24 25  1  0  0  0  0
 25 26  1  0  0  0  0
 27 25  2  0  0  0  0
 27 28  1  0  0  0  0
 29 27  1  0  0  0  0
 30 29  1  0  0  0  0
 31 29  2  0  0  0  0
 32 31  1  0  0  0  0
 33 31  1  0  0  0  0
 33 24  2  0  0  0  0
 34  2  1  0  0  0  0
 34 36  1  0  0  0  0
 35 34  1  0  0  0  0
 37 34  1  0  0  0  0
 38  7  1  6  0  0  0
 38 39  1  0  0  0  0
 38 46  1  0  0  0  0
 39 40  1  0  0  0  0
 40 41  1  0  0  0  0
 40 42  2  0  0  0  0
 42 43  1  0  0  0  0
 44 45  1  0  0  0  0
 44 42  1  0  0  0  0
 46 44  2  0  0  0  0
 47 49  1  0  0  0  0
 48 47  1  0  0  0  0
 50 47  1  0  0  0  0
M  END
