6,23
q = -1.0

 56 59  0  0  0  0  0  0  0  0999 V2000
    3.3543   -1.8590    0.8355 S   0  0  0  0  0  0  0  0  0  0  0  0
    4.2360   -1.1614    1.8042 O   0  0  0  0  0  0  0  0  0  0  0  0
    3.9884   -2.8319   -0.0978 O   0  0  0  0  0  0  0  0  0  0  0  0
    1.1289    1.8671   -0.1208 N   0  0  0  0  0  0  0  0  0  0  0  0
   -0.8929    1.5909    0.6033 N   0  0  0  0  0  0  0  0  0  0  0  0
    2.3892   -0.7029    0.0516 N   0  0  0  0  0  2  0  0  0  0  0  0
   -4.4743    0.6282    1.0591 C   0  0  0  0  0  0  0  0  0  0  0  0
   -5.4500    0.7800    0.5745 H   0  0  0  0  0  0  0  0  0  0  0  0
   -1.9753    0.2283    2.3359 C   0  0  0  0  0  0  0  0  0  0  0  0
   -3.1576   -0.3256    2.8589 C   0  0  0  0  0  0  0  0  0  0  0  0
   -3.1109   -0.9197    3.7819 H   0  0  0  0  0  0  0  0  0  0  0  0
   -3.3247    1.2115    0.4905 C   0  0  0  0  0  0  0  0  0  0  0  0
    2.6312    4.1458   -0.7277 C   0  0  0  0  0  0  0  0  0  0  0  0
    3.2386    5.0179   -1.0125 H   0  0  0  0  0  0  0  0  0  0  0  0
    4.5510    2.6854   -1.3354 C   0  0  0  0  0  0  0  0  0  0  0  0
    5.1200    3.5819   -1.6223 H   0  0  0  0  0  0  0  0  0  0  0  0
   -3.4567    2.0954   -0.7450 C   0  0  0  0  0  0  0  0  0  0  0  0
   -2.4406    2.2313   -1.1699 H   0  0  0  0  0  0  0  0  0  0  0  0
   -2.0845    0.9860    1.1371 C   0  0  0  0  0  0  0  0  0  0  0  0
    0.6228    3.1577    0.1608 C   0  0  0  0  0  0  0  0  0  0  0  0
   -4.3938   -0.1350    2.2273 C   0  0  0  0  0  0  0  0  0  0  0  0
   -5.3037   -0.5813    2.6567 H   0  0  0  0  0  0  0  0  0  0  0  0
    0.1785    0.8938    0.0940 C   0  0  0  0  0  2  0  0  0  0  0  0
    5.1344    1.4176   -1.3589 C   0  0  0  0  0  0  0  0  0  0  0  0
    6.1726    1.2940   -1.7024 H   0  0  0  0  0  0  0  0  0  0  0  0
    3.2117    2.8318   -0.9043 C   0  0  0  0  0  0  0  0  0  0  0  0
    1.3973    4.3156   -0.1613 C   0  0  0  0  0  0  0  0  0  0  0  0
    0.9711    5.3098    0.0303 H   0  0  0  0  0  0  0  0  0  0  0  0
   -0.6520    2.9611    0.6524 C   0  0  0  0  0  0  0  0  0  0  0  0
   -1.3932    3.6765    1.0137 H   0  0  0  0  0  0  0  0  0  0  0  0
    2.1155   -2.7630    1.7861 C   0  0  0  0  0  0  0  0  0  0  0  0
    2.7016   -3.5201    2.3394 H   0  0  0  0  0  0  0  0  0  0  0  0
    1.3942   -3.2365    1.0986 H   0  0  0  0  0  0  0  0  0  0  0  0
    1.6162   -2.0653    2.4794 H   0  0  0  0  0  0  0  0  0  0  0  0
   -0.6372    0.0601    3.0521 C   0  0  0  0  0  0  0  0  0  0  0  0
    0.1248   -0.1253    2.2638 H   0  0  0  0  0  0  0  0  0  0  0  0
    2.4644    1.6733   -0.5362 C   0  0  0  0  0  0  0  0  0  0  0  0
   -4.3385    1.4704   -1.8363 C   0  0  0  0  0  0  0  0  0  0  0  0
   -4.0061    0.4487   -2.0941 H   0  0  0  0  0  0  0  0  0  0  0  0
   -4.3035    2.0882   -2.7565 H   0  0  0  0  0  0  0  0  0  0  0  0
   -5.4015    1.4148   -1.5238 H   0  0  0  0  0  0  0  0  0  0  0  0
    4.4180    0.2908   -0.9382 C   0  0  0  0  0  0  0  0  0  0  0  0
    4.8910   -0.7004   -0.9476 H   0  0  0  0  0  0  0  0  0  0  0  0
   -0.2396    1.3550    3.7885 C   0  0  0  0  0  0  0  0  0  0  0  0
   -0.1926    2.2256    3.1063 H   0  0  0  0  0  0  0  0  0  0  0  0
    0.7600    1.2405    4.2540 H   0  0  0  0  0  0  0  0  0  0  0  0
   -0.9699    1.5877    4.5913 H   0  0  0  0  0  0  0  0  0  0  0  0
   -0.5961   -1.1300    4.0175 C   0  0  0  0  0  0  0  0  0  0  0  0
   -1.2633   -0.9817    4.8920 H   0  0  0  0  0  0  0  0  0  0  0  0
    0.4304   -1.2532    4.4164 H   0  0  0  0  0  0  0  0  0  0  0  0
   -0.8847   -2.0798    3.5243 H   0  0  0  0  0  0  0  0  0  0  0  0
    3.0754    0.3818   -0.4806 C   0  0  0  0  0  0  0  0  0  0  0  0
   -4.0051    3.4844   -0.3626 C   0  0  0  0  0  0  0  0  0  0  0  0
   -5.0324    3.3970    0.0477 H   0  0  0  0  0  0  0  0  0  0  0  0
   -4.0492    4.1466   -1.2513 H   0  0  0  0  0  0  0  0  0  0  0  0
   -3.3873    3.9868    0.4067 H   0  0  0  0  0  0  0  0  0  0  0  0
  1 31  1  0  0  0  0
  1  2  2  0  0  0  0
  3  1  2  0  0  0  0
  4 23  1  0  0  0  0
  4 20  1  0  0  0  0
  5 29  1  0  0  0  0
  5 19  1  0  0  0  0
  6  1  1  0  0  0  0
  7 21  1  0  0  0  0
  8  7  1  0  0  0  0
  9 10  1  0  0  0  0
  9 35  1  0  0  0  0
 10 11  1  0  0  0  0
 12  7  2  0  0  0  0
 12 19  1  0  0  0  0
 13 27  2  0  0  0  0
 14 13  1  0  0  0  0
 15 26  1  0  0  0  0
 16 15  1  0  0  0  0
 17 53  1  0  0  0  0
 17 12  1  0  0  0  0
 18 17  1  0  0  0  0
 19  9  2  0  0  0  0
 20 29  2  0  0  0  0
 21 22  1  0  0  0  0
 21 10  2  0  0  0  0
 23  5  1  0  0  0  0
 24 15  2  0  0  0  0
 24 42  1  0  0  0  0
 25 24  1  0  0  0  0
 26 13  1  0  0  0  0
 26 37  2  0  0  0  0
 27 28  1  0  0  0  0
 27 20  1  0  0  0  0
 29 30  1  0  0  0  0
 31 32  1  0  0  0  0
 31 34  1  0  0  0  0
 33 31  1  0  0  0  0
 35 44  1  0  0  0  0
 35 48  1  0  0  0  0
 36 35  1  0  0  0  0
 37 52  1  0  0  0  0
 37  4  1  0  0  0  0
 38 41  1  0  0  0  0
 38 17  1  0  0  0  0
 39 38  1  0  0  0  0
 40 38  1  0  0  0  0
 42 52  2  0  0  0  0
 43 42  1  0  0  0  0
 44 46  1  0  0  0  0
 44 47  1  0  0  0  0
 45 44  1  0  0  0  0
 48 50  1  0  0  0  0
 48 49  1  0  0  0  0
 51 48  1  0  0  0  0
 52  6  1  0  0  0  0
 53 54  1  0  0  0  0
 53 56  1  0  0  0  0
 55 53  1  0  0  0  0
M  END
