2,13
q = -1.0, confidence = 0.002

 24 25  0  0  1  0  0  0  0  0999 V2000
   -2.5849    0.8926    0.7593 O   0  0  0  0  0  0  0  0  0  0  0  0
   -1.7113   -0.8147   -0.5910 N   0  0  0  0  0  2  0  0  0  0  0  0
    0.2422    3.8909   -0.0868 C   0  0  0  0  0  0  0  0  0  0  0  0
    0.5926    2.5333   -0.2438 C   0  0  0  0  0  0  0  0  0  0  0  0
    1.6057    2.2899   -0.5988 H   0  0  0  0  0  0  0  0  0  0  0  0
   -4.0854   -0.6478   -0.1912 C   0  0  0  0  0  0  0  0  0  0  0  0
   -4.8924   -0.1029    0.3164 H   0  0  0  0  0  0  0  0  0  0  0  0
   -1.9727    3.1770    0.6368 C   0  0  0  0  0  0  0  0  0  0  0  0
   -2.9943    3.3939    0.9824 H   0  0  0  0  0  0  0  0  0  0  0  0
   -1.0539    4.2006    0.3716 C   0  0  0  0  0  0  0  0  0  0  0  0
   -1.3518    5.2512    0.5139 H   0  0  0  0  0  0  0  0  0  0  0  0
   -2.7637   -0.1843   -0.0210 C   0  0  1  0  0  3  0  0  0  0  0  0
   -0.2952    1.4737    0.0354 C   0  0  0  0  0  3  0  0  0  0  0  0
   -1.5822    1.8438    0.4542 C   0  0  0  0  0  0  0  0  0  0  0  0
   -1.9490   -1.8472   -1.4441 C   0  0  0  0  0  0  0  0  0  0  0  0
   -1.0531   -2.2479   -1.9399 H   0  0  0  0  0  0  0  0  0  0  0  0
   -3.2288   -2.3469   -1.6760 C   0  0  0  0  0  0  0  0  0  0  0  0
   -3.3650   -3.1919   -2.3645 H   0  0  0  0  0  0  0  0  0  0  0  0
   -4.3179   -1.7476   -1.0160 C   0  0  0  0  0  0  0  0  0  0  0  0
   -5.3424   -2.1191   -1.1672 H   0  0  0  0  0  0  0  0  0  0  0  0
    1.2274    4.9803   -0.4339 C   0  0  0  0  0  0  0  0  0  0  0  0
    2.2668    4.6852   -0.1858 H   0  0  0  0  0  0  0  0  0  0  0  0
    1.0004    5.9253    0.0983 H   0  0  0  0  0  0  0  0  0  0  0  0
    1.2083    5.2029   -1.5228 H   0  0  0  0  0  0  0  0  0  0  0  0
  2 12  1  0  0  0  0
  3 10  1  0  0  0  0
  4  3  2  0  0  0  0
  4 13  1  0  0  0  0
  5  4  1  0  0  0  0
  6 12  1  0  0  0  0
  6  7  1  0  0  0  0
  8  9  1  0  0  0  0
 10 11  1  0  0  0  0
 10  8  2  0  0  0  0
 12  1  1  1  0  0  0
 13 14  2  0  0  0  0
 14  8  1  0  0  0  0
 14  1  1  0  0  0  0
 15  2  1  0  0  0  0
 16 15  1  0  0  0  0
 17 15  2  0  0  0  0
 17 19  1  0  0  0  0
 18 17  1  0  0  0  0
 19  6  2  0  0  0  0
 20 19  1  0  0  0  0
 21 22  1  0  0  0  0
 21  3  1  0  0  0  0
 21 23  1  0  0  0  0
 24 21  1  0  0  0  0
M  END
