2,7
q = 0.0, confidence = 0.998

 30 32  0  0  1  0  0  0  0  0999 V2000
    1.1765    0.6953   -0.5088 N   0  0  0  0  0  0  0  0  0  0  0  0
   -1.6039    1.0798    0.2098 N   0  0  0  0  0  2  0  0  0  0  0  0
   -0.8457    2.0874   -0.2973 C   0  0  1  0  0  3  0  0  0  0  0  0
    2.5649    0.7394   -0.3399 C   0  0  0  0  0  0  0  0  0  0  0  0
    1.7142   -1.1964    0.4456 N   0  0  0  0  0  0  0  0  0  0  0  0
    2.9073   -0.4841    0.2811 C   0  0  0  0  0  0  0  0  0  0  0  0
    0.6513   -0.4770   -0.0320 C   0  0  0  0  0  2  0  0  0  0  0  0
    3.5379    1.6949   -0.6622 C   0  0  0  0  0  0  0  0  0  0  0  0
    3.2864    2.6455   -1.1533 H   0  0  0  0  0  0  0  0  0  0  0  0
    0.3567    1.7182   -1.1325 C   0  0  0  0  0  0  0  0  0  0  0  0
    0.0189    1.3664   -2.1320 H   0  0  0  0  0  0  0  0  0  0  0  0
    0.9807    2.6146   -1.2963 H   0  0  0  0  0  0  0  0  0  0  0  0
   -1.1817    3.4346   -0.0880 C   0  0  0  0  0  0  0  0  0  0  0  0
   -0.5381    4.2205   -0.5090 H   0  0  0  0  0  0  0  0  0  0  0  0
   -2.7080    1.4017    0.9324 C   0  0  0  0  0  0  0  0  0  0  0  0
   -3.2858    0.5566    1.3311 H   0  0  0  0  0  0  0  0  0  0  0  0
    4.2334   -0.7925    0.6145 C   0  0  0  0  0  0  0  0  0  0  0  0
    4.5029   -1.7377    1.1054 H   0  0  0  0  0  0  0  0  0  0  0  0
    4.8655    1.3852   -0.3305 C   0  0  0  0  0  0  0  0  0  0  0  0
    5.6586    2.1097   -0.5650 H   0  0  0  0  0  0  0  0  0  0  0  0
   -2.3243    3.7635    0.6496 C   0  0  0  0  0  0  0  0  0  0  0  0
   -2.5982    4.8146    0.8218 H   0  0  0  0  0  0  0  0  0  0  0  0
   -3.1014    2.7193    1.1696 C   0  0  0  0  0  0  0  0  0  0  0  0
   -4.0061    2.9135    1.7626 H   0  0  0  0  0  0  0  0  0  0  0  0
    5.2064    0.1663    0.2965 C   0  0  0  0  0  0  0  0  0  0  0  0
    6.2590   -0.0359    0.5417 H   0  0  0  0  0  0  0  0  0  0  0  0
    1.6510   -2.5081    1.0674 C   0  0  0  0  0  0  0  0  0  0  0  0
    2.4101   -3.1749    0.6142 H   0  0  0  0  0  0  0  0  0  0  0  0
    0.6484   -2.9345    0.8999 H   0  0  0  0  0  0  0  0  0  0  0  0
    1.8365   -2.4368    2.1579 H   0  0  0  0  0  0  0  0  0  0  0  0
  1  4  1  0  0  0  0
  1  7  1  0  0  0  0
  2 15  1  0  0  0  0
  3 10  1  6  0  0  0
  3 13  1  0  0  0  0
  3  2  1  0  0  0  0
  4  6  1  0  0  0  0
  5 27  1  0  0  0  0
  6  5  1  0  0  0  0
  6 17  2  0  0  0  0
  7  5  1  0  0  0  0
  8  4  2  0  0  0  0
  8 19  1  0  0  0  0
  9  8  1  0  0  0  0
 10  1  1  0  0  0  0
 11 10  1  0  0  0  0
 12 10  1  0  0  0  0
 13 21  2  0  0  0  0
 14 13  1  0  0  0  0
 15 23  2  0  0  0  0
 15 16  1  0  0  0  0
 17 18  1  0  0  0  0
 19 25  2  0  0  0  0
 20 19  1  0  0  0  0
 21 22  1  0  0  0  0
 21 23  1  0  0  0  0
 23 24  1  0  0  0  0
 25 26  1  0  0  0  0
 25 17  1  0  0  0  0
 27 30  1  0  0  0  0
 28 27  1  0  0  0  0
 29 27  1  0  0  0  0
M  END
