2,5
q = -1.0, confidence = 0.004

 22 24  0  0  1  0  0  0  0  0999 V2000
    3.9728    1.9451    1.4841 S   0  0  0  0  0  0  0  0  0  0  0  0
    1.8474    0.8362    0.5222 N   0  0  0  0  0  2  0  0  0  0  0  0
    2.9258    0.0693    0.1128 C   0  0  0  0  0  0  0  0  0  0  0  0
    2.6935   -1.0867   -0.6516 C   0  0  0  0  0  0  0  0  0  0  0  0
    1.3250   -1.3777   -0.9383 C   0  0  0  0  0  3  0  0  0  0  0  0
    1.1048   -2.5450   -1.6778 C   0  0  0  0  0  0  0  0  0  0  0  0
    0.0828   -2.8653   -1.9352 H   0  0  0  0  0  0  0  0  0  0  0  0
    2.2010   -3.3498   -2.1057 C   0  0  0  0  0  0  0  0  0  0  0  0
    1.9857   -4.2599   -2.6882 H   0  0  0  0  0  0  0  0  0  0  0  0
    3.5287   -3.0384   -1.8113 C   0  0  0  0  0  0  0  0  0  0  0  0
    4.3469   -3.6899   -2.1543 H   0  0  0  0  0  0  0  0  0  0  0  0
    3.8178   -1.8696   -1.0501 C   0  0  0  0  0  0  0  0  0  0  0  0
    5.1223   -1.4203   -0.6412 C   0  0  0  0  0  0  0  0  0  0  0  0
    5.9991   -2.0142   -0.9436 H   0  0  0  0  0  0  0  0  0  0  0  0
    5.3239   -0.2739    0.1268 C   0  0  0  0  0  0  0  0  0  0  0  0
    6.3394    0.0253    0.4228 H   0  0  0  0  0  0  0  0  0  0  0  0
    4.1895    0.4927    0.5185 C   0  0  0  0  0  0  0  0  0  0  0  0
    2.2251    1.8714    1.2621 C   0  0  2  0  0  3  0  0  0  0  0  0
    1.3184    2.8941    1.8481 C   0  0  0  0  0  0  0  0  0  0  0  0
    0.9785    3.6083    1.0680 H   0  0  0  0  0  0  0  0  0  0  0  0
    1.8213    3.4681    2.6478 H   0  0  0  0  0  0  0  0  0  0  0  0
    0.4081    2.4081    2.2490 H   0  0  0  0  0  0  0  0  0  0  0  0
  2 18  1  0  0  0  0
  3 17  1  0  0  0  0
  3  2  1  0  0  0  0
  4  3  2  0  0  0  0
  5  4  1  0  0  0  0
  6  5  2  0  0  0  0
  7  6  1  0  0  0  0
  8 10  2  0  0  0  0
  8  6  1  0  0  0  0
  9  8  1  0  0  0  0
 10 12  1  0  0  0  0
 11 10  1  0  0  0  0
 12  4  1  0  0  0  0
 12 13  2  0  0  0  0
 13 15  1  0  0  0  0
 14 13  1  0  0  0  0
 15 16  1  0  0  0  0
 15 17  2  0  0  0  0
 17  1  1  0  0  0  0
 18  1  1  0  0  0  0
 18 19  1  6  0  0  0
 19 22  1  0  0  0  0
 19 21  1  0  0  0  0
 20 19  1  0  0  0  0
M  END
