2,44
q = -1.0, confidence = 0.15

 46 49  0  0  0  0  0  0  0  0999 V2000
    0.6655    0.9802   -0.6970 Se  0  0  0  0  0  0  0  0  0  0  0  0
   -2.4248    0.3483   -0.5598 N   0  0  0  0  0  2  0  0  0  0  0  0
    3.1984    0.6799    1.2311 N   0  0  0  0  0  2  0  0  0  0  0  0
   -3.6424   -0.0511   -0.4478 N   0  0  0  0  0  0  0  0  0  0  0  0
    2.8500    0.0138    0.2122 N   0  0  0  0  0  2  0  0  0  0  0  0
   -0.8775    2.1194   -1.1939 C   0  0  0  0  0  0  0  0  0  0  0  0
    0.9661    1.7826    1.0454 C   0  0  0  0  0  0  0  0  0  0  0  0
   -0.6343    3.3961   -1.7245 C   0  0  0  0  0  0  0  0  0  0  0  0
    0.4031    3.7569   -1.8040 H   0  0  0  0  0  0  0  0  0  0  0  0
    0.0202    2.6267    1.6475 C   0  0  0  0  0  0  0  0  0  0  0  0
   -0.9288    2.8393    1.1358 H   0  0  0  0  0  0  0  0  0  0  0  0
   -1.6999    4.2059   -2.1438 C   0  0  0  0  0  0  0  0  0  0  0  0
   -1.5013    5.2063   -2.5567 H   0  0  0  0  0  0  0  0  0  0  0  0
    0.2768    3.2028    2.9012 C   0  0  0  0  0  0  0  0  0  0  0  0
   -0.4821    3.8575    3.3555 H   0  0  0  0  0  0  0  0  0  0  0  0
   -3.0209    3.7301   -2.0411 C   0  0  0  0  0  0  0  0  0  0  0  0
   -3.8598    4.3596   -2.3740 H   0  0  0  0  0  0  0  0  0  0  0  0
    1.4865    2.9504    3.5721 C   0  0  0  0  0  0  0  0  0  0  0  0
    1.6832    3.4053    4.5539 H   0  0  0  0  0  0  0  0  0  0  0  0
   -3.2778    2.4584   -1.5235 C   0  0  0  0  0  0  0  0  0  0  0  0
   -4.2974    2.0604   -1.4338 H   0  0  0  0  0  0  0  0  0  0  0  0
    2.4349    2.1140    2.9815 C   0  0  0  0  0  0  0  0  0  0  0  0
    3.3949    1.8825    3.4654 H   0  0  0  0  0  0  0  0  0  0  0  0
   -2.2048    1.6430   -1.0961 C   0  0  0  0  0  0  0  0  0  0  0  0
    2.1875    1.5120    1.7270 C   0  0  0  0  0  0  0  0  0  0  0  0
   -3.7267   -1.3224    0.0717 C   0  0  0  0  0  0  0  0  0  0  0  0
    3.8260   -0.7918   -0.4018 C   0  0  0  0  0  0  0  0  0  0  0  0
   -4.9956   -1.9214    0.2680 C   0  0  0  0  0  3  0  0  0  0  0  0
   -5.8983   -1.3539   -0.0010 H   0  0  0  0  0  0  0  0  0  0  0  0
    3.3637   -1.7535   -1.3269 C   0  0  0  0  0  0  0  0  0  0  0  0
    2.2799   -1.8684   -1.4690 H   0  0  0  0  0  0  0  0  0  0  0  0
   -5.0619   -3.2117    0.7960 C   0  0  0  0  0  0  0  0  0  0  0  0
   -6.0376   -3.6935    0.9567 H   0  0  0  0  0  0  0  0  0  0  0  0
    4.2860   -2.5754   -1.9856 C   0  0  0  0  0  0  0  0  0  0  0  0
    3.9287   -3.3353   -2.6966 H   0  0  0  0  0  0  0  0  0  0  0  0
   -3.8732   -3.8974    1.1235 C   0  0  0  0  0  0  0  0  0  0  0  0
   -3.9345   -4.9150    1.5414 H   0  0  0  0  0  0  0  0  0  0  0  0
    5.6612   -2.4360   -1.7352 C   0  0  0  0  0  0  0  0  0  0  0  0
    6.3838   -3.0792   -2.2603 H   0  0  0  0  0  0  0  0  0  0  0  0
   -2.6071   -3.3108    0.9290 C   0  0  0  0  0  0  0  0  0  0  0  0
   -1.6858   -3.8537    1.1866 H   0  0  0  0  0  0  0  0  0  0  0  0
    6.1195   -1.4742   -0.8135 C   0  0  0  0  0  0  0  0  0  0  0  0
    7.1984   -1.3666   -0.6232 H   0  0  0  0  0  0  0  0  0  0  0  0
   -2.5114   -2.0178    0.4024 C   0  0  0  0  0  3  0  0  0  0  0  0
    5.2099   -0.6535   -0.1429 C   0  0  0  0  0  0  0  0  0  0  0  0
    5.5338    0.1077    0.5805 H   0  0  0  0  0  0  0  0  0  0  0  0
  1  7  1  0  0  0  0
  2  4  1  0  0  0  0
  3 25  1  0  0  0  0
  4 26  2  0  0  0  0
  5  3  1  0  0  0  0
  6 24  1  0  0  0  0
  6  1  1  0  0  0  0
  7 10  2  0  0  0  0
  7 25  1  0  0  0  0
  8  6  2  0  0  0  0
  9  8  1  0  0  0  0
 10 14  1  0  0  0  0
 11 10  1  0  0  0  0
 12 16  2  0  0  0  0
 12  8  1  0  0  0  0
 13 12  1  0  0  0  0
 14 15  1  0  0  0  0
 14 18  2  0  0  0  0
 16 20  1  0  0  0  0
 17 16  1  0  0  0  0
 18 19  1  0  0  0  0
 20 21  1  0  0  0  0
 20 24  2  0  0  0  0
 22 23  1  0  0  0  0
 22 18  1  0  0  0  0
 24  2  1  0  0  0  0
 25 22  2  0  0  0  0
 26 28  1  0  0  0  0
 26 44  1  0  0  0  0
 27 45  1  0  0  0  0
 27  5  1  0  0  0  0
 28 32  1  0  0  0  0
 29 28  1  0  0  0  0
 30 27  2  0  0  0  0
 31 30  1  0  0  0  0
 32 33  1  0  0  0  0
 32 36  2  0  0  0  0
 34 38  2  0  0  0  0
 34 30  1  0  0  0  0
 35 34  1  0  0  0  0
 36 37  1  0  0  0  0
 38 42  1  0  0  0  0
 39 38  1  0  0  0  0
 40 36  1  0  0  0  0
 40 41  1  0  0  0  0
 42 43  1  0  0  0  0
 42 45  2  0  0  0  0
 44 40  2  0  0  0  0
 45 46  1  0  0  0  0
M  END
