2,8
q = -1.0

 19 19  0  0  1  0  0  0  0  0999 V2000
   -2.0451    4.9063    0.0755 F   0  0  0  0  0  0  0  0  0  0  0  0
   -2.7966   -1.2605    0.3377 N   0  0  0  0  0  0  0  0  0  0  0  0
   -2.8095   -2.2418    0.0149 H   0  0  0  0  0  0  0  0  0  0  0  0
   -2.9606   -1.2842    1.3560 H   0  0  0  0  0  0  0  0  0  0  0  0
   -3.8453   -0.4236   -0.3425 C   0  0  1  0  0  0  0  0  0  0  0  0
   -4.8259   -0.6045    0.1515 H   0  0  0  0  0  0  0  0  0  0  0  0
   -3.4145    1.0185   -0.1792 C   0  0  0  0  0  0  0  0  0  0  0  0
   -2.0123    1.2490   -0.0384 C   0  0  0  0  0  3  0  0  0  0  0  0
   -1.5734    2.5858    0.0497 C   0  0  0  0  0  0  0  0  0  0  0  0
   -0.5146    2.8565    0.1829 H   0  0  0  0  0  0  0  0  0  0  0  0
   -2.4984    3.6367   -0.0100 C   0  0  0  0  0  0  0  0  0  0  0  0
   -3.8734    3.4142   -0.1432 C   0  0  0  0  0  0  0  0  0  0  0  0
   -4.5637    4.2683   -0.1749 H   0  0  0  0  0  0  0  0  0  0  0  0
   -4.3232    2.0864   -0.2245 C   0  0  0  0  0  0  0  0  0  0  0  0
   -5.4029    1.8888   -0.3268 H   0  0  0  0  0  0  0  0  0  0  0  0
   -3.9412   -0.8413   -1.8121 C   0  0  0  0  0  0  0  0  0  0  0  0
   -2.9598   -0.6993   -2.3080 H   0  0  0  0  0  0  0  0  0  0  0  0
   -4.6895   -0.2137   -2.3324 H   0  0  0  0  0  0  0  0  0  0  0  0
   -4.2469   -1.9036   -1.9163 H   0  0  0  0  0  0  0  0  0  0  0  0
  2  4  1  0  0  0  0
  3  2  1  0  0  0  0
  5  7  1  0  0  0  0
  5  6  1  1  0  0  0
  5  2  1  0  0  0  0
  7  8  1  0  0  0  0
  8  9  2  0  0  0  0
  9 10  1  0  0  0  0
 11  9  1  0  0  0  0
 11  1  1  0  0  0  0
 12 11  2  0  0  0  0
 13 12  1  0  0  0  0
 14  7  2  0  0  0  0
 14 12  1  0  0  0  0
 15 14  1  0  0  0  0
 16  5  1  0  0  0  0
 17 16  1  0  0  0  0
 18 16  1  0  0  0  0
 19 16  1  0  0  0  0
M  END
