3,4
q = -1.0

 24 25  0  0  1  0  0  0  0  0999 V2000
    0.6623    4.8232   -0.0269 F   0  0  0  0  0  0  0  0  0  0  0  0
   -0.3552    2.6644    4.1164 O   0  0  0  0  0  0  0  0  0  0  0  0
    0.6580    0.8812   -1.7670 N   0  0  0  0  0  2  0  0  0  0  0  0
    0.1808    1.2503    0.7903 C   0  0  0  0  0  3  0  0  0  0  0  0
   -0.0800    1.3845    2.1619 C   0  0  0  0  0  0  0  0  0  0  0  0
   -0.2935    0.5092    2.7915 H   0  0  0  0  0  0  0  0  0  0  0  0
   -0.0897    2.6515    2.7839 C   0  0  0  0  0  0  0  0  0  0  0  0
    0.1670    3.8192    2.0304 C   0  0  0  0  0  0  0  0  0  0  0  0
    0.1738    4.8270    2.4614 H   0  0  0  0  0  0  0  0  0  0  0  0
    0.4201    3.6812    0.6650 C   0  0  0  0  0  0  0  0  0  0  0  0
    0.4353    2.4357    0.0071 C   0  0  0  0  0  0  0  0  0  0  0  0
    0.6760    2.2144   -1.4131 C   0  0  2  0  0  3  0  0  0  0  0  0
    0.8939    3.1873   -2.4144 C   0  0  0  0  0  0  0  0  0  0  0  0
    0.9104    4.2449   -2.1300 H   0  0  0  0  0  0  0  0  0  0  0  0
    1.0730    2.7939   -3.7429 C   0  0  0  0  0  0  0  0  0  0  0  0
    1.2373    3.5537   -4.5217 H   0  0  0  0  0  0  0  0  0  0  0  0
    1.0335    1.4288   -4.0747 C   0  0  0  0  0  0  0  0  0  0  0  0
    1.1614    1.0792   -5.1083 H   0  0  0  0  0  0  0  0  0  0  0  0
    0.8227    0.5009   -3.0538 C   0  0  0  0  0  0  0  0  0  0  0  0
    0.7715   -0.5853   -3.2269 H   0  0  0  0  0  0  0  0  0  0  0  0
   -0.3987    3.9093    4.7884 C   0  0  0  0  0  0  0  0  0  0  0  0
   -1.1857    4.5772    4.3724 H   0  0  0  0  0  0  0  0  0  0  0  0
    0.5789    4.4399    4.7429 H   0  0  0  0  0  0  0  0  0  0  0  0
   -0.6375    3.6871    5.8449 H   0  0  0  0  0  0  0  0  0  0  0  0
  1 10  1  0  0  0  0
  2 21  1  0  0  0  0
  3 12  1  0  0  0  0
  4  5  1  0  0  0  0
  5  7  2  0  0  0  0
  5  6  1  0  0  0  0
  7  2  1  0  0  0  0
  8  9  1  0  0  0  0
  8  7  1  0  0  0  0
 10  8  2  0  0  0  0
 11 10  1  0  0  0  0
 11  4  2  0  0  0  0
 12 11  1  6  0  0  0
 13 14  1  0  0  0  0
 13 12  1  0  0  0  0
 15 13  2  0  0  0  0
 16 15  1  0  0  0  0
 17 15  1  0  0  0  0
 17 19  2  0  0  0  0
 18 17  1  0  0  0  0
 19  3  1  0  0  0  0
 20 19  1  0  0  0  0
 21 24  1  0  0  0  0
 22 21  1  0  0  0  0
 23 21  1  0  0  0  0
M  END
