2,20
q = -1.0

 39 40  0  0  0  0  0  0  0  0999 V2000
   -4.2238   -0.4553   -0.0167 O   0  0  0  0  0  0  0  0  0  0  0  0
   -0.6785   -1.1235   -0.2233 N   0  0  0  0  0  2  0  0  0  0  0  0
   -0.6282   -2.4760   -0.2329 C   0  0  0  0  0  0  0  0  0  0  0  0
    0.3804   -2.9127   -0.2716 H   0  0  0  0  0  0  0  0  0  0  0  0
   -1.7971   -3.2298   -0.1822 C   0  0  0  0  0  0  0  0  0  0  0  0
   -1.7410   -4.3268   -0.1947 H   0  0  0  0  0  0  0  0  0  0  0  0
   -3.0341   -2.5728   -0.1079 C   0  0  0  0  0  0  0  0  0  0  0  0
   -3.9611   -3.1578   -0.0571 H   0  0  0  0  0  0  0  0  0  0  0  0
   -3.0772   -1.1668   -0.0972 C   0  0  0  0  0  0  0  0  0  0  0  0
   -1.8571   -0.4257   -0.1710 C   0  0  0  0  0  0  0  0  0  0  0  0
   -1.6716    1.0240   -0.2488 C   0  0  0  0  0  0  0  0  0  0  0  0
   -2.7120    1.9765   -0.3490 C   0  0  0  0  0  3  0  0  0  0  0  0
   -3.7546    1.6501   -0.2705 H   0  0  0  0  0  0  0  0  0  0  0  0
   -2.4141    3.3262   -0.5714 C   0  0  0  0  0  0  0  0  0  0  0  0
   -3.2287    4.0616   -0.6490 H   0  0  0  0  0  0  0  0  0  0  0  0
   -1.0785    3.7256   -0.7294 C   0  0  0  0  0  0  0  0  0  0  0  0
   -0.8390    4.7772   -0.9532 H   0  0  0  0  0  0  0  0  0  0  0  0
   -0.0387    2.7872   -0.6133 C   0  0  0  0  0  0  0  0  0  0  0  0
    0.9910    3.1313   -0.7880 H   0  0  0  0  0  0  0  0  0  0  0  0
   -0.2923    1.4335   -0.3196 C   0  0  0  0  0  3  0  0  0  0  0  0
   -5.4753   -1.1406    0.0649 C   0  0  0  0  0  0  0  0  0  0  0  0
   -5.4845   -1.8021    0.9622 H   0  0  0  0  0  0  0  0  0  0  0  0
   -5.6096   -1.7896   -0.8315 H   0  0  0  0  0  0  0  0  0  0  0  0
   -6.5811   -0.1016    0.1498 C   0  0  0  0  0  0  0  0  0  0  0  0
   -6.5221    0.5553   -0.7446 H   0  0  0  0  0  0  0  0  0  0  0  0
   -6.3899    0.5490    1.0301 H   0  0  0  0  0  0  0  0  0  0  0  0
   -7.9731   -0.7306    0.2504 C   0  0  0  0  0  0  0  0  0  0  0  0
   -8.1484   -1.3905   -0.6293 H   0  0  0  0  0  0  0  0  0  0  0  0
   -8.0165   -1.3986    1.1403 H   0  0  0  0  0  0  0  0  0  0  0  0
   -9.1007    0.3012    0.3393 C   0  0  0  0  0  0  0  0  0  0  0  0
   -8.9254    0.9616    1.2185 H   0  0  0  0  0  0  0  0  0  0  0  0
   -9.0572    0.9705   -0.5495 H   0  0  0  0  0  0  0  0  0  0  0  0
  -10.4977   -0.3184    0.4403 C   0  0  0  0  0  0  0  0  0  0  0  0
  -10.5352   -0.9888    1.3278 H   0  0  0  0  0  0  0  0  0  0  0  0
  -10.6674   -0.9786   -0.4394 H   0  0  0  0  0  0  0  0  0  0  0  0
  -11.6174    0.7188    0.5300 C   0  0  0  0  0  0  0  0  0  0  0  0
  -12.6150    0.2410    0.6018 H   0  0  0  0  0  0  0  0  0  0  0  0
  -11.6269    1.3802   -0.3614 H   0  0  0  0  0  0  0  0  0  0  0  0
  -11.4937    1.3697    1.4207 H   0  0  0  0  0  0  0  0  0  0  0  0
  1 21  1  0  0  0  0
  2 10  1  0  0  0  0
  3  2  1  0  0  0  0
  3  5  2  0  0  0  0
  4  3  1  0  0  0  0
  5  7  1  0  0  0  0
  6  5  1  0  0  0  0
  7  9  2  0  0  0  0
  7  8  1  0  0  0  0
  9  1  1  0  0  0  0
 10  9  1  0  0  0  0
 11 10  2  0  0  0  0
 12 13  1  0  0  0  0
 12 11  1  0  0  0  0
 14 12  1  0  0  0  0
 15 14  1  0  0  0  0
 16 18  1  0  0  0  0
 16 14  2  0  0  0  0
 17 16  1  0  0  0  0
 18 20  2  0  0  0  0
 19 18  1  0  0  0  0
 20 11  1  0  0  0  0
 21 24  1  0  0  0  0
 21 22  1  0  0  0  0
 23 21  1  0  0  0  0
 24 27  1  0  0  0  0
 24 26  1  0  0  0  0
 25 24  1  0  0  0  0
 27 30  1  0  0  0  0
 27 29  1  0  0  0  0
 28 27  1  0  0  0  0
 30 33  1  0  0  0  0
 30 31  1  0  0  0  0
 32 30  1  0  0  0  0
 33 36  1  0  0  0  0
 33 34  1  0  0  0  0
 35 33  1  0  0  0  0
 36 37  1  0  0  0  0
 36 39  1  0  0  0  0
 38 36  1  0  0  0  0
M  END
