1,2
q = -1.0

 23 24  0  0  0  0  0  0  0  0999 V2000
   -2.1247   -0.8628    0.1069 N   0  0  0  0  0  2  0  0  0  0  0  0
   -0.6855    1.0091   -0.9667 C   0  0  0  0  0  2  0  0  0  0  0  0
    0.1537    1.9623   -1.5797 C   0  0  0  0  0  0  0  0  0  0  0  0
    1.2135    1.7229   -1.7560 H   0  0  0  0  0  0  0  0  0  0  0  0
   -2.6689   -1.9690    0.6562 C   0  0  0  0  0  0  0  0  0  0  0  0
   -1.9581   -2.7960    0.8259 H   0  0  0  0  0  0  0  0  0  0  0  0
   -1.6814    3.5457   -1.7682 C   0  0  0  0  0  0  0  0  0  0  0  0
   -2.0692    4.5290   -2.0734 H   0  0  0  0  0  0  0  0  0  0  0  0
   -4.8098   -0.8974    0.7281 C   0  0  0  0  0  0  0  0  0  0  0  0
   -5.8828   -0.9064    0.9761 H   0  0  0  0  0  0  0  0  0  0  0  0
   -2.8720    0.2693   -0.1621 C   0  0  0  0  0  0  0  0  0  0  0  0
   -2.0702    1.3415   -0.7719 C   0  0  0  0  0  0  0  0  0  0  0  0
   -4.0223   -2.0248    0.9812 C   0  0  0  0  0  0  0  0  0  0  0  0
   -4.4422   -2.9372    1.4263 H   0  0  0  0  0  0  0  0  0  0  0  0
   -4.2622    0.2658    0.1582 C   0  0  0  0  0  0  0  0  0  0  0  0
   -0.3324    3.2159   -1.9769 C   0  0  0  0  0  0  0  0  0  0  0  0
    0.3456    3.9416   -2.4540 H   0  0  0  0  0  0  0  0  0  0  0  0
   -2.5420    2.6150   -1.1744 C   0  0  0  0  0  0  0  0  0  0  0  0
   -3.5879    2.9009   -1.0329 H   0  0  0  0  0  0  0  0  0  0  0  0
   -5.1822    1.4353   -0.0760 C   0  0  0  0  0  0  0  0  0  0  0  0
   -5.2426    1.7083   -1.1492 H   0  0  0  0  0  0  0  0  0  0  0  0
   -4.8528    2.3397    0.4747 H   0  0  0  0  0  0  0  0  0  0  0  0
   -6.2051    1.1876    0.2655 H   0  0  0  0  0  0  0  0  0  0  0  0
  1  5  1  0  0  0  0
  2 12  1  0  0  0  0
  3  2  1  0  0  0  0
  4  3  1  0  0  0  0
  5  6  1  0  0  0  0
  5 13  2  0  0  0  0
  7 18  2  0  0  0  0
  8  7  1  0  0  0  0
  9 10  1  0  0  0  0
  9 13  1  0  0  0  0
 11  1  1  0  0  0  0
 11 15  1  0  0  0  0
 12 11  2  0  0  0  0
 13 14  1  0  0  0  0
 15  9  2  0  0  0  0
 16  7  1  0  0  0  0
 16  3  2  0  0  0  0
 17 16  1  0  0  0  0
 18 19  1  0  0  0  0
 18 12  1  0  0  0  0
 20 15  1  0  0  0  0
 20 23  1  0  0  0  0
 20 22  1  0  0  0  0
 21 20  1  0  0  0  0
M  END
