4,22
q = -1.0

 23 24  0  0  0  0  0  0  0  0999 V2000
   -4.0080   -2.6861    0.5943 F   0  0  0  0  0  0  0  0  0  0  0  0
   -4.0339   -3.9163   -1.2134 F   0  0  0  0  0  0  0  0  0  0  0  0
   -5.1117   -2.0224   -1.1650 F   0  0  0  0  0  0  0  0  0  0  0  0
    1.0753    1.1607   -1.7372 N   0  0  0  0  0  2  0  0  0  0  0  0
    2.1221    1.9773   -1.9702 C   0  0  0  0  0  3  0  0  0  0  0  0
    2.3732    2.6538   -1.1340 H   0  0  0  0  0  0  0  0  0  0  0  0
    2.8082    1.9317   -3.1861 C   0  0  0  0  0  0  0  0  0  0  0  0
    3.6601    2.6055   -3.3500 H   0  0  0  0  0  0  0  0  0  0  0  0
    2.3857    1.0236   -4.1701 C   0  0  0  0  0  0  0  0  0  0  0  0
    2.9070    0.9663   -5.1373 H   0  0  0  0  0  0  0  0  0  0  0  0
    1.2913    0.1923   -3.9152 C   0  0  0  0  0  0  0  0  0  0  0  0
    0.9379   -0.5197   -4.6726 H   0  0  0  0  0  0  0  0  0  0  0  0
    0.6270    0.2698   -2.6774 C   0  0  0  0  0  0  0  0  0  0  0  0
   -0.5333   -0.5184   -2.2597 C   0  0  0  0  0  0  0  0  0  0  0  0
   -1.1465   -1.5166   -3.0457 C   0  0  0  0  0  0  0  0  0  0  0  0
   -0.7602   -1.7549   -4.0479 H   0  0  0  0  0  0  0  0  0  0  0  0
   -2.2503   -2.2168   -2.5534 C   0  0  0  0  0  0  0  0  0  0  0  0
   -2.7262   -3.0019   -3.1570 H   0  0  0  0  0  0  0  0  0  0  0  0
   -2.7469   -1.9218   -1.2691 C   0  0  0  0  0  0  0  0  0  0  0  0
   -2.1419   -0.9315   -0.4755 C   0  0  0  0  0  0  0  0  0  0  0  0
   -2.5417   -0.7296    0.5279 H   0  0  0  0  0  0  0  0  0  0  0  0
   -1.0403   -0.2233   -0.9658 C   0  0  0  0  0  3  0  0  0  0  0  0
   -3.9748   -2.6409   -0.7600 C   0  0  0  0  0  0  0  0  0  0  0  0
  2 23  1  0  0  0  0
  3 23  1  0  0  0  0
  5  4  1  0  0  0  0
  5  6  1  0  0  0  0
  7  5  1  0  0  0  0
  8  7  1  0  0  0  0
  9 11  1  0  0  0  0
  9  7  2  0  0  0  0
 10  9  1  0  0  0  0
 11 13  2  0  0  0  0
 12 11  1  0  0  0  0
 13 14  1  0  0  0  0
 13  4  1  0  0  0  0
 14 22  1  0  0  0  0
 15 17  1  0  0  0  0
 15 14  2  0  0  0  0
 16 15  1  0  0  0  0
 17 19  2  0  0  0  0
 18 17  1  0  0  0  0
 19 23  1  0  0  0  0
 19 20  1  0  0  0  0
 20 21  1  0  0  0  0
 22 20  2  0  0  0  0
 23  1  1  0  0  0  0
M  END
