2,6
q = -1.0

 38 40  0  0  1  0  0  0  0  0999 V2000
    1.6497   -3.6394    1.1069 O   0  0  0  0  0  0  0  0  0  0  0  0
    0.7780   -1.6051    0.7717 N   0  0  0  0  0  2  0  0  0  0  0  0
    0.6614   -2.8991    0.6040 C   0  0  0  0  0  0  0  0  0  0  0  0
    4.2939    1.6933    0.7024 C   0  0  0  0  0  0  0  0  0  0  0  0
    4.6131    2.6193    1.2069 H   0  0  0  0  0  0  0  0  0  0  0  0
   -1.3650   -2.3839   -0.5625 C   0  0  0  0  0  2  0  0  0  0  0  0
    2.8200    1.2832    2.6922 C   0  0  0  0  0  0  0  0  0  0  0  0
    3.2697    2.2419    3.0121 H   0  0  0  0  0  0  0  0  0  0  0  0
    2.9976    0.5501    3.5066 H   0  0  0  0  0  0  0  0  0  0  0  0
    1.7236    1.4379    2.5957 H   0  0  0  0  0  0  0  0  0  0  0  0
    4.3209    0.2415   -1.2136 C   0  0  0  0  0  0  0  0  0  0  0  0
    4.6697    0.0073   -2.2323 H   0  0  0  0  0  0  0  0  0  0  0  0
   -1.8838   -5.0953   -1.1483 C   0  0  0  0  0  0  0  0  0  0  0  0
   -2.1027   -6.1471   -1.3842 H   0  0  0  0  0  0  0  0  0  0  0  0
    2.0272   -1.2784    1.4731 C   0  0  2  0  0  0  0  0  0  0  0  0
    1.7503   -0.7897    2.4242 H   0  0  0  0  0  0  0  0  0  0  0  0
    2.9634   -0.3479    0.7192 C   0  0  0  0  0  0  0  0  0  0  0  0
    2.5795   -2.7142    1.7614 C   0  0  0  0  0  0  0  0  0  0  0  0
    3.5864   -2.8861    1.3369 H   0  0  0  0  0  0  0  0  0  0  0  0
    2.5857   -2.9639    2.8400 H   0  0  0  0  0  0  0  0  0  0  0  0
   -0.7388   -4.7686   -0.4100 C   0  0  0  0  0  0  0  0  0  0  0  0
   -0.0434   -5.5458   -0.0589 H   0  0  0  0  0  0  0  0  0  0  0  0
    3.3854    0.8480    1.3614 C   0  0  0  0  0  0  0  0  0  0  0  0
   -0.4855   -3.4135   -0.1242 C   0  0  0  0  0  0  0  0  0  0  0  0
    5.7049    2.3690   -1.2907 C   0  0  0  0  0  0  0  0  0  0  0  0
    5.1455    3.2500   -1.6727 H   0  0  0  0  0  0  0  0  0  0  0  0
    6.2054    1.8941   -2.1567 H   0  0  0  0  0  0  0  0  0  0  0  0
    6.4860    2.7563   -0.6061 H   0  0  0  0  0  0  0  0  0  0  0  0
    4.7756    1.4130   -0.5881 C   0  0  0  0  0  0  0  0  0  0  0  0
    3.4239   -0.6471   -0.5905 C   0  0  0  0  0  0  0  0  0  0  0  0
   -2.7527   -4.0799   -1.5917 C   0  0  0  0  0  0  0  0  0  0  0  0
   -3.6471   -4.3500   -2.1749 H   0  0  0  0  0  0  0  0  0  0  0  0
   -2.4997   -2.7244   -1.3033 C   0  0  0  0  0  0  0  0  0  0  0  0
   -3.1745   -1.9263   -1.6492 H   0  0  0  0  0  0  0  0  0  0  0  0
    2.9593   -1.8504   -1.3803 C   0  0  0  0  0  0  0  0  0  0  0  0
    1.8994   -1.7421   -1.6913 H   0  0  0  0  0  0  0  0  0  0  0  0
    3.0326   -2.8064   -0.8257 H   0  0  0  0  0  0  0  0  0  0  0  0
    3.5610   -1.9625   -2.3018 H   0  0  0  0  0  0  0  0  0  0  0  0
  1 18  1  0  0  0  0
  2 15  1  0  0  0  0
  3  2  1  0  0  0  0
  3  1  1  0  0  0  0
  4  5  1  0  0  0  0
  4 23  1  0  0  0  0
  6 24  1  0  0  0  0
  7  8  1  0  0  0  0
  7  9  1  0  0  0  0
 10  7  1  0  0  0  0
 11 30  2  0  0  0  0
 11 29  1  0  0  0  0
 12 11  1  0  0  0  0
 13 21  2  0  0  0  0
 14 13  1  0  0  0  0
 15 18  1  0  0  0  0
 15 16  1  1  0  0  0
 17 23  2  0  0  0  0
 17 15  1  0  0  0  0
 18 20  1  0  0  0  0
 19 18  1  0  0  0  0
 21 24  1  0  0  0  0
 21 22  1  0  0  0  0
 23  7  1  0  0  0  0
 24  3  2  0  0  0  0
 25 28  1  0  0  0  0
 25 29  1  0  0  0  0
 26 25  1  0  0  0  0
 27 25  1  0  0  0  0
 29  4  2  0  0  0  0
 30 17  1  0  0  0  0
 31 33  2  0  0  0  0
 31 13  1  0  0  0  0
 32 31  1  0  0  0  0
 33  6  1  0  0  0  0
 34 33  1  0  0  0  0
 35 37  1  0  0  0  0
 35 30  1  0  0  0  0
 36 35  1  0  0  0  0
 38 35  1  0  0  0  0
M  END
