1
q = -1.0, confidence = 0.0

 39 40  0  0  1  0  0  0  0  0999 V2000
   -2.4201   -0.0150    0.2453 N   0  0  0  0  0  0  0  0  0  0  0  0
   -0.2584    1.1700    1.4996 C   0  0  1  0  0  3  0  0  0  0  0  0
    0.5995    0.0664    1.8285 C   0  0  0  0  0  0  0  0  0  0  0  0
    0.4863   -0.5985    2.6944 H   0  0  0  0  0  0  0  0  0  0  0  0
    1.5263   -0.1004    0.7412 C   0  0  0  0  0  0  0  0  0  0  0  0
    1.4433    1.1088   -0.1037 C   0  0  0  0  0  0  0  0  0  0  0  0
    2.1613    1.5089   -1.2414 C   0  0  0  0  0  0  0  0  0  0  0  0
    2.9796    0.8882   -1.6349 H   0  0  0  0  0  0  0  0  0  0  0  0
    1.8066    2.7139   -1.8771 C   0  0  0  0  0  0  0  0  0  0  0  0
    2.3730    3.0461   -2.7602 H   0  0  0  0  0  0  0  0  0  0  0  0
    0.7403    3.5003   -1.4031 C   0  0  0  0  0  0  0  0  0  0  0  0
    0.4897    4.4419   -1.9145 H   0  0  0  0  0  0  0  0  0  0  0  0
   -0.0102    3.0980   -0.2812 C   0  0  0  0  0  0  0  0  0  0  0  0
   -0.8426    3.7199    0.0830 H   0  0  0  0  0  0  0  0  0  0  0  0
    0.3418    1.9049    0.3721 C   0  0  0  0  0  0  0  0  0  0  0  0
   -1.6110    1.4624    2.0983 C   0  0  0  0  0  0  0  0  0  0  0  0
   -1.6868    2.5011    2.4864 H   0  0  0  0  0  0  0  0  0  0  0  0
   -1.7984    0.7881    2.9584 H   0  0  0  0  0  0  0  0  0  0  0  0
   -2.6564    1.2622    0.9928 C   0  0  0  0  0  0  0  0  0  0  0  0
   -3.7026    1.2916    1.3778 H   0  0  0  0  0  0  0  0  0  0  0  0
   -2.5552    2.0775    0.2507 H   0  0  0  0  0  0  0  0  0  0  0  0
   -3.0868    0.0372   -1.0717 C   0  0  0  0  0  0  0  0  0  0  0  0
   -2.8550   -0.8932   -1.6231 H   0  0  0  0  0  0  0  0  0  0  0  0
   -2.6867    0.8914   -1.6496 H   0  0  0  0  0  0  0  0  0  0  0  0
   -4.1888    0.1533   -0.9521 H   0  0  0  0  0  0  0  0  0  0  0  0
   -2.9051   -1.1856    1.0064 C   0  0  0  0  0  0  0  0  0  0  0  0
   -4.0122   -1.1411    1.1358 H   0  0  0  0  0  0  0  0  0  0  0  0
   -2.4265   -1.2163    2.0025 H   0  0  0  0  0  0  0  0  0  0  0  0
   -2.6235   -2.1029    0.4556 H   0  0  0  0  0  0  0  0  0  0  0  0
    2.6066   -1.1445    0.6218 C   0  0  0  0  0  0  0  0  0  0  0  0
    2.7035   -1.3689   -0.4633 H   0  0  0  0  0  0  0  0  0  0  0  0
    3.9485   -0.5763    1.1240 C   0  0  0  0  0  0  0  0  0  0  0  0
    4.2223    0.3603    0.5990 H   0  0  0  0  0  0  0  0  0  0  0  0
    4.7656   -1.3102    0.9692 H   0  0  0  0  0  0  0  0  0  0  0  0
    3.8951   -0.3494    2.2092 H   0  0  0  0  0  0  0  0  0  0  0  0
    2.2444   -2.4513    1.3343 C   0  0  0  0  0  0  0  0  0  0  0  0
    2.1681   -2.3053    2.4327 H   0  0  0  0  0  0  0  0  0  0  0  0
    3.0242   -3.2194    1.1594 H   0  0  0  0  0  0  0  0  0  0  0  0
    1.2792   -2.8431    0.9568 H   0  0  0  0  0  0  0  0  0  0  0  0
  1 19  1  0  0  0  0
  1 26  1  0  0  0  0
  2  3  1  0  0  0  0
  2 16  1  6  0  0  0
  3  4  1  0  0  0  0
  5  3  2  0  0  0  0
  6 15  1  0  0  0  0
  6  5  1  0  0  0  0
  7  6  2  0  0  0  0
  8  7  1  0  0  0  0
  9 11  2  0  0  0  0
  9  7  1  0  0  0  0
 10  9  1  0  0  0  0
 11 13  1  0  0  0  0
 12 11  1  0  0  0  0
 13 14  1  0  0  0  0
 13 15  2  0  0  0  0
 15  2  1  0  0  0  0
 16 17  1  0  0  0  0
 16 18  1  0  0  0  0
 19 20  1  0  0  0  0
 19 16  1  0  0  0  0
 21 19  1  0  0  0  0
 22 25  1  0  0  0  0
 22  1  1  0  0  0  0
 23 22  1  0  0  0  0
 24 22  1  0  0  0  0
 26 27  1  0  0  0  0
 26 28  1  0  0  0  0
 29 26  1  0  0  0  0
 30  5  1  0  0  0  0
 30 32  1  0  0  0  0
 30 36  1  0  0  0  0
 31 30  1  0  0  0  0
 32 35  1  0  0  0  0
 33 32  1  0  0  0  0
 34 32  1  0  0  0  0
 36 37  1  0  0  0  0
 38 36  1  0  0  0  0
 39 36  1  0  0  0  0
M  END
