1,10
q = 0.0, confidence = 1.0

 30 31  0  0  0  0  0  0  0  0999 V2000
    0.0418    1.2728   -0.3881 C   0  0  0  0  0  2  0  0  0  0  0  0
   -0.8967    2.1535   -0.8243 N   0  0  0  0  0  0  0  0  0  0  0  0
    1.1243    2.0716   -0.0663 N   0  0  0  0  0  0  0  0  0  0  0  0
   -0.4363    3.4669   -0.7534 C   0  0  0  0  0  0  0  0  0  0  0  0
   -1.0563    4.3197   -1.0443 H   0  0  0  0  0  0  0  0  0  0  0  0
    0.8473    3.4223   -0.2866 C   0  0  0  0  0  0  0  0  0  0  0  0
    1.5634    4.2255   -0.0997 H   0  0  0  0  0  0  0  0  0  0  0  0
    3.2797   -0.5544    1.0046 C   0  0  0  0  0  3  0  0  0  0  0  0
    3.1597   -1.6430    1.0942 H   0  0  0  0  0  0  0  0  0  0  0  0
    2.2007    0.1194    0.5488 N   0  0  0  0  0  2  0  0  0  0  0  0
    2.2965    1.4654    0.4061 C   0  0  0  0  0  0  0  0  0  0  0  0
    4.5696    1.4730    1.1884 C   0  0  0  0  0  0  0  0  0  0  0  0
    5.4992    2.0059    1.4355 H   0  0  0  0  0  0  0  0  0  0  0  0
    4.4783    0.0800    1.3377 C   0  0  0  0  0  0  0  0  0  0  0  0
    5.3260   -0.5153    1.7032 H   0  0  0  0  0  0  0  0  0  0  0  0
   -2.2454    1.7513   -1.1632 C   0  0  0  0  0  0  0  0  0  0  0  0
   -2.2209    0.8608   -1.8179 H   0  0  0  0  0  0  0  0  0  0  0  0
   -2.7441    2.5659   -1.7246 H   0  0  0  0  0  0  0  0  0  0  0  0
   -3.0497    1.4402    0.1052 C   0  0  0  0  0  0  0  0  0  0  0  0
    3.4617    2.1823    0.7147 C   0  0  0  0  0  0  0  0  0  0  0  0
    3.5018    3.2708    0.5797 H   0  0  0  0  0  0  0  0  0  0  0  0
   -2.7263    1.7890    1.2218 O   0  0  0  0  0  0  0  0  0  0  0  0
   -4.1496    0.7473   -0.2254 O   0  0  0  0  0  0  0  0  0  0  0  0
   -4.9888    0.2912    0.8700 C   0  0  0  0  0  0  0  0  0  0  0  0
   -5.9973    0.2040    0.4217 H   0  0  0  0  0  0  0  0  0  0  0  0
   -5.0009    1.0738    1.6552 H   0  0  0  0  0  0  0  0  0  0  0  0
   -4.4919   -1.0371    1.4132 C   0  0  0  0  0  0  0  0  0  0  0  0
   -4.3922   -1.7802    0.5980 H   0  0  0  0  0  0  0  0  0  0  0  0
   -5.2113   -1.4274    2.1610 H   0  0  0  0  0  0  0  0  0  0  0  0
   -3.5090   -0.9230    1.9099 H   0  0  0  0  0  0  0  0  0  0  0  0
  1  3  1  0  0  0  0
  2  4  1  0  0  0  0
  2  1  1  0  0  0  0
  3 11  1  0  0  0  0
  4  6  2  0  0  0  0
  5  4  1  0  0  0  0
  6  7  1  0  0  0  0
  6  3  1  0  0  0  0
  8  9  1  0  0  0  0
  8 14  1  0  0  0  0
 10  8  1  0  0  0  0
 11 10  1  0  0  0  0
 11 20  2  0  0  0  0
 12 14  2  0  0  0  0
 12 13  1  0  0  0  0
 14 15  1  0  0  0  0
 16  2  1  0  0  0  0
 16 19  1  0  0  0  0
 17 16  1  0  0  0  0
 18 16  1  0  0  0  0
 19 22  2  0  0  0  0
 20 12  1  0  0  0  0
 21 20  1  0  0  0  0
 23 19  1  0  0  0  0
 23 24  1  0  0  0  0
 24 27  1  0  0  0  0
 24 26  1  0  0  0  0
 25 24  1  0  0  0  0
 27 30  1  0  0  0  0
 27 29  1  0  0  0  0
 28 27  1  0  0  0  0
M  END
