5,19
q = 0.0, confidence = 0.998

 27 29  0  0  1  0  0  0  0  0999 V2000
   -4.6860    3.4005   -0.6334 C   0  0  0  0  0  0  0  0  0  0  0  0
   -5.5196    3.9906   -1.0410 H   0  0  0  0  0  0  0  0  0  0  0  0
   -1.5440    0.9875    0.6629 N   0  0  0  0  0  0  0  0  0  0  0  0
   -0.6165    0.8605    1.7110 C   0  0  1  0  0  3  0  0  0  0  0  0
    0.0620   -0.3157    1.7062 N   0  0  0  0  0  2  0  0  0  0  0  0
   -2.5095    0.4089   -1.2201 N   0  0  0  0  0  0  0  0  0  0  0  0
    1.2258    0.3654    3.7025 C   0  0  0  0  0  0  0  0  0  0  0  0
    1.9664    0.1233    4.4762 H   0  0  0  0  0  0  0  0  0  0  0  0
    0.9653   -0.5534    2.6831 C   0  0  0  0  0  0  0  0  0  0  0  0
    1.4993   -1.5091    2.6204 H   0  0  0  0  0  0  0  0  0  0  0  0
   -3.0382    3.0514    1.1568 C   0  0  0  0  0  0  0  0  0  0  0  0
   -2.6318    3.3549    2.1277 H   0  0  0  0  0  0  0  0  0  0  0  0
   -4.2217    2.2809   -1.3407 C   0  0  0  0  0  0  0  0  0  0  0  0
   -4.6775    1.9737   -2.2920 H   0  0  0  0  0  0  0  0  0  0  0  0
    0.5568    1.5963    3.6810 C   0  0  0  0  0  0  0  0  0  0  0  0
    0.7650    2.3636    4.4409 H   0  0  0  0  0  0  0  0  0  0  0  0
   -0.3771    1.8558    2.6719 C   0  0  0  0  0  0  0  0  0  0  0  0
   -0.8795    2.8257    2.6138 H   0  0  0  0  0  0  0  0  0  0  0  0
   -1.5302    0.0286   -0.3552 C   0  0  0  0  0  2  0  0  0  0  0  0
   -2.8759   -0.2886   -2.4392 C   0  0  0  0  0  0  0  0  0  0  0  0
   -2.7621    0.3848   -3.3120 H   0  0  0  0  0  0  0  0  0  0  0  0
   -3.9282   -0.6321   -2.3802 H   0  0  0  0  0  0  0  0  0  0  0  0
   -2.2142   -1.1596   -2.5658 H   0  0  0  0  0  0  0  0  0  0  0  0
   -2.5522    1.9441    0.4446 C   0  0  0  0  0  0  0  0  0  0  0  0
   -3.1580    1.5649   -0.7798 C   0  0  0  0  0  0  0  0  0  0  0  0
   -4.1073    3.7708    0.5958 C   0  0  0  0  0  0  0  0  0  0  0  0
   -4.5010    4.6426    1.1384 H   0  0  0  0  0  0  0  0  0  0  0  0
  1 26  1  0  0  0  0
  2  1  1  0  0  0  0
  4  3  1  6  0  0  0
  4 17  1  0  0  0  0
  5  4  1  0  0  0  0
  5  9  1  0  0  0  0
  6 25  1  0  0  0  0
  6 19  1  0  0  0  0
  7  8  1  0  0  0  0
  9  7  2  0  0  0  0
 10  9  1  0  0  0  0
 11 12  1  0  0  0  0
 13 25  1  0  0  0  0
 13  1  2  0  0  0  0
 14 13  1  0  0  0  0
 15  7  1  0  0  0  0
 15 16  1  0  0  0  0
 17 15  2  0  0  0  0
 18 17  1  0  0  0  0
 19  3  1  0  0  0  0
 20 22  1  0  0  0  0
 20  6  1  0  0  0  0
 21 20  1  0  0  0  0
 23 20  1  0  0  0  0
 24  3  1  0  0  0  0
 24 11  1  0  0  0  0
 25 24  2  0  0  0  0
 26 27  1  0  0  0  0
 26 11  2  0  0  0  0
M  END
