1,30
q = -1.0

 32 33  0  0  0  0  0  0  0  0999 V2000
    2.5432   -1.1559   -0.0067 C   0  0  0  0  0  2  0  0  0  0  0  0
    2.3251   -2.5730   -0.0200 C   0  0  0  0  0  0  0  0  0  0  0  0
    3.4178   -3.4712    0.0595 C   0  0  0  0  0  0  0  0  0  0  0  0
    3.2417   -4.5585    0.0482 H   0  0  0  0  0  0  0  0  0  0  0  0
    4.7140   -2.9778    0.1552 C   0  0  0  0  0  0  0  0  0  0  0  0
    5.5865   -3.6427    0.2196 H   0  0  0  0  0  0  0  0  0  0  0  0
    4.9350   -1.5743    0.1716 C   0  0  0  0  0  0  0  0  0  0  0  0
    3.8541   -0.6683    0.0920 C   0  0  0  0  0  0  0  0  0  0  0  0
    4.0152    0.4178    0.1039 H   0  0  0  0  0  0  0  0  0  0  0  0
    0.9456   -2.9323   -0.1246 C   0  0  0  0  0  0  0  0  0  0  0  0
    0.5869   -3.9756   -0.1594 H   0  0  0  0  0  0  0  0  0  0  0  0
   -1.3267   -2.1934   -0.2150 C   0  0  0  0  0  0  0  0  0  0  0  0
   -2.1701   -1.5040   -1.1151 C   0  0  0  0  0  0  0  0  0  0  0  0
   -1.7383   -0.7645   -1.8005 H   0  0  0  0  0  0  0  0  0  0  0  0
   -3.5396   -1.7509   -1.1245 C   0  0  0  0  0  0  0  0  0  0  0  0
   -4.2059   -1.2141   -1.8145 H   0  0  0  0  0  0  0  0  0  0  0  0
   -4.1089   -2.6865   -0.2315 C   0  0  0  0  0  0  0  0  0  0  0  0
   -3.2749   -3.3724    0.6758 C   0  0  0  0  0  0  0  0  0  0  0  0
   -3.6889   -4.0881    1.3981 H   0  0  0  0  0  0  0  0  0  0  0  0
   -1.8960   -3.1175    0.6817 C   0  0  0  0  0  0  0  0  0  0  0  0
   -1.2544   -3.6205    1.4205 H   0  0  0  0  0  0  0  0  0  0  0  0
    6.5335    0.1925    0.2883 C   0  0  0  0  0  0  0  0  0  0  0  0
    6.1964    0.7026   -0.6411 H   0  0  0  0  0  0  0  0  0  0  0  0
    7.6334    0.2719    0.3679 H   0  0  0  0  0  0  0  0  0  0  0  0
    6.0661    0.7019    1.1599 H   0  0  0  0  0  0  0  0  0  0  0  0
   -6.0804   -3.7604    0.5684 C   0  0  0  0  0  0  0  0  0  0  0  0
   -5.7042   -4.7986    0.4257 H   0  0  0  0  0  0  0  0  0  0  0  0
   -7.1606   -3.7348    0.3335 H   0  0  0  0  0  0  0  0  0  0  0  0
   -5.9360   -3.4733    1.6344 H   0  0  0  0  0  0  0  0  0  0  0  0
    0.0701   -1.9405   -0.2031 N   0  0  0  0  0  2  0  0  0  0  0  0
    6.2340   -1.1929    0.2657 O   0  0  0  0  0  0  0  0  0  0  0  0
   -5.4564   -2.8468   -0.3129 O   0  0  0  0  0  0  0  0  0  0  0  0
  1  8  1  0  0  0  0
  2  1  1  0  0  0  0
  2  3  1  0  0  0  0
  3  5  2  0  0  0  0
  4  3  1  0  0  0  0
  5  7  1  0  0  0  0
  5  6  1  0  0  0  0
  7 31  1  0  0  0  0
  8  9  1  0  0  0  0
  8  7  2  0  0  0  0
 10  2  2  0  0  0  0
 11 10  1  0  0  0  0
 12 30  1  0  0  0  0
 12 20  1  0  0  0  0
 13 12  2  0  0  0  0
 14 13  1  0  0  0  0
 15 13  1  0  0  0  0
 15 17  2  0  0  0  0
 16 15  1  0  0  0  0
 17 18  1  0  0  0  0
 18 20  2  0  0  0  0
 18 19  1  0  0  0  0
 20 21  1  0  0  0  0
 22 24  1  0  0  0  0
 22 25  1  0  0  0  0
 23 22  1  0  0  0  0
 26 29  1  0  0  0  0
 27 26  1  0  0  0  0
 28 26  1  0  0  0  0
 30 10  1  0  0  0  0
 31 22  1  0  0  0  0
 32 17  1  0  0  0  0
 32 26  1  0  0  0  0
M  END
