1,33
q = -1.0

 35 37  0  0  0  0  0  0  0  0999 V2000
    0.7765    2.0017    0.0000 C   0  0  0  0  0  2  0  0  0  0  0  0
    1.4980    3.2123    0.0000 C   0  0  0  0  0  0  0  0  0  0  0  0
    2.5968    3.1815   -0.0001 H   0  0  0  0  0  0  0  0  0  0  0  0
    0.8190    4.4392    0.0001 C   0  0  0  0  0  0  0  0  0  0  0  0
    1.3951    5.3783    0.0001 H   0  0  0  0  0  0  0  0  0  0  0  0
   -0.5897    4.4875    0.0002 C   0  0  0  0  0  0  0  0  0  0  0  0
   -1.1116    5.4559    0.0003 H   0  0  0  0  0  0  0  0  0  0  0  0
   -1.3215    3.2976    0.0002 C   0  0  0  0  0  0  0  0  0  0  0  0
   -2.4214    3.3363    0.0003 H   0  0  0  0  0  0  0  0  0  0  0  0
   -0.6439    2.0569    0.0001 C   0  0  0  0  0  0  0  0  0  0  0  0
   -1.2876    0.7540    0.0001 C   0  0  0  0  0  0  0  0  0  0  0  0
   -2.6936    0.6002    0.0001 C   0  0  0  0  0  0  0  0  0  0  0  0
   -3.3194    1.4990    0.0002 H   0  0  0  0  0  0  0  0  0  0  0  0
   -3.2966   -0.6463    0.0001 C   0  0  0  0  0  0  0  0  0  0  0  0
   -2.4454   -1.8066    0.0001 C   0  0  0  0  0  0  0  0  0  0  0  0
   -1.0090   -1.6010   -0.0000 C   0  0  0  0  0  0  0  0  0  0  0  0
   -0.1625   -2.7410   -0.0001 C   0  0  0  0  0  0  0  0  0  0  0  0
    0.9244   -2.5966   -0.0002 H   0  0  0  0  0  0  0  0  0  0  0  0
   -0.6919   -4.0240   -0.0002 C   0  0  0  0  0  0  0  0  0  0  0  0
   -0.0069   -4.8859   -0.0002 H   0  0  0  0  0  0  0  0  0  0  0  0
   -2.0901   -4.2300   -0.0001 C   0  0  0  0  0  0  0  0  0  0  0  0
   -2.5022   -5.2503   -0.0001 H   0  0  0  0  0  0  0  0  0  0  0  0
   -2.9476   -3.1397    0.0000 C   0  0  0  0  0  0  0  0  0  0  0  0
   -4.0354   -3.2736    0.0001 H   0  0  0  0  0  0  0  0  0  0  0  0
   -4.7971   -0.7263    0.0002 C   0  0  0  0  0  0  0  0  0  0  0  0
   -6.7980    0.5492   -0.0001 C   0  0  0  0  0  0  0  0  0  0  0  0
   -7.1697   -0.0009    0.8904 H   0  0  0  0  0  0  0  0  0  0  0  0
   -7.1698   -0.0016   -0.8901 H   0  0  0  0  0  0  0  0  0  0  0  0
   -7.2244    2.0022   -0.0007 C   0  0  0  0  0  0  0  0  0  0  0  0
   -6.8457    2.5295    0.8973 H   0  0  0  0  0  0  0  0  0  0  0  0
   -8.3301    2.0710   -0.0007 H   0  0  0  0  0  0  0  0  0  0  0  0
   -6.8458    2.5288   -0.8991 H   0  0  0  0  0  0  0  0  0  0  0  0
   -0.4504   -0.3257    0.0000 N   0  0  0  0  0  2  0  0  0  0  0  0
   -5.4727   -1.7438    0.0005 O   0  0  0  0  0  0  0  0  0  0  0  0
   -5.3558    0.5102   -0.0002 O   0  0  0  0  0  0  0  0  0  0  0  0
  1 10  1  0  0  0  0
  2  1  1  0  0  0  0
  2  4  2  0  0  0  0
  3  2  1  0  0  0  0
  4  6  1  0  0  0  0
  5  4  1  0  0  0  0
  6  8  2  0  0  0  0
  6  7  1  0  0  0  0
  8  9  1  0  0  0  0
 10  8  1  0  0  0  0
 11 10  2  0  0  0  0
 11 12  1  0  0  0  0
 12 13  1  0  0  0  0
 14 12  2  0  0  0  0
 14 25  1  0  0  0  0
 15 14  1  0  0  0  0
 16 33  1  0  0  0  0
 16 15  2  0  0  0  0
 17 16  1  0  0  0  0
 18 17  1  0  0  0  0
 19 17  2  0  0  0  0
 19 21  1  0  0  0  0
 20 19  1  0  0  0  0
 21 23  2  0  0  0  0
 22 21  1  0  0  0  0
 23 15  1  0  0  0  0
 23 24  1  0  0  0  0
 25 34  2  0  0  0  0
 26 27  1  0  0  0  0
 28 26  1  0  0  0  0
 29 31  1  0  0  0  0
 29 26  1  0  0  0  0
 29 30  1  0  0  0  0
 32 29  1  0  0  0  0
 33 11  1  0  0  0  0
 35 26  1  0  0  0  0
 35 25  1  0  0  0  0
M  END
