2,4
q = -1.0, confidence = 0.002

 42 44  0  0  1  0  0  0  0  0999 V2000
    0.4397    2.7664    2.5094 O   0  0  0  0  0  0  0  0  0  0  0  0
    0.2815    1.0099    1.1258 N   0  0  0  0  0  2  0  0  0  0  0  0
   -0.1511    1.3424   -2.1705 C   0  0  1  0  0  3  0  0  0  0  0  0
   -1.1274    0.3144   -2.4819 C   0  0  0  0  0  3  0  0  0  0  0  0
   -2.2022    0.4972   -2.6129 H   0  0  0  0  0  0  0  0  0  0  0  0
   -0.4926   -0.9810   -2.5117 C   0  0  0  0  0  3  0  0  0  0  0  0
   -0.9770   -1.9402   -2.7255 H   0  0  0  0  0  0  0  0  0  0  0  0
    0.9434   -0.7552   -2.3542 C   0  0  0  0  0  0  0  0  0  0  0  0
    1.1575    0.6732   -2.1533 C   0  0  0  0  0  0  0  0  0  0  0  0
    2.4818    1.1650   -1.9773 C   0  0  0  0  0  0  0  0  0  0  0  0
    2.6640    2.2434   -1.8704 H   0  0  0  0  0  0  0  0  0  0  0  0
    3.5384    0.2634   -1.9740 C   0  0  0  0  0  0  0  0  0  0  0  0
    4.5662    0.6351   -1.8461 H   0  0  0  0  0  0  0  0  0  0  0  0
    3.3218   -1.1361   -2.1318 C   0  0  0  0  0  0  0  0  0  0  0  0
    4.1850   -1.8176   -2.1073 H   0  0  0  0  0  0  0  0  0  0  0  0
    2.0475   -1.6519   -2.3209 C   0  0  0  0  0  0  0  0  0  0  0  0
    1.8783   -2.7307   -2.4402 H   0  0  0  0  0  0  0  0  0  0  0  0
   -0.4140    2.8208   -2.1351 C   0  0  0  0  0  0  0  0  0  0  0  0
    0.0682    3.2862   -3.0243 H   0  0  0  0  0  0  0  0  0  0  0  0
   -1.5051    2.9796   -2.2609 H   0  0  0  0  0  0  0  0  0  0  0  0
    0.0483    3.5819   -0.8797 C   0  0  0  0  0  0  0  0  0  0  0  0
   -0.1121    4.6621   -1.0719 H   0  0  0  0  0  0  0  0  0  0  0  0
    1.1423    3.4679   -0.7325 H   0  0  0  0  0  0  0  0  0  0  0  0
   -0.6990    3.2144    0.4269 C   0  0  0  0  0  0  0  0  0  0  0  0
   -0.8898    4.1261    1.0231 H   0  0  0  0  0  0  0  0  0  0  0  0
   -1.6854    2.7541    0.1954 H   0  0  0  0  0  0  0  0  0  0  0  0
    0.0144    2.2667    1.3335 C   0  0  2  0  0  3  0  0  0  0  0  0
    0.9215    1.6334    3.2893 C   0  0  0  0  0  0  0  0  0  0  0  0
    0.1430    1.3965    4.0431 H   0  0  0  0  0  0  0  0  0  0  0  0
    1.8506    1.9418    3.8045 H   0  0  0  0  0  0  0  0  0  0  0  0
    1.1097    0.5139    2.2519 C   0  0  2  0  0  0  0  0  0  0  0  0
    0.6750   -0.4466    2.5931 H   0  0  0  0  0  0  0  0  0  0  0  0
    2.5641    0.2517    1.7977 C   0  0  0  0  0  0  0  0  0  0  0  0
    2.4659   -0.3759    0.8843 H   0  0  0  0  0  0  0  0  0  0  0  0
    3.3221    1.5303    1.4296 C   0  0  0  0  0  0  0  0  0  0  0  0
    4.3035    1.2817    0.9783 H   0  0  0  0  0  0  0  0  0  0  0  0
    3.5226    2.1678    2.3166 H   0  0  0  0  0  0  0  0  0  0  0  0
    2.7679    2.1386    0.6877 H   0  0  0  0  0  0  0  0  0  0  0  0
    3.3032   -0.5734    2.8552 C   0  0  0  0  0  0  0  0  0  0  0  0
    4.3369   -0.8015    2.5264 H   0  0  0  0  0  0  0  0  0  0  0  0
    2.7830   -1.5353    3.0375 H   0  0  0  0  0  0  0  0  0  0  0  0
    3.3786   -0.0298    3.8219 H   0  0  0  0  0  0  0  0  0  0  0  0
  1 28  1  0  0  0  0
  2 27  1  0  0  0  0
  2 31  1  0  0  0  0
  3  9  1  0  0  0  0
  3 18  1  6  0  0  0
  4  3  1  0  0  0  0
  5  4  1  0  0  0  0
  6  4  1  0  0  0  0
  6  8  1  0  0  0  0
  7  6  1  0  0  0  0
  8 16  2  0  0  0  0
  8  9  1  0  0  0  0
  9 10  2  0  0  0  0
 10 12  1  0  0  0  0
 10 11  1  0  0  0  0
 12 13  1  0  0  0  0
 14 15  1  0  0  0  0
 14 12  2  0  0  0  0
 16 14  1  0  0  0  0
 17 16  1  0  0  0  0
 18 21  1  0  0  0  0
 19 18  1  0  0  0  0
 20 18  1  0  0  0  0
 21 23  1  0  0  0  0
 21 24  1  0  0  0  0
 22 21  1  0  0  0  0
 24 25  1  0  0  0  0
 26 24  1  0  0  0  0
 27 24  1  6  0  0  0
 27  1  1  0  0  0  0
 28 30  1  0  0  0  0
 28 29  1  0  0  0  0
 31 32  1  1  0  0  0
 31 28  1  0  0  0  0
 33 31  1  0  0  0  0
 33 39  1  0  0  0  0
 34 33  1  0  0  0  0
 35 33  1  0  0  0  0
 35 37  1  0  0  0  0
 36 35  1  0  0  0  0
 38 35  1  0  0  0  0
 39 41  1  0  0  0  0
 39 42  1  0  0  0  0
 40 39  1  0  0  0  0
M  END
