2,23
q = -1.0

 23 24  0  0  0  0  0  0  0  0999 V2000
   -3.9419   -1.0855   -0.6489 F   0  0  0  0  0  0  0  0  0  0  0  0
   -0.4239    1.3045   -0.1787 N   0  0  0  0  0  2  0  0  0  0  0  0
   -0.2202    2.6288   -0.2789 C   0  0  0  0  0  0  0  0  0  0  0  0
    0.8348    2.9292   -0.4138 H   0  0  0  0  0  0  0  0  0  0  0  0
   -1.2894    3.5186   -0.1691 C   0  0  0  0  0  0  0  0  0  0  0  0
   -1.1173    4.5983   -0.2758 H   0  0  0  0  0  0  0  0  0  0  0  0
   -2.5439    2.9992    0.1591 C   0  0  0  0  0  0  0  0  0  0  0  0
   -3.3849    3.6825    0.3561 H   0  0  0  0  0  0  0  0  0  0  0  0
   -2.7647    1.6130    0.2891 C   0  0  0  0  0  0  0  0  0  0  0  0
   -1.6705    0.7463    0.0050 C   0  0  0  0  0  0  0  0  0  0  0  0
   -4.1005    1.1540    0.8127 C   0  0  0  0  0  0  0  0  0  0  0  0
   -4.8157    0.9263   -0.0008 H   0  0  0  0  0  0  0  0  0  0  0  0
   -4.5411    1.9538    1.4387 H   0  0  0  0  0  0  0  0  0  0  0  0
   -4.0088    0.2420    1.4308 H   0  0  0  0  0  0  0  0  0  0  0  0
   -1.6481   -0.7248   -0.0379 C   0  0  0  0  0  0  0  0  0  0  0  0
   -2.7416   -1.5877   -0.2929 C   0  0  0  0  0  3  0  0  0  0  0  0
   -2.6217   -2.9794   -0.2532 C   0  0  0  0  0  0  0  0  0  0  0  0
   -3.5163   -3.5873   -0.4474 H   0  0  0  0  0  0  0  0  0  0  0  0
   -1.3673   -3.5515   -0.0103 C   0  0  0  0  0  0  0  0  0  0  0  0
   -1.2647   -4.6469    0.0227 H   0  0  0  0  0  0  0  0  0  0  0  0
   -0.2307   -2.7371    0.1366 C   0  0  0  0  0  0  0  0  0  0  0  0
    0.7705   -3.1746    0.2582 H   0  0  0  0  0  0  0  0  0  0  0  0
   -0.3683   -1.3484    0.0943 C   0  0  0  0  0  3  0  0  0  0  0  0
  1 16  1  0  0  0  0
  2 10  1  0  0  0  0
  3  2  1  0  0  0  0
  3  5  2  0  0  0  0
  4  3  1  0  0  0  0
  5  7  1  0  0  0  0
  6  5  1  0  0  0  0
  7  9  2  0  0  0  0
  7  8  1  0  0  0  0
  9 11  1  0  0  0  0
 10  9  1  0  0  0  0
 11 14  1  0  0  0  0
 11 13  1  0  0  0  0
 12 11  1  0  0  0  0
 15 10  2  0  0  0  0
 15 23  1  0  0  0  0
 16 17  1  0  0  0  0
 16 15  1  0  0  0  0
 17 19  2  0  0  0  0
 18 17  1  0  0  0  0
 19 20  1  0  0  0  0
 19 21  1  0  0  0  0
 21 22  1  0  0  0  0
 23 21  2  0  0  0  0
M  END
