1,2
q = -1.0

 31 34  0  0  1  0  0  0  0  0999 V2000
    1.2080    0.7548   -1.7624 N   0  0  0  0  0  2  0  0  0  0  0  0
   -1.0527   -0.0366   -1.6315 C   0  0  0  0  0  3  0  0  0  0  0  0
   -0.8584   -1.4805   -1.5106 C   0  0  0  0  0  0  0  0  0  0  0  0
    0.2809   -2.3099   -1.6783 C   0  0  0  0  0  0  0  0  0  0  0  0
    1.2503   -1.8844   -1.9796 H   0  0  0  0  0  0  0  0  0  0  0  0
    0.1599   -3.6941   -1.4795 C   0  0  0  0  0  0  0  0  0  0  0  0
    1.0480   -4.3313   -1.6091 H   0  0  0  0  0  0  0  0  0  0  0  0
   -1.0759   -4.2789   -1.1278 C   0  0  0  0  0  0  0  0  0  0  0  0
   -1.1442   -5.3675   -0.9832 H   0  0  0  0  0  0  0  0  0  0  0  0
   -2.2184   -3.4770   -0.9723 C   0  0  0  0  0  0  0  0  0  0  0  0
   -3.1865   -3.9354   -0.7150 H   0  0  0  0  0  0  0  0  0  0  0  0
   -2.1237   -2.0869   -1.1550 C   0  0  0  0  0  0  0  0  0  0  0  0
   -3.1137   -1.0304   -1.0608 C   0  0  0  0  0  0  0  0  0  0  0  0
   -4.4761   -1.0562   -0.7053 C   0  0  0  0  0  0  0  0  0  0  0  0
   -4.9751   -2.0133   -0.4842 H   0  0  0  0  0  0  0  0  0  0  0  0
   -5.1916    0.1460   -0.6356 C   0  0  0  0  0  0  0  0  0  0  0  0
   -6.2564    0.1373   -0.3584 H   0  0  0  0  0  0  0  0  0  0  0  0
   -4.5519    1.3750   -0.9217 C   0  0  0  0  0  0  0  0  0  0  0  0
   -5.1250    2.3123   -0.8539 H   0  0  0  0  0  0  0  0  0  0  0  0
   -3.2003    1.4213   -1.2861 C   0  0  0  0  0  0  0  0  0  0  0  0
   -2.7194    2.3903   -1.4875 H   0  0  0  0  0  0  0  0  0  0  0  0
   -2.4614    0.2182   -1.3645 C   0  0  0  0  0  0  0  0  0  0  0  0
   -0.0917    0.8926   -2.1938 C   0  0  1  0  0  3  0  0  0  0  0  0
   -0.4173    1.9109   -3.1321 C   0  0  0  0  0  0  0  0  0  0  0  0
   -1.4575    2.0144   -3.4686 H   0  0  0  0  0  0  0  0  0  0  0  0
    0.5952    2.7101   -3.6552 C   0  0  0  0  0  0  0  0  0  0  0  0
    0.3558    3.4817   -4.4030 H   0  0  0  0  0  0  0  0  0  0  0  0
    1.9305    2.5152   -3.2395 C   0  0  0  0  0  0  0  0  0  0  0  0
    2.7529    3.1244   -3.6380 H   0  0  0  0  0  0  0  0  0  0  0  0
    2.1813    1.5318   -2.2841 C   0  0  0  0  0  0  0  0  0  0  0  0
    3.1988    1.3578   -1.8973 H   0  0  0  0  0  0  0  0  0  0  0  0
  2  3  1  0  0  0  0
  2 22  1  0  0  0  0
  3 12  1  0  0  0  0
  4  3  2  0  0  0  0
  4  6  1  0  0  0  0
  5  4  1  0  0  0  0
  6  8  2  0  0  0  0
  7  6  1  0  0  0  0
  8  9  1  0  0  0  0
  8 10  1  0  0  0  0
 10 11  1  0  0  0  0
 12 13  1  0  0  0  0
 12 10  2  0  0  0  0
 13 14  1  0  0  0  0
 14 16  2  0  0  0  0
 14 15  1  0  0  0  0
 16 17  1  0  0  0  0
 18 19  1  0  0  0  0
 18 16  1  0  0  0  0
 20 18  2  0  0  0  0
 21 20  1  0  0  0  0
 22 20  1  0  0  0  0
 22 13  2  0  0  0  0
 23  1  1  0  0  0  0
 23  2  1  1  0  0  0
 24 23  1  0  0  0  0
 25 24  1  0  0  0  0
 26 28  1  0  0  0  0
 26 24  2  0  0  0  0
 27 26  1  0  0  0  0
 28 30  2  0  0  0  0
 29 28  1  0  0  0  0
 30 31  1  0  0  0  0
 30  1  1  0  0  0  0
M  END
