1,12
q = -1.0, confidence = 0.004

 30 32  0  0  1  0  0  0  0  0999 V2000
    0.4370   -2.1952    0.3360 C   0  0  0  0  0  3  0  0  0  0  0  0
    1.7133   -2.4449    0.8612 C   0  0  0  0  0  0  0  0  0  0  0  0
    2.4101   -1.6443    1.1400 H   0  0  0  0  0  0  0  0  0  0  0  0
    2.1491   -3.7635    1.0411 C   0  0  0  0  0  0  0  0  0  0  0  0
    3.3810   -3.9740    1.5427 F   0  0  0  0  0  0  0  0  0  0  0  0
    1.3499   -4.8670    0.7180 C   0  0  0  0  0  0  0  0  0  0  0  0
    1.7306   -5.8849    0.8787 H   0  0  0  0  0  0  0  0  0  0  0  0
    0.0702   -4.6241    0.2123 C   0  0  0  0  0  0  0  0  0  0  0  0
   -0.5812   -5.4803   -0.0168 H   0  0  0  0  0  0  0  0  0  0  0  0
   -0.3984   -3.3055    0.0249 C   0  0  0  0  0  0  0  0  0  0  0  0
   -1.7590   -3.0120   -0.4319 C   0  0  2  0  0  3  0  0  0  0  0  0
   -2.1860   -1.7254   -0.2294 N   0  0  0  0  0  2  0  0  0  0  0  0
   -2.6027   -3.9626   -1.0356 C   0  0  0  0  0  0  0  0  0  0  0  0
   -2.2280   -4.9768   -1.2231 H   0  0  0  0  0  0  0  0  0  0  0  0
   -3.8876   -3.5890   -1.4295 C   0  0  0  0  0  0  0  0  0  0  0  0
   -4.5493   -4.3095   -1.9330 H   0  0  0  0  0  0  0  0  0  0  0  0
   -4.3348   -2.2969   -1.1395 C   0  0  0  0  0  0  0  0  0  0  0  0
   -5.3670   -1.9867   -1.3506 H   0  0  0  0  0  0  0  0  0  0  0  0
   -3.4737   -1.3812   -0.5026 C   0  0  0  0  0  0  0  0  0  0  0  0
   -4.0318   -0.0941   -0.0340 C   0  0  0  0  0  0  0  0  0  0  0  0
   -4.7933    0.7197   -0.8980 C   0  0  0  0  0  0  0  0  0  0  0  0
   -4.8892    0.4433   -1.9581 H   0  0  0  0  0  0  0  0  0  0  0  0
   -5.3628    1.9102   -0.4377 C   0  0  0  0  0  0  0  0  0  0  0  0
   -5.9287    2.5757   -1.1047 H   0  0  0  0  0  0  0  0  0  0  0  0
   -5.1842    2.2718    0.9035 C   0  0  0  0  0  0  0  0  0  0  0  0
   -5.7283    3.4181    1.3514 F   0  0  0  0  0  0  0  0  0  0  0  0
   -4.4656    1.4648    1.7932 C   0  0  0  0  0  0  0  0  0  0  0  0
   -4.3646    1.7749    2.8428 H   0  0  0  0  0  0  0  0  0  0  0  0
   -3.8920    0.2819    1.3170 C   0  0  0  0  0  0  0  0  0  0  0  0
   -3.3304   -0.3674    2.0016 H   0  0  0  0  0  0  0  0  0  0  0  0
  1  2  1  0  0  0  0
  2  4  2  0  0  0  0
  2  3  1  0  0  0  0
  4  5  1  0  0  0  0
  6  7  1  0  0  0  0
  6  4  1  0  0  0  0
  8  6  2  0  0  0  0
  9  8  1  0  0  0  0
 10  8  1  0  0  0  0
 10  1  2  0  0  0  0
 11 12  1  0  0  0  0
 11 10  1  1  0  0  0
 13 11  1  0  0  0  0
 14 13  1  0  0  0  0
 15 17  1  0  0  0  0
 15 13  2  0  0  0  0
 16 15  1  0  0  0  0
 17 19  2  0  0  0  0
 18 17  1  0  0  0  0
 19 12  1  0  0  0  0
 19 20  1  0  0  0  0
 20 29  1  0  0  0  0
 21 23  1  0  0  0  0
 21 20  2  0  0  0  0
 22 21  1  0  0  0  0
 23 25  2  0  0  0  0
 24 23  1  0  0  0  0
 25 26  1  0  0  0  0
 25 27  1  0  0  0  0
 27 28  1  0  0  0  0
 29 27  2  0  0  0  0
 29 30  1  0  0  0  0
M  END
