2,26
q = -1.0, confidence = 0.0

 26 28  0  0  0  0  0  0  0  0999 V2000
   -1.6188   -1.5829   -2.1661 F   0  0  0  0  0  0  0  0  0  0  0  0
    2.0256    0.3665    0.2974 N   0  0  0  0  0  2  0  0  0  0  0  0
    2.6033    1.1600    1.2443 C   0  0  0  0  0  3  0  0  0  0  0  0
    1.9050    1.7896    1.8117 H   0  0  0  0  0  0  0  0  0  0  0  0
    3.9620    1.1655    1.4642 C   0  0  0  0  0  0  0  0  0  0  0  0
    4.3997    1.8489    2.2056 H   0  0  0  0  0  0  0  0  0  0  0  0
    4.7833    0.2304    0.7746 C   0  0  0  0  0  0  0  0  0  0  0  0
    6.1762    0.1176    1.0457 C   0  0  0  0  0  0  0  0  0  0  0  0
    6.6308    0.8232    1.7579 H   0  0  0  0  0  0  0  0  0  0  0  0
    6.9368   -0.8789    0.4533 C   0  0  0  0  0  0  0  0  0  0  0  0
    8.0113   -0.9631    0.6756 H   0  0  0  0  0  0  0  0  0  0  0  0
    6.3141   -1.8197   -0.4049 C   0  0  0  0  0  0  0  0  0  0  0  0
    6.9004   -2.6529   -0.8205 H   0  0  0  0  0  0  0  0  0  0  0  0
    4.9632   -1.7149   -0.7097 C   0  0  0  0  0  0  0  0  0  0  0  0
    4.4964   -2.4872   -1.3300 H   0  0  0  0  0  0  0  0  0  0  0  0
    4.1629   -0.6611   -0.1763 C   0  0  0  0  0  0  0  0  0  0  0  0
    2.7610   -0.4775   -0.4756 C   0  0  0  0  0  0  0  0  0  0  0  0
    1.9626   -1.1442   -1.5103 C   0  0  0  0  0  0  0  0  0  0  0  0
    2.4853   -1.8514   -2.6224 C   0  0  0  0  0  0  0  0  0  0  0  0
    3.5635   -1.8661   -2.8197 H   0  0  0  0  0  0  0  0  0  0  0  0
    1.6280   -2.4840   -3.5262 C   0  0  0  0  0  0  0  0  0  0  0  0
    2.0380   -3.0270   -4.3903 H   0  0  0  0  0  0  0  0  0  0  0  0
    0.2378   -2.4144   -3.3351 C   0  0  0  0  0  0  0  0  0  0  0  0
   -0.4682   -2.9119   -4.0164 H   0  0  0  0  0  0  0  0  0  0  0  0
   -0.2683   -1.6586   -2.2740 C   0  0  0  0  0  0  0  0  0  0  0  0
    0.5443   -0.9652   -1.3583 C   0  0  0  0  0  3  0  0  0  0  0  0
  2  3  1  0  0  0  0
  3  5  1  0  0  0  0
  3  4  1  0  0  0  0
  5  6  1  0  0  0  0
  7  8  1  0  0  0  0
  7  5  2  0  0  0  0
  8  9  1  0  0  0  0
 10 11  1  0  0  0  0
 10  8  2  0  0  0  0
 12 10  1  0  0  0  0
 13 12  1  0  0  0  0
 14 12  2  0  0  0  0
 14 16  1  0  0  0  0
 15 14  1  0  0  0  0
 16  7  1  0  0  0  0
 17 16  2  0  0  0  0
 17  2  1  0  0  0  0
 18 26  1  0  0  0  0
 18 17  1  0  0  0  0
 19 18  2  0  0  0  0
 20 19  1  0  0  0  0
 21 23  2  0  0  0  0
 21 19  1  0  0  0  0
 22 21  1  0  0  0  0
 23 25  1  0  0  0  0
 24 23  1  0  0  0  0
 25  1  1  0  0  0  0
 25 26  2  0  0  0  0
M  END
