3,23
q = -1.0, confidence = 0.0

 23 25  0  0  1  0  0  0  0  0999 V2000
    2.1580   -1.4918    2.1269 F   0  0  0  0  0  0  0  0  0  0  0  0
   -4.0920   -1.7983    0.5864 S   0  0  0  0  0  0  0  0  0  0  0  0
   -2.0292   -0.3278    0.0115 N   0  0  0  0  0  2  0  0  0  0  0  0
   -3.1070    0.3422   -0.5473 C   0  0  0  0  0  0  0  0  0  0  0  0
   -3.0821    1.5796   -1.2197 C   0  0  0  0  0  0  0  0  0  0  0  0
   -2.1253    2.1073   -1.3298 H   0  0  0  0  0  0  0  0  0  0  0  0
   -4.2859    2.0970   -1.7071 C   0  0  0  0  0  0  0  0  0  0  0  0
   -4.2828    3.0649   -2.2302 H   0  0  0  0  0  0  0  0  0  0  0  0
   -5.5057    1.4062   -1.5341 C   0  0  0  0  0  0  0  0  0  0  0  0
   -6.4379    1.8354   -1.9301 H   0  0  0  0  0  0  0  0  0  0  0  0
   -5.5492    0.1849   -0.8486 C   0  0  0  0  0  0  0  0  0  0  0  0
   -6.4999   -0.3459   -0.6955 H   0  0  0  0  0  0  0  0  0  0  0  0
   -4.3448   -0.3336   -0.3506 C   0  0  0  0  0  0  0  0  0  0  0  0
   -2.3823   -1.4418    0.6635 C   0  0  1  0  0  3  0  0  0  0  0  0
   -1.3642   -2.1404    1.4095 C   0  0  0  0  0  0  0  0  0  0  0  0
   -1.5889   -3.2856    2.2056 C   0  0  0  0  0  0  0  0  0  0  0  0
   -2.5859   -3.7520    2.2384 H   0  0  0  0  0  0  0  0  0  0  0  0
   -0.5344   -3.8079    2.9573 C   0  0  0  0  0  0  0  0  0  0  0  0
   -0.6834   -4.6976    3.5861 H   0  0  0  0  0  0  0  0  0  0  0  0
    0.7267   -3.1815    2.9172 C   0  0  0  0  0  0  0  0  0  0  0  0
    1.5741   -3.5611    3.5072 H   0  0  0  0  0  0  0  0  0  0  0  0
    0.9239   -2.0504    2.1167 C   0  0  0  0  0  0  0  0  0  0  0  0
   -0.0884   -1.4895    1.3168 C   0  0  0  0  0  3  0  0  0  0  0  0
  2 14  1  0  0  0  0
  3 14  1  0  0  0  0
  4 13  1  0  0  0  0
  4  3  1  0  0  0  0
  5  4  2  0  0  0  0
  6  5  1  0  0  0  0
  7  9  2  0  0  0  0
  7  5  1  0  0  0  0
  8  7  1  0  0  0  0
  9 11  1  0  0  0  0
 10  9  1  0  0  0  0
 11 12  1  0  0  0  0
 11 13  2  0  0  0  0
 13  2  1  0  0  0  0
 14 15  1  1  0  0  0
 15 16  1  0  0  0  0
 16 17  1  0  0  0  0
 16 18  2  0  0  0  0
 18 19  1  0  0  0  0
 20 18  1  0  0  0  0
 20 21  1  0  0  0  0
 22  1  1  0  0  0  0
 22 20  2  0  0  0  0
 23 15  2  0  0  0  0
 23 22  1  0  0  0  0
M  END
