4,23
q = -1.0, confidence = 0.0

 23 25  0  0  0  0  0  0  0  0999 V2000
   -0.0046   -3.5397   -0.0497 C   0  0  0  0  0  0  0  0  0  0  0  0
    1.0621   -3.2768   -0.1120 H   0  0  0  0  0  0  0  0  0  0  0  0
   -4.6925   -1.2491    0.0599 S   0  0  0  0  0  0  0  0  0  0  0  0
   -0.8509   -2.4883   -0.0163 N   0  0  0  0  0  2  0  0  0  0  0  0
   -0.4634   -4.8583   -0.0102 C   0  0  0  0  0  0  0  0  0  0  0  0
    0.2603   -5.6840   -0.0410 H   0  0  0  0  0  0  0  0  0  0  0  0
   -1.8493   -5.0938    0.0667 C   0  0  0  0  0  0  0  0  0  0  0  0
   -2.2392   -6.1220    0.1017 H   0  0  0  0  0  0  0  0  0  0  0  0
   -2.7280   -4.0096    0.0941 C   0  0  0  0  0  0  0  0  0  0  0  0
   -3.8162   -4.1551    0.1482 H   0  0  0  0  0  0  0  0  0  0  0  0
   -2.2186   -2.6948    0.0473 C   0  0  0  0  0  0  0  0  0  0  0  0
   -2.9470   -1.4600    0.0369 C   0  0  0  0  0  0  0  0  0  0  0  0
   -4.4797    0.4901   -0.0569 C   0  0  0  0  0  0  0  0  0  0  0  0
   -5.5107    1.4441   -0.1046 C   0  0  0  0  0  0  0  0  0  0  0  0
   -6.5657    1.1363   -0.0566 H   0  0  0  0  0  0  0  0  0  0  0  0
   -5.1627    2.7946   -0.2216 C   0  0  0  0  0  0  0  0  0  0  0  0
   -5.9580    3.5545   -0.2623 H   0  0  0  0  0  0  0  0  0  0  0  0
   -3.8070    3.1910   -0.2979 C   0  0  0  0  0  0  0  0  0  0  0  0
   -3.5580    4.2578   -0.4035 H   0  0  0  0  0  0  0  0  0  0  0  0
   -2.7825    2.2452   -0.2465 C   0  0  0  0  0  3  0  0  0  0  0  0
   -1.7261    2.5345   -0.3162 H   0  0  0  0  0  0  0  0  0  0  0  0
   -3.0964    0.8697   -0.1137 C   0  0  0  0  0  0  0  0  0  0  0  0
   -2.2136   -0.2703   -0.0422 C   0  0  0  0  0  3  0  0  0  0  0  0
  1  4  1  0  0  0  0
  1  5  2  0  0  0  0
  2  1  1  0  0  0  0
  4 11  1  0  0  0  0
  5  7  1  0  0  0  0
  6  5  1  0  0  0  0
  7  9  2  0  0  0  0
  7  8  1  0  0  0  0
  9 10  1  0  0  0  0
 11  9  1  0  0  0  0
 12 11  2  0  0  0  0
 12  3  1  0  0  0  0
 13  3  1  0  0  0  0
 14 13  2  0  0  0  0
 14 15  1  0  0  0  0
 16 14  1  0  0  0  0
 17 16  1  0  0  0  0
 18 20  1  0  0  0  0
 18 16  2  0  0  0  0
 19 18  1  0  0  0  0
 20 22  1  0  0  0  0
 21 20  1  0  0  0  0
 22 13  1  0  0  0  0
 22 23  2  0  0  0  0
 23 12  1  0  0  0  0
M  END
