1,2
q = -1.0

 37 38  0  0  1  0  0  0  0  0999 V2000
   -0.9009   -3.1703    0.9743 N   0  0  0  0  0  0  0  0  0  0  0  0
   -1.7075   -0.7054    0.2630 C   0  0  0  0  0  3  0  0  0  0  0  0
   -2.3399    0.5612    0.4789 C   0  0  0  0  0  0  0  0  0  0  0  0
   -1.7226    1.6419    1.1756 C   0  0  0  0  0  0  0  0  0  0  0  0
   -0.7287    1.4734    1.6148 H   0  0  0  0  0  0  0  0  0  0  0  0
   -2.3422    2.8719    1.3016 C   0  0  0  0  0  0  0  0  0  0  0  0
   -1.8286    3.6881    1.8338 H   0  0  0  0  0  0  0  0  0  0  0  0
   -3.6345    3.1107    0.7426 C   0  0  0  0  0  0  0  0  0  0  0  0
   -4.2806    2.0549    0.1108 C   0  0  0  0  0  0  0  0  0  0  0  0
   -5.2928    2.2020   -0.3013 H   0  0  0  0  0  0  0  0  0  0  0  0
   -3.6788    0.7681   -0.0225 C   0  0  0  0  0  0  0  0  0  0  0  0
   -4.3698   -0.3182   -0.6278 C   0  0  0  0  0  0  0  0  0  0  0  0
   -5.3911   -0.1484   -1.0059 H   0  0  0  0  0  0  0  0  0  0  0  0
   -3.8088   -1.5891   -0.7113 C   0  0  0  0  0  0  0  0  0  0  0  0
   -2.4663   -1.7702   -0.2464 C   0  0  0  0  0  0  0  0  0  0  0  0
   -4.2548    4.4794    0.8467 C   0  0  0  0  0  0  0  0  0  0  0  0
   -5.2783    4.5016    0.4248 H   0  0  0  0  0  0  0  0  0  0  0  0
   -3.6448    5.2313    0.3009 H   0  0  0  0  0  0  0  0  0  0  0  0
   -4.3100    4.8218    1.9014 H   0  0  0  0  0  0  0  0  0  0  0  0
   -4.6013   -2.7427   -1.2771 C   0  0  0  0  0  0  0  0  0  0  0  0
   -5.5924   -2.4065   -1.6379 H   0  0  0  0  0  0  0  0  0  0  0  0
   -4.7749   -3.5334   -0.5156 H   0  0  0  0  0  0  0  0  0  0  0  0
   -4.0820   -3.2335   -2.1269 H   0  0  0  0  0  0  0  0  0  0  0  0
   -1.7843   -3.1225   -0.2541 C   0  0  1  0  0  0  0  0  0  0  0  0
   -2.5328   -3.9445   -0.1547 H   0  0  0  0  0  0  0  0  0  0  0  0
   -0.9975   -3.3379   -1.5532 C   0  0  0  0  0  0  0  0  0  0  0  0
   -0.1545   -2.6177   -1.6101 H   0  0  0  0  0  0  0  0  0  0  0  0
   -1.6680   -3.1420   -2.4122 H   0  0  0  0  0  0  0  0  0  0  0  0
   -0.6050   -4.3675   -1.6599 H   0  0  0  0  0  0  0  0  0  0  0  0
   -1.7181   -3.2105    2.2058 C   0  0  0  0  0  0  0  0  0  0  0  0
   -2.4304   -2.3668    2.2126 H   0  0  0  0  0  0  0  0  0  0  0  0
   -1.0479   -3.1266    3.0815 H   0  0  0  0  0  0  0  0  0  0  0  0
   -2.2830   -4.1698    2.2700 H   0  0  0  0  0  0  0  0  0  0  0  0
    0.0105   -4.3282    0.9712 C   0  0  0  0  0  0  0  0  0  0  0  0
    0.6224   -4.3014    1.8901 H   0  0  0  0  0  0  0  0  0  0  0  0
    0.7055   -4.2717    0.1172 H   0  0  0  0  0  0  0  0  0  0  0  0
   -0.5720   -5.2781    0.9233 H   0  0  0  0  0  0  0  0  0  0  0  0
  1 30  1  0  0  0  0
  2  3  1  0  0  0  0
  3  4  1  0  0  0  0
  4  6  2  0  0  0  0
  4  5  1  0  0  0  0
  6  7  1  0  0  0  0
  8 16  1  0  0  0  0
  8  6  1  0  0  0  0
  9  8  2  0  0  0  0
 10  9  1  0  0  0  0
 11  9  1  0  0  0  0
 11  3  2  0  0  0  0
 12 11  1  0  0  0  0
 13 12  1  0  0  0  0
 14 12  2  0  0  0  0
 14 15  1  0  0  0  0
 15  2  2  0  0  0  0
 16 19  1  0  0  0  0
 17 16  1  0  0  0  0
 18 16  1  0  0  0  0
 20 14  1  0  0  0  0
 20 22  1  0  0  0  0
 21 20  1  0  0  0  0
 23 20  1  0  0  0  0
 24 15  1  0  0  0  0
 24 25  1  1  0  0  0
 24  1  1  0  0  0  0
 26 24  1  0  0  0  0
 27 26  1  0  0  0  0
 28 26  1  0  0  0  0
 29 26  1  0  0  0  0
 30 31  1  0  0  0  0
 30 33  1  0  0  0  0
 30 32  1  0  0  0  0
 34  1  1  0  0  0  0
 34 35  1  0  0  0  0
 36 34  1  0  0  0  0
 37 34  1  0  0  0  0
M  END
