1,12
q = -1.0

 23 24  0  0  0  0  0  0  0  0999 V2000
    0.1466   -1.8082    0.9871 N   0  0  0  0  0  2  0  0  0  0  0  0
    0.8793   -2.1147    2.0819 C   0  0  0  0  0  3  0  0  0  0  0  0
    0.8075   -3.3655    2.6955 C   0  0  0  0  0  0  0  0  0  0  0  0
   -0.0514   -4.3356    2.1494 C   0  0  0  0  0  0  0  0  0  0  0  0
   -0.8044   -4.0197    1.0171 C   0  0  0  0  0  0  0  0  0  0  0  0
   -0.7009   -2.7409    0.4317 C   0  0  0  0  0  0  0  0  0  0  0  0
   -1.4210   -2.2697   -0.7460 C   0  0  0  0  0  0  0  0  0  0  0  0
   -2.3462   -3.0422   -1.4780 C   0  0  0  0  0  0  0  0  0  0  0  0
   -2.9992   -2.4905   -2.5825 C   0  0  0  0  0  0  0  0  0  0  0  0
   -2.7565   -1.1519   -2.9839 C   0  0  0  0  0  0  0  0  0  0  0  0
   -1.8340   -0.3868   -2.2458 C   0  0  0  0  0  0  0  0  0  0  0  0
   -1.1512   -0.9156   -1.1313 C   0  0  0  0  0  3  0  0  0  0  0  0
   -3.4836   -0.5743   -4.1674 C   0  0  0  0  0  0  0  0  0  0  0  0
    1.5293   -1.3154    2.4649 H   0  0  0  0  0  0  0  0  0  0  0  0
    1.4166   -3.5697    3.5865 H   0  0  0  0  0  0  0  0  0  0  0  0
   -0.1320   -5.3321    2.6080 H   0  0  0  0  0  0  0  0  0  0  0  0
   -1.4839   -4.7599    0.5743 H   0  0  0  0  0  0  0  0  0  0  0  0
   -2.5656   -4.0807   -1.1875 H   0  0  0  0  0  0  0  0  0  0  0  0
   -3.7181   -3.1022   -3.1488 H   0  0  0  0  0  0  0  0  0  0  0  0
   -1.6503    0.6533   -2.5564 H   0  0  0  0  0  0  0  0  0  0  0  0
   -3.3159   -1.1862   -5.0779 H   0  0  0  0  0  0  0  0  0  0  0  0
   -4.5798   -0.5642   -3.9920 H   0  0  0  0  0  0  0  0  0  0  0  0
   -3.1628    0.4621   -4.3837 H   0  0  0  0  0  0  0  0  0  0  0  0
  1  2  1  0  0  0  0
  2 14  1  0  0  0  0
  2  3  1  0  0  0  0
  3 15  1  0  0  0  0
  4 16  1  0  0  0  0
  4  3  2  0  0  0  0
  5  4  1  0  0  0  0
  6  1  1  0  0  0  0
  6  5  2  0  0  0  0
  7  6  1  0  0  0  0
  8 18  1  0  0  0  0
  8  7  2  0  0  0  0
  9  8  1  0  0  0  0
 10  9  2  0  0  0  0
 10 11  1  0  0  0  0
 11 12  2  0  0  0  0
 12  7  1  0  0  0  0
 13 22  1  0  0  0  0
 13 10  1  0  0  0  0
 17  5  1  0  0  0  0
 19  9  1  0  0  0  0
 20 11  1  0  0  0  0
 21 13  1  0  0  0  0
 23 13  1  0  0  0  0
M  END
