2,9
q = -1.0

 31 33  0  0  1  0  0  0  0  0999 V2000
   -1.1012   -1.3861    0.0032 N   0  0  0  0  0  0  0  0  0  0  0  0
    0.2207   -1.3627   -0.1821 N   0  0  0  0  0  2  0  0  0  0  0  0
    0.8965   -2.4975   -0.4654 C   0  0  0  0  0  0  0  0  0  0  0  0
    0.1964   -3.7196   -0.6609 C   0  0  0  0  0  0  0  0  0  0  0  0
   -1.1742   -3.7389   -0.5078 C   0  0  0  0  0  3  0  0  0  0  0  0
   -1.7817   -2.5047   -0.1513 C   0  0  0  0  0  0  0  0  0  0  0  0
    2.2199   -2.5496   -0.5872 O   0  0  0  0  0  0  0  0  0  0  0  0
    3.1256   -1.6136   -0.0544 C   0  0  2  0  0  3  0  0  0  0  0  0
    2.7942   -0.2834    0.2438 C   0  0  0  0  0  2  0  0  0  0  0  0
    3.8325    0.5121    0.7794 C   0  0  0  0  0  0  0  0  0  0  0  0
    5.1227    0.0026    0.9872 C   0  0  0  0  0  0  0  0  0  0  0  0
    5.4198   -1.3307    0.6566 C   0  0  0  0  0  0  0  0  0  0  0  0
    4.4134   -2.1465    0.1296 C   0  0  0  0  0  0  0  0  0  0  0  0
   -3.1283   -2.4951    0.0115 O   0  0  0  0  0  0  0  0  0  0  0  0
   -3.7992   -1.3192    0.3590 C   0  0  0  0  0  0  0  0  0  0  0  0
   -3.4878   -0.5997    1.5227 C   0  0  0  0  0  0  0  0  0  0  0  0
   -4.2544    0.5280    1.8465 C   0  0  0  0  0  0  0  0  0  0  0  0
   -5.3197    0.9304    1.0229 C   0  0  0  0  0  0  0  0  0  0  0  0
   -5.6212    0.1957   -0.1342 C   0  0  0  0  0  0  0  0  0  0  0  0
   -4.8586   -0.9327   -0.4723 C   0  0  0  0  0  0  0  0  0  0  0  0
    0.7807   -4.6132   -0.9186 H   0  0  0  0  0  0  0  0  0  0  0  0
   -1.7799   -4.6459   -0.6392 H   0  0  0  0  0  0  0  0  0  0  0  0
    3.6147    1.5657    1.0065 H   0  0  0  0  0  0  0  0  0  0  0  0
    5.9057    0.6551    1.4038 H   0  0  0  0  0  0  0  0  0  0  0  0
    6.4306   -1.7370    0.8105 H   0  0  0  0  0  0  0  0  0  0  0  0
    4.5973   -3.1970   -0.1397 H   0  0  0  0  0  0  0  0  0  0  0  0
   -2.6493   -0.9113    2.1589 H   0  0  0  0  0  0  0  0  0  0  0  0
   -4.0115    1.1005    2.7542 H   0  0  0  0  0  0  0  0  0  0  0  0
   -5.9151    1.8176    1.2851 H   0  0  0  0  0  0  0  0  0  0  0  0
   -6.4545    0.5021   -0.7843 H   0  0  0  0  0  0  0  0  0  0  0  0
   -5.0710   -1.5232   -1.3749 H   0  0  0  0  0  0  0  0  0  0  0  0
  2  1  1  0  0  0  0
  3  2  1  0  0  0  0
  4  5  1  0  0  0  0
  4  3  2  0  0  0  0
  5  6  1  0  0  0  0
  6  1  2  0  0  0  0
  6 14  1  0  0  0  0
  7  3  1  0  0  0  0
  8  7  1  6  0  0  0
  8 13  1  0  0  0  0
  8  9  1  0  0  0  0
  9 10  1  0  0  0  0
 10 11  2  0  0  0  0
 10 23  1  0  0  0  0
 11 24  1  0  0  0  0
 12 25  1  0  0  0  0
 12 11  1  0  0  0  0
 13 12  2  0  0  0  0
 14 15  1  0  0  0  0
 15 16  1  0  0  0  0
 16 17  2  0  0  0  0
 16 27  1  0  0  0  0
 17 28  1  0  0  0  0
 18 29  1  0  0  0  0
 18 17  1  0  0  0  0
 19 18  2  0  0  0  0
 20 19  1  0  0  0  0
 20 15  2  0  0  0  0
 21  4  1  0  0  0  0
 22  5  1  0  0  0  0
 26 13  1  0  0  0  0
 30 19  1  0  0  0  0
 31 20  1  0  0  0  0
M  END
