1,54
q = -1.0, confidence = 0.054

 64 67  0  0  0  0  0  0  0  0999 V2000
   -4.7144   -0.7436   -1.1830 N   0  0  0  0  0  2  0  0  0  0  0  0
    4.4644   -1.3454    0.4103 C   0  0  0  0  0  0  0  0  0  0  0  0
   -0.0724    0.7296   -0.6812 C   0  0  0  0  0  0  0  0  0  0  0  0
   -0.7199    1.6164   -0.6395 H   0  0  0  0  0  0  0  0  0  0  0  0
   -4.0930   -1.4638   -2.1877 C   0  0  0  0  0  0  0  0  0  0  0  0
    0.1811   -1.6736   -0.9632 C   0  0  0  0  0  0  0  0  0  0  0  0
   -0.2699   -2.6644   -1.1274 H   0  0  0  0  0  0  0  0  0  0  0  0
    5.2478    1.8941    0.2539 C   0  0  0  0  0  0  0  0  0  0  0  0
    4.0033   -1.8993    1.6416 C   0  0  0  0  0  0  0  0  0  0  0  0
    4.4373    1.1864   -0.6849 C   0  0  0  0  0  0  0  0  0  0  0  0
   -0.6645   -0.5367   -0.9129 C   0  0  0  0  0  0  0  0  0  0  0  0
   -6.0606   -0.6749   -1.1112 C   0  0  0  0  0  0  0  0  0  0  0  0
   -6.4531   -0.0828   -0.2701 H   0  0  0  0  0  0  0  0  0  0  0  0
    2.1620   -0.2848   -0.5358 C   0  0  0  0  0  0  0  0  0  0  0  0
    1.5572   -1.5484   -0.7539 C   0  0  0  0  0  0  0  0  0  0  0  0
    2.1922   -2.4492   -0.7545 H   0  0  0  0  0  0  0  0  0  0  0  0
    5.7854    3.6016   -1.4336 C   0  0  0  0  0  0  0  0  0  0  0  0
    5.6451   -1.8909   -0.1784 C   0  0  0  0  0  0  0  0  0  0  0  0
    5.8874    3.0858   -0.1290 C   0  0  0  0  0  0  0  0  0  0  0  0
    6.4965    3.6255    0.6154 H   0  0  0  0  0  0  0  0  0  0  0  0
   -2.6578   -1.4224   -2.1215 C   0  0  0  0  0  0  0  0  0  0  0  0
   -2.0516   -1.9242   -2.8920 H   0  0  0  0  0  0  0  0  0  0  0  0
    6.3058   -2.9659    0.4407 C   0  0  0  0  0  0  0  0  0  0  0  0
    7.2076   -3.3830   -0.0381 H   0  0  0  0  0  0  0  0  0  0  0  0
    5.0085    2.8856   -2.3596 C   0  0  0  0  0  0  0  0  0  0  0  0
    4.9323    3.2569   -3.3953 H   0  0  0  0  0  0  0  0  0  0  0  0
    4.3257    1.7063   -2.0090 C   0  0  0  0  0  0  0  0  0  0  0  0
    1.3104    0.8495   -0.5289 C   0  0  0  0  0  0  0  0  0  0  0  0
    1.7560    1.8463   -0.3776 H   0  0  0  0  0  0  0  0  0  0  0  0
    5.4407    1.3976    1.6696 C   0  0  0  0  0  0  0  0  0  0  0  0
    5.9760    2.1471    2.2842 H   0  0  0  0  0  0  0  0  0  0  0  0
    6.0240    0.4548    1.6921 H   0  0  0  0  0  0  0  0  0  0  0  0
    4.4770    1.1767    2.1711 H   0  0  0  0  0  0  0  0  0  0  0  0
    3.6987   -0.1467   -0.2742 B   0  0  0  0  0  0  0  0  0  0  0  0
   -4.8848   -2.1316   -3.1476 C   0  0  0  0  0  0  0  0  0  0  0  0
   -4.3826   -2.7017   -3.9419 H   0  0  0  0  0  0  0  0  0  0  0  0
   -6.8797   -1.3193   -2.0411 C   0  0  0  0  0  0  0  0  0  0  0  0
   -7.9715   -1.2384   -1.9502 H   0  0  0  0  0  0  0  0  0  0  0  0
    4.7130   -2.9546    2.2442 C   0  0  0  0  0  0  0  0  0  0  0  0
    4.3579   -3.3517    3.2099 H   0  0  0  0  0  0  0  0  0  0  0  0
    2.7830   -1.3640    2.3623 C   0  0  0  0  0  0  0  0  0  0  0  0
    1.8454   -1.7801    1.9396 H   0  0  0  0  0  0  0  0  0  0  0  0
    2.6891   -0.2631    2.2836 H   0  0  0  0  0  0  0  0  0  0  0  0
    2.8135   -1.6292    3.4374 H   0  0  0  0  0  0  0  0  0  0  0  0
    6.2119   -1.3411   -1.4684 C   0  0  0  0  0  0  0  0  0  0  0  0
    7.0443   -1.9706   -1.8382 H   0  0  0  0  0  0  0  0  0  0  0  0
    6.5940   -0.3087   -1.3349 H   0  0  0  0  0  0  0  0  0  0  0  0
    5.4486   -1.2873   -2.2709 H   0  0  0  0  0  0  0  0  0  0  0  0
    5.8597   -3.5147    1.6566 C   0  0  0  0  0  0  0  0  0  0  0  0
    3.5194    1.0073   -3.0834 C   0  0  0  0  0  0  0  0  0  0  0  0
    3.8384    1.3353   -4.0921 H   0  0  0  0  0  0  0  0  0  0  0  0
    2.4362    1.2256   -2.9851 H   0  0  0  0  0  0  0  0  0  0  0  0
    3.6135   -0.0954   -3.0367 H   0  0  0  0  0  0  0  0  0  0  0  0
   -2.1175   -0.6763   -1.0904 C   0  0  0  0  0  2  0  0  0  0  0  0
    6.4707    4.8894   -1.8144 C   0  0  0  0  0  0  0  0  0  0  0  0
    6.6076    4.9722   -2.9104 H   0  0  0  0  0  0  0  0  0  0  0  0
    7.4648    4.9812   -1.3322 H   0  0  0  0  0  0  0  0  0  0  0  0
    5.8735    5.7693   -1.4900 H   0  0  0  0  0  0  0  0  0  0  0  0
    6.5786   -4.6772    2.2929 C   0  0  0  0  0  0  0  0  0  0  0  0
    7.6773   -4.5956    2.1686 H   0  0  0  0  0  0  0  0  0  0  0  0
    6.2726   -5.6385    1.8259 H   0  0  0  0  0  0  0  0  0  0  0  0
    6.3565   -4.7535    3.3755 H   0  0  0  0  0  0  0  0  0  0  0  0
   -6.2774   -2.0601   -3.0759 C   0  0  0  0  0  0  0  0  0  0  0  0
   -6.8973   -2.5791   -3.8224 H   0  0  0  0  0  0  0  0  0  0  0  0
  1 12  1  0  0  0  0
  2  9  1  0  0  0  0
  3  4  1  0  0  0  0
  3 28  1  0  0  0  0
  5 21  2  0  0  0  0
  5  1  1  0  0  0  0
  6 11  1  0  0  0  0
  6 15  2  0  0  0  0
  7  6  1  0  0  0  0
  8 30  1  0  0  0  0
  9 39  2  0  0  0  0
  9 41  1  0  0  0  0
 10 34  1  0  0  0  0
 10  8  2  0  0  0  0
 11  3  2  0  0  0  0
 12 13  1  0  0  0  0
 14 28  2  0  0  0  0
 14 34  1  0  0  0  0
 15 14  1  0  0  0  0
 16 15  1  0  0  0  0
 17 19  2  0  0  0  0
 18  2  2  0  0  0  0
 18 23  1  0  0  0  0
 19  8  1  0  0  0  0
 19 20  1  0  0  0  0
 21 54  1  0  0  0  0
 22 21  1  0  0  0  0
 23 49  2  0  0  0  0
 24 23  1  0  0  0  0
 25 27  2  0  0  0  0
 25 17  1  0  0  0  0
 26 25  1  0  0  0  0
 27 10  1  0  0  0  0
 28 29  1  0  0  0  0
 30 32  1  0  0  0  0
 30 33  1  0  0  0  0
 30 31  1  0  0  0  0
 34  2  1  0  0  0  0
 35 63  2  0  0  0  0
 35  5  1  0  0  0  0
 36 35  1  0  0  0  0
 37 38  1  0  0  0  0
 37 12  2  0  0  0  0
 39 40  1  0  0  0  0
 41 44  1  0  0  0  0
 42 41  1  0  0  0  0
 43 41  1  0  0  0  0
 45 47  1  0  0  0  0
 45 18  1  0  0  0  0
 46 45  1  0  0  0  0
 48 45  1  0  0  0  0
 49 39  1  0  0  0  0
 49 59  1  0  0  0  0
 50 53  1  0  0  0  0
 50 52  1  0  0  0  0
 50 27  1  0  0  0  0
 51 50  1  0  0  0  0
 54 11  1  0  0  0  0
 55 58  1  0  0  0  0
 55 17  1  0  0  0  0
 55 57  1  0  0  0  0
 56 55  1  0  0  0  0
 59 62  1  0  0  0  0
 60 59  1  0  0  0  0
 61 59  1  0  0  0  0
 63 37  1  0  0  0  0
 64 63  1  0  0  0  0
M  END
