4,16
q = -1.0

 57 61  0  0  0  0  0  0  0  0999 V2000
   -3.9511    0.2028   -0.0005 Si  0  0  0  0  0  0  0  0  0  0  0  0
    6.0313    1.2502    0.0368 C   0  0  0  0  0  0  0  0  0  0  0  0
    6.3626    0.2004    0.0246 H   0  0  0  0  0  0  0  0  0  0  0  0
    4.6936    1.4271    0.0757 N   0  0  0  0  0  2  0  0  0  0  0  0
   -4.8574    2.8873   -0.4888 C   0  0  0  0  0  0  0  0  0  0  0  0
   -4.1397    3.1705    0.2987 H   0  0  0  0  0  0  0  0  0  0  0  0
   -1.5729    1.6537   -0.7506 C   0  0  0  0  0  0  0  0  0  0  0  0
   -2.1942    2.1188   -1.5331 H   0  0  0  0  0  0  0  0  0  0  0  0
   -3.8999   -1.3942   -1.0214 C   0  0  0  0  0  0  0  0  0  0  0  0
    0.6406    1.2876    0.2269 C   0  0  0  0  0  0  0  0  0  0  0  0
    2.7075    2.7039    0.1367 C   0  0  0  0  0  0  0  0  0  0  0  0
    2.1550    3.6556    0.1812 H   0  0  0  0  0  0  0  0  0  0  0  0
    4.1449    2.6976    0.0848 C   0  0  0  0  0  0  0  0  0  0  0  0
   -0.1948    1.9090   -0.7300 C   0  0  0  0  0  0  0  0  0  0  0  0
    0.2599    2.5606   -1.4922 H   0  0  0  0  0  0  0  0  0  0  0  0
    2.1003    1.4646    0.1802 C   0  0  0  0  0  2  0  0  0  0  0  0
   -2.1694    0.7920    0.1976 C   0  0  0  0  0  0  0  0  0  0  0  0
    5.0036    3.8181    0.0547 C   0  0  0  0  0  0  0  0  0  0  0  0
    4.5597    4.8237    0.0612 H   0  0  0  0  0  0  0  0  0  0  0  0
   -4.7200   -0.1992    1.6837 C   0  0  0  0  0  0  0  0  0  0  0  0
   -5.5361    0.7296    2.3671 C   0  0  0  0  0  0  0  0  0  0  0  0
   -5.7747    1.6962    1.8951 H   0  0  0  0  0  0  0  0  0  0  0  0
    6.3877    3.6370    0.0170 C   0  0  0  0  0  0  0  0  0  0  0  0
    7.0593    4.5085   -0.0061 H   0  0  0  0  0  0  0  0  0  0  0  0
    6.9149    2.3315    0.0081 C   0  0  0  0  0  0  0  0  0  0  0  0
    7.9974    2.1471   -0.0212 H   0  0  0  0  0  0  0  0  0  0  0  0
   -2.7452   -1.7506   -1.7543 C   0  0  0  0  0  0  0  0  0  0  0  0
   -1.8580   -1.0978   -1.7210 H   0  0  0  0  0  0  0  0  0  0  0  0
   -4.4531   -1.4389    2.3108 C   0  0  0  0  0  0  0  0  0  0  0  0
   -3.8389   -2.1920    1.7904 H   0  0  0  0  0  0  0  0  0  0  0  0
   -5.6345    3.8841   -1.0992 C   0  0  0  0  0  0  0  0  0  0  0  0
   -5.5305    4.9335   -0.7823 H   0  0  0  0  0  0  0  0  0  0  0  0
   -5.7741   -0.7947    4.2476 C   0  0  0  0  0  0  0  0  0  0  0  0
   -6.1843   -1.0256    5.2430 H   0  0  0  0  0  0  0  0  0  0  0  0
   -6.5394    3.5429   -2.1175 C   0  0  0  0  0  0  0  0  0  0  0  0
   -7.1479    4.3236   -2.5995 H   0  0  0  0  0  0  0  0  0  0  0  0
   -5.8824    1.2101   -1.9090 C   0  0  0  0  0  0  0  0  0  0  0  0
   -5.9804    0.1643   -2.2417 H   0  0  0  0  0  0  0  0  0  0  0  0
   -3.8279   -3.7758   -2.5581 C   0  0  0  0  0  0  0  0  0  0  0  0
   -3.7997   -4.7013   -3.1539 H   0  0  0  0  0  0  0  0  0  0  0  0
   -6.6603    2.2044   -2.5230 C   0  0  0  0  0  0  0  0  0  0  0  0
   -7.3630    1.9333   -3.3262 H   0  0  0  0  0  0  0  0  0  0  0  0
   -4.9709   -1.7341    3.5816 C   0  0  0  0  0  0  0  0  0  0  0  0
   -4.7512   -2.7048    4.0528 H   0  0  0  0  0  0  0  0  0  0  0  0
   -2.7083   -2.9296   -2.5162 C   0  0  0  0  0  0  0  0  0  0  0  0
   -1.7988   -3.1898   -3.0803 H   0  0  0  0  0  0  0  0  0  0  0  0
   -4.9833   -3.4401   -1.8336 C   0  0  0  0  0  0  0  0  0  0  0  0
   -5.8621   -4.1032   -1.8589 H   0  0  0  0  0  0  0  0  0  0  0  0
   -5.0156   -2.2621   -1.0707 C   0  0  0  0  0  0  0  0  0  0  0  0
   -5.9222   -2.0197   -0.4921 H   0  0  0  0  0  0  0  0  0  0  0  0
   -6.0583    0.4371    3.6366 C   0  0  0  0  0  0  0  0  0  0  0  0
   -6.6947    1.1737    4.1512 H   0  0  0  0  0  0  0  0  0  0  0  0
    0.0412    0.4480    1.1955 C   0  0  0  0  0  0  0  0  0  0  0  0
    0.6804   -0.0316    1.9504 H   0  0  0  0  0  0  0  0  0  0  0  0
   -1.3379    0.2219    1.1890 C   0  0  0  0  0  0  0  0  0  0  0  0
   -1.7769   -0.4345    1.9579 H   0  0  0  0  0  0  0  0  0  0  0  0
   -4.9714    1.5318   -0.8786 C   0  0  0  0  0  0  0  0  0  0  0  0
  1 17  1  0  0  0  0
  1 20  1  0  0  0  0
  2  4  1  0  0  0  0
  3  2  1  0  0  0  0
  4 13  1  0  0  0  0
  5  6  1  0  0  0  0
  7 14  2  0  0  0  0
  7 17  1  0  0  0  0
  8  7  1  0  0  0  0
  9  1  1  0  0  0  0
 10 53  2  0  0  0  0
 11 16  1  0  0  0  0
 11 12  1  0  0  0  0
 13 11  2  0  0  0  0
 14 10  1  0  0  0  0
 15 14  1  0  0  0  0
 16 10  1  0  0  0  0
 17 55  2  0  0  0  0
 18 19  1  0  0  0  0
 18 13  1  0  0  0  0
 20 29  2  0  0  0  0
 20 21  1  0  0  0  0
 21 51  2  0  0  0  0
 22 21  1  0  0  0  0
 23 18  2  0  0  0  0
 24 23  1  0  0  0  0
 25 23  1  0  0  0  0
 25  2  2  0  0  0  0
 26 25  1  0  0  0  0
 27 28  1  0  0  0  0
 27  9  2  0  0  0  0
 29 43  1  0  0  0  0
 30 29  1  0  0  0  0
 31 32  1  0  0  0  0
 31  5  2  0  0  0  0
 33 34  1  0  0  0  0
 35 31  1  0  0  0  0
 36 35  1  0  0  0  0
 37 57  2  0  0  0  0
 38 37  1  0  0  0  0
 39 45  2  0  0  0  0
 39 47  1  0  0  0  0
 40 39  1  0  0  0  0
 41 35  2  0  0  0  0
 41 37  1  0  0  0  0
 42 41  1  0  0  0  0
 43 44  1  0  0  0  0
 43 33  2  0  0  0  0
 45 27  1  0  0  0  0
 46 45  1  0  0  0  0
 47 49  2  0  0  0  0
 48 47  1  0  0  0  0
 49  9  1  0  0  0  0
 49 50  1  0  0  0  0
 51 52  1  0  0  0  0
 51 33  1  0  0  0  0
 53 54  1  0  0  0  0
 55 53  1  0  0  0  0
 55 56  1  0  0  0  0
 57  5  1  0  0  0  0
 57  1  1  0  0  0  0
M  END
