1,8
q = -1.0, confidence = 0.004

 27 28  0  0  0  0  0  0  0  0999 V2000
   -2.5777   -0.5039   -0.0000 C   0  0  0  0  0  3  0  0  0  0  0  0
   -2.0868   -1.8455    0.0005 C   0  0  0  0  0  0  0  0  0  0  0  0
   -2.9519   -2.9686    0.0006 C   0  0  0  0  0  0  0  0  0  0  0  0
   -4.3326   -2.7687    0.0001 C   0  0  0  0  0  0  0  0  0  0  0  0
   -4.8364   -1.4529   -0.0006 C   0  0  0  0  0  0  0  0  0  0  0  0
   -3.9746   -0.3409   -0.0006 C   0  0  0  0  0  0  0  0  0  0  0  0
   -0.6632   -1.9778    0.0005 C   0  0  0  0  0  3  0  0  0  0  0  0
    0.0768   -0.8849    0.0001 N   0  0  0  0  0  2  0  0  0  0  0  0
    1.4152   -1.1517   -0.0001 N   0  0  0  0  0  0  0  0  0  0  0  0
    2.2447   -0.1580    0.0004 C   0  0  0  0  0  0  0  0  0  0  0  0
    3.6900   -0.3543    0.0001 C   0  0  0  0  0  0  0  0  0  0  0  0
    4.2717   -1.6454   -0.0007 C   0  0  0  0  0  0  0  0  0  0  0  0
    5.6613   -1.7883   -0.0009 C   0  0  0  0  0  0  0  0  0  0  0  0
    6.4913   -0.6508   -0.0003 C   0  0  0  0  0  0  0  0  0  0  0  0
    5.9240    0.6338    0.0004 C   0  0  0  0  0  0  0  0  0  0  0  0
    4.5314    0.7828    0.0007 C   0  0  0  0  0  0  0  0  0  0  0  0
   -2.5286   -3.9857    0.0011 H   0  0  0  0  0  0  0  0  0  0  0  0
   -5.0210   -3.6266    0.0001 H   0  0  0  0  0  0  0  0  0  0  0  0
   -5.9258   -1.2895   -0.0011 H   0  0  0  0  0  0  0  0  0  0  0  0
   -4.4213    0.6652   -0.0011 H   0  0  0  0  0  0  0  0  0  0  0  0
   -0.1443   -2.9528    0.0005 H   0  0  0  0  0  0  0  0  0  0  0  0
    1.8737    0.8839    0.0010 H   0  0  0  0  0  0  0  0  0  0  0  0
    3.6057   -2.5204   -0.0011 H   0  0  0  0  0  0  0  0  0  0  0  0
    6.1089   -2.7937   -0.0016 H   0  0  0  0  0  0  0  0  0  0  0  0
    7.5856   -0.7688   -0.0005 H   0  0  0  0  0  0  0  0  0  0  0  0
    6.5713    1.5235    0.0009 H   0  0  0  0  0  0  0  0  0  0  0  0
    4.0782    1.7869    0.0013 H   0  0  0  0  0  0  0  0  0  0  0  0
  1  2  1  0  0  0  0
  2  3  2  0  0  0  0
  3 17  1  0  0  0  0
  4 18  1  0  0  0  0
  4  3  1  0  0  0  0
  5  4  2  0  0  0  0
  6  5  1  0  0  0  0
  6  1  2  0  0  0  0
  7  2  1  0  0  0  0
  7 21  1  0  0  0  0
  8  7  1  0  0  0  0
  9  8  1  0  0  0  0
  9 10  2  0  0  0  0
 10 22  1  0  0  0  0
 11 10  1  0  0  0  0
 11 16  1  0  0  0  0
 12 11  2  0  0  0  0
 13 12  1  0  0  0  0
 13 14  2  0  0  0  0
 14 15  1  0  0  0  0
 15 16  2  0  0  0  0
 15 26  1  0  0  0  0
 16 27  1  0  0  0  0
 19  5  1  0  0  0  0
 20  6  1  0  0  0  0
 23 12  1  0  0  0  0
 24 13  1  0  0  0  0
 25 14  1  0  0  0  0
M  END
