1,2
q = -1.0, confidence = 0.0

 41 42  0  0  1  0  0  0  0  0999 V2000
   -1.4990   -1.7090    0.7207 N   0  0  0  0  0  0  0  0  0  0  0  0
   -0.0328    0.9858    0.7873 C   0  0  2  0  0  3  0  0  0  0  0  0
   -0.3730    0.4976    3.1298 O   0  0  0  0  0  0  0  0  0  0  0  0
    1.7057    1.0510    2.4379 O   0  0  0  0  0  0  0  0  0  0  0  0
    0.1000    2.3002    0.0256 C   0  0  0  0  0  0  0  0  0  0  0  0
   -1.2614    1.8249    0.5360 C   0  0  1  0  0  0  0  0  0  0  0  0
   -2.3941    1.3739   -0.3280 C   0  0  0  0  0  0  0  0  0  0  0  0
   -2.8984    2.1892   -1.3604 C   0  0  0  0  0  0  0  0  0  0  0  0
   -4.0143    1.7986   -2.1142 C   0  0  0  0  0  0  0  0  0  0  0  0
   -4.6625    0.5890   -1.8237 C   0  0  0  0  0  0  0  0  0  0  0  0
   -4.1825   -0.2181   -0.7825 C   0  0  0  0  0  0  0  0  0  0  0  0
   -3.0475    0.1513   -0.0339 C   0  0  0  0  0  0  0  0  0  0  0  0
   -2.5643   -0.7211    1.1000 C   0  0  0  0  0  0  0  0  0  0  0  0
    0.3706    0.8254    2.2071 C   0  0  0  0  0  0  0  0  0  0  0  0
    2.1527    0.7889    3.7724 C   0  0  0  0  0  0  0  0  0  0  0  0
    0.3536    2.2855   -1.4721 C   0  0  0  0  0  0  0  0  0  0  0  0
    0.7215    3.4972    0.7273 C   0  0  0  0  0  0  0  0  0  0  0  0
   -1.1332   -2.4911    1.9291 C   0  0  0  0  0  0  0  0  0  0  0  0
   -2.0362   -2.6275   -0.3158 C   0  0  0  0  0  0  0  0  0  0  0  0
   -1.6199    2.3774    1.4278 H   0  0  0  0  0  0  0  0  0  0  0  0
   -2.4091    3.1528   -1.5652 H   0  0  0  0  0  0  0  0  0  0  0  0
   -4.3875    2.4478   -2.9212 H   0  0  0  0  0  0  0  0  0  0  0  0
   -5.5480    0.2789   -2.3987 H   0  0  0  0  0  0  0  0  0  0  0  0
   -4.7046   -1.1561   -0.5355 H   0  0  0  0  0  0  0  0  0  0  0  0
   -2.1576   -0.1207    1.9345 H   0  0  0  0  0  0  0  0  0  0  0  0
   -3.4221   -1.3147    1.4921 H   0  0  0  0  0  0  0  0  0  0  0  0
    3.2196    1.0757    3.8003 H   0  0  0  0  0  0  0  0  0  0  0  0
    1.5714    1.3802    4.5073 H   0  0  0  0  0  0  0  0  0  0  0  0
    2.0392   -0.2857    4.0226 H   0  0  0  0  0  0  0  0  0  0  0  0
   -0.0867    1.3915   -1.9527 H   0  0  0  0  0  0  0  0  0  0  0  0
   -0.0838    3.1869   -1.9504 H   0  0  0  0  0  0  0  0  0  0  0  0
    1.4407    2.2979   -1.6906 H   0  0  0  0  0  0  0  0  0  0  0  0
    0.4699    3.5234    1.8058 H   0  0  0  0  0  0  0  0  0  0  0  0
    1.8283    3.4751    0.6443 H   0  0  0  0  0  0  0  0  0  0  0  0
    0.3673    4.4466    0.2720 H   0  0  0  0  0  0  0  0  0  0  0  0
   -0.3527   -3.2221    1.6487 H   0  0  0  0  0  0  0  0  0  0  0  0
   -0.7539   -1.8009    2.7050 H   0  0  0  0  0  0  0  0  0  0  0  0
   -2.0303   -3.0236    2.3205 H   0  0  0  0  0  0  0  0  0  0  0  0
   -1.2679   -3.3829   -0.5555 H   0  0  0  0  0  0  0  0  0  0  0  0
   -2.9639   -3.1122    0.0654 H   0  0  0  0  0  0  0  0  0  0  0  0
   -2.2748   -2.0547   -1.2294 H   0  0  0  0  0  0  0  0  0  0  0  0
  1 13  1  0  0  0  0
  1 18  1  0  0  0  0
  2 14  1  1  0  0  0
  4 15  1  0  0  0  0
  5  6  1  0  0  0  0
  5 17  1  0  0  0  0
  5  2  1  0  0  0  0
  6  2  1  0  0  0  0
  6 20  1  1  0  0  0
  7 12  1  0  0  0  0
  7  6  1  0  0  0  0
  8  7  2  0  0  0  0
  9 10  2  0  0  0  0
  9  8  1  0  0  0  0
 10 11  1  0  0  0  0
 11 24  1  0  0  0  0
 11 12  2  0  0  0  0
 12 13  1  0  0  0  0
 13 26  1  0  0  0  0
 13 25  1  0  0  0  0
 14  4  1  0  0  0  0
 14  3  2  0  0  0  0
 15 27  1  0  0  0  0
 15 29  1  0  0  0  0
 15 28  1  0  0  0  0
 16  5  1  0  0  0  0
 17 33  1  0  0  0  0
 18 38  1  0  0  0  0
 18 37  1  0  0  0  0
 19 40  1  0  0  0  0
 19  1  1  0  0  0  0
 21  8  1  0  0  0  0
 22  9  1  0  0  0  0
 23 10  1  0  0  0  0
 30 16  1  0  0  0  0
 31 16  1  0  0  0  0
 32 16  1  0  0  0  0
 34 17  1  0  0  0  0
 35 17  1  0  0  0  0
 36 18  1  0  0  0  0
 39 19  1  0  0  0  0
 41 19  1  0  0  0  0
M  END
