2,10
q = -1.0

 47 49  0  0  0  0  0  0  0  0999 V2000
    2.0694   -0.6126   -0.1492 C   0  0  0  0  0  0  0  0  0  0  0  0
    1.1032   -1.5533   -0.0312 N   0  0  0  0  0  2  0  0  0  0  0  0
    1.7472    0.6988   -0.1408 N   0  0  0  0  0  0  0  0  0  0  0  0
    0.0097    2.1924    0.0029 N   0  0  0  0  0  0  0  0  0  0  0  0
   -0.9880    2.3556    0.1416 H   0  0  0  0  0  0  0  0  0  0  0  0
    3.3742   -0.9990   -0.3063 N   0  0  0  0  0  0  0  0  0  0  0  0
    3.4955   -2.0163   -0.3345 H   0  0  0  0  0  0  0  0  0  0  0  0
    0.8717   -3.8377   -0.8870 C   0  0  0  0  0  0  0  0  0  0  0  0
    0.2153   -3.4489   -1.6767 H   0  0  0  0  0  0  0  0  0  0  0  0
    0.4306    0.9119   -0.0126 C   0  0  0  0  0  2  0  0  0  0  0  0
    0.8928    3.3542   -0.0807 C   0  0  0  0  0  0  0  0  0  0  0  0
    1.6985    3.0789   -0.7956 H   0  0  0  0  0  0  0  0  0  0  0  0
    4.5661   -0.2623   -0.3879 C   0  0  0  0  0  0  0  0  0  0  0  0
    1.7234    6.1165    0.5971 C   0  0  0  0  0  0  0  0  0  0  0  0
    0.9500    6.4315    1.3336 H   0  0  0  0  0  0  0  0  0  0  0  0
    2.4110    6.9797    0.4787 H   0  0  0  0  0  0  0  0  0  0  0  0
    0.1294    4.5644   -0.6315 C   0  0  0  0  0  0  0  0  0  0  0  0
   -0.7198    4.7956    0.0536 H   0  0  0  0  0  0  0  0  0  0  0  0
   -0.3120    4.3119   -1.6184 H   0  0  0  0  0  0  0  0  0  0  0  0
    1.4032   -2.9356    0.0586 C   0  0  0  0  0  0  0  0  0  0  0  0
    2.2125   -3.4335    1.1064 C   0  0  0  0  0  0  0  0  0  0  0  0
    2.5862   -2.7379    1.8732 H   0  0  0  0  0  0  0  0  0  0  0  0
    4.6411    1.1466   -0.3058 C   0  0  0  0  0  0  0  0  0  0  0  0
    3.7112    1.7131   -0.1814 H   0  0  0  0  0  0  0  0  0  0  0  0
    2.5128   -4.8016    1.1810 C   0  0  0  0  0  0  0  0  0  0  0  0
    3.1425   -5.1756    2.0029 H   0  0  0  0  0  0  0  0  0  0  0  0
    1.9933   -5.6917    0.2279 C   0  0  0  0  0  0  0  0  0  0  0  0
    2.2221   -6.7661    0.2916 H   0  0  0  0  0  0  0  0  0  0  0  0
    5.8885    1.7801   -0.3875 C   0  0  0  0  0  0  0  0  0  0  0  0
    5.9295    2.8787   -0.3205 H   0  0  0  0  0  0  0  0  0  0  0  0
    1.1678   -5.2040   -0.7985 C   0  0  0  0  0  0  0  0  0  0  0  0
    0.7437   -5.8977   -1.5403 H   0  0  0  0  0  0  0  0  0  0  0  0
    1.0426    5.7930   -0.7400 C   0  0  0  0  0  0  0  0  0  0  0  0
    1.8225    5.5940   -1.5086 H   0  0  0  0  0  0  0  0  0  0  0  0
    0.4626    6.6660   -1.1050 H   0  0  0  0  0  0  0  0  0  0  0  0
    2.4759    4.8992    1.1509 C   0  0  0  0  0  0  0  0  0  0  0  0
    3.3226    4.6492    0.4720 H   0  0  0  0  0  0  0  0  0  0  0  0
    2.9291    5.1343    2.1361 H   0  0  0  0  0  0  0  0  0  0  0  0
    5.7603   -1.0040   -0.5531 C   0  0  0  0  0  0  0  0  0  0  0  0
    5.7089   -2.1032   -0.6171 H   0  0  0  0  0  0  0  0  0  0  0  0
    7.0726    1.0443   -0.5514 C   0  0  0  0  0  0  0  0  0  0  0  0
    8.0448    1.5549   -0.6149 H   0  0  0  0  0  0  0  0  0  0  0  0
    6.9972   -0.3557   -0.6337 C   0  0  0  0  0  0  0  0  0  0  0  0
    7.9119   -0.9542   -0.7624 H   0  0  0  0  0  0  0  0  0  0  0  0
    1.5550    3.6791    1.2704 C   0  0  0  0  0  0  0  0  0  0  0  0
    0.7547    3.8785    2.0182 H   0  0  0  0  0  0  0  0  0  0  0  0
    2.1128    2.7875    1.6201 H   0  0  0  0  0  0  0  0  0  0  0  0
  1  3  2  0  0  0  0
  1  2  1  0  0  0  0
  2 20  1  0  0  0  0
  3 10  1  0  0  0  0
  4  5  1  0  0  0  0
  6  1  1  0  0  0  0
  7  6  1  0  0  0  0
  8 31  2  0  0  0  0
  8 20  1  0  0  0  0
  9  8  1  0  0  0  0
 10  4  1  0  0  0  0
 11  4  1  0  0  0  0
 11 45  1  0  0  0  0
 12 11  1  0  0  0  0
 13  6  1  0  0  0  0
 13 23  1  0  0  0  0
 14 36  1  0  0  0  0
 14 15  1  0  0  0  0
 16 14  1  0  0  0  0
 17 11  1  0  0  0  0
 17 18  1  0  0  0  0
 19 17  1  0  0  0  0
 20 21  2  0  0  0  0
 21 25  1  0  0  0  0
 21 22  1  0  0  0  0
 23 24  1  0  0  0  0
 25 26  1  0  0  0  0
 27 28  1  0  0  0  0
 27 25  2  0  0  0  0
 29 30  1  0  0  0  0
 29 23  2  0  0  0  0
 31 27  1  0  0  0  0
 32 31  1  0  0  0  0
 33 17  1  0  0  0  0
 33 14  1  0  0  0  0
 34 33  1  0  0  0  0
 35 33  1  0  0  0  0
 36 45  1  0  0  0  0
 36 38  1  0  0  0  0
 37 36  1  0  0  0  0
 39 13  2  0  0  0  0
 40 39  1  0  0  0  0
 41 29  1  0  0  0  0
 42 41  1  0  0  0  0
 43 39  1  0  0  0  0
 43 41  2  0  0  0  0
 44 43  1  0  0  0  0
 45 47  1  0  0  0  0
 45 46  1  0  0  0  0
M  END
