1,6
q = -1.0, confidence = 0.026

 34 35  0  0  1  0  0  0  0  0999 V2000
    1.7482   -0.1114   -0.0003 N   0  0  0  0  0  2  0  0  0  0  0  0
   -0.9832    1.3804   -1.1931 C   0  0  2  0  0  3  0  0  0  0  0  0
   -2.1798    0.6651   -0.7216 C   0  0  0  0  0  0  0  0  0  0  0  0
   -2.1804    0.6638    0.7211 C   0  0  0  0  0  0  0  0  0  0  0  0
   -0.9843    1.3784    1.1949 C   0  0  1  0  0  3  0  0  0  0  0  0
   -0.2443    1.7932    0.0016 C   0  0  1  0  0  3  0  0  0  0  0  0
   -0.6361    1.6318   -2.6257 C   0  0  0  0  0  0  0  0  0  0  0  0
   -3.1795    0.0291   -1.6333 C   0  0  0  0  0  0  0  0  0  0  0  0
   -3.1810    0.0264    1.6307 C   0  0  0  0  0  0  0  0  0  0  0  0
   -0.6383    1.6269    2.6282 C   0  0  0  0  0  0  0  0  0  0  0  0
    1.1878    2.2998    0.0026 C   0  0  0  0  0  0  0  0  0  0  0  0
    2.2156    1.1735    0.0011 C   0  0  1  0  0  3  0  0  0  0  0  0
    3.5950    1.4161    0.0012 C   0  0  0  0  0  0  0  0  0  0  0  0
    4.4923    0.3365    0.0000 C   0  0  0  0  0  0  0  0  0  0  0  0
    3.9863   -0.9696   -0.0013 C   0  0  0  0  0  0  0  0  0  0  0  0
    2.6003   -1.1595   -0.0014 C   0  0  0  0  0  0  0  0  0  0  0  0
   -1.3093    2.3902   -3.0797 H   0  0  0  0  0  0  0  0  0  0  0  0
    0.4053    1.9921   -2.7333 H   0  0  0  0  0  0  0  0  0  0  0  0
   -0.7199    0.6937   -3.2100 H   0  0  0  0  0  0  0  0  0  0  0  0
   -2.6691   -0.6776   -2.3192 H   0  0  0  0  0  0  0  0  0  0  0  0
   -3.9388   -0.5414   -1.0674 H   0  0  0  0  0  0  0  0  0  0  0  0
   -3.7009    0.7976   -2.2415 H   0  0  0  0  0  0  0  0  0  0  0  0
   -2.6710   -0.6792    2.3180 H   0  0  0  0  0  0  0  0  0  0  0  0
   -3.9381   -0.5456    1.0633 H   0  0  0  0  0  0  0  0  0  0  0  0
   -3.7051    0.7942    2.2375 H   0  0  0  0  0  0  0  0  0  0  0  0
   -0.7191    0.6868    3.2097 H   0  0  0  0  0  0  0  0  0  0  0  0
   -1.3142    2.3817    3.0842 H   0  0  0  0  0  0  0  0  0  0  0  0
    0.4018    1.9904    2.7371 H   0  0  0  0  0  0  0  0  0  0  0  0
    1.3648    2.9451    0.8884 H   0  0  0  0  0  0  0  0  0  0  0  0
    1.3651    2.9479   -0.8812 H   0  0  0  0  0  0  0  0  0  0  0  0
    3.9587    2.4541    0.0022 H   0  0  0  0  0  0  0  0  0  0  0  0
    5.5774    0.5184    0.0001 H   0  0  0  0  0  0  0  0  0  0  0  0
    4.6527   -1.8436   -0.0022 H   0  0  0  0  0  0  0  0  0  0  0  0
    2.1184   -2.1480   -0.0025 H   0  0  0  0  0  0  0  0  0  0  0  0
  1 12  1  0  0  0  0
  2  7  1  1  0  0  0
  2  3  1  0  0  0  0
  2  6  1  0  0  0  0
  3  4  2  0  0  0  0
  4  5  1  0  0  0  0
  4  9  1  0  0  0  0
  5 10  1  6  0  0  0
  6 11  1  6  0  0  0
  6  5  1  0  0  0  0
  8 21  1  0  0  0  0
  8  3  1  0  0  0  0
  9 25  1  0  0  0  0
  9 23  1  0  0  0  0
 10 28  1  0  0  0  0
 10 27  1  0  0  0  0
 10 26  1  0  0  0  0
 11 29  1  0  0  0  0
 12 13  1  0  0  0  0
 12 11  1  1  0  0  0
 13 31  1  0  0  0  0
 14 32  1  0  0  0  0
 14 13  2  0  0  0  0
 15 14  1  0  0  0  0
 16 15  2  0  0  0  0
 16  1  1  0  0  0  0
 17  7  1  0  0  0  0
 18  7  1  0  0  0  0
 19  7  1  0  0  0  0
 20  8  1  0  0  0  0
 22  8  1  0  0  0  0
 24  9  1  0  0  0  0
 30 11  1  0  0  0  0
 33 15  1  0  0  0  0
 34 16  1  0  0  0  0
M  END
