2,48
q = 0.0, confidence = 0.984

 50 52  0  0  0  0  0  0  0  0999 V2000
    1.4401    0.1282   -0.3192 P   0  0  0  0  0  4  0  0  0  0  0  0
    0.5653   -0.4231    0.9591 N   0  0  0  0  0  2  0  0  0  0  0  0
    2.6120    1.4844    0.0065 C   0  0  0  0  0  0  0  0  0  0  0  0
    3.9007    1.1796    0.4996 C   0  0  0  0  0  0  0  0  0  0  0  0
    4.2229    0.1315    0.5984 H   0  0  0  0  0  0  0  0  0  0  0  0
    4.7798    2.2148    0.8460 C   0  0  0  0  0  0  0  0  0  0  0  0
    5.7826    1.9745    1.2292 H   0  0  0  0  0  0  0  0  0  0  0  0
    4.3852    3.5541    0.6928 C   0  0  0  0  0  0  0  0  0  0  0  0
    5.0796    4.3647    0.9596 H   0  0  0  0  0  0  0  0  0  0  0  0
    3.1095    3.8607    0.1912 C   0  0  0  0  0  0  0  0  0  0  0  0
    2.8061    4.9099    0.0596 H   0  0  0  0  0  0  0  0  0  0  0  0
    2.2205    2.8315   -0.1483 C   0  0  0  0  0  0  0  0  0  0  0  0
    1.2233    3.0744   -0.5433 H   0  0  0  0  0  0  0  0  0  0  0  0
    2.4125   -1.1781   -1.1316 C   0  0  0  0  0  0  0  0  0  0  0  0
    2.3206   -2.5044   -0.6717 C   0  0  0  0  0  0  0  0  0  0  0  0
    1.6913   -2.7216    0.2038 H   0  0  0  0  0  0  0  0  0  0  0  0
    3.0387   -3.5184   -1.3236 C   0  0  0  0  0  0  0  0  0  0  0  0
    2.9770   -4.5551   -0.9607 H   0  0  0  0  0  0  0  0  0  0  0  0
    3.8361   -3.2082   -2.4368 C   0  0  0  0  0  0  0  0  0  0  0  0
    4.3975   -4.0042   -2.9485 H   0  0  0  0  0  0  0  0  0  0  0  0
    3.9255   -1.8829   -2.8977 C   0  0  0  0  0  0  0  0  0  0  0  0
    4.5561   -1.6426   -3.7666 H   0  0  0  0  0  0  0  0  0  0  0  0
    3.2187   -0.8633   -2.2456 C   0  0  0  0  0  0  0  0  0  0  0  0
    3.3020    0.1774   -2.5973 H   0  0  0  0  0  0  0  0  0  0  0  0
    0.9751   -0.2768    2.3524 C   0  0  0  0  0  0  0  0  0  0  0  0
    0.0732   -0.4287    2.9819 H   0  0  0  0  0  0  0  0  0  0  0  0
    1.3284    0.7584    2.5845 H   0  0  0  0  0  0  0  0  0  0  0  0
    2.0670   -1.2632    2.7838 C   0  0  0  0  0  0  0  0  0  0  0  0
    2.9413   -1.1608    2.1041 H   0  0  0  0  0  0  0  0  0  0  0  0
    1.6948   -2.3000    2.6409 H   0  0  0  0  0  0  0  0  0  0  0  0
    2.5075   -1.0476    4.2310 C   0  0  0  0  0  0  0  0  0  0  0  0
    3.2874   -1.7750    4.5295 H   0  0  0  0  0  0  0  0  0  0  0  0
    1.6570   -1.1634    4.9344 H   0  0  0  0  0  0  0  0  0  0  0  0
    2.9238   -0.0299    4.3796 H   0  0  0  0  0  0  0  0  0  0  0  0
    0.0941    0.5540   -1.4258 C   0  0  0  0  0  3  0  0  0  0  0  0
    0.1494    0.0461   -2.4044 H   0  0  0  0  0  0  0  0  0  0  0  0
   -0.8646    1.6123   -1.3390 C   0  0  0  0  0  0  0  0  0  0  0  0
   -1.6307    2.1058   -2.5517 C   0  0  0  0  0  0  0  0  0  0  0  0
   -1.8393    1.3004   -3.2832 H   0  0  0  0  0  0  0  0  0  0  0  0
   -0.9746    2.8379   -3.0735 H   0  0  0  0  0  0  0  0  0  0  0  0
   -2.8961    2.7839   -1.9921 C   0  0  0  0  0  0  0  0  0  0  0  0
   -3.7441    2.0721   -2.0172 H   0  0  0  0  0  0  0  0  0  0  0  0
   -3.2059    3.6647   -2.5855 H   0  0  0  0  0  0  0  0  0  0  0  0
   -2.5504    3.1366   -0.5341 C   0  0  0  0  0  0  0  0  0  0  0  0
   -2.1660    4.1777   -0.4498 H   0  0  0  0  0  0  0  0  0  0  0  0
   -3.4075    3.0717    0.1634 H   0  0  0  0  0  0  0  0  0  0  0  0
   -1.4075    2.2211   -0.1472 C   0  0  0  0  0  0  0  0  0  0  0  0
   -1.0074    1.9013    1.1819 C   0  0  0  0  0  3  0  0  0  0  0  0
    0.0513    1.9115    1.4719 H   0  0  0  0  0  0  0  0  0  0  0  0
   -1.6888    2.2343    1.9834 H   0  0  0  0  0  0  0  0  0  0  0  0
  1  3  1  0  0  0  0
  1  2  1  0  0  0  0
  2 25  1  0  0  0  0
  3  4  1  0  0  0  0
  4  5  1  0  0  0  0
  4  6  2  0  0  0  0
  6  7  1  0  0  0  0
  8  6  1  0  0  0  0
  8  9  1  0  0  0  0
 10  8  2  0  0  0  0
 11 10  1  0  0  0  0
 12  3  2  0  0  0  0
 12 10  1  0  0  0  0
 13 12  1  0  0  0  0
 14 15  1  0  0  0  0
 14  1  1  0  0  0  0
 15 16  1  0  0  0  0
 17 18  1  0  0  0  0
 17 15  2  0  0  0  0
 19 17  1  0  0  0  0
 20 19  1  0  0  0  0
 21 19  2  0  0  0  0
 21 23  1  0  0  0  0
 22 21  1  0  0  0  0
 23 14  2  0  0  0  0
 24 23  1  0  0  0  0
 25 27  1  0  0  0  0
 25 28  1  0  0  0  0
 25 26  1  0  0  0  0
 28 31  1  0  0  0  0
 29 28  1  0  0  0  0
 30 28  1  0  0  0  0
 31 34  1  0  0  0  0
 31 32  1  0  0  0  0
 31 33  1  0  0  0  0
 35 37  1  0  0  0  0
 35  1  1  0  0  0  0
 36 35  1  0  0  0  0
 37 47  2  0  0  0  0
 38 41  1  0  0  0  0
 38 37  1  0  0  0  0
 39 38  1  0  0  0  0
 40 38  1  0  0  0  0
 41 44  1  0  0  0  0
 42 41  1  0  0  0  0
 43 41  1  0  0  0  0
 44 45  1  0  0  0  0
 44 47  1  0  0  0  0
 44 46  1  0  0  0  0
 47 48  1  0  0  0  0
 48 49  1  0  0  0  0
 48 50  1  0  0  0  0
M  END
