1,12
q = -1.0

 28 30  0  0  0  0  0  0  0  0999 V2000
    1.2924   -1.4555    1.4461 N   0  0  0  0  0  2  0  0  0  0  0  0
    0.8823   -2.2170    2.4789 C   0  0  0  0  0  3  0  0  0  0  0  0
   -0.1368   -2.0181    2.8448 H   0  0  0  0  0  0  0  0  0  0  0  0
    1.6837   -3.2089    3.0488 C   0  0  0  0  0  0  0  0  0  0  0  0
    1.3089   -3.8024    3.8938 H   0  0  0  0  0  0  0  0  0  0  0  0
    2.9545   -3.4319    2.4877 C   0  0  0  0  0  0  0  0  0  0  0  0
    3.6064   -4.2271    2.8804 H   0  0  0  0  0  0  0  0  0  0  0  0
    3.3819   -2.6477    1.4151 C   0  0  0  0  0  0  0  0  0  0  0  0
    4.3540   -2.8334    0.9420 H   0  0  0  0  0  0  0  0  0  0  0  0
    2.5441   -1.6287    0.8956 C   0  0  0  0  0  0  0  0  0  0  0  0
    2.8190   -0.7817   -0.2587 C   0  0  0  0  0  0  0  0  0  0  0  0
    1.7216   -0.0726   -0.7572 C   0  0  0  0  0  3  0  0  0  0  0  0
    1.8955    0.6748   -2.0529 C   0  0  0  0  0  0  0  0  0  0  0  0
    2.2142    1.7180   -1.8142 H   0  0  0  0  0  0  0  0  0  0  0  0
    0.9189    0.7741   -2.5657 H   0  0  0  0  0  0  0  0  0  0  0  0
    2.9220   -0.0069   -2.9672 C   0  0  0  0  0  0  0  0  0  0  0  0
    2.5068   -0.9951   -3.2748 H   0  0  0  0  0  0  0  0  0  0  0  0
    3.0848    0.5743   -3.8973 H   0  0  0  0  0  0  0  0  0  0  0  0
    4.2239   -0.2173   -2.2372 C   0  0  0  0  0  0  0  0  0  0  0  0
    4.1560   -0.6191   -0.8718 C   0  0  0  0  0  0  0  0  0  0  0  0
    5.3684   -0.7390   -0.1524 C   0  0  0  0  0  0  0  0  0  0  0  0
    5.3436   -0.9637    0.9234 H   0  0  0  0  0  0  0  0  0  0  0  0
    6.6085   -0.5290   -0.7730 C   0  0  0  0  0  0  0  0  0  0  0  0
    7.5346   -0.6301   -0.1862 H   0  0  0  0  0  0  0  0  0  0  0  0
    6.6665   -0.1758   -2.1287 C   0  0  0  0  0  0  0  0  0  0  0  0
    7.6362   -0.0111   -2.6224 H   0  0  0  0  0  0  0  0  0  0  0  0
    5.4704   -0.0082   -2.8452 C   0  0  0  0  0  0  0  0  0  0  0  0
    5.5015    0.2995   -3.9030 H   0  0  0  0  0  0  0  0  0  0  0  0
  1  2  1  0  0  0  0
  2  3  1  0  0  0  0
  2  4  1  0  0  0  0
  4  5  1  0  0  0  0
  6  7  1  0  0  0  0
  6  4  2  0  0  0  0
  8  6  1  0  0  0  0
  9  8  1  0  0  0  0
 10  8  2  0  0  0  0
 10  1  1  0  0  0  0
 11 10  1  0  0  0  0
 12 11  2  0  0  0  0
 13 14  1  0  0  0  0
 13 12  1  0  0  0  0
 15 13  1  0  0  0  0
 16 19  1  0  0  0  0
 16 13  1  0  0  0  0
 17 16  1  0  0  0  0
 18 16  1  0  0  0  0
 19 20  1  0  0  0  0
 20 11  1  0  0  0  0
 20 21  2  0  0  0  0
 21 22  1  0  0  0  0
 23 24  1  0  0  0  0
 23 21  1  0  0  0  0
 25 23  2  0  0  0  0
 26 25  1  0  0  0  0
 27 19  2  0  0  0  0
 27 25  1  0  0  0  0
 28 27  1  0  0  0  0
M  END
