1,19
q = -1.0, confidence = 0.0

 21 22  0  0  0  0  0  0  0  0999 V2000
   -0.2049   -0.5258   -1.9113 N   0  0  0  0  0  2  0  0  0  0  0  0
   -1.1305   -1.2530   -2.5767 N   0  0  0  0  0  0  0  0  0  0  0  0
    0.6035    0.0343   -2.8363 C   0  0  0  0  0  3  0  0  0  0  0  0
    1.4215    0.6871   -2.5101 H   0  0  0  0  0  0  0  0  0  0  0  0
    0.1873   -0.3551   -4.1250 C   0  0  0  0  0  0  0  0  0  0  0  0
    0.6323   -0.0681   -5.0820 H   0  0  0  0  0  0  0  0  0  0  0  0
   -0.9219   -1.1758   -3.9197 C   0  0  0  0  0  0  0  0  0  0  0  0
   -1.5711   -1.7154   -4.6172 H   0  0  0  0  0  0  0  0  0  0  0  0
   -2.1022   -2.0644   -1.8512 C   0  0  0  0  0  0  0  0  0  0  0  0
   -1.5498   -2.9130   -1.3924 H   0  0  0  0  0  0  0  0  0  0  0  0
   -2.7862   -2.4897   -2.6064 H   0  0  0  0  0  0  0  0  0  0  0  0
   -2.8827   -1.2848   -0.8179 C   0  0  0  0  0  0  0  0  0  0  0  0
   -4.2836   -1.4190   -0.8044 C   0  0  0  0  0  0  0  0  0  0  0  0
   -5.1060   -0.7481    0.1021 C   0  0  0  0  0  0  0  0  0  0  0  0
   -6.1957   -0.8747    0.0900 H   0  0  0  0  0  0  0  0  0  0  0  0
   -4.4680    0.1045    1.0114 C   0  0  0  0  0  0  0  0  0  0  0  0
   -3.0814    0.2780    1.0295 C   0  0  0  0  0  0  0  0  0  0  0  0
   -2.6631    0.9925    1.7518 H   0  0  0  0  0  0  0  0  0  0  0  0
   -2.2484   -0.4247    0.1262 C   0  0  0  0  0  3  0  0  0  0  0  0
   -4.8710   -2.2433   -1.7093 F   0  0  0  0  0  0  0  0  0  0  0  0
   -5.2280    0.7841    1.8929 F   0  0  0  0  0  0  0  0  0  0  0  0
  2  1  1  0  0  0  0
  2  9  1  0  0  0  0
  3  4  1  0  0  0  0
  3  1  1  0  0  0  0
  5  7  2  0  0  0  0
  5  3  1  0  0  0  0
  6  5  1  0  0  0  0
  7  2  1  0  0  0  0
  8  7  1  0  0  0  0
  9 10  1  0  0  0  0
  9 12  1  0  0  0  0
 11  9  1  0  0  0  0
 12 13  2  0  0  0  0
 12 19  1  0  0  0  0
 13 14  1  0  0  0  0
 14 16  2  0  0  0  0
 15 14  1  0  0  0  0
 16 17  1  0  0  0  0
 16 21  1  0  0  0  0
 17 18  1  0  0  0  0
 19 17  2  0  0  0  0
 20 13  1  0  0  0  0
M  END
