3,18
q = -1.0, confidence = 0.0

 30 31  0  0  1  0  0  0  0  0999 V2000
   -3.7332   -2.4262    1.8147 O   0  0  0  0  0  0  0  0  0  0  0  0
   -0.3899   -1.1027    4.7074 O   0  0  0  0  0  0  0  0  0  0  0  0
   -1.6668   -0.2685   -1.2867 N   0  0  0  0  0  2  0  0  0  0  0  0
   -2.0609   -1.7548    3.2460 N   0  0  0  0  0  4  0  0  0  0  0  0
   -1.9593   -0.1561   -2.6013 C   0  0  0  0  0  3  0  0  0  0  0  0
   -1.2551    0.4577   -3.1840 H   0  0  0  0  0  0  0  0  0  0  0  0
   -3.0672   -0.7820   -3.1671 C   0  0  0  0  0  0  0  0  0  0  0  0
   -3.2622   -0.6625   -4.2427 H   0  0  0  0  0  0  0  0  0  0  0  0
   -3.9187   -1.5606   -2.3512 C   0  0  0  0  0  0  0  0  0  0  0  0
   -3.5978   -1.6720   -0.9910 C   0  0  0  0  0  0  0  0  0  0  0  0
   -4.2199   -2.2693   -0.3146 H   0  0  0  0  0  0  0  0  0  0  0  0
   -2.4607   -1.0289   -0.4543 C   0  0  0  0  0  0  0  0  0  0  0  0
   -1.9741   -1.0740    0.9179 C   0  0  1  0  0  3  0  0  0  0  0  0
   -2.5728   -1.7490    2.0149 C   0  0  0  0  0  0  0  0  0  0  0  0
   -0.9149   -1.0927    3.4600 C   0  0  0  0  0  0  0  0  0  0  0  0
   -0.2183   -0.3823    2.4640 C   0  0  0  0  0  0  0  0  0  0  0  0
    0.7201    0.1244    2.7263 H   0  0  0  0  0  0  0  0  0  0  0  0
   -0.7454   -0.3617    1.1631 C   0  0  0  0  0  3  0  0  0  0  0  0
   -5.1237   -2.2511   -2.9310 C   0  0  0  0  0  0  0  0  0  0  0  0
   -5.8148   -1.5194   -3.3989 H   0  0  0  0  0  0  0  0  0  0  0  0
   -5.6848   -2.8123   -2.1599 H   0  0  0  0  0  0  0  0  0  0  0  0
   -4.8267   -2.9633   -3.7289 H   0  0  0  0  0  0  0  0  0  0  0  0
   -4.2997   -3.1002    2.9363 C   0  0  0  0  0  0  0  0  0  0  0  0
   -5.2201   -3.5847    2.5611 H   0  0  0  0  0  0  0  0  0  0  0  0
   -4.5447   -2.3905    3.7528 H   0  0  0  0  0  0  0  0  0  0  0  0
   -3.6034   -3.8616    3.3435 H   0  0  0  0  0  0  0  0  0  0  0  0
   -1.0886   -1.8361    5.7074 C   0  0  0  0  0  0  0  0  0  0  0  0
   -0.4975   -1.7219    6.6350 H   0  0  0  0  0  0  0  0  0  0  0  0
   -1.1731   -2.9101    5.4400 H   0  0  0  0  0  0  0  0  0  0  0  0
   -2.1153   -1.4422    5.8596 H   0  0  0  0  0  0  0  0  0  0  0  0
  1 14  1  0  0  0  0
  1 23  1  0  0  0  0
  2 27  1  0  0  0  0
  3 12  1  0  0  0  0
  4 15  2  0  0  0  0
  5  3  1  0  0  0  0
  6  5  1  0  0  0  0
  7  5  1  0  0  0  0
  7  9  2  0  0  0  0
  8  7  1  0  0  0  0
  9 10  1  0  0  0  0
 10 12  2  0  0  0  0
 10 11  1  0  0  0  0
 13 12  1  6  0  0  0
 13 18  1  0  0  0  0
 13 14  1  0  0  0  0
 14  4  2  0  0  0  0
 15  2  1  0  0  0  0
 16 17  1  0  0  0  0
 16 15  1  0  0  0  0
 18 16  2  0  0  0  0
 19  9  1  0  0  0  0
 19 21  1  0  0  0  0
 20 19  1  0  0  0  0
 22 19  1  0  0  0  0
 23 26  1  0  0  0  0
 23 25  1  0  0  0  0
 24 23  1  0  0  0  0
 27 30  1  0  0  0  0
 27 28  1  0  0  0  0
 29 27  1  0  0  0  0
M  END
