12,15
q = -1.0

 25 27  0  0  0  0  0  0  0  0999 V2000
    4.4076   -3.1084    1.6734 O   0  0  0  0  0  0  0  0  0  0  0  0
    4.4812   -2.0810   -0.8989 C   0  0  0  0  0  0  0  0  0  0  0  0
    4.4628   -1.7689   -1.9508 H   0  0  0  0  0  0  0  0  0  0  0  0
    3.2100    1.3458   -3.4966 C   0  0  0  0  0  0  0  0  0  0  0  0
    4.0135    1.5313   -4.2248 H   0  0  0  0  0  0  0  0  0  0  0  0
    3.4432    0.5132   -2.3985 C   0  0  0  0  0  0  0  0  0  0  0  0
    4.4398    0.0850   -2.2486 H   0  0  0  0  0  0  0  0  0  0  0  0
    5.4126   -3.0040   -0.5106 C   0  0  0  0  0  0  0  0  0  0  0  0
    6.1561   -3.4101   -1.2099 H   0  0  0  0  0  0  0  0  0  0  0  0
    5.4683   -3.5251    0.8494 C   0  0  0  0  0  0  0  0  0  0  0  0
    6.2925   -4.2817    1.3162 O   0  0  0  0  0  0  0  0  0  0  0  0
    1.2296    0.9481   -1.5849 N   0  0  0  0  0  2  0  0  0  0  0  0
    0.9959    1.7390   -2.6543 C   0  0  0  0  0  3  0  0  0  0  0  0
    0.0050    2.2157   -2.6735 H   0  0  0  0  0  0  0  0  0  0  0  0
    1.3840   -0.3911    0.6362 C   0  0  0  0  0  3  0  0  0  0  0  0
    2.4732   -0.5943   -0.2661 C   0  0  0  0  0  0  0  0  0  0  0  0
    2.4215   -1.9657    2.2080 C   0  0  0  0  0  0  0  0  0  0  0  0
    2.4414   -2.5008    3.1684 H   0  0  0  0  0  0  0  0  0  0  0  0
    2.4228    0.2628   -1.4532 C   0  0  0  0  0  0  0  0  0  0  0  0
    1.9513    1.9481   -3.6495 C   0  0  0  0  0  0  0  0  0  0  0  0
    1.7174    2.5975   -4.5041 H   0  0  0  0  0  0  0  0  0  0  0  0
    3.4866   -1.5752    0.0182 C   0  0  0  0  0  0  0  0  0  0  0  0
    3.4605   -2.2076    1.2896 C   0  0  0  0  0  0  0  0  0  0  0  0
    1.3876   -1.0977    1.8652 C   0  0  0  0  0  0  0  0  0  0  0  0
    0.5589   -0.9581    2.5748 H   0  0  0  0  0  0  0  0  0  0  0  0
  2  8  2  0  0  0  0
  2 22  1  0  0  0  0
  3  2  1  0  0  0  0
  4  6  1  0  0  0  0
  5  4  1  0  0  0  0
  6  7  1  0  0  0  0
  6 19  2  0  0  0  0
  8 10  1  0  0  0  0
  9  8  1  0  0  0  0
 10 11  2  0  0  0  0
 10  1  1  0  0  0  0
 12 19  1  0  0  0  0
 13 12  1  0  0  0  0
 14 13  1  0  0  0  0
 15 24  1  0  0  0  0
 16 22  1  0  0  0  0
 16 15  2  0  0  0  0
 17 18  1  0  0  0  0
 19 16  1  0  0  0  0
 20  4  2  0  0  0  0
 20 13  1  0  0  0  0
 21 20  1  0  0  0  0
 22 23  2  0  0  0  0
 23  1  1  0  0  0  0
 23 17  1  0  0  0  0
 24 17  2  0  0  0  0
 24 25  1  0  0  0  0
M  END
