1,2
q = -1.0, confidence = 0.004

 25 27  0  0  0  0  0  0  0  0999 V2000
    0.4228    1.2274   -1.5003 N   0  0  0  0  0  2  0  0  0  0  0  0
   -1.1788   -0.4586   -0.2812 C   0  0  0  0  0  3  0  0  0  0  0  0
   -5.3508   -0.3559   -0.8370 O   0  0  0  0  0  0  0  0  0  0  0  0
   -7.4361   -1.0832   -0.4277 O   0  0  0  0  0  0  0  0  0  0  0  0
   -1.8095    0.4800   -1.1674 C   0  0  0  0  0  0  0  0  0  0  0  0
    1.3712    2.0470   -1.9974 C   0  0  0  0  0  3  0  0  0  0  0  0
    2.3971    1.8381   -1.6627 H   0  0  0  0  0  0  0  0  0  0  0  0
   -0.8968    1.4141   -1.8280 C   0  0  0  0  0  0  0  0  0  0  0  0
   -2.0055   -1.3416    0.4249 C   0  0  0  0  0  0  0  0  0  0  0  0
   -1.5723   -2.0694    1.1291 H   0  0  0  0  0  0  0  0  0  0  0  0
   -4.0008   -0.4041   -0.6378 C   0  0  0  0  0  0  0  0  0  0  0  0
   -1.2609    2.4627   -2.6911 C   0  0  0  0  0  0  0  0  0  0  0  0
   -2.3203    2.6139   -2.9373 H   0  0  0  0  0  0  0  0  0  0  0  0
   -3.4126   -1.3353    0.2625 C   0  0  0  0  0  0  0  0  0  0  0  0
    1.0599    3.1033   -2.8541 C   0  0  0  0  0  0  0  0  0  0  0  0
    1.8618    3.7563   -3.2246 H   0  0  0  0  0  0  0  0  0  0  0  0
   -4.3065   -2.2226    0.9604 C   0  0  0  0  0  0  0  0  0  0  0  0
   -3.8799   -2.9528    1.6674 H   0  0  0  0  0  0  0  0  0  0  0  0
   -6.2553   -1.2066   -0.1781 C   0  0  0  0  0  0  0  0  0  0  0  0
   -3.2041    0.5015   -1.3461 C   0  0  0  0  0  0  0  0  0  0  0  0
   -3.7017    1.2106   -2.0226 H   0  0  0  0  0  0  0  0  0  0  0  0
   -5.6555   -2.1625    0.7524 C   0  0  0  0  0  0  0  0  0  0  0  0
   -6.3633   -2.8252    1.2689 H   0  0  0  0  0  0  0  0  0  0  0  0
   -0.2823    3.3154   -3.2048 C   0  0  0  0  0  0  0  0  0  0  0  0
   -0.5644    4.1499   -3.8630 H   0  0  0  0  0  0  0  0  0  0  0  0
  2  9  1  0  0  0  0
  3 11  1  0  0  0  0
  3 19  1  0  0  0  0
  4 19  2  0  0  0  0
  5  2  2  0  0  0  0
  6  7  1  0  0  0  0
  6  1  1  0  0  0  0
  8  1  1  0  0  0  0
  8  5  1  0  0  0  0
  9 10  1  0  0  0  0
 11 14  1  0  0  0  0
 12  8  2  0  0  0  0
 13 12  1  0  0  0  0
 14  9  2  0  0  0  0
 14 17  1  0  0  0  0
 15  6  1  0  0  0  0
 16 15  1  0  0  0  0
 17 18  1  0  0  0  0
 19 22  1  0  0  0  0
 20  5  1  0  0  0  0
 20 11  2  0  0  0  0
 21 20  1  0  0  0  0
 22 17  2  0  0  0  0
 22 23  1  0  0  0  0
 24 15  2  0  0  0  0
 24 12  1  0  0  0  0
 25 24  1  0  0  0  0
M  END
