2,4
q = -1.0, confidence = 0.062

 64 67  0  0  0  0  0  0  0  0999 V2000
   -3.0248   -0.3858    0.1649 B   0  0  0  0  0  0  0  0  0  0  0  0
    0.8020   -0.6305    0.0204 N   0  0  0  0  0  2  0  0  0  0  0  0
    4.8564   -5.0363    0.5719 O   0  0  0  0  0  0  0  0  0  0  0  0
    3.3413   -1.1381    0.0223 C   0  0  0  0  0  2  0  0  0  0  0  0
    4.7294   -1.3567   -0.0012 C   0  0  0  0  0  0  0  0  0  0  0  0
    5.4028   -0.5006   -0.1612 H   0  0  0  0  0  0  0  0  0  0  0  0
    5.2693   -2.6415    0.1777 C   0  0  0  0  0  0  0  0  0  0  0  0
    6.3603   -2.7714    0.1521 H   0  0  0  0  0  0  0  0  0  0  0  0
    4.4201   -3.7537    0.3892 C   0  0  0  0  0  0  0  0  0  0  0  0
    3.0289   -3.5645    0.4191 C   0  0  0  0  0  0  0  0  0  0  0  0
    2.3914   -4.4455    0.5846 H   0  0  0  0  0  0  0  0  0  0  0  0
    2.4938   -2.2751    0.2370 C   0  0  0  0  0  0  0  0  0  0  0  0
    1.0714   -1.9674    0.2437 C   0  0  0  0  0  0  0  0  0  0  0  0
   -0.0032   -2.8560    0.4530 C   0  0  0  0  0  0  0  0  0  0  0  0
    0.2136   -3.9168    0.6410 H   0  0  0  0  0  0  0  0  0  0  0  0
   -1.3159   -2.3847    0.4290 C   0  0  0  0  0  0  0  0  0  0  0  0
   -2.1554   -3.0764    0.6034 H   0  0  0  0  0  0  0  0  0  0  0  0
   -1.5863   -1.0112    0.1926 C   0  0  0  0  0  0  0  0  0  0  0  0
   -0.4669   -0.1816   -0.0101 C   0  0  0  0  0  0  0  0  0  0  0  0
   -0.5719    0.8985   -0.1974 H   0  0  0  0  0  0  0  0  0  0  0  0
    6.2471   -5.2796    0.5476 C   0  0  0  0  0  0  0  0  0  0  0  0
    6.3793   -6.3657    0.7113 H   0  0  0  0  0  0  0  0  0  0  0  0
    6.7840   -4.7276    1.3526 H   0  0  0  0  0  0  0  0  0  0  0  0
    6.7038   -5.0060   -0.4311 H   0  0  0  0  0  0  0  0  0  0  0  0
   -4.2634   -1.3272   -0.0794 C   0  0  0  0  0  0  0  0  0  0  0  0
   -5.3601   -1.3251    0.8371 C   0  0  0  0  0  0  0  0  0  0  0  0
   -6.4452   -2.1920    0.6314 C   0  0  0  0  0  0  0  0  0  0  0  0
   -7.2747   -2.1875    1.3581 H   0  0  0  0  0  0  0  0  0  0  0  0
   -6.5114   -3.0552   -0.4790 C   0  0  0  0  0  0  0  0  0  0  0  0
   -5.4443   -3.0295   -1.3908 C   0  0  0  0  0  0  0  0  0  0  0  0
   -5.4869   -3.6765   -2.2830 H   0  0  0  0  0  0  0  0  0  0  0  0
   -4.3238   -2.1969   -1.2066 C   0  0  0  0  0  0  0  0  0  0  0  0
   -5.3806   -0.4083    2.0397 C   0  0  0  0  0  0  0  0  0  0  0  0
   -5.4297    0.6566    1.7347 H   0  0  0  0  0  0  0  0  0  0  0  0
   -4.4669   -0.5107    2.6599 H   0  0  0  0  0  0  0  0  0  0  0  0
   -6.2521   -0.6210    2.6885 H   0  0  0  0  0  0  0  0  0  0  0  0
   -7.6900   -3.9753   -0.6706 C   0  0  0  0  0  0  0  0  0  0  0  0
   -8.6511   -3.4343   -0.5503 H   0  0  0  0  0  0  0  0  0  0  0  0
   -7.6868   -4.7904    0.0843 H   0  0  0  0  0  0  0  0  0  0  0  0
   -7.6835   -4.4475   -1.6721 H   0  0  0  0  0  0  0  0  0  0  0  0
   -3.2366   -2.2353   -2.2610 C   0  0  0  0  0  0  0  0  0  0  0  0
   -2.6789   -1.2828   -2.3399 H   0  0  0  0  0  0  0  0  0  0  0  0
   -3.6639   -2.4633   -3.2576 H   0  0  0  0  0  0  0  0  0  0  0  0
   -2.4833   -3.0216   -2.0430 H   0  0  0  0  0  0  0  0  0  0  0  0
   -3.1528    1.1746    0.3658 C   0  0  0  0  0  0  0  0  0  0  0  0
   -2.5396    1.8394    1.4680 C   0  0  0  0  0  0  0  0  0  0  0  0
   -2.5965    3.2428    1.5647 C   0  0  0  0  0  0  0  0  0  0  0  0
   -2.1330    3.7351    2.4363 H   0  0  0  0  0  0  0  0  0  0  0  0
   -3.2271    4.0314    0.5894 C   0  0  0  0  0  0  0  0  0  0  0  0
   -3.8477    3.3682   -0.4858 C   0  0  0  0  0  0  0  0  0  0  0  0
   -4.3637    3.9640   -1.2570 H   0  0  0  0  0  0  0  0  0  0  0  0
   -3.8391    1.9686   -0.6058 C   0  0  0  0  0  0  0  0  0  0  0  0
   -3.2224    5.5362    0.6734 C   0  0  0  0  0  0  0  0  0  0  0  0
   -2.4126    5.9641    0.0425 H   0  0  0  0  0  0  0  0  0  0  0  0
   -3.0517    5.8892    1.7093 H   0  0  0  0  0  0  0  0  0  0  0  0
   -4.1755    5.9700    0.3100 H   0  0  0  0  0  0  0  0  0  0  0  0
   -4.5525    1.3442   -1.7841 C   0  0  0  0  0  0  0  0  0  0  0  0
   -4.9533    2.1221   -2.4621 H   0  0  0  0  0  0  0  0  0  0  0  0
   -5.3962    0.7047   -1.4556 H   0  0  0  0  0  0  0  0  0  0  0  0
   -3.8837    0.6921   -2.3815 H   0  0  0  0  0  0  0  0  0  0  0  0
   -1.8397    1.0947    2.5860 C   0  0  0  0  0  0  0  0  0  0  0  0
   -2.1069    0.0226    2.6261 H   0  0  0  0  0  0  0  0  0  0  0  0
   -2.0881    1.5444    3.5686 H   0  0  0  0  0  0  0  0  0  0  0  0
   -0.7357    1.1505    2.4753 H   0  0  0  0  0  0  0  0  0  0  0  0
  1 18  1  0  0  0  0
  1 45  1  0  0  0  0
  2 13  1  0  0  0  0
  4 12  1  0  0  0  0
  5  4  1  0  0  0  0
  5  7  2  0  0  0  0
  6  5  1  0  0  0  0
  7  9  1  0  0  0  0
  8  7  1  0  0  0  0
  9 10  2  0  0  0  0
  9  3  1  0  0  0  0
 10 11  1  0  0  0  0
 12 13  2  0  0  0  0
 12 10  1  0  0  0  0
 13 14  1  0  0  0  0
 14 15  1  0  0  0  0
 16 14  2  0  0  0  0
 16 17  1  0  0  0  0
 18 16  1  0  0  0  0
 19  2  1  0  0  0  0
 19 18  2  0  0  0  0
 20 19  1  0  0  0  0
 21  3  1  0  0  0  0
 21 22  1  0  0  0  0
 21 23  1  0  0  0  0
 24 21  1  0  0  0  0
 25  1  1  0  0  0  0
 25 26  1  0  0  0  0
 26 33  1  0  0  0  0
 27 26  2  0  0  0  0
 27 28  1  0  0  0  0
 29 27  1  0  0  0  0
 30 32  1  0  0  0  0
 30 29  2  0  0  0  0
 31 30  1  0  0  0  0
 32 25  2  0  0  0  0
 33 35  1  0  0  0  0
 33 36  1  0  0  0  0
 34 33  1  0  0  0  0
 37 38  1  0  0  0  0
 37 29  1  0  0  0  0
 37 39  1  0  0  0  0
 40 37  1  0  0  0  0
 41 44  1  0  0  0  0
 41 32  1  0  0  0  0
 42 41  1  0  0  0  0
 43 41  1  0  0  0  0
 45 46  1  0  0  0  0
 46 47  2  0  0  0  0
 46 61  1  0  0  0  0
 47 48  1  0  0  0  0
 49 53  1  0  0  0  0
 49 47  1  0  0  0  0
 50 49  2  0  0  0  0
 51 50  1  0  0  0  0
 52 50  1  0  0  0  0
 52 45  2  0  0  0  0
 53 55  1  0  0  0  0
 54 53  1  0  0  0  0
 56 53  1  0  0  0  0
 57 59  1  0  0  0  0
 57 52  1  0  0  0  0
 58 57  1  0  0  0  0
 60 57  1  0  0  0  0
 61 62  1  0  0  0  0
 61 63  1  0  0  0  0
 64 61  1  0  0  0  0
M  END
