2,3
q = -1.0, confidence = 0.016

 60 63  0  0  0  0  0  0  0  0999 V2000
    2.8945   -0.0666    0.1853 B   0  0  0  0  0  0  0  0  0  0  0  0
   -3.2194   -2.0739    0.1990 N   0  0  0  0  0  2  0  0  0  0  0  0
   -0.8886   -0.9562    0.0791 C   0  0  0  0  0  2  0  0  0  0  0  0
    0.3312   -0.2680   -0.0011 C   0  0  0  0  0  0  0  0  0  0  0  0
    0.3166    0.8038   -0.2504 H   0  0  0  0  0  0  0  0  0  0  0  0
    1.5689   -0.9063    0.2515 C   0  0  0  0  0  0  0  0  0  0  0  0
    1.5566   -2.2914    0.5801 C   0  0  0  0  0  0  0  0  0  0  0  0
    2.5116   -2.8013    0.7832 H   0  0  0  0  0  0  0  0  0  0  0  0
    0.3584   -3.0048    0.6575 C   0  0  0  0  0  0  0  0  0  0  0  0
    0.3739   -4.0749    0.9194 H   0  0  0  0  0  0  0  0  0  0  0  0
   -0.8681   -2.3464    0.4059 C   0  0  0  0  0  0  0  0  0  0  0  0
   -2.1902   -2.9606    0.4558 C   0  0  0  0  0  0  0  0  0  0  0  0
   -2.4916   -4.3087    0.7251 C   0  0  0  0  0  0  0  0  0  0  0  0
   -1.6688   -5.0077    0.9282 H   0  0  0  0  0  0  0  0  0  0  0  0
   -3.8197   -4.7446    0.7306 C   0  0  0  0  0  0  0  0  0  0  0  0
   -4.0563   -5.7983    0.9402 H   0  0  0  0  0  0  0  0  0  0  0  0
   -4.8458   -3.8205    0.4656 C   0  0  0  0  0  0  0  0  0  0  0  0
   -5.9031   -4.1196    0.4606 H   0  0  0  0  0  0  0  0  0  0  0  0
   -4.5053   -2.4920    0.2046 C   0  0  0  0  0  0  0  0  0  0  0  0
   -5.2493   -1.7080   -0.0053 H   0  0  0  0  0  0  0  0  0  0  0  0
    4.2688   -0.7876   -0.0898 C   0  0  0  0  0  0  0  0  0  0  0  0
    5.3797   -0.5853    0.7850 C   0  0  0  0  0  0  0  0  0  0  0  0
    6.5932   -1.2502    0.5428 C   0  0  0  0  0  0  0  0  0  0  0  0
    7.4346   -1.0925    1.2383 H   0  0  0  0  0  0  0  0  0  0  0  0
    6.7703   -2.0982   -0.5664 C   0  0  0  0  0  0  0  0  0  0  0  0
    5.6823   -2.2701   -1.4375 C   0  0  0  0  0  0  0  0  0  0  0  0
    5.8051   -2.9099   -2.3275 H   0  0  0  0  0  0  0  0  0  0  0  0
    4.4397   -1.6469   -1.2142 C   0  0  0  0  0  0  0  0  0  0  0  0
    5.2819    0.3328    1.9828 C   0  0  0  0  0  0  0  0  0  0  0  0
    6.2017    0.2866    2.5974 H   0  0  0  0  0  0  0  0  0  0  0  0
    4.4255    0.0744    2.6384 H   0  0  0  0  0  0  0  0  0  0  0  0
    5.1265    1.3859    1.6723 H   0  0  0  0  0  0  0  0  0  0  0  0
    8.0834   -2.8018   -0.7985 C   0  0  0  0  0  0  0  0  0  0  0  0
    8.9426   -2.1111   -0.6751 H   0  0  0  0  0  0  0  0  0  0  0  0
    8.1385   -3.2430   -1.8127 H   0  0  0  0  0  0  0  0  0  0  0  0
    8.2296   -3.6263   -0.0678 H   0  0  0  0  0  0  0  0  0  0  0  0
    3.3326   -1.8914   -2.2183 C   0  0  0  0  0  0  0  0  0  0  0  0
    2.6642   -2.7149   -1.8918 H   0  0  0  0  0  0  0  0  0  0  0  0
    3.7502   -2.1724   -3.2053 H   0  0  0  0  0  0  0  0  0  0  0  0
    2.6804   -1.0083   -2.3608 H   0  0  0  0  0  0  0  0  0  0  0  0
    2.7698    1.4984    0.3703 C   0  0  0  0  0  0  0  0  0  0  0  0
    3.2752    2.3856   -0.6287 C   0  0  0  0  0  0  0  0  0  0  0  0
    3.0222    3.7654   -0.5325 C   0  0  0  0  0  0  0  0  0  0  0  0
    3.4013    4.4316   -1.3254 H   0  0  0  0  0  0  0  0  0  0  0  0
    2.3082    4.3214    0.5444 C   0  0  0  0  0  0  0  0  0  0  0  0
    1.8620    3.4489    1.5510 C   0  0  0  0  0  0  0  0  0  0  0  0
    1.3329    3.8633    2.4259 H   0  0  0  0  0  0  0  0  0  0  0  0
    2.0694    2.0590    1.4785 C   0  0  0  0  0  0  0  0  0  0  0  0
    1.5451    1.2118    2.6188 C   0  0  0  0  0  0  0  0  0  0  0  0
    0.4609    1.0057    2.4974 H   0  0  0  0  0  0  0  0  0  0  0  0
    1.6766    1.7349    3.5875 H   0  0  0  0  0  0  0  0  0  0  0  0
    2.0461    0.2284    2.6894 H   0  0  0  0  0  0  0  0  0  0  0  0
    2.0123    5.7987    0.6036 C   0  0  0  0  0  0  0  0  0  0  0  0
    2.7934    6.3949    0.0914 H   0  0  0  0  0  0  0  0  0  0  0  0
    1.9286    6.1590    1.6482 H   0  0  0  0  0  0  0  0  0  0  0  0
    1.0468    6.0297    0.1017 H   0  0  0  0  0  0  0  0  0  0  0  0
    4.0689    1.8813   -1.8133 C   0  0  0  0  0  0  0  0  0  0  0  0
    4.3200    2.7094   -2.5040 H   0  0  0  0  0  0  0  0  0  0  0  0
    3.5132    1.1177   -2.3945 H   0  0  0  0  0  0  0  0  0  0  0  0
    5.0141    1.3988   -1.4935 H   0  0  0  0  0  0  0  0  0  0  0  0
  1  6  1  0  0  0  0
  1 41  1  0  0  0  0
  2 19  1  0  0  0  0
  2 12  1  0  0  0  0
  3 11  1  0  0  0  0
  4  3  1  0  0  0  0
  4  6  2  0  0  0  0
  5  4  1  0  0  0  0
  6  7  1  0  0  0  0
  7  9  2  0  0  0  0
  7  8  1  0  0  0  0
  9 10  1  0  0  0  0
 11 12  2  0  0  0  0
 11  9  1  0  0  0  0
 12 13  1  0  0  0  0
 13 15  2  0  0  0  0
 13 14  1  0  0  0  0
 15 16  1  0  0  0  0
 17 15  1  0  0  0  0
 18 17  1  0  0  0  0
 19 17  2  0  0  0  0
 20 19  1  0  0  0  0
 21  1  1  0  0  0  0
 21 22  1  0  0  0  0
 22 29  1  0  0  0  0
 23 22  2  0  0  0  0
 23 24  1  0  0  0  0
 25 23  1  0  0  0  0
 26 28  1  0  0  0  0
 26 25  2  0  0  0  0
 27 26  1  0  0  0  0
 28 21  2  0  0  0  0
 29 30  1  0  0  0  0
 29 31  1  0  0  0  0
 32 29  1  0  0  0  0
 33 34  1  0  0  0  0
 33 25  1  0  0  0  0
 33 36  1  0  0  0  0
 35 33  1  0  0  0  0
 37 38  1  0  0  0  0
 37 28  1  0  0  0  0
 39 37  1  0  0  0  0
 40 37  1  0  0  0  0
 41 48  1  0  0  0  0
 42 43  1  0  0  0  0
 42 41  2  0  0  0  0
 43 45  2  0  0  0  0
 44 43  1  0  0  0  0
 45 53  1  0  0  0  0
 45 46  1  0  0  0  0
 46 47  1  0  0  0  0
 48 46  2  0  0  0  0
 48 49  1  0  0  0  0
 49 52  1  0  0  0  0
 49 51  1  0  0  0  0
 50 49  1  0  0  0  0
 53 55  1  0  0  0  0
 54 53  1  0  0  0  0
 56 53  1  0  0  0  0
 57 60  1  0  0  0  0
 57 42  1  0  0  0  0
 58 57  1  0  0  0  0
 59 57  1  0  0  0  0
M  END
