1,13
q = -1.0

 60 63  0  0  0  0  0  0  0  0999 V2000
    0.8373   -0.7303    0.0226 N   0  0  0  0  0  2  0  0  0  0  0  0
    4.6710   -5.3350    0.5919 F   0  0  0  0  0  0  0  0  0  0  0  0
    2.0294   -4.8405    0.6444 F   0  0  0  0  0  0  0  0  0  0  0  0
   -0.3900   -0.1784   -0.0147 C   0  0  0  0  0  0  0  0  0  0  0  0
   -0.4039    0.9060   -0.2068 H   0  0  0  0  0  0  0  0  0  0  0  0
   -1.5745   -0.9107    0.1883 C   0  0  0  0  0  0  0  0  0  0  0  0
   -1.4177   -2.2985    0.4327 C   0  0  0  0  0  0  0  0  0  0  0  0
   -2.3108   -2.9191    0.6078 H   0  0  0  0  0  0  0  0  0  0  0  0
   -0.1494   -2.8809    0.4648 C   0  0  0  0  0  0  0  0  0  0  0  0
   -0.0185   -3.9519    0.6578 H   0  0  0  0  0  0  0  0  0  0  0  0
    0.9970   -2.0845    0.2543 C   0  0  0  0  0  0  0  0  0  0  0  0
    2.3952   -2.4905    0.2529 C   0  0  0  0  0  0  0  0  0  0  0  0
    3.3331   -1.4227    0.0375 C   0  0  0  0  0  2  0  0  0  0  0  0
    4.7089   -1.7176    0.0171 C   0  0  0  0  0  0  0  0  0  0  0  0
    5.4281   -0.9013   -0.1445 H   0  0  0  0  0  0  0  0  0  0  0  0
    5.1632   -3.0320    0.2027 C   0  0  0  0  0  0  0  0  0  0  0  0
    6.2349   -3.2823    0.1897 H   0  0  0  0  0  0  0  0  0  0  0  0
    4.2472   -4.0711    0.4128 C   0  0  0  0  0  0  0  0  0  0  0  0
    2.8714   -3.8062    0.4390 C   0  0  0  0  0  0  0  0  0  0  0  0
   -2.9558    1.3966    0.3613 C   0  0  0  0  0  0  0  0  0  0  0  0
   -2.2915    2.0045    1.4665 C   0  0  0  0  0  0  0  0  0  0  0  0
   -1.6589    1.2005    2.5835 C   0  0  0  0  0  0  0  0  0  0  0  0
   -0.5532    1.1691    2.4791 H   0  0  0  0  0  0  0  0  0  0  0  0
   -2.0110    0.1530    2.6164 H   0  0  0  0  0  0  0  0  0  0  0  0
   -1.8761    1.6629    3.5675 H   0  0  0  0  0  0  0  0  0  0  0  0
   -2.2334    3.4076    1.5684 C   0  0  0  0  0  0  0  0  0  0  0  0
   -1.7334    3.8573    2.4428 H   0  0  0  0  0  0  0  0  0  0  0  0
   -2.7960    4.2485    0.5953 C   0  0  0  0  0  0  0  0  0  0  0  0
   -3.4666    3.6424   -0.4838 C   0  0  0  0  0  0  0  0  0  0  0  0
   -3.9306    4.2814   -1.2535 H   0  0  0  0  0  0  0  0  0  0  0  0
   -3.5730    2.2475   -0.6090 C   0  0  0  0  0  0  0  0  0  0  0  0
   -4.3340    1.6879   -1.7900 C   0  0  0  0  0  0  0  0  0  0  0  0
   -4.6663    2.4984   -2.4669 H   0  0  0  0  0  0  0  0  0  0  0  0
   -5.2295    1.1216   -1.4642 H   0  0  0  0  0  0  0  0  0  0  0  0
   -3.7219    0.9826   -2.3878 H   0  0  0  0  0  0  0  0  0  0  0  0
   -2.6712    5.7478    0.6856 C   0  0  0  0  0  0  0  0  0  0  0  0
   -2.4485    6.0801    1.7184 H   0  0  0  0  0  0  0  0  0  0  0  0
   -3.5961    6.2568    0.3476 H   0  0  0  0  0  0  0  0  0  0  0  0
   -1.8467    6.1152    0.0360 H   0  0  0  0  0  0  0  0  0  0  0  0
   -4.2668   -1.0031   -0.1004 C   0  0  0  0  0  0  0  0  0  0  0  0
   -4.3876   -1.8693   -1.2257 C   0  0  0  0  0  0  0  0  0  0  0  0
   -3.2994   -1.9974   -2.2720 C   0  0  0  0  0  0  0  0  0  0  0  0
   -3.7373   -2.1844   -3.2726 H   0  0  0  0  0  0  0  0  0  0  0  0
   -2.6188   -2.8469   -2.0522 H   0  0  0  0  0  0  0  0  0  0  0  0
   -2.6618   -1.0960   -2.3435 H   0  0  0  0  0  0  0  0  0  0  0  0
   -5.5698   -2.6098   -1.4169 C   0  0  0  0  0  0  0  0  0  0  0  0
   -5.6571   -3.2544   -2.3074 H   0  0  0  0  0  0  0  0  0  0  0  0
   -6.6429   -2.5461   -0.5139 C   0  0  0  0  0  0  0  0  0  0  0  0
   -6.5170   -1.6863    0.5940 C   0  0  0  0  0  0  0  0  0  0  0  0
   -7.3496   -1.6124    1.3134 H   0  0  0  0  0  0  0  0  0  0  0  0
   -5.3677   -0.9083    0.8064 C   0  0  0  0  0  0  0  0  0  0  0  0
   -5.3260    0.0122    2.0057 C   0  0  0  0  0  0  0  0  0  0  0  0
   -6.2176   -0.1283    2.6467 H   0  0  0  0  0  0  0  0  0  0  0  0
   -5.2884    1.0764    1.6965 H   0  0  0  0  0  0  0  0  0  0  0  0
   -4.4292   -0.1593    2.6351 H   0  0  0  0  0  0  0  0  0  0  0  0
   -7.8895   -3.3699   -0.7121 C   0  0  0  0  0  0  0  0  0  0  0  0
   -7.9552   -4.1814    0.0439 H   0  0  0  0  0  0  0  0  0  0  0  0
   -7.9142   -3.8429   -1.7129 H   0  0  0  0  0  0  0  0  0  0  0  0
   -8.8052   -2.7542   -0.5981 H   0  0  0  0  0  0  0  0  0  0  0  0
   -2.9580   -0.1675    0.1544 B   0  0  0  0  0  0  0  0  0  0  0  0
  1 11  1  0  0  0  0
  4  1  1  0  0  0  0
  4  6  2  0  0  0  0
  5  4  1  0  0  0  0
  6  7  1  0  0  0  0
  7  9  2  0  0  0  0
  7  8  1  0  0  0  0
  9 10  1  0  0  0  0
 11  9  1  0  0  0  0
 12 11  2  0  0  0  0
 12 19  1  0  0  0  0
 13 12  1  0  0  0  0
 14 13  1  0  0  0  0
 14 16  2  0  0  0  0
 15 14  1  0  0  0  0
 16 18  1  0  0  0  0
 17 16  1  0  0  0  0
 18 19  2  0  0  0  0
 18  2  1  0  0  0  0
 19  3  1  0  0  0  0
 20 21  1  0  0  0  0
 21 26  2  0  0  0  0
 21 22  1  0  0  0  0
 22 24  1  0  0  0  0
 22 25  1  0  0  0  0
 23 22  1  0  0  0  0
 26 27  1  0  0  0  0
 28 36  1  0  0  0  0
 28 26  1  0  0  0  0
 29 28  2  0  0  0  0
 30 29  1  0  0  0  0
 31 29  1  0  0  0  0
 31 20  2  0  0  0  0
 32 34  1  0  0  0  0
 32 31  1  0  0  0  0
 33 32  1  0  0  0  0
 35 32  1  0  0  0  0
 36 37  1  0  0  0  0
 38 36  1  0  0  0  0
 39 36  1  0  0  0  0
 40 60  1  0  0  0  0
 40 51  1  0  0  0  0
 41 40  2  0  0  0  0
 42 44  1  0  0  0  0
 42 41  1  0  0  0  0
 43 42  1  0  0  0  0
 45 42  1  0  0  0  0
 46 41  1  0  0  0  0
 46 48  2  0  0  0  0
 47 46  1  0  0  0  0
 48 49  1  0  0  0  0
 49 51  2  0  0  0  0
 49 50  1  0  0  0  0
 51 52  1  0  0  0  0
 52 55  1  0  0  0  0
 52 53  1  0  0  0  0
 54 52  1  0  0  0  0
 56 59  1  0  0  0  0
 56 48  1  0  0  0  0
 56 57  1  0  0  0  0
 58 56  1  0  0  0  0
 60  6  1  0  0  0  0
 60 20  1  0  0  0  0
M  END
