2,3
q = 0.0, confidence = 0.972

 63 67  0  0  1  0  0  0  0  0999 V2000
    0.6698   -1.8325   -1.5335 O   0  0  0  0  0  0  0  0  0  0  0  0
   -0.0965    0.1415   -0.7997 N   0  0  0  0  0  2  0  0  0  0  0  0
   -0.7814    2.7596   -2.0802 C   0  0  0  0  0  3  0  0  0  0  0  0
   -0.8773    3.8542   -1.9891 H   0  0  0  0  0  0  0  0  0  0  0  0
   -0.0696    2.4119   -2.8518 H   0  0  0  0  0  0  0  0  0  0  0  0
   -1.8527    1.9129   -1.6864 C   0  0  0  0  0  3  0  0  0  0  0  0
   -2.7899    2.3581   -1.3082 H   0  0  0  0  0  0  0  0  0  0  0  0
   -1.9570    0.5051   -2.2778 C   0  0  0  0  0  0  0  0  0  0  0  0
   -1.4018    0.4736   -3.2388 H   0  0  0  0  0  0  0  0  0  0  0  0
   -3.0086    0.2405   -2.4964 H   0  0  0  0  0  0  0  0  0  0  0  0
   -1.3171   -0.5317   -1.3327 C   0  0  1  0  0  0  0  0  0  0  0  0
   -0.7044   -1.7834   -2.0078 C   0  0  0  0  0  0  0  0  0  0  0  0
   -1.1800   -2.7362   -1.7137 H   0  0  0  0  0  0  0  0  0  0  0  0
   -0.6774   -1.6980   -3.1141 H   0  0  0  0  0  0  0  0  0  0  0  0
    0.9139   -0.6681   -0.8996 C   0  0  2  0  0  3  0  0  0  0  0  0
    2.3030   -0.3739   -0.4122 C   0  0  0  0  0  0  0  0  0  0  0  0
    2.1888    0.6017    0.1008 H   0  0  0  0  0  0  0  0  0  0  0  0
    3.2265   -0.1550   -1.6184 C   0  0  0  0  0  0  0  0  0  0  0  0
    4.2582   -1.0419   -1.9684 C   0  0  0  0  0  0  0  0  0  0  0  0
    4.4449   -1.9322   -1.3506 H   0  0  0  0  0  0  0  0  0  0  0  0
    5.0569   -0.7895   -3.0963 C   0  0  0  0  0  0  0  0  0  0  0  0
    5.8639   -1.4910   -3.3582 H   0  0  0  0  0  0  0  0  0  0  0  0
    4.8332    0.3496   -3.8835 C   0  0  0  0  0  0  0  0  0  0  0  0
    5.4617    0.5452   -4.7658 H   0  0  0  0  0  0  0  0  0  0  0  0
    3.8066    1.2433   -3.5346 C   0  0  0  0  0  0  0  0  0  0  0  0
    3.6291    2.1457   -4.1396 H   0  0  0  0  0  0  0  0  0  0  0  0
    3.0097    0.9928   -2.4095 C   0  0  0  0  0  0  0  0  0  0  0  0
    2.2071    1.6944   -2.1251 H   0  0  0  0  0  0  0  0  0  0  0  0
    2.7956   -1.3717    0.6270 C   0  0  0  0  0  0  0  0  0  0  0  0
    2.7249   -2.7674    0.4433 C   0  0  0  0  0  0  0  0  0  0  0  0
    2.2706   -3.1714   -0.4715 H   0  0  0  0  0  0  0  0  0  0  0  0
    3.1978   -3.6403    1.4347 C   0  0  0  0  0  0  0  0  0  0  0  0
    3.1239   -4.7274    1.2797 H   0  0  0  0  0  0  0  0  0  0  0  0
    3.7495   -3.1353    2.6221 C   0  0  0  0  0  0  0  0  0  0  0  0
    4.1166   -3.8227    3.3995 H   0  0  0  0  0  0  0  0  0  0  0  0
    3.8252   -1.7464    2.8133 C   0  0  0  0  0  0  0  0  0  0  0  0
    4.2523   -1.3375    3.7420 H   0  0  0  0  0  0  0  0  0  0  0  0
    3.3508   -0.8751    1.8222 C   0  0  0  0  0  0  0  0  0  0  0  0
    3.3983    0.2134    1.9753 H   0  0  0  0  0  0  0  0  0  0  0  0
   -2.2473   -0.8539   -0.1029 C   0  0  0  0  0  0  0  0  0  0  0  0
   -2.2628    0.1134    0.4469 H   0  0  0  0  0  0  0  0  0  0  0  0
   -3.6855   -1.1820   -0.4653 C   0  0  0  0  0  0  0  0  0  0  0  0
   -4.7153   -0.6789    0.3563 C   0  0  0  0  0  0  0  0  0  0  0  0
   -4.4473   -0.0418    1.2138 H   0  0  0  0  0  0  0  0  0  0  0  0
   -6.0614   -0.9761    0.1012 C   0  0  0  0  0  0  0  0  0  0  0  0
   -6.8445   -0.5680    0.7584 H   0  0  0  0  0  0  0  0  0  0  0  0
   -6.4097   -1.7858   -0.9911 C   0  0  0  0  0  0  0  0  0  0  0  0
   -7.4654   -2.0187   -1.1967 H   0  0  0  0  0  0  0  0  0  0  0  0
   -5.3991   -2.2911   -1.8224 C   0  0  0  0  0  0  0  0  0  0  0  0
   -5.6585   -2.9229   -2.6856 H   0  0  0  0  0  0  0  0  0  0  0  0
   -4.0523   -1.9934   -1.5604 C   0  0  0  0  0  0  0  0  0  0  0  0
   -3.2833   -2.3976   -2.2352 H   0  0  0  0  0  0  0  0  0  0  0  0
   -1.6220   -1.8877    0.8320 C   0  0  0  0  0  0  0  0  0  0  0  0
   -1.9745   -3.2527    0.7789 C   0  0  0  0  0  0  0  0  0  0  0  0
   -2.7731   -3.5837    0.0977 H   0  0  0  0  0  0  0  0  0  0  0  0
   -1.3391   -4.1936    1.6047 C   0  0  0  0  0  0  0  0  0  0  0  0
   -1.6314   -5.2535    1.5465 H   0  0  0  0  0  0  0  0  0  0  0  0
   -0.3428   -3.7850    2.5038 C   0  0  0  0  0  0  0  0  0  0  0  0
    0.1631   -4.5216    3.1463 H   0  0  0  0  0  0  0  0  0  0  0  0
    0.0035   -2.4274    2.5784 C   0  0  0  0  0  0  0  0  0  0  0  0
    0.7921   -2.0958    3.2710 H   0  0  0  0  0  0  0  0  0  0  0  0
   -0.6315   -1.4862    1.7558 C   0  0  0  0  0  0  0  0  0  0  0  0
   -0.3378   -0.4274    1.8178 H   0  0  0  0  0  0  0  0  0  0  0  0
  1 15  1  0  0  0  0
  3  4  1  0  0  0  0
  3  6  1  0  0  0  0
  5  3  1  0  0  0  0
  6  7  1  0  0  0  0
  8  6  1  0  0  0  0
  9  8  1  0  0  0  0
 10  8  1  0  0  0  0
 11  8  1  6  0  0  0
 11  2  1  0  0  0  0
 11 40  1  0  0  0  0
 12 13  1  0  0  0  0
 12  1  1  0  0  0  0
 12 11  1  0  0  0  0
 14 12  1  0  0  0  0
 15  2  1  0  0  0  0
 15 16  1  6  0  0  0
 16 17  1  0  0  0  0
 16 29  1  0  0  0  0
 18 16  1  0  0  0  0
 19 18  1  0  0  0  0
 19 20  1  0  0  0  0
 21 19  2  0  0  0  0
 22 21  1  0  0  0  0
 23 25  2  0  0  0  0
 23 21  1  0  0  0  0
 24 23  1  0  0  0  0
 25 27  1  0  0  0  0
 26 25  1  0  0  0  0
 27 28  1  0  0  0  0
 27 18  2  0  0  0  0
 29 38  1  0  0  0  0
 30 29  2  0  0  0  0
 30 32  1  0  0  0  0
 31 30  1  0  0  0  0
 32 34  2  0  0  0  0
 33 32  1  0  0  0  0
 34 36  1  0  0  0  0
 34 35  1  0  0  0  0
 36 37  1  0  0  0  0
 38 39  1  0  0  0  0
 38 36  2  0  0  0  0
 40 41  1  0  0  0  0
 40 53  1  0  0  0  0
 42 40  1  0  0  0  0
 42 43  1  0  0  0  0
 43 44  1  0  0  0  0
 45 43  2  0  0  0  0
 45 46  1  0  0  0  0
 47 45  1  0  0  0  0
 48 47  1  0  0  0  0
 49 51  1  0  0  0  0
 49 47  2  0  0  0  0
 50 49  1  0  0  0  0
 51 42  2  0  0  0  0
 52 51  1  0  0  0  0
 53 62  1  0  0  0  0
 54 53  2  0  0  0  0
 54 56  1  0  0  0  0
 55 54  1  0  0  0  0
 56 58  2  0  0  0  0
 57 56  1  0  0  0  0
 58 60  1  0  0  0  0
 58 59  1  0  0  0  0
 60 61  1  0  0  0  0
 62 63  1  0  0  0  0
 62 60  2  0  0  0  0
M  END
