5,7
q = -1.0

 34 35  0  0  0  0  0  0  0  0999 V2000
   -0.4817   -3.0591   -0.9168 O   0  0  0  0  0  0  0  0  0  0  0  0
   -1.2396   -2.8405    1.2129 O   0  0  0  0  0  0  0  0  0  0  0  0
   -4.4635   -0.2347   -0.0575 O   0  0  0  0  0  0  0  0  0  0  0  0
   -3.3360   -2.1227   -0.5892 O   0  0  0  0  0  0  0  0  0  0  0  0
    0.3133    0.9537    1.7268 N   0  0  0  0  0  2  0  0  0  0  0  0
   -0.7699    1.7779    1.7542 N   0  0  0  0  0  0  0  0  0  0  0  0
   -0.8826   -0.8617   -0.0212 C   0  0  0  0  0  2  0  0  0  0  0  0
   -2.0556   -0.1593   -0.1679 C   0  0  0  0  0  0  0  0  0  0  0  0
   -2.1145    1.3210   -0.2872 C   0  0  0  0  0  0  0  0  0  0  0  0
   -1.4700    2.2237    0.5921 C   0  0  0  0  0  0  0  0  0  0  0  0
    0.7739    0.8744    2.9883 C   0  0  0  0  0  3  0  0  0  0  0  0
    1.6128    0.1996    3.1939 H   0  0  0  0  0  0  0  0  0  0  0  0
   -0.0166    1.6685    3.8461 C   0  0  0  0  0  0  0  0  0  0  0  0
    0.0952    1.7960    4.9269 H   0  0  0  0  0  0  0  0  0  0  0  0
   -0.9897    2.2295    3.0268 C   0  0  0  0  0  0  0  0  0  0  0  0
   -1.8352    2.8920    3.2370 H   0  0  0  0  0  0  0  0  0  0  0  0
   -1.5722    3.6191    0.4238 C   0  0  0  0  0  0  0  0  0  0  0  0
   -1.0375    4.2774    1.1243 H   0  0  0  0  0  0  0  0  0  0  0  0
   -2.3395    4.1541   -0.6156 C   0  0  0  0  0  0  0  0  0  0  0  0
   -2.4174    5.2443   -0.7387 H   0  0  0  0  0  0  0  0  0  0  0  0
   -2.9983    3.2816   -1.4962 C   0  0  0  0  0  0  0  0  0  0  0  0
   -3.6076    3.6814   -2.3205 H   0  0  0  0  0  0  0  0  0  0  0  0
   -2.8816    1.8978   -1.3285 C   0  0  0  0  0  3  0  0  0  0  0  0
   -3.4108    1.2239   -2.0166 H   0  0  0  0  0  0  0  0  0  0  0  0
   -0.8641   -2.3576    0.0102 C   0  0  0  0  0  0  0  0  0  0  0  0
   -1.0263   -4.2427    1.3953 C   0  0  0  0  0  0  0  0  0  0  0  0
   -1.5576   -4.8316    0.6201 H   0  0  0  0  0  0  0  0  0  0  0  0
   -1.4149   -4.4838    2.4009 H   0  0  0  0  0  0  0  0  0  0  0  0
    0.0579   -4.4685    1.3393 H   0  0  0  0  0  0  0  0  0  0  0  0
   -3.4005   -0.8080   -0.2529 C   0  0  0  0  0  0  0  0  0  0  0  0
   -4.5730   -2.8324   -0.5571 C   0  0  0  0  0  0  0  0  0  0  0  0
   -4.9878   -2.8588    0.4717 H   0  0  0  0  0  0  0  0  0  0  0  0
   -4.3460   -3.8564   -0.9045 H   0  0  0  0  0  0  0  0  0  0  0  0
   -5.3232   -2.3537   -1.2185 H   0  0  0  0  0  0  0  0  0  0  0  0
  1 25  2  0  0  0  0
  2 26  1  0  0  0  0
  4 31  1  0  0  0  0
  4 30  1  0  0  0  0
  5  6  1  0  0  0  0
  5 11  1  0  0  0  0
  6 15  1  0  0  0  0
  7 25  1  0  0  0  0
  8  7  1  0  0  0  0
  9  8  2  0  0  0  0
  9 10  1  0  0  0  0
 10  6  1  0  0  0  0
 11 12  1  0  0  0  0
 11 13  1  0  0  0  0
 13 14  1  0  0  0  0
 15 16  1  0  0  0  0
 15 13  2  0  0  0  0
 17 10  2  0  0  0  0
 17 18  1  0  0  0  0
 19 17  1  0  0  0  0
 20 19  1  0  0  0  0
 21 23  1  0  0  0  0
 21 19  2  0  0  0  0
 22 21  1  0  0  0  0
 23  9  1  0  0  0  0
 24 23  1  0  0  0  0
 25  2  1  0  0  0  0
 26 28  1  0  0  0  0
 27 26  1  0  0  0  0
 29 26  1  0  0  0  0
 30  8  1  0  0  0  0
 30  3  2  0  0  0  0
 31 32  1  0  0  0  0
 33 31  1  0  0  0  0
 34 31  1  0  0  0  0
M  END
