2,3
q = -1.0

 24 24  0  0  0  0  0  0  0  0999 V2000
    3.6152    0.7894   -0.5754 O   0  0  0  0  0  0  0  0  0  0  0  0
    0.8648    0.5600   -1.4732 N   0  0  0  0  0  2  0  0  0  0  0  0
   -1.0991    1.5322   -0.0105 C   0  0  0  0  0  3  0  0  0  0  0  0
   -2.0777    2.0643    0.8396 C   0  0  0  0  0  0  0  0  0  0  0  0
   -2.5036    1.4606    1.6553 H   0  0  0  0  0  0  0  0  0  0  0  0
   -2.5278    3.3879    0.6639 C   0  0  0  0  0  0  0  0  0  0  0  0
   -3.3090    3.7843    1.3313 H   0  0  0  0  0  0  0  0  0  0  0  0
   -1.9926    4.2109   -0.3445 C   0  0  0  0  0  0  0  0  0  0  0  0
   -2.3575    5.2408   -0.4680 H   0  0  0  0  0  0  0  0  0  0  0  0
   -0.9822    3.7157   -1.1746 C   0  0  0  0  0  0  0  0  0  0  0  0
   -0.5300    4.3534   -1.9504 H   0  0  0  0  0  0  0  0  0  0  0  0
   -0.5333    2.3866   -1.0023 C   0  0  0  0  0  0  0  0  0  0  0  0
    0.5490    1.7949   -1.7478 C   0  0  0  0  0  3  0  0  0  0  0  0
    1.1207    2.3614   -2.5080 H   0  0  0  0  0  0  0  0  0  0  0  0
    2.0045   -0.0748   -2.1122 C   0  0  0  0  0  0  0  0  0  0  0  0
    2.4123    0.5890   -2.9048 H   0  0  0  0  0  0  0  0  0  0  0  0
    1.6742   -1.0179   -2.5940 H   0  0  0  0  0  0  0  0  0  0  0  0
    3.1156   -0.4079   -1.1232 C   0  0  0  0  0  0  0  0  0  0  0  0
    2.7211   -1.0828   -0.3219 H   0  0  0  0  0  0  0  0  0  0  0  0
    3.9138   -0.9686   -1.6693 H   0  0  0  0  0  0  0  0  0  0  0  0
    4.7800    0.5937    0.1971 C   0  0  0  0  0  0  0  0  0  0  0  0
    4.5940   -0.0691    1.0782 H   0  0  0  0  0  0  0  0  0  0  0  0
    5.1159    1.5850    0.5580 H   0  0  0  0  0  0  0  0  0  0  0  0
    5.6056    0.1384   -0.3993 H   0  0  0  0  0  0  0  0  0  0  0  0
  1 21  1  0  0  0  0
  3  4  1  0  0  0  0
  4  5  1  0  0  0  0
  6  4  2  0  0  0  0
  6  7  1  0  0  0  0
  8  6  1  0  0  0  0
  9  8  1  0  0  0  0
 10 12  1  0  0  0  0
 10  8  2  0  0  0  0
 11 10  1  0  0  0  0
 12  3  2  0  0  0  0
 13  2  1  0  0  0  0
 13 12  1  0  0  0  0
 14 13  1  0  0  0  0
 15  2  1  0  0  0  0
 15 18  1  0  0  0  0
 16 15  1  0  0  0  0
 17 15  1  0  0  0  0
 18  1  1  0  0  0  0
 18 19  1  0  0  0  0
 20 18  1  0  0  0  0
 21 23  1  0  0  0  0
 21 22  1  0  0  0  0
 24 21  1  0  0  0  0
M  END
