1,3
q = -1.0

 42 45  0  0  0  0  0  0  0  0999 V2000
   -1.0327    0.5041    1.5839 N   0  0  0  0  0  2  0  0  0  0  0  0
   -0.4630    1.7300    1.7342 N   0  0  0  0  0  0  0  0  0  0  0  0
    0.8831   -0.4837   -0.0592 C   0  0  0  0  0  3  0  0  0  0  0  0
    1.6562    0.6599   -0.0839 C   0  0  0  0  0  0  0  0  0  0  0  0
    1.0792    2.0243   -0.1820 C   0  0  0  0  0  0  0  0  0  0  0  0
    0.0342    2.5082    0.6470 C   0  0  0  0  0  0  0  0  0  0  0  0
   -1.4317    0.1098    2.8061 C   0  0  0  0  0  3  0  0  0  0  0  0
   -1.8770   -0.8867    2.9082 H   0  0  0  0  0  0  0  0  0  0  0  0
   -1.1225    1.1022    3.7627 C   0  0  0  0  0  0  0  0  0  0  0  0
   -1.3102    1.0687    4.8399 H   0  0  0  0  0  0  0  0  0  0  0  0
   -0.5059    2.1211    3.0449 C   0  0  0  0  0  0  0  0  0  0  0  0
   -0.0720    3.0789    3.3490 H   0  0  0  0  0  0  0  0  0  0  0  0
   -0.5046    3.7982    0.4842 C   0  0  0  0  0  0  0  0  0  0  0  0
   -1.3278    4.1163    1.1412 H   0  0  0  0  0  0  0  0  0  0  0  0
    0.0022    4.6573   -0.4984 C   0  0  0  0  0  0  0  0  0  0  0  0
   -0.4250    5.6627   -0.6256 H   0  0  0  0  0  0  0  0  0  0  0  0
    1.0640    4.2188   -1.3086 C   0  0  0  0  0  0  0  0  0  0  0  0
    1.4810    4.8836   -2.0801 H   0  0  0  0  0  0  0  0  0  0  0  0
    1.5919    2.9340   -1.1405 C   0  0  0  0  0  0  0  0  0  0  0  0
    2.4273    2.5969   -1.7720 H   0  0  0  0  0  0  0  0  0  0  0  0
    1.5465   -1.7941    0.1455 C   0  0  0  0  0  0  0  0  0  0  0  0
    1.4226   -2.8606   -0.7724 C   0  0  0  0  0  0  0  0  0  0  0  0
    0.7846   -2.7304   -1.6574 H   0  0  0  0  0  0  0  0  0  0  0  0
    2.0930   -4.0723   -0.5672 C   0  0  0  0  0  0  0  0  0  0  0  0
    1.9907   -4.8837   -1.3045 H   0  0  0  0  0  0  0  0  0  0  0  0
    2.8785   -4.2613    0.5818 C   0  0  0  0  0  0  0  0  0  0  0  0
    3.3960   -5.2182    0.7495 H   0  0  0  0  0  0  0  0  0  0  0  0
    2.9849   -3.2234    1.5210 C   0  0  0  0  0  0  0  0  0  0  0  0
    3.5860   -3.3635    2.4328 H   0  0  0  0  0  0  0  0  0  0  0  0
    2.3328   -2.0037    1.3023 C   0  0  0  0  0  0  0  0  0  0  0  0
    2.4228   -1.1880    2.0347 H   0  0  0  0  0  0  0  0  0  0  0  0
    3.1537    0.6383   -0.1158 C   0  0  0  0  0  0  0  0  0  0  0  0
    3.8726   -0.1941   -1.0033 C   0  0  0  0  0  0  0  0  0  0  0  0
    3.3172   -0.8594   -1.6796 H   0  0  0  0  0  0  0  0  0  0  0  0
    5.2735   -0.1878   -1.0227 C   0  0  0  0  0  0  0  0  0  0  0  0
    5.8101   -0.8470   -1.7224 H   0  0  0  0  0  0  0  0  0  0  0  0
    5.9920    0.6540   -0.1579 C   0  0  0  0  0  0  0  0  0  0  0  0
    7.0925    0.6558   -0.1717 H   0  0  0  0  0  0  0  0  0  0  0  0
    5.2933    1.4968    0.7213 C   0  0  0  0  0  0  0  0  0  0  0  0
    5.8450    2.1619    1.4037 H   0  0  0  0  0  0  0  0  0  0  0  0
    3.8915    1.4924    0.7362 C   0  0  0  0  0  0  0  0  0  0  0  0
    3.3486    2.1547    1.4287 H   0  0  0  0  0  0  0  0  0  0  0  0
  1  2  1  0  0  0  0
  1  7  1  0  0  0  0
  2 11  1  0  0  0  0
  3 21  1  0  0  0  0
  4  3  2  0  0  0  0
  5  4  1  0  0  0  0
  5  6  1  0  0  0  0
  6  2  1  0  0  0  0
  7  8  1  0  0  0  0
  7  9  1  0  0  0  0
  9 10  1  0  0  0  0
 11 12  1  0  0  0  0
 11  9  2  0  0  0  0
 13  6  2  0  0  0  0
 13 14  1  0  0  0  0
 15 13  1  0  0  0  0
 16 15  1  0  0  0  0
 17 19  1  0  0  0  0
 17 15  2  0  0  0  0
 18 17  1  0  0  0  0
 19  5  2  0  0  0  0
 20 19  1  0  0  0  0
 21 30  1  0  0  0  0
 22 24  1  0  0  0  0
 22 21  2  0  0  0  0
 23 22  1  0  0  0  0
 24 26  2  0  0  0  0
 25 24  1  0  0  0  0
 26 27  1  0  0  0  0
 26 28  1  0  0  0  0
 28 29  1  0  0  0  0
 30 28  2  0  0  0  0
 30 31  1  0  0  0  0
 32  4  1  0  0  0  0
 32 41  1  0  0  0  0
 33 32  2  0  0  0  0
 34 33  1  0  0  0  0
 35 33  1  0  0  0  0
 35 37  2  0  0  0  0
 36 35  1  0  0  0  0
 37 39  1  0  0  0  0
 38 37  1  0  0  0  0
 39 41  2  0  0  0  0
 39 40  1  0  0  0  0
 41 42  1  0  0  0  0
M  END
