1,18
q = -1.0

 35 36  0  0  0  0  0  0  0  0999 V2000
    0.7778   -0.4082   -0.6121 N   0  0  0  0  0  2  0  0  0  0  0  0
    1.6997   -1.3609   -0.8540 C   0  0  0  0  0  3  0  0  0  0  0  0
    1.2832   -2.3260   -1.1944 H   0  0  0  0  0  0  0  0  0  0  0  0
    3.0630   -1.1350   -0.6727 C   0  0  0  0  0  0  0  0  0  0  0  0
    3.7649   -1.9520   -0.8906 H   0  0  0  0  0  0  0  0  0  0  0  0
    3.5174    0.1255   -0.2189 C   0  0  0  0  0  0  0  0  0  0  0  0
    2.5377    1.0999    0.0198 C   0  0  0  0  0  0  0  0  0  0  0  0
    2.8221    2.0994    0.3684 H   0  0  0  0  0  0  0  0  0  0  0  0
    1.1682    0.8288   -0.1852 C   0  0  0  0  0  0  0  0  0  0  0  0
    0.0748    1.7857    0.0065 C   0  0  0  0  0  0  0  0  0  0  0  0
    0.2772    3.1175    0.4328 C   0  0  0  0  0  0  0  0  0  0  0  0
    1.2916    3.4793    0.6623 H   0  0  0  0  0  0  0  0  0  0  0  0
   -0.8011    3.9932    0.5686 C   0  0  0  0  0  0  0  0  0  0  0  0
   -0.6282    5.0281    0.9028 H   0  0  0  0  0  0  0  0  0  0  0  0
   -2.1142    3.5628    0.2708 C   0  0  0  0  0  0  0  0  0  0  0  0
   -2.3073    2.2292   -0.1449 C   0  0  0  0  0  0  0  0  0  0  0  0
   -3.3358    1.9024   -0.3686 H   0  0  0  0  0  0  0  0  0  0  0  0
   -1.2440    1.3113   -0.2764 C   0  0  0  0  0  3  0  0  0  0  0  0
    5.0165    0.3812   -0.0120 C   0  0  0  0  0  0  0  0  0  0  0  0
    5.5523   -0.6195    1.0377 C   0  0  0  0  0  0  0  0  0  0  0  0
    5.0377   -0.4881    2.0109 H   0  0  0  0  0  0  0  0  0  0  0  0
    6.6383   -0.4601    1.1978 H   0  0  0  0  0  0  0  0  0  0  0  0
    5.4097   -1.6704    0.7175 H   0  0  0  0  0  0  0  0  0  0  0  0
    5.7492    0.1668   -1.3565 C   0  0  0  0  0  0  0  0  0  0  0  0
    5.6133   -0.8627   -1.7422 H   0  0  0  0  0  0  0  0  0  0  0  0
    6.8377    0.3385   -1.2295 H   0  0  0  0  0  0  0  0  0  0  0  0
    5.3769    0.8699   -2.1285 H   0  0  0  0  0  0  0  0  0  0  0  0
    5.2999    1.8102    0.4806 C   0  0  0  0  0  0  0  0  0  0  0  0
    4.9552    2.5733   -0.2458 H   0  0  0  0  0  0  0  0  0  0  0  0
    6.3909    1.9494    0.6162 H   0  0  0  0  0  0  0  0  0  0  0  0
    4.8147    2.0147    1.4563 H   0  0  0  0  0  0  0  0  0  0  0  0
   -3.2745    4.5194    0.3726 C   0  0  0  0  0  0  0  0  0  0  0  0
   -3.2708    5.2374   -0.4757 H   0  0  0  0  0  0  0  0  0  0  0  0
   -3.2257    5.1235    1.3016 H   0  0  0  0  0  0  0  0  0  0  0  0
   -4.2462    3.9888    0.3525 H   0  0  0  0  0  0  0  0  0  0  0  0
  1  9  1  0  0  0  0
  2  4  1  0  0  0  0
  2  1  1  0  0  0  0
  3  2  1  0  0  0  0
  4  6  2  0  0  0  0
  5  4  1  0  0  0  0
  6 19  1  0  0  0  0
  6  7  1  0  0  0  0
  7  8  1  0  0  0  0
  9 10  1  0  0  0  0
  9  7  2  0  0  0  0
 10 11  1  0  0  0  0
 11 13  2  0  0  0  0
 11 12  1  0  0  0  0
 13 14  1  0  0  0  0
 15 32  1  0  0  0  0
 15 13  1  0  0  0  0
 16 15  2  0  0  0  0
 17 16  1  0  0  0  0
 18 16  1  0  0  0  0
 18 10  2  0  0  0  0
 19 28  1  0  0  0  0
 19 20  1  0  0  0  0
 20 22  1  0  0  0  0
 20 21  1  0  0  0  0
 23 20  1  0  0  0  0
 24 26  1  0  0  0  0
 24 19  1  0  0  0  0
 25 24  1  0  0  0  0
 27 24  1  0  0  0  0
 28 30  1  0  0  0  0
 28 31  1  0  0  0  0
 29 28  1  0  0  0  0
 32 34  1  0  0  0  0
 33 32  1  0  0  0  0
 35 32  1  0  0  0  0
M  END
