1,18
q = -1.0

 26 28  0  0  1  0  0  0  0  0999 V2000
    2.0037   -0.5405   -0.2041 N   0  0  0  0  0  2  0  0  0  0  0  0
    3.0636    0.1502    0.3554 C   0  0  2  0  0  3  0  0  0  0  0  0
    2.9044    1.4901    0.8040 C   0  0  0  0  0  0  0  0  0  0  0  0
    1.9238    1.9697    0.7006 H   0  0  0  0  0  0  0  0  0  0  0  0
    3.9762    2.1746    1.3642 C   0  0  0  0  0  0  0  0  0  0  0  0
    3.8330    3.2148    1.6946 H   0  0  0  0  0  0  0  0  0  0  0  0
    5.2454    1.5601    1.5084 C   0  0  0  0  0  0  0  0  0  0  0  0
    6.0796    2.1157    1.9620 H   0  0  0  0  0  0  0  0  0  0  0  0
    5.4314    0.2606    1.0585 C   0  0  0  0  0  0  0  0  0  0  0  0
    6.4138   -0.2298    1.1415 H   0  0  0  0  0  0  0  0  0  0  0  0
    4.3625   -0.4646    0.4637 C   0  0  0  0  0  0  0  0  0  0  0  0
    4.5297   -1.7818   -0.0528 C   0  0  0  0  0  0  0  0  0  0  0  0
    5.5089   -2.2767    0.0395 H   0  0  0  0  0  0  0  0  0  0  0  0
    3.4767   -2.4061   -0.6845 C   0  0  0  0  0  0  0  0  0  0  0  0
    3.5949   -3.4059   -1.1223 H   0  0  0  0  0  0  0  0  0  0  0  0
    2.2093   -1.7622   -0.7763 C   0  0  0  0  0  0  0  0  0  0  0  0
    1.0713   -2.2949   -1.5134 C   0  0  0  0  0  0  0  0  0  0  0  0
   -0.0934   -1.4648   -1.4868 C   0  0  0  0  0  3  0  0  0  0  0  0
   -1.1911   -1.8385   -2.2933 C   0  0  0  0  0  0  0  0  0  0  0  0
   -2.0923   -1.2072   -2.3132 H   0  0  0  0  0  0  0  0  0  0  0  0
   -1.1510   -3.0122   -3.0579 C   0  0  0  0  0  0  0  0  0  0  0  0
   -2.0197   -3.2887   -3.6766 H   0  0  0  0  0  0  0  0  0  0  0  0
   -0.0131   -3.8458   -3.0431 C   0  0  0  0  0  0  0  0  0  0  0  0
    0.0051   -4.7691   -3.6411 H   0  0  0  0  0  0  0  0  0  0  0  0
    1.0975   -3.4851   -2.2764 C   0  0  0  0  0  0  0  0  0  0  0  0
    1.9918   -4.1275   -2.2825 H   0  0  0  0  0  0  0  0  0  0  0  0
  2  1  1  6  0  0  0
  2 11  1  0  0  0  0
  2  3  1  0  0  0  0
  3  5  2  0  0  0  0
  4  3  1  0  0  0  0
  5  7  1  0  0  0  0
  5  6  1  0  0  0  0
  7  8  1  0  0  0  0
  9 10  1  0  0  0  0
  9  7  2  0  0  0  0
 11  9  1  0  0  0  0
 12 13  1  0  0  0  0
 12 11  2  0  0  0  0
 14 12  1  0  0  0  0
 15 14  1  0  0  0  0
 16 14  2  0  0  0  0
 16  1  1  0  0  0  0
 17 18  1  0  0  0  0
 17 16  1  0  0  0  0
 19 18  2  0  0  0  0
 20 19  1  0  0  0  0
 21 23  2  0  0  0  0
 21 19  1  0  0  0  0
 22 21  1  0  0  0  0
 23 25  1  0  0  0  0
 24 23  1  0  0  0  0
 25 17  2  0  0  0  0
 26 25  1  0  0  0  0
M  END
