1,20
q = 0.0, confidence = 0.998

 57 60  0  0  1  0  0  0  0  0999 V2000
    0.6404   -1.1371    0.9378 N   0  0  0  0  0  2  0  0  0  0  0  0
   -1.3541    0.1117   -0.4807 N   0  0  0  0  0  0  0  0  0  0  0  0
   -0.2789    1.9037   -1.1016 N   0  0  0  0  0  0  0  0  0  0  0  0
   -0.6583   -1.8179    0.9254 C   0  0  2  0  0  0  0  0  0  0  0  0
   -1.2166   -1.5434    1.8525 H   0  0  0  0  0  0  0  0  0  0  0  0
   -0.5049   -3.3455    0.8603 C   0  0  0  0  0  0  0  0  0  0  0  0
    0.1188   -3.5895   -0.0267 H   0  0  0  0  0  0  0  0  0  0  0  0
    0.0664   -3.6896    1.7461 H   0  0  0  0  0  0  0  0  0  0  0  0
   -1.8803   -4.0226    0.7929 C   0  0  0  0  0  0  0  0  0  0  0  0
   -1.7503   -5.1198    0.6960 H   0  0  0  0  0  0  0  0  0  0  0  0
   -2.4180   -3.8565    1.7537 H   0  0  0  0  0  0  0  0  0  0  0  0
   -2.7406   -3.4852   -0.3601 C   0  0  0  0  0  0  0  0  0  0  0  0
   -2.2767   -3.7702   -1.3295 H   0  0  0  0  0  0  0  0  0  0  0  0
   -3.7458   -3.9533   -0.3412 H   0  0  0  0  0  0  0  0  0  0  0  0
   -2.8800   -1.9555   -0.2982 C   0  0  0  0  0  0  0  0  0  0  0  0
   -3.4570   -1.5720   -1.1639 H   0  0  0  0  0  0  0  0  0  0  0  0
   -3.4431   -1.6668    0.6118 H   0  0  0  0  0  0  0  0  0  0  0  0
   -1.4795   -1.3473   -0.3012 C   0  0  1  0  0  0  0  0  0  0  0  0
   -0.9452   -1.7578   -1.1868 H   0  0  0  0  0  0  0  0  0  0  0  0
   -0.1374    0.5660   -0.9260 C   0  0  0  0  0  2  0  0  0  0  0  0
   -2.2584    1.1743   -0.3501 C   0  0  0  0  0  0  0  0  0  0  0  0
   -1.5656    2.2965   -0.7586 C   0  0  0  0  0  0  0  0  0  0  0  0
   -1.8992    3.3367   -0.7936 H   0  0  0  0  0  0  0  0  0  0  0  0
    1.0625   -0.6466    2.0621 C   0  0  0  0  0  3  0  0  0  0  0  0
    0.4065   -0.7768    2.9506 H   0  0  0  0  0  0  0  0  0  0  0  0
    2.2681    0.1493    2.2846 C   0  0  0  0  0  0  0  0  0  0  0  0
    2.2482    1.0501    3.3778 C   0  0  0  0  0  0  0  0  0  0  0  0
    1.3671    1.0814    4.0387 H   0  0  0  0  0  0  0  0  0  0  0  0
    3.3226    1.9181    3.6040 C   0  0  0  0  0  0  0  0  0  0  0  0
    3.2890    2.6278    4.4441 H   0  0  0  0  0  0  0  0  0  0  0  0
    4.4436    1.8744    2.7577 C   0  0  0  0  0  0  0  0  0  0  0  0
    5.2920    2.5531    2.9352 H   0  0  0  0  0  0  0  0  0  0  0  0
    4.4895    0.9516    1.6982 C   0  0  0  0  0  0  0  0  0  0  0  0
    5.3780    0.8952    1.0516 H   0  0  0  0  0  0  0  0  0  0  0  0
    3.4138    0.0895    1.4544 C   0  0  0  0  0  0  0  0  0  0  0  0
    3.4667   -0.6610    0.6456 H   0  0  0  0  0  0  0  0  0  0  0  0
    0.8473    2.7940   -1.4632 C   0  0  0  0  0  0  0  0  0  0  0  0
    1.5304    2.1292   -2.0349 H   0  0  0  0  0  0  0  0  0  0  0  0
    1.5495    3.2818   -0.1939 C   0  0  0  0  0  0  0  0  0  0  0  0
    0.8762    3.9083    0.4284 H   0  0  0  0  0  0  0  0  0  0  0  0
    2.4355    3.8900   -0.4627 H   0  0  0  0  0  0  0  0  0  0  0  0
    1.8987    2.4237    0.4137 H   0  0  0  0  0  0  0  0  0  0  0  0
    0.3786    3.9233   -2.3758 C   0  0  0  0  0  0  0  0  0  0  0  0
   -0.1485    3.5239   -3.2644 H   0  0  0  0  0  0  0  0  0  0  0  0
    1.2592    4.4927   -2.7308 H   0  0  0  0  0  0  0  0  0  0  0  0
   -0.2887    4.6421   -1.8553 H   0  0  0  0  0  0  0  0  0  0  0  0
   -3.6298    1.1050    0.1864 C   0  0  0  0  0  0  0  0  0  0  0  0
   -3.8699    0.6512    1.5034 C   0  0  0  0  0  0  0  0  0  0  0  0
   -3.0199    0.3325    2.1265 H   0  0  0  0  0  0  0  0  0  0  0  0
   -5.1707    0.6258    2.0222 C   0  0  0  0  0  0  0  0  0  0  0  0
   -5.3427    0.2708    3.0496 H   0  0  0  0  0  0  0  0  0  0  0  0
   -6.2510    1.0658    1.2388 C   0  0  0  0  0  0  0  0  0  0  0  0
   -7.2725    1.0465    1.6475 H   0  0  0  0  0  0  0  0  0  0  0  0
   -6.0217    1.5354   -0.0635 C   0  0  0  0  0  0  0  0  0  0  0  0
   -6.8636    1.8835   -0.6808 H   0  0  0  0  0  0  0  0  0  0  0  0
   -4.7207    1.5538   -0.5881 C   0  0  0  0  0  0  0  0  0  0  0  0
   -4.5385    1.9055   -1.6146 H   0  0  0  0  0  0  0  0  0  0  0  0
  1 24  1  0  0  0  0
  2 21  1  0  0  0  0
  2 18  1  0  0  0  0
  3 20  1  0  0  0  0
  3 22  1  0  0  0  0
  4  1  1  0  0  0  0
  4  5  1  1  0  0  0
  6  4  1  0  0  0  0
  6  8  1  0  0  0  0
  7  6  1  0  0  0  0
  9  6  1  0  0  0  0
  9 11  1  0  0  0  0
 10  9  1  0  0  0  0
 12 14  1  0  0  0  0
 12 15  1  0  0  0  0
 12  9  1  0  0  0  0
 13 12  1  0  0  0  0
 15 17  1  0  0  0  0
 16 15  1  0  0  0  0
 18 19  1  6  0  0  0
 18 15  1  0  0  0  0
 18  4  1  0  0  0  0
 20  2  1  0  0  0  0
 21 47  1  0  0  0  0
 22 21  2  0  0  0  0
 23 22  1  0  0  0  0
 24 26  1  0  0  0  0
 24 25  1  0  0  0  0
 26 27  1  0  0  0  0
 27 29  2  0  0  0  0
 27 28  1  0  0  0  0
 29 30  1  0  0  0  0
 31 32  1  0  0  0  0
 31 29  1  0  0  0  0
 33 31  2  0  0  0  0
 34 33  1  0  0  0  0
 35 33  1  0  0  0  0
 35 26  2  0  0  0  0
 36 35  1  0  0  0  0
 37  3  1  0  0  0  0
 37 39  1  0  0  0  0
 38 37  1  0  0  0  0
 39 42  1  0  0  0  0
 39 40  1  0  0  0  0
 41 39  1  0  0  0  0
 43 46  1  0  0  0  0
 43 37  1  0  0  0  0
 44 43  1  0  0  0  0
 45 43  1  0  0  0  0
 47 48  1  0  0  0  0
 48 50  2  0  0  0  0
 48 49  1  0  0  0  0
 50 51  1  0  0  0  0
 52 53  1  0  0  0  0
 52 50  1  0  0  0  0
 54 52  2  0  0  0  0
 55 54  1  0  0  0  0
 56 54  1  0  0  0  0
 56 47  2  0  0  0  0
 57 56  1  0  0  0  0
M  END
