1,2
q = -1.0

 31 33  0  0  1  0  0  0  0  0999 V2000
   -0.1966    1.2297   -1.0235 N   0  0  0  0  0  2  0  0  0  0  0  0
    1.6010    1.2116    0.8358 C   0  0  0  0  0  3  0  0  0  0  0  0
    2.4858    1.1832    1.9266 C   0  0  0  0  0  0  0  0  0  0  0  0
    2.7142    0.2327    2.4319 H   0  0  0  0  0  0  0  0  0  0  0  0
    3.0870    2.3668    2.3932 C   0  0  0  0  0  0  0  0  0  0  0  0
    3.7859    2.3186    3.2428 H   0  0  0  0  0  0  0  0  0  0  0  0
    2.8066    3.6105    1.7958 C   0  0  0  0  0  0  0  0  0  0  0  0
    3.2883    4.5250    2.1709 H   0  0  0  0  0  0  0  0  0  0  0  0
    1.8968    3.6757    0.7361 C   0  0  0  0  0  0  0  0  0  0  0  0
    1.6439    4.6438    0.2763 H   0  0  0  0  0  0  0  0  0  0  0  0
    1.2932    2.4877    0.2685 C   0  0  0  0  0  0  0  0  0  0  0  0
    0.2680    2.4270   -0.7462 C   0  0  2  0  0  3  0  0  0  0  0  0
   -0.4326    3.5185   -1.5021 C   0  0  0  0  0  0  0  0  0  0  0  0
    0.2887    4.1923   -2.0070 H   0  0  0  0  0  0  0  0  0  0  0  0
   -1.0057    4.1586   -0.7969 H   0  0  0  0  0  0  0  0  0  0  0  0
   -1.3273    2.7290   -2.4867 C   0  0  0  0  0  0  0  0  0  0  0  0
   -0.8664    2.7200   -3.4932 H   0  0  0  0  0  0  0  0  0  0  0  0
   -2.3409    3.1569   -2.5926 H   0  0  0  0  0  0  0  0  0  0  0  0
   -1.3675    1.2780   -1.9250 C   0  0  2  0  0  0  0  0  0  0  0  0
   -1.2222    0.5322   -2.7307 H   0  0  0  0  0  0  0  0  0  0  0  0
   -2.6295    0.8992   -1.1631 C   0  0  0  0  0  0  0  0  0  0  0  0
   -3.2906   -0.3111   -1.4385 C   0  0  0  0  0  0  0  0  0  0  0  0
   -2.9009   -0.9703   -2.2291 H   0  0  0  0  0  0  0  0  0  0  0  0
   -4.4502   -0.6759   -0.7351 C   0  0  0  0  0  0  0  0  0  0  0  0
   -4.9614   -1.6210   -0.9731 H   0  0  0  0  0  0  0  0  0  0  0  0
   -4.9674    0.1752    0.2532 C   0  0  0  0  0  0  0  0  0  0  0  0
   -5.8879   -0.0968    0.7916 H   0  0  0  0  0  0  0  0  0  0  0  0
   -4.3152    1.3883    0.5366 C   0  0  0  0  0  0  0  0  0  0  0  0
   -4.7271    2.0717    1.2952 H   0  0  0  0  0  0  0  0  0  0  0  0
   -3.1515    1.7426   -0.1609 C   0  0  0  0  0  0  0  0  0  0  0  0
   -2.6506    2.6931    0.0777 H   0  0  0  0  0  0  0  0  0  0  0  0
  1 12  1  0  0  0  0
  2  3  1  0  0  0  0
  3  5  2  0  0  0  0
  3  4  1  0  0  0  0
  5  6  1  0  0  0  0
  7  8  1  0  0  0  0
  7  5  1  0  0  0  0
  9  7  2  0  0  0  0
 10  9  1  0  0  0  0
 11  9  1  0  0  0  0
 11  2  2  0  0  0  0
 12 11  1  1  0  0  0
 13 15  1  0  0  0  0
 13 12  1  0  0  0  0
 14 13  1  0  0  0  0
 16 19  1  0  0  0  0
 16 13  1  0  0  0  0
 17 16  1  0  0  0  0
 18 16  1  0  0  0  0
 19 20  1  6  0  0  0
 19 21  1  0  0  0  0
 19  1  1  0  0  0  0
 21 30  1  0  0  0  0
 22 21  2  0  0  0  0
 22 24  1  0  0  0  0
 23 22  1  0  0  0  0
 24 26  2  0  0  0  0
 25 24  1  0  0  0  0
 26 28  1  0  0  0  0
 26 27  1  0  0  0  0
 28 29  1  0  0  0  0
 30 31  1  0  0  0  0
 30 28  2  0  0  0  0
M  END
