1,3
q = -1.0, confidence = 0.004

 33 35  0  0  0  0  0  0  0  0999 V2000
   -2.0320    0.0620    0.1600 N   0  0  0  0  0  2  0  0  0  0  0  0
   -1.8004   -1.6216   -1.5029 C   0  0  0  0  0  0  0  0  0  0  0  0
   -0.4036   -1.3659   -1.3119 C   0  0  0  0  0  3  0  0  0  0  0  0
    0.5099   -2.1509   -2.0485 C   0  0  0  0  0  0  0  0  0  0  0  0
    1.5918   -1.9962   -1.9163 H   0  0  0  0  0  0  0  0  0  0  0  0
    0.0621   -3.1276   -2.9494 C   0  0  0  0  0  0  0  0  0  0  0  0
    0.7960   -3.7254   -3.5134 H   0  0  0  0  0  0  0  0  0  0  0  0
   -1.3154   -3.3555   -3.1408 C   0  0  0  0  0  0  0  0  0  0  0  0
   -1.6584   -4.1220   -3.8516 H   0  0  0  0  0  0  0  0  0  0  0  0
   -2.2440   -2.6042   -2.4148 C   0  0  0  0  0  0  0  0  0  0  0  0
   -3.3209   -2.7858   -2.5578 H   0  0  0  0  0  0  0  0  0  0  0  0
   -2.7338    0.8375    1.0156 C   0  0  0  0  0  3  0  0  0  0  0  0
   -2.1271    1.4874    1.6630 H   0  0  0  0  0  0  0  0  0  0  0  0
   -4.1246    0.8048    1.0811 C   0  0  0  0  0  0  0  0  0  0  0  0
   -4.6432    1.4384    1.8121 H   0  0  0  0  0  0  0  0  0  0  0  0
   -4.8444   -0.0701    0.2324 C   0  0  0  0  0  0  0  0  0  0  0  0
   -4.0953   -0.8832   -0.6363 C   0  0  0  0  0  0  0  0  0  0  0  0
   -4.6139   -1.5734   -1.3159 H   0  0  0  0  0  0  0  0  0  0  0  0
   -2.6907   -0.8173   -0.6704 C   0  0  0  0  0  0  0  0  0  0  0  0
   -6.3266   -0.1736    0.2725 C   0  0  0  0  0  0  0  0  0  0  0  0
   -7.1722    0.9681    0.1824 C   0  0  0  0  0  0  0  0  0  0  0  0
   -8.5670    0.7680    0.2221 C   0  0  0  0  0  0  0  0  0  0  0  0
   -9.2272    1.6459    0.1366 H   0  0  0  0  0  0  0  0  0  0  0  0
   -9.1305   -0.5084    0.3512 C   0  0  0  0  0  0  0  0  0  0  0  0
  -10.2244   -0.6255    0.3819 H   0  0  0  0  0  0  0  0  0  0  0  0
   -8.2940   -1.6314    0.4299 C   0  0  0  0  0  0  0  0  0  0  0  0
   -8.7203   -2.6410    0.5292 H   0  0  0  0  0  0  0  0  0  0  0  0
   -6.9059   -1.4580    0.3837 C   0  0  0  0  0  0  0  0  0  0  0  0
   -6.2412   -2.3322    0.4590 H   0  0  0  0  0  0  0  0  0  0  0  0
   -6.6327    2.3681    0.0099 C   0  0  0  0  0  0  0  0  0  0  0  0
   -6.3860    2.8394    0.9850 H   0  0  0  0  0  0  0  0  0  0  0  0
   -7.3841    3.0178   -0.4795 H   0  0  0  0  0  0  0  0  0  0  0  0
   -5.7069    2.3867   -0.5972 H   0  0  0  0  0  0  0  0  0  0  0  0
  1 12  1  0  0  0  0
  2  3  1  0  0  0  0
  2 19  1  0  0  0  0
  4  5  1  0  0  0  0
  4  3  2  0  0  0  0
  6  4  1  0  0  0  0
  7  6  1  0  0  0  0
  8  6  2  0  0  0  0
  8 10  1  0  0  0  0
  9  8  1  0  0  0  0
 10  2  2  0  0  0  0
 11 10  1  0  0  0  0
 12 14  1  0  0  0  0
 12 13  1  0  0  0  0
 14 15  1  0  0  0  0
 16 20  1  0  0  0  0
 16 14  2  0  0  0  0
 17 16  1  0  0  0  0
 18 17  1  0  0  0  0
 19 17  2  0  0  0  0
 19  1  1  0  0  0  0
 20 28  1  0  0  0  0
 21 22  1  0  0  0  0
 21 20  2  0  0  0  0
 22 24  2  0  0  0  0
 23 22  1  0  0  0  0
 24 25  1  0  0  0  0
 24 26  1  0  0  0  0
 26 27  1  0  0  0  0
 28 26  2  0  0  0  0
 28 29  1  0  0  0  0
 30 21  1  0  0  0  0
 30 31  1  0  0  0  0
 32 30  1  0  0  0  0
 33 30  1  0  0  0  0
M  END
