1,5
q = -1.0

 19 20  0  0  0  0  0  0  0  0999 V2000
    2.8338   -1.4643    0.6835 N   0  0  0  0  0  2  0  0  0  0  0  0
    3.6910    0.3715   -0.5580 C   0  0  0  0  0  0  0  0  0  0  0  0
    5.0328   -1.5557    0.2205 O   0  0  0  0  0  0  0  0  0  0  0  0
    3.8654   -0.9000    0.1207 C   0  0  0  0  0  0  0  0  0  0  0  0
    2.3399    0.8515   -0.5361 C   0  0  0  0  0  2  0  0  0  0  0  0
    3.1752    2.8189   -1.7467 C   0  0  0  0  0  0  0  0  0  0  0  0
    2.9599    3.7933   -2.2131 H   0  0  0  0  0  0  0  0  0  0  0  0
    2.1237    2.1026   -1.1443 C   0  0  0  0  0  0  0  0  0  0  0  0
    1.1213    2.5528   -1.1572 H   0  0  0  0  0  0  0  0  0  0  0  0
    3.2373   -2.7316    1.2785 C   0  0  0  0  0  0  0  0  0  0  0  0
    2.7071   -3.5732    0.7843 H   0  0  0  0  0  0  0  0  0  0  0  0
    2.9702   -2.7602    2.3544 H   0  0  0  0  0  0  0  0  0  0  0  0
    4.4871    2.3153   -1.7612 C   0  0  0  0  0  0  0  0  0  0  0  0
    5.2986    2.8865   -2.2358 H   0  0  0  0  0  0  0  0  0  0  0  0
    4.7711   -2.7443    1.0293 C   0  0  0  0  0  0  0  0  0  0  0  0
    5.3671   -2.6529    1.9596 H   0  0  0  0  0  0  0  0  0  0  0  0
    5.1263   -3.6244    0.4590 H   0  0  0  0  0  0  0  0  0  0  0  0
    4.7493    1.0804   -1.1568 C   0  0  0  0  0  0  0  0  0  0  0  0
    5.7654    0.6578   -1.1366 H   0  0  0  0  0  0  0  0  0  0  0  0
  1 10  1  0  0  0  0
  2  5  1  0  0  0  0
  2  4  2  0  0  0  0
  3 15  1  0  0  0  0
  4  3  1  0  0  0  0
  4  1  1  0  0  0  0
  6  8  2  0  0  0  0
  7  6  1  0  0  0  0
  8  5  1  0  0  0  0
  9  8  1  0  0  0  0
 10 12  1  0  0  0  0
 11 10  1  0  0  0  0
 13  6  1  0  0  0  0
 13 18  2  0  0  0  0
 14 13  1  0  0  0  0
 15 10  1  0  0  0  0
 15 16  1  0  0  0  0
 17 15  1  0  0  0  0
 18 19  1  0  0  0  0
 18  2  1  0  0  0  0
M  END
