3,9
q = -1.0

 21 22  0  0  1  0  0  0  0  0999 V2000
   -1.6269   -0.0527   -1.1638 C   0  0  1  0  0  0  0  0  0  0  0  0
   -0.6117   -1.1847   -1.2223 C   0  0  0  0  0  3  0  0  0  0  0  0
   -0.3475   -1.8601   -0.0002 C   0  0  0  0  0  3  0  0  0  0  0  0
   -0.6117   -1.1850    1.2221 C   0  0  0  0  0  3  0  0  0  0  0  0
   -1.6269   -0.0529    1.1638 C   0  0  2  0  0  0  0  0  0  0  0  0
   -3.0674   -0.4699    0.7795 C   0  0  0  0  0  0  0  0  0  0  0  0
   -3.0674   -0.4698   -0.7796 C   0  0  0  0  0  0  0  0  0  0  0  0
   -1.4265    2.1655    0.0002 C   0  0  0  0  0  0  0  0  0  0  0  0
   -1.1178    0.7391    0.0000 N   0  0  0  0  0  0  0  0  0  0  0  0
   -1.5726    0.5675   -2.0791 H   0  0  0  0  0  0  0  0  0  0  0  0
   -0.3793   -1.6598   -2.1854 H   0  0  0  0  0  0  0  0  0  0  0  0
    0.2056   -2.8126   -0.0003 H   0  0  0  0  0  0  0  0  0  0  0  0
   -0.3793   -1.6601    2.1850 H   0  0  0  0  0  0  0  0  0  0  0  0
   -1.5726    0.5672    2.0792 H   0  0  0  0  0  0  0  0  0  0  0  0
   -3.3084   -1.4630    1.2053 H   0  0  0  0  0  0  0  0  0  0  0  0
   -3.8123    0.2475    1.1796 H   0  0  0  0  0  0  0  0  0  0  0  0
   -3.3084   -1.4628   -1.2056 H   0  0  0  0  0  0  0  0  0  0  0  0
   -3.8123    0.2477   -1.1796 H   0  0  0  0  0  0  0  0  0  0  0  0
   -0.9778    2.6354   -0.8962 H   0  0  0  0  0  0  0  0  0  0  0  0
   -0.9778    2.6352    0.8966 H   0  0  0  0  0  0  0  0  0  0  0  0
   -2.5230    2.3576    0.0002 H   0  0  0  0  0  0  0  0  0  0  0  0
  1 10  1  6  0  0  0
  1  7  1  0  0  0  0
  1  9  1  0  0  0  0
  2  1  1  0  0  0  0
  2  3  1  0  0  0  0
  3  4  1  0  0  0  0
  4 13  1  0  0  0  0
  5  4  1  0  0  0  0
  5 14  1  1  0  0  0
  6  5  1  0  0  0  0
  6 16  1  0  0  0  0
  6 15  1  0  0  0  0
  7  6  1  0  0  0  0
  8 21  1  0  0  0  0
  8 20  1  0  0  0  0
  9  8  1  0  0  0  0
  9  5  1  0  0  0  0
 11  2  1  0  0  0  0
 12  3  1  0  0  0  0
 17  7  1  0  0  0  0
 18  7  1  0  0  0  0
 19  8  1  0  0  0  0
M  END
