1,27
q = -1.0, confidence = 0.028

 45 47  0  0  0  0  0  0  0  0999 V2000
   -2.3030   -2.2532    0.2516 N   0  0  0  0  0  2  0  0  0  0  0  0
    9.7131    0.8065   -0.6386 O   0  0  0  0  0  0  0  0  0  0  0  0
    3.8254   -1.4367   -0.3577 O   0  0  0  0  0  0  0  0  0  0  0  0
    4.7893   -3.2374   -1.4042 O   0  0  0  0  0  0  0  0  0  0  0  0
   -7.8521   -2.8985    0.4623 O   0  0  0  0  0  0  0  0  0  0  0  0
   10.9198    0.2920   -1.1766 C   0  0  0  0  0  0  0  0  0  0  0  0
   11.6969    1.0541   -0.9836 H   0  0  0  0  0  0  0  0  0  0  0  0
   10.8429    0.1219   -2.2733 H   0  0  0  0  0  0  0  0  0  0  0  0
   11.2168   -0.6613   -0.6858 H   0  0  0  0  0  0  0  0  0  0  0  0
    8.5850    0.0616   -0.7427 C   0  0  0  0  0  0  0  0  0  0  0  0
    7.4151    0.6327   -0.1892 C   0  0  0  0  0  0  0  0  0  0  0  0
    7.4988    1.6240    0.2768 H   0  0  0  0  0  0  0  0  0  0  0  0
    6.2011   -0.0486   -0.2424 C   0  0  0  0  0  0  0  0  0  0  0  0
    5.2972    0.4059    0.1870 H   0  0  0  0  0  0  0  0  0  0  0  0
    6.1283   -1.3254   -0.8475 C   0  0  0  0  0  0  0  0  0  0  0  0
    7.2964   -1.8885   -1.3976 C   0  0  0  0  0  0  0  0  0  0  0  0
    7.2229   -2.8825   -1.8630 H   0  0  0  0  0  0  0  0  0  0  0  0
    8.5189   -1.2106   -1.3535 C   0  0  0  0  0  0  0  0  0  0  0  0
    9.4114   -1.6761   -1.7916 H   0  0  0  0  0  0  0  0  0  0  0  0
    4.8796   -2.1256   -0.9187 C   0  0  0  0  0  0  0  0  0  0  0  0
    2.5651   -1.9843   -0.1771 C   0  0  0  0  0  0  0  0  0  0  0  0
    2.3429   -3.3508    0.0868 C   0  0  0  0  0  0  0  0  0  0  0  0
    3.1736   -4.0641    0.0900 H   0  0  0  0  0  0  0  0  0  0  0  0
    1.0279   -3.7664    0.3060 C   0  0  0  0  0  3  0  0  0  0  0  0
    0.8176   -4.8328    0.4851 H   0  0  0  0  0  0  0  0  0  0  0  0
   -0.0340   -2.8354    0.2912 C   0  0  0  0  0  0  0  0  0  0  0  0
    0.1970   -1.4301    0.0825 C   0  0  0  0  0  3  0  0  0  0  0  0
    1.5145   -1.0440   -0.1922 C   0  0  0  0  0  0  0  0  0  0  0  0
    1.7861   -0.0037   -0.4103 H   0  0  0  0  0  0  0  0  0  0  0  0
   -1.4179   -3.2142    0.3711 C   0  0  0  0  0  0  0  0  0  0  0  0
   -1.7468   -4.2677    0.4522 H   0  0  0  0  0  0  0  0  0  0  0  0
   -3.6974   -2.4839    0.2632 C   0  0  0  0  0  0  0  0  0  0  0  0
   -4.4988   -1.8772   -0.7225 C   0  0  0  0  0  0  0  0  0  0  0  0
   -4.0139   -1.2806   -1.5067 H   0  0  0  0  0  0  0  0  0  0  0  0
   -5.8896   -2.0162   -0.7057 C   0  0  0  0  0  0  0  0  0  0  0  0
   -6.4850   -1.5228   -1.4848 H   0  0  0  0  0  0  0  0  0  0  0  0
   -6.5090   -2.7567    0.3250 C   0  0  0  0  0  0  0  0  0  0  0  0
   -5.7069   -3.3899    1.3015 C   0  0  0  0  0  0  0  0  0  0  0  0
   -6.2069   -3.9591    2.0981 H   0  0  0  0  0  0  0  0  0  0  0  0
   -4.3181   -3.2515    1.2731 C   0  0  0  0  0  0  0  0  0  0  0  0
   -3.7039   -3.7020    2.0671 H   0  0  0  0  0  0  0  0  0  0  0  0
   -8.6965   -2.1783   -0.4221 C   0  0  0  0  0  0  0  0  0  0  0  0
   -9.7331   -2.3791   -0.0946 H   0  0  0  0  0  0  0  0  0  0  0  0
   -8.5797   -2.5198   -1.4750 H   0  0  0  0  0  0  0  0  0  0  0  0
   -8.5050   -1.0827   -0.3784 H   0  0  0  0  0  0  0  0  0  0  0  0
  1 32  1  0  0  0  0
  1 30  1  0  0  0  0
  3 21  1  0  0  0  0
  4 20  2  0  0  0  0
  6  7  1  0  0  0  0
  6  9  1  0  0  0  0
  6  2  1  0  0  0  0
  8  6  1  0  0  0  0
 10  2  1  0  0  0  0
 10 11  1  0  0  0  0
 11 12  1  0  0  0  0
 13 11  2  0  0  0  0
 13 14  1  0  0  0  0
 15 13  1  0  0  0  0
 16 18  1  0  0  0  0
 16 15  2  0  0  0  0
 17 16  1  0  0  0  0
 18 10  2  0  0  0  0
 19 18  1  0  0  0  0
 20 15  1  0  0  0  0
 20  3  1  0  0  0  0
 21 22  2  0  0  0  0
 22 23  1  0  0  0  0
 22 24  1  0  0  0  0
 24 25  1  0  0  0  0
 26 24  1  0  0  0  0
 26 30  2  0  0  0  0
 27 26  1  0  0  0  0
 28 21  1  0  0  0  0
 28 27  2  0  0  0  0
 29 28  1  0  0  0  0
 30 31  1  0  0  0  0
 32 40  1  0  0  0  0
 33 35  1  0  0  0  0
 33 32  2  0  0  0  0
 34 33  1  0  0  0  0
 35 37  2  0  0  0  0
 36 35  1  0  0  0  0
 37  5  1  0  0  0  0
 37 38  1  0  0  0  0
 38 39  1  0  0  0  0
 40 38  2  0  0  0  0
 40 41  1  0  0  0  0
 42 45  1  0  0  0  0
 42 43  1  0  0  0  0
 42  5  1  0  0  0  0
 44 42  1  0  0  0  0
M  END
