1,2
q = -1.0

 29 30  0  0  0  0  0  0  0  0999 V2000
   -2.6142   -0.7118    1.4134 N   0  0  0  0  0  0  0  0  0  0  0  0
   -1.4807    1.2873    0.9742 C   0  0  0  0  0  3  0  0  0  0  0  0
   -1.3345    2.6820    0.9162 C   0  0  0  0  0  0  0  0  0  0  0  0
   -0.4064    3.1495    0.5527 H   0  0  0  0  0  0  0  0  0  0  0  0
   -2.4049    3.4958    1.3393 C   0  0  0  0  0  0  0  0  0  0  0  0
   -2.2997    4.5915    1.2939 H   0  0  0  0  0  0  0  0  0  0  0  0
   -3.6019    2.9388    1.8247 C   0  0  0  0  0  0  0  0  0  0  0  0
   -4.4183    3.5981    2.1561 H   0  0  0  0  0  0  0  0  0  0  0  0
   -3.7603    1.5408    1.8905 C   0  0  0  0  0  0  0  0  0  0  0  0
   -4.6921    1.0933    2.2699 H   0  0  0  0  0  0  0  0  0  0  0  0
   -2.6882    0.7571    1.4529 C   0  0  0  0  0  0  0  0  0  0  0  0
   -2.7079   -1.3541    2.7346 C   0  0  0  0  0  0  0  0  0  0  0  0
   -2.3809   -2.4085    2.6417 H   0  0  0  0  0  0  0  0  0  0  0  0
   -3.7483   -1.3160    3.1312 H   0  0  0  0  0  0  0  0  0  0  0  0
   -2.0316   -0.8351    3.4382 H   0  0  0  0  0  0  0  0  0  0  0  0
   -3.5399   -1.3539    0.4367 C   0  0  0  0  0  0  0  0  0  0  0  0
   -3.3069   -2.4371    0.4655 H   0  0  0  0  0  0  0  0  0  0  0  0
   -4.5874   -1.2167    0.7942 H   0  0  0  0  0  0  0  0  0  0  0  0
   -3.3946   -0.8314   -0.9732 C   0  0  0  0  0  0  0  0  0  0  0  0
   -2.5048   -1.4578   -1.8707 C   0  0  0  0  0  0  0  0  0  0  0  0
   -1.9190   -2.3262   -1.5301 H   0  0  0  0  0  0  0  0  0  0  0  0
   -2.3561   -0.9744   -3.1786 C   0  0  0  0  0  0  0  0  0  0  0  0
   -1.6579   -1.4729   -3.8678 H   0  0  0  0  0  0  0  0  0  0  0  0
   -3.0925    0.1420   -3.6064 C   0  0  0  0  0  0  0  0  0  0  0  0
   -2.9780    0.5172   -4.6349 H   0  0  0  0  0  0  0  0  0  0  0  0
   -3.9755    0.7764   -2.7183 C   0  0  0  0  0  0  0  0  0  0  0  0
   -4.5565    1.6519   -3.0461 H   0  0  0  0  0  0  0  0  0  0  0  0
   -4.1265    0.2896   -1.4105 C   0  0  0  0  0  0  0  0  0  0  0  0
   -4.8204    0.7891   -0.7175 H   0  0  0  0  0  0  0  0  0  0  0  0
  1 11  1  0  0  0  0
  1 12  1  0  0  0  0
  2 11  1  0  0  0  0
  3  2  2  0  0  0  0
  3  5  1  0  0  0  0
  4  3  1  0  0  0  0
  5  7  2  0  0  0  0
  6  5  1  0  0  0  0
  7  9  1  0  0  0  0
  7  8  1  0  0  0  0
  9 10  1  0  0  0  0
 11  9  2  0  0  0  0
 12 14  1  0  0  0  0
 12 15  1  0  0  0  0
 13 12  1  0  0  0  0
 16 17  1  0  0  0  0
 16 18  1  0  0  0  0
 16  1  1  0  0  0  0
 19 16  1  0  0  0  0
 20 21  1  0  0  0  0
 20 19  2  0  0  0  0
 22 20  1  0  0  0  0
 23 22  1  0  0  0  0
 24 22  2  0  0  0  0
 24 26  1  0  0  0  0
 25 24  1  0  0  0  0
 26 28  2  0  0  0  0
 27 26  1  0  0  0  0
 28 19  1  0  0  0  0
 28 29  1  0  0  0  0
M  END
