1,12
q = -1.0

 31 31  0  0  0  0  0  0  0  0999 V2000
    2.8949   -1.2880   -0.2121 N   0  0  0  0  0  0  0  0  0  0  0  0
    2.5238    1.4879   -2.0415 O   0  0  0  0  0  0  0  0  0  0  0  0
    0.6123    2.5291   -1.4027 O   0  0  0  0  0  0  0  0  0  0  0  0
   -0.7076    3.9598   -2.7927 C   0  0  0  0  0  0  0  0  0  0  0  0
   -0.8808    4.3069   -3.8307 H   0  0  0  0  0  0  0  0  0  0  0  0
   -0.4683    4.8451   -2.1695 H   0  0  0  0  0  0  0  0  0  0  0  0
   -1.6492    3.5105   -2.4214 H   0  0  0  0  0  0  0  0  0  0  0  0
    0.4258    2.9548   -2.7666 C   0  0  0  0  0  0  0  0  0  0  0  0
    1.3793    3.3786   -3.1444 H   0  0  0  0  0  0  0  0  0  0  0  0
    0.1974    2.0635   -3.3898 H   0  0  0  0  0  0  0  0  0  0  0  0
    1.7077    1.7420   -1.1631 C   0  0  0  0  0  0  0  0  0  0  0  0
    1.7503    1.2609    0.2564 C   0  0  0  0  0  3  0  0  0  0  0  0
    1.1995    1.9373    0.9329 H   0  0  0  0  0  0  0  0  0  0  0  0
    3.1407    0.9745    0.7283 C   0  0  0  0  0  0  0  0  0  0  0  0
    3.9002    1.9348    1.4275 C   0  0  0  0  0  0  0  0  0  0  0  0
    3.4246    2.8886    1.7044 H   0  0  0  0  0  0  0  0  0  0  0  0
    5.2419    1.6923    1.7510 C   0  0  0  0  0  0  0  0  0  0  0  0
    5.8210    2.4502    2.3000 H   0  0  0  0  0  0  0  0  0  0  0  0
    5.8480    0.4864    1.3636 C   0  0  0  0  0  0  0  0  0  0  0  0
    6.9038    0.2924    1.6050 H   0  0  0  0  0  0  0  0  0  0  0  0
    5.0991   -0.4865    0.6852 C   0  0  0  0  0  0  0  0  0  0  0  0
    5.5705   -1.4399    0.4056 H   0  0  0  0  0  0  0  0  0  0  0  0
    3.7456   -0.2497    0.3959 C   0  0  0  0  0  0  0  0  0  0  0  0
    2.9413   -2.5277    0.6053 C   0  0  0  0  0  0  0  0  0  0  0  0
    2.2192   -3.2543    0.1875 H   0  0  0  0  0  0  0  0  0  0  0  0
    2.6578   -2.2887    1.6473 H   0  0  0  0  0  0  0  0  0  0  0  0
    3.9610   -2.9717    0.5981 H   0  0  0  0  0  0  0  0  0  0  0  0
    3.3018   -1.5711   -1.6123 C   0  0  0  0  0  0  0  0  0  0  0  0
    2.5892   -2.3011   -2.0419 H   0  0  0  0  0  0  0  0  0  0  0  0
    4.3312   -1.9927   -1.6423 H   0  0  0  0  0  0  0  0  0  0  0  0
    3.2669   -0.6245   -2.1811 H   0  0  0  0  0  0  0  0  0  0  0  0
  1 23  1  0  0  0  0
  1 24  1  0  0  0  0
  2 11  2  0  0  0  0
  3 11  1  0  0  0  0
  4  8  1  0  0  0  0
  4  7  1  0  0  0  0
  4  6  1  0  0  0  0
  5  4  1  0  0  0  0
  8  3  1  0  0  0  0
  9  8  1  0  0  0  0
 10  8  1  0  0  0  0
 11 12  1  0  0  0  0
 12 14  1  0  0  0  0
 12 13  1  0  0  0  0
 14 15  1  0  0  0  0
 15 16  1  0  0  0  0
 15 17  2  0  0  0  0
 17 18  1  0  0  0  0
 19 20  1  0  0  0  0
 19 17  1  0  0  0  0
 21 19  2  0  0  0  0
 22 21  1  0  0  0  0
 23 21  1  0  0  0  0
 23 14  2  0  0  0  0
 24 26  1  0  0  0  0
 25 24  1  0  0  0  0
 27 24  1  0  0  0  0
 28  1  1  0  0  0  0
 29 28  1  0  0  0  0
 30 28  1  0  0  0  0
 31 28  1  0  0  0  0
M  END
