1,4
q = -1.0

 40 42  0  0  0  0  0  0  0  0999 V2000
   -1.4299   -1.0328   -0.1106 N   0  0  0  0  0  2  0  0  0  0  0  0
   -3.7505   -1.7814   -2.0197 F   0  0  0  0  0  0  0  0  0  0  0  0
   -2.9264   -3.6952    2.2250 F   0  0  0  0  0  0  0  0  0  0  0  0
   -0.3057    1.3327    0.3859 C   0  0  0  0  0  3  0  0  0  0  0  0
    0.2640    2.4806    0.9779 C   0  0  0  0  0  0  0  0  0  0  0  0
    1.3362    2.5149    1.2163 H   0  0  0  0  0  0  0  0  0  0  0  0
   -0.5152    3.6079    1.2797 C   0  0  0  0  0  0  0  0  0  0  0  0
   -0.0413    4.4898    1.7384 H   0  0  0  0  0  0  0  0  0  0  0  0
   -1.8848    3.6202    0.9940 C   0  0  0  0  0  0  0  0  0  0  0  0
   -2.4930    4.5114    1.2107 H   0  0  0  0  0  0  0  0  0  0  0  0
   -2.5004    2.4959    0.4016 C   0  0  0  0  0  0  0  0  0  0  0  0
   -1.7032    1.3597    0.1131 C   0  0  0  0  0  0  0  0  0  0  0  0
   -3.9641    2.5224    0.1313 C   0  0  0  0  0  0  0  0  0  0  0  0
   -4.5020    2.1713   -1.1258 C   0  0  0  0  0  0  0  0  0  0  0  0
   -3.8242    1.8919   -1.9461 H   0  0  0  0  0  0  0  0  0  0  0  0
   -5.8840    2.2055   -1.3588 C   0  0  0  0  0  0  0  0  0  0  0  0
   -6.2714    1.9329   -2.3537 H   0  0  0  0  0  0  0  0  0  0  0  0
   -6.7871    2.5933   -0.3503 C   0  0  0  0  0  0  0  0  0  0  0  0
   -6.2498    2.9552    0.9032 C   0  0  0  0  0  0  0  0  0  0  0  0
   -6.9301    3.2633    1.7137 H   0  0  0  0  0  0  0  0  0  0  0  0
   -4.8709    2.9226    1.1397 C   0  0  0  0  0  0  0  0  0  0  0  0
   -4.4784    3.1936    2.1317 H   0  0  0  0  0  0  0  0  0  0  0  0
   -8.2757    2.6205   -0.5905 C   0  0  0  0  0  0  0  0  0  0  0  0
   -8.8025    1.8870    0.0562 H   0  0  0  0  0  0  0  0  0  0  0  0
   -8.5246    2.3809   -1.6425 H   0  0  0  0  0  0  0  0  0  0  0  0
   -8.7059    3.6167   -0.3577 H   0  0  0  0  0  0  0  0  0  0  0  0
   -2.3100    0.0930   -0.4376 C   0  0  0  0  0  0  0  0  0  0  0  0
   -3.3378   -0.0759   -0.0540 H   0  0  0  0  0  0  0  0  0  0  0  0
   -2.3856    0.1248   -1.5458 H   0  0  0  0  0  0  0  0  0  0  0  0
   -1.8749   -2.2176    0.1610 C   0  0  0  0  0  3  0  0  0  0  0  0
   -1.1030   -2.9615    0.4403 H   0  0  0  0  0  0  0  0  0  0  0  0
   -3.2793   -2.6586    0.1352 C   0  0  0  0  0  0  0  0  0  0  0  0
   -4.1818   -2.4396   -0.9304 C   0  0  0  0  0  0  0  0  0  0  0  0
   -5.4964   -2.9152   -0.9147 C   0  0  0  0  0  0  0  0  0  0  0  0
   -6.1469   -2.7073   -1.7749 H   0  0  0  0  0  0  0  0  0  0  0  0
   -5.9354   -3.6581    0.1903 C   0  0  0  0  0  0  0  0  0  0  0  0
   -6.9677   -4.0367    0.2144 H   0  0  0  0  0  0  0  0  0  0  0  0
   -5.0710   -3.9329    1.2613 C   0  0  0  0  0  0  0  0  0  0  0  0
   -5.3894   -4.5169    2.1353 H   0  0  0  0  0  0  0  0  0  0  0  0
   -3.7651   -3.4420    1.2090 C   0  0  0  0  0  0  0  0  0  0  0  0
  1 30  1  0  0  0  0
  2 33  1  0  0  0  0
  4  5  1  0  0  0  0
  5  6  1  0  0  0  0
  5  7  2  0  0  0  0
  7  8  1  0  0  0  0
  9 10  1  0  0  0  0
  9  7  1  0  0  0  0
 11  9  2  0  0  0  0
 12  4  2  0  0  0  0
 12 11  1  0  0  0  0
 13 11  1  0  0  0  0
 13 21  1  0  0  0  0
 14 13  2  0  0  0  0
 15 14  1  0  0  0  0
 16 14  1  0  0  0  0
 16 18  2  0  0  0  0
 17 16  1  0  0  0  0
 18 19  1  0  0  0  0
 19 21  2  0  0  0  0
 19 20  1  0  0  0  0
 21 22  1  0  0  0  0
 23 26  1  0  0  0  0
 23 18  1  0  0  0  0
 23 24  1  0  0  0  0
 25 23  1  0  0  0  0
 27  1  1  0  0  0  0
 27 28  1  0  0  0  0
 27 12  1  0  0  0  0
 29 27  1  0  0  0  0
 30 31  1  0  0  0  0
 32 30  1  0  0  0  0
 32 40  1  0  0  0  0
 33 34  1  0  0  0  0
 33 32  2  0  0  0  0
 34 36  2  0  0  0  0
 35 34  1  0  0  0  0
 36 37  1  0  0  0  0
 36 38  1  0  0  0  0
 38 39  1  0  0  0  0
 40 38  2  0  0  0  0
 40  3  1  0  0  0  0
M  END
