2,36
q = -1.0

 40 42  0  0  0  0  0  0  0  0999 V2000
    0.4322    5.3423    0.1330 Cl  0  0  0  0  0  0  0  0  0  0  0  0
   -1.9783   -0.5723   -1.6169 N   0  0  0  0  0  2  0  0  0  0  0  0
   -4.8963    0.0395    0.0748 C   0  0  0  0  0  0  0  0  0  0  0  0
   -5.5366   -0.5765   -0.5759 H   0  0  0  0  0  0  0  0  0  0  0  0
   -5.1618    1.4102    0.2227 C   0  0  0  0  0  0  0  0  0  0  0  0
   -6.0102    1.8598   -0.3182 H   0  0  0  0  0  0  0  0  0  0  0  0
   -4.3660    2.2250    1.0521 C   0  0  0  0  0  0  0  0  0  0  0  0
   -3.3031    1.6116    1.7467 C   0  0  0  0  0  0  0  0  0  0  0  0
   -2.6598    2.2260    2.3976 H   0  0  0  0  0  0  0  0  0  0  0  0
   -3.0396    0.2440    1.6086 C   0  0  0  0  0  0  0  0  0  0  0  0
   -2.1982   -0.2176    2.1461 H   0  0  0  0  0  0  0  0  0  0  0  0
   -3.8219   -0.5631    0.7562 C   0  0  0  0  0  0  0  0  0  0  0  0
   -3.5171   -2.0164    0.6183 C   0  0  0  0  0  0  0  0  0  0  0  0
   -3.7121   -2.8407    1.7487 C   0  0  0  0  0  0  0  0  0  0  0  0
   -4.0808   -2.3766    2.6763 H   0  0  0  0  0  0  0  0  0  0  0  0
   -3.4687   -4.2183    1.6996 C   0  0  0  0  0  0  0  0  0  0  0  0
   -3.6373   -4.8395    2.5925 H   0  0  0  0  0  0  0  0  0  0  0  0
   -3.0093   -4.7955    0.5068 C   0  0  0  0  0  0  0  0  0  0  0  0
   -2.8051   -5.8753    0.4509 H   0  0  0  0  0  0  0  0  0  0  0  0
   -2.7785   -3.9833   -0.6092 C   0  0  0  0  0  0  0  0  0  0  0  0
   -2.3607   -4.4246   -1.5263 H   0  0  0  0  0  0  0  0  0  0  0  0
   -3.0257   -2.5968   -0.5796 C   0  0  0  0  0  0  0  0  0  0  0  0
   -2.7293   -1.8012   -1.8452 C   0  0  0  0  0  0  0  0  0  0  0  0
   -3.6742   -1.5457   -2.3768 H   0  0  0  0  0  0  0  0  0  0  0  0
   -2.1219   -2.4483   -2.5094 H   0  0  0  0  0  0  0  0  0  0  0  0
   -2.5123    0.5851   -1.8934 C   0  0  0  0  0  0  0  0  0  0  0  0
   -3.5095    0.6407   -2.3684 H   0  0  0  0  0  0  0  0  0  0  0  0
   -1.8024    1.7712   -1.4938 C   0  0  0  0  0  0  0  0  0  0  0  0
   -2.3050    3.0694   -1.7192 C   0  0  0  0  0  3  0  0  0  0  0  0
   -3.2480    3.2010   -2.2727 H   0  0  0  0  0  0  0  0  0  0  0  0
   -1.6211    4.1854   -1.2314 C   0  0  0  0  0  0  0  0  0  0  0  0
   -1.9882    5.2076   -1.3940 H   0  0  0  0  0  0  0  0  0  0  0  0
   -0.4324    3.9652   -0.5103 C   0  0  0  0  0  0  0  0  0  0  0  0
    0.0866    2.6783   -0.2873 C   0  0  0  0  0  0  0  0  0  0  0  0
    1.0252    2.6085    0.2763 H   0  0  0  0  0  0  0  0  0  0  0  0
   -0.5775    1.5368   -0.7778 C   0  0  0  0  0  3  0  0  0  0  0  0
   -4.6143    3.7060    1.1787 C   0  0  0  0  0  0  0  0  0  0  0  0
   -5.5706    4.0041    0.7067 H   0  0  0  0  0  0  0  0  0  0  0  0
   -3.7998    4.2806    0.6881 H   0  0  0  0  0  0  0  0  0  0  0  0
   -4.6407    4.0257    2.2405 H   0  0  0  0  0  0  0  0  0  0  0  0
  3  5  2  0  0  0  0
  3 12  1  0  0  0  0
  4  3  1  0  0  0  0
  5  7  1  0  0  0  0
  6  5  1  0  0  0  0
  7 37  1  0  0  0  0
  7  8  2  0  0  0  0
  8  9  1  0  0  0  0
 10  8  1  0  0  0  0
 10 11  1  0  0  0  0
 12 10  2  0  0  0  0
 13 12  1  0  0  0  0
 13 14  1  0  0  0  0
 14 15  1  0  0  0  0
 16 14  2  0  0  0  0
 16 17  1  0  0  0  0
 18 16  1  0  0  0  0
 19 18  1  0  0  0  0
 20 22  1  0  0  0  0
 20 18  2  0  0  0  0
 21 20  1  0  0  0  0
 22 13  2  0  0  0  0
 23  2  1  0  0  0  0
 23 22  1  0  0  0  0
 24 23  1  0  0  0  0
 25 23  1  0  0  0  0
 26  2  1  0  0  0  0
 26 28  2  0  0  0  0
 27 26  1  0  0  0  0
 28 36  1  0  0  0  0
 29 28  1  0  0  0  0
 29 31  1  0  0  0  0
 30 29  1  0  0  0  0
 31 33  2  0  0  0  0
 32 31  1  0  0  0  0
 33 34  1  0  0  0  0
 33  1  1  0  0  0  0
 34 35  1  0  0  0  0
 36 34  2  0  0  0  0
 37 40  1  0  0  0  0
 38 37  1  0  0  0  0
 39 37  1  0  0  0  0
M  END
