1
q = -1.0, confidence = 0.002

 40 44  0  0  1  0  0  0  0  0999 V2000
   -2.0262   -0.8006   -0.0509 N   0  0  0  0  0  2  0  0  0  0  0  0
   -2.9086   -1.8668    0.4424 C   0  0  0  0  0  0  0  0  0  0  0  0
   -4.1782   -1.1043    0.8564 C   0  0  0  0  0  0  0  0  0  0  0  0
   -3.7392    0.2776    0.9297 O   0  0  0  0  0  0  0  0  0  0  0  0
   -2.5363    0.3419    0.3111 C   0  0  1  0  0  3  0  0  0  0  0  0
   -1.9490    1.6635    0.1220 C   0  0  0  0  0  0  0  0  0  0  0  0
   -2.8199    2.7754    0.0733 C   0  0  0  0  0  0  0  0  0  0  0  0
   -2.3197    4.0611   -0.1426 C   0  0  0  0  0  0  0  0  0  0  0  0
   -0.9341    4.2341   -0.2901 C   0  0  0  0  0  0  0  0  0  0  0  0
   -0.0655    3.1376   -0.2140 C   0  0  0  0  0  0  0  0  0  0  0  0
   -0.5368    1.8221   -0.0079 C   0  0  0  0  0  0  0  0  0  0  0  0
    0.4322    0.6879    0.1758 C   0  0  0  0  0  3  0  0  0  0  0  0
    0.5943    0.2137    1.5959 C   0  0  0  0  0  0  0  0  0  0  0  0
   -0.3450    0.0198    2.6255 C   0  0  0  0  0  0  0  0  0  0  0  0
    0.0828   -0.4858    3.8639 C   0  0  0  0  0  0  0  0  0  0  0  0
    1.4403   -0.7820    4.0978 C   0  0  0  0  0  0  0  0  0  0  0  0
    2.3956   -0.5373    3.1018 C   0  0  0  0  0  0  0  0  0  0  0  0
    1.9800   -0.0206    1.8629 C   0  0  0  0  0  0  0  0  0  0  0  0
    2.7513    0.3914    0.6953 C   0  0  0  0  0  0  0  0  0  0  0  0
    4.1367    0.3814    0.4527 C   0  0  0  0  0  0  0  0  0  0  0  0
    4.6218    0.9069   -0.7520 C   0  0  0  0  0  0  0  0  0  0  0  0
    3.7300    1.4376   -1.7075 C   0  0  0  0  0  0  0  0  0  0  0  0
    2.3457    1.4292   -1.4846 C   0  0  0  0  0  0  0  0  0  0  0  0
    1.8426    0.8873   -0.2866 C   0  0  0  0  0  0  0  0  0  0  0  0
   -2.4121   -2.3800    1.2958 H   0  0  0  0  0  0  0  0  0  0  0  0
   -3.0936   -2.6245   -0.3434 H   0  0  0  0  0  0  0  0  0  0  0  0
   -4.5835   -1.3893    1.8450 H   0  0  0  0  0  0  0  0  0  0  0  0
   -4.9869   -1.1664    0.0978 H   0  0  0  0  0  0  0  0  0  0  0  0
   -3.8990    2.6051    0.1933 H   0  0  0  0  0  0  0  0  0  0  0  0
   -3.0029    4.9213   -0.1946 H   0  0  0  0  0  0  0  0  0  0  0  0
   -0.5183    5.2406   -0.4516 H   0  0  0  0  0  0  0  0  0  0  0  0
    1.0179    3.3001   -0.2941 H   0  0  0  0  0  0  0  0  0  0  0  0
   -1.4062    0.2722    2.4887 H   0  0  0  0  0  0  0  0  0  0  0  0
   -0.6540   -0.6419    4.6669 H   0  0  0  0  0  0  0  0  0  0  0  0
    1.7527   -1.1843    5.0732 H   0  0  0  0  0  0  0  0  0  0  0  0
    3.4627   -0.7293    3.2931 H   0  0  0  0  0  0  0  0  0  0  0  0
    4.8317   -0.0211    1.2058 H   0  0  0  0  0  0  0  0  0  0  0  0
    5.7035    0.9106   -0.9537 H   0  0  0  0  0  0  0  0  0  0  0  0
    4.1247    1.8551   -2.6463 H   0  0  0  0  0  0  0  0  0  0  0  0
    1.6632    1.8224   -2.2535 H   0  0  0  0  0  0  0  0  0  0  0  0
  1  5  1  0  0  0  0
  1  2  1  0  0  0  0
  2  3  1  0  0  0  0
  2 25  1  0  0  0  0
  3  4  1  0  0  0  0
  3 27  1  0  0  0  0
  5  6  1  1  0  0  0
  5  4  1  0  0  0  0
  7  6  1  0  0  0  0
  7 29  1  0  0  0  0
  8  7  2  0  0  0  0
  9 10  2  0  0  0  0
  9  8  1  0  0  0  0
 10 11  1  0  0  0  0
 11  6  2  0  0  0  0
 11 12  1  0  0  0  0
 12 13  1  0  0  0  0
 13 18  2  0  0  0  0
 13 14  1  0  0  0  0
 14 15  2  0  0  0  0
 15 16  1  0  0  0  0
 15 34  1  0  0  0  0
 16 35  1  0  0  0  0
 17 36  1  0  0  0  0
 17 16  2  0  0  0  0
 18 17  1  0  0  0  0
 19 18  1  0  0  0  0
 20 19  1  0  0  0  0
 20 37  1  0  0  0  0
 21 20  2  0  0  0  0
 22 23  2  0  0  0  0
 22 21  1  0  0  0  0
 23 24  1  0  0  0  0
 24 12  1  0  0  0  0
 24 19  2  0  0  0  0
 26  2  1  0  0  0  0
 28  3  1  0  0  0  0
 30  8  1  0  0  0  0
 31  9  1  0  0  0  0
 32 10  1  0  0  0  0
 33 14  1  0  0  0  0
 38 21  1  0  0  0  0
 39 22  1  0  0  0  0
 40 23  1  0  0  0  0
M  END
