3,13
q = -1.0

 23 25  0  0  0  0  0  0  0  0999 V2000
   -5.5629   -2.0561    0.0711 Br  0  0  0  0  0  0  0  0  0  0  0  0
   -0.8567    2.3646   -3.5792 S   0  0  0  0  0  0  0  0  0  0  0  0
   -1.9318   -0.2558   -0.7031 N   0  0  0  0  0  2  0  0  0  0  0  0
   -2.9282   -0.9820   -0.1592 C   0  0  0  0  0  3  0  0  0  0  0  0
   -2.6836   -1.5227    0.7661 H   0  0  0  0  0  0  0  0  0  0  0  0
   -4.1992   -1.0223   -0.7421 C   0  0  0  0  0  0  0  0  0  0  0  0
   -4.4471   -0.2942   -1.9234 C   0  0  0  0  0  0  0  0  0  0  0  0
   -5.4405   -0.3195   -2.3930 H   0  0  0  0  0  0  0  0  0  0  0  0
   -3.4106    0.4561   -2.4767 C   0  0  0  0  0  0  0  0  0  0  0  0
   -3.5686    1.0398   -3.3947 H   0  0  0  0  0  0  0  0  0  0  0  0
   -2.1409    0.4799   -1.8567 C   0  0  0  0  0  0  0  0  0  0  0  0
   -0.9834    1.2308   -2.2379 C   0  0  0  0  0  0  0  0  0  0  0  0
    0.1645    1.1347   -1.4381 C   0  0  0  0  0  3  0  0  0  0  0  0
    1.1865    2.0401   -1.9099 C   0  0  0  0  0  0  0  0  0  0  0  0
    0.7760    2.7684   -3.0773 C   0  0  0  0  0  0  0  0  0  0  0  0
    1.6206    3.6987   -3.7064 C   0  0  0  0  0  0  0  0  0  0  0  0
    1.2884    4.2445   -4.6018 H   0  0  0  0  0  0  0  0  0  0  0  0
    2.8910    3.9197   -3.1629 C   0  0  0  0  0  0  0  0  0  0  0  0
    3.5643    4.6469   -3.6415 H   0  0  0  0  0  0  0  0  0  0  0  0
    3.3141    3.2269   -2.0053 C   0  0  0  0  0  0  0  0  0  0  0  0
    4.3133    3.4237   -1.5890 H   0  0  0  0  0  0  0  0  0  0  0  0
    2.4765    2.2994   -1.3843 C   0  0  0  0  0  0  0  0  0  0  0  0
    2.8049    1.7712   -0.4807 H   0  0  0  0  0  0  0  0  0  0  0  0
  2 15  1  0  0  0  0
  2 12  1  0  0  0  0
  3  4  1  0  0  0  0
  4  5  1  0  0  0  0
  6  4  1  0  0  0  0
  6  1  1  0  0  0  0
  7  6  2  0  0  0  0
  8  7  1  0  0  0  0
  9  7  1  0  0  0  0
  9 11  2  0  0  0  0
 10  9  1  0  0  0  0
 11  3  1  0  0  0  0
 12 11  1  0  0  0  0
 12 13  2  0  0  0  0
 14 13  1  0  0  0  0
 14 22  1  0  0  0  0
 15 14  2  0  0  0  0
 16 18  2  0  0  0  0
 16 15  1  0  0  0  0
 17 16  1  0  0  0  0
 18 20  1  0  0  0  0
 19 18  1  0  0  0  0
 20 21  1  0  0  0  0
 20 22  2  0  0  0  0
 22 23  1  0  0  0  0
M  END
