3,8
q = -2.0, confidence = 0.902

 34 34  0  0  1  0  0  0  0  0999 V2000
   -2.3129   -0.6189   -0.0249 Si  0  0  0  0  0  0  0  0  0  0  0  0
   -2.2667    1.1299    0.1947 N   0  0  0  0  0  0  0  0  0  0  0  0
    0.5175    1.3377   -0.8979 N   0  0  0  0  0  2  0  0  0  0  0  0
   -0.5925   -1.3999   -0.2442 C   0  0  1  0  0  3  0  0  0  0  0  0
    0.2090   -1.5236   -1.4346 C   0  0  0  0  0  0  0  0  0  0  0  0
    1.4405   -2.1514   -1.1119 C   0  0  0  0  0  0  0  0  0  0  0  0
    1.4351   -2.4215    0.2869 C   0  0  0  0  0  3  0  0  0  0  0  0
    0.1907   -1.9734    0.8121 C   0  0  0  0  0  3  0  0  0  0  0  0
   -3.3182   -0.9994   -1.5768 C   0  0  0  0  0  0  0  0  0  0  0  0
   -3.0871   -1.4136    1.4963 C   0  0  0  0  0  0  0  0  0  0  0  0
   -1.9191    1.9847   -0.9276 C   0  0  0  0  0  0  0  0  0  0  0  0
   -0.6521    1.5523   -1.7148 C   0  0  0  0  0  0  0  0  0  0  0  0
   -2.0937    1.7341    1.5093 C   0  0  0  0  0  0  0  0  0  0  0  0
    1.2247    2.5637   -0.5430 C   0  0  0  0  0  0  0  0  0  0  0  0
   -0.0721   -1.1850   -2.4394 H   0  0  0  0  0  0  0  0  0  0  0  0
    2.2740   -2.3355   -1.7992 H   0  0  0  0  0  0  0  0  0  0  0  0
    2.2683   -2.8427    0.8637 H   0  0  0  0  0  0  0  0  0  0  0  0
   -0.0975   -2.0135    1.8687 H   0  0  0  0  0  0  0  0  0  0  0  0
   -2.8725   -0.5684   -2.4957 H   0  0  0  0  0  0  0  0  0  0  0  0
   -4.3458   -0.5938   -1.4781 H   0  0  0  0  0  0  0  0  0  0  0  0
   -3.3888   -2.0961   -1.7263 H   0  0  0  0  0  0  0  0  0  0  0  0
   -4.0843   -0.9768    1.7057 H   0  0  0  0  0  0  0  0  0  0  0  0
   -2.4609   -1.2921    2.4027 H   0  0  0  0  0  0  0  0  0  0  0  0
   -3.2155   -2.5011    1.3210 H   0  0  0  0  0  0  0  0  0  0  0  0
   -1.7837    3.0212   -0.5533 H   0  0  0  0  0  0  0  0  0  0  0  0
   -2.7480    2.0363   -1.6737 H   0  0  0  0  0  0  0  0  0  0  0  0
   -0.8851    0.6209   -2.2662 H   0  0  0  0  0  0  0  0  0  0  0  0
   -0.4443    2.3242   -2.4935 H   0  0  0  0  0  0  0  0  0  0  0  0
   -2.4632    1.0518    2.2990 H   0  0  0  0  0  0  0  0  0  0  0  0
   -2.6882    2.6726    1.5907 H   0  0  0  0  0  0  0  0  0  0  0  0
   -1.0328    1.9675    1.7583 H   0  0  0  0  0  0  0  0  0  0  0  0
    2.0873    2.3508    0.1209 H   0  0  0  0  0  0  0  0  0  0  0  0
    0.5646    3.2757    0.0030 H   0  0  0  0  0  0  0  0  0  0  0  0
    1.6271    3.0662   -1.4527 H   0  0  0  0  0  0  0  0  0  0  0  0
  1  2  1  0  0  0  0
  1 10  1  0  0  0  0
  2 13  1  0  0  0  0
  3 14  1  0  0  0  0
  4  1  1  1  0  0  0
  4  8  1  0  0  0  0
  5  6  2  0  0  0  0
  5  4  1  0  0  0  0
  6  7  1  0  0  0  0
  7  8  1  0  0  0  0
  7 17  1  0  0  0  0
  8 18  1  0  0  0  0
  9 20  1  0  0  0  0
  9  1  1  0  0  0  0
 10 22  1  0  0  0  0
 10 23  1  0  0  0  0
 11 25  1  0  0  0  0
 11  2  1  0  0  0  0
 12 11  1  0  0  0  0
 12  3  1  0  0  0  0
 13 30  1  0  0  0  0
 13 31  1  0  0  0  0
 13 29  1  0  0  0  0
 14 33  1  0  0  0  0
 14 32  1  0  0  0  0
 15  5  1  0  0  0  0
 16  6  1  0  0  0  0
 19  9  1  0  0  0  0
 21  9  1  0  0  0  0
 24 10  1  0  0  0  0
 26 11  1  0  0  0  0
 27 12  1  0  0  0  0
 28 12  1  0  0  0  0
 34 14  1  0  0  0  0
M  END
