1,2
q = -1.0

 17 17  0  0  0  0  0  0  0  0999 V2000
    3.1289    0.1591   -0.3509 C   0  0  0  0  0  2  0  0  0  0  0  0
    1.6343    1.8122    1.0564 N   0  0  0  0  0  2  0  0  0  0  0  0
    3.7678    1.2807    0.2464 C   0  0  0  0  0  0  0  0  0  0  0  0
    2.9524    2.1395    1.0136 N   0  0  0  0  0  0  0  0  0  0  0  0
    3.4520    3.2462    1.8025 C   0  0  0  0  0  0  0  0  0  0  0  0
    3.9575    3.9835    1.1479 H   0  0  0  0  0  0  0  0  0  0  0  0
    4.1706    2.8855    2.5662 H   0  0  0  0  0  0  0  0  0  0  0  0
    2.5829    3.7134    2.2984 H   0  0  0  0  0  0  0  0  0  0  0  0
    3.9466   -0.7197   -1.0812 C   0  0  0  0  0  3  0  0  0  0  0  0
    3.5024   -1.6181   -1.5384 H   0  0  0  0  0  0  0  0  0  0  0  0
    0.9042    2.4451    1.8073 O   0  0  0  0  0  1  0  0  0  0  0  0
    5.3276   -0.4904   -1.2292 C   0  0  0  0  0  0  0  0  0  0  0  0
    5.9380   -1.1973   -1.8121 H   0  0  0  0  0  0  0  0  0  0  0  0
    5.9273    0.6288   -0.6338 C   0  0  0  0  0  0  0  0  0  0  0  0
    7.0070    0.8091   -0.7436 H   0  0  0  0  0  0  0  0  0  0  0  0
    5.1481    1.5244    0.1132 C   0  0  0  0  0  0  0  0  0  0  0  0
    5.6185    2.3983    0.5856 H   0  0  0  0  0  0  0  0  0  0  0  0
  1  3  1  0  0  0  0
  2 11  1  0  0  0  0
  3  4  1  0  0  0  0
  4  2  1  0  0  0  0
  4  5  1  0  0  0  0
  5  8  1  0  0  0  0
  5  7  1  0  0  0  0
  6  5  1  0  0  0  0
  9  1  1  0  0  0  0
 10  9  1  0  0  0  0
 12  9  1  0  0  0  0
 12 14  2  0  0  0  0
 13 12  1  0  0  0  0
 14 16  1  0  0  0  0
 15 14  1  0  0  0  0
 16  3  2  0  0  0  0
 16 17  1  0  0  0  0
M  END
