1,19
q = -1.0, confidence = 0.0

 32 33  0  0  0  0  0  0  0  0999 V2000
    2.1059   -1.2746    0.0028 N   0  0  0  0  0  2  0  0  0  0  0  0
    3.4563   -1.3368    0.0381 C   0  0  0  0  0  0  0  0  0  0  0  0
    3.9583   -0.3568    0.1033 H   0  0  0  0  0  0  0  0  0  0  0  0
    4.1367   -2.5554   -0.0125 C   0  0  0  0  0  0  0  0  0  0  0  0
    5.2350   -2.5617    0.0180 H   0  0  0  0  0  0  0  0  0  0  0  0
    3.3938   -3.7441   -0.1041 C   0  0  0  0  0  0  0  0  0  0  0  0
    3.9004   -4.7200   -0.1488 H   0  0  0  0  0  0  0  0  0  0  0  0
    1.9989   -3.6746   -0.1377 C   0  0  0  0  0  0  0  0  0  0  0  0
    1.3923   -4.5877   -0.2063 H   0  0  0  0  0  0  0  0  0  0  0  0
    1.3526   -2.4246   -0.0815 C   0  0  0  0  0  0  0  0  0  0  0  0
   -0.0871   -2.1891   -0.0814 C   0  0  0  0  0  0  0  0  0  0  0  0
   -1.0631   -3.2020   -0.1187 C   0  0  0  0  0  3  0  0  0  0  0  0
   -0.7659   -4.2602   -0.1895 H   0  0  0  0  0  0  0  0  0  0  0  0
   -2.4246   -2.8813   -0.0604 C   0  0  0  0  0  0  0  0  0  0  0  0
   -3.1615   -3.6940   -0.0965 H   0  0  0  0  0  0  0  0  0  0  0  0
   -2.8427   -1.5378    0.0592 C   0  0  0  0  0  0  0  0  0  0  0  0
   -1.8499   -0.5327    0.0951 C   0  0  0  0  0  0  0  0  0  0  0  0
   -2.1754    0.5119    0.2120 H   0  0  0  0  0  0  0  0  0  0  0  0
   -0.4748   -0.8129    0.0008 C   0  0  0  0  0  3  0  0  0  0  0  0
   -4.3247   -1.1341    0.1607 C   0  0  0  0  0  0  0  0  0  0  0  0
   -4.6664   -0.1538   -0.9854 C   0  0  0  0  0  0  0  0  0  0  0  0
   -5.7327    0.1493   -0.9304 H   0  0  0  0  0  0  0  0  0  0  0  0
   -4.4920   -0.6246   -1.9741 H   0  0  0  0  0  0  0  0  0  0  0  0
   -4.0517    0.7671   -0.9357 H   0  0  0  0  0  0  0  0  0  0  0  0
   -4.5657   -0.4395    1.5207 C   0  0  0  0  0  0  0  0  0  0  0  0
   -3.9378    0.4662    1.6353 H   0  0  0  0  0  0  0  0  0  0  0  0
   -4.3269   -1.1224    2.3607 H   0  0  0  0  0  0  0  0  0  0  0  0
   -5.6278   -0.1314    1.6161 H   0  0  0  0  0  0  0  0  0  0  0  0
   -5.2682   -2.3449    0.0585 C   0  0  0  0  0  0  0  0  0  0  0  0
   -5.0965   -3.0712    0.8781 H   0  0  0  0  0  0  0  0  0  0  0  0
   -5.1503   -2.8785   -0.9062 H   0  0  0  0  0  0  0  0  0  0  0  0
   -6.3222   -2.0077    0.1279 H   0  0  0  0  0  0  0  0  0  0  0  0
  1  2  1  0  0  0  0
  2  3  1  0  0  0  0
  4  5  1  0  0  0  0
  4  2  2  0  0  0  0
  6  4  1  0  0  0  0
  7  6  1  0  0  0  0
  8  6  2  0  0  0  0
  8 10  1  0  0  0  0
  9  8  1  0  0  0  0
 10 11  2  0  0  0  0
 10  1  1  0  0  0  0
 11 19  1  0  0  0  0
 12 11  1  0  0  0  0
 12 14  1  0  0  0  0
 13 12  1  0  0  0  0
 14 16  2  0  0  0  0
 15 14  1  0  0  0  0
 16 17  1  0  0  0  0
 16 20  1  0  0  0  0
 17 18  1  0  0  0  0
 19 17  2  0  0  0  0
 20 25  1  0  0  0  0
 21 24  1  0  0  0  0
 21 22  1  0  0  0  0
 21 20  1  0  0  0  0
 23 21  1  0  0  0  0
 25 28  1  0  0  0  0
 25 26  1  0  0  0  0
 25 27  1  0  0  0  0
 29 32  1  0  0  0  0
 29 20  1  0  0  0  0
 29 30  1  0  0  0  0
 31 29  1  0  0  0  0
M  END
