1,11
q = -1.0, confidence = 0.002

 32 33  0  0  0  0  0  0  0  0999 V2000
   -0.9193    0.7535   -0.0497 N   0  0  0  0  0  2  0  0  0  0  0  0
   -2.2654    0.9205   -0.0526 C   0  0  0  0  0  0  0  0  0  0  0  0
   -2.8002    2.2194   -0.1141 C   0  0  0  0  0  0  0  0  0  0  0  0
   -3.8873    2.3635   -0.1222 H   0  0  0  0  0  0  0  0  0  0  0  0
   -1.9409    3.3270   -0.1562 C   0  0  0  0  0  0  0  0  0  0  0  0
   -2.3556    4.3448   -0.2068 H   0  0  0  0  0  0  0  0  0  0  0  0
   -0.5588    3.1313   -0.1276 C   0  0  0  0  0  0  0  0  0  0  0  0
    0.1334    3.9835   -0.1509 H   0  0  0  0  0  0  0  0  0  0  0  0
   -0.0527    1.8207   -0.0723 C   0  0  0  0  0  0  0  0  0  0  0  0
    1.3550    1.4378   -0.0256 C   0  0  0  0  0  0  0  0  0  0  0  0
    1.6264    0.0342    0.0105 C   0  0  0  0  0  2  0  0  0  0  0  0
    2.9462   -0.4289    0.0782 C   0  0  0  0  0  0  0  0  0  0  0  0
    3.1693   -1.5039    0.1030 H   0  0  0  0  0  0  0  0  0  0  0  0
    3.9832    0.5138    0.1072 C   0  0  0  0  0  0  0  0  0  0  0  0
    5.2529    0.0787    0.1729 F   0  0  0  0  0  0  0  0  0  0  0  0
    3.7504    1.8982    0.0680 C   0  0  0  0  0  0  0  0  0  0  0  0
    4.6029    2.5909    0.0918 H   0  0  0  0  0  0  0  0  0  0  0  0
    2.4310    2.3519    0.0015 C   0  0  0  0  0  0  0  0  0  0  0  0
    2.2388    3.4352   -0.0262 H   0  0  0  0  0  0  0  0  0  0  0  0
   -3.1556   -0.3203    0.1163 C   0  0  0  0  0  0  0  0  0  0  0  0
   -3.3548   -0.5282    1.6381 C   0  0  0  0  0  0  0  0  0  0  0  0
   -2.3794   -0.6704    2.1459 H   0  0  0  0  0  0  0  0  0  0  0  0
   -3.9761   -1.4281    1.8237 H   0  0  0  0  0  0  0  0  0  0  0  0
   -3.8611    0.3444    2.0966 H   0  0  0  0  0  0  0  0  0  0  0  0
   -4.5247   -0.1166   -0.5625 C   0  0  0  0  0  0  0  0  0  0  0  0
   -4.4149    0.0975   -1.6446 H   0  0  0  0  0  0  0  0  0  0  0  0
   -5.1038    0.7072   -0.1019 H   0  0  0  0  0  0  0  0  0  0  0  0
   -5.1334   -1.0361   -0.4544 H   0  0  0  0  0  0  0  0  0  0  0  0
   -2.5117   -1.5908   -0.4817 C   0  0  0  0  0  0  0  0  0  0  0  0
   -2.1284   -1.4434   -1.5109 H   0  0  0  0  0  0  0  0  0  0  0  0
   -3.2561   -2.4117   -0.5232 H   0  0  0  0  0  0  0  0  0  0  0  0
   -1.7236   -2.0415    0.1924 H   0  0  0  0  0  0  0  0  0  0  0  0
  2  1  1  0  0  0  0
  2 20  1  0  0  0  0
  3  2  2  0  0  0  0
  4  3  1  0  0  0  0
  5  7  2  0  0  0  0
  5  3  1  0  0  0  0
  6  5  1  0  0  0  0
  7  9  1  0  0  0  0
  8  7  1  0  0  0  0
  9  1  1  0  0  0  0
  9 10  2  0  0  0  0
 10 18  1  0  0  0  0
 10 11  1  0  0  0  0
 11 12  1  0  0  0  0
 12 13  1  0  0  0  0
 12 14  2  0  0  0  0
 14 15  1  0  0  0  0
 16 17  1  0  0  0  0
 16 14  1  0  0  0  0
 18 16  2  0  0  0  0
 19 18  1  0  0  0  0
 20 21  1  0  0  0  0
 21 23  1  0  0  0  0
 21 24  1  0  0  0  0
 21 22  1  0  0  0  0
 25 28  1  0  0  0  0
 25 27  1  0  0  0  0
 25 20  1  0  0  0  0
 26 25  1  0  0  0  0
 29 20  1  0  0  0  0
 29 32  1  0  0  0  0
 30 29  1  0  0  0  0
 31 29  1  0  0  0  0
M  END
