1,16
q = -1.0, confidence = 0.0

 27 29  0  0  0  0  0  0  0  0999 V2000
   -1.0714   -1.3105    0.0499 N   0  0  0  0  0  2  0  0  0  0  0  0
   -0.2216   -2.3184    0.2137 C   0  0  0  0  0  3  0  0  0  0  0  0
   -0.5728   -3.3458    0.4054 H   0  0  0  0  0  0  0  0  0  0  0  0
    1.1244   -1.9282    0.0629 C   0  0  0  0  0  0  0  0  0  0  0  0
    2.2496   -2.7270    0.1502 O   0  0  0  0  0  0  0  0  0  0  0  0
    3.2878   -1.8874   -0.1541 C   0  0  0  0  0  0  0  0  0  0  0  0
    4.6368   -2.2492   -0.1919 C   0  0  0  0  0  0  0  0  0  0  0  0
    4.9561   -3.2756    0.0370 H   0  0  0  0  0  0  0  0  0  0  0  0
    5.5505   -1.2449   -0.5462 C   0  0  0  0  0  0  0  0  0  0  0  0
    6.6227   -1.4881   -0.5926 H   0  0  0  0  0  0  0  0  0  0  0  0
    5.1228    0.0683   -0.8589 C   0  0  0  0  0  0  0  0  0  0  0  0
    5.8707    0.8204   -1.1513 H   0  0  0  0  0  0  0  0  0  0  0  0
    3.7691    0.4167   -0.8141 C   0  0  0  0  0  0  0  0  0  0  0  0
    3.4363    1.4286   -1.0870 H   0  0  0  0  0  0  0  0  0  0  0  0
    2.8221   -0.5643   -0.4412 C   0  0  0  0  0  0  0  0  0  0  0  0
    1.3893   -0.5969   -0.2747 C   0  0  0  0  0  3  0  0  0  0  0  0
   -2.4640   -1.5005    0.1843 C   0  0  0  0  0  0  0  0  0  0  0  0
   -3.3324   -0.9854   -0.8039 C   0  0  0  0  0  0  0  0  0  0  0  0
   -2.8836   -0.4899   -1.6785 H   0  0  0  0  0  0  0  0  0  0  0  0
   -4.7155   -1.1529   -0.6689 C   0  0  0  0  0  0  0  0  0  0  0  0
   -5.3858   -0.7640   -1.4508 H   0  0  0  0  0  0  0  0  0  0  0  0
   -5.2512   -1.8208    0.4475 C   0  0  0  0  0  0  0  0  0  0  0  0
   -6.3399   -1.9423    0.5507 H   0  0  0  0  0  0  0  0  0  0  0  0
   -4.3885   -2.3296    1.4302 C   0  0  0  0  0  0  0  0  0  0  0  0
   -4.7981   -2.8452    2.3123 H   0  0  0  0  0  0  0  0  0  0  0  0
   -2.9998   -2.1725    1.3044 C   0  0  0  0  0  0  0  0  0  0  0  0
   -2.3205   -2.5436    2.0867 H   0  0  0  0  0  0  0  0  0  0  0  0
  1 17  1  0  0  0  0
  1  2  1  0  0  0  0
  2  3  1  0  0  0  0
  4  5  1  0  0  0  0
  4  2  1  0  0  0  0
  6  5  1  0  0  0  0
  7  6  1  0  0  0  0
  7  8  1  0  0  0  0
  9  7  2  0  0  0  0
 10  9  1  0  0  0  0
 11 13  2  0  0  0  0
 11  9  1  0  0  0  0
 12 11  1  0  0  0  0
 13 15  1  0  0  0  0
 14 13  1  0  0  0  0
 15 16  1  0  0  0  0
 15  6  2  0  0  0  0
 16  4  2  0  0  0  0
 17 26  1  0  0  0  0
 18 20  1  0  0  0  0
 18 17  2  0  0  0  0
 19 18  1  0  0  0  0
 20 22  2  0  0  0  0
 21 20  1  0  0  0  0
 22 23  1  0  0  0  0
 22 24  1  0  0  0  0
 24 25  1  0  0  0  0
 26 24  2  0  0  0  0
 26 27  1  0  0  0  0
M  END
