1,11
q = -1.0, confidence = 0.02

 24 25  0  0  1  0  0  0  0  0999 V2000
   -0.9761   -0.7459   -0.2977 N   0  0  0  0  0  2  0  0  0  0  0  0
   -1.3198   -1.7166   -0.2854 H   0  0  0  0  0  0  0  0  0  0  0  0
   -1.5271    1.4910   -0.2296 C   0  0  0  0  0  0  0  0  0  0  0  0
   -5.7042   -0.2049    0.5318 C   0  0  0  0  0  0  0  0  0  0  0  0
   -6.4591    0.2905    1.1621 H   0  0  0  0  0  0  0  0  0  0  0  0
   -2.3361    2.6511   -0.3447 C   0  0  0  0  0  0  0  0  0  0  0  0
   -3.4247    2.5461   -0.4660 H   0  0  0  0  0  0  0  0  0  0  0  0
   -1.9954    0.1257   -0.2688 C   0  0  2  0  0  3  0  0  0  0  0  0
    0.4460    2.8943   -0.1347 C   0  0  0  0  0  0  0  0  0  0  0  0
    1.5352    3.0396   -0.0633 H   0  0  0  0  0  0  0  0  0  0  0  0
   -0.0879    1.5818   -0.1396 C   0  0  0  0  0  3  0  0  0  0  0  0
   -4.3928    0.2863    0.5122 C   0  0  0  0  0  0  0  0  0  0  0  0
   -4.1212    1.1438    1.1444 H   0  0  0  0  0  0  0  0  0  0  0  0
   -3.3917   -0.3361   -0.2770 C   0  0  0  0  0  0  0  0  0  0  0  0
   -3.7675   -1.4708   -1.0426 C   0  0  0  0  0  0  0  0  0  0  0  0
   -3.0190   -1.9505   -1.6933 H   0  0  0  0  0  0  0  0  0  0  0  0
   -0.3564    4.0409   -0.2246 C   0  0  0  0  0  0  0  0  0  0  0  0
    0.1129    5.0379   -0.2215 H   0  0  0  0  0  0  0  0  0  0  0  0
   -1.7576    3.9204   -0.3376 C   0  0  0  0  0  0  0  0  0  0  0  0
   -2.3880    4.8179   -0.4307 H   0  0  0  0  0  0  0  0  0  0  0  0
   -5.0782   -1.9622   -1.0171 C   0  0  0  0  0  0  0  0  0  0  0  0
   -5.3438   -2.8380   -1.6295 H   0  0  0  0  0  0  0  0  0  0  0  0
   -6.0573   -1.3310   -0.2314 C   0  0  0  0  0  0  0  0  0  0  0  0
   -7.0891   -1.7132   -0.2150 H   0  0  0  0  0  0  0  0  0  0  0  0
  1  2  1  0  0  0  0
  3 11  1  0  0  0  0
  4  5  1  0  0  0  0
  6 19  1  0  0  0  0
  6  3  2  0  0  0  0
  7  6  1  0  0  0  0
  8  1  1  1  0  0  0
  8  3  1  0  0  0  0
  9 10  1  0  0  0  0
 11  9  2  0  0  0  0
 12  4  1  0  0  0  0
 12 13  1  0  0  0  0
 14  8  1  0  0  0  0
 14 12  2  0  0  0  0
 15 21  2  0  0  0  0
 15 14  1  0  0  0  0
 16 15  1  0  0  0  0
 17 18  1  0  0  0  0
 17  9  1  0  0  0  0
 19 17  2  0  0  0  0
 20 19  1  0  0  0  0
 21 23  1  0  0  0  0
 22 21  1  0  0  0  0
 23 24  1  0  0  0  0
 23  4  2  0  0  0  0
M  END
