1,2
q = -1.0

 30 32  0  0  0  0  0  0  0  0999 V2000
    0.7447    1.5520   -0.0495 N   0  0  0  0  0  2  0  0  0  0  0  0
   -1.4934    0.2386   -0.0658 C   0  0  0  0  0  3  0  0  0  0  0  0
   -2.6903   -0.4633   -0.1663 C   0  0  0  0  0  0  0  0  0  0  0  0
   -2.6827   -1.5536   -0.3224 H   0  0  0  0  0  0  0  0  0  0  0  0
   -3.9590    0.1853   -0.0961 C   0  0  0  0  0  0  0  0  0  0  0  0
   -5.1849   -0.5411   -0.1714 C   0  0  0  0  0  0  0  0  0  0  0  0
   -5.1409   -1.6353   -0.2899 H   0  0  0  0  0  0  0  0  0  0  0  0
   -6.4085    0.1078   -0.0991 C   0  0  0  0  0  0  0  0  0  0  0  0
   -7.3420   -0.4726   -0.1605 H   0  0  0  0  0  0  0  0  0  0  0  0
   -6.4699    1.5219    0.0508 C   0  0  0  0  0  0  0  0  0  0  0  0
   -7.4476    2.0238    0.1057 H   0  0  0  0  0  0  0  0  0  0  0  0
   -5.3005    2.2616    0.1225 C   0  0  0  0  0  0  0  0  0  0  0  0
   -5.3373    3.3569    0.2339 H   0  0  0  0  0  0  0  0  0  0  0  0
   -4.0242    1.6251    0.0518 C   0  0  0  0  0  0  0  0  0  0  0  0
   -2.8090    2.3517    0.1022 C   0  0  0  0  0  0  0  0  0  0  0  0
   -2.8393    3.4513    0.1760 H   0  0  0  0  0  0  0  0  0  0  0  0
   -1.5836    1.6811    0.0445 C   0  0  0  0  0  0  0  0  0  0  0  0
   -0.3061    2.3366    0.0319 C   0  0  0  0  0  3  0  0  0  0  0  0
   -0.1843    3.4347    0.0487 H   0  0  0  0  0  0  0  0  0  0  0  0
    2.0613    2.0755   -0.0859 C   0  0  0  0  0  0  0  0  0  0  0  0
    2.5352    2.9060    0.9495 C   0  0  0  0  0  0  0  0  0  0  0  0
    1.8705    3.1525    1.7911 H   0  0  0  0  0  0  0  0  0  0  0  0
    3.8552    3.3832    0.9091 C   0  0  0  0  0  0  0  0  0  0  0  0
    4.2272    4.0223    1.7243 H   0  0  0  0  0  0  0  0  0  0  0  0
    4.6975    3.0417   -0.1599 C   0  0  0  0  0  0  0  0  0  0  0  0
    5.7317    3.4163   -0.1884 H   0  0  0  0  0  0  0  0  0  0  0  0
    4.2160    2.2156   -1.1920 C   0  0  0  0  0  0  0  0  0  0  0  0
    4.8718    1.9512   -2.0356 H   0  0  0  0  0  0  0  0  0  0  0  0
    2.9067    1.7220   -1.1582 C   0  0  0  0  0  0  0  0  0  0  0  0
    2.4976    1.0723   -1.9484 H   0  0  0  0  0  0  0  0  0  0  0  0
  1 18  1  0  0  0  0
  2 17  1  0  0  0  0
  3  5  1  0  0  0  0
  3  2  2  0  0  0  0
  4  3  1  0  0  0  0
  5 14  1  0  0  0  0
  6  8  1  0  0  0  0
  6  5  2  0  0  0  0
  7  6  1  0  0  0  0
  8 10  2  0  0  0  0
  9  8  1  0  0  0  0
 10 11  1  0  0  0  0
 10 12  1  0  0  0  0
 12 13  1  0  0  0  0
 14 15  1  0  0  0  0
 14 12  2  0  0  0  0
 15 16  1  0  0  0  0
 17 15  2  0  0  0  0
 18 17  1  0  0  0  0
 18 19  1  0  0  0  0
 20  1  1  0  0  0  0
 20 21  1  0  0  0  0
 21 22  1  0  0  0  0
 23 21  2  0  0  0  0
 23 24  1  0  0  0  0
 25 23  1  0  0  0  0
 26 25  1  0  0  0  0
 27 29  1  0  0  0  0
 27 25  2  0  0  0  0
 28 27  1  0  0  0  0
 29 20  2  0  0  0  0
 30 29  1  0  0  0  0
M  END
