1,3
q = -1.0, confidence = 0.002

 34 36  0  0  0  0  0  0  0  0999 V2000
   -0.6492   -1.2767    0.0511 N   0  0  0  0  0  2  0  0  0  0  0  0
   -6.1488   -2.2958    0.1915 O   0  0  0  0  0  0  0  0  0  0  0  0
    1.7904   -0.4003   -0.0853 C   0  0  0  0  0  3  0  0  0  0  0  0
    3.0901    0.0639   -0.2589 C   0  0  0  0  0  0  0  0  0  0  0  0
    3.2753    1.1287   -0.4715 H   0  0  0  0  0  0  0  0  0  0  0  0
    4.2213   -0.8030   -0.1905 C   0  0  0  0  0  0  0  0  0  0  0  0
    5.5553   -0.3190   -0.3393 C   0  0  0  0  0  0  0  0  0  0  0  0
    5.7069    0.7577   -0.5154 H   0  0  0  0  0  0  0  0  0  0  0  0
    6.6423   -1.1775   -0.2662 C   0  0  0  0  0  0  0  0  0  0  0  0
    7.6629   -0.7823   -0.3848 H   0  0  0  0  0  0  0  0  0  0  0  0
    6.4502   -2.5697   -0.0418 C   0  0  0  0  0  0  0  0  0  0  0  0
    7.3213   -3.2399    0.0131 H   0  0  0  0  0  0  0  0  0  0  0  0
    5.1688   -3.0773    0.1025 C   0  0  0  0  0  0  0  0  0  0  0  0
    5.0095   -4.1541    0.2719 H   0  0  0  0  0  0  0  0  0  0  0  0
    4.0282   -2.2212    0.0331 C   0  0  0  0  0  0  0  0  0  0  0  0
    2.7031   -2.7086    0.1569 C   0  0  0  0  0  0  0  0  0  0  0  0
    2.5354   -3.7902    0.2886 H   0  0  0  0  0  0  0  0  0  0  0  0
    1.6192   -1.8279    0.0979 C   0  0  0  0  0  0  0  0  0  0  0  0
    0.2431   -2.2364    0.1485 C   0  0  0  0  0  3  0  0  0  0  0  0
   -0.0762   -3.2918    0.2200 H   0  0  0  0  0  0  0  0  0  0  0  0
   -2.0392   -1.5497    0.0696 C   0  0  0  0  0  0  0  0  0  0  0  0
   -2.6278   -2.2818    1.1233 C   0  0  0  0  0  0  0  0  0  0  0  0
   -1.9971   -2.6483    1.9473 H   0  0  0  0  0  0  0  0  0  0  0  0
   -4.0061   -2.5110    1.1365 C   0  0  0  0  0  0  0  0  0  0  0  0
   -4.4857   -3.0650    1.9561 H   0  0  0  0  0  0  0  0  0  0  0  0
   -4.8199   -2.0222    0.0913 C   0  0  0  0  0  0  0  0  0  0  0  0
   -4.2292   -1.2936   -0.9656 C   0  0  0  0  0  0  0  0  0  0  0  0
   -4.8373   -0.9094   -1.7954 H   0  0  0  0  0  0  0  0  0  0  0  0
   -2.8502   -1.0516   -0.9674 C   0  0  0  0  0  0  0  0  0  0  0  0
   -2.3639   -0.4895   -1.7808 H   0  0  0  0  0  0  0  0  0  0  0  0
   -7.0116   -1.8232   -0.8258 C   0  0  0  0  0  0  0  0  0  0  0  0
   -6.9968   -0.7124   -0.9001 H   0  0  0  0  0  0  0  0  0  0  0  0
   -8.0308   -2.1508   -0.5491 H   0  0  0  0  0  0  0  0  0  0  0  0
   -6.7531   -2.2491   -1.8212 H   0  0  0  0  0  0  0  0  0  0  0  0
  1 21  1  0  0  0  0
  1 19  1  0  0  0  0
  3 18  1  0  0  0  0
  4  6  1  0  0  0  0
  4  3  2  0  0  0  0
  5  4  1  0  0  0  0
  6 15  1  0  0  0  0
  7  9  1  0  0  0  0
  7  6  2  0  0  0  0
  8  7  1  0  0  0  0
  9 11  2  0  0  0  0
 10  9  1  0  0  0  0
 11 12  1  0  0  0  0
 11 13  1  0  0  0  0
 13 14  1  0  0  0  0
 15 13  2  0  0  0  0
 15 16  1  0  0  0  0
 16 17  1  0  0  0  0
 18 19  1  0  0  0  0
 18 16  2  0  0  0  0
 19 20  1  0  0  0  0
 21 22  1  0  0  0  0
 22 24  2  0  0  0  0
 22 23  1  0  0  0  0
 24 25  1  0  0  0  0
 26  2  1  0  0  0  0
 26 24  1  0  0  0  0
 27 26  2  0  0  0  0
 28 27  1  0  0  0  0
 29 27  1  0  0  0  0
 29 21  2  0  0  0  0
 30 29  1  0  0  0  0
 31 33  1  0  0  0  0
 31  2  1  0  0  0  0
 32 31  1  0  0  0  0
 34 31  1  0  0  0  0
M  END
