1,11
q = -1.0

 31 32  0  0  1  0  0  0  0  0999 V2000
    0.4387   -0.9360   -1.3476 C   0  0  0  0  0  3  0  0  0  0  0  0
   -0.4447   -1.6664   -2.1647 C   0  0  0  0  0  0  0  0  0  0  0  0
   -1.5354   -1.5535   -2.1029 H   0  0  0  0  0  0  0  0  0  0  0  0
    0.1071   -2.5623   -3.0866 C   0  0  0  0  0  0  0  0  0  0  0  0
    1.4038   -2.7904   -3.2588 N   0  0  0  0  0  0  0  0  0  0  0  0
    2.2302   -2.1151   -2.4871 C   0  0  0  0  0  0  0  0  0  0  0  0
    1.8464   -1.1775   -1.5075 C   0  0  0  0  0  0  0  0  0  0  0  0
   -0.7136   -3.2664   -3.8803 F   0  0  0  0  0  0  0  0  0  0  0  0
    3.5420   -2.3760   -2.6886 F   0  0  0  0  0  0  0  0  0  0  0  0
    2.7221   -0.4322   -0.6078 C   0  0  1  0  0  3  0  0  0  0  0  0
    2.0318    0.3982    0.2487 N   0  0  0  0  0  2  0  0  0  0  0  0
    2.7048    1.1227    1.1645 C   0  0  0  0  0  0  0  0  0  0  0  0
    2.0812    1.7471    1.8208 H   0  0  0  0  0  0  0  0  0  0  0  0
    4.0951    1.0761    1.2803 C   0  0  0  0  0  0  0  0  0  0  0  0
    4.5749    1.6924    2.0503 H   0  0  0  0  0  0  0  0  0  0  0  0
    4.8446    0.2485    0.4189 C   0  0  0  0  0  0  0  0  0  0  0  0
    4.1235   -0.5037   -0.5266 C   0  0  0  0  0  0  0  0  0  0  0  0
    4.6405   -1.1723   -1.2240 H   0  0  0  0  0  0  0  0  0  0  0  0
    6.3742    0.1387    0.4791 C   0  0  0  0  0  0  0  0  0  0  0  0
    6.7591   -1.3297    0.7732 C   0  0  0  0  0  0  0  0  0  0  0  0
    6.3443   -1.6629    1.7458 H   0  0  0  0  0  0  0  0  0  0  0  0
    7.8626   -1.4336    0.8152 H   0  0  0  0  0  0  0  0  0  0  0  0
    6.3849   -2.0189   -0.0092 H   0  0  0  0  0  0  0  0  0  0  0  0
    6.9598    0.5651   -0.8869 C   0  0  0  0  0  0  0  0  0  0  0  0
    6.5896   -0.0748   -1.7119 H   0  0  0  0  0  0  0  0  0  0  0  0
    8.0661    0.4865   -0.8689 H   0  0  0  0  0  0  0  0  0  0  0  0
    6.6925    1.6145   -1.1244 H   0  0  0  0  0  0  0  0  0  0  0  0
    6.9738    1.0354    1.5753 C   0  0  0  0  0  0  0  0  0  0  0  0
    6.7457    2.1068    1.4035 H   0  0  0  0  0  0  0  0  0  0  0  0
    8.0767    0.9279    1.5842 H   0  0  0  0  0  0  0  0  0  0  0  0
    6.6052    0.7583    2.5835 H   0  0  0  0  0  0  0  0  0  0  0  0
  2  3  1  0  0  0  0
  2  1  2  0  0  0  0
  4  2  1  0  0  0  0
  5  4  2  0  0  0  0
  5  6  1  0  0  0  0
  6  7  2  0  0  0  0
  7  1  1  0  0  0  0
  8  4  1  0  0  0  0
  9  6  1  0  0  0  0
 10  7  1  1  0  0  0
 10 17  1  0  0  0  0
 10 11  1  0  0  0  0
 11 12  1  0  0  0  0
 12 14  2  0  0  0  0
 12 13  1  0  0  0  0
 14 15  1  0  0  0  0
 16 19  1  0  0  0  0
 16 14  1  0  0  0  0
 17 16  2  0  0  0  0
 18 17  1  0  0  0  0
 19 20  1  0  0  0  0
 19 28  1  0  0  0  0
 20 22  1  0  0  0  0
 20 21  1  0  0  0  0
 23 20  1  0  0  0  0
 24 26  1  0  0  0  0
 24 19  1  0  0  0  0
 25 24  1  0  0  0  0
 27 24  1  0  0  0  0
 28 30  1  0  0  0  0
 28 31  1  0  0  0  0
 29 28  1  0  0  0  0
M  END
