1,23
q = -1.0, confidence = 0.0

 29 30  0  0  0  0  0  0  0  0999 V2000
   -0.3129    2.1550   -0.1448 N   0  0  0  0  0  2  0  0  0  0  0  0
   -6.4261    0.3527    0.1878 F   0  0  0  0  0  0  0  0  0  0  0  0
   -6.2205   -1.7450   -0.4018 F   0  0  0  0  0  0  0  0  0  0  0  0
    0.3910    3.3049   -0.2669 C   0  0  0  0  0  0  0  0  0  0  0  0
    1.4710    3.1735   -0.4277 H   0  0  0  0  0  0  0  0  0  0  0  0
   -5.9435   -1.1628    1.6790 F   0  0  0  0  0  0  0  0  0  0  0  0
   -0.2180    4.5520   -0.1653 C   0  0  0  0  0  0  0  0  0  0  0  0
    0.3967    5.4575   -0.2734 H   0  0  0  0  0  0  0  0  0  0  0  0
   -0.3183   -2.4340   -1.7342 F   0  0  0  0  0  0  0  0  0  0  0  0
   -1.6075    4.6429    0.0798 C   0  0  0  0  0  0  0  0  0  0  0  0
   -2.1215   -3.6042   -1.4325 F   0  0  0  0  0  0  0  0  0  0  0  0
   -2.3156    3.4382    0.1953 C   0  0  0  0  0  0  0  0  0  0  0  0
   -3.3992    3.4571    0.3774 H   0  0  0  0  0  0  0  0  0  0  0  0
   -0.7073   -3.3943    0.1992 F   0  0  0  0  0  0  0  0  0  0  0  0
   -1.6648    2.1974    0.0743 C   0  0  0  0  0  0  0  0  0  0  0  0
   -2.2878    0.8759    0.0997 C   0  0  0  0  0  0  0  0  0  0  0  0
   -3.6723    0.7090    0.2635 C   0  0  0  0  0  3  0  0  0  0  0  0
   -4.3259    1.5697    0.4640 H   0  0  0  0  0  0  0  0  0  0  0  0
   -4.2377   -0.5633    0.1451 C   0  0  0  0  0  0  0  0  0  0  0  0
   -3.4142   -1.6423   -0.2068 C   0  0  0  0  0  0  0  0  0  0  0  0
   -3.8659   -2.6270   -0.3859 H   0  0  0  0  0  0  0  0  0  0  0  0
   -2.0261   -1.4825   -0.3666 C   0  0  0  0  0  0  0  0  0  0  0  0
   -1.3928   -0.2285   -0.1374 C   0  0  0  0  0  3  0  0  0  0  0  0
   -2.2870    5.9780    0.2076 C   0  0  0  0  0  0  0  0  0  0  0  0
   -2.1400    6.5864   -0.7087 H   0  0  0  0  0  0  0  0  0  0  0  0
   -1.8585    6.5606    1.0494 H   0  0  0  0  0  0  0  0  0  0  0  0
   -3.3744    5.8723    0.3808 H   0  0  0  0  0  0  0  0  0  0  0  0
   -5.7069   -0.7797    0.3977 C   0  0  0  0  0  0  0  0  0  0  0  0
   -1.2800   -2.7183   -0.8304 C   0  0  0  0  0  0  0  0  0  0  0  0
  1 15  1  0  0  0  0
  2 28  1  0  0  0  0
  3 28  1  0  0  0  0
  4  7  2  0  0  0  0
  4  1  1  0  0  0  0
  5  4  1  0  0  0  0
  7 10  1  0  0  0  0
  8  7  1  0  0  0  0
  9 29  1  0  0  0  0
 10 12  2  0  0  0  0
 10 24  1  0  0  0  0
 11 29  1  0  0  0  0
 12 13  1  0  0  0  0
 15 16  2  0  0  0  0
 15 12  1  0  0  0  0
 16 17  1  0  0  0  0
 17 18  1  0  0  0  0
 19 17  1  0  0  0  0
 19 28  1  0  0  0  0
 20 19  2  0  0  0  0
 21 20  1  0  0  0  0
 22 20  1  0  0  0  0
 22 23  2  0  0  0  0
 23 16  1  0  0  0  0
 24 27  1  0  0  0  0
 24 26  1  0  0  0  0
 25 24  1  0  0  0  0
 28  6  1  0  0  0  0
 29 22  1  0  0  0  0
 29 14  1  0  0  0  0
M  END
