1,2
q = -1.0, confidence = 0.0

 25 26  0  0  0  0  0  0  0  0999 V2000
   -0.1957   -1.6374    0.0002 N   0  0  0  0  0  0  0  0  0  0  0  0
   -0.7784    1.1001    0.0001 C   0  0  0  0  0  3  0  0  0  0  0  0
   -1.8658    0.1713    0.0000 C   0  0  0  0  0  0  0  0  0  0  0  0
   -1.6161   -1.2239   -0.0001 C   0  0  0  0  0  0  0  0  0  0  0  0
   -2.6521   -2.1467   -0.0004 C   0  0  0  0  0  0  0  0  0  0  0  0
   -2.4515   -3.2278   -0.0005 H   0  0  0  0  0  0  0  0  0  0  0  0
   -3.9944   -1.6816   -0.0005 C   0  0  0  0  0  0  0  0  0  0  0  0
   -4.8139   -2.4153   -0.0007 H   0  0  0  0  0  0  0  0  0  0  0  0
   -4.2759   -0.3225   -0.0002 C   0  0  0  0  0  0  0  0  0  0  0  0
   -5.3193    0.0284   -0.0002 H   0  0  0  0  0  0  0  0  0  0  0  0
   -3.2275    0.6431    0.0000 C   0  0  0  0  0  0  0  0  0  0  0  0
   -3.4501    2.0504    0.0002 C   0  0  0  0  0  0  0  0  0  0  0  0
   -4.4847    2.4261    0.0003 H   0  0  0  0  0  0  0  0  0  0  0  0
   -2.3776    2.9306    0.0003 C   0  0  0  0  0  0  0  0  0  0  0  0
   -2.5603    4.0163    0.0004 H   0  0  0  0  0  0  0  0  0  0  0  0
   -1.0326    2.4618    0.0002 C   0  0  0  0  0  0  0  0  0  0  0  0
   -0.1939    3.1731    0.0002 H   0  0  0  0  0  0  0  0  0  0  0  0
    0.1443   -2.4178    1.2262 C   0  0  0  0  0  0  0  0  0  0  0  0
   -0.1409   -1.8284    2.1162 H   0  0  0  0  0  0  0  0  0  0  0  0
    1.2378   -2.5910    1.2234 H   0  0  0  0  0  0  0  0  0  0  0  0
   -0.4056   -3.3811    1.2243 H   0  0  0  0  0  0  0  0  0  0  0  0
    0.1448   -2.4187   -1.2251 C   0  0  0  0  0  0  0  0  0  0  0  0
   -0.4048   -3.3822   -1.2224 H   0  0  0  0  0  0  0  0  0  0  0  0
    1.2383   -2.5915   -1.2219 H   0  0  0  0  0  0  0  0  0  0  0  0
   -0.1405   -1.8302   -2.1156 H   0  0  0  0  0  0  0  0  0  0  0  0
  1 18  1  0  0  0  0
  2 16  1  0  0  0  0
  3 11  1  0  0  0  0
  3  2  2  0  0  0  0
  4  3  1  0  0  0  0
  4  1  1  0  0  0  0
  5  4  2  0  0  0  0
  6  5  1  0  0  0  0
  7  5  1  0  0  0  0
  7  9  2  0  0  0  0
  8  7  1  0  0  0  0
  9 10  1  0  0  0  0
  9 11  1  0  0  0  0
 11 12  2  0  0  0  0
 12 13  1  0  0  0  0
 12 14  1  0  0  0  0
 14 15  1  0  0  0  0
 16 14  2  0  0  0  0
 17 16  1  0  0  0  0
 18 19  1  0  0  0  0
 20 18  1  0  0  0  0
 21 18  1  0  0  0  0
 22 23  1  0  0  0  0
 22 24  1  0  0  0  0
 22  1  1  0  0  0  0
 25 22  1  0  0  0  0
M  END
