2,3
q = -1.0

 34 34  0  0  0  0  0  0  0  0999 V2000
    1.1330   -2.0405    1.2085 Si  0  0  0  0  0  0  0  0  0  0  0  0
    1.5691    1.7963    0.0408 N   0  0  0  0  0  0  0  0  0  0  0  0
    1.1513   -1.0110   -0.4093 C   0  0  0  0  0  3  0  0  0  0  0  0
    2.4857   -0.3890   -0.6676 C   0  0  0  0  0  0  0  0  0  0  0  0
    2.7226    0.9675   -0.3495 C   0  0  0  0  0  0  0  0  0  0  0  0
    4.0027    1.5369   -0.4756 C   0  0  0  0  0  0  0  0  0  0  0  0
    5.0729    0.7738   -0.9605 C   0  0  0  0  0  0  0  0  0  0  0  0
    4.8484   -0.5622   -1.3353 C   0  0  0  0  0  0  0  0  0  0  0  0
    3.5778   -1.1289   -1.1890 C   0  0  0  0  0  0  0  0  0  0  0  0
    1.3412    2.8434   -0.9792 C   0  0  0  0  0  0  0  0  0  0  0  0
    1.7658    2.4057    1.3698 C   0  0  0  0  0  0  0  0  0  0  0  0
   -0.5136   -2.9302    1.4897 C   0  0  0  0  0  0  0  0  0  0  0  0
    2.4865   -3.3803    1.1228 C   0  0  0  0  0  0  0  0  0  0  0  0
    1.5221   -0.9758    2.7330 C   0  0  0  0  0  0  0  0  0  0  0  0
    1.9329    1.6108    2.1165 H   0  0  0  0  0  0  0  0  0  0  0  0
    2.6342    3.1038    1.3847 H   0  0  0  0  0  0  0  0  0  0  0  0
   -0.4219   -3.6216    2.3535 H   0  0  0  0  0  0  0  0  0  0  0  0
   -1.3333   -2.2132    1.6914 H   0  0  0  0  0  0  0  0  0  0  0  0
   -0.8122   -3.5223    0.6016 H   0  0  0  0  0  0  0  0  0  0  0  0
    2.4675   -4.0043    2.0411 H   0  0  0  0  0  0  0  0  0  0  0  0
    2.3325   -4.0557    0.2554 H   0  0  0  0  0  0  0  0  0  0  0  0
    3.4988   -2.9367    1.0336 H   0  0  0  0  0  0  0  0  0  0  0  0
    2.4956   -0.4554    2.6203 H   0  0  0  0  0  0  0  0  0  0  0  0
    0.7304   -0.2177    2.9027 H   0  0  0  0  0  0  0  0  0  0  0  0
    1.5869   -1.6138    3.6388 H   0  0  0  0  0  0  0  0  0  0  0  0
    0.9158   -1.7391   -1.2159 H   0  0  0  0  0  0  0  0  0  0  0  0
    4.1665    2.5938   -0.2150 H   0  0  0  0  0  0  0  0  0  0  0  0
    6.0709    1.2252   -1.0636 H   0  0  0  0  0  0  0  0  0  0  0  0
    5.6736   -1.1672   -1.7416 H   0  0  0  0  0  0  0  0  0  0  0  0
    3.4095   -2.1788   -1.4735 H   0  0  0  0  0  0  0  0  0  0  0  0
    0.4336    3.4230   -0.7215 H   0  0  0  0  0  0  0  0  0  0  0  0
    2.1984    3.5527   -1.0462 H   0  0  0  0  0  0  0  0  0  0  0  0
    1.1911    2.3654   -1.9650 H   0  0  0  0  0  0  0  0  0  0  0  0
    0.8626    2.9756    1.6541 H   0  0  0  0  0  0  0  0  0  0  0  0
  1 12  1  0  0  0  0
  1 14  1  0  0  0  0
  2 11  1  0  0  0  0
  3  1  1  0  0  0  0
  4  3  1  0  0  0  0
  4  5  1  0  0  0  0
  5  2  1  0  0  0  0
  6  5  2  0  0  0  0
  6 27  1  0  0  0  0
  7  6  1  0  0  0  0
  8  9  1  0  0  0  0
  8  7  2  0  0  0  0
  9  4  2  0  0  0  0
 10 31  1  0  0  0  0
 10  2  1  0  0  0  0
 11 16  1  0  0  0  0
 11 34  1  0  0  0  0
 11 15  1  0  0  0  0
 12 18  1  0  0  0  0
 12 17  1  0  0  0  0
 13  1  1  0  0  0  0
 13 20  1  0  0  0  0
 14 24  1  0  0  0  0
 14 25  1  0  0  0  0
 19 12  1  0  0  0  0
 21 13  1  0  0  0  0
 22 13  1  0  0  0  0
 23 14  1  0  0  0  0
 26  3  1  0  0  0  0
 28  7  1  0  0  0  0
 29  8  1  0  0  0  0
 30  9  1  0  0  0  0
 32 10  1  0  0  0  0
 33 10  1  0  0  0  0
M  END
