1,3
q = -1.0

 20 21  0  0  0  0  0  0  0  0999 V2000
    0.7029    1.5276   -0.8034 N   0  0  0  0  0  2  0  0  0  0  0  0
   -0.4282    2.2622   -0.6283 N   0  0  0  0  0  0  0  0  0  0  0  0
   -1.3070    0.1616    0.0347 C   0  0  0  0  0  3  0  0  0  0  0  0
   -2.4039   -0.5919    0.4780 C   0  0  0  0  0  0  0  0  0  0  0  0
   -2.3351   -1.6810    0.6188 H   0  0  0  0  0  0  0  0  0  0  0  0
   -3.6550    0.0056    0.7500 C   0  0  0  0  0  0  0  0  0  0  0  0
   -3.8402    1.3916    0.5607 C   0  0  0  0  0  0  0  0  0  0  0  0
   -4.8212    1.8463    0.7707 H   0  0  0  0  0  0  0  0  0  0  0  0
   -2.7801    2.1776    0.1012 C   0  0  0  0  0  0  0  0  0  0  0  0
   -2.9137    3.2573   -0.0613 H   0  0  0  0  0  0  0  0  0  0  0  0
   -1.5477    1.5520   -0.1511 C   0  0  0  0  0  0  0  0  0  0  0  0
   -0.2239    3.5592   -1.0064 C   0  0  0  0  0  3  0  0  0  0  0  0
   -1.0236    4.3027   -0.9437 H   0  0  0  0  0  0  0  0  0  0  0  0
    1.0941    3.6554   -1.4470 C   0  0  0  0  0  0  0  0  0  0  0  0
    1.5985    4.5485   -1.8273 H   0  0  0  0  0  0  0  0  0  0  0  0
    1.6336    2.3551   -1.3073 C   0  0  0  0  0  0  0  0  0  0  0  0
    2.6259    1.9687   -1.5597 H   0  0  0  0  0  0  0  0  0  0  0  0
   -4.7790   -0.8290    1.2336 C   0  0  0  0  0  0  0  0  0  0  0  0
   -5.7413   -0.2531    1.4019 H   0  0  0  0  0  0  0  0  0  0  0  0
   -4.7203   -2.0299    1.4482 O   0  0  0  0  0  0  0  0  0  0  0  0
  1  2  1  0  0  0  0
  2 11  1  0  0  0  0
  3  4  1  0  0  0  0
  4  5  1  0  0  0  0
  4  6  2  0  0  0  0
  6 18  1  0  0  0  0
  7  6  1  0  0  0  0
  7  8  1  0  0  0  0
  9  7  2  0  0  0  0
 10  9  1  0  0  0  0
 11  3  2  0  0  0  0
 11  9  1  0  0  0  0
 12 13  1  0  0  0  0
 12  2  1  0  0  0  0
 14 16  2  0  0  0  0
 14 12  1  0  0  0  0
 15 14  1  0  0  0  0
 16  1  1  0  0  0  0
 17 16  1  0  0  0  0
 18 19  1  0  0  0  0
 18 20  2  0  0  0  0
M  END
