1,15
q = -1.0

 26 28  0  0  1  0  0  0  0  0999 V2000
    1.7599    0.0140    0.2262 C   0  0  0  0  0  3  0  0  0  0  0  0
    2.0522   -1.1409    0.9479 C   0  0  0  0  0  0  0  0  0  0  0  0
    3.4453   -1.4507    0.7783 C   0  0  0  0  0  0  0  0  0  0  0  0
    4.2934   -2.4786    1.2470 C   0  0  0  0  0  0  0  0  0  0  0  0
    5.6412   -2.4794    0.8702 C   0  0  0  0  0  0  0  0  0  0  0  0
    6.1644   -1.4690    0.0292 C   0  0  0  0  0  0  0  0  0  0  0  0
    5.3483   -0.4357   -0.4542 C   0  0  0  0  0  0  0  0  0  0  0  0
    3.9969   -0.4365   -0.0711 C   0  0  0  0  0  0  0  0  0  0  0  0
    2.9601    0.4396   -0.3853 N   0  0  0  0  0  0  0  0  0  0  0  0
    3.1330    1.6294   -1.1808 C   0  0  0  0  0  0  0  0  0  0  0  0
    2.4659    2.8282   -0.5726 C   0  0  1  0  0  3  0  0  0  0  0  0
    3.0376    4.0293   -0.7535 O   0  0  0  0  0  0  0  0  0  0  0  0
    2.1154    5.0155   -0.1854 C   0  0  0  0  0  0  0  0  0  0  0  0
    1.0108    4.1671    0.4894 C   0  0  0  0  0  0  0  0  0  0  0  0
    1.3539    2.8000    0.0801 N   0  0  0  0  0  2  0  0  0  0  0  0
    1.3360   -1.7103    1.5471 H   0  0  0  0  0  0  0  0  0  0  0  0
    3.8923   -3.2682    1.9010 H   0  0  0  0  0  0  0  0  0  0  0  0
    6.3077   -3.2778    1.2306 H   0  0  0  0  0  0  0  0  0  0  0  0
    7.2273   -1.4935   -0.2547 H   0  0  0  0  0  0  0  0  0  0  0  0
    5.7660    0.3392   -1.1155 H   0  0  0  0  0  0  0  0  0  0  0  0
    2.7271    1.5091   -2.2147 H   0  0  0  0  0  0  0  0  0  0  0  0
    4.2117    1.8516   -1.2853 H   0  0  0  0  0  0  0  0  0  0  0  0
    1.7453    5.6424   -1.0218 H   0  0  0  0  0  0  0  0  0  0  0  0
    2.6932    5.6490    0.5140 H   0  0  0  0  0  0  0  0  0  0  0  0
   -0.0167    4.3935    0.1435 H   0  0  0  0  0  0  0  0  0  0  0  0
    1.0178    4.2324    1.5969 H   0  0  0  0  0  0  0  0  0  0  0  0
  1  2  2  0  0  0  0
  2 16  1  0  0  0  0
  3  2  1  0  0  0  0
  3  4  1  0  0  0  0
  4 17  1  0  0  0  0
  5 18  1  0  0  0  0
  5  4  2  0  0  0  0
  6  5  1  0  0  0  0
  7  8  1  0  0  0  0
  7  6  2  0  0  0  0
  8  3  2  0  0  0  0
  9  8  1  0  0  0  0
  9  1  1  0  0  0  0
 10  9  1  0  0  0  0
 11 10  1  6  0  0  0
 11 15  1  0  0  0  0
 12 11  1  0  0  0  0
 12 13  1  0  0  0  0
 13 14  1  0  0  0  0
 13 24  1  0  0  0  0
 14 26  1  0  0  0  0
 15 14  1  0  0  0  0
 19  6  1  0  0  0  0
 20  7  1  0  0  0  0
 21 10  1  0  0  0  0
 22 10  1  0  0  0  0
 23 13  1  0  0  0  0
 25 14  1  0  0  0  0
M  END
