3,4
q = -1.0

 18 18  0  0  1  0  0  0  0  0999 V2000
   -2.7585   -2.4596    0.4337 O   0  0  0  0  0  0  0  0  0  0  0  0
   -2.2410    3.3816   -1.1109 O   0  0  0  0  0  0  0  0  0  0  0  0
   -1.7316    1.3197   -0.1596 N   0  0  0  0  0  0  0  0  0  0  0  0
   -2.4799   -1.2801    0.3339 C   0  0  0  0  0  3  0  0  0  0  0  0
   -3.6404   -0.2113    0.6477 C   0  0  0  0  0  0  0  0  0  0  0  0
   -2.9976    1.0945    0.7093 C   0  0  1  0  0  3  0  0  0  0  0  0
   -2.0555    1.8730    1.1753 C   0  0  1  0  0  3  0  0  0  0  0  0
   -1.2878    2.6754    2.1240 C   0  0  0  0  0  0  0  0  0  0  0  0
   -1.8138    2.2612   -1.2871 C   0  0  0  0  0  0  0  0  0  0  0  0
   -1.2754    1.6944   -2.5654 C   0  0  0  0  0  0  0  0  0  0  0  0
   -4.3717   -0.3064   -0.1819 H   0  0  0  0  0  0  0  0  0  0  0  0
   -4.1478   -0.4902    1.5933 H   0  0  0  0  0  0  0  0  0  0  0  0
   -1.1774    3.7145    1.7515 H   0  0  0  0  0  0  0  0  0  0  0  0
   -1.7653    2.6851    3.1213 H   0  0  0  0  0  0  0  0  0  0  0  0
   -0.2680    2.2202    2.1813 H   0  0  0  0  0  0  0  0  0  0  0  0
   -1.3576    2.4389   -3.3759 H   0  0  0  0  0  0  0  0  0  0  0  0
   -0.2191    1.3874   -2.3964 H   0  0  0  0  0  0  0  0  0  0  0  0
   -1.8225    0.7648   -2.8272 H   0  0  0  0  0  0  0  0  0  0  0  0
  3  6  1  0  0  0  0
  3  7  1  0  0  0  0
  4  1  2  0  0  0  0
  4  5  1  0  0  0  0
  5 12  1  0  0  0  0
  6  5  1  1  0  0  0
  6  7  1  0  0  0  0
  7  8  1  1  0  0  0
  8 15  1  0  0  0  0
  8 14  1  0  0  0  0
  9  2  2  0  0  0  0
  9  3  1  0  0  0  0
 10 17  1  0  0  0  0
 10  9  1  0  0  0  0
 11  5  1  0  0  0  0
 13  8  1  0  0  0  0
 16 10  1  0  0  0  0
 18 10  1  0  0  0  0
M  END
