1,2
q = -1.0

 18 17  0  0  0  0  0  0  0  0999 V2000
   -1.7978   -0.6021   -0.5943 N   0  0  0  0  0  0  0  0  0  0  0  0
   -1.0177    1.7101    1.0769 C   0  0  0  0  0  3  0  0  0  0  0  0
   -2.4709    0.7002   -0.7552 C   0  0  0  0  0  0  0  0  0  0  0  0
   -1.4990   -1.2436   -1.8675 C   0  0  0  0  0  0  0  0  0  0  0  0
   -2.5344   -1.5095    0.2835 C   0  0  0  0  0  0  0  0  0  0  0  0
   -2.4430    1.5353    0.5333 C   0  0  0  0  0  0  0  0  0  0  0  0
   -0.5031    2.5172    0.5035 H   0  0  0  0  0  0  0  0  0  0  0  0
   -1.0450    2.0652    2.1283 H   0  0  0  0  0  0  0  0  0  0  0  0
   -1.9193    1.2479   -1.5500 H   0  0  0  0  0  0  0  0  0  0  0  0
   -3.5181    0.5583   -1.1270 H   0  0  0  0  0  0  0  0  0  0  0  0
   -0.9248   -0.5517   -2.5143 H   0  0  0  0  0  0  0  0  0  0  0  0
   -2.4210   -1.5472   -2.4249 H   0  0  0  0  0  0  0  0  0  0  0  0
   -0.8846   -2.1507   -1.6959 H   0  0  0  0  0  0  0  0  0  0  0  0
   -2.6724   -1.0504    1.2813 H   0  0  0  0  0  0  0  0  0  0  0  0
   -1.9560   -2.4439    0.4201 H   0  0  0  0  0  0  0  0  0  0  0  0
   -3.5421   -1.7679   -0.1283 H   0  0  0  0  0  0  0  0  0  0  0  0
   -2.9566    2.4993    0.3066 H   0  0  0  0  0  0  0  0  0  0  0  0
   -3.0888    1.0445    1.2951 H   0  0  0  0  0  0  0  0  0  0  0  0
  1  5  1  0  0  0  0
  2  8  1  0  0  0  0
  3  1  1  0  0  0  0
  3  6  1  0  0  0  0
  4 13  1  0  0  0  0
  4  1  1  0  0  0  0
  5 15  1  0  0  0  0
  5 14  1  0  0  0  0
  6  2  1  0  0  0  0
  6 18  1  0  0  0  0
  7  2  1  0  0  0  0
  9  3  1  0  0  0  0
 10  3  1  0  0  0  0
 11  4  1  0  0  0  0
 12  4  1  0  0  0  0
 16  5  1  0  0  0  0
 17  6  1  0  0  0  0
M  END
