1,3
q = -1.0

 21 20  0  0  1  0  0  0  0  0999 V2000
   -1.5845    0.8080   -0.0499 N   0  0  0  0  0  0  0  0  0  0  0  0
   -1.1494   -2.4812    0.7087 C   0  0  0  0  0  0  0  0  0  0  0  0
   -1.0294   -1.4859   -0.4399 C   0  0  0  0  0  3  0  0  0  0  0  0
   -2.1763   -0.4743   -0.6365 C   0  0  1  0  0  0  0  0  0  0  0  0
   -3.5724   -0.8276   -0.1298 C   0  0  0  0  0  0  0  0  0  0  0  0
   -1.7645    2.0037   -0.8887 C   0  0  0  0  0  0  0  0  0  0  0  0
   -1.9370    1.1042    1.3502 C   0  0  0  0  0  0  0  0  0  0  0  0
   -1.2935   -1.9892    1.6933 H   0  0  0  0  0  0  0  0  0  0  0  0
   -1.9971   -3.1940    0.5740 H   0  0  0  0  0  0  0  0  0  0  0  0
   -0.2317   -3.1000    0.7985 H   0  0  0  0  0  0  0  0  0  0  0  0
   -0.8174   -2.0162   -1.3934 H   0  0  0  0  0  0  0  0  0  0  0  0
   -2.2487   -0.2589   -1.7210 H   0  0  0  0  0  0  0  0  0  0  0  0
   -4.2938   -0.0024   -0.3006 H   0  0  0  0  0  0  0  0  0  0  0  0
   -3.5847   -1.0806    0.9480 H   0  0  0  0  0  0  0  0  0  0  0  0
   -3.9436   -1.7146   -0.6812 H   0  0  0  0  0  0  0  0  0  0  0  0
   -1.4691    1.7734   -1.9287 H   0  0  0  0  0  0  0  0  0  0  0  0
   -1.0972    2.8023   -0.5117 H   0  0  0  0  0  0  0  0  0  0  0  0
   -2.8249    2.3477   -0.8691 H   0  0  0  0  0  0  0  0  0  0  0  0
   -1.2535    1.8937    1.7166 H   0  0  0  0  0  0  0  0  0  0  0  0
   -2.9914    1.4523    1.4374 H   0  0  0  0  0  0  0  0  0  0  0  0
   -1.7938    0.2063    1.9774 H   0  0  0  0  0  0  0  0  0  0  0  0
  1  7  1  0  0  0  0
  2 10  1  0  0  0  0
  2  8  1  0  0  0  0
  3  2  1  0  0  0  0
  4 12  1  6  0  0  0
  4  3  1  0  0  0  0
  4  5  1  0  0  0  0
  4  1  1  0  0  0  0
  5 14  1  0  0  0  0
  6 18  1  0  0  0  0
  6 17  1  0  0  0  0
  6  1  1  0  0  0  0
  7 20  1  0  0  0  0
  7 19  1  0  0  0  0
  7 21  1  0  0  0  0
  9  2  1  0  0  0  0
 11  3  1  0  0  0  0
 13  5  1  0  0  0  0
 15  5  1  0  0  0  0
 16  6  1  0  0  0  0
M  END
