2,3
q = -1.0, confidence = 0.0

 24 25  0  0  0  0  0  0  0  0999 V2000
    6.6160    1.2959   -0.2117 Cl  0  0  0  0  0  0  0  0  0  0  0  0
   -1.9091    0.8082   -0.2097 C   0  0  0  0  0  3  0  0  0  0  0  0
    0.6461    1.0548   -0.3658 N   0  0  0  0  0  2  0  0  0  0  0  0
   -5.4851    1.6581   -0.0766 F   0  0  0  0  0  0  0  0  0  0  0  0
   -1.7412    4.4850   -0.6613 F   0  0  0  0  0  0  0  0  0  0  0  0
    4.8702    1.2437   -0.2620 C   0  0  0  0  0  0  0  0  0  0  0  0
    0.0188    2.2266   -0.4632 C   0  0  0  0  0  3  0  0  0  0  0  0
    0.5770    3.1715   -0.5726 H   0  0  0  0  0  0  0  0  0  0  0  0
    2.0594    1.1272   -0.3351 C   0  0  0  0  0  0  0  0  0  0  0  0
    2.8207    0.7527   -1.4605 C   0  0  0  0  0  0  0  0  0  0  0  0
    2.2891    0.4257   -2.3660 H   0  0  0  0  0  0  0  0  0  0  0  0
    4.2205    0.8070   -1.4297 C   0  0  0  0  0  0  0  0  0  0  0  0
    4.8157    0.5185   -2.3076 H   0  0  0  0  0  0  0  0  0  0  0  0
   -3.6518    3.1249   -0.3730 C   0  0  0  0  0  0  0  0  0  0  0  0
   -4.3199    3.9930   -0.4338 H   0  0  0  0  0  0  0  0  0  0  0  0
    4.1283    1.6478    0.8607 C   0  0  0  0  0  0  0  0  0  0  0  0
    4.6513    1.9981    1.7617 H   0  0  0  0  0  0  0  0  0  0  0  0
    2.7294    1.5909    0.8173 C   0  0  0  0  0  0  0  0  0  0  0  0
    2.1324    1.8902    1.6916 H   0  0  0  0  0  0  0  0  0  0  0  0
   -3.3189    0.6982   -0.1024 C   0  0  0  0  0  0  0  0  0  0  0  0
   -3.8261   -0.2647    0.0461 H   0  0  0  0  0  0  0  0  0  0  0  0
   -1.3996    2.1434   -0.4071 C   0  0  0  0  0  0  0  0  0  0  0  0
   -2.2713    3.2537   -0.4845 C   0  0  0  0  0  0  0  0  0  0  0  0
   -4.1466    1.8211   -0.1821 C   0  0  0  0  0  0  0  0  0  0  0  0
  2 20  1  0  0  0  0
  3  9  1  0  0  0  0
  5 23  1  0  0  0  0
  6  1  1  0  0  0  0
  6 16  1  0  0  0  0
  7 22  1  0  0  0  0
  7  3  1  0  0  0  0
  8  7  1  0  0  0  0
  9 18  1  0  0  0  0
 10 12  1  0  0  0  0
 10  9  2  0  0  0  0
 11 10  1  0  0  0  0
 12  6  2  0  0  0  0
 13 12  1  0  0  0  0
 14 24  1  0  0  0  0
 15 14  1  0  0  0  0
 16 17  1  0  0  0  0
 18 16  2  0  0  0  0
 18 19  1  0  0  0  0
 20 21  1  0  0  0  0
 22  2  2  0  0  0  0
 23 22  1  0  0  0  0
 23 14  2  0  0  0  0
 24 20  2  0  0  0  0
 24  4  1  0  0  0  0
M  END
