1,4
q = -1.0

 28 28  0  0  1  0  0  0  0  0999 V2000
   -2.5751   -1.2680   -1.4999 N   0  0  0  0  0  0  0  0  0  0  0  0
   -2.5439   -1.0182   -2.4971 H   0  0  0  0  0  0  0  0  0  0  0  0
   -2.6595   -2.2931   -1.4416 H   0  0  0  0  0  0  0  0  0  0  0  0
   -1.6903    1.0475   -0.5262 C   0  0  0  0  0  3  0  0  0  0  0  0
   -1.1944    2.3577   -0.3653 C   0  0  0  0  0  0  0  0  0  0  0  0
   -0.1131    2.5376   -0.2832 H   0  0  0  0  0  0  0  0  0  0  0  0
   -2.0518    3.4695   -0.3021 C   0  0  0  0  0  0  0  0  0  0  0  0
   -1.6251    4.4765   -0.1712 H   0  0  0  0  0  0  0  0  0  0  0  0
   -3.4390    3.3010   -0.4171 C   0  0  0  0  0  0  0  0  0  0  0  0
   -4.1129    4.1705   -0.3850 H   0  0  0  0  0  0  0  0  0  0  0  0
   -3.9608    2.0105   -0.5912 C   0  0  0  0  0  0  0  0  0  0  0  0
   -5.0471    1.8728   -0.7127 H   0  0  0  0  0  0  0  0  0  0  0  0
   -3.1091    0.8905   -0.6321 C   0  0  0  0  0  0  0  0  0  0  0  0
   -3.6524   -0.5132   -0.8058 C   0  0  2  0  0  0  0  0  0  0  0  0
   -4.5611   -0.4927   -1.4513 H   0  0  0  0  0  0  0  0  0  0  0  0
   -4.1012   -1.2367    0.5169 C   0  0  0  0  0  0  0  0  0  0  0  0
   -4.4383   -2.7084    0.2012 C   0  0  0  0  0  0  0  0  0  0  0  0
   -4.9152   -3.1848    1.0813 H   0  0  0  0  0  0  0  0  0  0  0  0
   -3.5338   -3.3106   -0.0266 H   0  0  0  0  0  0  0  0  0  0  0  0
   -5.1477   -2.7945   -0.6490 H   0  0  0  0  0  0  0  0  0  0  0  0
   -3.0255   -1.1827    1.6141 C   0  0  0  0  0  0  0  0  0  0  0  0
   -2.7950   -0.1349    1.8901 H   0  0  0  0  0  0  0  0  0  0  0  0
   -2.0799   -1.6665    1.2892 H   0  0  0  0  0  0  0  0  0  0  0  0
   -3.3865   -1.7109    2.5204 H   0  0  0  0  0  0  0  0  0  0  0  0
   -5.3728   -0.5376    1.0304 C   0  0  0  0  0  0  0  0  0  0  0  0
   -5.1748    0.5192    1.2955 H   0  0  0  0  0  0  0  0  0  0  0  0
   -5.7454   -1.0500    1.9402 H   0  0  0  0  0  0  0  0  0  0  0  0
   -6.1852   -0.5584    0.2740 H   0  0  0  0  0  0  0  0  0  0  0  0
  1  3  1  0  0  0  0
  1 14  1  0  0  0  0
  2  1  1  0  0  0  0
  4  5  1  0  0  0  0
  5  7  2  0  0  0  0
  5  6  1  0  0  0  0
  7  8  1  0  0  0  0
  9 10  1  0  0  0  0
  9  7  1  0  0  0  0
 11  9  2  0  0  0  0
 12 11  1  0  0  0  0
 13 11  1  0  0  0  0
 13  4  2  0  0  0  0
 14 15  1  6  0  0  0
 14 13  1  0  0  0  0
 14 16  1  0  0  0  0
 16 25  1  0  0  0  0
 16 21  1  0  0  0  0
 17 16  1  0  0  0  0
 17 18  1  0  0  0  0
 19 17  1  0  0  0  0
 20 17  1  0  0  0  0
 21 22  1  0  0  0  0
 21 24  1  0  0  0  0
 23 21  1  0  0  0  0
 25 26  1  0  0  0  0
 25 27  1  0  0  0  0
 28 25  1  0  0  0  0
M  END
