1,6
q = -2.0, confidence = 0.796

 17 16  0  0  0  0  0  0  0  0999 V2000
   -1.6093    0.5036   -0.4414 N   0  0  0  0  0  2  0  0  0  0  0  0
   -1.4214   -2.4516   -3.7507 N   0  0  0  0  0  0  0  0  0  0  0  0
   -2.2103    1.3281   -2.5798 O   0  0  0  0  0  0  0  0  0  0  0  0
   -2.0240    1.2080    1.7127 O   0  0  0  0  0  0  0  0  0  0  0  0
   -2.7046    2.4615   -0.0597 O   0  0  0  0  0  0  0  0  0  0  0  0
   -0.5910   -0.5242   -2.1940 C   0  0  0  0  0  3  0  0  0  0  0  0
    0.3299   -0.0722   -2.6159 H   0  0  0  0  0  0  0  0  0  0  0  0
   -1.6035    0.5903   -1.8277 C   0  0  0  0  0  0  0  0  0  0  0  0
   -1.0514   -1.5554   -3.0821 C   0  0  0  0  0  0  0  0  0  0  0  0
   -2.1148    1.3768    0.4930 C   0  0  0  0  0  0  0  0  0  0  0  0
   -3.2048    3.4420    0.8625 C   0  0  0  0  0  0  0  0  0  0  0  0
   -2.3970    3.7202    1.5724 H   0  0  0  0  0  0  0  0  0  0  0  0
   -4.0227    2.9938    1.4681 H   0  0  0  0  0  0  0  0  0  0  0  0
   -3.6801    4.6269    0.0464 C   0  0  0  0  0  0  0  0  0  0  0  0
   -2.8418    5.0561   -0.5375 H   0  0  0  0  0  0  0  0  0  0  0  0
   -4.0880    5.4133    0.7123 H   0  0  0  0  0  0  0  0  0  0  0  0
   -4.4714    4.3232   -0.6668 H   0  0  0  0  0  0  0  0  0  0  0  0
  1 10  1  0  0  0  0
  2  9  3  0  0  0  0
  3  8  2  0  0  0  0
  5 10  1  0  0  0  0
  5 11  1  0  0  0  0
  6  8  1  0  0  0  0
  7  6  1  0  0  0  0
  8  1  1  0  0  0  0
  9  6  1  0  0  0  0
 10  4  2  0  0  0  0
 11 13  1  0  0  0  0
 11 12  1  0  0  0  0
 14 16  1  0  0  0  0
 14 11  1  0  0  0  0
 15 14  1  0  0  0  0
 17 14  1  0  0  0  0
M  END
