1,8
q = -1.0

 25 26  0  0  0  0  0  0  0  0999 V2000
    2.2899   -0.2437    0.0259 C   0  0  0  0  0  2  0  0  0  0  0  0
    2.4919   -1.6206   -0.3121 C   0  0  0  0  0  0  0  0  0  0  0  0
    3.7500   -2.2411   -0.1456 C   0  0  0  0  0  0  0  0  0  0  0  0
    4.8181   -1.4926    0.3615 C   0  0  0  0  0  0  0  0  0  0  0  0
    4.6253   -0.1373    0.6983 C   0  0  0  0  0  0  0  0  0  0  0  0
    3.3741    0.4861    0.5341 C   0  0  0  0  0  0  0  0  0  0  0  0
    1.3009   -2.2684   -0.8050 C   0  0  0  0  0  0  0  0  0  0  0  0
    0.2256   -1.5258   -0.8946 N   0  0  0  0  0  2  0  0  0  0  0  0
   -1.0525   -2.0733   -1.3153 C   0  0  0  0  0  0  0  0  0  0  0  0
   -2.0958   -2.0462   -0.2072 C   0  0  0  0  0  0  0  0  0  0  0  0
   -3.4335   -1.6867   -0.5477 C   0  0  0  0  0  0  0  0  0  0  0  0
   -4.2644   -1.7294    0.5623 C   0  0  0  0  0  3  0  0  0  0  0  0
   -3.9325   -2.0245    1.7486 C   0  0  0  0  0  3  0  0  0  0  0  0
   -2.6634   -2.3693    2.1985 C   0  0  0  0  0  0  0  0  0  0  0  0
   -1.7365   -2.3719    1.1220 C   0  0  0  0  0  0  0  0  0  0  0  0
    3.8847   -3.3017   -0.4124 H   0  0  0  0  0  0  0  0  0  0  0  0
    5.8051   -1.9591    0.4978 H   0  0  0  0  0  0  0  0  0  0  0  0
    5.4717    0.4445    1.0977 H   0  0  0  0  0  0  0  0  0  0  0  0
    3.2335    1.5454    0.7988 H   0  0  0  0  0  0  0  0  0  0  0  0
    1.2664   -3.3391   -1.0879 H   0  0  0  0  0  0  0  0  0  0  0  0
   -0.9067   -3.1167   -1.6789 H   0  0  0  0  0  0  0  0  0  0  0  0
   -1.4260   -1.4675   -2.1656 H   0  0  0  0  0  0  0  0  0  0  0  0
   -3.7040   -1.3963   -1.5739 H   0  0  0  0  0  0  0  0  0  0  0  0
   -2.3616   -2.6091    3.2285 H   0  0  0  0  0  0  0  0  0  0  0  0
   -0.6858   -2.6178    1.3433 H   0  0  0  0  0  0  0  0  0  0  0  0
  1  6  1  0  0  0  0
  2  3  1  0  0  0  0
  2  1  1  0  0  0  0
  3  4  2  0  0  0  0
  4 17  1  0  0  0  0
  4  5  1  0  0  0  0
  5 18  1  0  0  0  0
  6  5  2  0  0  0  0
  6 19  1  0  0  0  0
  7  2  2  0  0  0  0
  8  7  1  0  0  0  0
  9  8  1  0  0  0  0
  9 10  1  0  0  0  0
 10 15  1  0  0  0  0
 11 10  2  0  0  0  0
 11 12  1  0  0  0  0
 12 13  2  0  0  0  0
 13 14  1  0  0  0  0
 14 24  1  0  0  0  0
 15 25  1  0  0  0  0
 15 14  2  0  0  0  0
 16  3  1  0  0  0  0
 20  7  1  0  0  0  0
 21  9  1  0  0  0  0
 22  9  1  0  0  0  0
 23 11  1  0  0  0  0
M  END
