1,19
q = -1.0, confidence = 0.0

 20 21  0  0  0  0  0  0  0  0999 V2000
   -1.0231    1.3037   -0.0002 N   0  0  0  0  0  2  0  0  0  0  0  0
   -2.2785    1.7937   -0.0005 C   0  0  0  0  0  0  0  0  0  0  0  0
   -3.0728    1.0253   -0.0006 H   0  0  0  0  0  0  0  0  0  0  0  0
    4.8588   -0.7701   -0.0006 F   0  0  0  0  0  0  0  0  0  0  0  0
   -0.1164    3.5173    0.0003 C   0  0  0  0  0  0  0  0  0  0  0  0
    0.7574    4.1824    0.0008 H   0  0  0  0  0  0  0  0  0  0  0  0
   -1.4112    4.0418    0.0000 C   0  0  0  0  0  0  0  0  0  0  0  0
   -1.5622    5.1317    0.0002 H   0  0  0  0  0  0  0  0  0  0  0  0
   -2.5131    3.1704   -0.0005 C   0  0  0  0  0  0  0  0  0  0  0  0
   -3.5464    3.5433   -0.0007 H   0  0  0  0  0  0  0  0  0  0  0  0
    1.3620    1.4265    0.0002 C   0  0  0  0  0  0  0  0  0  0  0  0
    2.6151    2.0789    0.0005 C   0  0  0  0  0  3  0  0  0  0  0  0
    2.6709    3.1778    0.0009 H   0  0  0  0  0  0  0  0  0  0  0  0
    3.8002    1.3403    0.0002 C   0  0  0  0  0  0  0  0  0  0  0  0
    4.7856    1.8261    0.0005 H   0  0  0  0  0  0  0  0  0  0  0  0
    3.7211   -0.0615   -0.0003 C   0  0  0  0  0  0  0  0  0  0  0  0
    2.4959   -0.7448   -0.0004 C   0  0  0  0  0  0  0  0  0  0  0  0
    2.4705   -1.8444   -0.0006 H   0  0  0  0  0  0  0  0  0  0  0  0
    1.3176    0.0025   -0.0001 C   0  0  0  0  0  3  0  0  0  0  0  0
    0.0777    2.1215    0.0001 C   0  0  0  0  0  0  0  0  0  0  0  0
  1 20  1  0  0  0  0
  2  9  2  0  0  0  0
  2  1  1  0  0  0  0
  3  2  1  0  0  0  0
  4 16  1  0  0  0  0
  5  6  1  0  0  0  0
  7  8  1  0  0  0  0
  7  5  2  0  0  0  0
  9  7  1  0  0  0  0
 10  9  1  0  0  0  0
 11 12  1  0  0  0  0
 12 13  1  0  0  0  0
 14 15  1  0  0  0  0
 14 12  1  0  0  0  0
 16 14  2  0  0  0  0
 17 16  1  0  0  0  0
 17 19  2  0  0  0  0
 18 17  1  0  0  0  0
 19 11  1  0  0  0  0
 20 11  2  0  0  0  0
 20  5  1  0  0  0  0
M  END
