3,18
q = -1.0

 20 21  0  0  1  0  0  0  0  0999 V2000
    5.0152   -0.6987    0.0002 Cl  0  0  0  0  0  0  0  0  0  0  0  0
    3.1918    1.6057   -0.0057 O   0  0  0  0  0  0  0  0  0  0  0  0
   -0.9986    1.3365    0.0009 N   0  0  0  0  0  2  0  0  0  0  0  0
    1.1483    0.4195   -0.0003 N   0  0  0  0  0  0  0  0  0  0  0  0
    0.3434    1.5809    0.0004 C   0  0  2  0  0  3  0  0  0  0  0  0
   -1.4560    3.7049    0.0026 C   0  0  0  0  0  0  0  0  0  0  0  0
   -2.2060    4.5078    0.0033 H   0  0  0  0  0  0  0  0  0  0  0  0
   -1.8669    2.3733    0.0019 C   0  0  0  0  0  0  0  0  0  0  0  0
   -2.9334    2.1115    0.0022 H   0  0  0  0  0  0  0  0  0  0  0  0
    2.6066    0.5247   -0.0022 C   0  0  0  0  0  0  0  0  0  0  0  0
    3.2838   -0.7654    0.0007 C   0  0  0  0  0  0  0  0  0  0  0  0
    0.8305    2.9079    0.0014 C   0  0  0  0  0  0  0  0  0  0  0  0
    1.9147    3.0571    0.0007 H   0  0  0  0  0  0  0  0  0  0  0  0
    1.1846   -1.9727    0.0031 C   0  0  0  0  0  0  0  0  0  0  0  0
    0.6630   -2.9380    0.0043 H   0  0  0  0  0  0  0  0  0  0  0  0
    2.6042   -1.9608    0.0033 C   0  0  0  0  0  0  0  0  0  0  0  0
    3.1707   -2.9042    0.0052 H   0  0  0  0  0  0  0  0  0  0  0  0
    0.4507   -0.8031    0.0011 C   0  0  0  0  0  3  0  0  0  0  0  0
   -0.0789    3.9669    0.0025 C   0  0  0  0  0  0  0  0  0  0  0  0
    0.2981    5.0005    0.0033 H   0  0  0  0  0  0  0  0  0  0  0  0
  1 11  1  0  0  0  0
  2 10  2  0  0  0  0
  3  8  1  0  0  0  0
  4 18  1  0  0  0  0
  5  4  1  1  0  0  0
  5  3  1  0  0  0  0
  5 12  1  0  0  0  0
  6  7  1  0  0  0  0
  8  9  1  0  0  0  0
  8  6  2  0  0  0  0
 10  4  1  0  0  0  0
 10 11  1  0  0  0  0
 11 16  2  0  0  0  0
 12 19  2  0  0  0  0
 13 12  1  0  0  0  0
 14 16  1  0  0  0  0
 14 15  1  0  0  0  0
 16 17  1  0  0  0  0
 18 14  2  0  0  0  0
 19  6  1  0  0  0  0
 19 20  1  0  0  0  0
M  END
