1,6
q = -1.0, confidence = 0.026

 28 29  0  0  1  0  0  0  0  0999 V2000
    1.2636    1.0313    0.5752 C   0  0  0  0  0  3  0  0  0  0  0  0
    0.7064    1.9017    0.1731 H   0  0  0  0  0  0  0  0  0  0  0  0
    1.1946    1.0694    1.6841 H   0  0  0  0  0  0  0  0  0  0  0  0
    2.7223    1.0296    0.1236 C   0  0  1  0  0  0  0  0  0  0  0  0
    3.3324   -0.3477    0.2025 C   0  0  1  0  0  3  0  0  0  0  0  0
    2.5087   -1.3428    0.1966 N   0  0  0  0  0  2  0  0  0  0  0  0
    2.9738   -2.6183    0.2377 O   0  0  0  0  0  0  0  0  0  0  0  0
    2.1081   -3.1375    0.1198 H   0  0  0  0  0  0  0  0  0  0  0  0
    4.8483   -0.2702    0.2233 C   0  0  0  0  0  0  0  0  0  0  0  0
    4.9938    1.2916    0.0660 C   0  0  1  0  0  0  0  0  0  0  0  0
    6.0034    1.6469    0.3534 H   0  0  0  0  0  0  0  0  0  0  0  0
    4.5533    1.7373   -1.3494 C   0  0  0  0  0  0  0  0  0  0  0  0
    5.0726    1.1913   -2.1591 H   0  0  0  0  0  0  0  0  0  0  0  0
    4.7909    2.8110   -1.4866 H   0  0  0  0  0  0  0  0  0  0  0  0
    3.0124    1.5047   -1.3369 C   0  0  0  0  0  0  0  0  0  0  0  0
    2.6752    0.7487   -2.0744 H   0  0  0  0  0  0  0  0  0  0  0  0
    2.4483    2.4395   -1.5353 H   0  0  0  0  0  0  0  0  0  0  0  0
    3.8092    1.8291    0.9031 C   0  0  0  0  0  0  0  0  0  0  0  0
    3.6758    2.9264    0.8154 H   0  0  0  0  0  0  0  0  0  0  0  0
    3.8444    1.5607    1.9769 H   0  0  0  0  0  0  0  0  0  0  0  0
    5.4959   -1.0978   -0.9000 C   0  0  0  0  0  0  0  0  0  0  0  0
    5.3558   -2.1777   -0.7041 H   0  0  0  0  0  0  0  0  0  0  0  0
    6.5839   -0.8860   -0.9526 H   0  0  0  0  0  0  0  0  0  0  0  0
    5.0520   -0.8848   -1.8911 H   0  0  0  0  0  0  0  0  0  0  0  0
    5.4038   -0.7512    1.5816 C   0  0  0  0  0  0  0  0  0  0  0  0
    5.1386   -1.8135    1.7465 H   0  0  0  0  0  0  0  0  0  0  0  0
    5.0042   -0.1649    2.4311 H   0  0  0  0  0  0  0  0  0  0  0  0
    6.5094   -0.6600    1.5891 H   0  0  0  0  0  0  0  0  0  0  0  0
  1  3  1  0  0  0  0
  2  1  1  0  0  0  0
  4  5  1  0  0  0  0
  4  1  1  1  0  0  0
  4 18  1  0  0  0  0
  5  6  1  6  0  0  0
  5  9  1  0  0  0  0
  6  7  1  0  0  0  0
  8  7  1  0  0  0  0
  9 25  1  0  0  0  0
 10  9  1  0  0  0  0
 10 11  1  1  0  0  0
 10 18  1  0  0  0  0
 12 15  1  0  0  0  0
 12 10  1  0  0  0  0
 13 12  1  0  0  0  0
 14 12  1  0  0  0  0
 15  4  1  0  0  0  0
 16 15  1  0  0  0  0
 17 15  1  0  0  0  0
 18 20  1  0  0  0  0
 19 18  1  0  0  0  0
 21 22  1  0  0  0  0
 21  9  1  0  0  0  0
 23 21  1  0  0  0  0
 24 21  1  0  0  0  0
 25 28  1  0  0  0  0
 25 26  1  0  0  0  0
 25 27  1  0  0  0  0
M  END
