1,23
q = -2.0, confidence = 0.898

 28 29  0  0  0  0  0  0  0  0999 V2000
    0.7243   -0.8832   -1.0524 N   0  0  0  0  0  0  0  0  0  0  0  0
    2.3106   -1.3071   -2.6200 N   0  0  0  0  0  0  0  0  0  0  0  0
    1.9961   -0.6040   -1.5333 C   0  0  0  0  0  3  0  0  0  0  0  0
    0.2193   -1.8415   -1.9300 C   0  0  0  0  0  0  0  0  0  0  0  0
   -0.7827   -2.2653   -1.8023 H   0  0  0  0  0  0  0  0  0  0  0  0
    1.2010   -2.0854   -2.8767 C   0  0  0  0  0  0  0  0  0  0  0  0
    1.1708   -2.7856   -3.7222 H   0  0  0  0  0  0  0  0  0  0  0  0
    2.9229    0.3687   -0.8760 C   0  0  0  0  0  0  0  0  0  0  0  0
    2.5788    1.4161   -1.0318 H   0  0  0  0  0  0  0  0  0  0  0  0
    3.8996    0.2741   -1.3899 H   0  0  0  0  0  0  0  0  0  0  0  0
    3.1060    0.1309    0.6507 C   0  0  0  0  0  0  0  0  0  0  0  0
    4.1860    1.1001    1.1768 C   0  0  0  0  0  0  0  0  0  0  0  0
    4.3154    0.9945    2.2727 H   0  0  0  0  0  0  0  0  0  0  0  0
    3.9216    2.1556    0.9659 H   0  0  0  0  0  0  0  0  0  0  0  0
    5.1603    0.8909    0.6896 H   0  0  0  0  0  0  0  0  0  0  0  0
    3.5572   -1.3169    0.9009 C   0  0  0  0  0  0  0  0  0  0  0  0
    4.5009   -1.5204    0.3570 H   0  0  0  0  0  0  0  0  0  0  0  0
    2.8050   -2.0449    0.5393 H   0  0  0  0  0  0  0  0  0  0  0  0
    3.7368   -1.4993    1.9797 H   0  0  0  0  0  0  0  0  0  0  0  0
    1.7975    0.4286    1.3690 C   0  0  0  0  0  0  0  0  0  0  0  0
    1.0111   -0.4722    2.1597 C   0  0  0  0  0  0  0  0  0  0  0  0
    1.2390   -1.5311    2.3277 H   0  0  0  0  0  0  0  0  0  0  0  0
   -0.1153    0.2283    2.6744 C   0  0  0  0  0  3  0  0  0  0  0  0
   -0.9010   -0.1856    3.3157 H   0  0  0  0  0  0  0  0  0  0  0  0
   -0.0477    1.5655    2.1899 C   0  0  0  0  0  0  0  0  0  0  0  0
   -0.7745    2.3587    2.4000 H   0  0  0  0  0  0  0  0  0  0  0  0
    1.1323    1.6881    1.3975 C   0  0  0  0  0  0  0  0  0  0  0  0
    1.4575    2.5933    0.8709 H   0  0  0  0  0  0  0  0  0  0  0  0
  2  3  1  0  0  0  0
  3  1  1  0  0  0  0
  3  8  1  0  0  0  0
  4  5  1  0  0  0  0
  4  1  2  0  0  0  0
  6  2  2  0  0  0  0
  6  4  1  0  0  0  0
  7  6  1  0  0  0  0
  8 11  1  0  0  0  0
  9  8  1  0  0  0  0
 10  8  1  0  0  0  0
 11 16  1  0  0  0  0
 11 12  1  0  0  0  0
 11 20  1  0  0  0  0
 12 13  1  0  0  0  0
 14 12  1  0  0  0  0
 15 12  1  0  0  0  0
 16 19  1  0  0  0  0
 17 16  1  0  0  0  0
 18 16  1  0  0  0  0
 20 27  1  0  0  0  0
 20 21  2  0  0  0  0
 21 22  1  0  0  0  0
 21 23  1  0  0  0  0
 23 24  1  0  0  0  0
 25 26  1  0  0  0  0
 25 23  1  0  0  0  0
 27 25  2  0  0  0  0
 28 27  1  0  0  0  0
M  END
