2,5
q = -1.0

 33 35  0  0  0  0  0  0  0  0999 V2000
   -3.6435    3.3570    0.0001 Br  0  0  0  0  0  0  0  0  0  0  0  0
   -1.7610   -0.7791    0.2303 N   0  0  0  0  0  2  0  0  0  0  0  0
    2.2823    2.2135   -0.2895 O   0  0  0  0  0  0  0  0  0  0  0  0
    1.5499    4.3956   -0.4760 O   0  0  0  0  0  0  0  0  0  0  0  0
    0.0197    1.1659   -0.0649 C   0  0  0  0  0  2  0  0  0  0  0  0
    0.8924    2.2288   -0.2418 C   0  0  0  0  0  0  0  0  0  0  0  0
    0.4688    3.5699   -0.3393 C   0  0  0  0  0  0  0  0  0  0  0  0
   -0.8723    3.9409   -0.2650 C   0  0  0  0  0  0  0  0  0  0  0  0
   -1.1918    4.9872   -0.3385 H   0  0  0  0  0  0  0  0  0  0  0  0
   -1.7901    2.8852   -0.0926 C   0  0  0  0  0  0  0  0  0  0  0  0
   -1.3795    1.5349    0.0019 C   0  0  0  0  0  0  0  0  0  0  0  0
   -2.2833    0.4119    0.1554 C   0  0  0  0  0  0  0  0  0  0  0  0
   -3.3752    0.5729    0.1951 H   0  0  0  0  0  0  0  0  0  0  0  0
   -2.5546   -2.0012    0.3039 C   0  0  0  0  0  0  0  0  0  0  0  0
   -2.0028   -2.6583    1.0132 H   0  0  0  0  0  0  0  0  0  0  0  0
   -2.5117   -2.7208   -1.0605 C   0  0  0  0  0  0  0  0  0  0  0  0
   -3.0088   -2.0718   -1.8166 H   0  0  0  0  0  0  0  0  0  0  0  0
   -1.4508   -2.8432   -1.3565 H   0  0  0  0  0  0  0  0  0  0  0  0
   -3.2096   -4.0823   -0.9749 C   0  0  0  0  0  0  0  0  0  0  0  0
   -2.6159   -4.7366   -0.2989 H   0  0  0  0  0  0  0  0  0  0  0  0
   -3.2030   -4.5739   -1.9702 H   0  0  0  0  0  0  0  0  0  0  0  0
   -4.6439   -3.9566   -0.4455 C   0  0  0  0  0  0  0  0  0  0  0  0
   -5.2613   -3.4028   -1.1889 H   0  0  0  0  0  0  0  0  0  0  0  0
   -5.1090   -4.9591   -0.3389 H   0  0  0  0  0  0  0  0  0  0  0  0
   -4.6831   -3.2072    0.8932 C   0  0  0  0  0  0  0  0  0  0  0  0
   -4.1638   -3.8134    1.6685 H   0  0  0  0  0  0  0  0  0  0  0  0
   -5.7298   -3.0838    1.2414 H   0  0  0  0  0  0  0  0  0  0  0  0
   -3.9989   -1.8360    0.7905 C   0  0  0  0  0  0  0  0  0  0  0  0
   -4.0142   -1.3131    1.7705 H   0  0  0  0  0  0  0  0  0  0  0  0
   -4.5719   -1.2026    0.0764 H   0  0  0  0  0  0  0  0  0  0  0  0
    2.6604    3.5160   -0.7131 C   0  0  0  0  0  0  0  0  0  0  0  0
    2.8927    3.5129   -1.8086 H   0  0  0  0  0  0  0  0  0  0  0  0
    3.5383    3.8631   -0.1303 H   0  0  0  0  0  0  0  0  0  0  0  0
  2 14  1  0  0  0  0
  3  6  1  0  0  0  0
  4  7  1  0  0  0  0
  5 11  1  0  0  0  0
  6  5  1  0  0  0  0
  7  8  1  0  0  0  0
  7  6  2  0  0  0  0
  8 10  2  0  0  0  0
  9  8  1  0  0  0  0
 10  1  1  0  0  0  0
 10 11  1  0  0  0  0
 11 12  2  0  0  0  0
 12 13  1  0  0  0  0
 12  2  1  0  0  0  0
 14 28  1  0  0  0  0
 14 15  1  0  0  0  0
 16 19  1  0  0  0  0
 16 14  1  0  0  0  0
 17 16  1  0  0  0  0
 18 16  1  0  0  0  0
 19 22  1  0  0  0  0
 19 20  1  0  0  0  0
 21 19  1  0  0  0  0
 22 24  1  0  0  0  0
 22 25  1  0  0  0  0
 23 22  1  0  0  0  0
 25 27  1  0  0  0  0
 25 26  1  0  0  0  0
 28 25  1  0  0  0  0
 28 29  1  0  0  0  0
 30 28  1  0  0  0  0
 31  4  1  0  0  0  0
 31  3  1  0  0  0  0
 31 33  1  0  0  0  0
 32 31  1  0  0  0  0
M  END
