12,24
q = -1.0

 26 28  0  0  1  0  0  0  0  0999 V2000
   -2.4766    0.3380    0.0001 C   0  0  0  0  0  0  0  0  0  0  0  0
   -3.5348    1.2547    0.0001 C   0  0  0  0  0  0  0  0  0  0  0  0
   -3.3410    2.3336    0.0001 H   0  0  0  0  0  0  0  0  0  0  0  0
   -4.8382    0.7277    0.0001 C   0  0  0  0  0  0  0  0  0  0  0  0
   -5.6944    1.4189    0.0001 H   0  0  0  0  0  0  0  0  0  0  0  0
   -5.0671   -0.6638    0.0001 C   0  0  0  0  0  0  0  0  0  0  0  0
   -6.1008   -1.0417    0.0002 H   0  0  0  0  0  0  0  0  0  0  0  0
   -3.9969   -1.5716    0.0001 C   0  0  0  0  0  0  0  0  0  0  0  0
   -4.1801   -2.6567    0.0002 H   0  0  0  0  0  0  0  0  0  0  0  0
   -2.6822   -1.0710    0.0001 C   0  0  0  0  0  0  0  0  0  0  0  0
   -1.3784   -1.7255    0.0001 C   0  0  0  0  0  0  0  0  0  0  0  0
   -0.4071   -0.7424    0.0001 C   0  0  0  0  0  3  0  0  0  0  0  0
   -1.2114   -3.2110    0.0001 C   0  0  0  0  0  0  0  0  0  0  0  0
   -0.1513   -3.5174   -0.0006 H   0  0  0  0  0  0  0  0  0  0  0  0
   -1.6960   -3.6680   -0.8894 H   0  0  0  0  0  0  0  0  0  0  0  0
   -1.6948   -3.6679    0.8903 H   0  0  0  0  0  0  0  0  0  0  0  0
   -0.3506    1.6705   -0.0001 C   0  0  2  0  0  3  0  0  0  0  0  0
   -0.1678    3.9491   -0.0003 C   0  0  0  0  0  0  0  0  0  0  0  0
   -0.6788    4.9280   -0.0003 H   0  0  0  0  0  0  0  0  0  0  0  0
    1.2351    3.8661   -0.0004 C   0  0  0  0  0  0  0  0  0  0  0  0
    1.8764    4.7569   -0.0005 H   0  0  0  0  0  0  0  0  0  0  0  0
    1.7838    2.5807   -0.0004 C   0  0  0  0  0  0  0  0  0  0  0  0
    2.8717    2.4189   -0.0005 H   0  0  0  0  0  0  0  0  0  0  0  0
    1.0121    1.4780   -0.0002 N   0  0  0  0  0  2  0  0  0  0  0  0
   -0.9540    2.8709   -0.0001 N   0  0  0  0  0  0  0  0  0  0  0  0
   -1.0785    0.5192    0.0001 N   0  0  0  0  0  0  0  0  0  0  0  0
  1  2  2  0  0  0  0
  1 10  1  0  0  0  0
  2  4  1  0  0  0  0
  3  2  1  0  0  0  0
  4  5  1  0  0  0  0
  4  6  2  0  0  0  0
  6  8  1  0  0  0  0
  6  7  1  0  0  0  0
  8  9  1  0  0  0  0
 10  8  2  0  0  0  0
 11 13  1  0  0  0  0
 11 10  1  0  0  0  0
 11 12  2  0  0  0  0
 13 16  1  0  0  0  0
 14 13  1  0  0  0  0
 15 13  1  0  0  0  0
 17 26  1  1  0  0  0
 18 25  2  0  0  0  0
 19 18  1  0  0  0  0
 20 22  2  0  0  0  0
 20 18  1  0  0  0  0
 21 20  1  0  0  0  0
 22 24  1  0  0  0  0
 23 22  1  0  0  0  0
 24 17  1  0  0  0  0
 25 17  1  0  0  0  0
 26  1  1  0  0  0  0
 26 12  1  0  0  0  0
M  END
