1,3
q = -1.0, confidence = 0.002

 25 27  0  0  0  0  0  0  0  0999 V2000
    1.6249   -1.0521    0.5012 N   0  0  0  0  0  2  0  0  0  0  0  0
    3.5524   -1.3433    1.8644 N   0  0  0  0  0  0  0  0  0  0  0  0
    0.0274   -0.9606   -1.5225 C   0  0  0  0  0  3  0  0  0  0  0  0
   -0.9019   -0.9327   -2.5905 C   0  0  0  0  0  0  0  0  0  0  0  0
   -1.9631   -0.7349   -2.3762 H   0  0  0  0  0  0  0  0  0  0  0  0
   -0.4934   -1.1103   -3.9165 C   0  0  0  0  0  0  0  0  0  0  0  0
   -1.2366   -1.0717   -4.7289 H   0  0  0  0  0  0  0  0  0  0  0  0
    0.8705   -1.3003   -4.2211 C   0  0  0  0  0  0  0  0  0  0  0  0
    1.2009   -1.3803   -5.2672 H   0  0  0  0  0  0  0  0  0  0  0  0
    1.8060   -1.3813   -3.1886 C   0  0  0  0  0  0  0  0  0  0  0  0
    2.8652   -1.4767   -3.4532 H   0  0  0  0  0  0  0  0  0  0  0  0
    1.4020   -1.2738   -1.8324 C   0  0  0  0  0  0  0  0  0  0  0  0
    2.2627   -1.3941   -0.6571 C   0  0  0  0  0  0  0  0  0  0  0  0
    3.6368   -1.8261   -0.5508 C   0  0  0  0  0  0  0  0  0  0  0  0
    4.4219   -2.3610   -1.6118 C   0  0  0  0  0  3  0  0  0  0  0  0
    3.9628   -2.5713   -2.5827 H   0  0  0  0  0  0  0  0  0  0  0  0
    5.7638   -2.6709   -1.4251 C   0  0  0  0  0  0  0  0  0  0  0  0
    6.3441   -3.0875   -2.2620 H   0  0  0  0  0  0  0  0  0  0  0  0
    6.3849   -2.4729   -0.1670 C   0  0  0  0  0  0  0  0  0  0  0  0
    7.4514   -2.7115   -0.0371 H   0  0  0  0  0  0  0  0  0  0  0  0
    5.6346   -2.0167    0.9065 C   0  0  0  0  0  0  0  0  0  0  0  0
    6.0597   -1.8939    1.9129 H   0  0  0  0  0  0  0  0  0  0  0  0
    4.2544   -1.7133    0.7490 C   0  0  0  0  0  0  0  0  0  0  0  0
    2.2815   -1.0696    1.7021 C   0  0  0  0  0  0  0  0  0  0  0  0
    1.6526   -0.8031    2.5685 H   0  0  0  0  0  0  0  0  0  0  0  0
  1 24  1  0  0  0  0
  4  5  1  0  0  0  0
  4  3  2  0  0  0  0
  6  4  1  0  0  0  0
  7  6  1  0  0  0  0
  8  6  2  0  0  0  0
  8 10  1  0  0  0  0
  9  8  1  0  0  0  0
 10 12  2  0  0  0  0
 11 10  1  0  0  0  0
 12  3  1  0  0  0  0
 12 13  1  0  0  0  0
 13 14  2  0  0  0  0
 13  1  1  0  0  0  0
 14 23  1  0  0  0  0
 15 17  1  0  0  0  0
 15 14  1  0  0  0  0
 16 15  1  0  0  0  0
 17 19  2  0  0  0  0
 18 17  1  0  0  0  0
 19 20  1  0  0  0  0
 19 21  1  0  0  0  0
 21 22  1  0  0  0  0
 23 21  2  0  0  0  0
 23  2  1  0  0  0  0
 24  2  2  0  0  0  0
 24 25  1  0  0  0  0
M  END
