6,7
q = -1.0

 30 31  0  0  0  0  0  0  0  0999 V2000
   -1.9463   -2.4052   -2.8974 O   0  0  0  0  0  0  0  0  0  0  0  0
   -2.6385   -1.2422    1.7824 O   0  0  0  0  0  0  0  0  0  0  0  0
   -1.5399    2.2088   -0.8714 N   0  0  0  0  0  0  0  0  0  0  0  0
   -2.0453    2.7459   -2.0253 N   0  0  0  0  0  0  0  0  0  0  0  0
   -0.9835    0.8388   -2.4139 N   0  0  0  0  0  0  0  0  0  0  0  0
   -0.9779   -1.5692   -0.9536 N   0  0  0  0  0  2  0  0  0  0  0  0
   -0.8802    1.0336   -1.0562 C   0  0  0  0  0  2  0  0  0  0  0  0
   -1.6941    1.8832   -2.9529 C   0  0  0  0  0  0  0  0  0  0  0  0
   -1.9297    1.9779   -4.0192 H   0  0  0  0  0  0  0  0  0  0  0  0
   -1.8522    2.8628    0.3967 C   0  0  0  0  0  0  0  0  0  0  0  0
   -1.4670    3.9022    0.3437 H   0  0  0  0  0  0  0  0  0  0  0  0
   -1.2782    2.3205    1.1706 H   0  0  0  0  0  0  0  0  0  0  0  0
   -3.3469    2.8386    0.6951 C   0  0  0  0  0  0  0  0  0  0  0  0
   -3.9114    3.3395   -0.1150 H   0  0  0  0  0  0  0  0  0  0  0  0
   -3.5501    3.3718    1.6448 H   0  0  0  0  0  0  0  0  0  0  0  0
   -3.7118    1.7965    0.7940 H   0  0  0  0  0  0  0  0  0  0  0  0
   -0.5781   -0.4183   -3.0385 C   0  0  0  0  0  0  0  0  0  0  0  0
    0.5259   -0.5152   -2.9966 H   0  0  0  0  0  0  0  0  0  0  0  0
   -0.9253   -0.4299   -4.0861 H   0  0  0  0  0  0  0  0  0  0  0  0
   -1.2481   -1.5895   -2.2779 C   0  0  0  0  0  0  0  0  0  0  0  0
   -1.7356   -2.5064   -0.1227 C   0  0  0  0  0  0  0  0  0  0  0  0
   -1.0632   -2.9507    0.6386 H   0  0  0  0  0  0  0  0  0  0  0  0
   -2.1356   -3.3068   -0.7785 H   0  0  0  0  0  0  0  0  0  0  0  0
   -2.8813   -1.8370    0.5645 C   0  0  0  0  0  0  0  0  0  0  0  0
   -4.1852   -1.5907    0.1919 C   0  0  0  0  0  0  0  0  0  0  0  0
   -4.6512   -1.9382   -0.7365 H   0  0  0  0  0  0  0  0  0  0  0  0
   -4.7776   -0.8085    1.2407 C   0  0  0  0  0  0  0  0  0  0  0  0
   -5.8075   -0.4384    1.2977 H   0  0  0  0  0  0  0  0  0  0  0  0
   -3.7914   -0.6262    2.1818 C   0  0  0  0  0  0  0  0  0  0  0  0
   -3.7563   -0.1272    3.1556 H   0  0  0  0  0  0  0  0  0  0  0  0
  1 20  2  0  0  0  0
  2 29  1  0  0  0  0
  3 10  1  0  0  0  0
  4  3  1  0  0  0  0
  5  7  1  0  0  0  0
  6 21  1  0  0  0  0
  7  3  1  0  0  0  0
  8  5  1  0  0  0  0
  8  4  2  0  0  0  0
  9  8  1  0  0  0  0
 10 13  1  0  0  0  0
 10 12  1  0  0  0  0
 11 10  1  0  0  0  0
 13 16  1  0  0  0  0
 13 15  1  0  0  0  0
 14 13  1  0  0  0  0
 17 18  1  0  0  0  0
 17  5  1  0  0  0  0
 17 20  1  0  0  0  0
 19 17  1  0  0  0  0
 20  6  1  0  0  0  0
 21 24  1  0  0  0  0
 21 22  1  0  0  0  0
 23 21  1  0  0  0  0
 24  2  1  0  0  0  0
 25 24  2  0  0  0  0
 25 27  1  0  0  0  0
 26 25  1  0  0  0  0
 27 28  1  0  0  0  0
 27 29  2  0  0  0  0
 29 30  1  0  0  0  0
M  END
