1,21
q = 0.0, confidence = 0.968

 46 48  0  0  1  0  0  0  0  0999 V2000
   -1.5887    0.0280   -0.1134 N   0  0  0  0  0  0  0  0  0  0  0  0
    1.0471    1.7650   -0.2121 N   0  0  0  0  0  0  0  0  0  0  0  0
   -1.4044    1.4900    0.0923 C   0  0  0  0  0  0  0  0  0  0  0  0
   -0.2637    2.1299   -0.7054 C   0  0  0  0  0  0  0  0  0  0  0  0
   -2.7516   -0.5263    0.6556 C   0  0  2  0  0  0  0  0  0  0  0  0
   -2.8299   -2.0424    0.4612 C   0  0  0  0  0  0  0  0  0  0  0  0
    2.2330    2.3760   -0.8019 C   0  0  1  0  0  0  0  0  0  0  0  0
    2.4146    3.8649   -0.4686 C   0  0  0  0  0  0  0  0  0  0  0  0
   -4.0488    0.1715    0.2753 C   0  0  0  0  0  0  0  0  0  0  0  0
   -4.7867    0.8878    1.2358 C   0  0  0  0  0  0  0  0  0  0  0  0
   -5.9862    1.5290    0.8882 C   0  0  0  0  0  0  0  0  0  0  0  0
   -6.4594    1.4670   -0.4312 C   0  0  0  0  0  0  0  0  0  0  0  0
   -5.7294    0.7573   -1.3993 C   0  0  0  0  0  0  0  0  0  0  0  0
   -4.5357    0.1120   -1.0472 C   0  0  0  0  0  0  0  0  0  0  0  0
    3.4179    1.4945   -0.4166 C   0  0  0  0  0  0  0  0  0  0  0  0
    3.5502    0.2112   -1.1192 C   0  0  1  0  0  0  0  0  0  0  0  0
    4.6561   -0.7595   -0.6982 C   0  0  1  0  0  0  0  0  0  0  0  0
    5.6091   -0.2666    0.3228 C   0  0  0  0  0  0  0  0  0  0  0  0
    5.4006    0.9282    0.9453 C   0  0  0  0  0  0  0  0  0  0  0  0
    4.2954    1.7945    0.5950 C   0  0  0  0  0  0  0  0  0  0  0  0
    2.0803   -1.4089    0.0456 C   0  0  0  0  0  1  0  0  0  0  0  0
    3.2732   -1.0933   -0.2969 C   0  0  2  0  0  3  0  0  0  0  0  0
   -1.7350   -0.1607   -1.1246 H   0  0  0  0  0  0  0  0  0  0  0  0
    1.0971    1.7098    0.8130 H   0  0  0  0  0  0  0  0  0  0  0  0
   -2.5198   -0.3124    1.7196 H   0  0  0  0  0  0  0  0  0  0  0  0
   -3.7070   -2.4441    1.0039 H   0  0  0  0  0  0  0  0  0  0  0  0
   -1.9121   -2.5298    0.8501 H   0  0  0  0  0  0  0  0  0  0  0  0
   -2.9250   -2.3110   -0.6099 H   0  0  0  0  0  0  0  0  0  0  0  0
    2.1126    2.2832   -1.9071 H   0  0  0  0  0  0  0  0  0  0  0  0
    1.5471    4.4507   -0.8319 H   0  0  0  0  0  0  0  0  0  0  0  0
    3.3270    4.2829   -0.9400 H   0  0  0  0  0  0  0  0  0  0  0  0
    2.4842    4.0252    0.6269 H   0  0  0  0  0  0  0  0  0  0  0  0
   -4.4118    0.9419    2.2704 H   0  0  0  0  0  0  0  0  0  0  0  0
   -6.5522    2.0832    1.6525 H   0  0  0  0  0  0  0  0  0  0  0  0
   -7.3978    1.9714   -0.7069 H   0  0  0  0  0  0  0  0  0  0  0  0
   -6.0959    0.7022   -2.4357 H   0  0  0  0  0  0  0  0  0  0  0  0
   -3.9776   -0.4493   -1.8149 H   0  0  0  0  0  0  0  0  0  0  0  0
    3.1306    0.1338   -2.1361 H   0  0  0  0  0  0  0  0  0  0  0  0
    5.0657   -1.4232   -1.4818 H   0  0  0  0  0  0  0  0  0  0  0  0
    6.4918   -0.8833    0.5474 H   0  0  0  0  0  0  0  0  0  0  0  0
    6.1082    1.2703    1.7159 H   0  0  0  0  0  0  0  0  0  0  0  0
    4.1913    2.7430    1.1417 H   0  0  0  0  0  0  0  0  0  0  0  0
   -2.3511    2.0068   -0.1714 H   0  0  0  0  0  0  0  0  0  0  0  0
   -1.2312    1.6353    1.1791 H   0  0  0  0  0  0  0  0  0  0  0  0
   -0.4631    3.2338   -0.6791 H   0  0  0  0  0  0  0  0  0  0  0  0
   -0.3430    1.8302   -1.7765 H   0  0  0  0  0  0  0  0  0  0  0  0
  1  3  1  0  0  0  0
  1  5  1  0  0  0  0
  2 24  1  0  0  0  0
  3 44  1  0  0  0  0
  4 45  1  0  0  0  0
  4  2  1  0  0  0  0
  4  3  1  0  0  0  0
  5 25  1  1  0  0  0
  6  5  1  0  0  0  0
  6 27  1  0  0  0  0
  6 26  1  0  0  0  0
  7 29  1  6  0  0  0
  7  8  1  0  0  0  0
  7 15  1  0  0  0  0
  7  2  1  0  0  0  0
  8 32  1  0  0  0  0
  9  5  1  0  0  0  0
  9 10  1  0  0  0  0
 10 33  1  0  0  0  0
 11 10  2  0  0  0  0
 11 34  1  0  0  0  0
 12 11  1  0  0  0  0
 13 14  1  0  0  0  0
 13 12  2  0  0  0  0
 14  9  2  0  0  0  0
 15 20  2  0  0  0  0
 16 38  1  6  0  0  0
 16 17  1  0  0  0  0
 16 15  1  0  0  0  0
 16 22  1  0  0  0  0
 17 39  1  6  0  0  0
 17 22  1  0  0  0  0
 17 18  1  0  0  0  0
 18 40  1  0  0  0  0
 18 19  2  0  0  0  0
 19 41  1  0  0  0  0
 20 19  1  0  0  0  0
 20 42  1  0  0  0  0
 22 21  1  6  0  0  0
 23  1  1  0  0  0  0
 28  6  1  0  0  0  0
 30  8  1  0  0  0  0
 31  8  1  0  0  0  0
 35 12  1  0  0  0  0
 36 13  1  0  0  0  0
 37 14  1  0  0  0  0
 43  3  1  0  0  0  0
 46  4  1  0  0  0  0
M  END
