1,3
q = -1.0

 38 38  0  0  0  0  0  0  0  0999 V2000
   -1.0066    1.7560    0.5406 N   0  0  0  0  0  2  0  0  0  0  0  0
   -1.8069   -0.3129   -0.8488 O   0  0  0  0  0  0  0  0  0  0  0  0
   -2.4661   -0.3380    1.6896 C   0  0  0  0  0  2  0  0  0  0  0  0
   -3.4692   -0.5360    0.9110 O   0  0  0  0  0  0  0  0  0  0  0  0
   -0.8790    2.7775    1.4200 C   0  0  0  0  0  3  0  0  0  0  0  0
   -0.5799    2.5028    2.4421 H   0  0  0  0  0  0  0  0  0  0  0  0
   -1.0968    4.1096    1.0619 C   0  0  0  0  0  0  0  0  0  0  0  0
   -0.9782    4.8987    1.8178 H   0  0  0  0  0  0  0  0  0  0  0  0
   -1.4625    4.4089   -0.2595 C   0  0  0  0  0  0  0  0  0  0  0  0
   -1.6369    5.4480   -0.5755 H   0  0  0  0  0  0  0  0  0  0  0  0
   -1.6126    3.3519   -1.1649 C   0  0  0  0  0  0  0  0  0  0  0  0
   -1.9131    3.5309   -2.2074 H   0  0  0  0  0  0  0  0  0  0  0  0
   -1.3823    2.0384   -0.7356 C   0  0  0  0  0  0  0  0  0  0  0  0
   -1.5053    0.8282   -1.6215 C   0  0  0  0  0  0  0  0  0  0  0  0
   -2.2596    0.9989   -2.4152 H   0  0  0  0  0  0  0  0  0  0  0  0
   -0.5290    0.6559   -2.1313 H   0  0  0  0  0  0  0  0  0  0  0  0
   -3.2769   -0.7423   -0.6037 B   0  0  0  0  0  0  0  0  0  0  0  0
   -2.8600   -0.2649    3.1473 C   0  0  0  0  0  0  0  0  0  0  0  0
   -2.3373    0.5936    3.6189 H   0  0  0  0  0  0  0  0  0  0  0  0
   -3.9543   -0.0837    3.2061 H   0  0  0  0  0  0  0  0  0  0  0  0
   -2.4985   -1.5547    3.9024 C   0  0  0  0  0  0  0  0  0  0  0  0
   -2.9607   -2.4377    3.4179 H   0  0  0  0  0  0  0  0  0  0  0  0
   -2.8624   -1.5032    4.9477 H   0  0  0  0  0  0  0  0  0  0  0  0
   -1.4040   -1.7169    3.9311 H   0  0  0  0  0  0  0  0  0  0  0  0
   -3.3903   -2.3309   -0.9007 C   0  0  0  0  0  0  0  0  0  0  0  0
   -2.5827   -2.8631   -0.3515 H   0  0  0  0  0  0  0  0  0  0  0  0
   -4.3385   -2.7193   -0.4679 H   0  0  0  0  0  0  0  0  0  0  0  0
   -3.3222   -2.6839   -2.3908 C   0  0  0  0  0  0  0  0  0  0  0  0
   -4.1876   -2.2692   -2.9498 H   0  0  0  0  0  0  0  0  0  0  0  0
   -3.3117   -3.7790   -2.5770 H   0  0  0  0  0  0  0  0  0  0  0  0
   -2.4106   -2.2639   -2.8685 H   0  0  0  0  0  0  0  0  0  0  0  0
   -4.3581    0.2123   -1.3459 C   0  0  0  0  0  0  0  0  0  0  0  0
   -4.1923    1.2764   -1.0577 H   0  0  0  0  0  0  0  0  0  0  0  0
   -4.2064    0.1707   -2.4489 H   0  0  0  0  0  0  0  0  0  0  0  0
   -5.8098   -0.1696   -1.0295 C   0  0  0  0  0  0  0  0  0  0  0  0
   -6.0430   -1.1980   -1.3752 H   0  0  0  0  0  0  0  0  0  0  0  0
   -6.5465    0.5113   -1.5063 H   0  0  0  0  0  0  0  0  0  0  0  0
   -5.9962   -0.1494    0.0639 H   0  0  0  0  0  0  0  0  0  0  0  0
  1  5  1  0  0  0  0
  2 17  1  0  0  0  0
  3 18  1  0  0  0  0
  4  3  1  0  0  0  0
  5  6  1  0  0  0  0
  7  5  1  0  0  0  0
  7  8  1  0  0  0  0
  9  7  2  0  0  0  0
 10  9  1  0  0  0  0
 11 13  2  0  0  0  0
 11  9  1  0  0  0  0
 12 11  1  0  0  0  0
 13  1  1  0  0  0  0
 14  2  1  0  0  0  0
 14 13  1  0  0  0  0
 15 14  1  0  0  0  0
 16 14  1  0  0  0  0
 17  4  1  0  0  0  0
 18 20  1  0  0  0  0
 18 19  1  0  0  0  0
 18 21  1  0  0  0  0
 21 24  1  0  0  0  0
 21 23  1  0  0  0  0
 22 21  1  0  0  0  0
 25 17  1  0  0  0  0
 25 27  1  0  0  0  0
 25 26  1  0  0  0  0
 28 25  1  0  0  0  0
 29 28  1  0  0  0  0
 30 28  1  0  0  0  0
 31 28  1  0  0  0  0
 32 33  1  0  0  0  0
 32 35  1  0  0  0  0
 32 17  1  0  0  0  0
 34 32  1  0  0  0  0
 35 38  1  0  0  0  0
 36 35  1  0  0  0  0
 37 35  1  0  0  0  0
M  END
