3,6
q = 0.0, confidence = 0.992

 20 20  0  0  0  0  0  0  0  0999 V2000
   -1.9582   -0.6392    1.5979 N   0  0  0  0  0  0  0  0  0  0  0  0
   -2.4793   -0.2212   -0.4633 N   0  0  0  0  0  0  0  0  0  0  0  0
   -0.0846   -1.1273   -2.1048 N   0  0  0  0  0  0  0  0  0  0  0  0
    0.4150   -0.6142   -2.8439 H   0  0  0  0  0  0  0  0  0  0  0  0
    0.3387   -2.0706   -2.0372 H   0  0  0  0  0  0  0  0  0  0  0  0
   -1.4061   -0.4141    0.3661 C   0  0  0  0  0  2  0  0  0  0  0  0
   -3.3459   -0.5717    1.5373 C   0  0  0  0  0  0  0  0  0  0  0  0
   -3.9764   -0.7229    2.4185 H   0  0  0  0  0  0  0  0  0  0  0  0
   -3.6777   -0.3145    0.2350 C   0  0  0  0  0  0  0  0  0  0  0  0
   -4.6523   -0.1957   -0.2478 H   0  0  0  0  0  0  0  0  0  0  0  0
   -1.2206   -0.9892    2.8066 C   0  0  0  0  0  0  0  0  0  0  0  0
   -0.2891   -1.5047    2.5111 H   0  0  0  0  0  0  0  0  0  0  0  0
   -1.8327   -1.6838    3.4104 H   0  0  0  0  0  0  0  0  0  0  0  0
   -0.9979   -0.0912    3.4160 H   0  0  0  0  0  0  0  0  0  0  0  0
   -2.3590   -0.1223   -1.9134 C   0  0  0  0  0  0  0  0  0  0  0  0
   -1.9179    0.8583   -2.1896 H   0  0  0  0  0  0  0  0  0  0  0  0
   -3.3766   -0.1629   -2.3445 H   0  0  0  0  0  0  0  0  0  0  0  0
   -1.5183   -1.2695   -2.4601 C   0  0  0  0  0  0  0  0  0  0  0  0
   -1.8815   -2.2218   -2.0265 H   0  0  0  0  0  0  0  0  0  0  0  0
   -1.6365   -1.3307   -3.5617 H   0  0  0  0  0  0  0  0  0  0  0  0
  1 11  1  0  0  0  0
  2  9  1  0  0  0  0
  2  6  1  0  0  0  0
  3  5  1  0  0  0  0
  4  3  1  0  0  0  0
  6  1  1  0  0  0  0
  7  1  1  0  0  0  0
  7  8  1  0  0  0  0
  9  7  2  0  0  0  0
 10  9  1  0  0  0  0
 11 13  1  0  0  0  0
 11 14  1  0  0  0  0
 12 11  1  0  0  0  0
 15  2  1  0  0  0  0
 16 15  1  0  0  0  0
 17 15  1  0  0  0  0
 18  3  1  0  0  0  0
 18 19  1  0  0  0  0
 18 15  1  0  0  0  0
 20 18  1  0  0  0  0
M  END
