5,27
q = -1.0

 37 39  0  0  0  0  0  0  0  0999 V2000
    0.9063    1.3923    2.3941 O   0  0  0  0  0  0  0  0  0  0  0  0
   -1.3033    1.8742    2.4538 O   0  0  0  0  0  0  0  0  0  0  0  0
   -2.7559    1.6733   -0.3774 O   0  0  0  0  0  0  0  0  0  0  0  0
   -1.4942    3.4556    0.1818 O   0  0  0  0  0  0  0  0  0  0  0  0
    1.1234   -0.9273    0.9393 N   0  0  0  0  0  2  0  0  0  0  0  0
    1.2541   -1.9242    1.8270 C   0  0  0  0  0  0  0  0  0  0  0  0
    0.3056   -2.3812    2.1531 H   0  0  0  0  0  0  0  0  0  0  0  0
    2.5062   -2.3406    2.3122 C   0  0  0  0  0  0  0  0  0  0  0  0
    2.5592   -3.1552    3.0478 H   0  0  0  0  0  0  0  0  0  0  0  0
    3.6473   -1.7333    1.8043 C   0  0  0  0  0  0  0  0  0  0  0  0
    4.6529   -2.0700    2.1007 H   0  0  0  0  0  0  0  0  0  0  0  0
    3.5247   -0.6618    0.8851 C   0  0  0  0  0  0  0  0  0  0  0  0
    4.6752   -0.0522    0.2813 C   0  0  0  0  0  3  0  0  0  0  0  0
    5.6739   -0.4198    0.5621 H   0  0  0  0  0  0  0  0  0  0  0  0
    4.5190    0.9293   -0.6607 C   0  0  0  0  0  0  0  0  0  0  0  0
    5.3940    1.3589   -1.1721 H   0  0  0  0  0  0  0  0  0  0  0  0
    3.2205    1.4547   -0.9908 C   0  0  0  0  0  0  0  0  0  0  0  0
    3.1072    2.4671   -1.9780 C   0  0  0  0  0  0  0  0  0  0  0  0
    4.0146    2.8118   -2.4962 H   0  0  0  0  0  0  0  0  0  0  0  0
    1.8629    3.0082   -2.2698 C   0  0  0  0  0  0  0  0  0  0  0  0
    1.7597    3.7832   -3.0445 H   0  0  0  0  0  0  0  0  0  0  0  0
    0.7307    2.6189   -1.5265 C   0  0  0  0  0  0  0  0  0  0  0  0
   -0.2109    3.1535   -1.6996 H   0  0  0  0  0  0  0  0  0  0  0  0
    0.7844    1.6349   -0.5208 C   0  0  0  0  0  0  0  0  0  0  0  0
    2.0480    0.9641   -0.3187 C   0  0  0  0  0  0  0  0  0  0  0  0
    2.2125   -0.2060    0.5261 C   0  0  0  0  0  0  0  0  0  0  0  0
   -0.4179    1.3324    0.3268 C   0  0  0  0  0  3  0  0  0  0  0  0
   -0.1601    1.5204    1.8157 C   0  0  0  0  0  0  0  0  0  0  0  0
   -1.2519    1.8591    3.8802 C   0  0  0  0  0  0  0  0  0  0  0  0
   -2.1951    2.3185    4.2268 H   0  0  0  0  0  0  0  0  0  0  0  0
   -1.1897    0.8102    4.2357 H   0  0  0  0  0  0  0  0  0  0  0  0
   -0.3766    2.4267    4.2539 H   0  0  0  0  0  0  0  0  0  0  0  0
   -1.6837    2.1188   -0.0139 C   0  0  0  0  0  0  0  0  0  0  0  0
   -2.6680    4.2628    0.0654 C   0  0  0  0  0  0  0  0  0  0  0  0
   -2.3414    5.3061    0.2263 H   0  0  0  0  0  0  0  0  0  0  0  0
   -3.4144    3.9695    0.8316 H   0  0  0  0  0  0  0  0  0  0  0  0
   -3.1359    4.1518   -0.9341 H   0  0  0  0  0  0  0  0  0  0  0  0
  2 29  1  0  0  0  0
  3 33  2  0  0  0  0
  5  6  1  0  0  0  0
  6  7  1  0  0  0  0
  6  8  2  0  0  0  0
  8  9  1  0  0  0  0
 10 11  1  0  0  0  0
 10  8  1  0  0  0  0
 12 10  2  0  0  0  0
 13 14  1  0  0  0  0
 13 12  1  0  0  0  0
 15 13  1  0  0  0  0
 16 15  1  0  0  0  0
 17 15  2  0  0  0  0
 17 25  1  0  0  0  0
 18 17  1  0  0  0  0
 19 18  1  0  0  0  0
 20 18  2  0  0  0  0
 20 22  1  0  0  0  0
 21 20  1  0  0  0  0
 22 24  2  0  0  0  0
 23 22  1  0  0  0  0
 24 25  1  0  0  0  0
 24 27  1  0  0  0  0
 25 26  2  0  0  0  0
 26 12  1  0  0  0  0
 26  5  1  0  0  0  0
 27 28  1  0  0  0  0
 28  1  2  0  0  0  0
 28  2  1  0  0  0  0
 29 30  1  0  0  0  0
 29 31  1  0  0  0  0
 29 32  1  0  0  0  0
 33  4  1  0  0  0  0
 33 27  1  0  0  0  0
 34  4  1  0  0  0  0
 34 35  1  0  0  0  0
 34 36  1  0  0  0  0
 37 34  1  0  0  0  0
M  END
