3,18
q = -1.0

 19 19  0  0  1  0  0  0  0  0999 V2000
   -0.2794   -0.1181    1.9284 O   0  0  0  0  0  0  0  0  0  0  0  0
    2.6907   -1.7472   -1.7788 O   0  0  0  0  0  0  0  0  0  0  0  0
    0.9667    1.1648    0.0206 N   0  0  0  0  0  2  0  0  0  0  0  0
   -0.0424    1.2474    2.1875 C   0  0  0  0  0  0  0  0  0  0  0  0
    0.7724    1.3275    2.9456 H   0  0  0  0  0  0  0  0  0  0  0  0
   -0.9379    1.7461    2.6246 H   0  0  0  0  0  0  0  0  0  0  0  0
    0.4086    1.9786    0.9401 C   0  0  1  0  0  3  0  0  0  0  0  0
    0.3465    3.3599    0.7170 C   0  0  0  0  0  0  0  0  0  0  0  0
   -0.1191    4.0186    1.4645 H   0  0  0  0  0  0  0  0  0  0  0  0
    0.8944    3.8756   -0.4684 C   0  0  0  0  0  0  0  0  0  0  0  0
    0.8605    4.9574   -0.6670 H   0  0  0  0  0  0  0  0  0  0  0  0
    1.4832    3.0079   -1.4001 C   0  0  0  0  0  0  0  0  0  0  0  0
    1.9200    3.3880   -2.3343 H   0  0  0  0  0  0  0  0  0  0  0  0
    1.5001    1.6307   -1.1306 C   0  0  0  0  0  0  0  0  0  0  0  0
    2.0617    0.5531   -2.0021 C   0  0  0  0  0  0  0  0  0  0  0  0
    3.0762    0.7922   -2.3855 H   0  0  0  0  0  0  0  0  0  0  0  0
    1.4096    0.4066   -2.8917 H   0  0  0  0  0  0  0  0  0  0  0  0
    2.0759   -0.8306   -1.2799 C   0  0  0  0  0  3  0  0  0  0  0  0
   -1.2527   -0.1963    1.4674 H   0  0  0  0  0  0  0  0  0  0  0  0
  1  4  1  0  0  0  0
  2 18  2  0  0  0  0
  3  7  1  0  0  0  0
  4  6  1  0  0  0  0
  4  5  1  0  0  0  0
  7  4  1  1  0  0  0
  8  7  1  0  0  0  0
  8  9  1  0  0  0  0
 10  8  2  0  0  0  0
 11 10  1  0  0  0  0
 12 14  2  0  0  0  0
 12 10  1  0  0  0  0
 13 12  1  0  0  0  0
 14  3  1  0  0  0  0
 15 18  1  0  0  0  0
 15 14  1  0  0  0  0
 16 15  1  0  0  0  0
 17 15  1  0  0  0  0
 19  1  1  0  0  0  0
M  END
