6,8
q = -2.0, confidence = 0.864

 22 22  0  0  1  0  0  0  0  0999 V2000
    1.9011    2.1294    0.6325 F   0  0  0  0  0  0  0  0  0  0  0  0
    1.5478    3.0483   -1.4661 F   0  0  0  0  0  0  0  0  0  0  0  0
    0.0213    3.4358    0.2237 F   0  0  0  0  0  0  0  0  0  0  0  0
   -1.5877   -1.7487    2.8683 O   0  0  0  0  0  0  0  0  0  0  0  0
    0.2070    1.2573   -0.7090 O   0  0  0  0  0  0  0  0  0  0  0  0
   -1.9132   -0.2553   -0.6580 N   0  0  0  0  0  2  0  0  0  0  0  0
    0.9252    2.5458   -0.3299 B   0  0  0  0  0  0  0  0  0  0  0  0
   -1.7164   -1.2944    1.7520 C   0  0  0  0  0  3  0  0  0  0  0  0
   -2.8937   -1.8046    0.8678 C   0  0  0  0  0  0  0  0  0  0  0  0
   -2.8120   -2.9110    0.8015 H   0  0  0  0  0  0  0  0  0  0  0  0
   -3.8394   -1.6014    1.4167 H   0  0  0  0  0  0  0  0  0  0  0  0
   -2.8973   -1.1690   -0.4870 C   0  0  2  0  0  3  0  0  0  0  0  0
   -3.7903   -1.4450   -1.5312 C   0  0  0  0  0  0  0  0  0  0  0  0
   -4.5888   -2.1863   -1.3868 H   0  0  0  0  0  0  0  0  0  0  0  0
   -3.6367   -0.7689   -2.7512 C   0  0  0  0  0  0  0  0  0  0  0  0
   -4.3220   -0.9744   -3.5871 H   0  0  0  0  0  0  0  0  0  0  0  0
   -2.6029    0.1647   -2.9025 C   0  0  0  0  0  0  0  0  0  0  0  0
   -2.4558    0.7053   -3.8486 H   0  0  0  0  0  0  0  0  0  0  0  0
   -1.7458    0.4100   -1.8195 C   0  0  0  0  0  0  0  0  0  0  0  0
   -0.6350    1.4230   -1.8307 C   0  0  0  0  0  0  0  0  0  0  0  0
   -0.0573    1.3497   -2.7799 H   0  0  0  0  0  0  0  0  0  0  0  0
   -1.0965    2.4402   -1.8178 H   0  0  0  0  0  0  0  0  0  0  0  0
  2  7  1  0  0  0  0
  5  7  1  0  0  0  0
  6 12  1  0  0  0  0
  7  3  1  0  0  0  0
  7  1  1  0  0  0  0
  8  4  2  0  0  0  0
  9 11  1  0  0  0  0
  9  8  1  0  0  0  0
 10  9  1  0  0  0  0
 12  9  1  6  0  0  0
 13 14  1  0  0  0  0
 13 12  1  0  0  0  0
 15 13  2  0  0  0  0
 16 15  1  0  0  0  0
 17 15  1  0  0  0  0
 17 19  2  0  0  0  0
 18 17  1  0  0  0  0
 19  6  1  0  0  0  0
 20 19  1  0  0  0  0
 20 22  1  0  0  0  0
 20  5  1  0  0  0  0
 21 20  1  0  0  0  0
M  END
