4,19
q = -1.0

 34 35  0  0  1  0  0  0  0  0999 V2000
   -2.1567   -0.3815   -0.1619 O   0  0  0  0  0  0  0  0  0  0  0  0
   -2.5180    1.7950    0.3700 O   0  0  0  0  0  0  0  0  0  0  0  0
    4.4442   -1.9485    1.7245 O   0  0  0  0  0  0  0  0  0  0  0  0
    1.3157   -1.3690   -0.4083 N   0  0  0  0  0  2  0  0  0  0  0  0
   -0.7598   -0.0788   -0.1946 C   0  0  0  0  0  0  0  0  0  0  0  0
   -0.4035    0.1804    0.8218 H   0  0  0  0  0  0  0  0  0  0  0  0
   -0.5939    0.8173   -0.8263 H   0  0  0  0  0  0  0  0  0  0  0  0
   -0.0016   -1.2627   -0.7252 C   0  0  2  0  0  3  0  0  0  0  0  0
   -0.6510   -2.2232   -1.5155 C   0  0  0  0  0  0  0  0  0  0  0  0
   -1.7148   -2.0827   -1.7452 H   0  0  0  0  0  0  0  0  0  0  0  0
    0.0619   -3.3377   -1.9707 C   0  0  0  0  0  0  0  0  0  0  0  0
   -0.4297   -4.1016   -2.5914 H   0  0  0  0  0  0  0  0  0  0  0  0
    1.4035   -3.4688   -1.6048 C   0  0  0  0  0  0  0  0  0  0  0  0
    2.0000   -4.3393   -1.9119 H   0  0  0  0  0  0  0  0  0  0  0  0
    2.0050   -2.4690   -0.8250 C   0  0  0  0  0  0  0  0  0  0  0  0
    3.4146   -2.5535   -0.3529 C   0  0  0  0  0  0  0  0  0  0  0  0
    4.0985   -2.1516   -1.1347 H   0  0  0  0  0  0  0  0  0  0  0  0
    3.7318   -3.5958   -0.1406 H   0  0  0  0  0  0  0  0  0  0  0  0
    3.6277   -1.6444    0.8821 C   0  0  0  0  0  3  0  0  0  0  0  0
   -2.9592    0.6782    0.1508 C   0  0  0  0  0  0  0  0  0  0  0  0
   -4.3979    0.3025    0.1867 C   0  0  0  0  0  0  0  0  0  0  0  0
   -5.3425    1.3255    0.4114 C   0  0  0  0  0  0  0  0  0  0  0  0
   -4.9760    2.3535    0.5482 H   0  0  0  0  0  0  0  0  0  0  0  0
   -6.7062    1.0274    0.4534 C   0  0  0  0  0  0  0  0  0  0  0  0
   -7.4348    1.8356    0.6247 H   0  0  0  0  0  0  0  0  0  0  0  0
   -7.1689   -0.2964    0.2803 C   0  0  0  0  0  0  0  0  0  0  0  0
   -6.2145   -1.3113    0.0597 C   0  0  0  0  0  0  0  0  0  0  0  0
   -6.5553   -2.3497   -0.0762 H   0  0  0  0  0  0  0  0  0  0  0  0
   -4.8457   -1.0223    0.0127 C   0  0  0  0  0  0  0  0  0  0  0  0
   -4.1125   -1.8242   -0.1510 H   0  0  0  0  0  0  0  0  0  0  0  0
   -8.6405   -0.6097    0.3527 C   0  0  0  0  0  0  0  0  0  0  0  0
   -9.2382    0.1140   -0.2377 H   0  0  0  0  0  0  0  0  0  0  0  0
   -9.0061   -0.5471    1.4000 H   0  0  0  0  0  0  0  0  0  0  0  0
   -8.8633   -1.6286   -0.0179 H   0  0  0  0  0  0  0  0  0  0  0  0
  1 20  1  0  0  0  0
  5  1  1  0  0  0  0
  5  6  1  0  0  0  0
  7  5  1  0  0  0  0
  8  4  1  0  0  0  0
  8  5  1  1  0  0  0
  9  8  1  0  0  0  0
 10  9  1  0  0  0  0
 11 13  1  0  0  0  0
 11  9  2  0  0  0  0
 12 11  1  0  0  0  0
 13 15  2  0  0  0  0
 14 13  1  0  0  0  0
 15  4  1  0  0  0  0
 15 16  1  0  0  0  0
 16 18  1  0  0  0  0
 16 19  1  0  0  0  0
 17 16  1  0  0  0  0
 19  3  2  0  0  0  0
 20 21  1  0  0  0  0
 20  2  2  0  0  0  0
 21 22  1  0  0  0  0
 22 24  2  0  0  0  0
 22 23  1  0  0  0  0
 24 25  1  0  0  0  0
 26 31  1  0  0  0  0
 26 24  1  0  0  0  0
 27 26  2  0  0  0  0
 28 27  1  0  0  0  0
 29 27  1  0  0  0  0
 29 21  2  0  0  0  0
 30 29  1  0  0  0  0
 31 33  1  0  0  0  0
 32 31  1  0  0  0  0
 34 31  1  0  0  0  0
M  END
