1,13
q = -1.0, confidence = 0.0

 19 19  0  0  1  0  0  0  0  0999 V2000
   -1.6195   -0.5772    0.0837 N   0  0  0  0  0  2  0  0  0  0  0  0
   -1.9418   -1.8893    0.1377 C   0  0  0  0  0  3  0  0  0  0  0  0
   -1.1005   -2.5892    0.0360 H   0  0  0  0  0  0  0  0  0  0  0  0
   -3.2619   -2.3211    0.2864 C   0  0  0  0  0  0  0  0  0  0  0  0
   -3.4801   -3.3975    0.3263 H   0  0  0  0  0  0  0  0  0  0  0  0
   -4.2810   -1.3604    0.3588 C   0  0  0  0  0  0  0  0  0  0  0  0
   -5.3326   -1.6650    0.4682 H   0  0  0  0  0  0  0  0  0  0  0  0
   -3.9408   -0.0032    0.2731 C   0  0  0  0  0  0  0  0  0  0  0  0
   -4.7169    0.7734    0.3074 H   0  0  0  0  0  0  0  0  0  0  0  0
   -2.5966    0.3749    0.1377 C   0  0  0  0  0  0  0  0  0  0  0  0
   -2.0729    1.7839    0.0248 C   0  0  1  0  0  0  0  0  0  0  0  0
   -1.7467    2.0609    1.0578 H   0  0  0  0  0  0  0  0  0  0  0  0
   -0.8049    1.7219   -0.8491 C   0  0  0  0  0  3  0  0  0  0  0  0
   -0.2415    2.6737   -0.7697 H   0  0  0  0  0  0  0  0  0  0  0  0
   -1.0856    1.5710   -1.9140 H   0  0  0  0  0  0  0  0  0  0  0  0
   -3.1128    2.8083   -0.4410 C   0  0  0  0  0  0  0  0  0  0  0  0
   -2.6416    3.8068   -0.5314 H   0  0  0  0  0  0  0  0  0  0  0  0
   -3.9648    2.9083    0.2637 H   0  0  0  0  0  0  0  0  0  0  0  0
   -3.5163    2.5363   -1.4380 H   0  0  0  0  0  0  0  0  0  0  0  0
  1 10  1  0  0  0  0
  1  2  1  0  0  0  0
  2  4  1  0  0  0  0
  3  2  1  0  0  0  0
  4  5  1  0  0  0  0
  4  6  2  0  0  0  0
  6  7  1  0  0  0  0
  8  9  1  0  0  0  0
  8  6  1  0  0  0  0
 10  8  2  0  0  0  0
 11 10  1  0  0  0  0
 11 12  1  1  0  0  0
 13 14  1  0  0  0  0
 13 11  1  0  0  0  0
 15 13  1  0  0  0  0
 16 11  1  0  0  0  0
 16 18  1  0  0  0  0
 17 16  1  0  0  0  0
 19 16  1  0  0  0  0
M  END
