1,7
q = -1.0

 30 32  0  0  1  0  0  0  0  0999 V2000
   -1.8941    0.7403    0.2820 N   0  0  0  0  0  0  0  0  0  0  0  0
   -1.5745    2.1325   -0.2425 C   0  0  1  0  0  0  0  0  0  0  0  0
   -2.0411    3.2334    0.7233 C   0  0  2  0  0  0  0  0  0  0  0  0
   -1.6803    4.5899    0.0674 C   0  0  0  0  0  0  0  0  0  0  0  0
   -0.1278    4.6749    0.2297 C   0  0  0  0  0  0  0  0  0  0  0  0
    0.2227    3.3071    0.8660 C   0  0  2  0  0  0  0  0  0  0  0  0
   -0.0316    2.2232   -0.2109 C   0  0  0  0  0  3  0  0  0  0  0  0
   -0.9663    3.1300    1.8334 C   0  0  0  0  0  0  0  0  0  0  0  0
   -3.0551    0.0753   -0.2321 C   0  0  0  0  0  0  0  0  0  0  0  0
   -3.1480   -0.2724   -1.5937 C   0  0  0  0  0  0  0  0  0  0  0  0
   -4.2894   -0.9421   -2.0568 C   0  0  0  0  0  0  0  0  0  0  0  0
   -5.3387   -1.2728   -1.1827 C   0  0  0  0  0  0  0  0  0  0  0  0
   -5.2435   -0.9236    0.1732 C   0  0  0  0  0  0  0  0  0  0  0  0
   -4.1099   -0.2462    0.6459 C   0  0  0  0  0  0  0  0  0  0  0  0
   -2.0198    2.2061   -1.2526 H   0  0  0  0  0  0  0  0  0  0  0  0
   -1.9983    0.8140    1.3012 H   0  0  0  0  0  0  0  0  0  0  0  0
   -3.1025    3.1472    1.0346 H   0  0  0  0  0  0  0  0  0  0  0  0
   -2.1914    5.4203    0.5942 H   0  0  0  0  0  0  0  0  0  0  0  0
   -2.0053    4.6288   -0.9920 H   0  0  0  0  0  0  0  0  0  0  0  0
    0.1588    5.5150    0.8967 H   0  0  0  0  0  0  0  0  0  0  0  0
    0.3952    4.8248   -0.7359 H   0  0  0  0  0  0  0  0  0  0  0  0
    1.2236    3.2723    1.3391 H   0  0  0  0  0  0  0  0  0  0  0  0
    0.3817    2.5192   -1.1943 H   0  0  0  0  0  0  0  0  0  0  0  0
   -0.9424    2.1563    2.3670 H   0  0  0  0  0  0  0  0  0  0  0  0
   -1.0504    3.9367    2.5900 H   0  0  0  0  0  0  0  0  0  0  0  0
   -2.2950   -0.0570   -2.2584 H   0  0  0  0  0  0  0  0  0  0  0  0
   -4.3520   -1.2193   -3.1203 H   0  0  0  0  0  0  0  0  0  0  0  0
   -6.2281   -1.8017   -1.5567 H   0  0  0  0  0  0  0  0  0  0  0  0
   -6.0582   -1.1729    0.8700 H   0  0  0  0  0  0  0  0  0  0  0  0
   -4.0341    0.0331    1.7096 H   0  0  0  0  0  0  0  0  0  0  0  0
  1 16  1  0  0  0  0
  2 15  1  6  0  0  0
  2  7  1  0  0  0  0
  2  1  1  0  0  0  0
  2  3  1  0  0  0  0
  3 17  1  1  0  0  0
  3  8  1  0  0  0  0
  4  5  1  0  0  0  0
  4 18  1  0  0  0  0
  4  3  1  0  0  0  0
  5  6  1  0  0  0  0
  5 20  1  0  0  0  0
  6 22  1  1  0  0  0
  6  8  1  0  0  0  0
  7  6  1  0  0  0  0
  8 24  1  0  0  0  0
  8 25  1  0  0  0  0
  9  1  1  0  0  0  0
  9 14  1  0  0  0  0
 10  9  2  0  0  0  0
 11 10  1  0  0  0  0
 11 12  2  0  0  0  0
 12 13  1  0  0  0  0
 13 14  2  0  0  0  0
 13 29  1  0  0  0  0
 14 30  1  0  0  0  0
 19  4  1  0  0  0  0
 21  5  1  0  0  0  0
 23  7  1  0  0  0  0
 26 10  1  0  0  0  0
 27 11  1  0  0  0  0
 28 12  1  0  0  0  0
M  END
