3,5
q = -2.0, confidence = 0.966

 38 39  0  0  1  0  0  0  0  0999 V2000
    2.8025   -1.6867   -0.0758 S   0  0  0  0  0  0  0  0  0  0  0  0
    0.6442    2.2085   -0.1814 Si  0  0  0  0  0  0  0  0  0  0  0  0
    1.1090    0.4807   -0.1055 N   0  0  0  0  0  2  0  0  0  0  0  0
    3.4642    0.8431   -0.0199 N   0  0  0  0  0  0  0  0  0  0  0  0
   -1.1694    1.7239   -0.4438 C   0  0  2  0  0  3  0  0  0  0  0  0
   -2.1102    1.3673    0.5890 C   0  0  0  0  0  0  0  0  0  0  0  0
   -2.9439    0.3216    0.0915 C   0  0  0  0  0  0  0  0  0  0  0  0
   -2.5668    0.0496   -1.2734 C   0  0  0  0  0  0  0  0  0  0  0  0
   -1.5002    0.9275   -1.6154 C   0  0  0  0  0  0  0  0  0  0  0  0
   -2.2463    1.9950    1.9460 C   0  0  0  0  0  0  0  0  0  0  0  0
   -3.1110    2.6932    1.9624 H   0  0  0  0  0  0  0  0  0  0  0  0
   -1.3516    2.5804    2.2190 H   0  0  0  0  0  0  0  0  0  0  0  0
   -2.4193    1.2444    2.7425 H   0  0  0  0  0  0  0  0  0  0  0  0
   -4.1413   -0.2731    0.7728 C   0  0  0  0  0  0  0  0  0  0  0  0
   -4.1255   -0.1076    1.8662 H   0  0  0  0  0  0  0  0  0  0  0  0
   -4.2313   -1.3642    0.5945 H   0  0  0  0  0  0  0  0  0  0  0  0
   -5.0770    0.1868    0.3844 H   0  0  0  0  0  0  0  0  0  0  0  0
   -3.2920   -0.9146   -2.1644 C   0  0  0  0  0  0  0  0  0  0  0  0
   -4.3023   -0.5317   -2.4259 H   0  0  0  0  0  0  0  0  0  0  0  0
   -3.4344   -1.8971   -1.6707 H   0  0  0  0  0  0  0  0  0  0  0  0
   -2.7506   -1.0979   -3.1109 H   0  0  0  0  0  0  0  0  0  0  0  0
   -0.8436    1.0247   -2.9653 C   0  0  0  0  0  0  0  0  0  0  0  0
   -1.3354    0.3598   -3.7007 H   0  0  0  0  0  0  0  0  0  0  0  0
    0.2330    0.7579   -2.9420 H   0  0  0  0  0  0  0  0  0  0  0  0
   -0.9138    2.0590   -3.3597 H   0  0  0  0  0  0  0  0  0  0  0  0
    1.0723    3.0912    1.4292 C   0  0  0  0  0  0  0  0  0  0  0  0
    0.7538    2.5233    2.3238 H   0  0  0  0  0  0  0  0  0  0  0  0
    0.6339    4.1090    1.4760 H   0  0  0  0  0  0  0  0  0  0  0  0
    2.1771    3.1824    1.4648 H   0  0  0  0  0  0  0  0  0  0  0  0
    1.4631    3.1647   -1.5822 C   0  0  0  0  0  0  0  0  0  0  0  0
    2.5490    3.2106   -1.3650 H   0  0  0  0  0  0  0  0  0  0  0  0
    1.0617    4.1986   -1.6247 H   0  0  0  0  0  0  0  0  0  0  0  0
    1.3302    2.6979   -2.5747 H   0  0  0  0  0  0  0  0  0  0  0  0
    2.3983    0.0565   -0.0696 C   0  0  0  0  0  0  0  0  0  0  0  0
    4.4911   -1.2584   -0.0211 C   0  0  0  0  0  0  0  0  0  0  0  0
    5.2763   -2.0236   -0.0153 H   0  0  0  0  0  0  0  0  0  0  0  0
    4.6252    0.1136    0.0035 C   0  0  0  0  0  0  0  0  0  0  0  0
    5.5912    0.6392    0.0396 H   0  0  0  0  0  0  0  0  0  0  0  0
  1 34  1  0  0  0  0
  1 35  1  0  0  0  0
  2  3  1  0  0  0  0
  2 26  1  0  0  0  0
  3 34  1  0  0  0  0
  4 37  1  0  0  0  0
  5  2  1  1  0  0  0
  5  6  1  0  0  0  0
  6 10  1  0  0  0  0
  7  6  2  0  0  0  0
  7 14  1  0  0  0  0
  8  7  1  0  0  0  0
  9  8  2  0  0  0  0
  9  5  1  0  0  0  0
 10 11  1  0  0  0  0
 10 12  1  0  0  0  0
 10 13  1  0  0  0  0
 14 15  1  0  0  0  0
 16 14  1  0  0  0  0
 17 14  1  0  0  0  0
 18 20  1  0  0  0  0
 18  8  1  0  0  0  0
 19 18  1  0  0  0  0
 21 18  1  0  0  0  0
 22 24  1  0  0  0  0
 22  9  1  0  0  0  0
 23 22  1  0  0  0  0
 25 22  1  0  0  0  0
 26 29  1  0  0  0  0
 26 28  1  0  0  0  0
 26 27  1  0  0  0  0
 30 31  1  0  0  0  0
 30  2  1  0  0  0  0
 32 30  1  0  0  0  0
 33 30  1  0  0  0  0
 34  4  2  0  0  0  0
 35 36  1  0  0  0  0
 35 37  2  0  0  0  0
 37 38  1  0  0  0  0
M  END
