2,4
q = -1.0

 27 28  0  0  0  0  0  0  0  0999 V2000
    4.0525    2.0181   -0.2686 Cl  0  0  0  0  0  0  0  0  0  0  0  0
   -0.0169   -0.6956    1.1533 N   0  0  0  0  0  2  0  0  0  0  0  0
    1.2790   -1.0210    1.2641 N   0  0  0  0  0  0  0  0  0  0  0  0
   -2.5969   -0.2019    0.6019 C   0  0  0  0  0  3  0  0  0  0  0  0
   -3.9655   -0.0253    0.3173 C   0  0  0  0  0  0  0  0  0  0  0  0
   -4.9507   -0.2668    1.2926 C   0  0  0  0  0  0  0  0  0  0  0  0
   -4.5900   -0.7069    2.5808 C   0  0  0  0  0  0  0  0  0  0  0  0
   -3.2405   -0.9163    2.8851 C   0  0  0  0  0  0  0  0  0  0  0  0
   -2.2455   -0.6774    1.9075 C   0  0  0  0  0  0  0  0  0  0  0  0
   -0.8381   -0.9148    2.1525 C   0  0  0  0  0  3  0  0  0  0  0  0
    2.1510   -0.1745    0.7870 C   0  0  0  0  0  0  0  0  0  0  0  0
    3.5686   -0.5033    0.7438 C   0  0  0  0  0  0  0  0  0  0  0  0
    4.0408   -1.7706    1.1726 C   0  0  0  0  0  0  0  0  0  0  0  0
    5.3944   -2.1038    1.1181 C   0  0  0  0  0  0  0  0  0  0  0  0
    6.3290   -1.1684    0.6358 C   0  0  0  0  0  0  0  0  0  0  0  0
    5.8978    0.0959    0.2118 C   0  0  0  0  0  0  0  0  0  0  0  0
    4.5346    0.4227    0.2676 C   0  0  0  0  0  0  0  0  0  0  0  0
    1.8305    0.8042    0.3922 H   0  0  0  0  0  0  0  0  0  0  0  0
   -2.9437   -1.2735    3.8849 H   0  0  0  0  0  0  0  0  0  0  0  0
   -0.4602   -1.2694    3.1306 H   0  0  0  0  0  0  0  0  0  0  0  0
   -4.2745    0.3242   -0.6819 H   0  0  0  0  0  0  0  0  0  0  0  0
    3.2907   -2.4807    1.5509 H   0  0  0  0  0  0  0  0  0  0  0  0
    5.7297   -3.0964    1.4546 H   0  0  0  0  0  0  0  0  0  0  0  0
   -6.0125   -0.1052    1.0469 H   0  0  0  0  0  0  0  0  0  0  0  0
   -5.3645   -0.8907    3.3405 H   0  0  0  0  0  0  0  0  0  0  0  0
    7.3993   -1.4200    0.5909 H   0  0  0  0  0  0  0  0  0  0  0  0
    6.6105    0.8421   -0.1664 H   0  0  0  0  0  0  0  0  0  0  0  0
  1 17  1  0  0  0  0
  2  3  1  0  0  0  0
  2 10  1  0  0  0  0
  4  9  1  0  0  0  0
  5  4  2  0  0  0  0
  5  6  1  0  0  0  0
  6  7  2  0  0  0  0
  7  8  1  0  0  0  0
  7 25  1  0  0  0  0
  8 19  1  0  0  0  0
  9 10  1  0  0  0  0
  9  8  2  0  0  0  0
 10 20  1  0  0  0  0
 11  3  2  0  0  0  0
 12 11  1  0  0  0  0
 12 13  1  0  0  0  0
 13 22  1  0  0  0  0
 14 13  2  0  0  0  0
 14 23  1  0  0  0  0
 15 14  1  0  0  0  0
 16 17  1  0  0  0  0
 16 15  2  0  0  0  0
 17 12  2  0  0  0  0
 18 11  1  0  0  0  0
 21  5  1  0  0  0  0
 24  6  1  0  0  0  0
 26 15  1  0  0  0  0
 27 16  1  0  0  0  0
M  END
