1,22
q = -1.0

 25 26  0  0  1  0  0  0  0  0999 V2000
   -1.4697   -0.2257    0.0136 N   0  0  0  0  0  2  0  0  0  0  0  0
   -2.2203    0.9064    0.2291 C   0  0  1  0  0  3  0  0  0  0  0  0
   -2.1483   -1.3808   -0.2654 C   0  0  0  0  0  0  0  0  0  0  0  0
   -1.5206   -2.2673   -0.4174 H   0  0  0  0  0  0  0  0  0  0  0  0
   -3.5331   -1.4646   -0.3663 C   0  0  0  0  0  0  0  0  0  0  0  0
   -3.9918   -2.4367   -0.5961 H   0  0  0  0  0  0  0  0  0  0  0  0
   -4.3033   -0.3069   -0.1807 C   0  0  0  0  0  0  0  0  0  0  0  0
   -5.3998   -0.3267   -0.2617 H   0  0  0  0  0  0  0  0  0  0  0  0
   -3.6236    0.8757    0.1195 C   0  0  0  0  0  0  0  0  0  0  0  0
   -4.1777    1.8098    0.2914 H   0  0  0  0  0  0  0  0  0  0  0  0
   -1.5547    2.2011    0.6196 C   0  0  0  0  0  0  0  0  0  0  0  0
   -1.0201    2.0387    1.5820 H   0  0  0  0  0  0  0  0  0  0  0  0
   -2.3539    2.9413    0.8187 H   0  0  0  0  0  0  0  0  0  0  0  0
   -0.5535    2.7879   -0.4027 C   0  0  0  0  0  0  0  0  0  0  0  0
   -0.9921    2.7715   -1.4205 H   0  0  0  0  0  0  0  0  0  0  0  0
   -0.3780    3.8541   -0.1458 H   0  0  0  0  0  0  0  0  0  0  0  0
    0.7517    2.0453   -0.3884 C   0  0  0  0  0  0  0  0  0  0  0  0
    1.5389    1.8031    0.7892 C   0  0  0  0  0  0  0  0  0  0  0  0
    1.3563    2.2156    1.7882 H   0  0  0  0  0  0  0  0  0  0  0  0
    2.6202    0.9175    0.4218 C   0  0  0  0  0  0  0  0  0  0  0  0
    3.4130    0.5578    1.0877 H   0  0  0  0  0  0  0  0  0  0  0  0
    2.5230    0.6596   -0.9867 C   0  0  0  0  0  3  0  0  0  0  0  0
    3.2242    0.0612   -1.5799 H   0  0  0  0  0  0  0  0  0  0  0  0
    1.3788    1.3800   -1.4988 C   0  0  0  0  0  0  0  0  0  0  0  0
    1.0356    1.4055   -2.5396 H   0  0  0  0  0  0  0  0  0  0  0  0
  1  2  1  0  0  0  0
  2 11  1  1  0  0  0
  3  1  1  0  0  0  0
  4  3  1  0  0  0  0
  5  3  2  0  0  0  0
  5  7  1  0  0  0  0
  6  5  1  0  0  0  0
  7  9  2  0  0  0  0
  8  7  1  0  0  0  0
  9  2  1  0  0  0  0
  9 10  1  0  0  0  0
 11 13  1  0  0  0  0
 11 12  1  0  0  0  0
 14 17  1  0  0  0  0
 14 16  1  0  0  0  0
 14 11  1  0  0  0  0
 15 14  1  0  0  0  0
 17 18  1  0  0  0  0
 18 19  1  0  0  0  0
 20 18  2  0  0  0  0
 20 21  1  0  0  0  0
 22 20  1  0  0  0  0
 23 22  1  0  0  0  0
 24 22  1  0  0  0  0
 24 17  2  0  0  0  0
 25 24  1  0  0  0  0
M  END
