3,4
q = 0.0, confidence = 0.994

 27 29  0  0  1  0  0  0  0  0999 V2000
    2.4259   -0.4220   -0.0000 N   0  0  0  0  0  0  0  0  0  0  0  0
    1.2720    1.4186    0.0001 N   0  0  0  0  0  0  0  0  0  0  0  0
   -1.0458    1.5040   -0.0001 N   0  0  0  0  0  2  0  0  0  0  0  0
    1.1371    0.0475    0.0000 C   0  0  0  0  0  2  0  0  0  0  0  0
    3.3508    0.6643    0.0000 C   0  0  0  0  0  0  0  0  0  0  0  0
    0.1144    2.2151    0.0001 C   0  0  2  0  0  3  0  0  0  0  0  0
    4.7496    0.3968   -0.0000 C   0  0  0  0  0  0  0  0  0  0  0  0
    5.4483    1.2444   -0.0000 H   0  0  0  0  0  0  0  0  0  0  0  0
   -2.2265    2.1890   -0.0001 C   0  0  0  0  0  0  0  0  0  0  0  0
    2.8782   -1.7382   -0.0001 C   0  0  0  0  0  0  0  0  0  0  0  0
    2.0840   -2.4985   -0.0001 H   0  0  0  0  0  0  0  0  0  0  0  0
   -3.5231    1.4448   -0.0003 C   0  0  0  0  0  0  0  0  0  0  0  0
   -3.6037    0.7943   -0.8926 H   0  0  0  0  0  0  0  0  0  0  0  0
   -4.3710    2.1522   -0.0005 H   0  0  0  0  0  0  0  0  0  0  0  0
   -3.6040    0.7943    0.8919 H   0  0  0  0  0  0  0  0  0  0  0  0
   -1.0312    4.3150    0.0001 C   0  0  0  0  0  0  0  0  0  0  0  0
   -1.0332    5.4144    0.0002 H   0  0  0  0  0  0  0  0  0  0  0  0
   -2.2295    3.5980   -0.0000 C   0  0  0  0  0  0  0  0  0  0  0  0
   -3.1953    4.1212   -0.0001 H   0  0  0  0  0  0  0  0  0  0  0  0
    4.2261   -1.9810   -0.0002 C   0  0  0  0  0  0  0  0  0  0  0  0
    4.5645   -3.0261   -0.0002 H   0  0  0  0  0  0  0  0  0  0  0  0
    5.1805   -0.9104   -0.0001 C   0  0  0  0  0  0  0  0  0  0  0  0
    6.2555   -1.1393   -0.0002 H   0  0  0  0  0  0  0  0  0  0  0  0
    0.1761    3.6104    0.0002 C   0  0  0  0  0  0  0  0  0  0  0  0
    1.1409    4.1318    0.0003 H   0  0  0  0  0  0  0  0  0  0  0  0
    2.5952    1.8249    0.0001 C   0  0  0  0  0  0  0  0  0  0  0  0
    2.9132    2.8688    0.0001 H   0  0  0  0  0  0  0  0  0  0  0  0
  1  5  1  0  0  0  0
  1  4  1  0  0  0  0
  3  6  1  0  0  0  0
  4  2  1  0  0  0  0
  5 26  2  0  0  0  0
  6  2  1  6  0  0  0
  6 24  1  0  0  0  0
  7  8  1  0  0  0  0
  7  5  1  0  0  0  0
  9  3  1  0  0  0  0
  9 18  2  0  0  0  0
 10  1  1  0  0  0  0
 11 10  1  0  0  0  0
 12  9  1  0  0  0  0
 12 15  1  0  0  0  0
 13 12  1  0  0  0  0
 14 12  1  0  0  0  0
 16 24  2  0  0  0  0
 16 17  1  0  0  0  0
 18 16  1  0  0  0  0
 19 18  1  0  0  0  0
 20 22  1  0  0  0  0
 20 10  2  0  0  0  0
 21 20  1  0  0  0  0
 22  7  2  0  0  0  0
 23 22  1  0  0  0  0
 24 25  1  0  0  0  0
 26  2  1  0  0  0  0
 26 27  1  0  0  0  0
M  END
