1,13
q = -1.0

 23 24  0  0  0  0  0  0  0  0999 V2000
   -1.5025   -0.1108   -0.2244 N   0  0  0  0  0  2  0  0  0  0  0  0
   -3.4824    0.8617   -0.2470 C   0  0  0  0  0  0  0  0  0  0  0  0
   -4.3625    1.5105   -0.2444 H   0  0  0  0  0  0  0  0  0  0  0  0
    1.1140    2.8770    0.1791 C   0  0  0  0  0  0  0  0  0  0  0  0
    2.1863    2.6325    0.1329 H   0  0  0  0  0  0  0  0  0  0  0  0
   -1.2154    2.2386    0.0527 C   0  0  0  0  0  0  0  0  0  0  0  0
    0.7259    4.2200    0.3140 C   0  0  0  0  0  0  0  0  0  0  0  0
    1.4975    5.0016    0.4008 H   0  0  0  0  0  0  0  0  0  0  0  0
   -1.6087    3.5850    0.1832 C   0  0  0  0  0  0  0  0  0  0  0  0
   -2.6776    3.8528    0.1660 H   0  0  0  0  0  0  0  0  0  0  0  0
   -0.6347    4.5799    0.3252 C   0  0  0  0  0  0  0  0  0  0  0  0
   -0.9305    5.6345    0.4287 H   0  0  0  0  0  0  0  0  0  0  0  0
    0.1608    1.8444    0.0703 C   0  0  0  0  0  3  0  0  0  0  0  0
   -5.2078   -1.8482    0.8848 C   0  0  0  0  0  0  0  0  0  0  0  0
   -6.1082   -2.4847    0.7784 H   0  0  0  0  0  0  0  0  0  0  0  0
   -5.4507   -1.0169    1.5760 H   0  0  0  0  0  0  0  0  0  0  0  0
   -4.4032   -2.4574    1.3412 H   0  0  0  0  0  0  0  0  0  0  0  0
   -2.1198    1.1206   -0.1279 C   0  0  0  0  0  0  0  0  0  0  0  0
   -2.3667   -1.0848   -0.3871 N   0  0  0  0  0  2  0  0  0  0  0  0
   -3.5716   -0.4960   -0.4069 N   0  0  0  0  0  0  0  0  0  0  0  0
   -4.7708   -1.3238   -0.4810 C   0  0  0  0  0  0  0  0  0  0  0  0
   -4.5345   -2.1557   -1.1727 H   0  0  0  0  0  0  0  0  0  0  0  0
   -5.5617   -0.7088   -0.9538 H   0  0  0  0  0  0  0  0  0  0  0  0
  1 18  1  0  0  0  0
  2  3  1  0  0  0  0
  2 18  2  0  0  0  0
  4  7  1  0  0  0  0
  5  4  1  0  0  0  0
  6 13  1  0  0  0  0
  6  9  2  0  0  0  0
  7 11  2  0  0  0  0
  7  8  1  0  0  0  0
  9 11  1  0  0  0  0
 10  9  1  0  0  0  0
 11 12  1  0  0  0  0
 13  4  2  0  0  0  0
 14 17  1  0  0  0  0
 14 16  1  0  0  0  0
 15 14  1  0  0  0  0
 18  6  1  0  0  0  0
 19  1  1  0  0  0  0
 20 19  1  0  0  0  0
 20  2  1  0  0  0  0
 21 20  1  0  0  0  0
 21 14  1  0  0  0  0
 22 21  1  0  0  0  0
 23 21  1  0  0  0  0
M  END
