1,8
q = -1.0

 36 39  0  0  0  0  0  0  0  0999 V2000
   -0.4768    0.3869   -0.2888 N   0  0  0  0  0  2  0  0  0  0  0  0
   -6.2194   -1.3766    0.9862 N   0  0  0  0  0  0  0  0  0  0  0  0
    1.3939    4.8737   -0.8022 N   0  0  0  0  0  0  0  0  0  0  0  0
   -5.9533   -2.5737    0.8875 O   0  0  0  0  0  0  0  0  0  0  0  0
   -7.3058   -0.9119    1.3283 O   0  0  0  0  0  0  0  0  0  0  0  0
    2.4645    4.3384   -1.0777 O   0  0  0  0  0  0  0  0  0  0  0  0
    1.1976    6.0878   -0.7345 O   0  0  0  0  0  0  0  0  0  0  0  0
    0.2443   -2.0480   -0.9124 C   0  0  0  0  0  2  0  0  0  0  0  0
    0.6830   -3.2668   -1.4677 C   0  0  0  0  0  0  0  0  0  0  0  0
    1.7578   -3.5025   -1.4894 H   0  0  0  0  0  0  0  0  0  0  0  0
   -0.2292   -4.1862   -2.0051 C   0  0  0  0  0  0  0  0  0  0  0  0
    0.1409   -5.1261   -2.4444 H   0  0  0  0  0  0  0  0  0  0  0  0
   -1.6086   -3.9070   -2.0138 C   0  0  0  0  0  0  0  0  0  0  0  0
   -2.3171   -4.6140   -2.4695 H   0  0  0  0  0  0  0  0  0  0  0  0
   -2.0774   -2.7137   -1.4599 C   0  0  0  0  0  0  0  0  0  0  0  0
   -3.1492   -2.4860   -1.5277 H   0  0  0  0  0  0  0  0  0  0  0  0
   -1.1697   -1.7873   -0.8854 C   0  0  0  0  0  0  0  0  0  0  0  0
   -1.5268   -0.4598   -0.3946 C   0  0  0  0  0  0  0  0  0  0  0  0
   -2.8547    0.0082   -0.0338 C   0  0  0  0  0  0  0  0  0  0  0  0
   -3.9005   -0.8954    0.2804 C   0  0  0  0  0  0  0  0  0  0  0  0
   -3.7500   -1.9801    0.2800 H   0  0  0  0  0  0  0  0  0  0  0  0
   -5.1433   -0.4070    0.6579 C   0  0  0  0  0  0  0  0  0  0  0  0
   -5.4082    0.9718    0.7633 C   0  0  0  0  0  0  0  0  0  0  0  0
   -6.4095    1.3016    1.0697 H   0  0  0  0  0  0  0  0  0  0  0  0
   -4.3760    1.8648    0.5080 C   0  0  0  0  0  0  0  0  0  0  0  0
   -4.5628    2.9393    0.6345 H   0  0  0  0  0  0  0  0  0  0  0  0
   -3.0845    1.4161    0.1224 C   0  0  0  0  0  0  0  0  0  0  0  0
   -1.9746    2.3232   -0.0984 C   0  0  0  0  0  0  0  0  0  0  0  0
   -2.1243    3.7347   -0.1443 C   0  0  0  0  0  0  0  0  0  0  0  0
   -3.1227    4.1787   -0.0352 H   0  0  0  0  0  0  0  0  0  0  0  0
   -1.0366    4.5728   -0.3477 C   0  0  0  0  0  0  0  0  0  0  0  0
   -1.1327    5.6651   -0.3894 H   0  0  0  0  0  0  0  0  0  0  0  0
    0.2319    3.9877   -0.5287 C   0  0  0  0  0  0  0  0  0  0  0  0
    0.4411    2.6177   -0.4846 C   0  0  0  0  0  0  0  0  0  0  0  0
    1.4474    2.2106   -0.6345 H   0  0  0  0  0  0  0  0  0  0  0  0
   -0.6652    1.7607   -0.2575 C   0  0  0  0  0  0  0  0  0  0  0  0
  1 36  1  0  0  0  0
  2  5  2  0  0  0  0
  3  7  2  0  0  0  0
  3 33  1  0  0  0  0
  4  2  2  0  0  0  0
  6  3  2  0  0  0  0
  8 17  1  0  0  0  0
  9  8  1  0  0  0  0
 10  9  1  0  0  0  0
 11  9  2  0  0  0  0
 12 11  1  0  0  0  0
 13 11  1  0  0  0  0
 13 15  2  0  0  0  0
 14 13  1  0  0  0  0
 15 17  1  0  0  0  0
 16 15  1  0  0  0  0
 17 18  2  0  0  0  0
 18  1  1  0  0  0  0
 18 19  1  0  0  0  0
 19 27  2  0  0  0  0
 19 20  1  0  0  0  0
 20 22  2  0  0  0  0
 21 20  1  0  0  0  0
 22 23  1  0  0  0  0
 22  2  1  0  0  0  0
 23 24  1  0  0  0  0
 25 26  1  0  0  0  0
 25 23  2  0  0  0  0
 27 25  1  0  0  0  0
 28 27  1  0  0  0  0
 29 28  1  0  0  0  0
 29 30  1  0  0  0  0
 31 29  2  0  0  0  0
 32 31  1  0  0  0  0
 33 34  2  0  0  0  0
 33 31  1  0  0  0  0
 34 36  1  0  0  0  0
 35 34  1  0  0  0  0
 36 28  2  0  0  0  0
M  END
