2,9
q = -1.0, confidence = 0.0

 23 25  0  0  0  0  0  0  0  0999 V2000
    3.1960    1.4409   -0.1973 O   0  0  0  0  0  0  0  0  0  0  0  0
   -0.3909    1.8702    0.1599 N   0  0  0  0  0  2  0  0  0  0  0  0
   -1.4140    2.7325    0.2572 C   0  0  0  0  0  0  0  0  0  0  0  0
   -1.2264    4.1209    0.2103 C   0  0  0  0  0  0  0  0  0  0  0  0
    0.0815    4.6170    0.0560 C   0  0  0  0  0  0  0  0  0  0  0  0
    1.1532    3.7255   -0.0391 C   0  0  0  0  0  0  0  0  0  0  0  0
    0.8937    2.3401    0.0199 C   0  0  0  0  0  0  0  0  0  0  0  0
    1.8366    1.2641   -0.0441 C   0  0  0  0  0  0  0  0  0  0  0  0
    1.4427   -0.0668    0.0500 C   0  0  0  0  0  3  0  0  0  0  0  0
    2.6779   -0.8094   -0.0597 C   0  0  0  0  0  0  0  0  0  0  0  0
    3.0439   -2.1760   -0.0506 C   0  0  0  0  0  0  0  0  0  0  0  0
    4.3939   -2.5092   -0.1950 C   0  0  0  0  0  0  0  0  0  0  0  0
    5.3902   -1.5137   -0.3434 C   0  0  0  0  0  0  0  0  0  0  0  0
    5.0631   -0.1502   -0.3522 C   0  0  0  0  0  0  0  0  0  0  0  0
    3.7105    0.1692   -0.2095 C   0  0  0  0  0  3  0  0  0  0  0  0
   -2.4056    2.2692    0.3803 H   0  0  0  0  0  0  0  0  0  0  0  0
   -2.0903    4.7943    0.2951 H   0  0  0  0  0  0  0  0  0  0  0  0
    0.2622    5.7019    0.0136 H   0  0  0  0  0  0  0  0  0  0  0  0
    2.1900    4.0698   -0.1547 H   0  0  0  0  0  0  0  0  0  0  0  0
    2.2703   -2.9443    0.0806 H   0  0  0  0  0  0  0  0  0  0  0  0
    4.6929   -3.5683   -0.1895 H   0  0  0  0  0  0  0  0  0  0  0  0
    6.4434   -1.8139   -0.4530 H   0  0  0  0  0  0  0  0  0  0  0  0
    5.8234    0.6354   -0.4657 H   0  0  0  0  0  0  0  0  0  0  0  0
  1  8  1  0  0  0  0
  2  3  1  0  0  0  0
  3 16  1  0  0  0  0
  4  3  2  0  0  0  0
  4 17  1  0  0  0  0
  5  4  1  0  0  0  0
  6  7  1  0  0  0  0
  6  5  2  0  0  0  0
  7  2  1  0  0  0  0
  8  7  2  0  0  0  0
  8  9  1  0  0  0  0
 10 11  1  0  0  0  0
 10  9  2  0  0  0  0
 11 20  1  0  0  0  0
 12 21  1  0  0  0  0
 12 11  2  0  0  0  0
 13 12  1  0  0  0  0
 14 13  2  0  0  0  0
 14 15  1  0  0  0  0
 15  1  1  0  0  0  0
 15 10  1  0  0  0  0
 18  5  1  0  0  0  0
 19  6  1  0  0  0  0
 22 13  1  0  0  0  0
 23 14  1  0  0  0  0
M  END
