1,9
q = -2.0, confidence = 0.772

 12 11  0  0  0  0  0  0  0  0999 V2000
   -1.2631   -2.6967   -0.6051 N   0  0  0  0  0  2  0  0  0  0  0  0
    2.1493   -3.3384    1.9222 N   0  0  0  0  0  0  0  0  0  0  0  0
   -3.1195   -4.0878   -0.8551 N   0  0  0  0  0  0  0  0  0  0  0  0
   -2.4391   -4.8613   -0.8300 H   0  0  0  0  0  0  0  0  0  0  0  0
   -4.1087   -4.2226   -1.0534 H   0  0  0  0  0  0  0  0  0  0  0  0
   -0.5251   -4.9303   -0.7106 O   0  0  0  0  0  0  0  0  0  0  0  0
   -3.3648   -1.8044   -0.9219 O   0  0  0  0  0  0  0  0  0  0  0  0
   -0.3480   -3.7195   -0.5888 C   0  0  0  0  0  0  0  0  0  0  0  0
    0.9951   -2.9790   -0.3959 C   0  0  0  0  0  3  0  0  0  0  0  0
    1.6837   -3.1168   -1.2531 H   0  0  0  0  0  0  0  0  0  0  0  0
    1.6482   -3.2184    0.8629 C   0  0  0  0  0  0  0  0  0  0  0  0
   -2.6545   -2.8078   -0.8059 C   0  0  0  0  0  0  0  0  0  0  0  0
  1  8  1  0  0  0  0
  3  4  1  0  0  0  0
  3 12  1  0  0  0  0
  5  3  1  0  0  0  0
  6  8  2  0  0  0  0
  7 12  2  0  0  0  0
  8  9  1  0  0  0  0
  9 11  1  0  0  0  0
 10  9  1  0  0  0  0
 11  2  3  0  0  0  0
 12  1  1  0  0  0  0
M  END
