2,5
q = -1.0

 26 27  0  0  0  0  0  0  0  0999 V2000
   -1.3693    0.3289   -2.1651 O   0  0  0  0  0  0  0  0  0  0  0  0
    0.1296   -1.7266    0.7557 N   0  0  0  0  0  2  0  0  0  0  0  0
   -1.6086   -1.4379   -0.7362 N   0  0  0  0  0  0  0  0  0  0  0  0
   -2.8023   -1.8289   -1.3250 N   0  0  0  0  0  0  0  0  0  0  0  0
   -0.9045   -0.2495   -1.1879 C   0  0  0  0  0  3  0  0  0  0  0  0
    0.7757   -2.4429    1.7116 C   0  0  0  0  0  3  0  0  0  0  0  0
    0.2933   -3.6554    2.2001 C   0  0  0  0  0  0  0  0  0  0  0  0
   -0.9138   -4.1597    1.6755 C   0  0  0  0  0  0  0  0  0  0  0  0
   -1.5869   -3.4441    0.6863 C   0  0  0  0  0  0  0  0  0  0  0  0
   -1.0331   -2.2270    0.2376 C   0  0  0  0  0  0  0  0  0  0  0  0
   -3.9748   -1.1567   -0.8878 C   0  0  0  0  0  0  0  0  0  0  0  0
   -5.0948   -1.1137   -1.7424 C   0  0  0  0  0  0  0  0  0  0  0  0
   -6.2833   -0.5126   -1.3113 C   0  0  0  0  0  0  0  0  0  0  0  0
   -6.3755    0.0534   -0.0284 C   0  0  0  0  0  0  0  0  0  0  0  0
   -5.2592    0.0080    0.8196 C   0  0  0  0  0  0  0  0  0  0  0  0
   -4.0644   -0.5948    0.4002 C   0  0  0  0  0  0  0  0  0  0  0  0
    1.7091   -2.0010    2.0882 H   0  0  0  0  0  0  0  0  0  0  0  0
    0.8526   -4.1926    2.9777 H   0  0  0  0  0  0  0  0  0  0  0  0
   -1.3259   -5.1123    2.0397 H   0  0  0  0  0  0  0  0  0  0  0  0
   -2.5264   -3.7871    0.2343 H   0  0  0  0  0  0  0  0  0  0  0  0
   -2.7035   -1.8006   -2.3469 H   0  0  0  0  0  0  0  0  0  0  0  0
   -5.0285   -1.5501   -2.7515 H   0  0  0  0  0  0  0  0  0  0  0  0
   -7.1480   -0.4817   -1.9911 H   0  0  0  0  0  0  0  0  0  0  0  0
   -7.3109    0.5257    0.3047 H   0  0  0  0  0  0  0  0  0  0  0  0
   -5.3138    0.4472    1.8278 H   0  0  0  0  0  0  0  0  0  0  0  0
   -3.1968   -0.6253    1.0725 H   0  0  0  0  0  0  0  0  0  0  0  0
  1  5  2  0  0  0  0
  2  6  1  0  0  0  0
  3 10  1  0  0  0  0
  4 11  1  0  0  0  0
  4  3  1  0  0  0  0
  5  3  1  0  0  0  0
  6 17  1  0  0  0  0
  6  7  1  0  0  0  0
  7 18  1  0  0  0  0
  8 19  1  0  0  0  0
  8  7  2  0  0  0  0
  9  8  1  0  0  0  0
 10  9  2  0  0  0  0
 10  2  1  0  0  0  0
 11 16  1  0  0  0  0
 12 13  1  0  0  0  0
 12 11  2  0  0  0  0
 13 14  2  0  0  0  0
 14 24  1  0  0  0  0
 14 15  1  0  0  0  0
 15 25  1  0  0  0  0
 16 15  2  0  0  0  0
 16 26  1  0  0  0  0
 20  9  1  0  0  0  0
 21  4  1  0  0  0  0
 22 12  1  0  0  0  0
 23 13  1  0  0  0  0
M  END
