2,5
q = -1.0, confidence = 0.076

 47 50  0  0  0  0  0  0  0  0999 V2000
    1.4857    0.1313    0.0136 P   0  0  0  0  0  4  0  0  0  0  0  0
   -0.0986    0.6236   -0.2688 N   0  0  0  0  0  2  0  0  0  0  0  0
    0.4612    2.7305   -1.0723 O   0  0  0  0  0  0  0  0  0  0  0  0
   -1.8261    2.2698   -0.4433 C   0  0  0  0  0  0  0  0  0  0  0  0
   -2.6985    1.2256   -0.0728 C   0  0  0  0  0  3  0  0  0  0  0  0
   -4.0482    1.4948    0.1826 C   0  0  0  0  0  0  0  0  0  0  0  0
   -4.7301    0.6755    0.4521 H   0  0  0  0  0  0  0  0  0  0  0  0
   -4.5122    2.8185    0.0674 C   0  0  0  0  0  0  0  0  0  0  0  0
   -5.5723    3.0351    0.2737 H   0  0  0  0  0  0  0  0  0  0  0  0
   -3.6484    3.8610   -0.3164 C   0  0  0  0  0  0  0  0  0  0  0  0
   -4.0325    4.8879   -0.4106 H   0  0  0  0  0  0  0  0  0  0  0  0
   -2.3010    3.5873   -0.5786 C   0  0  0  0  0  0  0  0  0  0  0  0
   -1.5890    4.3709   -0.8812 H   0  0  0  0  0  0  0  0  0  0  0  0
   -0.3877    1.9488   -0.6523 C   0  0  0  0  0  0  0  0  0  0  0  0
    1.4428   -1.0795    1.3636 C   0  0  0  0  0  0  0  0  0  0  0  0
    2.3428   -2.1599    1.3853 C   0  0  0  0  0  0  0  0  0  0  0  0
    3.0241   -2.3311    0.5394 H   0  0  0  0  0  0  0  0  0  0  0  0
    2.3328   -3.0439    2.4719 C   0  0  0  0  0  0  0  0  0  0  0  0
    3.0238   -3.8999    2.4821 H   0  0  0  0  0  0  0  0  0  0  0  0
    1.4314   -2.8529    3.5312 C   0  0  0  0  0  0  0  0  0  0  0  0
    1.4186   -3.5579    4.3760 H   0  0  0  0  0  0  0  0  0  0  0  0
    0.5370   -1.7712    3.5079 C   0  0  0  0  0  0  0  0  0  0  0  0
   -0.1795   -1.6258    4.3298 H   0  0  0  0  0  0  0  0  0  0  0  0
    0.5400   -0.8788    2.4276 C   0  0  0  0  0  0  0  0  0  0  0  0
   -0.1765   -0.0440    2.3973 H   0  0  0  0  0  0  0  0  0  0  0  0
    2.5533    1.4893    0.6187 C   0  0  0  0  0  0  0  0  0  0  0  0
    3.1767    2.3625   -0.2990 C   0  0  0  0  0  0  0  0  0  0  0  0
    2.9832    2.2564   -1.3744 H   0  0  0  0  0  0  0  0  0  0  0  0
    4.0200    3.3765    0.1682 C   0  0  0  0  0  0  0  0  0  0  0  0
    4.5020    4.0551   -0.5512 H   0  0  0  0  0  0  0  0  0  0  0  0
    4.2382    3.5378    1.5472 C   0  0  0  0  0  0  0  0  0  0  0  0
    4.8980    4.3407    1.9095 H   0  0  0  0  0  0  0  0  0  0  0  0
    3.6156    2.6755    2.4608 C   0  0  0  0  0  0  0  0  0  0  0  0
    3.7853    2.7943    3.5413 H   0  0  0  0  0  0  0  0  0  0  0  0
    2.7788    1.6467    2.0011 C   0  0  0  0  0  0  0  0  0  0  0  0
    2.3111    0.9613    2.7218 H   0  0  0  0  0  0  0  0  0  0  0  0
    2.3047   -0.5403   -1.4591 C   0  0  0  0  0  0  0  0  0  0  0  0
    1.5289   -0.9720   -2.5524 C   0  0  0  0  0  0  0  0  0  0  0  0
    0.4334   -0.9078   -2.5075 H   0  0  0  0  0  0  0  0  0  0  0  0
    2.1674   -1.5069   -3.6799 C   0  0  0  0  0  0  0  0  0  0  0  0
    1.5626   -1.8431   -4.5350 H   0  0  0  0  0  0  0  0  0  0  0  0
    3.5659   -1.6229   -3.7144 C   0  0  0  0  0  0  0  0  0  0  0  0
    4.0599   -2.0479   -4.6013 H   0  0  0  0  0  0  0  0  0  0  0  0
    4.3381   -1.1955   -2.6217 C   0  0  0  0  0  0  0  0  0  0  0  0
    5.4345   -1.2822   -2.6496 H   0  0  0  0  0  0  0  0  0  0  0  0
    3.7121   -0.6478   -1.4933 C   0  0  0  0  0  0  0  0  0  0  0  0
    4.3181   -0.2939   -0.6457 H   0  0  0  0  0  0  0  0  0  0  0  0
  1 26  1  0  0  0  0
  1 15  1  0  0  0  0
  2  1  1  0  0  0  0
  3 14  2  0  0  0  0
  4  5  1  0  0  0  0
  5  6  2  0  0  0  0
  6  7  1  0  0  0  0
  8  6  1  0  0  0  0
  8  9  1  0  0  0  0
 10  8  2  0  0  0  0
 11 10  1  0  0  0  0
 12  4  2  0  0  0  0
 12 10  1  0  0  0  0
 13 12  1  0  0  0  0
 14  4  1  0  0  0  0
 14  2  1  0  0  0  0
 15 16  2  0  0  0  0
 15 24  1  0  0  0  0
 16 18  1  0  0  0  0
 17 16  1  0  0  0  0
 18 19  1  0  0  0  0
 18 20  2  0  0  0  0
 20 21  1  0  0  0  0
 22 20  1  0  0  0  0
 22 23  1  0  0  0  0
 24 22  2  0  0  0  0
 25 24  1  0  0  0  0
 26 35  1  0  0  0  0
 27 29  1  0  0  0  0
 27 26  2  0  0  0  0
 28 27  1  0  0  0  0
 29 31  2  0  0  0  0
 30 29  1  0  0  0  0
 31 32  1  0  0  0  0
 31 33  1  0  0  0  0
 33 34  1  0  0  0  0
 35 33  2  0  0  0  0
 35 36  1  0  0  0  0
 37  1  1  0  0  0  0
 38 39  1  0  0  0  0
 38 37  2  0  0  0  0
 40 38  1  0  0  0  0
 41 40  1  0  0  0  0
 42 40  2  0  0  0  0
 42 44  1  0  0  0  0
 43 42  1  0  0  0  0
 44 46  2  0  0  0  0
 45 44  1  0  0  0  0
 46 37  1  0  0  0  0
 46 47  1  0  0  0  0
M  END
