2,17
q = -1.0

 47 50  0  0  0  0  0  0  0  0999 V2000
    1.4866    0.0987   -0.0106 P   0  0  0  0  0  4  0  0  0  0  0  0
   -0.1153    0.6181   -0.1033 N   0  0  0  0  0  2  0  0  0  0  0  0
    0.5707    2.4889    0.9880 O   0  0  0  0  0  0  0  0  0  0  0  0
   -1.5962    2.6067   -0.0246 C   0  0  0  0  0  0  0  0  0  0  0  0
   -1.9646    3.7587    0.6991 C   0  0  0  0  0  0  0  0  0  0  0  0
   -1.3277    4.0761    1.5373 H   0  0  0  0  0  0  0  0  0  0  0  0
   -3.1218    4.4654    0.3538 C   0  0  0  0  0  0  0  0  0  0  0  0
   -3.4150    5.3551    0.9313 H   0  0  0  0  0  0  0  0  0  0  0  0
   -3.9094    4.0376   -0.7284 C   0  0  0  0  0  0  0  0  0  0  0  0
   -4.8208    4.5925   -0.9991 H   0  0  0  0  0  0  0  0  0  0  0  0
   -3.5340    2.9032   -1.4669 C   0  0  0  0  0  0  0  0  0  0  0  0
   -4.1461    2.5709   -2.3186 H   0  0  0  0  0  0  0  0  0  0  0  0
   -2.3837    2.1871   -1.1161 C   0  0  0  0  0  0  0  0  0  0  0  0
   -2.0880    1.2993   -1.6933 H   0  0  0  0  0  0  0  0  0  0  0  0
   -0.3332    1.9206    0.3590 C   0  0  0  0  0  0  0  0  0  0  0  0
    1.3820   -1.3757   -1.0534 C   0  0  0  0  0  0  0  0  0  0  0  0
    0.0827   -1.9104   -1.2319 C   0  0  0  0  0  3  0  0  0  0  0  0
   -0.0765   -3.0335   -2.0588 C   0  0  0  0  0  0  0  0  0  0  0  0
   -1.0783   -3.4695   -2.1853 H   0  0  0  0  0  0  0  0  0  0  0  0
    1.0423   -3.6087   -2.6841 C   0  0  0  0  0  0  0  0  0  0  0  0
    0.9039   -4.4868   -3.3339 H   0  0  0  0  0  0  0  0  0  0  0  0
    2.3323   -3.0874   -2.4822 C   0  0  0  0  0  0  0  0  0  0  0  0
    3.2019   -3.5536   -2.9688 H   0  0  0  0  0  0  0  0  0  0  0  0
    2.5085   -1.9669   -1.6608 C   0  0  0  0  0  0  0  0  0  0  0  0
    3.5128   -1.5422   -1.5065 H   0  0  0  0  0  0  0  0  0  0  0  0
    2.6843    1.2493   -0.7331 C   0  0  0  0  0  0  0  0  0  0  0  0
    3.4419    2.1123    0.0849 C   0  0  0  0  0  0  0  0  0  0  0  0
    3.3137    2.0826    1.1758 H   0  0  0  0  0  0  0  0  0  0  0  0
    4.3297    3.0200   -0.5059 C   0  0  0  0  0  0  0  0  0  0  0  0
    4.9225    3.6937    0.1303 H   0  0  0  0  0  0  0  0  0  0  0  0
    4.4488    3.0835   -1.9045 C   0  0  0  0  0  0  0  0  0  0  0  0
    5.1437    3.8029   -2.3636 H   0  0  0  0  0  0  0  0  0  0  0  0
    3.6771    2.2395   -2.7189 C   0  0  0  0  0  0  0  0  0  0  0  0
    3.7622    2.2967   -3.8142 H   0  0  0  0  0  0  0  0  0  0  0  0
    2.7930    1.3194   -2.1380 C   0  0  0  0  0  0  0  0  0  0  0  0
    2.1865    0.6569   -2.7732 H   0  0  0  0  0  0  0  0  0  0  0  0
    1.9733   -0.3441    1.6788 C   0  0  0  0  0  0  0  0  0  0  0  0
    3.3046   -0.7174    1.9569 C   0  0  0  0  0  0  0  0  0  0  0  0
    4.0708   -0.6857    1.1667 H   0  0  0  0  0  0  0  0  0  0  0  0
    3.6522   -1.1251    3.2518 C   0  0  0  0  0  0  0  0  0  0  0  0
    4.6906   -1.4135    3.4738 H   0  0  0  0  0  0  0  0  0  0  0  0
    2.6753   -1.1668    4.2607 C   0  0  0  0  0  0  0  0  0  0  0  0
    2.9505   -1.4890    5.2763 H   0  0  0  0  0  0  0  0  0  0  0  0
    1.3502   -0.8007    3.9767 C   0  0  0  0  0  0  0  0  0  0  0  0
    0.5836   -0.8353    4.7647 H   0  0  0  0  0  0  0  0  0  0  0  0
    0.9881   -0.3871    2.6864 C   0  0  0  0  0  0  0  0  0  0  0  0
   -0.0566   -0.1066    2.4725 H   0  0  0  0  0  0  0  0  0  0  0  0
  1 37  1  0  0  0  0
  2  1  1  0  0  0  0
  2 15  1  0  0  0  0
  4 15  1  0  0  0  0
  4  5  1  0  0  0  0
  5  6  1  0  0  0  0
  7  5  2  0  0  0  0
  7  8  1  0  0  0  0
  9  7  1  0  0  0  0
 10  9  1  0  0  0  0
 11 13  1  0  0  0  0
 11  9  2  0  0  0  0
 12 11  1  0  0  0  0
 13  4  2  0  0  0  0
 14 13  1  0  0  0  0
 15  3  2  0  0  0  0
 16  1  1  0  0  0  0
 17 16  1  0  0  0  0
 18 17  2  0  0  0  0
 19 18  1  0  0  0  0
 20 22  2  0  0  0  0
 20 18  1  0  0  0  0
 21 20  1  0  0  0  0
 22 24  1  0  0  0  0
 23 22  1  0  0  0  0
 24 25  1  0  0  0  0
 24 16  2  0  0  0  0
 26  1  1  0  0  0  0
 26 27  1  0  0  0  0
 27 28  1  0  0  0  0
 29 27  2  0  0  0  0
 29 30  1  0  0  0  0
 31 29  1  0  0  0  0
 32 31  1  0  0  0  0
 33 35  1  0  0  0  0
 33 31  2  0  0  0  0
 34 33  1  0  0  0  0
 35 26  2  0  0  0  0
 36 35  1  0  0  0  0
 37 38  2  0  0  0  0
 37 46  1  0  0  0  0
 38 40  1  0  0  0  0
 39 38  1  0  0  0  0
 40 41  1  0  0  0  0
 40 42  2  0  0  0  0
 42 43  1  0  0  0  0
 44 42  1  0  0  0  0
 44 45  1  0  0  0  0
 46 44  2  0  0  0  0
 47 46  1  0  0  0  0
M  END
