3,5
q = -1.0, confidence = 0.002

 25 26  0  0  1  0  0  0  0  0999 V2000
    2.8798   -2.5526    0.0001 O   0  0  0  0  0  0  0  0  0  0  0  0
    0.6175   -2.7144   -0.0001 N   0  0  0  0  0  0  0  0  0  0  0  0
   -0.6722   -0.7925   -0.0001 N   0  0  0  0  0  2  0  0  0  0  0  0
   -1.8909    1.1820   -0.0000 N   0  0  0  0  0  0  0  0  0  0  0  0
    1.8301   -1.9318    0.0001 C   0  0  0  0  0  3  0  0  0  0  0  0
   -0.6171   -2.1451   -0.0001 C   0  0  0  0  0  0  0  0  0  0  0  0
   -1.7966   -2.9553   -0.0000 C   0  0  0  0  0  0  0  0  0  0  0  0
   -3.0307   -2.3474   -0.0001 C   0  0  0  0  0  0  0  0  0  0  0  0
   -3.1240   -0.9254   -0.0001 C   0  0  0  0  0  0  0  0  0  0  0  0
   -4.3642   -0.2099   -0.0001 C   0  0  2  0  0  3  0  0  0  0  0  0
   -4.3030    1.1787   -0.0000 C   0  0  0  0  0  0  0  0  0  0  0  0
   -3.0452    1.8471    0.0000 C   0  0  0  0  0  0  0  0  0  0  0  0
   -1.9023   -0.1665   -0.0000 C   0  0  0  0  0  0  0  0  0  0  0  0
   -5.6801   -0.9387   -0.0001 C   0  0  0  0  0  0  0  0  0  0  0  0
   -2.9871    3.3507    0.0001 C   0  0  0  0  0  0  0  0  0  0  0  0
    0.7105   -3.7368   -0.0000 H   0  0  0  0  0  0  0  0  0  0  0  0
   -1.6934   -4.0493   -0.0000 H   0  0  0  0  0  0  0  0  0  0  0  0
   -3.9430   -2.9609   -0.0000 H   0  0  0  0  0  0  0  0  0  0  0  0
   -5.2303    1.7719   -0.0001 H   0  0  0  0  0  0  0  0  0  0  0  0
   -5.7825   -1.5915    0.8916 H   0  0  0  0  0  0  0  0  0  0  0  0
   -6.5285   -0.2295   -0.0006 H   0  0  0  0  0  0  0  0  0  0  0  0
   -5.7821   -1.5922   -0.8913 H   0  0  0  0  0  0  0  0  0  0  0  0
   -1.9383    3.6953    0.0005 H   0  0  0  0  0  0  0  0  0  0  0  0
   -3.5057    3.7623   -0.8906 H   0  0  0  0  0  0  0  0  0  0  0  0
   -3.5063    3.7622    0.8906 H   0  0  0  0  0  0  0  0  0  0  0  0
  2 16  1  0  0  0  0
  2  5  1  0  0  0  0
  3 13  1  0  0  0  0
  4 12  1  0  0  0  0
  5  1  2  0  0  0  0
  6  3  1  0  0  0  0
  6  2  1  0  0  0  0
  6  7  2  0  0  0  0
  7 17  1  0  0  0  0
  8  7  1  0  0  0  0
  8 18  1  0  0  0  0
  9  8  2  0  0  0  0
  9 13  1  0  0  0  0
 10 14  1  1  0  0  0
 10  9  1  0  0  0  0
 10 11  1  0  0  0  0
 11 12  2  0  0  0  0
 12 15  1  0  0  0  0
 13  4  2  0  0  0  0
 14 20  1  0  0  0  0
 15 23  1  0  0  0  0
 15 25  1  0  0  0  0
 19 11  1  0  0  0  0
 21 14  1  0  0  0  0
 22 14  1  0  0  0  0
 24 15  1  0  0  0  0
M  END
