2,10
q = -1.0

 32 33  0  0  0  0  0  0  0  0999 V2000
   -2.8096    5.8021    0.9746 O   0  0  0  0  0  0  0  0  0  0  0  0
    2.1354    0.7541   -0.2957 N   0  0  0  0  0  2  0  0  0  0  0  0
    0.4657    2.3874    0.0020 C   0  0  0  0  0  0  0  0  0  0  0  0
    3.4910    0.2509   -0.4972 C   0  0  0  0  0  0  0  0  0  0  0  0
    3.3626   -0.6981   -1.0631 H   0  0  0  0  0  0  0  0  0  0  0  0
    0.0537    3.7280    0.0940 C   0  0  0  0  0  3  0  0  0  0  0  0
    0.7561    4.5440   -0.1493 H   0  0  0  0  0  0  0  0  0  0  0  0
   -2.1245    2.9795    0.8567 C   0  0  0  0  0  0  0  0  0  0  0  0
   -3.1361    3.2416    1.2047 H   0  0  0  0  0  0  0  0  0  0  0  0
   -0.4264    1.2968    0.2932 C   0  0  0  0  0  3  0  0  0  0  0  0
    1.8300    2.0160   -0.3203 C   0  0  0  0  0  0  0  0  0  0  0  0
    2.5883    2.7908   -0.5428 H   0  0  0  0  0  0  0  0  0  0  0  0
   -1.2523    4.0369    0.5138 C   0  0  0  0  0  0  0  0  0  0  0  0
   -1.7171    1.6444    0.7492 C   0  0  0  0  0  0  0  0  0  0  0  0
   -2.4441    0.8652    1.0162 H   0  0  0  0  0  0  0  0  0  0  0  0
    5.7925    0.4866   -1.4825 C   0  0  0  0  0  0  0  0  0  0  0  0
    5.6459   -0.4132   -2.1203 H   0  0  0  0  0  0  0  0  0  0  0  0
    6.4765    1.1587   -2.0412 H   0  0  0  0  0  0  0  0  0  0  0  0
    4.4362    1.1761   -1.2730 C   0  0  0  0  0  0  0  0  0  0  0  0
    4.6013    2.1200   -0.7058 H   0  0  0  0  0  0  0  0  0  0  0  0
    3.9815    1.4569   -2.2469 H   0  0  0  0  0  0  0  0  0  0  0  0
   -1.6997    5.4427    0.6127 C   0  0  0  0  0  0  0  0  0  0  0  0
   -0.9078    6.1988    0.3167 H   0  0  0  0  0  0  0  0  0  0  0  0
    4.0990   -0.1436    0.8648 C   0  0  0  0  0  0  0  0  0  0  0  0
    3.3951   -0.8290    1.3765 H   0  0  0  0  0  0  0  0  0  0  0  0
    4.1989    0.7750    1.4864 H   0  0  0  0  0  0  0  0  0  0  0  0
    6.4199    0.0653   -0.1469 C   0  0  0  0  0  0  0  0  0  0  0  0
    6.6695    0.9782    0.4402 H   0  0  0  0  0  0  0  0  0  0  0  0
    7.3796   -0.4640   -0.3231 H   0  0  0  0  0  0  0  0  0  0  0  0
    5.4633   -0.8136    0.6690 C   0  0  0  0  0  0  0  0  0  0  0  0
    5.9069   -1.0610    1.6559 H   0  0  0  0  0  0  0  0  0  0  0  0
    5.3047   -1.7820    0.1453 H   0  0  0  0  0  0  0  0  0  0  0  0
  3  6  1  0  0  0  0
  3 10  1  0  0  0  0
  4  2  1  0  0  0  0
  4 24  1  0  0  0  0
  5  4  1  0  0  0  0
  6 13  1  0  0  0  0
  7  6  1  0  0  0  0
  8  9  1  0  0  0  0
 10 14  2  0  0  0  0
 11  2  1  0  0  0  0
 11  3  2  0  0  0  0
 12 11  1  0  0  0  0
 13 22  1  0  0  0  0
 13  8  2  0  0  0  0
 14  8  1  0  0  0  0
 14 15  1  0  0  0  0
 16 19  1  0  0  0  0
 16 27  1  0  0  0  0
 17 16  1  0  0  0  0
 18 16  1  0  0  0  0
 19 20  1  0  0  0  0
 19  4  1  0  0  0  0
 21 19  1  0  0  0  0
 22  1  2  0  0  0  0
 23 22  1  0  0  0  0
 24 25  1  0  0  0  0
 24 26  1  0  0  0  0
 27 28  1  0  0  0  0
 27 30  1  0  0  0  0
 29 27  1  0  0  0  0
 30 24  1  0  0  0  0
 30 31  1  0  0  0  0
 32 30  1  0  0  0  0
M  END
