2,3
q = -1.0

 18 18  0  0  1  0  0  0  0  0999 V2000
    2.0051    3.0590   -0.2175 O   0  0  0  0  0  0  0  0  0  0  0  0
    1.3983   -0.7183    0.2226 N   0  0  0  0  0  2  0  0  0  0  0  0
    1.7260    1.8830   -0.3167 C   0  0  0  0  0  3  0  0  0  0  0  0
    2.7161    0.9073   -0.9877 C   0  0  0  0  0  0  0  0  0  0  0  0
    2.4382    0.9042   -2.0665 H   0  0  0  0  0  0  0  0  0  0  0  0
    3.7572    1.2863   -0.9193 H   0  0  0  0  0  0  0  0  0  0  0  0
    2.5688   -0.4665   -0.4314 C   0  0  1  0  0  3  0  0  0  0  0  0
    3.5800   -1.4311   -0.5510 C   0  0  0  0  0  0  0  0  0  0  0  0
    4.5051   -1.1737   -1.0856 H   0  0  0  0  0  0  0  0  0  0  0  0
    3.3872   -2.6949    0.0106 C   0  0  0  0  0  0  0  0  0  0  0  0
    4.1581   -3.4752   -0.0748 H   0  0  0  0  0  0  0  0  0  0  0  0
    2.1978   -2.9380    0.7030 C   0  0  0  0  0  0  0  0  0  0  0  0
    2.0144   -3.9081    1.1860 H   0  0  0  0  0  0  0  0  0  0  0  0
    1.2174   -1.9339    0.8104 C   0  0  0  0  0  0  0  0  0  0  0  0
   -0.0250   -2.2062    1.6026 C   0  0  0  0  0  0  0  0  0  0  0  0
   -0.3029   -1.3274    2.2110 H   0  0  0  0  0  0  0  0  0  0  0  0
    0.1306   -3.0710    2.2736 H   0  0  0  0  0  0  0  0  0  0  0  0
   -0.8840   -2.4357    0.9421 H   0  0  0  0  0  0  0  0  0  0  0  0
  2 14  1  0  0  0  0
  3  1  2  0  0  0  0
  4  6  1  0  0  0  0
  4  3  1  0  0  0  0
  5  4  1  0  0  0  0
  7  4  1  1  0  0  0
  7  2  1  0  0  0  0
  8  7  1  0  0  0  0
  8 10  2  0  0  0  0
  9  8  1  0  0  0  0
 10 12  1  0  0  0  0
 11 10  1  0  0  0  0
 12 14  2  0  0  0  0
 12 13  1  0  0  0  0
 14 15  1  0  0  0  0
 15 16  1  0  0  0  0
 15 17  1  0  0  0  0
 18 15  1  0  0  0  0
M  END
