2,4
q = -2.0, confidence = 0.948

 44 46  0  0  0  0  0  0  0  0999 V2000
    1.4017   -0.4663   -1.4651 Si  0  0  0  0  0  0  0  0  0  0  0  0
    1.7199   -0.1549    0.2621 N   0  0  0  0  0  2  0  0  0  0  0  0
   -1.4484   -1.1017   -0.8307 C   0  0  0  0  0  0  0  0  0  0  0  0
   -0.4498   -0.1546   -1.3151 C   0  0  0  0  0  3  0  0  0  0  0  0
   -0.9943    1.1649   -1.0196 C   0  0  0  0  0  0  0  0  0  0  0  0
   -2.2363    1.0319   -0.2850 C   0  0  0  0  0  0  0  0  0  0  0  0
   -2.5190   -0.3853   -0.1654 C   0  0  0  0  0  0  0  0  0  0  0  0
   -1.4919   -2.5241   -0.8504 C   0  0  0  0  0  0  0  0  0  0  0  0
   -2.5548   -3.1857   -0.2437 C   0  0  0  0  0  0  0  0  0  0  0  0
   -3.5967   -2.4729    0.4090 C   0  0  0  0  0  0  0  0  0  0  0  0
   -3.5851   -1.0808    0.4510 C   0  0  0  0  0  0  0  0  0  0  0  0
   -0.4764    2.4715   -1.2484 C   0  0  0  0  0  0  0  0  0  0  0  0
   -1.1874    3.5787   -0.7970 C   0  0  0  0  0  0  0  0  0  0  0  0
   -2.4127    3.4361   -0.0903 C   0  0  0  0  0  0  0  0  0  0  0  0
   -2.9386    2.1732    0.1679 C   0  0  0  0  0  0  0  0  0  0  0  0
    1.8053   -2.2365   -1.9962 C   0  0  0  0  0  0  0  0  0  0  0  0
    2.2803    0.7107   -2.6609 C   0  0  0  0  0  0  0  0  0  0  0  0
    3.0238    0.0110    0.9382 C   0  0  0  0  0  0  0  0  0  0  0  0
    2.9119   -0.4243    2.4116 C   0  0  0  0  0  0  0  0  0  0  0  0
    4.0988   -0.8579    0.2560 C   0  0  0  0  0  0  0  0  0  0  0  0
    3.4349    1.4963    0.8668 C   0  0  0  0  0  0  0  0  0  0  0  0
   -0.7004   -3.0936   -1.3552 H   0  0  0  0  0  0  0  0  0  0  0  0
   -2.5925   -4.2853   -0.2703 H   0  0  0  0  0  0  0  0  0  0  0  0
   -4.4208   -3.0295    0.8797 H   0  0  0  0  0  0  0  0  0  0  0  0
   -4.3936   -0.5263    0.9513 H   0  0  0  0  0  0  0  0  0  0  0  0
    0.4620    2.6051   -1.8019 H   0  0  0  0  0  0  0  0  0  0  0  0
   -0.7955    4.5885   -0.9924 H   0  0  0  0  0  0  0  0  0  0  0  0
   -2.9478    4.3343    0.2522 H   0  0  0  0  0  0  0  0  0  0  0  0
   -3.8852    2.0601    0.7177 H   0  0  0  0  0  0  0  0  0  0  0  0
    1.5244   -2.9660   -1.2119 H   0  0  0  0  0  0  0  0  0  0  0  0
    2.8909   -2.3481   -2.1901 H   0  0  0  0  0  0  0  0  0  0  0  0
    1.2658   -2.4957   -2.9307 H   0  0  0  0  0  0  0  0  0  0  0  0
    3.3317    0.3931   -2.8157 H   0  0  0  0  0  0  0  0  0  0  0  0
    2.2938    1.7575   -2.3021 H   0  0  0  0  0  0  0  0  0  0  0  0
    1.7718    0.6873   -3.6471 H   0  0  0  0  0  0  0  0  0  0  0  0
    3.8831   -0.2991    2.9318 H   0  0  0  0  0  0  0  0  0  0  0  0
    2.6096   -1.4872    2.4831 H   0  0  0  0  0  0  0  0  0  0  0  0
    2.1596    0.1844    2.9509 H   0  0  0  0  0  0  0  0  0  0  0  0
    3.8122   -1.9280    0.2782 H   0  0  0  0  0  0  0  0  0  0  0  0
    5.0732   -0.7509    0.7743 H   0  0  0  0  0  0  0  0  0  0  0  0
    4.2512   -0.5572   -0.8007 H   0  0  0  0  0  0  0  0  0  0  0  0
    4.3992    1.6707    1.3874 H   0  0  0  0  0  0  0  0  0  0  0  0
    2.6583    2.1308    1.3378 H   0  0  0  0  0  0  0  0  0  0  0  0
    3.5485    1.8214   -0.1865 H   0  0  0  0  0  0  0  0  0  0  0  0
  1  4  1  0  0  0  0
  1  2  1  0  0  0  0
  2 18  1  0  0  0  0
  3  7  1  0  0  0  0
  4  5  1  0  0  0  0
  4  3  1  0  0  0  0
  5  6  1  0  0  0  0
  6  7  1  0  0  0  0
  6 15  2  0  0  0  0
  7 11  2  0  0  0  0
  8  3  2  0  0  0  0
  8  9  1  0  0  0  0
  9 10  2  0  0  0  0
 10 11  1  0  0  0  0
 10 24  1  0  0  0  0
 11 25  1  0  0  0  0
 12  5  2  0  0  0  0
 12 13  1  0  0  0  0
 13 14  2  0  0  0  0
 14 15  1  0  0  0  0
 14 28  1  0  0  0  0
 15 29  1  0  0  0  0
 16  1  1  0  0  0  0
 16 30  1  0  0  0  0
 17 34  1  0  0  0  0
 17  1  1  0  0  0  0
 18 19  1  0  0  0  0
 19 37  1  0  0  0  0
 19 36  1  0  0  0  0
 19 38  1  0  0  0  0
 20 39  1  0  0  0  0
 20 40  1  0  0  0  0
 20 18  1  0  0  0  0
 21 18  1  0  0  0  0
 21 43  1  0  0  0  0
 21 42  1  0  0  0  0
 22  8  1  0  0  0  0
 23  9  1  0  0  0  0
 26 12  1  0  0  0  0
 27 13  1  0  0  0  0
 31 16  1  0  0  0  0
 32 16  1  0  0  0  0
 33 17  1  0  0  0  0
 35 17  1  0  0  0  0
 41 20  1  0  0  0  0
 44 21  1  0  0  0  0
M  END
