1,13
q = -1.0

 36 39  0  0  1  0  0  0  0  0999 V2000
    0.2253   -0.1002   -0.0187 N   0  0  0  0  0  2  0  0  0  0  0  0
    1.0445   -1.1796   -0.1011 C   0  0  0  0  0  3  0  0  0  0  0  0
    0.5379   -2.1478   -0.2273 H   0  0  0  0  0  0  0  0  0  0  0  0
    2.3757   -1.1646   -0.0526 N   0  0  0  0  0  0  0  0  0  0  0  0
    2.8749    0.0710    0.0778 C   0  0  0  0  0  0  0  0  0  0  0  0
    2.1413    1.2851    0.1428 C   0  0  0  0  0  0  0  0  0  0  0  0
    0.7316    1.1771    0.0774 C   0  0  0  0  0  0  0  0  0  0  0  0
    3.0010    2.3621    0.2567 N   0  0  0  0  0  0  0  0  0  0  0  0
    4.2084    1.8263    0.2556 C   0  0  0  0  0  0  0  0  0  0  0  0
    5.1531    2.3755    0.3567 H   0  0  0  0  0  0  0  0  0  0  0  0
    4.2032    0.4430    0.1498 N   0  0  0  0  0  0  0  0  0  0  0  0
   -0.2634    2.2204    0.0554 C   0  0  0  0  0  0  0  0  0  0  0  0
   -1.6049    1.7491   -0.1110 C   0  0  0  0  0  3  0  0  0  0  0  0
   -2.6093    2.7284   -0.2663 C   0  0  0  0  0  0  0  0  0  0  0  0
   -3.6458    2.4198   -0.4694 H   0  0  0  0  0  0  0  0  0  0  0  0
   -2.3054    4.0952   -0.1934 C   0  0  0  0  0  0  0  0  0  0  0  0
   -3.1131    4.8352   -0.3133 H   0  0  0  0  0  0  0  0  0  0  0  0
   -0.9818    4.5374    0.0168 C   0  0  0  0  0  0  0  0  0  0  0  0
   -0.7596    5.6135    0.0718 H   0  0  0  0  0  0  0  0  0  0  0  0
    0.0463    3.6008    0.1272 C   0  0  0  0  0  0  0  0  0  0  0  0
    1.0952    3.9071    0.2545 H   0  0  0  0  0  0  0  0  0  0  0  0
    6.2366   -0.0366    1.1015 O   0  0  0  0  0  0  0  0  0  0  0  0
    5.3441   -0.4520    0.0851 C   0  0  2  0  0  0  0  0  0  0  0  0
    4.9406   -1.4729    0.2996 H   0  0  0  0  0  0  0  0  0  0  0  0
    6.0132   -0.4513   -1.2956 C   0  0  0  0  0  0  0  0  0  0  0  0
    6.2832    0.5965   -1.5485 H   0  0  0  0  0  0  0  0  0  0  0  0
    5.2825   -0.8007   -2.0532 H   0  0  0  0  0  0  0  0  0  0  0  0
    7.2679   -1.3336   -1.2671 C   0  0  0  0  0  0  0  0  0  0  0  0
    6.9650   -2.3967   -1.1361 H   0  0  0  0  0  0  0  0  0  0  0  0
    7.8033   -1.2775   -2.2364 H   0  0  0  0  0  0  0  0  0  0  0  0
    8.1780   -0.9163   -0.1053 C   0  0  0  0  0  0  0  0  0  0  0  0
    9.0386   -1.6090    0.0012 H   0  0  0  0  0  0  0  0  0  0  0  0
    8.5945    0.0962   -0.2968 H   0  0  0  0  0  0  0  0  0  0  0  0
    7.3811   -0.8831    1.1989 C   0  0  0  0  0  0  0  0  0  0  0  0
    7.0577   -1.9186    1.4737 H   0  0  0  0  0  0  0  0  0  0  0  0
    7.9814   -0.4831    2.0395 H   0  0  0  0  0  0  0  0  0  0  0  0
  1  7  1  0  0  0  0
  2  4  1  0  0  0  0
  2  1  1  0  0  0  0
  3  2  1  0  0  0  0
  4  5  2  0  0  0  0
  5  6  1  0  0  0  0
  5 11  1  0  0  0  0
  6  8  1  0  0  0  0
  7  6  2  0  0  0  0
  9  8  2  0  0  0  0
  9 10  1  0  0  0  0
 11  9  1  0  0  0  0
 12  7  1  0  0  0  0
 12 20  1  0  0  0  0
 13 12  2  0  0  0  0
 14 16  2  0  0  0  0
 14 13  1  0  0  0  0
 15 14  1  0  0  0  0
 16 18  1  0  0  0  0
 17 16  1  0  0  0  0
 18 19  1  0  0  0  0
 18 20  2  0  0  0  0
 20 21  1  0  0  0  0
 22 34  1  0  0  0  0
 23 11  1  0  0  0  0
 23 24  1  1  0  0  0
 23 22  1  0  0  0  0
 25 28  1  0  0  0  0
 25 23  1  0  0  0  0
 26 25  1  0  0  0  0
 27 25  1  0  0  0  0
 28 29  1  0  0  0  0
 28 31  1  0  0  0  0
 30 28  1  0  0  0  0
 31 32  1  0  0  0  0
 31 34  1  0  0  0  0
 33 31  1  0  0  0  0
 34 35  1  0  0  0  0
 34 36  1  0  0  0  0
M  END
