3,49
q = -2.0, confidence = 0.818

 60 65  0  0  0  0  0  0  0  0999 V2000
   -5.1147    4.7027    0.5755 Cl  0  0  0  0  0  0  0  0  0  0  0  0
    1.1855    2.1603   -0.4043 O   0  0  0  0  0  0  0  0  0  0  0  0
   -0.1068    0.5116   -1.0518 N   0  0  0  0  0  0  0  0  0  0  0  0
   -0.0347    1.7817   -0.5866 C   0  0  0  0  0  0  0  0  0  0  0  0
   -1.2412    2.5126   -0.3108 C   0  0  0  0  0  3  0  0  0  0  0  0
   -1.2176    3.8621    0.1163 C   0  0  0  0  0  0  0  0  0  0  0  0
   -0.2423    4.3574    0.2303 H   0  0  0  0  0  0  0  0  0  0  0  0
   -2.4002    4.5393    0.3820 C   0  0  0  0  0  0  0  0  0  0  0  0
   -2.4024    5.5886    0.7072 H   0  0  0  0  0  0  0  0  0  0  0  0
   -3.6302    3.8487    0.2326 C   0  0  0  0  0  0  0  0  0  0  0  0
   -3.6856    2.5174   -0.1669 C   0  0  0  0  0  0  0  0  0  0  0  0
   -4.6567    2.0121   -0.2511 H   0  0  0  0  0  0  0  0  0  0  0  0
   -2.4860    1.8059   -0.4525 C   0  0  0  0  0  0  0  0  0  0  0  0
   -2.4818    0.3989   -0.7893 C   0  0  0  0  0  0  0  0  0  0  0  0
   -3.7576   -0.3730   -0.7860 C   0  0  0  0  0  0  0  0  0  0  0  0
   -4.0524   -1.2667    0.2643 C   0  0  0  0  0  0  0  0  0  0  0  0
   -3.3328   -1.3760    1.0888 H   0  0  0  0  0  0  0  0  0  0  0  0
   -5.2453   -2.0041    0.2638 C   0  0  0  0  0  0  0  0  0  0  0  0
   -5.4562   -2.7004    1.0900 H   0  0  0  0  0  0  0  0  0  0  0  0
   -6.1693   -1.8508   -0.7819 C   0  0  0  0  0  0  0  0  0  0  0  0
   -7.1057   -2.4291   -0.7826 H   0  0  0  0  0  0  0  0  0  0  0  0
   -5.8956   -0.9508   -1.8243 C   0  0  0  0  0  0  0  0  0  0  0  0
   -6.6173   -0.8217   -2.6455 H   0  0  0  0  0  0  0  0  0  0  0  0
   -4.6997   -0.2170   -1.8257 C   0  0  0  0  0  0  0  0  0  0  0  0
   -4.4805    0.4830   -2.6471 H   0  0  0  0  0  0  0  0  0  0  0  0
   -1.2536   -0.2262   -1.0353 C   0  0  0  0  0  0  0  0  0  0  0  0
   -1.0574   -1.6872   -1.2193 C   0  0  0  0  0  0  0  0  0  0  0  0
   -1.7771   -2.3933   -2.2053 C   0  0  0  0  0  0  0  0  0  0  0  0
   -2.4978   -1.8460   -2.8296 H   0  0  0  0  0  0  0  0  0  0  0  0
   -1.5762   -3.7645   -2.4027 C   0  0  0  0  0  0  0  0  0  0  0  0
   -2.1401   -4.2968   -3.1832 H   0  0  0  0  0  0  0  0  0  0  0  0
   -0.6486   -4.4497   -1.6004 C   0  0  0  0  0  0  0  0  0  0  0  0
   -0.4768   -5.5270   -1.7475 H   0  0  0  0  0  0  0  0  0  0  0  0
    0.0418   -3.7637   -0.5923 C   0  0  0  0  0  0  0  0  0  0  0  0
    0.7262   -4.3112    0.0742 H   0  0  0  0  0  0  0  0  0  0  0  0
   -0.1376   -2.3788   -0.3742 C   0  0  0  0  0  0  0  0  0  0  0  0
    0.4902   -1.7436    0.8353 C   0  0  0  0  0  0  0  0  0  0  0  0
    0.0968   -2.3897    2.1249 C   0  0  0  0  0  0  0  0  0  0  0  0
   -1.1895   -2.9653    2.2766 C   0  0  0  0  0  0  0  0  0  0  0  0
   -1.8867   -2.9505    1.4265 H   0  0  0  0  0  0  0  0  0  0  0  0
   -1.5888   -3.5529    3.4846 C   0  0  0  0  0  0  0  0  0  0  0  0
   -2.5999   -3.9803    3.5726 H   0  0  0  0  0  0  0  0  0  0  0  0
   -0.7064   -3.5999    4.5752 C   0  0  0  0  0  0  0  0  0  0  0  0
   -1.0168   -4.0629    5.5242 H   0  0  0  0  0  0  0  0  0  0  0  0
    0.5833   -3.0619    4.4342 C   0  0  0  0  0  0  0  0  0  0  0  0
    1.2950   -3.1095    5.2729 H   0  0  0  0  0  0  0  0  0  0  0  0
    0.9804   -2.4712    3.2280 C   0  0  0  0  0  0  0  0  0  0  0  0
    1.9978   -2.0698    3.1322 H   0  0  0  0  0  0  0  0  0  0  0  0
    1.3123   -0.6462    0.7677 C   0  0  0  0  0  3  0  0  0  0  0  0
    1.6548    0.1852    1.9423 C   0  0  0  0  0  0  0  0  0  0  0  0
    2.9791    0.3719    2.4003 C   0  0  0  0  0  0  0  0  0  0  0  0
    3.7958   -0.1713    1.9040 H   0  0  0  0  0  0  0  0  0  0  0  0
    3.2593    1.2153    3.4830 C   0  0  0  0  0  0  0  0  0  0  0  0
    4.2985    1.3333    3.8276 H   0  0  0  0  0  0  0  0  0  0  0  0
    2.2214    1.9108    4.1257 C   0  0  0  0  0  0  0  0  0  0  0  0
    2.4422    2.5815    4.9698 H   0  0  0  0  0  0  0  0  0  0  0  0
    0.9002    1.7405    3.6814 C   0  0  0  0  0  0  0  0  0  0  0  0
    0.0773    2.2786    4.1768 H   0  0  0  0  0  0  0  0  0  0  0  0
    0.6185    0.8846    2.6092 C   0  0  0  0  0  0  0  0  0  0  0  0
   -0.4182    0.7454    2.2678 H   0  0  0  0  0  0  0  0  0  0  0  0
  3 26  2  0  0  0  0
  3  4  1  0  0  0  0
  4  2  2  0  0  0  0
  4  5  1  0  0  0  0
  5  6  1  0  0  0  0
  6  7  1  0  0  0  0
  6  8  2  0  0  0  0
  8  9  1  0  0  0  0
 10  8  1  0  0  0  0
 10  1  1  0  0  0  0
 11 10  2  0  0  0  0
 12 11  1  0  0  0  0
 13  5  1  0  0  0  0
 13 11  1  0  0  0  0
 14 15  1  0  0  0  0
 14 13  2  0  0  0  0
 15 16  1  0  0  0  0
 16 17  1  0  0  0  0
 18 16  2  0  0  0  0
 18 19  1  0  0  0  0
 20 18  1  0  0  0  0
 21 20  1  0  0  0  0
 22 20  2  0  0  0  0
 23 22  1  0  0  0  0
 24 22  1  0  0  0  0
 24 15  2  0  0  0  0
 25 24  1  0  0  0  0
 26 14  1  0  0  0  0
 27 26  1  0  0  0  0
 27 36  1  0  0  0  0
 28 27  2  0  0  0  0
 29 28  1  0  0  0  0
 30 28  1  0  0  0  0
 30 32  2  0  0  0  0
 31 30  1  0  0  0  0
 32 34  1  0  0  0  0
 33 32  1  0  0  0  0
 34 36  2  0  0  0  0
 34 35  1  0  0  0  0
 36 37  1  0  0  0  0
 37 38  1  0  0  0  0
 38 39  2  0  0  0  0
 38 47  1  0  0  0  0
 39 41  1  0  0  0  0
 40 39  1  0  0  0  0
 41 42  1  0  0  0  0
 41 43  2  0  0  0  0
 43 44  1  0  0  0  0
 45 43  1  0  0  0  0
 45 46  1  0  0  0  0
 47 45  2  0  0  0  0
 48 47  1  0  0  0  0
 49 37  2  0  0  0  0
 49 50  1  0  0  0  0
 50 51  2  0  0  0  0
 50 59  1  0  0  0  0
 51 53  1  0  0  0  0
 52 51  1  0  0  0  0
 53 54  1  0  0  0  0
 53 55  2  0  0  0  0
 55 56  1  0  0  0  0
 57 55  1  0  0  0  0
 57 58  1  0  0  0  0
 59 57  2  0  0  0  0
 60 59  1  0  0  0  0
M  END
