1,3
q = -1.0

 48 50  0  0  0  0  0  0  0  0999 V2000
    1.6235   -0.0477   -0.0023 N   0  0  0  0  0  2  0  0  0  0  0  0
   -9.2827   -0.1635    0.0137 N   0  0  0  0  0  0  0  0  0  0  0  0
    3.3952    1.8467   -0.0783 C   0  0  0  0  0  2  0  0  0  0  0  0
    4.4143    2.8182   -0.1178 C   0  0  0  0  0  0  0  0  0  0  0  0
    5.4648    2.4902   -0.1033 H   0  0  0  0  0  0  0  0  0  0  0  0
    4.0937    4.1834   -0.1749 C   0  0  0  0  0  0  0  0  0  0  0  0
    4.9016    4.9321   -0.2054 H   0  0  0  0  0  0  0  0  0  0  0  0
    2.7507    4.6094   -0.1937 C   0  0  0  0  0  0  0  0  0  0  0  0
    2.5105    5.6822   -0.2385 H   0  0  0  0  0  0  0  0  0  0  0  0
    1.7218    3.6618   -0.1551 C   0  0  0  0  0  0  0  0  0  0  0  0
    0.6719    3.9947   -0.1699 H   0  0  0  0  0  0  0  0  0  0  0  0
    2.0345    2.2875   -0.0978 C   0  0  0  0  0  0  0  0  0  0  0  0
    1.0523    1.2064   -0.0540 C   0  0  0  0  0  0  0  0  0  0  0  0
   -0.3432    1.3321   -0.0597 C   0  0  0  0  0  0  0  0  0  0  0  0
   -0.7835    2.3387   -0.1009 H   0  0  0  0  0  0  0  0  0  0  0  0
   -1.1929    0.2031   -0.0137 C   0  0  0  0  0  0  0  0  0  0  0  0
   -0.5531   -1.0666    0.0381 C   0  0  0  0  0  0  0  0  0  0  0  0
   -1.1340   -1.9979    0.0760 H   0  0  0  0  0  0  0  0  0  0  0  0
    0.8326   -1.1478    0.0419 C   0  0  0  0  0  0  0  0  0  0  0  0
    1.3741   -2.1052    0.0812 H   0  0  0  0  0  0  0  0  0  0  0  0
   -2.6354    0.3880   -0.0208 C   0  0  0  0  0  0  0  0  0  0  0  0
   -2.9676    1.4389   -0.0630 H   0  0  0  0  0  0  0  0  0  0  0  0
   -3.5767   -0.6022    0.0197 C   0  0  0  0  0  0  0  0  0  0  0  0
   -3.2287   -1.6490    0.0610 H   0  0  0  0  0  0  0  0  0  0  0  0
   -5.0209   -0.4511    0.0160 C   0  0  0  0  0  0  0  0  0  0  0  0
   -5.6867    0.8014   -0.0301 C   0  0  0  0  0  0  0  0  0  0  0  0
   -5.0986    1.7308   -0.0596 H   0  0  0  0  0  0  0  0  0  0  0  0
   -7.0736    0.9012   -0.0293 C   0  0  0  0  0  0  0  0  0  0  0  0
   -7.5236    1.9021   -0.0476 H   0  0  0  0  0  0  0  0  0  0  0  0
   -7.9051   -0.2601    0.0138 C   0  0  0  0  0  0  0  0  0  0  0  0
   -7.2404   -1.5206    0.0580 C   0  0  0  0  0  0  0  0  0  0  0  0
   -7.8185   -2.4533    0.0755 H   0  0  0  0  0  0  0  0  0  0  0  0
   -5.8498   -1.6002    0.0611 C   0  0  0  0  0  0  0  0  0  0  0  0
   -5.3764   -2.5946    0.0921 H   0  0  0  0  0  0  0  0  0  0  0  0
   -9.9626    1.1181   -0.1345 C   0  0  0  0  0  0  0  0  0  0  0  0
  -10.9373    0.9246   -0.6301 H   0  0  0  0  0  0  0  0  0  0  0  0
   -9.3942    1.7542   -0.8440 H   0  0  0  0  0  0  0  0  0  0  0  0
  -10.1873    1.8557    1.1888 C   0  0  0  0  0  0  0  0  0  0  0  0
  -10.7230    2.8119    1.0206 H   0  0  0  0  0  0  0  0  0  0  0  0
   -9.2249    2.0819    1.6895 H   0  0  0  0  0  0  0  0  0  0  0  0
  -10.7936    1.2440    1.8873 H   0  0  0  0  0  0  0  0  0  0  0  0
  -10.1313   -1.3403    0.1597 C   0  0  0  0  0  0  0  0  0  0  0  0
   -9.6551   -2.0483    0.8692 H   0  0  0  0  0  0  0  0  0  0  0  0
  -11.0715   -1.0164    0.6538 H   0  0  0  0  0  0  0  0  0  0  0  0
  -10.4515   -2.0396   -1.1649 C   0  0  0  0  0  0  0  0  0  0  0  0
  -11.1112   -2.9153   -0.9984 H   0  0  0  0  0  0  0  0  0  0  0  0
   -9.5277   -2.3924   -1.6647 H   0  0  0  0  0  0  0  0  0  0  0  0
  -10.9693   -1.3510   -1.8631 H   0  0  0  0  0  0  0  0  0  0  0  0
  1 19  1  0  0  0  0
  2 30  1  0  0  0  0
  2 42  1  0  0  0  0
  4  5  1  0  0  0  0
  4  3  1  0  0  0  0
  6  4  2  0  0  0  0
  7  6  1  0  0  0  0
  8  6  1  0  0  0  0
  8 10  2  0  0  0  0
  9  8  1  0  0  0  0
 10 12  1  0  0  0  0
 11 10  1  0  0  0  0
 12  3  1  0  0  0  0
 12 13  2  0  0  0  0
 13  1  1  0  0  0  0
 14 13  1  0  0  0  0
 14 16  2  0  0  0  0
 15 14  1  0  0  0  0
 16 17  1  0  0  0  0
 17 19  2  0  0  0  0
 17 18  1  0  0  0  0
 19 20  1  0  0  0  0
 21 16  1  0  0  0  0
 21 23  2  0  0  0  0
 22 21  1  0  0  0  0
 23 24  1  0  0  0  0
 25 23  1  0  0  0  0
 25 33  1  0  0  0  0
 26 28  1  0  0  0  0
 26 25  2  0  0  0  0
 27 26  1  0  0  0  0
 28 30  2  0  0  0  0
 29 28  1  0  0  0  0
 30 31  1  0  0  0  0
 31 33  2  0  0  0  0
 31 32  1  0  0  0  0
 33 34  1  0  0  0  0
 35  2  1  0  0  0  0
 35 38  1  0  0  0  0
 36 35  1  0  0  0  0
 37 35  1  0  0  0  0
 38 40  1  0  0  0  0
 38 41  1  0  0  0  0
 39 38  1  0  0  0  0
 42 44  1  0  0  0  0
 42 43  1  0  0  0  0
 45 46  1  0  0  0  0
 45 42  1  0  0  0  0
 47 45  1  0  0  0  0
 48 45  1  0  0  0  0
M  END
