20,32
q = 0.0, confidence = 1.0

 35 38  0  0  1  0  0  0  0  0999 V2000
   -3.1933    2.5751    0.0003 C   0  0  0  0  0  0  0  0  0  0  0  0
   -2.6587    2.9638    0.8913 H   0  0  0  0  0  0  0  0  0  0  0  0
   -4.2231    2.9752   -0.0043 H   0  0  0  0  0  0  0  0  0  0  0  0
   -2.6499    2.9645   -0.8850 H   0  0  0  0  0  0  0  0  0  0  0  0
   -3.1668    1.0755   -0.0001 C   0  0  2  0  0  3  0  0  0  0  0  0
   -4.3417    0.2892   -0.0002 C   0  0  0  0  0  0  0  0  0  0  0  0
   -5.3185    0.7947   -0.0004 H   0  0  0  0  0  0  0  0  0  0  0  0
   -4.2938   -1.1135   -0.0000 C   0  0  0  0  0  0  0  0  0  0  0  0
   -5.5484   -1.9374   -0.0001 C   0  0  0  0  0  0  0  0  0  0  0  0
   -6.4512   -1.2997   -0.0000 H   0  0  0  0  0  0  0  0  0  0  0  0
   -5.5948   -2.5978    0.8905 H   0  0  0  0  0  0  0  0  0  0  0  0
   -5.5949   -2.5975   -0.8910 H   0  0  0  0  0  0  0  0  0  0  0  0
   -3.0051   -1.7291    0.0002 C   0  0  0  0  0  0  0  0  0  0  0  0
   -1.8988   -0.8426    0.0001 C   0  0  0  0  0  0  0  0  0  0  0  0
   -2.7534   -3.1566    0.0003 C   0  0  0  0  0  0  0  0  0  0  0  0
   -3.6115   -3.8429    0.0003 H   0  0  0  0  0  0  0  0  0  0  0  0
   -1.4792   -3.6763    0.0005 C   0  0  0  0  0  0  0  0  0  0  0  0
   -1.2853   -4.7566    0.0006 H   0  0  0  0  0  0  0  0  0  0  0  0
   -0.3686   -2.7725    0.0004 C   0  0  0  0  0  0  0  0  0  0  0  0
    0.5493   -0.6862    0.0002 C   0  0  0  0  0  2  0  0  0  0  0  0
    2.8879   -1.5314    0.0004 C   0  0  0  0  0  0  0  0  0  0  0  0
    3.7109   -2.6710    0.0008 C   0  0  0  0  0  0  0  0  0  0  0  0
    3.2492   -3.6664    0.0010 H   0  0  0  0  0  0  0  0  0  0  0  0
    5.1027   -2.5077    0.0008 C   0  0  0  0  0  0  0  0  0  0  0  0
    5.7489   -3.3979    0.0010 H   0  0  0  0  0  0  0  0  0  0  0  0
    5.6708   -1.2243    0.0004 C   0  0  0  0  0  0  0  0  0  0  0  0
    6.7641   -1.1037    0.0004 H   0  0  0  0  0  0  0  0  0  0  0  0
    4.8362   -0.0944    0.0001 C   0  0  0  0  0  0  0  0  0  0  0  0
    5.2741    0.9149   -0.0002 H   0  0  0  0  0  0  0  0  0  0  0  0
    3.4435   -0.2385    0.0001 C   0  0  0  0  0  0  0  0  0  0  0  0
    2.7798    0.6381   -0.0002 H   0  0  0  0  0  0  0  0  0  0  0  0
   -1.9489    0.4958   -0.0000 N   0  0  0  0  0  2  0  0  0  0  0  0
   -0.6256   -1.4001    0.0002 N   0  0  0  0  0  0  0  0  0  0  0  0
    0.9401   -2.9669    0.0005 N   0  0  0  0  0  0  0  0  0  0  0  0
    1.4658   -1.6940    0.0004 N   0  0  0  0  0  0  0  0  0  0  0  0
  1  2  1  0  0  0  0
  3  1  1  0  0  0  0
  4  1  1  0  0  0  0
  5 32  1  0  0  0  0
  5  1  1  1  0  0  0
  6  5  1  0  0  0  0
  6  8  2  0  0  0  0
  7  6  1  0  0  0  0
  8 13  1  0  0  0  0
  9  8  1  0  0  0  0
  9 10  1  0  0  0  0
  9 11  1  0  0  0  0
 12  9  1  0  0  0  0
 13 15  1  0  0  0  0
 14 13  2  0  0  0  0
 14 33  1  0  0  0  0
 15 17  2  0  0  0  0
 16 15  1  0  0  0  0
 17 18  1  0  0  0  0
 19 17  1  0  0  0  0
 19 34  2  0  0  0  0
 20 33  1  0  0  0  0
 20 35  1  0  0  0  0
 21 22  1  0  0  0  0
 22 24  2  0  0  0  0
 22 23  1  0  0  0  0
 24 25  1  0  0  0  0
 26 27  1  0  0  0  0
 26 24  1  0  0  0  0
 28 26  2  0  0  0  0
 29 28  1  0  0  0  0
 30 28  1  0  0  0  0
 30 21  2  0  0  0  0
 31 30  1  0  0  0  0
 32 14  1  0  0  0  0
 33 19  1  0  0  0  0
 35 21  1  0  0  0  0
 35 34  1  0  0  0  0
M  END
