3,4
q = -1.0

 23 25  0  0  1  0  0  0  0  0999 V2000
   -3.9218    0.9130   -0.0000 N   0  0  0  0  0  0  0  0  0  0  0  0
   -1.5590    0.3134    0.0003 N   0  0  0  0  0  0  0  0  0  0  0  0
    0.4557    1.4300   -0.0001 N   0  0  0  0  0  2  0  0  0  0  0  0
   -0.8076   -0.9035    0.0003 C   0  0  0  0  0  2  0  0  0  0  0  0
   -1.7191   -1.9494    0.0001 C   0  0  0  0  0  0  0  0  0  0  0  0
   -1.4505   -3.0113    0.0001 H   0  0  0  0  0  0  0  0  0  0  0  0
   -3.0509   -1.4032   -0.0001 C   0  0  0  0  0  0  0  0  0  0  0  0
   -4.3613   -1.9149   -0.0004 C   0  0  0  0  0  3  0  0  0  0  0  0
   -4.5470   -2.9999   -0.0005 H   0  0  0  0  0  0  0  0  0  0  0  0
   -5.4248   -0.9974   -0.0005 C   0  0  0  0  0  0  0  0  0  0  0  0
   -6.4671   -1.3495   -0.0007 H   0  0  0  0  0  0  0  0  0  0  0  0
   -5.1637    0.3875   -0.0003 C   0  0  0  0  0  0  0  0  0  0  0  0
   -5.9976    1.1099   -0.0004 H   0  0  0  0  0  0  0  0  0  0  0  0
   -2.9301    0.0275    0.0000 C   0  0  0  0  0  0  0  0  0  0  0  0
   -0.9056    1.5320    0.0002 C   0  0  1  0  0  3  0  0  0  0  0  0
   -1.5603    2.7824    0.0003 C   0  0  0  0  0  0  0  0  0  0  0  0
   -2.6591    2.7874    0.0004 H   0  0  0  0  0  0  0  0  0  0  0  0
   -0.7772    3.9376    0.0002 C   0  0  0  0  0  0  0  0  0  0  0  0
   -1.2631    4.9250    0.0003 H   0  0  0  0  0  0  0  0  0  0  0  0
    0.6266    3.8334   -0.0000 C   0  0  0  0  0  0  0  0  0  0  0  0
    1.2715    4.7230   -0.0001 H   0  0  0  0  0  0  0  0  0  0  0  0
    1.1950    2.5583   -0.0002 C   0  0  0  0  0  0  0  0  0  0  0  0
    2.2857    2.4107   -0.0004 H   0  0  0  0  0  0  0  0  0  0  0  0
  1 14  2  0  0  0  0
  3 15  1  0  0  0  0
  4  2  1  0  0  0  0
  5  6  1  0  0  0  0
  5  4  1  0  0  0  0
  7 14  1  0  0  0  0
  7  5  2  0  0  0  0
  8  7  1  0  0  0  0
  9  8  1  0  0  0  0
 10  8  1  0  0  0  0
 10 12  2  0  0  0  0
 11 10  1  0  0  0  0
 12  1  1  0  0  0  0
 13 12  1  0  0  0  0
 14  2  1  0  0  0  0
 15 16  1  0  0  0  0
 15  2  1  6  0  0  0
 16 17  1  0  0  0  0
 18 19  1  0  0  0  0
 18 16  2  0  0  0  0
 20 18  1  0  0  0  0
 21 20  1  0  0  0  0
 22  3  1  0  0  0  0
 22 20  2  0  0  0  0
 23 22  1  0  0  0  0
M  END
