3,5
q = -1.0, confidence = 0.02

 47 49  0  0  1  0  0  0  0  0999 V2000
   -0.2286    5.1614   -0.0530 O   0  0  0  0  0  0  0  0  0  0  0  0
    7.5073    0.0978    0.3673 O   0  0  0  0  0  0  0  0  0  0  0  0
   -0.0664   -1.0223   -0.5611 N   0  0  0  0  0  2  0  0  0  0  0  0
    2.1590   -1.0218   -0.8661 N   0  0  0  0  0  0  0  0  0  0  0  0
   -0.5445    1.4668   -0.1986 C   0  0  0  0  0  2  0  0  0  0  0  0
   -0.9180    2.8138   -0.0484 C   0  0  0  0  0  0  0  0  0  0  0  0
   -1.9723    3.0405    0.1613 H   0  0  0  0  0  0  0  0  0  0  0  0
    0.0447    3.8348   -0.1838 C   0  0  0  0  0  0  0  0  0  0  0  0
    1.3940    3.5198   -0.4857 C   0  0  0  0  0  0  0  0  0  0  0  0
    2.1100    4.3450   -0.6041 H   0  0  0  0  0  0  0  0  0  0  0  0
    1.7820    2.1903   -0.6281 C   0  0  0  0  0  0  0  0  0  0  0  0
    2.8282    1.9562   -0.8704 H   0  0  0  0  0  0  0  0  0  0  0  0
    0.8309    1.1562   -0.4679 C   0  0  0  0  0  0  0  0  0  0  0  0
    1.0316   -0.2733   -0.6172 C   0  0  0  0  0  0  0  0  0  0  0  0
    3.4929   -0.7036   -0.5317 C   0  0  0  0  0  0  0  0  0  0  0  0
    4.5507   -1.1630   -1.3488 C   0  0  0  0  0  0  0  0  0  0  0  0
    4.3238   -1.7326   -2.2620 H   0  0  0  0  0  0  0  0  0  0  0  0
    5.8773   -0.8883   -1.0160 C   0  0  0  0  0  0  0  0  0  0  0  0
    6.7068   -1.2393   -1.6465 H   0  0  0  0  0  0  0  0  0  0  0  0
    6.1854   -0.1320    0.1363 C   0  0  0  0  0  0  0  0  0  0  0  0
    5.1352    0.3228    0.9608 C   0  0  0  0  0  0  0  0  0  0  0  0
    5.3399    0.8979    1.8735 H   0  0  0  0  0  0  0  0  0  0  0  0
    3.8052    0.0199    0.6358 C   0  0  0  0  0  0  0  0  0  0  0  0
    2.9939    0.3534    1.2982 H   0  0  0  0  0  0  0  0  0  0  0  0
    1.7354   -2.4054   -1.1587 C   0  0  0  0  0  0  0  0  0  0  0  0
    2.3950   -3.1221   -0.6301 H   0  0  0  0  0  0  0  0  0  0  0  0
    1.8038   -2.6113   -2.2488 H   0  0  0  0  0  0  0  0  0  0  0  0
    0.2644   -2.4474   -0.6606 C   0  0  1  0  0  0  0  0  0  0  0  0
   -0.3931   -2.9191   -1.4194 H   0  0  0  0  0  0  0  0  0  0  0  0
    0.0350   -3.1807    0.6846 C   0  0  0  0  0  0  0  0  0  0  0  0
   -1.0402   -3.0130    0.9088 H   0  0  0  0  0  0  0  0  0  0  0  0
    0.8642   -2.5878    1.8276 C   0  0  0  0  0  0  0  0  0  0  0  0
    0.6504   -1.5080    1.9571 H   0  0  0  0  0  0  0  0  0  0  0  0
    1.9561   -2.7075    1.6583 H   0  0  0  0  0  0  0  0  0  0  0  0
    0.6252   -3.0930    2.7850 H   0  0  0  0  0  0  0  0  0  0  0  0
    0.2589   -4.6878    0.5251 C   0  0  0  0  0  0  0  0  0  0  0  0
   -0.3688   -5.1094   -0.2871 H   0  0  0  0  0  0  0  0  0  0  0  0
    0.0048   -5.2253    1.4608 H   0  0  0  0  0  0  0  0  0  0  0  0
    1.3190   -4.9266    0.2918 H   0  0  0  0  0  0  0  0  0  0  0  0
   -1.5584    5.5468    0.2425 C   0  0  0  0  0  0  0  0  0  0  0  0
   -1.5564    6.6508    0.3094 H   0  0  0  0  0  0  0  0  0  0  0  0
   -1.9069    5.1233    1.2107 H   0  0  0  0  0  0  0  0  0  0  0  0
   -2.2679    5.2315   -0.5547 H   0  0  0  0  0  0  0  0  0  0  0  0
    7.8667    0.8513    1.5091 C   0  0  0  0  0  0  0  0  0  0  0  0
    8.9698    0.9268    1.5009 H   0  0  0  0  0  0  0  0  0  0  0  0
    7.5462    0.3553    2.4531 H   0  0  0  0  0  0  0  0  0  0  0  0
    7.4342    1.8771    1.4833 H   0  0  0  0  0  0  0  0  0  0  0  0
  1 40  1  0  0  0  0
  2 44  1  0  0  0  0
  4 14  1  0  0  0  0
  4 15  1  0  0  0  0
  5  6  1  0  0  0  0
  6  7  1  0  0  0  0
  8  1  1  0  0  0  0
  8  6  2  0  0  0  0
  9  8  1  0  0  0  0
 10  9  1  0  0  0  0
 11  9  2  0  0  0  0
 11 13  1  0  0  0  0
 12 11  1  0  0  0  0
 13  5  1  0  0  0  0
 14  3  1  0  0  0  0
 14 13  2  0  0  0  0
 15 23  1  0  0  0  0
 16 18  1  0  0  0  0
 16 15  2  0  0  0  0
 17 16  1  0  0  0  0
 18 20  2  0  0  0  0
 19 18  1  0  0  0  0
 20  2  1  0  0  0  0
 20 21  1  0  0  0  0
 21 22  1  0  0  0  0
 23 21  2  0  0  0  0
 23 24  1  0  0  0  0
 25  4  1  0  0  0  0
 25 28  1  0  0  0  0
 25 26  1  0  0  0  0
 27 25  1  0  0  0  0
 28 29  1  6  0  0  0
 28  3  1  0  0  0  0
 28 30  1  0  0  0  0
 30 31  1  0  0  0  0
 30 32  1  0  0  0  0
 32 33  1  0  0  0  0
 32 35  1  0  0  0  0
 34 32  1  0  0  0  0
 36 30  1  0  0  0  0
 36 38  1  0  0  0  0
 37 36  1  0  0  0  0
 39 36  1  0  0  0  0
 40 41  1  0  0  0  0
 40 42  1  0  0  0  0
 43 40  1  0  0  0  0
 44 46  1  0  0  0  0
 45 44  1  0  0  0  0
 47 44  1  0  0  0  0
M  END
