1,4
q = -1.0, confidence = 0.0

 47 49  0  0  0  0  0  0  0  0999 V2000
   -0.7230    2.0866   -1.0068 N   0  0  0  0  0  0  0  0  0  0  0  0
   -0.5519    2.6654   -1.8410 H   0  0  0  0  0  0  0  0  0  0  0  0
   -1.4806    1.4244   -1.2395 H   0  0  0  0  0  0  0  0  0  0  0  0
    0.0775   -0.6714   -1.3505 C   0  0  0  0  0  3  0  0  0  0  0  0
   -0.2597   -0.8139   -2.7144 C   0  0  0  0  0  0  0  0  0  0  0  0
   -0.1151    0.0333   -3.4062 H   0  0  0  0  0  0  0  0  0  0  0  0
   -0.7475   -2.0314   -3.2256 C   0  0  0  0  0  0  0  0  0  0  0  0
   -1.0003   -2.1158   -4.2945 H   0  0  0  0  0  0  0  0  0  0  0  0
   -0.8917   -3.1387   -2.3764 C   0  0  0  0  0  0  0  0  0  0  0  0
   -1.2524   -4.1008   -2.7716 H   0  0  0  0  0  0  0  0  0  0  0  0
   -0.5809   -3.0083   -1.0135 C   0  0  0  0  0  0  0  0  0  0  0  0
   -0.7105   -3.8653   -0.3323 H   0  0  0  0  0  0  0  0  0  0  0  0
   -0.1261   -1.7819   -0.4873 C   0  0  0  0  0  0  0  0  0  0  0  0
    0.1312   -1.6290    0.9759 C   0  0  0  0  0  0  0  0  0  0  0  0
    1.2635   -2.2145    1.5742 C   0  0  0  0  0  0  0  0  0  0  0  0
    1.9319   -2.8300    0.9523 H   0  0  0  0  0  0  0  0  0  0  0  0
    1.5715   -1.9819    2.9226 C   0  0  0  0  0  0  0  0  0  0  0  0
    2.4715   -2.4345    3.3665 H   0  0  0  0  0  0  0  0  0  0  0  0
    0.7369   -1.1598    3.6943 C   0  0  0  0  0  0  0  0  0  0  0  0
    0.9729   -0.9636    4.7513 H   0  0  0  0  0  0  0  0  0  0  0  0
   -0.4180   -0.6072    3.1216 C   0  0  0  0  0  0  0  0  0  0  0  0
   -1.1016   -0.0002    3.7352 H   0  0  0  0  0  0  0  0  0  0  0  0
   -0.7460   -0.8384    1.7698 C   0  0  0  0  0  0  0  0  0  0  0  0
   -2.0477   -0.3529    1.2203 C   0  0  0  0  0  0  0  0  0  0  0  0
   -2.9834   -1.3354    0.8092 C   0  0  0  0  0  0  0  0  0  0  0  0
   -2.6898   -2.3893    0.8830 H   0  0  0  0  0  0  0  0  0  0  0  0
   -4.2473   -1.0013    0.3167 C   0  0  0  0  0  0  0  0  0  0  0  0
   -4.6234    0.3753    0.2612 C   0  0  0  0  0  0  0  0  0  0  0  0
   -3.6965    1.3452    0.6599 C   0  0  0  0  0  0  0  0  0  0  0  0
   -3.9725    2.4076    0.6022 H   0  0  0  0  0  0  0  0  0  0  0  0
   -2.4018    1.0087    1.1303 C   0  0  0  0  0  0  0  0  0  0  0  0
   -4.8054   -3.2544   -0.1713 C   0  0  0  0  0  0  0  0  0  0  0  0
   -3.9081   -3.4113   -0.8119 H   0  0  0  0  0  0  0  0  0  0  0  0
   -5.6653   -3.7968   -0.6067 H   0  0  0  0  0  0  0  0  0  0  0  0
   -4.5944   -3.6680    0.8412 H   0  0  0  0  0  0  0  0  0  0  0  0
   -5.1779   -1.8906   -0.1187 O   0  0  0  0  0  0  0  0  0  0  0  0
   -6.2968    1.9740   -0.2726 C   0  0  0  0  0  0  0  0  0  0  0  0
   -6.2865    2.4713    0.7241 H   0  0  0  0  0  0  0  0  0  0  0  0
   -7.3337    1.9601   -0.6568 H   0  0  0  0  0  0  0  0  0  0  0  0
   -5.6621    2.5692   -0.9688 H   0  0  0  0  0  0  0  0  0  0  0  0
   -5.8787    0.6277   -0.1962 O   0  0  0  0  0  0  0  0  0  0  0  0
   -1.4126    2.1274    1.3833 C   0  0  0  0  0  0  0  0  0  0  0  0
   -0.4466    1.7170    1.7381 H   0  0  0  0  0  0  0  0  0  0  0  0
   -1.7834    2.8195    2.1698 H   0  0  0  0  0  0  0  0  0  0  0  0
   -1.1467    2.9538    0.1214 C   0  0  0  0  0  0  0  0  0  0  0  0
   -2.0581    3.5183   -0.1783 H   0  0  0  0  0  0  0  0  0  0  0  0
   -0.3234    3.6727    0.3025 H   0  0  0  0  0  0  0  0  0  0  0  0
  1 45  1  0  0  0  0
  2  1  1  0  0  0  0
  3  1  1  0  0  0  0
  4 13  1  0  0  0  0
  5  4  2  0  0  0  0
  6  5  1  0  0  0  0
  7  5  1  0  0  0  0
  7  9  2  0  0  0  0
  8  7  1  0  0  0  0
  9 11  1  0  0  0  0
 10  9  1  0  0  0  0
 11 13  2  0  0  0  0
 11 12  1  0  0  0  0
 13 14  1  0  0  0  0
 14 15  2  0  0  0  0
 14 23  1  0  0  0  0
 15 17  1  0  0  0  0
 16 15  1  0  0  0  0
 17 18  1  0  0  0  0
 17 19  2  0  0  0  0
 19 20  1  0  0  0  0
 21 19  1  0  0  0  0
 21 22  1  0  0  0  0
 23 21  2  0  0  0  0
 24 23  1  0  0  0  0
 25 26  1  0  0  0  0
 25 24  2  0  0  0  0
 27 25  1  0  0  0  0
 28 27  2  0  0  0  0
 28 29  1  0  0  0  0
 29 31  2  0  0  0  0
 30 29  1  0  0  0  0
 31 24  1  0  0  0  0
 31 42  1  0  0  0  0
 32 36  1  0  0  0  0
 32 35  1  0  0  0  0
 33 32  1  0  0  0  0
 34 32  1  0  0  0  0
 36 27  1  0  0  0  0
 37 41  1  0  0  0  0
 37 38  1  0  0  0  0
 39 37  1  0  0  0  0
 40 37  1  0  0  0  0
 41 28  1  0  0  0  0
 42 43  1  0  0  0  0
 42 44  1  0  0  0  0
 45 47  1  0  0  0  0
 45 42  1  0  0  0  0
 46 45  1  0  0  0  0
M  END
