2,3
q = -1.0

 37 38  0  0  1  0  0  0  0  0999 V2000
   -4.4114    0.2797   -1.3925 O   0  0  0  0  0  0  0  0  0  0  0  0
   -2.5664   -0.5298   -0.4235 N   0  0  0  0  0  2  0  0  0  0  0  0
   -0.9578    1.3798    0.6946 C   0  0  0  0  0  3  0  0  0  0  0  0
   -0.5222    1.7608    1.9805 C   0  0  0  0  0  0  0  0  0  0  0  0
    0.0940    1.0712    2.5766 H   0  0  0  0  0  0  0  0  0  0  0  0
   -0.8356    3.0229    2.5148 C   0  0  0  0  0  0  0  0  0  0  0  0
   -0.4746    3.2983    3.5182 H   0  0  0  0  0  0  0  0  0  0  0  0
   -1.5965    3.9239    1.7587 C   0  0  0  0  0  0  0  0  0  0  0  0
   -1.8347    4.9242    2.1512 H   0  0  0  0  0  0  0  0  0  0  0  0
   -2.0902    3.5305    0.5046 C   0  0  0  0  0  0  0  0  0  0  0  0
   -2.7235    4.2336   -0.0543 H   0  0  0  0  0  0  0  0  0  0  0  0
   -1.8055    2.2577   -0.0306 C   0  0  0  0  0  0  0  0  0  0  0  0
   -2.4585    1.7927   -1.3543 C   0  0  0  0  0  0  0  0  0  0  0  0
   -3.1265    0.4619   -1.0378 C   0  0  2  0  0  3  0  0  0  0  0  0
   -4.7750   -1.0750   -0.9878 C   0  0  0  0  0  0  0  0  0  0  0  0
   -4.9949   -1.6493   -1.9094 H   0  0  0  0  0  0  0  0  0  0  0  0
   -5.6969   -1.0053   -0.3771 H   0  0  0  0  0  0  0  0  0  0  0  0
   -3.5432   -1.6064   -0.2109 C   0  0  2  0  0  0  0  0  0  0  0  0
   -3.1304   -2.5323   -0.6632 H   0  0  0  0  0  0  0  0  0  0  0  0
   -3.7473   -1.8708    1.2972 C   0  0  0  0  0  0  0  0  0  0  0  0
   -2.7395   -2.1758    1.6564 H   0  0  0  0  0  0  0  0  0  0  0  0
   -4.1757   -0.6172    2.0657 C   0  0  0  0  0  0  0  0  0  0  0  0
   -3.4409    0.2036    1.9410 H   0  0  0  0  0  0  0  0  0  0  0  0
   -4.2564   -0.8345    3.1498 H   0  0  0  0  0  0  0  0  0  0  0  0
   -5.1698   -0.2451    1.7357 H   0  0  0  0  0  0  0  0  0  0  0  0
   -4.7035   -3.0485    1.5095 C   0  0  0  0  0  0  0  0  0  0  0  0
   -5.7302   -2.8169    1.1515 H   0  0  0  0  0  0  0  0  0  0  0  0
   -4.7853   -3.2995    2.5859 H   0  0  0  0  0  0  0  0  0  0  0  0
   -4.3519   -3.9554    0.9765 H   0  0  0  0  0  0  0  0  0  0  0  0
   -3.5102    2.7753   -1.8942 C   0  0  0  0  0  0  0  0  0  0  0  0
   -3.0289    3.7341   -2.1651 H   0  0  0  0  0  0  0  0  0  0  0  0
   -4.3119    2.9757   -1.1583 H   0  0  0  0  0  0  0  0  0  0  0  0
   -3.9837    2.3623   -2.8047 H   0  0  0  0  0  0  0  0  0  0  0  0
   -1.3775    1.5750   -2.4462 C   0  0  0  0  0  0  0  0  0  0  0  0
   -1.8341    1.2012   -3.3849 H   0  0  0  0  0  0  0  0  0  0  0  0
   -0.6178    0.8439   -2.1030 H   0  0  0  0  0  0  0  0  0  0  0  0
   -0.8661    2.5362   -2.6513 H   0  0  0  0  0  0  0  0  0  0  0  0
  1 14  1  0  0  0  0
  1 15  1  0  0  0  0
  2 18  1  0  0  0  0
  3  4  1  0  0  0  0
  4  6  2  0  0  0  0
  4  5  1  0  0  0  0
  6  7  1  0  0  0  0
  8  9  1  0  0  0  0
  8  6  1  0  0  0  0
 10  8  2  0  0  0  0
 11 10  1  0  0  0  0
 12 10  1  0  0  0  0
 12  3  2  0  0  0  0
 13 12  1  0  0  0  0
 14 13  1  1  0  0  0
 14  2  1  0  0  0  0
 15 17  1  0  0  0  0
 15 18  1  0  0  0  0
 16 15  1  0  0  0  0
 18 19  1  6  0  0  0
 18 20  1  0  0  0  0
 20 26  1  0  0  0  0
 20 21  1  0  0  0  0
 20 22  1  0  0  0  0
 22 24  1  0  0  0  0
 23 22  1  0  0  0  0
 25 22  1  0  0  0  0
 26 28  1  0  0  0  0
 27 26  1  0  0  0  0
 29 26  1  0  0  0  0
 30 13  1  0  0  0  0
 30 32  1  0  0  0  0
 31 30  1  0  0  0  0
 33 30  1  0  0  0  0
 34 36  1  0  0  0  0
 34 13  1  0  0  0  0
 35 34  1  0  0  0  0
 37 34  1  0  0  0  0
M  END
