1,9
q = -1.0

 23 22  0  0  0  0  0  0  0  0999 V2000
    0.9755    2.1976    0.2861 N   0  0  0  0  0  2  0  0  0  0  0  0
    0.5392    3.1196    0.3918 H   0  0  0  0  0  0  0  0  0  0  0  0
    2.2906    2.1595    0.2479 C   0  0  0  0  0  0  0  0  0  0  0  0
    3.1151    3.3962    0.4091 C   0  0  0  0  0  0  0  0  0  0  0  0
    2.4715    4.2845    0.5624 H   0  0  0  0  0  0  0  0  0  0  0  0
    3.7496    3.5450   -0.4862 H   0  0  0  0  0  0  0  0  0  0  0  0
    3.8224    3.2951    1.2556 H   0  0  0  0  0  0  0  0  0  0  0  0
    2.1208   -1.6196    0.0067 C   0  0  0  0  0  0  0  0  0  0  0  0
    1.8411   -0.1591   -0.0917 C   0  0  0  0  0  2  0  0  0  0  0  0
    2.8251    0.8129    0.1099 C   0  0  0  0  0  0  0  0  0  0  0  0
    4.2670    0.5675    0.3178 C   0  0  0  0  0  0  0  0  0  0  0  0
    1.7234   -2.3136    0.9290 O   0  0  0  0  0  0  0  0  0  0  0  0
    2.8070   -2.1063   -1.0536 O   0  0  0  0  0  0  0  0  0  0  0  0
    3.0517   -3.5155   -1.0230 C   0  0  0  0  0  0  0  0  0  0  0  0
    3.5488   -3.7611   -1.9783 H   0  0  0  0  0  0  0  0  0  0  0  0
    2.1023   -4.0795   -0.9210 H   0  0  0  0  0  0  0  0  0  0  0  0
    3.7065   -3.7794   -0.1675 H   0  0  0  0  0  0  0  0  0  0  0  0
    5.1613    1.3910    0.1737 O   0  0  0  0  0  0  0  0  0  0  0  0
    4.5124   -0.7058    0.7418 O   0  0  0  0  0  0  0  0  0  0  0  0
    5.8902   -1.0491    0.8904 C   0  0  0  0  0  0  0  0  0  0  0  0
    5.9080   -2.0847    1.2753 H   0  0  0  0  0  0  0  0  0  0  0  0
    6.3968   -0.3635    1.5993 H   0  0  0  0  0  0  0  0  0  0  0  0
    6.4203   -0.9910   -0.0824 H   0  0  0  0  0  0  0  0  0  0  0  0
  1  2  1  0  0  0  0
  3  1  1  0  0  0  0
  3  4  1  0  0  0  0
  4  5  1  0  0  0  0
  4  7  1  0  0  0  0
  6  4  1  0  0  0  0
  8 12  2  0  0  0  0
  9  8  1  0  0  0  0
  9 10  1  0  0  0  0
 10  3  2  0  0  0  0
 10 11  1  0  0  0  0
 11 19  1  0  0  0  0
 13 14  1  0  0  0  0
 13  8  1  0  0  0  0
 14 16  1  0  0  0  0
 14 17  1  0  0  0  0
 15 14  1  0  0  0  0
 18 11  2  0  0  0  0
 19 20  1  0  0  0  0
 20 21  1  0  0  0  0
 20 22  1  0  0  0  0
 23 20  1  0  0  0  0
M  END
