7,12
q = 0.0, confidence = 0.916

 33 32  0  0  0  0  0  0  0  0999 V2000
    1.8413   -1.3249    0.3509 S   0  0  0  0  0  0  0  0  0  0  0  0
    3.0148    0.2482   -1.4724 F   0  0  0  0  0  0  0  0  0  0  0  0
    3.7950    0.4677    0.5581 F   0  0  0  0  0  0  0  0  0  0  0  0
    4.3136   -1.2915   -0.6303 F   0  0  0  0  0  0  0  0  0  0  0  0
    1.2301   -1.9848   -0.8228 O   0  0  0  0  0  0  0  0  0  0  0  0
    2.3808   -2.1090    1.4821 O   0  0  0  0  0  0  0  0  0  0  0  0
    0.8694   -0.1109    0.8955 N   0  0  0  0  0  2  0  0  0  0  0  0
   -2.9327   -1.2242    0.3279 N   0  0  0  0  0  0  0  0  0  0  0  0
    3.3466   -0.4120   -0.3506 C   0  0  0  0  0  0  0  0  0  0  0  0
    0.8754    0.1627    2.2611 C   0  0  0  0  0  0  0  0  0  0  0  0
    0.0141    1.1136    2.7070 C   0  0  0  0  0  0  0  0  0  0  0  0
   -0.9563    1.6888    1.7591 C   0  0  0  0  0  3  0  0  0  0  0  0
   -2.0090    0.9195    1.1130 C   0  0  0  0  0  0  0  0  0  0  0  0
   -1.9953   -0.4832    0.9474 C   0  0  0  0  0  0  0  0  0  0  0  0
   -4.0251   -0.6078   -0.4238 C   0  0  0  0  0  0  0  0  0  0  0  0
   -5.2547   -0.3074    0.4343 C   0  0  0  0  0  0  0  0  0  0  0  0
   -2.7506   -2.6770    0.2037 C   0  0  0  0  0  0  0  0  0  0  0  0
   -1.9702   -3.0934   -1.0422 C   0  0  0  0  0  0  0  0  0  0  0  0
    1.5695   -0.4038    2.9016 H   0  0  0  0  0  0  0  0  0  0  0  0
    0.0391    1.4578    3.7516 H   0  0  0  0  0  0  0  0  0  0  0  0
   -1.2365    2.7425    1.9303 H   0  0  0  0  0  0  0  0  0  0  0  0
   -2.9006    1.4705    0.7774 H   0  0  0  0  0  0  0  0  0  0  0  0
   -1.1990   -1.0620    1.4375 H   0  0  0  0  0  0  0  0  0  0  0  0
   -4.2914   -1.2975   -1.2501 H   0  0  0  0  0  0  0  0  0  0  0  0
   -3.6418    0.3163   -0.9076 H   0  0  0  0  0  0  0  0  0  0  0  0
   -6.0533    0.1505   -0.1825 H   0  0  0  0  0  0  0  0  0  0  0  0
   -5.0117    0.3938    1.2571 H   0  0  0  0  0  0  0  0  0  0  0  0
   -5.6604   -1.2342    0.8873 H   0  0  0  0  0  0  0  0  0  0  0  0
   -3.7616   -3.1362    0.2188 H   0  0  0  0  0  0  0  0  0  0  0  0
   -2.2329   -3.0306    1.1186 H   0  0  0  0  0  0  0  0  0  0  0  0
   -0.9236   -2.7323   -0.9976 H   0  0  0  0  0  0  0  0  0  0  0  0
   -2.4378   -2.6999   -1.9677 H   0  0  0  0  0  0  0  0  0  0  0  0
   -1.9489   -4.1988   -1.1198 H   0  0  0  0  0  0  0  0  0  0  0  0
  1  7  1  0  0  0  0
  1  6  2  0  0  0  0
  2  9  1  0  0  0  0
  4  9  1  0  0  0  0
  5  1  2  0  0  0  0
  7 10  1  0  0  0  0
  8 14  1  0  0  0  0
  9  1  1  0  0  0  0
  9  3  1  0  0  0  0
 10 11  2  0  0  0  0
 10 19  1  0  0  0  0
 11 20  1  0  0  0  0
 12 21  1  0  0  0  0
 12 11  1  0  0  0  0
 13 12  1  0  0  0  0
 14 13  2  0  0  0  0
 14 23  1  0  0  0  0
 15  8  1  0  0  0  0
 15 16  1  0  0  0  0
 16 28  1  0  0  0  0
 16 27  1  0  0  0  0
 17 29  1  0  0  0  0
 17  8  1  0  0  0  0
 17 30  1  0  0  0  0
 18 31  1  0  0  0  0
 18 17  1  0  0  0  0
 22 13  1  0  0  0  0
 24 15  1  0  0  0  0
 25 15  1  0  0  0  0
 26 16  1  0  0  0  0
 32 18  1  0  0  0  0
 33 18  1  0  0  0  0
M  END
