2,50
q = -1.0

 62 65  0  0  0  0  0  0  0  0999 V2000
   -2.7197   -1.1773    0.2847 N   0  0  0  0  0  0  0  0  0  0  0  0
   -1.9328    1.6520    0.1031 N   0  0  0  0  0  0  0  0  0  0  0  0
   -1.4625    0.0338    2.6694 N   0  0  0  0  0  0  0  0  0  0  0  0
   -3.3644   -0.2589   -0.6528 C   0  0  0  0  0  0  0  0  0  0  0  0
   -4.4311   -0.5225   -0.8644 H   0  0  0  0  0  0  0  0  0  0  0  0
   -2.8205   -0.3321   -1.6190 H   0  0  0  0  0  0  0  0  0  0  0  0
   -3.3126    1.1898   -0.1544 C   0  0  0  0  0  0  0  0  0  0  0  0
   -3.8181    1.8466   -0.8918 H   0  0  0  0  0  0  0  0  0  0  0  0
   -3.9132    1.2936    0.7704 H   0  0  0  0  0  0  0  0  0  0  0  0
   -1.7359    2.2712    1.4218 C   0  0  0  0  0  0  0  0  0  0  0  0
   -2.3671    3.1826    1.5528 H   0  0  0  0  0  0  0  0  0  0  0  0
   -0.6809    2.6072    1.4411 H   0  0  0  0  0  0  0  0  0  0  0  0
   -2.0186    1.3821    2.6534 C   0  0  0  0  0  0  0  0  0  0  0  0
   -1.6639    1.9625    3.5359 H   0  0  0  0  0  0  0  0  0  0  0  0
   -3.1123    1.2803    2.7985 H   0  0  0  0  0  0  0  0  0  0  0  0
   -2.4041   -1.0746    2.7773 C   0  0  0  0  0  0  0  0  0  0  0  0
   -3.0038   -0.9639    3.7079 H   0  0  0  0  0  0  0  0  0  0  0  0
   -1.8054   -1.9974    2.9023 H   0  0  0  0  0  0  0  0  0  0  0  0
   -3.3755   -1.2364    1.5902 C   0  0  0  0  0  0  0  0  0  0  0  0
   -3.9371   -2.1889    1.7277 H   0  0  0  0  0  0  0  0  0  0  0  0
   -4.1484   -0.4452    1.6462 H   0  0  0  0  0  0  0  0  0  0  0  0
   -2.3417   -2.4947   -0.2730 C   0  0  0  0  0  0  0  0  0  0  0  0
   -1.6450   -2.9758    0.4429 H   0  0  0  0  0  0  0  0  0  0  0  0
   -1.7324   -2.3042   -1.1782 H   0  0  0  0  0  0  0  0  0  0  0  0
   -3.5077   -3.4120   -0.5786 C   0  0  0  0  0  0  0  0  0  0  0  0
   -3.9077   -4.4038    0.3412 C   0  0  0  0  0  0  0  0  0  0  0  0
   -3.3160   -4.5565    1.2586 H   0  0  0  0  0  0  0  0  0  0  0  0
   -5.0264   -5.2142    0.0913 C   0  0  0  0  0  0  0  0  0  0  0  0
   -5.3183   -5.9863    0.8195 H   0  0  0  0  0  0  0  0  0  0  0  0
   -5.7631   -5.0475   -1.0911 C   0  0  0  0  0  0  0  0  0  0  0  0
   -6.6383   -5.6838   -1.2922 H   0  0  0  0  0  0  0  0  0  0  0  0
   -5.3673   -4.0762   -2.0254 C   0  0  0  0  0  0  0  0  0  0  0  0
   -5.9279   -3.9552   -2.9649 H   0  0  0  0  0  0  0  0  0  0  0  0
   -4.2489   -3.2693   -1.7710 C   0  0  0  0  0  0  0  0  0  0  0  0
   -3.9303   -2.5275   -2.5201 H   0  0  0  0  0  0  0  0  0  0  0  0
   -1.4099    2.5249   -1.0010 C   0  0  0  0  0  0  0  0  0  0  0  0
   -1.4916    1.9355   -1.9354 H   0  0  0  0  0  0  0  0  0  0  0  0
   -0.3251    2.6497   -0.8217 H   0  0  0  0  0  0  0  0  0  0  0  0
   -2.1081    3.8583   -1.1567 C   0  0  0  0  0  0  0  0  0  0  0  0
   -3.1704    4.0252   -2.0705 C   0  0  0  0  0  0  0  0  0  0  0  0
   -3.4601    3.1844   -2.7216 H   0  0  0  0  0  0  0  0  0  0  0  0
   -3.8395    5.2534   -2.1876 C   0  0  0  0  0  0  0  0  0  0  0  0
   -4.6618    5.3630   -2.9110 H   0  0  0  0  0  0  0  0  0  0  0  0
   -3.4498    6.3431   -1.3942 C   0  0  0  0  0  0  0  0  0  0  0  0
   -3.9698    7.3086   -1.4864 H   0  0  0  0  0  0  0  0  0  0  0  0
   -2.3779    6.2015   -0.4980 C   0  0  0  0  0  0  0  0  0  0  0  0
   -2.0493    7.0596    0.1080 H   0  0  0  0  0  0  0  0  0  0  0  0
   -1.7119    4.9725   -0.3855 C   0  0  0  0  0  0  0  0  0  0  0  0
   -0.8520    4.8776    0.2956 H   0  0  0  0  0  0  0  0  0  0  0  0
   -0.2057   -0.2840    2.1531 C   0  0  0  0  0  3  0  0  0  0  0  0
   -0.0636   -1.3759    2.1027 H   0  0  0  0  0  0  0  0  0  0  0  0
    1.0578    0.4206    2.3737 C   0  0  0  0  0  0  0  0  0  0  0  0
    1.2257    1.7515    2.8527 C   0  0  0  0  0  0  0  0  0  0  0  0
    0.3637    2.3406    3.1900 H   0  0  0  0  0  0  0  0  0  0  0  0
    2.4947    2.3282    2.9257 C   0  0  0  0  0  0  0  0  0  0  0  0
    2.5962    3.3616    3.2912 H   0  0  0  0  0  0  0  0  0  0  0  0
    3.6414    1.6065    2.5379 C   0  0  0  0  0  0  0  0  0  0  0  0
    4.6324    2.0823    2.5635 H   0  0  0  0  0  0  0  0  0  0  0  0
    3.5071    0.2713    2.1379 C   0  0  0  0  0  0  0  0  0  0  0  0
    4.3924   -0.3208    1.8619 H   0  0  0  0  0  0  0  0  0  0  0  0
    2.2389   -0.3188    2.0651 C   0  0  0  0  0  0  0  0  0  0  0  0
    2.1475   -1.3792    1.7944 H   0  0  0  0  0  0  0  0  0  0  0  0
  1 19  1  0  0  0  0
  2 10  1  0  0  0  0
  3 16  1  0  0  0  0
  4  7  1  0  0  0  0
  4  1  1  0  0  0  0
  5  4  1  0  0  0  0
  6  4  1  0  0  0  0
  7  2  1  0  0  0  0
  7  9  1  0  0  0  0
  8  7  1  0  0  0  0
 10 12  1  0  0  0  0
 10 11  1  0  0  0  0
 10 13  1  0  0  0  0
 13  3  1  0  0  0  0
 13 15  1  0  0  0  0
 13 14  1  0  0  0  0
 16 18  1  0  0  0  0
 16 17  1  0  0  0  0
 19 21  1  0  0  0  0
 19 20  1  0  0  0  0
 19 16  1  0  0  0  0
 22  1  1  0  0  0  0
 22 23  1  0  0  0  0
 24 22  1  0  0  0  0
 25 22  1  0  0  0  0
 25 26  1  0  0  0  0
 26 27  1  0  0  0  0
 28 26  2  0  0  0  0
 28 29  1  0  0  0  0
 30 28  1  0  0  0  0
 31 30  1  0  0  0  0
 32 34  1  0  0  0  0
 32 30  2  0  0  0  0
 33 32  1  0  0  0  0
 34 25  2  0  0  0  0
 35 34  1  0  0  0  0
 36 38  1  0  0  0  0
 36  2  1  0  0  0  0
 37 36  1  0  0  0  0
 39 36  1  0  0  0  0
 39 48  1  0  0  0  0
 40 39  2  0  0  0  0
 41 40  1  0  0  0  0
 42 40  1  0  0  0  0
 42 44  2  0  0  0  0
 43 42  1  0  0  0  0
 44 46  1  0  0  0  0
 45 44  1  0  0  0  0
 46 48  2  0  0  0  0
 46 47  1  0  0  0  0
 48 49  1  0  0  0  0
 50 52  1  0  0  0  0
 50  3  1  0  0  0  0
 51 50  1  0  0  0  0
 52 53  1  0  0  0  0
 53 55  2  0  0  0  0
 53 54  1  0  0  0  0
 55 56  1  0  0  0  0
 57 58  1  0  0  0  0
 57 55  1  0  0  0  0
 59 57  2  0  0  0  0
 60 59  1  0  0  0  0
 61 59  1  0  0  0  0
 61 52  2  0  0  0  0
 62 61  1  0  0  0  0
M  END
