1,3
q = -1.0

 28 30  0  0  0  0  0  0  0  0999 V2000
   -1.9788    0.7338    0.2161 N   0  0  0  0  0  2  0  0  0  0  0  0
   -4.4281    1.8776   -0.5228 N   0  0  0  0  0  0  0  0  0  0  0  0
    0.1529    1.9693    1.0460 C   0  0  0  0  0  3  0  0  0  0  0  0
    1.2823    2.5191    1.6848 C   0  0  0  0  0  0  0  0  0  0  0  0
    2.1687    1.8911    1.8602 H   0  0  0  0  0  0  0  0  0  0  0  0
    1.2911    3.8563    2.1022 C   0  0  0  0  0  0  0  0  0  0  0  0
    2.1817    4.2682    2.6024 H   0  0  0  0  0  0  0  0  0  0  0  0
    0.1643    4.6728    1.8914 C   0  0  0  0  0  0  0  0  0  0  0  0
    0.1695    5.7213    2.2243 H   0  0  0  0  0  0  0  0  0  0  0  0
   -0.9730    4.1502    1.2701 C   0  0  0  0  0  0  0  0  0  0  0  0
   -1.8442    4.8008    1.1435 H   0  0  0  0  0  0  0  0  0  0  0  0
   -1.0009    2.7973    0.8462 C   0  0  0  0  0  0  0  0  0  0  0  0
   -2.1544    2.0853    0.2974 C   0  0  0  0  0  0  0  0  0  0  0  0
   -3.4144    2.6460   -0.1577 C   0  0  0  0  0  0  0  0  0  0  0  0
   -3.6376    4.1250   -0.3247 C   0  0  0  0  0  0  0  0  0  0  0  0
   -4.5504    4.2602   -0.9319 H   0  0  0  0  0  0  0  0  0  0  0  0
   -2.7803    4.6196   -0.8209 H   0  0  0  0  0  0  0  0  0  0  0  0
   -3.8000    4.6273    0.6516 H   0  0  0  0  0  0  0  0  0  0  0  0
   -4.3024    0.5257   -0.4289 C   0  0  0  0  0  0  0  0  0  0  0  0
   -5.4245   -0.2950   -0.7227 C   0  0  0  0  0  3  0  0  0  0  0  0
   -6.3681    0.1801   -1.0212 H   0  0  0  0  0  0  0  0  0  0  0  0
   -5.3011   -1.6698   -0.6156 C   0  0  0  0  0  0  0  0  0  0  0  0
   -4.0893   -2.2796   -0.2099 C   0  0  0  0  0  0  0  0  0  0  0  0
   -4.0527   -3.3732   -0.1047 H   0  0  0  0  0  0  0  0  0  0  0  0
   -2.9791   -1.4926    0.0587 C   0  0  0  0  0  0  0  0  0  0  0  0
   -2.0481   -1.9453    0.4135 H   0  0  0  0  0  0  0  0  0  0  0  0
   -3.0537   -0.0792   -0.0580 C   0  0  0  0  0  0  0  0  0  0  0  0
   -6.3526   -2.4614   -0.8851 F   0  0  0  0  0  0  0  0  0  0  0  0
  1 13  1  0  0  0  0
  2 19  2  0  0  0  0
  2 14  1  0  0  0  0
  3  4  1  0  0  0  0
  4  5  1  0  0  0  0
  4  6  2  0  0  0  0
  6  7  1  0  0  0  0
  8  6  1  0  0  0  0
  8  9  1  0  0  0  0
 10  8  2  0  0  0  0
 11 10  1  0  0  0  0
 12  3  2  0  0  0  0
 12 10  1  0  0  0  0
 13 12  1  0  0  0  0
 14 13  2  0  0  0  0
 15 14  1  0  0  0  0
 15 18  1  0  0  0  0
 16 15  1  0  0  0  0
 17 15  1  0  0  0  0
 19 27  1  0  0  0  0
 20 22  1  0  0  0  0
 20 19  1  0  0  0  0
 21 20  1  0  0  0  0
 22 23  2  0  0  0  0
 23 24  1  0  0  0  0
 23 25  1  0  0  0  0
 25 26  1  0  0  0  0
 27 25  2  0  0  0  0
 27  1  1  0  0  0  0
 28 22  1  0  0  0  0
M  END
