19,27
q = -1.0

 28 30  0  0  0  0  0  0  0  0999 V2000
   -4.7899   -3.5949    1.4945 F   0  0  0  0  0  0  0  0  0  0  0  0
   -3.2254    1.5012   -0.2189 C   0  0  0  0  0  0  0  0  0  0  0  0
   -3.9782    2.6369   -0.7191 C   0  0  0  0  0  0  0  0  0  0  0  0
   -5.4291    2.5551   -1.1169 C   0  0  0  0  0  0  0  0  0  0  0  0
   -6.0965    2.5025   -0.2318 H   0  0  0  0  0  0  0  0  0  0  0  0
   -5.6428    1.6723   -1.7510 H   0  0  0  0  0  0  0  0  0  0  0  0
   -5.6743    3.4781   -1.6720 H   0  0  0  0  0  0  0  0  0  0  0  0
   -2.1011    3.9870   -0.5826 C   0  0  0  0  0  0  0  0  0  0  0  0
   -1.5229    5.2819   -0.6905 C   0  0  0  0  0  3  0  0  0  0  0  0
   -2.1745    6.0944   -1.0422 H   0  0  0  0  0  0  0  0  0  0  0  0
   -0.1946    5.4856   -0.3469 C   0  0  0  0  0  0  0  0  0  0  0  0
    0.2505    6.4887   -0.4257 H   0  0  0  0  0  0  0  0  0  0  0  0
    0.5894    4.3993    0.1217 C   0  0  0  0  0  0  0  0  0  0  0  0
    1.6355    4.5666    0.4187 H   0  0  0  0  0  0  0  0  0  0  0  0
    0.0619    3.1177    0.2190 C   0  0  0  0  0  0  0  0  0  0  0  0
    0.6758    2.2937    0.5983 H   0  0  0  0  0  0  0  0  0  0  0  0
   -1.2910    2.8831   -0.1456 C   0  0  0  0  0  0  0  0  0  0  0  0
   -3.7360    0.1794    0.1464 C   0  0  0  0  0  0  0  0  0  0  0  0
   -2.7076   -0.7678    0.4872 C   0  0  0  0  0  3  0  0  0  0  0  0
   -3.0881   -2.0432    0.9506 C   0  0  0  0  0  0  0  0  0  0  0  0
   -2.3381   -2.7945    1.2375 H   0  0  0  0  0  0  0  0  0  0  0  0
   -4.4413   -2.3723    1.0533 C   0  0  0  0  0  0  0  0  0  0  0  0
   -5.4587   -1.4646    0.7150 C   0  0  0  0  0  0  0  0  0  0  0  0
   -6.5104   -1.7637    0.8220 H   0  0  0  0  0  0  0  0  0  0  0  0
   -5.1009   -0.1928    0.2644 C   0  0  0  0  0  0  0  0  0  0  0  0
   -5.9055    0.5108    0.0302 H   0  0  0  0  0  0  0  0  0  0  0  0
   -1.8723    1.6342   -0.0635 N   0  0  0  0  0  2  0  0  0  0  0  0
   -3.4112    3.8171   -0.9095 N   0  0  0  0  0  0  0  0  0  0  0  0
  2 27  1  0  0  0  0
  2 18  1  0  0  0  0
  3  2  2  0  0  0  0
  4  3  1  0  0  0  0
  4  5  1  0  0  0  0
  6  4  1  0  0  0  0
  7  4  1  0  0  0  0
  8 17  1  0  0  0  0
  9  8  1  0  0  0  0
  9 11  1  0  0  0  0
 10  9  1  0  0  0  0
 11 13  2  0  0  0  0
 12 11  1  0  0  0  0
 13 15  1  0  0  0  0
 13 14  1  0  0  0  0
 15 16  1  0  0  0  0
 17 27  1  0  0  0  0
 17 15  2  0  0  0  0
 18 25  2  0  0  0  0
 18 19  1  0  0  0  0
 19 20  2  0  0  0  0
 20 22  1  0  0  0  0
 20 21  1  0  0  0  0
 22  1  1  0  0  0  0
 23 24  1  0  0  0  0
 23 22  2  0  0  0  0
 25 23  1  0  0  0  0
 26 25  1  0  0  0  0
 28  3  1  0  0  0  0
 28  8  2  0  0  0  0
M  END
