1,2
q = -1.0

 31 32  0  0  1  0  0  0  0  0999 V2000
   -0.0837   -1.1758   -2.3493 N   0  0  0  0  0  0  0  0  0  0  0  0
    1.5388   -0.7503   -0.2243 C   0  0  0  0  0  3  0  0  0  0  0  0
    2.4959   -0.7758    0.7876 C   0  0  0  0  0  0  0  0  0  0  0  0
    2.3105   -1.3139    1.7309 H   0  0  0  0  0  0  0  0  0  0  0  0
    3.7492   -0.1001    0.6696 C   0  0  0  0  0  0  0  0  0  0  0  0
    4.7216   -0.1084    1.7126 C   0  0  0  0  0  0  0  0  0  0  0  0
    4.5023   -0.6592    2.6408 H   0  0  0  0  0  0  0  0  0  0  0  0
    5.9268    0.5622    1.5627 C   0  0  0  0  0  0  0  0  0  0  0  0
    6.6692    0.5469    2.3747 H   0  0  0  0  0  0  0  0  0  0  0  0
    6.2128    1.2697    0.3633 C   0  0  0  0  0  0  0  0  0  0  0  0
    7.1731    1.7959    0.2575 H   0  0  0  0  0  0  0  0  0  0  0  0
    5.2873    1.2966   -0.6696 C   0  0  0  0  0  0  0  0  0  0  0  0
    5.5049    1.8431   -1.6005 H   0  0  0  0  0  0  0  0  0  0  0  0
    4.0390    0.6199   -0.5451 C   0  0  0  0  0  0  0  0  0  0  0  0
    3.0518    0.6438   -1.5714 C   0  0  0  0  0  0  0  0  0  0  0  0
    3.2723    1.2146   -2.4860 H   0  0  0  0  0  0  0  0  0  0  0  0
    1.8299    0.0035   -1.4156 C   0  0  0  0  0  0  0  0  0  0  0  0
    0.7021    0.1223   -2.4103 C   0  0  1  0  0  0  0  0  0  0  0  0
   -0.0101    0.8760   -2.0090 H   0  0  0  0  0  0  0  0  0  0  0  0
    1.1022    0.5870   -3.8099 C   0  0  0  0  0  0  0  0  0  0  0  0
    0.2489    0.5776   -4.5146 H   0  0  0  0  0  0  0  0  0  0  0  0
    1.9313   -0.0063   -4.2409 H   0  0  0  0  0  0  0  0  0  0  0  0
    1.4434    1.6380   -3.7465 H   0  0  0  0  0  0  0  0  0  0  0  0
    0.6690   -2.2367   -3.0695 C   0  0  0  0  0  0  0  0  0  0  0  0
    1.6671   -2.3544   -2.6100 H   0  0  0  0  0  0  0  0  0  0  0  0
    0.7875   -1.9686   -4.1392 H   0  0  0  0  0  0  0  0  0  0  0  0
    0.1181   -3.1902   -3.0190 H   0  0  0  0  0  0  0  0  0  0  0  0
   -1.4189   -1.0192   -2.9742 C   0  0  0  0  0  0  0  0  0  0  0  0
   -1.9671   -0.1946   -2.4859 H   0  0  0  0  0  0  0  0  0  0  0  0
   -1.9963   -1.9519   -2.8454 H   0  0  0  0  0  0  0  0  0  0  0  0
   -1.3289   -0.8084   -4.0604 H   0  0  0  0  0  0  0  0  0  0  0  0
  2  3  1  0  0  0  0
  3  4  1  0  0  0  0
  5  3  2  0  0  0  0
  5  6  1  0  0  0  0
  6  7  1  0  0  0  0
  8  6  2  0  0  0  0
  8  9  1  0  0  0  0
 10  8  1  0  0  0  0
 11 10  1  0  0  0  0
 12 14  1  0  0  0  0
 12 10  2  0  0  0  0
 13 12  1  0  0  0  0
 14  5  1  0  0  0  0
 15 17  1  0  0  0  0
 15 14  2  0  0  0  0
 16 15  1  0  0  0  0
 17  2  2  0  0  0  0
 18  1  1  0  0  0  0
 18 19  1  1  0  0  0
 18 17  1  0  0  0  0
 20 23  1  0  0  0  0
 20 18  1  0  0  0  0
 21 20  1  0  0  0  0
 22 20  1  0  0  0  0
 24 27  1  0  0  0  0
 24 25  1  0  0  0  0
 24  1  1  0  0  0  0
 26 24  1  0  0  0  0
 28 30  1  0  0  0  0
 28 29  1  0  0  0  0
 28  1  1  0  0  0  0
 31 28  1  0  0  0  0
M  END
