4,5
q = -1.0, confidence = 0.048

 31 32  0  0  1  0  0  0  0  0999 V2000
    4.2137   -1.8607    1.7042 O   0  0  0  0  0  0  0  0  0  0  0  0
   -2.4383   -0.4599   -0.1236 O   0  0  0  0  0  0  0  0  0  0  0  0
   -2.8500    1.7077    0.4057 O   0  0  0  0  0  0  0  0  0  0  0  0
    1.0532   -1.3658   -0.4021 N   0  0  0  0  0  2  0  0  0  0  0  0
    3.3826   -1.5805    0.8679 C   0  0  0  0  0  3  0  0  0  0  0  0
    3.1793   -2.5013   -0.3601 C   0  0  0  0  0  0  0  0  0  0  0  0
    3.8469   -2.0885   -1.1502 H   0  0  0  0  0  0  0  0  0  0  0  0
    3.5221   -3.5348   -0.1450 H   0  0  0  0  0  0  0  0  0  0  0  0
    1.7641   -2.4516   -0.8199 C   0  0  1  0  0  3  0  0  0  0  0  0
    1.1788   -3.4687   -1.5899 C   0  0  0  0  0  0  0  0  0  0  0  0
    1.7925   -4.3267   -1.8983 H   0  0  0  0  0  0  0  0  0  0  0  0
   -0.1685   -3.3701   -1.9447 C   0  0  0  0  0  0  0  0  0  0  0  0
   -0.6478   -4.1479   -2.5578 H   0  0  0  0  0  0  0  0  0  0  0  0
   -0.9029   -2.2700   -1.4884 C   0  0  0  0  0  0  0  0  0  0  0  0
   -1.9715   -2.1553   -1.7099 H   0  0  0  0  0  0  0  0  0  0  0  0
   -0.2688   -1.2914   -0.7080 C   0  0  0  0  0  0  0  0  0  0  0  0
   -1.0491   -0.1226   -0.1755 C   0  0  0  0  0  0  0  0  0  0  0  0
   -0.6879    0.1515    0.8351 H   0  0  0  0  0  0  0  0  0  0  0  0
   -0.9139    0.7734   -0.8146 H   0  0  0  0  0  0  0  0  0  0  0  0
   -3.2626    0.5788    0.1956 C   0  0  0  0  0  0  0  0  0  0  0  0
   -4.6935    0.1654    0.2508 C   0  0  0  0  0  0  0  0  0  0  0  0
   -5.1013   -1.1755    0.0930 C   0  0  0  0  0  0  0  0  0  0  0  0
   -4.3439   -1.9546   -0.0698 H   0  0  0  0  0  0  0  0  0  0  0  0
   -6.4619   -1.5031    0.1589 C   0  0  0  0  0  0  0  0  0  0  0  0
   -6.7797   -2.5499    0.0395 H   0  0  0  0  0  0  0  0  0  0  0  0
   -7.4189   -0.4986    0.3804 C   0  0  0  0  0  0  0  0  0  0  0  0
   -8.4870   -0.7597    0.4311 H   0  0  0  0  0  0  0  0  0  0  0  0
   -7.0147    0.8378    0.5409 C   0  0  0  0  0  0  0  0  0  0  0  0
   -7.7648    1.6234    0.7170 H   0  0  0  0  0  0  0  0  0  0  0  0
   -5.6564    1.1697    0.4791 C   0  0  0  0  0  0  0  0  0  0  0  0
   -5.3095    2.2058    0.6049 H   0  0  0  0  0  0  0  0  0  0  0  0
  2 20  1  0  0  0  0
  5  1  2  0  0  0  0
  6  8  1  0  0  0  0
  6  5  1  0  0  0  0
  7  6  1  0  0  0  0
  9  4  1  0  0  0  0
  9  6  1  1  0  0  0
 10  9  1  0  0  0  0
 11 10  1  0  0  0  0
 12 10  2  0  0  0  0
 12 14  1  0  0  0  0
 13 12  1  0  0  0  0
 14 16  2  0  0  0  0
 15 14  1  0  0  0  0
 16  4  1  0  0  0  0
 16 17  1  0  0  0  0
 17  2  1  0  0  0  0
 17 18  1  0  0  0  0
 19 17  1  0  0  0  0
 20 21  1  0  0  0  0
 20  3  2  0  0  0  0
 21 30  1  0  0  0  0
 22 24  1  0  0  0  0
 22 21  2  0  0  0  0
 23 22  1  0  0  0  0
 24 26  2  0  0  0  0
 25 24  1  0  0  0  0
 26 27  1  0  0  0  0
 26 28  1  0  0  0  0
 28 29  1  0  0  0  0
 30 28  2  0  0  0  0
 30 31  1  0  0  0  0
M  END
