3,7
q = -2.0, confidence = 0.922

 40 40  0  0  1  0  0  0  0  0999 V2000
   -1.0474    0.7314   -1.9902 P   0  0  0  0  0  0  0  0  0  0  0  0
    1.4458    1.5822   -0.3952 Si  0  0  0  0  0  0  0  0  0  0  0  0
    1.4237   -0.1394    0.0839 N   0  0  0  0  0  2  0  0  0  0  0  0
   -2.4848    0.2132   -1.0602 C   0  0  0  0  0  0  0  0  0  0  0  0
   -2.5179    0.7786    0.2432 C   0  0  0  0  0  0  0  0  0  0  0  0
   -1.3583    1.5881    0.5283 C   0  0  0  0  0  0  0  0  0  0  0  0
   -0.4339    1.6299   -0.5577 C   0  0  2  0  0  3  0  0  0  0  0  0
   -3.5372   -0.6973   -1.6233 C   0  0  0  0  0  0  0  0  0  0  0  0
   -3.6364    0.5961    1.2265 C   0  0  0  0  0  0  0  0  0  0  0  0
   -1.2063    2.2988    1.8445 C   0  0  0  0  0  0  0  0  0  0  0  0
    2.1776    2.7469    0.8992 C   0  0  0  0  0  0  0  0  0  0  0  0
    2.2608    1.8938   -2.0660 C   0  0  0  0  0  0  0  0  0  0  0  0
    2.5975   -1.0376    0.2637 C   0  0  0  0  0  0  0  0  0  0  0  0
    2.9693   -1.6305   -1.1106 C   0  0  0  0  0  0  0  0  0  0  0  0
    3.7864   -0.2338    0.8232 C   0  0  0  0  0  0  0  0  0  0  0  0
    2.2663   -2.1737    1.2486 C   0  0  0  0  0  0  0  0  0  0  0  0
   -3.1896   -1.1856   -2.5533 H   0  0  0  0  0  0  0  0  0  0  0  0
   -4.4632   -0.1302   -1.8591 H   0  0  0  0  0  0  0  0  0  0  0  0
   -3.8076   -1.4996   -0.9074 H   0  0  0  0  0  0  0  0  0  0  0  0
   -3.2488    0.2564    2.2077 H   0  0  0  0  0  0  0  0  0  0  0  0
   -4.3776   -0.1450    0.8755 H   0  0  0  0  0  0  0  0  0  0  0  0
   -4.1668    1.5587    1.3877 H   0  0  0  0  0  0  0  0  0  0  0  0
   -2.0396    3.0217    1.9739 H   0  0  0  0  0  0  0  0  0  0  0  0
   -0.2610    2.8643    1.8986 H   0  0  0  0  0  0  0  0  0  0  0  0
   -1.2461    1.5887    2.6944 H   0  0  0  0  0  0  0  0  0  0  0  0
    1.9288    2.4259    1.9293 H   0  0  0  0  0  0  0  0  0  0  0  0
    1.7841    3.7732    0.7449 H   0  0  0  0  0  0  0  0  0  0  0  0
    3.2811    2.7917    0.8110 H   0  0  0  0  0  0  0  0  0  0  0  0
    1.8558    1.2147   -2.8422 H   0  0  0  0  0  0  0  0  0  0  0  0
    3.3586    1.7471   -2.0138 H   0  0  0  0  0  0  0  0  0  0  0  0
    2.0719    2.9398   -2.3856 H   0  0  0  0  0  0  0  0  0  0  0  0
    3.2478   -0.8316   -1.8259 H   0  0  0  0  0  0  0  0  0  0  0  0
    2.1099   -2.1886   -1.5305 H   0  0  0  0  0  0  0  0  0  0  0  0
    3.8293   -2.3245   -1.0146 H   0  0  0  0  0  0  0  0  0  0  0  0
    4.1028    0.5673    0.1239 H   0  0  0  0  0  0  0  0  0  0  0  0
    4.6584   -0.9009    0.9754 H   0  0  0  0  0  0  0  0  0  0  0  0
    3.5316    0.2274    1.7977 H   0  0  0  0  0  0  0  0  0  0  0  0
    1.4398   -2.8058    0.8689 H   0  0  0  0  0  0  0  0  0  0  0  0
    1.9648   -1.7672    2.2330 H   0  0  0  0  0  0  0  0  0  0  0  0
    3.1537   -2.8234    1.3877 H   0  0  0  0  0  0  0  0  0  0  0  0
  1  4  2  0  0  0  0
  1  7  1  0  0  0  0
  2  3  1  0  0  0  0
  2 11  1  0  0  0  0
  3 13  1  0  0  0  0
  4  5  1  0  0  0  0
  5  6  2  0  0  0  0
  5  9  1  0  0  0  0
  6 10  1  0  0  0  0
  7  2  1  1  0  0  0
  7  6  1  0  0  0  0
  8  4  1  0  0  0  0
  8 19  1  0  0  0  0
  9 22  1  0  0  0  0
  9 20  1  0  0  0  0
 10 24  1  0  0  0  0
 10 23  1  0  0  0  0
 10 25  1  0  0  0  0
 11 26  1  0  0  0  0
 12 30  1  0  0  0  0
 12  2  1  0  0  0  0
 13 15  1  0  0  0  0
 13 16  1  0  0  0  0
 14 34  1  0  0  0  0
 14 13  1  0  0  0  0
 15 36  1  0  0  0  0
 15 37  1  0  0  0  0
 16 40  1  0  0  0  0
 16 39  1  0  0  0  0
 17  8  1  0  0  0  0
 18  8  1  0  0  0  0
 21  9  1  0  0  0  0
 27 11  1  0  0  0  0
 28 11  1  0  0  0  0
 29 12  1  0  0  0  0
 31 12  1  0  0  0  0
 32 14  1  0  0  0  0
 33 14  1  0  0  0  0
 35 15  1  0  0  0  0
 38 16  1  0  0  0  0
M  END
