1,2
q = -1.0

 37 38  0  0  1  0  0  0  0  0999 V2000
   -1.1216   -2.8798   -0.5193 N   0  0  0  0  0  0  0  0  0  0  0  0
   -1.3737   -0.2134   -0.7292 C   0  0  0  0  0  3  0  0  0  0  0  0
   -1.6281    0.9962   -1.4572 C   0  0  0  0  0  0  0  0  0  0  0  0
   -2.8918    1.5778   -1.3617 C   0  0  0  0  0  0  0  0  0  0  0  0
   -3.0932    2.5190   -1.9002 H   0  0  0  0  0  0  0  0  0  0  0  0
   -3.9477    0.9963   -0.6096 C   0  0  0  0  0  0  0  0  0  0  0  0
   -5.2223    1.6243   -0.4895 C   0  0  0  0  0  0  0  0  0  0  0  0
   -5.3664    2.6050   -0.9724 H   0  0  0  0  0  0  0  0  0  0  0  0
   -6.2739    1.0392    0.2069 C   0  0  0  0  0  0  0  0  0  0  0  0
   -6.0523   -0.2367    0.8092 C   0  0  0  0  0  0  0  0  0  0  0  0
   -6.8755   -0.7162    1.3630 H   0  0  0  0  0  0  0  0  0  0  0  0
   -4.8287   -0.8799    0.7134 C   0  0  0  0  0  0  0  0  0  0  0  0
   -4.6996   -1.8578    1.2004 H   0  0  0  0  0  0  0  0  0  0  0  0
   -3.7330   -0.2878    0.0124 C   0  0  0  0  0  0  0  0  0  0  0  0
   -2.4359   -0.8794   -0.0978 C   0  0  0  0  0  0  0  0  0  0  0  0
   -0.6129    1.6075   -2.3916 C   0  0  0  0  0  0  0  0  0  0  0  0
   -0.5577    2.7082   -2.2802 H   0  0  0  0  0  0  0  0  0  0  0  0
   -0.8925    1.3918   -3.4452 H   0  0  0  0  0  0  0  0  0  0  0  0
    0.3960    1.1839   -2.2383 H   0  0  0  0  0  0  0  0  0  0  0  0
   -7.6181    1.7090    0.3340 C   0  0  0  0  0  0  0  0  0  0  0  0
   -8.4260    1.0771   -0.0920 H   0  0  0  0  0  0  0  0  0  0  0  0
   -7.6402    2.6853   -0.1877 H   0  0  0  0  0  0  0  0  0  0  0  0
   -7.8823    1.8858    1.3983 H   0  0  0  0  0  0  0  0  0  0  0  0
   -2.1290   -2.2652    0.4314 C   0  0  2  0  0  0  0  0  0  0  0  0
   -3.0414   -2.9073    0.3977 H   0  0  0  0  0  0  0  0  0  0  0  0
   -1.6261   -2.2112    1.8790 C   0  0  0  0  0  0  0  0  0  0  0  0
   -0.6436   -1.6966    1.9251 H   0  0  0  0  0  0  0  0  0  0  0  0
   -1.5328   -3.2113    2.3446 H   0  0  0  0  0  0  0  0  0  0  0  0
   -2.3479   -1.6244    2.4793 H   0  0  0  0  0  0  0  0  0  0  0  0
   -1.7446   -3.1602   -1.8303 C   0  0  0  0  0  0  0  0  0  0  0  0
   -2.5147   -3.9609   -1.7358 H   0  0  0  0  0  0  0  0  0  0  0  0
   -0.9596   -3.4943   -2.5342 H   0  0  0  0  0  0  0  0  0  0  0  0
   -2.2199   -2.2445   -2.2240 H   0  0  0  0  0  0  0  0  0  0  0  0
   -0.5341   -4.1253    0.0046 C   0  0  0  0  0  0  0  0  0  0  0  0
    0.1888   -4.5147   -0.7341 H   0  0  0  0  0  0  0  0  0  0  0  0
   -1.3324   -4.8800    0.1965 H   0  0  0  0  0  0  0  0  0  0  0  0
    0.0255   -3.9279    0.9339 H   0  0  0  0  0  0  0  0  0  0  0  0
  1 34  1  0  0  0  0
  1 24  1  0  0  0  0
  2 15  1  0  0  0  0
  3  4  1  0  0  0  0
  3  2  2  0  0  0  0
  4  6  2  0  0  0  0
  5  4  1  0  0  0  0
  6  7  1  0  0  0  0
  6 14  1  0  0  0  0
  7  9  2  0  0  0  0
  8  7  1  0  0  0  0
  9 20  1  0  0  0  0
  9 10  1  0  0  0  0
 10 11  1  0  0  0  0
 12 10  2  0  0  0  0
 12 13  1  0  0  0  0
 14 12  1  0  0  0  0
 15 14  2  0  0  0  0
 15 24  1  0  0  0  0
 16 17  1  0  0  0  0
 16 19  1  0  0  0  0
 16  3  1  0  0  0  0
 18 16  1  0  0  0  0
 20 23  1  0  0  0  0
 21 20  1  0  0  0  0
 22 20  1  0  0  0  0
 24 25  1  6  0  0  0
 24 26  1  0  0  0  0
 26 27  1  0  0  0  0
 26 28  1  0  0  0  0
 26 29  1  0  0  0  0
 30 31  1  0  0  0  0
 30  1  1  0  0  0  0
 32 30  1  0  0  0  0
 33 30  1  0  0  0  0
 34 36  1  0  0  0  0
 34 37  1  0  0  0  0
 35 34  1  0  0  0  0
M  END
