2,3
q = -1.0, confidence = 0.0

 24 25  0  0  0  0  0  0  0  0999 V2000
   -4.6749   -1.0002   -0.2835 N   0  0  0  0  0  0  0  0  0  0  0  0
   -2.5176   -1.3862   -0.1351 N   0  0  0  0  0  2  0  0  0  0  0  0
   -1.5518    1.1095   -0.0592 C   0  0  0  0  0  2  0  0  0  0  0  0
   -0.9947    2.3887    0.0151 C   0  0  0  0  0  0  0  0  0  0  0  0
   -1.8158    3.5330    0.0076 C   0  0  0  0  0  0  0  0  0  0  0  0
   -3.2070    3.4014   -0.0723 C   0  0  0  0  0  0  0  0  0  0  0  0
   -3.7865    2.1273   -0.1379 C   0  0  0  0  0  0  0  0  0  0  0  0
   -2.9760    0.9720   -0.1323 C   0  0  0  0  0  0  0  0  0  0  0  0
   -3.4473   -0.4078   -0.1842 C   0  0  0  0  0  0  0  0  0  0  0  0
   -4.4877   -2.3767   -0.2828 C   0  0  0  0  0  0  0  0  0  0  0  0
   -3.1300   -2.6108   -0.1935 C   0  0  0  0  0  0  0  0  0  0  0  0
   -5.9954   -0.3578   -0.3132 C   0  0  0  0  0  0  0  0  0  0  0  0
   -6.4960    0.0339    1.0741 C   0  0  0  0  0  0  0  0  0  0  0  0
    0.0921    2.5311    0.0735 H   0  0  0  0  0  0  0  0  0  0  0  0
   -1.3536    4.5297    0.0662 H   0  0  0  0  0  0  0  0  0  0  0  0
   -3.8506    4.2930   -0.0788 H   0  0  0  0  0  0  0  0  0  0  0  0
   -4.8793    2.0438   -0.1874 H   0  0  0  0  0  0  0  0  0  0  0  0
   -5.3341   -3.0669   -0.3528 H   0  0  0  0  0  0  0  0  0  0  0  0
   -2.5536   -3.5415   -0.1715 H   0  0  0  0  0  0  0  0  0  0  0  0
   -5.9370    0.5120   -0.9961 H   0  0  0  0  0  0  0  0  0  0  0  0
   -6.6830   -1.0815   -0.7921 H   0  0  0  0  0  0  0  0  0  0  0  0
   -5.8186    0.7612    1.5638 H   0  0  0  0  0  0  0  0  0  0  0  0
   -7.4983    0.4980    0.9942 H   0  0  0  0  0  0  0  0  0  0  0  0
   -6.5799   -0.8544    1.7303 H   0  0  0  0  0  0  0  0  0  0  0  0
  1 10  1  0  0  0  0
  1  9  1  0  0  0  0
  3  4  1  0  0  0  0
  4 14  1  0  0  0  0
  5  4  2  0  0  0  0
  5 15  1  0  0  0  0
  6  5  1  0  0  0  0
  7  8  1  0  0  0  0
  7  6  2  0  0  0  0
  8  3  1  0  0  0  0
  9  2  1  0  0  0  0
  9  8  2  0  0  0  0
 10 11  2  0  0  0  0
 11 19  1  0  0  0  0
 11  2  1  0  0  0  0
 12  1  1  0  0  0  0
 12 13  1  0  0  0  0
 13 22  1  0  0  0  0
 13 24  1  0  0  0  0
 16  6  1  0  0  0  0
 17  7  1  0  0  0  0
 18 10  1  0  0  0  0
 20 12  1  0  0  0  0
 21 12  1  0  0  0  0
 23 13  1  0  0  0  0
M  END
