2,4
q = -1.0

 31 31  0  0  1  0  0  0  0  0999 V2000
   -0.0846   -0.3040   -3.2570 O   0  0  0  0  0  0  0  0  0  0  0  0
    1.3849    0.2162    0.2928 N   0  0  0  0  0  2  0  0  0  0  0  0
    1.9779    1.0064   -0.6480 N   0  0  0  0  0  0  0  0  0  0  0  0
    0.3953   -0.1785   -2.1311 C   0  0  0  0  0  3  0  0  0  0  0  0
    1.8974    0.5921    1.4877 C   0  0  2  0  0  3  0  0  0  0  0  0
    3.6518    2.8591   -0.9217 C   0  0  0  0  0  0  0  0  0  0  0  0
    2.9694    3.2515   -1.7092 H   0  0  0  0  0  0  0  0  0  0  0  0
    1.4891   -0.0080    2.8069 C   0  0  0  0  0  0  0  0  0  0  0  0
    0.6534   -0.6999    2.5881 H   0  0  0  0  0  0  0  0  0  0  0  0
    2.8567    1.8883   -0.0912 C   0  0  0  0  0  0  0  0  0  0  0  0
    2.8334    1.6387    1.2826 C   0  0  0  0  0  0  0  0  0  0  0  0
    3.4144    2.1545    2.0528 H   0  0  0  0  0  0  0  0  0  0  0  0
    2.6333   -0.8415    3.4065 C   0  0  0  0  0  0  0  0  0  0  0  0
    2.9342   -1.6498    2.7121 H   0  0  0  0  0  0  0  0  0  0  0  0
    2.3103   -1.3130    4.3569 H   0  0  0  0  0  0  0  0  0  0  0  0
    3.5230   -0.2123    3.6204 H   0  0  0  0  0  0  0  0  0  0  0  0
    0.9953    1.0673    3.7873 C   0  0  0  0  0  0  0  0  0  0  0  0
    1.7915    1.8018    4.0317 H   0  0  0  0  0  0  0  0  0  0  0  0
    0.6702    0.5965    4.7370 H   0  0  0  0  0  0  0  0  0  0  0  0
    0.1254    1.6211    3.3814 H   0  0  0  0  0  0  0  0  0  0  0  0
    1.4906    0.9227   -2.0048 C   0  0  0  0  0  0  0  0  0  0  0  0
    2.3136    0.6869   -2.7112 H   0  0  0  0  0  0  0  0  0  0  0  0
    1.0404    1.8903   -2.3140 H   0  0  0  0  0  0  0  0  0  0  0  0
    4.8295    2.1517   -1.6214 C   0  0  0  0  0  0  0  0  0  0  0  0
    5.5440    1.7576   -0.8704 H   0  0  0  0  0  0  0  0  0  0  0  0
    5.3738    2.8553   -2.2832 H   0  0  0  0  0  0  0  0  0  0  0  0
    4.4895    1.2964   -2.2387 H   0  0  0  0  0  0  0  0  0  0  0  0
    4.1353    4.0467   -0.0815 C   0  0  0  0  0  0  0  0  0  0  0  0
    3.2894    4.5665    0.4101 H   0  0  0  0  0  0  0  0  0  0  0  0
    4.6714    4.7798   -0.7161 H   0  0  0  0  0  0  0  0  0  0  0  0
    4.8385    3.7151    0.7099 H   0  0  0  0  0  0  0  0  0  0  0  0
  1  4  2  0  0  0  0
  2  5  1  0  0  0  0
  3 10  1  0  0  0  0
  3  2  1  0  0  0  0
  4 21  1  0  0  0  0
  5  8  1  1  0  0  0
  6 10  1  0  0  0  0
  6 28  1  0  0  0  0
  7  6  1  0  0  0  0
  8 13  1  0  0  0  0
  8 17  1  0  0  0  0
  9  8  1  0  0  0  0
 10 11  2  0  0  0  0
 11  5  1  0  0  0  0
 11 12  1  0  0  0  0
 13 16  1  0  0  0  0
 13 15  1  0  0  0  0
 14 13  1  0  0  0  0
 17 18  1  0  0  0  0
 17 19  1  0  0  0  0
 20 17  1  0  0  0  0
 21  3  1  0  0  0  0
 22 21  1  0  0  0  0
 23 21  1  0  0  0  0
 24  6  1  0  0  0  0
 24 25  1  0  0  0  0
 26 24  1  0  0  0  0
 27 24  1  0  0  0  0
 28 29  1  0  0  0  0
 28 31  1  0  0  0  0
 30 28  1  0  0  0  0
M  END
