1,6
q = -1.0

 61 63  0  0  0  0  0  0  0  0999 V2000
    2.7004   -0.5225   -0.0099 N   0  0  0  0  0  2  0  0  0  0  0  0
    3.0467    0.7320    0.0558 C   0  0  0  0  0  0  0  0  0  0  0  0
    2.0975    2.9020   -0.2837 N   0  0  0  0  0  2  0  0  0  0  0  0
    1.9008    1.6857    0.0875 C   0  0  0  0  0  0  0  0  0  0  0  0
   -0.2576    1.6618    1.1539 N   0  0  0  0  0  2  0  0  0  0  0  0
    0.5938    1.0308    0.4414 C   0  0  0  0  0  2  0  0  0  0  0  0
    4.4424    1.2510    0.0950 C   0  0  0  0  0  0  0  0  0  0  0  0
    4.4802    2.2053   -0.4657 H   0  0  0  0  0  0  0  0  0  0  0  0
    5.1679    0.5145   -0.2949 H   0  0  0  0  0  0  0  0  0  0  0  0
    4.7171    1.4895    1.1453 H   0  0  0  0  0  0  0  0  0  0  0  0
    3.6718   -1.5687   -0.0405 C   0  0  0  0  0  0  0  0  0  0  0  0
    4.1547   -2.0217   -1.2900 C   0  0  0  0  0  0  0  0  0  0  0  0
    5.0980   -3.0651   -1.2813 C   0  0  0  0  0  0  0  0  0  0  0  0
    5.4868   -3.4345   -2.2428 H   0  0  0  0  0  0  0  0  0  0  0  0
    5.5292   -3.6420   -0.0796 C   0  0  0  0  0  0  0  0  0  0  0  0
    6.2637   -4.4611   -0.0956 H   0  0  0  0  0  0  0  0  0  0  0  0
    5.0153   -3.1867    1.1419 C   0  0  0  0  0  0  0  0  0  0  0  0
    5.3403   -3.6494    2.0867 H   0  0  0  0  0  0  0  0  0  0  0  0
    4.0730   -2.1436    1.1868 C   0  0  0  0  0  0  0  0  0  0  0  0
    3.6365   -1.4267   -2.5702 C   0  0  0  0  0  0  0  0  0  0  0  0
    4.1464   -1.8643   -3.4487 H   0  0  0  0  0  0  0  0  0  0  0  0
    3.7682   -0.3250   -2.6102 H   0  0  0  0  0  0  0  0  0  0  0  0
    2.5476   -1.6337   -2.6564 H   0  0  0  0  0  0  0  0  0  0  0  0
    3.4793   -1.6635    2.4844 C   0  0  0  0  0  0  0  0  0  0  0  0
    3.8694   -2.2445    3.3409 H   0  0  0  0  0  0  0  0  0  0  0  0
    2.3738   -1.7635    2.4704 H   0  0  0  0  0  0  0  0  0  0  0  0
    3.6958   -0.5911    2.6757 H   0  0  0  0  0  0  0  0  0  0  0  0
    1.0953    3.8733   -0.4351 C   0  0  0  0  0  0  0  0  0  0  0  0
    0.4350    3.9715   -1.6885 C   0  0  0  0  0  0  0  0  0  0  0  0
   -0.4586    5.0391   -1.8849 C   0  0  0  0  0  0  0  0  0  0  0  0
   -0.9757    5.1231   -2.8539 H   0  0  0  0  0  0  0  0  0  0  0  0
   -0.6983    5.9814   -0.8754 C   0  0  0  0  0  0  0  0  0  0  0  0
   -1.3984    6.8121   -1.0489 H   0  0  0  0  0  0  0  0  0  0  0  0
   -0.0467    5.8550    0.3606 C   0  0  0  0  0  0  0  0  0  0  0  0
   -0.2416    6.5820    1.1648 H   0  0  0  0  0  0  0  0  0  0  0  0
    0.8575    4.8073    0.6054 C   0  0  0  0  0  0  0  0  0  0  0  0
    0.6873    2.9330   -2.7490 C   0  0  0  0  0  0  0  0  0  0  0  0
    0.1877    3.1982   -3.6999 H   0  0  0  0  0  0  0  0  0  0  0  0
    0.3149    1.9312   -2.4377 H   0  0  0  0  0  0  0  0  0  0  0  0
    1.7740    2.8121   -2.9439 H   0  0  0  0  0  0  0  0  0  0  0  0
    1.5330    4.6188    1.9348 C   0  0  0  0  0  0  0  0  0  0  0  0
    2.6309    4.5002    1.8174 H   0  0  0  0  0  0  0  0  0  0  0  0
    1.1569    3.6910    2.4183 H   0  0  0  0  0  0  0  0  0  0  0  0
    1.3404    5.4702    2.6148 H   0  0  0  0  0  0  0  0  0  0  0  0
   -1.5009    1.1501    1.5464 C   0  0  0  0  0  0  0  0  0  0  0  0
   -1.5864    0.1063    2.5083 C   0  0  0  0  0  0  0  0  0  0  0  0
   -2.8640   -0.3696    2.8590 C   0  0  0  0  0  0  0  0  0  0  0  0
   -2.9405   -1.1772    3.6044 H   0  0  0  0  0  0  0  0  0  0  0  0
   -4.0245    0.1621    2.2819 C   0  0  0  0  0  0  0  0  0  0  0  0
   -5.0122   -0.2360    2.5578 H   0  0  0  0  0  0  0  0  0  0  0  0
   -3.9206    1.2141    1.3600 C   0  0  0  0  0  0  0  0  0  0  0  0
   -4.8302    1.6485    0.9158 H   0  0  0  0  0  0  0  0  0  0  0  0
   -2.6699    1.7348    0.9873 C   0  0  0  0  0  0  0  0  0  0  0  0
   -0.3475   -0.4868    3.1253 C   0  0  0  0  0  0  0  0  0  0  0  0
   -0.5892   -1.0351    4.0560 H   0  0  0  0  0  0  0  0  0  0  0  0
    0.4087    0.2908    3.3546 H   0  0  0  0  0  0  0  0  0  0  0  0
    0.1393   -1.2023    2.4259 H   0  0  0  0  0  0  0  0  0  0  0  0
   -2.5375    2.8466   -0.0151 C   0  0  0  0  0  0  0  0  0  0  0  0
   -2.0712    2.4901   -0.9581 H   0  0  0  0  0  0  0  0  0  0  0  0
   -1.8705    3.6505    0.3568 H   0  0  0  0  0  0  0  0  0  0  0  0
   -3.5220    3.2862   -0.2649 H   0  0  0  0  0  0  0  0  0  0  0  0
  1  2  1  0  0  0  0
  2  4  2  0  0  0  0
  2  7  1  0  0  0  0
  3  4  1  0  0  0  0
  4  6  1  0  0  0  0
  5 45  1  0  0  0  0
  6  5  1  0  0  0  0
  7 10  1  0  0  0  0
  8  7  1  0  0  0  0
  9  7  1  0  0  0  0
 11  1  1  0  0  0  0
 11 19  1  0  0  0  0
 12 13  1  0  0  0  0
 12 11  2  0  0  0  0
 13 15  2  0  0  0  0
 14 13  1  0  0  0  0
 15 17  1  0  0  0  0
 16 15  1  0  0  0  0
 17 19  2  0  0  0  0
 17 18  1  0  0  0  0
 19 24  1  0  0  0  0
 20 12  1  0  0  0  0
 21 20  1  0  0  0  0
 22 20  1  0  0  0  0
 23 20  1  0  0  0  0
 24 27  1  0  0  0  0
 24 25  1  0  0  0  0
 26 24  1  0  0  0  0
 28  3  1  0  0  0  0
 28 36  1  0  0  0  0
 29 28  2  0  0  0  0
 30 29  1  0  0  0  0
 30 32  2  0  0  0  0
 31 30  1  0  0  0  0
 32 34  1  0  0  0  0
 33 32  1  0  0  0  0
 34 36  2  0  0  0  0
 34 35  1  0  0  0  0
 36 41  1  0  0  0  0
 37 39  1  0  0  0  0
 37 29  1  0  0  0  0
 38 37  1  0  0  0  0
 40 37  1  0  0  0  0
 41 43  1  0  0  0  0
 41 44  1  0  0  0  0
 42 41  1  0  0  0  0
 45 46  1  0  0  0  0
 46 47  2  0  0  0  0
 46 54  1  0  0  0  0
 47 48  1  0  0  0  0
 49 50  1  0  0  0  0
 49 47  1  0  0  0  0
 51 49  2  0  0  0  0
 52 51  1  0  0  0  0
 53 51  1  0  0  0  0
 53 45  2  0  0  0  0
 54 56  1  0  0  0  0
 54 55  1  0  0  0  0
 57 54  1  0  0  0  0
 58 60  1  0  0  0  0
 58 53  1  0  0  0  0
 59 58  1  0  0  0  0
 61 58  1  0  0  0  0
M  END
