1,5
q = -1.0

 25 25  0  0  1  0  0  0  0  0999 V2000
   -1.8436    0.2780    1.3069 N   0  0  0  0  0  0  0  0  0  0  0  0
   -2.9481    0.4241   -1.3776 F   0  0  0  0  0  0  0  0  0  0  0  0
   -4.6036    0.1021    0.0112 F   0  0  0  0  0  0  0  0  0  0  0  0
   -3.8691   -1.5469   -1.1948 F   0  0  0  0  0  0  0  0  0  0  0  0
   -0.1864   -1.1478   -0.3463 C   0  0  0  0  0  3  0  0  0  0  0  0
    0.7979   -1.9386   -0.9665 C   0  0  0  0  0  0  0  0  0  0  0  0
    1.7374   -1.4849   -1.3080 H   0  0  0  0  0  0  0  0  0  0  0  0
    0.5941   -3.3167   -1.1484 C   0  0  0  0  0  0  0  0  0  0  0  0
    1.3800   -3.9187   -1.6312 H   0  0  0  0  0  0  0  0  0  0  0  0
   -0.5929   -3.9295   -0.7157 C   0  0  0  0  0  0  0  0  0  0  0  0
   -0.7428   -5.0113   -0.8494 H   0  0  0  0  0  0  0  0  0  0  0  0
   -1.5926   -3.1505   -0.1177 C   0  0  0  0  0  0  0  0  0  0  0  0
   -2.5371   -3.6154    0.2069 H   0  0  0  0  0  0  0  0  0  0  0  0
   -1.3983   -1.7684    0.0562 C   0  0  0  0  0  0  0  0  0  0  0  0
   -2.4914   -0.8779    0.6110 C   0  0  2  0  0  0  0  0  0  0  0  0
   -3.1360   -1.4368    1.3306 H   0  0  0  0  0  0  0  0  0  0  0  0
   -3.4752   -0.4580   -0.5053 C   0  0  0  0  0  0  0  0  0  0  0  0
   -2.7147    1.4420    1.5710 C   0  0  0  0  0  0  0  0  0  0  0  0
   -3.6005    1.1623    2.1838 H   0  0  0  0  0  0  0  0  0  0  0  0
   -3.0542    1.8957    0.6252 H   0  0  0  0  0  0  0  0  0  0  0  0
   -2.1181    2.1933    2.1204 H   0  0  0  0  0  0  0  0  0  0  0  0
   -1.2919   -0.2116    2.5928 C   0  0  0  0  0  0  0  0  0  0  0  0
   -2.1148   -0.4869    3.2932 H   0  0  0  0  0  0  0  0  0  0  0  0
   -0.6772    0.5847    3.0520 H   0  0  0  0  0  0  0  0  0  0  0  0
   -0.6548   -1.0952    2.4100 H   0  0  0  0  0  0  0  0  0  0  0  0
  1 18  1  0  0  0  0
  1 22  1  0  0  0  0
  2 17  1  0  0  0  0
  4 17  1  0  0  0  0
  5 14  1  0  0  0  0
  6  5  2  0  0  0  0
  7  6  1  0  0  0  0
  8  6  1  0  0  0  0
  8 10  2  0  0  0  0
  9  8  1  0  0  0  0
 10 12  1  0  0  0  0
 11 10  1  0  0  0  0
 12 14  2  0  0  0  0
 12 13  1  0  0  0  0
 14 15  1  0  0  0  0
 15  1  1  0  0  0  0
 15 16  1  1  0  0  0
 17  3  1  0  0  0  0
 17 15  1  0  0  0  0
 18 21  1  0  0  0  0
 18 19  1  0  0  0  0
 20 18  1  0  0  0  0
 22 24  1  0  0  0  0
 22 23  1  0  0  0  0
 25 22  1  0  0  0  0
M  END
