18,23
q = -1.0, confidence = 0.02

 29 29  0  0  0  0  0  0  0  0999 V2000
   -3.8621   -0.7105   -0.4614 C   0  0  0  0  0  0  0  0  0  0  0  0
   -5.0874    0.0191   -0.5886 C   0  0  0  0  0  0  0  0  0  0  0  0
   -6.1083    0.5893   -0.7099 N   0  0  0  0  0  0  0  0  0  0  0  0
   -3.8512   -2.0351   -1.0098 C   0  0  0  0  0  0  0  0  0  0  0  0
   -3.8155   -3.0979   -1.5106 N   0  0  0  0  0  0  0  0  0  0  0  0
   -2.7014   -0.1794    0.1012 C   0  0  0  0  0  0  0  0  0  0  0  0
   -2.6433    1.2234    0.5736 C   0  0  0  0  0  0  0  0  0  0  0  0
   -3.1237    2.2864   -0.2251 C   0  0  0  0  0  0  0  0  0  0  0  0
   -3.5307    2.0773   -1.2245 H   0  0  0  0  0  0  0  0  0  0  0  0
   -3.0665    3.6057    0.2419 C   0  0  0  0  0  0  0  0  0  0  0  0
   -3.4375    4.4243   -0.3932 H   0  0  0  0  0  0  0  0  0  0  0  0
   -2.5463    3.8793    1.5180 C   0  0  0  0  0  0  0  0  0  0  0  0
   -2.5133    4.9145    1.8901 H   0  0  0  0  0  0  0  0  0  0  0  0
   -2.0702    2.8281    2.3173 C   0  0  0  0  0  0  0  0  0  0  0  0
   -1.6630    3.0329    3.3177 H   0  0  0  0  0  0  0  0  0  0  0  0
   -2.1005    1.5086    1.8459 C   0  0  0  0  0  0  0  0  0  0  0  0
   -1.7229    0.6873    2.4722 H   0  0  0  0  0  0  0  0  0  0  0  0
   -1.5027   -1.0146    0.1616 C   0  0  0  0  0  2  0  0  0  0  0  0
   -1.3548   -2.0535    1.0893 C   0  0  0  0  0  0  0  0  0  0  0  0
   -2.2054   -2.2930    2.2052 C   0  0  0  0  0  0  0  0  0  0  0  0
   -2.8997   -2.4461    3.1426 N   0  0  0  0  0  0  0  0  0  0  0  0
   -0.1874   -2.8595    0.8187 C   0  0  0  0  0  0  0  0  0  0  0  0
    0.5008   -2.5042   -0.2444 N   0  0  0  0  0  2  0  0  0  0  0  0
    1.3638   -3.0186   -0.4424 H   0  0  0  0  0  0  0  0  0  0  0  0
    0.1236   -3.8558    1.6677 O   0  0  0  0  0  0  0  0  0  0  0  0
    1.2599   -4.6585    1.3678 C   0  0  0  0  0  0  0  0  0  0  0  0
    1.1410   -5.1759    0.3907 H   0  0  0  0  0  0  0  0  0  0  0  0
    1.3280   -5.4119    2.1723 H   0  0  0  0  0  0  0  0  0  0  0  0
    2.1937   -4.0530    1.3542 H   0  0  0  0  0  0  0  0  0  0  0  0
  1  6  2  0  0  0  0
  2  1  1  0  0  0  0
  3  2  3  0  0  0  0
  4  1  1  0  0  0  0
  5  4  3  0  0  0  0
  6 18  1  0  0  0  0
  6  7  1  0  0  0  0
  7 16  1  0  0  0  0
  8 10  1  0  0  0  0
  8  7  2  0  0  0  0
  9  8  1  0  0  0  0
 10 12  2  0  0  0  0
 11 10  1  0  0  0  0
 12 13  1  0  0  0  0
 12 14  1  0  0  0  0
 14 15  1  0  0  0  0
 16 14  2  0  0  0  0
 16 17  1  0  0  0  0
 18 19  1  0  0  0  0
 19 20  1  0  0  0  0
 20 21  3  0  0  0  0
 22 19  2  0  0  0  0
 22 25  1  0  0  0  0
 23 22  1  0  0  0  0
 24 23  1  0  0  0  0
 26 25  1  0  0  0  0
 26 28  1  0  0  0  0
 27 26  1  0  0  0  0
 29 26  1  0  0  0  0
M  END
