1,13
q = 0.0, confidence = 0.986

 17 16  0  0  1  0  0  0  0  0999 V2000
    1.1751    0.7575    0.4702 N   0  0  0  0  0  0  0  0  0  0  0  0
    1.3608    1.5148   -0.2143 H   0  0  0  0  0  0  0  0  0  0  0  0
    1.2273    1.2180    1.3909 H   0  0  0  0  0  0  0  0  0  0  0  0
    2.2097   -0.2977    0.3329 C   0  0  2  0  0  0  0  0  0  0  0  0
    2.3385   -0.7959    1.3152 H   0  0  0  0  0  0  0  0  0  0  0  0
    3.5390    0.3328   -0.0666 C   0  0  0  0  0  0  0  0  0  0  0  0
    3.6561    1.4849   -0.4369 O   0  0  0  0  0  0  0  0  0  0  0  0
    4.5503   -0.5520    0.0092 O   0  0  0  0  0  0  0  0  0  0  0  0
    5.3580   -0.0848   -0.3005 H   0  0  0  0  0  0  0  0  0  0  0  0
    1.7315   -1.3351   -0.7012 C   0  0  0  0  0  0  0  0  0  0  0  0
    1.7918   -0.8893   -1.7165 H   0  0  0  0  0  0  0  0  0  0  0  0
    2.4165   -2.2099   -0.6919 H   0  0  0  0  0  0  0  0  0  0  0  0
    0.2949   -1.7492   -0.4310 C   0  0  0  0  0  3  0  0  0  0  0  0
   -0.2177   -2.2531   -1.2686 H   0  0  0  0  0  0  0  0  0  0  0  0
   -0.2451   -1.9038    0.8747 C   0  0  0  0  0  3  0  0  0  0  0  0
    0.3767   -1.7989    1.7806 H   0  0  0  0  0  0  0  0  0  0  0  0
   -1.1651   -2.4957    1.0014 H   0  0  0  0  0  0  0  0  0  0  0  0
  1  3  1  0  0  0  0
  2  1  1  0  0  0  0
  4  1  1  0  0  0  0
  4  5  1  1  0  0  0
  6  8  1  0  0  0  0
  6  4  1  0  0  0  0
  7  6  2  0  0  0  0
  9  8  1  0  0  0  0
 10 12  1  0  0  0  0
 10 13  1  0  0  0  0
 10  4  1  0  0  0  0
 11 10  1  0  0  0  0
 13 15  1  0  0  0  0
 14 13  1  0  0  0  0
 15 17  1  0  0  0  0
 15 16  1  0  0  0  0
M  END
