1,2
q = -1.0

 21 20  0  0  1  0  0  0  0  0999 V2000
   -2.5824    0.5983   -1.3975 N   0  0  0  0  0  0  0  0  0  0  0  0
   -1.3674   -1.0750   -2.5951 C   0  0  0  0  0  3  0  0  0  0  0  0
   -2.7279   -0.3693   -2.5693 C   0  0  2  0  0  0  0  0  0  0  0  0
   -3.0706    0.3838   -3.8491 C   0  0  0  0  0  0  0  0  0  0  0  0
   -3.5946    0.4595   -0.3117 C   0  0  0  0  0  0  0  0  0  0  0  0
   -3.1837    1.2323    0.9380 C   0  0  0  0  0  0  0  0  0  0  0  0
   -4.9852    0.8742   -0.8069 C   0  0  0  0  0  0  0  0  0  0  0  0
   -1.4025   -2.1423   -2.2990 H   0  0  0  0  0  0  0  0  0  0  0  0
   -0.8832   -1.0003   -3.5874 H   0  0  0  0  0  0  0  0  0  0  0  0
   -3.5674   -1.0563   -2.3189 H   0  0  0  0  0  0  0  0  0  0  0  0
   -2.6328    1.5648   -1.7503 H   0  0  0  0  0  0  0  0  0  0  0  0
   -3.6115   -0.6172   -0.0595 H   0  0  0  0  0  0  0  0  0  0  0  0
   -2.1851    0.9142    1.2883 H   0  0  0  0  0  0  0  0  0  0  0  0
   -3.9193    1.0562    1.7475 H   0  0  0  0  0  0  0  0  0  0  0  0
   -3.1544    2.3249    0.7470 H   0  0  0  0  0  0  0  0  0  0  0  0
   -5.3082    0.2875   -1.6897 H   0  0  0  0  0  0  0  0  0  0  0  0
   -5.0003    1.9503   -1.0832 H   0  0  0  0  0  0  0  0  0  0  0  0
   -5.7408    0.7246   -0.0104 H   0  0  0  0  0  0  0  0  0  0  0  0
   -4.0161    0.9585   -3.7608 H   0  0  0  0  0  0  0  0  0  0  0  0
   -3.1777   -0.3269   -4.6920 H   0  0  0  0  0  0  0  0  0  0  0  0
   -2.2502    1.0869   -4.1067 H   0  0  0  0  0  0  0  0  0  0  0  0
  1  5  1  0  0  0  0
  2  3  1  0  0  0  0
  2  8  1  0  0  0  0
  3 10  1  1  0  0  0
  3  1  1  0  0  0  0
  4 19  1  0  0  0  0
  4  3  1  0  0  0  0
  5 12  1  0  0  0  0
  5  6  1  0  0  0  0
  6 13  1  0  0  0  0
  6 14  1  0  0  0  0
  7  5  1  0  0  0  0
  7 18  1  0  0  0  0
  9  2  1  0  0  0  0
 11  1  1  0  0  0  0
 15  6  1  0  0  0  0
 16  7  1  0  0  0  0
 17  7  1  0  0  0  0
 20  4  1  0  0  0  0
 21  4  1  0  0  0  0
M  END
