1,4
q = -1.0

 40 42  0  0  1  0  0  0  0  0999 V2000
   -0.6716    1.7904   -0.0200 N   0  0  0  0  0  2  0  0  0  0  0  0
    1.6719   -0.1188    1.8285 C   0  0  0  0  0  0  0  0  0  0  0  0
    1.4259    0.5125    2.6874 H   0  0  0  0  0  0  0  0  0  0  0  0
    1.5354   -1.5315    1.7996 C   0  0  0  0  0  3  0  0  0  0  0  0
    1.2062   -2.1658    2.6297 H   0  0  0  0  0  0  0  0  0  0  0  0
    1.9938   -1.9849    0.5131 C   0  0  0  0  0  0  0  0  0  0  0  0
    2.1408   -3.2913   -0.0353 C   0  0  0  0  0  0  0  0  0  0  0  0
    1.8490   -4.1684    0.5586 H   0  0  0  0  0  0  0  0  0  0  0  0
    2.6613   -3.4247   -1.3116 C   0  0  0  0  0  0  0  0  0  0  0  0
    2.7947   -4.4271   -1.7455 H   0  0  0  0  0  0  0  0  0  0  0  0
    3.0234   -2.2796   -2.0797 C   0  0  0  0  0  0  0  0  0  0  0  0
    3.4310   -2.4203   -3.0920 H   0  0  0  0  0  0  0  0  0  0  0  0
    2.8595   -0.9954   -1.5848 C   0  0  0  0  0  0  0  0  0  0  0  0
    3.1258   -0.1328   -2.2094 H   0  0  0  0  0  0  0  0  0  0  0  0
    2.3389   -0.8179   -0.2701 C   0  0  0  0  0  0  0  0  0  0  0  0
    2.0754    0.3558    0.5464 C   0  0  0  0  0  0  0  0  0  0  0  0
    2.3991    1.7909    0.1744 C   0  0  2  0  0  0  0  0  0  0  0  0
    1.5389    2.2121   -1.0618 C   0  0  0  0  0  0  0  0  0  0  0  0
    2.0343    3.0603   -1.5749 H   0  0  0  0  0  0  0  0  0  0  0  0
    1.4922    1.3689   -1.7819 H   0  0  0  0  0  0  0  0  0  0  0  0
    0.1416    2.6343   -0.7152 C   0  0  2  0  0  3  0  0  0  0  0  0
   -0.2907    3.9317   -1.0609 C   0  0  0  0  0  0  0  0  0  0  0  0
    0.3926    4.5808   -1.6268 H   0  0  0  0  0  0  0  0  0  0  0  0
   -1.5564    4.3845   -0.6822 C   0  0  0  0  0  0  0  0  0  0  0  0
   -1.8977    5.3942   -0.9568 H   0  0  0  0  0  0  0  0  0  0  0  0
   -2.3636    3.5274    0.0760 C   0  0  0  0  0  0  0  0  0  0  0  0
   -3.3569    3.8311    0.4355 H   0  0  0  0  0  0  0  0  0  0  0  0
   -1.8785    2.2544    0.3842 C   0  0  0  0  0  0  0  0  0  0  0  0
   -2.4669    1.5597    0.9973 H   0  0  0  0  0  0  0  0  0  0  0  0
    3.8990    1.9079   -0.2414 C   0  0  0  0  0  0  0  0  0  0  0  0
    4.0357    1.4431   -1.2389 H   0  0  0  0  0  0  0  0  0  0  0  0
    4.1174    2.9895   -0.3822 H   0  0  0  0  0  0  0  0  0  0  0  0
    4.9003    1.2934    0.7348 C   0  0  0  0  0  0  0  0  0  0  0  0
    4.8243    1.7374    1.7479 H   0  0  0  0  0  0  0  0  0  0  0  0
    5.9385    1.4542    0.3817 H   0  0  0  0  0  0  0  0  0  0  0  0
    4.7450    0.2004    0.8352 H   0  0  0  0  0  0  0  0  0  0  0  0
    2.1370    2.7448    1.3541 C   0  0  0  0  0  0  0  0  0  0  0  0
    1.1038    2.6565    1.7409 H   0  0  0  0  0  0  0  0  0  0  0  0
    2.2940    3.7962    1.0383 H   0  0  0  0  0  0  0  0  0  0  0  0
    2.8254    2.5368    2.1957 H   0  0  0  0  0  0  0  0  0  0  0  0
  1 28  1  0  0  0  0
  2  3  1  0  0  0  0
  4  2  1  0  0  0  0
  4  5  1  0  0  0  0
  6  4  1  0  0  0  0
  7  6  1  0  0  0  0
  7  8  1  0  0  0  0
  9  7  2  0  0  0  0
 10  9  1  0  0  0  0
 11 13  2  0  0  0  0
 11  9  1  0  0  0  0
 12 11  1  0  0  0  0
 13 15  1  0  0  0  0
 14 13  1  0  0  0  0
 15  6  2  0  0  0  0
 15 16  1  0  0  0  0
 16  2  2  0  0  0  0
 17 18  1  6  0  0  0
 17 16  1  0  0  0  0
 17 37  1  0  0  0  0
 19 18  1  0  0  0  0
 20 18  1  0  0  0  0
 21 18  1  1  0  0  0
 21  1  1  0  0  0  0
 22 21  1  0  0  0  0
 22 24  2  0  0  0  0
 23 22  1  0  0  0  0
 24 26  1  0  0  0  0
 25 24  1  0  0  0  0
 26 28  2  0  0  0  0
 26 27  1  0  0  0  0
 28 29  1  0  0  0  0
 30 17  1  0  0  0  0
 30 33  1  0  0  0  0
 31 30  1  0  0  0  0
 32 30  1  0  0  0  0
 33 36  1  0  0  0  0
 33 34  1  0  0  0  0
 35 33  1  0  0  0  0
 37 38  1  0  0  0  0
 37 40  1  0  0  0  0
 39 37  1  0  0  0  0
M  END
