6,11
q = -1.0

 22 24  0  0  0  0  0  0  0  0999 V2000
   -1.7046    3.4430    0.0510 O   0  0  0  0  0  0  0  0  0  0  0  0
    0.5271    3.1549    0.0273 C   0  0  0  0  0  0  0  0  0  0  0  0
    1.5885    3.4271    0.0256 H   0  0  0  0  0  0  0  0  0  0  0  0
   -2.2504   -0.2038    0.0074 C   0  0  0  0  0  0  0  0  0  0  0  0
   -2.7642   -2.3748   -0.0422 N   0  0  0  0  0  0  0  0  0  0  0  0
   -1.0640   -0.9082    0.0041 N   0  0  0  0  0  2  0  0  0  0  0  0
   -2.5491    1.1768    0.0175 C   0  0  0  0  0  0  0  0  0  0  0  0
   -1.4524    2.1026    0.0243 C   0  0  0  0  0  0  0  0  0  0  0  0
   -0.5056    4.0689    0.0528 C   0  0  0  0  0  3  0  0  0  0  0  0
   -0.5358    5.1638    0.0746 H   0  0  0  0  0  0  0  0  0  0  0  0
   -0.0714    1.8456    0.0085 C   0  0  0  0  0  3  0  0  0  0  0  0
   -3.8478    1.5387    0.0158 N   0  0  0  0  0  0  0  0  0  0  0  0
   -4.7915    0.5775   -0.0015 C   0  0  0  0  0  0  0  0  0  0  0  0
   -5.8376    0.9287    0.0004 H   0  0  0  0  0  0  0  0  0  0  0  0
   -4.6179   -0.7620   -0.0239 N   0  0  0  0  0  2  0  0  0  0  0  0
   -3.3317   -1.0978   -0.0191 C   0  0  0  0  0  0  0  0  0  0  0  0
   -1.4149   -2.2096   -0.0279 C   0  0  0  0  0  3  0  0  0  0  0  0
   -0.7206   -3.0573   -0.0432 H   0  0  0  0  0  0  0  0  0  0  0  0
   -3.5200   -3.6231   -0.0752 C   0  0  0  0  0  0  0  0  0  0  0  0
   -3.2807   -4.1986   -0.9895 H   0  0  0  0  0  0  0  0  0  0  0  0
   -4.5915   -3.3504   -0.0835 H   0  0  0  0  0  0  0  0  0  0  0  0
   -3.3036   -4.2330    0.8223 H   0  0  0  0  0  0  0  0  0  0  0  0
  1  9  1  0  0  0  0
  2  9  1  0  0  0  0
  3  2  1  0  0  0  0
  4  7  1  0  0  0  0
  5 17  1  0  0  0  0
  5 16  1  0  0  0  0
  6  4  1  0  0  0  0
  7  8  2  0  0  0  0
  8  1  1  0  0  0  0
  9 10  1  0  0  0  0
 11  8  1  0  0  0  0
 11  2  2  0  0  0  0
 12  7  1  0  0  0  0
 13 14  1  0  0  0  0
 13 12  2  0  0  0  0
 15 16  1  0  0  0  0
 15 13  1  0  0  0  0
 16  4  2  0  0  0  0
 17  6  1  0  0  0  0
 18 17  1  0  0  0  0
 19  5  1  0  0  0  0
 19 22  1  0  0  0  0
 20 19  1  0  0  0  0
 21 19  1  0  0  0  0
M  END
