1,24
q = -1.0, confidence = 0.0

 53 54  0  0  0  0  0  0  0  0999 V2000
    2.8815   -0.0265   -0.9374 N   0  0  0  0  0  0  0  0  0  0  0  0
   -1.0037    1.2242   -0.6446 N   0  0  0  0  0  2  0  0  0  0  0  0
    4.0201    0.0331    0.0038 C   0  0  0  0  0  0  0  0  0  0  0  0
    3.8342    0.8163    0.7622 H   0  0  0  0  0  0  0  0  0  0  0  0
    4.9626    0.2754   -0.5419 H   0  0  0  0  0  0  0  0  0  0  0  0
    4.1151   -0.9484    0.5030 H   0  0  0  0  0  0  0  0  0  0  0  0
    3.1330   -1.0641   -1.9552 C   0  0  0  0  0  0  0  0  0  0  0  0
    2.2951   -1.0868   -2.6763 H   0  0  0  0  0  0  0  0  0  0  0  0
    3.2021   -2.0438   -1.4471 H   0  0  0  0  0  0  0  0  0  0  0  0
    4.0761   -0.8484   -2.5089 H   0  0  0  0  0  0  0  0  0  0  0  0
    2.6791    1.2885   -1.5991 C   0  0  0  0  0  0  0  0  0  0  0  0
    3.6146    1.5809   -2.1314 H   0  0  0  0  0  0  0  0  0  0  0  0
    1.8918    1.1420   -2.3667 H   0  0  0  0  0  0  0  0  0  0  0  0
    2.2703    2.3737   -0.6378 C   0  0  0  0  0  0  0  0  0  0  0  0
    3.0736    3.5050   -0.4210 C   0  0  0  0  0  0  0  0  0  0  0  0
    4.0324    3.5912   -0.9570 H   0  0  0  0  0  0  0  0  0  0  0  0
    2.6668    4.5211    0.4586 C   0  0  0  0  0  0  0  0  0  0  0  0
    3.3112    5.3975    0.6236 H   0  0  0  0  0  0  0  0  0  0  0  0
    1.4337    4.4129    1.1196 C   0  0  0  0  0  0  0  0  0  0  0  0
    1.1007    5.2093    1.8027 H   0  0  0  0  0  0  0  0  0  0  0  0
    0.6173    3.2937    0.9025 C   0  0  0  0  0  0  0  0  0  0  0  0
   -0.3584    3.2075    1.4039 H   0  0  0  0  0  0  0  0  0  0  0  0
    1.0289    2.2607    0.0356 C   0  0  0  0  0  0  0  0  0  0  0  0
    0.1689    1.0559   -0.1484 C   0  0  0  0  0  2  0  0  0  0  0  0
   -2.0338    0.2995   -0.8371 C   0  0  0  0  0  0  0  0  0  0  0  0
   -3.3021    0.6501   -0.2739 C   0  0  0  0  0  0  0  0  0  0  0  0
   -4.3806   -0.2362   -0.4245 C   0  0  0  0  0  0  0  0  0  0  0  0
   -5.3505    0.0099    0.0312 H   0  0  0  0  0  0  0  0  0  0  0  0
   -4.2472   -1.4193   -1.1643 C   0  0  0  0  0  0  0  0  0  0  0  0
   -5.1016   -2.1037   -1.2746 H   0  0  0  0  0  0  0  0  0  0  0  0
   -3.0253   -1.7143   -1.7812 C   0  0  0  0  0  0  0  0  0  0  0  0
   -2.9366   -2.6284   -2.3849 H   0  0  0  0  0  0  0  0  0  0  0  0
   -1.9017   -0.8791   -1.6354 C   0  0  0  0  0  0  0  0  0  0  0  0
   -3.4775    2.0072    0.4027 C   0  0  0  0  0  0  0  0  0  0  0  0
   -2.5228    2.2464    0.9166 H   0  0  0  0  0  0  0  0  0  0  0  0
   -3.6700    3.0952   -0.6712 C   0  0  0  0  0  0  0  0  0  0  0  0
   -2.8086    3.1063   -1.3666 H   0  0  0  0  0  0  0  0  0  0  0  0
   -3.7539    4.0992   -0.2056 H   0  0  0  0  0  0  0  0  0  0  0  0
   -4.5937    2.9077   -1.2566 H   0  0  0  0  0  0  0  0  0  0  0  0
   -4.5970    2.0492    1.4481 C   0  0  0  0  0  0  0  0  0  0  0  0
   -4.5964    3.0264    1.9719 H   0  0  0  0  0  0  0  0  0  0  0  0
   -4.4819    1.2514    2.2104 H   0  0  0  0  0  0  0  0  0  0  0  0
   -5.5995    1.9318    0.9872 H   0  0  0  0  0  0  0  0  0  0  0  0
   -0.6095   -1.1779   -2.3815 C   0  0  0  0  0  0  0  0  0  0  0  0
    0.2193   -0.9173   -1.6801 H   0  0  0  0  0  0  0  0  0  0  0  0
   -0.4878   -0.2642   -3.6139 C   0  0  0  0  0  0  0  0  0  0  0  0
   -0.5626    0.8046   -3.3292 H   0  0  0  0  0  0  0  0  0  0  0  0
   -1.2989   -0.4772   -4.3410 H   0  0  0  0  0  0  0  0  0  0  0  0
    0.4805   -0.4199   -4.1353 H   0  0  0  0  0  0  0  0  0  0  0  0
   -0.4123   -2.6524   -2.7426 C   0  0  0  0  0  0  0  0  0  0  0  0
    0.5965   -2.8074   -3.1761 H   0  0  0  0  0  0  0  0  0  0  0  0
   -1.1446   -3.0032   -3.4991 H   0  0  0  0  0  0  0  0  0  0  0  0
   -0.4955   -3.3043   -1.8497 H   0  0  0  0  0  0  0  0  0  0  0  0
  1  3  1  0  0  0  0
  2 24  1  0  0  0  0
  3  6  1  0  0  0  0
  3  4  1  0  0  0  0
  5  3  1  0  0  0  0
  7  9  1  0  0  0  0
  7  1  1  0  0  0  0
  8  7  1  0  0  0  0
 10  7  1  0  0  0  0
 11  1  1  0  0  0  0
 11 14  1  0  0  0  0
 12 11  1  0  0  0  0
 13 11  1  0  0  0  0
 14 15  2  0  0  0  0
 14 23  1  0  0  0  0
 15 17  1  0  0  0  0
 16 15  1  0  0  0  0
 17 18  1  0  0  0  0
 17 19  2  0  0  0  0
 19 20  1  0  0  0  0
 21 19  1  0  0  0  0
 21 22  1  0  0  0  0
 23 21  2  0  0  0  0
 24 23  1  0  0  0  0
 25  2  1  0  0  0  0
 25 26  1  0  0  0  0
 26 34  1  0  0  0  0
 27 26  2  0  0  0  0
 27 28  1  0  0  0  0
 29 27  1  0  0  0  0
 30 29  1  0  0  0  0
 31 33  1  0  0  0  0
 31 29  2  0  0  0  0
 32 31  1  0  0  0  0
 33 25  2  0  0  0  0
 34 35  1  0  0  0  0
 34 40  1  0  0  0  0
 36 38  1  0  0  0  0
 36 34  1  0  0  0  0
 37 36  1  0  0  0  0
 39 36  1  0  0  0  0
 40 41  1  0  0  0  0
 40 42  1  0  0  0  0
 43 40  1  0  0  0  0
 44 45  1  0  0  0  0
 44 33  1  0  0  0  0
 46 47  1  0  0  0  0
 46 44  1  0  0  0  0
 48 46  1  0  0  0  0
 49 46  1  0  0  0  0
 50 44  1  0  0  0  0
 50 53  1  0  0  0  0
 51 50  1  0  0  0  0
 52 50  1  0  0  0  0
M  END
