1,19
q = -1.0, confidence = 0.0

 38 43  0  0  0  0  0  0  0  0999 V2000
   -1.8438   -1.0460   -0.0268 N   0  0  0  0  0  2  0  0  0  0  0  0
    2.5933   -1.6599    0.0690 N   0  0  0  0  0  0  0  0  0  0  0  0
   -3.2073   -1.2595   -0.1205 C   0  0  0  0  0  0  0  0  0  0  0  0
   -4.1135   -0.1799   -0.3097 C   0  0  0  0  0  0  0  0  0  0  0  0
   -3.7149    0.8406   -0.3529 H   0  0  0  0  0  0  0  0  0  0  0  0
   -5.4806   -0.4096   -0.4110 C   0  0  0  0  0  0  0  0  0  0  0  0
   -6.1550    0.4484   -0.5581 H   0  0  0  0  0  0  0  0  0  0  0  0
   -6.0199   -1.7165   -0.3285 C   0  0  0  0  0  0  0  0  0  0  0  0
   -7.1052   -1.8769   -0.4099 H   0  0  0  0  0  0  0  0  0  0  0  0
   -5.1607   -2.7904   -0.1459 C   0  0  0  0  0  0  0  0  0  0  0  0
   -5.5483   -3.8192   -0.0817 H   0  0  0  0  0  0  0  0  0  0  0  0
   -3.7569   -2.5944   -0.0429 C   0  0  0  0  0  0  0  0  0  0  0  0
   -2.8614   -3.6882    0.1282 C   0  0  0  0  0  0  0  0  0  0  0  0
   -3.2654   -4.7101    0.1988 H   0  0  0  0  0  0  0  0  0  0  0  0
   -1.5088   -3.4548    0.1913 C   0  0  0  0  0  0  0  0  0  0  0  0
   -0.7942   -4.2786    0.3099 H   0  0  0  0  0  0  0  0  0  0  0  0
   -1.0073   -2.1205    0.0997 C   0  0  0  0  0  0  0  0  0  0  0  0
    0.3856   -1.8011    0.1093 C   0  0  0  0  0  0  0  0  0  0  0  0
    0.7408   -0.4128   -0.0161 C   0  0  0  0  0  2  0  0  0  0  0  0
    2.1578   -0.3460   -0.0470 C   0  0  0  0  0  0  0  0  0  0  0  0
    3.3803    0.4218   -0.1611 C   0  0  0  0  0  0  0  0  0  0  0  0
    3.6324    1.7974   -0.3272 C   0  0  0  0  0  0  0  0  0  0  0  0
    2.7825    2.4861   -0.3844 H   0  0  0  0  0  0  0  0  0  0  0  0
    4.9565    2.2381   -0.4129 C   0  0  0  0  0  0  0  0  0  0  0  0
    5.1597    3.3125   -0.5427 H   0  0  0  0  0  0  0  0  0  0  0  0
    6.0437    1.3345   -0.3379 C   0  0  0  0  0  0  0  0  0  0  0  0
    7.0736    1.7155   -0.4079 H   0  0  0  0  0  0  0  0  0  0  0  0
    5.8205   -0.0371   -0.1804 C   0  0  0  0  0  0  0  0  0  0  0  0
    6.6647   -0.7415   -0.1277 H   0  0  0  0  0  0  0  0  0  0  0  0
    4.4958   -0.5032   -0.0938 C   0  0  0  0  0  0  0  0  0  0  0  0
    3.9555   -1.8445    0.0539 C   0  0  0  0  0  0  0  0  0  0  0  0
    4.3923   -3.1676    0.1674 C   0  0  0  0  0  0  0  0  0  0  0  0
    5.4643   -3.4057    0.1667 H   0  0  0  0  0  0  0  0  0  0  0  0
    3.4178   -4.1893    0.2799 C   0  0  0  0  0  0  0  0  0  0  0  0
    3.7553   -5.2324    0.3689 H   0  0  0  0  0  0  0  0  0  0  0  0
    2.0320   -3.9287    0.2795 C   0  0  0  0  0  0  0  0  0  0  0  0
    1.3197   -4.7595    0.3648 H   0  0  0  0  0  0  0  0  0  0  0  0
    1.5812   -2.5989    0.1680 C   0  0  0  0  0  0  0  0  0  0  0  0
  1 17  1  0  0  0  0
  2 38  1  0  0  0  0
  3 12  1  0  0  0  0
  3  1  1  0  0  0  0
  4  3  2  0  0  0  0
  5  4  1  0  0  0  0
  6  8  2  0  0  0  0
  6  4  1  0  0  0  0
  7  6  1  0  0  0  0
  8 10  1  0  0  0  0
  9  8  1  0  0  0  0
 10 11  1  0  0  0  0
 10 12  2  0  0  0  0
 12 13  1  0  0  0  0
 13 15  2  0  0  0  0
 13 14  1  0  0  0  0
 15 16  1  0  0  0  0
 17 18  2  0  0  0  0
 17 15  1  0  0  0  0
 18 38  1  0  0  0  0
 19 18  1  0  0  0  0
 20 19  1  0  0  0  0
 20  2  1  0  0  0  0
 21 30  1  0  0  0  0
 21 20  2  0  0  0  0
 22 21  1  0  0  0  0
 23 22  1  0  0  0  0
 24 26  1  0  0  0  0
 24 22  2  0  0  0  0
 25 24  1  0  0  0  0
 26 28  2  0  0  0  0
 27 26  1  0  0  0  0
 28 29  1  0  0  0  0
 28 30  1  0  0  0  0
 30 31  2  0  0  0  0
 31  2  1  0  0  0  0
 31 32  1  0  0  0  0
 32 34  2  0  0  0  0
 33 32  1  0  0  0  0
 34 35  1  0  0  0  0
 36 34  1  0  0  0  0
 36 37  1  0  0  0  0
 38 36  2  0  0  0  0
M  END
