3,5
q = 0.0, confidence = 0.99

 30 32  0  0  1  0  0  0  0  0999 V2000
    0.6342    1.8137   -0.3816 N   0  0  0  0  0  0  0  0  0  0  0  0
   -1.2551    1.0170   -1.0709 N   0  0  0  0  0  0  0  0  0  0  0  0
    2.3971    0.4939    0.2636 N   0  0  0  0  0  2  0  0  0  0  0  0
    2.6130    2.8847    0.3332 N   0  0  0  0  0  0  0  0  0  0  0  0
   -0.0377    0.6181   -0.6249 C   0  0  0  0  0  2  0  0  0  0  0  0
   -1.3495    2.4125   -1.0924 C   0  0  0  0  0  0  0  0  0  0  0  0
   -2.2679    2.9174   -1.4057 H   0  0  0  0  0  0  0  0  0  0  0  0
   -0.1572    2.9233   -0.6637 C   0  0  0  0  0  0  0  0  0  0  0  0
    0.2139    3.9428   -0.5318 H   0  0  0  0  0  0  0  0  0  0  0  0
    1.9441    1.7655    0.0935 C   0  0  2  0  0  3  0  0  0  0  0  0
    3.8683    2.7328    0.7925 C   0  0  0  0  0  0  0  0  0  0  0  0
    4.4323    3.6590    0.9943 H   0  0  0  0  0  0  0  0  0  0  0  0
    4.4400    1.4693    1.0076 C   0  0  0  0  0  0  0  0  0  0  0  0
    5.4657    1.3570    1.3841 H   0  0  0  0  0  0  0  0  0  0  0  0
    3.6560    0.3442    0.7259 C   0  0  0  0  0  0  0  0  0  0  0  0
    3.9694   -0.7100    0.8483 H   0  0  0  0  0  0  0  0  0  0  0  0
   -2.3846    0.1309   -1.4078 C   0  0  0  0  0  0  0  0  0  0  0  0
   -1.9488   -0.8787   -1.5563 H   0  0  0  0  0  0  0  0  0  0  0  0
   -2.8150    0.4973   -2.3605 H   0  0  0  0  0  0  0  0  0  0  0  0
   -3.4242    0.1152   -0.3086 C   0  0  0  0  0  0  0  0  0  0  0  0
   -4.5743    0.9236   -0.3869 C   0  0  0  0  0  0  0  0  0  0  0  0
   -4.7461    1.5439   -1.2822 H   0  0  0  0  0  0  0  0  0  0  0  0
   -5.5110    0.9329    0.6584 C   0  0  0  0  0  0  0  0  0  0  0  0
   -6.4096    1.5643    0.5852 H   0  0  0  0  0  0  0  0  0  0  0  0
   -5.3019    0.1317    1.7915 C   0  0  0  0  0  0  0  0  0  0  0  0
   -6.0358    0.1361    2.6119 H   0  0  0  0  0  0  0  0  0  0  0  0
   -4.1606   -0.6839    1.8712 C   0  0  0  0  0  0  0  0  0  0  0  0
   -4.0016   -1.3247    2.7518 H   0  0  0  0  0  0  0  0  0  0  0  0
   -3.2245   -0.6960    0.8275 C   0  0  0  0  0  0  0  0  0  0  0  0
   -2.3393   -1.3518    0.8661 H   0  0  0  0  0  0  0  0  0  0  0  0
  2  5  1  0  0  0  0
  3 15  1  0  0  0  0
  4 11  2  0  0  0  0
  5  1  1  0  0  0  0
  6  2  1  0  0  0  0
  6  8  2  0  0  0  0
  7  6  1  0  0  0  0
  8  9  1  0  0  0  0
  8  1  1  0  0  0  0
 10  1  1  1  0  0  0
 10  3  1  0  0  0  0
 10  4  1  0  0  0  0
 11 12  1  0  0  0  0
 11 13  1  0  0  0  0
 13 14  1  0  0  0  0
 15 16  1  0  0  0  0
 15 13  2  0  0  0  0
 17  2  1  0  0  0  0
 17 20  1  0  0  0  0
 18 17  1  0  0  0  0
 19 17  1  0  0  0  0
 20 29  1  0  0  0  0
 21 20  2  0  0  0  0
 21 23  1  0  0  0  0
 22 21  1  0  0  0  0
 23 25  2  0  0  0  0
 24 23  1  0  0  0  0
 25 27  1  0  0  0  0
 25 26  1  0  0  0  0
 27 28  1  0  0  0  0
 29 30  1  0  0  0  0
 29 27  2  0  0  0  0
M  END
