1,16
q = 0.0, confidence = 0.998

 58 62  0  0  1  0  0  0  0  0999 V2000
    1.4401    0.7198    0.1267 N   0  0  0  0  0  2  0  0  0  0  0  0
    2.3670   -0.2539    0.3262 N   0  0  0  0  0  0  0  0  0  0  0  0
    0.8730   -2.0892    0.5225 N   0  0  0  0  0  0  0  0  0  0  0  0
   -1.0719   -2.3680   -0.3716 N   0  0  0  0  0  0  0  0  0  0  0  0
    2.0090    1.6367   -0.6955 C   0  0  1  0  0  3  0  0  0  0  0  0
    3.3435    1.2409   -0.9784 C   0  0  0  0  0  0  0  0  0  0  0  0
    4.0529    1.7422   -1.6433 H   0  0  0  0  0  0  0  0  0  0  0  0
    3.5435    0.0174   -0.3375 C   0  0  0  0  0  0  0  0  0  0  0  0
    1.9889   -1.3882    1.1408 C   0  0  0  0  0  0  0  0  0  0  0  0
    1.6657   -1.0217    2.1367 H   0  0  0  0  0  0  0  0  0  0  0  0
    2.8582   -2.0609    1.2419 H   0  0  0  0  0  0  0  0  0  0  0  0
    0.8686   -3.3814    0.0075 C   0  0  0  0  0  0  0  0  0  0  0  0
    1.7197   -4.0624    0.1035 H   0  0  0  0  0  0  0  0  0  0  0  0
   -0.3670   -3.5581   -0.5550 C   0  0  0  0  0  0  0  0  0  0  0  0
   -0.8100   -4.4166   -1.0680 H   0  0  0  0  0  0  0  0  0  0  0  0
   -0.3190   -1.4384    0.2965 C   0  0  0  0  0  2  0  0  0  0  0  0
    1.2709    2.7831   -1.2431 C   0  0  0  0  0  0  0  0  0  0  0  0
   -0.1135    2.6920   -1.5150 C   0  0  0  0  0  0  0  0  0  0  0  0
   -0.6441    1.7495   -1.2953 H   0  0  0  0  0  0  0  0  0  0  0  0
   -0.8090    3.7875   -2.0403 C   0  0  0  0  0  0  0  0  0  0  0  0
   -1.8868    3.7027   -2.2464 H   0  0  0  0  0  0  0  0  0  0  0  0
   -0.1304    4.9861   -2.3161 C   0  0  0  0  0  0  0  0  0  0  0  0
   -0.6754    5.8459   -2.7334 H   0  0  0  0  0  0  0  0  0  0  0  0
    1.2482    5.0821   -2.0641 C   0  0  0  0  0  0  0  0  0  0  0  0
    1.7831    6.0195   -2.2765 H   0  0  0  0  0  0  0  0  0  0  0  0
    1.9463    3.9891   -1.5340 C   0  0  0  0  0  0  0  0  0  0  0  0
    3.0218    4.0772   -1.3189 H   0  0  0  0  0  0  0  0  0  0  0  0
    4.7103   -0.8802   -0.3316 C   0  0  0  0  0  0  0  0  0  0  0  0
    5.9815   -0.3734    0.0166 C   0  0  0  0  0  0  0  0  0  0  0  0
    6.0797    0.6824    0.3100 H   0  0  0  0  0  0  0  0  0  0  0  0
    7.1038   -1.2125    0.0043 C   0  0  0  0  0  0  0  0  0  0  0  0
    8.0889   -0.8090    0.2819 H   0  0  0  0  0  0  0  0  0  0  0  0
    6.9728   -2.5633   -0.3555 C   0  0  0  0  0  0  0  0  0  0  0  0
    7.8557   -3.2196   -0.3637 H   0  0  0  0  0  0  0  0  0  0  0  0
    5.7154   -3.0731   -0.7171 C   0  0  0  0  0  0  0  0  0  0  0  0
    5.6148   -4.1248   -1.0245 H   0  0  0  0  0  0  0  0  0  0  0  0
    4.5899   -2.2378   -0.7107 C   0  0  0  0  0  0  0  0  0  0  0  0
    3.6165   -2.6265   -1.0486 H   0  0  0  0  0  0  0  0  0  0  0  0
   -2.4017   -2.1377   -0.8731 C   0  0  0  0  0  0  0  0  0  0  0  0
   -2.5486   -1.3619   -2.0469 C   0  0  0  0  0  0  0  0  0  0  0  0
   -1.3460   -0.8550   -2.7992 C   0  0  0  0  0  0  0  0  0  0  0  0
   -0.7085   -0.2059   -2.1651 H   0  0  0  0  0  0  0  0  0  0  0  0
   -1.6482   -0.2737   -3.6896 H   0  0  0  0  0  0  0  0  0  0  0  0
   -0.7019   -1.6923   -3.1403 H   0  0  0  0  0  0  0  0  0  0  0  0
   -3.8545   -1.0907   -2.4849 C   0  0  0  0  0  0  0  0  0  0  0  0
   -3.9914   -0.4810   -3.3920 H   0  0  0  0  0  0  0  0  0  0  0  0
   -4.9885   -1.5803   -1.8043 C   0  0  0  0  0  0  0  0  0  0  0  0
   -6.3748   -1.2877   -2.3156 C   0  0  0  0  0  0  0  0  0  0  0  0
   -6.6273   -1.9563   -3.1660 H   0  0  0  0  0  0  0  0  0  0  0  0
   -6.4606   -0.2479   -2.6883 H   0  0  0  0  0  0  0  0  0  0  0  0
   -7.1428   -1.4432   -1.5342 H   0  0  0  0  0  0  0  0  0  0  0  0
   -4.7888   -2.3722   -0.6592 C   0  0  0  0  0  0  0  0  0  0  0  0
   -5.6635   -2.7657   -0.1178 H   0  0  0  0  0  0  0  0  0  0  0  0
   -3.5029   -2.6732   -0.1719 C   0  0  0  0  0  0  0  0  0  0  0  0
   -3.3270   -3.5436    1.0463 C   0  0  0  0  0  0  0  0  0  0  0  0
   -4.2070   -3.4741    1.7132 H   0  0  0  0  0  0  0  0  0  0  0  0
   -2.4253   -3.2773    1.6310 H   0  0  0  0  0  0  0  0  0  0  0  0
   -3.2194   -4.6118    0.7606 H   0  0  0  0  0  0  0  0  0  0  0  0
  1  2  1  0  0  0  0
  2  9  1  0  0  0  0
  3  9  1  0  0  0  0
  4 16  1  0  0  0  0
  5 17  1  6  0  0  0
  5  1  1  0  0  0  0
  6  5  1  0  0  0  0
  6  8  2  0  0  0  0
  7  6  1  0  0  0  0
  8 28  1  0  0  0  0
  8  2  1  0  0  0  0
  9 11  1  0  0  0  0
  9 10  1  0  0  0  0
 12 13  1  0  0  0  0
 12  3  1  0  0  0  0
 14  4  1  0  0  0  0
 14 12  2  0  0  0  0
 15 14  1  0  0  0  0
 16  3  1  0  0  0  0
 18 19  1  0  0  0  0
 18 17  1  0  0  0  0
 20 18  2  0  0  0  0
 21 20  1  0  0  0  0
 22 24  2  0  0  0  0
 22 20  1  0  0  0  0
 23 22  1  0  0  0  0
 24 26  1  0  0  0  0
 25 24  1  0  0  0  0
 26 27  1  0  0  0  0
 26 17  2  0  0  0  0
 28 29  1  0  0  0  0
 29 30  1  0  0  0  0
 31 29  2  0  0  0  0
 31 32  1  0  0  0  0
 33 31  1  0  0  0  0
 34 33  1  0  0  0  0
 35 37  1  0  0  0  0
 35 33  2  0  0  0  0
 36 35  1  0  0  0  0
 37 28  2  0  0  0  0
 38 37  1  0  0  0  0
 39  4  1  0  0  0  0
 39 54  1  0  0  0  0
 40 39  2  0  0  0  0
 41 42  1  0  0  0  0
 41 40  1  0  0  0  0
 43 41  1  0  0  0  0
 44 41  1  0  0  0  0
 45 40  1  0  0  0  0
 45 47  2  0  0  0  0
 46 45  1  0  0  0  0
 47 52  1  0  0  0  0
 48 47  1  0  0  0  0
 48 51  1  0  0  0  0
 49 48  1  0  0  0  0
 50 48  1  0  0  0  0
 52 54  2  0  0  0  0
 52 53  1  0  0  0  0
 54 55  1  0  0  0  0
 55 57  1  0  0  0  0
 55 56  1  0  0  0  0
 58 55  1  0  0  0  0
M  END
