1,11
q = -1.0

 33 33  0  0  1  0  0  0  0  0999 V2000
   -0.7386    1.2209    0.1575 N   0  0  0  0  0  2  0  0  0  0  0  0
   -2.9859    0.5123   -0.1617 N   0  0  0  0  0  0  0  0  0  0  0  0
   -3.1630    1.3974   -0.6409 H   0  0  0  0  0  0  0  0  0  0  0  0
   -1.3145   -1.0056    0.7844 C   0  0  1  0  0  3  0  0  0  0  0  0
   -1.7088   -2.3136    0.3568 C   0  0  0  0  0  0  0  0  0  0  0  0
   -2.4340   -2.5386   -0.4367 H   0  0  0  0  0  0  0  0  0  0  0  0
   -0.8970   -3.2554    1.0149 C   0  0  0  0  0  0  0  0  0  0  0  0
   -0.9345   -4.3435    0.8685 H   0  0  0  0  0  0  0  0  0  0  0  0
    0.0016   -2.5636    1.8742 C   0  0  0  0  0  3  0  0  0  0  0  0
    0.7146   -3.0232    2.5722 H   0  0  0  0  0  0  0  0  0  0  0  0
   -0.2515   -1.1738    1.7504 C   0  0  0  0  0  3  0  0  0  0  0  0
    0.0842   -0.3867    2.4404 H   0  0  0  0  0  0  0  0  0  0  0  0
   -1.7023    0.2959    0.2589 C   0  0  1  0  0  3  0  0  0  0  0  0
   -1.1019    2.6035   -0.1668 C   0  0  0  0  0  0  0  0  0  0  0  0
   -2.1458    2.7916    0.1866 H   0  0  0  0  0  0  0  0  0  0  0  0
   -0.2086    3.5905    0.5890 C   0  0  0  0  0  0  0  0  0  0  0  0
   -0.2569    3.4098    1.6802 H   0  0  0  0  0  0  0  0  0  0  0  0
   -0.5279    4.6337    0.3927 H   0  0  0  0  0  0  0  0  0  0  0  0
    0.8473    3.4909    0.2703 H   0  0  0  0  0  0  0  0  0  0  0  0
   -1.0608    2.8722   -1.6807 C   0  0  0  0  0  0  0  0  0  0  0  0
   -1.6819    2.1482   -2.2468 H   0  0  0  0  0  0  0  0  0  0  0  0
   -0.0217    2.7798   -2.0574 H   0  0  0  0  0  0  0  0  0  0  0  0
   -1.4185    3.8955   -1.9147 H   0  0  0  0  0  0  0  0  0  0  0  0
   -4.1880   -0.2051    0.2725 C   0  0  0  0  0  0  0  0  0  0  0  0
   -3.8306   -1.0404    0.9066 H   0  0  0  0  0  0  0  0  0  0  0  0
   -5.0740    0.7161    1.1203 C   0  0  0  0  0  0  0  0  0  0  0  0
   -4.5210    1.0940    2.0028 H   0  0  0  0  0  0  0  0  0  0  0  0
   -5.9740    0.1778    1.4793 H   0  0  0  0  0  0  0  0  0  0  0  0
   -5.4227    1.5901    0.5288 H   0  0  0  0  0  0  0  0  0  0  0  0
   -4.9381   -0.7807   -0.9328 C   0  0  0  0  0  0  0  0  0  0  0  0
   -4.2876   -1.4591   -1.5188 H   0  0  0  0  0  0  0  0  0  0  0  0
   -5.2848    0.0289   -1.6098 H   0  0  0  0  0  0  0  0  0  0  0  0
   -5.8312   -1.3502   -0.6066 H   0  0  0  0  0  0  0  0  0  0  0  0
  2 13  1  0  0  0  0
  2 24  1  0  0  0  0
  3  2  1  0  0  0  0
  4 13  1  6  0  0  0
  4 11  1  0  0  0  0
  5  4  1  0  0  0  0
  5  7  2  0  0  0  0
  6  5  1  0  0  0  0
  7  9  1  0  0  0  0
  8  7  1  0  0  0  0
  9 10  1  0  0  0  0
 11  9  1  0  0  0  0
 11 12  1  0  0  0  0
 13  1  1  6  0  0  0
 14  1  1  0  0  0  0
 14 15  1  0  0  0  0
 14 16  1  0  0  0  0
 16 17  1  0  0  0  0
 18 16  1  0  0  0  0
 19 16  1  0  0  0  0
 20 14  1  0  0  0  0
 21 20  1  0  0  0  0
 22 20  1  0  0  0  0
 23 20  1  0  0  0  0
 24 25  1  0  0  0  0
 24 26  1  0  0  0  0
 26 28  1  0  0  0  0
 26 27  1  0  0  0  0
 29 26  1  0  0  0  0
 30 33  1  0  0  0  0
 30 24  1  0  0  0  0
 31 30  1  0  0  0  0
 32 30  1  0  0  0  0
M  END
