1,2
q = -1.0

 37 39  0  0  1  0  0  0  0  0999 V2000
   -1.3454   -2.6129   -0.9918 N   0  0  0  0  0  0  0  0  0  0  0  0
   -1.2196    0.0138   -0.4438 C   0  0  0  0  0  3  0  0  0  0  0  0
   -1.1868    1.4309   -0.7342 C   0  0  0  0  0  0  0  0  0  0  0  0
   -0.0266    2.0503   -1.2763 C   0  0  0  0  0  0  0  0  0  0  0  0
    0.0320    3.4177   -1.5193 C   0  0  0  0  0  0  0  0  0  0  0  0
   -1.0935    4.2230   -1.2353 C   0  0  0  0  0  0  0  0  0  0  0  0
   -2.2625    3.6379   -0.7559 C   0  0  0  0  0  0  0  0  0  0  0  0
   -2.3567    2.2407   -0.5126 C   0  0  0  0  0  0  0  0  0  0  0  0
   -3.5971    1.6045   -0.0832 C   0  0  0  0  0  0  0  0  0  0  0  0
   -4.7766    2.3447    0.1919 C   0  0  0  0  0  0  0  0  0  0  0  0
   -5.9687    1.7209    0.5493 C   0  0  0  0  0  0  0  0  0  0  0  0
   -6.0231    0.3130    0.6419 C   0  0  0  0  0  0  0  0  0  0  0  0
   -4.8831   -0.4420    0.3873 C   0  0  0  0  0  0  0  0  0  0  0  0
   -3.6462    0.1710    0.0319 C   0  0  0  0  0  0  0  0  0  0  0  0
   -2.4384   -0.5954   -0.1733 C   0  0  0  0  0  0  0  0  0  0  0  0
   -2.4234   -2.1073   -0.0583 C   0  0  2  0  0  0  0  0  0  0  0  0
   -2.1971   -2.5387    1.3957 C   0  0  0  0  0  0  0  0  0  0  0  0
   -1.7462   -2.4149   -2.4024 C   0  0  0  0  0  0  0  0  0  0  0  0
   -1.0341   -4.0384   -0.7841 C   0  0  0  0  0  0  0  0  0  0  0  0
    0.8315    1.4112   -1.5281 H   0  0  0  0  0  0  0  0  0  0  0  0
    0.9488    3.8619   -1.9361 H   0  0  0  0  0  0  0  0  0  0  0  0
   -1.0588    5.3083   -1.4151 H   0  0  0  0  0  0  0  0  0  0  0  0
   -3.1376    4.2792   -0.5807 H   0  0  0  0  0  0  0  0  0  0  0  0
   -4.7566    3.4411    0.1218 H   0  0  0  0  0  0  0  0  0  0  0  0
   -6.8646    2.3251    0.7566 H   0  0  0  0  0  0  0  0  0  0  0  0
   -6.9632   -0.1877    0.9194 H   0  0  0  0  0  0  0  0  0  0  0  0
   -4.9394   -1.5362    0.4761 H   0  0  0  0  0  0  0  0  0  0  0  0
   -3.3882   -2.5414   -0.4139 H   0  0  0  0  0  0  0  0  0  0  0  0
   -2.3178   -3.6284    1.5500 H   0  0  0  0  0  0  0  0  0  0  0  0
   -2.9356   -2.0201    2.0367 H   0  0  0  0  0  0  0  0  0  0  0  0
   -1.1837   -2.2299    1.7266 H   0  0  0  0  0  0  0  0  0  0  0  0
   -2.0175   -1.3583   -2.5723 H   0  0  0  0  0  0  0  0  0  0  0  0
   -2.6166   -3.0641   -2.6551 H   0  0  0  0  0  0  0  0  0  0  0  0
   -0.8957   -2.6799   -3.0576 H   0  0  0  0  0  0  0  0  0  0  0  0
   -0.6268   -4.2039    0.2267 H   0  0  0  0  0  0  0  0  0  0  0  0
   -0.2490   -4.3374   -1.5010 H   0  0  0  0  0  0  0  0  0  0  0  0
   -1.9475   -4.6599   -0.9344 H   0  0  0  0  0  0  0  0  0  0  0  0
  1 19  1  0  0  0  0
  1 16  1  0  0  0  0
  2 15  1  0  0  0  0
  3  8  1  0  0  0  0
  3  2  2  0  0  0  0
  4  3  1  0  0  0  0
  5  4  2  0  0  0  0
  5  6  1  0  0  0  0
  6  7  2  0  0  0  0
  7 23  1  0  0  0  0
  7  8  1  0  0  0  0
  8  9  2  0  0  0  0
  9 14  1  0  0  0  0
  9 10  1  0  0  0  0
 10 11  2  0  0  0  0
 11 12  1  0  0  0  0
 11 25  1  0  0  0  0
 12 26  1  0  0  0  0
 13 27  1  0  0  0  0
 13 12  2  0  0  0  0
 14 13  1  0  0  0  0
 15 16  1  0  0  0  0
 15 14  2  0  0  0  0
 16 28  1  6  0  0  0
 16 17  1  0  0  0  0
 17 29  1  0  0  0  0
 17 31  1  0  0  0  0
 17 30  1  0  0  0  0
 18  1  1  0  0  0  0
 19 35  1  0  0  0  0
 20  4  1  0  0  0  0
 21  5  1  0  0  0  0
 22  6  1  0  0  0  0
 24 10  1  0  0  0  0
 32 18  1  0  0  0  0
 33 18  1  0  0  0  0
 34 18  1  0  0  0  0
 36 19  1  0  0  0  0
 37 19  1  0  0  0  0
M  END
