1,3
q = -1.0

 32 32  0  0  1  0  0  0  0  0999 V2000
    1.7528    1.3144   -0.4552 N   0  0  0  0  0  2  0  0  0  0  0  0
    0.5892    1.9640   -0.2686 C   0  0  1  0  0  3  0  0  0  0  0  0
   -0.5732    1.3049   -0.7702 C   0  0  0  0  0  3  0  0  0  0  0  0
   -0.4046    0.7620   -1.7203 H   0  0  0  0  0  0  0  0  0  0  0  0
   -1.9628    1.6510   -0.4784 C   0  0  0  0  0  0  0  0  0  0  0  0
   -2.9391    1.6441   -1.5125 C   0  0  0  0  0  0  0  0  0  0  0  0
   -2.6190    1.4026   -2.5391 H   0  0  0  0  0  0  0  0  0  0  0  0
   -4.2780    1.9732   -1.2656 C   0  0  0  0  0  0  0  0  0  0  0  0
   -5.0016    1.9642   -2.0958 H   0  0  0  0  0  0  0  0  0  0  0  0
   -4.6974    2.3309    0.0280 C   0  0  0  0  0  0  0  0  0  0  0  0
   -5.7474    2.5949    0.2231 H   0  0  0  0  0  0  0  0  0  0  0  0
   -3.7519    2.3434    1.0686 C   0  0  0  0  0  0  0  0  0  0  0  0
   -4.0637    2.6106    2.0905 H   0  0  0  0  0  0  0  0  0  0  0  0
   -2.4158    1.9999    0.8237 C   0  0  0  0  0  0  0  0  0  0  0  0
   -1.7002    1.9827    1.6592 H   0  0  0  0  0  0  0  0  0  0  0  0
    3.0813    1.9704   -0.4632 C   0  0  0  0  0  0  0  0  0  0  0  0
    3.5107    2.6133    0.8789 C   0  0  0  0  0  0  0  0  0  0  0  0
    2.8533    3.4388    1.2018 H   0  0  0  0  0  0  0  0  0  0  0  0
    4.5347    3.0277    0.7790 H   0  0  0  0  0  0  0  0  0  0  0  0
    3.5389    1.8571    1.6864 H   0  0  0  0  0  0  0  0  0  0  0  0
    4.1365    0.8982   -0.7921 C   0  0  0  0  0  0  0  0  0  0  0  0
    3.9489    0.4418   -1.7813 H   0  0  0  0  0  0  0  0  0  0  0  0
    4.1292    0.0934   -0.0323 H   0  0  0  0  0  0  0  0  0  0  0  0
    5.1492    1.3479   -0.8059 H   0  0  0  0  0  0  0  0  0  0  0  0
    3.1241    3.0182   -1.5990 C   0  0  0  0  0  0  0  0  0  0  0  0
    2.8465    2.5422   -2.5606 H   0  0  0  0  0  0  0  0  0  0  0  0
    4.1436    3.4426   -1.7019 H   0  0  0  0  0  0  0  0  0  0  0  0
    2.4266    3.8607   -1.4276 H   0  0  0  0  0  0  0  0  0  0  0  0
    0.4440    3.2876    0.4637 C   0  0  0  0  0  0  0  0  0  0  0  0
    1.1788    4.0239    0.0912 H   0  0  0  0  0  0  0  0  0  0  0  0
    0.6233    3.1773    1.5529 H   0  0  0  0  0  0  0  0  0  0  0  0
   -0.5659    3.7113    0.3222 H   0  0  0  0  0  0  0  0  0  0  0  0
  1  2  1  0  0  0  0
  2  3  1  1  0  0  0
  2 29  1  0  0  0  0
  3  5  1  0  0  0  0
  4  3  1  0  0  0  0
  5 14  1  0  0  0  0
  6  8  1  0  0  0  0
  6  5  2  0  0  0  0
  7  6  1  0  0  0  0
  8 10  2  0  0  0  0
  9  8  1  0  0  0  0
 10 11  1  0  0  0  0
 10 12  1  0  0  0  0
 12 13  1  0  0  0  0
 14 12  2  0  0  0  0
 14 15  1  0  0  0  0
 16  1  1  0  0  0  0
 16 17  1  0  0  0  0
 17 18  1  0  0  0  0
 17 20  1  0  0  0  0
 19 17  1  0  0  0  0
 21 16  1  0  0  0  0
 21 23  1  0  0  0  0
 22 21  1  0  0  0  0
 24 21  1  0  0  0  0
 25 28  1  0  0  0  0
 25 16  1  0  0  0  0
 26 25  1  0  0  0  0
 27 25  1  0  0  0  0
 29 31  1  0  0  0  0
 30 29  1  0  0  0  0
 32 29  1  0  0  0  0
M  END
