1
q = 0.0, confidence = 0.986

 22 23  0  0  1  0  0  0  0  0999 V2000
   -1.5310    1.2029   -0.1936 N   0  0  0  0  0  2  0  0  0  0  0  0
   -1.2039    2.3090   -0.9144 C   0  0  0  0  0  3  0  0  0  0  0  0
   -0.3129    2.2157   -1.5457 H   0  0  0  0  0  0  0  0  0  0  0  0
   -1.9373    3.4930   -0.8645 C   0  0  0  0  0  0  0  0  0  0  0  0
   -1.6159    4.3506   -1.4719 H   0  0  0  0  0  0  0  0  0  0  0  0
   -3.0648    3.5617   -0.0319 C   0  0  0  0  0  0  0  0  0  0  0  0
   -3.6565    4.4853    0.0460 H   0  0  0  0  0  0  0  0  0  0  0  0
   -3.4277    2.4162    0.6840 C   0  0  0  0  0  0  0  0  0  0  0  0
   -4.3182    2.4095    1.3287 H   0  0  0  0  0  0  0  0  0  0  0  0
   -2.6638    1.2440    0.5747 C   0  0  0  0  0  0  0  0  0  0  0  0
   -3.0565   -0.0529    1.2112 C   0  0  0  0  0  0  0  0  0  0  0  0
   -3.8897   -0.4919    0.6147 H   0  0  0  0  0  0  0  0  0  0  0  0
   -3.4734    0.1158    2.2289 H   0  0  0  0  0  0  0  0  0  0  0  0
   -1.8983   -1.0132    1.2488 C   0  0  1  0  0  3  0  0  0  0  0  0
   -0.5742   -0.8361    1.8128 C   0  0  0  0  0  3  0  0  0  0  0  0
   -0.2296    0.0294    2.3940 H   0  0  0  0  0  0  0  0  0  0  0  0
   -0.5415   -2.2865    2.3270 C   0  0  0  0  0  0  0  0  0  0  0  0
    0.2392   -2.9542    1.9143 H   0  0  0  0  0  0  0  0  0  0  0  0
   -0.5036   -2.3557    3.4335 H   0  0  0  0  0  0  0  0  0  0  0  0
   -1.9839   -2.4557    1.7597 C   0  0  0  0  0  0  0  0  0  0  0  0
   -2.1849   -3.2761    1.0422 H   0  0  0  0  0  0  0  0  0  0  0  0
   -2.7354   -2.5328    2.5722 H   0  0  0  0  0  0  0  0  0  0  0  0
  1 10  1  0  0  0  0
  2  4  1  0  0  0  0
  2  1  1  0  0  0  0
  3  2  1  0  0  0  0
  4  6  2  0  0  0  0
  5  4  1  0  0  0  0
  6  7  1  0  0  0  0
  6  8  1  0  0  0  0
  8  9  1  0  0  0  0
 10  8  2  0  0  0  0
 10 11  1  0  0  0  0
 11 13  1  0  0  0  0
 12 11  1  0  0  0  0
 14 11  1  1  0  0  0
 14 20  1  0  0  0  0
 14 15  1  0  0  0  0
 15 17  1  0  0  0  0
 15 16  1  0  0  0  0
 17 19  1  0  0  0  0
 18 17  1  0  0  0  0
 20 17  1  0  0  0  0
 20 22  1  0  0  0  0
 21 20  1  0  0  0  0
M  END
