7,10
q = -2.0, confidence = 0.958

 38 38  0  0  1  0  0  0  0  0999 V2000
   -1.5409    1.8178   -1.7873 S   0  0  0  0  0  0  0  0  0  0  0  0
   -3.8869    2.5190   -0.6513 F   0  0  0  0  0  0  0  0  0  0  0  0
   -2.1444    2.8995    0.6170 F   0  0  0  0  0  0  0  0  0  0  0  0
   -2.5702    4.2027   -1.0824 F   0  0  0  0  0  0  0  0  0  0  0  0
   -0.1761    2.3491   -1.4604 O   0  0  0  0  0  0  0  0  0  0  0  0
   -2.1068    2.0753   -3.1256 O   0  0  0  0  0  0  0  0  0  0  0  0
   -1.7006    0.2951   -1.2815 N   0  0  0  0  0  2  0  0  0  0  0  0
   -2.7655   -1.6691    0.9169 C   0  0  0  0  0  0  0  0  0  0  0  0
   -1.6309   -2.5266    1.1661 C   0  0  0  0  0  0  0  0  0  0  0  0
   -1.4963   -0.6978    2.6278 C   0  0  1  0  0  3  0  0  0  0  0  0
   -2.7075   -0.5308    1.8387 C   0  0  2  0  0  3  0  0  0  0  0  0
   -1.3589   -3.8676    0.5693 C   0  0  0  0  0  0  0  0  0  0  0  0
    0.4248   -2.5130    2.7972 C   0  0  0  0  0  0  0  0  0  0  0  0
   -1.0505    0.2236    3.7208 C   0  0  0  0  0  0  0  0  0  0  0  0
   -3.7820    0.4815    2.0876 C   0  0  0  0  0  0  0  0  0  0  0  0
   -3.8324   -1.9069   -0.1115 C   0  0  0  0  0  0  0  0  0  0  0  0
   -3.9915   -0.8120   -1.1861 C   0  0  0  0  0  0  0  0  0  0  0  0
   -2.7258   -0.5021   -1.9894 C   0  0  0  0  0  0  0  0  0  0  0  0
   -2.6033    2.9346   -0.6630 C   0  0  0  0  0  0  0  0  0  0  0  0
   -0.8172   -1.9140    2.2187 C   0  0  1  0  0  3  0  0  0  0  0  0
   -4.8013   -2.0400    0.4187 H   0  0  0  0  0  0  0  0  0  0  0  0
   -3.6198   -2.8691   -0.6180 H   0  0  0  0  0  0  0  0  0  0  0  0
   -4.7657   -1.1631   -1.9006 H   0  0  0  0  0  0  0  0  0  0  0  0
   -4.3863    0.1271   -0.7499 H   0  0  0  0  0  0  0  0  0  0  0  0
   -3.0093    0.0456   -2.9087 H   0  0  0  0  0  0  0  0  0  0  0  0
   -2.2253   -1.4392   -2.3050 H   0  0  0  0  0  0  0  0  0  0  0  0
    1.0921   -2.8643    1.9852 H   0  0  0  0  0  0  0  0  0  0  0  0
    0.1920   -3.3805    3.4509 H   0  0  0  0  0  0  0  0  0  0  0  0
    0.9888   -1.7780    3.4036 H   0  0  0  0  0  0  0  0  0  0  0  0
    0.0501    0.2163    3.8462 H   0  0  0  0  0  0  0  0  0  0  0  0
   -1.4929   -0.0889    4.6902 H   0  0  0  0  0  0  0  0  0  0  0  0
   -1.3783    1.2662    3.5380 H   0  0  0  0  0  0  0  0  0  0  0  0
   -4.5314    0.0846    2.8071 H   0  0  0  0  0  0  0  0  0  0  0  0
   -4.3167    0.7534    1.1608 H   0  0  0  0  0  0  0  0  0  0  0  0
   -3.3712    1.4177    2.5099 H   0  0  0  0  0  0  0  0  0  0  0  0
   -1.7793   -4.6563    1.2307 H   0  0  0  0  0  0  0  0  0  0  0  0
   -0.2719   -4.0462    0.4736 H   0  0  0  0  0  0  0  0  0  0  0  0
   -1.7877   -3.9661   -0.4418 H   0  0  0  0  0  0  0  0  0  0  0  0
  1  5  2  0  0  0  0
  1  7  1  0  0  0  0
  1 19  1  0  0  0  0
  4 19  1  0  0  0  0
  6  1  2  0  0  0  0
  8  9  2  0  0  0  0
  8 11  1  0  0  0  0
  9 20  1  0  0  0  0
 10 14  1  1  0  0  0
 11 15  1  1  0  0  0
 11 10  1  0  0  0  0
 12  9  1  0  0  0  0
 12 36  1  0  0  0  0
 13 29  1  0  0  0  0
 13 28  1  0  0  0  0
 14 30  1  0  0  0  0
 14 31  1  0  0  0  0
 15 35  1  0  0  0  0
 15 33  1  0  0  0  0
 16 21  1  0  0  0  0
 16  8  1  0  0  0  0
 17 24  1  0  0  0  0
 17 16  1  0  0  0  0
 18  7  1  0  0  0  0
 18 17  1  0  0  0  0
 19  2  1  0  0  0  0
 19  3  1  0  0  0  0
 20 10  1  0  0  0  0
 20 13  1  1  0  0  0
 22 16  1  0  0  0  0
 23 17  1  0  0  0  0
 25 18  1  0  0  0  0
 26 18  1  0  0  0  0
 27 13  1  0  0  0  0
 32 14  1  0  0  0  0
 34 15  1  0  0  0  0
 37 12  1  0  0  0  0
 38 12  1  0  0  0  0
M  END
