1,5
q = -1.0

 24 25  0  0  0  0  0  0  0  0999 V2000
   -1.8785    2.2381    0.3802 N   0  0  0  0  0  2  0  0  0  0  0  0
   -1.4637    3.4698    0.2401 C   0  0  0  0  0  0  0  0  0  0  0  0
   -2.1893    4.3073    0.2432 H   0  0  0  0  0  0  0  0  0  0  0  0
   -0.0492    3.7034    0.0780 C   0  0  0  0  0  0  0  0  0  0  0  0
    0.7856    2.5339    0.0583 C   0  0  0  0  0  2  0  0  0  0  0  0
    2.1587    2.7496   -0.1553 C   0  0  0  0  0  0  0  0  0  0  0  0
    2.8591    1.9045   -0.2070 H   0  0  0  0  0  0  0  0  0  0  0  0
    2.6841    4.0463   -0.3169 C   0  0  0  0  0  0  0  0  0  0  0  0
    3.7669    4.1691   -0.4777 H   0  0  0  0  0  0  0  0  0  0  0  0
    1.8525    5.1784   -0.2787 C   0  0  0  0  0  0  0  0  0  0  0  0
    2.2752    6.1858   -0.4069 H   0  0  0  0  0  0  0  0  0  0  0  0
    0.4785    5.0040   -0.0848 C   0  0  0  0  0  0  0  0  0  0  0  0
   -0.1993    5.8725   -0.0665 H   0  0  0  0  0  0  0  0  0  0  0  0
   -3.2549    1.9184    0.4136 C   0  0  0  0  0  0  0  0  0  0  0  0
   -3.7276    0.9597    1.3344 C   0  0  0  0  0  0  0  0  0  0  0  0
   -3.0148    0.4691    2.0084 H   0  0  0  0  0  0  0  0  0  0  0  0
   -5.0882    0.6334    1.3601 C   0  0  0  0  0  0  0  0  0  0  0  0
   -5.4479   -0.1213    2.0750 H   0  0  0  0  0  0  0  0  0  0  0  0
   -5.9864    1.2450    0.4704 C   0  0  0  0  0  0  0  0  0  0  0  0
   -7.0520    0.9713    0.4857 H   0  0  0  0  0  0  0  0  0  0  0  0
   -5.5155    2.1903   -0.4545 C   0  0  0  0  0  0  0  0  0  0  0  0
   -6.2084    2.6570   -1.1710 H   0  0  0  0  0  0  0  0  0  0  0  0
   -4.1559    2.5253   -0.4898 C   0  0  0  0  0  0  0  0  0  0  0  0
   -3.7747    3.2282   -1.2455 H   0  0  0  0  0  0  0  0  0  0  0  0
  1 14  1  0  0  0  0
  2  3  1  0  0  0  0
  2  1  1  0  0  0  0
  4  2  2  0  0  0  0
  5  4  1  0  0  0  0
  6  5  1  0  0  0  0
  7  6  1  0  0  0  0
  8 10  1  0  0  0  0
  8  6  2  0  0  0  0
  9  8  1  0  0  0  0
 10 12  2  0  0  0  0
 11 10  1  0  0  0  0
 12 13  1  0  0  0  0
 12  4  1  0  0  0  0
 14 15  1  0  0  0  0
 15 17  2  0  0  0  0
 15 16  1  0  0  0  0
 17 18  1  0  0  0  0
 19 20  1  0  0  0  0
 19 17  1  0  0  0  0
 21 19  2  0  0  0  0
 22 21  1  0  0  0  0
 23 21  1  0  0  0  0
 23 14  2  0  0  0  0
 24 23  1  0  0  0  0
M  END
