1,19
q = -1.0, confidence = 0.0

 32 33  0  0  1  0  0  0  0  0999 V2000
    0.9372    1.0213   -0.0218 N   0  0  0  0  0  2  0  0  0  0  0  0
    2.2866    1.1629   -0.0424 C   0  0  1  0  0  3  0  0  0  0  0  0
    2.8154    2.4674   -0.0866 C   0  0  0  0  0  0  0  0  0  0  0  0
    3.9028    2.6049   -0.1024 H   0  0  0  0  0  0  0  0  0  0  0  0
    1.9678    3.5807   -0.0999 C   0  0  0  0  0  0  0  0  0  0  0  0
    2.3913    4.5953   -0.1357 H   0  0  0  0  0  0  0  0  0  0  0  0
    0.5856    3.3964   -0.0642 C   0  0  0  0  0  0  0  0  0  0  0  0
   -0.1024    4.2515   -0.0701 H   0  0  0  0  0  0  0  0  0  0  0  0
    0.0743    2.0897   -0.0251 C   0  0  0  0  0  0  0  0  0  0  0  0
   -1.3417    1.7360    0.0170 C   0  0  0  0  0  0  0  0  0  0  0  0
   -2.4077    2.6616    0.0577 C   0  0  0  0  0  0  0  0  0  0  0  0
   -2.2012    3.7418    0.0519 H   0  0  0  0  0  0  0  0  0  0  0  0
   -3.7320    2.2226    0.1095 C   0  0  0  0  0  0  0  0  0  0  0  0
   -4.5737    2.9276    0.1429 H   0  0  0  0  0  0  0  0  0  0  0  0
   -5.2610    0.4237    0.1716 F   0  0  0  0  0  0  0  0  0  0  0  0
   -3.9898    0.8422    0.1208 C   0  0  0  0  0  0  0  0  0  0  0  0
   -2.9665   -0.1170    0.0797 C   0  0  0  0  0  0  0  0  0  0  0  0
   -3.1939   -1.1905    0.0853 H   0  0  0  0  0  0  0  0  0  0  0  0
   -1.6579    0.3539    0.0273 C   0  0  0  0  0  3  0  0  0  0  0  0
    3.2276   -0.0482    0.0898 C   0  0  0  0  0  0  0  0  0  0  0  0
    4.5097    0.1813   -0.7421 C   0  0  0  0  0  0  0  0  0  0  0  0
    5.1166    1.0275   -0.3661 H   0  0  0  0  0  0  0  0  0  0  0  0
    4.2744    0.3623   -1.8099 H   0  0  0  0  0  0  0  0  0  0  0  0
    5.1499   -0.7206   -0.6802 H   0  0  0  0  0  0  0  0  0  0  0  0
    3.5904   -0.1646    1.5925 C   0  0  0  0  0  0  0  0  0  0  0  0
    4.0778    0.7611    1.9586 H   0  0  0  0  0  0  0  0  0  0  0  0
    4.2953   -1.0082    1.7399 H   0  0  0  0  0  0  0  0  0  0  0  0
    2.6820   -0.3525    2.1991 H   0  0  0  0  0  0  0  0  0  0  0  0
    2.6213   -1.3824   -0.3885 C   0  0  0  0  0  0  0  0  0  0  0  0
    1.8175   -1.7690    0.2999 H   0  0  0  0  0  0  0  0  0  0  0  0
    3.3863   -2.1813   -0.3079 H   0  0  0  0  0  0  0  0  0  0  0  0
    2.2655   -1.3510   -1.4353 H   0  0  0  0  0  0  0  0  0  0  0  0
  2  1  1  0  0  0  0
  2 20  1  1  0  0  0
  3  2  1  0  0  0  0
  4  3  1  0  0  0  0
  5  3  2  0  0  0  0
  5  7  1  0  0  0  0
  6  5  1  0  0  0  0
  7  9  2  0  0  0  0
  8  7  1  0  0  0  0
  9  1  1  0  0  0  0
  9 10  1  0  0  0  0
 10 19  2  0  0  0  0
 10 11  1  0  0  0  0
 11 13  2  0  0  0  0
 12 11  1  0  0  0  0
 13 16  1  0  0  0  0
 13 14  1  0  0  0  0
 16 15  1  0  0  0  0
 17 18  1  0  0  0  0
 17 16  2  0  0  0  0
 19 17  1  0  0  0  0
 20 25  1  0  0  0  0
 21 24  1  0  0  0  0
 21 22  1  0  0  0  0
 21 20  1  0  0  0  0
 23 21  1  0  0  0  0
 25 27  1  0  0  0  0
 25 26  1  0  0  0  0
 25 28  1  0  0  0  0
 29 31  1  0  0  0  0
 29 20  1  0  0  0  0
 29 30  1  0  0  0  0
 32 29  1  0  0  0  0
M  END
