1,11
q = -1.0, confidence = 0.028

 44 45  0  0  1  0  0  0  0  0999 V2000
    0.4445    1.0919   -0.1784 N   0  0  0  0  0  2  0  0  0  0  0  0
    1.7078    0.9830   -0.6580 C   0  0  2  0  0  3  0  0  0  0  0  0
    2.3765    2.0929   -1.2003 C   0  0  0  0  0  0  0  0  0  0  0  0
    3.3646    1.9663   -1.6594 H   0  0  0  0  0  0  0  0  0  0  0  0
    1.7530    3.3429   -1.1725 C   0  0  0  0  0  0  0  0  0  0  0  0
    2.2528    4.2242   -1.6018 H   0  0  0  0  0  0  0  0  0  0  0  0
    0.4837    3.4589   -0.5960 C   0  0  0  0  0  0  0  0  0  0  0  0
   -0.0193    4.4324   -0.5437 H   0  0  0  0  0  0  0  0  0  0  0  0
   -0.1609    2.3102   -0.1110 C   0  0  0  0  0  0  0  0  0  0  0  0
   -1.5312    2.3694    0.5720 C   0  0  0  0  0  0  0  0  0  0  0  0
   -2.2851    1.0855    0.2621 C   0  0  1  0  0  3  0  0  0  0  0  0
   -2.5807    0.6075   -1.0542 C   0  0  0  0  0  0  0  0  0  0  0  0
   -2.2964    1.0924   -1.9950 H   0  0  0  0  0  0  0  0  0  0  0  0
   -3.2353   -0.6492   -0.9372 C   0  0  0  0  0  0  0  0  0  0  0  0
   -3.5341   -1.2962   -1.7700 H   0  0  0  0  0  0  0  0  0  0  0  0
   -3.3694   -0.9468    0.4491 C   0  0  0  0  0  0  0  0  0  0  0  0
   -3.7981   -1.8620    0.8732 H   0  0  0  0  0  0  0  0  0  0  0  0
   -2.7995    0.1249    1.1883 C   0  0  0  0  0  0  0  0  0  0  0  0
   -2.7159    0.1705    2.2776 H   0  0  0  0  0  0  0  0  0  0  0  0
   -1.2678    2.5102    2.0905 C   0  0  0  0  0  0  0  0  0  0  0  0
   -0.6898    3.4335    2.2931 H   0  0  0  0  0  0  0  0  0  0  0  0
   -0.7008    1.6418    2.4794 H   0  0  0  0  0  0  0  0  0  0  0  0
   -2.2288    2.5794    2.6381 H   0  0  0  0  0  0  0  0  0  0  0  0
   -2.3781    3.5651    0.0856 C   0  0  0  0  0  0  0  0  0  0  0  0
   -1.9362    4.5358    0.3878 H   0  0  0  0  0  0  0  0  0  0  0  0
   -3.3854    3.5040    0.5410 H   0  0  0  0  0  0  0  0  0  0  0  0
   -2.5008    3.5591   -1.0153 H   0  0  0  0  0  0  0  0  0  0  0  0
    2.3857   -0.3761   -0.6026 C   0  0  1  0  0  0  0  0  0  0  0  0
    2.8470   -0.5563   -1.5980 H   0  0  0  0  0  0  0  0  0  0  0  0
    3.5440   -0.4949    0.4543 C   0  0  0  0  0  0  0  0  0  0  0  0
    4.7845    0.2722   -0.0435 C   0  0  0  0  0  0  0  0  0  0  0  0
    4.6380    1.3698   -0.0293 H   0  0  0  0  0  0  0  0  0  0  0  0
    5.0803   -0.0326   -1.0695 H   0  0  0  0  0  0  0  0  0  0  0  0
    5.6396    0.0558    0.6275 H   0  0  0  0  0  0  0  0  0  0  0  0
    3.9053   -1.9879    0.5747 C   0  0  0  0  0  0  0  0  0  0  0  0
    4.7708   -2.1050    1.2573 H   0  0  0  0  0  0  0  0  0  0  0  0
    4.1890   -2.4181   -0.4086 H   0  0  0  0  0  0  0  0  0  0  0  0
    3.0584   -2.5741    0.9757 H   0  0  0  0  0  0  0  0  0  0  0  0
    3.1258    0.0547    1.8269 C   0  0  0  0  0  0  0  0  0  0  0  0
    2.8915    1.1382    1.7773 H   0  0  0  0  0  0  0  0  0  0  0  0
    3.9567   -0.0738    2.5498 H   0  0  0  0  0  0  0  0  0  0  0  0
    2.2347   -0.4703    2.2198 H   0  0  0  0  0  0  0  0  0  0  0  0
    1.4111   -1.4157   -0.3860 O   0  0  0  0  0  0  0  0  0  0  0  0
    1.1871   -1.7609   -1.2924 H   0  0  0  0  0  0  0  0  0  0  0  0
  1  9  1  0  0  0  0
  2 28  1  6  0  0  0
  2  1  1  0  0  0  0
  3  5  2  0  0  0  0
  3  2  1  0  0  0  0
  4  3  1  0  0  0  0
  5  7  1  0  0  0  0
  6  5  1  0  0  0  0
  7  8  1  0  0  0  0
  7  9  2  0  0  0  0
  9 10  1  0  0  0  0
 10 20  1  0  0  0  0
 11 10  1  6  0  0  0
 11 18  1  0  0  0  0
 12 14  2  0  0  0  0
 12 11  1  0  0  0  0
 13 12  1  0  0  0  0
 14 16  1  0  0  0  0
 15 14  1  0  0  0  0
 16 17  1  0  0  0  0
 16 18  2  0  0  0  0
 18 19  1  0  0  0  0
 20 21  1  0  0  0  0
 20 22  1  0  0  0  0
 20 23  1  0  0  0  0
 24 25  1  0  0  0  0
 24 26  1  0  0  0  0
 24 10  1  0  0  0  0
 27 24  1  0  0  0  0
 28 29  1  6  0  0  0
 28 43  1  0  0  0  0
 28 30  1  0  0  0  0
 30 35  1  0  0  0  0
 30 39  1  0  0  0  0
 31 32  1  0  0  0  0
 31 30  1  0  0  0  0
 31 34  1  0  0  0  0
 33 31  1  0  0  0  0
 35 38  1  0  0  0  0
 35 36  1  0  0  0  0
 37 35  1  0  0  0  0
 39 42  1  0  0  0  0
 39 41  1  0  0  0  0
 40 39  1  0  0  0  0
 44 43  1  0  0  0  0
M  END
