1,7
q = -1.0

 21 20  0  0  0  0  0  0  0  0999 V2000
   -0.9264   -2.5901    0.0165 C   0  0  0  0  0  3  0  0  0  0  0  0
   -0.6078   -3.2704   -0.7943 H   0  0  0  0  0  0  0  0  0  0  0  0
   -0.5379   -2.8981    1.0038 H   0  0  0  0  0  0  0  0  0  0  0  0
   -2.4140   -2.2396   -0.0061 C   0  0  0  0  0  0  0  0  0  0  0  0
   -2.9997   -2.7731   -0.7783 H   0  0  0  0  0  0  0  0  0  0  0  0
   -2.9021   -2.3889    0.9726 H   0  0  0  0  0  0  0  0  0  0  0  0
   -2.3735   -0.7590   -0.3178 N   0  0  0  0  0  0  0  0  0  0  0  0
   -2.5776   -0.6337   -1.3260 H   0  0  0  0  0  0  0  0  0  0  0  0
   -3.3094    0.1580    0.4609 C   0  0  0  0  0  0  0  0  0  0  0  0
   -4.7336   -0.2115    0.0080 C   0  0  0  0  0  0  0  0  0  0  0  0
   -4.8677   -0.0670   -1.0843 H   0  0  0  0  0  0  0  0  0  0  0  0
   -5.4629    0.4423    0.5240 H   0  0  0  0  0  0  0  0  0  0  0  0
   -4.9920   -1.2589    0.2607 H   0  0  0  0  0  0  0  0  0  0  0  0
   -3.1507   -0.0241    1.9727 C   0  0  0  0  0  0  0  0  0  0  0  0
   -3.4521   -1.0317    2.3188 H   0  0  0  0  0  0  0  0  0  0  0  0
   -3.8139    0.7011    2.4815 H   0  0  0  0  0  0  0  0  0  0  0  0
   -2.1155    0.1755    2.2968 H   0  0  0  0  0  0  0  0  0  0  0  0
   -2.9740    1.6000    0.0701 C   0  0  0  0  0  0  0  0  0  0  0  0
   -3.0119    1.7435   -1.0288 H   0  0  0  0  0  0  0  0  0  0  0  0
   -1.9792    1.8949    0.4550 H   0  0  0  0  0  0  0  0  0  0  0  0
   -3.7206    2.2833    0.5177 H   0  0  0  0  0  0  0  0  0  0  0  0
  1  3  1  0  0  0  0
  2  1  1  0  0  0  0
  4  1  1  0  0  0  0
  4  6  1  0  0  0  0
  5  4  1  0  0  0  0
  7  4  1  0  0  0  0
  7  9  1  0  0  0  0
  8  7  1  0  0  0  0
  9 14  1  0  0  0  0
 10 13  1  0  0  0  0
 10  9  1  0  0  0  0
 10 12  1  0  0  0  0
 11 10  1  0  0  0  0
 14 17  1  0  0  0  0
 14 15  1  0  0  0  0
 14 16  1  0  0  0  0
 18 20  1  0  0  0  0
 18  9  1  0  0  0  0
 18 21  1  0  0  0  0
 19 18  1  0  0  0  0
M  END
