1,4
q = -1.0

 14 13  0  0  1  0  0  0  0  0999 V2000
   -1.2868   -2.0801    0.1922 C   0  0  0  0  0  3  0  0  0  0  0  0
   -1.3092   -2.5242   -0.8243 H   0  0  0  0  0  0  0  0  0  0  0  0
   -0.5877   -2.6631    0.8213 H   0  0  0  0  0  0  0  0  0  0  0  0
   -2.5777    0.5024   -0.1128 N   0  0  0  0  0  2  0  0  0  0  0  0
   -2.7184    1.4681   -0.4288 H   0  0  0  0  0  0  0  0  0  0  0  0
   -3.7136   -1.4943    0.0793 O   0  0  0  0  0  0  0  0  0  0  0  0
   -3.6535   -0.2207   -0.2643 C   0  0  1  0  0  3  0  0  0  0  0  0
   -4.9423    0.2879   -0.8323 C   0  0  0  0  0  0  0  0  0  0  0  0
   -4.8621    1.3335   -1.1781 H   0  0  0  0  0  0  0  0  0  0  0  0
   -5.7414    0.2079   -0.0684 H   0  0  0  0  0  0  0  0  0  0  0  0
   -5.2450   -0.3580   -1.6805 H   0  0  0  0  0  0  0  0  0  0  0  0
   -2.6463   -2.1017    0.8531 C   0  0  0  0  0  0  0  0  0  0  0  0
   -2.9974   -3.1445    0.9862 H   0  0  0  0  0  0  0  0  0  0  0  0
   -2.6307   -1.6136    1.8512 H   0  0  0  0  0  0  0  0  0  0  0  0
  1  3  1  0  0  0  0
  1 12  1  0  0  0  0
  2  1  1  0  0  0  0
  5  4  1  0  0  0  0
  6 12  1  0  0  0  0
  7  4  1  1  0  0  0
  7  6  1  0  0  0  0
  8  7  1  0  0  0  0
  8 10  1  0  0  0  0
  9  8  1  0  0  0  0
 11  8  1  0  0  0  0
 12 13  1  0  0  0  0
 12 14  1  0  0  0  0
M  END
