2,5
q = -1.0

 19 19  0  0  0  0  0  0  0  0999 V2000
   -4.6487    1.5161    1.4867 Cl  0  0  0  0  0  0  0  0  0  0  0  0
   -0.5196   -3.5933    0.3244 N   0  0  0  0  0  0  0  0  0  0  0  0
    0.4139   -3.9892    0.1336 H   0  0  0  0  0  0  0  0  0  0  0  0
   -0.7209   -3.7711    1.3157 H   0  0  0  0  0  0  0  0  0  0  0  0
   -1.9165   -1.0609   -0.0142 C   0  0  0  0  0  3  0  0  0  0  0  0
   -2.7167   -1.8875   -0.8515 C   0  0  0  0  0  0  0  0  0  0  0  0
   -4.0979   -1.6312   -0.9645 C   0  0  0  0  0  0  0  0  0  0  0  0
   -4.7139   -2.2659   -1.6231 H   0  0  0  0  0  0  0  0  0  0  0  0
   -4.7105   -0.5811   -0.2644 C   0  0  0  0  0  0  0  0  0  0  0  0
   -5.7850   -0.3754   -0.3660 H   0  0  0  0  0  0  0  0  0  0  0  0
   -3.9170    0.2030    0.5849 C   0  0  0  0  0  0  0  0  0  0  0  0
   -2.5388   -0.0308    0.7182 C   0  0  0  0  0  0  0  0  0  0  0  0
   -1.9630    0.6138    1.3947 H   0  0  0  0  0  0  0  0  0  0  0  0
   -2.0940   -3.0710   -1.5594 C   0  0  0  0  0  0  0  0  0  0  0  0
   -1.2381   -2.7409   -2.1891 H   0  0  0  0  0  0  0  0  0  0  0  0
   -2.8308   -3.5558   -2.2330 H   0  0  0  0  0  0  0  0  0  0  0  0
   -1.5832   -4.1260   -0.5627 C   0  0  0  0  0  0  0  0  0  0  0  0
   -2.4318   -4.4724    0.0608 H   0  0  0  0  0  0  0  0  0  0  0  0
   -1.1949   -5.0090   -1.1118 H   0  0  0  0  0  0  0  0  0  0  0  0
  2  4  1  0  0  0  0
  3  2  1  0  0  0  0
  5 12  1  0  0  0  0
  6  5  2  0  0  0  0
  7  6  1  0  0  0  0
  7  9  2  0  0  0  0
  8  7  1  0  0  0  0
  9 11  1  0  0  0  0
 10  9  1  0  0  0  0
 11 12  2  0  0  0  0
 11  1  1  0  0  0  0
 12 13  1  0  0  0  0
 14  6  1  0  0  0  0
 14 17  1  0  0  0  0
 15 14  1  0  0  0  0
 16 14  1  0  0  0  0
 17 18  1  0  0  0  0
 17  2  1  0  0  0  0
 19 17  1  0  0  0  0
M  END
