3,20
q = -1.0, confidence = 0.0

 20 21  0  0  0  0  0  0  0  0999 V2000
    0.0754    5.2703   -0.3414 Cl  0  0  0  0  0  0  0  0  0  0  0  0
    1.7808    2.8656    4.1280 Cl  0  0  0  0  0  0  0  0  0  0  0  0
   -0.2782    0.8247   -1.8064 N   0  0  0  0  0  2  0  0  0  0  0  0
   -0.5889    0.3793   -3.0448 C   0  0  0  0  0  3  0  0  0  0  0  0
   -0.5862   -0.7147   -3.1616 H   0  0  0  0  0  0  0  0  0  0  0  0
   -0.8705    1.2500   -4.0974 C   0  0  0  0  0  0  0  0  0  0  0  0
   -1.1161    0.8437   -5.0882 H   0  0  0  0  0  0  0  0  0  0  0  0
   -0.8229    2.6297   -3.8488 C   0  0  0  0  0  0  0  0  0  0  0  0
   -1.0388    3.3530   -4.6492 H   0  0  0  0  0  0  0  0  0  0  0  0
   -0.4858    3.0890   -2.5726 C   0  0  0  0  0  0  0  0  0  0  0  0
   -0.4307    4.1619   -2.3674 H   0  0  0  0  0  0  0  0  0  0  0  0
   -0.1996    2.1770   -1.5334 C   0  0  0  0  0  0  0  0  0  0  0  0
    0.2258    2.4676   -0.1580 C   0  0  0  0  0  0  0  0  0  0  0  0
    0.4137    3.7364    0.4534 C   0  0  0  0  0  0  0  0  0  0  0  0
    0.8802    3.8649    1.7681 C   0  0  0  0  0  0  0  0  0  0  0  0
    1.0163    4.8592    2.2100 H   0  0  0  0  0  0  0  0  0  0  0  0
    1.1769    2.7027    2.4978 C   0  0  0  0  0  0  0  0  0  0  0  0
    0.9907    1.4307    1.9477 C   0  0  0  0  0  0  0  0  0  0  0  0
    1.2211    0.5465    2.5572 H   0  0  0  0  0  0  0  0  0  0  0  0
    0.4905    1.2908    0.6368 C   0  0  0  0  0  3  0  0  0  0  0  0
  1 14  1  0  0  0  0
  3 12  1  0  0  0  0
  4  3  1  0  0  0  0
  5  4  1  0  0  0  0
  6  8  2  0  0  0  0
  6  4  1  0  0  0  0
  7  6  1  0  0  0  0
  8 10  1  0  0  0  0
  9  8  1  0  0  0  0
 10 11  1  0  0  0  0
 10 12  2  0  0  0  0
 12 13  1  0  0  0  0
 13 14  2  0  0  0  0
 13 20  1  0  0  0  0
 14 15  1  0  0  0  0
 15 16  1  0  0  0  0
 15 17  2  0  0  0  0
 17  2  1  0  0  0  0
 18 17  1  0  0  0  0
 18 19  1  0  0  0  0
 20 18  2  0  0  0  0
M  END
