4,7
q = 0.0, confidence = 0.85

 51 50  0  0  0  0  0  0  0  0999 V2000
   -2.8538    1.7161   -0.2339 Si  0  0  0  0  0  0  0  0  0  0  0  0
    2.0975    2.7919   -0.2528 Si  0  0  0  0  0  0  0  0  0  0  0  0
   -2.3371    0.0055    0.0659 N   0  0  0  0  0  0  0  0  0  0  0  0
   -0.5075   -1.5120   -0.6396 N   0  0  0  0  0  2  0  0  0  0  0  0
   -1.0139   -0.3101   -0.3109 C   0  0  0  0  0  0  0  0  0  0  0  0
   -0.0365    0.7036   -0.2821 C   0  0  0  0  0  0  0  0  0  0  0  0
    1.1447    1.1998   -0.0636 C   0  0  0  0  0  3  0  0  0  0  0  0
   -3.1213   -0.9695    0.8608 C   0  0  0  0  0  0  0  0  0  0  0  0
   -2.4231   -1.8068    1.0661 H   0  0  0  0  0  0  0  0  0  0  0  0
   -3.5549   -0.4122    2.2264 C   0  0  0  0  0  0  0  0  0  0  0  0
   -2.6930   -0.0456    2.8150 H   0  0  0  0  0  0  0  0  0  0  0  0
   -4.0581   -1.2038    2.8179 H   0  0  0  0  0  0  0  0  0  0  0  0
   -4.2747    0.4231    2.1184 H   0  0  0  0  0  0  0  0  0  0  0  0
   -4.3364   -1.5325    0.1036 C   0  0  0  0  0  0  0  0  0  0  0  0
   -5.1356   -0.7736    0.0067 H   0  0  0  0  0  0  0  0  0  0  0  0
   -4.7643   -2.3994    0.6472 H   0  0  0  0  0  0  0  0  0  0  0  0
   -4.0632   -1.8651   -0.9159 H   0  0  0  0  0  0  0  0  0  0  0  0
   -1.2916   -2.5842   -1.2528 C   0  0  0  0  0  0  0  0  0  0  0  0
   -2.2213   -2.7417   -0.6638 H   0  0  0  0  0  0  0  0  0  0  0  0
   -1.7323   -2.1851   -2.6701 C   0  0  0  0  0  0  0  0  0  0  0  0
   -2.2974   -1.2318   -2.6483 H   0  0  0  0  0  0  0  0  0  0  0  0
   -2.3830   -2.9638   -3.1185 H   0  0  0  0  0  0  0  0  0  0  0  0
   -0.8552   -2.0430   -3.3338 H   0  0  0  0  0  0  0  0  0  0  0  0
   -0.5604   -3.9282   -1.2307 C   0  0  0  0  0  0  0  0  0  0  0  0
    0.2817   -3.9633   -1.9476 H   0  0  0  0  0  0  0  0  0  0  0  0
   -1.2622   -4.7419   -1.5024 H   0  0  0  0  0  0  0  0  0  0  0  0
   -0.1588   -4.1372   -0.2198 H   0  0  0  0  0  0  0  0  0  0  0  0
   -4.7424    1.8239   -0.3600 C   0  0  0  0  0  0  0  0  0  0  0  0
   -5.1336    1.2243   -1.2062 H   0  0  0  0  0  0  0  0  0  0  0  0
   -4.9970    2.8864   -0.5594 H   0  0  0  0  0  0  0  0  0  0  0  0
   -5.2819    1.5258    0.5598 H   0  0  0  0  0  0  0  0  0  0  0  0
   -2.1983    2.2883   -1.9103 C   0  0  0  0  0  0  0  0  0  0  0  0
   -1.1004    2.4168   -1.9209 H   0  0  0  0  0  0  0  0  0  0  0  0
   -2.6736    3.2567   -2.1732 H   0  0  0  0  0  0  0  0  0  0  0  0
   -2.4653    1.5531   -2.6972 H   0  0  0  0  0  0  0  0  0  0  0  0
   -2.2873    2.8426    1.1743 C   0  0  0  0  0  0  0  0  0  0  0  0
   -2.8247    2.6057    2.1146 H   0  0  0  0  0  0  0  0  0  0  0  0
   -2.4741    3.9091    0.9307 H   0  0  0  0  0  0  0  0  0  0  0  0
   -1.2022    2.7132    1.3523 H   0  0  0  0  0  0  0  0  0  0  0  0
    0.9269    4.2823   -0.1701 C   0  0  0  0  0  0  0  0  0  0  0  0
    0.1564    4.2349   -0.9661 H   0  0  0  0  0  0  0  0  0  0  0  0
    1.4964    5.2265   -0.2982 H   0  0  0  0  0  0  0  0  0  0  0  0
    0.4012    4.3308    0.8044 H   0  0  0  0  0  0  0  0  0  0  0  0
    3.3383    2.9172    1.1747 C   0  0  0  0  0  0  0  0  0  0  0  0
    3.9783    2.0137    1.2332 H   0  0  0  0  0  0  0  0  0  0  0  0
    2.8150    3.0208    2.1475 H   0  0  0  0  0  0  0  0  0  0  0  0
    3.9972    3.8013    1.0512 H   0  0  0  0  0  0  0  0  0  0  0  0
    3.0414    2.8851   -1.8971 C   0  0  0  0  0  0  0  0  0  0  0  0
    3.8319    2.1139   -1.9824 H   0  0  0  0  0  0  0  0  0  0  0  0
    3.5289    3.8790   -1.9816 H   0  0  0  0  0  0  0  0  0  0  0  0
    2.3546    2.7726   -2.7608 H   0  0  0  0  0  0  0  0  0  0  0  0
  1  3  1  0  0  0  0
  1 36  1  0  0  0  0
  2 40  1  0  0  0  0
  2  7  1  0  0  0  0
  2 44  1  0  0  0  0
  3  8  1  0  0  0  0
  4  5  1  0  0  0  0
  5  6  2  0  0  0  0
  5  3  1  0  0  0  0
  6  7  2  0  0  0  0
  8  9  1  0  0  0  0
  8 10  1  0  0  0  0
 10 11  1  0  0  0  0
 10 12  1  0  0  0  0
 13 10  1  0  0  0  0
 14 16  1  0  0  0  0
 14  8  1  0  0  0  0
 15 14  1  0  0  0  0
 17 14  1  0  0  0  0
 18 24  1  0  0  0  0
 18 19  1  0  0  0  0
 18  4  1  0  0  0  0
 20 21  1  0  0  0  0
 20 18  1  0  0  0  0
 22 20  1  0  0  0  0
 23 20  1  0  0  0  0
 24 27  1  0  0  0  0
 25 24  1  0  0  0  0
 26 24  1  0  0  0  0
 28  1  1  0  0  0  0
 28 31  1  0  0  0  0
 29 28  1  0  0  0  0
 30 28  1  0  0  0  0
 32  1  1  0  0  0  0
 33 32  1  0  0  0  0
 34 32  1  0  0  0  0
 35 32  1  0  0  0  0
 36 39  1  0  0  0  0
 36 37  1  0  0  0  0
 38 36  1  0  0  0  0
 40 43  1  0  0  0  0
 41 40  1  0  0  0  0
 42 40  1  0  0  0  0
 44 45  1  0  0  0  0
 44 46  1  0  0  0  0
 47 44  1  0  0  0  0
 48  2  1  0  0  0  0
 49 48  1  0  0  0  0
 50 48  1  0  0  0  0
 51 48  1  0  0  0  0
M  END
