61
q = -1.0

 81 88  0  0  1  0  0  0  0  0999 V2000
   -0.7583   -0.1184    1.6065 C   0  0  0  0  0  0  0  0  0  0  0  0
   -1.5486   -1.1084    0.9344 C   0  0  0  0  0  0  0  0  0  0  0  0
   -2.2803   -0.4784   -0.1522 C   0  0  0  0  0  0  0  0  0  0  0  0
   -1.9858    0.9536   -0.1093 C   0  0  0  0  0  0  0  0  0  0  0  0
   -1.0096    1.1782    0.9478 C   0  0  1  0  0  3  0  0  0  0  0  0
    0.2256   -0.3469    2.6861 C   0  0  0  0  0  0  0  0  0  0  0  0
    1.1685   -1.3976    2.5832 C   0  0  0  0  0  0  0  0  0  0  0  0
    1.1578   -2.0383    1.6870 H   0  0  0  0  0  0  0  0  0  0  0  0
    2.1221   -1.5927    3.5896 C   0  0  0  0  0  0  0  0  0  0  0  0
    2.8498   -2.4134    3.4954 H   0  0  0  0  0  0  0  0  0  0  0  0
    2.1588   -0.7423    4.7093 C   0  0  0  0  0  0  0  0  0  0  0  0
    2.9128   -0.8953    5.4963 H   0  0  0  0  0  0  0  0  0  0  0  0
    1.2315    0.3050    4.8161 C   0  0  0  0  0  0  0  0  0  0  0  0
    1.2542    0.9766    5.6878 H   0  0  0  0  0  0  0  0  0  0  0  0
    0.2718    0.5034    3.8116 C   0  0  0  0  0  0  0  0  0  0  0  0
   -0.4536    1.3256    3.8999 H   0  0  0  0  0  0  0  0  0  0  0  0
   -1.6407   -2.5349    1.3049 C   0  0  0  0  0  0  0  0  0  0  0  0
   -1.6533   -3.5523    0.3259 C   0  0  0  0  0  0  0  0  0  0  0  0
   -1.5180   -3.2839   -0.7298 H   0  0  0  0  0  0  0  0  0  0  0  0
   -1.7977   -4.8927    0.7062 C   0  0  0  0  0  0  0  0  0  0  0  0
   -1.7968   -5.6771   -0.0655 H   0  0  0  0  0  0  0  0  0  0  0  0
   -1.9357   -5.2370    2.0605 C   0  0  0  0  0  0  0  0  0  0  0  0
   -2.0499   -6.2917    2.3540 H   0  0  0  0  0  0  0  0  0  0  0  0
   -1.9260   -4.2307    3.0399 C   0  0  0  0  0  0  0  0  0  0  0  0
   -2.0365   -4.4914    4.1034 H   0  0  0  0  0  0  0  0  0  0  0  0
   -1.7754   -2.8888    2.6661 C   0  0  0  0  0  0  0  0  0  0  0  0
   -1.7729   -2.1006    3.4330 H   0  0  0  0  0  0  0  0  0  0  0  0
   -3.3215   -1.1178   -0.9897 C   0  0  0  0  0  0  0  0  0  0  0  0
   -3.3178   -0.9833   -2.3938 C   0  0  0  0  0  0  0  0  0  0  0  0
   -2.4936   -0.4394   -2.8768 H   0  0  0  0  0  0  0  0  0  0  0  0
   -4.3417   -1.5486   -3.1652 C   0  0  0  0  0  0  0  0  0  0  0  0
   -4.3215   -1.4370   -4.2599 H   0  0  0  0  0  0  0  0  0  0  0  0
   -5.3808   -2.2641   -2.5482 C   0  0  0  0  0  0  0  0  0  0  0  0
   -6.1802   -2.7139   -3.1564 H   0  0  0  0  0  0  0  0  0  0  0  0
   -5.3909   -2.4081   -1.1519 C   0  0  0  0  0  0  0  0  0  0  0  0
   -6.1996   -2.9695   -0.6596 H   0  0  0  0  0  0  0  0  0  0  0  0
   -4.3710   -1.8376   -0.3771 C   0  0  0  0  0  0  0  0  0  0  0  0
   -4.3830   -1.9482    0.7173 H   0  0  0  0  0  0  0  0  0  0  0  0
   -2.6817    2.0189   -0.8719 C   0  0  0  0  0  0  0  0  0  0  0  0
   -1.9786    3.0874   -1.4683 C   0  0  0  0  0  0  0  0  0  0  0  0
   -0.8805    3.0998   -1.4227 H   0  0  0  0  0  0  0  0  0  0  0  0
   -2.6673    4.1149   -2.1251 C   0  0  0  0  0  0  0  0  0  0  0  0
   -2.1023    4.9363   -2.5909 H   0  0  0  0  0  0  0  0  0  0  0  0
   -4.0695    4.0913   -2.2009 C   0  0  0  0  0  0  0  0  0  0  0  0
   -4.6089    4.8952   -2.7244 H   0  0  0  0  0  0  0  0  0  0  0  0
   -4.7781    3.0332   -1.6114 C   0  0  0  0  0  0  0  0  0  0  0  0
   -5.8768    3.0042   -1.6672 H   0  0  0  0  0  0  0  0  0  0  0  0
   -4.0913    2.0046   -0.9504 C   0  0  0  0  0  0  0  0  0  0  0  0
   -4.6514    1.1793   -0.4881 H   0  0  0  0  0  0  0  0  0  0  0  0
   -0.4350    2.4741    1.3557 C   0  0  0  0  0  0  0  0  0  0  0  0
   -1.2899    3.5183    1.7621 C   0  0  0  0  0  0  0  0  0  0  0  0
   -2.3766    3.3581    1.7113 H   0  0  0  0  0  0  0  0  0  0  0  0
   -0.7756    4.7284    2.2435 C   0  0  0  0  0  0  0  0  0  0  0  0
   -1.4630    5.5268    2.5611 H   0  0  0  0  0  0  0  0  0  0  0  0
    0.6144    4.9119    2.3369 C   0  0  0  0  0  0  0  0  0  0  0  0
    1.0252    5.8547    2.7275 H   0  0  0  0  0  0  0  0  0  0  0  0
    1.4798    3.8944    1.9253 C   0  0  0  0  0  0  0  0  0  0  0  0
    2.5684    4.0292    1.9810 H   0  0  0  0  0  0  0  0  0  0  0  0
    0.9727    2.6800    1.4078 C   0  0  0  0  0  0  0  0  0  0  0  0
    1.9345    1.6920    0.9047 C   0  0  1  0  0  3  0  0  0  0  0  0
    1.7317    0.7074    0.0632 N   0  0  0  0  0  2  0  0  0  0  0  0
    3.2158    1.8600    1.2988 O   0  0  0  0  0  0  0  0  0  0  0  0
    3.9627    0.7188    0.7958 C   0  0  0  0  0  0  0  0  0  0  0  0
    4.1387    0.0358    1.6523 H   0  0  0  0  0  0  0  0  0  0  0  0
    4.9318    1.0791    0.4016 H   0  0  0  0  0  0  0  0  0  0  0  0
    3.0429    0.1077   -0.2719 C   0  0  2  0  0  0  0  0  0  0  0  0
    2.9497   -0.9911   -0.1706 H   0  0  0  0  0  0  0  0  0  0  0  0
    3.4339    0.4278   -1.7287 C   0  0  0  0  0  0  0  0  0  0  0  0
    2.5981    0.0882   -2.3707 H   0  0  0  0  0  0  0  0  0  0  0  0
    3.5308    1.5270   -1.8502 H   0  0  0  0  0  0  0  0  0  0  0  0
    4.7093   -0.2748   -2.1254 C   0  0  0  0  0  0  0  0  0  0  0  0
    5.9295    0.4198   -2.2411 C   0  0  0  0  0  0  0  0  0  0  0  0
    5.9468    1.5112   -2.0873 H   0  0  0  0  0  0  0  0  0  0  0  0
    7.1157   -0.2582   -2.5665 C   0  0  0  0  0  0  0  0  0  0  0  0
    8.0590    0.3018   -2.6591 H   0  0  0  0  0  0  0  0  0  0  0  0
    7.0964   -1.6449   -2.7777 C   0  0  0  0  0  0  0  0  0  0  0  0
    8.0243   -2.1783   -3.0348 H   0  0  0  0  0  0  0  0  0  0  0  0
    5.8847   -2.3480   -2.6655 C   0  0  0  0  0  0  0  0  0  0  0  0
    5.8611   -3.4352   -2.8368 H   0  0  0  0  0  0  0  0  0  0  0  0
    4.7013   -1.6702   -2.3419 C   0  0  0  0  0  0  0  0  0  0  0  0
    3.7476   -2.2166   -2.2569 H   0  0  0  0  0  0  0  0  0  0  0  0
  1  6  1  0  0  0  0
  2 17  1  0  0  0  0
  2  1  2  0  0  0  0
  3  4  2  0  0  0  0
  3  2  1  0  0  0  0
  4  5  1  0  0  0  0
  5 50  1  1  0  0  0
  5  1  1  0  0  0  0
  6 15  1  0  0  0  0
  7  6  2  0  0  0  0
  7  9  1  0  0  0  0
  8  7  1  0  0  0  0
  9 11  2  0  0  0  0
 10  9  1  0  0  0  0
 11 13  1  0  0  0  0
 11 12  1  0  0  0  0
 13 14  1  0  0  0  0
 15 16  1  0  0  0  0
 15 13  2  0  0  0  0
 17 26  1  0  0  0  0
 18 20  1  0  0  0  0
 18 17  2  0  0  0  0
 19 18  1  0  0  0  0
 20 22  2  0  0  0  0
 21 20  1  0  0  0  0
 22 23  1  0  0  0  0
 22 24  1  0  0  0  0
 24 25  1  0  0  0  0
 26 24  2  0  0  0  0
 26 27  1  0  0  0  0
 28 37  1  0  0  0  0
 28  3  1  0  0  0  0
 29 28  2  0  0  0  0
 30 29  1  0  0  0  0
 31 33  2  0  0  0  0
 31 29  1  0  0  0  0
 32 31  1  0  0  0  0
 33 35  1  0  0  0  0
 34 33  1  0  0  0  0
 35 36  1  0  0  0  0
 35 37  2  0  0  0  0
 37 38  1  0  0  0  0
 39  4  1  0  0  0  0
 40 41  1  0  0  0  0
 40 39  2  0  0  0  0
 42 40  1  0  0  0  0
 43 42  1  0  0  0  0
 44 42  2  0  0  0  0
 44 46  1  0  0  0  0
 45 44  1  0  0  0  0
 46 48  2  0  0  0  0
 47 46  1  0  0  0  0
 48 39  1  0  0  0  0
 48 49  1  0  0  0  0
 50 59  2  0  0  0  0
 50 51  1  0  0  0  0
 51 53  2  0  0  0  0
 52 51  1  0  0  0  0
 53 55  1  0  0  0  0
 53 54  1  0  0  0  0
 55 56  1  0  0  0  0
 57 58  1  0  0  0  0
 57 55  2  0  0  0  0
 59 57  1  0  0  0  0
 60 62  1  0  0  0  0
 60 59  1  6  0  0  0
 61 60  1  0  0  0  0
 63 62  1  0  0  0  0
 63 64  1  0  0  0  0
 65 63  1  0  0  0  0
 66 67  1  1  0  0  0
 66 61  1  0  0  0  0
 66 63  1  0  0  0  0
 68 66  1  0  0  0  0
 69 68  1  0  0  0  0
 70 68  1  0  0  0  0
 71 68  1  0  0  0  0
 72 71  1  0  0  0  0
 72 73  1  0  0  0  0
 74 72  2  0  0  0  0
 75 74  1  0  0  0  0
 76 78  2  0  0  0  0
 76 74  1  0  0  0  0
 77 76  1  0  0  0  0
 78 80  1  0  0  0  0
 79 78  1  0  0  0  0
 80 81  1  0  0  0  0
 80 71  2  0  0  0  0
M  END
