2,4
q = -1.0

 35 36  0  0  0  0  0  0  0  0999 V2000
   -4.4670    0.7719   -0.2700 S   0  0  0  0  0  0  0  0  0  0  0  0
   -0.0551    0.5530   -0.2623 N   0  0  0  0  0  2  0  0  0  0  0  0
   -1.3334    0.6581   -0.1954 N   0  0  0  0  0  0  0  0  0  0  0  0
   -1.1406   -1.7527   -0.2322 C   0  0  0  0  0  2  0  0  0  0  0  0
    0.6744    1.7696   -0.2469 C   0  0  0  0  0  0  0  0  0  0  0  0
   -3.3708   -0.6809   -0.1757 C   0  0  0  0  0  0  0  0  0  0  0  0
    0.9858    4.0492    0.5298 C   0  0  0  0  0  0  0  0  0  0  0  0
    0.6540    4.8930    1.1551 H   0  0  0  0  0  0  0  0  0  0  0  0
    0.2480    2.8641    0.5348 C   0  0  0  0  0  0  0  0  0  0  0  0
   -0.6557    2.7594    1.1505 H   0  0  0  0  0  0  0  0  0  0  0  0
   -1.9567   -0.5717   -0.1994 C   0  0  0  0  0  0  0  0  0  0  0  0
    1.8353    1.8830   -1.0343 C   0  0  0  0  0  0  0  0  0  0  0  0
    2.1521    1.0299   -1.6475 H   0  0  0  0  0  0  0  0  0  0  0  0
   -1.7714   -3.0074   -0.2470 C   0  0  0  0  0  0  0  0  0  0  0  0
   -1.1537   -3.9163   -0.2684 H   0  0  0  0  0  0  0  0  0  0  0  0
   -4.0195    1.7867    1.1769 C   0  0  0  0  0  0  0  0  0  0  0  0
   -2.9648    2.0734    0.9995 H   0  0  0  0  0  0  0  0  0  0  0  0
   -4.6637    2.6784    1.0314 H   0  0  0  0  0  0  0  0  0  0  0  0
   -3.9793   -1.9360   -0.1883 C   0  0  0  0  0  0  0  0  0  0  0  0
   -5.0776   -1.9875   -0.1690 H   0  0  0  0  0  0  0  0  0  0  0  0
   -5.8481    0.2670   -0.0477 O   0  0  0  0  0  0  0  0  0  0  0  0
   -3.1749   -3.0917   -0.2267 C   0  0  0  0  0  0  0  0  0  0  0  0
   -3.6566   -4.0820   -0.2407 H   0  0  0  0  0  0  0  0  0  0  0  0
   -4.1279    1.5377   -1.4904 O   0  0  0  0  0  0  0  0  0  0  0  0
    2.5531    3.0845   -1.0413 C   0  0  0  0  0  0  0  0  0  0  0  0
    3.4483    3.1733   -1.6769 H   0  0  0  0  0  0  0  0  0  0  0  0
    2.9200    5.4818   -0.2724 C   0  0  0  0  0  0  0  0  0  0  0  0
    3.8952    5.3754   -0.7853 H   0  0  0  0  0  0  0  0  0  0  0  0
    3.1078    5.8534    0.7557 H   0  0  0  0  0  0  0  0  0  0  0  0
    2.3497    6.2762   -0.7996 H   0  0  0  0  0  0  0  0  0  0  0  0
   -4.2696    1.0724    2.4937 C   0  0  0  0  0  0  0  0  0  0  0  0
   -5.3227    0.7358    2.5551 H   0  0  0  0  0  0  0  0  0  0  0  0
   -4.0649    1.7511    3.3457 H   0  0  0  0  0  0  0  0  0  0  0  0
   -3.6141    0.1845    2.6016 H   0  0  0  0  0  0  0  0  0  0  0  0
    2.1507    4.1868   -0.2590 C   0  0  0  0  0  0  0  0  0  0  0  0
  1  6  1  0  0  0  0
  1 21  2  0  0  0  0
  1 16  1  0  0  0  0
  2  5  1  0  0  0  0
  2  3  1  0  0  0  0
  4 11  1  0  0  0  0
  5  9  1  0  0  0  0
  7  9  2  0  0  0  0
  7  8  1  0  0  0  0
  9 10  1  0  0  0  0
 11  3  2  0  0  0  0
 11  6  1  0  0  0  0
 12  5  2  0  0  0  0
 13 12  1  0  0  0  0
 14  4  1  0  0  0  0
 14 22  2  0  0  0  0
 15 14  1  0  0  0  0
 16 31  1  0  0  0  0
 17 16  1  0  0  0  0
 18 16  1  0  0  0  0
 19  6  2  0  0  0  0
 19 20  1  0  0  0  0
 22 19  1  0  0  0  0
 23 22  1  0  0  0  0
 24  1  2  0  0  0  0
 25 12  1  0  0  0  0
 25 35  2  0  0  0  0
 26 25  1  0  0  0  0
 27 35  1  0  0  0  0
 27 29  1  0  0  0  0
 28 27  1  0  0  0  0
 30 27  1  0  0  0  0
 31 32  1  0  0  0  0
 31 34  1  0  0  0  0
 31 33  1  0  0  0  0
 35  7  1  0  0  0  0
M  END
