2,3
q = -1.0

 24 25  0  0  1  0  0  0  0  0999 V2000
    4.9807   -0.5578    0.0286 O   0  0  0  0  0  0  0  0  0  0  0  0
   -0.7934    1.8102   -0.0985 N   0  0  0  0  0  2  0  0  0  0  0  0
    1.3897    0.4051   -0.0032 C   0  0  0  0  0  3  0  0  0  0  0  0
    2.5402   -0.4038   -0.0729 C   0  0  0  0  0  0  0  0  0  0  0  0
    2.4263   -1.4771   -0.2707 H   0  0  0  0  0  0  0  0  0  0  0  0
    3.8234    0.1578    0.0756 C   0  0  0  0  0  0  0  0  0  0  0  0
    3.9772    1.5516    0.2854 C   0  0  0  0  0  0  0  0  0  0  0  0
    4.9921    1.9568    0.4009 H   0  0  0  0  0  0  0  0  0  0  0  0
    2.8518    2.3671    0.3109 C   0  0  0  0  0  0  0  0  0  0  0  0
    2.9809    3.4526    0.4439 H   0  0  0  0  0  0  0  0  0  0  0  0
    1.5584    1.8132    0.1566 C   0  0  0  0  0  0  0  0  0  0  0  0
    0.3316    2.5816    0.0786 C   0  0  1  0  0  3  0  0  0  0  0  0
    0.2103    3.9883    0.1332 C   0  0  0  0  0  0  0  0  0  0  0  0
    1.1133    4.5975    0.2752 H   0  0  0  0  0  0  0  0  0  0  0  0
   -1.0398    4.5904   -0.0036 C   0  0  0  0  0  0  0  0  0  0  0  0
   -1.1362    5.6856    0.0408 H   0  0  0  0  0  0  0  0  0  0  0  0
   -2.1713    3.7799   -0.2169 C   0  0  0  0  0  0  0  0  0  0  0  0
   -3.1733    4.2092   -0.3533 H   0  0  0  0  0  0  0  0  0  0  0  0
   -1.9978    2.3968   -0.2681 C   0  0  0  0  0  0  0  0  0  0  0  0
   -2.8377    1.7138   -0.4567 H   0  0  0  0  0  0  0  0  0  0  0  0
    4.9011   -1.9494   -0.2116 C   0  0  0  0  0  0  0  0  0  0  0  0
    5.9408   -2.3265   -0.2204 H   0  0  0  0  0  0  0  0  0  0  0  0
    4.4235   -2.1753   -1.1911 H   0  0  0  0  0  0  0  0  0  0  0  0
    4.3324   -2.4769    0.5878 H   0  0  0  0  0  0  0  0  0  0  0  0
  1  6  1  0  0  0  0
  2 12  1  0  0  0  0
  3 11  1  0  0  0  0
  4  3  2  0  0  0  0
  4  6  1  0  0  0  0
  5  4  1  0  0  0  0
  6  7  2  0  0  0  0
  7  9  1  0  0  0  0
  7  8  1  0  0  0  0
  9 10  1  0  0  0  0
 11  9  2  0  0  0  0
 12 13  1  0  0  0  0
 12 11  1  6  0  0  0
 13 14  1  0  0  0  0
 15 16  1  0  0  0  0
 15 13  2  0  0  0  0
 17 15  1  0  0  0  0
 18 17  1  0  0  0  0
 19 17  2  0  0  0  0
 19  2  1  0  0  0  0
 20 19  1  0  0  0  0
 21  1  1  0  0  0  0
 21 24  1  0  0  0  0
 22 21  1  0  0  0  0
 23 21  1  0  0  0  0
M  END
