1,2
q = -1.0, confidence = 0.002

 37 40  0  0  1  0  0  0  0  0999 V2000
    2.9138   -1.9481   -0.7749 N   0  0  0  0  0  2  0  0  0  0  0  0
    1.4509    0.2738   -0.3693 C   0  0  0  0  0  3  0  0  0  0  0  0
    0.6518    1.4084   -0.1580 C   0  0  0  0  0  0  0  0  0  0  0  0
   -0.4389    1.3053   -0.0633 H   0  0  0  0  0  0  0  0  0  0  0  0
    1.2552    2.6733   -0.0692 C   0  0  0  0  0  0  0  0  0  0  0  0
    0.6643    3.9969    0.1510 C   0  0  0  0  0  0  0  0  0  0  0  0
   -0.6736    4.3854    0.3369 C   0  0  0  0  0  0  0  0  0  0  0  0
   -1.4812    3.6370    0.3297 H   0  0  0  0  0  0  0  0  0  0  0  0
   -0.9602    5.7456    0.5311 C   0  0  0  0  0  0  0  0  0  0  0  0
   -2.0020    6.0690    0.6774 H   0  0  0  0  0  0  0  0  0  0  0  0
    0.0731    6.7017    0.5396 C   0  0  0  0  0  0  0  0  0  0  0  0
   -0.1699    7.7643    0.6928 H   0  0  0  0  0  0  0  0  0  0  0  0
    1.4133    6.3126    0.3535 C   0  0  0  0  0  0  0  0  0  0  0  0
    2.2143    7.0689    0.3616 H   0  0  0  0  0  0  0  0  0  0  0  0
    1.7067    4.9598    0.1594 C   0  0  0  0  0  0  0  0  0  0  0  0
    3.0664    4.2945   -0.0620 C   0  0  0  0  0  0  0  0  0  0  0  0
    2.6618    2.8259   -0.1961 C   0  0  0  0  0  0  0  0  0  0  0  0
    3.4642    1.7111   -0.4142 C   0  0  0  0  0  0  0  0  0  0  0  0
    4.5549    1.8271   -0.5159 H   0  0  0  0  0  0  0  0  0  0  0  0
    2.8687    0.4269   -0.5034 C   0  0  0  0  0  0  0  0  0  0  0  0
    3.6468   -0.7943   -0.7370 C   0  0  2  0  0  3  0  0  0  0  0  0
    5.0457   -0.8635   -0.9215 C   0  0  0  0  0  0  0  0  0  0  0  0
    5.6465    0.0553   -0.8932 H   0  0  0  0  0  0  0  0  0  0  0  0
    5.6551   -2.1012   -1.1443 C   0  0  0  0  0  0  0  0  0  0  0  0
    6.7446   -2.1582   -1.2905 H   0  0  0  0  0  0  0  0  0  0  0  0
    4.8697   -3.2666   -1.1845 C   0  0  0  0  0  0  0  0  0  0  0  0
    5.3141   -4.2556   -1.3627 H   0  0  0  0  0  0  0  0  0  0  0  0
    3.4893   -3.1436   -0.9954 C   0  0  0  0  0  0  0  0  0  0  0  0
    2.7823   -3.9939   -1.0093 H   0  0  0  0  0  0  0  0  0  0  0  0
    3.9962    4.5114    1.1506 C   0  0  0  0  0  0  0  0  0  0  0  0
    3.5244    4.1428    2.0825 H   0  0  0  0  0  0  0  0  0  0  0  0
    4.2280    5.5882    1.2809 H   0  0  0  0  0  0  0  0  0  0  0  0
    4.9553    3.9718    1.0103 H   0  0  0  0  0  0  0  0  0  0  0  0
    3.7359    4.8117   -1.3529 C   0  0  0  0  0  0  0  0  0  0  0  0
    4.6899    4.2776   -1.5404 H   0  0  0  0  0  0  0  0  0  0  0  0
    3.9626    5.8944   -1.2717 H   0  0  0  0  0  0  0  0  0  0  0  0
    3.0761    4.6598   -2.2295 H   0  0  0  0  0  0  0  0  0  0  0  0
  1 21  1  0  0  0  0
  2  3  1  0  0  0  0
  3  5  2  0  0  0  0
  3  4  1  0  0  0  0
  5  6  1  0  0  0  0
  6 15  2  0  0  0  0
  6  7  1  0  0  0  0
  7  9  2  0  0  0  0
  8  7  1  0  0  0  0
  9 11  1  0  0  0  0
  9 10  1  0  0  0  0
 11 12  1  0  0  0  0
 13 14  1  0  0  0  0
 13 11  2  0  0  0  0
 15 13  1  0  0  0  0
 16 15  1  0  0  0  0
 16 30  1  0  0  0  0
 17  5  1  0  0  0  0
 17 16  1  0  0  0  0
 18 17  2  0  0  0  0
 19 18  1  0  0  0  0
 20 18  1  0  0  0  0
 20  2  2  0  0  0  0
 21 20  1  6  0  0  0
 22 23  1  0  0  0  0
 22 21  1  0  0  0  0
 24 22  2  0  0  0  0
 25 24  1  0  0  0  0
 26 24  1  0  0  0  0
 26 28  2  0  0  0  0
 27 26  1  0  0  0  0
 28  1  1  0  0  0  0
 29 28  1  0  0  0  0
 30 32  1  0  0  0  0
 30 31  1  0  0  0  0
 33 30  1  0  0  0  0
 34 36  1  0  0  0  0
 34 16  1  0  0  0  0
 35 34  1  0  0  0  0
 37 34  1  0  0  0  0
M  END
