7,18
q = -1.0, confidence = 0.0

 25 26  0  0  1  0  0  0  0  0999 V2000
   -5.0599   -3.4294    0.3115 S   0  0  0  0  0  0  0  0  0  0  0  0
   -4.6871   -4.0702   -1.1568 F   0  0  0  0  0  0  0  0  0  0  0  0
   -4.1938   -4.6139    1.0480 F   0  0  0  0  0  0  0  0  0  0  0  0
   -5.5401   -2.8688    1.7791 F   0  0  0  0  0  0  0  0  0  0  0  0
   -6.0329   -2.3261   -0.4258 F   0  0  0  0  0  0  0  0  0  0  0  0
   -6.3485   -4.4385    0.3489 F   0  0  0  0  0  0  0  0  0  0  0  0
   -0.7254    0.8012   -1.9127 N   0  0  0  0  0  2  0  0  0  0  0  0
   -1.8475    0.0296   -2.1083 C   0  0  1  0  0  3  0  0  0  0  0  0
   -2.4686    0.0105   -3.3717 C   0  0  0  0  0  0  0  0  0  0  0  0
   -3.3665   -0.6044   -3.5207 H   0  0  0  0  0  0  0  0  0  0  0  0
   -1.9402    0.7656   -4.4218 C   0  0  0  0  0  0  0  0  0  0  0  0
   -2.4227    0.7528   -5.4102 H   0  0  0  0  0  0  0  0  0  0  0  0
   -0.7847    1.5352   -4.1993 C   0  0  0  0  0  0  0  0  0  0  0  0
   -0.3316    2.1389   -4.9975 H   0  0  0  0  0  0  0  0  0  0  0  0
   -0.2068    1.5266   -2.9289 C   0  0  0  0  0  0  0  0  0  0  0  0
    0.6971    2.1031   -2.6830 H   0  0  0  0  0  0  0  0  0  0  0  0
   -2.2517   -0.7281   -0.9245 C   0  0  0  0  0  0  0  0  0  0  0  0
   -1.4208   -0.5435    0.2282 C   0  0  0  0  0  3  0  0  0  0  0  0
   -1.7319   -1.2953    1.3826 C   0  0  0  0  0  0  0  0  0  0  0  0
   -1.1097   -1.1981    2.2849 H   0  0  0  0  0  0  0  0  0  0  0  0
   -2.8248   -2.1692    1.4160 C   0  0  0  0  0  0  0  0  0  0  0  0
   -3.0539   -2.7427    2.3235 H   0  0  0  0  0  0  0  0  0  0  0  0
   -3.6288   -2.3060    0.2708 C   0  0  0  0  0  0  0  0  0  0  0  0
   -3.3556   -1.6010   -0.9015 C   0  0  0  0  0  0  0  0  0  0  0  0
   -3.9957   -1.7346   -1.7829 H   0  0  0  0  0  0  0  0  0  0  0  0
  1  6  1  0  0  0  0
  1  3  1  0  0  0  0
  1  4  1  0  0  0  0
  2  1  1  0  0  0  0
  5  1  1  0  0  0  0
  8  7  1  0  0  0  0
  8 17  1  6  0  0  0
  9  8  1  0  0  0  0
 10  9  1  0  0  0  0
 11 13  1  0  0  0  0
 11  9  2  0  0  0  0
 12 11  1  0  0  0  0
 13 15  2  0  0  0  0
 14 13  1  0  0  0  0
 15 16  1  0  0  0  0
 15  7  1  0  0  0  0
 17 24  2  0  0  0  0
 17 18  1  0  0  0  0
 18 19  2  0  0  0  0
 19 21  1  0  0  0  0
 19 20  1  0  0  0  0
 21 22  1  0  0  0  0
 23  1  1  0  0  0  0
 23 21  2  0  0  0  0
 24 23  1  0  0  0  0
 25 24  1  0  0  0  0
M  END
