7,18
q = -1.0

 25 26  0  0  1  0  0  0  0  0999 V2000
    4.7442   -2.5165    0.1415 S   0  0  0  0  0  0  0  0  0  0  0  0
    3.7635   -3.0735    1.3364 F   0  0  0  0  0  0  0  0  0  0  0  0
    4.5907   -3.9483   -0.6498 F   0  0  0  0  0  0  0  0  0  0  0  0
    5.8267   -2.0090   -0.9875 F   0  0  0  0  0  0  0  0  0  0  0  0
    4.9992   -1.1358    0.9989 F   0  0  0  0  0  0  0  0  0  0  0  0
    6.0024   -3.1752    0.9561 F   0  0  0  0  0  0  0  0  0  0  0  0
   -0.7815    0.6169   -1.8971 N   0  0  0  0  0  2  0  0  0  0  0  0
    0.0356   -0.0546   -2.7788 C   0  0  2  0  0  3  0  0  0  0  0  0
   -0.3226   -0.1321   -4.1382 C   0  0  0  0  0  0  0  0  0  0  0  0
    0.3336   -0.6682   -4.8370 H   0  0  0  0  0  0  0  0  0  0  0  0
   -1.5060    0.4607   -4.5861 C   0  0  0  0  0  0  0  0  0  0  0  0
   -1.7900    0.3984   -5.6469 H   0  0  0  0  0  0  0  0  0  0  0  0
   -2.3295    1.1280   -3.6629 C   0  0  0  0  0  0  0  0  0  0  0  0
   -3.2731    1.6006   -3.9680 H   0  0  0  0  0  0  0  0  0  0  0  0
   -1.9311    1.1838   -2.3265 C   0  0  0  0  0  0  0  0  0  0  0  0
   -2.5283    1.6837   -1.5500 H   0  0  0  0  0  0  0  0  0  0  0  0
    1.2126   -0.6550   -2.1518 C   0  0  0  0  0  0  0  0  0  0  0  0
    1.3067   -0.4528   -0.7385 C   0  0  0  0  0  3  0  0  0  0  0  0
    2.3902   -1.0438   -0.0554 C   0  0  0  0  0  0  0  0  0  0  0  0
    2.4948   -0.9262    1.0302 H   0  0  0  0  0  0  0  0  0  0  0  0
    3.3395   -1.7773   -0.7712 C   0  0  0  0  0  0  0  0  0  0  0  0
    3.2650   -1.9705   -2.1608 C   0  0  0  0  0  0  0  0  0  0  0  0
    4.0275   -2.5523   -2.6914 H   0  0  0  0  0  0  0  0  0  0  0  0
    2.1868   -1.4030   -2.8448 C   0  0  0  0  0  0  0  0  0  0  0  0
    2.1133   -1.5526   -3.9327 H   0  0  0  0  0  0  0  0  0  0  0  0
  1  6  1  0  0  0  0
  1  5  1  0  0  0  0
  1  2  1  0  0  0  0
  3  1  1  0  0  0  0
  4  1  1  0  0  0  0
  8 17  1  1  0  0  0
  8  7  1  0  0  0  0
  9  8  1  0  0  0  0
 10  9  1  0  0  0  0
 11  9  2  0  0  0  0
 11 13  1  0  0  0  0
 12 11  1  0  0  0  0
 13 15  2  0  0  0  0
 14 13  1  0  0  0  0
 15  7  1  0  0  0  0
 15 16  1  0  0  0  0
 17 18  1  0  0  0  0
 18 19  2  0  0  0  0
 19 20  1  0  0  0  0
 21 19  1  0  0  0  0
 21  1  1  0  0  0  0
 22 21  2  0  0  0  0
 23 22  1  0  0  0  0
 24 22  1  0  0  0  0
 24 17  2  0  0  0  0
 25 24  1  0  0  0  0
M  END
