5,12
q = -1.0, confidence = 0.0

 28 28  0  0  0  0  0  0  0  0999 V2000
    0.8582    3.2543    1.4589 O   0  0  0  0  0  0  0  0  0  0  0  0
    2.3266    1.5672    1.7930 O   0  0  0  0  0  0  0  0  0  0  0  0
    2.3994    1.2237   -2.4399 O   0  0  0  0  0  0  0  0  0  0  0  0
    3.6240    1.2120   -0.5415 O   0  0  0  0  0  0  0  0  0  0  0  0
   -1.4065    1.4737   -0.0818 N   0  0  0  0  0  2  0  0  0  0  0  0
   -2.6055    1.3583    0.5402 C   0  0  0  0  0  3  0  0  0  0  0  0
   -3.5039    2.4253    0.5983 C   0  0  0  0  0  0  0  0  0  0  0  0
   -3.1487    3.6502    0.0131 C   0  0  0  0  0  0  0  0  0  0  0  0
   -1.8911    3.7721   -0.5855 C   0  0  0  0  0  0  0  0  0  0  0  0
   -1.0232    2.6710   -0.6144 C   0  0  0  0  0  0  0  0  0  0  0  0
    0.3546    2.6846   -1.1847 C   0  0  0  0  0  0  0  0  0  0  0  0
    1.2828    1.7580   -0.3744 C   0  0  0  0  0  3  0  0  0  0  0  0
    1.4692    2.2906    1.0109 C   0  0  0  0  0  0  0  0  0  0  0  0
    2.4559    1.3731   -1.2267 C   0  0  0  0  0  0  0  0  0  0  0  0
    2.4320    2.0133    3.1456 C   0  0  0  0  0  0  0  0  0  0  0  0
    4.7324    0.7785   -1.3338 C   0  0  0  0  0  0  0  0  0  0  0  0
   -2.8207    0.3778    0.9872 H   0  0  0  0  0  0  0  0  0  0  0  0
   -4.4678    2.2879    1.1079 H   0  0  0  0  0  0  0  0  0  0  0  0
   -3.8371    4.5081    0.0438 H   0  0  0  0  0  0  0  0  0  0  0  0
   -1.5539    4.7236   -1.0192 H   0  0  0  0  0  0  0  0  0  0  0  0
    0.7371    3.7259   -1.2246 H   0  0  0  0  0  0  0  0  0  0  0  0
    0.3362    2.2929   -2.2240 H   0  0  0  0  0  0  0  0  0  0  0  0
    2.7804    3.0648    3.1942 H   0  0  0  0  0  0  0  0  0  0  0  0
    3.1641    1.3434    3.6323 H   0  0  0  0  0  0  0  0  0  0  0  0
    1.4523    1.9520    3.6625 H   0  0  0  0  0  0  0  0  0  0  0  0
    5.6083    0.7805   -0.6598 H   0  0  0  0  0  0  0  0  0  0  0  0
    4.8991    1.4583   -2.1930 H   0  0  0  0  0  0  0  0  0  0  0  0
    4.5585   -0.2431   -1.7315 H   0  0  0  0  0  0  0  0  0  0  0  0
  2 15  1  0  0  0  0
  3 14  2  0  0  0  0
  5  6  1  0  0  0  0
  6  7  1  0  0  0  0
  6 17  1  0  0  0  0
  7 18  1  0  0  0  0
  8 19  1  0  0  0  0
  8  7  2  0  0  0  0
  9  8  1  0  0  0  0
 10  9  2  0  0  0  0
 10  5  1  0  0  0  0
 11 10  1  0  0  0  0
 11 12  1  0  0  0  0
 12 13  1  0  0  0  0
 13  1  2  0  0  0  0
 13  2  1  0  0  0  0
 14  4  1  0  0  0  0
 14 12  1  0  0  0  0
 15 23  1  0  0  0  0
 15 24  1  0  0  0  0
 15 25  1  0  0  0  0
 16 26  1  0  0  0  0
 16  4  1  0  0  0  0
 20  9  1  0  0  0  0
 21 11  1  0  0  0  0
 22 11  1  0  0  0  0
 27 16  1  0  0  0  0
 28 16  1  0  0  0  0
M  END
