1,4
q = -1.0

 32 34  0  0  0  0  0  0  0  0999 V2000
    2.1314   -0.6503   -0.4712 N   0  0  0  0  0  2  0  0  0  0  0  0
    4.6812   -1.5959    0.7720 N   0  0  0  0  0  0  0  0  0  0  0  0
    3.3083   -3.4187    0.9867 O   0  0  0  0  0  0  0  0  0  0  0  0
    0.6409    1.4275    0.2453 C   0  0  0  0  0  2  0  0  0  0  0  0
   -0.1145    2.5351    0.6773 C   0  0  0  0  0  0  0  0  0  0  0  0
   -1.2084    2.4703    0.7522 H   0  0  0  0  0  0  0  0  0  0  0  0
    0.4891    3.7516    1.0426 C   0  0  0  0  0  0  0  0  0  0  0  0
   -0.1445    4.5872    1.3799 H   0  0  0  0  0  0  0  0  0  0  0  0
    1.8840    3.8999    0.9993 C   0  0  0  0  0  0  0  0  0  0  0  0
    2.3579    4.8423    1.3118 H   0  0  0  0  0  0  0  0  0  0  0  0
    2.6688    2.8281    0.5606 C   0  0  0  0  0  0  0  0  0  0  0  0
    3.7644    2.9234    0.5444 H   0  0  0  0  0  0  0  0  0  0  0  0
    2.0633    1.6145    0.1616 C   0  0  0  0  0  0  0  0  0  0  0  0
    2.8298    0.4483   -0.2846 C   0  0  0  0  0  0  0  0  0  0  0  0
    2.8060   -1.8859   -0.8254 C   0  0  0  0  0  0  0  0  0  0  0  0
    3.4928   -1.7286   -1.6878 H   0  0  0  0  0  0  0  0  0  0  0  0
    2.0396   -2.6426   -1.0775 H   0  0  0  0  0  0  0  0  0  0  0  0
    3.5932   -2.3973    0.3819 C   0  0  0  0  0  0  0  0  0  0  0  0
    5.4869   -2.1001    1.8813 C   0  0  0  0  0  0  0  0  0  0  0  0
    4.8194   -2.6874    2.5374 H   0  0  0  0  0  0  0  0  0  0  0  0
    5.9292   -1.2517    2.4358 H   0  0  0  0  0  0  0  0  0  0  0  0
    6.2987   -2.7785    1.5404 H   0  0  0  0  0  0  0  0  0  0  0  0
    5.1632   -0.5119    0.0076 C   0  0  0  0  0  0  0  0  0  0  0  0
    6.5566   -0.3726   -0.1956 C   0  0  0  0  0  0  0  0  0  0  0  0
    7.2382   -1.1243    0.2246 H   0  0  0  0  0  0  0  0  0  0  0  0
    7.0746    0.6869   -0.9448 C   0  0  0  0  0  0  0  0  0  0  0  0
    8.1620    0.7608   -1.0971 H   0  0  0  0  0  0  0  0  0  0  0  0
    6.2127    1.6367   -1.5185 C   0  0  0  0  0  0  0  0  0  0  0  0
    6.6128    2.4571   -2.1319 H   0  0  0  0  0  0  0  0  0  0  0  0
    4.8369    1.5315   -1.2991 C   0  0  0  0  0  0  0  0  0  0  0  0
    4.1509    2.2695   -1.7386 H   0  0  0  0  0  0  0  0  0  0  0  0
    4.2881    0.4809   -0.5259 C   0  0  0  0  0  0  0  0  0  0  0  0
  1 14  1  0  0  0  0
  2 19  1  0  0  0  0
  4  5  1  0  0  0  0
  5  6  1  0  0  0  0
  5  7  2  0  0  0  0
  7  8  1  0  0  0  0
  9  7  1  0  0  0  0
  9 10  1  0  0  0  0
 11  9  2  0  0  0  0
 12 11  1  0  0  0  0
 13  4  1  0  0  0  0
 13 11  1  0  0  0  0
 14 13  2  0  0  0  0
 15  1  1  0  0  0  0
 15 18  1  0  0  0  0
 16 15  1  0  0  0  0
 17 15  1  0  0  0  0
 18  2  1  0  0  0  0
 18  3  2  0  0  0  0
 19 21  1  0  0  0  0
 19 20  1  0  0  0  0
 22 19  1  0  0  0  0
 23  2  1  0  0  0  0
 24 23  1  0  0  0  0
 24 25  1  0  0  0  0
 26 24  2  0  0  0  0
 27 26  1  0  0  0  0
 28 30  2  0  0  0  0
 28 26  1  0  0  0  0
 29 28  1  0  0  0  0
 30 32  1  0  0  0  0
 31 30  1  0  0  0  0
 32 14  1  0  0  0  0
 32 23  2  0  0  0  0
M  END
