1,12
q = -1.0, confidence = 0.102

 24 25  0  0  1  0  0  0  0  0999 V2000
    1.7522    0.1159    0.0755 N   0  0  0  0  0  2  0  0  0  0  0  0
    1.7139    1.4109   -0.3727 C   0  0  2  0  0  3  0  0  0  0  0  0
    2.8804    2.1829   -0.4457 C   0  0  0  0  0  0  0  0  0  0  0  0
    4.1046    1.6057   -0.0776 C   0  0  0  0  0  0  0  0  0  0  0  0
    4.1305    0.2662    0.3374 C   0  0  0  0  0  0  0  0  0  0  0  0
    2.9310   -0.4524    0.3972 C   0  0  0  0  0  0  0  0  0  0  0  0
    0.3401    1.8389   -0.7101 C   0  0  2  0  0  3  0  0  0  0  0  0
   -0.3168    2.8520   -0.0122 C   0  0  0  0  0  0  0  0  0  0  0  0
   -1.7157    2.8620    0.0389 C   0  0  0  0  0  0  0  0  0  0  0  0
   -2.4376    1.9485   -0.6681 N   0  0  0  0  0  0  0  0  0  0  0  0
   -1.8378    1.0493   -1.4832 C   0  0  0  0  0  3  0  0  0  0  0  0
   -0.4415    0.8827   -1.4477 C   0  0  0  0  0  3  0  0  0  0  0  0
   -3.8709    1.7769   -0.3963 C   0  0  0  0  0  0  0  0  0  0  0  0
    2.8208    3.2177   -0.8109 H   0  0  0  0  0  0  0  0  0  0  0  0
    5.0328    2.1936   -0.1289 H   0  0  0  0  0  0  0  0  0  0  0  0
    5.0703   -0.2277    0.6205 H   0  0  0  0  0  0  0  0  0  0  0  0
    2.8792   -1.5028    0.7177 H   0  0  0  0  0  0  0  0  0  0  0  0
    0.2384    3.5468    0.6321 H   0  0  0  0  0  0  0  0  0  0  0  0
   -2.2830    3.5442    0.6826 H   0  0  0  0  0  0  0  0  0  0  0  0
   -2.4906    0.3362   -2.0017 H   0  0  0  0  0  0  0  0  0  0  0  0
    0.0246    0.2060   -2.1803 H   0  0  0  0  0  0  0  0  0  0  0  0
   -4.2691    2.6778    0.1015 H   0  0  0  0  0  0  0  0  0  0  0  0
   -3.9798    0.8895    0.2610 H   0  0  0  0  0  0  0  0  0  0  0  0
   -4.4126    1.6041   -1.3442 H   0  0  0  0  0  0  0  0  0  0  0  0
  1  6  1  0  0  0  0
  2  3  1  1  0  0  0
  2  1  1  0  0  0  0
  3  4  2  0  0  0  0
  4  5  1  0  0  0  0
  5  6  2  0  0  0  0
  5 16  1  0  0  0  0
  6 17  1  0  0  0  0
  7 12  1  1  0  0  0
  7  2  1  0  0  0  0
  7  8  1  0  0  0  0
  8  9  2  0  0  0  0
  8 18  1  0  0  0  0
  9 19  1  0  0  0  0
 10 13  1  0  0  0  0
 10  9  1  0  0  0  0
 11 12  1  0  0  0  0
 11 10  1  0  0  0  0
 13 22  1  0  0  0  0
 13 23  1  0  0  0  0
 14  3  1  0  0  0  0
 15  4  1  0  0  0  0
 20 11  1  0  0  0  0
 21 12  1  0  0  0  0
 24 13  1  0  0  0  0
M  END
