1,6
q = -1.0, confidence = 0.0

 46 49  0  0  1  0  0  0  0  0999 V2000
    1.2881    1.2596    0.7535 N   0  0  0  0  0  2  0  0  0  0  0  0
   -0.0604    2.6668    1.8013 N   0  0  0  0  0  0  0  0  0  0  0  0
   -0.1469   -1.0436   -0.4677 C   0  0  0  0  0  0  0  0  0  0  0  0
    0.4602   -0.9797   -1.7576 C   0  0  0  0  0  0  0  0  0  0  0  0
    1.4403   -2.0045   -1.8458 C   0  0  0  0  0  0  0  0  0  0  0  0
    1.4271   -2.7361   -0.6212 C   0  0  0  0  0  3  0  0  0  0  0  0
    0.4560   -2.1461    0.2239 C   0  0  0  0  0  0  0  0  0  0  0  0
   -1.3339   -0.2741    0.1084 C   0  0  0  0  0  0  0  0  0  0  0  0
   -0.9148    0.3054    1.4983 C   0  0  0  0  0  0  0  0  0  0  0  0
    0.1003    1.3824    1.3588 C   0  0  1  0  0  3  0  0  0  0  0  0
    1.9179    2.4856    0.8282 C   0  0  0  0  0  0  0  0  0  0  0  0
    1.0874    3.3730    1.4768 C   0  0  0  0  0  0  0  0  0  0  0  0
   -1.8335    0.9235   -0.7259 C   0  0  0  0  0  0  0  0  0  0  0  0
   -3.2012    1.2721   -0.6780 C   0  0  0  0  0  0  0  0  0  0  0  0
   -3.6778    2.4367   -1.2986 C   0  0  0  0  0  0  0  0  0  0  0  0
   -2.7939    3.2841   -1.9842 C   0  0  0  0  0  0  0  0  0  0  0  0
   -1.4322    2.9530   -2.0358 C   0  0  0  0  0  0  0  0  0  0  0  0
   -0.9530    1.7905   -1.4107 C   0  0  0  0  0  0  0  0  0  0  0  0
   -2.4447   -1.3347    0.2541 C   0  0  0  0  0  0  0  0  0  0  0  0
   -2.9417   -1.9416   -0.9198 C   0  0  0  0  0  0  0  0  0  0  0  0
   -3.9343   -2.9255   -0.8583 C   0  0  0  0  0  0  0  0  0  0  0  0
   -4.4503   -3.3316    0.3848 C   0  0  0  0  0  0  0  0  0  0  0  0
   -3.9602   -2.7429    1.5571 C   0  0  0  0  0  0  0  0  0  0  0  0
   -2.9643   -1.7516    1.4923 C   0  0  0  0  0  0  0  0  0  0  0  0
   -1.2679    3.2291    2.3840 C   0  0  0  0  0  0  0  0  0  0  0  0
    0.2526   -0.2402   -2.5352 H   0  0  0  0  0  0  0  0  0  0  0  0
   -5.2291   -4.1073    0.4364 H   0  0  0  0  0  0  0  0  0  0  0  0
   -1.8115    0.7009    2.0096 H   0  0  0  0  0  0  0  0  0  0  0  0
    0.1256    1.5861   -1.4535 H   0  0  0  0  0  0  0  0  0  0  0  0
   -1.5493    2.6938    3.3119 H   0  0  0  0  0  0  0  0  0  0  0  0
    0.2197   -2.4734    1.2409 H   0  0  0  0  0  0  0  0  0  0  0  0
   -3.9074    0.6178   -0.1462 H   0  0  0  0  0  0  0  0  0  0  0  0
   -0.4841   -0.4959    2.1352 H   0  0  0  0  0  0  0  0  0  0  0  0
   -3.1655    4.1956   -2.4765 H   0  0  0  0  0  0  0  0  0  0  0  0
   -4.3072   -3.3829   -1.7874 H   0  0  0  0  0  0  0  0  0  0  0  0
    2.0998   -3.5568   -0.3507 H   0  0  0  0  0  0  0  0  0  0  0  0
    2.1329   -2.1555   -2.6811 H   0  0  0  0  0  0  0  0  0  0  0  0
   -2.5980   -1.3134    2.4309 H   0  0  0  0  0  0  0  0  0  0  0  0
   -2.1080    3.1788    1.6619 H   0  0  0  0  0  0  0  0  0  0  0  0
   -4.7506    2.6784   -1.2481 H   0  0  0  0  0  0  0  0  0  0  0  0
    1.2061    4.4307    1.7292 H   0  0  0  0  0  0  0  0  0  0  0  0
    2.9045    2.6456    0.3849 H   0  0  0  0  0  0  0  0  0  0  0  0
   -2.5382   -1.6302   -1.8953 H   0  0  0  0  0  0  0  0  0  0  0  0
   -0.7206    3.6047   -2.5652 H   0  0  0  0  0  0  0  0  0  0  0  0
   -4.3514   -3.0543    2.5376 H   0  0  0  0  0  0  0  0  0  0  0  0
   -1.0801    4.2878    2.6364 H   0  0  0  0  0  0  0  0  0  0  0  0
  1 11  1  0  0  0  0
  1 10  1  0  0  0  0
  2 25  1  0  0  0  0
  3  8  1  0  0  0  0
  3  7  2  0  0  0  0
  4  3  1  0  0  0  0
  5  4  2  0  0  0  0
  5  6  1  0  0  0  0
  6 36  1  0  0  0  0
  6  7  1  0  0  0  0
  7 31  1  0  0  0  0
  8 19  1  0  0  0  0
  8  9  1  0  0  0  0
  9 28  1  0  0  0  0
  9 33  1  0  0  0  0
 10  9  1  6  0  0  0
 10  2  1  0  0  0  0
 11 12  2  0  0  0  0
 12 41  1  0  0  0  0
 12  2  1  0  0  0  0
 13 14  1  0  0  0  0
 13  8  1  0  0  0  0
 14 32  1  0  0  0  0
 15 40  1  0  0  0  0
 15 14  2  0  0  0  0
 16 15  1  0  0  0  0
 17 16  2  0  0  0  0
 17 18  1  0  0  0  0
 18 13  2  0  0  0  0
 19 24  1  0  0  0  0
 20 21  1  0  0  0  0
 20 19  2  0  0  0  0
 21 22  2  0  0  0  0
 22 27  1  0  0  0  0
 22 23  1  0  0  0  0
 23 45  1  0  0  0  0
 24 23  2  0  0  0  0
 24 38  1  0  0  0  0
 25 46  1  0  0  0  0
 25 30  1  0  0  0  0
 26  4  1  0  0  0  0
 29 18  1  0  0  0  0
 34 16  1  0  0  0  0
 35 21  1  0  0  0  0
 37  5  1  0  0  0  0
 39 25  1  0  0  0  0
 42 11  1  0  0  0  0
 43 20  1  0  0  0  0
 44 17  1  0  0  0  0
M  END
