1,5
q = -1.0

 22 21  0  0  1  0  0  0  0  0999 V2000
    0.0883    2.0464    0.2649 N   0  0  0  0  0  2  0  0  0  0  0  0
    2.9692    0.2295    0.5473 N   0  0  0  0  0  0  0  0  0  0  0  0
    1.3633    1.9974    0.5458 C   0  0  2  0  0  3  0  0  0  0  0  0
    2.2686    3.1129    0.9640 C   0  0  0  0  0  0  0  0  0  0  0  0
    1.7599    0.5894    0.3062 C   0  0  0  0  0  3  0  0  0  0  0  0
    3.4083   -1.1218    0.2675 C   0  0  0  0  0  0  0  0  0  0  0  0
    4.4600   -1.1230   -0.8464 C   0  0  0  0  0  0  0  0  0  0  0  0
   -0.7070    3.2608    0.2841 C   0  0  0  0  0  0  0  0  0  0  0  0
   -0.7009    3.9755   -1.0716 C   0  0  0  0  0  0  0  0  0  0  0  0
    1.8495    3.6932    1.8114 H   0  0  0  0  0  0  0  0  0  0  0  0
    2.4344    3.8245    0.1278 H   0  0  0  0  0  0  0  0  0  0  0  0
    3.2427    2.6745    1.2507 H   0  0  0  0  0  0  0  0  0  0  0  0
    3.8700   -1.5225    1.1988 H   0  0  0  0  0  0  0  0  0  0  0  0
    2.5611   -1.7902   -0.0096 H   0  0  0  0  0  0  0  0  0  0  0  0
    5.2874   -0.4264   -0.6043 H   0  0  0  0  0  0  0  0  0  0  0  0
    4.0032   -0.8079   -1.8049 H   0  0  0  0  0  0  0  0  0  0  0  0
    4.8803   -2.1394   -0.9831 H   0  0  0  0  0  0  0  0  0  0  0  0
   -1.7462    2.9779    0.5497 H   0  0  0  0  0  0  0  0  0  0  0  0
   -0.3350    3.9456    1.0788 H   0  0  0  0  0  0  0  0  0  0  0  0
   -1.3285    4.8873   -1.0211 H   0  0  0  0  0  0  0  0  0  0  0  0
   -1.0998    3.3194   -1.8679 H   0  0  0  0  0  0  0  0  0  0  0  0
    0.3257    4.2788   -1.3584 H   0  0  0  0  0  0  0  0  0  0  0  0
  1  8  1  0  0  0  0
  1  3  1  0  0  0  0
  3  5  1  6  0  0  0
  3  4  1  0  0  0  0
  4 12  1  0  0  0  0
  4 10  1  0  0  0  0
  5  2  2  0  0  0  0
  6  2  1  0  0  0  0
  6 13  1  0  0  0  0
  7 15  1  0  0  0  0
  7  6  1  0  0  0  0
  8 18  1  0  0  0  0
  8 19  1  0  0  0  0
  9 20  1  0  0  0  0
  9  8  1  0  0  0  0
 11  4  1  0  0  0  0
 14  6  1  0  0  0  0
 16  7  1  0  0  0  0
 17  7  1  0  0  0  0
 21  9  1  0  0  0  0
 22  9  1  0  0  0  0
M  END
