1,3
q = -1.0, confidence = 0.0

 19 18  0  0  0  0  0  0  0  0999 V2000
   -1.4046   -0.2768    0.7228 N   0  0  0  0  0  2  0  0  0  0  0  0
   -0.9990    0.7245    1.5254 C   0  0  0  0  0  3  0  0  0  0  0  0
    0.1736    0.4668    2.2931 C   0  0  0  0  0  3  0  0  0  0  0  0
   -2.6845   -0.1877   -0.0181 C   0  0  0  0  0  0  0  0  0  0  0  0
   -2.5591   -1.0233   -1.3007 C   0  0  0  0  0  0  0  0  0  0  0  0
   -3.7325   -0.8397    0.9116 C   0  0  0  0  0  0  0  0  0  0  0  0
   -3.1369    1.2424   -0.3689 C   0  0  0  0  0  0  0  0  0  0  0  0
   -1.4552    1.7347    1.4904 H   0  0  0  0  0  0  0  0  0  0  0  0
    0.6260    1.2953    2.8565 H   0  0  0  0  0  0  0  0  0  0  0  0
    0.2864   -0.5361    2.7324 H   0  0  0  0  0  0  0  0  0  0  0  0
   -2.2044   -2.0458   -1.0635 H   0  0  0  0  0  0  0  0  0  0  0  0
   -1.8421   -0.5613   -2.0063 H   0  0  0  0  0  0  0  0  0  0  0  0
   -3.5416   -1.1049   -1.8065 H   0  0  0  0  0  0  0  0  0  0  0  0
   -3.8225   -0.2694    1.8582 H   0  0  0  0  0  0  0  0  0  0  0  0
   -3.4374   -1.8773    1.1634 H   0  0  0  0  0  0  0  0  0  0  0  0
   -4.7278   -0.8613    0.4233 H   0  0  0  0  0  0  0  0  0  0  0  0
   -2.3803    1.7770   -0.9734 H   0  0  0  0  0  0  0  0  0  0  0  0
   -3.3565    1.8451    0.5350 H   0  0  0  0  0  0  0  0  0  0  0  0
   -4.0718    1.1997   -0.9620 H   0  0  0  0  0  0  0  0  0  0  0  0
  1  2  1  0  0  0  0
  2  3  1  0  0  0  0
  3 10  1  0  0  0  0
  3  9  1  0  0  0  0
  4  1  1  0  0  0  0
  4  6  1  0  0  0  0
  5 11  1  0  0  0  0
  5  4  1  0  0  0  0
  6 15  1  0  0  0  0
  6 14  1  0  0  0  0
  7  4  1  0  0  0  0
  7 18  1  0  0  0  0
  8  2  1  0  0  0  0
 12  5  1  0  0  0  0
 13  5  1  0  0  0  0
 16  6  1  0  0  0  0
 17  7  1  0  0  0  0
 19  7  1  0  0  0  0
M  END
