2,4
q = 0.0, confidence = 0.91

 47 50  0  0  1  0  0  0  0  0999 V2000
   -2.8165    0.1515    0.1442 P   0  0  0  0  0  4  0  0  0  0  0  0
    0.7072   -1.6979   -0.2966 N   0  0  0  0  0  2  0  0  0  0  0  0
    0.4799    1.4722    1.1391 N   0  0  0  0  0  2  0  0  0  0  0  0
   -0.1380    0.5217    0.6961 C   0  0  0  0  0  3  0  0  0  0  0  0
   -1.1587   -0.3708    0.2928 C   0  0  2  0  0  3  0  0  0  0  0  0
   -0.6689   -1.6514   -0.1526 C   0  0  2  0  0  3  0  0  0  0  0  0
   -1.4548   -2.8039   -0.3986 C   0  0  0  0  0  0  0  0  0  0  0  0
   -0.8407   -4.0059   -0.7475 C   0  0  0  0  0  0  0  0  0  0  0  0
    0.5632   -4.0571   -0.8213 C   0  0  0  0  0  0  0  0  0  0  0  0
    1.2876   -2.8881   -0.5798 C   0  0  0  0  0  0  0  0  0  0  0  0
   -3.4620   -0.1878   -1.5302 C   0  0  0  0  0  0  0  0  0  0  0  0
   -2.5309   -0.3465   -2.5774 C   0  0  0  0  0  0  0  0  0  0  0  0
   -2.9983   -0.4885   -3.8927 C   0  0  0  0  0  0  0  0  0  0  0  0
   -4.3745   -0.4633   -4.1666 C   0  0  0  0  0  0  0  0  0  0  0  0
   -5.2970   -0.2705   -3.1244 C   0  0  0  0  0  0  0  0  0  0  0  0
   -4.8447   -0.1230   -1.8057 C   0  0  0  0  0  0  0  0  0  0  0  0
   -2.8982    1.9588    0.3285 C   0  0  0  0  0  0  0  0  0  0  0  0
   -1.9760    2.7230   -0.4208 C   0  0  0  0  0  0  0  0  0  0  0  0
   -2.0605    4.1210   -0.3781 C   0  0  0  0  0  0  0  0  0  0  0  0
   -3.0533    4.7533    0.3880 C   0  0  0  0  0  0  0  0  0  0  0  0
   -3.9779    3.9872    1.1149 C   0  0  0  0  0  0  0  0  0  0  0  0
   -3.9066    2.5864    1.0855 C   0  0  0  0  0  0  0  0  0  0  0  0
   -3.9092   -0.6302    1.3898 C   0  0  0  0  0  0  0  0  0  0  0  0
   -4.8097   -1.6699    1.0815 C   0  0  0  0  0  0  0  0  0  0  0  0
   -5.4977   -2.3311    2.1115 C   0  0  0  0  0  0  0  0  0  0  0  0
   -5.2935   -1.9614    3.4489 C   0  0  0  0  0  0  0  0  0  0  0  0
   -4.3829   -0.9368    3.7617 C   0  0  0  0  0  0  0  0  0  0  0  0
   -3.6834   -0.2817    2.7410 C   0  0  0  0  0  0  0  0  0  0  0  0
   -2.5449   -2.7484   -0.2748 H   0  0  0  0  0  0  0  0  0  0  0  0
   -1.4479   -4.9049   -0.9317 H   0  0  0  0  0  0  0  0  0  0  0  0
    1.0981   -4.9872   -1.0567 H   0  0  0  0  0  0  0  0  0  0  0  0
    2.3845   -2.8852   -0.6181 H   0  0  0  0  0  0  0  0  0  0  0  0
   -1.4453   -0.3056   -2.3740 H   0  0  0  0  0  0  0  0  0  0  0  0
   -2.2705   -0.6073   -4.7094 H   0  0  0  0  0  0  0  0  0  0  0  0
   -4.7329   -0.5770   -5.2012 H   0  0  0  0  0  0  0  0  0  0  0  0
   -6.3751   -0.2238   -3.3402 H   0  0  0  0  0  0  0  0  0  0  0  0
   -5.5682    0.0595   -0.9970 H   0  0  0  0  0  0  0  0  0  0  0  0
   -1.1894    2.2354   -1.0254 H   0  0  0  0  0  0  0  0  0  0  0  0
   -1.3360    4.7191   -0.9510 H   0  0  0  0  0  0  0  0  0  0  0  0
   -3.1093    5.8522    0.4167 H   0  0  0  0  0  0  0  0  0  0  0  0
   -4.7608    4.4804    1.7105 H   0  0  0  0  0  0  0  0  0  0  0  0
   -4.6347    1.9871    1.6516 H   0  0  0  0  0  0  0  0  0  0  0  0
   -4.9714   -1.9725    0.0367 H   0  0  0  0  0  0  0  0  0  0  0  0
   -6.1972   -3.1434    1.8631 H   0  0  0  0  0  0  0  0  0  0  0  0
   -5.8363   -2.4801    4.2533 H   0  0  0  0  0  0  0  0  0  0  0  0
   -4.2081   -0.6532    4.8104 H   0  0  0  0  0  0  0  0  0  0  0  0
   -2.9455    0.4967    2.9916 H   0  0  0  0  0  0  0  0  0  0  0  0
  1  5  1  0  0  0  0
  1 17  1  0  0  0  0
  1 23  1  0  0  0  0
  2  6  1  0  0  0  0
  4  3  2  0  0  0  0
  5  4  1  6  0  0  0
  6  5  1  1  0  0  0
  7 29  1  0  0  0  0
  7  6  1  0  0  0  0
  8  7  2  0  0  0  0
  9  8  1  0  0  0  0
  9 10  2  0  0  0  0
 10  2  1  0  0  0  0
 11  1  1  0  0  0  0
 12 33  1  0  0  0  0
 12 11  2  0  0  0  0
 13 12  1  0  0  0  0
 14 13  2  0  0  0  0
 14 15  1  0  0  0  0
 15 16  2  0  0  0  0
 16 11  1  0  0  0  0
 16 37  1  0  0  0  0
 17 22  1  0  0  0  0
 18 19  1  0  0  0  0
 18 17  2  0  0  0  0
 19 20  2  0  0  0  0
 20 40  1  0  0  0  0
 20 21  1  0  0  0  0
 21 41  1  0  0  0  0
 22 21  2  0  0  0  0
 22 42  1  0  0  0  0
 23 28  1  0  0  0  0
 24 23  2  0  0  0  0
 24 25  1  0  0  0  0
 25 26  2  0  0  0  0
 26 27  1  0  0  0  0
 26 45  1  0  0  0  0
 27 46  1  0  0  0  0
 28 47  1  0  0  0  0
 28 27  2  0  0  0  0
 30  8  1  0  0  0  0
 31  9  1  0  0  0  0
 32 10  1  0  0  0  0
 34 13  1  0  0  0  0
 35 14  1  0  0  0  0
 36 15  1  0  0  0  0
 38 18  1  0  0  0  0
 39 19  1  0  0  0  0
 43 24  1  0  0  0  0
 44 25  1  0  0  0  0
M  END
