2,4
q = -1.0, confidence = 0.002

 29 31  0  0  0  0  0  0  0  0999 V2000
    6.5273   -0.8850   -0.1127 O   0  0  0  0  0  0  0  0  0  0  0  0
    2.2901    0.6438    0.0869 N   0  0  0  0  0  2  0  0  0  0  0  0
    5.2346   -1.3052   -0.0458 N   0  0  0  0  0  0  0  0  0  0  0  0
    0.6977   -1.5011    0.1694 C   0  0  0  0  0  2  0  0  0  0  0  0
   -0.1118   -2.6468    0.2944 C   0  0  0  0  0  0  0  0  0  0  0  0
   -1.2046   -2.5605    0.3587 H   0  0  0  0  0  0  0  0  0  0  0  0
    0.4339   -3.9421    0.3338 C   0  0  0  0  0  0  0  0  0  0  0  0
   -0.2427   -4.8064    0.4282 H   0  0  0  0  0  0  0  0  0  0  0  0
    1.8223   -4.1420    0.2513 C   0  0  0  0  0  0  0  0  0  0  0  0
    2.2424   -5.1587    0.2758 H   0  0  0  0  0  0  0  0  0  0  0  0
    2.6660   -3.0336    0.1491 C   0  0  0  0  0  0  0  0  0  0  0  0
    3.7572   -3.1505    0.0989 H   0  0  0  0  0  0  0  0  0  0  0  0
    2.1172   -1.7292    0.1182 C   0  0  0  0  0  0  0  0  0  0  0  0
    2.9207   -0.5307    0.0633 C   0  0  0  0  0  0  0  0  0  0  0  0
    4.3871   -0.3115   -0.0081 C   0  0  0  0  0  0  0  0  0  0  0  0
    4.5634    1.1424   -0.0260 C   0  0  0  0  0  0  0  0  0  0  0  0
    5.6826    1.9841   -0.0853 C   0  0  0  0  0  0  0  0  0  0  0  0
    6.6940    1.5616   -0.1304 H   0  0  0  0  0  0  0  0  0  0  0  0
    5.4683    3.3758   -0.0852 C   0  0  0  0  0  0  0  0  0  0  0  0
    6.3307    4.0575   -0.1313 H   0  0  0  0  0  0  0  0  0  0  0  0
    4.1651    3.9006   -0.0268 C   0  0  0  0  0  0  0  0  0  0  0  0
    4.0214    4.9920   -0.0278 H   0  0  0  0  0  0  0  0  0  0  0  0
    3.0316    3.0658    0.0334 C   0  0  0  0  0  0  0  0  0  0  0  0
    2.0032    3.4542    0.0797 H   0  0  0  0  0  0  0  0  0  0  0  0
    3.2462    1.6852    0.0330 C   0  0  0  0  0  0  0  0  0  0  0  0
    7.4137   -2.0043   -0.1517 C   0  0  0  0  0  0  0  0  0  0  0  0
    8.4312   -1.5759   -0.2068 H   0  0  0  0  0  0  0  0  0  0  0  0
    7.2165   -2.6318   -1.0453 H   0  0  0  0  0  0  0  0  0  0  0  0
    7.3101   -2.6208    0.7650 H   0  0  0  0  0  0  0  0  0  0  0  0
  1  3  1  0  0  0  0
  3 15  2  0  0  0  0
  4  5  1  0  0  0  0
  5  7  2  0  0  0  0
  5  6  1  0  0  0  0
  7  8  1  0  0  0  0
  9 10  1  0  0  0  0
  9  7  1  0  0  0  0
 11  9  2  0  0  0  0
 12 11  1  0  0  0  0
 13 11  1  0  0  0  0
 13  4  1  0  0  0  0
 14  2  1  0  0  0  0
 14 13  2  0  0  0  0
 15 14  1  0  0  0  0
 16 15  1  0  0  0  0
 16 25  1  0  0  0  0
 17 19  1  0  0  0  0
 17 16  2  0  0  0  0
 18 17  1  0  0  0  0
 19 21  2  0  0  0  0
 20 19  1  0  0  0  0
 21 23  1  0  0  0  0
 22 21  1  0  0  0  0
 23 24  1  0  0  0  0
 25 23  2  0  0  0  0
 25  2  1  0  0  0  0
 26  1  1  0  0  0  0
 26 29  1  0  0  0  0
 27 26  1  0  0  0  0
 28 26  1  0  0  0  0
M  END
