2,26
q = -1.0

 35 36  0  0  1  0  0  0  0  0999 V2000
   -3.2508   -1.9459   -0.4739 N   0  0  0  0  0  2  0  0  0  0  0  0
   -1.9561   -2.6379   -0.3692 N   0  0  0  0  0  0  0  0  0  0  0  0
   -5.4837   -0.2281    0.1998 C   0  0  0  0  0  0  0  0  0  0  0  0
   -5.9551   -0.8448   -0.5912 H   0  0  0  0  0  0  0  0  0  0  0  0
   -6.1899    0.5823    0.4719 H   0  0  0  0  0  0  0  0  0  0  0  0
   -5.3406   -0.8867    1.0789 H   0  0  0  0  0  0  0  0  0  0  0  0
   -4.1624    0.3419   -0.2800 C   0  0  2  0  0  0  0  0  0  0  0  0
   -1.7657   -3.4965   -1.5543 C   0  0  0  0  0  0  0  0  0  0  0  0
   -1.7073   -2.8597   -2.4564 H   0  0  0  0  0  0  0  0  0  0  0  0
   -2.6178   -4.2042   -1.6556 H   0  0  0  0  0  0  0  0  0  0  0  0
   -0.8129   -4.0449   -1.4290 H   0  0  0  0  0  0  0  0  0  0  0  0
   -2.1736    1.4906   -0.3052 C   0  0  2  0  0  0  0  0  0  0  0  0
   -1.3521    2.1190    0.0768 H   0  0  0  0  0  0  0  0  0  0  0  0
   -2.8306    0.5016    1.9846 C   0  0  0  0  0  0  0  0  0  0  0  0
   -3.6830    0.1334    2.5916 H   0  0  0  0  0  0  0  0  0  0  0  0
   -2.2420    1.1950    2.6201 H   0  0  0  0  0  0  0  0  0  0  0  0
   -2.1738   -0.3585    1.7462 H   0  0  0  0  0  0  0  0  0  0  0  0
   -2.0517   -3.4669    0.8537 C   0  0  0  0  0  0  0  0  0  0  0  0
   -1.0794   -3.9736    1.0002 H   0  0  0  0  0  0  0  0  0  0  0  0
   -2.8849   -4.1950    0.7507 H   0  0  0  0  0  0  0  0  0  0  0  0
   -2.2513   -2.8064    1.7170 H   0  0  0  0  0  0  0  0  0  0  0  0
   -3.0749   -0.6757   -0.5610 C   0  0  1  0  0  3  0  0  0  0  0  0
   -2.9416    2.1106   -1.4963 C   0  0  0  0  0  0  0  0  0  0  0  0
   -3.1463    3.1868   -1.3280 H   0  0  0  0  0  0  0  0  0  0  0  0
   -2.3577    2.0394   -2.4349 H   0  0  0  0  0  0  0  0  0  0  0  0
   -1.7739    0.0602   -0.7571 C   0  0  0  0  0  3  0  0  0  0  0  0
   -1.5265    0.0611   -1.8456 H   0  0  0  0  0  0  0  0  0  0  0  0
   -3.3165    1.2382    0.7277 C   0  0  0  0  0  0  0  0  0  0  0  0
   -4.0600    2.5021    1.1794 C   0  0  0  0  0  0  0  0  0  0  0  0
   -4.5599    3.0444    0.3552 H   0  0  0  0  0  0  0  0  0  0  0  0
   -3.3489    3.2053    1.6608 H   0  0  0  0  0  0  0  0  0  0  0  0
   -4.8364    2.2508    1.9305 H   0  0  0  0  0  0  0  0  0  0  0  0
   -4.2523    1.2719   -1.5308 C   0  0  0  0  0  0  0  0  0  0  0  0
   -4.3612    0.6710   -2.4555 H   0  0  0  0  0  0  0  0  0  0  0  0
   -5.1570    1.9085   -1.4579 H   0  0  0  0  0  0  0  0  0  0  0  0
  1  2  1  0  0  0  0
  2 18  1  0  0  0  0
  3  5  1  0  0  0  0
  3  6  1  0  0  0  0
  4  3  1  0  0  0  0
  7  3  1  1  0  0  0
  7 28  1  0  0  0  0
  8 11  1  0  0  0  0
  8  2  1  0  0  0  0
  9  8  1  0  0  0  0
 10  8  1  0  0  0  0
 12 13  1  1  0  0  0
 12 28  1  0  0  0  0
 14 15  1  0  0  0  0
 14 16  1  0  0  0  0
 17 14  1  0  0  0  0
 18 19  1  0  0  0  0
 18 21  1  0  0  0  0
 20 18  1  0  0  0  0
 22  1  1  1  0  0  0
 22  7  1  0  0  0  0
 23 24  1  0  0  0  0
 23 12  1  0  0  0  0
 25 23  1  0  0  0  0
 26 22  1  0  0  0  0
 26 12  1  0  0  0  0
 27 26  1  0  0  0  0
 28 29  1  0  0  0  0
 28 14  1  0  0  0  0
 29 31  1  0  0  0  0
 29 32  1  0  0  0  0
 30 29  1  0  0  0  0
 33 23  1  0  0  0  0
 33 35  1  0  0  0  0
 33  7  1  0  0  0  0
 34 33  1  0  0  0  0
M  END
