1,2
q = -1.0

 17 17  0  0  1  0  0  0  0  0999 V2000
    0.7426   -1.8796   -0.1353 N   0  0  0  0  0  2  0  0  0  0  0  0
    1.5208    0.5512    0.0092 C   0  0  0  0  0  3  0  0  0  0  0  0
    1.9201    1.9001    0.0112 C   0  0  0  0  0  0  0  0  0  0  0  0
    1.1696    2.6958   -0.1066 H   0  0  0  0  0  0  0  0  0  0  0  0
    3.2748    2.2482    0.1399 C   0  0  0  0  0  0  0  0  0  0  0  0
    3.5618    3.3120    0.1523 H   0  0  0  0  0  0  0  0  0  0  0  0
    4.2728    1.2580    0.2371 C   0  0  0  0  0  0  0  0  0  0  0  0
    5.3307    1.5449    0.3311 H   0  0  0  0  0  0  0  0  0  0  0  0
    3.9091   -0.0910    0.1877 C   0  0  0  0  0  0  0  0  0  0  0  0
    4.6843   -0.8727    0.2262 H   0  0  0  0  0  0  0  0  0  0  0  0
    2.5461   -0.4442    0.0735 C   0  0  0  0  0  0  0  0  0  0  0  0
    2.0476   -1.8051   -0.0483 C   0  0  2  0  0  3  0  0  0  0  0  0
    2.9386   -3.0093   -0.1054 C   0  0  0  0  0  0  0  0  0  0  0  0
    2.3543   -3.9466   -0.1790 H   0  0  0  0  0  0  0  0  0  0  0  0
    3.5842   -3.0653    0.7950 H   0  0  0  0  0  0  0  0  0  0  0  0
    3.6141   -2.9484   -0.9835 H   0  0  0  0  0  0  0  0  0  0  0  0
    0.3441   -2.8155   -0.2799 H   0  0  0  0  0  0  0  0  0  0  0  0
  2  3  2  0  0  0  0
  2 11  1  0  0  0  0
  3  5  1  0  0  0  0
  4  3  1  0  0  0  0
  5  6  1  0  0  0  0
  5  7  2  0  0  0  0
  7  8  1  0  0  0  0
  9 10  1  0  0  0  0
  9  7  1  0  0  0  0
 11  9  2  0  0  0  0
 12  1  1  6  0  0  0
 12 11  1  0  0  0  0
 13 12  1  0  0  0  0
 13 15  1  0  0  0  0
 14 13  1  0  0  0  0
 16 13  1  0  0  0  0
 17  1  1  0  0  0  0
M  END
