4,5
q = -1.0

 19 20  0  0  0  0  0  0  0  0999 V2000
   -2.9660   -3.9973    0.0002 F   0  0  0  0  0  0  0  0  0  0  0  0
   -4.6420    0.1892    0.0001 F   0  0  0  0  0  0  0  0  0  0  0  0
   -3.7662   -1.8880    0.0002 N   0  0  0  0  0  0  0  0  0  0  0  0
   -0.5808    1.6640   -0.0001 N   0  0  0  0  0  2  0  0  0  0  0  0
   -1.1308   -0.8752   -0.0000 C   0  0  0  0  0  2  0  0  0  0  0  0
   -1.3673   -2.2598    0.0000 C   0  0  0  0  0  0  0  0  0  0  0  0
   -0.5421   -2.9846   -0.0000 H   0  0  0  0  0  0  0  0  0  0  0  0
   -2.7016   -2.6837    0.0002 C   0  0  0  0  0  0  0  0  0  0  0  0
   -3.5399   -0.5909    0.0001 C   0  0  0  0  0  0  0  0  0  0  0  0
   -2.2636    0.0065    0.0000 C   0  0  0  0  0  0  0  0  0  0  0  0
   -1.9414    1.4259    0.0000 C   0  0  0  0  0  0  0  0  0  0  0  0
   -2.8349    2.5157    0.0000 C   0  0  0  0  0  0  0  0  0  0  0  0
   -3.9120    2.3124    0.0000 H   0  0  0  0  0  0  0  0  0  0  0  0
   -2.3389    3.8225   -0.0000 C   0  0  0  0  0  0  0  0  0  0  0  0
   -3.0352    4.6743    0.0000 H   0  0  0  0  0  0  0  0  0  0  0  0
   -0.9500    4.0355   -0.0000 C   0  0  0  0  0  0  0  0  0  0  0  0
   -0.5208    5.0469   -0.0001 H   0  0  0  0  0  0  0  0  0  0  0  0
   -0.1011    2.9280   -0.0001 C   0  0  0  0  0  0  0  0  0  0  0  0
    0.9968    3.0080   -0.0001 H   0  0  0  0  0  0  0  0  0  0  0  0
  4 11  1  0  0  0  0
  5 10  1  0  0  0  0
  5  6  1  0  0  0  0
  6  8  2  0  0  0  0
  7  6  1  0  0  0  0
  8  3  1  0  0  0  0
  8  1  1  0  0  0  0
  9  2  1  0  0  0  0
  9  3  2  0  0  0  0
 10  9  1  0  0  0  0
 11 12  1  0  0  0  0
 11 10  2  0  0  0  0
 12 13  1  0  0  0  0
 14 15  1  0  0  0  0
 14 12  2  0  0  0  0
 16 14  1  0  0  0  0
 17 16  1  0  0  0  0
 18  4  1  0  0  0  0
 18 16  2  0  0  0  0
 19 18  1  0  0  0  0
M  END
