3,16
q = 0.0, confidence = 0.99

 27 28  0  0  0  0  0  0  0  0999 V2000
   -0.3827   -1.6539   -0.5623 N   0  0  0  0  0  0  0  0  0  0  0  0
    0.0039   -2.6052   -0.6513 H   0  0  0  0  0  0  0  0  0  0  0  0
   -1.7678    0.7191   -1.2184 N   0  0  0  0  0  0  0  0  0  0  0  0
   -1.3016    0.5163   -2.1126 H   0  0  0  0  0  0  0  0  0  0  0  0
   -2.3871    1.5231   -1.3648 H   0  0  0  0  0  0  0  0  0  0  0  0
   -2.4968   -0.4160   -0.7497 C   0  0  0  0  0  0  0  0  0  0  0  0
   -3.8842   -0.3759   -0.5507 C   0  0  0  0  0  0  0  0  0  0  0  0
   -4.4245    0.5622   -0.7523 H   0  0  0  0  0  0  0  0  0  0  0  0
   -4.5795   -1.5149   -0.1178 C   0  0  0  0  0  0  0  0  0  0  0  0
   -5.6670   -1.4644    0.0367 H   0  0  0  0  0  0  0  0  0  0  0  0
   -3.8859   -2.7150    0.0987 C   0  0  0  0  0  0  0  0  0  0  0  0
   -4.4229   -3.6180    0.4230 H   0  0  0  0  0  0  0  0  0  0  0  0
   -2.4967   -2.7578   -0.0766 C   0  0  0  0  0  0  0  0  0  0  0  0
   -1.9379   -3.6846    0.1270 H   0  0  0  0  0  0  0  0  0  0  0  0
   -1.7887   -1.6092   -0.4736 C   0  0  0  0  0  0  0  0  0  0  0  0
    0.4892   -0.6387   -0.3356 C   0  0  0  0  0  2  0  0  0  0  0  0
    1.8764   -1.1471   -0.2269 C   0  0  0  0  0  0  0  0  0  0  0  0
    2.1513   -2.3087    0.5409 C   0  0  0  0  0  0  0  0  0  0  0  0
    1.3336   -2.8094    1.0839 H   0  0  0  0  0  0  0  0  0  0  0  0
    3.4610   -2.7862    0.6827 C   0  0  0  0  0  0  0  0  0  0  0  0
    3.6548   -3.6709    1.3082 H   0  0  0  0  0  0  0  0  0  0  0  0
    4.5219   -2.1294    0.0408 C   0  0  0  0  0  0  0  0  0  0  0  0
    5.5510   -2.5040    0.1486 H   0  0  0  0  0  0  0  0  0  0  0  0
    4.2642   -0.9805   -0.7261 C   0  0  0  0  0  0  0  0  0  0  0  0
    5.0912   -0.4571   -1.2290 H   0  0  0  0  0  0  0  0  0  0  0  0
    2.9618   -0.4834   -0.8456 C   0  0  0  0  0  0  0  0  0  0  0  0
    2.7712    0.4224   -1.4354 H   0  0  0  0  0  0  0  0  0  0  0  0
  1 15  1  0  0  0  0
  1 16  1  0  0  0  0
  2  1  1  0  0  0  0
  3  6  1  0  0  0  0
  4  3  1  0  0  0  0
  5  3  1  0  0  0  0
  6  7  2  0  0  0  0
  6 15  1  0  0  0  0
  7  9  1  0  0  0  0
  8  7  1  0  0  0  0
  9 10  1  0  0  0  0
  9 11  2  0  0  0  0
 11 12  1  0  0  0  0
 13 11  1  0  0  0  0
 13 14  1  0  0  0  0
 15 13  2  0  0  0  0
 16 17  1  0  0  0  0
 17 18  1  0  0  0  0
 18 20  2  0  0  0  0
 18 19  1  0  0  0  0
 20 21  1  0  0  0  0
 22 23  1  0  0  0  0
 22 20  1  0  0  0  0
 24 22  2  0  0  0  0
 25 24  1  0  0  0  0
 26 24  1  0  0  0  0
 26 17  2  0  0  0  0
 27 26  1  0  0  0  0
M  END
