1,2
q = -1.0

 22 22  0  0  1  0  0  0  0  0999 V2000
    1.4184    0.2144   -0.6330 N   0  0  0  0  0  2  0  0  0  0  0  0
   -0.1719    1.8386   -1.1849 C   0  0  0  0  0  3  0  0  0  0  0  0
   -0.7215    3.2403   -1.1528 C   0  0  0  0  0  0  0  0  0  0  0  0
    1.1706    1.5629   -0.7777 C   0  0  1  0  0  3  0  0  0  0  0  0
    2.6631   -0.2339   -0.3155 C   0  0  0  0  0  0  0  0  0  0  0  0
    3.7009    0.6691   -0.0595 C   0  0  0  0  0  0  0  0  0  0  0  0
    3.4264    2.0575   -0.0623 C   0  0  0  0  0  0  0  0  0  0  0  0
    2.1628    2.5167   -0.3998 C   0  0  0  0  0  0  0  0  0  0  0  0
    2.8545   -1.7295   -0.1960 C   0  0  0  0  0  0  0  0  0  0  0  0
    4.2751   -2.2145    0.0821 C   0  0  0  0  0  0  0  0  0  0  0  0
   -0.4731    1.2430   -2.0716 H   0  0  0  0  0  0  0  0  0  0  0  0
   -1.8173    3.2254   -1.3053 H   0  0  0  0  0  0  0  0  0  0  0  0
   -0.5411    3.7246   -0.1694 H   0  0  0  0  0  0  0  0  0  0  0  0
   -0.2715    3.8974   -1.9318 H   0  0  0  0  0  0  0  0  0  0  0  0
    4.7102    0.3044    0.1663 H   0  0  0  0  0  0  0  0  0  0  0  0
    4.2281    2.7714    0.1841 H   0  0  0  0  0  0  0  0  0  0  0  0
    1.9279    3.5888   -0.4358 H   0  0  0  0  0  0  0  0  0  0  0  0
    2.4698   -2.2012   -1.1245 H   0  0  0  0  0  0  0  0  0  0  0  0
    2.1749   -2.0860    0.6084 H   0  0  0  0  0  0  0  0  0  0  0  0
    4.3022   -3.3205    0.1325 H   0  0  0  0  0  0  0  0  0  0  0  0
    4.6624   -1.8298    1.0471 H   0  0  0  0  0  0  0  0  0  0  0  0
    4.9799   -1.8998   -0.7137 H   0  0  0  0  0  0  0  0  0  0  0  0
  1  5  1  0  0  0  0
  2  3  1  0  0  0  0
  3 13  1  0  0  0  0
  4  2  1  1  0  0  0
  4  1  1  0  0  0  0
  4  8  1  0  0  0  0
  5  9  1  0  0  0  0
  5  6  2  0  0  0  0
  6 15  1  0  0  0  0
  7  6  1  0  0  0  0
  7 16  1  0  0  0  0
  8  7  2  0  0  0  0
  9 10  1  0  0  0  0
  9 19  1  0  0  0  0
 10 20  1  0  0  0  0
 10 21  1  0  0  0  0
 11  2  1  0  0  0  0
 12  3  1  0  0  0  0
 14  3  1  0  0  0  0
 17  8  1  0  0  0  0
 18  9  1  0  0  0  0
 22 10  1  0  0  0  0
M  END
