7,8
q = -2.0, confidence = 0.948

 55 57  0  0  1  0  0  0  0  0999 V2000
    1.0240   -0.3318   -2.0786 S   0  0  0  0  0  1  0  0  0  0  0  0
   -0.8464   -0.6881    2.0102 S   0  0  0  0  0  0  0  0  0  0  0  0
   -0.7594   -0.2074   -1.0924 P   0  0  0  0  0  4  0  0  0  0  0  0
   -0.5861   -2.1432    1.8132 O   0  0  0  0  0  0  0  0  0  0  0  0
   -0.3117   -0.0153    3.2246 O   0  0  0  0  0  0  0  0  0  0  0  0
   -0.9050    2.5270    1.2444 O   0  0  0  0  0  0  0  0  0  0  0  0
    1.0650    1.9783    0.0652 N   0  0  0  0  0  2  0  0  0  0  0  0
   -0.2190    0.2166    0.5935 C   0  0  1  0  0  3  0  0  0  0  0  0
   -1.7107   -1.7626   -1.2082 C   0  0  0  0  0  0  0  0  0  0  0  0
   -3.0710   -1.7585   -1.5753 C   0  0  0  0  0  0  0  0  0  0  0  0
   -3.5814   -0.8109   -1.7983 H   0  0  0  0  0  0  0  0  0  0  0  0
   -3.7764   -2.9691   -1.6502 C   0  0  0  0  0  0  0  0  0  0  0  0
   -4.8383   -2.9622   -1.9384 H   0  0  0  0  0  0  0  0  0  0  0  0
   -3.1305   -4.1795   -1.3564 C   0  0  0  0  0  0  0  0  0  0  0  0
   -3.6866   -5.1278   -1.4126 H   0  0  0  0  0  0  0  0  0  0  0  0
   -1.7713   -4.1833   -0.9976 C   0  0  0  0  0  0  0  0  0  0  0  0
   -1.2621   -5.1311   -0.7675 H   0  0  0  0  0  0  0  0  0  0  0  0
   -1.0581   -2.9810   -0.9283 C   0  0  0  0  0  0  0  0  0  0  0  0
    0.0014   -2.9756   -0.6422 H   0  0  0  0  0  0  0  0  0  0  0  0
   -1.8355    1.0889   -1.7939 C   0  0  0  0  0  0  0  0  0  0  0  0
   -2.8731    1.6510   -1.0234 C   0  0  0  0  0  0  0  0  0  0  0  0
   -3.0344    1.3311    0.0143 H   0  0  0  0  0  0  0  0  0  0  0  0
   -3.6858    2.6466   -1.5843 C   0  0  0  0  0  0  0  0  0  0  0  0
   -4.4864    3.0949   -0.9771 H   0  0  0  0  0  0  0  0  0  0  0  0
   -3.4713    3.0765   -2.9034 C   0  0  0  0  0  0  0  0  0  0  0  0
   -4.1087    3.8629   -3.3357 H   0  0  0  0  0  0  0  0  0  0  0  0
   -2.4367    2.5130   -3.6688 C   0  0  0  0  0  0  0  0  0  0  0  0
   -2.2610    2.8557   -4.6996 H   0  0  0  0  0  0  0  0  0  0  0  0
   -1.6129    1.5237   -3.1143 C   0  0  0  0  0  0  0  0  0  0  0  0
   -0.7744    1.0993   -3.6885 H   0  0  0  0  0  0  0  0  0  0  0  0
   -2.6407   -0.4792    2.0431 C   0  0  0  0  0  0  0  0  0  0  0  0
   -3.1738    0.7623    2.4294 C   0  0  0  0  0  0  0  0  0  0  0  0
   -2.4932    1.5985    2.6488 H   0  0  0  0  0  0  0  0  0  0  0  0
   -4.5684    0.9082    2.4563 C   0  0  0  0  0  0  0  0  0  0  0  0
   -5.0076    1.8744    2.7479 H   0  0  0  0  0  0  0  0  0  0  0  0
   -5.4026   -0.1716    2.1148 C   0  0  0  0  0  0  0  0  0  0  0  0
   -6.4961   -0.0477    2.1388 H   0  0  0  0  0  0  0  0  0  0  0  0
   -4.8474   -1.4082    1.7481 C   0  0  0  0  0  0  0  0  0  0  0  0
   -5.5009   -2.2541    1.4862 H   0  0  0  0  0  0  0  0  0  0  0  0
   -3.4539   -1.5722    1.7144 C   0  0  0  0  0  0  0  0  0  0  0  0
   -2.9872   -2.5287    1.4388 H   0  0  0  0  0  0  0  0  0  0  0  0
   -0.0938    1.7554    0.7152 C   0  0  0  0  0  0  0  0  0  0  0  0
    1.5371    3.3186   -0.3318 C   0  0  0  0  0  0  0  0  0  0  0  0
    1.9886    4.1176    0.9068 C   0  0  0  0  0  0  0  0  0  0  0  0
    2.2892    5.1474    0.6237 H   0  0  0  0  0  0  0  0  0  0  0  0
    2.8574    3.6334    1.3956 H   0  0  0  0  0  0  0  0  0  0  0  0
    1.1608    4.1760    1.6398 H   0  0  0  0  0  0  0  0  0  0  0  0
    2.6930    3.1579   -1.3301 C   0  0  0  0  0  0  0  0  0  0  0  0
    2.3739    2.5356   -2.1893 H   0  0  0  0  0  0  0  0  0  0  0  0
    3.5707    2.6701   -0.8656 H   0  0  0  0  0  0  0  0  0  0  0  0
    3.0118    4.1508   -1.7055 H   0  0  0  0  0  0  0  0  0  0  0  0
    0.3835    4.0642   -1.0397 C   0  0  0  0  0  0  0  0  0  0  0  0
    0.0501    3.4964   -1.9304 H   0  0  0  0  0  0  0  0  0  0  0  0
    0.7263    5.0661   -1.3689 H   0  0  0  0  0  0  0  0  0  0  0  0
   -0.4804    4.1827   -0.3601 H   0  0  0  0  0  0  0  0  0  0  0  0
  1  3  1  0  0  0  0
  2 31  1  0  0  0  0
  2  5  2  0  0  0  0
  3  8  1  0  0  0  0
  4  2  2  0  0  0  0
  7 42  1  0  0  0  0
  8 42  1  1  0  0  0
  8  2  1  0  0  0  0
  9  3  1  0  0  0  0
  9 18  1  0  0  0  0
 10  9  2  0  0  0  0
 11 10  1  0  0  0  0
 12 10  1  0  0  0  0
 12 14  2  0  0  0  0
 13 12  1  0  0  0  0
 14 16  1  0  0  0  0
 15 14  1  0  0  0  0
 16 18  2  0  0  0  0
 16 17  1  0  0  0  0
 18 19  1  0  0  0  0
 20  3  1  0  0  0  0
 20 21  1  0  0  0  0
 21 22  1  0  0  0  0
 23 21  2  0  0  0  0
 23 24  1  0  0  0  0
 25 23  1  0  0  0  0
 26 25  1  0  0  0  0
 27 29  1  0  0  0  0
 27 25  2  0  0  0  0
 28 27  1  0  0  0  0
 29 20  2  0  0  0  0
 30 29  1  0  0  0  0
 31 32  1  0  0  0  0
 32 34  2  0  0  0  0
 32 33  1  0  0  0  0
 34 35  1  0  0  0  0
 36 37  1  0  0  0  0
 36 34  1  0  0  0  0
 38 36  2  0  0  0  0
 39 38  1  0  0  0  0
 40 38  1  0  0  0  0
 40 31  2  0  0  0  0
 41 40  1  0  0  0  0
 42  6  2  0  0  0  0
 43  7  1  0  0  0  0
 43 44  1  0  0  0  0
 44 46  1  0  0  0  0
 44 47  1  0  0  0  0
 45 44  1  0  0  0  0
 48 50  1  0  0  0  0
 48 43  1  0  0  0  0
 49 48  1  0  0  0  0
 51 48  1  0  0  0  0
 52 55  1  0  0  0  0
 52 43  1  0  0  0  0
 53 52  1  0  0  0  0
 54 52  1  0  0  0  0
M  END
