1,17
q = 0.0, confidence = 1.0

 29 30  0  0  1  0  0  0  0  0999 V2000
    0.3004    1.3484   -0.2956 C   0  0  0  0  0  2  0  0  0  0  0  0
    0.9214    2.5490   -0.4728 N   0  0  0  0  0  0  0  0  0  0  0  0
   -0.0047    3.5877   -0.5733 C   0  0  0  0  0  0  0  0  0  0  0  0
    0.3116    4.6266   -0.7042 H   0  0  0  0  0  0  0  0  0  0  0  0
   -1.2528    3.0441   -0.4642 C   0  0  0  0  0  0  0  0  0  0  0  0
   -2.2392    3.5121   -0.4984 H   0  0  0  0  0  0  0  0  0  0  0  0
   -1.0553    1.6760   -0.2917 N   0  0  0  0  0  0  0  0  0  0  0  0
    2.3634    2.7789   -0.4913 C   0  0  0  0  0  0  0  0  0  0  0  0
    2.6069    3.3863   -1.3893 H   0  0  0  0  0  0  0  0  0  0  0  0
    2.8474    1.7792   -0.6217 H   0  0  0  0  0  0  0  0  0  0  0  0
    2.8839    3.4331    0.7557 C   0  0  0  0  0  0  0  0  0  0  0  0
    3.9470    3.7245    0.6936 H   0  0  0  0  0  0  0  0  0  0  0  0
    2.2035    3.6361    1.8958 C   0  0  0  0  0  0  0  0  0  0  0  0
    1.1482    3.3387    2.0057 H   0  0  0  0  0  0  0  0  0  0  0  0
    2.6889    4.0905    2.7721 H   0  0  0  0  0  0  0  0  0  0  0  0
   -1.9984    0.6545   -0.1153 C   0  0  1  0  0  3  0  0  0  0  0  0
   -1.4361   -0.5660    0.0326 N   0  0  0  0  0  2  0  0  0  0  0  0
   -2.2520   -1.6320    0.2158 C   0  0  0  0  0  0  0  0  0  0  0  0
   -1.7210   -2.5951    0.3259 H   0  0  0  0  0  0  0  0  0  0  0  0
   -3.6347   -1.5104    0.2559 C   0  0  0  0  0  0  0  0  0  0  0  0
   -4.2755   -2.3894    0.4060 H   0  0  0  0  0  0  0  0  0  0  0  0
   -4.2233   -0.2338    0.0997 C   0  0  0  0  0  0  0  0  0  0  0  0
   -3.3807    0.8806   -0.0913 C   0  0  0  0  0  0  0  0  0  0  0  0
   -3.7774    1.8938   -0.2178 H   0  0  0  0  0  0  0  0  0  0  0  0
   -5.5665   -0.1730    0.1455 O   0  0  0  0  0  0  0  0  0  0  0  0
   -6.2040    1.0879   -0.0074 C   0  0  0  0  0  0  0  0  0  0  0  0
   -5.9784    1.5414   -0.9973 H   0  0  0  0  0  0  0  0  0  0  0  0
   -5.9065    1.7953    0.7972 H   0  0  0  0  0  0  0  0  0  0  0  0
   -7.2897    0.8964    0.0632 H   0  0  0  0  0  0  0  0  0  0  0  0
  1  7  1  0  0  0  0
  2  1  1  0  0  0  0
  3  2  1  0  0  0  0
  3  5  2  0  0  0  0
  4  3  1  0  0  0  0
  5  7  1  0  0  0  0
  6  5  1  0  0  0  0
  8  2  1  0  0  0  0
  8 11  1  0  0  0  0
  9  8  1  0  0  0  0
 10  8  1  0  0  0  0
 11 13  2  0  0  0  0
 12 11  1  0  0  0  0
 13 14  1  0  0  0  0
 13 15  1  0  0  0  0
 16  7  1  1  0  0  0
 16 23  1  0  0  0  0
 16 17  1  0  0  0  0
 17 18  1  0  0  0  0
 18 20  2  0  0  0  0
 18 19  1  0  0  0  0
 20 21  1  0  0  0  0
 22 25  1  0  0  0  0
 22 20  1  0  0  0  0
 23 22  2  0  0  0  0
 24 23  1  0  0  0  0
 26 29  1  0  0  0  0
 26 25  1  0  0  0  0
 26 28  1  0  0  0  0
 27 26  1  0  0  0  0
M  END
