8,16
q = 0.0, confidence = 1.0

 28 29  0  0  1  0  0  0  0  0999 V2000
   -1.1988    2.4084   -0.4750 N   0  0  0  0  0  0  0  0  0  0  0  0
   -2.6556    3.2156    1.9041 C   0  0  0  0  0  0  0  0  0  0  0  0
   -1.5617    3.1326    2.0067 H   0  0  0  0  0  0  0  0  0  0  0  0
   -3.2157    3.5618    2.7853 H   0  0  0  0  0  0  0  0  0  0  0  0
    0.9099    1.9362   -0.2984 N   0  0  0  0  0  0  0  0  0  0  0  0
   -3.2897    2.8869    0.7666 C   0  0  0  0  0  0  0  0  0  0  0  0
   -4.3898    2.9629    0.7116 H   0  0  0  0  0  0  0  0  0  0  0  0
    1.7209   -0.1899    0.0299 N   0  0  0  0  0  2  0  0  0  0  0  0
   -2.6581    2.3542   -0.4870 C   0  0  0  0  0  0  0  0  0  0  0  0
   -2.9398    1.2810   -0.6233 H   0  0  0  0  0  0  0  0  0  0  0  0
   -3.0187    2.9091   -1.3796 H   0  0  0  0  0  0  0  0  0  0  0  0
   -0.4922    3.6072   -0.5783 C   0  0  0  0  0  0  0  0  0  0  0  0
   -1.0045    4.5647   -0.7093 H   0  0  0  0  0  0  0  0  0  0  0  0
    0.8381    3.3166   -0.4723 C   0  0  0  0  0  0  0  0  0  0  0  0
    1.7159    3.9659   -0.5090 H   0  0  0  0  0  0  0  0  0  0  0  0
   -0.3558    1.3522   -0.2987 C   0  0  0  0  0  2  0  0  0  0  0  0
    2.0340    1.1189   -0.1222 C   0  0  2  0  0  3  0  0  0  0  0  0
    3.3510    1.5948   -0.0987 C   0  0  0  0  0  0  0  0  0  0  0  0
    3.5584    2.6659   -0.2271 H   0  0  0  0  0  0  0  0  0  0  0  0
    4.4039    0.6836    0.0922 C   0  0  0  0  0  0  0  0  0  0  0  0
    4.0611   -0.6769    0.2516 C   0  0  0  0  0  0  0  0  0  0  0  0
    4.8406   -1.4373    0.4060 H   0  0  0  0  0  0  0  0  0  0  0  0
    2.7252   -1.0749    0.2147 C   0  0  0  0  0  0  0  0  0  0  0  0
    2.3908   -2.1223    0.3284 H   0  0  0  0  0  0  0  0  0  0  0  0
    5.8377    1.1340    0.1213 C   0  0  0  0  0  0  0  0  0  0  0  0
    5.9307    2.2327    0.0315 H   0  0  0  0  0  0  0  0  0  0  0  0
    6.4105    0.6704   -0.7086 H   0  0  0  0  0  0  0  0  0  0  0  0
    6.3310    0.8188    1.0635 H   0  0  0  0  0  0  0  0  0  0  0  0
  1 16  1  0  0  0  0
  2  3  1  0  0  0  0
  2  4  1  0  0  0  0
  6  2  2  0  0  0  0
  7  6  1  0  0  0  0
  8 23  1  0  0  0  0
  9  1  1  0  0  0  0
  9  6  1  0  0  0  0
 10  9  1  0  0  0  0
 11  9  1  0  0  0  0
 12  1  1  0  0  0  0
 12 14  2  0  0  0  0
 13 12  1  0  0  0  0
 14  5  1  0  0  0  0
 15 14  1  0  0  0  0
 16  5  1  0  0  0  0
 17  5  1  1  0  0  0
 17 18  1  0  0  0  0
 17  8  1  0  0  0  0
 18 20  2  0  0  0  0
 19 18  1  0  0  0  0
 20 25  1  0  0  0  0
 20 21  1  0  0  0  0
 21 22  1  0  0  0  0
 23 21  2  0  0  0  0
 23 24  1  0  0  0  0
 25 28  1  0  0  0  0
 26 25  1  0  0  0  0
 27 25  1  0  0  0  0
M  END
