5,15
q = 0.0, confidence = 0.998

 27 28  0  0  1  0  0  0  0  0999 V2000
    4.9322    1.6367   -2.4609 O   0  0  0  0  0  0  0  0  0  0  0  0
    6.3937    2.1849   -0.9187 O   0  0  0  0  0  0  0  0  0  0  0  0
   -0.3898   -0.7522    3.0119 N   0  0  0  0  0  0  0  0  0  0  0  0
    1.5751    0.0039    2.4905 N   0  0  0  0  0  0  0  0  0  0  0  0
    2.2522    0.3740    0.3209 N   0  0  0  0  0  2  0  0  0  0  0  0
    5.3146    1.7456   -1.3016 N   0  0  0  0  0  0  0  0  0  0  0  0
   -0.8075   -3.6248    2.8575 C   0  0  0  0  0  0  0  0  0  0  0  0
    0.2381   -3.2801    2.9059 H   0  0  0  0  0  0  0  0  0  0  0  0
   -0.9717   -4.7120    2.8190 H   0  0  0  0  0  0  0  0  0  0  0  0
   -1.8420   -2.7692    2.8587 C   0  0  0  0  0  0  0  0  0  0  0  0
   -2.8761   -3.1535    2.8159 H   0  0  0  0  0  0  0  0  0  0  0  0
   -1.7544   -1.2696    2.9383 C   0  0  0  0  0  0  0  0  0  0  0  0
   -2.2378   -0.7698    2.0736 H   0  0  0  0  0  0  0  0  0  0  0  0
   -2.2956   -0.9037    3.8365 H   0  0  0  0  0  0  0  0  0  0  0  0
    0.3919   -0.4737    1.9402 C   0  0  0  0  0  2  0  0  0  0  0  0
    0.2834   -0.4850    4.2060 C   0  0  0  0  0  0  0  0  0  0  0  0
   -0.1794   -0.6567    5.1827 H   0  0  0  0  0  0  0  0  0  0  0  0
    1.5208   -0.0021    3.8849 C   0  0  0  0  0  0  0  0  0  0  0  0
    2.3396    0.3370    4.5245 H   0  0  0  0  0  0  0  0  0  0  0  0
    2.5880    0.4593    1.6336 C   0  0  1  0  0  3  0  0  0  0  0  0
    3.8224    0.9607    2.0716 C   0  0  0  0  0  0  0  0  0  0  0  0
    4.0678    1.0149    3.1400 H   0  0  0  0  0  0  0  0  0  0  0  0
    4.7364    1.3910    1.1047 C   0  0  0  0  0  0  0  0  0  0  0  0
    5.7242    1.7965    1.3659 H   0  0  0  0  0  0  0  0  0  0  0  0
    4.3694    1.2967   -0.2421 C   0  0  0  0  0  0  0  0  0  0  0  0
    3.1252    0.7843   -0.6157 C   0  0  0  0  0  0  0  0  0  0  0  0
    2.8117    0.6950   -1.6700 H   0  0  0  0  0  0  0  0  0  0  0  0
  1  6  2  0  0  0  0
  3 16  1  0  0  0  0
  4 18  1  0  0  0  0
  5 20  1  0  0  0  0
  6  2  2  0  0  0  0
  6 25  1  0  0  0  0
  7 10  2  0  0  0  0
  7  8  1  0  0  0  0
  9  7  1  0  0  0  0
 10 12  1  0  0  0  0
 11 10  1  0  0  0  0
 12  3  1  0  0  0  0
 12 14  1  0  0  0  0
 13 12  1  0  0  0  0
 15  4  1  0  0  0  0
 15  3  1  0  0  0  0
 16 17  1  0  0  0  0
 18 16  2  0  0  0  0
 18 19  1  0  0  0  0
 20 21  1  0  0  0  0
 20  4  1  1  0  0  0
 21 22  1  0  0  0  0
 23 24  1  0  0  0  0
 23 21  2  0  0  0  0
 25 23  1  0  0  0  0
 26 25  2  0  0  0  0
 26  5  1  0  0  0  0
 27 26  1  0  0  0  0
M  END
