2,19
q = -1.0, confidence = 0.0

 19 19  0  0  1  0  0  0  0  0999 V2000
    3.0664    3.4466   -0.5207 Cl  0  0  0  0  0  0  0  0  0  0  0  0
    0.4798   -2.5873   -0.2218 N   0  0  0  0  0  0  0  0  0  0  0  0
   -0.0664   -3.4053    0.0907 H   0  0  0  0  0  0  0  0  0  0  0  0
    0.6947   -2.7297   -1.2212 H   0  0  0  0  0  0  0  0  0  0  0  0
    2.7974   -3.4288    0.2282 C   0  0  0  0  0  0  0  0  0  0  0  0
    2.3950   -4.4507    0.3803 H   0  0  0  0  0  0  0  0  0  0  0  0
    3.6810   -3.3210    0.8872 H   0  0  0  0  0  0  0  0  0  0  0  0
    3.1462   -3.3359   -0.8212 H   0  0  0  0  0  0  0  0  0  0  0  0
    1.7427   -2.3736    0.5516 C   0  0  1  0  0  0  0  0  0  0  0  0
    1.4434   -2.4748    1.6187 H   0  0  0  0  0  0  0  0  0  0  0  0
    2.1385   -0.9297    0.2997 C   0  0  0  0  0  0  0  0  0  0  0  0
    3.4617   -0.4646    0.3584 C   0  0  0  0  0  0  0  0  0  0  0  0
    4.2872   -1.1548    0.5937 H   0  0  0  0  0  0  0  0  0  0  0  0
    3.7595    0.8867    0.1200 C   0  0  0  0  0  0  0  0  0  0  0  0
    4.7917    1.2596    0.1673 H   0  0  0  0  0  0  0  0  0  0  0  0
    2.7099    1.7608   -0.1974 C   0  0  0  0  0  0  0  0  0  0  0  0
    1.3785    1.3141   -0.2694 C   0  0  0  0  0  0  0  0  0  0  0  0
    0.5972    2.0380   -0.5439 H   0  0  0  0  0  0  0  0  0  0  0  0
    1.0708   -0.0330   -0.0024 C   0  0  0  0  0  3  0  0  0  0  0  0
  1 16  1  0  0  0  0
  2  3  1  0  0  0  0
  2  9  1  0  0  0  0
  4  2  1  0  0  0  0
  5  6  1  0  0  0  0
  5  9  1  0  0  0  0
  5  7  1  0  0  0  0
  8  5  1  0  0  0  0
  9 10  1  1  0  0  0
 11 12  1  0  0  0  0
 11  9  1  0  0  0  0
 12 13  1  0  0  0  0
 14 15  1  0  0  0  0
 14 12  2  0  0  0  0
 16 14  1  0  0  0  0
 17 16  2  0  0  0  0
 17 19  1  0  0  0  0
 18 17  1  0  0  0  0
 19 11  2  0  0  0  0
M  END
