1,19
q = -1.0

 19 19  0  0  1  0  0  0  0  0999 V2000
    1.4019    2.5593   -0.2629 N   0  0  0  0  0  0  0  0  0  0  0  0
    2.3143    2.9554    0.0120 H   0  0  0  0  0  0  0  0  0  0  0  0
    1.2639    2.7796   -1.2618 H   0  0  0  0  0  0  0  0  0  0  0  0
   -4.1566   -1.2252   -0.3338 Br  0  0  0  0  0  0  0  0  0  0  0  0
   -0.0751    4.5292    0.2064 C   0  0  0  0  0  0  0  0  0  0  0  0
    0.8211    5.1727    0.3165 H   0  0  0  0  0  0  0  0  0  0  0  0
   -0.8528    4.9282    0.8865 H   0  0  0  0  0  0  0  0  0  0  0  0
   -0.4552    4.6225   -0.8321 H   0  0  0  0  0  0  0  0  0  0  0  0
    0.2521    3.0765    0.5428 C   0  0  1  0  0  0  0  0  0  0  0  0
    0.5952    3.0168    1.5997 H   0  0  0  0  0  0  0  0  0  0  0  0
   -0.8707    2.0733    0.3471 C   0  0  0  0  0  0  0  0  0  0  0  0
   -2.2318    2.3999    0.4515 C   0  0  0  0  0  0  0  0  0  0  0  0
   -2.5442    3.4304    0.6835 H   0  0  0  0  0  0  0  0  0  0  0  0
   -3.2219    1.4211    0.2641 C   0  0  0  0  0  0  0  0  0  0  0  0
   -4.2878    1.6724    0.3496 H   0  0  0  0  0  0  0  0  0  0  0  0
   -2.8217    0.1148   -0.0500 C   0  0  0  0  0  0  0  0  0  0  0  0
   -1.4653   -0.2338   -0.1683 C   0  0  0  0  0  0  0  0  0  0  0  0
   -1.2031   -1.2669   -0.4393 H   0  0  0  0  0  0  0  0  0  0  0  0
   -0.4690    0.7373    0.0500 C   0  0  0  0  0  3  0  0  0  0  0  0
  1  2  1  0  0  0  0
  1  9  1  0  0  0  0
  3  1  1  0  0  0  0
  4 16  1  0  0  0  0
  5  6  1  0  0  0  0
  5  9  1  0  0  0  0
  5  7  1  0  0  0  0
  8  5  1  0  0  0  0
  9 10  1  1  0  0  0
 11 12  1  0  0  0  0
 11  9  1  0  0  0  0
 12 13  1  0  0  0  0
 14 15  1  0  0  0  0
 14 12  2  0  0  0  0
 16 14  1  0  0  0  0
 17 16  2  0  0  0  0
 17 19  1  0  0  0  0
 18 17  1  0  0  0  0
 19 11  2  0  0  0  0
M  END
