1,2
q = -2, confidence = 1.0

 31 31  0  0  0  0  0  0  0  0999 V2000
   -1.3112    0.6884    0.0452 N   0  0  0  0  0  2  0  0  0  0  0  0
    0.7363    2.2245   -0.5520 C   0  0  0  0  0  3  0  0  0  0  0  0
   -0.3317    2.8900   -0.0596 C   0  0  0  0  0  0  0  0  0  0  0  0
   -1.5692    2.1342    0.3594 C   0  0  0  0  0  0  0  0  0  0  0  0
   -2.4612   -0.1698    0.0410 C   0  0  0  0  0  0  0  0  0  0  0  0
   -3.2256   -0.3275   -1.1564 C   0  0  0  0  0  0  0  0  0  0  0  0
   -4.3653   -1.1522   -1.1434 C   0  0  0  0  0  0  0  0  0  0  0  0
   -4.9469   -1.2637   -2.0726 H   0  0  0  0  0  0  0  0  0  0  0  0
   -4.7564   -1.8416    0.0096 C   0  0  0  0  0  0  0  0  0  0  0  0
   -5.6499   -2.4842   -0.0014 H   0  0  0  0  0  0  0  0  0  0  0  0
   -3.9804   -1.7278    1.1666 C   0  0  0  0  0  0  0  0  0  0  0  0
   -4.2558   -2.2933    2.0714 H   0  0  0  0  0  0  0  0  0  0  0  0
   -2.8340   -0.9098    1.2019 C   0  0  0  0  0  0  0  0  0  0  0  0
   -2.8358    0.3255   -2.4603 C   0  0  0  0  0  0  0  0  0  0  0  0
   -1.8480    0.8142   -2.3930 H   0  0  0  0  0  0  0  0  0  0  0  0
   -3.5795    1.0888   -2.7685 H   0  0  0  0  0  0  0  0  0  0  0  0
   -2.7981   -0.4295   -3.2719 H   0  0  0  0  0  0  0  0  0  0  0  0
   -2.0183   -0.8807    2.4684 C   0  0  0  0  0  0  0  0  0  0  0  0
   -1.0222   -0.4437    2.2889 H   0  0  0  0  0  0  0  0  0  0  0  0
   -1.8922   -1.9040    2.8772 H   0  0  0  0  0  0  0  0  0  0  0  0
   -2.5004   -0.2737    3.2629 H   0  0  0  0  0  0  0  0  0  0  0  0
   -1.8131    2.3268    1.8750 C   0  0  0  0  0  0  0  0  0  0  0  0
   -2.7455    1.8189    2.1917 H   0  0  0  0  0  0  0  0  0  0  0  0
   -1.9184    3.4047    2.1121 H   0  0  0  0  0  0  0  0  0  0  0  0
   -0.9678    1.9251    2.4656 H   0  0  0  0  0  0  0  0  0  0  0  0
   -2.7822    2.7288   -0.3896 C   0  0  0  0  0  0  0  0  0  0  0  0
   -3.7089    2.1597   -0.1785 H   0  0  0  0  0  0  0  0  0  0  0  0
   -2.6131    2.7522   -1.4801 H   0  0  0  0  0  0  0  0  0  0  0  0
   -2.9394    3.7719   -0.0501 H   0  0  0  0  0  0  0  0  0  0  0  0
   -0.3728    3.9913    0.0577 H   0  0  0  0  0  0  0  0  0  0  0  0
    1.6119    2.8153   -0.8786 H   0  0  0  0  0  0  0  0  0  0  0  0
  1  4  1  0  0  0  0
  2  3  2  0  0  0  0
  3 30  1  0  0  0  0
  3  4  1  0  0  0  0
  4 22  1  0  0  0  0
  5  1  1  0  0  0  0
  5 13  1  0  0  0  0
  6  7  1  0  0  0  0
  6  5  2  0  0  0  0
  7  9  2  0  0  0  0
  8  7  1  0  0  0  0
  9 11  1  0  0  0  0
 10  9  1  0  0  0  0
 11 13  2  0  0  0  0
 11 12  1  0  0  0  0
 13 18  1  0  0  0  0
 14 15  1  0  0  0  0
 14  6  1  0  0  0  0
 16 14  1  0  0  0  0
 17 14  1  0  0  0  0
 18 20  1  0  0  0  0
 18 21  1  0  0  0  0
 19 18  1  0  0  0  0
 22 24  1  0  0  0  0
 22 23  1  0  0  0  0
 22 25  1  0  0  0  0
 26 27  1  0  0  0  0
 26 29  1  0  0  0  0
 26  4  1  0  0  0  0
 28 26  1  0  0  0  0
 31  2  1  0  0  0  0
M  END
