1,3
q = -1.0, confidence = 0.004

 35 38  0  0  0  0  0  0  0  0999 V2000
    0.3367    0.8092   -0.2145 N   0  0  0  0  0  2  0  0  0  0  0  0
    2.8644    2.0599   -0.1815 N   0  0  0  0  0  0  0  0  0  0  0  0
   -0.0809   -1.7340   -0.5348 C   0  0  0  0  0  2  0  0  0  0  0  0
    1.2928   -1.3444   -0.5125 C   0  0  0  0  0  0  0  0  0  0  0  0
    2.3000   -2.2706   -0.8835 C   0  0  0  0  0  0  0  0  0  0  0  0
    3.3535   -1.9657   -0.9195 H   0  0  0  0  0  0  0  0  0  0  0  0
    1.9493   -3.5769   -1.2310 C   0  0  0  0  0  0  0  0  0  0  0  0
    2.7321   -4.2914   -1.5258 H   0  0  0  0  0  0  0  0  0  0  0  0
    0.5972   -3.9746   -1.2089 C   0  0  0  0  0  0  0  0  0  0  0  0
    0.3283   -5.0092   -1.4752 H   0  0  0  0  0  0  0  0  0  0  0  0
   -0.4106   -3.0617   -0.8692 C   0  0  0  0  0  0  0  0  0  0  0  0
   -1.4667   -3.3678   -0.8631 H   0  0  0  0  0  0  0  0  0  0  0  0
    1.4902    0.0704   -0.2270 C   0  0  0  0  0  0  0  0  0  0  0  0
    2.7560    0.7478   -0.0365 C   0  0  0  0  0  0  0  0  0  0  0  0
    1.7361    2.7886   -0.3875 C   0  0  0  0  0  0  0  0  0  0  0  0
    0.4277    2.1870   -0.3107 C   0  0  0  0  0  0  0  0  0  0  0  0
   -0.7163    3.0223   -0.4028 C   0  0  0  0  0  0  0  0  0  0  0  0
   -1.7119    2.5756   -0.2938 H   0  0  0  0  0  0  0  0  0  0  0  0
   -0.5634    4.3874   -0.6162 C   0  0  0  0  0  0  0  0  0  0  0  0
   -1.4613    5.0186   -0.6994 H   0  0  0  0  0  0  0  0  0  0  0  0
    0.7209    4.9784   -0.7332 C   0  0  0  0  0  0  0  0  0  0  0  0
    0.8150    6.0609   -0.9058 H   0  0  0  0  0  0  0  0  0  0  0  0
    1.8538    4.1883   -0.6124 C   0  0  0  0  0  0  0  0  0  0  0  0
    2.8713    4.6011   -0.6666 H   0  0  0  0  0  0  0  0  0  0  0  0
    3.9884    0.0403    0.4029 C   0  0  0  0  0  0  0  0  0  0  0  0
    3.9440   -0.9456    1.4131 C   0  0  0  0  0  0  0  0  0  0  0  0
    2.9753   -1.2420    1.8420 H   0  0  0  0  0  0  0  0  0  0  0  0
    5.1257   -1.5412    1.8717 C   0  0  0  0  0  0  0  0  0  0  0  0
    5.0796   -2.3029    2.6646 H   0  0  0  0  0  0  0  0  0  0  0  0
    6.3644   -1.1668    1.3248 C   0  0  0  0  0  0  0  0  0  0  0  0
    7.2909   -1.6426    1.6804 H   0  0  0  0  0  0  0  0  0  0  0  0
    6.4173   -0.1777    0.3289 C   0  0  0  0  0  0  0  0  0  0  0  0
    7.3859    0.1239   -0.0980 H   0  0  0  0  0  0  0  0  0  0  0  0
    5.2385    0.4317   -0.1207 C   0  0  0  0  0  0  0  0  0  0  0  0
    5.2640    1.2234   -0.8832 H   0  0  0  0  0  0  0  0  0  0  0  0
  2 14  2  0  0  0  0
  3  4  1  0  0  0  0
  4 13  2  0  0  0  0
  5  4  1  0  0  0  0
  6  5  1  0  0  0  0
  7  9  1  0  0  0  0
  7  5  2  0  0  0  0
  8  7  1  0  0  0  0
  9 11  2  0  0  0  0
 10  9  1  0  0  0  0
 11 12  1  0  0  0  0
 11  3  1  0  0  0  0
 13  1  1  0  0  0  0
 13 14  1  0  0  0  0
 14 25  1  0  0  0  0
 15 16  1  0  0  0  0
 15  2  1  0  0  0  0
 16  1  1  0  0  0  0
 17 16  2  0  0  0  0
 17 18  1  0  0  0  0
 19 17  1  0  0  0  0
 20 19  1  0  0  0  0
 21 19  2  0  0  0  0
 21 23  1  0  0  0  0
 22 21  1  0  0  0  0
 23 15  2  0  0  0  0
 24 23  1  0  0  0  0
 25 26  1  0  0  0  0
 26 27  1  0  0  0  0
 26 28  2  0  0  0  0
 28 29  1  0  0  0  0
 30 31  1  0  0  0  0
 30 28  1  0  0  0  0
 32 30  2  0  0  0  0
 33 32  1  0  0  0  0
 34 32  1  0  0  0  0
 34 25  2  0  0  0  0
 35 34  1  0  0  0  0
M  END
