2,3
q = -1.0, confidence = 0.026

 20 21  0  0  1  0  0  0  0  0999 V2000
    6.5697   -0.4573   -0.1950 I   0  0  0  0  0  0  0  0  0  0  0  0
    1.6949    0.4853   -0.1437 C   0  0  0  0  0  3  0  0  0  0  0  0
    0.0728   -0.5394    1.6447 N   0  0  0  0  0  2  0  0  0  0  0  0
    1.3963   -0.8605    1.8612 C   0  0  1  0  0  3  0  0  0  0  0  0
   -0.5867   -1.9204    3.5061 C   0  0  0  0  0  0  0  0  0  0  0  0
   -1.4037   -2.3205    4.1221 H   0  0  0  0  0  0  0  0  0  0  0  0
    1.7460   -1.7046    2.9336 C   0  0  0  0  0  0  0  0  0  0  0  0
    2.8038   -1.9485    3.0968 H   0  0  0  0  0  0  0  0  0  0  0  0
    0.7583   -2.2348    3.7644 C   0  0  0  0  0  0  0  0  0  0  0  0
    1.0305   -2.8958    4.6004 H   0  0  0  0  0  0  0  0  0  0  0  0
    3.7044   -0.5381    0.8904 C   0  0  0  0  0  0  0  0  0  0  0  0
    4.1655   -1.1447    1.6822 H   0  0  0  0  0  0  0  0  0  0  0  0
    2.3146   -0.2874    0.8845 C   0  0  0  0  0  0  0  0  0  0  0  0
    2.5272    0.9858   -1.1671 C   0  0  0  0  0  0  0  0  0  0  0  0
    2.0936    1.5721   -1.9899 H   0  0  0  0  0  0  0  0  0  0  0  0
    4.4856   -0.0322   -0.1494 C   0  0  0  0  0  0  0  0  0  0  0  0
    3.9052    0.7294   -1.1832 C   0  0  0  0  0  0  0  0  0  0  0  0
    4.5292    1.1175   -2.0015 H   0  0  0  0  0  0  0  0  0  0  0  0
   -0.8841   -1.0698    2.4408 C   0  0  0  0  0  0  0  0  0  0  0  0
   -1.9185   -0.7861    2.2065 H   0  0  0  0  0  0  0  0  0  0  0  0
  1 16  1  0  0  0  0
  2 13  1  0  0  0  0
  3  4  1  0  0  0  0
  3 19  1  0  0  0  0
  4 13  1  6  0  0  0
  4  7  1  0  0  0  0
  5  9  1  0  0  0  0
  5  6  1  0  0  0  0
  7  8  1  0  0  0  0
  7  9  2  0  0  0  0
  9 10  1  0  0  0  0
 11 12  1  0  0  0  0
 13 11  2  0  0  0  0
 14  2  2  0  0  0  0
 15 14  1  0  0  0  0
 16 11  1  0  0  0  0
 17 14  1  0  0  0  0
 17 16  2  0  0  0  0
 18 17  1  0  0  0  0
 19  5  2  0  0  0  0
 20 19  1  0  0  0  0
M  END
