3,5
q = 0.0, confidence = 1.0

 29 30  0  0  1  0  0  0  0  0999 V2000
   -0.0061    1.7028    0.0474 N   0  0  0  0  0  0  0  0  0  0  0  0
   -2.0841    2.8131    0.0460 N   0  0  0  0  0  0  0  0  0  0  0  0
   -1.9119    0.4224   -0.0390 N   0  0  0  0  0  2  0  0  0  0  0  0
    2.0458    1.0190    0.0220 N   0  0  0  0  0  0  0  0  0  0  0  0
    0.7603    0.5281    0.0270 C   0  0  0  0  0  2  0  0  0  0  0  0
   -1.4043    1.6688    0.0191 C   0  0  1  0  0  3  0  0  0  0  0  0
    3.2959    0.1884   -0.0445 C   0  0  0  0  0  0  0  0  0  0  0  0
    0.7695    2.8536    0.0642 C   0  0  0  0  0  0  0  0  0  0  0  0
    0.3161    3.8475    0.0832 H   0  0  0  0  0  0  0  0  0  0  0  0
   -3.2518    0.3032   -0.0693 C   0  0  0  0  0  0  0  0  0  0  0  0
   -3.6128   -0.7418   -0.1086 H   0  0  0  0  0  0  0  0  0  0  0  0
    3.2649   -0.5951   -1.3685 C   0  0  0  0  0  0  0  0  0  0  0  0
    3.3609    0.1033   -2.2242 H   0  0  0  0  0  0  0  0  0  0  0  0
    2.3178   -1.1508   -1.4829 H   0  0  0  0  0  0  0  0  0  0  0  0
    4.1081   -1.3119   -1.4080 H   0  0  0  0  0  0  0  0  0  0  0  0
    2.0599    2.4179    0.0477 C   0  0  0  0  0  0  0  0  0  0  0  0
    2.9829    2.9984    0.0522 H   0  0  0  0  0  0  0  0  0  0  0  0
   -4.0647    1.4443   -0.0454 C   0  0  0  0  0  0  0  0  0  0  0  0
   -5.1598    1.3612   -0.0711 H   0  0  0  0  0  0  0  0  0  0  0  0
   -3.4227    2.6915    0.0120 C   0  0  0  0  0  0  0  0  0  0  0  0
   -4.0008    3.6312    0.0325 H   0  0  0  0  0  0  0  0  0  0  0  0
    4.5356    1.0966   -0.0455 C   0  0  0  0  0  0  0  0  0  0  0  0
    4.6183    1.6986    0.8813 H   0  0  0  0  0  0  0  0  0  0  0  0
    4.5670    1.7705   -0.9246 H   0  0  0  0  0  0  0  0  0  0  0  0
    5.4309    0.4480   -0.0970 H   0  0  0  0  0  0  0  0  0  0  0  0
    3.3462   -0.6996    1.2088 C   0  0  0  0  0  0  0  0  0  0  0  0
    3.4559   -0.0696    2.1143 H   0  0  0  0  0  0  0  0  0  0  0  0
    4.2158   -1.3833    1.1531 H   0  0  0  0  0  0  0  0  0  0  0  0
    2.4306   -1.3038    1.3113 H   0  0  0  0  0  0  0  0  0  0  0  0
  1  8  1  0  0  0  0
  3  6  1  0  0  0  0
  4  5  1  0  0  0  0
  4 16  1  0  0  0  0
  5  1  1  0  0  0  0
  6  2  1  0  0  0  0
  6  1  1  6  0  0  0
  7  4  1  0  0  0  0
  7 26  1  0  0  0  0
  8  9  1  0  0  0  0
 10 18  2  0  0  0  0
 10  3  1  0  0  0  0
 11 10  1  0  0  0  0
 12  7  1  0  0  0  0
 13 12  1  0  0  0  0
 14 12  1  0  0  0  0
 15 12  1  0  0  0  0
 16 17  1  0  0  0  0
 16  8  2  0  0  0  0
 18 20  1  0  0  0  0
 19 18  1  0  0  0  0
 20 21  1  0  0  0  0
 20  2  2  0  0  0  0
 22  7  1  0  0  0  0
 22 23  1  0  0  0  0
 24 22  1  0  0  0  0
 25 22  1  0  0  0  0
 26 29  1  0  0  0  0
 26 27  1  0  0  0  0
 28 26  1  0  0  0  0
M  END
