2,13
q = -1.0, confidence = 0.0

 26 28  0  0  1  0  0  0  0  0999 V2000
    2.3473   -2.0090   -2.8112 S   0  0  0  0  0  0  0  0  0  0  0  0
    2.0473    0.6367    0.2201 N   0  0  0  0  0  2  0  0  0  0  0  0
    0.6601   -2.4070   -3.0846 C   0  0  0  0  0  0  0  0  0  0  0  0
    0.1781   -3.3433   -4.0152 C   0  0  0  0  0  0  0  0  0  0  0  0
    0.8713   -3.8989   -4.6641 H   0  0  0  0  0  0  0  0  0  0  0  0
   -1.2025   -3.5582   -4.0915 C   0  0  0  0  0  0  0  0  0  0  0  0
   -1.5965   -4.2908   -4.8123 H   0  0  0  0  0  0  0  0  0  0  0  0
   -2.0921   -2.8520   -3.2496 C   0  0  0  0  0  0  0  0  0  0  0  0
   -3.1734   -3.0438   -3.3187 H   0  0  0  0  0  0  0  0  0  0  0  0
   -1.6131   -1.9179   -2.3296 C   0  0  0  0  0  0  0  0  0  0  0  0
   -2.3057   -1.3775   -1.6725 H   0  0  0  0  0  0  0  0  0  0  0  0
   -0.2226   -1.6659   -2.2281 C   0  0  0  0  0  0  0  0  0  0  0  0
    0.4879   -0.7565   -1.3574 C   0  0  0  0  0  3  0  0  0  0  0  0
    1.8702   -0.8614   -1.5631 C   0  0  0  0  0  0  0  0  0  0  0  0
    2.7439   -0.1087   -0.7115 C   0  0  2  0  0  3  0  0  0  0  0  0
    4.1556   -0.1012   -0.7085 C   0  0  0  0  0  0  0  0  0  0  0  0
    4.6876   -0.7020   -1.4612 H   0  0  0  0  0  0  0  0  0  0  0  0
    4.8663    0.6475    0.2373 C   0  0  0  0  0  0  0  0  0  0  0  0
    4.1157    1.3919    1.1804 C   0  0  0  0  0  0  0  0  0  0  0  0
    4.6167    1.9939    1.9520 H   0  0  0  0  0  0  0  0  0  0  0  0
    2.7231    1.3614    1.1361 C   0  0  0  0  0  0  0  0  0  0  0  0
    2.0973    1.9143    1.8518 H   0  0  0  0  0  0  0  0  0  0  0  0
    6.3705    0.6682    0.2615 C   0  0  0  0  0  0  0  0  0  0  0  0
    6.7565    0.3351    1.2472 H   0  0  0  0  0  0  0  0  0  0  0  0
    6.7547    1.6972    0.1003 H   0  0  0  0  0  0  0  0  0  0  0  0
    6.8039    0.0136   -0.5181 H   0  0  0  0  0  0  0  0  0  0  0  0
  1 14  1  0  0  0  0
  2 21  1  0  0  0  0
  3  1  1  0  0  0  0
  3 12  1  0  0  0  0
  4  3  2  0  0  0  0
  5  4  1  0  0  0  0
  6  4  1  0  0  0  0
  6  8  2  0  0  0  0
  7  6  1  0  0  0  0
  8 10  1  0  0  0  0
  9  8  1  0  0  0  0
 10 12  2  0  0  0  0
 10 11  1  0  0  0  0
 12 13  1  0  0  0  0
 14 13  2  0  0  0  0
 15 14  1  1  0  0  0
 15 16  1  0  0  0  0
 15  2  1  0  0  0  0
 16 18  2  0  0  0  0
 17 16  1  0  0  0  0
 18 23  1  0  0  0  0
 18 19  1  0  0  0  0
 19 20  1  0  0  0  0
 21 19  2  0  0  0  0
 21 22  1  0  0  0  0
 23 24  1  0  0  0  0
 25 23  1  0  0  0  0
 26 23  1  0  0  0  0
M  END
