2,20
q = -1.0

 21 22  0  0  1  0  0  0  0  0999 V2000
   -0.6578    3.0137   -0.1195 O   0  0  0  0  0  0  0  0  0  0  0  0
    1.0097    1.3940   -0.0780 N   0  0  0  0  0  2  0  0  0  0  0  0
    0.6084    2.6866   -0.2528 C   0  0  1  0  0  3  0  0  0  0  0  0
    1.5513    3.6860   -0.6039 C   0  0  0  0  0  0  0  0  0  0  0  0
    1.1767    4.7047   -0.7692 H   0  0  0  0  0  0  0  0  0  0  0  0
    2.9013    3.3549   -0.6844 C   0  0  0  0  0  0  0  0  0  0  0  0
    3.6434    4.1235   -0.9488 H   0  0  0  0  0  0  0  0  0  0  0  0
    3.3141    2.0441   -0.3976 C   0  0  0  0  0  0  0  0  0  0  0  0
    4.3758    1.7675   -0.4188 H   0  0  0  0  0  0  0  0  0  0  0  0
    2.3494    1.0756   -0.0881 C   0  0  0  0  0  0  0  0  0  0  0  0
    2.6210   -0.3202    0.2605 C   0  0  0  0  0  0  0  0  0  0  0  0
    3.9153   -0.8499    0.4525 C   0  0  0  0  0  0  0  0  0  0  0  0
    4.8037   -0.2206    0.2883 H   0  0  0  0  0  0  0  0  0  0  0  0
    4.0757   -2.1741    0.8747 C   0  0  0  0  0  0  0  0  0  0  0  0
    5.0843   -2.5868    1.0266 H   0  0  0  0  0  0  0  0  0  0  0  0
    2.9389   -2.9644    1.1251 C   0  0  0  0  0  0  0  0  0  0  0  0
    3.0591   -3.9989    1.4845 H   0  0  0  0  0  0  0  0  0  0  0  0
    1.6502   -2.4428    0.9245 C   0  0  0  0  0  0  0  0  0  0  0  0
    0.7759   -3.0746    1.1421 H   0  0  0  0  0  0  0  0  0  0  0  0
    1.4636   -1.1253    0.4619 C   0  0  0  0  0  3  0  0  0  0  0  0
   -1.1557    2.4023    0.5895 H   0  0  0  0  0  0  0  0  0  0  0  0
  1 21  1  0  0  0  0
  3  1  1  6  0  0  0
  3  2  1  0  0  0  0
  4  3  1  0  0  0  0
  5  4  1  0  0  0  0
  6  4  2  0  0  0  0
  6  8  1  0  0  0  0
  7  6  1  0  0  0  0
  8 10  2  0  0  0  0
  9  8  1  0  0  0  0
 10  2  1  0  0  0  0
 10 11  1  0  0  0  0
 11 12  2  0  0  0  0
 11 20  1  0  0  0  0
 12 14  1  0  0  0  0
 13 12  1  0  0  0  0
 14 15  1  0  0  0  0
 14 16  2  0  0  0  0
 16 17  1  0  0  0  0
 18 16  1  0  0  0  0
 18 19  1  0  0  0  0
 20 18  2  0  0  0  0
M  END
