1,25
q = -1.0

 29 30  0  0  0  0  0  0  0  0999 V2000
    0.6492   -1.2796   -0.0564 N   0  0  0  0  0  2  0  0  0  0  0  0
    0.0492   -2.4054    0.0900 N   0  0  0  0  0  2  0  0  0  0  0  0
    2.0676   -1.3034   -0.0927 C   0  0  0  0  0  0  0  0  0  0  0  0
    2.7356   -0.4597   -1.0028 C   0  0  0  0  0  0  0  0  0  0  0  0
    2.1309    0.1537   -1.6891 H   0  0  0  0  0  0  0  0  0  0  0  0
    4.1324   -0.4561   -1.0371 C   0  0  0  0  0  0  0  0  0  0  0  0
    4.6501    0.1911   -1.7631 H   0  0  0  0  0  0  0  0  0  0  0  0
    4.8945   -1.2645   -0.1635 C   0  0  0  0  0  0  0  0  0  0  0  0
    4.2026   -2.1012    0.7367 C   0  0  0  0  0  0  0  0  0  0  0  0
    4.7759   -2.7398    1.4273 H   0  0  0  0  0  0  0  0  0  0  0  0
    2.8028   -2.1357    0.7717 C   0  0  0  0  0  0  0  0  0  0  0  0
    2.2605   -2.7937    1.4651 H   0  0  0  0  0  0  0  0  0  0  0  0
    6.4007   -1.2317   -0.2059 C   0  0  0  0  0  0  0  0  0  0  0  0
    6.7805   -1.5572   -1.1972 H   0  0  0  0  0  0  0  0  0  0  0  0
    6.8473   -1.8934    0.5609 H   0  0  0  0  0  0  0  0  0  0  0  0
    6.7882   -0.2050   -0.0384 H   0  0  0  0  0  0  0  0  0  0  0  0
   -1.3202   -2.2490    0.0687 C   0  0  0  0  0  0  0  0  0  0  0  0
   -2.1791   -3.3693    0.1647 C   0  0  0  0  0  0  0  0  0  0  0  0
   -1.7391   -4.3676    0.3050 H   0  0  0  0  0  0  0  0  0  0  0  0
   -3.5542   -3.1810    0.0560 C   0  0  0  0  0  0  0  0  0  0  0  0
   -4.2348   -4.0436    0.1282 H   0  0  0  0  0  0  0  0  0  0  0  0
   -4.0929   -1.8881   -0.1786 C   0  0  0  0  0  0  0  0  0  0  0  0
   -3.2215   -0.7824   -0.2738 C   0  0  0  0  0  0  0  0  0  0  0  0
   -3.6486    0.2098   -0.4877 H   0  0  0  0  0  0  0  0  0  0  0  0
   -1.8348   -0.9261   -0.1158 C   0  0  0  0  0  3  0  0  0  0  0  0
   -5.5814   -1.7124   -0.3332 C   0  0  0  0  0  0  0  0  0  0  0  0
   -5.9689   -2.3179   -1.1796 H   0  0  0  0  0  0  0  0  0  0  0  0
   -5.8535   -0.6556   -0.5182 H   0  0  0  0  0  0  0  0  0  0  0  0
   -6.1235   -2.0534    0.5742 H   0  0  0  0  0  0  0  0  0  0  0  0
  1  2  1  0  0  0  0
  3  1  1  0  0  0  0
  3 11  1  0  0  0  0
  4  3  2  0  0  0  0
  5  4  1  0  0  0  0
  6  4  1  0  0  0  0
  6  8  2  0  0  0  0
  7  6  1  0  0  0  0
  8  9  1  0  0  0  0
  9 11  2  0  0  0  0
  9 10  1  0  0  0  0
 11 12  1  0  0  0  0
 13  8  1  0  0  0  0
 13 16  1  0  0  0  0
 13 15  1  0  0  0  0
 14 13  1  0  0  0  0
 17  2  1  0  0  0  0
 17 18  1  0  0  0  0
 18 19  1  0  0  0  0
 20 21  1  0  0  0  0
 20 18  2  0  0  0  0
 22 20  1  0  0  0  0
 23 22  2  0  0  0  0
 23 25  1  0  0  0  0
 24 23  1  0  0  0  0
 25 17  2  0  0  0  0
 26 22  1  0  0  0  0
 26 29  1  0  0  0  0
 27 26  1  0  0  0  0
 28 26  1  0  0  0  0
M  END
