5,8
q = -1.0

 37 38  0  0  1  0  0  0  0  0999 V2000
    5.4921   -0.6352    0.2010 O   0  0  0  0  0  0  0  0  0  0  0  0
    1.2870    1.5934    0.0466 N   0  0  0  0  0  2  0  0  0  0  0  0
    2.7278   -0.2490    0.1698 N   0  0  0  0  0  0  0  0  0  0  0  0
    3.6103    0.2861    0.2227 H   0  0  0  0  0  0  0  0  0  0  0  0
    1.7150   -2.3375    0.1165 N   0  0  0  0  0  2  0  0  0  0  0  0
    2.1389   -3.6335    0.1131 N   0  0  0  0  0  0  0  0  0  0  0  0
    1.4614   -4.3943    0.0890 H   0  0  0  0  0  0  0  0  0  0  0  0
    1.4638    0.3174    0.0807 C   0  0  0  0  0  2  0  0  0  0  0  0
    2.2906    2.5915    0.0122 C   0  0  0  0  0  0  0  0  0  0  0  0
    3.2011    2.6875   -1.0759 C   0  0  0  0  0  0  0  0  0  0  0  0
    3.1634    1.7289   -2.2403 C   0  0  0  0  0  0  0  0  0  0  0  0
    3.7947    0.8321   -2.0613 H   0  0  0  0  0  0  0  0  0  0  0  0
    3.5483    2.2152   -3.1569 H   0  0  0  0  0  0  0  0  0  0  0  0
    2.1355    1.3675   -2.4440 H   0  0  0  0  0  0  0  0  0  0  0  0
    4.1367    3.7418   -1.0576 C   0  0  0  0  0  0  0  0  0  0  0  0
    4.8457    3.8330   -1.8951 H   0  0  0  0  0  0  0  0  0  0  0  0
    4.1693    4.6700   -0.0116 C   0  0  0  0  0  0  0  0  0  0  0  0
    4.9111    5.4822   -0.0192 H   0  0  0  0  0  0  0  0  0  0  0  0
    3.2433    4.5741    1.0379 C   0  0  0  0  0  0  0  0  0  0  0  0
    3.2578    5.3113    1.8555 H   0  0  0  0  0  0  0  0  0  0  0  0
    2.2842    3.5494    1.0635 C   0  0  0  0  0  0  0  0  0  0  0  0
    1.2647    3.4505    2.1689 C   0  0  0  0  0  0  0  0  0  0  0  0
    0.2335    3.6053    1.7840 H   0  0  0  0  0  0  0  0  0  0  0  0
    1.4471    4.2133    2.9489 H   0  0  0  0  0  0  0  0  0  0  0  0
    1.2741    2.4514    2.6512 H   0  0  0  0  0  0  0  0  0  0  0  0
    2.8404   -1.6056    0.1650 C   0  0  1  0  0  3  0  0  0  0  0  0
    4.0019   -2.4332    0.1923 C   0  0  0  0  0  0  0  0  0  0  0  0
    5.3627   -1.8641    0.2141 C   0  0  0  0  0  0  0  0  0  0  0  0
    6.5586   -2.7862    0.2465 C   0  0  0  0  0  0  0  0  0  0  0  0
    7.4827   -2.1818    0.2651 H   0  0  0  0  0  0  0  0  0  0  0  0
    6.5712   -3.4482   -0.6439 H   0  0  0  0  0  0  0  0  0  0  0  0
    6.5286   -3.4408    1.1417 H   0  0  0  0  0  0  0  0  0  0  0  0
    3.4903   -3.7530    0.1609 C   0  0  0  0  0  0  0  0  0  0  0  0
    4.1578   -5.0864    0.1689 C   0  0  0  0  0  0  0  0  0  0  0  0
    3.4182   -5.9095    0.1432 H   0  0  0  0  0  0  0  0  0  0  0  0
    4.7803   -5.2163    1.0764 H   0  0  0  0  0  0  0  0  0  0  0  0
    4.8272   -5.2039   -0.7065 H   0  0  0  0  0  0  0  0  0  0  0  0
  1 28  2  0  0  0  0
  2  8  1  0  0  0  0
  3  4  1  0  0  0  0
  5 26  1  0  0  0  0
  6  5  1  0  0  0  0
  6 33  1  0  0  0  0
  7  6  1  0  0  0  0
  8  3  1  0  0  0  0
  9  2  1  0  0  0  0
  9 21  1  0  0  0  0
 10 15  1  0  0  0  0
 10  9  2  0  0  0  0
 11 12  1  0  0  0  0
 11 10  1  0  0  0  0
 13 11  1  0  0  0  0
 14 11  1  0  0  0  0
 15 17  2  0  0  0  0
 16 15  1  0  0  0  0
 17 19  1  0  0  0  0
 18 17  1  0  0  0  0
 19 21  2  0  0  0  0
 19 20  1  0  0  0  0
 21 22  1  0  0  0  0
 22 25  1  0  0  0  0
 22 24  1  0  0  0  0
 23 22  1  0  0  0  0
 26  3  1  6  0  0  0
 26 27  1  0  0  0  0
 27 28  1  0  0  0  0
 28 29  1  0  0  0  0
 29 30  1  0  0  0  0
 29 32  1  0  0  0  0
 31 29  1  0  0  0  0
 33 34  1  0  0  0  0
 33 27  2  0  0  0  0
 34 36  1  0  0  0  0
 35 34  1  0  0  0  0
 37 34  1  0  0  0  0
M  END
