1,19
q = -1.0, confidence = 0.0

 31 33  0  0  0  0  0  0  0  0999 V2000
    1.9543   -1.8800   -0.5911 N   0  0  0  0  0  2  0  0  0  0  0  0
    2.7445   -2.7937    0.0139 C   0  0  0  0  0  3  0  0  0  0  0  0
    3.2497   -2.4453    0.9262 H   0  0  0  0  0  0  0  0  0  0  0  0
    2.8969   -4.0881   -0.4845 C   0  0  0  0  0  0  0  0  0  0  0  0
    3.5460   -4.8009    0.0419 H   0  0  0  0  0  0  0  0  0  0  0  0
    2.2044   -4.4443   -1.6556 C   0  0  0  0  0  0  0  0  0  0  0  0
    2.3038   -5.4552   -2.0782 H   0  0  0  0  0  0  0  0  0  0  0  0
    1.3794   -3.5028   -2.2736 C   0  0  0  0  0  0  0  0  0  0  0  0
    0.8206   -3.7602   -3.1836 H   0  0  0  0  0  0  0  0  0  0  0  0
    1.2484   -2.2088   -1.7287 C   0  0  0  0  0  0  0  0  0  0  0  0
    0.3723   -1.1459   -2.2044 C   0  0  0  0  0  0  0  0  0  0  0  0
   -0.5600   -1.2877   -3.2565 C   0  0  0  0  0  0  0  0  0  0  0  0
   -0.5834   -2.2070   -3.8623 H   0  0  0  0  0  0  0  0  0  0  0  0
   -1.5007   -0.2868   -3.5075 C   0  0  0  0  0  0  0  0  0  0  0  0
   -2.2622   -0.3883   -4.2931 H   0  0  0  0  0  0  0  0  0  0  0  0
   -1.5060    0.8643   -2.6922 C   0  0  0  0  0  0  0  0  0  0  0  0
   -0.5217    1.0646   -1.7112 C   0  0  0  0  0  0  0  0  0  0  0  0
   -0.5447    1.9898   -1.1176 H   0  0  0  0  0  0  0  0  0  0  0  0
    0.4300    0.0665   -1.4430 C   0  0  0  0  0  3  0  0  0  0  0  0
   -3.1194    2.3868   -1.8263 C   0  0  0  0  0  0  0  0  0  0  0  0
   -3.3271    1.7180   -0.6037 C   0  0  0  0  0  0  0  0  0  0  0  0
   -2.9607    0.6921   -0.4604 H   0  0  0  0  0  0  0  0  0  0  0  0
   -4.0104    2.3755    0.4284 C   0  0  0  0  0  0  0  0  0  0  0  0
   -4.1688    1.8431    1.3784 H   0  0  0  0  0  0  0  0  0  0  0  0
   -4.4917    3.6837    0.2536 C   0  0  0  0  0  0  0  0  0  0  0  0
   -5.0286    4.1914    1.0687 H   0  0  0  0  0  0  0  0  0  0  0  0
   -4.2866    4.3361   -0.9733 C   0  0  0  0  0  0  0  0  0  0  0  0
   -4.6610    5.3602   -1.1242 H   0  0  0  0  0  0  0  0  0  0  0  0
   -3.5991    3.6945   -2.0137 C   0  0  0  0  0  0  0  0  0  0  0  0
   -3.4237    4.1875   -2.9807 H   0  0  0  0  0  0  0  0  0  0  0  0
   -2.5065    1.7859   -2.9088 O   0  0  0  0  0  0  0  0  0  0  0  0
  1  2  1  0  0  0  0
  2  3  1  0  0  0  0
  4  2  1  0  0  0  0
  4  5  1  0  0  0  0
  6  4  2  0  0  0  0
  7  6  1  0  0  0  0
  8 10  2  0  0  0  0
  8  6  1  0  0  0  0
  9  8  1  0  0  0  0
 10  1  1  0  0  0  0
 11 10  1  0  0  0  0
 11 19  1  0  0  0  0
 12 11  2  0  0  0  0
 13 12  1  0  0  0  0
 14 12  1  0  0  0  0
 14 16  2  0  0  0  0
 15 14  1  0  0  0  0
 16 17  1  0  0  0  0
 17 19  2  0  0  0  0
 17 18  1  0  0  0  0
 20 21  1  0  0  0  0
 21 22  1  0  0  0  0
 21 23  2  0  0  0  0
 23 24  1  0  0  0  0
 25 23  1  0  0  0  0
 25 26  1  0  0  0  0
 27 25  2  0  0  0  0
 28 27  1  0  0  0  0
 29 20  2  0  0  0  0
 29 27  1  0  0  0  0
 30 29  1  0  0  0  0
 31 16  1  0  0  0  0
 31 20  1  0  0  0  0
M  END
