2,8
q = -1.0

 23 23  0  0  1  0  0  0  0  0999 V2000
   -4.6470   -1.0531   -0.2233 O   0  0  0  0  0  0  0  0  0  0  0  0
    0.6162    2.1435   -0.7729 N   0  0  0  0  0  0  0  0  0  0  0  0
    1.4906    2.6853   -0.7033 H   0  0  0  0  0  0  0  0  0  0  0  0
    0.3388    2.1507   -1.7667 H   0  0  0  0  0  0  0  0  0  0  0  0
   -0.4744    2.7806    0.0470 C   0  0  1  0  0  0  0  0  0  0  0  0
   -0.7797    3.7338   -0.4390 H   0  0  0  0  0  0  0  0  0  0  0  0
   -1.5989    1.7786    0.0189 C   0  0  0  0  0  0  0  0  0  0  0  0
   -1.2362    0.4133   -0.1027 C   0  0  0  0  0  3  0  0  0  0  0  0
   -2.2493   -0.5562   -0.2095 C   0  0  0  0  0  0  0  0  0  0  0  0
   -2.0065   -1.6151   -0.3631 H   0  0  0  0  0  0  0  0  0  0  0  0
   -3.6123   -0.1819   -0.1383 C   0  0  0  0  0  0  0  0  0  0  0  0
   -4.3760   -2.4307   -0.4016 C   0  0  0  0  0  0  0  0  0  0  0  0
   -3.8288   -2.6259   -1.3513 H   0  0  0  0  0  0  0  0  0  0  0  0
   -5.3558   -2.9398   -0.4431 H   0  0  0  0  0  0  0  0  0  0  0  0
   -3.7895   -2.8502    0.4472 H   0  0  0  0  0  0  0  0  0  0  0  0
   -3.9599    1.1770    0.0256 C   0  0  0  0  0  0  0  0  0  0  0  0
   -5.0246    1.4436    0.0765 H   0  0  0  0  0  0  0  0  0  0  0  0
   -2.9573    2.1438    0.0901 C   0  0  0  0  0  0  0  0  0  0  0  0
   -3.2362    3.2053    0.1861 H   0  0  0  0  0  0  0  0  0  0  0  0
    0.0513    3.0864    1.4497 C   0  0  0  0  0  0  0  0  0  0  0  0
    0.3665    2.1489    1.9529 H   0  0  0  0  0  0  0  0  0  0  0  0
   -0.7520    3.5454    2.0567 H   0  0  0  0  0  0  0  0  0  0  0  0
    0.9050    3.7967    1.4276 H   0  0  0  0  0  0  0  0  0  0  0  0
  1 11  1  0  0  0  0
  2  3  1  0  0  0  0
  2  5  1  0  0  0  0
  4  2  1  0  0  0  0
  5  6  1  6  0  0  0
  5 20  1  0  0  0  0
  7  5  1  0  0  0  0
  7 18  1  0  0  0  0
  8  7  2  0  0  0  0
  9 11  2  0  0  0  0
  9  8  1  0  0  0  0
 10  9  1  0  0  0  0
 11 16  1  0  0  0  0
 12  1  1  0  0  0  0
 12 15  1  0  0  0  0
 13 12  1  0  0  0  0
 14 12  1  0  0  0  0
 16 17  1  0  0  0  0
 16 18  2  0  0  0  0
 18 19  1  0  0  0  0
 20 21  1  0  0  0  0
 20 22  1  0  0  0  0
 23 20  1  0  0  0  0
M  END
