1,7
q = -1.0, confidence = 0.0

 19 19  0  0  1  0  0  0  0  0999 V2000
    0.5748    2.1413   -0.7379 N   0  0  0  0  0  0  0  0  0  0  0  0
    1.4251    2.7162   -0.6411 H   0  0  0  0  0  0  0  0  0  0  0  0
    0.3198    2.1551   -1.7378 H   0  0  0  0  0  0  0  0  0  0  0  0
   -0.5541    2.7256    0.0686 C   0  0  1  0  0  0  0  0  0  0  0  0
   -0.8911    3.6698   -0.4135 H   0  0  0  0  0  0  0  0  0  0  0  0
   -1.6389    1.6797    0.0186 C   0  0  0  0  0  0  0  0  0  0  0  0
   -1.2114    0.3296   -0.1099 C   0  0  0  0  0  3  0  0  0  0  0  0
   -2.1874   -0.6714   -0.2295 C   0  0  0  0  0  0  0  0  0  0  0  0
   -1.9378   -1.7292   -0.3895 H   0  0  0  0  0  0  0  0  0  0  0  0
   -3.5557   -0.3432   -0.1591 C   0  0  0  0  0  0  0  0  0  0  0  0
   -3.9758    0.9851    0.0100 C   0  0  0  0  0  0  0  0  0  0  0  0
   -5.0475    1.2202    0.0611 H   0  0  0  0  0  0  0  0  0  0  0  0
   -3.0063    1.9939    0.0841 C   0  0  0  0  0  0  0  0  0  0  0  0
   -3.3271    3.0430    0.1841 H   0  0  0  0  0  0  0  0  0  0  0  0
   -0.0678    3.0359    1.4843 C   0  0  0  0  0  0  0  0  0  0  0  0
   -0.8985    3.4582    2.0808 H   0  0  0  0  0  0  0  0  0  0  0  0
    0.7579    3.7785    1.4832 H   0  0  0  0  0  0  0  0  0  0  0  0
    0.2751    2.1067    1.9846 H   0  0  0  0  0  0  0  0  0  0  0  0
   -4.7360   -1.6154   -0.2905 Cl  0  0  0  0  0  0  0  0  0  0  0  0
  1  2  1  0  0  0  0
  1  4  1  0  0  0  0
  3  1  1  0  0  0  0
  4  5  1  6  0  0  0
  4 15  1  0  0  0  0
  6  4  1  0  0  0  0
  6 13  1  0  0  0  0
  7  6  2  0  0  0  0
  8 10  2  0  0  0  0
  8  7  1  0  0  0  0
  9  8  1  0  0  0  0
 10 11  1  0  0  0  0
 11 12  1  0  0  0  0
 11 13  2  0  0  0  0
 13 14  1  0  0  0  0
 15 18  1  0  0  0  0
 15 16  1  0  0  0  0
 17 15  1  0  0  0  0
 19 10  1  0  0  0  0
M  END
