1,10
q = -2.0, confidence = 0.876

 47 49  0  0  1  0  0  0  0  0999 V2000
   -0.6714   -0.5575   -1.4334 C   0  0  1  0  0  3  0  0  0  0  0  0
   -1.3060   -1.8136   -1.7170 C   0  0  0  0  0  3  0  0  0  0  0  0
   -0.9817   -2.7866   -1.3399 H   0  0  0  0  0  0  0  0  0  0  0  0
   -2.4505   -1.6019   -2.5305 C   0  0  0  0  0  0  0  0  0  0  0  0
   -3.1443   -2.3742   -2.8815 H   0  0  0  0  0  0  0  0  0  0  0  0
   -2.5793   -0.2061   -2.7369 C   0  0  0  0  0  0  0  0  0  0  0  0
   -3.3573    0.2829   -3.3344 H   0  0  0  0  0  0  0  0  0  0  0  0
   -1.4748    0.4290   -2.0811 C   0  0  0  0  0  3  0  0  0  0  0  0
   -1.2954    1.5097   -2.0515 H   0  0  0  0  0  0  0  0  0  0  0  0
   -0.8961   -0.6580    0.9923 N   0  0  0  0  0  0  0  0  0  0  0  0
   -0.9986    0.1615    1.5985 H   0  0  0  0  0  0  0  0  0  0  0  0
   -0.7710   -1.8052    1.9827 C   0  0  0  0  0  0  0  0  0  0  0  0
   -2.0346   -1.8313    2.8629 C   0  0  0  0  0  0  0  0  0  0  0  0
   -2.1421   -0.8895    3.4400 H   0  0  0  0  0  0  0  0  0  0  0  0
   -1.9582   -2.6576    3.5966 H   0  0  0  0  0  0  0  0  0  0  0  0
   -2.9475   -2.0001    2.2631 H   0  0  0  0  0  0  0  0  0  0  0  0
   -0.6038   -3.1577    1.2811 C   0  0  0  0  0  0  0  0  0  0  0  0
   -1.5095   -3.4306    0.7079 H   0  0  0  0  0  0  0  0  0  0  0  0
   -0.4367   -3.9434    2.0438 H   0  0  0  0  0  0  0  0  0  0  0  0
    0.2719   -3.1569    0.6056 H   0  0  0  0  0  0  0  0  0  0  0  0
    0.4324   -1.5604    2.9175 C   0  0  0  0  0  0  0  0  0  0  0  0
    1.3919   -1.7642    2.4139 H   0  0  0  0  0  0  0  0  0  0  0  0
    0.3610   -2.2431    3.7873 H   0  0  0  0  0  0  0  0  0  0  0  0
    0.4512   -0.5201    3.2962 H   0  0  0  0  0  0  0  0  0  0  0  0
    0.2353   -0.2542   -0.1110 B   0  0  0  0  0  0  0  0  0  0  0  0
    0.5344    1.3753   -0.0781 C   0  0  0  0  0  0  0  0  0  0  0  0
    0.2545    2.2955    0.9402 C   0  0  0  0  0  0  0  0  0  0  0  0
    0.5691    3.6633    0.8808 C   0  0  0  0  0  0  0  0  0  0  0  0
    1.2274    4.1606   -0.2544 C   0  0  0  0  0  0  0  0  0  0  0  0
    1.5521    3.2814   -1.3006 C   0  0  0  0  0  0  0  0  0  0  0  0
    1.2077    1.9239   -1.1865 C   0  0  0  0  0  0  0  0  0  0  0  0
   -0.3575    1.8960    2.0957 F   0  0  0  0  0  0  0  0  0  0  0  0
    0.2612    4.4844    1.8918 F   0  0  0  0  0  0  0  0  0  0  0  0
    1.5430    5.4557   -0.3381 F   0  0  0  0  0  0  0  0  0  0  0  0
    2.1843    3.7420   -2.3852 F   0  0  0  0  0  0  0  0  0  0  0  0
    1.5565    1.1297   -2.2176 F   0  0  0  0  0  0  0  0  0  0  0  0
    1.7189   -0.9666   -0.0274 C   0  0  0  0  0  0  0  0  0  0  0  0
    2.6955   -0.4791    0.8665 C   0  0  0  0  0  0  0  0  0  0  0  0
    4.0228   -0.9329    0.9114 C   0  0  0  0  0  0  0  0  0  0  0  0
    4.4332   -1.9345    0.0178 C   0  0  0  0  0  0  0  0  0  0  0  0
    3.5065   -2.4553   -0.8957 C   0  0  0  0  0  0  0  0  0  0  0  0
    2.1880   -1.9649   -0.8998 C   0  0  0  0  0  0  0  0  0  0  0  0
    2.3788    0.4705    1.7733 F   0  0  0  0  0  0  0  0  0  0  0  0
    4.8913   -0.4307    1.7973 F   0  0  0  0  0  0  0  0  0  0  0  0
    5.6893   -2.3876    0.0413 F   0  0  0  0  0  0  0  0  0  0  0  0
    3.8806   -3.4122   -1.7533 F   0  0  0  0  0  0  0  0  0  0  0  0
    1.3737   -2.5328   -1.8126 F   0  0  0  0  0  0  0  0  0  0  0  0
  1 25  1  1  0  0  0
  2  1  1  0  0  0  0
  2  3  1  0  0  0  0
  4  2  1  0  0  0  0
  5  4  1  0  0  0  0
  6  4  2  0  0  0  0
  6  8  1  0  0  0  0
  7  6  1  0  0  0  0
  8  9  1  0  0  0  0
  8  1  1  0  0  0  0
 10 11  1  0  0  0  0
 10 12  1  0  0  0  0
 12 13  1  0  0  0  0
 12 21  1  0  0  0  0
 13 14  1  0  0  0  0
 13 15  1  0  0  0  0
 16 13  1  0  0  0  0
 17 12  1  0  0  0  0
 17 19  1  0  0  0  0
 18 17  1  0  0  0  0
 20 17  1  0  0  0  0
 21 24  1  0  0  0  0
 21 23  1  0  0  0  0
 22 21  1  0  0  0  0
 25 26  1  0  0  0  0
 25 37  1  0  0  0  0
 25 10  1  0  0  0  0
 26 27  1  0  0  0  0
 27 32  1  0  0  0  0
 28 27  2  0  0  0  0
 28 33  1  0  0  0  0
 29 28  1  0  0  0  0
 30 31  1  0  0  0  0
 30 29  2  0  0  0  0
 31 26  2  0  0  0  0
 34 29  1  0  0  0  0
 35 30  1  0  0  0  0
 36 31  1  0  0  0  0
 37 38  1  0  0  0  0
 38 39  2  0  0  0  0
 38 43  1  0  0  0  0
 39 44  1  0  0  0  0
 40 45  1  0  0  0  0
 40 39  1  0  0  0  0
 41 40  2  0  0  0  0
 42 41  1  0  0  0  0
 42 37  2  0  0  0  0
 46 41  1  0  0  0  0
 47 42  1  0  0  0  0
M  END
