1,5
q = -1.0, confidence = 0.0

 35 36  0  0  1  0  0  0  0  0999 V2000
    0.6638    1.0619   -0.0004 N   0  0  0  0  0  2  0  0  0  0  0  0
    0.2002    2.2890   -0.0038 C   0  0  1  0  0  3  0  0  0  0  0  0
   -1.1300    2.5521   -0.0062 N   0  0  0  0  0  0  0  0  0  0  0  0
   -2.2416    1.6788   -0.0024 C   0  0  1  0  0  3  0  0  0  0  0  0
   -2.1292    0.2662   -0.0005 C   0  0  0  0  0  2  0  0  0  0  0  0
   -3.3428   -0.4609    0.0050 C   0  0  0  0  0  0  0  0  0  0  0  0
   -4.6158    0.1411    0.0076 C   0  0  0  0  0  0  0  0  0  0  0  0
   -4.6833    1.5492    0.0045 C   0  0  0  0  0  0  0  0  0  0  0  0
   -3.5094    2.3036   -0.0002 C   0  0  0  0  0  0  0  0  0  0  0  0
   -5.8733   -0.6924    0.0143 C   0  0  0  0  0  0  0  0  0  0  0  0
    1.1160    3.4893   -0.0049 C   0  0  0  0  0  0  0  0  0  0  0  0
    2.0715    0.8363    0.0018 C   0  0  0  0  0  0  0  0  0  0  0  0
   -1.3728    3.5422   -0.0084 H   0  0  0  0  0  0  0  0  0  0  0  0
   -3.3026   -1.5601    0.0074 H   0  0  0  0  0  0  0  0  0  0  0  0
   -5.6596    2.0585    0.0059 H   0  0  0  0  0  0  0  0  0  0  0  0
   -3.5668    3.4061   -0.0022 H   0  0  0  0  0  0  0  0  0  0  0  0
   -6.5089   -0.4766   -0.8705 H   0  0  0  0  0  0  0  0  0  0  0  0
   -5.6431   -1.7756    0.0078 H   0  0  0  0  0  0  0  0  0  0  0  0
   -6.4939   -0.4845    0.9116 H   0  0  0  0  0  0  0  0  0  0  0  0
    0.5492    4.4392   -0.0034 H   0  0  0  0  0  0  0  0  0  0  0  0
    1.7766    3.4706   -0.8938 H   0  0  0  0  0  0  0  0  0  0  0  0
    1.7795    3.4695    0.8817 H   0  0  0  0  0  0  0  0  0  0  0  0
    2.7732    0.7006   -1.2112 C   0  0  0  0  0  0  0  0  0  0  0  0
    4.1471    0.4271   -1.2020 C   0  0  0  0  0  0  0  0  0  0  0  0
    4.8580    0.2756    0.0067 C   0  0  0  0  0  0  0  0  0  0  0  0
    4.1410    0.4189    1.2133 C   0  0  0  0  0  0  0  0  0  0  0  0
    2.7674    0.6923    1.2175 C   0  0  0  0  0  0  0  0  0  0  0  0
    6.3272   -0.0643    0.0105 C   0  0  0  0  0  0  0  0  0  0  0  0
    2.2220    0.7934   -2.1586 H   0  0  0  0  0  0  0  0  0  0  0  0
    4.6818    0.3217   -2.1594 H   0  0  0  0  0  0  0  0  0  0  0  0
    4.6709    0.3071    2.1726 H   0  0  0  0  0  0  0  0  0  0  0  0
    2.2114    0.7789    2.1627 H   0  0  0  0  0  0  0  0  0  0  0  0
    6.8341    0.3008   -0.9044 H   0  0  0  0  0  0  0  0  0  0  0  0
    6.4825   -1.1642    0.0525 H   0  0  0  0  0  0  0  0  0  0  0  0
    6.8451    0.3690    0.8891 H   0  0  0  0  0  0  0  0  0  0  0  0
  1 12  1  0  0  0  0
  2  1  1  1  0  0  0
  3  2  1  0  0  0  0
  4  3  1  1  0  0  0
  4  5  1  0  0  0  0
  4  9  1  0  0  0  0
  5  6  1  0  0  0  0
  6 14  1  0  0  0  0
  6  7  2  0  0  0  0
  7 10  1  0  0  0  0
  8 15  1  0  0  0  0
  8  7  1  0  0  0  0
  9  8  2  0  0  0  0
 10 19  1  0  0  0  0
 11  2  1  0  0  0  0
 11 20  1  0  0  0  0
 11 22  1  0  0  0  0
 12 27  1  0  0  0  0
 13  3  1  0  0  0  0
 16  9  1  0  0  0  0
 17 10  1  0  0  0  0
 18 10  1  0  0  0  0
 21 11  1  0  0  0  0
 23 24  1  0  0  0  0
 23 12  2  0  0  0  0
 24 25  2  0  0  0  0
 25 28  1  0  0  0  0
 25 26  1  0  0  0  0
 26 27  2  0  0  0  0
 26 31  1  0  0  0  0
 27 32  1  0  0  0  0
 28 34  1  0  0  0  0
 28 35  1  0  0  0  0
 29 23  1  0  0  0  0
 30 24  1  0  0  0  0
 33 28  1  0  0  0  0
M  END
