11,26
q = -1.0

 26 28  0  0  0  0  0  0  0  0999 V2000
   -0.1521    3.2629    0.0613 C   0  0  0  0  0  0  0  0  0  0  0  0
    0.9034    3.5451   -0.0953 H   0  0  0  0  0  0  0  0  0  0  0  0
   -1.1681    4.1855    0.3291 C   0  0  0  0  0  0  0  0  0  0  0  0
   -0.9337    5.2583    0.3661 H   0  0  0  0  0  0  0  0  0  0  0  0
   -2.4565    3.6970    0.5860 C   0  0  0  0  0  0  0  0  0  0  0  0
   -3.2731    4.3826    0.8594 H   0  0  0  0  0  0  0  0  0  0  0  0
   -2.7004    2.3221    0.5074 C   0  0  0  0  0  0  0  0  0  0  0  0
   -3.6916    1.9290    0.7565 H   0  0  0  0  0  0  0  0  0  0  0  0
   -1.6610    1.4296    0.1613 C   0  0  0  0  0  0  0  0  0  0  0  0
   -1.7275   -0.0307    0.0428 C   0  0  0  0  0  0  0  0  0  0  0  0
   -0.4559   -0.6627    0.0636 C   0  0  0  0  0  3  0  0  0  0  0  0
   -0.3917   -2.0820    0.0984 C   0  0  0  0  0  0  0  0  0  0  0  0
    0.5825   -2.5921    0.1122 H   0  0  0  0  0  0  0  0  0  0  0  0
   -1.5444   -2.8507    0.1213 C   0  0  0  0  0  0  0  0  0  0  0  0
   -1.4798   -3.9493    0.1836 H   0  0  0  0  0  0  0  0  0  0  0  0
   -2.8319   -2.2523    0.0093 C   0  0  0  0  0  0  0  0  0  0  0  0
   -2.9375   -0.8128   -0.0869 C   0  0  0  0  0  3  0  0  0  0  0  0
   -4.2316   -0.2801   -0.3745 C   0  0  0  0  0  0  0  0  0  0  0  0
   -4.3471    0.7891   -0.5866 H   0  0  0  0  0  0  0  0  0  0  0  0
   -5.3546   -1.0940   -0.4648 C   0  0  0  0  0  0  0  0  0  0  0  0
   -6.3306   -0.6435   -0.7022 H   0  0  0  0  0  0  0  0  0  0  0  0
   -5.2526   -2.4948   -0.2776 C   0  0  0  0  0  0  0  0  0  0  0  0
   -6.1501   -3.1286   -0.3365 H   0  0  0  0  0  0  0  0  0  0  0  0
   -4.0045   -3.0584   -0.0626 C   0  0  0  0  0  0  0  0  0  0  0  0
   -3.8929   -4.1499    0.0344 H   0  0  0  0  0  0  0  0  0  0  0  0
   -0.3915    1.9384   -0.0037 N   0  0  0  0  0  2  0  0  0  0  0  0
  1  3  2  0  0  0  0
  2  1  1  0  0  0  0
  3  4  1  0  0  0  0
  3  5  1  0  0  0  0
  5  6  1  0  0  0  0
  7  5  2  0  0  0  0
  7  8  1  0  0  0  0
  9  7  1  0  0  0  0
 10 11  1  0  0  0  0
 10  9  2  0  0  0  0
 11 12  2  0  0  0  0
 12 13  1  0  0  0  0
 12 14  1  0  0  0  0
 14 15  1  0  0  0  0
 16 14  2  0  0  0  0
 17 16  1  0  0  0  0
 17 10  1  0  0  0  0
 18 17  1  0  0  0  0
 19 18  1  0  0  0  0
 20 18  2  0  0  0  0
 20 22  1  0  0  0  0
 21 20  1  0  0  0  0
 22 24  2  0  0  0  0
 23 22  1  0  0  0  0
 24 16  1  0  0  0  0
 24 25  1  0  0  0  0
 26  1  1  0  0  0  0
 26  9  1  0  0  0  0
M  END
