2,9
q = -1.0, confidence = 0.002

 25 27  0  0  1  0  0  0  0  0999 V2000
   -3.3411    2.8869    1.2082 Cl  0  0  0  0  0  0  0  0  0  0  0  0
   -0.8134    1.1365   -1.4331 C   0  0  0  0  0  3  0  0  0  0  0  0
   -0.4653    2.2417   -2.2300 C   0  0  0  0  0  0  0  0  0  0  0  0
   -1.0816    3.4881   -2.0469 C   0  0  0  0  0  0  0  0  0  0  0  0
   -2.0066    3.6711   -1.0118 C   0  0  0  0  0  0  0  0  0  0  0  0
   -2.3610    2.5665   -0.2213 C   0  0  0  0  0  0  0  0  0  0  0  0
   -1.8636    1.2718   -0.4737 C   0  0  0  0  0  0  0  0  0  0  0  0
   -2.2628    0.0510    0.3450 C   0  0  2  0  0  0  0  0  0  0  0  0
   -1.4664   -1.0995   -0.1139 N   0  0  0  0  0  2  0  0  0  0  0  0
   -2.1828   -2.1865   -0.1190 C   0  0  0  0  0  3  0  0  0  0  0  0
   -3.5645   -1.9205    0.2370 C   0  0  0  0  0  0  0  0  0  0  0  0
   -3.6787   -0.5149    0.4325 C   0  0  0  0  0  0  0  0  0  0  0  0
   -4.9328    0.0363    0.7154 C   0  0  0  0  0  0  0  0  0  0  0  0
   -6.0470   -0.8213    0.7917 C   0  0  0  0  0  0  0  0  0  0  0  0
   -5.9234   -2.2122    0.6133 C   0  0  0  0  0  0  0  0  0  0  0  0
   -4.6725   -2.7786    0.3341 C   0  0  0  0  0  0  0  0  0  0  0  0
    0.3266    2.1382   -2.9838 H   0  0  0  0  0  0  0  0  0  0  0  0
   -0.7985    4.3424   -2.6807 H   0  0  0  0  0  0  0  0  0  0  0  0
   -2.4401    4.6557   -0.7898 H   0  0  0  0  0  0  0  0  0  0  0  0
   -1.9450    0.2409    1.4029 H   0  0  0  0  0  0  0  0  0  0  0  0
   -1.7214   -3.1369   -0.4358 H   0  0  0  0  0  0  0  0  0  0  0  0
   -5.0563    1.1159    0.8619 H   0  0  0  0  0  0  0  0  0  0  0  0
   -7.0392   -0.3890    0.9924 H   0  0  0  0  0  0  0  0  0  0  0  0
   -6.8143   -2.8537    0.6852 H   0  0  0  0  0  0  0  0  0  0  0  0
   -4.5576   -3.8623    0.1823 H   0  0  0  0  0  0  0  0  0  0  0  0
  2  7  1  0  0  0  0
  3  4  1  0  0  0  0
  3  2  2  0  0  0  0
  4  5  2  0  0  0  0
  5 19  1  0  0  0  0
  5  6  1  0  0  0  0
  6  1  1  0  0  0  0
  7  6  2  0  0  0  0
  7  8  1  0  0  0  0
  8 12  1  0  0  0  0
  8 20  1  1  0  0  0
  9  8  1  0  0  0  0
 10  9  1  0  0  0  0
 10 11  1  0  0  0  0
 11 16  2  0  0  0  0
 11 12  1  0  0  0  0
 12 13  2  0  0  0  0
 13 14  1  0  0  0  0
 13 22  1  0  0  0  0
 14 23  1  0  0  0  0
 15 24  1  0  0  0  0
 15 14  2  0  0  0  0
 16 15  1  0  0  0  0
 17  3  1  0  0  0  0
 18  4  1  0  0  0  0
 21 10  1  0  0  0  0
 25 16  1  0  0  0  0
M  END
