2,4
q = -1.0, confidence = 0.02

 51 54  0  0  1  0  0  0  0  0999 V2000
    0.6929    0.6416    0.1859 P   0  0  0  0  0  4  0  0  0  0  0  0
   -0.0133   -0.5786   -0.6647 N   0  0  0  0  0  2  0  0  0  0  0  0
   -0.4706    1.9925   -0.1207 C   0  0  0  0  0  0  0  0  0  0  0  0
   -1.7809    1.5760   -0.4480 C   0  0  0  0  0  3  0  0  0  0  0  0
   -2.7487    2.5512   -0.7341 C   0  0  0  0  0  0  0  0  0  0  0  0
   -3.7760    2.2375   -0.9699 H   0  0  0  0  0  0  0  0  0  0  0  0
   -2.4022    3.9128   -0.6884 C   0  0  0  0  0  0  0  0  0  0  0  0
   -3.1670    4.6702   -0.9207 H   0  0  0  0  0  0  0  0  0  0  0  0
   -1.1008    4.3187   -0.3462 C   0  0  0  0  0  0  0  0  0  0  0  0
   -0.8446    5.3881   -0.3106 H   0  0  0  0  0  0  0  0  0  0  0  0
   -0.1249    3.3556   -0.0559 C   0  0  0  0  0  0  0  0  0  0  0  0
    0.9026    3.6595    0.1990 H   0  0  0  0  0  0  0  0  0  0  0  0
    2.3249    1.1771   -0.4069 C   0  0  0  0  0  0  0  0  0  0  0  0
    2.3800    1.7368   -1.7028 C   0  0  0  0  0  0  0  0  0  0  0  0
    1.4582    1.8317   -2.2970 H   0  0  0  0  0  0  0  0  0  0  0  0
    3.6069    2.1638   -2.2237 C   0  0  0  0  0  0  0  0  0  0  0  0
    3.6500    2.5997   -3.2330 H   0  0  0  0  0  0  0  0  0  0  0  0
    4.7789    2.0380   -1.4573 C   0  0  0  0  0  0  0  0  0  0  0  0
    5.7423    2.3758   -1.8684 H   0  0  0  0  0  0  0  0  0  0  0  0
    4.7234    1.4774   -0.1727 C   0  0  0  0  0  0  0  0  0  0  0  0
    5.6422    1.3631    0.4213 H   0  0  0  0  0  0  0  0  0  0  0  0
    3.4993    1.0423    0.3563 C   0  0  0  0  0  0  0  0  0  0  0  0
    3.4631    0.5744    1.3497 H   0  0  0  0  0  0  0  0  0  0  0  0
    0.7651    0.3713    1.9927 C   0  0  0  0  0  0  0  0  0  0  0  0
    0.0951   -0.7514    2.5209 C   0  0  0  0  0  0  0  0  0  0  0  0
   -0.4121   -1.4660    1.8512 H   0  0  0  0  0  0  0  0  0  0  0  0
    0.0501   -0.9413    3.9103 C   0  0  0  0  0  0  0  0  0  0  0  0
   -0.4771   -1.8161    4.3192 H   0  0  0  0  0  0  0  0  0  0  0  0
    0.6633   -0.0175    4.7706 C   0  0  0  0  0  0  0  0  0  0  0  0
    0.6249   -0.1705    5.8598 H   0  0  0  0  0  0  0  0  0  0  0  0
    1.3140    1.1114    4.2447 C   0  0  0  0  0  0  0  0  0  0  0  0
    1.7819    1.8441    4.9194 H   0  0  0  0  0  0  0  0  0  0  0  0
    1.3606    1.3129    2.8583 C   0  0  0  0  0  0  0  0  0  0  0  0
    1.8552    2.2089    2.4529 H   0  0  0  0  0  0  0  0  0  0  0  0
    0.5948   -1.8534   -1.1190 C   0  0  1  0  0  0  0  0  0  0  0  0
    0.0999   -2.6649   -0.5414 H   0  0  0  0  0  0  0  0  0  0  0  0
    0.2375   -2.0703   -2.5898 C   0  0  0  0  0  0  0  0  0  0  0  0
   -0.8632   -2.1466   -2.6833 H   0  0  0  0  0  0  0  0  0  0  0  0
    0.6799   -3.0140   -2.9663 H   0  0  0  0  0  0  0  0  0  0  0  0
    0.5827   -1.2284   -3.2229 H   0  0  0  0  0  0  0  0  0  0  0  0
    2.0834   -1.9279   -0.8089 C   0  0  0  0  0  0  0  0  0  0  0  0
    2.4981   -2.3282    0.4790 C   0  0  0  0  0  0  0  0  0  0  0  0
    1.7386   -2.5955    1.2289 H   0  0  0  0  0  0  0  0  0  0  0  0
    3.8593   -2.4054    0.8080 C   0  0  0  0  0  0  0  0  0  0  0  0
    4.1605   -2.7254    1.8173 H   0  0  0  0  0  0  0  0  0  0  0  0
    4.8327   -2.0936   -0.1543 C   0  0  0  0  0  0  0  0  0  0  0  0
    5.9022   -2.1590    0.0977 H   0  0  0  0  0  0  0  0  0  0  0  0
    4.4334   -1.7089   -1.4444 C   0  0  0  0  0  0  0  0  0  0  0  0
    5.1899   -1.4658   -2.2058 H   0  0  0  0  0  0  0  0  0  0  0  0
    3.0718   -1.6277   -1.7679 C   0  0  0  0  0  0  0  0  0  0  0  0
    2.7734   -1.3218   -2.7805 H   0  0  0  0  0  0  0  0  0  0  0  0
  1 24  1  0  0  0  0
  2  1  1  0  0  0  0
  3 11  1  0  0  0  0
  3  1  1  0  0  0  0
  4  3  2  0  0  0  0
  5  7  2  0  0  0  0
  5  4  1  0  0  0  0
  6  5  1  0  0  0  0
  7  9  1  0  0  0  0
  8  7  1  0  0  0  0
  9 10  1  0  0  0  0
  9 11  2  0  0  0  0
 11 12  1  0  0  0  0
 13  1  1  0  0  0  0
 13 22  1  0  0  0  0
 14 13  2  0  0  0  0
 15 14  1  0  0  0  0
 16 14  1  0  0  0  0
 16 18  2  0  0  0  0
 17 16  1  0  0  0  0
 18 20  1  0  0  0  0
 19 18  1  0  0  0  0
 20 22  2  0  0  0  0
 20 21  1  0  0  0  0
 22 23  1  0  0  0  0
 24 25  2  0  0  0  0
 24 33  1  0  0  0  0
 25 27  1  0  0  0  0
 26 25  1  0  0  0  0
 27 28  1  0  0  0  0
 27 29  2  0  0  0  0
 29 30  1  0  0  0  0
 31 29  1  0  0  0  0
 31 32  1  0  0  0  0
 33 31  2  0  0  0  0
 34 33  1  0  0  0  0
 35 41  1  0  0  0  0
 35  2  1  0  0  0  0
 35 36  1  1  0  0  0
 37 35  1  0  0  0  0
 38 37  1  0  0  0  0
 39 37  1  0  0  0  0
 40 37  1  0  0  0  0
 41 42  1  0  0  0  0
 42 44  2  0  0  0  0
 42 43  1  0  0  0  0
 44 45  1  0  0  0  0
 46 47  1  0  0  0  0
 46 44  1  0  0  0  0
 48 46  2  0  0  0  0
 49 48  1  0  0  0  0
 50 48  1  0  0  0  0
 50 41  2  0  0  0  0
 51 50  1  0  0  0  0
M  END
