1,11
q = -1.0

 23 25  0  0  1  0  0  0  0  0999 V2000
   -0.1221    1.5563    0.3805 N   0  0  0  0  0  2  0  0  0  0  0  0
   -2.2736    2.6378    0.3217 N   0  0  0  0  0  0  0  0  0  0  0  0
   -1.4924    1.5538    0.2272 C   0  0  1  0  0  3  0  0  0  0  0  0
   -1.6659    3.8064    0.5502 C   0  0  0  0  0  0  0  0  0  0  0  0
   -2.3206    4.6920    0.6277 H   0  0  0  0  0  0  0  0  0  0  0  0
   -0.2716    3.9269    0.6765 C   0  0  0  0  0  0  0  0  0  0  0  0
    0.2193    4.8949    0.8406 H   0  0  0  0  0  0  0  0  0  0  0  0
    0.4725    2.7478    0.5748 C   0  0  0  0  0  0  0  0  0  0  0  0
    1.5697    2.7312    0.6449 H   0  0  0  0  0  0  0  0  0  0  0  0
   -1.9983    0.3181   -0.0382 N   0  0  0  0  0  0  0  0  0  0  0  0
   -1.0795   -0.7615   -0.1894 C   0  0  0  0  0  3  0  0  0  0  0  0
   -1.8262   -1.8850   -0.4879 C   0  0  0  0  0  0  0  0  0  0  0  0
   -1.4201   -2.8793   -0.7045 H   0  0  0  0  0  0  0  0  0  0  0  0
   -3.2293   -1.5182   -0.5258 C   0  0  0  0  0  0  0  0  0  0  0  0
   -4.4173   -2.2335   -0.7722 C   0  0  0  0  0  0  0  0  0  0  0  0
   -4.3803   -3.3099   -0.9991 H   0  0  0  0  0  0  0  0  0  0  0  0
   -5.6440   -1.5537   -0.7275 C   0  0  0  0  0  0  0  0  0  0  0  0
   -6.5765   -2.1058   -0.9209 H   0  0  0  0  0  0  0  0  0  0  0  0
   -5.7041   -0.1736   -0.4419 C   0  0  0  0  0  0  0  0  0  0  0  0
   -6.6797    0.3348   -0.4159 H   0  0  0  0  0  0  0  0  0  0  0  0
   -4.5365    0.5687   -0.1929 C   0  0  0  0  0  0  0  0  0  0  0  0
   -4.5601    1.6435    0.0247 H   0  0  0  0  0  0  0  0  0  0  0  0
   -3.3196   -0.1201   -0.2395 C   0  0  0  0  0  0  0  0  0  0  0  0
  1  8  1  0  0  0  0
  2  4  2  0  0  0  0
  3 10  1  6  0  0  0
  3  2  1  0  0  0  0
  3  1  1  0  0  0  0
  4  5  1  0  0  0  0
  4  6  1  0  0  0  0
  6  7  1  0  0  0  0
  8  9  1  0  0  0  0
  8  6  2  0  0  0  0
 11 10  1  0  0  0  0
 12 11  2  0  0  0  0
 13 12  1  0  0  0  0
 14 12  1  0  0  0  0
 14 23  1  0  0  0  0
 15 17  1  0  0  0  0
 15 14  2  0  0  0  0
 16 15  1  0  0  0  0
 17 19  2  0  0  0  0
 18 17  1  0  0  0  0
 19 20  1  0  0  0  0
 19 21  1  0  0  0  0
 21 22  1  0  0  0  0
 23 21  2  0  0  0  0
 23 10  1  0  0  0  0
M  END
