1,2
q = -1.0

 28 29  0  0  0  0  0  0  0  0999 V2000
   -1.0883    1.3543   -0.0514 N   0  0  0  0  0  2  0  0  0  0  0  0
    1.5000    1.1522    0.0124 C   0  0  0  0  0  3  0  0  0  0  0  0
    2.9053    1.0583   -0.1438 C   0  0  0  0  0  0  0  0  0  0  0  0
    3.7165    2.2068   -0.0311 C   0  0  0  0  0  0  0  0  0  0  0  0
    4.8083    2.1226   -0.1227 H   0  0  0  0  0  0  0  0  0  0  0  0
    3.1509    3.4810    0.1870 C   0  0  0  0  0  0  0  0  0  0  0  0
    3.8115    4.3572    0.2669 H   0  0  0  0  0  0  0  0  0  0  0  0
    1.7689    3.6242    0.2698 C   0  0  0  0  0  0  0  0  0  0  0  0
    1.3042    4.6148    0.3897 H   0  0  0  0  0  0  0  0  0  0  0  0
    0.9602    2.4636    0.1712 C   0  0  0  0  0  0  0  0  0  0  0  0
   -0.4746    2.5022    0.1078 C   0  0  0  0  0  3  0  0  0  0  0  0
   -1.0496    3.4474    0.1183 H   0  0  0  0  0  0  0  0  0  0  0  0
   -2.4925    1.2723   -0.1867 C   0  0  0  0  0  0  0  0  0  0  0  0
   -3.3503    1.8606    0.7661 C   0  0  0  0  0  0  0  0  0  0  0  0
   -2.9176    2.3917    1.6274 H   0  0  0  0  0  0  0  0  0  0  0  0
   -4.7413    1.7366    0.6223 C   0  0  0  0  0  0  0  0  0  0  0  0
   -5.4076    2.1876    1.3735 H   0  0  0  0  0  0  0  0  0  0  0  0
   -5.2796    1.0336   -0.4663 C   0  0  0  0  0  0  0  0  0  0  0  0
   -6.3702    0.9360   -0.5751 H   0  0  0  0  0  0  0  0  0  0  0  0
   -4.4188    0.4508   -1.4146 C   0  0  0  0  0  0  0  0  0  0  0  0
   -4.8372   -0.0958   -2.2737 H   0  0  0  0  0  0  0  0  0  0  0  0
   -3.0301    0.5571   -1.2782 C   0  0  0  0  0  0  0  0  0  0  0  0
   -2.3272    0.1132   -2.0017 H   0  0  0  0  0  0  0  0  0  0  0  0
    3.4165   -0.1811   -0.4162 O   0  0  0  0  0  0  0  0  0  0  0  0
    4.7808   -0.2884   -0.7634 C   0  0  0  0  0  0  0  0  0  0  0  0
    4.9502   -1.3463   -1.0409 H   0  0  0  0  0  0  0  0  0  0  0  0
    5.4559   -0.0282    0.0844 H   0  0  0  0  0  0  0  0  0  0  0  0
    5.0368    0.3570   -1.6331 H   0  0  0  0  0  0  0  0  0  0  0  0
  1 11  1  0  0  0  0
  2 10  1  0  0  0  0
  3  4  1  0  0  0  0
  3  2  2  0  0  0  0
  4  6  2  0  0  0  0
  5  4  1  0  0  0  0
  6  7  1  0  0  0  0
  6  8  1  0  0  0  0
  8  9  1  0  0  0  0
 10  8  2  0  0  0  0
 11 12  1  0  0  0  0
 11 10  1  0  0  0  0
 13  1  1  0  0  0  0
 13 14  1  0  0  0  0
 14 15  1  0  0  0  0
 16 14  2  0  0  0  0
 16 17  1  0  0  0  0
 18 16  1  0  0  0  0
 19 18  1  0  0  0  0
 20 22  1  0  0  0  0
 20 18  2  0  0  0  0
 21 20  1  0  0  0  0
 22 13  2  0  0  0  0
 23 22  1  0  0  0  0
 24  3  1  0  0  0  0
 25 24  1  0  0  0  0
 25 27  1  0  0  0  0
 26 25  1  0  0  0  0
 28 25  1  0  0  0  0
M  END
