1,2
q = -1.0, confidence = 0.0

 27 28  0  0  0  0  0  0  0  0999 V2000
    1.2335   -1.4563   -0.0580 N   0  0  0  0  0  2  0  0  0  0  0  0
   -1.2269   -0.6489   -0.0741 C   0  0  0  0  0  3  0  0  0  0  0  0
   -2.5495   -0.1975   -0.1890 C   0  0  0  0  0  0  0  0  0  0  0  0
   -2.7601    0.8630   -0.3896 H   0  0  0  0  0  0  0  0  0  0  0  0
   -3.6264   -1.0943   -0.0620 C   0  0  0  0  0  0  0  0  0  0  0  0
   -3.4108   -2.4757    0.1219 C   0  0  0  0  0  0  0  0  0  0  0  0
   -4.2689   -3.1554    0.2086 H   0  0  0  0  0  0  0  0  0  0  0  0
   -2.1015   -2.9604    0.1656 C   0  0  0  0  0  0  0  0  0  0  0  0
   -1.9127   -4.0407    0.2678 H   0  0  0  0  0  0  0  0  0  0  0  0
   -1.0186   -2.0580    0.0720 C   0  0  0  0  0  0  0  0  0  0  0  0
    0.3696   -2.4373    0.0521 C   0  0  0  0  0  3  0  0  0  0  0  0
    0.7123   -3.4886    0.0751 H   0  0  0  0  0  0  0  0  0  0  0  0
    2.6273   -1.6860   -0.1158 C   0  0  0  0  0  0  0  0  0  0  0  0
    3.2837   -2.4239    0.8909 C   0  0  0  0  0  0  0  0  0  0  0  0
    2.7001   -2.8310    1.7304 H   0  0  0  0  0  0  0  0  0  0  0  0
    4.6744   -2.6046    0.8258 C   0  0  0  0  0  0  0  0  0  0  0  0
    5.1863   -3.1712    1.6184 H   0  0  0  0  0  0  0  0  0  0  0  0
    5.4090   -2.0602   -0.2388 C   0  0  0  0  0  0  0  0  0  0  0  0
    6.4989   -2.2029   -0.2863 H   0  0  0  0  0  0  0  0  0  0  0  0
    4.7474   -1.3277   -1.2414 C   0  0  0  0  0  0  0  0  0  0  0  0
    5.3194   -0.9045   -2.0812 H   0  0  0  0  0  0  0  0  0  0  0  0
    3.3636   -1.1274   -1.1822 C   0  0  0  0  0  0  0  0  0  0  0  0
    2.8147   -0.5568   -1.9484 H   0  0  0  0  0  0  0  0  0  0  0  0
   -5.0254   -0.5282   -0.0888 C   0  0  0  0  0  0  0  0  0  0  0  0
   -5.9773   -1.4892   -0.1278 F   0  0  0  0  0  0  0  0  0  0  0  0
   -5.2646    0.2286    1.0187 F   0  0  0  0  0  0  0  0  0  0  0  0
   -5.2188    0.2823   -1.1579 F   0  0  0  0  0  0  0  0  0  0  0  0
  1 11  1  0  0  0  0
  2 10  1  0  0  0  0
  3  2  2  0  0  0  0
  3  5  1  0  0  0  0
  4  3  1  0  0  0  0
  5  6  2  0  0  0  0
  6  8  1  0  0  0  0
  6  7  1  0  0  0  0
  8  9  1  0  0  0  0
 10  8  2  0  0  0  0
 11 10  1  0  0  0  0
 11 12  1  0  0  0  0
 13  1  1  0  0  0  0
 13 14  1  0  0  0  0
 14 15  1  0  0  0  0
 16 14  2  0  0  0  0
 16 17  1  0  0  0  0
 18 16  1  0  0  0  0
 19 18  1  0  0  0  0
 20 22  1  0  0  0  0
 20 18  2  0  0  0  0
 21 20  1  0  0  0  0
 22 13  2  0  0  0  0
 23 22  1  0  0  0  0
 24  5  1  0  0  0  0
 24 26  1  0  0  0  0
 25 24  1  0  0  0  0
 27 24  1  0  0  0  0
M  END
