1,2
q = -1.0, confidence = 0.0

 27 28  0  0  0  0  0  0  0  0999 V2000
    0.4533   -1.4617   -0.0565 N   0  0  0  0  0  2  0  0  0  0  0  0
   -1.8656   -0.2974   -0.1152 C   0  0  0  0  0  3  0  0  0  0  0  0
   -3.1156    0.3284   -0.2708 C   0  0  0  0  0  0  0  0  0  0  0  0
   -3.1721    1.4114   -0.4578 H   0  0  0  0  0  0  0  0  0  0  0  0
   -4.3035   -0.4157   -0.2155 C   0  0  0  0  0  0  0  0  0  0  0  0
   -5.2678    0.1069   -0.3321 H   0  0  0  0  0  0  0  0  0  0  0  0
   -4.3083   -1.8212   -0.0304 C   0  0  0  0  0  0  0  0  0  0  0  0
   -3.0693   -2.4650    0.0738 C   0  0  0  0  0  0  0  0  0  0  0  0
   -3.0266   -3.5619    0.1791 H   0  0  0  0  0  0  0  0  0  0  0  0
   -1.8671   -1.7203    0.0268 C   0  0  0  0  0  0  0  0  0  0  0  0
   -0.5529   -2.2996    0.0350 C   0  0  0  0  0  3  0  0  0  0  0  0
   -0.3719   -3.3909    0.0588 H   0  0  0  0  0  0  0  0  0  0  0  0
    1.7957   -1.9000   -0.0939 C   0  0  0  0  0  0  0  0  0  0  0  0
    2.3165   -2.7333    0.9180 C   0  0  0  0  0  0  0  0  0  0  0  0
    1.6635   -3.0504    1.7451 H   0  0  0  0  0  0  0  0  0  0  0  0
    3.6645   -3.1235    0.8745 C   0  0  0  0  0  0  0  0  0  0  0  0
    4.0703   -3.7652    1.6714 H   0  0  0  0  0  0  0  0  0  0  0  0
    4.4924   -2.6914   -0.1729 C   0  0  0  0  0  0  0  0  0  0  0  0
    5.5489   -2.9972   -0.2031 H   0  0  0  0  0  0  0  0  0  0  0  0
    3.9667   -1.8622   -1.1808 C   0  0  0  0  0  0  0  0  0  0  0  0
    4.6110   -1.5263   -2.0077 H   0  0  0  0  0  0  0  0  0  0  0  0
    2.6280   -1.4560   -1.1440 C   0  0  0  0  0  0  0  0  0  0  0  0
    2.1848   -0.8068   -1.9162 H   0  0  0  0  0  0  0  0  0  0  0  0
   -5.6087   -2.5833    0.0283 C   0  0  0  0  0  0  0  0  0  0  0  0
   -5.4383   -3.6745    0.1104 H   0  0  0  0  0  0  0  0  0  0  0  0
   -6.2251   -2.4043   -0.8774 H   0  0  0  0  0  0  0  0  0  0  0  0
   -6.2232   -2.2723    0.8997 H   0  0  0  0  0  0  0  0  0  0  0  0
  1 11  1  0  0  0  0
  2 10  1  0  0  0  0
  3  5  1  0  0  0  0
  3  2  2  0  0  0  0
  4  3  1  0  0  0  0
  5  7  2  0  0  0  0
  6  5  1  0  0  0  0
  7 24  1  0  0  0  0
  7  8  1  0  0  0  0
  8  9  1  0  0  0  0
 10 11  1  0  0  0  0
 10  8  2  0  0  0  0
 11 12  1  0  0  0  0
 13  1  1  0  0  0  0
 13 14  1  0  0  0  0
 14 15  1  0  0  0  0
 16 14  2  0  0  0  0
 16 17  1  0  0  0  0
 18 16  1  0  0  0  0
 19 18  1  0  0  0  0
 20 22  1  0  0  0  0
 20 18  2  0  0  0  0
 21 20  1  0  0  0  0
 22 13  2  0  0  0  0
 23 22  1  0  0  0  0
 24 25  1  0  0  0  0
 24 27  1  0  0  0  0
 26 24  1  0  0  0  0
M  END
