1,2
q = -1.0

 30 31  0  0  0  0  0  0  0  0999 V2000
   -0.5258    1.4308   -0.0864 N   0  0  0  0  0  2  0  0  0  0  0  0
    1.2437   -0.4690   -0.1430 C   0  0  0  0  0  3  0  0  0  0  0  0
    2.1931   -1.5000   -0.2880 C   0  0  0  0  0  0  0  0  0  0  0  0
    1.8614   -2.5355   -0.4540 H   0  0  0  0  0  0  0  0  0  0  0  0
    3.5639   -1.2224   -0.2432 C   0  0  0  0  0  0  0  0  0  0  0  0
    4.3098   -2.0260   -0.3412 H   0  0  0  0  0  0  0  0  0  0  0  0
    4.0423    0.1012   -0.0830 C   0  0  0  0  0  0  0  0  0  0  0  0
    3.1200    1.1555    0.0061 C   0  0  0  0  0  0  0  0  0  0  0  0
    3.4808    2.1911    0.0906 H   0  0  0  0  0  0  0  0  0  0  0  0
    1.7402    0.8719   -0.0271 C   0  0  0  0  0  0  0  0  0  0  0  0
    0.7068    1.8720   -0.0190 C   0  0  0  0  0  3  0  0  0  0  0  0
    0.9162    2.9581   -0.0110 H   0  0  0  0  0  0  0  0  0  0  0  0
   -1.6368    2.3044   -0.1152 C   0  0  0  0  0  0  0  0  0  0  0  0
   -1.8244    3.2713    0.8940 C   0  0  0  0  0  0  0  0  0  0  0  0
   -1.0909    3.3489    1.7108 H   0  0  0  0  0  0  0  0  0  0  0  0
   -2.9561    4.1014    0.8610 C   0  0  0  0  0  0  0  0  0  0  0  0
   -3.1057    4.8481    1.6556 H   0  0  0  0  0  0  0  0  0  0  0  0
   -3.8956    3.9749   -0.1738 C   0  0  0  0  0  0  0  0  0  0  0  0
   -4.7823    4.6258   -0.1961 H   0  0  0  0  0  0  0  0  0  0  0  0
   -3.7011    3.0101   -1.1791 C   0  0  0  0  0  0  0  0  0  0  0  0
   -4.4323    2.9124   -1.9961 H   0  0  0  0  0  0  0  0  0  0  0  0
   -2.5840    2.1673   -1.1523 C   0  0  0  0  0  0  0  0  0  0  0  0
   -2.4019    1.4010   -1.9226 H   0  0  0  0  0  0  0  0  0  0  0  0
    5.5140    0.3135   -0.0415 C   0  0  0  0  0  0  0  0  0  0  0  0
    6.3523   -0.5708   -0.1174 O   0  0  0  0  0  0  0  0  0  0  0  0
    5.8404    1.6297    0.0946 O   0  0  0  0  0  0  0  0  0  0  0  0
    7.2421    1.9040    0.1337 C   0  0  0  0  0  0  0  0  0  0  0  0
    7.3391    2.9989    0.2454 H   0  0  0  0  0  0  0  0  0  0  0  0
    7.7395    1.5657   -0.7982 H   0  0  0  0  0  0  0  0  0  0  0  0
    7.7257    1.3843    0.9860 H   0  0  0  0  0  0  0  0  0  0  0  0
  1 11  1  0  0  0  0
  2 10  1  0  0  0  0
  3  5  1  0  0  0  0
  3  2  2  0  0  0  0
  4  3  1  0  0  0  0
  5  7  2  0  0  0  0
  6  5  1  0  0  0  0
  7 24  1  0  0  0  0
  7  8  1  0  0  0  0
  8  9  1  0  0  0  0
 10 11  1  0  0  0  0
 10  8  2  0  0  0  0
 11 12  1  0  0  0  0
 13  1  1  0  0  0  0
 13 14  1  0  0  0  0
 14 15  1  0  0  0  0
 16 14  2  0  0  0  0
 16 17  1  0  0  0  0
 18 16  1  0  0  0  0
 19 18  1  0  0  0  0
 20 22  1  0  0  0  0
 20 18  2  0  0  0  0
 21 20  1  0  0  0  0
 22 13  2  0  0  0  0
 23 22  1  0  0  0  0
 24 26  1  0  0  0  0
 25 24  2  0  0  0  0
 26 27  1  0  0  0  0
 27 28  1  0  0  0  0
 27 30  1  0  0  0  0
 29 27  1  0  0  0  0
M  END
