1,2
q = -1.0, confidence = 0.0

 27 28  0  0  0  0  0  0  0  0999 V2000
   -0.6342    1.4374   -0.0778 N   0  0  0  0  0  2  0  0  0  0  0  0
    1.2773   -0.3165   -0.1467 C   0  0  0  0  0  3  0  0  0  0  0  0
    2.3036   -1.2672   -0.3072 C   0  0  0  0  0  0  0  0  0  0  0  0
    2.0537   -2.3231   -0.4877 H   0  0  0  0  0  0  0  0  0  0  0  0
    3.6509   -0.8859   -0.2662 C   0  0  0  0  0  0  0  0  0  0  0  0
    4.4399   -1.6434   -0.3890 H   0  0  0  0  0  0  0  0  0  0  0  0
    4.0176    0.4678   -0.0911 C   0  0  0  0  0  0  0  0  0  0  0  0
    3.0232    1.4454    0.0109 C   0  0  0  0  0  0  0  0  0  0  0  0
    3.2989    2.5068    0.0995 H   0  0  0  0  0  0  0  0  0  0  0  0
    1.6676    1.0559   -0.0220 C   0  0  0  0  0  0  0  0  0  0  0  0
    0.5601    1.9737   -0.0084 C   0  0  0  0  0  3  0  0  0  0  0  0
    0.6839    3.0727    0.0048 H   0  0  0  0  0  0  0  0  0  0  0  0
   -1.8096    2.2228   -0.1033 C   0  0  0  0  0  0  0  0  0  0  0  0
   -2.0712    3.1691    0.9090 C   0  0  0  0  0  0  0  0  0  0  0  0
   -1.3462    3.3006    1.7264 H   0  0  0  0  0  0  0  0  0  0  0  0
   -3.2637    3.9093    0.8777 C   0  0  0  0  0  0  0  0  0  0  0  0
   -3.4709    4.6397    1.6745 H   0  0  0  0  0  0  0  0  0  0  0  0
   -4.1899    3.7141   -0.1583 C   0  0  0  0  0  0  0  0  0  0  0  0
   -5.1241    4.2949   -0.1793 H   0  0  0  0  0  0  0  0  0  0  0  0
   -3.9213    2.7705   -1.1667 C   0  0  0  0  0  0  0  0  0  0  0  0
   -4.6423    2.6196   -1.9846 H   0  0  0  0  0  0  0  0  0  0  0  0
   -2.7427    2.0161   -1.1414 C   0  0  0  0  0  0  0  0  0  0  0  0
   -2.5019    1.2683   -1.9138 H   0  0  0  0  0  0  0  0  0  0  0  0
    5.4736    0.8379    0.0121 C   0  0  0  0  0  0  0  0  0  0  0  0
    5.6863    2.1534   -0.2368 F   0  0  0  0  0  0  0  0  0  0  0  0
    5.9670    0.5874    1.2554 F   0  0  0  0  0  0  0  0  0  0  0  0
    6.2373    0.1286   -0.8560 F   0  0  0  0  0  0  0  0  0  0  0  0
  1 11  1  0  0  0  0
  2 10  1  0  0  0  0
  3  5  1  0  0  0  0
  3  2  2  0  0  0  0
  4  3  1  0  0  0  0
  5  7  2  0  0  0  0
  6  5  1  0  0  0  0
  7  8  1  0  0  0  0
  7 24  1  0  0  0  0
  8  9  1  0  0  0  0
 10 11  1  0  0  0  0
 10  8  2  0  0  0  0
 11 12  1  0  0  0  0
 13  1  1  0  0  0  0
 13 14  1  0  0  0  0
 14 15  1  0  0  0  0
 16 14  2  0  0  0  0
 16 17  1  0  0  0  0
 18 16  1  0  0  0  0
 19 18  1  0  0  0  0
 20 22  1  0  0  0  0
 20 18  2  0  0  0  0
 21 20  1  0  0  0  0
 22 13  2  0  0  0  0
 23 22  1  0  0  0  0
 24 26  1  0  0  0  0
 25 24  1  0  0  0  0
 27 24  1  0  0  0  0
M  END
