1,2
q = -1.0, confidence = 0.0

 25 26  0  0  0  0  0  0  0  0999 V2000
   -1.0349    1.3359   -0.0344 N   0  0  0  0  0  2  0  0  0  0  0  0
    1.5665    1.2114   -0.0470 C   0  0  0  0  0  3  0  0  0  0  0  0
    2.9748    1.2024   -0.2469 C   0  0  0  0  0  0  0  0  0  0  0  0
    3.7429    2.3910   -0.1310 C   0  0  0  0  0  0  0  0  0  0  0  0
    4.8324    2.3289   -0.2711 H   0  0  0  0  0  0  0  0  0  0  0  0
    3.1359    3.6255    0.1353 C   0  0  0  0  0  0  0  0  0  0  0  0
    3.7489    4.5342    0.2200 H   0  0  0  0  0  0  0  0  0  0  0  0
    1.7436    3.6889    0.2473 C   0  0  0  0  0  0  0  0  0  0  0  0
    1.2368    4.6559    0.3951 H   0  0  0  0  0  0  0  0  0  0  0  0
    0.9792    2.5068    0.1477 C   0  0  0  0  0  0  0  0  0  0  0  0
   -0.4584    2.5023    0.1170 C   0  0  0  0  0  3  0  0  0  0  0  0
   -1.0602    3.4300    0.1374 H   0  0  0  0  0  0  0  0  0  0  0  0
   -2.4398    1.2178   -0.1603 C   0  0  0  0  0  0  0  0  0  0  0  0
   -3.3060    1.8285    0.7701 C   0  0  0  0  0  0  0  0  0  0  0  0
   -2.8833    2.3971    1.6123 H   0  0  0  0  0  0  0  0  0  0  0  0
   -4.6941    1.6740    0.6342 C   0  0  0  0  0  0  0  0  0  0  0  0
   -5.3674    2.1406    1.3692 H   0  0  0  0  0  0  0  0  0  0  0  0
   -5.2207    0.9188   -0.4250 C   0  0  0  0  0  0  0  0  0  0  0  0
   -6.3094    0.7973   -0.5273 H   0  0  0  0  0  0  0  0  0  0  0  0
   -4.3515    0.3160   -1.3523 C   0  0  0  0  0  0  0  0  0  0  0  0
   -4.7606   -0.2693   -2.1900 H   0  0  0  0  0  0  0  0  0  0  0  0
   -2.9642    0.4524   -1.2229 C   0  0  0  0  0  0  0  0  0  0  0  0
   -2.2553    0.0009   -1.9360 H   0  0  0  0  0  0  0  0  0  0  0  0
    3.6854    0.0131   -0.6139 C   0  0  0  0  0  0  0  0  0  0  0  0
    4.3298   -0.9216   -0.9154 N   0  0  0  0  0  0  0  0  0  0  0  0
  1 11  1  0  0  0  0
  2 10  1  0  0  0  0
  3  4  1  0  0  0  0
  3  2  2  0  0  0  0
  4  6  2  0  0  0  0
  5  4  1  0  0  0  0
  6  7  1  0  0  0  0
  6  8  1  0  0  0  0
  8  9  1  0  0  0  0
 10  8  2  0  0  0  0
 11 12  1  0  0  0  0
 11 10  1  0  0  0  0
 13  1  1  0  0  0  0
 13 14  1  0  0  0  0
 14 15  1  0  0  0  0
 16 14  2  0  0  0  0
 16 17  1  0  0  0  0
 18 16  1  0  0  0  0
 19 18  1  0  0  0  0
 20 22  1  0  0  0  0
 20 18  2  0  0  0  0
 21 20  1  0  0  0  0
 22 13  2  0  0  0  0
 23 22  1  0  0  0  0
 24  3  1  0  0  0  0
 25 24  3  0  0  0  0
M  END
