1,2
q = -1.0, confidence = 0.0

 23 24  0  0  1  0  0  0  0  0999 V2000
    0.3486    1.7108   -0.1243 N   0  0  0  0  0  2  0  0  0  0  0  0
    1.2655   -0.7226   -0.1334 C   0  0  0  0  0  3  0  0  0  0  0  0
    1.7268   -2.0443   -0.2785 C   0  0  0  0  0  0  0  0  0  0  0  0
    1.0139   -2.8523   -0.5013 H   0  0  0  0  0  0  0  0  0  0  0  0
    3.0900   -2.3483   -0.1669 C   0  0  0  0  0  0  0  0  0  0  0  0
    3.4199   -3.3946   -0.2797 H   0  0  0  0  0  0  0  0  0  0  0  0
    4.0589   -1.3450    0.0748 C   0  0  0  0  0  0  0  0  0  0  0  0
    3.6134   -0.0197    0.1663 C   0  0  0  0  0  0  0  0  0  0  0  0
    4.3550    0.7815    0.3179 H   0  0  0  0  0  0  0  0  0  0  0  0
    2.2410    0.2977    0.0512 C   0  0  0  0  0  0  0  0  0  0  0  0
    1.7103    1.6550    0.0327 C   0  0  1  0  0  3  0  0  0  0  0  0
    2.4561    2.8501    0.1143 C   0  0  0  0  0  0  0  0  0  0  0  0
    3.5458    2.7951    0.2412 H   0  0  0  0  0  0  0  0  0  0  0  0
    1.8111    4.0845    0.0198 C   0  0  0  0  0  0  0  0  0  0  0  0
    2.3882    5.0190    0.0847 H   0  0  0  0  0  0  0  0  0  0  0  0
    0.4194    4.1149   -0.1792 C   0  0  0  0  0  0  0  0  0  0  0  0
   -0.1292    5.0610   -0.2854 H   0  0  0  0  0  0  0  0  0  0  0  0
   -0.2687    2.9017   -0.2551 C   0  0  0  0  0  0  0  0  0  0  0  0
   -1.3523    2.8629   -0.4342 H   0  0  0  0  0  0  0  0  0  0  0  0
    5.5189   -1.7007    0.2074 C   0  0  0  0  0  0  0  0  0  0  0  0
    6.1506   -0.7978    0.3190 H   0  0  0  0  0  0  0  0  0  0  0  0
    5.8828   -2.2604   -0.6795 H   0  0  0  0  0  0  0  0  0  0  0  0
    5.7011   -2.3491    1.0908 H   0  0  0  0  0  0  0  0  0  0  0  0
  1 11  1  0  0  0  0
  2 10  1  0  0  0  0
  3  5  1  0  0  0  0
  3  2  2  0  0  0  0
  4  3  1  0  0  0  0
  5  7  2  0  0  0  0
  6  5  1  0  0  0  0
  7  8  1  0  0  0  0
  7 20  1  0  0  0  0
  8  9  1  0  0  0  0
 10  8  2  0  0  0  0
 11 10  1  6  0  0  0
 11 12  1  0  0  0  0
 12 13  1  0  0  0  0
 14 15  1  0  0  0  0
 14 12  2  0  0  0  0
 16 14  1  0  0  0  0
 17 16  1  0  0  0  0
 18 16  2  0  0  0  0
 18  1  1  0  0  0  0
 19 18  1  0  0  0  0
 20 21  1  0  0  0  0
 20 23  1  0  0  0  0
 22 20  1  0  0  0  0
M  END
