1,2
q = -1.0

 24 25  0  0  1  0  0  0  0  0999 V2000
   -1.3902   -1.2577   -0.3269 N   0  0  0  0  0  2  0  0  0  0  0  0
   -0.8653    1.2613    0.0390 C   0  0  0  0  0  3  0  0  0  0  0  0
    0.6949    3.1220   -0.2070 O   0  0  0  0  0  0  0  0  0  0  0  0
   -0.5740    2.6444    0.0612 C   0  0  0  0  0  0  0  0  0  0  0  0
   -1.5678    3.5870    0.3847 C   0  0  0  0  0  0  0  0  0  0  0  0
   -1.2781    4.6486    0.4207 H   0  0  0  0  0  0  0  0  0  0  0  0
   -2.8882    3.1856    0.6520 C   0  0  0  0  0  0  0  0  0  0  0  0
   -3.6514    3.9337    0.9130 H   0  0  0  0  0  0  0  0  0  0  0  0
   -3.2264    1.8335    0.5554 C   0  0  0  0  0  0  0  0  0  0  0  0
   -4.2674    1.5161    0.7199 H   0  0  0  0  0  0  0  0  0  0  0  0
   -2.2290    0.8846    0.2370 C   0  0  0  0  0  0  0  0  0  0  0  0
   -2.5053   -0.5269   -0.0125 C   0  0  1  0  0  3  0  0  0  0  0  0
   -3.7731   -1.1464   -0.0247 C   0  0  0  0  0  0  0  0  0  0  0  0
   -4.6630   -0.5571    0.2348 H   0  0  0  0  0  0  0  0  0  0  0  0
   -3.8893   -2.4899   -0.3870 C   0  0  0  0  0  0  0  0  0  0  0  0
   -4.8754   -2.9780   -0.3974 H   0  0  0  0  0  0  0  0  0  0  0  0
   -2.7358   -3.2005   -0.7634 C   0  0  0  0  0  0  0  0  0  0  0  0
   -2.7829   -4.2485   -1.0900 H   0  0  0  0  0  0  0  0  0  0  0  0
   -1.5060   -2.5390   -0.7273 C   0  0  0  0  0  0  0  0  0  0  0  0
   -0.5717   -3.0306   -1.0325 H   0  0  0  0  0  0  0  0  0  0  0  0
    0.9270    3.3737   -1.5956 C   0  0  0  0  0  0  0  0  0  0  0  0
    1.9587    3.7664   -1.6821 H   0  0  0  0  0  0  0  0  0  0  0  0
    0.2173    4.1402   -1.9831 H   0  0  0  0  0  0  0  0  0  0  0  0
    0.8285    2.4412   -2.1935 H   0  0  0  0  0  0  0  0  0  0  0  0
  1 12  1  0  0  0  0
  2  4  2  0  0  0  0
  2 11  1  0  0  0  0
  3  4  1  0  0  0  0
  4  5  1  0  0  0  0
  5  6  1  0  0  0  0
  5  7  2  0  0  0  0
  7  8  1  0  0  0  0
  9  7  1  0  0  0  0
  9 10  1  0  0  0  0
 11  9  2  0  0  0  0
 12 11  1  6  0  0  0
 13 12  1  0  0  0  0
 13 14  1  0  0  0  0
 15 13  2  0  0  0  0
 16 15  1  0  0  0  0
 17 19  2  0  0  0  0
 17 15  1  0  0  0  0
 18 17  1  0  0  0  0
 19  1  1  0  0  0  0
 20 19  1  0  0  0  0
 21  3  1  0  0  0  0
 22 21  1  0  0  0  0
 23 21  1  0  0  0  0
 24 21  1  0  0  0  0
M  END
