1,2
q = -1.0, confidence = 0.0

 24 25  0  0  0  0  0  0  0  0999 V2000
   -0.9020    1.4355   -0.0243 N   0  0  0  0  0  2  0  0  0  0  0  0
    1.6631    1.1499   -0.0306 C   0  0  0  0  0  3  0  0  0  0  0  0
    3.0590    1.0354   -0.1431 C   0  0  0  0  0  0  0  0  0  0  0  0
    3.6240   -0.1847   -0.3384 F   0  0  0  0  0  0  0  0  0  0  0  0
    3.9272    2.1304   -0.0753 C   0  0  0  0  0  0  0  0  0  0  0  0
    5.0093    1.9480   -0.1557 H   0  0  0  0  0  0  0  0  0  0  0  0
    3.4127    3.4340    0.0771 C   0  0  0  0  0  0  0  0  0  0  0  0
    4.1005    4.2907    0.1258 H   0  0  0  0  0  0  0  0  0  0  0  0
    2.0318    3.6222    0.1432 C   0  0  0  0  0  0  0  0  0  0  0  0
    1.6030    4.6327    0.2274 H   0  0  0  0  0  0  0  0  0  0  0  0
    1.1774    2.4951    0.0846 C   0  0  0  0  0  0  0  0  0  0  0  0
   -0.2550    2.5757    0.0656 C   0  0  0  0  0  3  0  0  0  0  0  0
   -0.8091    3.5317    0.0784 H   0  0  0  0  0  0  0  0  0  0  0  0
   -2.3177    1.3926   -0.0759 C   0  0  0  0  0  0  0  0  0  0  0  0
   -3.0910    1.9521    0.9612 C   0  0  0  0  0  0  0  0  0  0  0  0
   -2.5853    2.4292    1.8142 H   0  0  0  0  0  0  0  0  0  0  0  0
   -4.4918    1.8691    0.9074 C   0  0  0  0  0  0  0  0  0  0  0  0
   -5.0933    2.2974    1.7235 H   0  0  0  0  0  0  0  0  0  0  0  0
   -5.1209    1.2370   -0.1759 C   0  0  0  0  0  0  0  0  0  0  0  0
   -6.2186    1.1723   -0.2150 H   0  0  0  0  0  0  0  0  0  0  0  0
   -4.3425    0.6842   -1.2093 C   0  0  0  0  0  0  0  0  0  0  0  0
   -4.8326    0.1942   -2.0645 H   0  0  0  0  0  0  0  0  0  0  0  0
   -2.9450    0.7495   -1.1632 C   0  0  0  0  0  0  0  0  0  0  0  0
   -2.3054    0.3271   -1.9546 H   0  0  0  0  0  0  0  0  0  0  0  0
  1 12  1  0  0  0  0
  2 11  1  0  0  0  0
  3  5  1  0  0  0  0
  3  2  2  0  0  0  0
  4  3  1  0  0  0  0
  5  7  2  0  0  0  0
  6  5  1  0  0  0  0
  7  8  1  0  0  0  0
  7  9  1  0  0  0  0
  9 10  1  0  0  0  0
 11  9  2  0  0  0  0
 12 13  1  0  0  0  0
 12 11  1  0  0  0  0
 14  1  1  0  0  0  0
 14 15  1  0  0  0  0
 15 16  1  0  0  0  0
 17 15  2  0  0  0  0
 17 18  1  0  0  0  0
 19 17  1  0  0  0  0
 20 19  1  0  0  0  0
 21 23  1  0  0  0  0
 21 19  2  0  0  0  0
 22 21  1  0  0  0  0
 23 14  2  0  0  0  0
 24 23  1  0  0  0  0
M  END
