1,2
q = -1.0, confidence = 0.004

 25 26  0  0  0  0  0  0  0  0999 V2000
   -0.3159    1.5531   -0.0545 N   0  0  0  0  0  2  0  0  0  0  0  0
    1.8010    0.0726   -0.0892 C   0  0  0  0  0  3  0  0  0  0  0  0
    2.9542   -0.7370   -0.1978 C   0  0  0  0  0  0  0  0  0  0  0  0
    2.8485   -1.8224   -0.3414 H   0  0  0  0  0  0  0  0  0  0  0  0
    4.2372   -0.1868   -0.1506 C   0  0  0  0  0  0  0  0  0  0  0  0
    5.1216   -0.8369   -0.2260 H   0  0  0  0  0  0  0  0  0  0  0  0
    4.4278    1.2174   -0.0185 C   0  0  0  0  0  0  0  0  0  0  0  0
    3.3009    2.0585    0.0395 C   0  0  0  0  0  0  0  0  0  0  0  0
    3.4318    3.1491    0.1063 H   0  0  0  0  0  0  0  0  0  0  0  0
    2.0132    1.4910    0.0016 C   0  0  0  0  0  0  0  0  0  0  0  0
    0.7949    2.2521   -0.0002 C   0  0  0  0  0  3  0  0  0  0  0  0
    0.7633    3.3564    0.0041 H   0  0  0  0  0  0  0  0  0  0  0  0
   -1.5883    2.1789   -0.0737 C   0  0  0  0  0  0  0  0  0  0  0  0
   -1.9773    3.0448    0.9678 C   0  0  0  0  0  0  0  0  0  0  0  0
   -1.2814    3.2389    1.7978 H   0  0  0  0  0  0  0  0  0  0  0  0
   -3.2556    3.6256    0.9475 C   0  0  0  0  0  0  0  0  0  0  0  0
   -3.5617    4.2938    1.7666 H   0  0  0  0  0  0  0  0  0  0  0  0
   -4.1398    3.3507   -0.1068 C   0  0  0  0  0  0  0  0  0  0  0  0
   -5.1410    3.8067   -0.1196 H   0  0  0  0  0  0  0  0  0  0  0  0
   -3.7427    2.4881   -1.1446 C   0  0  0  0  0  0  0  0  0  0  0  0
   -4.4307    2.2765   -1.9773 H   0  0  0  0  0  0  0  0  0  0  0  0
   -2.4760    1.8924   -1.1314 C   0  0  0  0  0  0  0  0  0  0  0  0
   -2.1338    1.2133   -1.9282 H   0  0  0  0  0  0  0  0  0  0  0  0
    5.7495    1.7660    0.0382 C   0  0  0  0  0  0  0  0  0  0  0  0
    6.8349    2.2132    0.0897 N   0  0  0  0  0  0  0  0  0  0  0  0
  1 11  1  0  0  0  0
  2 10  1  0  0  0  0
  3  5  1  0  0  0  0
  3  2  2  0  0  0  0
  4  3  1  0  0  0  0
  5  7  2  0  0  0  0
  6  5  1  0  0  0  0
  7 24  1  0  0  0  0
  7  8  1  0  0  0  0
  8  9  1  0  0  0  0
 10  8  2  0  0  0  0
 11 10  1  0  0  0  0
 11 12  1  0  0  0  0
 13  1  1  0  0  0  0
 13 14  1  0  0  0  0
 14 15  1  0  0  0  0
 16 14  2  0  0  0  0
 16 17  1  0  0  0  0
 18 16  1  0  0  0  0
 19 18  1  0  0  0  0
 20 22  1  0  0  0  0
 20 18  2  0  0  0  0
 21 20  1  0  0  0  0
 22 13  2  0  0  0  0
 23 22  1  0  0  0  0
 24 25  3  0  0  0  0
M  END
