30,31
q = -1.0

 32 34  0  0  0  0  0  0  0  0999 V2000
   -2.0843    1.2548   -1.9285 C   0  0  0  0  0  3  0  0  0  0  0  0
   -1.2107    1.6734   -2.4481 H   0  0  0  0  0  0  0  0  0  0  0  0
   -3.3899    1.3219   -2.4362 C   0  0  0  0  0  0  0  0  0  0  0  0
   -4.1255   -0.0487   -0.7071 C   0  0  0  0  0  0  0  0  0  0  0  0
   -2.8665    0.0677   -0.0378 C   0  0  0  0  0  0  0  0  0  0  0  0
   -3.7269    2.1173   -3.6657 C   0  0  0  0  0  0  0  0  0  0  0  0
   -4.2637    1.4837   -4.3994 H   0  0  0  0  0  0  0  0  0  0  0  0
   -2.8233    2.5419   -4.1422 H   0  0  0  0  0  0  0  0  0  0  0  0
   -4.4095    2.9528   -3.4047 H   0  0  0  0  0  0  0  0  0  0  0  0
   -5.2060   -0.9721   -0.2691 C   0  0  0  0  0  0  0  0  0  0  0  0
   -6.5524   -0.5594   -0.3417 C   0  0  0  0  0  0  0  0  0  0  0  0
   -6.7716    0.4642   -0.6781 H   0  0  0  0  0  0  0  0  0  0  0  0
   -7.5845   -1.4422    0.0040 C   0  0  0  0  0  0  0  0  0  0  0  0
   -8.6312   -1.1048   -0.0410 H   0  0  0  0  0  0  0  0  0  0  0  0
   -7.2852   -2.7558    0.4005 C   0  0  0  0  0  0  0  0  0  0  0  0
   -8.0960   -3.4504    0.6680 H   0  0  0  0  0  0  0  0  0  0  0  0
   -5.9476   -3.1838    0.4458 C   0  0  0  0  0  0  0  0  0  0  0  0
   -5.7077   -4.2174    0.7377 H   0  0  0  0  0  0  0  0  0  0  0  0
   -4.9132   -2.2988    0.1166 C   0  0  0  0  0  0  0  0  0  0  0  0
   -3.8661   -2.6349    0.1534 H   0  0  0  0  0  0  0  0  0  0  0  0
   -2.4732   -0.3510    1.3074 C   0  0  0  0  0  0  0  0  0  0  0  0
   -3.3648   -0.7449    2.3343 C   0  0  0  0  0  0  0  0  0  0  0  0
   -4.4477   -0.7564    2.1543 H   0  0  0  0  0  0  0  0  0  0  0  0
   -2.8731   -1.1059    3.5911 C   0  0  0  0  0  0  0  0  0  0  0  0
   -3.5710   -1.4090    4.3857 H   0  0  0  0  0  0  0  0  0  0  0  0
   -1.4859   -1.0807    3.8335 C   0  0  0  0  0  0  0  0  0  0  0  0
   -1.0965   -1.3851    4.8182 H   0  0  0  0  0  0  0  0  0  0  0  0
   -0.5976   -0.6545    2.8367 C   0  0  0  0  0  0  0  0  0  0  0  0
    0.4808   -0.6227    3.0545 H   0  0  0  0  0  0  0  0  0  0  0  0
   -1.0656   -0.2538    1.5676 C   0  0  0  0  0  3  0  0  0  0  0  0
   -1.8418    0.6567   -0.7448 N   0  0  0  0  0  2  0  0  0  0  0  0
   -4.3770    0.6309   -1.8381 N   0  0  0  0  0  0  0  0  0  0  0  0
  1 31  1  0  0  0  0
  2  1  1  0  0  0  0
  3  1  1  0  0  0  0
  3 32  2  0  0  0  0
  4 10  1  0  0  0  0
  4  5  2  0  0  0  0
  5 21  1  0  0  0  0
  6  9  1  0  0  0  0
  6  3  1  0  0  0  0
  7  6  1  0  0  0  0
  8  6  1  0  0  0  0
 10 19  1  0  0  0  0
 11 10  2  0  0  0  0
 11 13  1  0  0  0  0
 12 11  1  0  0  0  0
 13 15  2  0  0  0  0
 14 13  1  0  0  0  0
 15 17  1  0  0  0  0
 15 16  1  0  0  0  0
 17 18  1  0  0  0  0
 19 20  1  0  0  0  0
 19 17  2  0  0  0  0
 21 30  2  0  0  0  0
 21 22  1  0  0  0  0
 22 24  2  0  0  0  0
 23 22  1  0  0  0  0
 24 26  1  0  0  0  0
 24 25  1  0  0  0  0
 26 27  1  0  0  0  0
 28 29  1  0  0  0  0
 28 26  2  0  0  0  0
 30 28  1  0  0  0  0
 31  5  1  0  0  0  0
 32  4  1  0  0  0  0
M  END
