3,15
q = -1.0

 19 19  0  0  1  0  0  0  0  0999 V2000
   -1.7434    1.7764    0.5384 O   0  0  0  0  0  0  0  0  0  0  0  0
    1.3814   -2.8607   -0.9759 O   0  0  0  0  0  0  0  0  0  0  0  0
   -1.4322   -0.4245    0.0617 N   0  0  0  0  0  2  0  0  0  0  0  0
   -2.2473    0.5317    0.5815 C   0  0  1  0  0  3  0  0  0  0  0  0
   -3.5064    0.2268    1.1349 C   0  0  0  0  0  0  0  0  0  0  0  0
   -4.1380    1.0183    1.5550 H   0  0  0  0  0  0  0  0  0  0  0  0
   -3.9341   -1.1026    1.1419 C   0  0  0  0  0  0  0  0  0  0  0  0
   -4.9120   -1.3638    1.5724 H   0  0  0  0  0  0  0  0  0  0  0  0
   -3.1101   -2.0891    0.5911 C   0  0  0  0  0  0  0  0  0  0  0  0
   -3.4162   -3.1435    0.5640 H   0  0  0  0  0  0  0  0  0  0  0  0
   -1.8746   -1.7147    0.0483 C   0  0  0  0  0  0  0  0  0  0  0  0
   -0.9720   -2.7042   -0.6126 C   0  0  0  0  0  0  0  0  0  0  0  0
   -1.3754   -2.9616   -1.6201 H   0  0  0  0  0  0  0  0  0  0  0  0
   -0.9033   -3.6621   -0.0570 H   0  0  0  0  0  0  0  0  0  0  0  0
    0.4208   -2.1293   -0.8515 C   0  0  0  0  0  3  0  0  0  0  0  0
   -2.5404    2.8713    0.9873 C   0  0  0  0  0  0  0  0  0  0  0  0
   -3.4845    2.9459    0.4085 H   0  0  0  0  0  0  0  0  0  0  0  0
   -1.9335    3.7777    0.8116 H   0  0  0  0  0  0  0  0  0  0  0  0
   -2.7714    2.7913    2.0706 H   0  0  0  0  0  0  0  0  0  0  0  0
  1 16  1  0  0  0  0
  2 15  2  0  0  0  0
  3  4  1  0  0  0  0
  4  1  1  1  0  0  0
  4  5  1  0  0  0  0
  5  7  2  0  0  0  0
  5  6  1  0  0  0  0
  7  8  1  0  0  0  0
  9  7  1  0  0  0  0
 10  9  1  0  0  0  0
 11  3  1  0  0  0  0
 11  9  2  0  0  0  0
 12 14  1  0  0  0  0
 12 11  1  0  0  0  0
 13 12  1  0  0  0  0
 15 12  1  0  0  0  0
 16 19  1  0  0  0  0
 17 16  1  0  0  0  0
 18 16  1  0  0  0  0
M  END
