3,19
q = -1.0, confidence = 0.0

 27 27  0  0  1  0  0  0  0  0999 V2000
   -1.8038   -2.2047   -0.3141 O   0  0  0  0  0  0  0  0  0  0  0  0
   -0.9255   -2.7163   -0.2575 H   0  0  0  0  0  0  0  0  0  0  0  0
   -1.3814   -0.9203   -0.2319 N   0  0  0  0  0  2  0  0  0  0  0  0
   -2.2540    0.0616   -0.2814 C   0  0  0  0  0  0  0  0  0  0  0  0
   -3.7426   -0.1605   -0.4300 C   0  0  1  0  0  0  0  0  0  0  0  0
   -4.2058    0.8476   -0.4196 H   0  0  0  0  0  0  0  0  0  0  0  0
   -4.0850   -0.8128   -1.7821 C   0  0  0  0  0  0  0  0  0  0  0  0
   -5.1844   -0.9076   -1.8895 H   0  0  0  0  0  0  0  0  0  0  0  0
   -3.6387   -1.8223   -1.8583 H   0  0  0  0  0  0  0  0  0  0  0  0
   -3.7083   -0.2027   -2.6269 H   0  0  0  0  0  0  0  0  0  0  0  0
   -4.3398   -0.9376    0.7668 C   0  0  0  0  0  0  0  0  0  0  0  0
   -3.9557   -1.9772    0.7469 H   0  0  0  0  0  0  0  0  0  0  0  0
   -5.4371   -1.0032    0.6015 H   0  0  0  0  0  0  0  0  0  0  0  0
   -4.0496   -0.2984    2.1246 C   0  0  0  0  0  0  0  0  0  0  0  0
   -4.5350   -0.8629    2.9455 H   0  0  0  0  0  0  0  0  0  0  0  0
   -4.4176    0.7481    2.1727 H   0  0  0  0  0  0  0  0  0  0  0  0
   -2.9605   -0.2749    2.3362 H   0  0  0  0  0  0  0  0  0  0  0  0
   -1.6030    1.3715   -0.1490 C   0  0  0  0  0  0  0  0  0  0  0  0
   -0.1759    1.3495    0.0022 C   0  0  0  0  0  2  0  0  0  0  0  0
    0.4937    2.5639    0.2060 C   0  0  0  0  0  0  0  0  0  0  0  0
    1.5833    2.5820    0.3636 H   0  0  0  0  0  0  0  0  0  0  0  0
   -0.2108    3.7856    0.2266 C   0  0  0  0  0  0  0  0  0  0  0  0
    0.3370    4.7276    0.3874 H   0  0  0  0  0  0  0  0  0  0  0  0
   -1.6013    3.8043    0.0507 C   0  0  0  0  0  0  0  0  0  0  0  0
   -2.1508    4.7572    0.0642 H   0  0  0  0  0  0  0  0  0  0  0  0
   -2.2960    2.5983   -0.1304 C   0  0  0  0  0  0  0  0  0  0  0  0
   -3.3900    2.6167   -0.2512 H   0  0  0  0  0  0  0  0  0  0  0  0
  1  2  1  0  0  0  0
  1  3  1  0  0  0  0
  4  3  1  0  0  0  0
  4 18  2  0  0  0  0
  5  6  1  1  0  0  0
  5  4  1  0  0  0  0
  5 11  1  0  0  0  0
  7  5  1  0  0  0  0
  8  7  1  0  0  0  0
  9  7  1  0  0  0  0
 10  7  1  0  0  0  0
 11 14  1  0  0  0  0
 12 11  1  0  0  0  0
 13 11  1  0  0  0  0
 14 16  1  0  0  0  0
 14 17  1  0  0  0  0
 14 15  1  0  0  0  0
 18 26  1  0  0  0  0
 18 19  1  0  0  0  0
 19 20  1  0  0  0  0
 20 22  2  0  0  0  0
 20 21  1  0  0  0  0
 22 23  1  0  0  0  0
 24 25  1  0  0  0  0
 24 22  1  0  0  0  0
 26 24  2  0  0  0  0
 27 26  1  0  0  0  0
M  END
