1,9
q = -1.0, confidence = 0.0

 31 32  0  0  0  0  0  0  0  0999 V2000
    0.5494    1.8248   -0.0000 N   0  0  0  0  0  2  0  0  0  0  0  0
   -2.8122    0.4993    0.0002 N   0  0  0  0  0  2  0  0  0  0  0  0
    1.2751    2.9637   -0.0001 C   0  0  0  0  0  0  0  0  0  0  0  0
    0.6580    4.2187   -0.0001 C   0  0  0  0  0  0  0  0  0  0  0  0
   -0.7461    4.2917    0.0000 C   0  0  0  0  0  0  0  0  0  0  0  0
   -1.4900    3.1084    0.0001 C   0  0  0  0  0  0  0  0  0  0  0  0
   -0.8179    1.8757    0.0001 C   0  0  0  0  0  0  0  0  0  0  0  0
   -1.4683    0.5628    0.0001 C   0  0  0  0  0  0  0  0  0  0  0  0
   -0.5867   -0.5577    0.0001 C   0  0  0  0  0  3  0  0  0  0  0  0
   -1.2283   -1.8153    0.0002 C   0  0  0  0  0  0  0  0  0  0  0  0
   -2.6257   -1.8872    0.0003 C   0  0  0  0  0  0  0  0  0  0  0  0
   -3.4039   -0.7019    0.0003 C   0  0  0  0  0  0  0  0  0  0  0  0
   -4.9398   -0.7595   -0.0000 C   0  0  0  0  0  0  0  0  0  0  0  0
   -5.5344    0.6572    0.0019 C   0  0  0  0  0  0  0  0  0  0  0  0
   -5.4211   -1.5119    1.2608 C   0  0  0  0  0  0  0  0  0  0  0  0
   -5.4201   -1.5081   -1.2635 C   0  0  0  0  0  0  0  0  0  0  0  0
    2.3680    2.8198   -0.0002 H   0  0  0  0  0  0  0  0  0  0  0  0
    1.2810    5.1240   -0.0001 H   0  0  0  0  0  0  0  0  0  0  0  0
   -1.2538    5.2682    0.0001 H   0  0  0  0  0  0  0  0  0  0  0  0
   -2.5887    3.0842    0.0002 H   0  0  0  0  0  0  0  0  0  0  0  0
   -0.6367   -2.7446    0.0002 H   0  0  0  0  0  0  0  0  0  0  0  0
   -3.1193   -2.8713    0.0004 H   0  0  0  0  0  0  0  0  0  0  0  0
   -5.2089    1.2298   -0.8879 H   0  0  0  0  0  0  0  0  0  0  0  0
   -6.6421    0.6008    0.0018 H   0  0  0  0  0  0  0  0  0  0  0  0
   -5.2091    1.2273    0.8934 H   0  0  0  0  0  0  0  0  0  0  0  0
   -5.0391   -2.5522    1.2938 H   0  0  0  0  0  0  0  0  0  0  0  0
   -5.0833   -0.9970    2.1828 H   0  0  0  0  0  0  0  0  0  0  0  0
   -6.5296   -1.5607    1.2810 H   0  0  0  0  0  0  0  0  0  0  0  0
   -5.0376   -2.5481   -1.2994 H   0  0  0  0  0  0  0  0  0  0  0  0
   -6.5286   -1.5572   -1.2847 H   0  0  0  0  0  0  0  0  0  0  0  0
   -5.0817   -0.9902   -2.1837 H   0  0  0  0  0  0  0  0  0  0  0  0
  1  7  1  0  0  0  0
  2 12  1  0  0  0  0
  3  4  2  0  0  0  0
  3  1  1  0  0  0  0
  4  5  1  0  0  0  0
  5 19  1  0  0  0  0
  5  6  2  0  0  0  0
  6 20  1  0  0  0  0
  7  6  1  0  0  0  0
  7  8  2  0  0  0  0
  8  2  1  0  0  0  0
  9  8  1  0  0  0  0
  9 10  2  0  0  0  0
 10 11  1  0  0  0  0
 11 22  1  0  0  0  0
 12 11  2  0  0  0  0
 13 12  1  0  0  0  0
 13 14  1  0  0  0  0
 13 15  1  0  0  0  0
 14 25  1  0  0  0  0
 15 28  1  0  0  0  0
 15 26  1  0  0  0  0
 15 27  1  0  0  0  0
 16 13  1  0  0  0  0
 17  3  1  0  0  0  0
 18  4  1  0  0  0  0
 21 10  1  0  0  0  0
 23 14  1  0  0  0  0
 24 14  1  0  0  0  0
 29 16  1  0  0  0  0
 30 16  1  0  0  0  0
 31 16  1  0  0  0  0
M  END
