1,2
q = -1.0, confidence = 0.006

 39 40  0  0  1  0  0  0  0  0999 V2000
    0.4570   -0.4426   -0.5058 N   0  0  0  0  0  2  0  0  0  0  0  0
    3.0422   -0.2347   -0.1430 C   0  0  0  0  0  3  0  0  0  0  0  0
    4.4311   -0.1226    0.0513 C   0  0  0  0  0  0  0  0  0  0  0  0
    4.8344    0.6206    0.7566 H   0  0  0  0  0  0  0  0  0  0  0  0
    5.3315   -0.9497   -0.6425 C   0  0  0  0  0  0  0  0  0  0  0  0
    6.4137   -0.8395   -0.4684 H   0  0  0  0  0  0  0  0  0  0  0  0
    4.8677   -1.9151   -1.5547 C   0  0  0  0  0  0  0  0  0  0  0  0
    5.5791   -2.5587   -2.0932 H   0  0  0  0  0  0  0  0  0  0  0  0
    3.4930   -2.0490   -1.7714 C   0  0  0  0  0  0  0  0  0  0  0  0
    3.1217   -2.8023   -2.4832 H   0  0  0  0  0  0  0  0  0  0  0  0
    2.5877   -1.2168   -1.0732 C   0  0  0  0  0  0  0  0  0  0  0  0
    1.1392   -1.2953   -1.2341 C   0  0  2  0  0  3  0  0  0  0  0  0
    0.4937   -2.2764   -2.1688 C   0  0  0  0  0  0  0  0  0  0  0  0
   -0.5964   -2.1172   -2.2437 H   0  0  0  0  0  0  0  0  0  0  0  0
    0.6767   -3.3146   -1.8225 H   0  0  0  0  0  0  0  0  0  0  0  0
    0.9447   -2.1918   -3.1778 H   0  0  0  0  0  0  0  0  0  0  0  0
   -0.9678   -0.4233   -0.4909 C   0  0  0  0  0  0  0  0  0  0  0  0
   -1.6566   -1.3704    0.2852 C   0  0  0  0  0  0  0  0  0  0  0  0
   -1.0840   -2.1227    0.8409 H   0  0  0  0  0  0  0  0  0  0  0  0
   -3.8314   -2.1519    1.0943 O   0  0  0  0  0  0  0  0  0  0  0  0
   -3.0629   -1.3024    0.3620 C   0  0  0  0  0  0  0  0  0  0  0  0
   -5.1358   -0.2568   -0.3202 O   0  0  0  0  0  0  0  0  0  0  0  0
   -3.7721   -0.3041   -0.3504 C   0  0  0  0  0  0  0  0  0  0  0  0
   -3.8086    1.6055   -1.7111 O   0  0  0  0  0  0  0  0  0  0  0  0
   -3.0518    0.6565   -1.1046 C   0  0  0  0  0  0  0  0  0  0  0  0
   -1.6463    0.5887   -1.1879 C   0  0  0  0  0  0  0  0  0  0  0  0
   -1.0659    1.3242   -1.7573 H   0  0  0  0  0  0  0  0  0  0  0  0
   -3.1816   -3.1599    1.8461 C   0  0  0  0  0  0  0  0  0  0  0  0
   -2.6134   -3.8603    1.1937 H   0  0  0  0  0  0  0  0  0  0  0  0
   -3.9776   -3.7222    2.3680 H   0  0  0  0  0  0  0  0  0  0  0  0
   -2.4845   -2.7315    2.6008 H   0  0  0  0  0  0  0  0  0  0  0  0
   -5.6850    0.3709    0.8355 C   0  0  0  0  0  0  0  0  0  0  0  0
   -5.3471    1.4277    0.9201 H   0  0  0  0  0  0  0  0  0  0  0  0
   -5.4119   -0.1755    1.7647 H   0  0  0  0  0  0  0  0  0  0  0  0
   -6.7853    0.3531    0.7169 H   0  0  0  0  0  0  0  0  0  0  0  0
   -3.1431    2.6243   -2.4343 C   0  0  0  0  0  0  0  0  0  0  0  0
   -3.9301    3.2993   -2.8179 H   0  0  0  0  0  0  0  0  0  0  0  0
   -2.5687    2.2142   -3.2952 H   0  0  0  0  0  0  0  0  0  0  0  0
   -2.4488    3.2053   -1.7867 H   0  0  0  0  0  0  0  0  0  0  0  0
  1 17  1  0  0  0  0
  2  3  1  0  0  0  0
  3  4  1  0  0  0  0
  5  6  1  0  0  0  0
  5  3  2  0  0  0  0
  7  5  1  0  0  0  0
  8  7  1  0  0  0  0
  9  7  2  0  0  0  0
  9 11  1  0  0  0  0
 10  9  1  0  0  0  0
 11  2  2  0  0  0  0
 12 11  1  0  0  0  0
 12  1  1  6  0  0  0
 13 15  1  0  0  0  0
 13 12  1  0  0  0  0
 14 13  1  0  0  0  0
 16 13  1  0  0  0  0
 17 18  1  0  0  0  0
 18 21  2  0  0  0  0
 18 19  1  0  0  0  0
 20 28  1  0  0  0  0
 21 20  1  0  0  0  0
 22 32  1  0  0  0  0
 23 22  1  0  0  0  0
 23 21  1  0  0  0  0
 24 25  1  0  0  0  0
 25 23  2  0  0  0  0
 26 25  1  0  0  0  0
 26 17  2  0  0  0  0
 27 26  1  0  0  0  0
 28 30  1  0  0  0  0
 28 31  1  0  0  0  0
 29 28  1  0  0  0  0
 32 33  1  0  0  0  0
 32 34  1  0  0  0  0
 35 32  1  0  0  0  0
 36 39  1  0  0  0  0
 36 24  1  0  0  0  0
 37 36  1  0  0  0  0
 38 36  1  0  0  0  0
M  END
