1,12
q = -1.0, confidence = 0.0

 29 31  0  0  0  0  0  0  0  0999 V2000
    1.9771    1.2095    0.4852 N   0  0  0  0  0  2  0  0  0  0  0  0
    4.6441    0.8783    1.1602 N   0  0  0  0  0  0  0  0  0  0  0  0
   -0.3625   -2.1897   -4.1269 F   0  0  0  0  0  0  0  0  0  0  0  0
    6.9465   -4.8092   -0.1934 F   0  0  0  0  0  0  0  0  0  0  0  0
    2.5826    2.0705    1.3291 C   0  0  0  0  0  3  0  0  0  0  0  0
    1.9487    2.8471    1.7786 H   0  0  0  0  0  0  0  0  0  0  0  0
    3.9492    1.9404    1.5870 C   0  0  0  0  0  0  0  0  0  0  0  0
    4.4809    2.6939    2.1917 H   0  0  0  0  0  0  0  0  0  0  0  0
    4.0239   -0.0378    0.3949 C   0  0  0  0  0  0  0  0  0  0  0  0
    2.6986    0.1900   -0.1001 C   0  0  0  0  0  0  0  0  0  0  0  0
    1.9701   -0.4957   -1.1646 C   0  0  0  0  0  0  0  0  0  0  0  0
    0.5881   -0.1194   -1.2745 C   0  0  0  0  0  3  0  0  0  0  0  0
   -0.1917   -0.7216   -2.2805 C   0  0  0  0  0  0  0  0  0  0  0  0
   -1.2581   -0.4861   -2.4077 H   0  0  0  0  0  0  0  0  0  0  0  0
    0.3976   -1.6267   -3.1683 C   0  0  0  0  0  0  0  0  0  0  0  0
    1.7612   -1.9590   -3.1093 C   0  0  0  0  0  0  0  0  0  0  0  0
    2.1852   -2.6507   -3.8500 H   0  0  0  0  0  0  0  0  0  0  0  0
    2.5422   -1.3876   -2.1034 C   0  0  0  0  0  0  0  0  0  0  0  0
    3.6121   -1.6294   -2.0611 H   0  0  0  0  0  0  0  0  0  0  0  0
    4.7732   -1.3009    0.1781 C   0  0  0  0  0  0  0  0  0  0  0  0
    4.1371   -2.5561    0.3077 C   0  0  0  0  0  0  0  0  0  0  0  0
    3.0574   -2.6010    0.5135 H   0  0  0  0  0  0  0  0  0  0  0  0
    4.8665   -3.7434    0.1880 C   0  0  0  0  0  0  0  0  0  0  0  0
    4.3882   -4.7271    0.2961 H   0  0  0  0  0  0  0  0  0  0  0  0
    6.2431   -3.6708   -0.0666 C   0  0  0  0  0  0  0  0  0  0  0  0
    6.9047   -2.4415   -0.1836 C   0  0  0  0  0  0  0  0  0  0  0  0
    7.9873   -2.4279   -0.3741 H   0  0  0  0  0  0  0  0  0  0  0  0
    6.1657   -1.2607   -0.0469 C   0  0  0  0  0  0  0  0  0  0  0  0
    6.6626   -0.2820   -0.1083 H   0  0  0  0  0  0  0  0  0  0  0  0
  1  5  1  0  0  0  0
  2  7  2  0  0  0  0
  3 15  1  0  0  0  0
  4 25  1  0  0  0  0
  5  7  1  0  0  0  0
  5  6  1  0  0  0  0
  7  8  1  0  0  0  0
  9  2  1  0  0  0  0
 10  9  2  0  0  0  0
 10  1  1  0  0  0  0
 11 10  1  0  0  0  0
 12 11  1  0  0  0  0
 13 12  2  0  0  0  0
 14 13  1  0  0  0  0
 15 16  2  0  0  0  0
 15 13  1  0  0  0  0
 16 18  1  0  0  0  0
 17 16  1  0  0  0  0
 18 19  1  0  0  0  0
 18 11  2  0  0  0  0
 20 21  1  0  0  0  0
 20  9  1  0  0  0  0
 21 22  1  0  0  0  0
 23 24  1  0  0  0  0
 23 21  2  0  0  0  0
 25 23  1  0  0  0  0
 26 25  2  0  0  0  0
 26 28  1  0  0  0  0
 27 26  1  0  0  0  0
 28 20  2  0  0  0  0
 29 28  1  0  0  0  0
M  END
