1,11
q = -1.0

 25 26  0  0  1  0  0  0  0  0999 V2000
    1.5066    0.6886    0.0516 N   0  0  0  0  0  2  0  0  0  0  0  0
    1.8498    1.9662    0.2216 C   0  0  0  0  0  0  0  0  0  0  0  0
    3.1841    2.3387    0.5045 C   0  0  0  0  0  0  0  0  0  0  0  0
    4.1964    1.3846    0.5960 C   0  0  0  0  0  0  0  0  0  0  0  0
    3.8359    0.0070    0.3979 C   0  0  0  0  0  0  0  0  0  0  0  0
    4.7595   -1.0778    0.3955 C   0  0  0  0  0  0  0  0  0  0  0  0
    4.3142   -2.3706    0.1442 C   0  0  0  0  0  0  0  0  0  0  0  0
    2.9416   -2.6493   -0.0855 C   0  0  0  0  0  0  0  0  0  0  0  0
    1.9890   -1.6294   -0.0623 C   0  0  0  0  0  0  0  0  0  0  0  0
    2.4604   -0.3013    0.1475 C   0  0  2  0  0  3  0  0  0  0  0  0
    0.4917   -1.7969   -0.2095 C   0  0  0  0  0  3  0  0  0  0  0  0
    0.0726   -2.8663   -1.2149 C   0  0  0  0  0  0  0  0  0  0  0  0
    5.6189    1.7771    0.8764 C   0  0  0  0  0  0  0  0  0  0  0  0
    1.0307    2.6965    0.1152 H   0  0  0  0  0  0  0  0  0  0  0  0
    3.4141    3.4056    0.6418 H   0  0  0  0  0  0  0  0  0  0  0  0
    5.8274   -0.8874    0.5719 H   0  0  0  0  0  0  0  0  0  0  0  0
    5.0390   -3.1991    0.1279 H   0  0  0  0  0  0  0  0  0  0  0  0
    2.6281   -3.6882   -0.2676 H   0  0  0  0  0  0  0  0  0  0  0  0
    0.0941   -2.0656    0.8002 H   0  0  0  0  0  0  0  0  0  0  0  0
   -1.0312   -2.9750   -1.2555 H   0  0  0  0  0  0  0  0  0  0  0  0
    0.4268   -2.6260   -2.2386 H   0  0  0  0  0  0  0  0  0  0  0  0
    0.4660   -3.8768   -0.9588 H   0  0  0  0  0  0  0  0  0  0  0  0
    6.0030    1.2732    1.7878 H   0  0  0  0  0  0  0  0  0  0  0  0
    6.2890    1.4789    0.0430 H   0  0  0  0  0  0  0  0  0  0  0  0
    5.7154    2.8694    1.0195 H   0  0  0  0  0  0  0  0  0  0  0  0
  1 10  1  0  0  0  0
  1  2  1  0  0  0  0
  2  3  2  0  0  0  0
  3  4  1  0  0  0  0
  3 15  1  0  0  0  0
  4 13  1  0  0  0  0
  5  4  2  0  0  0  0
  6  5  1  0  0  0  0
  6 16  1  0  0  0  0
  7  6  2  0  0  0  0
  8  9  2  0  0  0  0
  8  7  1  0  0  0  0
 10  9  1  6  0  0  0
 10  5  1  0  0  0  0
 11  9  1  0  0  0  0
 11 19  1  0  0  0  0
 12 22  1  0  0  0  0
 12 11  1  0  0  0  0
 13 25  1  0  0  0  0
 13 23  1  0  0  0  0
 14  2  1  0  0  0  0
 17  7  1  0  0  0  0
 18  8  1  0  0  0  0
 20 12  1  0  0  0  0
 21 12  1  0  0  0  0
 24 13  1  0  0  0  0
M  END
