2,3
q = -1.0

 46 49  0  0  0  0  0  0  0  0999 V2000
   -1.4015   -0.2889    0.0933 P   0  0  0  0  0  0  0  0  0  0  0  0
    0.9992   -1.3814   -1.0667 N   0  0  0  0  0  2  0  0  0  0  0  0
    2.9267   -0.3295    0.4543 C   0  0  0  0  0  3  0  0  0  0  0  0
    3.9538    0.1312    1.2962 C   0  0  0  0  0  0  0  0  0  0  0  0
    3.8043    0.9958    1.9558 H   0  0  0  0  0  0  0  0  0  0  0  0
    5.2151   -0.4912    1.3249 C   0  0  0  0  0  0  0  0  0  0  0  0
    5.9934   -0.0871    1.9908 H   0  0  0  0  0  0  0  0  0  0  0  0
    5.5014   -1.6138    0.5248 C   0  0  0  0  0  0  0  0  0  0  0  0
    6.4935   -2.0860    0.5614 H   0  0  0  0  0  0  0  0  0  0  0  0
    4.5021   -2.1210   -0.3014 C   0  0  0  0  0  0  0  0  0  0  0  0
    4.6835   -3.0104   -0.9246 H   0  0  0  0  0  0  0  0  0  0  0  0
    3.2307   -1.4915   -0.3333 C   0  0  0  0  0  0  0  0  0  0  0  0
    2.1600   -2.0038   -1.1214 C   0  0  0  0  0  3  0  0  0  0  0  0
    2.2763   -2.9122   -1.7364 H   0  0  0  0  0  0  0  0  0  0  0  0
   -0.1245   -1.8038   -1.8201 C   0  0  0  0  0  0  0  0  0  0  0  0
   -0.0223   -2.6158   -2.9698 C   0  0  0  0  0  0  0  0  0  0  0  0
    0.9607   -2.9256   -3.3508 H   0  0  0  0  0  0  0  0  0  0  0  0
   -1.1789   -2.9999   -3.6581 C   0  0  0  0  0  0  0  0  0  0  0  0
   -1.0872   -3.6257   -4.5581 H   0  0  0  0  0  0  0  0  0  0  0  0
   -2.4457   -2.5714   -3.2257 C   0  0  0  0  0  0  0  0  0  0  0  0
   -3.3490   -2.8661   -3.7792 H   0  0  0  0  0  0  0  0  0  0  0  0
   -2.5522   -1.7460   -2.0978 C   0  0  0  0  0  0  0  0  0  0  0  0
   -3.5377   -1.3791   -1.7748 H   0  0  0  0  0  0  0  0  0  0  0  0
   -1.3980   -1.3617   -1.3907 C   0  0  0  0  0  0  0  0  0  0  0  0
   -1.9442   -1.3358    1.5048 C   0  0  0  0  0  0  0  0  0  0  0  0
   -1.4475   -1.0904    2.8007 C   0  0  0  0  0  0  0  0  0  0  0  0
   -0.6761   -0.3226    2.9586 H   0  0  0  0  0  0  0  0  0  0  0  0
   -1.9212   -1.8352    3.8913 C   0  0  0  0  0  0  0  0  0  0  0  0
   -1.5280   -1.6354    4.8991 H   0  0  0  0  0  0  0  0  0  0  0  0
   -2.8839   -2.8368    3.6942 C   0  0  0  0  0  0  0  0  0  0  0  0
   -3.2485   -3.4265    4.5484 H   0  0  0  0  0  0  0  0  0  0  0  0
   -3.3760   -3.0903    2.4037 C   0  0  0  0  0  0  0  0  0  0  0  0
   -4.1242   -3.8807    2.2429 H   0  0  0  0  0  0  0  0  0  0  0  0
   -2.9153   -2.3405    1.3123 C   0  0  0  0  0  0  0  0  0  0  0  0
   -3.3086   -2.5518    0.3078 H   0  0  0  0  0  0  0  0  0  0  0  0
   -2.8293    0.8305   -0.1707 C   0  0  0  0  0  0  0  0  0  0  0  0
   -3.6658    1.1727    0.9128 C   0  0  0  0  0  0  0  0  0  0  0  0
   -3.5079    0.7121    1.8993 H   0  0  0  0  0  0  0  0  0  0  0  0
   -4.7037    2.0993    0.7320 C   0  0  0  0  0  0  0  0  0  0  0  0
   -5.3524    2.3612    1.5810 H   0  0  0  0  0  0  0  0  0  0  0  0
   -4.9190    2.6833   -0.5261 C   0  0  0  0  0  0  0  0  0  0  0  0
   -5.7352    3.4076   -0.6652 H   0  0  0  0  0  0  0  0  0  0  0  0
   -4.0985    2.3322   -1.6113 C   0  0  0  0  0  0  0  0  0  0  0  0
   -4.2739    2.7763   -2.6026 H   0  0  0  0  0  0  0  0  0  0  0  0
   -3.0556    1.4121   -1.4378 C   0  0  0  0  0  0  0  0  0  0  0  0
   -2.4217    1.1394   -2.2945 H   0  0  0  0  0  0  0  0  0  0  0  0
  1 25  1  0  0  0  0
  3  4  1  0  0  0  0
  4  6  2  0  0  0  0
  4  5  1  0  0  0  0
  6  7  1  0  0  0  0
  8  9  1  0  0  0  0
  8  6  1  0  0  0  0
 10  8  2  0  0  0  0
 11 10  1  0  0  0  0
 12 10  1  0  0  0  0
 12  3  2  0  0  0  0
 13  2  1  0  0  0  0
 13 12  1  0  0  0  0
 14 13  1  0  0  0  0
 15 24  1  0  0  0  0
 15  2  1  0  0  0  0
 16 15  2  0  0  0  0
 17 16  1  0  0  0  0
 18 20  2  0  0  0  0
 18 16  1  0  0  0  0
 19 18  1  0  0  0  0
 20 22  1  0  0  0  0
 21 20  1  0  0  0  0
 22 23  1  0  0  0  0
 22 24  2  0  0  0  0
 24  1  1  0  0  0  0
 25 26  1  0  0  0  0
 26 27  1  0  0  0  0
 26 28  2  0  0  0  0
 28 29  1  0  0  0  0
 30 28  1  0  0  0  0
 30 31  1  0  0  0  0
 32 30  2  0  0  0  0
 33 32  1  0  0  0  0
 34 25  2  0  0  0  0
 34 32  1  0  0  0  0
 35 34  1  0  0  0  0
 36  1  1  0  0  0  0
 36 37  1  0  0  0  0
 37 38  1  0  0  0  0
 39 37  2  0  0  0  0
 39 40  1  0  0  0  0
 41 39  1  0  0  0  0
 42 41  1  0  0  0  0
 43 45  1  0  0  0  0
 43 41  2  0  0  0  0
 44 43  1  0  0  0  0
 45 36  2  0  0  0  0
 46 45  1  0  0  0  0
M  END
