1,12
q = -1.0

 30 31  0  0  0  0  0  0  0  0999 V2000
   -0.5840   -1.5411   -1.1499 N   0  0  0  0  0  2  0  0  0  0  0  0
   -4.8090    3.2675   -1.8330 C   0  0  0  0  0  0  0  0  0  0  0  0
   -5.8549    3.0701   -1.5172 H   0  0  0  0  0  0  0  0  0  0  0  0
   -4.8644    3.7241   -2.8441 H   0  0  0  0  0  0  0  0  0  0  0  0
   -4.3773    4.0186   -1.1441 H   0  0  0  0  0  0  0  0  0  0  0  0
   -3.9955    1.9988   -1.8558 C   0  0  0  0  0  0  0  0  0  0  0  0
   -4.4337    0.8928   -2.6277 C   0  0  0  0  0  0  0  0  0  0  0  0
   -5.3701    0.9667   -3.2026 H   0  0  0  0  0  0  0  0  0  0  0  0
   -3.6829   -0.2794   -2.6568 C   0  0  0  0  0  0  0  0  0  0  0  0
   -4.0206   -1.1434   -3.2523 H   0  0  0  0  0  0  0  0  0  0  0  0
   -2.4821   -0.3655   -1.9116 C   0  0  0  0  0  0  0  0  0  0  0  0
   -2.0043    0.7293   -1.1165 C   0  0  0  0  0  3  0  0  0  0  0  0
   -2.7964    1.8970   -1.1217 C   0  0  0  0  0  0  0  0  0  0  0  0
   -2.4823    2.7713   -0.5298 H   0  0  0  0  0  0  0  0  0  0  0  0
   -1.6753   -1.5531   -1.8684 C   0  0  0  0  0  3  0  0  0  0  0  0
   -1.9735   -2.4749   -2.4089 H   0  0  0  0  0  0  0  0  0  0  0  0
    0.1954   -2.7543   -0.9907 C   0  0  0  0  0  0  0  0  0  0  0  0
   -0.2717   -3.5793   -1.5785 H   0  0  0  0  0  0  0  0  0  0  0  0
    0.1438   -3.0601    0.0771 H   0  0  0  0  0  0  0  0  0  0  0  0
    1.6485   -2.6009   -1.3911 C   0  0  0  0  0  0  0  0  0  0  0  0
    2.0199   -1.7621   -2.4580 C   0  0  0  0  0  0  0  0  0  0  0  0
    1.2443   -1.2045   -3.0029 H   0  0  0  0  0  0  0  0  0  0  0  0
    3.3696   -1.6134   -2.8126 C   0  0  0  0  0  0  0  0  0  0  0  0
    3.6437   -0.9376   -3.6369 H   0  0  0  0  0  0  0  0  0  0  0  0
    4.3645   -2.3167   -2.1144 C   0  0  0  0  0  0  0  0  0  0  0  0
    5.4235   -2.1977   -2.3893 H   0  0  0  0  0  0  0  0  0  0  0  0
    4.0005   -3.1711   -1.0603 C   0  0  0  0  0  0  0  0  0  0  0  0
    4.7741   -3.7247   -0.5066 H   0  0  0  0  0  0  0  0  0  0  0  0
    2.6519   -3.3058   -0.6989 C   0  0  0  0  0  0  0  0  0  0  0  0
    2.3713   -3.9559    0.1454 H   0  0  0  0  0  0  0  0  0  0  0  0
  1 17  1  0  0  0  0
  2  3  1  0  0  0  0
  2  5  1  0  0  0  0
  4  2  1  0  0  0  0
  6  2  1  0  0  0  0
  6 13  1  0  0  0  0
  7  6  2  0  0  0  0
  8  7  1  0  0  0  0
  9  7  1  0  0  0  0
  9 11  2  0  0  0  0
 10  9  1  0  0  0  0
 11 15  1  0  0  0  0
 11 12  1  0  0  0  0
 13 12  2  0  0  0  0
 13 14  1  0  0  0  0
 15  1  1  0  0  0  0
 16 15  1  0  0  0  0
 17 19  1  0  0  0  0
 18 17  1  0  0  0  0
 20 17  1  0  0  0  0
 20 29  1  0  0  0  0
 21 20  2  0  0  0  0
 22 21  1  0  0  0  0
 23 21  1  0  0  0  0
 23 25  2  0  0  0  0
 24 23  1  0  0  0  0
 25 27  1  0  0  0  0
 26 25  1  0  0  0  0
 27 29  2  0  0  0  0
 27 28  1  0  0  0  0
 29 30  1  0  0  0  0
M  END
