2,3
q = -2.0, confidence = 0.942

 50 53  0  0  0  0  0  0  0  0999 V2000
    2.8387   -0.2924   -1.3992 Si  0  0  0  0  0  0  0  0  0  0  0  0
    2.6820    0.0027    0.3494 N   0  0  0  0  0  2  0  0  0  0  0  0
    0.9735   -0.2731   -1.6763 C   0  0  0  0  0  3  0  0  0  0  0  0
    0.2462    0.9423   -1.4395 C   0  0  0  0  0  3  0  0  0  0  0  0
    0.6550    1.9541   -1.5572 H   0  0  0  0  0  0  0  0  0  0  0  0
   -1.0607    0.6210   -0.9645 C   0  0  0  0  0  0  0  0  0  0  0  0
   -1.1474   -0.8105   -0.8764 C   0  0  0  0  0  0  0  0  0  0  0  0
    0.1051   -1.3506   -1.3015 C   0  0  0  0  0  3  0  0  0  0  0  0
    0.3765   -2.4129   -1.3065 H   0  0  0  0  0  0  0  0  0  0  0  0
    3.6874    1.0956   -2.3589 C   0  0  0  0  0  0  0  0  0  0  0  0
    3.2333    2.0792   -2.1250 H   0  0  0  0  0  0  0  0  0  0  0  0
    3.5820    0.9164   -3.4491 H   0  0  0  0  0  0  0  0  0  0  0  0
    4.7701    1.1567   -2.1284 H   0  0  0  0  0  0  0  0  0  0  0  0
    3.5761   -1.9702   -1.8469 C   0  0  0  0  0  0  0  0  0  0  0  0
    4.6690   -2.0036   -1.6686 H   0  0  0  0  0  0  0  0  0  0  0  0
    3.3970   -2.1914   -2.9196 H   0  0  0  0  0  0  0  0  0  0  0  0
    3.1068   -2.7722   -1.2424 H   0  0  0  0  0  0  0  0  0  0  0  0
    3.7607    0.3471    1.3013 C   0  0  0  0  0  0  0  0  0  0  0  0
    3.3840   -0.1245    2.7184 C   0  0  0  0  0  0  0  0  0  0  0  0
    2.4467    0.3557    3.0640 H   0  0  0  0  0  0  0  0  0  0  0  0
    4.1803    0.1386    3.4437 H   0  0  0  0  0  0  0  0  0  0  0  0
    3.2395   -1.2223    2.7389 H   0  0  0  0  0  0  0  0  0  0  0  0
    3.9570    1.8778    1.3042 C   0  0  0  0  0  0  0  0  0  0  0  0
    4.2397    2.2400    0.2958 H   0  0  0  0  0  0  0  0  0  0  0  0
    4.7537    2.1794    2.0154 H   0  0  0  0  0  0  0  0  0  0  0  0
    3.0148    2.3828    1.5969 H   0  0  0  0  0  0  0  0  0  0  0  0
    5.0773   -0.3439    0.8954 C   0  0  0  0  0  0  0  0  0  0  0  0
    4.9516   -1.4446    0.8719 H   0  0  0  0  0  0  0  0  0  0  0  0
    5.8839   -0.1034    1.6172 H   0  0  0  0  0  0  0  0  0  0  0  0
    5.4187   -0.0089   -0.1056 H   0  0  0  0  0  0  0  0  0  0  0  0
   -2.1819    1.4641   -0.5953 C   0  0  0  0  0  0  0  0  0  0  0  0
   -2.1170    2.8721   -0.7058 C   0  0  0  0  0  0  0  0  0  0  0  0
   -1.1991    3.3340   -1.0981 H   0  0  0  0  0  0  0  0  0  0  0  0
   -3.1932    3.6746   -0.3292 C   0  0  0  0  0  0  0  0  0  0  0  0
   -3.1261    4.7691   -0.4205 H   0  0  0  0  0  0  0  0  0  0  0  0
   -4.3653    3.0726    0.1683 C   0  0  0  0  0  0  0  0  0  0  0  0
   -5.2216    3.6944    0.4696 H   0  0  0  0  0  0  0  0  0  0  0  0
   -4.4464    1.6839    0.2791 C   0  0  0  0  0  0  0  0  0  0  0  0
   -5.3752    1.2439    0.6669 H   0  0  0  0  0  0  0  0  0  0  0  0
   -3.3706    0.8405   -0.0958 C   0  0  0  0  0  0  0  0  0  0  0  0
   -2.3531   -1.4532   -0.3889 C   0  0  0  0  0  0  0  0  0  0  0  0
   -2.4540   -2.8613   -0.2949 C   0  0  0  0  0  0  0  0  0  0  0  0
   -1.5998   -3.4783   -0.6090 H   0  0  0  0  0  0  0  0  0  0  0  0
   -3.6099   -3.4696    0.1918 C   0  0  0  0  0  0  0  0  0  0  0  0
   -3.6712   -4.5660    0.2608 H   0  0  0  0  0  0  0  0  0  0  0  0
   -4.6964   -2.6690    0.5958 C   0  0  0  0  0  0  0  0  0  0  0  0
   -5.6138   -3.1366    0.9839 H   0  0  0  0  0  0  0  0  0  0  0  0
   -4.6147   -1.2790    0.5045 C   0  0  0  0  0  0  0  0  0  0  0  0
   -5.4792   -0.6824    0.8257 H   0  0  0  0  0  0  0  0  0  0  0  0
   -3.4550   -0.6292    0.0124 C   0  0  0  0  0  0  0  0  0  0  0  0
  1  2  1  0  0  0  0
  2 18  1  0  0  0  0
  3  4  1  0  0  0  0
  3  1  1  0  0  0  0
  3  8  1  0  0  0  0
  4  6  1  0  0  0  0
  5  4  1  0  0  0  0
  6  7  2  0  0  0  0
  6 31  1  0  0  0  0
  7 41  1  0  0  0  0
  8  7  1  0  0  0  0
  9  8  1  0  0  0  0
 10 13  1  0  0  0  0
 10 11  1  0  0  0  0
 10  1  1  0  0  0  0
 12 10  1  0  0  0  0
 14 15  1  0  0  0  0
 14  1  1  0  0  0  0
 14 17  1  0  0  0  0
 16 14  1  0  0  0  0
 18 23  1  0  0  0  0
 18 19  1  0  0  0  0
 19 22  1  0  0  0  0
 19 20  1  0  0  0  0
 19 21  1  0  0  0  0
 23 26  1  0  0  0  0
 23 25  1  0  0  0  0
 24 23  1  0  0  0  0
 27 18  1  0  0  0  0
 27 29  1  0  0  0  0
 28 27  1  0  0  0  0
 30 27  1  0  0  0  0
 31 40  1  0  0  0  0
 32 31  2  0  0  0  0
 32 34  1  0  0  0  0
 33 32  1  0  0  0  0
 34 36  2  0  0  0  0
 35 34  1  0  0  0  0
 36 38  1  0  0  0  0
 36 37  1  0  0  0  0
 38 39  1  0  0  0  0
 40 50  1  0  0  0  0
 40 38  2  0  0  0  0
 41 42  2  0  0  0  0
 41 50  1  0  0  0  0
 42 44  1  0  0  0  0
 43 42  1  0  0  0  0
 44 45  1  0  0  0  0
 44 46  2  0  0  0  0
 46 47  1  0  0  0  0
 48 46  1  0  0  0  0
 48 49  1  0  0  0  0
 50 48  2  0  0  0  0
M  END
