2,4
q = -1.0

 52 54  0  0  1  0  0  0  0  0999 V2000
   -0.2068   -6.0320   -1.0407 Cl  0  0  0  0  0  0  0  0  0  0  0  0
   -2.0681    0.8511   -0.0111 N   0  0  0  0  0  2  0  0  0  0  0  0
    0.7374    0.9758   -1.9900 N   0  0  0  0  0  0  0  0  0  0  0  0
   -0.1504    1.1928   -1.0862 C   0  0  0  0  0  3  0  0  0  0  0  0
   -1.4845    0.5506   -1.1403 C   0  0  1  0  0  3  0  0  0  0  0  0
   -3.3822    0.4762    0.3657 C   0  0  0  0  0  0  0  0  0  0  0  0
   -3.5439   -0.4869    1.3952 C   0  0  0  0  0  0  0  0  0  0  0  0
   -4.8515   -0.8419    1.7726 C   0  0  0  0  0  0  0  0  0  0  0  0
   -4.9868   -1.5980    2.5615 H   0  0  0  0  0  0  0  0  0  0  0  0
   -5.9667   -0.2483    1.1678 C   0  0  0  0  0  0  0  0  0  0  0  0
   -6.9822   -0.5344    1.4798 H   0  0  0  0  0  0  0  0  0  0  0  0
   -5.7849    0.7201    0.1726 C   0  0  0  0  0  0  0  0  0  0  0  0
   -6.6584    1.2022   -0.2930 H   0  0  0  0  0  0  0  0  0  0  0  0
   -4.4983    1.1059   -0.2489 C   0  0  0  0  0  0  0  0  0  0  0  0
   -2.3468   -1.1189    2.0482 C   0  0  0  0  0  0  0  0  0  0  0  0
   -1.7690   -0.3736    2.6323 H   0  0  0  0  0  0  0  0  0  0  0  0
   -1.6492   -1.5380    1.2972 H   0  0  0  0  0  0  0  0  0  0  0  0
   -2.6511   -1.9333    2.7325 H   0  0  0  0  0  0  0  0  0  0  0  0
   -4.3287    2.1743   -1.2992 C   0  0  0  0  0  0  0  0  0  0  0  0
   -5.3071    2.6166   -1.5646 H   0  0  0  0  0  0  0  0  0  0  0  0
   -3.8797    1.7837   -2.2362 H   0  0  0  0  0  0  0  0  0  0  0  0
   -3.6681    2.9924   -0.9523 H   0  0  0  0  0  0  0  0  0  0  0  0
   -2.0118   -0.3533   -2.2285 C   0  0  0  0  0  0  0  0  0  0  0  0
   -3.1157   -0.2894   -2.2662 H   0  0  0  0  0  0  0  0  0  0  0  0
   -1.5906    0.0049   -3.1878 H   0  0  0  0  0  0  0  0  0  0  0  0
   -1.5900   -1.7915   -1.9810 C   0  0  0  0  0  0  0  0  0  0  0  0
   -0.3455   -2.2595   -2.4441 C   0  0  0  0  0  0  0  0  0  0  0  0
    0.3068   -1.5710   -3.0010 H   0  0  0  0  0  0  0  0  0  0  0  0
    0.0780   -3.5681   -2.1785 C   0  0  0  0  0  0  0  0  0  0  0  0
    1.0552   -3.9271   -2.5306 H   0  0  0  0  0  0  0  0  0  0  0  0
   -0.7520   -4.4181   -1.4307 C   0  0  0  0  0  0  0  0  0  0  0  0
   -2.0013   -3.9781   -0.9660 C   0  0  0  0  0  0  0  0  0  0  0  0
   -2.6396   -4.6585   -0.3854 H   0  0  0  0  0  0  0  0  0  0  0  0
   -2.4122   -2.6665   -1.2428 C   0  0  0  0  0  0  0  0  0  0  0  0
   -3.3885   -2.3173   -0.8724 H   0  0  0  0  0  0  0  0  0  0  0  0
    2.0425    1.4942   -1.8909 C   0  0  0  0  0  0  0  0  0  0  0  0
    2.3134    2.8779   -2.0676 C   0  0  0  0  0  0  0  0  0  0  0  0
    3.6480    3.3152   -1.9567 C   0  0  0  0  0  0  0  0  0  0  0  0
    3.8617    4.3878   -2.0887 H   0  0  0  0  0  0  0  0  0  0  0  0
    4.6907    2.4260   -1.6772 C   0  0  0  0  0  0  0  0  0  0  0  0
    5.7228    2.7944   -1.5791 H   0  0  0  0  0  0  0  0  0  0  0  0
    4.4118    1.0581   -1.5393 C   0  0  0  0  0  0  0  0  0  0  0  0
    5.2248    0.3447   -1.3304 H   0  0  0  0  0  0  0  0  0  0  0  0
    3.1019    0.5678   -1.6634 C   0  0  0  0  0  0  0  0  0  0  0  0
    2.8238   -0.9101   -1.5742 C   0  0  0  0  0  0  0  0  0  0  0  0
    1.9197   -1.1330   -0.9785 H   0  0  0  0  0  0  0  0  0  0  0  0
    3.6764   -1.4526   -1.1229 H   0  0  0  0  0  0  0  0  0  0  0  0
    2.6465   -1.3361   -2.5858 H   0  0  0  0  0  0  0  0  0  0  0  0
    1.2310    3.8767   -2.3917 C   0  0  0  0  0  0  0  0  0  0  0  0
    1.5703    4.5717   -3.1861 H   0  0  0  0  0  0  0  0  0  0  0  0
    0.9767    4.4994   -1.5102 H   0  0  0  0  0  0  0  0  0  0  0  0
    0.2980    3.3913   -2.7308 H   0  0  0  0  0  0  0  0  0  0  0  0
  2  6  1  0  0  0  0
  3 36  1  0  0  0  0
  3  4  2  0  0  0  0
  5  4  1  1  0  0  0
  5  2  1  0  0  0  0
  6  7  1  0  0  0  0
  7  8  2  0  0  0  0
  7 15  1  0  0  0  0
  8  9  1  0  0  0  0
 10 11  1  0  0  0  0
 10  8  1  0  0  0  0
 12 10  2  0  0  0  0
 13 12  1  0  0  0  0
 14 12  1  0  0  0  0
 14  6  2  0  0  0  0
 15 16  1  0  0  0  0
 15 18  1  0  0  0  0
 17 15  1  0  0  0  0
 19 22  1  0  0  0  0
 19 14  1  0  0  0  0
 20 19  1  0  0  0  0
 21 19  1  0  0  0  0
 23 26  1  0  0  0  0
 23  5  1  0  0  0  0
 24 23  1  0  0  0  0
 25 23  1  0  0  0  0
 26 34  1  0  0  0  0
 27 29  1  0  0  0  0
 27 26  2  0  0  0  0
 28 27  1  0  0  0  0
 29 31  2  0  0  0  0
 30 29  1  0  0  0  0
 31  1  1  0  0  0  0
 31 32  1  0  0  0  0
 32 33  1  0  0  0  0
 34 32  2  0  0  0  0
 34 35  1  0  0  0  0
 36 44  1  0  0  0  0
 37 38  1  0  0  0  0
 37 36  2  0  0  0  0
 38 40  2  0  0  0  0
 39 38  1  0  0  0  0
 40 41  1  0  0  0  0
 40 42  1  0  0  0  0
 42 43  1  0  0  0  0
 44 45  1  0  0  0  0
 44 42  2  0  0  0  0
 45 47  1  0  0  0  0
 45 46  1  0  0  0  0
 48 45  1  0  0  0  0
 49 37  1  0  0  0  0
 49 51  1  0  0  0  0
 50 49  1  0  0  0  0
 52 49  1  0  0  0  0
M  END
