3
q = -1.0

 44 46  0  0  1  0  0  0  0  0999 V2000
    1.2168    2.8094    0.6545 O   0  0  0  0  0  0  0  0  0  0  0  0
    3.2662   -1.0266    1.2715 O   0  0  0  0  0  0  0  0  0  0  0  0
   -0.3535    1.3181    0.0470 N   0  0  0  0  0  2  0  0  0  0  0  0
    2.9230    0.5149   -0.3746 N   0  0  0  0  0  0  0  0  0  0  0  0
    0.7157    1.5734    0.7373 C   0  0  1  0  0  3  0  0  0  0  0  0
    0.5129    3.4181   -0.4719 C   0  0  0  0  0  0  0  0  0  0  0  0
    1.1819    3.3261   -1.3525 H   0  0  0  0  0  0  0  0  0  0  0  0
    0.3328    4.4813   -0.2292 H   0  0  0  0  0  0  0  0  0  0  0  0
   -0.7833    2.5773   -0.6312 C   0  0  0  0  0  0  0  0  0  0  0  0
   -1.1475    2.3181   -2.0903 C   0  0  0  0  0  0  0  0  0  0  0  0
   -2.0437    1.6696   -2.1394 H   0  0  0  0  0  0  0  0  0  0  0  0
   -0.3242    1.7971   -2.6147 H   0  0  0  0  0  0  0  0  0  0  0  0
   -1.3668    3.2780   -2.6007 H   0  0  0  0  0  0  0  0  0  0  0  0
   -1.9542    3.1782    0.1600 C   0  0  0  0  0  0  0  0  0  0  0  0
   -2.2907    4.1199   -0.3187 H   0  0  0  0  0  0  0  0  0  0  0  0
   -1.6520    3.4033    1.2036 H   0  0  0  0  0  0  0  0  0  0  0  0
   -2.7970    2.4592    0.1785 H   0  0  0  0  0  0  0  0  0  0  0  0
    1.4144    0.5326    1.5992 C   0  0  2  0  0  0  0  0  0  0  0  0
    0.3902   -0.5848    1.8342 C   0  0  1  0  0  3  0  0  0  0  0  0
   -0.8971   -0.3926    2.5099 C   0  0  0  0  0  0  0  0  0  0  0  0
   -1.2180    0.4980    3.0632 H   0  0  0  0  0  0  0  0  0  0  0  0
   -1.6893   -1.5616    2.2592 C   0  0  0  0  0  0  0  0  0  0  0  0
   -2.7348   -1.6939    2.5639 H   0  0  0  0  0  0  0  0  0  0  0  0
   -0.9250   -2.4892    1.4685 C   0  0  0  0  0  0  0  0  0  0  0  0
   -1.2561   -3.4733    1.1185 H   0  0  0  0  0  0  0  0  0  0  0  0
    0.3769   -1.8927    1.2315 C   0  0  0  0  0  0  0  0  0  0  0  0
    1.1863   -2.3298    0.6391 H   0  0  0  0  0  0  0  0  0  0  0  0
    1.9396    1.1260    2.9239 C   0  0  0  0  0  0  0  0  0  0  0  0
    2.6137    1.9780    2.7148 H   0  0  0  0  0  0  0  0  0  0  0  0
    2.4978    0.3484    3.4775 H   0  0  0  0  0  0  0  0  0  0  0  0
    1.1032    1.4842    3.5541 H   0  0  0  0  0  0  0  0  0  0  0  0
    2.5755    0.0294    0.7550 C   0  0  0  0  0  0  0  0  0  0  0  0
    4.0428   -0.3130   -0.8772 C   0  0  0  0  0  0  0  0  0  0  0  0
    4.3119   -1.3079    0.3048 C   0  0  0  0  0  0  0  0  0  0  0  0
    4.2320   -2.3732    0.0093 H   0  0  0  0  0  0  0  0  0  0  0  0
    5.2909   -1.1410    0.8000 H   0  0  0  0  0  0  0  0  0  0  0  0
    3.5696   -1.0378   -2.1453 C   0  0  0  0  0  0  0  0  0  0  0  0
    2.6466   -1.6200   -1.9492 H   0  0  0  0  0  0  0  0  0  0  0  0
    4.3608   -1.7166   -2.5252 H   0  0  0  0  0  0  0  0  0  0  0  0
    3.3261   -0.3020   -2.9361 H   0  0  0  0  0  0  0  0  0  0  0  0
    5.2557    0.5793   -1.1625 C   0  0  0  0  0  0  0  0  0  0  0  0
    5.0033    1.3300   -1.9365 H   0  0  0  0  0  0  0  0  0  0  0  0
    6.1108   -0.0251   -1.5284 H   0  0  0  0  0  0  0  0  0  0  0  0
    5.5733    1.1201   -0.2485 H   0  0  0  0  0  0  0  0  0  0  0  0
  1  5  1  0  0  0  0
  3  5  1  0  0  0  0
  4 32  2  0  0  0  0
  5 18  1  6  0  0  0
  6  8  1  0  0  0  0
  6  1  1  0  0  0  0
  7  6  1  0  0  0  0
  9  6  1  0  0  0  0
  9  3  1  0  0  0  0
  9 14  1  0  0  0  0
 10  9  1  0  0  0  0
 11 10  1  0  0  0  0
 12 10  1  0  0  0  0
 13 10  1  0  0  0  0
 14 17  1  0  0  0  0
 14 16  1  0  0  0  0
 15 14  1  0  0  0  0
 18 28  1  1  0  0  0
 19 18  1  6  0  0  0
 19 20  1  0  0  0  0
 20 21  1  0  0  0  0
 22 20  2  0  0  0  0
 22 23  1  0  0  0  0
 24 22  1  0  0  0  0
 25 24  1  0  0  0  0
 26 24  2  0  0  0  0
 26 19  1  0  0  0  0
 27 26  1  0  0  0  0
 28 30  1  0  0  0  0
 28 31  1  0  0  0  0
 29 28  1  0  0  0  0
 32  2  1  0  0  0  0
 32 18  1  0  0  0  0
 33  4  1  0  0  0  0
 33 34  1  0  0  0  0
 34 36  1  0  0  0  0
 34  2  1  0  0  0  0
 35 34  1  0  0  0  0
 37 38  1  0  0  0  0
 37 33  1  0  0  0  0
 39 37  1  0  0  0  0
 40 37  1  0  0  0  0
 41 33  1  0  0  0  0
 41 44  1  0  0  0  0
 42 41  1  0  0  0  0
 43 41  1  0  0  0  0
M  END
