1,32
q = -1.0

 44 47  0  0  0  0  0  0  0  0999 V2000
    0.4528    1.5248    1.2464 N   0  0  0  0  0  2  0  0  0  0  0  0
   -0.9942    1.1852   -1.5108 C   0  0  0  0  0  0  0  0  0  0  0  0
   -1.1587    1.1150   -2.9106 C   0  0  0  0  0  0  0  0  0  0  0  0
   -1.7628    0.2918   -3.3207 H   0  0  0  0  0  0  0  0  0  0  0  0
   -0.5617    2.0448   -3.7713 C   0  0  0  0  0  0  0  0  0  0  0  0
   -0.6861    1.9414   -4.8601 H   0  0  0  0  0  0  0  0  0  0  0  0
    0.1947    3.1038   -3.2450 C   0  0  0  0  0  0  0  0  0  0  0  0
    0.6677    3.8394   -3.9127 H   0  0  0  0  0  0  0  0  0  0  0  0
    0.3399    3.2215   -1.8566 C   0  0  0  0  0  0  0  0  0  0  0  0
    0.9212    4.0551   -1.4326 H   0  0  0  0  0  0  0  0  0  0  0  0
   -0.2295    2.2713   -0.9824 C   0  0  0  0  0  0  0  0  0  0  0  0
   -0.1112    2.5017    0.4835 C   0  0  0  0  0  0  0  0  0  0  0  0
   -0.5714    3.6907    1.0793 C   0  0  0  0  0  0  0  0  0  0  0  0
   -1.0189    4.4650    0.4406 H   0  0  0  0  0  0  0  0  0  0  0  0
   -0.4872    3.8527    2.4690 C   0  0  0  0  0  0  0  0  0  0  0  0
   -0.8582    4.7723    2.9458 H   0  0  0  0  0  0  0  0  0  0  0  0
    0.0558    2.8148    3.2405 C   0  0  0  0  0  0  0  0  0  0  0  0
    0.1242    2.8862    4.3352 H   0  0  0  0  0  0  0  0  0  0  0  0
    0.5165    1.6669    2.5881 C   0  0  0  0  0  0  0  0  0  0  0  0
    0.9541    0.8215    3.1411 H   0  0  0  0  0  0  0  0  0  0  0  0
   -0.6310   -2.5044    1.7817 C   0  0  0  0  0  0  0  0  0  0  0  0
    0.1814   -2.8840    1.1452 H   0  0  0  0  0  0  0  0  0  0  0  0
   -1.0328   -3.2166    2.9193 C   0  0  0  0  0  0  0  0  0  0  0  0
   -0.5340   -4.1661    3.1689 H   0  0  0  0  0  0  0  0  0  0  0  0
   -2.0556   -2.7221    3.7466 C   0  0  0  0  0  0  0  0  0  0  0  0
   -2.3611   -3.2784    4.6460 H   0  0  0  0  0  0  0  0  0  0  0  0
   -2.6771   -1.5051    3.4201 C   0  0  0  0  0  0  0  0  0  0  0  0
   -3.4729   -1.1013    4.0656 H   0  0  0  0  0  0  0  0  0  0  0  0
   -2.2916   -0.7999    2.2732 C   0  0  0  0  0  0  0  0  0  0  0  0
   -2.7819    0.1511    2.0162 H   0  0  0  0  0  0  0  0  0  0  0  0
   -1.2666   -1.2894    1.4215 C   0  0  0  0  0  0  0  0  0  0  0  0
   -0.8213   -0.4792    0.2772 C   0  0  0  0  0  2  0  0  0  0  0  0
   -1.6277    0.1628   -0.6278 C   0  0  0  0  0  0  0  0  0  0  0  0
   -3.0712   -0.1185   -0.8364 C   0  0  0  0  0  0  0  0  0  0  0  0
   -3.5991   -1.4244   -0.6910 C   0  0  0  0  0  0  0  0  0  0  0  0
   -2.9193   -2.2493   -0.4329 H   0  0  0  0  0  0  0  0  0  0  0  0
   -4.9635   -1.6766   -0.8776 C   0  0  0  0  0  0  0  0  0  0  0  0
   -5.3469   -2.7022   -0.7608 H   0  0  0  0  0  0  0  0  0  0  0  0
   -5.8395   -0.6336   -1.2235 C   0  0  0  0  0  0  0  0  0  0  0  0
   -6.9113   -0.8342   -1.3733 H   0  0  0  0  0  0  0  0  0  0  0  0
   -5.3311    0.6651   -1.3867 C   0  0  0  0  0  0  0  0  0  0  0  0
   -6.0058    1.4908   -1.6617 H   0  0  0  0  0  0  0  0  0  0  0  0
   -3.9653    0.9182   -1.1993 C   0  0  0  0  0  0  0  0  0  0  0  0
   -3.5757    1.9400   -1.3260 H   0  0  0  0  0  0  0  0  0  0  0  0
  1 19  1  0  0  0  0
  2 11  1  0  0  0  0
  2 33  2  0  0  0  0
  3  2  1  0  0  0  0
  4  3  1  0  0  0  0
  5  7  1  0  0  0  0
  5  3  2  0  0  0  0
  6  5  1  0  0  0  0
  7  9  2  0  0  0  0
  8  7  1  0  0  0  0
  9 10  1  0  0  0  0
  9 11  1  0  0  0  0
 11 12  2  0  0  0  0
 12 13  1  0  0  0  0
 12  1  1  0  0  0  0
 13 15  2  0  0  0  0
 14 13  1  0  0  0  0
 15 16  1  0  0  0  0
 15 17  1  0  0  0  0
 17 18  1  0  0  0  0
 19 20  1  0  0  0  0
 19 17  2  0  0  0  0
 21 23  1  0  0  0  0
 22 21  1  0  0  0  0
 23 24  1  0  0  0  0
 23 25  2  0  0  0  0
 25 26  1  0  0  0  0
 27 25  1  0  0  0  0
 27 28  1  0  0  0  0
 29 27  2  0  0  0  0
 30 29  1  0  0  0  0
 31 21  2  0  0  0  0
 31 29  1  0  0  0  0
 32 31  1  0  0  0  0
 33 32  1  0  0  0  0
 34 35  1  0  0  0  0
 34 33  1  0  0  0  0
 35 36  1  0  0  0  0
 37 38  1  0  0  0  0
 37 35  2  0  0  0  0
 39 37  1  0  0  0  0
 40 39  1  0  0  0  0
 41 39  2  0  0  0  0
 41 43  1  0  0  0  0
 42 41  1  0  0  0  0
 43 34  2  0  0  0  0
 44 43  1  0  0  0  0
M  END
