1,4
q = -1.0, confidence = 0.0

 17 17  0  0  0  0  0  0  0  0999 V2000
    2.8963   -2.2266    0.1621 N   0  0  0  0  0  2  0  0  0  0  0  0
    3.0034   -3.5873    0.2452 O   0  0  0  0  0  0  0  0  0  0  0  0
    2.0274   -3.8506    0.2829 H   0  0  0  0  0  0  0  0  0  0  0  0
    2.4405    0.3514   -0.0779 C   0  0  0  0  0  2  0  0  0  0  0  0
    3.8045   -0.0945   -0.0497 C   0  0  0  0  0  0  0  0  0  0  0  0
    4.8750    0.8165   -0.1182 C   0  0  0  0  0  0  0  0  0  0  0  0
    5.9154    0.4574   -0.0565 H   0  0  0  0  0  0  0  0  0  0  0  0
    4.6272    2.1910   -0.2471 C   0  0  0  0  0  0  0  0  0  0  0  0
    5.4654    2.9016   -0.3008 H   0  0  0  0  0  0  0  0  0  0  0  0
    3.3023    2.6437   -0.3011 C   0  0  0  0  0  0  0  0  0  0  0  0
    3.0901    3.7194   -0.4057 H   0  0  0  0  0  0  0  0  0  0  0  0
    2.2294    1.7345   -0.2133 C   0  0  0  0  0  0  0  0  0  0  0  0
    1.2096    2.1424   -0.2455 H   0  0  0  0  0  0  0  0  0  0  0  0
    4.0130   -1.5445    0.0575 C   0  0  0  0  0  0  0  0  0  0  0  0
    5.2386   -2.1488    0.0891 N   0  0  0  0  0  0  0  0  0  0  0  0
    6.0166   -1.6626   -0.3538 H   0  0  0  0  0  0  0  0  0  0  0  0
    5.2230   -3.1653   -0.0166 H   0  0  0  0  0  0  0  0  0  0  0  0
  1  2  1  0  0  0  0
  2  3  1  0  0  0  0
  4  5  1  0  0  0  0
  5 14  2  0  0  0  0
  6  7  1  0  0  0  0
  6  5  1  0  0  0  0
  8  6  2  0  0  0  0
  9  8  1  0  0  0  0
 10  8  1  0  0  0  0
 10 12  2  0  0  0  0
 11 10  1  0  0  0  0
 12  4  1  0  0  0  0
 13 12  1  0  0  0  0
 14 15  1  0  0  0  0
 14  1  1  0  0  0  0
 16 15  1  0  0  0  0
 17 15  1  0  0  0  0
M  END
