1,2
q = -1.0

 36 37  0  0  0  0  0  0  0  0999 V2000
   -2.7971   -1.6521    0.0242 N   0  0  0  0  0  2  0  0  0  0  0  0
   -1.5703    0.8869    0.2429 C   0  0  0  0  0  3  0  0  0  0  0  0
   -0.9429    1.7102    0.9970 N   0  0  0  0  0  2  0  0  0  0  0  0
   -2.9204    1.2861   -0.2488 C   0  0  0  0  0  0  0  0  0  0  0  0
   -4.0278    0.3977   -0.3326 C   0  0  0  0  0  0  0  0  0  0  0  0
   -5.2651    0.8806   -0.8156 C   0  0  0  0  0  0  0  0  0  0  0  0
   -6.1120    0.1851   -0.9092 H   0  0  0  0  0  0  0  0  0  0  0  0
   -5.4176    2.2124   -1.2171 C   0  0  0  0  0  0  0  0  0  0  0  0
   -6.3859    2.5587   -1.6080 H   0  0  0  0  0  0  0  0  0  0  0  0
   -4.3281    3.0928   -1.1282 C   0  0  0  0  0  0  0  0  0  0  0  0
   -4.4356    4.1438   -1.4364 H   0  0  0  0  0  0  0  0  0  0  0  0
   -3.0998    2.6295   -0.6438 C   0  0  0  0  0  0  0  0  0  0  0  0
   -2.2380    3.3055   -0.5531 H   0  0  0  0  0  0  0  0  0  0  0  0
   -3.9434   -1.0146    0.0879 C   0  0  0  0  0  0  0  0  0  0  0  0
   -5.0798   -1.6791    0.4576 N   0  0  0  0  0  0  0  0  0  0  0  0
   -5.8457   -1.1403    0.8569 H   0  0  0  0  0  0  0  0  0  0  0  0
   -4.9329   -2.6282    0.8074 H   0  0  0  0  0  0  0  0  0  0  0  0
   -2.8679   -2.9577    0.4535 O   0  0  0  0  0  0  0  0  0  0  0  0
   -1.9892   -3.3378    0.1088 H   0  0  0  0  0  0  0  0  0  0  0  0
    0.3534    1.5709    1.4896 C   0  0  0  0  0  0  0  0  0  0  0  0
    1.3283    2.4963    1.0193 C   0  0  0  0  0  0  0  0  0  0  0  0
    2.6511    2.3726    1.4719 C   0  0  0  0  0  0  0  0  0  0  0  0
    3.4149    3.0664    1.0864 H   0  0  0  0  0  0  0  0  0  0  0  0
    3.0051    1.3864    2.4051 C   0  0  0  0  0  0  0  0  0  0  0  0
    4.0460    1.3004    2.7505 H   0  0  0  0  0  0  0  0  0  0  0  0
    2.0222    0.5217    2.9053 C   0  0  0  0  0  0  0  0  0  0  0  0
    2.2894   -0.2338    3.6615 H   0  0  0  0  0  0  0  0  0  0  0  0
    0.6874    0.5880    2.4625 C   0  0  0  0  0  0  0  0  0  0  0  0
    0.9232    3.5525    0.0263 C   0  0  0  0  0  0  0  0  0  0  0  0
    1.7563    4.2504   -0.1845 H   0  0  0  0  0  0  0  0  0  0  0  0
    0.0585    4.1361    0.4062 H   0  0  0  0  0  0  0  0  0  0  0  0
    0.5924    3.1058   -0.9356 H   0  0  0  0  0  0  0  0  0  0  0  0
   -0.3500   -0.3644    2.9961 C   0  0  0  0  0  0  0  0  0  0  0  0
   -1.3286    0.1356    3.1395 H   0  0  0  0  0  0  0  0  0  0  0  0
   -0.0276   -0.8034    3.9600 H   0  0  0  0  0  0  0  0  0  0  0  0
   -0.5263   -1.2020    2.2850 H   0  0  0  0  0  0  0  0  0  0  0  0
  1 14  1  0  0  0  0
  1 18  1  0  0  0  0
  2  3  1  0  0  0  0
  3 20  1  0  0  0  0
  4  2  2  0  0  0  0
  5  4  1  0  0  0  0
  5 14  2  0  0  0  0
  6  5  1  0  0  0  0
  7  6  1  0  0  0  0
  8 10  1  0  0  0  0
  8  6  2  0  0  0  0
  9  8  1  0  0  0  0
 10 12  2  0  0  0  0
 11 10  1  0  0  0  0
 12 13  1  0  0  0  0
 12  4  1  0  0  0  0
 14 15  1  0  0  0  0
 15 17  1  0  0  0  0
 15 16  1  0  0  0  0
 19 18  1  0  0  0  0
 20 28  1  0  0  0  0
 21 22  1  0  0  0  0
 21 20  2  0  0  0  0
 22 24  2  0  0  0  0
 23 22  1  0  0  0  0
 24 25  1  0  0  0  0
 24 26  1  0  0  0  0
 26 27  1  0  0  0  0
 28 26  2  0  0  0  0
 28 33  1  0  0  0  0
 29 31  1  0  0  0  0
 29 21  1  0  0  0  0
 30 29  1  0  0  0  0
 32 29  1  0  0  0  0
 33 34  1  0  0  0  0
 33 35  1  0  0  0  0
 36 33  1  0  0  0  0
M  END
