1,25
q = -1.0, confidence = 0.0

 25 25  0  0  1  0  0  0  0  0999 V2000
   -1.0564    0.7561   -0.0025 C   0  0  0  0  0  3  0  0  0  0  0  0
   -1.2022    2.1573    0.0011 C   0  0  0  0  0  0  0  0  0  0  0  0
   -2.4490    2.8069   -0.0227 C   0  0  0  0  0  0  0  0  0  0  0  0
   -2.4905    3.9054   -0.0117 H   0  0  0  0  0  0  0  0  0  0  0  0
   -3.6253    2.0541   -0.0636 C   0  0  0  0  0  0  0  0  0  0  0  0
   -4.6107    2.5384   -0.0828 H   0  0  0  0  0  0  0  0  0  0  0  0
   -3.5249    0.6554   -0.0935 C   0  0  0  0  0  0  0  0  0  0  0  0
   -2.2761    0.0112   -0.0637 C   0  0  0  0  0  0  0  0  0  0  0  0
   -2.1494   -1.4908   -0.1966 C   0  0  1  0  0  0  0  0  0  0  0  0
   -3.0139   -2.0001    0.2871 H   0  0  0  0  0  0  0  0  0  0  0  0
   -2.1241   -1.8776   -1.6784 C   0  0  0  0  0  0  0  0  0  0  0  0
   -3.0275   -1.4575   -2.1599 H   0  0  0  0  0  0  0  0  0  0  0  0
   -2.1394   -2.9731   -1.8347 H   0  0  0  0  0  0  0  0  0  0  0  0
   -1.2313   -1.4445   -2.1737 H   0  0  0  0  0  0  0  0  0  0  0  0
   -0.4325   -3.2556    0.2102 C   0  0  0  0  0  0  0  0  0  0  0  0
    0.4759   -3.4702    0.7996 H   0  0  0  0  0  0  0  0  0  0  0  0
   -0.1531   -3.3160   -0.8543 H   0  0  0  0  0  0  0  0  0  0  0  0
   -1.2280   -4.0003    0.4373 H   0  0  0  0  0  0  0  0  0  0  0  0
   -1.1462   -1.8167    2.0063 C   0  0  0  0  0  0  0  0  0  0  0  0
   -1.8868   -2.5914    2.3087 H   0  0  0  0  0  0  0  0  0  0  0  0
   -1.5364   -0.8168    2.2668 H   0  0  0  0  0  0  0  0  0  0  0  0
   -0.1966   -1.9898    2.5450 H   0  0  0  0  0  0  0  0  0  0  0  0
    0.1989    3.2460    0.0178 Cl  0  0  0  0  0  0  0  0  0  0  0  0
   -5.0078   -0.2851   -0.1938 Cl  0  0  0  0  0  0  0  0  0  0  0  0
   -0.8993   -1.8925    0.5442 N   0  0  0  0  0  0  0  0  0  0  0  0
  1  2  1  0  0  0  0
  2 23  1  0  0  0  0
  3  4  1  0  0  0  0
  3  2  2  0  0  0  0
  5  3  1  0  0  0  0
  6  5  1  0  0  0  0
  7  8  1  0  0  0  0
  7  5  2  0  0  0  0
  8  1  2  0  0  0  0
  9  8  1  0  0  0  0
  9 10  1  1  0  0  0
  9 25  1  0  0  0  0
 11  9  1  0  0  0  0
 12 11  1  0  0  0  0
 13 11  1  0  0  0  0
 14 11  1  0  0  0  0
 15 18  1  0  0  0  0
 15 25  1  0  0  0  0
 15 16  1  0  0  0  0
 17 15  1  0  0  0  0
 19 21  1  0  0  0  0
 19 20  1  0  0  0  0
 19 22  1  0  0  0  0
 24  7  1  0  0  0  0
 25 19  1  0  0  0  0
M  END
