1,13
q = -1.0

 54 60  0  0  0  0  0  0  0  0999 V2000
   -0.4882   -1.2818   -1.2274 N   0  0  0  0  0  2  0  0  0  0  0  0
    0.4917    4.7652   -0.2698 O   0  0  0  0  0  0  0  0  0  0  0  0
   -0.7192   -2.5236   -1.7092 C   0  0  0  0  0  0  0  0  0  0  0  0
   -1.7543   -2.8797   -1.5961 H   0  0  0  0  0  0  0  0  0  0  0  0
    0.2889   -3.2797   -2.3054 C   0  0  0  0  0  0  0  0  0  0  0  0
    0.0649   -4.2888   -2.6774 H   0  0  0  0  0  0  0  0  0  0  0  0
    1.5668   -2.7063   -2.4375 C   0  0  0  0  0  0  0  0  0  0  0  0
    2.3796   -3.2555   -2.9355 H   0  0  0  0  0  0  0  0  0  0  0  0
    1.8034   -1.4303   -1.9273 C   0  0  0  0  0  0  0  0  0  0  0  0
    2.7896   -0.9623   -2.0271 H   0  0  0  0  0  0  0  0  0  0  0  0
    0.7732   -0.7190   -1.2737 C   0  0  0  0  0  0  0  0  0  0  0  0
    0.8282    0.6312   -0.7312 C   0  0  0  0  0  0  0  0  0  0  0  0
   -0.4592    1.2026   -0.5332 C   0  0  0  0  0  3  0  0  0  0  0  0
   -0.5978    2.5903   -0.3057 C   0  0  0  0  0  0  0  0  0  0  0  0
   -1.6059    2.9945   -0.1456 H   0  0  0  0  0  0  0  0  0  0  0  0
    0.5315    3.4084   -0.3384 C   0  0  0  0  0  0  0  0  0  0  0  0
    1.8539    2.8403   -0.4072 C   0  0  0  0  0  0  0  0  0  0  0  0
    3.0083    3.6812   -0.4291 C   0  0  0  0  0  0  0  0  0  0  0  0
    2.8592    4.7692   -0.4344 H   0  0  0  0  0  0  0  0  0  0  0  0
    4.2693    3.1312   -0.5035 C   0  0  0  0  0  0  0  0  0  0  0  0
    5.1574    3.7704   -0.6227 H   0  0  0  0  0  0  0  0  0  0  0  0
    4.4563    1.7201   -0.3593 C   0  0  0  0  0  0  0  0  0  0  0  0
    5.7678    1.1488   -0.4132 C   0  0  0  0  0  0  0  0  0  0  0  0
    6.6227    1.8143   -0.6093 H   0  0  0  0  0  0  0  0  0  0  0  0
    5.9440   -0.2104   -0.2885 C   0  0  0  0  0  0  0  0  0  0  0  0
    6.9349   -0.6677   -0.4342 H   0  0  0  0  0  0  0  0  0  0  0  0
    4.8530   -1.0542    0.0931 C   0  0  0  0  0  0  0  0  0  0  0  0
    5.0359   -2.4671    0.2121 C   0  0  0  0  0  0  0  0  0  0  0  0
    6.0248   -2.8900   -0.0237 H   0  0  0  0  0  0  0  0  0  0  0  0
    3.9824   -3.2828    0.5618 C   0  0  0  0  0  0  0  0  0  0  0  0
    4.0929   -4.3782    0.5654 H   0  0  0  0  0  0  0  0  0  0  0  0
    2.7453   -2.7183    1.0018 C   0  0  0  0  0  0  0  0  0  0  0  0
    1.6630   -3.5718    1.4021 C   0  0  0  0  0  0  0  0  0  0  0  0
    1.7925   -4.6597    1.2928 H   0  0  0  0  0  0  0  0  0  0  0  0
    0.4866   -3.0493    1.8818 C   0  0  0  0  0  0  0  0  0  0  0  0
   -0.3610   -3.7047    2.1347 H   0  0  0  0  0  0  0  0  0  0  0  0
    0.3706   -1.6445    2.1430 C   0  0  0  0  0  0  0  0  0  0  0  0
   -0.7815   -1.1133    2.7864 C   0  0  0  0  0  0  0  0  0  0  0  0
   -1.6240   -1.7903    2.9960 H   0  0  0  0  0  0  0  0  0  0  0  0
   -0.8373    0.2213    3.1648 C   0  0  0  0  0  0  0  0  0  0  0  0
   -1.7371    0.6213    3.6554 H   0  0  0  0  0  0  0  0  0  0  0  0
    0.2842    1.0558    2.9435 C   0  0  0  0  0  0  0  0  0  0  0  0
    0.2724    2.0987    3.2938 H   0  0  0  0  0  0  0  0  0  0  0  0
    1.4021    0.5701    2.2767 C   0  0  0  0  0  0  0  0  0  0  0  0
    2.2650    1.2295    2.1214 H   0  0  0  0  0  0  0  0  0  0  0  0
    1.4578   -0.7686    1.7986 C   0  0  0  0  0  3  0  0  0  0  0  0
    2.5830   -1.2973    1.0400 C   0  0  0  0  0  0  0  0  0  0  0  0
    3.5599   -0.4780    0.3437 C   0  0  0  0  0  0  0  0  0  0  0  0
    3.3201    0.8687   -0.1552 C   0  0  0  0  0  0  0  0  0  0  0  0
    2.0023    1.4127   -0.4552 C   0  0  0  0  0  0  0  0  0  0  0  0
   -0.7731    5.3962   -0.1861 C   0  0  0  0  0  0  0  0  0  0  0  0
   -0.5795    6.4848   -0.1780 H   0  0  0  0  0  0  0  0  0  0  0  0
   -1.3119    5.1143    0.7456 H   0  0  0  0  0  0  0  0  0  0  0  0
   -1.4166    5.1419   -1.0570 H   0  0  0  0  0  0  0  0  0  0  0  0
  2 51  1  0  0  0  0
  3  4  1  0  0  0  0
  3  1  1  0  0  0  0
  5  3  2  0  0  0  0
  6  5  1  0  0  0  0
  7  5  1  0  0  0  0
  7  9  2  0  0  0  0
  8  7  1  0  0  0  0
  9 11  1  0  0  0  0
 10  9  1  0  0  0  0
 11  1  1  0  0  0  0
 11 12  2  0  0  0  0
 12 13  1  0  0  0  0
 12 50  1  0  0  0  0
 13 14  2  0  0  0  0
 14 15  1  0  0  0  0
 16 14  1  0  0  0  0
 16  2  1  0  0  0  0
 17 16  2  0  0  0  0
 18 17  1  0  0  0  0
 19 18  1  0  0  0  0
 20 18  2  0  0  0  0
 20 22  1  0  0  0  0
 21 20  1  0  0  0  0
 22 49  1  0  0  0  0
 23 22  2  0  0  0  0
 23 25  1  0  0  0  0
 24 23  1  0  0  0  0
 25 27  2  0  0  0  0
 26 25  1  0  0  0  0
 27 28  1  0  0  0  0
 27 48  1  0  0  0  0
 28 30  2  0  0  0  0
 29 28  1  0  0  0  0
 30 31  1  0  0  0  0
 30 32  1  0  0  0  0
 32 47  1  0  0  0  0
 32 33  2  0  0  0  0
 33 35  1  0  0  0  0
 34 33  1  0  0  0  0
 35 36  1  0  0  0  0
 35 37  2  0  0  0  0
 37 38  1  0  0  0  0
 38 39  1  0  0  0  0
 38 40  2  0  0  0  0
 40 41  1  0  0  0  0
 42 40  1  0  0  0  0
 42 43  1  0  0  0  0
 44 42  2  0  0  0  0
 45 44  1  0  0  0  0
 46 37  1  0  0  0  0
 46 44  1  0  0  0  0
 47 46  1  0  0  0  0
 48 47  2  0  0  0  0
 49 48  1  0  0  0  0
 50 17  1  0  0  0  0
 50 49  2  0  0  0  0
 51 52  1  0  0  0  0
 51 53  1  0  0  0  0
 54 51  1  0  0  0  0
M  END
