1,3
q = -1.0

 25 27  0  0  0  0  0  0  0  0999 V2000
    1.6997   -0.6431    0.0982 N   0  0  0  0  0  2  0  0  0  0  0  0
    2.7038   -2.7938    0.1906 N   0  0  0  0  0  0  0  0  0  0  0  0
    1.3523    1.8984    0.1454 C   0  0  0  0  0  2  0  0  0  0  0  0
    1.1186    3.2581    0.4500 C   0  0  0  0  0  0  0  0  0  0  0  0
    0.0882    3.6298    0.5543 H   0  0  0  0  0  0  0  0  0  0  0  0
    2.1676    4.1592    0.6805 C   0  0  0  0  0  0  0  0  0  0  0  0
    1.9399    5.2113    0.9149 H   0  0  0  0  0  0  0  0  0  0  0  0
    3.5042    3.7216    0.6556 C   0  0  0  0  0  0  0  0  0  0  0  0
    4.3249    4.4218    0.8697 H   0  0  0  0  0  0  0  0  0  0  0  0
    3.7800    2.3755    0.4060 C   0  0  0  0  0  0  0  0  0  0  0  0
    4.8176    2.0275    0.4821 H   0  0  0  0  0  0  0  0  0  0  0  0
    2.7307    1.4625    0.1374 C   0  0  0  0  0  0  0  0  0  0  0  0
    2.8887    0.0193    0.0039 C   0  0  0  0  0  0  0  0  0  0  0  0
    4.0748   -0.7776   -0.1738 C   0  0  0  0  0  0  0  0  0  0  0  0
    5.3564   -0.2700   -0.5341 C   0  0  0  0  0  0  0  0  0  0  0  0
    5.4758    0.7931   -0.7730 H   0  0  0  0  0  0  0  0  0  0  0  0
    6.4498   -1.1197   -0.6445 C   0  0  0  0  0  0  0  0  0  0  0  0
    7.4284   -0.7104   -0.9365 H   0  0  0  0  0  0  0  0  0  0  0  0
    6.3122   -2.5104   -0.4022 C   0  0  0  0  0  0  0  0  0  0  0  0
    7.1907   -3.1685   -0.4817 H   0  0  0  0  0  0  0  0  0  0  0  0
    5.0674   -3.0447   -0.1034 C   0  0  0  0  0  0  0  0  0  0  0  0
    4.9099   -4.1224    0.0451 H   0  0  0  0  0  0  0  0  0  0  0  0
    3.9233   -2.2045   -0.0136 C   0  0  0  0  0  0  0  0  0  0  0  0
    1.6530   -2.0099    0.1871 C   0  0  0  0  0  0  0  0  0  0  0  0
    0.6345   -2.4290    0.2662 H   0  0  0  0  0  0  0  0  0  0  0  0
  1 24  1  0  0  0  0
  3  4  1  0  0  0  0
  4  5  1  0  0  0  0
  4  6  2  0  0  0  0
  6  7  1  0  0  0  0
  8  6  1  0  0  0  0
  8  9  1  0  0  0  0
 10 11  1  0  0  0  0
 10  8  2  0  0  0  0
 12  3  1  0  0  0  0
 12 10  1  0  0  0  0
 13  1  1  0  0  0  0
 13 12  2  0  0  0  0
 14 23  1  0  0  0  0
 14 13  1  0  0  0  0
 15 14  2  0  0  0  0
 16 15  1  0  0  0  0
 17 15  1  0  0  0  0
 17 19  2  0  0  0  0
 18 17  1  0  0  0  0
 19 21  1  0  0  0  0
 20 19  1  0  0  0  0
 21 23  2  0  0  0  0
 21 22  1  0  0  0  0
 23  2  1  0  0  0  0
 24  2  2  0  0  0  0
 24 25  1  0  0  0  0
M  END
