10,29
q = -1.0

 30 32  0  0  0  0  0  0  0  0999 V2000
   -4.0845   -2.8580   -0.0951 C   0  0  0  0  0  0  0  0  0  0  0  0
   -3.5566   -1.5675   -0.0495 C   0  0  0  0  0  0  0  0  0  0  0  0
   -4.1884   -0.6672   -0.0052 H   0  0  0  0  0  0  0  0  0  0  0  0
   -1.3431   -2.4358   -0.1114 C   0  0  0  0  0  0  0  0  0  0  0  0
   -1.8568   -3.7463   -0.1573 C   0  0  0  0  0  0  0  0  0  0  0  0
   -1.1584   -4.5930   -0.1988 H   0  0  0  0  0  0  0  0  0  0  0  0
   -3.2351   -3.9725   -0.1499 C   0  0  0  0  0  0  0  0  0  0  0  0
   -3.6604   -4.9855   -0.1850 H   0  0  0  0  0  0  0  0  0  0  0  0
    0.0578   -2.0357   -0.1127 C   0  0  0  0  0  0  0  0  0  0  0  0
    0.2681   -0.6230   -0.0600 C   0  0  0  0  0  2  0  0  0  0  0  0
    1.5853   -0.1394   -0.0535 C   0  0  0  0  0  0  0  0  0  0  0  0
    1.7454    0.9472    0.0139 H   0  0  0  0  0  0  0  0  0  0  0  0
    2.6945   -1.0150   -0.1037 C   0  0  0  0  0  0  0  0  0  0  0  0
    2.4614   -2.4142   -0.1516 C   0  0  0  0  0  0  0  0  0  0  0  0
    3.3106   -3.1078   -0.1975 H   0  0  0  0  0  0  0  0  0  0  0  0
    1.1590   -2.9158   -0.1574 C   0  0  0  0  0  0  0  0  0  0  0  0
    1.0039   -4.0052   -0.2035 H   0  0  0  0  0  0  0  0  0  0  0  0
    4.0676   -0.4560   -0.1361 C   0  0  0  0  0  0  0  0  0  0  0  0
    4.3484    0.7460   -0.8284 C   0  0  0  0  0  0  0  0  0  0  0  0
    3.5276    1.2347   -1.3731 H   0  0  0  0  0  0  0  0  0  0  0  0
    5.6268    1.3140   -0.8672 C   0  0  0  0  0  0  0  0  0  0  0  0
    5.8311    2.2411   -1.4201 H   0  0  0  0  0  0  0  0  0  0  0  0
    6.6681    0.6677   -0.1900 C   0  0  0  0  0  0  0  0  0  0  0  0
    6.4521   -0.5214    0.5140 C   0  0  0  0  0  0  0  0  0  0  0  0
    7.2684   -1.0207    1.0523 H   0  0  0  0  0  0  0  0  0  0  0  0
    5.1615   -1.0597    0.5271 C   0  0  0  0  0  0  0  0  0  0  0  0
   -5.4152   -3.0194   -0.0854 F   0  0  0  0  0  0  0  0  0  0  0  0
    7.9050    1.1935   -0.2158 F   0  0  0  0  0  0  0  0  0  0  0  0
   -2.2200   -1.3709   -0.0580 N   0  0  0  0  0  2  0  0  0  0  0  0
    4.9751   -2.1953    1.2290 F   0  0  0  0  0  0  0  0  0  0  0  0
  1 27  1  0  0  0  0
  1  2  2  0  0  0  0
  2  3  1  0  0  0  0
  4 29  1  0  0  0  0
  5  7  2  0  0  0  0
  5  4  1  0  0  0  0
  6  5  1  0  0  0  0
  7  1  1  0  0  0  0
  8  7  1  0  0  0  0
  9  4  2  0  0  0  0
  9 10  1  0  0  0  0
 10 11  1  0  0  0  0
 11 12  1  0  0  0  0
 13 11  2  0  0  0  0
 14 13  1  0  0  0  0
 15 14  1  0  0  0  0
 16 14  2  0  0  0  0
 16  9  1  0  0  0  0
 17 16  1  0  0  0  0
 18 13  1  0  0  0  0
 18 26  1  0  0  0  0
 19 18  2  0  0  0  0
 20 19  1  0  0  0  0
 21 19  1  0  0  0  0
 21 23  2  0  0  0  0
 22 21  1  0  0  0  0
 23 24  1  0  0  0  0
 24 26  2  0  0  0  0
 24 25  1  0  0  0  0
 26 30  1  0  0  0  0
 28 23  1  0  0  0  0
 29  2  1  0  0  0  0
M  END
