1,2
q = -1.0, confidence = 0.0

 26 27  0  0  1  0  0  0  0  0999 V2000
   -1.3884   -1.4807    0.6808 N   0  0  0  0  0  0  0  0  0  0  0  0
   -1.3459    1.1172   -0.0293 C   0  0  0  0  0  3  0  0  0  0  0  0
   -1.2995    2.5240   -0.0853 C   0  0  0  0  0  0  0  0  0  0  0  0
   -0.3327    3.0543   -0.0430 H   0  0  0  0  0  0  0  0  0  0  0  0
   -2.4790    3.2858   -0.1855 C   0  0  0  0  0  0  0  0  0  0  0  0
   -2.4183    4.3849   -0.2279 H   0  0  0  0  0  0  0  0  0  0  0  0
   -3.7307    2.6524   -0.2212 C   0  0  0  0  0  0  0  0  0  0  0  0
   -4.6525    3.2495   -0.2909 H   0  0  0  0  0  0  0  0  0  0  0  0
   -3.8022    1.2499   -0.1609 C   0  0  0  0  0  0  0  0  0  0  0  0
   -4.7827    0.7464   -0.1845 H   0  0  0  0  0  0  0  0  0  0  0  0
   -2.6249    0.4912   -0.0732 C   0  0  0  0  0  0  0  0  0  0  0  0
   -2.6058   -1.0144   -0.0793 C   0  0  1  0  0  0  0  0  0  0  0  0
   -3.5081   -1.4395    0.4196 H   0  0  0  0  0  0  0  0  0  0  0  0
   -2.4323   -1.6600   -1.4837 C   0  0  0  0  0  0  0  0  0  0  0  0
   -3.3986   -2.0767   -1.8282 H   0  0  0  0  0  0  0  0  0  0  0  0
   -2.1248   -0.8887   -2.2146 H   0  0  0  0  0  0  0  0  0  0  0  0
   -1.3390   -2.7472   -1.3233 C   0  0  0  0  0  0  0  0  0  0  0  0
   -1.6261   -3.7212   -1.7643 H   0  0  0  0  0  0  0  0  0  0  0  0
   -0.3944   -2.4244   -1.8032 H   0  0  0  0  0  0  0  0  0  0  0  0
   -1.1207   -2.8554    0.1853 C   0  0  0  0  0  0  0  0  0  0  0  0
   -1.8583   -3.5473    0.6560 H   0  0  0  0  0  0  0  0  0  0  0  0
   -0.0950   -3.1555    0.4723 H   0  0  0  0  0  0  0  0  0  0  0  0
   -1.5700   -1.4270    2.1430 C   0  0  0  0  0  0  0  0  0  0  0  0
   -2.3865   -2.1180    2.4559 H   0  0  0  0  0  0  0  0  0  0  0  0
   -1.8277   -0.3949    2.4430 H   0  0  0  0  0  0  0  0  0  0  0  0
   -0.6283   -1.7259    2.6396 H   0  0  0  0  0  0  0  0  0  0  0  0
  1 23  1  0  0  0  0
  3  4  1  0  0  0  0
  3  2  2  0  0  0  0
  5  3  1  0  0  0  0
  6  5  1  0  0  0  0
  7  5  2  0  0  0  0
  7  9  1  0  0  0  0
  8  7  1  0  0  0  0
  9 11  2  0  0  0  0
 10  9  1  0  0  0  0
 11  2  1  0  0  0  0
 12 11  1  0  0  0  0
 12 13  1  1  0  0  0
 12  1  1  0  0  0  0
 14 17  1  0  0  0  0
 14 12  1  0  0  0  0
 15 14  1  0  0  0  0
 16 14  1  0  0  0  0
 17 20  1  0  0  0  0
 18 17  1  0  0  0  0
 19 17  1  0  0  0  0
 20 22  1  0  0  0  0
 20 21  1  0  0  0  0
 20  1  1  0  0  0  0
 23 25  1  0  0  0  0
 23 24  1  0  0  0  0
 23 26  1  0  0  0  0
M  END
