1,25
q = -1.0

 26 28  0  0  1  0  0  0  0  0999 V2000
   -0.9215   -1.2000   -0.5810 C   0  0  0  0  0  3  0  0  0  0  0  0
   -0.9535   -2.5291   -1.0532 C   0  0  0  0  0  0  0  0  0  0  0  0
   -0.0282   -2.9684   -1.4573 H   0  0  0  0  0  0  0  0  0  0  0  0
   -2.1290   -3.3028   -1.0131 C   0  0  0  0  0  0  0  0  0  0  0  0
   -2.1101   -4.3379   -1.3882 H   0  0  0  0  0  0  0  0  0  0  0  0
   -3.3217   -2.7740   -0.4836 C   0  0  0  0  0  0  0  0  0  0  0  0
   -4.2325   -3.3886   -0.4175 H   0  0  0  0  0  0  0  0  0  0  0  0
   -3.3250   -1.4435   -0.0532 C   0  0  0  0  0  0  0  0  0  0  0  0
   -2.1489   -0.6732   -0.1525 C   0  0  0  0  0  0  0  0  0  0  0  0
   -4.4162   -0.6223    0.5930 C   0  0  0  0  0  0  0  0  0  0  0  0
   -4.6176   -0.9803    1.6257 H   0  0  0  0  0  0  0  0  0  0  0  0
   -5.3796   -0.6690    0.0464 H   0  0  0  0  0  0  0  0  0  0  0  0
   -3.8364    0.8118    0.6026 C   0  0  0  0  0  0  0  0  0  0  0  0
   -4.3298    1.4514   -0.1628 H   0  0  0  0  0  0  0  0  0  0  0  0
   -3.9557    1.3171    1.5832 H   0  0  0  0  0  0  0  0  0  0  0  0
   -1.6495    1.7518   -0.0739 C   0  0  2  0  0  3  0  0  0  0  0  0
   -2.1550    3.0762    0.0732 C   0  0  0  0  0  0  0  0  0  0  0  0
   -3.1318    3.2426    0.5425 H   0  0  0  0  0  0  0  0  0  0  0  0
   -1.4094    4.1548   -0.3968 C   0  0  0  0  0  0  0  0  0  0  0  0
   -1.8039    5.1765   -0.2890 H   0  0  0  0  0  0  0  0  0  0  0  0
   -0.1722    3.9250   -1.0256 C   0  0  0  0  0  0  0  0  0  0  0  0
    0.4285    4.7411   -1.4485 H   0  0  0  0  0  0  0  0  0  0  0  0
    0.2902    2.6110   -1.0893 C   0  0  0  0  0  0  0  0  0  0  0  0
    1.2472    2.3425   -1.5626 H   0  0  0  0  0  0  0  0  0  0  0  0
   -0.3937    1.5596   -0.5809 N   0  0  0  0  0  2  0  0  0  0  0  0
   -2.4078    0.6628    0.2645 N   0  0  0  0  0  0  0  0  0  0  0  0
  1  9  1  0  0  0  0
  2  4  1  0  0  0  0
  2  1  2  0  0  0  0
  3  2  1  0  0  0  0
  4  6  2  0  0  0  0
  5  4  1  0  0  0  0
  6  7  1  0  0  0  0
  6  8  1  0  0  0  0
  8 10  1  0  0  0  0
  9  8  2  0  0  0  0
  9 26  1  0  0  0  0
 10 13  1  0  0  0  0
 10 11  1  0  0  0  0
 12 10  1  0  0  0  0
 13 15  1  0  0  0  0
 14 13  1  0  0  0  0
 16 17  1  0  0  0  0
 16 26  1  6  0  0  0
 17 18  1  0  0  0  0
 19 20  1  0  0  0  0
 19 17  2  0  0  0  0
 21 19  1  0  0  0  0
 22 21  1  0  0  0  0
 23 21  2  0  0  0  0
 23 25  1  0  0  0  0
 24 23  1  0  0  0  0
 25 16  1  0  0  0  0
 26 13  1  0  0  0  0
M  END
