1,24
q = -1.0

 49 51  0  0  1  0  0  0  0  0999 V2000
    2.5414   -0.1907   -0.0993 N   0  0  0  0  0  0  0  0  0  0  0  0
    2.6775   -0.9796    0.5603 H   0  0  0  0  0  0  0  0  0  0  0  0
    0.1948    4.3870   -1.3147 O   0  0  0  0  0  0  0  0  0  0  0  0
    0.7960    4.6931    0.8468 O   0  0  0  0  0  0  0  0  0  0  0  0
    2.1283    1.4055    1.7277 C   0  0  0  0  0  0  0  0  0  0  0  0
    0.9053    2.1042    1.5441 C   0  0  0  0  0  0  0  0  0  0  0  0
    0.1337    2.4220    2.6801 C   0  0  0  0  0  0  0  0  0  0  0  0
   -0.7872    3.0089    2.5487 H   0  0  0  0  0  0  0  0  0  0  0  0
    0.5208    2.0059    3.9610 C   0  0  0  0  0  0  0  0  0  0  0  0
   -0.1120    2.2465    4.8288 H   0  0  0  0  0  0  0  0  0  0  0  0
    1.7113    1.2830    4.1337 C   0  0  0  0  0  0  0  0  0  0  0  0
    2.0219    0.9518    5.1362 H   0  0  0  0  0  0  0  0  0  0  0  0
    2.5138    1.0005    3.0190 C   0  0  0  0  0  0  0  0  0  0  0  0
    3.4627    0.4549    3.1478 H   0  0  0  0  0  0  0  0  0  0  0  0
    2.9943    1.0674    0.5396 C   0  0  0  0  0  0  0  0  0  0  0  0
    2.9251    1.8661   -0.2256 H   0  0  0  0  0  0  0  0  0  0  0  0
    4.0595    0.9771    0.8437 H   0  0  0  0  0  0  0  0  0  0  0  0
    0.4380    2.4664    0.1647 C   0  0  1  0  0  3  0  0  0  0  0  0
    0.4401    3.9078   -0.2189 C   0  0  0  0  0  0  0  0  0  0  0  0
    0.8440    6.0930    0.5736 C   0  0  0  0  0  0  0  0  0  0  0  0
    1.5866    6.3197   -0.2189 H   0  0  0  0  0  0  0  0  0  0  0  0
    1.1319    6.5817    1.5219 H   0  0  0  0  0  0  0  0  0  0  0  0
   -0.1417    6.4673    0.2283 H   0  0  0  0  0  0  0  0  0  0  0  0
    0.1069    1.4582   -0.7064 C   0  0  0  0  0  2  0  0  0  0  0  0
    3.2579   -0.5372   -1.3527 C   0  0  0  0  0  0  0  0  0  0  0  0
    3.1244    0.3023   -2.0639 H   0  0  0  0  0  0  0  0  0  0  0  0
    2.7444   -1.4295   -1.7635 H   0  0  0  0  0  0  0  0  0  0  0  0
   -0.4383    1.5689   -2.0734 C   0  0  0  0  0  0  0  0  0  0  0  0
   -1.5699    2.3641   -2.3714 C   0  0  0  0  0  0  0  0  0  0  0  0
   -2.0138    2.9832   -1.5819 H   0  0  0  0  0  0  0  0  0  0  0  0
   -2.1381    2.3523   -3.6507 C   0  0  0  0  0  0  0  0  0  0  0  0
   -3.0293    2.9672   -3.8490 H   0  0  0  0  0  0  0  0  0  0  0  0
   -1.5832    1.5653   -4.6727 C   0  0  0  0  0  0  0  0  0  0  0  0
   -2.0314    1.5627   -5.6780 H   0  0  0  0  0  0  0  0  0  0  0  0
   -0.4527    0.7774   -4.3989 C   0  0  0  0  0  0  0  0  0  0  0  0
   -0.0054    0.1549   -5.1889 H   0  0  0  0  0  0  0  0  0  0  0  0
    0.1016    0.7690   -3.1123 C   0  0  0  0  0  0  0  0  0  0  0  0
    0.9635    0.1218   -2.8930 H   0  0  0  0  0  0  0  0  0  0  0  0
    4.7242   -0.8331   -1.1261 C   0  0  0  0  0  0  0  0  0  0  0  0
    5.7278    0.0824   -1.4951 C   0  0  0  0  0  0  0  0  0  0  0  0
    5.4456    1.0220   -1.9968 H   0  0  0  0  0  0  0  0  0  0  0  0
    7.0789   -0.1948   -1.2325 C   0  0  0  0  0  0  0  0  0  0  0  0
    7.8544    0.5282   -1.5283 H   0  0  0  0  0  0  0  0  0  0  0  0
    7.4387   -1.3914   -0.5936 C   0  0  0  0  0  0  0  0  0  0  0  0
    8.4976   -1.6097   -0.3872 H   0  0  0  0  0  0  0  0  0  0  0  0
    6.4439   -2.3115   -0.2218 C   0  0  0  0  0  0  0  0  0  0  0  0
    6.7220   -3.2545    0.2731 H   0  0  0  0  0  0  0  0  0  0  0  0
    5.0955   -2.0353   -0.4874 C   0  0  0  0  0  0  0  0  0  0  0  0
    4.3118   -2.7569   -0.2008 H   0  0  0  0  0  0  0  0  0  0  0  0
  1 15  1  0  0  0  0
  1  2  1  0  0  0  0
  3 19  2  0  0  0  0
  5 13  1  0  0  0  0
  6  5  2  0  0  0  0
  6  7  1  0  0  0  0
  7  9  2  0  0  0  0
  8  7  1  0  0  0  0
  9 11  1  0  0  0  0
  9 10  1  0  0  0  0
 11 12  1  0  0  0  0
 13 14  1  0  0  0  0
 13 11  2  0  0  0  0
 15 17  1  0  0  0  0
 15  5  1  0  0  0  0
 16 15  1  0  0  0  0
 18 24  1  6  0  0  0
 18  6  1  0  0  0  0
 19 18  1  0  0  0  0
 19  4  1  0  0  0  0
 20  4  1  0  0  0  0
 20 22  1  0  0  0  0
 21 20  1  0  0  0  0
 23 20  1  0  0  0  0
 25 39  1  0  0  0  0
 25  1  1  0  0  0  0
 26 25  1  0  0  0  0
 27 25  1  0  0  0  0
 28 24  1  0  0  0  0
 29 28  1  0  0  0  0
 29 30  1  0  0  0  0
 31 29  2  0  0  0  0
 32 31  1  0  0  0  0
 33 35  2  0  0  0  0
 33 31  1  0  0  0  0
 34 33  1  0  0  0  0
 35 37  1  0  0  0  0
 36 35  1  0  0  0  0
 37 38  1  0  0  0  0
 37 28  2  0  0  0  0
 39 48  1  0  0  0  0
 40 42  1  0  0  0  0
 40 39  2  0  0  0  0
 41 40  1  0  0  0  0
 42 44  2  0  0  0  0
 43 42  1  0  0  0  0
 44 45  1  0  0  0  0
 44 46  1  0  0  0  0
 46 47  1  0  0  0  0
 48 46  2  0  0  0  0
 48 49  1  0  0  0  0
M  END
