1,7
q = -2.0, confidence = 0.758

 38 39  0  0  1  0  0  0  0  0999 V2000
   -0.5870   -0.0624   -0.2658 N   0  0  0  0  0  2  0  0  0  0  0  0
    2.9238    3.2545    1.8018 C   0  0  0  0  0  0  0  0  0  0  0  0
    2.8350    3.8864    0.9016 H   0  0  0  0  0  0  0  0  0  0  0  0
    3.7181    3.5155    2.5174 H   0  0  0  0  0  0  0  0  0  0  0  0
    2.0887    2.2093    2.0198 C   0  0  0  0  0  0  0  0  0  0  0  0
    2.2276    1.6454    2.9632 H   0  0  0  0  0  0  0  0  0  0  0  0
    1.0276    1.7099    1.1272 C   0  0  0  0  0  3  0  0  0  0  0  0
    0.7792    2.4753    0.3639 H   0  0  0  0  0  0  0  0  0  0  0  0
   -0.2666    1.2383    1.8167 C   0  0  0  0  0  0  0  0  0  0  0  0
   -0.7626    2.0816    2.3494 H   0  0  0  0  0  0  0  0  0  0  0  0
   -0.0375    0.4946    2.6060 H   0  0  0  0  0  0  0  0  0  0  0  0
   -1.2928    0.6147    0.8272 C   0  0  1  0  0  0  0  0  0  0  0  0
   -1.9132   -0.1151    1.4037 H   0  0  0  0  0  0  0  0  0  0  0  0
   -2.2631    1.6843    0.3219 C   0  0  0  0  0  0  0  0  0  0  0  0
   -3.5337    1.8202    0.9134 C   0  0  0  0  0  0  0  0  0  0  0  0
   -3.8314    1.1180    1.7092 H   0  0  0  0  0  0  0  0  0  0  0  0
   -4.4172    2.8319    0.5050 C   0  0  0  0  0  0  0  0  0  0  0  0
   -5.4067    2.9200    0.9797 H   0  0  0  0  0  0  0  0  0  0  0  0
   -4.0422    3.7248   -0.5108 C   0  0  0  0  0  0  0  0  0  0  0  0
   -4.7338    4.5167   -0.8362 H   0  0  0  0  0  0  0  0  0  0  0  0
   -2.7800    3.5958   -1.1133 C   0  0  0  0  0  0  0  0  0  0  0  0
   -2.4785    4.2896   -1.9133 H   0  0  0  0  0  0  0  0  0  0  0  0
   -1.9015    2.5837   -0.7004 C   0  0  0  0  0  0  0  0  0  0  0  0
   -0.9179    2.4703   -1.1784 H   0  0  0  0  0  0  0  0  0  0  0  0
   -1.4628   -0.6952   -1.2466 C   0  0  0  0  0  0  0  0  0  0  0  0
   -0.8564   -0.9848   -2.1298 H   0  0  0  0  0  0  0  0  0  0  0  0
   -2.2383    0.0213   -1.6059 H   0  0  0  0  0  0  0  0  0  0  0  0
   -2.1473   -1.9361   -0.6969 C   0  0  0  0  0  0  0  0  0  0  0  0
   -1.4690   -3.1705   -0.6665 C   0  0  0  0  0  0  0  0  0  0  0  0
   -0.4623   -3.2391   -1.1106 H   0  0  0  0  0  0  0  0  0  0  0  0
   -2.0574   -4.3044   -0.0886 C   0  0  0  0  0  0  0  0  0  0  0  0
   -1.5154   -5.2627   -0.0813 H   0  0  0  0  0  0  0  0  0  0  0  0
   -3.3419   -4.2176    0.4753 C   0  0  0  0  0  0  0  0  0  0  0  0
   -3.8061   -5.1049    0.9319 H   0  0  0  0  0  0  0  0  0  0  0  0
   -4.0318   -2.9961    0.4451 C   0  0  0  0  0  0  0  0  0  0  0  0
   -5.0416   -2.9231    0.8776 H   0  0  0  0  0  0  0  0  0  0  0  0
   -3.4388   -1.8646   -0.1393 C   0  0  0  0  0  0  0  0  0  0  0  0
   -3.9839   -0.9076   -0.1704 H   0  0  0  0  0  0  0  0  0  0  0  0
  1 12  1  0  0  0  0
  2  5  2  0  0  0  0
  2  4  1  0  0  0  0
  3  2  1  0  0  0  0
  5  6  1  0  0  0  0
  7  9  1  0  0  0  0
  7  5  1  0  0  0  0
  8  7  1  0  0  0  0
  9 10  1  0  0  0  0
  9 11  1  0  0  0  0
 12 13  1  1  0  0  0
 12  9  1  0  0  0  0
 14 12  1  0  0  0  0
 14 15  1  0  0  0  0
 15 16  1  0  0  0  0
 17 15  2  0  0  0  0
 17 18  1  0  0  0  0
 19 17  1  0  0  0  0
 20 19  1  0  0  0  0
 21 23  1  0  0  0  0
 21 19  2  0  0  0  0
 22 21  1  0  0  0  0
 23 14  2  0  0  0  0
 24 23  1  0  0  0  0
 25 28  1  0  0  0  0
 25  1  1  0  0  0  0
 26 25  1  0  0  0  0
 27 25  1  0  0  0  0
 28 29  2  0  0  0  0
 28 37  1  0  0  0  0
 29 31  1  0  0  0  0
 30 29  1  0  0  0  0
 31 32  1  0  0  0  0
 31 33  2  0  0  0  0
 33 34  1  0  0  0  0
 35 33  1  0  0  0  0
 35 36  1  0  0  0  0
 37 35  2  0  0  0  0
 38 37  1  0  0  0  0
M  END
