1,2
q = 0.0, confidence = 0.604

 28 28  0  0  1  0  0  0  0  0999 V2000
    0.7264   -0.2437   -0.4379 N   0  0  0  0  0  2  0  0  0  0  0  0
   -2.3344   -0.2183    2.3299 C   0  0  0  0  0  3  0  0  0  0  0  0
   -2.7971   -1.2162    2.3411 H   0  0  0  0  0  0  0  0  0  0  0  0
   -2.9610    0.5665    2.7757 H   0  0  0  0  0  0  0  0  0  0  0  0
   -0.9231   -0.1394    2.5067 C   0  0  0  0  0  3  0  0  0  0  0  0
   -0.4954    0.8327    2.8163 H   0  0  0  0  0  0  0  0  0  0  0  0
   -0.0218   -1.0731    2.0125 C   0  0  0  0  0  3  0  0  0  0  0  0
   -0.3713   -2.0992    1.8054 H   0  0  0  0  0  0  0  0  0  0  0  0
    1.4348   -0.8113    1.8254 C   0  0  0  0  0  0  0  0  0  0  0  0
    2.0765   -1.5147    2.3979 H   0  0  0  0  0  0  0  0  0  0  0  0
    1.6825    0.2159    2.1660 H   0  0  0  0  0  0  0  0  0  0  0  0
    1.7618   -0.9296    0.3219 C   0  0  2  0  0  0  0  0  0  0  0  0
    1.7788   -2.0286    0.0656 H   0  0  0  0  0  0  0  0  0  0  0  0
    3.1757   -0.4073    0.0668 C   0  0  0  0  0  0  0  0  0  0  0  0
    4.2527   -1.2834   -0.1524 C   0  0  0  0  0  0  0  0  0  0  0  0
    4.0618   -2.3687   -0.1846 H   0  0  0  0  0  0  0  0  0  0  0  0
    5.5561   -0.7923   -0.3348 C   0  0  0  0  0  0  0  0  0  0  0  0
    6.3878   -1.4934   -0.5053 H   0  0  0  0  0  0  0  0  0  0  0  0
    5.7963    0.5897   -0.3069 C   0  0  0  0  0  0  0  0  0  0  0  0
    6.8156    0.9780   -0.4552 H   0  0  0  0  0  0  0  0  0  0  0  0
    4.7259    1.4760   -0.0944 C   0  0  0  0  0  0  0  0  0  0  0  0
    4.9064    2.5621   -0.0766 H   0  0  0  0  0  0  0  0  0  0  0  0
    3.4291    0.9794    0.0928 C   0  0  0  0  0  0  0  0  0  0  0  0
    2.5810    1.6657    0.2498 H   0  0  0  0  0  0  0  0  0  0  0  0
    1.0551   -0.2176   -1.8506 C   0  0  0  0  0  0  0  0  0  0  0  0
    2.0210    0.3004   -2.0598 H   0  0  0  0  0  0  0  0  0  0  0  0
    0.2789    0.3116   -2.4369 H   0  0  0  0  0  0  0  0  0  0  0  0
    1.1523   -1.2444   -2.2959 H   0  0  0  0  0  0  0  0  0  0  0  0
  1 12  1  0  0  0  0
  2  3  1  0  0  0  0
  2  5  1  0  0  0  0
  2  4  1  0  0  0  0
  5  6  1  0  0  0  0
  7  5  1  0  0  0  0
  8  7  1  0  0  0  0
  9  7  1  0  0  0  0
  9 11  1  0  0  0  0
  9 10  1  0  0  0  0
 12 13  1  6  0  0  0
 12  9  1  0  0  0  0
 14 23  1  0  0  0  0
 14 12  1  0  0  0  0
 15 14  2  0  0  0  0
 16 15  1  0  0  0  0
 17 19  2  0  0  0  0
 17 15  1  0  0  0  0
 18 17  1  0  0  0  0
 19 21  1  0  0  0  0
 20 19  1  0  0  0  0
 21 22  1  0  0  0  0
 21 23  2  0  0  0  0
 23 24  1  0  0  0  0
 25  1  1  0  0  0  0
 26 25  1  0  0  0  0
 27 25  1  0  0  0  0
 28 25  1  0  0  0  0
M  END
