4,5
q = -1.0

 42 44  0  0  0  0  0  0  0  0999 V2000
    3.3538   -2.3620   -0.0000 O   0  0  0  0  0  0  0  0  0  0  0  0
    4.1416   -2.9357   -0.0000 H   0  0  0  0  0  0  0  0  0  0  0  0
    3.7032   -1.0364    0.0000 B   0  0  0  0  0  0  0  0  0  0  0  0
    0.1447    0.4577    0.0001 N   0  0  0  0  0  2  0  0  0  0  0  0
   -2.0792    1.9659   -0.0000 C   0  0  0  0  0  2  0  0  0  0  0  0
   -3.2525    2.7476   -0.0001 C   0  0  0  0  0  0  0  0  0  0  0  0
   -4.2343    2.2537   -0.0002 H   0  0  0  0  0  0  0  0  0  0  0  0
   -3.1906    4.1505   -0.0000 C   0  0  0  0  0  0  0  0  0  0  0  0
   -4.1240    4.7356   -0.0001 H   0  0  0  0  0  0  0  0  0  0  0  0
   -1.9504    4.8125    0.0001 C   0  0  0  0  0  0  0  0  0  0  0  0
   -1.9046    5.9118    0.0002 H   0  0  0  0  0  0  0  0  0  0  0  0
   -0.7711    4.0616    0.0002 C   0  0  0  0  0  0  0  0  0  0  0  0
    0.1987    4.5821    0.0003 H   0  0  0  0  0  0  0  0  0  0  0  0
   -0.8236    2.6496    0.0001 C   0  0  0  0  0  0  0  0  0  0  0  0
    0.3792    1.8117    0.0001 C   0  0  0  0  0  0  0  0  0  0  0  0
    1.7034    2.2937    0.0001 C   0  0  0  0  0  0  0  0  0  0  0  0
    1.8851    3.3768    0.0001 H   0  0  0  0  0  0  0  0  0  0  0  0
    2.7700    1.3945    0.0001 C   0  0  0  0  0  0  0  0  0  0  0  0
    3.8081    1.7648    0.0001 H   0  0  0  0  0  0  0  0  0  0  0  0
    2.5288    0.0025    0.0001 C   0  0  0  0  0  0  0  0  0  0  0  0
    1.1781   -0.4069    0.0001 C   0  0  0  0  0  0  0  0  0  0  0  0
    0.9068   -1.4783    0.0001 H   0  0  0  0  0  0  0  0  0  0  0  0
    5.2165   -0.5799   -0.0000 C   0  0  0  0  0  0  0  0  0  0  0  0
    5.9001   -0.3621    1.2249 C   0  0  0  0  0  0  0  0  0  0  0  0
    7.2454    0.0485    1.2064 C   0  0  0  0  0  0  0  0  0  0  0  0
    7.7672    0.2160    2.1633 H   0  0  0  0  0  0  0  0  0  0  0  0
    7.9398    0.2543   -0.0002 C   0  0  0  0  0  0  0  0  0  0  0  0
    7.2453    0.0485   -1.2066 C   0  0  0  0  0  0  0  0  0  0  0  0
    7.7670    0.2160   -2.1636 H   0  0  0  0  0  0  0  0  0  0  0  0
    5.9000   -0.3621   -1.2250 C   0  0  0  0  0  0  0  0  0  0  0  0
    5.1746   -0.5481    2.5385 C   0  0  0  0  0  0  0  0  0  0  0  0
    5.8466   -0.3987    3.4053 H   0  0  0  0  0  0  0  0  0  0  0  0
    4.7319   -1.5625    2.6233 H   0  0  0  0  0  0  0  0  0  0  0  0
    4.3317    0.1689    2.6365 H   0  0  0  0  0  0  0  0  0  0  0  0
    9.3933    0.6577   -0.0002 C   0  0  0  0  0  0  0  0  0  0  0  0
    9.6531    1.2517   -0.8987 H   0  0  0  0  0  0  0  0  0  0  0  0
   10.0549   -0.2357    0.0016 H   0  0  0  0  0  0  0  0  0  0  0  0
    9.6523    1.2545    0.8967 H   0  0  0  0  0  0  0  0  0  0  0  0
    5.1744   -0.5482   -2.5385 C   0  0  0  0  0  0  0  0  0  0  0  0
    5.8463   -0.3985   -3.4055 H   0  0  0  0  0  0  0  0  0  0  0  0
    4.3313    0.1687   -2.6365 H   0  0  0  0  0  0  0  0  0  0  0  0
    4.7320   -1.5626   -2.6234 H   0  0  0  0  0  0  0  0  0  0  0  0
  1  3  1  0  0  0  0
  2  1  1  0  0  0  0
  3 20  1  0  0  0  0
  4 15  1  0  0  0  0
  5 14  1  0  0  0  0
  6  8  2  0  0  0  0
  6  5  1  0  0  0  0
  7  6  1  0  0  0  0
  8 10  1  0  0  0  0
  9  8  1  0  0  0  0
 10 12  2  0  0  0  0
 10 11  1  0  0  0  0
 12 13  1  0  0  0  0
 14 15  2  0  0  0  0
 14 12  1  0  0  0  0
 15 16  1  0  0  0  0
 16 17  1  0  0  0  0
 18 19  1  0  0  0  0
 18 16  2  0  0  0  0
 20 21  2  0  0  0  0
 20 18  1  0  0  0  0
 21 22  1  0  0  0  0
 21  4  1  0  0  0  0
 23  3  1  0  0  0  0
 23 24  1  0  0  0  0
 24 31  1  0  0  0  0
 25 24  2  0  0  0  0
 25 26  1  0  0  0  0
 27 25  1  0  0  0  0
 28 27  2  0  0  0  0
 29 28  1  0  0  0  0
 30 28  1  0  0  0  0
 30 23  2  0  0  0  0
 31 33  1  0  0  0  0
 31 34  1  0  0  0  0
 31 32  1  0  0  0  0
 35 27  1  0  0  0  0
 35 37  1  0  0  0  0
 35 38  1  0  0  0  0
 36 35  1  0  0  0  0
 39 30  1  0  0  0  0
 40 39  1  0  0  0  0
 41 39  1  0  0  0  0
 42 39  1  0  0  0  0
M  END
