2,76
q = -1.0, confidence = 0.032

 76 77  0  0  1  0  0  0  0  0999 V2000
    1.9191    0.0002    2.2666 O   0  0  0  0  0  0  0  0  0  0  0  0
   -0.9458    0.0000   -0.1832 N   0  0  0  0  0  2  0  0  0  0  0  0
    0.2028   -0.0001   -0.8214 C   0  0  2  0  0  3  0  0  0  0  0  0
    1.2911   -0.0001    0.0549 N   0  0  0  0  0  0  0  0  0  0  0  0
    0.4246   -0.0001   -2.3595 C   0  0  0  0  0  0  0  0  0  0  0  0
    1.2120    1.2626   -2.7806 C   0  0  0  0  0  0  0  0  0  0  0  0
    2.2471    1.2610   -2.4006 H   0  0  0  0  0  0  0  0  0  0  0  0
    0.7066    2.1868   -2.4385 H   0  0  0  0  0  0  0  0  0  0  0  0
    1.2617    1.2949   -3.8873 H   0  0  0  0  0  0  0  0  0  0  0  0
    1.2118   -1.2630   -2.7805 C   0  0  0  0  0  0  0  0  0  0  0  0
    2.2468   -1.2617   -2.4004 H   0  0  0  0  0  0  0  0  0  0  0  0
    1.2614   -1.2954   -3.8872 H   0  0  0  0  0  0  0  0  0  0  0  0
    0.7062   -2.1871   -2.4383 H   0  0  0  0  0  0  0  0  0  0  0  0
   -0.8748   -0.0000   -3.1929 C   0  0  0  0  0  0  0  0  0  0  0  0
   -0.5760   -0.0000   -4.2600 H   0  0  0  0  0  0  0  0  0  0  0  0
   -1.5021    0.8902   -3.0210 H   0  0  0  0  0  0  0  0  0  0  0  0
   -1.5022   -0.8901   -3.0210 H   0  0  0  0  0  0  0  0  0  0  0  0
   -2.2614    0.0002   -0.7317 C   0  0  0  0  0  0  0  0  0  0  0  0
   -2.9277   -1.2396   -0.9258 C   0  0  0  0  0  0  0  0  0  0  0  0
   -4.2515   -1.2105   -1.3991 C   0  0  0  0  0  0  0  0  0  0  0  0
   -4.7809   -2.1610   -1.5686 H   0  0  0  0  0  0  0  0  0  0  0  0
   -4.9088    0.0006   -1.6504 C   0  0  0  0  0  0  0  0  0  0  0  0
   -5.9437    0.0008   -2.0241 H   0  0  0  0  0  0  0  0  0  0  0  0
   -4.2512    1.2115   -1.3989 C   0  0  0  0  0  0  0  0  0  0  0  0
   -4.7803    2.1622   -1.5683 H   0  0  0  0  0  0  0  0  0  0  0  0
   -2.9274    1.2402   -0.9256 C   0  0  0  0  0  0  0  0  0  0  0  0
   -2.2537   -2.5703   -0.6053 C   0  0  0  0  0  0  0  0  0  0  0  0
   -1.2361   -2.3395   -0.2290 H   0  0  0  0  0  0  0  0  0  0  0  0
   -2.9963   -3.3144    0.5190 C   0  0  0  0  0  0  0  0  0  0  0  0
   -3.1126   -2.6827    1.4199 H   0  0  0  0  0  0  0  0  0  0  0  0
   -2.4411   -4.2280    0.8143 H   0  0  0  0  0  0  0  0  0  0  0  0
   -4.0108   -3.6255    0.1943 H   0  0  0  0  0  0  0  0  0  0  0  0
   -2.1094   -3.4725   -1.8430 C   0  0  0  0  0  0  0  0  0  0  0  0
   -3.1007   -3.7579   -2.2522 H   0  0  0  0  0  0  0  0  0  0  0  0
   -1.5754   -4.4092   -1.5820 H   0  0  0  0  0  0  0  0  0  0  0  0
   -1.5448   -2.9766   -2.6572 H   0  0  0  0  0  0  0  0  0  0  0  0
   -2.2530    2.5707   -0.6049 C   0  0  0  0  0  0  0  0  0  0  0  0
   -1.2355    2.3395   -0.2285 H   0  0  0  0  0  0  0  0  0  0  0  0
   -2.1084    3.4730   -1.8425 C   0  0  0  0  0  0  0  0  0  0  0  0
   -1.5439    2.9769   -2.6567 H   0  0  0  0  0  0  0  0  0  0  0  0
   -1.5739    4.4094   -1.5813 H   0  0  0  0  0  0  0  0  0  0  0  0
   -3.0995    3.7588   -2.2516 H   0  0  0  0  0  0  0  0  0  0  0  0
   -2.9954    3.3148    0.5194 C   0  0  0  0  0  0  0  0  0  0  0  0
   -4.0099    3.6260    0.1948 H   0  0  0  0  0  0  0  0  0  0  0  0
   -2.4401    4.2284    0.8148 H   0  0  0  0  0  0  0  0  0  0  0  0
   -3.1117    2.6831    1.4204 H   0  0  0  0  0  0  0  0  0  0  0  0
    2.7066    0.0000   -0.2496 C   0  0  0  0  0  0  0  0  0  0  0  0
    3.3926   -1.2414   -0.3094 C   0  0  0  0  0  0  0  0  0  0  0  0
    4.7760   -1.2127   -0.5661 C   0  0  0  0  0  0  0  0  0  0  0  0
    5.3306   -2.1601   -0.6348 H   0  0  0  0  0  0  0  0  0  0  0  0
    5.4593    0.0003   -0.7125 C   0  0  0  0  0  0  0  0  0  0  0  0
    6.5412    0.0003   -0.9149 H   0  0  0  0  0  0  0  0  0  0  0  0
    4.7758    1.2131   -0.5661 C   0  0  0  0  0  0  0  0  0  0  0  0
    5.3302    2.1606   -0.6349 H   0  0  0  0  0  0  0  0  0  0  0  0
    3.3923    1.2416   -0.3094 C   0  0  0  0  0  0  0  0  0  0  0  0
    2.6963   -2.5679   -0.0178 C   0  0  0  0  0  0  0  0  0  0  0  0
    1.6034   -2.4010   -0.1144 H   0  0  0  0  0  0  0  0  0  0  0  0
    2.9677   -2.9950    1.4399 C   0  0  0  0  0  0  0  0  0  0  0  0
    4.0435   -3.2289    1.5799 H   0  0  0  0  0  0  0  0  0  0  0  0
    2.3837   -3.9038    1.6918 H   0  0  0  0  0  0  0  0  0  0  0  0
    2.6983   -2.1946    2.1531 H   0  0  0  0  0  0  0  0  0  0  0  0
    3.0877   -3.6953   -0.9856 C   0  0  0  0  0  0  0  0  0  0  0  0
    2.9446   -3.4108   -2.0464 H   0  0  0  0  0  0  0  0  0  0  0  0
    2.4735   -4.5967   -0.7867 H   0  0  0  0  0  0  0  0  0  0  0  0
    4.1481   -3.9942   -0.8561 H   0  0  0  0  0  0  0  0  0  0  0  0
    2.6959    2.5680   -0.0180 C   0  0  0  0  0  0  0  0  0  0  0  0
    1.6030    2.4010   -0.1146 H   0  0  0  0  0  0  0  0  0  0  0  0
    2.9671    2.9953    1.4397 C   0  0  0  0  0  0  0  0  0  0  0  0
    2.6978    2.1949    2.1530 H   0  0  0  0  0  0  0  0  0  0  0  0
    2.3832    3.9041    1.6914 H   0  0  0  0  0  0  0  0  0  0  0  0
    4.0430    3.2293    1.5797 H   0  0  0  0  0  0  0  0  0  0  0  0
    3.0871    3.6954   -0.9859 C   0  0  0  0  0  0  0  0  0  0  0  0
    4.1475    3.9945   -0.8562 H   0  0  0  0  0  0  0  0  0  0  0  0
    2.4727    4.5967   -0.7871 H   0  0  0  0  0  0  0  0  0  0  0  0
    2.9442    3.4108   -2.0466 H   0  0  0  0  0  0  0  0  0  0  0  0
    1.0026   -0.0000    1.4674 C   0  0  0  0  0  3  0  0  0  0  0  0
  3  2  1  1  0  0  0
  3  4  1  0  0  0  0
  4 76  1  0  0  0  0
  5  3  1  0  0  0  0
  6  8  1  0  0  0  0
  6  7  1  0  0  0  0
  6  5  1  0  0  0  0
  9  6  1  0  0  0  0
 10 13  1  0  0  0  0
 10 11  1  0  0  0  0
 10  5  1  0  0  0  0
 12 10  1  0  0  0  0
 14 17  1  0  0  0  0
 14 16  1  0  0  0  0
 14  5  1  0  0  0  0
 15 14  1  0  0  0  0
 18  2  1  0  0  0  0
 19 18  2  0  0  0  0
 19 27  1  0  0  0  0
 20 19  1  0  0  0  0
 21 20  1  0  0  0  0
 22 20  2  0  0  0  0
 22 24  1  0  0  0  0
 23 22  1  0  0  0  0
 24 26  2  0  0  0  0
 25 24  1  0  0  0  0
 26 18  1  0  0  0  0
 26 37  1  0  0  0  0
 27 28  1  0  0  0  0
 27 29  1  0  0  0  0
 29 31  1  0  0  0  0
 29 30  1  0  0  0  0
 32 29  1  0  0  0  0
 33 35  1  0  0  0  0
 33 27  1  0  0  0  0
 34 33  1  0  0  0  0
 36 33  1  0  0  0  0
 37 38  1  0  0  0  0
 37 43  1  0  0  0  0
 39 41  1  0  0  0  0
 39 37  1  0  0  0  0
 40 39  1  0  0  0  0
 42 39  1  0  0  0  0
 43 45  1  0  0  0  0
 43 46  1  0  0  0  0
 44 43  1  0  0  0  0
 47  4  1  0  0  0  0
 48 47  1  0  0  0  0
 48 56  1  0  0  0  0
 49 48  2  0  0  0  0
 50 49  1  0  0  0  0
 51 53  2  0  0  0  0
 51 49  1  0  0  0  0
 52 51  1  0  0  0  0
 53 55  1  0  0  0  0
 54 53  1  0  0  0  0
 55 47  2  0  0  0  0
 55 66  1  0  0  0  0
 56 58  1  0  0  0  0
 57 56  1  0  0  0  0
 58 59  1  0  0  0  0
 58 60  1  0  0  0  0
 58 61  1  0  0  0  0
 62 65  1  0  0  0  0
 62 64  1  0  0  0  0
 62 56  1  0  0  0  0
 63 62  1  0  0  0  0
 66 68  1  0  0  0  0
 67 66  1  0  0  0  0
 68 71  1  0  0  0  0
 68 70  1  0  0  0  0
 68 69  1  0  0  0  0
 72 73  1  0  0  0  0
 72 74  1  0  0  0  0
 72 66  1  0  0  0  0
 75 72  1  0  0  0  0
 76  1  2  0  0  0  0
M  END
