1,36
q = -2.0, confidence = 0.848

 49 50  0  0  1  0  0  0  0  0999 V2000
   -0.1517   -1.0016   -0.4152 N   0  0  0  0  0  2  0  0  0  0  0  0
    5.8643    1.3555    0.6777 N   0  0  0  0  0  0  0  0  0  0  0  0
    0.3788   -2.2389   -0.7279 C   0  0  0  0  0  0  0  0  0  0  0  0
   -0.1015   -3.4050   -0.0603 C   0  0  0  0  0  0  0  0  0  0  0  0
   -0.8626   -3.2898    0.7237 H   0  0  0  0  0  0  0  0  0  0  0  0
    0.3765   -4.6825   -0.3697 C   0  0  0  0  0  0  0  0  0  0  0  0
   -0.0269   -5.5526    0.1720 H   0  0  0  0  0  0  0  0  0  0  0  0
    1.3706   -4.8589   -1.3467 C   0  0  0  0  0  0  0  0  0  0  0  0
    1.7538   -5.8619   -1.5850 H   0  0  0  0  0  0  0  0  0  0  0  0
    1.8746   -3.7224   -2.0004 C   0  0  0  0  0  0  0  0  0  0  0  0
    2.6630   -3.8333   -2.7617 H   0  0  0  0  0  0  0  0  0  0  0  0
    1.3996   -2.4390   -1.7052 C   0  0  0  0  0  0  0  0  0  0  0  0
    1.8355   -1.5794   -2.2287 H   0  0  0  0  0  0  0  0  0  0  0  0
    0.4592    0.1792   -1.0227 C   0  0  2  0  0  0  0  0  0  0  0  0
    0.4867    0.0481   -2.1388 H   0  0  0  0  0  0  0  0  0  0  0  0
    1.9032    0.4336   -0.5832 C   0  0  0  0  0  0  0  0  0  0  0  0
    2.3484    0.1208    0.7123 C   0  0  0  0  0  0  0  0  0  0  0  0
    1.6575   -0.3858    1.4006 H   0  0  0  0  0  0  0  0  0  0  0  0
    3.6486    0.4125    1.1347 C   0  0  0  0  0  0  0  0  0  0  0  0
    3.9468    0.1320    2.1531 H   0  0  0  0  0  0  0  0  0  0  0  0
    4.5753    1.0523    0.2647 C   0  0  0  0  0  0  0  0  0  0  0  0
    4.1262    1.3585   -1.0499 C   0  0  0  0  0  0  0  0  0  0  0  0
    4.8031    1.8323   -1.7724 H   0  0  0  0  0  0  0  0  0  0  0  0
    2.8212    1.0510   -1.4508 C   0  0  0  0  0  0  0  0  0  0  0  0
    2.5111    1.2949   -2.4809 H   0  0  0  0  0  0  0  0  0  0  0  0
    6.3110    0.9557    1.9938 C   0  0  0  0  0  0  0  0  0  0  0  0
    5.6865    1.4047    2.7990 H   0  0  0  0  0  0  0  0  0  0  0  0
    7.3505    1.2981    2.1483 H   0  0  0  0  0  0  0  0  0  0  0  0
    6.2904   -0.1505    2.1381 H   0  0  0  0  0  0  0  0  0  0  0  0
    6.8023    1.9342   -0.2583 C   0  0  0  0  0  0  0  0  0  0  0  0
    7.0078    1.2685   -1.1301 H   0  0  0  0  0  0  0  0  0  0  0  0
    7.7624    2.1258    0.2548 H   0  0  0  0  0  0  0  0  0  0  0  0
    6.4390    2.9054   -0.6641 H   0  0  0  0  0  0  0  0  0  0  0  0
   -0.3797    1.4090   -0.7550 C   0  0  0  0  0  0  0  0  0  0  0  0
    0.0619    2.3503   -1.1368 H   0  0  0  0  0  0  0  0  0  0  0  0
   -1.5610    1.3826   -0.1006 C   0  0  0  0  0  3  0  0  0  0  0  0
   -2.3823    2.6183    0.1746 C   0  0  0  0  0  0  0  0  0  0  0  0
   -2.2113    2.9325    1.2305 H   0  0  0  0  0  0  0  0  0  0  0  0
   -3.4662    2.3616    0.1393 H   0  0  0  0  0  0  0  0  0  0  0  0
   -2.1338    3.8284   -0.7357 C   0  0  0  0  0  0  0  0  0  0  0  0
   -1.0756    4.1567   -0.6425 H   0  0  0  0  0  0  0  0  0  0  0  0
   -2.2584    3.5193   -1.7980 H   0  0  0  0  0  0  0  0  0  0  0  0
   -3.0543    5.0139   -0.4316 C   0  0  0  0  0  0  0  0  0  0  0  0
   -2.9259    5.3116    0.6333 H   0  0  0  0  0  0  0  0  0  0  0  0
   -4.1143    4.6856   -0.5221 H   0  0  0  0  0  0  0  0  0  0  0  0
   -2.8109    6.2221   -1.3366 C   0  0  0  0  0  0  0  0  0  0  0  0
   -2.9669    5.9626   -2.4048 H   0  0  0  0  0  0  0  0  0  0  0  0
   -1.7697    6.5948   -1.2391 H   0  0  0  0  0  0  0  0  0  0  0  0
   -3.4912    7.0634   -1.0942 H   0  0  0  0  0  0  0  0  0  0  0  0
  2 26  1  0  0  0  0
  3  1  1  0  0  0  0
  3  4  1  0  0  0  0
  4  5  1  0  0  0  0
  6  4  2  0  0  0  0
  6  7  1  0  0  0  0
  8  6  1  0  0  0  0
  9  8  1  0  0  0  0
 10 12  1  0  0  0  0
 10  8  2  0  0  0  0
 11 10  1  0  0  0  0
 12  3  2  0  0  0  0
 13 12  1  0  0  0  0
 14 15  1  6  0  0  0
 14 34  1  0  0  0  0
 14 16  1  0  0  0  0
 14  1  1  0  0  0  0
 16 17  1  0  0  0  0
 17 19  2  0  0  0  0
 17 18  1  0  0  0  0
 19 20  1  0  0  0  0
 21  2  1  0  0  0  0
 21 19  1  0  0  0  0
 22 21  2  0  0  0  0
 23 22  1  0  0  0  0
 24 22  1  0  0  0  0
 24 16  2  0  0  0  0
 25 24  1  0  0  0  0
 26 29  1  0  0  0  0
 26 28  1  0  0  0  0
 26 27  1  0  0  0  0
 30 32  1  0  0  0  0
 30  2  1  0  0  0  0
 31 30  1  0  0  0  0
 33 30  1  0  0  0  0
 34 36  2  0  0  0  0
 35 34  1  0  0  0  0
 36 37  1  0  0  0  0
 37 38  1  0  0  0  0
 39 37  1  0  0  0  0
 40 41  1  0  0  0  0
 40 43  1  0  0  0  0
 40 37  1  0  0  0  0
 42 40  1  0  0  0  0
 43 44  1  0  0  0  0
 45 43  1  0  0  0  0
 46 48  1  0  0  0  0
 46 49  1  0  0  0  0
 46 43  1  0  0  0  0
 47 46  1  0  0  0  0
M  END
