1,12
q = -1.0

 32 33  0  0  0  0  0  0  0  0999 V2000
   -0.3699   -1.1724   -1.6823 N   0  0  0  0  0  2  0  0  0  0  0  0
   -1.1112   -2.2852   -1.8916 C   0  0  0  0  0  3  0  0  0  0  0  0
   -0.9655   -3.0764   -3.0322 C   0  0  0  0  0  0  0  0  0  0  0  0
   -0.0202   -2.6991   -4.0020 C   0  0  0  0  0  0  0  0  0  0  0  0
    0.7371   -1.5448   -3.7931 C   0  0  0  0  0  0  0  0  0  0  0  0
    0.5587   -0.7779   -2.6236 C   0  0  0  0  0  0  0  0  0  0  0  0
    1.2857    0.4351   -2.2713 C   0  0  0  0  0  0  0  0  0  0  0  0
    2.2746    1.0432   -3.0705 C   0  0  0  0  0  0  0  0  0  0  0  0
    2.9297    2.1984   -2.6313 C   0  0  0  0  0  0  0  0  0  0  0  0
    2.6155    2.7757   -1.3788 C   0  0  0  0  0  0  0  0  0  0  0  0
    1.6184    2.1598   -0.5938 C   0  0  0  0  0  0  0  0  0  0  0  0
    0.9360    1.0026   -1.0074 C   0  0  0  0  0  3  0  0  0  0  0  0
    3.3243    4.0311   -0.8395 C   0  0  0  0  0  0  0  0  0  0  0  0
    4.3690    4.5828   -1.8247 C   0  0  0  0  0  0  0  0  0  0  0  0
    4.0406    3.6729    0.4834 C   0  0  0  0  0  0  0  0  0  0  0  0
    2.2742    5.1341   -0.5735 C   0  0  0  0  0  0  0  0  0  0  0  0
   -1.8347   -2.5184   -1.0947 H   0  0  0  0  0  0  0  0  0  0  0  0
   -1.5882   -3.9740   -3.1511 H   0  0  0  0  0  0  0  0  0  0  0  0
    0.1226   -3.3006   -4.9122 H   0  0  0  0  0  0  0  0  0  0  0  0
    1.4824   -1.2216   -4.5325 H   0  0  0  0  0  0  0  0  0  0  0  0
    2.5450    0.6144   -4.0485 H   0  0  0  0  0  0  0  0  0  0  0  0
    3.6975    2.6477   -3.2747 H   0  0  0  0  0  0  0  0  0  0  0  0
    1.3688    2.5975    0.3844 H   0  0  0  0  0  0  0  0  0  0  0  0
    3.9096    4.8752   -2.7906 H   0  0  0  0  0  0  0  0  0  0  0  0
    4.8507    5.4852   -1.3966 H   0  0  0  0  0  0  0  0  0  0  0  0
    5.1693    3.8444   -2.0328 H   0  0  0  0  0  0  0  0  0  0  0  0
    4.7984    2.8802    0.3198 H   0  0  0  0  0  0  0  0  0  0  0  0
    4.5552    4.5642    0.8996 H   0  0  0  0  0  0  0  0  0  0  0  0
    3.3287    3.3023    1.2472 H   0  0  0  0  0  0  0  0  0  0  0  0
    1.5154    4.8080    0.1650 H   0  0  0  0  0  0  0  0  0  0  0  0
    2.7640    6.0477   -0.1765 H   0  0  0  0  0  0  0  0  0  0  0  0
    1.7408    5.4055   -1.5070 H   0  0  0  0  0  0  0  0  0  0  0  0
  2  1  1  0  0  0  0
  2 17  1  0  0  0  0
  3  2  1  0  0  0  0
  4  5  1  0  0  0  0
  4  3  2  0  0  0  0
  5  6  2  0  0  0  0
  6  7  1  0  0  0  0
  6  1  1  0  0  0  0
  7 12  1  0  0  0  0
  8  9  1  0  0  0  0
  8  7  2  0  0  0  0
  9 10  2  0  0  0  0
 10 13  1  0  0  0  0
 10 11  1  0  0  0  0
 11 23  1  0  0  0  0
 12 11  2  0  0  0  0
 13 16  1  0  0  0  0
 13 15  1  0  0  0  0
 14 25  1  0  0  0  0
 14 13  1  0  0  0  0
 15 28  1  0  0  0  0
 15 29  1  0  0  0  0
 16 31  1  0  0  0  0
 16 30  1  0  0  0  0
 18  3  1  0  0  0  0
 19  4  1  0  0  0  0
 20  5  1  0  0  0  0
 21  8  1  0  0  0  0
 22  9  1  0  0  0  0
 24 14  1  0  0  0  0
 26 14  1  0  0  0  0
 27 15  1  0  0  0  0
 32 16  1  0  0  0  0
M  END
