6,7
q = -1.0, confidence = 0.0

 26 27  0  0  1  0  0  0  0  0999 V2000
    4.4502   -1.6552   -0.6606 F   0  0  0  0  0  0  0  0  0  0  0  0
    2.1029   -2.5853    3.3409 F   0  0  0  0  0  0  0  0  0  0  0  0
    5.6626   -2.4654    1.7120 F   0  0  0  0  0  0  0  0  0  0  0  0
    4.5832   -4.0762    0.7149 F   0  0  0  0  0  0  0  0  0  0  0  0
    4.3138   -3.7409    2.8491 F   0  0  0  0  0  0  0  0  0  0  0  0
    1.2505    1.0344   -1.6183 N   0  0  0  0  0  2  0  0  0  0  0  0
    1.2772   -0.2999    0.6327 C   0  0  0  0  0  3  0  0  0  0  0  0
    2.3920   -0.5227   -0.2469 C   0  0  0  0  0  0  0  0  0  0  0  0
    3.3864   -1.4371    0.1424 C   0  0  0  0  0  0  0  0  0  0  0  0
    3.3428   -2.1607    1.3492 C   0  0  0  0  0  0  0  0  0  0  0  0
    2.2216   -1.9283    2.1783 C   0  0  0  0  0  0  0  0  0  0  0  0
    1.2124   -1.0258    1.8342 C   0  0  0  0  0  0  0  0  0  0  0  0
    0.3762   -0.9060    2.5369 H   0  0  0  0  0  0  0  0  0  0  0  0
    4.4708   -3.1149    1.6668 C   0  0  0  0  0  0  0  0  0  0  0  0
    2.3589    0.2262   -1.5027 C   0  0  1  0  0  3  0  0  0  0  0  0
    1.0525    1.7578   -2.7422 C   0  0  0  0  0  0  0  0  0  0  0  0
    0.1331    2.3611   -2.7546 H   0  0  0  0  0  0  0  0  0  0  0  0
    1.9462    1.7314   -3.8093 C   0  0  0  0  0  0  0  0  0  0  0  0
    1.7375    2.3382   -4.7024 H   0  0  0  0  0  0  0  0  0  0  0  0
    3.1042    0.9268   -3.7288 C   0  0  0  0  0  0  0  0  0  0  0  0
    3.2923    0.1762   -2.5586 C   0  0  0  0  0  0  0  0  0  0  0  0
    4.1730   -0.4673   -2.4547 H   0  0  0  0  0  0  0  0  0  0  0  0
    4.0932    0.8761   -4.8609 C   0  0  0  0  0  0  0  0  0  0  0  0
    3.6079    0.5251   -5.7952 H   0  0  0  0  0  0  0  0  0  0  0  0
    4.9392    0.1997   -4.6365 H   0  0  0  0  0  0  0  0  0  0  0  0
    4.5034    1.8850   -5.0740 H   0  0  0  0  0  0  0  0  0  0  0  0
  1  9  1  0  0  0  0
  4 14  1  0  0  0  0
  6 15  1  0  0  0  0
  7 12  1  0  0  0  0
  8  9  1  0  0  0  0
  8  7  2  0  0  0  0
  9 10  2  0  0  0  0
 10 14  1  0  0  0  0
 10 11  1  0  0  0  0
 11  2  1  0  0  0  0
 12 11  2  0  0  0  0
 12 13  1  0  0  0  0
 14  3  1  0  0  0  0
 14  5  1  0  0  0  0
 15  8  1  6  0  0  0
 16  6  1  0  0  0  0
 17 16  1  0  0  0  0
 18 20  1  0  0  0  0
 18 16  2  0  0  0  0
 19 18  1  0  0  0  0
 20 21  2  0  0  0  0
 21 22  1  0  0  0  0
 21 15  1  0  0  0  0
 23 25  1  0  0  0  0
 23 20  1  0  0  0  0
 24 23  1  0  0  0  0
 26 23  1  0  0  0  0
M  END
