1,12
q = -1.0

 26 28  0  0  1  0  0  0  0  0999 V2000
   -0.7462    1.1513    1.1949 N   0  0  0  0  0  2  0  0  0  0  0  0
   -2.0470    0.7096    1.2729 C   0  0  2  0  0  3  0  0  0  0  0  0
   -2.7101    0.7806    2.5246 C   0  0  0  0  0  0  0  0  0  0  0  0
   -3.7048    0.3368    2.6346 H   0  0  0  0  0  0  0  0  0  0  0  0
   -2.0829    1.3559    3.6302 C   0  0  0  0  0  0  0  0  0  0  0  0
   -2.6055    1.3952    4.5982 H   0  0  0  0  0  0  0  0  0  0  0  0
   -0.7786    1.8565    3.4989 C   0  0  0  0  0  0  0  0  0  0  0  0
   -0.2424    2.3166    4.3399 H   0  0  0  0  0  0  0  0  0  0  0  0
   -0.1454    1.7112    2.2633 C   0  0  0  0  0  0  0  0  0  0  0  0
    0.8880    2.0518    2.0952 H   0  0  0  0  0  0  0  0  0  0  0  0
   -2.5518    0.0867    0.0478 C   0  0  0  0  0  0  0  0  0  0  0  0
   -1.5560   -0.1656   -0.9417 C   0  0  0  0  0  3  0  0  0  0  0  0
   -1.9145   -0.9786   -2.0600 C   0  0  0  0  0  0  0  0  0  0  0  0
   -1.1588   -1.2053   -2.8245 H   0  0  0  0  0  0  0  0  0  0  0  0
   -3.1827   -1.5090   -2.1988 C   0  0  0  0  0  0  0  0  0  0  0  0
   -3.4183   -2.1740   -3.0457 H   0  0  0  0  0  0  0  0  0  0  0  0
   -4.2293   -1.1632   -1.2933 C   0  0  0  0  0  0  0  0  0  0  0  0
   -5.5617   -1.6122   -1.5135 C   0  0  0  0  0  0  0  0  0  0  0  0
   -5.7476   -2.2939   -2.3588 H   0  0  0  0  0  0  0  0  0  0  0  0
   -6.6101   -1.1813   -0.7126 C   0  0  0  0  0  0  0  0  0  0  0  0
   -7.6369   -1.5305   -0.8980 H   0  0  0  0  0  0  0  0  0  0  0  0
   -6.3479   -0.2445    0.3158 C   0  0  0  0  0  0  0  0  0  0  0  0
   -7.1802    0.1652    0.9089 H   0  0  0  0  0  0  0  0  0  0  0  0
   -5.0502    0.1872    0.5715 C   0  0  0  0  0  0  0  0  0  0  0  0
   -4.9028    0.9655    1.3298 H   0  0  0  0  0  0  0  0  0  0  0  0
   -3.9331   -0.2934   -0.1778 C   0  0  0  0  0  0  0  0  0  0  0  0
  1  2  1  0  0  0  0
  1  9  1  0  0  0  0
  2 11  1  1  0  0  0
  2  3  1  0  0  0  0
  3  4  1  0  0  0  0
  3  5  2  0  0  0  0
  5  6  1  0  0  0  0
  7  5  1  0  0  0  0
  7  8  1  0  0  0  0
  9  7  2  0  0  0  0
 10  9  1  0  0  0  0
 12 11  2  0  0  0  0
 13 12  1  0  0  0  0
 14 13  1  0  0  0  0
 15 13  2  0  0  0  0
 15 17  1  0  0  0  0
 16 15  1  0  0  0  0
 17 26  1  0  0  0  0
 18 17  2  0  0  0  0
 18 20  1  0  0  0  0
 19 18  1  0  0  0  0
 20 22  2  0  0  0  0
 21 20  1  0  0  0  0
 22 24  1  0  0  0  0
 22 23  1  0  0  0  0
 24 25  1  0  0  0  0
 26 11  1  0  0  0  0
 26 24  2  0  0  0  0
M  END
