1,17
q = -1.0

 30 33  0  0  1  0  0  0  0  0999 V2000
    1.0488    1.3506    0.4978 N   0  0  0  0  0  2  0  0  0  0  0  0
    0.1211    4.8387   -0.3353 N   0  0  0  0  0  2  0  0  0  0  0  0
    2.3713    1.4862    0.5888 C   0  0  0  0  0  0  0  0  0  0  0  0
    2.9302    0.5618    0.8018 H   0  0  0  0  0  0  0  0  0  0  0  0
    3.0304    2.7286    0.4130 C   0  0  0  0  0  0  0  0  0  0  0  0
    4.1250    2.7734    0.5062 H   0  0  0  0  0  0  0  0  0  0  0  0
    2.2860    3.8551    0.0964 C   0  0  0  0  0  0  0  0  0  0  0  0
    2.7443    4.8372   -0.0915 H   0  0  0  0  0  0  0  0  0  0  0  0
   -1.1931    4.6720   -0.4047 C   0  0  0  0  0  0  0  0  0  0  0  0
   -1.7835    5.5575   -0.7032 H   0  0  0  0  0  0  0  0  0  0  0  0
   -1.8755    3.4643   -0.0908 C   0  0  0  0  0  0  0  0  0  0  0  0
   -2.9746    3.4293   -0.1133 H   0  0  0  0  0  0  0  0  0  0  0  0
   -1.1435    2.3432    0.2931 C   0  0  0  0  0  0  0  0  0  0  0  0
    0.2844    2.4689    0.2786 C   0  0  0  0  0  0  0  0  0  0  0  0
    0.8684    3.7502    0.0072 C   0  0  0  0  0  0  0  0  0  0  0  0
   -1.7082    1.0604    0.7268 C   0  0  2  0  0  3  0  0  0  0  0  0
   -1.3959    0.4207    1.9749 C   0  0  0  0  0  3  0  0  0  0  0  0
   -0.7464    0.8392    2.7515 H   0  0  0  0  0  0  0  0  0  0  0  0
   -1.9970   -0.8602    1.9993 C   0  0  0  0  0  3  0  0  0  0  0  0
   -1.9107   -1.5942    2.8082 H   0  0  0  0  0  0  0  0  0  0  0  0
   -2.7971   -0.9976    0.8101 C   0  0  0  0  0  0  0  0  0  0  0  0
   -3.6271   -2.0506    0.3354 C   0  0  0  0  0  0  0  0  0  0  0  0
   -3.7323   -2.9752    0.9202 H   0  0  0  0  0  0  0  0  0  0  0  0
   -4.2888   -1.8827   -0.8713 C   0  0  0  0  0  0  0  0  0  0  0  0
   -4.9428   -2.6828   -1.2492 H   0  0  0  0  0  0  0  0  0  0  0  0
   -4.1291   -0.6952   -1.6462 C   0  0  0  0  0  0  0  0  0  0  0  0
   -4.6633   -0.6065   -2.6041 H   0  0  0  0  0  0  0  0  0  0  0  0
   -3.3057    0.3380   -1.2239 C   0  0  0  0  0  0  0  0  0  0  0  0
   -3.1649    1.2401   -1.8356 H   0  0  0  0  0  0  0  0  0  0  0  0
   -2.6397    0.2062    0.0243 C   0  0  0  0  0  0  0  0  0  0  0  0
  1  3  1  0  0  0  0
  2 15  1  0  0  0  0
  3  4  1  0  0  0  0
  5  6  1  0  0  0  0
  5  3  2  0  0  0  0
  7  5  1  0  0  0  0
  8  7  1  0  0  0  0
  9  2  1  0  0  0  0
  9 11  2  0  0  0  0
 10  9  1  0  0  0  0
 11 13  1  0  0  0  0
 12 11  1  0  0  0  0
 14 13  2  0  0  0  0
 14  1  1  0  0  0  0
 15  7  2  0  0  0  0
 15 14  1  0  0  0  0
 16 13  1  6  0  0  0
 16 17  1  0  0  0  0
 17 19  1  0  0  0  0
 17 18  1  0  0  0  0
 19 20  1  0  0  0  0
 21 19  1  0  0  0  0
 22 21  1  0  0  0  0
 22 23  1  0  0  0  0
 24 22  2  0  0  0  0
 25 24  1  0  0  0  0
 26 28  2  0  0  0  0
 26 24  1  0  0  0  0
 27 26  1  0  0  0  0
 28 30  1  0  0  0  0
 29 28  1  0  0  0  0
 30 16  1  0  0  0  0
 30 21  2  0  0  0  0
M  END
