1,16
q = -1.0

 36 38  0  0  1  0  0  0  0  0999 V2000
    1.1528    0.9732   -0.0006 N   0  0  0  0  0  2  0  0  0  0  0  0
    1.6126    2.2238   -0.0007 C   0  0  0  0  0  0  0  0  0  0  0  0
    0.8436    3.0105   -0.0010 H   0  0  0  0  0  0  0  0  0  0  0  0
    3.0050    2.5017   -0.0006 C   0  0  0  0  0  0  0  0  0  0  0  0
    3.3327    3.5511   -0.0007 H   0  0  0  0  0  0  0  0  0  0  0  0
    3.9252    1.4649   -0.0004 C   0  0  0  0  0  0  0  0  0  0  0  0
    5.0112    1.6360   -0.0002 H   0  0  0  0  0  0  0  0  0  0  0  0
    4.3268   -0.9304    0.0000 N   0  0  0  0  0  0  0  0  0  0  0  0
    3.8232   -2.1571    0.0002 C   0  0  0  0  0  0  0  0  0  0  0  0
    4.5527   -2.9871    0.0005 H   0  0  0  0  0  0  0  0  0  0  0  0
    2.4313   -2.4619    0.0001 C   0  0  0  0  0  0  0  0  0  0  0  0
    2.0924   -3.5083    0.0003 H   0  0  0  0  0  0  0  0  0  0  0  0
    1.5165   -1.4159   -0.0002 C   0  0  0  0  0  0  0  0  0  0  0  0
    2.0382   -0.0862   -0.0004 C   0  0  2  0  0  3  0  0  0  0  0  0
    3.4542    0.1172   -0.0003 C   0  0  0  0  0  0  0  0  0  0  0  0
    0.0291   -1.5290   -0.0004 C   0  0  2  0  0  3  0  0  0  0  0  0
   -0.8054   -1.4137   -1.1908 C   0  0  2  0  0  3  0  0  0  0  0  0
   -2.1790   -1.2131   -0.7200 C   0  0  0  0  0  0  0  0  0  0  0  0
   -2.1793   -1.2135    0.7181 C   0  0  0  0  0  0  0  0  0  0  0  0
   -0.8059   -1.4147    1.1895 C   0  0  1  0  0  3  0  0  0  0  0  0
   -0.3711   -1.4869   -2.6178 C   0  0  0  0  0  0  0  0  0  0  0  0
    0.7316   -1.4376   -2.6999 H   0  0  0  0  0  0  0  0  0  0  0  0
   -0.7942   -0.6345   -3.1864 H   0  0  0  0  0  0  0  0  0  0  0  0
   -0.7101   -2.4309   -3.0952 H   0  0  0  0  0  0  0  0  0  0  0  0
   -3.3404   -0.9914   -1.6324 C   0  0  0  0  0  0  0  0  0  0  0  0
   -4.2746   -0.8161   -1.0680 H   0  0  0  0  0  0  0  0  0  0  0  0
   -3.4896   -1.8666   -2.2983 H   0  0  0  0  0  0  0  0  0  0  0  0
   -3.1509   -0.0975   -2.2635 H   0  0  0  0  0  0  0  0  0  0  0  0
   -3.3411   -0.9924    1.6302 C   0  0  0  0  0  0  0  0  0  0  0  0
   -4.2747   -0.8146    1.0655 H   0  0  0  0  0  0  0  0  0  0  0  0
   -3.1510   -0.1003    2.2635 H   0  0  0  0  0  0  0  0  0  0  0  0
   -3.4920   -1.8690    2.2939 H   0  0  0  0  0  0  0  0  0  0  0  0
   -0.3724   -1.4885    2.6168 C   0  0  0  0  0  0  0  0  0  0  0  0
   -0.7146   -2.4311    3.0945 H   0  0  0  0  0  0  0  0  0  0  0  0
   -0.7931   -0.6342    3.1845 H   0  0  0  0  0  0  0  0  0  0  0  0
    0.7304   -1.4425    2.6992 H   0  0  0  0  0  0  0  0  0  0  0  0
  2  1  1  0  0  0  0
  2  4  2  0  0  0  0
  3  2  1  0  0  0  0
  4  6  1  0  0  0  0
  5  4  1  0  0  0  0
  6 15  2  0  0  0  0
  6  7  1  0  0  0  0
  8  9  2  0  0  0  0
  9 10  1  0  0  0  0
 11  9  1  0  0  0  0
 11 12  1  0  0  0  0
 13 11  2  0  0  0  0
 14  1  1  1  0  0  0
 14 15  1  0  0  0  0
 14 13  1  0  0  0  0
 15  8  1  0  0  0  0
 16 13  1  1  0  0  0
 16 20  1  0  0  0  0
 17 21  1  1  0  0  0
 17 18  1  0  0  0  0
 17 16  1  0  0  0  0
 18 19  2  0  0  0  0
 19 20  1  0  0  0  0
 19 29  1  0  0  0  0
 20 33  1  6  0  0  0
 22 21  1  0  0  0  0
 23 21  1  0  0  0  0
 24 21  1  0  0  0  0
 25 26  1  0  0  0  0
 25 18  1  0  0  0  0
 27 25  1  0  0  0  0
 28 25  1  0  0  0  0
 29 31  1  0  0  0  0
 29 32  1  0  0  0  0
 30 29  1  0  0  0  0
 33 36  1  0  0  0  0
 33 34  1  0  0  0  0
 33 35  1  0  0  0  0
M  END
