1,23
q = -1.0

 24 25  0  0  1  0  0  0  0  0999 V2000
   -1.4073    1.5419   -1.4589 N   0  0  0  0  0  2  0  0  0  0  0  0
   -1.3001    2.7918   -0.8992 N   0  0  0  0  0  0  0  0  0  0  0  0
   -1.8746    0.5523   -3.7041 C   0  0  0  0  0  0  0  0  0  0  0  0
   -2.6708   -0.1277   -3.3416 H   0  0  0  0  0  0  0  0  0  0  0  0
   -0.9509   -0.0501   -3.8137 H   0  0  0  0  0  0  0  0  0  0  0  0
   -2.1625    0.9251   -4.7041 H   0  0  0  0  0  0  0  0  0  0  0  0
   -1.6765    1.7007   -2.7726 C   0  0  1  0  0  3  0  0  0  0  0  0
   -1.7382    3.0824   -3.0543 C   0  0  0  0  0  0  0  0  0  0  0  0
   -1.9348    3.5447   -4.0266 H   0  0  0  0  0  0  0  0  0  0  0  0
   -1.4959    3.7581   -1.8554 C   0  0  0  0  0  0  0  0  0  0  0  0
   -1.4506    5.2299   -1.6200 C   0  0  0  0  0  0  0  0  0  0  0  0
   -0.4621    5.5622   -1.2420 H   0  0  0  0  0  0  0  0  0  0  0  0
   -2.2201    5.5632   -0.8935 H   0  0  0  0  0  0  0  0  0  0  0  0
   -1.6396    5.7512   -2.5762 H   0  0  0  0  0  0  0  0  0  0  0  0
   -1.0673    2.8170    0.5023 C   0  0  0  0  0  0  0  0  0  0  0  0
   -0.9296    3.9956    1.2549 C   0  0  0  0  0  0  0  0  0  0  0  0
   -0.9809    4.9856    0.7913 H   0  0  0  0  0  0  0  0  0  0  0  0
   -0.7151    3.9108    2.6380 C   0  0  0  0  0  0  0  0  0  0  0  0
   -0.6013    4.8123    3.2551 H   0  0  0  0  0  0  0  0  0  0  0  0
   -0.6437    2.6460    3.2313 C   0  0  0  0  0  0  0  0  0  0  0  0
   -0.7741    1.4680    2.4871 C   0  0  0  0  0  0  0  0  0  0  0  0
   -0.7012    0.5069    3.0157 H   0  0  0  0  0  0  0  0  0  0  0  0
   -0.9818    1.5271    1.0977 C   0  0  0  0  0  3  0  0  0  0  0  0
   -0.4431    2.5591    4.5628 F   0  0  0  0  0  0  0  0  0  0  0  0
  1  2  1  0  0  0  0
  2 15  1  0  0  0  0
  3  4  1  0  0  0  0
  5  3  1  0  0  0  0
  6  3  1  0  0  0  0
  7  3  1  1  0  0  0
  7  1  1  0  0  0  0
  8  7  1  0  0  0  0
  8 10  2  0  0  0  0
  9  8  1  0  0  0  0
 10 11  1  0  0  0  0
 10  2  1  0  0  0  0
 11 12  1  0  0  0  0
 11 13  1  0  0  0  0
 14 11  1  0  0  0  0
 15 23  2  0  0  0  0
 15 16  1  0  0  0  0
 16 18  2  0  0  0  0
 17 16  1  0  0  0  0
 18 20  1  0  0  0  0
 18 19  1  0  0  0  0
 20 24  1  0  0  0  0
 21 22  1  0  0  0  0
 21 20  2  0  0  0  0
 23 21  1  0  0  0  0
M  END
