3,5
q = 0.0, confidence = 0.998

 41 42  0  0  1  0  0  0  0  0999 V2000
    0.9393    2.4567    0.1541 N   0  0  0  0  0  0  0  0  0  0  0  0
    1.1702    1.1205    1.8466 N   0  0  0  0  0  0  0  0  0  0  0  0
    1.0059   -1.3323    0.5714 N   0  0  0  0  0  2  0  0  0  0  0  0
    3.1661   -1.9241    0.6750 O   0  0  0  0  0  0  0  0  0  0  0  0
    0.4698    1.2834    0.6713 C   0  0  0  0  0  2  0  0  0  0  0  0
    0.4450    3.0699   -1.1000 C   0  0  0  0  0  0  0  0  0  0  0  0
    1.5999    3.5410   -1.9835 C   0  0  0  0  0  0  0  0  0  0  0  0
   -0.5548    4.1853   -0.7849 C   0  0  0  0  0  0  0  0  0  0  0  0
    1.9009    3.0191    0.9888 C   0  0  0  0  0  0  0  0  0  0  0  0
    2.0485    2.1743    2.0585 C   0  0  0  0  0  0  0  0  0  0  0  0
    0.9354   -0.0323    2.7087 C   0  0  0  0  0  0  0  0  0  0  0  0
    1.3042   -1.3734    2.0225 C   0  0  2  0  0  0  0  0  0  0  0  0
    2.8080   -1.7359    2.0612 C   0  0  0  0  0  0  0  0  0  0  0  0
    2.1040   -1.6014   -0.0833 C   0  0  2  0  0  3  0  0  0  0  0  0
    2.4058   -1.4834   -1.5622 C   0  0  0  0  0  0  0  0  0  0  0  0
    3.2129   -2.7185   -2.0195 C   0  0  0  0  0  0  0  0  0  0  0  0
    3.2792   -0.2064   -1.6916 C   0  0  0  0  0  0  0  0  0  0  0  0
    1.1425   -1.3346   -2.4167 C   0  0  0  0  0  0  0  0  0  0  0  0
   -0.0803    2.2369   -1.6096 H   0  0  0  0  0  0  0  0  0  0  0  0
    1.2002    3.8845   -2.9569 H   0  0  0  0  0  0  0  0  0  0  0  0
    2.1441    4.3969   -1.5356 H   0  0  0  0  0  0  0  0  0  0  0  0
    2.3241    2.7268   -2.1794 H   0  0  0  0  0  0  0  0  0  0  0  0
   -0.9858    4.5846   -1.7237 H   0  0  0  0  0  0  0  0  0  0  0  0
   -0.0637    5.0257   -0.2535 H   0  0  0  0  0  0  0  0  0  0  0  0
   -1.3858    3.8145   -0.1536 H   0  0  0  0  0  0  0  0  0  0  0  0
    2.4003    3.9649    0.7621 H   0  0  0  0  0  0  0  0  0  0  0  0
    2.6846    2.2491    2.9459 H   0  0  0  0  0  0  0  0  0  0  0  0
    1.5255    0.0895    3.6384 H   0  0  0  0  0  0  0  0  0  0  0  0
   -0.1387   -0.0451    2.9767 H   0  0  0  0  0  0  0  0  0  0  0  0
    0.6836   -2.1620    2.4964 H   0  0  0  0  0  0  0  0  0  0  0  0
    3.4460   -0.9241    2.4689 H   0  0  0  0  0  0  0  0  0  0  0  0
    3.0245   -2.6722    2.6093 H   0  0  0  0  0  0  0  0  0  0  0  0
    3.4704   -2.6094   -3.0909 H   0  0  0  0  0  0  0  0  0  0  0  0
    4.1516   -2.8276   -1.4448 H   0  0  0  0  0  0  0  0  0  0  0  0
    2.6211   -3.6482   -1.9037 H   0  0  0  0  0  0  0  0  0  0  0  0
    3.5600   -0.0614   -2.7534 H   0  0  0  0  0  0  0  0  0  0  0  0
    4.2071   -0.2905   -1.0944 H   0  0  0  0  0  0  0  0  0  0  0  0
    2.7220    0.6898   -1.3531 H   0  0  0  0  0  0  0  0  0  0  0  0
    1.4301   -1.0633   -3.4508 H   0  0  0  0  0  0  0  0  0  0  0  0
    0.4619   -0.5405   -2.0223 H   0  0  0  0  0  0  0  0  0  0  0  0
    0.5686   -2.2793   -2.4617 H   0  0  0  0  0  0  0  0  0  0  0  0
  1  5  1  0  0  0  0
  1  9  1  0  0  0  0
  2 10  1  0  0  0  0
  2 11  1  0  0  0  0
  3 12  1  0  0  0  0
  4 13  1  0  0  0  0
  5  2  1  0  0  0  0
  6  8  1  0  0  0  0
  6  1  1  0  0  0  0
  7 21  1  0  0  0  0
  7  6  1  0  0  0  0
  8 24  1  0  0  0  0
  8 25  1  0  0  0  0
  9 10  2  0  0  0  0
 10 27  1  0  0  0  0
 11 29  1  0  0  0  0
 11 28  1  0  0  0  0
 12 13  1  0  0  0  0
 12 30  1  1  0  0  0
 12 11  1  0  0  0  0
 13 31  1  0  0  0  0
 13 32  1  0  0  0  0
 14 15  1  1  0  0  0
 14  3  1  0  0  0  0
 14  4  1  0  0  0  0
 16 35  1  0  0  0  0
 16 15  1  0  0  0  0
 16 34  1  0  0  0  0
 17 15  1  0  0  0  0
 17 38  1  0  0  0  0
 17 37  1  0  0  0  0
 18 40  1  0  0  0  0
 18 15  1  0  0  0  0
 19  6  1  0  0  0  0
 20  7  1  0  0  0  0
 22  7  1  0  0  0  0
 23  8  1  0  0  0  0
 26  9  1  0  0  0  0
 33 16  1  0  0  0  0
 36 17  1  0  0  0  0
 39 18  1  0  0  0  0
 41 18  1  0  0  0  0
M  END
