2,3
q = -1.0

 63 66  0  0  0  0  0  0  0  0999 V2000
    3.1459    0.1774   -0.0496 B   0  0  0  0  0  0  0  0  0  0  0  0
   -2.8548   -1.7073   -0.6954 N   0  0  0  0  0  2  0  0  0  0  0  0
   -1.2603    0.1866   -0.0014 C   0  0  0  0  0  2  0  0  0  0  0  0
   -0.5022    1.2980    0.4019 C   0  0  0  0  0  0  0  0  0  0  0  0
   -1.0199    2.1892    0.7868 H   0  0  0  0  0  0  0  0  0  0  0  0
    0.8889    1.2601    0.2992 C   0  0  0  0  0  0  0  0  0  0  0  0
    1.4792    2.1356    0.6165 H   0  0  0  0  0  0  0  0  0  0  0  0
    1.5853    0.1241   -0.1916 C   0  0  0  0  0  0  0  0  0  0  0  0
    0.8309   -0.9975   -0.6483 C   0  0  0  0  0  0  0  0  0  0  0  0
    1.5621   -2.1385   -1.3163 C   0  0  0  0  0  0  0  0  0  0  0  0
    2.6194   -1.8799   -1.4933 H   0  0  0  0  0  0  0  0  0  0  0  0
    1.1089   -2.3901   -2.2964 H   0  0  0  0  0  0  0  0  0  0  0  0
    1.5669   -3.0616   -0.6980 H   0  0  0  0  0  0  0  0  0  0  0  0
   -0.5901   -0.9767   -0.5224 C   0  0  0  0  0  0  0  0  0  0  0  0
   -1.5253   -2.0539   -0.8781 C   0  0  0  0  0  0  0  0  0  0  0  0
   -1.2466   -3.3635   -1.3293 C   0  0  0  0  0  0  0  0  0  0  0  0
   -0.2097   -3.6838   -1.4494 H   0  0  0  0  0  0  0  0  0  0  0  0
   -2.2796   -4.2636   -1.6098 C   0  0  0  0  0  0  0  0  0  0  0  0
   -2.0387   -5.2785   -1.9597 H   0  0  0  0  0  0  0  0  0  0  0  0
   -3.6124   -3.8633   -1.4368 C   0  0  0  0  0  0  0  0  0  0  0  0
   -4.4553   -4.5357   -1.6478 H   0  0  0  0  0  0  0  0  0  0  0  0
   -3.8567   -2.5728   -0.9683 C   0  0  0  0  0  0  0  0  0  0  0  0
   -4.8687   -2.1795   -0.7856 H   0  0  0  0  0  0  0  0  0  0  0  0
    3.9673   -1.0949    0.4045 C   0  0  0  0  0  0  0  0  0  0  0  0
    3.5652   -1.8599    1.5390 C   0  0  0  0  0  0  0  0  0  0  0  0
    4.3244   -2.9783    1.9336 C   0  0  0  0  0  0  0  0  0  0  0  0
    4.0122   -3.5439    2.8274 H   0  0  0  0  0  0  0  0  0  0  0  0
    5.4646   -3.3958    1.2281 C   0  0  0  0  0  0  0  0  0  0  0  0
    5.8512   -2.6396    0.1061 C   0  0  0  0  0  0  0  0  0  0  0  0
    6.7434   -2.9446   -0.4663 H   0  0  0  0  0  0  0  0  0  0  0  0
    5.1406   -1.4991   -0.3034 C   0  0  0  0  0  0  0  0  0  0  0  0
    5.6391   -0.7361   -1.5109 C   0  0  0  0  0  0  0  0  0  0  0  0
    6.4498   -1.2889   -2.0240 H   0  0  0  0  0  0  0  0  0  0  0  0
    6.0289    0.2624   -1.2277 H   0  0  0  0  0  0  0  0  0  0  0  0
    4.8354   -0.5519   -2.2529 H   0  0  0  0  0  0  0  0  0  0  0  0
    2.3542   -1.4985    2.3729 C   0  0  0  0  0  0  0  0  0  0  0  0
    1.4073   -1.7937    1.8757 H   0  0  0  0  0  0  0  0  0  0  0  0
    2.2706   -0.4087    2.5526 H   0  0  0  0  0  0  0  0  0  0  0  0
    2.3891   -2.0060    3.3567 H   0  0  0  0  0  0  0  0  0  0  0  0
    6.2529   -4.6101    1.6493 C   0  0  0  0  0  0  0  0  0  0  0  0
    7.3244   -4.3640    1.8022 H   0  0  0  0  0  0  0  0  0  0  0  0
    6.2172   -5.4025    0.8717 H   0  0  0  0  0  0  0  0  0  0  0  0
    5.8648   -5.0443    2.5910 H   0  0  0  0  0  0  0  0  0  0  0  0
    3.8765    1.5601   -0.2768 C   0  0  0  0  0  0  0  0  0  0  0  0
    4.7672    2.0991    0.6987 C   0  0  0  0  0  0  0  0  0  0  0  0
    5.4124    3.3256    0.4584 C   0  0  0  0  0  0  0  0  0  0  0  0
    6.0850    3.7336    1.2313 H   0  0  0  0  0  0  0  0  0  0  0  0
    5.2341    4.0401   -0.7392 C   0  0  0  0  0  0  0  0  0  0  0  0
    4.3689    3.4941   -1.7034 C   0  0  0  0  0  0  0  0  0  0  0  0
    4.2245    4.0276   -2.6578 H   0  0  0  0  0  0  0  0  0  0  0  0
    3.6793    2.2875   -1.4891 C   0  0  0  0  0  0  0  0  0  0  0  0
    2.7646    1.7837   -2.5852 C   0  0  0  0  0  0  0  0  0  0  0  0
    2.9463    2.3267   -3.5332 H   0  0  0  0  0  0  0  0  0  0  0  0
    1.6976    1.9179   -2.3148 H   0  0  0  0  0  0  0  0  0  0  0  0
    2.8960    0.7010   -2.7832 H   0  0  0  0  0  0  0  0  0  0  0  0
    5.0412    1.3880    2.0054 C   0  0  0  0  0  0  0  0  0  0  0  0
    5.5898    2.0454    2.7076 H   0  0  0  0  0  0  0  0  0  0  0  0
    5.6476    0.4726    1.8491 H   0  0  0  0  0  0  0  0  0  0  0  0
    4.1093    1.0596    2.5072 H   0  0  0  0  0  0  0  0  0  0  0  0
    5.9232    5.3613   -0.9686 C   0  0  0  0  0  0  0  0  0  0  0  0
    6.8892    5.4184   -0.4287 H   0  0  0  0  0  0  0  0  0  0  0  0
    5.2971    6.2049   -0.6045 H   0  0  0  0  0  0  0  0  0  0  0  0
    6.1149    5.5415   -2.0450 H   0  0  0  0  0  0  0  0  0  0  0  0
  1 24  1  0  0  0  0
  3  4  1  0  0  0  0
  4  5  1  0  0  0  0
  6  4  2  0  0  0  0
  6  7  1  0  0  0  0
  8  1  1  0  0  0  0
  8  6  1  0  0  0  0
  9 14  1  0  0  0  0
  9  8  2  0  0  0  0
 10 13  1  0  0  0  0
 10  9  1  0  0  0  0
 11 10  1  0  0  0  0
 12 10  1  0  0  0  0
 14  3  1  0  0  0  0
 15  2  1  0  0  0  0
 15 14  2  0  0  0  0
 16 15  1  0  0  0  0
 17 16  1  0  0  0  0
 18 20  1  0  0  0  0
 18 16  2  0  0  0  0
 19 18  1  0  0  0  0
 20 22  2  0  0  0  0
 21 20  1  0  0  0  0
 22 23  1  0  0  0  0
 22  2  1  0  0  0  0
 24 25  1  0  0  0  0
 25 26  2  0  0  0  0
 25 36  1  0  0  0  0
 26 27  1  0  0  0  0
 28 40  1  0  0  0  0
 28 26  1  0  0  0  0
 29 28  2  0  0  0  0
 30 29  1  0  0  0  0
 31 29  1  0  0  0  0
 31 24  2  0  0  0  0
 32 34  1  0  0  0  0
 32 31  1  0  0  0  0
 33 32  1  0  0  0  0
 35 32  1  0  0  0  0
 36 38  1  0  0  0  0
 36 39  1  0  0  0  0
 37 36  1  0  0  0  0
 40 41  1  0  0  0  0
 40 43  1  0  0  0  0
 42 40  1  0  0  0  0
 44  1  1  0  0  0  0
 44 45  1  0  0  0  0
 45 56  1  0  0  0  0
 46 45  2  0  0  0  0
 46 47  1  0  0  0  0
 48 46  1  0  0  0  0
 49 51  1  0  0  0  0
 49 48  2  0  0  0  0
 50 49  1  0  0  0  0
 51 44  2  0  0  0  0
 52 54  1  0  0  0  0
 52 51  1  0  0  0  0
 53 52  1  0  0  0  0
 55 52  1  0  0  0  0
 56 59  1  0  0  0  0
 56 57  1  0  0  0  0
 58 56  1  0  0  0  0
 60 48  1  0  0  0  0
 60 62  1  0  0  0  0
 60 61  1  0  0  0  0
 63 60  1  0  0  0  0
M  END
