1,16
q = -1.0, confidence = 0.0

 31 32  0  0  1  0  0  0  0  0999 V2000
   -2.5169   -0.5937   -0.2806 C   0  0  0  0  0  3  0  0  0  0  0  0
   -3.8464   -0.1664   -0.4827 C   0  0  0  0  0  0  0  0  0  0  0  0
   -4.0798    0.9087   -0.5125 H   0  0  0  0  0  0  0  0  0  0  0  0
   -4.8862   -1.0912   -0.6707 C   0  0  0  0  0  0  0  0  0  0  0  0
   -5.9165   -0.7270   -0.8124 H   0  0  0  0  0  0  0  0  0  0  0  0
   -4.6290   -2.4764   -0.6924 C   0  0  0  0  0  0  0  0  0  0  0  0
   -5.4513   -3.1917   -0.8427 H   0  0  0  0  0  0  0  0  0  0  0  0
   -3.3161   -2.9308   -0.5420 C   0  0  0  0  0  0  0  0  0  0  0  0
   -3.0994   -4.0097   -0.5857 H   0  0  0  0  0  0  0  0  0  0  0  0
   -2.2699   -2.0020   -0.3409 C   0  0  0  0  0  0  0  0  0  0  0  0
   -0.8686   -2.3597   -0.2290 C   0  0  1  0  0  3  0  0  0  0  0  0
   -0.3773   -3.7693   -0.3739 C   0  0  0  0  0  0  0  0  0  0  0  0
    0.7256   -3.8237   -0.3924 H   0  0  0  0  0  0  0  0  0  0  0  0
   -0.7737   -4.2120   -1.3098 H   0  0  0  0  0  0  0  0  0  0  0  0
   -0.7471   -4.4002    0.4613 H   0  0  0  0  0  0  0  0  0  0  0  0
   -0.0730   -1.3273   -0.0257 N   0  0  0  0  0  2  0  0  0  0  0  0
    1.3390   -1.4499    0.0983 C   0  0  0  0  0  0  0  0  0  0  0  0
    2.1696   -1.0096   -0.9469 C   0  0  0  0  0  0  0  0  0  0  0  0
    1.6909   -0.5977   -1.8491 H   0  0  0  0  0  0  0  0  0  0  0  0
    3.5646   -1.0713   -0.8203 C   0  0  0  0  0  0  0  0  0  0  0  0
    4.1895   -0.7248   -1.6542 H   0  0  0  0  0  0  0  0  0  0  0  0
    4.1468   -1.5638    0.3681 C   0  0  0  0  0  0  0  0  0  0  0  0
    3.3111   -2.0034    1.4178 C   0  0  0  0  0  0  0  0  0  0  0  0
    3.7820   -2.3855    2.3349 H   0  0  0  0  0  0  0  0  0  0  0  0
    1.9211   -1.9493    1.2826 C   0  0  0  0  0  0  0  0  0  0  0  0
    1.2697   -2.2914    2.1009 H   0  0  0  0  0  0  0  0  0  0  0  0
    5.4868   -1.6524    0.5931 O   0  0  0  0  0  0  0  0  0  0  0  0
    6.3674   -1.2092   -0.4216 C   0  0  0  0  0  0  0  0  0  0  0  0
    6.2468   -1.7930   -1.3620 H   0  0  0  0  0  0  0  0  0  0  0  0
    7.3925   -1.3602   -0.0353 H   0  0  0  0  0  0  0  0  0  0  0  0
    6.2240   -0.1297   -0.6541 H   0  0  0  0  0  0  0  0  0  0  0  0
  2  1  2  0  0  0  0
  3  2  1  0  0  0  0
  4  2  1  0  0  0  0
  5  4  1  0  0  0  0
  6  4  2  0  0  0  0
  6  8  1  0  0  0  0
  7  6  1  0  0  0  0
  8 10  2  0  0  0  0
  9  8  1  0  0  0  0
 10  1  1  0  0  0  0
 10 11  1  0  0  0  0
 11 16  1  6  0  0  0
 12 11  1  0  0  0  0
 12 15  1  0  0  0  0
 13 12  1  0  0  0  0
 14 12  1  0  0  0  0
 16 17  1  0  0  0  0
 17 25  1  0  0  0  0
 18 20  1  0  0  0  0
 18 17  2  0  0  0  0
 19 18  1  0  0  0  0
 20 22  2  0  0  0  0
 21 20  1  0  0  0  0
 22 27  1  0  0  0  0
 22 23  1  0  0  0  0
 23 24  1  0  0  0  0
 25 23  2  0  0  0  0
 25 26  1  0  0  0  0
 28 30  1  0  0  0  0
 28 27  1  0  0  0  0
 29 28  1  0  0  0  0
 31 28  1  0  0  0  0
M  END
