3,10
q = -1.0, confidence = 0.0

 33 35  0  0  0  0  0  0  0  0999 V2000
    1.4460    1.2892    1.2171 P   0  0  2  0  0  0  0  0  0  0  0  0
    2.4119    2.1370    2.0261 O   0  0  0  0  0  0  0  0  0  0  0  0
    1.6304   -1.1073   -0.2134 N   0  0  0  0  0  2  0  0  0  0  0  0
    2.2586   -2.2289   -0.6415 C   0  0  0  0  0  3  0  0  0  0  0  0
    3.5276   -2.5782   -0.1676 C   0  0  0  0  0  0  0  0  0  0  0  0
    4.1601   -1.7612    0.7806 C   0  0  0  0  0  0  0  0  0  0  0  0
    3.4993   -0.6071    1.2228 C   0  0  0  0  0  0  0  0  0  0  0  0
    2.2320   -0.3102    0.7061 C   0  0  0  0  0  0  0  0  0  0  0  0
    0.9766    1.9854   -0.3950 C   0  0  0  0  0  0  0  0  0  0  0  0
    0.2616    1.1821   -1.3154 C   0  0  0  0  0  3  0  0  0  0  0  0
    0.0046    1.7424   -2.5893 C   0  0  0  0  0  0  0  0  0  0  0  0
    0.4297    3.0440   -2.9067 C   0  0  0  0  0  0  0  0  0  0  0  0
    1.1330    3.8223   -1.9697 C   0  0  0  0  0  0  0  0  0  0  0  0
    1.4214    3.2845   -0.7082 C   0  0  0  0  0  0  0  0  0  0  0  0
   -0.0967    0.8598    2.1121 C   0  0  0  0  0  0  0  0  0  0  0  0
   -0.9123    1.9436    2.4994 C   0  0  0  0  0  0  0  0  0  0  0  0
   -2.0979    1.7137    3.2142 C   0  0  0  0  0  0  0  0  0  0  0  0
   -2.4726    0.4017    3.5496 C   0  0  0  0  0  0  0  0  0  0  0  0
   -1.6533   -0.6779    3.1792 C   0  0  0  0  0  0  0  0  0  0  0  0
   -0.4646   -0.4528    2.4680 C   0  0  0  0  0  0  0  0  0  0  0  0
    1.6968   -2.8504   -1.3517 H   0  0  0  0  0  0  0  0  0  0  0  0
    4.0053   -3.4929   -0.5458 H   0  0  0  0  0  0  0  0  0  0  0  0
    5.1566   -2.0201    1.1692 H   0  0  0  0  0  0  0  0  0  0  0  0
    3.9290    0.0940    1.9543 H   0  0  0  0  0  0  0  0  0  0  0  0
   -0.5344    1.1512   -3.3476 H   0  0  0  0  0  0  0  0  0  0  0  0
    0.2156    3.4540   -3.9067 H   0  0  0  0  0  0  0  0  0  0  0  0
    1.4641    4.8395   -2.2283 H   0  0  0  0  0  0  0  0  0  0  0  0
    1.9926    3.8469    0.0477 H   0  0  0  0  0  0  0  0  0  0  0  0
   -0.6146    2.9712    2.2376 H   0  0  0  0  0  0  0  0  0  0  0  0
   -2.7316    2.5633    3.5113 H   0  0  0  0  0  0  0  0  0  0  0  0
   -3.4048    0.2205    4.1063 H   0  0  0  0  0  0  0  0  0  0  0  0
   -1.9408   -1.7092    3.4331 H   0  0  0  0  0  0  0  0  0  0  0  0
    0.1512   -1.3131    2.1700 H   0  0  0  0  0  0  0  0  0  0  0  0
  1  2  2  1  0  0  0
  1 15  1  0  0  0  0
  3  8  1  0  0  0  0
  4  3  1  0  0  0  0
  4  5  1  0  0  0  0
  5  6  2  0  0  0  0
  6 23  1  0  0  0  0
  6  7  1  0  0  0  0
  7 24  1  0  0  0  0
  8  1  1  0  0  0  0
  8  7  2  0  0  0  0
  9  1  1  0  0  0  0
 10  9  2  0  0  0  0
 11 10  1  0  0  0  0
 12 11  2  0  0  0  0
 12 13  1  0  0  0  0
 13 14  2  0  0  0  0
 14  9  1  0  0  0  0
 14 28  1  0  0  0  0
 15 20  2  0  0  0  0
 15 16  1  0  0  0  0
 16 17  2  0  0  0  0
 17 30  1  0  0  0  0
 17 18  1  0  0  0  0
 18 31  1  0  0  0  0
 19 32  1  0  0  0  0
 19 18  2  0  0  0  0
 20 19  1  0  0  0  0
 21  4  1  0  0  0  0
 22  5  1  0  0  0  0
 25 11  1  0  0  0  0
 26 12  1  0  0  0  0
 27 13  1  0  0  0  0
 29 16  1  0  0  0  0
 33 20  1  0  0  0  0
M  END
