10,11
q = -1

 14 14  0  0  0  0  0  0  0  0999 V2000
   -1.9206    1.6588   -0.0529 C   0  0  0  0  0  3  0  0  0  0  0  0
   -1.1086    2.4001   -0.1821 H   0  0  0  0  0  0  0  0  0  0  0  0
   -3.2801    1.9526   -0.1939 C   0  0  0  0  0  0  0  0  0  0  0  0
   -3.5976    2.9758   -0.4385 H   0  0  0  0  0  0  0  0  0  0  0  0
   -4.2113    0.9109   -0.0228 C   0  0  0  0  0  0  0  0  0  0  0  0
   -5.2909    1.1026   -0.1293 H   0  0  0  0  0  0  0  0  0  0  0  0
   -3.7649   -0.3758    0.2779 C   0  0  0  0  0  0  0  0  0  0  0  0
   -4.4654   -1.2132    0.4095 H   0  0  0  0  0  0  0  0  0  0  0  0
   -2.3715   -0.5983    0.4041 C   0  0  0  0  0  0  0  0  0  0  0  0
   -0.3837   -2.0034    0.7600 C   0  0  0  0  0  3  0  0  0  0  0  0
   -1.4840    0.4215    0.2439 N   0  0  0  0  0  2  0  0  0  0  0  0
   -1.8137   -1.8077    0.6925 N   0  0  0  0  0  0  0  0  0  0  0  0
   -2.4038   -2.6356    0.8133 H   0  0  0  0  0  0  0  0  0  0  0  0
   -0.0040   -3.1328    1.0300 O   0  0  0  0  0  0  0  0  0  0  0  0
  1 11  1  0  0  0  0
  2  1  1  0  0  0  0
  3  1  1  0  0  0  0
  3  5  2  0  0  0  0
  4  3  1  0  0  0  0
  5  7  1  0  0  0  0
  6  5  1  0  0  0  0
  7  9  2  0  0  0  0
  7  8  1  0  0  0  0
  9 12  1  0  0  0  0
 10 14  2  0  0  0  0
 11  9  1  0  0  0  0
 12 10  1  0  0  0  0
 12 13  1  0  0  0  0
M  END
