1,15
q = 0.0, confidence = 1.0

 38 40  0  0  1  0  0  0  0  0999 V2000
   -1.6652   -0.7939    0.1592 N   0  0  0  0  0  2  0  0  0  0  0  0
   -1.0823    1.5061   -0.1635 C   0  0  0  0  0  0  0  0  0  0  0  0
   -2.0908    0.5064    0.0181 C   0  0  0  0  0  0  0  0  0  0  0  0
   -2.5533   -1.7690    0.3581 C   0  0  0  0  0  0  0  0  0  0  0  0
   -3.9445   -1.5138    0.4277 C   0  0  0  0  0  0  0  0  0  0  0  0
   -4.4108   -0.2203    0.2508 C   0  0  0  0  0  0  0  0  0  0  0  0
   -3.4863    0.8385    0.0228 C   0  0  0  0  0  0  0  0  0  0  0  0
   -3.8662    2.1878   -0.2269 C   0  0  0  0  0  3  0  0  0  0  0  0
   -2.8893    3.1437   -0.4674 C   0  0  0  0  0  0  0  0  0  0  0  0
   -1.5111    2.8096   -0.4312 C   0  0  0  0  0  0  0  0  0  0  0  0
    0.3364    1.0957   -0.0302 C   0  0  1  0  0  3  0  0  0  0  0  0
    1.4413    1.9159   -0.6912 C   0  0  1  0  0  0  0  0  0  0  0  0
    2.6696    1.6103    0.1469 C   0  0  0  0  0  0  0  0  0  0  0  0
    2.3302    0.8565    1.2342 C   0  0  0  0  0  0  0  0  0  0  0  0
    0.8727    0.5331    1.2016 C   0  0  1  0  0  3  0  0  0  0  0  0
    1.5828    1.7509   -2.2085 C   0  0  0  0  0  0  0  0  0  0  0  0
    4.0315    2.0523   -0.2766 C   0  0  0  0  0  0  0  0  0  0  0  0
    3.2238    0.3249    2.3096 C   0  0  0  0  0  0  0  0  0  0  0  0
    0.1436    0.3322    2.5072 C   0  0  0  0  0  0  0  0  0  0  0  0
   -2.1305   -2.7856    0.4176 H   0  0  0  0  0  0  0  0  0  0  0  0
   -4.6338   -2.3522    0.6012 H   0  0  0  0  0  0  0  0  0  0  0  0
   -5.4890    0.0024    0.2739 H   0  0  0  0  0  0  0  0  0  0  0  0
   -4.9346    2.4503   -0.2424 H   0  0  0  0  0  0  0  0  0  0  0  0
   -3.1809    4.1838   -0.6776 H   0  0  0  0  0  0  0  0  0  0  0  0
   -0.7667    3.6014   -0.5984 H   0  0  0  0  0  0  0  0  0  0  0  0
    1.1975    2.9903   -0.4952 H   0  0  0  0  0  0  0  0  0  0  0  0
    1.8619    0.7125   -2.4718 H   0  0  0  0  0  0  0  0  0  0  0  0
    2.3517    2.4353   -2.6194 H   0  0  0  0  0  0  0  0  0  0  0  0
    0.6221    1.9764   -2.7131 H   0  0  0  0  0  0  0  0  0  0  0  0
    4.0491    3.1304   -0.5447 H   0  0  0  0  0  0  0  0  0  0  0  0
    4.7904    1.8825    0.5106 H   0  0  0  0  0  0  0  0  0  0  0  0
    4.3633    1.4961   -1.1813 H   0  0  0  0  0  0  0  0  0  0  0  0
    4.2747    0.6435    2.1753 H   0  0  0  0  0  0  0  0  0  0  0  0
    3.2030   -0.7866    2.3159 H   0  0  0  0  0  0  0  0  0  0  0  0
    2.8953    0.6535    3.3183 H   0  0  0  0  0  0  0  0  0  0  0  0
    0.4996   -0.5823    3.0232 H   0  0  0  0  0  0  0  0  0  0  0  0
    0.3404    1.1927    3.1850 H   0  0  0  0  0  0  0  0  0  0  0  0
   -0.9497    0.2436    2.3805 H   0  0  0  0  0  0  0  0  0  0  0  0
  1  4  1  0  0  0  0
  2  3  2  0  0  0  0
  3  7  1  0  0  0  0
  3  1  1  0  0  0  0
  4 20  1  0  0  0  0
  4  5  2  0  0  0  0
  5 21  1  0  0  0  0
  6 22  1  0  0  0  0
  6  5  1  0  0  0  0
  7  6  2  0  0  0  0
  8  7  1  0  0  0  0
  9 10  2  0  0  0  0
  9  8  1  0  0  0  0
 10  2  1  0  0  0  0
 11  2  1  1  0  0  0
 11 15  1  0  0  0  0
 12 26  1  1  0  0  0
 12 11  1  0  0  0  0
 12 13  1  0  0  0  0
 13 14  2  0  0  0  0
 14 18  1  0  0  0  0
 15 14  1  0  0  0  0
 15 19  1  1  0  0  0
 16 12  1  0  0  0  0
 17 13  1  0  0  0  0
 17 31  1  0  0  0  0
 18 34  1  0  0  0  0
 18 35  1  0  0  0  0
 19 36  1  0  0  0  0
 19 37  1  0  0  0  0
 23  8  1  0  0  0  0
 24  9  1  0  0  0  0
 25 10  1  0  0  0  0
 27 16  1  0  0  0  0
 28 16  1  0  0  0  0
 29 16  1  0  0  0  0
 30 17  1  0  0  0  0
 32 17  1  0  0  0  0
 33 18  1  0  0  0  0
 38 19  1  0  0  0  0
M  END
