1,12
q = 0.0, confidence = 1.0

 32 35  0  0  1  0  0  0  0  0999 V2000
    2.0100   -0.3122    0.1655 N   0  0  0  0  0  2  0  0  0  0  0  0
    3.1709   -0.9764    0.1585 C   0  0  0  0  0  0  0  0  0  0  0  0
    4.4295   -0.3323    0.1629 C   0  0  0  0  0  0  0  0  0  0  0  0
    4.4814    1.0530    0.1352 C   0  0  0  0  0  0  0  0  0  0  0  0
    3.2693    1.7983    0.1483 C   0  0  0  0  0  0  0  0  0  0  0  0
    3.2265    3.2208    0.0820 C   0  0  0  0  0  3  0  0  0  0  0  0
    2.0055    3.8783    0.0860 C   0  0  0  0  0  0  0  0  0  0  0  0
    0.7913    3.1547    0.1988 C   0  0  0  0  0  0  0  0  0  0  0  0
    0.7829    1.7605    0.2867 C   0  0  0  0  0  0  0  0  0  0  0  0
    2.0341    1.0663    0.2105 C   0  0  0  0  0  0  0  0  0  0  0  0
   -0.4602    0.9999    0.5599 C   0  0  1  0  0  3  0  0  0  0  0  0
   -0.5941    0.1497    1.6970 C   0  0  0  0  0  3  0  0  0  0  0  0
   -2.0493    0.0980    2.1315 C   0  0  0  0  0  0  0  0  0  0  0  0
   -2.7663    0.8762    1.0538 C   0  0  0  0  0  0  0  0  0  0  0  0
   -1.8222    1.4328    0.1545 C   0  0  0  0  0  0  0  0  0  0  0  0
   -2.2448    2.2116   -0.9355 C   0  0  0  0  0  0  0  0  0  0  0  0
   -3.6213    2.4226   -1.1186 C   0  0  0  0  0  0  0  0  0  0  0  0
   -4.5591    1.8577   -0.2354 C   0  0  0  0  0  0  0  0  0  0  0  0
   -4.1356    1.0746    0.8540 C   0  0  0  0  0  0  0  0  0  0  0  0
    3.1000   -2.0740    0.1199 H   0  0  0  0  0  0  0  0  0  0  0  0
    5.3439   -0.9420    0.1587 H   0  0  0  0  0  0  0  0  0  0  0  0
    5.4434    1.5869    0.0979 H   0  0  0  0  0  0  0  0  0  0  0  0
    4.1721    3.7796    0.0160 H   0  0  0  0  0  0  0  0  0  0  0  0
    1.9714    4.9763    0.0225 H   0  0  0  0  0  0  0  0  0  0  0  0
   -0.1635    3.6972    0.2514 H   0  0  0  0  0  0  0  0  0  0  0  0
    0.2174    0.0484    2.4320 H   0  0  0  0  0  0  0  0  0  0  0  0
   -2.4512   -0.9274    2.2676 H   0  0  0  0  0  0  0  0  0  0  0  0
   -2.1547    0.6045    3.1190 H   0  0  0  0  0  0  0  0  0  0  0  0
   -1.5164    2.6274   -1.6472 H   0  0  0  0  0  0  0  0  0  0  0  0
   -3.9698    3.0262   -1.9703 H   0  0  0  0  0  0  0  0  0  0  0  0
   -5.6339    2.0264   -0.4007 H   0  0  0  0  0  0  0  0  0  0  0  0
   -4.8729    0.6276    1.5384 H   0  0  0  0  0  0  0  0  0  0  0  0
  1 10  1  0  0  0  0
  2  3  2  0  0  0  0
  2  1  1  0  0  0  0
  4  5  2  0  0  0  0
  4  3  1  0  0  0  0
  5 10  1  0  0  0  0
  6  7  1  0  0  0  0
  6  5  1  0  0  0  0
  7  8  2  0  0  0  0
  8 25  1  0  0  0  0
  8  9  1  0  0  0  0
 10  9  2  0  0  0  0
 11  9  1  1  0  0  0
 11 12  1  0  0  0  0
 12 13  1  0  0  0  0
 12 26  1  0  0  0  0
 13 27  1  0  0  0  0
 13 28  1  0  0  0  0
 14 13  1  0  0  0  0
 15 11  1  0  0  0  0
 15 14  2  0  0  0  0
 16 15  1  0  0  0  0
 17 16  2  0  0  0  0
 17 18  1  0  0  0  0
 18 19  2  0  0  0  0
 19 14  1  0  0  0  0
 19 32  1  0  0  0  0
 20  2  1  0  0  0  0
 21  3  1  0  0  0  0
 22  4  1  0  0  0  0
 23  6  1  0  0  0  0
 24  7  1  0  0  0  0
 29 16  1  0  0  0  0
 30 17  1  0  0  0  0
 31 18  1  0  0  0  0
M  END
