1,2
q = -1.0

 26 28  0  0  0  0  0  0  0  0999 V2000
    2.3672   -0.7498   -0.2992 N   0  0  0  0  0  2  0  0  0  0  0  0
    2.1211    1.7385    0.2881 C   0  0  0  0  0  2  0  0  0  0  0  0
    1.9058    3.1126    0.5074 C   0  0  0  0  0  0  0  0  0  0  0  0
    0.8881    3.5148    0.3901 H   0  0  0  0  0  0  0  0  0  0  0  0
    2.9718    3.9582    0.8436 C   0  0  0  0  0  0  0  0  0  0  0  0
    2.7897    5.0323    1.0075 H   0  0  0  0  0  0  0  0  0  0  0  0
    4.2810    3.4486    0.9361 C   0  0  0  0  0  0  0  0  0  0  0  0
    5.1248    4.1223    1.1474 H   0  0  0  0  0  0  0  0  0  0  0  0
    4.5166    2.0843    0.7401 C   0  0  0  0  0  0  0  0  0  0  0  0
    5.5527    1.7243    0.7571 H   0  0  0  0  0  0  0  0  0  0  0  0
    3.4427    1.2027    0.4599 C   0  0  0  0  0  0  0  0  0  0  0  0
    3.5259   -0.2399    0.2206 C   0  0  0  0  0  0  0  0  0  0  0  0
    4.6284   -1.1374    0.4728 C   0  0  0  0  0  0  0  0  0  0  0  0
    5.7735   -0.7880    1.2486 C   0  0  0  0  0  0  0  0  0  0  0  0
    5.8114    0.1849    1.7498 H   0  0  0  0  0  0  0  0  0  0  0  0
    6.8187   -1.6837    1.4330 C   0  0  0  0  0  0  0  0  0  0  0  0
    7.6826   -1.3897    2.0477 H   0  0  0  0  0  0  0  0  0  0  0  0
    6.7723   -2.9773    0.8552 C   0  0  0  0  0  0  0  0  0  0  0  0
    7.6128   -3.6734    0.9965 H   0  0  0  0  0  0  0  0  0  0  0  0
    5.6477   -3.3743    0.1476 C   0  0  0  0  0  0  0  0  0  0  0  0
    5.5743   -4.3919   -0.2658 H   0  0  0  0  0  0  0  0  0  0  0  0
    4.5502   -2.4869   -0.0352 C   0  0  0  0  0  0  0  0  0  0  0  0
    3.3454   -2.9078   -0.6666 C   0  0  0  0  0  0  0  0  0  0  0  0
    3.2520   -3.9304   -1.0592 H   0  0  0  0  0  0  0  0  0  0  0  0
    2.2767   -2.0427   -0.7331 C   0  0  0  0  0  0  0  0  0  0  0  0
    1.2932   -2.3236   -1.1376 H   0  0  0  0  0  0  0  0  0  0  0  0
  1 12  1  0  0  0  0
  2 11  1  0  0  0  0
  2  3  1  0  0  0  0
  3  5  2  0  0  0  0
  4  3  1  0  0  0  0
  5  7  1  0  0  0  0
  5  6  1  0  0  0  0
  7  8  1  0  0  0  0
  9 10  1  0  0  0  0
  9  7  2  0  0  0  0
 11  9  1  0  0  0  0
 12 11  2  0  0  0  0
 12 13  1  0  0  0  0
 13 14  1  0  0  0  0
 14 16  2  0  0  0  0
 14 15  1  0  0  0  0
 16 17  1  0  0  0  0
 18 19  1  0  0  0  0
 18 16  1  0  0  0  0
 20 18  2  0  0  0  0
 21 20  1  0  0  0  0
 22 20  1  0  0  0  0
 22 13  2  0  0  0  0
 23 22  1  0  0  0  0
 24 23  1  0  0  0  0
 25 23  2  0  0  0  0
 25  1  1  0  0  0  0
 26 25  1  0  0  0  0
M  END
