2,20
q = -1.0

 24 25  0  0  0  0  0  0  0  0999 V2000
   -6.2375   -2.7593    0.7045 O   0  0  0  0  0  0  0  0  0  0  0  0
   -2.3231    1.7898    0.2855 N   0  0  0  0  0  2  0  0  0  0  0  0
   -2.0052    3.1001    0.3918 C   0  0  0  0  0  0  0  0  0  0  0  0
   -0.9631    3.3474    0.1377 H   0  0  0  0  0  0  0  0  0  0  0  0
   -2.9402    4.0543    0.7956 C   0  0  0  0  0  0  0  0  0  0  0  0
   -2.6409    5.1089    0.8691 H   0  0  0  0  0  0  0  0  0  0  0  0
   -4.2479    3.6356    1.0989 C   0  0  0  0  0  0  0  0  0  0  0  0
   -5.0082    4.3632    1.4199 H   0  0  0  0  0  0  0  0  0  0  0  0
   -4.5724    2.2810    0.9879 C   0  0  0  0  0  0  0  0  0  0  0  0
   -5.5854    1.9238    1.2180 H   0  0  0  0  0  0  0  0  0  0  0  0
   -3.5986    1.3514    0.5771 C   0  0  0  0  0  0  0  0  0  0  0  0
   -3.7705   -0.0876    0.4106 C   0  0  0  0  0  0  0  0  0  0  0  0
   -4.9736   -0.7772    0.6452 C   0  0  0  0  0  3  0  0  0  0  0  0
   -5.8889   -0.2660    0.9786 H   0  0  0  0  0  0  0  0  0  0  0  0
   -5.0304   -2.1683    0.4535 C   0  0  0  0  0  0  0  0  0  0  0  0
   -3.8734   -2.8589    0.0254 C   0  0  0  0  0  0  0  0  0  0  0  0
   -3.8986   -3.9465   -0.1302 H   0  0  0  0  0  0  0  0  0  0  0  0
   -2.6749   -2.1618   -0.2066 C   0  0  0  0  0  0  0  0  0  0  0  0
   -1.7822   -2.7132   -0.5395 H   0  0  0  0  0  0  0  0  0  0  0  0
   -2.5911   -0.7716   -0.0220 C   0  0  0  0  0  3  0  0  0  0  0  0
   -6.3465   -4.1560    0.5284 C   0  0  0  0  0  0  0  0  0  0  0  0
   -7.3891   -4.4249    0.7822 H   0  0  0  0  0  0  0  0  0  0  0  0
   -5.6573   -4.7184    1.1993 H   0  0  0  0  0  0  0  0  0  0  0  0
   -6.1421   -4.4637   -0.5227 H   0  0  0  0  0  0  0  0  0  0  0  0
  2  3  1  0  0  0  0
  2 11  1  0  0  0  0
  3  5  2  0  0  0  0
  4  3  1  0  0  0  0
  5  6  1  0  0  0  0
  5  7  1  0  0  0  0
  7  8  1  0  0  0  0
  9  7  2  0  0  0  0
  9 10  1  0  0  0  0
 11  9  1  0  0  0  0
 12 11  2  0  0  0  0
 12 13  1  0  0  0  0
 13 14  1  0  0  0  0
 15 13  1  0  0  0  0
 15  1  1  0  0  0  0
 16 15  2  0  0  0  0
 17 16  1  0  0  0  0
 18 20  2  0  0  0  0
 18 16  1  0  0  0  0
 19 18  1  0  0  0  0
 20 12  1  0  0  0  0
 21  1  1  0  0  0  0
 21 22  1  0  0  0  0
 21 23  1  0  0  0  0
 24 21  1  0  0  0  0
M  END
