11,23
q = -1.0

 24 25  0  0  0  0  0  0  0  0999 V2000
    0.3864    2.2795   -0.1627 C   0  0  0  0  0  0  0  0  0  0  0  0
    1.4742    2.1306   -0.1036 H   0  0  0  0  0  0  0  0  0  0  0  0
   -0.1963    3.5441   -0.2444 C   0  0  0  0  0  0  0  0  0  0  0  0
    0.4426    4.4375   -0.2506 H   0  0  0  0  0  0  0  0  0  0  0  0
   -1.5939    3.6248   -0.3186 C   0  0  0  0  0  0  0  0  0  0  0  0
   -2.0949    4.6020   -0.3866 H   0  0  0  0  0  0  0  0  0  0  0  0
   -2.3595    2.4558   -0.3081 C   0  0  0  0  0  0  0  0  0  0  0  0
   -3.4501    2.5036   -0.3697 H   0  0  0  0  0  0  0  0  0  0  0  0
   -1.7341    1.1916   -0.2202 C   0  0  0  0  0  0  0  0  0  0  0  0
   -2.3844   -0.1265   -0.1916 C   0  0  0  0  0  0  0  0  0  0  0  0
   -1.5123   -1.2520   -0.1053 C   0  0  0  0  0  2  0  0  0  0  0  0
   -2.0242   -2.5513   -0.0624 C   0  0  0  0  0  0  0  0  0  0  0  0
   -1.3273   -3.4000    0.0092 H   0  0  0  0  0  0  0  0  0  0  0  0
   -3.4116   -2.7577   -0.1155 C   0  0  0  0  0  0  0  0  0  0  0  0
   -3.8196   -3.7799   -0.0909 H   0  0  0  0  0  0  0  0  0  0  0  0
   -4.2946   -1.6732   -0.2111 C   0  0  0  0  0  0  0  0  0  0  0  0
   -5.3769   -1.8393   -0.2752 H   0  0  0  0  0  0  0  0  0  0  0  0
   -3.7831   -0.3698   -0.2394 C   0  0  0  0  0  0  0  0  0  0  0  0
   -5.8605    0.7650    0.2212 C   0  0  0  0  0  0  0  0  0  0  0  0
   -5.8434    0.3236    1.4900 F   0  0  0  0  0  0  0  0  0  0  0  0
   -6.7652    0.0286   -0.4615 F   0  0  0  0  0  0  0  0  0  0  0  0
   -6.2644    2.0414    0.2043 F   0  0  0  0  0  0  0  0  0  0  0  0
   -0.3580    1.1545   -0.1519 N   0  0  0  0  0  2  0  0  0  0  0  0
   -4.6231    0.7387   -0.3569 O   0  0  0  0  0  0  0  0  0  0  0  0
  1 23  1  0  0  0  0
  1  2  1  0  0  0  0
  3  1  2  0  0  0  0
  4  3  1  0  0  0  0
  5  7  2  0  0  0  0
  5  3  1  0  0  0  0
  6  5  1  0  0  0  0
  7  9  1  0  0  0  0
  8  7  1  0  0  0  0
  9 10  2  0  0  0  0
  9 23  1  0  0  0  0
 10 11  1  0  0  0  0
 11 12  1  0  0  0  0
 12 13  1  0  0  0  0
 14 15  1  0  0  0  0
 14 12  2  0  0  0  0
 16 14  1  0  0  0  0
 17 16  1  0  0  0  0
 18 16  2  0  0  0  0
 18 10  1  0  0  0  0
 19 20  1  0  0  0  0
 21 19  1  0  0  0  0
 22 19  1  0  0  0  0
 24 18  1  0  0  0  0
 24 19  1  0  0  0  0
M  END
