2
q = -2.0, confidence = 0.97

 49 50  0  0  1  0  0  0  0  0999 V2000
    1.3918    1.7095    1.2720 Si  0  0  0  0  0  0  0  0  0  0  0  0
    2.1285    0.6688    0.0361 N   0  0  0  0  0  2  0  0  0  0  0  0
   -0.5588   -2.6199    2.6612 C   0  0  0  0  0  0  0  0  0  0  0  0
   -0.1717   -3.2670    3.4624 H   0  0  0  0  0  0  0  0  0  0  0  0
   -2.0661   -2.3601    0.7464 C   0  0  0  0  0  0  0  0  0  0  0  0
   -2.8263   -2.7630    0.0610 H   0  0  0  0  0  0  0  0  0  0  0  0
   -0.2948    0.8777    1.1087 C   0  0  2  0  0  3  0  0  0  0  0  0
   -1.5513   -3.1338    1.7754 C   0  0  0  0  0  0  0  0  0  0  0  0
   -1.9082   -4.1654    1.9126 H   0  0  0  0  0  0  0  0  0  0  0  0
   -1.9045   -0.0004   -0.3811 C   0  0  0  0  0  0  0  0  0  0  0  0
   -1.5917   -1.0257    0.5902 C   0  0  0  0  0  0  0  0  0  0  0  0
   -0.0737   -1.3264    2.5335 C   0  0  0  0  0  0  0  0  0  0  0  0
    0.6838   -0.9393    3.2288 H   0  0  0  0  0  0  0  0  0  0  0  0
   -0.5984   -0.4868    1.5063 C   0  0  0  0  0  0  0  0  0  0  0  0
   -1.1529    1.1512   -0.0110 C   0  0  0  0  0  0  0  0  0  0  0  0
   -1.1509    2.0879   -0.5871 H   0  0  0  0  0  0  0  0  0  0  0  0
    4.2209    1.9376   -0.3493 C   0  0  0  0  0  0  0  0  0  0  0  0
    4.2014    2.4067    0.6563 H   0  0  0  0  0  0  0  0  0  0  0  0
    3.6981    2.6096   -1.0586 H   0  0  0  0  0  0  0  0  0  0  0  0
    5.2829    1.8630   -0.6592 H   0  0  0  0  0  0  0  0  0  0  0  0
   -4.6405    1.4462   -0.3238 C   0  0  0  0  0  0  0  0  0  0  0  0
   -4.4069    2.2383   -1.0710 H   0  0  0  0  0  0  0  0  0  0  0  0
   -3.9352    1.6121    0.5208 H   0  0  0  0  0  0  0  0  0  0  0  0
   -4.3793    0.0620   -0.9482 C   0  0  0  0  0  0  0  0  0  0  0  0
   -5.0885   -0.0997   -1.7863 H   0  0  0  0  0  0  0  0  0  0  0  0
   -4.6026   -0.7208   -0.1929 H   0  0  0  0  0  0  0  0  0  0  0  0
    4.2699   -0.3593    0.6981 C   0  0  0  0  0  0  0  0  0  0  0  0
    4.2165    0.0760    1.7154 H   0  0  0  0  0  0  0  0  0  0  0  0
    5.3403   -0.4918    0.4385 H   0  0  0  0  0  0  0  0  0  0  0  0
    3.7895   -1.3580    0.7230 H   0  0  0  0  0  0  0  0  0  0  0  0
    1.2575    3.5241    0.7722 C   0  0  0  0  0  0  0  0  0  0  0  0
    2.2396    4.0343    0.8274 H   0  0  0  0  0  0  0  0  0  0  0  0
    0.5573    4.0566    1.4490 H   0  0  0  0  0  0  0  0  0  0  0  0
    0.8838    3.6251   -0.2664 H   0  0  0  0  0  0  0  0  0  0  0  0
    2.1569    1.5824    2.9931 C   0  0  0  0  0  0  0  0  0  0  0  0
    3.1246    2.1229    3.0344 H   0  0  0  0  0  0  0  0  0  0  0  0
    2.3426    0.5329    3.2929 H   0  0  0  0  0  0  0  0  0  0  0  0
    1.4799    2.0458    3.7406 H   0  0  0  0  0  0  0  0  0  0  0  0
   -2.9377   -0.1027   -1.4668 C   0  0  0  0  0  0  0  0  0  0  0  0
   -2.8506   -1.0867   -1.9734 H   0  0  0  0  0  0  0  0  0  0  0  0
   -2.7243    0.6597   -2.2445 H   0  0  0  0  0  0  0  0  0  0  0  0
    3.6801   -0.0852   -1.7298 C   0  0  0  0  0  0  0  0  0  0  0  0
    3.2131   -1.0940   -1.7555 H   0  0  0  0  0  0  0  0  0  0  0  0
    4.7438   -0.2222   -2.0100 H   0  0  0  0  0  0  0  0  0  0  0  0
    3.1947    0.5478   -2.4980 H   0  0  0  0  0  0  0  0  0  0  0  0
    3.5614    0.5468   -0.3293 C   0  0  0  0  0  0  0  0  0  0  0  0
   -6.0084    1.6209    0.1541 C   0  0  0  0  0  0  0  0  0  0  0  0
   -8.1661    1.8700    0.9213 H   0  0  0  0  0  0  0  0  0  0  0  0
   -7.1563    1.7485    0.5556 C   0  0  0  0  0  0  0  0  0  0  0  0
  1 35  1  0  0  0  0
  2  1  1  0  0  0  0
  3  4  1  0  0  0  0
  5  8  1  0  0  0  0
  6  5  1  0  0  0  0
  7  1  1  6  0  0  0
  7 14  1  0  0  0  0
  8  9  1  0  0  0  0
  8  3  2  0  0  0  0
 10 15  2  0  0  0  0
 10 11  1  0  0  0  0
 11  5  2  0  0  0  0
 11 14  1  0  0  0  0
 12  3  1  0  0  0  0
 12 13  1  0  0  0  0
 14 12  2  0  0  0  0
 15  7  1  0  0  0  0
 16 15  1  0  0  0  0
 17 46  1  0  0  0  0
 17 18  1  0  0  0  0
 19 17  1  0  0  0  0
 20 17  1  0  0  0  0
 21 47  1  0  0  0  0
 21 23  1  0  0  0  0
 22 21  1  0  0  0  0
 24 21  1  0  0  0  0
 24 26  1  0  0  0  0
 25 24  1  0  0  0  0
 27 30  1  0  0  0  0
 27 28  1  0  0  0  0
 29 27  1  0  0  0  0
 31 32  1  0  0  0  0
 31  1  1  0  0  0  0
 31 33  1  0  0  0  0
 34 31  1  0  0  0  0
 35 36  1  0  0  0  0
 35 37  1  0  0  0  0
 35 38  1  0  0  0  0
 39 24  1  0  0  0  0
 39 10  1  0  0  0  0
 40 39  1  0  0  0  0
 41 39  1  0  0  0  0
 42 46  1  0  0  0  0
 43 42  1  0  0  0  0
 44 42  1  0  0  0  0
 45 42  1  0  0  0  0
 46  2  1  0  0  0  0
 46 27  1  0  0  0  0
 47 49  3  0  0  0  0
 49 48  1  0  0  0  0
M  END
