1,6
q = -1.0, confidence = 0.0

 16 16  0  0  1  0  0  0  0  0999 V2000
   -0.7310   -1.8829   -0.7097 N   0  0  0  0  0  2  0  0  0  0  0  0
   -0.2518   -2.7766   -0.8675 H   0  0  0  0  0  0  0  0  0  0  0  0
   -4.0317   -0.5806   -0.7161 N   0  0  0  0  0  0  0  0  0  0  0  0
   -2.0287   -1.9109   -0.8619 C   0  0  2  0  0  3  0  0  0  0  0  0
   -2.6858   -0.6222   -0.6419 C   0  0  0  0  0  0  0  0  0  0  0  0
   -1.8176    0.4777   -0.3455 C   0  0  0  0  0  3  0  0  0  0  0  0
   -2.4999    1.6883   -0.0882 C   0  0  0  0  0  0  0  0  0  0  0  0
   -1.9524    2.6033    0.1813 H   0  0  0  0  0  0  0  0  0  0  0  0
   -3.8987    1.7539   -0.1618 C   0  0  0  0  0  0  0  0  0  0  0  0
   -4.4280    2.6990    0.0344 H   0  0  0  0  0  0  0  0  0  0  0  0
   -4.6268    0.5920   -0.4875 C   0  0  0  0  0  0  0  0  0  0  0  0
   -5.7279    0.6170   -0.5564 H   0  0  0  0  0  0  0  0  0  0  0  0
   -2.8042   -3.1306   -1.2243 C   0  0  0  0  0  0  0  0  0  0  0  0
   -2.1671   -4.0330   -1.2884 H   0  0  0  0  0  0  0  0  0  0  0  0
   -3.3168   -2.9693   -2.1947 H   0  0  0  0  0  0  0  0  0  0  0  0
   -3.6178   -3.2897   -0.4891 H   0  0  0  0  0  0  0  0  0  0  0  0
  2  1  1  0  0  0  0
  3  5  2  0  0  0  0
  3 11  1  0  0  0  0
  4  1  1  1  0  0  0
  4  5  1  0  0  0  0
  5  6  1  0  0  0  0
  6  7  2  0  0  0  0
  7  8  1  0  0  0  0
  9  7  1  0  0  0  0
  9 10  1  0  0  0  0
 11  9  2  0  0  0  0
 12 11  1  0  0  0  0
 13  4  1  0  0  0  0
 13 16  1  0  0  0  0
 14 13  1  0  0  0  0
 15 13  1  0  0  0  0
M  END
