2,20
q = -2.0, confidence = 0.71

 54 60  0  0  1  0  0  0  0  0999 V2000
   -2.5583    1.9558    0.1530 Si  0  0  0  0  0  0  0  0  0  0  0  0
   -0.0559   -1.3360    2.1415 N   0  0  0  0  0  2  0  0  0  0  0  0
   -2.1915    0.2285   -0.4828 C   0  0  2  0  0  0  0  0  0  0  0  0
   -1.3465   -2.2799    0.4395 C   0  0  2  0  0  0  0  0  0  0  0  0
   -3.7430    2.0373    1.6146 C   0  0  0  0  0  0  0  0  0  0  0  0
   -3.4171    1.3954    2.4551 H   0  0  0  0  0  0  0  0  0  0  0  0
   -4.7509    1.6941    1.3036 H   0  0  0  0  0  0  0  0  0  0  0  0
   -3.8320    3.0809    1.9796 H   0  0  0  0  0  0  0  0  0  0  0  0
   -3.0738    3.1997   -1.1628 C   0  0  0  0  0  0  0  0  0  0  0  0
   -2.8944    4.2380   -0.8172 H   0  0  0  0  0  0  0  0  0  0  0  0
   -4.1583    3.0885   -1.3678 H   0  0  0  0  0  0  0  0  0  0  0  0
   -2.5358    3.0403   -2.1163 H   0  0  0  0  0  0  0  0  0  0  0  0
   -0.8559   -2.5256    1.8541 C   0  0  0  0  0  0  0  0  0  0  0  0
   -1.7059   -2.6233    2.5708 H   0  0  0  0  0  0  0  0  0  0  0  0
   -0.2447   -3.4572    1.9250 H   0  0  0  0  0  0  0  0  0  0  0  0
    0.3049   -1.2259    3.5350 C   0  0  0  0  0  0  0  0  0  0  0  0
    0.8831   -2.1213    3.8704 H   0  0  0  0  0  0  0  0  0  0  0  0
   -0.5974   -1.1744    4.1913 H   0  0  0  0  0  0  0  0  0  0  0  0
    0.9271   -0.3345    3.7336 H   0  0  0  0  0  0  0  0  0  0  0  0
   -0.7697    2.1532    0.7586 C   0  0  1  0  0  3  0  0  0  0  0  0
   -0.2814    1.7341    2.0422 C   0  0  0  0  0  0  0  0  0  0  0  0
   -0.9194    1.4717    2.8962 H   0  0  0  0  0  0  0  0  0  0  0  0
    1.1362    1.6436    2.0243 C   0  0  0  0  0  0  0  0  0  0  0  0
    1.7862    1.3795    2.8671 H   0  0  0  0  0  0  0  0  0  0  0  0
    2.8887    2.3817    0.2324 C   0  0  0  0  0  0  0  0  0  0  0  0
    3.7786    2.2065    0.8558 H   0  0  0  0  0  0  0  0  0  0  0  0
    3.0078    2.8705   -1.0627 C   0  0  0  0  0  0  0  0  0  0  0  0
    4.0058    3.0904   -1.4716 H   0  0  0  0  0  0  0  0  0  0  0  0
    1.8596    3.0914   -1.8785 C   0  0  0  0  0  0  0  0  0  0  0  0
    1.9917    3.4727   -2.9020 H   0  0  0  0  0  0  0  0  0  0  0  0
    0.5780    2.8526   -1.3974 C   0  0  0  0  0  0  0  0  0  0  0  0
   -0.3001    3.0500   -2.0248 H   0  0  0  0  0  0  0  0  0  0  0  0
    0.4128    2.3892   -0.0576 C   0  0  0  0  0  0  0  0  0  0  0  0
    1.5909    2.1217    0.7497 C   0  0  0  0  0  0  0  0  0  0  0  0
   -2.4003   -0.9390    0.5051 B   0  0  0  0  0  0  0  0  0  0  0  0
   -2.9423   -0.7560    1.5758 H   0  0  0  0  0  0  0  0  0  0  0  0
   -0.1611   -2.3785   -0.7303 B   0  0  2  0  0  0  0  0  0  0  0  0
    0.8793   -2.8621   -0.3285 H   0  0  0  0  0  0  0  0  0  0  0  0
   -0.2634   -1.2235   -2.0542 B   0  0  1  0  0  0  0  0  0  0  0  0
    0.6717   -0.9066   -2.7682 H   0  0  0  0  0  0  0  0  0  0  0  0
   -1.4819    0.0779   -1.8481 B   0  0  0  0  0  2  0  0  0  0  0  0
   -1.4208    1.0551   -2.5701 H   0  0  0  0  0  0  0  0  0  0  0  0
   -2.9021   -2.5203   -0.1351 B   0  0  2  0  0  0  0  0  0  0  0  0
   -3.7688   -3.0117    0.5494 H   0  0  0  0  0  0  0  0  0  0  0  0
   -1.5620   -3.4777   -0.7124 B   0  0  0  0  0  0  0  0  0  0  0  0
   -1.4963   -4.6412   -0.3885 H   0  0  0  0  0  0  0  0  0  0  0  0
   -0.9474   -2.8342   -2.2607 B   0  0  2  0  0  0  0  0  0  0  0  0
   -0.4970   -3.6269   -3.0581 H   0  0  0  0  0  0  0  0  0  0  0  0
   -1.8717   -1.4287   -2.7392 B   0  0  1  0  0  0  0  0  0  0  0  0
   -2.1699   -1.1788   -3.8874 H   0  0  0  0  0  0  0  0  0  0  0  0
   -3.0784   -0.9971   -1.3073 B   0  0  2  0  0  0  0  0  0  0  0  0
   -2.7073   -2.7006   -1.8656 B   0  0  2  0  0  0  0  0  0  0  0  0
   -3.5970   -3.2900   -2.4370 H   0  0  0  0  0  0  0  0  0  0  0  0
   -4.2059   -0.6280   -1.5577 H   0  0  0  0  0  0  0  0  0  0  0  0
  1  5  1  0  0  0  0
  2 16  1  0  0  0  0
  3 41  1  6  0  0  0
  3  1  1  0  0  0  0
  3 35  1  0  0  0  0
  4 13  1  1  0  0  0
  5  8  1  0  0  0  0
  5  6  1  0  0  0  0
  7  5  1  0  0  0  0
  9 10  1  0  0  0  0
  9  1  1  0  0  0  0
 11  9  1  0  0  0  0
 12  9  1  0  0  0  0
 13 15  1  0  0  0  0
 13  2  1  0  0  0  0
 13 14  1  0  0  0  0
 16 19  1  0  0  0  0
 16 17  1  0  0  0  0
 16 18  1  0  0  0  0
 20  1  1  6  0  0  0
 20 21  1  0  0  0  0
 21 22  1  0  0  0  0
 23 21  2  0  0  0  0
 23 24  1  0  0  0  0
 25 34  1  0  0  0  0
 25 26  1  0  0  0  0
 27 25  2  0  0  0  0
 28 27  1  0  0  0  0
 29 31  2  0  0  0  0
 29 27  1  0  0  0  0
 30 29  1  0  0  0  0
 31 33  1  0  0  0  0
 32 31  1  0  0  0  0
 33 34  2  0  0  0  0
 33 20  1  0  0  0  0
 34 23  1  0  0  0  0
 35 36  1  0  0  0  0
 37 38  1  1  0  0  0
 37  4  1  0  0  0  0
 39 40  1  6  0  0  0
 39 37  1  0  0  0  0
 42 41  1  0  0  0  0
 43  4  1  0  0  0  0
 43 44  1  1  0  0  0
 45 46  1  0  0  0  0
 45 43  1  0  0  0  0
 45  4  1  0  0  0  0
 47 48  1  6  0  0  0
 47 39  1  0  0  0  0
 47 37  1  0  0  0  0
 49 50  1  6  0  0  0
 49 47  1  0  0  0  0
 49 39  1  0  0  0  0
 49 52  1  0  0  0  0
 51 54  1  6  0  0  0
 51  3  1  0  0  0  0
 51 35  1  0  0  0  0
 52 53  1  6  0  0  0
 52 51  1  0  0  0  0
 52 43  1  0  0  0  0
M  END
