3,20
q = -1.0

 32 34  0  0  1  0  0  0  0  0999 V2000
   -6.1196   -1.7253   -0.5730 Cl  0  0  0  0  0  0  0  0  0  0  0  0
   -1.9910    2.5636   -0.0080 N   0  0  0  0  0  0  0  0  0  0  0  0
   -0.1768    0.2891   -0.6742 N   0  0  0  0  0  2  0  0  0  0  0  0
   -0.0299    3.5728   -0.6395 O   0  0  0  0  0  0  0  0  0  0  0  0
   -0.8002    2.6203   -0.7294 C   0  0  0  0  0  0  0  0  0  0  0  0
   -0.5003    1.3837   -1.5764 C   0  0  0  0  0  0  0  0  0  0  0  0
   -1.3676    1.1229   -2.2220 H   0  0  0  0  0  0  0  0  0  0  0  0
    0.3697    1.6049   -2.2135 H   0  0  0  0  0  0  0  0  0  0  0  0
   -1.1571   -0.2764    0.0145 C   0  0  1  0  0  3  0  0  0  0  0  0
   -3.5601   -0.8405   -0.2991 C   0  0  0  0  0  0  0  0  0  0  0  0
   -3.2676   -1.8976   -0.3491 H   0  0  0  0  0  0  0  0  0  0  0  0
   -4.9090   -0.4855   -0.3929 C   0  0  0  0  0  0  0  0  0  0  0  0
   -5.2951    0.8654   -0.3419 C   0  0  0  0  0  0  0  0  0  0  0  0
   -6.3578    1.1354   -0.4116 H   0  0  0  0  0  0  0  0  0  0  0  0
   -4.3138    1.8519   -0.2266 C   0  0  0  0  0  0  0  0  0  0  0  0
   -4.6176    2.9075   -0.2119 H   0  0  0  0  0  0  0  0  0  0  0  0
   -2.9423    1.5227   -0.1482 C   0  0  0  0  0  0  0  0  0  0  0  0
   -2.5599    0.1480   -0.1540 C   0  0  0  0  0  0  0  0  0  0  0  0
   -0.7153   -1.3292    0.9111 C   0  0  0  0  0  0  0  0  0  0  0  0
    0.6855   -1.6049    0.7983 C   0  0  0  0  0  3  0  0  0  0  0  0
    1.1951   -2.6692    1.5711 C   0  0  0  0  0  0  0  0  0  0  0  0
    2.2483   -2.9695    1.4637 H   0  0  0  0  0  0  0  0  0  0  0  0
    0.3786   -3.3686    2.4732 C   0  0  0  0  0  0  0  0  0  0  0  0
    0.8099   -4.1842    3.0754 H   0  0  0  0  0  0  0  0  0  0  0  0
   -0.9823   -3.0355    2.6237 C   0  0  0  0  0  0  0  0  0  0  0  0
   -1.6095   -3.5741    3.3494 H   0  0  0  0  0  0  0  0  0  0  0  0
   -1.5323   -2.0212    1.8365 C   0  0  0  0  0  0  0  0  0  0  0  0
   -2.5948   -1.7561    1.9443 H   0  0  0  0  0  0  0  0  0  0  0  0
   -2.3240    3.7270    0.8114 C   0  0  0  0  0  0  0  0  0  0  0  0
   -1.3763    4.2251    1.0848 H   0  0  0  0  0  0  0  0  0  0  0  0
   -2.8656    3.3997    1.7182 H   0  0  0  0  0  0  0  0  0  0  0  0
   -2.9452    4.4645    0.2598 H   0  0  0  0  0  0  0  0  0  0  0  0
  1 12  1  0  0  0  0
  2 29  1  0  0  0  0
  3  9  1  0  0  0  0
  5  4  2  0  0  0  0
  5  2  1  0  0  0  0
  6  5  1  0  0  0  0
  6  3  1  0  0  0  0
  7  6  1  0  0  0  0
  8  6  1  0  0  0  0
  9 19  1  6  0  0  0
 10 18  1  0  0  0  0
 11 10  1  0  0  0  0
 12 13  1  0  0  0  0
 12 10  2  0  0  0  0
 13 15  2  0  0  0  0
 14 13  1  0  0  0  0
 15 16  1  0  0  0  0
 15 17  1  0  0  0  0
 17  2  1  0  0  0  0
 18 17  2  0  0  0  0
 18  9  1  0  0  0  0
 19 27  1  0  0  0  0
 20 19  2  0  0  0  0
 20 21  1  0  0  0  0
 21 23  2  0  0  0  0
 22 21  1  0  0  0  0
 23 25  1  0  0  0  0
 23 24  1  0  0  0  0
 25 26  1  0  0  0  0
 27 28  1  0  0  0  0
 27 25  2  0  0  0  0
 29 30  1  0  0  0  0
 29 31  1  0  0  0  0
 32 29  1  0  0  0  0
M  END
