1,3
q = -1.0, confidence = 0.0

 20 21  0  0  0  0  0  0  0  0999 V2000
   -0.5664    2.5156   -0.9565 N   0  0  0  0  0  2  0  0  0  0  0  0
    3.6421   -2.7054   -2.0755 Br  0  0  0  0  0  0  0  0  0  0  0  0
    0.8405    0.2597   -1.1089 C   0  0  0  0  0  2  0  0  0  0  0  0
    1.5740   -0.9412   -1.1678 C   0  0  0  0  0  0  0  0  0  0  0  0
    1.3325   -1.7854   -0.5077 H   0  0  0  0  0  0  0  0  0  0  0  0
    2.6419   -1.0770   -2.0676 C   0  0  0  0  0  0  0  0  0  0  0  0
    3.0046   -0.0463   -2.9506 C   0  0  0  0  0  0  0  0  0  0  0  0
    3.8448   -0.1751   -3.6461 H   0  0  0  0  0  0  0  0  0  0  0  0
    2.2696    1.1438   -2.9170 C   0  0  0  0  0  0  0  0  0  0  0  0
    2.5490    1.9545   -3.6078 H   0  0  0  0  0  0  0  0  0  0  0  0
    1.2001    1.3107   -2.0120 C   0  0  0  0  0  0  0  0  0  0  0  0
    0.4024    2.5382   -1.9242 C   0  0  0  0  0  0  0  0  0  0  0  0
    0.5564    3.6824   -2.7334 C   0  0  0  0  0  0  0  0  0  0  0  0
    1.3337    3.7000   -3.5093 H   0  0  0  0  0  0  0  0  0  0  0  0
   -0.2827    4.7847   -2.5451 C   0  0  0  0  0  0  0  0  0  0  0  0
   -0.1676    5.6799   -3.1751 H   0  0  0  0  0  0  0  0  0  0  0  0
   -1.2690    4.7347   -1.5473 C   0  0  0  0  0  0  0  0  0  0  0  0
   -1.9492    5.5783   -1.3652 H   0  0  0  0  0  0  0  0  0  0  0  0
   -1.3755    3.5752   -0.7713 C   0  0  0  0  0  0  0  0  0  0  0  0
   -2.1148    3.4570    0.0405 H   0  0  0  0  0  0  0  0  0  0  0  0
  1 19  1  0  0  0  0
  2  6  1  0  0  0  0
  4  3  1  0  0  0  0
  4  5  1  0  0  0  0
  6  4  2  0  0  0  0
  7  9  2  0  0  0  0
  7  6  1  0  0  0  0
  8  7  1  0  0  0  0
  9 11  1  0  0  0  0
 10  9  1  0  0  0  0
 11 12  2  0  0  0  0
 11  3  1  0  0  0  0
 12  1  1  0  0  0  0
 13 15  2  0  0  0  0
 13 12  1  0  0  0  0
 14 13  1  0  0  0  0
 15 17  1  0  0  0  0
 16 15  1  0  0  0  0
 17 18  1  0  0  0  0
 17 19  2  0  0  0  0
 19 20  1  0  0  0  0
M  END
