1,10
q = -1.0, confidence = 0.0

 31 32  0  0  1  0  0  0  0  0999 V2000
   -2.2795   -0.7891   -0.3604 N   0  0  0  0  0  2  0  0  0  0  0  0
   -2.5966   -0.1598   -1.5315 C   0  0  2  0  0  3  0  0  0  0  0  0
    0.4874    1.5146   -2.6617 C   0  0  0  0  0  0  0  0  0  0  0  0
   -1.3989    0.2488   -2.2879 C   0  0  2  0  0  3  0  0  0  0  0  0
    0.8491    0.1311   -2.8021 C   0  0  1  0  0  3  0  0  0  0  0  0
    1.3893    2.6889   -2.9093 C   0  0  0  0  0  0  0  0  0  0  0  0
    1.3507    3.0183   -3.9718 H   0  0  0  0  0  0  0  0  0  0  0  0
    2.4513    2.4542   -2.6936 H   0  0  0  0  0  0  0  0  0  0  0  0
    1.1029    3.5694   -2.2979 H   0  0  0  0  0  0  0  0  0  0  0  0
   -0.3134   -0.6619   -2.5732 C   0  0  2  0  0  3  0  0  0  0  0  0
   -0.4414   -2.1459   -2.7818 C   0  0  0  0  0  0  0  0  0  0  0  0
   -0.4701   -2.3942   -3.8657 H   0  0  0  0  0  0  0  0  0  0  0  0
   -1.3735   -2.5399   -2.3331 H   0  0  0  0  0  0  0  0  0  0  0  0
    0.4006   -2.7209   -2.3462 H   0  0  0  0  0  0  0  0  0  0  0  0
   -0.9032    1.5949   -2.3645 C   0  0  0  0  0  0  0  0  0  0  0  0
   -3.9405    0.0973   -1.8699 C   0  0  0  0  0  0  0  0  0  0  0  0
   -4.1701    0.6176   -2.8103 H   0  0  0  0  0  0  0  0  0  0  0  0
   -1.6989    2.8515   -2.1740 C   0  0  0  0  0  0  0  0  0  0  0  0
   -1.1475    3.6134   -1.5866 H   0  0  0  0  0  0  0  0  0  0  0  0
   -2.6505    2.6563   -1.6409 H   0  0  0  0  0  0  0  0  0  0  0  0
   -1.9588    3.3161   -3.1505 H   0  0  0  0  0  0  0  0  0  0  0  0
    2.1902   -0.3874   -3.2361 C   0  0  0  0  0  0  0  0  0  0  0  0
    2.3855   -1.4077   -2.8473 H   0  0  0  0  0  0  0  0  0  0  0  0
    3.0166    0.2659   -2.8890 H   0  0  0  0  0  0  0  0  0  0  0  0
    2.2742   -0.4459   -4.3441 H   0  0  0  0  0  0  0  0  0  0  0  0
   -4.6102   -1.0318    0.1693 C   0  0  0  0  0  0  0  0  0  0  0  0
   -5.3804   -1.3990    0.8622 H   0  0  0  0  0  0  0  0  0  0  0  0
   -3.2535   -1.2264    0.4558 C   0  0  0  0  0  0  0  0  0  0  0  0
   -2.9248   -1.7283    1.3804 H   0  0  0  0  0  0  0  0  0  0  0  0
   -4.9522   -0.3439   -1.0080 C   0  0  0  0  0  0  0  0  0  0  0  0
   -6.0093   -0.1632   -1.2569 H   0  0  0  0  0  0  0  0  0  0  0  0
  1 28  1  0  0  0  0
  2 16  1  1  0  0  0
  2  1  1  0  0  0  0
  3 15  2  0  0  0  0
  4 15  1  1  0  0  0
  4  2  1  0  0  0  0
  5 22  1  6  0  0  0
  5  3  1  0  0  0  0
  5 10  1  0  0  0  0
  6  8  1  0  0  0  0
  6  3  1  0  0  0  0
  6  9  1  0  0  0  0
  7  6  1  0  0  0  0
 10 11  1  6  0  0  0
 10  4  1  0  0  0  0
 11 14  1  0  0  0  0
 11 13  1  0  0  0  0
 12 11  1  0  0  0  0
 15 18  1  0  0  0  0
 16 30  2  0  0  0  0
 17 16  1  0  0  0  0
 18 20  1  0  0  0  0
 18 19  1  0  0  0  0
 21 18  1  0  0  0  0
 22 24  1  0  0  0  0
 22 23  1  0  0  0  0
 25 22  1  0  0  0  0
 26 28  2  0  0  0  0
 26 27  1  0  0  0  0
 28 29  1  0  0  0  0
 30 26  1  0  0  0  0
 31 30  1  0  0  0  0
M  END
