17,35
q = -1.0

 45 49  0  0  1  0  0  0  0  0999 V2000
   -5.6940   -1.6658   -0.2062 O   0  0  0  0  0  0  0  0  0  0  0  0
    1.3192    5.9026   -0.0445 O   0  0  0  0  0  0  0  0  0  0  0  0
   -3.3499    1.1324    0.1080 C   0  0  0  0  0  0  0  0  0  0  0  0
   -4.3875    0.2251    0.4455 C   0  0  0  0  0  0  0  0  0  0  0  0
   -2.6786   -1.9934   -1.2237 C   0  0  0  0  0  0  0  0  0  0  0  0
   -2.5349    0.9345   -1.1664 C   0  0  1  0  0  0  0  0  0  0  0  0
   -2.2017    1.9253   -1.5277 H   0  0  0  0  0  0  0  0  0  0  0  0
   -1.6649   -4.1128   -0.6132 C   0  0  0  0  0  0  0  0  0  0  0  0
   -1.7463   -5.2071   -0.5135 H   0  0  0  0  0  0  0  0  0  0  0  0
    0.4849    2.4711    0.8558 C   0  0  0  0  0  0  0  0  0  0  0  0
    0.4036    1.8346    1.7513 H   0  0  0  0  0  0  0  0  0  0  0  0
   -3.8498   -1.1366   -1.6740 C   0  0  1  0  0  0  0  0  0  0  0  0
   -4.4600   -1.6967   -2.4087 H   0  0  0  0  0  0  0  0  0  0  0  0
   -3.0705    2.2010    0.9788 C   0  0  0  0  0  0  0  0  0  0  0  0
   -2.2688    2.9106    0.7252 H   0  0  0  0  0  0  0  0  0  0  0  0
   -1.3266    0.0738   -0.8408 C   0  0  1  0  0  3  0  0  0  0  0  0
   -0.1399    0.5127   -0.4680 N   0  0  0  0  0  2  0  0  0  0  0  0
   -1.4720   -1.3595   -0.8306 C   0  0  0  0  0  0  0  0  0  0  0  0
    0.9536    4.6054   -0.2330 C   0  0  0  0  0  0  0  0  0  0  0  0
    1.4442    6.7365   -1.1799 C   0  0  0  0  0  0  0  0  0  0  0  0
    1.7417    7.7338   -0.8062 H   0  0  0  0  0  0  0  0  0  0  0  0
    0.4832    6.8307   -1.7344 H   0  0  0  0  0  0  0  0  0  0  0  0
    2.2247    6.3671   -1.8831 H   0  0  0  0  0  0  0  0  0  0  0  0
   -3.7999    2.3653    2.1645 C   0  0  0  0  0  0  0  0  0  0  0  0
   -3.5644    3.2065    2.8342 H   0  0  0  0  0  0  0  0  0  0  0  0
    0.3178    2.6676   -1.5639 C   0  0  0  0  0  0  0  0  0  0  0  0
    0.1251    2.2056   -2.5439 H   0  0  0  0  0  0  0  0  0  0  0  0
   -4.8260    1.4636    2.4993 C   0  0  0  0  0  0  0  0  0  0  0  0
   -5.3937    1.5932    3.4330 H   0  0  0  0  0  0  0  0  0  0  0  0
   -4.7526   -0.9198   -0.4457 C   0  0  0  0  0  0  0  0  0  0  0  0
   -5.1192    0.4038    1.6378 C   0  0  0  0  0  0  0  0  0  0  0  0
   -5.9170   -0.3219    1.8557 H   0  0  0  0  0  0  0  0  0  0  0  0
    0.6902    4.0220   -1.4886 C   0  0  0  0  0  0  0  0  0  0  0  0
    0.7773    4.6048   -2.4150 H   0  0  0  0  0  0  0  0  0  0  0  0
   -0.3349   -2.0769   -0.3491 C   0  0  0  0  0  3  0  0  0  0  0  0
    0.2004    1.8881   -0.4003 C   0  0  0  0  0  0  0  0  0  0  0  0
   -0.4744   -3.4747   -0.2282 C   0  0  0  0  0  0  0  0  0  0  0  0
    0.3427   -4.0766    0.1973 H   0  0  0  0  0  0  0  0  0  0  0  0
   -2.7647   -3.3864   -1.1118 C   0  0  0  0  0  0  0  0  0  0  0  0
   -3.6956   -3.9014   -1.3927 H   0  0  0  0  0  0  0  0  0  0  0  0
   -3.3744    0.2117   -2.2349 C   0  0  0  0  0  0  0  0  0  0  0  0
   -4.2443    0.8426   -2.5101 H   0  0  0  0  0  0  0  0  0  0  0  0
   -2.7717    0.0502   -3.1523 H   0  0  0  0  0  0  0  0  0  0  0  0
    0.8475    3.8140    0.9355 C   0  0  0  0  0  0  0  0  0  0  0  0
    1.0629    4.2881    1.9042 H   0  0  0  0  0  0  0  0  0  0  0  0
  3  4  2  0  0  0  0
  3 14  1  0  0  0  0
  4 31  1  0  0  0  0
  5 39  2  0  0  0  0
  5 18  1  0  0  0  0
  6  7  1  6  0  0  0
  6 16  1  0  0  0  0
  6  3  1  0  0  0  0
  8  9  1  0  0  0  0
  8 37  2  0  0  0  0
 10 44  1  0  0  0  0
 10 11  1  0  0  0  0
 12 13  1  6  0  0  0
 12  5  1  0  0  0  0
 12 30  1  0  0  0  0
 14 24  2  0  0  0  0
 15 14  1  0  0  0  0
 16 18  1  0  0  0  0
 16 17  1  1  0  0  0
 17 36  1  0  0  0  0
 18 35  2  0  0  0  0
 19  2  1  0  0  0  0
 19 44  2  0  0  0  0
 20 21  1  0  0  0  0
 20  2  1  0  0  0  0
 22 20  1  0  0  0  0
 23 20  1  0  0  0  0
 24 28  1  0  0  0  0
 24 25  1  0  0  0  0
 26 33  2  0  0  0  0
 26 36  1  0  0  0  0
 27 26  1  0  0  0  0
 28 29  1  0  0  0  0
 30  1  2  0  0  0  0
 30  4  1  0  0  0  0
 31 32  1  0  0  0  0
 31 28  2  0  0  0  0
 33 19  1  0  0  0  0
 34 33  1  0  0  0  0
 35 37  1  0  0  0  0
 36 10  2  0  0  0  0
 37 38  1  0  0  0  0
 39  8  1  0  0  0  0
 40 39  1  0  0  0  0
 41 12  1  0  0  0  0
 41  6  1  0  0  0  0
 42 41  1  0  0  0  0
 43 41  1  0  0  0  0
 44 45  1  0  0  0  0
M  END
