2,3
q = -1.0, confidence = 0.0

 24 24  0  0  0  0  0  0  0  0999 V2000
    1.7435    4.0799   -0.0626 O   0  0  0  0  0  0  0  0  0  0  0  0
    1.9445    2.7449   -0.0352 N   0  0  0  0  0  2  0  0  0  0  0  0
    1.9497    0.1102    0.0250 C   0  0  0  0  0  2  0  0  0  0  0  0
    3.2027    0.8050    0.0079 C   0  0  0  0  0  0  0  0  0  0  0  0
    4.4140    0.0865    0.0255 C   0  0  0  0  0  0  0  0  0  0  0  0
    4.4442   -1.3182    0.0633 C   0  0  0  0  0  0  0  0  0  0  0  0
    3.2116   -2.0173    0.0893 C   0  0  0  0  0  0  0  0  0  0  0  0
    2.0001   -1.2893    0.0728 C   0  0  0  0  0  0  0  0  0  0  0  0
    3.1646    2.2691   -0.0256 C   0  0  0  0  0  0  0  0  0  0  0  0
    4.3761    3.1456   -0.0449 C   0  0  0  0  0  0  0  0  0  0  0  0
    5.7548   -2.0618    0.0761 C   0  0  0  0  0  0  0  0  0  0  0  0
    3.1817   -3.5231    0.1277 C   0  0  0  0  0  0  0  0  0  0  0  0
    0.7276    4.1267   -0.0690 H   0  0  0  0  0  0  0  0  0  0  0  0
    5.3701    0.6341    0.0085 H   0  0  0  0  0  0  0  0  0  0  0  0
    1.0731   -1.8796    0.0908 H   0  0  0  0  0  0  0  0  0  0  0  0
    4.0874    4.2104   -0.0742 H   0  0  0  0  0  0  0  0  0  0  0  0
    5.0002    2.9653    0.8545 H   0  0  0  0  0  0  0  0  0  0  0  0
    5.0066    2.9173   -0.9287 H   0  0  0  0  0  0  0  0  0  0  0  0
    5.8500   -2.7427   -0.7969 H   0  0  0  0  0  0  0  0  0  0  0  0
    6.6162   -1.3665    0.0561 H   0  0  0  0  0  0  0  0  0  0  0  0
    5.8571   -2.7011    0.9791 H   0  0  0  0  0  0  0  0  0  0  0  0
    3.6943   -3.9228    1.0291 H   0  0  0  0  0  0  0  0  0  0  0  0
    2.1428   -3.9056    0.1274 H   0  0  0  0  0  0  0  0  0  0  0  0
    3.7057   -3.9647   -0.7471 H   0  0  0  0  0  0  0  0  0  0  0  0
  1  2  1  0  0  0  0
  2  9  1  0  0  0  0
  3  8  1  0  0  0  0
  4  3  1  0  0  0  0
  4  5  1  0  0  0  0
  5  6  2  0  0  0  0
  6 11  1  0  0  0  0
  6  7  1  0  0  0  0
  7 12  1  0  0  0  0
  8  7  2  0  0  0  0
  8 15  1  0  0  0  0
  9  4  2  0  0  0  0
 10  9  1  0  0  0  0
 10 17  1  0  0  0  0
 11 21  1  0  0  0  0
 12 22  1  0  0  0  0
 13  1  1  0  0  0  0
 14  5  1  0  0  0  0
 16 10  1  0  0  0  0
 18 10  1  0  0  0  0
 19 11  1  0  0  0  0
 20 11  1  0  0  0  0
 23 12  1  0  0  0  0
 24 12  1  0  0  0  0
M  END
