4,19
q = -2.0, confidence = 0.966

 43 45  0  0  0  0  0  0  0  0999 V2000
    0.9336   -0.3173   -1.7509 S   0  0  0  0  0  0  0  0  0  0  0  0
    0.3134   -1.6554   -1.9003 O   0  0  0  0  0  0  0  0  0  0  0  0
    1.2214    0.4850   -2.9643 O   0  0  0  0  0  0  0  0  0  0  0  0
   -0.0845    0.4969   -0.6793 N   0  0  0  0  0  2  0  0  0  0  0  0
   -0.6483    2.3746    0.6774 C   0  0  0  0  0  0  0  0  0  0  0  0
    0.1674    1.8546   -0.3645 C   0  0  0  0  0  0  0  0  0  0  0  0
    1.1170    2.7090   -0.9723 C   0  0  0  0  0  0  0  0  0  0  0  0
    1.7205    2.3513   -1.8140 H   0  0  0  0  0  0  0  0  0  0  0  0
    1.2488    4.0326   -0.5261 C   0  0  0  0  0  0  0  0  0  0  0  0
    1.9921    4.6828   -1.0129 H   0  0  0  0  0  0  0  0  0  0  0  0
    0.4495    4.5396    0.5094 C   0  0  0  0  0  0  0  0  0  0  0  0
    0.5630    5.5810    0.8447 H   0  0  0  0  0  0  0  0  0  0  0  0
   -0.5066    3.7017    1.1058 C   0  0  0  0  0  0  0  0  0  0  0  0
   -1.1543    4.0725    1.9151 H   0  0  0  0  0  0  0  0  0  0  0  0
   -1.6093    1.4112    1.2496 C   0  0  0  0  0  0  0  0  0  0  0  0
   -1.2907    0.4635    2.2812 C   0  0  0  0  0  0  0  0  0  0  0  0
   -2.4074   -0.4103    2.3890 C   0  0  0  0  0  0  0  0  0  0  0  0
   -2.4971   -1.2602    3.0754 H   0  0  0  0  0  0  0  0  0  0  0  0
   -3.4116    0.0125    1.4637 C   0  0  0  0  0  3  0  0  0  0  0  0
   -4.3896   -0.4622    1.3168 H   0  0  0  0  0  0  0  0  0  0  0  0
   -2.9345    1.1555    0.7632 C   0  0  0  0  0  0  0  0  0  0  0  0
   -0.0008    0.4516    3.0497 C   0  0  0  0  0  0  0  0  0  0  0  0
   -0.0495   -0.2311    3.9193 H   0  0  0  0  0  0  0  0  0  0  0  0
    0.2304    1.4678    3.4283 H   0  0  0  0  0  0  0  0  0  0  0  0
    0.8621    0.1496    2.4189 H   0  0  0  0  0  0  0  0  0  0  0  0
   -3.6399    1.9391   -0.2996 C   0  0  0  0  0  0  0  0  0  0  0  0
   -4.0607    2.8780    0.1188 H   0  0  0  0  0  0  0  0  0  0  0  0
   -4.4737    1.3611   -0.7414 H   0  0  0  0  0  0  0  0  0  0  0  0
   -2.9456    2.2325   -1.1121 H   0  0  0  0  0  0  0  0  0  0  0  0
    2.4641   -0.5173   -0.8314 C   0  0  0  0  0  0  0  0  0  0  0  0
    3.6405    0.0955   -1.2758 C   0  0  0  0  0  0  0  0  0  0  0  0
    3.6269    0.6834   -2.2046 H   0  0  0  0  0  0  0  0  0  0  0  0
    4.8156   -0.0672   -0.5256 C   0  0  0  0  0  0  0  0  0  0  0  0
    5.7462    0.4116   -0.8686 H   0  0  0  0  0  0  0  0  0  0  0  0
    4.8280   -0.8310    0.6576 C   0  0  0  0  0  0  0  0  0  0  0  0
    3.6235   -1.4456    1.0724 C   0  0  0  0  0  0  0  0  0  0  0  0
    3.6151   -2.0551    1.9902 H   0  0  0  0  0  0  0  0  0  0  0  0
    2.4446   -1.2999    0.3362 C   0  0  0  0  0  0  0  0  0  0  0  0
    1.5040   -1.7784    0.6469 H   0  0  0  0  0  0  0  0  0  0  0  0
    6.0869   -0.9982    1.4690 C   0  0  0  0  0  0  0  0  0  0  0  0
    6.9483   -0.4851    1.0004 H   0  0  0  0  0  0  0  0  0  0  0  0
    6.3497   -2.0701    1.5862 H   0  0  0  0  0  0  0  0  0  0  0  0
    5.9608   -0.5863    2.4922 H   0  0  0  0  0  0  0  0  0  0  0  0
  1 30  1  0  0  0  0
  1  4  1  0  0  0  0
  2  1  2  0  0  0  0
  3  1  2  0  0  0  0
  4  6  1  0  0  0  0
  5 13  1  0  0  0  0
  5 15  1  0  0  0  0
  6  5  2  0  0  0  0
  7  9  2  0  0  0  0
  7  6  1  0  0  0  0
  8  7  1  0  0  0  0
  9 11  1  0  0  0  0
 10  9  1  0  0  0  0
 11 12  1  0  0  0  0
 11 13  2  0  0  0  0
 13 14  1  0  0  0  0
 15 16  1  0  0  0  0
 16 17  2  0  0  0  0
 16 22  1  0  0  0  0
 17 18  1  0  0  0  0
 19 17  1  0  0  0  0
 20 19  1  0  0  0  0
 21 15  2  0  0  0  0
 21 19  1  0  0  0  0
 22 24  1  0  0  0  0
 22 23  1  0  0  0  0
 25 22  1  0  0  0  0
 26 27  1  0  0  0  0
 26 21  1  0  0  0  0
 28 26  1  0  0  0  0
 29 26  1  0  0  0  0
 30 38  1  0  0  0  0
 31 30  2  0  0  0  0
 31 33  1  0  0  0  0
 32 31  1  0  0  0  0
 33 35  2  0  0  0  0
 34 33  1  0  0  0  0
 35 36  1  0  0  0  0
 35 40  1  0  0  0  0
 36 37  1  0  0  0  0
 38 39  1  0  0  0  0
 38 36  2  0  0  0  0
 40 42  1  0  0  0  0
 40 43  1  0  0  0  0
 41 40  1  0  0  0  0
M  END
