1,13
q = -1.0

 26 28  0  0  1  0  0  0  0  0999 V2000
    1.9905   -0.0180   -0.5144 N   0  0  0  0  0  2  0  0  0  0  0  0
    3.9021    0.7819   -2.0878 S   0  0  0  0  0  0  0  0  0  0  0  0
   -2.3816    3.7497   -3.2767 C   0  0  0  0  0  0  0  0  0  0  0  0
   -3.2707    3.4654   -2.6819 H   0  0  0  0  0  0  0  0  0  0  0  0
   -2.6230    3.6017   -4.3502 H   0  0  0  0  0  0  0  0  0  0  0  0
   -2.2123    4.8387   -3.1368 H   0  0  0  0  0  0  0  0  0  0  0  0
   -1.1655    2.9552   -2.8743 C   0  0  0  0  0  0  0  0  0  0  0  0
    0.0516    3.1164   -3.5870 C   0  0  0  0  0  0  0  0  0  0  0  0
    0.0945    3.8163   -4.4360 H   0  0  0  0  0  0  0  0  0  0  0  0
    1.1888    2.4021   -3.2166 C   0  0  0  0  0  0  0  0  0  0  0  0
    2.1338    2.5362   -3.7680 H   0  0  0  0  0  0  0  0  0  0  0  0
    1.1230    1.5057   -2.1264 C   0  0  0  0  0  0  0  0  0  0  0  0
   -0.0945    1.2988   -1.3943 C   0  0  0  0  0  3  0  0  0  0  0  0
   -1.2161    2.0550   -1.7937 C   0  0  0  0  0  0  0  0  0  0  0  0
   -2.1684    1.9366   -1.2529 H   0  0  0  0  0  0  0  0  0  0  0  0
    2.2244    0.7555   -1.5870 C   0  0  2  0  0  3  0  0  0  0  0  0
    4.3105   -0.2830   -0.7491 C   0  0  0  0  0  0  0  0  0  0  0  0
    5.5695   -0.7804   -0.3830 C   0  0  0  0  0  0  0  0  0  0  0  0
    6.4664   -0.5375   -0.9709 H   0  0  0  0  0  0  0  0  0  0  0  0
    5.6520   -1.5868    0.7608 C   0  0  0  0  0  0  0  0  0  0  0  0
    6.6297   -1.9860    1.0692 H   0  0  0  0  0  0  0  0  0  0  0  0
    4.5014   -1.8794    1.5252 C   0  0  0  0  0  0  0  0  0  0  0  0
    4.5965   -2.4991    2.4294 H   0  0  0  0  0  0  0  0  0  0  0  0
    3.2423   -1.3923    1.1601 C   0  0  0  0  0  0  0  0  0  0  0  0
    2.3356   -1.5930    1.7470 H   0  0  0  0  0  0  0  0  0  0  0  0
    3.1410   -0.5968    0.0015 C   0  0  0  0  0  0  0  0  0  0  0  0
  1 26  1  0  0  0  0
  2 16  1  0  0  0  0
  2 17  1  0  0  0  0
  3  6  1  0  0  0  0
  3  7  1  0  0  0  0
  3  4  1  0  0  0  0
  5  3  1  0  0  0  0
  7 14  1  0  0  0  0
  8 10  1  0  0  0  0
  8  7  2  0  0  0  0
  9  8  1  0  0  0  0
 10 12  2  0  0  0  0
 11 10  1  0  0  0  0
 12 13  1  0  0  0  0
 14 13  2  0  0  0  0
 14 15  1  0  0  0  0
 16 12  1  1  0  0  0
 16  1  1  0  0  0  0
 17 18  2  0  0  0  0
 17 26  1  0  0  0  0
 18 20  1  0  0  0  0
 19 18  1  0  0  0  0
 20 21  1  0  0  0  0
 20 22  2  0  0  0  0
 22 23  1  0  0  0  0
 24 22  1  0  0  0  0
 24 25  1  0  0  0  0
 26 24  2  0  0  0  0
M  END
