2,3
q = -1.0

 30 31  0  0  1  0  0  0  0  0999 V2000
    4.3130    3.4839    0.1353 Cl  0  0  0  0  0  0  0  0  0  0  0  0
    2.2928   -0.4314    0.3503 N   0  0  0  0  0  2  0  0  0  0  0  0
    0.6414    1.6683    0.0309 C   0  0  0  0  0  2  0  0  0  0  0  0
   -0.1790    2.7958   -0.1518 C   0  0  0  0  0  0  0  0  0  0  0  0
    0.3615    4.0921   -0.2358 C   0  0  0  0  0  0  0  0  0  0  0  0
    1.7426    4.3150   -0.1436 C   0  0  0  0  0  0  0  0  0  0  0  0
    2.5840    3.2095    0.0294 C   0  0  0  0  0  0  0  0  0  0  0  0
    2.0574    1.8983    0.1156 C   0  0  0  0  0  0  0  0  0  0  0  0
    2.8832    0.7259    0.2961 C   0  0  0  0  0  0  0  0  0  0  0  0
    3.0573   -1.6663    0.6337 C   0  0  2  0  0  0  0  0  0  0  0  0
    2.9151   -1.9931    2.1233 C   0  0  0  0  0  0  0  0  0  0  0  0
    4.4820   -1.5938    0.1087 C   0  0  0  0  0  0  0  0  0  0  0  0
    5.5968   -1.3731    0.9401 C   0  0  0  0  0  0  0  0  0  0  0  0
    6.8891   -1.2766    0.3971 C   0  0  0  0  0  0  0  0  0  0  0  0
    7.0846   -1.3983   -0.9861 C   0  0  0  0  0  0  0  0  0  0  0  0
    5.9800   -1.6216   -1.8257 C   0  0  0  0  0  0  0  0  0  0  0  0
    4.6931   -1.7188   -1.2814 C   0  0  0  0  0  0  0  0  0  0  0  0
   -1.2694    2.6949   -0.2295 H   0  0  0  0  0  0  0  0  0  0  0  0
   -0.3133    4.9512   -0.3760 H   0  0  0  0  0  0  0  0  0  0  0  0
    2.1702    5.3247   -0.2066 H   0  0  0  0  0  0  0  0  0  0  0  0
    3.9812    0.8117    0.3889 H   0  0  0  0  0  0  0  0  0  0  0  0
    2.5158   -2.4615    0.0775 H   0  0  0  0  0  0  0  0  0  0  0  0
    3.4363   -2.9418    2.3579 H   0  0  0  0  0  0  0  0  0  0  0  0
    3.3321   -1.1869    2.7605 H   0  0  0  0  0  0  0  0  0  0  0  0
    1.8420   -2.1153    2.3656 H   0  0  0  0  0  0  0  0  0  0  0  0
    5.4600   -1.2781    2.0272 H   0  0  0  0  0  0  0  0  0  0  0  0
    7.7490   -1.1059    1.0629 H   0  0  0  0  0  0  0  0  0  0  0  0
    8.0971   -1.3234   -1.4110 H   0  0  0  0  0  0  0  0  0  0  0  0
    6.1249   -1.7261   -2.9119 H   0  0  0  0  0  0  0  0  0  0  0  0
    3.8268   -1.8955   -1.9388 H   0  0  0  0  0  0  0  0  0  0  0  0
  2 10  1  0  0  0  0
  3  8  1  0  0  0  0
  4  3  1  0  0  0  0
  5  4  2  0  0  0  0
  5  6  1  0  0  0  0
  6  7  2  0  0  0  0
  7  8  1  0  0  0  0
  7  1  1  0  0  0  0
  8  9  2  0  0  0  0
  9  2  1  0  0  0  0
  9 21  1  0  0  0  0
 10 22  1  6  0  0  0
 10 11  1  0  0  0  0
 11 23  1  0  0  0  0
 11 25  1  0  0  0  0
 11 24  1  0  0  0  0
 12 10  1  0  0  0  0
 12 13  1  0  0  0  0
 13 26  1  0  0  0  0
 14 13  2  0  0  0  0
 14 27  1  0  0  0  0
 15 14  1  0  0  0  0
 16 17  1  0  0  0  0
 16 15  2  0  0  0  0
 17 12  2  0  0  0  0
 18  4  1  0  0  0  0
 19  5  1  0  0  0  0
 20  6  1  0  0  0  0
 28 15  1  0  0  0  0
 29 16  1  0  0  0  0
 30 17  1  0  0  0  0
M  END
