3,22
q = -1.0

 22 23  0  0  0  0  0  0  0  0999 V2000
   -4.8650    0.5655    0.0580 O   0  0  0  0  0  0  0  0  0  0  0  0
   -4.0770   -1.4785   -0.6979 O   0  0  0  0  0  0  0  0  0  0  0  0
    1.3826    1.7749   -0.8348 N   0  0  0  0  0  0  0  0  0  0  0  0
    2.4195    1.8700   -0.8071 H   0  0  0  0  0  0  0  0  0  0  0  0
    1.1115    1.7090   -1.8250 H   0  0  0  0  0  0  0  0  0  0  0  0
    0.6385    2.8615   -0.1331 C   0  0  0  0  0  0  0  0  0  0  0  0
    0.0188    3.3986   -0.8780 H   0  0  0  0  0  0  0  0  0  0  0  0
    1.3812    3.5772    0.2720 H   0  0  0  0  0  0  0  0  0  0  0  0
   -0.2547    2.3322    0.9988 C   0  0  0  0  0  0  0  0  0  0  0  0
    0.3972    1.9165    1.7985 H   0  0  0  0  0  0  0  0  0  0  0  0
   -0.7892    3.1957    1.4427 H   0  0  0  0  0  0  0  0  0  0  0  0
   -1.2408    1.2802    0.5343 C   0  0  0  0  0  0  0  0  0  0  0  0
   -2.6369    1.5472    0.5703 C   0  0  0  0  0  0  0  0  0  0  0  0
   -3.0256    2.5074    0.9388 H   0  0  0  0  0  0  0  0  0  0  0  0
   -3.4966    0.5436    0.1429 C   0  0  0  0  0  0  0  0  0  0  0  0
   -5.2481   -0.7758   -0.2718 C   0  0  0  0  0  0  0  0  0  0  0  0
   -5.9937   -0.7580   -1.0946 H   0  0  0  0  0  0  0  0  0  0  0  0
   -5.6763   -1.2746    0.6326 H   0  0  0  0  0  0  0  0  0  0  0  0
   -3.0178   -0.6958   -0.3147 C   0  0  0  0  0  0  0  0  0  0  0  0
   -1.6590   -0.9875   -0.3674 C   0  0  0  0  0  0  0  0  0  0  0  0
   -1.2909   -1.9666   -0.6998 H   0  0  0  0  0  0  0  0  0  0  0  0
   -0.7810    0.0343    0.0582 C   0  0  0  0  0  3  0  0  0  0  0  0
  1 15  1  0  0  0  0
  2 19  1  0  0  0  0
  2 16  1  0  0  0  0
  3  4  1  0  0  0  0
  3  6  1  0  0  0  0
  5  3  1  0  0  0  0
  6  8  1  0  0  0  0
  6  9  1  0  0  0  0
  7  6  1  0  0  0  0
  9 11  1  0  0  0  0
  9 10  1  0  0  0  0
 12 13  1  0  0  0  0
 12  9  1  0  0  0  0
 13 14  1  0  0  0  0
 15 13  2  0  0  0  0
 16  1  1  0  0  0  0
 16 18  1  0  0  0  0
 17 16  1  0  0  0  0
 19 15  1  0  0  0  0
 20 19  2  0  0  0  0
 20 22  1  0  0  0  0
 21 20  1  0  0  0  0
 22 12  2  0  0  0  0
M  END
