3,6
q = -1.0, confidence = 0.0

 27 27  0  0  0  0  0  0  0  0999 V2000
   -4.7426   -0.4884   -0.0429 O   0  0  0  0  0  0  0  0  0  0  0  0
   -3.7347    1.8493    0.5141 O   0  0  0  0  0  0  0  0  0  0  0  0
    1.5136   -1.7699    0.9836 N   0  0  0  0  0  0  0  0  0  0  0  0
    2.5430   -1.9173    0.9180 H   0  0  0  0  0  0  0  0  0  0  0  0
    1.3026   -1.5863    1.9735 H   0  0  0  0  0  0  0  0  0  0  0  0
   -0.5986   -0.0411   -0.0630 C   0  0  0  0  0  3  0  0  0  0  0  0
    0.6848   -2.8882    0.4460 C   0  0  0  0  0  0  0  0  0  0  0  0
    0.0482   -3.2753    1.2658 H   0  0  0  0  0  0  0  0  0  0  0  0
    1.3698   -3.7013    0.1329 H   0  0  0  0  0  0  0  0  0  0  0  0
   -0.2005   -2.4573   -0.7324 C   0  0  0  0  0  0  0  0  0  0  0  0
   -0.7886   -3.3392   -1.0570 H   0  0  0  0  0  0  0  0  0  0  0  0
    0.4571   -2.1819   -1.5866 H   0  0  0  0  0  0  0  0  0  0  0  0
   -1.1174   -1.3036   -0.3885 C   0  0  0  0  0  0  0  0  0  0  0  0
   -2.5233   -1.4720   -0.3772 C   0  0  0  0  0  0  0  0  0  0  0  0
   -2.9382   -2.4560   -0.6374 H   0  0  0  0  0  0  0  0  0  0  0  0
   -3.3859   -0.4110   -0.0680 C   0  0  0  0  0  0  0  0  0  0  0  0
   -5.3434   -1.7258   -0.3624 C   0  0  0  0  0  0  0  0  0  0  0  0
   -5.0950   -2.0548   -1.3972 H   0  0  0  0  0  0  0  0  0  0  0  0
   -6.4360   -1.5731   -0.2872 H   0  0  0  0  0  0  0  0  0  0  0  0
   -5.0420   -2.5310    0.3463 H   0  0  0  0  0  0  0  0  0  0  0  0
   -2.8354    0.8713    0.2401 C   0  0  0  0  0  0  0  0  0  0  0  0
   -3.2386    3.1491    0.7771 C   0  0  0  0  0  0  0  0  0  0  0  0
   -2.6567    3.5512   -0.0820 H   0  0  0  0  0  0  0  0  0  0  0  0
   -2.5915    3.1700    1.6828 H   0  0  0  0  0  0  0  0  0  0  0  0
   -4.1222    3.7907    0.9500 H   0  0  0  0  0  0  0  0  0  0  0  0
   -1.4421    1.0421    0.2365 C   0  0  0  0  0  0  0  0  0  0  0  0
   -1.0014    2.0262    0.4386 H   0  0  0  0  0  0  0  0  0  0  0  0
  2 22  1  0  0  0  0
  3  5  1  0  0  0  0
  4  3  1  0  0  0  0
  6 26  1  0  0  0  0
  7  3  1  0  0  0  0
  7  8  1  0  0  0  0
  9  7  1  0  0  0  0
 10 13  1  0  0  0  0
 10  7  1  0  0  0  0
 11 10  1  0  0  0  0
 12 10  1  0  0  0  0
 13 14  1  0  0  0  0
 13  6  2  0  0  0  0
 14 16  2  0  0  0  0
 15 14  1  0  0  0  0
 16  1  1  0  0  0  0
 16 21  1  0  0  0  0
 17 19  1  0  0  0  0
 17  1  1  0  0  0  0
 17 20  1  0  0  0  0
 18 17  1  0  0  0  0
 21  2  1  0  0  0  0
 22 25  1  0  0  0  0
 22 24  1  0  0  0  0
 23 22  1  0  0  0  0
 26 21  2  0  0  0  0
 26 27  1  0  0  0  0
M  END
