3,4
q = -1.0, confidence = 0.022

 22 22  0  0  1  0  0  0  0  0999 V2000
   -4.8313   -0.7276    0.7851 O   0  0  0  0  0  0  0  0  0  0  0  0
   -3.4889   -2.5002    0.3415 O   0  0  0  0  0  0  0  0  0  0  0  0
   -2.4065   -1.3417   -1.8286 N   0  0  0  0  0  0  0  0  0  0  0  0
   -1.6648    0.9925   -0.6631 C   0  0  0  0  0  3  0  0  0  0  0  0
   -3.0619    0.7997   -0.8775 C   0  0  0  0  0  0  0  0  0  0  0  0
   -3.9783    1.8606   -0.7772 C   0  0  0  0  0  0  0  0  0  0  0  0
   -3.5293    3.1512   -0.4652 C   0  0  0  0  0  0  0  0  0  0  0  0
   -2.1581    3.3693   -0.2613 C   0  0  0  0  0  0  0  0  0  0  0  0
   -1.2452    2.3065   -0.3609 C   0  0  0  0  0  0  0  0  0  0  0  0
   -3.5203   -0.6093   -1.1957 C   0  0  2  0  0  0  0  0  0  0  0  0
   -3.9219   -1.3989    0.0589 C   0  0  0  0  0  0  0  0  0  0  0  0
   -5.2648   -1.3793    1.9875 C   0  0  0  0  0  0  0  0  0  0  0  0
   -2.3730   -1.1930   -2.8443 H   0  0  0  0  0  0  0  0  0  0  0  0
   -2.4515   -2.3557   -1.6329 H   0  0  0  0  0  0  0  0  0  0  0  0
   -5.0511    1.6724   -0.9411 H   0  0  0  0  0  0  0  0  0  0  0  0
   -4.2455    3.9834   -0.3891 H   0  0  0  0  0  0  0  0  0  0  0  0
   -1.7892    4.3792   -0.0218 H   0  0  0  0  0  0  0  0  0  0  0  0
   -0.1816    2.5250   -0.1876 H   0  0  0  0  0  0  0  0  0  0  0  0
   -4.4257   -0.5885   -1.8460 H   0  0  0  0  0  0  0  0  0  0  0  0
   -5.7021   -2.3725    1.7623 H   0  0  0  0  0  0  0  0  0  0  0  0
   -4.4117   -1.5223    2.6807 H   0  0  0  0  0  0  0  0  0  0  0  0
   -6.0208   -0.7133    2.4389 H   0  0  0  0  0  0  0  0  0  0  0  0
  1 12  1  0  0  0  0
  3 14  1  0  0  0  0
  3 10  1  0  0  0  0
  4  9  1  0  0  0  0
  5  6  1  0  0  0  0
  5  4  2  0  0  0  0
  6  7  2  0  0  0  0
  7 16  1  0  0  0  0
  7  8  1  0  0  0  0
  8 17  1  0  0  0  0
  9  8  2  0  0  0  0
  9 18  1  0  0  0  0
 10 19  1  6  0  0  0
 10  5  1  0  0  0  0
 10 11  1  0  0  0  0
 11  2  2  0  0  0  0
 11  1  1  0  0  0  0
 12 22  1  0  0  0  0
 12 21  1  0  0  0  0
 13  3  1  0  0  0  0
 15  6  1  0  0  0  0
 20 12  1  0  0  0  0
M  END
