4,12
q = -1.0

 32 33  0  0  1  0  0  0  0  0999 V2000
    5.6829    1.5111   -0.0749 O   0  0  0  0  0  0  0  0  0  0  0  0
    6.1655    2.3575   -0.0271 H   0  0  0  0  0  0  0  0  0  0  0  0
   -6.0315    0.4551   -0.4721 O   0  0  0  0  0  0  0  0  0  0  0  0
   -0.4948    1.1769   -0.0668 N   0  0  0  0  0  2  0  0  0  0  0  0
    1.5817    2.2161    0.0636 C   0  0  0  0  0  0  0  0  0  0  0  0
    0.1397    2.3329    0.0037 C   0  0  1  0  0  3  0  0  0  0  0  0
    4.3490    1.7752   -0.0190 C   0  0  0  0  0  0  0  0  0  0  0  0
   -0.5537    3.6649   -0.0381 C   0  0  0  0  0  0  0  0  0  0  0  0
   -1.6154    3.5680   -0.3269 H   0  0  0  0  0  0  0  0  0  0  0  0
   -0.0454    4.3323   -0.7618 H   0  0  0  0  0  0  0  0  0  0  0  0
   -0.5083    4.1661    0.9516 H   0  0  0  0  0  0  0  0  0  0  0  0
    2.0796    0.8759   -0.0334 C   0  0  0  0  0  3  0  0  0  0  0  0
    3.4637    0.6816   -0.1065 C   0  0  0  0  0  0  0  0  0  0  0  0
    3.9012   -0.3155   -0.2561 H   0  0  0  0  0  0  0  0  0  0  0  0
    3.8533    3.0936    0.1183 C   0  0  0  0  0  0  0  0  0  0  0  0
    4.5550    3.9412    0.1846 H   0  0  0  0  0  0  0  0  0  0  0  0
   -2.4770    0.4325   -1.2777 C   0  0  0  0  0  0  0  0  0  0  0  0
   -1.8015    0.0970   -2.0810 H   0  0  0  0  0  0  0  0  0  0  0  0
   -1.9014    1.0528   -0.1437 C   0  0  0  0  0  0  0  0  0  0  0  0
   -4.1307    1.2861    0.8382 C   0  0  0  0  0  0  0  0  0  0  0  0
   -4.7561    1.6153    1.6786 H   0  0  0  0  0  0  0  0  0  0  0  0
   -4.6993    0.6804   -0.2999 C   0  0  0  0  0  0  0  0  0  0  0  0
    2.4749    3.3080    0.1421 C   0  0  0  0  0  0  0  0  0  0  0  0
    2.0918    4.3376    0.2163 H   0  0  0  0  0  0  0  0  0  0  0  0
   -3.8568    0.2587   -1.3554 C   0  0  0  0  0  0  0  0  0  0  0  0
   -4.3217   -0.2121   -2.2340 H   0  0  0  0  0  0  0  0  0  0  0  0
   -2.7379    1.4684    0.9084 C   0  0  0  0  0  0  0  0  0  0  0  0
   -2.2915    1.9314    1.8012 H   0  0  0  0  0  0  0  0  0  0  0  0
   -6.9166    0.8525    0.5558 C   0  0  0  0  0  0  0  0  0  0  0  0
   -6.8760    1.9503    0.7392 H   0  0  0  0  0  0  0  0  0  0  0  0
   -6.7049    0.3259    1.5142 H   0  0  0  0  0  0  0  0  0  0  0  0
   -7.9342    0.5835    0.2166 H   0  0  0  0  0  0  0  0  0  0  0  0
  1  2  1  0  0  0  0
  1  7  1  0  0  0  0
  3 22  1  0  0  0  0
  3 29  1  0  0  0  0
  5 23  1  0  0  0  0
  6  4  1  6  0  0  0
  6  5  1  0  0  0  0
  7 15  1  0  0  0  0
  8  6  1  0  0  0  0
  8 11  1  0  0  0  0
  9  8  1  0  0  0  0
 10  8  1  0  0  0  0
 12  5  2  0  0  0  0
 13 12  1  0  0  0  0
 13  7  2  0  0  0  0
 14 13  1  0  0  0  0
 15 23  2  0  0  0  0
 15 16  1  0  0  0  0
 17 19  1  0  0  0  0
 18 17  1  0  0  0  0
 19  4  1  0  0  0  0
 19 27  2  0  0  0  0
 20 27  1  0  0  0  0
 20 21  1  0  0  0  0
 22 20  2  0  0  0  0
 23 24  1  0  0  0  0
 25 17  2  0  0  0  0
 25 22  1  0  0  0  0
 26 25  1  0  0  0  0
 27 28  1  0  0  0  0
 29 30  1  0  0  0  0
 29 31  1  0  0  0  0
 32 29  1  0  0  0  0
M  END
