1,13
q = -1.0

 51 53  0  0  1  0  0  0  0  0999 V2000
   -0.1000   -1.8727   -2.1995 N   0  0  0  0  0  0  0  0  0  0  0  0
   -1.1054   -1.8417   -2.4221 H   0  0  0  0  0  0  0  0  0  0  0  0
    0.2262   -2.8470   -2.2894 H   0  0  0  0  0  0  0  0  0  0  0  0
    0.2670    1.5690   -0.5162 C   0  0  0  0  0  0  0  0  0  0  0  0
    1.0076    1.1568   -1.6488 C   0  0  0  0  0  0  0  0  0  0  0  0
    2.3874    1.4637   -1.7058 C   0  0  0  0  0  0  0  0  0  0  0  0
    2.9619    1.1380   -2.5845 H   0  0  0  0  0  0  0  0  0  0  0  0
    3.0372    2.1676   -0.6846 C   0  0  0  0  0  0  0  0  0  0  0  0
    2.2682    2.6568    0.4147 C   0  0  0  0  0  0  0  0  0  0  0  0
    0.9024    2.3623    0.4704 C   0  0  0  0  0  0  0  0  0  0  0  0
    0.2971    2.7214    1.3135 H   0  0  0  0  0  0  0  0  0  0  0  0
   -1.1423    1.1273   -0.2910 C   0  0  1  0  0  3  0  0  0  0  0  0
   -1.3657   -0.2222   -0.1577 C   0  0  0  0  0  2  0  0  0  0  0  0
    0.6731   -0.9867   -3.0914 C   0  0  0  0  0  0  0  0  0  0  0  0
    0.4658   -1.2413   -4.1556 H   0  0  0  0  0  0  0  0  0  0  0  0
    1.7458   -1.1949   -2.9003 H   0  0  0  0  0  0  0  0  0  0  0  0
    0.3670    0.5000   -2.8579 C   0  0  0  0  0  0  0  0  0  0  0  0
    0.7170    1.0419   -3.7625 H   0  0  0  0  0  0  0  0  0  0  0  0
   -0.7333    0.6405   -2.8202 H   0  0  0  0  0  0  0  0  0  0  0  0
   -2.1705    2.1887   -0.1447 C   0  0  0  0  0  0  0  0  0  0  0  0
   -2.0606    3.3921   -0.8832 C   0  0  0  0  0  0  0  0  0  0  0  0
   -1.2126    3.5148   -1.5743 H   0  0  0  0  0  0  0  0  0  0  0  0
   -3.0116    4.4131   -0.7498 C   0  0  0  0  0  0  0  0  0  0  0  0
   -2.9086    5.3352   -1.3427 H   0  0  0  0  0  0  0  0  0  0  0  0
   -4.0901    4.2640    0.1369 C   0  0  0  0  0  0  0  0  0  0  0  0
   -4.8352    5.0668    0.2459 H   0  0  0  0  0  0  0  0  0  0  0  0
   -4.2015    3.0853    0.8946 C   0  0  0  0  0  0  0  0  0  0  0  0
   -5.0327    2.9648    1.6064 H   0  0  0  0  0  0  0  0  0  0  0  0
   -3.2537    2.0639    0.7594 C   0  0  0  0  0  0  0  0  0  0  0  0
   -3.3413    1.1514    1.3664 H   0  0  0  0  0  0  0  0  0  0  0  0
   -2.6830   -0.8814   -0.1987 C   0  0  0  0  0  0  0  0  0  0  0  0
   -3.6436   -0.5133   -1.1784 C   0  0  0  0  0  0  0  0  0  0  0  0
   -3.4082    0.3130   -1.8662 H   0  0  0  0  0  0  0  0  0  0  0  0
   -4.8751   -1.1744   -1.2703 C   0  0  0  0  0  0  0  0  0  0  0  0
   -5.5997   -0.8694   -2.0413 H   0  0  0  0  0  0  0  0  0  0  0  0
   -5.1883   -2.2203   -0.3858 C   0  0  0  0  0  0  0  0  0  0  0  0
   -6.1563   -2.7386   -0.4584 H   0  0  0  0  0  0  0  0  0  0  0  0
   -4.2455   -2.6097    0.5808 C   0  0  0  0  0  0  0  0  0  0  0  0
   -4.4727   -3.4377    1.2699 H   0  0  0  0  0  0  0  0  0  0  0  0
   -3.0069   -1.9609    0.6621 C   0  0  0  0  0  0  0  0  0  0  0  0
   -2.2549   -2.2933    1.3934 H   0  0  0  0  0  0  0  0  0  0  0  0
    5.1788    1.9393   -1.6843 C   0  0  0  0  0  0  0  0  0  0  0  0
    5.1233    0.8283   -1.7349 H   0  0  0  0  0  0  0  0  0  0  0  0
    6.2159    2.2403   -1.4461 H   0  0  0  0  0  0  0  0  0  0  0  0
    4.9043    2.3542   -2.6811 H   0  0  0  0  0  0  0  0  0  0  0  0
    4.3640    2.4583   -0.6524 O   0  0  0  0  0  0  0  0  0  0  0  0
    2.2341    3.8615    2.4599 C   0  0  0  0  0  0  0  0  0  0  0  0
    1.4341    4.5684    2.1434 H   0  0  0  0  0  0  0  0  0  0  0  0
    2.9624    4.4001    3.0944 H   0  0  0  0  0  0  0  0  0  0  0  0
    1.7653    3.0474    3.0597 H   0  0  0  0  0  0  0  0  0  0  0  0
    2.9590    3.3548    1.3583 O   0  0  0  0  0  0  0  0  0  0  0  0
  2  1  1  0  0  0  0
  3  1  1  0  0  0  0
  4 12  1  0  0  0  0
  4 10  1  0  0  0  0
  5  4  2  0  0  0  0
  6  5  1  0  0  0  0
  6  8  2  0  0  0  0
  7  6  1  0  0  0  0
  8 46  1  0  0  0  0
  8  9  1  0  0  0  0
  9 10  2  0  0  0  0
  9 51  1  0  0  0  0
 10 11  1  0  0  0  0
 12 13  1  1  0  0  0
 12 20  1  0  0  0  0
 14 16  1  0  0  0  0
 14 17  1  0  0  0  0
 14  1  1  0  0  0  0
 15 14  1  0  0  0  0
 17 19  1  0  0  0  0
 17  5  1  0  0  0  0
 18 17  1  0  0  0  0
 20 29  1  0  0  0  0
 21 23  1  0  0  0  0
 21 20  2  0  0  0  0
 22 21  1  0  0  0  0
 23 25  2  0  0  0  0
 24 23  1  0  0  0  0
 25 26  1  0  0  0  0
 25 27  1  0  0  0  0
 27 28  1  0  0  0  0
 29 27  2  0  0  0  0
 29 30  1  0  0  0  0
 31 13  1  0  0  0  0
 31 40  1  0  0  0  0
 32 31  2  0  0  0  0
 33 32  1  0  0  0  0
 34 32  1  0  0  0  0
 34 36  2  0  0  0  0
 35 34  1  0  0  0  0
 36 38  1  0  0  0  0
 37 36  1  0  0  0  0
 38 40  2  0  0  0  0
 38 39  1  0  0  0  0
 40 41  1  0  0  0  0
 42 44  1  0  0  0  0
 42 46  1  0  0  0  0
 43 42  1  0  0  0  0
 45 42  1  0  0  0  0
 47 50  1  0  0  0  0
 47 49  1  0  0  0  0
 48 47  1  0  0  0  0
 51 47  1  0  0  0  0
M  END
