1,15
q = -1.0

 42 43  0  0  1  0  0  0  0  0999 V2000
    1.9020    0.6023   -1.4014 N   0  0  0  0  0  0  0  0  0  0  0  0
    1.7770    0.6710   -2.4278 H   0  0  0  0  0  0  0  0  0  0  0  0
    2.0639    1.5539   -1.0376 H   0  0  0  0  0  0  0  0  0  0  0  0
    1.1671   -1.1583    1.8468 C   0  0  0  0  0  0  0  0  0  0  0  0
    2.2937   -1.5387    1.0654 C   0  0  0  0  0  0  0  0  0  0  0  0
    2.6244   -2.9083    0.9846 C   0  0  0  0  0  0  0  0  0  0  0  0
    3.5119   -3.2089    0.4067 H   0  0  0  0  0  0  0  0  0  0  0  0
    1.8699   -3.8922    1.6359 C   0  0  0  0  0  0  0  0  0  0  0  0
    2.1500   -4.9523    1.5426 H   0  0  0  0  0  0  0  0  0  0  0  0
    0.7763   -3.5129    2.4283 C   0  0  0  0  0  0  0  0  0  0  0  0
    0.1847   -4.2716    2.9632 H   0  0  0  0  0  0  0  0  0  0  0  0
    0.4499   -2.1563    2.5433 C   0  0  0  0  0  0  0  0  0  0  0  0
   -0.3953   -1.8550    3.1827 H   0  0  0  0  0  0  0  0  0  0  0  0
    0.7570    0.2740    1.9726 C   0  0  1  0  0  3  0  0  0  0  0  0
    0.2570    0.9248    0.8851 C   0  0  0  0  0  2  0  0  0  0  0  0
    3.0961   -0.2569   -1.1142 C   0  0  0  0  0  0  0  0  0  0  0  0
    3.2099   -0.5210    0.4160 C   0  0  0  0  0  0  0  0  0  0  0  0
    4.2536   -0.8589    0.5856 H   0  0  0  0  0  0  0  0  0  0  0  0
    3.1079    0.4547    0.9343 H   0  0  0  0  0  0  0  0  0  0  0  0
    2.9696   -1.5489   -1.9252 C   0  0  0  0  0  0  0  0  0  0  0  0
    2.0571   -2.1085   -1.6477 H   0  0  0  0  0  0  0  0  0  0  0  0
    3.8565   -2.1906   -1.7575 H   0  0  0  0  0  0  0  0  0  0  0  0
    2.8987   -1.3252   -3.0079 H   0  0  0  0  0  0  0  0  0  0  0  0
    4.3431    0.5287   -1.5623 C   0  0  0  0  0  0  0  0  0  0  0  0
    4.2717    0.8033   -2.6345 H   0  0  0  0  0  0  0  0  0  0  0  0
    5.2604   -0.0779   -1.4281 H   0  0  0  0  0  0  0  0  0  0  0  0
    4.4645    1.4608   -0.9709 H   0  0  0  0  0  0  0  0  0  0  0  0
    0.9081    0.8871    3.3484 C   0  0  0  0  0  0  0  0  0  0  0  0
    1.9777    0.9452    3.6484 H   0  0  0  0  0  0  0  0  0  0  0  0
    0.4132    0.2551    4.1173 H   0  0  0  0  0  0  0  0  0  0  0  0
    0.4761    1.9042    3.4014 H   0  0  0  0  0  0  0  0  0  0  0  0
   -0.0169    2.3753    0.8235 C   0  0  0  0  0  0  0  0  0  0  0  0
    1.0153    3.3087    1.1004 C   0  0  0  0  0  0  0  0  0  0  0  0
    2.0009    2.9315    1.4172 H   0  0  0  0  0  0  0  0  0  0  0  0
    0.7996    4.6901    0.9790 C   0  0  0  0  0  0  0  0  0  0  0  0
    1.6203    5.3919    1.1950 H   0  0  0  0  0  0  0  0  0  0  0  0
   -0.4567    5.1762    0.5868 C   0  0  0  0  0  0  0  0  0  0  0  0
   -0.6282    6.2590    0.4908 H   0  0  0  0  0  0  0  0  0  0  0  0
   -1.4931    4.2662    0.3109 C   0  0  0  0  0  0  0  0  0  0  0  0
   -2.4819    4.6378    0.0004 H   0  0  0  0  0  0  0  0  0  0  0  0
   -1.2744    2.8878    0.4157 C   0  0  0  0  0  0  0  0  0  0  0  0
   -2.0822    2.1812    0.1759 H   0  0  0  0  0  0  0  0  0  0  0  0
  1 16  1  0  0  0  0
  1  3  1  0  0  0  0
  2  1  1  0  0  0  0
  4 14  1  0  0  0  0
  4 12  1  0  0  0  0
  5  4  2  0  0  0  0
  6  5  1  0  0  0  0
  6  8  2  0  0  0  0
  7  6  1  0  0  0  0
  8 10  1  0  0  0  0
  9  8  1  0  0  0  0
 10 12  2  0  0  0  0
 10 11  1  0  0  0  0
 12 13  1  0  0  0  0
 14 15  1  1  0  0  0
 14 28  1  0  0  0  0
 16 17  1  0  0  0  0
 17 18  1  0  0  0  0
 17 19  1  0  0  0  0
 17  5  1  0  0  0  0
 20 22  1  0  0  0  0
 20 21  1  0  0  0  0
 20 16  1  0  0  0  0
 23 20  1  0  0  0  0
 24 26  1  0  0  0  0
 24 16  1  0  0  0  0
 24 27  1  0  0  0  0
 25 24  1  0  0  0  0
 28 31  1  0  0  0  0
 28 29  1  0  0  0  0
 28 30  1  0  0  0  0
 32 15  1  0  0  0  0
 32 33  1  0  0  0  0
 33 34  1  0  0  0  0
 35 33  2  0  0  0  0
 35 36  1  0  0  0  0
 37 35  1  0  0  0  0
 38 37  1  0  0  0  0
 39 41  1  0  0  0  0
 39 37  2  0  0  0  0
 40 39  1  0  0  0  0
 41 32  2  0  0  0  0
 42 41  1  0  0  0  0
M  END
