1,2
q = -1.0

 39 39  0  0  1  0  0  0  0  0999 V2000
   -3.2100    0.0120   -0.2454 N   0  0  0  0  0  0  0  0  0  0  0  0
   -0.9829   -2.4302    0.0418 C   0  0  2  0  0  3  0  0  0  0  0  0
   -0.0564   -2.5301   -1.1027 C   0  0  0  0  0  0  0  0  0  0  0  0
    1.2570   -2.4970   -0.6055 C   0  0  0  0  0  0  0  0  0  0  0  0
    1.2085   -2.3840    0.8306 C   0  0  0  0  0  0  0  0  0  0  0  0
   -0.1362   -2.3470    1.2432 C   0  0  0  0  0  0  0  0  0  0  0  0
   -2.3221   -3.1510    0.0542 C   0  0  0  0  0  0  0  0  0  0  0  0
   -2.2117   -4.0879    0.6473 H   0  0  0  0  0  0  0  0  0  0  0  0
   -2.5602   -3.4865   -0.9783 H   0  0  0  0  0  0  0  0  0  0  0  0
   -0.4763   -2.7654   -2.5271 C   0  0  0  0  0  0  0  0  0  0  0  0
    0.2636   -2.3585   -3.2464 H   0  0  0  0  0  0  0  0  0  0  0  0
   -1.4523   -2.2920   -2.7642 H   0  0  0  0  0  0  0  0  0  0  0  0
   -0.5837   -3.8494   -2.7617 H   0  0  0  0  0  0  0  0  0  0  0  0
    2.5321   -2.5165   -1.3963 C   0  0  0  0  0  0  0  0  0  0  0  0
    3.0830   -3.4741   -1.2634 H   0  0  0  0  0  0  0  0  0  0  0  0
    3.2223   -1.7071   -1.0734 H   0  0  0  0  0  0  0  0  0  0  0  0
    2.3499   -2.3970   -2.4830 H   0  0  0  0  0  0  0  0  0  0  0  0
    2.4354   -2.2738    1.6884 C   0  0  0  0  0  0  0  0  0  0  0  0
    2.1906   -2.0992    2.7547 H   0  0  0  0  0  0  0  0  0  0  0  0
    3.0949   -1.4448    1.3488 H   0  0  0  0  0  0  0  0  0  0  0  0
    3.0517   -3.1982    1.6389 H   0  0  0  0  0  0  0  0  0  0  0  0
   -0.6555   -2.3823    2.6527 C   0  0  0  0  0  0  0  0  0  0  0  0
    0.1713   -2.3431    3.3887 H   0  0  0  0  0  0  0  0  0  0  0  0
   -1.2271   -3.3164    2.8581 H   0  0  0  0  0  0  0  0  0  0  0  0
   -1.3371   -1.5376    2.8950 H   0  0  0  0  0  0  0  0  0  0  0  0
   -3.5407   -2.3831    0.5845 C   0  0  0  0  0  0  0  0  0  0  0  0
   -4.3961   -3.0855    0.6779 H   0  0  0  0  0  0  0  0  0  0  0  0
   -3.3544   -2.0102    1.6137 H   0  0  0  0  0  0  0  0  0  0  0  0
   -3.9962   -1.2460   -0.3286 C   0  0  0  0  0  0  0  0  0  0  0  0
   -3.9414   -1.5935   -1.3820 H   0  0  0  0  0  0  0  0  0  0  0  0
   -5.0676   -0.9919   -0.1353 H   0  0  0  0  0  0  0  0  0  0  0  0
   -3.5006    0.7288    1.0101 C   0  0  0  0  0  0  0  0  0  0  0  0
   -2.8880    1.6479    1.0516 H   0  0  0  0  0  0  0  0  0  0  0  0
   -3.2312    0.0995    1.8796 H   0  0  0  0  0  0  0  0  0  0  0  0
   -4.5843    0.9863    1.0825 H   0  0  0  0  0  0  0  0  0  0  0  0
   -3.5530    0.8634   -1.3979 C   0  0  0  0  0  0  0  0  0  0  0  0
   -4.6522    1.0500   -1.4429 H   0  0  0  0  0  0  0  0  0  0  0  0
   -3.2417    0.3642   -2.3366 H   0  0  0  0  0  0  0  0  0  0  0  0
   -3.0151    1.8234   -1.3152 H   0  0  0  0  0  0  0  0  0  0  0  0
  1 32  1  0  0  0  0
  2  7  1  1  0  0  0
  2  6  1  0  0  0  0
  3  4  2  0  0  0  0
  3  2  1  0  0  0  0
  4  5  1  0  0  0  0
  5  6  2  0  0  0  0
  5 18  1  0  0  0  0
  6 22  1  0  0  0  0
  7 26  1  0  0  0  0
  7  8  1  0  0  0  0
  9  7  1  0  0  0  0
 10  3  1  0  0  0  0
 11 10  1  0  0  0  0
 12 10  1  0  0  0  0
 13 10  1  0  0  0  0
 14 15  1  0  0  0  0
 14 16  1  0  0  0  0
 14  4  1  0  0  0  0
 17 14  1  0  0  0  0
 18 19  1  0  0  0  0
 20 18  1  0  0  0  0
 21 18  1  0  0  0  0
 22 24  1  0  0  0  0
 22 25  1  0  0  0  0
 22 23  1  0  0  0  0
 26 27  1  0  0  0  0
 26 28  1  0  0  0  0
 29  1  1  0  0  0  0
 29 31  1  0  0  0  0
 29 26  1  0  0  0  0
 30 29  1  0  0  0  0
 32 33  1  0  0  0  0
 32 35  1  0  0  0  0
 32 34  1  0  0  0  0
 36 39  1  0  0  0  0
 36  1  1  0  0  0  0
 37 36  1  0  0  0  0
 38 36  1  0  0  0  0
M  END
