1,14
q = -1.0, confidence = 0.0

 23 24  0  0  0  0  0  0  0  0999 V2000
    1.7251    1.2660   -0.1098 N   0  0  0  0  0  2  0  0  0  0  0  0
   -3.0275    1.9084    0.9559 N   0  0  0  0  0  0  0  0  0  0  0  0
    3.0392    1.1077   -0.3701 C   0  0  0  0  0  3  0  0  0  0  0  0
    3.3607    0.0826   -0.6023 H   0  0  0  0  0  0  0  0  0  0  0  0
    3.9385    2.1748   -0.3511 C   0  0  0  0  0  0  0  0  0  0  0  0
    5.0021    1.9941   -0.5583 H   0  0  0  0  0  0  0  0  0  0  0  0
    3.4466    3.4664   -0.0731 C   0  0  0  0  0  0  0  0  0  0  0  0
    4.1294    4.3291   -0.0485 H   0  0  0  0  0  0  0  0  0  0  0  0
    2.0823    3.6416    0.1507 C   0  0  0  0  0  0  0  0  0  0  0  0
    1.6565    4.6372    0.3400 H   0  0  0  0  0  0  0  0  0  0  0  0
    1.2114    2.5262    0.1200 C   0  0  0  0  0  0  0  0  0  0  0  0
   -0.2146    2.5486    0.2524 C   0  0  0  0  0  0  0  0  0  0  0  0
   -0.7606    3.4913    0.4079 H   0  0  0  0  0  0  0  0  0  0  0  0
   -0.8447    1.3375    0.0653 C   0  0  0  0  0  3  0  0  0  0  0  0
   -2.3187    1.2652   -0.0022 C   0  0  0  0  0  0  0  0  0  0  0  0
   -2.9405    0.5547   -1.0579 C   0  0  0  0  0  0  0  0  0  0  0  0
   -2.3041    0.0863   -1.8245 H   0  0  0  0  0  0  0  0  0  0  0  0
   -4.3370    0.5033   -1.1044 C   0  0  0  0  0  0  0  0  0  0  0  0
   -4.8479   -0.0316   -1.9204 H   0  0  0  0  0  0  0  0  0  0  0  0
   -5.0742    1.1435   -0.0939 C   0  0  0  0  0  0  0  0  0  0  0  0
   -6.1742    1.1178   -0.0810 H   0  0  0  0  0  0  0  0  0  0  0  0
   -4.3661    1.8340    0.9031 C   0  0  0  0  0  0  0  0  0  0  0  0
   -4.9144    2.3588    1.7071 H   0  0  0  0  0  0  0  0  0  0  0  0
  1 11  1  0  0  0  0
  3  5  1  0  0  0  0
  3  1  1  0  0  0  0
  4  3  1  0  0  0  0
  5  7  2  0  0  0  0
  6  5  1  0  0  0  0
  7  8  1  0  0  0  0
  7  9  1  0  0  0  0
  9 10  1  0  0  0  0
 11  9  2  0  0  0  0
 11 12  1  0  0  0  0
 12 13  1  0  0  0  0
 14 12  2  0  0  0  0
 15 14  1  0  0  0  0
 15  2  2  0  0  0  0
 16 15  1  0  0  0  0
 17 16  1  0  0  0  0
 18 16  2  0  0  0  0
 18 20  1  0  0  0  0
 19 18  1  0  0  0  0
 20 21  1  0  0  0  0
 20 22  2  0  0  0  0
 22  2  1  0  0  0  0
 22 23  1  0  0  0  0
M  END
