1,12
q = -1.0

 23 24  0  0  0  0  0  0  0  0999 V2000
   -0.6884    1.3993   -0.2553 N   0  0  0  0  0  2  0  0  0  0  0  0
   -0.3454    2.6741   -0.5578 C   0  0  0  0  0  3  0  0  0  0  0  0
    0.7058    2.9315   -0.3610 H   0  0  0  0  0  0  0  0  0  0  0  0
   -1.2549    3.5971   -1.0748 C   0  0  0  0  0  0  0  0  0  0  0  0
   -0.9247    4.6214   -1.2964 H   0  0  0  0  0  0  0  0  0  0  0  0
   -2.5686    3.1699   -1.3161 C   0  0  0  0  0  0  0  0  0  0  0  0
   -3.3120    3.8497   -1.7586 H   0  0  0  0  0  0  0  0  0  0  0  0
   -2.9291    1.8611   -0.9844 C   0  0  0  0  0  0  0  0  0  0  0  0
   -3.9482    1.5220   -1.1801 H   0  0  0  0  0  0  0  0  0  0  0  0
   -1.9884    0.9712   -0.4146 C   0  0  0  0  0  0  0  0  0  0  0  0
   -2.2090   -0.3894    0.0861 C   0  0  0  0  0  0  0  0  0  0  0  0
   -0.9998   -1.0762    0.4609 C   0  0  0  0  0  3  0  0  0  0  0  0
   -1.1318   -2.2855    1.1692 C   0  0  0  0  0  0  0  0  0  0  0  0
   -0.2461   -2.8075    1.5501 H   0  0  0  0  0  0  0  0  0  0  0  0
   -2.3859   -2.8502    1.4292 C   0  0  0  0  0  0  0  0  0  0  0  0
   -2.4544   -3.7993    1.9841 H   0  0  0  0  0  0  0  0  0  0  0  0
   -3.5504   -2.2129    0.9872 C   0  0  0  0  0  0  0  0  0  0  0  0
   -4.5345   -2.6668    1.1815 H   0  0  0  0  0  0  0  0  0  0  0  0
   -3.4945   -0.9731    0.3288 C   0  0  0  0  0  0  0  0  0  0  0  0
   -4.8148   -0.3350   -0.0341 C   0  0  0  0  0  0  0  0  0  0  0  0
   -5.6503   -0.9715    0.3147 H   0  0  0  0  0  0  0  0  0  0  0  0
   -4.9399   -0.2067   -1.1300 H   0  0  0  0  0  0  0  0  0  0  0  0
   -4.9432    0.6641    0.4315 H   0  0  0  0  0  0  0  0  0  0  0  0
  2  3  1  0  0  0  0
  2  1  1  0  0  0  0
  4  2  1  0  0  0  0
  5  4  1  0  0  0  0
  6  4  2  0  0  0  0
  6  8  1  0  0  0  0
  7  6  1  0  0  0  0
  8 10  2  0  0  0  0
  9  8  1  0  0  0  0
 10  1  1  0  0  0  0
 10 11  1  0  0  0  0
 11 19  2  0  0  0  0
 11 12  1  0  0  0  0
 12 13  2  0  0  0  0
 13 15  1  0  0  0  0
 13 14  1  0  0  0  0
 15 16  1  0  0  0  0
 17 18  1  0  0  0  0
 17 15  2  0  0  0  0
 19 17  1  0  0  0  0
 20 21  1  0  0  0  0
 20 19  1  0  0  0  0
 20 23  1  0  0  0  0
 22 20  1  0  0  0  0
M  END
