1,3
q = -1.0, confidence = 0.004

 34 37  0  0  0  0  0  0  0  0999 V2000
   -0.3310    0.6580    0.0296 N   0  0  0  0  0  2  0  0  0  0  0  0
   -2.5667    0.5571    0.0427 N   0  0  0  0  0  0  0  0  0  0  0  0
    0.3024   -1.8398    0.0670 C   0  0  0  0  0  2  0  0  0  0  0  0
    0.7362   -3.1789    0.1140 C   0  0  0  0  0  0  0  0  0  0  0  0
    1.8168   -3.3864    0.0944 H   0  0  0  0  0  0  0  0  0  0  0  0
   -0.1900   -4.2305    0.1915 C   0  0  0  0  0  0  0  0  0  0  0  0
    0.1707   -5.2710    0.2283 H   0  0  0  0  0  0  0  0  0  0  0  0
   -1.5744   -3.9742    0.2312 C   0  0  0  0  0  0  0  0  0  0  0  0
   -2.2903   -4.8064    0.3039 H   0  0  0  0  0  0  0  0  0  0  0  0
   -2.0422   -2.6564    0.1806 C   0  0  0  0  0  0  0  0  0  0  0  0
   -3.1219   -2.4576    0.2199 H   0  0  0  0  0  0  0  0  0  0  0  0
   -1.1144   -1.5950    0.0886 C   0  0  0  0  0  0  0  0  0  0  0  0
   -1.3962   -0.1758    0.0423 C   0  0  0  0  0  0  0  0  0  0  0  0
   -0.7972    1.9624    0.0313 C   0  0  0  0  0  0  0  0  0  0  0  0
   -0.1192    3.1941    0.0166 C   0  0  0  0  0  0  0  0  0  0  0  0
    0.9792    3.2056    0.0069 H   0  0  0  0  0  0  0  0  0  0  0  0
   -0.9028    4.3546    0.0104 C   0  0  0  0  0  0  0  0  0  0  0  0
   -0.4074    5.3371    0.0004 H   0  0  0  0  0  0  0  0  0  0  0  0
   -2.3174    4.2990    0.0125 C   0  0  0  0  0  0  0  0  0  0  0  0
   -2.8942    5.2358    0.0023 H   0  0  0  0  0  0  0  0  0  0  0  0
   -3.0034    3.0756    0.0248 C   0  0  0  0  0  0  0  0  0  0  0  0
   -4.1014    3.0259    0.0212 H   0  0  0  0  0  0  0  0  0  0  0  0
   -2.2199    1.9140    0.0415 C   0  0  0  0  0  0  0  0  0  0  0  0
   -3.9035    0.0626   -0.0390 C   0  0  0  0  0  0  0  0  0  0  0  0
   -4.3361   -0.5912   -1.2064 C   0  0  0  0  0  0  0  0  0  0  0  0
   -3.6320   -0.7286   -2.0397 H   0  0  0  0  0  0  0  0  0  0  0  0
   -5.6521   -1.0673   -1.2823 C   0  0  0  0  0  0  0  0  0  0  0  0
   -5.9910   -1.5862   -2.1913 H   0  0  0  0  0  0  0  0  0  0  0  0
   -6.5364   -0.8755   -0.2077 C   0  0  0  0  0  0  0  0  0  0  0  0
   -7.5698   -1.2472   -0.2729 H   0  0  0  0  0  0  0  0  0  0  0  0
   -6.1020   -0.2084    0.9487 C   0  0  0  0  0  0  0  0  0  0  0  0
   -6.7918   -0.0585    1.7927 H   0  0  0  0  0  0  0  0  0  0  0  0
   -4.7827    0.2597    1.0395 C   0  0  0  0  0  0  0  0  0  0  0  0
   -4.4209    0.7694    1.9442 H   0  0  0  0  0  0  0  0  0  0  0  0
  1 14  1  0  0  0  0
  1 13  1  0  0  0  0
  3 12  1  0  0  0  0
  3  4  1  0  0  0  0
  4  6  2  0  0  0  0
  5  4  1  0  0  0  0
  6  7  1  0  0  0  0
  6  8  1  0  0  0  0
  8  9  1  0  0  0  0
 10 11  1  0  0  0  0
 10  8  2  0  0  0  0
 12 10  1  0  0  0  0
 13  2  1  0  0  0  0
 13 12  2  0  0  0  0
 14 23  1  0  0  0  0
 15 14  2  0  0  0  0
 16 15  1  0  0  0  0
 17 19  2  0  0  0  0
 17 15  1  0  0  0  0
 18 17  1  0  0  0  0
 19 21  1  0  0  0  0
 20 19  1  0  0  0  0
 21 23  2  0  0  0  0
 22 21  1  0  0  0  0
 23  2  1  0  0  0  0
 24  2  1  0  0  0  0
 24 33  1  0  0  0  0
 25 24  2  0  0  0  0
 26 25  1  0  0  0  0
 27 25  1  0  0  0  0
 27 29  2  0  0  0  0
 28 27  1  0  0  0  0
 29 31  1  0  0  0  0
 30 29  1  0  0  0  0
 31 33  2  0  0  0  0
 31 32  1  0  0  0  0
 33 34  1  0  0  0  0
M  END
