1,3
q = -1.0

 23 24  0  0  0  0  0  0  0  0999 V2000
    2.7183    0.6510    0.0047 N   0  0  0  0  0  2  0  0  0  0  0  0
    6.1250   -1.9971   -0.0087 F   0  0  0  0  0  0  0  0  0  0  0  0
    2.4317   -1.9276   -0.0023 C   0  0  0  0  0  2  0  0  0  0  0  0
    3.9326   -0.0109    0.0014 C   0  0  0  0  0  0  0  0  0  0  0  0
    3.7895   -1.4559   -0.0030 C   0  0  0  0  0  0  0  0  0  0  0  0
    2.6632    1.9994    0.0082 C   0  0  0  0  0  0  0  0  0  0  0  0
    1.6518    2.4325    0.0128 H   0  0  0  0  0  0  0  0  0  0  0  0
    3.0109   -5.5231   -0.0150 F   0  0  0  0  0  0  0  0  0  0  0  0
    4.8354   -2.4057   -0.0078 C   0  0  0  0  0  0  0  0  0  0  0  0
    3.8192    2.7805    0.0097 C   0  0  0  0  0  0  0  0  0  0  0  0
    4.5919   -3.7775   -0.0119 C   0  0  0  0  0  0  0  0  0  0  0  0
    5.4195   -4.4977   -0.0157 H   0  0  0  0  0  0  0  0  0  0  0  0
    5.0733    2.1372    0.0092 C   0  0  0  0  0  0  0  0  0  0  0  0
    6.0003    2.7290    0.0159 H   0  0  0  0  0  0  0  0  0  0  0  0
    5.1261    0.7450    0.0046 C   0  0  0  0  0  0  0  0  0  0  0  0
    6.0853    0.2161    0.0051 H   0  0  0  0  0  0  0  0  0  0  0  0
    3.2519   -4.2009   -0.0110 C   0  0  0  0  0  0  0  0  0  0  0  0
    2.1751   -3.3085   -0.0064 C   0  0  0  0  0  0  0  0  0  0  0  0
    1.1442   -3.6893   -0.0058 H   0  0  0  0  0  0  0  0  0  0  0  0
    4.4806    4.8303    0.9810 F   0  0  0  0  0  0  0  0  0  0  0  0
    2.4617    4.7223    0.1457 F   0  0  0  0  0  0  0  0  0  0  0  0
    4.1989    4.7899   -1.1773 F   0  0  0  0  0  0  0  0  0  0  0  0
    3.7313    4.2855   -0.0087 C   0  0  0  0  0  0  0  0  0  0  0  0
  1  6  1  0  0  0  0
  2  9  1  0  0  0  0
  4 15  1  0  0  0  0
  4  1  1  0  0  0  0
  5  3  1  0  0  0  0
  5  4  2  0  0  0  0
  6 10  2  0  0  0  0
  6  7  1  0  0  0  0
  8 17  1  0  0  0  0
  9  5  1  0  0  0  0
 11 17  1  0  0  0  0
 11  9  2  0  0  0  0
 12 11  1  0  0  0  0
 13 10  1  0  0  0  0
 13 14  1  0  0  0  0
 15 16  1  0  0  0  0
 15 13  2  0  0  0  0
 17 18  2  0  0  0  0
 18 19  1  0  0  0  0
 18  3  1  0  0  0  0
 22 23  1  0  0  0  0
 23 10  1  0  0  0  0
 23 21  1  0  0  0  0
 23 20  1  0  0  0  0
M  END
