1,27
q = -1.0, confidence = 0.004

 28 29  0  0  0  0  0  0  0  0999 V2000
   -0.1519    0.9432   -0.3539 N   0  0  0  0  0  2  0  0  0  0  0  0
   -1.3937    1.2530   -0.0822 C   0  0  0  0  0  3  0  0  0  0  0  0
   -1.6973    2.2832    0.1839 H   0  0  0  0  0  0  0  0  0  0  0  0
   -2.3368    0.2892   -0.1103 N   0  0  0  0  0  0  0  0  0  0  0  0
   -3.7195    0.5970   -0.0372 C   0  0  0  0  0  0  0  0  0  0  0  0
   -4.2365    1.6959   -0.7573 C   0  0  0  0  0  0  0  0  0  0  0  0
   -3.5664    2.2873   -1.3996 H   0  0  0  0  0  0  0  0  0  0  0  0
   -5.5986    2.0146   -0.6777 C   0  0  0  0  0  0  0  0  0  0  0  0
   -5.9876    2.8776   -1.2393 H   0  0  0  0  0  0  0  0  0  0  0  0
   -6.4651    1.2240    0.0936 C   0  0  0  0  0  0  0  0  0  0  0  0
   -7.5370    1.4667    0.1464 H   0  0  0  0  0  0  0  0  0  0  0  0
   -5.9552    0.1158    0.7890 C   0  0  0  0  0  0  0  0  0  0  0  0
   -6.6288   -0.5124    1.3916 H   0  0  0  0  0  0  0  0  0  0  0  0
   -4.5908   -0.2001    0.7354 C   0  0  0  0  0  0  0  0  0  0  0  0
   -4.1915   -1.0649    1.2771 H   0  0  0  0  0  0  0  0  0  0  0  0
    0.8722    1.8934   -0.1579 C   0  0  0  0  0  0  0  0  0  0  0  0
    1.1008    2.4618    1.1137 C   0  0  0  0  0  0  0  0  0  0  0  0
    0.4489    2.1731    1.9521 H   0  0  0  0  0  0  0  0  0  0  0  0
    2.1692    3.3503    1.3092 C   0  0  0  0  0  0  0  0  0  0  0  0
    2.3399    3.7837    2.3068 H   0  0  0  0  0  0  0  0  0  0  0  0
    3.0241    3.6731    0.2447 C   0  0  0  0  0  0  0  0  0  0  0  0
    3.8677    4.3619    0.4010 H   0  0  0  0  0  0  0  0  0  0  0  0
    2.7945    3.1129   -1.0248 C   0  0  0  0  0  0  0  0  0  0  0  0
    3.4559    3.3674   -1.8669 H   0  0  0  0  0  0  0  0  0  0  0  0
    1.7276    2.2310   -1.2289 C   0  0  0  0  0  0  0  0  0  0  0  0
    1.5345    1.7896   -2.2166 H   0  0  0  0  0  0  0  0  0  0  0  0
   -1.7792   -1.1265   -0.3463 C   0  0  0  0  0  3  0  0  0  0  0  0
   -2.5903   -2.0271   -0.2213 O   0  0  0  0  0  0  0  0  0  0  0  0
  1 16  1  0  0  0  0
  1  2  1  0  0  0  0
  2  3  1  0  0  0  0
  4  2  1  0  0  0  0
  4  5  1  0  0  0  0
  5 14  1  0  0  0  0
  6  8  1  0  0  0  0
  6  5  2  0  0  0  0
  7  6  1  0  0  0  0
  8 10  2  0  0  0  0
  9  8  1  0  0  0  0
 10 11  1  0  0  0  0
 10 12  1  0  0  0  0
 12 13  1  0  0  0  0
 14 12  2  0  0  0  0
 14 15  1  0  0  0  0
 16 17  1  0  0  0  0
 17 19  2  0  0  0  0
 17 18  1  0  0  0  0
 19 20  1  0  0  0  0
 21 22  1  0  0  0  0
 21 19  1  0  0  0  0
 23 21  2  0  0  0  0
 24 23  1  0  0  0  0
 25 23  1  0  0  0  0
 25 16  2  0  0  0  0
 26 25  1  0  0  0  0
 27 28  2  0  0  0  0
 27  4  1  0  0  0  0
M  END
