1,3
q = -1.0

 44 46  0  0  1  0  0  0  0  0999 V2000
   -2.0093   -1.0823   -1.0687 N   0  0  0  0  0  2  0  0  0  0  0  0
    3.0316   -4.4552    0.6054 O   0  0  0  0  0  0  0  0  0  0  0  0
    0.3984   -1.9976   -0.3160 C   0  0  0  0  0  2  0  0  0  0  0  0
    1.6318   -2.5153    0.1092 C   0  0  0  0  0  0  0  0  0  0  0  0
    2.4531   -1.8403    0.3746 H   0  0  0  0  0  0  0  0  0  0  0  0
    1.8561   -3.9099    0.1993 C   0  0  0  0  0  0  0  0  0  0  0  0
    0.8340   -4.8267   -0.1387 C   0  0  0  0  0  0  0  0  0  0  0  0
    1.0414   -5.9030   -0.0606 H   0  0  0  0  0  0  0  0  0  0  0  0
   -0.4008   -4.3370   -0.5551 C   0  0  0  0  0  0  0  0  0  0  0  0
   -1.2084   -5.0392   -0.8171 H   0  0  0  0  0  0  0  0  0  0  0  0
   -0.6298   -2.9443   -0.6426 C   0  0  0  0  0  0  0  0  0  0  0  0
   -1.8980   -2.3797   -1.0254 C   0  0  0  0  0  0  0  0  0  0  0  0
   -2.7705   -3.0231   -1.2617 H   0  0  0  0  0  0  0  0  0  0  0  0
   -3.2863   -0.4379   -1.3077 C   0  0  0  0  0  0  0  0  0  0  0  0
   -4.0014   -1.1751   -1.7349 H   0  0  0  0  0  0  0  0  0  0  0  0
   -3.1240    0.3815   -2.0366 H   0  0  0  0  0  0  0  0  0  0  0  0
   -3.8430    0.1889   -0.0119 C   0  0  1  0  0  0  0  0  0  0  0  0
   -3.0698    0.9264    0.2898 H   0  0  0  0  0  0  0  0  0  0  0  0
   -5.1173    1.0120   -0.2671 C   0  0  1  0  0  0  0  0  0  0  0  0
   -4.9845    1.6674   -1.1541 H   0  0  0  0  0  0  0  0  0  0  0  0
   -6.4581    0.1898   -0.1751 C   0  0  0  0  0  0  0  0  0  0  0  0
   -6.2977    0.3745    1.3756 C   0  0  1  0  0  0  0  0  0  0  0  0
   -7.2317    0.4461    1.9737 H   0  0  0  0  0  0  0  0  0  0  0  0
   -5.3317   -0.6530    1.9806 C   0  0  0  0  0  0  0  0  0  0  0  0
   -5.8468   -1.6284    2.1097 H   0  0  0  0  0  0  0  0  0  0  0  0
   -5.0703   -0.3102    3.0043 H   0  0  0  0  0  0  0  0  0  0  0  0
   -4.0407   -0.8476    1.1311 C   0  0  0  0  0  0  0  0  0  0  0  0
   -3.1456   -0.8443    1.7850 H   0  0  0  0  0  0  0  0  0  0  0  0
   -4.0546   -1.8674    0.6922 H   0  0  0  0  0  0  0  0  0  0  0  0
   -5.5097    1.6763    1.0802 C   0  0  0  0  0  0  0  0  0  0  0  0
   -6.1553    2.5658    0.9618 H   0  0  0  0  0  0  0  0  0  0  0  0
   -4.6777    1.9307    1.7689 H   0  0  0  0  0  0  0  0  0  0  0  0
   -7.6401    0.9994   -0.7291 C   0  0  0  0  0  0  0  0  0  0  0  0
   -7.6584    2.0442   -0.3644 H   0  0  0  0  0  0  0  0  0  0  0  0
   -7.5996    1.0347   -1.8380 H   0  0  0  0  0  0  0  0  0  0  0  0
   -8.6038    0.5275   -0.4436 H   0  0  0  0  0  0  0  0  0  0  0  0
   -6.5563   -1.2281   -0.7432 C   0  0  0  0  0  0  0  0  0  0  0  0
   -7.5301   -1.6830   -0.4631 H   0  0  0  0  0  0  0  0  0  0  0  0
   -6.5139   -1.2112   -1.8527 H   0  0  0  0  0  0  0  0  0  0  0  0
   -5.7614   -1.9073   -0.3869 H   0  0  0  0  0  0  0  0  0  0  0  0
    4.1054   -3.5863    0.9293 C   0  0  0  0  0  0  0  0  0  0  0  0
    4.9493   -4.2350    1.2288 H   0  0  0  0  0  0  0  0  0  0  0  0
    4.4117   -2.9638    0.0601 H   0  0  0  0  0  0  0  0  0  0  0  0
    3.8498   -2.9092    1.7748 H   0  0  0  0  0  0  0  0  0  0  0  0
  1 12  1  0  0  0  0
  2 41  1  0  0  0  0
  3  4  1  0  0  0  0
  4  6  2  0  0  0  0
  4  5  1  0  0  0  0
  6  2  1  0  0  0  0
  7  8  1  0  0  0  0
  7  6  1  0  0  0  0
  9  7  2  0  0  0  0
 10  9  1  0  0  0  0
 11  9  1  0  0  0  0
 11  3  1  0  0  0  0
 12 11  2  0  0  0  0
 13 12  1  0  0  0  0
 14  1  1  0  0  0  0
 14 17  1  0  0  0  0
 15 14  1  0  0  0  0
 16 14  1  0  0  0  0
 17 18  1  1  0  0  0
 17 27  1  0  0  0  0
 19 20  1  6  0  0  0
 19 21  1  0  0  0  0
 19 17  1  0  0  0  0
 19 30  1  0  0  0  0
 21 22  1  0  0  0  0
 22 23  1  1  0  0  0
 22 24  1  0  0  0  0
 24 25  1  0  0  0  0
 24 26  1  0  0  0  0
 27 28  1  0  0  0  0
 27 24  1  0  0  0  0
 29 27  1  0  0  0  0
 30 22  1  0  0  0  0
 30 32  1  0  0  0  0
 31 30  1  0  0  0  0
 33 36  1  0  0  0  0
 33 34  1  0  0  0  0
 33 21  1  0  0  0  0
 35 33  1  0  0  0  0
 37 38  1  0  0  0  0
 37 40  1  0  0  0  0
 37 21  1  0  0  0  0
 39 37  1  0  0  0  0
 41 42  1  0  0  0  0
 41 44  1  0  0  0  0
 43 41  1  0  0  0  0
M  END
