1,2
q = -1.0

 32 32  0  0  1  0  0  0  0  0999 V2000
   -1.9815   -0.7971   -0.1757 N   0  0  0  0  0  2  0  0  0  0  0  0
   -0.3749   -2.8978   -0.0963 C   0  0  0  0  0  3  0  0  0  0  0  0
   -0.3551   -3.3984    1.3451 C   0  0  0  0  0  0  0  0  0  0  0  0
   -1.7526   -3.0730   -0.7589 C   0  0  0  0  0  0  0  0  0  0  0  0
   -2.6255   -1.9034   -0.4440 C   0  0  2  0  0  3  0  0  0  0  0  0
   -4.1134   -2.0278   -0.4629 C   0  0  0  0  0  0  0  0  0  0  0  0
   -2.6619    0.4344    0.0710 C   0  0  0  0  0  0  0  0  0  0  0  0
   -2.7909    0.8828    1.4086 C   0  0  0  0  0  0  0  0  0  0  0  0
   -3.3975    2.1346    1.6233 C   0  0  0  0  0  0  0  0  0  0  0  0
   -3.8533    2.9108    0.5478 C   0  0  0  0  0  0  0  0  0  0  0  0
   -3.7054    2.4483   -0.7678 C   0  0  0  0  0  0  0  0  0  0  0  0
   -3.1037    1.2032   -1.0356 C   0  0  0  0  0  0  0  0  0  0  0  0
   -2.9036    0.7103   -2.4444 C   0  0  0  0  0  0  0  0  0  0  0  0
   -2.2755    0.0454    2.5471 C   0  0  0  0  0  0  0  0  0  0  0  0
    0.3926   -3.4186   -0.7064 H   0  0  0  0  0  0  0  0  0  0  0  0
    0.6273   -3.2406    1.8343 H   0  0  0  0  0  0  0  0  0  0  0  0
   -0.5716   -4.4905    1.3883 H   0  0  0  0  0  0  0  0  0  0  0  0
   -1.1178   -2.8895    1.9696 H   0  0  0  0  0  0  0  0  0  0  0  0
   -1.6533   -3.1010   -1.8682 H   0  0  0  0  0  0  0  0  0  0  0  0
   -2.2477   -4.0306   -0.4800 H   0  0  0  0  0  0  0  0  0  0  0  0
   -4.4273   -2.7441    0.3260 H   0  0  0  0  0  0  0  0  0  0  0  0
   -4.4447   -2.4718   -1.4245 H   0  0  0  0  0  0  0  0  0  0  0  0
   -4.6292   -1.0646   -0.3008 H   0  0  0  0  0  0  0  0  0  0  0  0
   -3.5110    2.5012    2.6549 H   0  0  0  0  0  0  0  0  0  0  0  0
   -4.3262    3.8858    0.7365 H   0  0  0  0  0  0  0  0  0  0  0  0
   -4.0563    3.0624   -1.6113 H   0  0  0  0  0  0  0  0  0  0  0  0
   -3.1464    1.4988   -3.1805 H   0  0  0  0  0  0  0  0  0  0  0  0
   -3.5493   -0.1637   -2.6726 H   0  0  0  0  0  0  0  0  0  0  0  0
   -1.8557    0.3832   -2.6117 H   0  0  0  0  0  0  0  0  0  0  0  0
   -1.1957   -0.1853    2.4133 H   0  0  0  0  0  0  0  0  0  0  0  0
   -2.7983   -0.9324    2.6062 H   0  0  0  0  0  0  0  0  0  0  0  0
   -2.4079    0.5593    3.5168 H   0  0  0  0  0  0  0  0  0  0  0  0
  1  7  1  0  0  0  0
  2  3  1  0  0  0  0
  3 17  1  0  0  0  0
  3 16  1  0  0  0  0
  3 18  1  0  0  0  0
  4 20  1  0  0  0  0
  4  5  1  0  0  0  0
  4  2  1  0  0  0  0
  5  1  1  6  0  0  0
  6  5  1  0  0  0  0
  6 23  1  0  0  0  0
  6 21  1  0  0  0  0
  7  8  1  0  0  0  0
  8  9  2  0  0  0  0
  8 14  1  0  0  0  0
  9 24  1  0  0  0  0
 10 25  1  0  0  0  0
 10  9  1  0  0  0  0
 11 10  2  0  0  0  0
 12 11  1  0  0  0  0
 12  7  2  0  0  0  0
 13 12  1  0  0  0  0
 14 31  1  0  0  0  0
 14 32  1  0  0  0  0
 15  2  1  0  0  0  0
 19  4  1  0  0  0  0
 22  6  1  0  0  0  0
 26 11  1  0  0  0  0
 27 13  1  0  0  0  0
 28 13  1  0  0  0  0
 29 13  1  0  0  0  0
 30 14  1  0  0  0  0
M  END
