1,58
q = -1.0

 63 65  0  0  1  0  0  0  0  0999 V2000
   -0.6470    0.3873   -1.4259 N   0  0  0  0  0  2  0  0  0  0  0  0
   -1.3672   -1.6307   -0.5405 N   0  0  0  0  0  0  0  0  0  0  0  0
   -0.6080   -2.0093   -1.1490 H   0  0  0  0  0  0  0  0  0  0  0  0
   -2.7373    0.3165   -0.3928 N   0  0  0  0  0  0  0  0  0  0  0  0
   -2.6548    1.3383   -0.3830 H   0  0  0  0  0  0  0  0  0  0  0  0
    0.4817    4.4778    1.4804 O   0  0  0  0  0  0  0  0  0  0  0  0
   -0.9037    2.9107    2.3531 O   0  0  0  0  0  0  0  0  0  0  0  0
    1.3817   -0.2783    2.1066 O   0  0  0  0  0  0  0  0  0  0  0  0
    2.1179    1.8305    2.5179 O   0  0  0  0  0  0  0  0  0  0  0  0
   -1.5875   -0.3063   -0.7886 C   0  0  0  0  0  3  0  0  0  0  0  0
   -1.5945   -2.2939    0.6871 C   0  0  0  0  0  0  0  0  0  0  0  0
   -1.7502   -1.5829    1.8934 C   0  0  0  0  0  0  0  0  0  0  0  0
   -1.6724   -0.4868    1.8963 H   0  0  0  0  0  0  0  0  0  0  0  0
   -1.9692   -2.2744    3.0908 C   0  0  0  0  0  0  0  0  0  0  0  0
   -2.0951   -1.7086    4.0262 H   0  0  0  0  0  0  0  0  0  0  0  0
   -2.0128   -3.6770    3.0956 C   0  0  0  0  0  0  0  0  0  0  0  0
   -2.1838   -4.2256    4.0339 H   0  0  0  0  0  0  0  0  0  0  0  0
   -1.8315   -4.3789    1.8942 C   0  0  0  0  0  0  0  0  0  0  0  0
   -1.8582   -5.4802    1.8935 H   0  0  0  0  0  0  0  0  0  0  0  0
   -1.6252   -3.7125    0.6729 C   0  0  0  0  0  0  0  0  0  0  0  0
   -1.4351   -4.4607   -0.6195 C   0  0  0  0  0  0  0  0  0  0  0  0
   -1.5265   -5.5528   -0.4676 H   0  0  0  0  0  0  0  0  0  0  0  0
   -0.4403   -4.2584   -1.0742 H   0  0  0  0  0  0  0  0  0  0  0  0
   -2.1845   -4.1516   -1.3794 H   0  0  0  0  0  0  0  0  0  0  0  0
   -3.9512   -0.2153    0.0864 C   0  0  0  0  0  0  0  0  0  0  0  0
   -4.4272   -1.4752   -0.3249 C   0  0  0  0  0  0  0  0  0  0  0  0
   -3.8450   -2.0644   -1.0453 H   0  0  0  0  0  0  0  0  0  0  0  0
   -5.6323   -1.9679    0.1884 C   0  0  0  0  0  0  0  0  0  0  0  0
   -5.9917   -2.9573   -0.1314 H   0  0  0  0  0  0  0  0  0  0  0  0
   -6.3749   -1.2026    1.0998 C   0  0  0  0  0  0  0  0  0  0  0  0
   -7.3216   -1.5869    1.5077 H   0  0  0  0  0  0  0  0  0  0  0  0
   -5.9043    0.0602    1.4884 C   0  0  0  0  0  0  0  0  0  0  0  0
   -6.4858    0.6660    2.2011 H   0  0  0  0  0  0  0  0  0  0  0  0
   -4.6920    0.5803    1.0010 C   0  0  0  0  0  0  0  0  0  0  0  0
   -4.1833    1.9331    1.4295 C   0  0  0  0  0  0  0  0  0  0  0  0
   -4.8576    2.3883    2.1790 H   0  0  0  0  0  0  0  0  0  0  0  0
   -4.1279    2.6452    0.5749 H   0  0  0  0  0  0  0  0  0  0  0  0
   -3.1638    1.8925    1.8707 H   0  0  0  0  0  0  0  0  0  0  0  0
   -0.9091    1.7186   -1.8312 C   0  0  2  0  0  3  0  0  0  0  0  0
   -0.4736    2.7815   -0.9880 C   0  0  0  0  0  0  0  0  0  0  0  0
   -0.7744    4.1081   -1.3687 C   0  0  0  0  0  0  0  0  0  0  0  0
   -0.4421    4.9343   -0.7247 H   0  0  0  0  0  0  0  0  0  0  0  0
   -1.4536    4.3628   -2.5663 C   0  0  0  0  0  0  0  0  0  0  0  0
   -1.6617    5.4011   -2.8655 H   0  0  0  0  0  0  0  0  0  0  0  0
   -1.8589    3.3030   -3.3933 C   0  0  0  0  0  0  0  0  0  0  0  0
   -2.3857    3.5124   -4.3375 H   0  0  0  0  0  0  0  0  0  0  0  0
   -1.6039    1.9645   -3.0402 C   0  0  0  0  0  0  0  0  0  0  0  0
   -2.0514    0.8086   -3.8939 C   0  0  0  0  0  0  0  0  0  0  0  0
   -2.9231    0.2889   -3.4404 H   0  0  0  0  0  0  0  0  0  0  0  0
   -1.2460    0.0514   -3.9875 H   0  0  0  0  0  0  0  0  0  0  0  0
   -2.3533    1.1480   -4.9028 H   0  0  0  0  0  0  0  0  0  0  0  0
    0.2163    2.4409    0.2714 C   0  0  0  0  0  0  0  0  0  0  0  0
   -0.1305    3.2734    1.4804 C   0  0  0  0  0  0  0  0  0  0  0  0
    0.2326    5.2868    2.6393 C   0  0  0  0  0  0  0  0  0  0  0  0
   -0.8538    5.4545    2.7811 H   0  0  0  0  0  0  0  0  0  0  0  0
    0.7563    6.2430    2.4631 H   0  0  0  0  0  0  0  0  0  0  0  0
    0.6338    4.7865    3.5432 H   0  0  0  0  0  0  0  0  0  0  0  0
    0.9974    1.3282    0.4332 C   0  0  0  0  0  2  0  0  0  0  0  0
    1.5544    1.0307    1.7811 C   0  0  0  0  0  0  0  0  0  0  0  0
    1.8763   -0.6762    3.3873 C   0  0  0  0  0  0  0  0  0  0  0  0
    2.9863   -0.6979    3.3853 H   0  0  0  0  0  0  0  0  0  0  0  0
    1.4729   -1.6890    3.5669 H   0  0  0  0  0  0  0  0  0  0  0  0
    1.5417    0.0253    4.1773 H   0  0  0  0  0  0  0  0  0  0  0  0
  1 10  1  0  0  0  0
  2 11  1  0  0  0  0
  3  2  1  0  0  0  0
  4  5  1  0  0  0  0
  4 25  1  0  0  0  0
  6 53  1  0  0  0  0
  6 54  1  0  0  0  0
  8 60  1  0  0  0  0
 10  2  1  0  0  0  0
 10  4  1  0  0  0  0
 11 12  1  0  0  0  0
 12 13  1  0  0  0  0
 12 14  2  0  0  0  0
 14 16  1  0  0  0  0
 14 15  1  0  0  0  0
 16 17  1  0  0  0  0
 18 16  2  0  0  0  0
 19 18  1  0  0  0  0
 20 11  2  0  0  0  0
 20 18  1  0  0  0  0
 21 22  1  0  0  0  0
 21 20  1  0  0  0  0
 23 21  1  0  0  0  0
 24 21  1  0  0  0  0
 25 34  1  0  0  0  0
 26 25  2  0  0  0  0
 26 28  1  0  0  0  0
 27 26  1  0  0  0  0
 28 30  2  0  0  0  0
 29 28  1  0  0  0  0
 30 32  1  0  0  0  0
 30 31  1  0  0  0  0
 32 33  1  0  0  0  0
 34 35  1  0  0  0  0
 34 32  2  0  0  0  0
 35 38  1  0  0  0  0
 35 36  1  0  0  0  0
 37 35  1  0  0  0  0
 39  1  1  1  0  0  0
 39 40  1  0  0  0  0
 40 52  2  0  0  0  0
 41 40  1  0  0  0  0
 41 42  1  0  0  0  0
 43 41  2  0  0  0  0
 44 43  1  0  0  0  0
 45 47  2  0  0  0  0
 45 43  1  0  0  0  0
 46 45  1  0  0  0  0
 47 39  1  0  0  0  0
 48 49  1  0  0  0  0
 48 47  1  0  0  0  0
 50 48  1  0  0  0  0
 51 48  1  0  0  0  0
 52 58  1  0  0  0  0
 52 53  1  0  0  0  0
 53  7  2  0  0  0  0
 54 55  1  0  0  0  0
 54 57  1  0  0  0  0
 56 54  1  0  0  0  0
 58 59  1  0  0  0  0
 59  8  1  0  0  0  0
 59  9  2  0  0  0  0
 60 62  1  0  0  0  0
 60 63  1  0  0  0  0
 61 60  1  0  0  0  0
M  END
