3,7
q = -1.0

 37 39  0  0  0  0  0  0  0  0999 V2000
   -8.0268    0.0881   -0.0174 C   0  0  0  0  0  0  0  0  0  0  0  0
   -5.9527    0.6103    1.1984 C   0  0  0  0  0  0  0  0  0  0  0  0
   -1.3937   -1.6450   -0.1114 C   0  0  0  0  0  2  0  0  0  0  0  0
   -7.3372    0.2486   -1.2345 C   0  0  0  0  0  0  0  0  0  0  0  0
   -7.8742    0.0958   -2.1844 H   0  0  0  0  0  0  0  0  0  0  0  0
   -2.8686    0.2239   -0.0781 C   0  0  0  0  0  0  0  0  0  0  0  0
   -1.7122    0.9258   -0.0951 N   0  0  0  0  0  2  0  0  0  0  0  0
   -2.1941   -3.9551   -0.1145 C   0  0  0  0  0  0  0  0  0  0  0  0
   -1.9709   -5.0339   -0.1295 H   0  0  0  0  0  0  0  0  0  0  0  0
   -5.3079    0.7762   -0.0466 C   0  0  0  0  0  0  0  0  0  0  0  0
   -3.8272   -2.1535   -0.0685 C   0  0  0  0  0  0  0  0  0  0  0  0
   -4.8725   -1.8117   -0.0459 H   0  0  0  0  0  0  0  0  0  0  0  0
   -7.3161    0.2678    1.1848 C   0  0  0  0  0  0  0  0  0  0  0  0
   -7.8364    0.1300    2.1461 H   0  0  0  0  0  0  0  0  0  0  0  0
   -1.1371   -3.0286   -0.1292 C   0  0  0  0  0  0  0  0  0  0  0  0
   -0.0926   -3.3758   -0.1611 H   0  0  0  0  0  0  0  0  0  0  0  0
   -3.9126    1.1101   -0.0618 N   0  0  0  0  0  0  0  0  0  0  0  0
   -2.7676   -1.2223   -0.0839 C   0  0  0  0  0  0  0  0  0  0  0  0
   -5.2268    0.7090   -2.5794 C   0  0  0  0  0  0  0  0  0  0  0  0
   -5.9140    0.6393   -3.4431 H   0  0  0  0  0  0  0  0  0  0  0  0
   -4.4727   -0.1012   -2.6746 H   0  0  0  0  0  0  0  0  0  0  0  0
   -4.6704    1.6656   -2.6499 H   0  0  0  0  0  0  0  0  0  0  0  0
   -2.0080    2.2685   -0.0901 C   0  0  0  0  0  0  0  0  0  0  0  0
   -1.2175    3.0256   -0.1056 H   0  0  0  0  0  0  0  0  0  0  0  0
   -5.9744    0.5908   -1.2775 C   0  0  0  0  0  0  0  0  0  0  0  0
   -3.5333   -3.5239   -0.0827 C   0  0  0  0  0  0  0  0  0  0  0  0
   -4.3519   -4.2590   -0.0707 H   0  0  0  0  0  0  0  0  0  0  0  0
   -3.3842    2.4003   -0.0693 C   0  0  0  0  0  0  0  0  0  0  0  0
   -4.0373    3.2774   -0.0613 H   0  0  0  0  0  0  0  0  0  0  0  0
   -9.4973   -0.2448   -0.0022 C   0  0  0  0  0  0  0  0  0  0  0  0
  -10.1118    0.6812   -0.0109 H   0  0  0  0  0  0  0  0  0  0  0  0
   -9.7783   -0.8136    0.9057 H   0  0  0  0  0  0  0  0  0  0  0  0
   -9.7911   -0.8387   -0.8897 H   0  0  0  0  0  0  0  0  0  0  0  0
   -5.1825    0.7498    2.4850 C   0  0  0  0  0  0  0  0  0  0  0  0
   -4.4154   -0.0488    2.5730 H   0  0  0  0  0  0  0  0  0  0  0  0
   -5.8525    0.6786    3.3620 H   0  0  0  0  0  0  0  0  0  0  0  0
   -4.6383    1.7146    2.5370 H   0  0  0  0  0  0  0  0  0  0  0  0
  1 30  1  0  0  0  0
  1 13  1  0  0  0  0
  2 34  1  0  0  0  0
  3 18  1  0  0  0  0
  4  1  2  0  0  0  0
  5  4  1  0  0  0  0
  6 17  1  0  0  0  0
  7 23  1  0  0  0  0
  7  6  1  0  0  0  0
  8 26  1  0  0  0  0
  9  8  1  0  0  0  0
 10  2  1  0  0  0  0
 11 12  1  0  0  0  0
 13  2  2  0  0  0  0
 13 14  1  0  0  0  0
 15  8  2  0  0  0  0
 15  3  1  0  0  0  0
 16 15  1  0  0  0  0
 17 10  1  0  0  0  0
 18  6  2  0  0  0  0
 18 11  1  0  0  0  0
 19 25  1  0  0  0  0
 20 19  1  0  0  0  0
 21 19  1  0  0  0  0
 22 19  1  0  0  0  0
 23 28  2  0  0  0  0
 24 23  1  0  0  0  0
 25  4  1  0  0  0  0
 25 10  2  0  0  0  0
 26 27  1  0  0  0  0
 26 11  2  0  0  0  0
 28 17  1  0  0  0  0
 28 29  1  0  0  0  0
 30 32  1  0  0  0  0
 31 30  1  0  0  0  0
 33 30  1  0  0  0  0
 34 37  1  0  0  0  0
 34 35  1  0  0  0  0
 34 36  1  0  0  0  0
M  END
