3
q = -2.0, confidence = 0.888

 42 42  0  0  1  0  0  0  0  0999 V2000
   -2.8674   -1.0021   -0.1464 Si  0  0  0  0  0  0  0  0  0  0  0  0
    0.2214    1.0499   -2.3578 O   0  0  0  0  0  0  0  0  0  0  0  0
   -1.7033   -0.3775   -1.3041 N   0  0  0  0  0  2  0  0  0  0  0  0
   -1.5513   -1.2779    1.1851 C   0  0  2  0  0  3  0  0  0  0  0  0
   -1.0278   -0.2623    2.0696 C   0  0  0  0  0  0  0  0  0  0  0  0
    0.3332   -0.5796    2.3699 C   0  0  0  0  0  0  0  0  0  0  0  0
    0.6693   -1.8006    1.6974 C   0  0  0  0  0  0  0  0  0  0  0  0
   -0.4813   -2.2280    0.9622 C   0  0  0  0  0  0  0  0  0  0  0  0
   -3.7835   -2.5641   -0.7028 C   0  0  0  0  0  0  0  0  0  0  0  0
   -4.2200    0.2667    0.2564 C   0  0  0  0  0  0  0  0  0  0  0  0
   -1.9846    0.2219   -2.5879 C   0  0  0  0  0  0  0  0  0  0  0  0
   -0.6718    0.4534   -3.3168 C   0  0  0  0  0  0  0  0  0  0  0  0
    1.3886    1.6170   -2.9414 C   0  0  0  0  0  0  0  0  0  0  0  0
   -1.7792    0.8826    2.6868 C   0  0  0  0  0  0  0  0  0  0  0  0
    1.2273    0.1534    3.3256 C   0  0  0  0  0  0  0  0  0  0  0  0
    1.9434   -2.5650    1.8998 C   0  0  0  0  0  0  0  0  0  0  0  0
   -0.5402   -3.4646    0.1058 C   0  0  0  0  0  0  0  0  0  0  0  0
   -4.4044   -2.9601    0.1282 H   0  0  0  0  0  0  0  0  0  0  0  0
   -3.1051   -3.3697   -1.0392 H   0  0  0  0  0  0  0  0  0  0  0  0
   -4.4693   -2.3195   -1.5411 H   0  0  0  0  0  0  0  0  0  0  0  0
   -4.7680    0.0103    1.1864 H   0  0  0  0  0  0  0  0  0  0  0  0
   -4.9607    0.2819   -0.5707 H   0  0  0  0  0  0  0  0  0  0  0  0
   -3.8143    1.2926    0.3593 H   0  0  0  0  0  0  0  0  0  0  0  0
   -2.5157    1.2029   -2.4922 H   0  0  0  0  0  0  0  0  0  0  0  0
   -2.6283   -0.4176   -3.2394 H   0  0  0  0  0  0  0  0  0  0  0  0
   -0.2276   -0.5070   -3.6700 H   0  0  0  0  0  0  0  0  0  0  0  0
   -0.7854    1.1409   -4.1841 H   0  0  0  0  0  0  0  0  0  0  0  0
    2.0105    0.8396   -3.4370 H   0  0  0  0  0  0  0  0  0  0  0  0
    1.9691    2.0891   -2.1292 H   0  0  0  0  0  0  0  0  0  0  0  0
    1.1023    2.3919   -3.6849 H   0  0  0  0  0  0  0  0  0  0  0  0
   -2.1286    0.6070    3.7057 H   0  0  0  0  0  0  0  0  0  0  0  0
   -2.6733    1.1610    2.1032 H   0  0  0  0  0  0  0  0  0  0  0  0
   -1.1488    1.7871    2.7932 H   0  0  0  0  0  0  0  0  0  0  0  0
    2.2728    0.2083    2.9593 H   0  0  0  0  0  0  0  0  0  0  0  0
    1.2567   -0.3541    4.3145 H   0  0  0  0  0  0  0  0  0  0  0  0
    0.8820    1.1901    3.5011 H   0  0  0  0  0  0  0  0  0  0  0  0
    1.8580   -3.2385    2.7802 H   0  0  0  0  0  0  0  0  0  0  0  0
    2.8040   -1.8942    2.0886 H   0  0  0  0  0  0  0  0  0  0  0  0
    2.2024   -3.1962    1.0280 H   0  0  0  0  0  0  0  0  0  0  0  0
   -0.8199   -3.2351   -0.9430 H   0  0  0  0  0  0  0  0  0  0  0  0
   -1.2860   -4.1881    0.4956 H   0  0  0  0  0  0  0  0  0  0  0  0
    0.4392   -3.9782    0.0785 H   0  0  0  0  0  0  0  0  0  0  0  0
  1 10  1  0  0  0  0
  3  1  1  0  0  0  0
  4  1  1  6  0  0  0
  4  5  1  0  0  0  0
  5  6  2  0  0  0  0
  5 14  1  0  0  0  0
  6 15  1  0  0  0  0
  7 16  1  0  0  0  0
  7  6  1  0  0  0  0
  8  4  1  0  0  0  0
  8  7  2  0  0  0  0
  9  1  1  0  0  0  0
  9 18  1  0  0  0  0
 10 23  1  0  0  0  0
 10 21  1  0  0  0  0
 11 24  1  0  0  0  0
 11  3  1  0  0  0  0
 12 11  1  0  0  0  0
 12  2  1  0  0  0  0
 13  2  1  0  0  0  0
 13 29  1  0  0  0  0
 14 33  1  0  0  0  0
 14 31  1  0  0  0  0
 15 36  1  0  0  0  0
 15 35  1  0  0  0  0
 16 38  1  0  0  0  0
 16 37  1  0  0  0  0
 17 41  1  0  0  0  0
 17  8  1  0  0  0  0
 19  9  1  0  0  0  0
 20  9  1  0  0  0  0
 22 10  1  0  0  0  0
 25 11  1  0  0  0  0
 26 12  1  0  0  0  0
 27 12  1  0  0  0  0
 28 13  1  0  0  0  0
 30 13  1  0  0  0  0
 32 14  1  0  0  0  0
 34 15  1  0  0  0  0
 39 16  1  0  0  0  0
 40 17  1  0  0  0  0
 42 17  1  0  0  0  0
M  END
