4,5
q = -1.0

 16 16  0  0  1  0  0  0  0  0999 V2000
    2.3305    2.9739    0.5485 O   0  0  0  0  0  0  0  0  0  0  0  0
   -0.3495   -1.5486   -1.7742 O   0  0  0  0  0  0  0  0  0  0  0  0
   -0.5550   -2.3416   -2.3032 H   0  0  0  0  0  0  0  0  0  0  0  0
    1.4033   -0.5614   -0.6837 N   0  0  0  0  0  2  0  0  0  0  0  0
    2.0417    1.8099    0.3663 C   0  0  0  0  0  3  0  0  0  0  0  0
    3.1568    0.7411    0.3319 C   0  0  0  0  0  0  0  0  0  0  0  0
    4.1128    1.1697   -0.0350 H   0  0  0  0  0  0  0  0  0  0  0  0
    3.3038    0.4629    1.4006 H   0  0  0  0  0  0  0  0  0  0  0  0
    2.7416   -0.4656   -0.4364 C   0  0  2  0  0  3  0  0  0  0  0  0
    3.6522   -1.4251   -0.8997 C   0  0  0  0  0  0  0  0  0  0  0  0
    4.7202   -1.3094   -0.6715 H   0  0  0  0  0  0  0  0  0  0  0  0
    3.1767   -2.5151   -1.6383 C   0  0  0  0  0  0  0  0  0  0  0  0
    3.8643   -3.2941   -1.9994 H   0  0  0  0  0  0  0  0  0  0  0  0
    1.8135   -2.5931   -1.9283 C   0  0  0  0  0  0  0  0  0  0  0  0
    1.4014   -3.4163   -2.5315 H   0  0  0  0  0  0  0  0  0  0  0  0
    0.9605   -1.5771   -1.4542 C   0  0  0  0  0  0  0  0  0  0  0  0
  2 16  1  0  0  0  0
  3  2  1  0  0  0  0
  4  9  1  0  0  0  0
  5  1  2  0  0  0  0
  6  5  1  0  0  0  0
  6  8  1  0  0  0  0
  7  6  1  0  0  0  0
  9  6  1  6  0  0  0
 10 11  1  0  0  0  0
 10  9  1  0  0  0  0
 12 10  2  0  0  0  0
 13 12  1  0  0  0  0
 14 12  1  0  0  0  0
 14 16  2  0  0  0  0
 15 14  1  0  0  0  0
 16  4  1  0  0  0  0
M  END
