1,29
q = -1.0

 56 58  0  0  0  0  0  0  0  0999 V2000
    2.6016    0.4127   -2.0869 N   0  0  0  0  0  0  0  0  0  0  0  0
    2.3174    0.8944   -2.9517 H   0  0  0  0  0  0  0  0  0  0  0  0
    3.2888    1.0161   -1.6095 H   0  0  0  0  0  0  0  0  0  0  0  0
    0.8419    2.5630    0.9251 N   0  0  0  0  0  2  0  0  0  0  0  0
    2.9235    1.4316    0.8255 C   0  0  0  0  0  0  0  0  0  0  0  0
    3.5131    0.1713    1.1160 C   0  0  0  0  0  0  0  0  0  0  0  0
    2.6808   -1.0636    1.0300 C   0  0  0  0  0  0  0  0  0  0  0  0
    2.7196   -1.8923   -0.1119 C   0  0  0  0  0  0  0  0  0  0  0  0
    3.7286   -1.6619   -1.2190 C   0  0  0  0  0  0  0  0  0  0  0  0
    4.0974   -2.6405   -1.5910 H   0  0  0  0  0  0  0  0  0  0  0  0
    4.6135   -1.1334   -0.8106 H   0  0  0  0  0  0  0  0  0  0  0  0
    3.2043   -0.8968   -2.4402 C   0  0  0  0  0  0  0  0  0  0  0  0
    4.0391   -0.7485   -3.1609 H   0  0  0  0  0  0  0  0  0  0  0  0
    2.4053   -1.4720   -2.9506 H   0  0  0  0  0  0  0  0  0  0  0  0
    4.8713    0.1213    1.4898 C   0  0  0  0  0  0  0  0  0  0  0  0
    5.3132   -0.8560    1.7378 H   0  0  0  0  0  0  0  0  0  0  0  0
    5.6502    1.2861    1.5536 C   0  0  0  0  0  0  0  0  0  0  0  0
    6.7111    1.2229    1.8399 H   0  0  0  0  0  0  0  0  0  0  0  0
    5.0694    2.5302    1.2576 C   0  0  0  0  0  0  0  0  0  0  0  0
    5.6722    3.4499    1.3081 H   0  0  0  0  0  0  0  0  0  0  0  0
    3.7149    2.6004    0.9095 C   0  0  0  0  0  0  0  0  0  0  0  0
    3.2317    3.5671    0.7031 H   0  0  0  0  0  0  0  0  0  0  0  0
    1.7421   -2.9034   -0.2450 C   0  0  0  0  0  0  0  0  0  0  0  0
    1.7199   -3.4949   -1.1699 H   0  0  0  0  0  0  0  0  0  0  0  0
    0.7663   -3.1207    0.7362 C   0  0  0  0  0  0  0  0  0  0  0  0
    0.8260   -2.3731    1.9508 C   0  0  0  0  0  0  0  0  0  0  0  0
    1.7588   -1.3379    2.0664 C   0  0  0  0  0  0  0  0  0  0  0  0
    1.7652   -0.6931    2.9548 H   0  0  0  0  0  0  0  0  0  0  0  0
    1.4800    1.5649    0.4369 C   0  0  0  0  0  2  0  0  0  0  0  0
   -0.5049   -4.5695   -0.6491 C   0  0  0  0  0  0  0  0  0  0  0  0
   -0.5982   -3.7859   -1.4343 H   0  0  0  0  0  0  0  0  0  0  0  0
   -1.4557   -5.1274   -0.5632 H   0  0  0  0  0  0  0  0  0  0  0  0
    0.3023   -5.2809   -0.9356 H   0  0  0  0  0  0  0  0  0  0  0  0
   -0.2672   -3.9925    0.6278 O   0  0  0  0  0  0  0  0  0  0  0  0
   -0.0869   -2.7113    2.9031 O   0  0  0  0  0  0  0  0  0  0  0  0
   -0.0283   -2.0351    4.1435 C   0  0  0  0  0  0  0  0  0  0  0  0
    0.9612   -2.1670    4.6359 H   0  0  0  0  0  0  0  0  0  0  0  0
   -0.8152   -2.4803    4.7801 H   0  0  0  0  0  0  0  0  0  0  0  0
   -0.2276   -0.9454    4.0358 H   0  0  0  0  0  0  0  0  0  0  0  0
   -0.4925    2.8976    0.7084 C   0  0  0  0  0  0  0  0  0  0  0  0
   -0.9131    3.5314   -0.4922 C   0  0  0  0  0  0  0  0  0  0  0  0
   -2.2711    3.8745   -0.6225 C   0  0  0  0  0  0  0  0  0  0  0  0
   -2.6048    4.3682   -1.5492 H   0  0  0  0  0  0  0  0  0  0  0  0
   -3.1968    3.5919    0.3928 C   0  0  0  0  0  0  0  0  0  0  0  0
   -4.2573    3.8540    0.2629 H   0  0  0  0  0  0  0  0  0  0  0  0
   -2.7637    2.9749    1.5757 C   0  0  0  0  0  0  0  0  0  0  0  0
   -3.4854    2.7490    2.3766 H   0  0  0  0  0  0  0  0  0  0  0  0
   -1.4137    2.6362    1.7602 C   0  0  0  0  0  0  0  0  0  0  0  0
   -0.9175    1.9677    3.0128 C   0  0  0  0  0  0  0  0  0  0  0  0
   -1.7100    1.9056    3.7832 H   0  0  0  0  0  0  0  0  0  0  0  0
   -0.0449    2.5116    3.4310 H   0  0  0  0  0  0  0  0  0  0  0  0
   -0.5552    0.9394    2.7968 H   0  0  0  0  0  0  0  0  0  0  0  0
    0.0738    3.7971   -1.5969 C   0  0  0  0  0  0  0  0  0  0  0  0
    0.3800    2.8418   -2.0792 H   0  0  0  0  0  0  0  0  0  0  0  0
    0.9997    4.2712   -1.2104 H   0  0  0  0  0  0  0  0  0  0  0  0
   -0.3610    4.4500   -2.3775 H   0  0  0  0  0  0  0  0  0  0  0  0
  1  3  1  0  0  0  0
  2  1  1  0  0  0  0
  5 21  2  0  0  0  0
  5  6  1  0  0  0  0
  6 15  2  0  0  0  0
  7  6  1  0  0  0  0
  7 27  1  0  0  0  0
  8  7  2  0  0  0  0
  9 11  1  0  0  0  0
  9  8  1  0  0  0  0
 10  9  1  0  0  0  0
 12  1  1  0  0  0  0
 12  9  1  0  0  0  0
 13 12  1  0  0  0  0
 14 12  1  0  0  0  0
 15 17  1  0  0  0  0
 15 16  1  0  0  0  0
 17 18  1  0  0  0  0
 19 20  1  0  0  0  0
 19 17  2  0  0  0  0
 21 19  1  0  0  0  0
 22 21  1  0  0  0  0
 23  8  1  0  0  0  0
 23 25  2  0  0  0  0
 24 23  1  0  0  0  0
 25 26  1  0  0  0  0
 26 27  2  0  0  0  0
 26 35  1  0  0  0  0
 27 28  1  0  0  0  0
 29  5  1  0  0  0  0
 29  4  1  0  0  0  0
 30 32  1  0  0  0  0
 30 34  1  0  0  0  0
 31 30  1  0  0  0  0
 33 30  1  0  0  0  0
 34 25  1  0  0  0  0
 35 36  1  0  0  0  0
 36 37  1  0  0  0  0
 36 38  1  0  0  0  0
 39 36  1  0  0  0  0
 40  4  1  0  0  0  0
 40 48  1  0  0  0  0
 41 40  2  0  0  0  0
 42 41  1  0  0  0  0
 42 44  2  0  0  0  0
 43 42  1  0  0  0  0
 44 46  1  0  0  0  0
 45 44  1  0  0  0  0
 46 48  2  0  0  0  0
 46 47  1  0  0  0  0
 48 49  1  0  0  0  0
 49 51  1  0  0  0  0
 49 50  1  0  0  0  0
 52 49  1  0  0  0  0
 53 55  1  0  0  0  0
 53 41  1  0  0  0  0
 54 53  1  0  0  0  0
 56 53  1  0  0  0  0
M  END
