1,28
q = -1.0

 28 31  0  0  0  0  0  0  0  0999 V2000
    2.0207    0.3936    0.4187 N   0  0  0  0  0  2  0  0  0  0  0  0
    0.5251    3.9601   -2.3533 O   0  0  0  0  0  0  0  0  0  0  0  0
    2.5872    4.1315   -1.4731 O   0  0  0  0  0  0  0  0  0  0  0  0
    3.9609    2.1113    0.1313 S   0  0  0  0  0  0  0  0  0  0  0  0
    4.2847    0.5888    0.9641 C   0  0  0  0  0  0  0  0  0  0  0  0
    5.4966    0.1397    1.5105 C   0  0  0  0  0  0  0  0  0  0  0  0
    6.3980    0.7688    1.4751 H   0  0  0  0  0  0  0  0  0  0  0  0
    5.5294   -1.1348    2.0921 C   0  0  0  0  0  0  0  0  0  0  0  0
    6.4703   -1.5069    2.5237 H   0  0  0  0  0  0  0  0  0  0  0  0
    4.3758   -1.9495    2.1187 C   0  0  0  0  0  0  0  0  0  0  0  0
    4.4333   -2.9537    2.5647 H   0  0  0  0  0  0  0  0  0  0  0  0
    3.1623   -1.5080    1.5824 C   0  0  0  0  0  0  0  0  0  0  0  0
    2.2568   -2.1292    1.5870 H   0  0  0  0  0  0  0  0  0  0  0  0
    3.1130   -0.2206    1.0119 C   0  0  0  0  0  0  0  0  0  0  0  0
    2.3132    1.5978   -0.1026 C   0  0  0  0  0  0  0  0  0  0  0  0
    1.2874    2.2293   -0.8722 C   0  0  0  0  0  0  0  0  0  0  0  0
    1.5584    3.4816   -1.5532 C   0  0  0  0  0  0  0  0  0  0  0  0
   -0.6251    3.2514   -2.5567 C   0  0  0  0  0  0  0  0  0  0  0  0
   -1.5431    3.8147   -3.4591 C   0  0  0  0  0  0  0  0  0  0  0  0
   -1.2917    4.7774   -3.9261 H   0  0  0  0  0  0  0  0  0  0  0  0
   -2.7316    3.1386   -3.7483 C   0  0  0  0  0  0  0  0  0  0  0  0
   -3.4467    3.5792   -4.4592 H   0  0  0  0  0  0  0  0  0  0  0  0
   -3.0079    1.8947   -3.1450 C   0  0  0  0  0  0  0  0  0  0  0  0
   -3.9349    1.3554   -3.3878 H   0  0  0  0  0  0  0  0  0  0  0  0
   -2.1022    1.3455   -2.2387 C   0  0  0  0  0  0  0  0  0  0  0  0
   -2.3031    0.3742   -1.7741 H   0  0  0  0  0  0  0  0  0  0  0  0
   -0.8935    2.0096   -1.9038 C   0  0  0  0  0  0  0  0  0  0  0  0
    0.0842    1.4976   -0.9639 C   0  0  0  0  0  2  0  0  0  0  0  0
  1 14  1  0  0  0  0
  2 17  1  0  0  0  0
  4  5  1  0  0  0  0
  5 14  2  0  0  0  0
  5  6  1  0  0  0  0
  6  8  2  0  0  0  0
  7  6  1  0  0  0  0
  8 10  1  0  0  0  0
  8  9  1  0  0  0  0
 10 11  1  0  0  0  0
 12 13  1  0  0  0  0
 12 10  2  0  0  0  0
 14 12  1  0  0  0  0
 15  4  1  0  0  0  0
 15  1  1  0  0  0  0
 16 15  2  0  0  0  0
 17  3  2  0  0  0  0
 17 16  1  0  0  0  0
 18  2  1  0  0  0  0
 18 27  1  0  0  0  0
 19 18  2  0  0  0  0
 20 19  1  0  0  0  0
 21 19  1  0  0  0  0
 21 23  2  0  0  0  0
 22 21  1  0  0  0  0
 23 25  1  0  0  0  0
 24 23  1  0  0  0  0
 25 27  2  0  0  0  0
 25 26  1  0  0  0  0
 27 28  1  0  0  0  0
 28 16  1  0  0  0  0
M  END
