26,44
q = -1.0

 47 48  0  0  1  0  0  0  0  0999 V2000
    2.9604   -1.5755   -1.8450 C   0  0  0  0  0  0  0  0  0  0  0  0
    2.9167   -0.6337   -2.4224 H   0  0  0  0  0  0  0  0  0  0  0  0
    2.2506   -2.3031   -2.2803 H   0  0  0  0  0  0  0  0  0  0  0  0
    3.9975   -1.9671   -1.8624 H   0  0  0  0  0  0  0  0  0  0  0  0
    2.5446   -2.5754    0.3329 C   0  0  0  0  0  0  0  0  0  0  0  0
    2.2618   -2.3631    1.3817 H   0  0  0  0  0  0  0  0  0  0  0  0
    3.5584   -3.0320    0.3092 H   0  0  0  0  0  0  0  0  0  0  0  0
    1.8058   -3.2687   -0.1115 H   0  0  0  0  0  0  0  0  0  0  0  0
    3.3484   -0.2719    0.2459 C   0  0  1  0  0  0  0  0  0  0  0  0
    2.8636   -0.1224    1.2306 H   0  0  0  0  0  0  0  0  0  0  0  0
    4.7730   -0.7454    0.5443 C   0  0  0  0  0  0  0  0  0  0  0  0
    6.3719   -0.9602    2.2626 C   0  0  0  0  0  0  0  0  0  0  0  0
    6.4269   -0.7633    3.3474 H   0  0  0  0  0  0  0  0  0  0  0  0
    7.1287   -0.3599    1.7189 H   0  0  0  0  0  0  0  0  0  0  0  0
    6.5595   -2.0317    2.0503 H   0  0  0  0  0  0  0  0  0  0  0  0
    3.3171    1.0467   -0.5024 C   0  0  0  0  0  0  0  0  0  0  0  0
    4.4242    1.5849   -1.1796 C   0  0  0  0  0  0  0  0  0  0  0  0
    5.3699    1.0251   -1.2060 H   0  0  0  0  0  0  0  0  0  0  0  0
    4.3239    2.8247   -1.8307 C   0  0  0  0  0  0  0  0  0  0  0  0
    5.1954    3.2323   -2.3644 H   0  0  0  0  0  0  0  0  0  0  0  0
    3.1165    3.5390   -1.7977 C   0  0  0  0  0  0  0  0  0  0  0  0
    3.0383    4.5164   -2.2979 H   0  0  0  0  0  0  0  0  0  0  0  0
    2.0077    3.0095   -1.1241 C   0  0  0  0  0  0  0  0  0  0  0  0
    1.0545    3.5564   -1.0837 H   0  0  0  0  0  0  0  0  0  0  0  0
    2.0927    1.7570   -0.4832 C   0  0  0  0  0  0  0  0  0  0  0  0
    0.8823    1.1777    0.1620 C   0  0  0  0  0  2  0  0  0  0  0  0
   -0.9666    1.5325    1.6293 C   0  0  0  0  0  0  0  0  0  0  0  0
   -1.0821    0.4453    2.5384 C   0  0  0  0  0  0  0  0  0  0  0  0
    0.1132   -0.3994    2.8911 C   0  0  0  0  0  0  0  0  0  0  0  0
    1.0144    0.2240    3.0634 H   0  0  0  0  0  0  0  0  0  0  0  0
    0.3587   -1.0974    2.0595 H   0  0  0  0  0  0  0  0  0  0  0  0
   -0.0783   -1.0053    3.7974 H   0  0  0  0  0  0  0  0  0  0  0  0
   -2.3481    0.1720    3.0901 C   0  0  0  0  0  0  0  0  0  0  0  0
   -2.4465   -0.6688    3.7953 H   0  0  0  0  0  0  0  0  0  0  0  0
   -3.4720    0.9410    2.7589 C   0  0  0  0  0  0  0  0  0  0  0  0
   -4.4555    0.6962    3.1866 H   0  0  0  0  0  0  0  0  0  0  0  0
   -3.3329    2.0347    1.8911 C   0  0  0  0  0  0  0  0  0  0  0  0
   -4.2085    2.6544    1.6409 H   0  0  0  0  0  0  0  0  0  0  0  0
   -2.0864    2.3603    1.3339 C   0  0  0  0  0  0  0  0  0  0  0  0
   -1.9096    3.5314    0.4052 C   0  0  0  0  0  0  0  0  0  0  0  0
   -1.0520    4.1586    0.7256 H   0  0  0  0  0  0  0  0  0  0  0  0
   -2.8208    4.1590    0.3665 H   0  0  0  0  0  0  0  0  0  0  0  0
   -1.6741    3.1995   -0.6289 H   0  0  0  0  0  0  0  0  0  0  0  0
    2.5212   -1.3143   -0.4482 N   0  0  0  0  0  0  0  0  0  0  0  0
    0.2447    1.8733    1.0269 N   0  0  0  0  0  2  0  0  0  0  0  0
    5.5683   -1.1999   -0.2596 O   0  0  0  0  0  0  0  0  0  0  0  0
    5.0454   -0.5889    1.8588 O   0  0  0  0  0  0  0  0  0  0  0  0
  1 44  1  0  0  0  0
  2  1  1  0  0  0  0
  3  1  1  0  0  0  0
  4  1  1  0  0  0  0
  5  6  1  0  0  0  0
  7  5  1  0  0  0  0
  8  5  1  0  0  0  0
  9 11  1  0  0  0  0
  9 10  1  1  0  0  0
 11 47  1  0  0  0  0
 12 13  1  0  0  0  0
 14 12  1  0  0  0  0
 15 12  1  0  0  0  0
 16 25  1  0  0  0  0
 16  9  1  0  0  0  0
 17 16  2  0  0  0  0
 18 17  1  0  0  0  0
 19 21  2  0  0  0  0
 19 17  1  0  0  0  0
 20 19  1  0  0  0  0
 21 23  1  0  0  0  0
 22 21  1  0  0  0  0
 23 24  1  0  0  0  0
 23 25  2  0  0  0  0
 25 26  1  0  0  0  0
 26 45  1  0  0  0  0
 27 28  1  0  0  0  0
 28 29  1  0  0  0  0
 28 33  2  0  0  0  0
 29 30  1  0  0  0  0
 29 32  1  0  0  0  0
 31 29  1  0  0  0  0
 33 34  1  0  0  0  0
 35 33  1  0  0  0  0
 35 36  1  0  0  0  0
 37 35  2  0  0  0  0
 38 37  1  0  0  0  0
 39 27  2  0  0  0  0
 39 37  1  0  0  0  0
 40 41  1  0  0  0  0
 40 39  1  0  0  0  0
 42 40  1  0  0  0  0
 43 40  1  0  0  0  0
 44  9  1  0  0  0  0
 44  5  1  0  0  0  0
 45 27  1  0  0  0  0
 46 11  2  0  0  0  0
 47 12  1  0  0  0  0
M  END
