1,15
q = -1.0

 37 39  0  0  0  0  0  0  0  0999 V2000
   -1.3653    0.6656    0.5533 N   0  0  0  0  0  2  0  0  0  0  0  0
   -5.4627   -0.1514    1.6984 C   0  0  0  0  0  0  0  0  0  0  0  0
   -4.5881   -0.5857    2.2065 H   0  0  0  0  0  0  0  0  0  0  0  0
   -6.4712    0.4707    2.4479 C   0  0  0  0  0  0  0  0  0  0  0  0
   -6.3728    0.5409    3.5421 H   0  0  0  0  0  0  0  0  0  0  0  0
   -7.6090    0.9893    1.8093 C   0  0  0  0  0  0  0  0  0  0  0  0
   -8.4005    1.4778    2.3976 H   0  0  0  0  0  0  0  0  0  0  0  0
   -7.7321    0.8752    0.4150 C   0  0  0  0  0  0  0  0  0  0  0  0
   -8.6193    1.2811   -0.0949 H   0  0  0  0  0  0  0  0  0  0  0  0
   -6.7244    0.2529   -0.3345 C   0  0  0  0  0  0  0  0  0  0  0  0
   -6.8157    0.1811   -1.4290 H   0  0  0  0  0  0  0  0  0  0  0  0
   -5.5680   -0.2654    0.2922 C   0  0  0  0  0  0  0  0  0  0  0  0
   -4.5130   -0.9401   -0.5062 C   0  0  0  0  0  3  0  0  0  0  0  0
   -3.1283   -0.6368   -0.3476 C   0  0  0  0  0  0  0  0  0  0  0  0
   -2.0987   -1.3405   -1.0582 C   0  0  0  0  0  3  0  0  0  0  0  0
   -2.5142   -2.3266   -1.9709 C   0  0  0  0  0  0  0  0  0  0  0  0
   -1.7673   -2.8923   -2.5476 H   0  0  0  0  0  0  0  0  0  0  0  0
   -3.8781   -2.6019   -2.1738 C   0  0  0  0  0  0  0  0  0  0  0  0
   -4.1755   -3.3731   -2.9026 H   0  0  0  0  0  0  0  0  0  0  0  0
   -4.8693   -1.9250   -1.4480 C   0  0  0  0  0  0  0  0  0  0  0  0
   -2.6534    0.4842    0.4366 C   0  0  0  0  0  0  0  0  0  0  0  0
   -0.8885    1.9047    1.1384 C   0  0  0  0  0  0  0  0  0  0  0  0
   -0.1468    1.6769    1.9298 H   0  0  0  0  0  0  0  0  0  0  0  0
   -1.7335    2.4455    1.6273 H   0  0  0  0  0  0  0  0  0  0  0  0
   -0.2397    2.8190    0.1132 C   0  0  0  0  0  0  0  0  0  0  0  0
   -0.6251    2.7930   -1.2416 C   0  0  0  0  0  0  0  0  0  0  0  0
   -0.0376    3.6724   -2.1652 C   0  0  0  0  0  0  0  0  0  0  0  0
   -0.3437    3.6340   -3.2216 H   0  0  0  0  0  0  0  0  0  0  0  0
    0.9446    4.5850   -1.7483 C   0  0  0  0  0  0  0  0  0  0  0  0
    1.3359    4.6135   -0.3996 C   0  0  0  0  0  0  0  0  0  0  0  0
    2.1124    5.3178   -0.0637 H   0  0  0  0  0  0  0  0  0  0  0  0
    0.7483    3.7354    0.5227 C   0  0  0  0  0  0  0  0  0  0  0  0
    1.0705    3.7494    1.5753 H   0  0  0  0  0  0  0  0  0  0  0  0
   -5.9306   -2.1827   -1.5822 H   0  0  0  0  0  0  0  0  0  0  0  0
   -3.3562    1.2245    0.8657 H   0  0  0  0  0  0  0  0  0  0  0  0
   -1.3751    2.0636   -1.5804 H   0  0  0  0  0  0  0  0  0  0  0  0
    1.4088    5.2702   -2.4741 H   0  0  0  0  0  0  0  0  0  0  0  0
  1 22  1  0  0  0  0
  2  3  1  0  0  0  0
  2  4  1  0  0  0  0
  4  5  1  0  0  0  0
  6  7  1  0  0  0  0
  6  4  2  0  0  0  0
  8  6  1  0  0  0  0
  9  8  1  0  0  0  0
 10 12  1  0  0  0  0
 10  8  2  0  0  0  0
 11 10  1  0  0  0  0
 12  2  2  0  0  0  0
 13 14  1  0  0  0  0
 13 12  1  0  0  0  0
 14 21  2  0  0  0  0
 15 14  1  0  0  0  0
 16 15  2  0  0  0  0
 17 16  1  0  0  0  0
 18 16  1  0  0  0  0
 18 20  2  0  0  0  0
 19 18  1  0  0  0  0
 20 13  1  0  0  0  0
 21  1  1  0  0  0  0
 21 35  1  0  0  0  0
 22 24  1  0  0  0  0
 22 23  1  0  0  0  0
 25 32  1  0  0  0  0
 25 22  1  0  0  0  0
 26 25  2  0  0  0  0
 27 29  2  0  0  0  0
 27 26  1  0  0  0  0
 28 27  1  0  0  0  0
 29 30  1  0  0  0  0
 30 31  1  0  0  0  0
 30 32  2  0  0  0  0
 32 33  1  0  0  0  0
 34 20  1  0  0  0  0
 36 26  1  0  0  0  0
 37 29  1  0  0  0  0
M  END
