2,4
q = 0.0, confidence = 0.546

 14 14  0  0  0  0  0  0  0  0999 V2000
   -2.5949   -3.0298    0.2222 O   0  0  0  0  0  0  0  0  0  0  0  0
   -0.5752   -1.9284   -0.0014 N   0  0  0  0  0  2  0  0  0  0  0  0
   -0.1214   -2.8502    0.0321 H   0  0  0  0  0  0  0  0  0  0  0  0
   -1.5807    0.4612   -0.0493 C   0  0  0  0  0  3  0  0  0  0  0  0
   -2.5097   -0.6030    0.0568 C   0  0  0  0  0  0  0  0  0  0  0  0
   -3.8926   -0.3849    0.0596 C   0  0  0  0  0  0  0  0  0  0  0  0
   -4.5495   -1.2654    0.1508 H   0  0  0  0  0  0  0  0  0  0  0  0
   -4.3936    0.9202   -0.0671 C   0  0  0  0  0  0  0  0  0  0  0  0
   -5.4786    1.1067   -0.0670 H   0  0  0  0  0  0  0  0  0  0  0  0
   -3.4939    1.9870   -0.2116 C   0  0  0  0  0  0  0  0  0  0  0  0
   -3.8719    3.0149   -0.3345 H   0  0  0  0  0  0  0  0  0  0  0  0
   -2.1012    1.7590   -0.2056 C   0  0  0  0  0  0  0  0  0  0  0  0
   -1.4469    2.6353   -0.3417 H   0  0  0  0  0  0  0  0  0  0  0  0
   -1.9338   -1.9896    0.1131 C   0  0  0  0  0  0  0  0  0  0  0  0
  2  3  1  0  0  0  0
  2 14  1  0  0  0  0
  4  5  1  0  0  0  0
  5  6  2  0  0  0  0
  5 14  1  0  0  0  0
  6  7  1  0  0  0  0
  8  9  1  0  0  0  0
  8  6  1  0  0  0  0
 10 12  1  0  0  0  0
 10  8  2  0  0  0  0
 11 10  1  0  0  0  0
 12  4  2  0  0  0  0
 13 12  1  0  0  0  0
 14  1  2  0  0  0  0
M  END
