2,3
q = -1.0

 33 35  0  0  0  0  0  0  0  0999 V2000
    1.5095    4.2292    1.7243 Cl  0  0  0  0  0  0  0  0  0  0  0  0
   -1.2047    0.8262    0.6471 N   0  0  0  0  0  2  0  0  0  0  0  0
   -2.6702   -1.0607   -0.5559 C   0  0  0  0  0  3  0  0  0  0  0  0
   -3.4610   -2.0713   -1.1695 C   0  0  0  0  0  0  0  0  0  0  0  0
   -2.9687   -2.8645   -1.7513 H   0  0  0  0  0  0  0  0  0  0  0  0
   -4.8447   -2.0810   -1.0596 C   0  0  0  0  0  0  0  0  0  0  0  0
   -5.4322   -2.8725   -1.5539 H   0  0  0  0  0  0  0  0  0  0  0  0
   -5.5472   -1.0877   -0.3153 C   0  0  0  0  0  0  0  0  0  0  0  0
   -6.9669   -1.1027   -0.1998 C   0  0  0  0  0  3  0  0  0  0  0  0
   -7.5264   -1.9036   -0.7085 H   0  0  0  0  0  0  0  0  0  0  0  0
   -7.6344   -0.1347    0.5363 C   0  0  0  0  0  0  0  0  0  0  0  0
   -8.7314   -0.1562    0.6189 H   0  0  0  0  0  0  0  0  0  0  0  0
   -6.8944    0.8858    1.1873 C   0  0  0  0  0  0  0  0  0  0  0  0
   -7.4225    1.6528    1.7745 H   0  0  0  0  0  0  0  0  0  0  0  0
   -5.5089    0.9257    1.0928 C   0  0  0  0  0  0  0  0  0  0  0  0
   -4.9637    1.7257    1.6140 H   0  0  0  0  0  0  0  0  0  0  0  0
   -4.7911   -0.0493    0.3400 C   0  0  0  0  0  0  0  0  0  0  0  0
   -3.3552   -0.0637    0.1948 C   0  0  0  0  0  0  0  0  0  0  0  0
   -2.5025    0.9455    0.7738 C   0  0  0  0  0  0  0  0  0  0  0  0
   -2.9137    1.8380    1.2841 H   0  0  0  0  0  0  0  0  0  0  0  0
   -0.3674    1.9381    1.0544 C   0  0  0  0  0  0  0  0  0  0  0  0
    0.5849    1.5540    1.4764 H   0  0  0  0  0  0  0  0  0  0  0  0
   -0.8508    2.5169    1.8763 H   0  0  0  0  0  0  0  0  0  0  0  0
   -0.0522    2.8938   -0.0815 C   0  0  0  0  0  0  0  0  0  0  0  0
   -0.6028    2.7425   -1.3680 C   0  0  0  0  0  0  0  0  0  0  0  0
   -0.3238    3.6612   -2.3904 C   0  0  0  0  0  0  0  0  0  0  0  0
   -0.7674    3.5165   -3.3866 H   0  0  0  0  0  0  0  0  0  0  0  0
    0.5164    4.7563   -2.1424 C   0  0  0  0  0  0  0  0  0  0  0  0
    1.0839    4.9268   -0.8716 C   0  0  0  0  0  0  0  0  0  0  0  0
    1.7492    5.7732   -0.6508 H   0  0  0  0  0  0  0  0  0  0  0  0
    0.7974    3.9983    0.1386 C   0  0  0  0  0  0  0  0  0  0  0  0
   -1.2482    1.8739   -1.5654 H   0  0  0  0  0  0  0  0  0  0  0  0
    0.7374    5.4838   -2.9379 H   0  0  0  0  0  0  0  0  0  0  0  0
  2 19  1  0  0  0  0
  2 21  1  0  0  0  0
  3 18  1  0  0  0  0
  4  6  1  0  0  0  0
  4  3  2  0  0  0  0
  5  4  1  0  0  0  0
  6  8  2  0  0  0  0
  7  6  1  0  0  0  0
  8  9  1  0  0  0  0
  8 17  1  0  0  0  0
  9 11  1  0  0  0  0
 10  9  1  0  0  0  0
 11 12  1  0  0  0  0
 11 13  2  0  0  0  0
 13 14  1  0  0  0  0
 15 13  1  0  0  0  0
 15 16  1  0  0  0  0
 17 15  2  0  0  0  0
 18 17  1  0  0  0  0
 18 19  2  0  0  0  0
 19 20  1  0  0  0  0
 21 22  1  0  0  0  0
 21 23  1  0  0  0  0
 24 31  1  0  0  0  0
 24 21  1  0  0  0  0
 25 24  2  0  0  0  0
 26 28  2  0  0  0  0
 26 25  1  0  0  0  0
 27 26  1  0  0  0  0
 28 29  1  0  0  0  0
 29 30  1  0  0  0  0
 29 31  2  0  0  0  0
 31  1  1  0  0  0  0
 32 25  1  0  0  0  0
 33 28  1  0  0  0  0
M  END
