2,5
q = -1.0

 32 31  0  0  1  0  0  0  0  0999 V2000
    3.6211   -0.9510    0.2701 Si  0  0  0  0  0  0  0  0  0  0  0  0
   -0.2484    2.0700   -1.1472 N   0  0  0  0  0  0  0  0  0  0  0  0
    0.4910    2.2235   -1.8509 H   0  0  0  0  0  0  0  0  0  0  0  0
   -1.1075    1.9133   -1.6917 H   0  0  0  0  0  0  0  0  0  0  0  0
    1.0278    0.8982    1.8065 C   0  0  0  0  0  3  0  0  0  0  0  0
    0.5067    1.6416    2.4276 H   0  0  0  0  0  0  0  0  0  0  0  0
    1.3495    0.0013    2.3551 H   0  0  0  0  0  0  0  0  0  0  0  0
    1.8467    1.4142    0.7436 C   0  0  1  0  0  3  0  0  0  0  0  0
    2.5147    0.5661   -0.2063 C   0  0  1  0  0  3  0  0  0  0  0  0
    3.0786    1.2396   -1.4544 C   0  0  0  0  0  0  0  0  0  0  0  0
    2.4270    2.0355   -1.8698 H   0  0  0  0  0  0  0  0  0  0  0  0
    3.2638    0.5025   -2.2607 H   0  0  0  0  0  0  0  0  0  0  0  0
    4.0514    1.7293   -1.2378 H   0  0  0  0  0  0  0  0  0  0  0  0
    3.4563   -1.4940    2.0740 C   0  0  0  0  0  0  0  0  0  0  0  0
    4.2647   -2.2315    2.2626 H   0  0  0  0  0  0  0  0  0  0  0  0
    2.5050   -1.9903    2.3397 H   0  0  0  0  0  0  0  0  0  0  0  0
    3.6271   -0.6451    2.7667 H   0  0  0  0  0  0  0  0  0  0  0  0
    5.4044   -0.3464    0.0576 C   0  0  0  0  0  0  0  0  0  0  0  0
    5.6084    0.5601    0.6639 H   0  0  0  0  0  0  0  0  0  0  0  0
    5.6593   -0.1242   -0.9974 H   0  0  0  0  0  0  0  0  0  0  0  0
    6.0970   -1.1408    0.4051 H   0  0  0  0  0  0  0  0  0  0  0  0
    3.3217   -2.3696   -0.9407 C   0  0  0  0  0  0  0  0  0  0  0  0
    4.1333   -3.1188   -0.8372 H   0  0  0  0  0  0  0  0  0  0  0  0
    3.3354   -2.0107   -1.9899 H   0  0  0  0  0  0  0  0  0  0  0  0
    2.3630   -2.8957   -0.7713 H   0  0  0  0  0  0  0  0  0  0  0  0
   -0.3908    3.3285   -0.3637 C   0  0  0  0  0  0  0  0  0  0  0  0
   -0.7844    4.1340   -1.0190 H   0  0  0  0  0  0  0  0  0  0  0  0
   -1.1538    3.1556    0.4246 H   0  0  0  0  0  0  0  0  0  0  0  0
    0.9265    3.7520    0.2171 C   0  0  0  0  0  0  0  0  0  0  0  0
    1.1157    4.8355    0.2723 H   0  0  0  0  0  0  0  0  0  0  0  0
    1.8904    2.9005    0.6145 C   0  0  0  0  0  0  0  0  0  0  0  0
    2.8540    3.3228    0.9534 H   0  0  0  0  0  0  0  0  0  0  0  0
  1 14  1  0  0  0  0
  2 26  1  0  0  0  0
  3  2  1  0  0  0  0
  4  2  1  0  0  0  0
  5  7  1  0  0  0  0
  5  6  1  0  0  0  0
  8 31  1  6  0  0  0
  8  5  1  0  0  0  0
  9 10  1  1  0  0  0
  9  1  1  0  0  0  0
  9  8  1  0  0  0  0
 10 13  1  0  0  0  0
 11 10  1  0  0  0  0
 12 10  1  0  0  0  0
 14 15  1  0  0  0  0
 14 16  1  0  0  0  0
 14 17  1  0  0  0  0
 18  1  1  0  0  0  0
 18 21  1  0  0  0  0
 18 19  1  0  0  0  0
 20 18  1  0  0  0  0
 22 23  1  0  0  0  0
 22 25  1  0  0  0  0
 22  1  1  0  0  0  0
 24 22  1  0  0  0  0
 26 29  1  0  0  0  0
 26 28  1  0  0  0  0
 27 26  1  0  0  0  0
 29 30  1  0  0  0  0
 29 31  2  0  0  0  0
 31 32  1  0  0  0  0
M  END
