4,5
q = -1.0

 29 31  0  0  0  0  0  0  0  0999 V2000
    2.0683   -1.3684    2.0897 F   0  0  0  0  0  0  0  0  0  0  0  0
    1.6573   -3.6201    3.5065 F   0  0  0  0  0  0  0  0  0  0  0  0
   -0.6969   -4.9678    3.3553 F   0  0  0  0  0  0  0  0  0  0  0  0
   -2.0544   -0.3048   -0.2038 N   0  0  0  0  0  2  0  0  0  0  0  0
   -0.1203   -1.4763    1.1140 C   0  0  0  0  0  3  0  0  0  0  0  0
    0.8744   -1.9815    1.9660 C   0  0  0  0  0  0  0  0  0  0  0  0
    0.6839   -3.1543    2.7149 C   0  0  0  0  0  0  0  0  0  0  0  0
   -0.5436   -3.8451    2.6312 C   0  0  0  0  0  0  0  0  0  0  0  0
   -1.5715   -3.3637    1.8281 C   0  0  0  0  0  0  0  0  0  0  0  0
   -2.5203   -3.9173    1.8142 H   0  0  0  0  0  0  0  0  0  0  0  0
   -1.3652   -2.1774    1.0875 C   0  0  0  0  0  0  0  0  0  0  0  0
   -2.4105   -1.5056    0.3237 C   0  0  0  0  0  0  0  0  0  0  0  0
   -3.7325   -2.0040    0.1748 C   0  0  0  0  0  0  0  0  0  0  0  0
   -3.9666   -2.9992    0.5769 H   0  0  0  0  0  0  0  0  0  0  0  0
   -4.7177   -1.2726   -0.4642 C   0  0  0  0  0  0  0  0  0  0  0  0
   -4.3758    0.0479   -0.9203 C   0  0  0  0  0  0  0  0  0  0  0  0
   -5.3317    0.9213   -1.5098 C   0  0  0  0  0  3  0  0  0  0  0  0
   -6.3626    0.5673   -1.6504 H   0  0  0  0  0  0  0  0  0  0  0  0
   -4.9892    2.2124   -1.8891 C   0  0  0  0  0  0  0  0  0  0  0  0
   -5.7449    2.8758   -2.3356 H   0  0  0  0  0  0  0  0  0  0  0  0
   -3.6689    2.6774   -1.6787 C   0  0  0  0  0  0  0  0  0  0  0  0
   -3.4016    3.7109   -1.9472 H   0  0  0  0  0  0  0  0  0  0  0  0
   -2.7025    1.8475   -1.1260 C   0  0  0  0  0  0  0  0  0  0  0  0
   -1.6786    2.2064   -0.9697 H   0  0  0  0  0  0  0  0  0  0  0  0
   -3.0218    0.5131   -0.7532 C   0  0  0  0  0  0  0  0  0  0  0  0
   -6.1034   -1.8256   -0.6434 C   0  0  0  0  0  0  0  0  0  0  0  0
   -6.1802   -2.8520   -0.2383 H   0  0  0  0  0  0  0  0  0  0  0  0
   -6.3910   -1.8560   -1.7150 H   0  0  0  0  0  0  0  0  0  0  0  0
   -6.8595   -1.1968   -0.1283 H   0  0  0  0  0  0  0  0  0  0  0  0
  4 12  1  0  0  0  0
  5  6  1  0  0  0  0
  6  1  1  0  0  0  0
  6  7  2  0  0  0  0
  7  2  1  0  0  0  0
  8  7  1  0  0  0  0
  8  3  1  0  0  0  0
  9  8  2  0  0  0  0
 10  9  1  0  0  0  0
 11  5  2  0  0  0  0
 11  9  1  0  0  0  0
 12 11  1  0  0  0  0
 13 12  2  0  0  0  0
 13 14  1  0  0  0  0
 15 13  1  0  0  0  0
 16 25  1  0  0  0  0
 16 15  2  0  0  0  0
 17 16  1  0  0  0  0
 18 17  1  0  0  0  0
 19 21  2  0  0  0  0
 19 17  1  0  0  0  0
 20 19  1  0  0  0  0
 21 23  1  0  0  0  0
 22 21  1  0  0  0  0
 23 24  1  0  0  0  0
 23 25  2  0  0  0  0
 25  4  1  0  0  0  0
 26 15  1  0  0  0  0
 26 27  1  0  0  0  0
 26 29  1  0  0  0  0
 28 26  1  0  0  0  0
M  END
