6,16
q = -1.0, confidence = 0.0

 38 38  0  0  1  0  0  0  0  0999 V2000
   -0.0431   -2.3420   -1.6588 F   0  0  0  0  0  0  0  0  0  0  0  0
   -1.9921   -2.3839   -0.7031 F   0  0  0  0  0  0  0  0  0  0  0  0
   -1.6732   -1.1606   -2.4930 F   0  0  0  0  0  0  0  0  0  0  0  0
   -3.3072   -0.6694    1.6804 O   0  0  0  0  0  0  0  0  0  0  0  0
   -3.8174   -0.1674   -0.4820 O   0  0  0  0  0  0  0  0  0  0  0  0
    0.6770    1.9612   -1.8416 N   0  0  0  0  0  0  0  0  0  0  0  0
   -1.3274    1.6164    0.8809 C   0  0  0  0  0  0  0  0  0  0  0  0
   -1.5933    1.8675    2.2440 C   0  0  0  0  0  0  0  0  0  0  0  0
   -1.3227    3.1203    2.8087 C   0  0  0  0  0  0  0  0  0  0  0  0
   -0.8173    4.1559    2.0078 C   0  0  0  0  0  0  0  0  0  0  0  0
   -0.5985    3.9308    0.6411 C   0  0  0  0  0  0  0  0  0  0  0  0
   -0.8390    2.6721    0.0571 C   0  0  0  0  0  0  0  0  0  0  0  0
   -0.6662    2.4771   -1.4315 C   0  0  0  0  0  0  0  0  0  0  0  0
    1.6816    3.0351   -1.7059 C   0  0  0  0  0  0  0  0  0  0  0  0
    0.6303    1.4917   -3.2416 C   0  0  0  0  0  0  0  0  0  0  0  0
   -0.6944   -0.3505   -0.4973 C   0  0  0  0  0  2  0  0  0  0  0  0
   -1.0960   -1.5497   -1.3166 C   0  0  0  0  0  0  0  0  0  0  0  0
   -1.6188    0.2971    0.2670 C   0  0  1  0  0  3  0  0  0  0  0  0
   -2.9884   -0.2489    0.5793 C   0  0  0  0  0  0  0  0  0  0  0  0
   -5.1518   -0.7067   -0.3105 C   0  0  0  0  0  0  0  0  0  0  0  0
   -5.1878   -2.1945   -0.6156 C   0  0  0  0  0  0  0  0  0  0  0  0
   -2.0081    1.0524    2.8543 H   0  0  0  0  0  0  0  0  0  0  0  0
   -1.5132    3.2905    3.8793 H   0  0  0  0  0  0  0  0  0  0  0  0
   -0.6115    5.1458    2.4420 H   0  0  0  0  0  0  0  0  0  0  0  0
   -0.2492    4.7575    0.0024 H   0  0  0  0  0  0  0  0  0  0  0  0
   -0.8379    3.4442   -1.9588 H   0  0  0  0  0  0  0  0  0  0  0  0
   -1.4160    1.7515   -1.7969 H   0  0  0  0  0  0  0  0  0  0  0  0
    2.6798    2.6407   -1.9636 H   0  0  0  0  0  0  0  0  0  0  0  0
    1.4113    3.8921   -2.3661 H   0  0  0  0  0  0  0  0  0  0  0  0
    1.7163    3.3767   -0.6558 H   0  0  0  0  0  0  0  0  0  0  0  0
    1.6271    1.1049   -3.5245 H   0  0  0  0  0  0  0  0  0  0  0  0
   -0.1132    0.6786   -3.3344 H   0  0  0  0  0  0  0  0  0  0  0  0
    0.3536    2.3243   -3.9302 H   0  0  0  0  0  0  0  0  0  0  0  0
   -5.4862   -0.5002    0.7263 H   0  0  0  0  0  0  0  0  0  0  0  0
   -5.7762   -0.1281   -1.0189 H   0  0  0  0  0  0  0  0  0  0  0  0
   -6.2330   -2.5621   -0.5744 H   0  0  0  0  0  0  0  0  0  0  0  0
   -4.7810   -2.4008   -1.6249 H   0  0  0  0  0  0  0  0  0  0  0  0
   -4.5904   -2.7614    0.1237 H   0  0  0  0  0  0  0  0  0  0  0  0
  1 17  1  0  0  0  0
  3 17  1  0  0  0  0
  5 20  1  0  0  0  0
  5 19  1  0  0  0  0
  6 14  1  0  0  0  0
  6 13  1  0  0  0  0
  7  8  1  0  0  0  0
  8  9  2  0  0  0  0
  8 22  1  0  0  0  0
  9 23  1  0  0  0  0
 10 24  1  0  0  0  0
 10  9  1  0  0  0  0
 11 10  2  0  0  0  0
 12 11  1  0  0  0  0
 12  7  2  0  0  0  0
 13 12  1  0  0  0  0
 14 30  1  0  0  0  0
 15  6  1  0  0  0  0
 17  2  1  0  0  0  0
 17 16  1  0  0  0  0
 18 16  1  1  0  0  0
 18 19  1  0  0  0  0
 18  7  1  0  0  0  0
 19  4  2  0  0  0  0
 20 34  1  0  0  0  0
 21 36  1  0  0  0  0
 21 20  1  0  0  0  0
 21 38  1  0  0  0  0
 25 11  1  0  0  0  0
 26 13  1  0  0  0  0
 27 13  1  0  0  0  0
 28 14  1  0  0  0  0
 29 14  1  0  0  0  0
 31 15  1  0  0  0  0
 32 15  1  0  0  0  0
 33 15  1  0  0  0  0
 35 20  1  0  0  0  0
 37 21  1  0  0  0  0
M  END
