1,2
q = -1.0, confidence = 0.0

 23 23  0  0  0  0  0  0  0  0999 V2000
    0.3154   -1.9163   -0.6145 N   0  0  0  0  0  2  0  0  0  0  0  0
    0.9621    0.5912   -1.5192 C   0  0  0  0  0  3  0  0  0  0  0  0
    0.8716   -0.1574   -2.3322 H   0  0  0  0  0  0  0  0  0  0  0  0
    2.2021    0.3458   -0.7499 C   0  0  0  0  0  0  0  0  0  0  0  0
    3.1189    1.3667   -0.4025 C   0  0  0  0  0  0  0  0  0  0  0  0
    2.9019    2.4022   -0.7006 H   0  0  0  0  0  0  0  0  0  0  0  0
    4.3189    1.0826    0.2674 C   0  0  0  0  0  0  0  0  0  0  0  0
    5.0066    1.9054    0.5183 H   0  0  0  0  0  0  0  0  0  0  0  0
    4.6676   -0.2413    0.5869 C   0  0  0  0  0  0  0  0  0  0  0  0
    5.6187   -0.4637    1.0924 H   0  0  0  0  0  0  0  0  0  0  0  0
    3.7851   -1.2745    0.2487 C   0  0  0  0  0  0  0  0  0  0  0  0
    4.0346   -2.3189    0.4969 H   0  0  0  0  0  0  0  0  0  0  0  0
    2.5496   -0.9954   -0.3720 C   0  0  0  0  0  0  0  0  0  0  0  0
    1.6062   -2.0821   -0.5831 C   0  0  0  0  0  3  0  0  0  0  0  0
    2.0097   -3.1128   -0.6712 H   0  0  0  0  0  0  0  0  0  0  0  0
   -0.5574   -3.0421   -0.8918 C   0  0  0  0  0  0  0  0  0  0  0  0
    0.0107   -3.9865   -1.0343 H   0  0  0  0  0  0  0  0  0  0  0  0
   -1.1476   -2.7940   -1.7999 H   0  0  0  0  0  0  0  0  0  0  0  0
   -1.2852   -3.1627   -0.0655 H   0  0  0  0  0  0  0  0  0  0  0  0
    0.7326    1.9791   -2.0855 C   0  0  0  0  0  0  0  0  0  0  0  0
    1.5350    2.2647   -2.8040 H   0  0  0  0  0  0  0  0  0  0  0  0
    0.6982    2.7665   -1.3078 H   0  0  0  0  0  0  0  0  0  0  0  0
   -0.2307    1.9954   -2.6303 H   0  0  0  0  0  0  0  0  0  0  0  0
  1 14  1  0  0  0  0
  2  4  1  0  0  0  0
  3  2  1  0  0  0  0
  4  5  2  0  0  0  0
  4 13  1  0  0  0  0
  5  7  1  0  0  0  0
  6  5  1  0  0  0  0
  7  8  1  0  0  0  0
  7  9  2  0  0  0  0
  9 10  1  0  0  0  0
 11 12  1  0  0  0  0
 11  9  1  0  0  0  0
 13 11  2  0  0  0  0
 14 13  1  0  0  0  0
 15 14  1  0  0  0  0
 16  1  1  0  0  0  0
 16 19  1  0  0  0  0
 17 16  1  0  0  0  0
 18 16  1  0  0  0  0
 20  2  1  0  0  0  0
 20 22  1  0  0  0  0
 21 20  1  0  0  0  0
 23 20  1  0  0  0  0
M  END
