1,2
q = -1.0

 29 30  0  0  1  0  0  0  0  0999 V2000
   -0.5482    1.6373    0.3868 N   0  0  0  0  0  2  0  0  0  0  0  0
   -0.7314   -0.9200    1.3377 C   0  0  0  0  0  3  0  0  0  0  0  0
   -0.8872   -0.1318    2.1027 H   0  0  0  0  0  0  0  0  0  0  0  0
   -1.8905   -0.9927    0.4181 C   0  0  0  0  0  0  0  0  0  0  0  0
   -2.4706   -2.2188    0.0044 C   0  0  0  0  0  0  0  0  0  0  0  0
   -2.0664   -3.1586    0.4052 H   0  0  0  0  0  0  0  0  0  0  0  0
   -3.5642   -2.2667   -0.8710 C   0  0  0  0  0  0  0  0  0  0  0  0
   -3.9819   -3.2422   -1.1653 H   0  0  0  0  0  0  0  0  0  0  0  0
   -4.1352   -1.0808   -1.3598 C   0  0  0  0  0  0  0  0  0  0  0  0
   -4.9903   -1.1106   -2.0508 H   0  0  0  0  0  0  0  0  0  0  0  0
   -3.5906    0.1470   -0.9611 C   0  0  0  0  0  0  0  0  0  0  0  0
   -4.0087    1.0812   -1.3664 H   0  0  0  0  0  0  0  0  0  0  0  0
   -2.4790    0.2103   -0.0967 C   0  0  0  0  0  0  0  0  0  0  0  0
   -1.9038    1.5263    0.2444 C   0  0  2  0  0  3  0  0  0  0  0  0
   -2.7191    2.6700    0.4019 C   0  0  0  0  0  0  0  0  0  0  0  0
   -3.8093    2.5576    0.3302 H   0  0  0  0  0  0  0  0  0  0  0  0
   -2.1476    3.9140    0.6793 C   0  0  0  0  0  0  0  0  0  0  0  0
   -2.7841    4.8030    0.8038 H   0  0  0  0  0  0  0  0  0  0  0  0
   -0.7545    4.0007    0.8236 C   0  0  0  0  0  0  0  0  0  0  0  0
   -0.2543    4.9499    1.0613 H   0  0  0  0  0  0  0  0  0  0  0  0
    0.0037    2.8363    0.6871 C   0  0  0  0  0  0  0  0  0  0  0  0
    1.0915    2.8200    0.8494 H   0  0  0  0  0  0  0  0  0  0  0  0
   -0.2539   -2.1896    2.0273 C   0  0  0  0  0  0  0  0  0  0  0  0
    0.7474   -1.9735    2.4529 H   0  0  0  0  0  0  0  0  0  0  0  0
   -0.1063   -3.0074    1.2908 H   0  0  0  0  0  0  0  0  0  0  0  0
   -1.1845   -2.6603    3.1556 C   0  0  0  0  0  0  0  0  0  0  0  0
   -0.7971   -3.5774    3.6455 H   0  0  0  0  0  0  0  0  0  0  0  0
   -2.2085   -2.8792    2.7883 H   0  0  0  0  0  0  0  0  0  0  0  0
   -1.2766   -1.8771    3.9358 H   0  0  0  0  0  0  0  0  0  0  0  0
  1 21  1  0  0  0  0
  2 23  1  0  0  0  0
  2  3  1  0  0  0  0
  4  2  1  0  0  0  0
  5  6  1  0  0  0  0
  5  4  1  0  0  0  0
  7  5  2  0  0  0  0
  8  7  1  0  0  0  0
  9 11  2  0  0  0  0
  9  7  1  0  0  0  0
 10  9  1  0  0  0  0
 11 13  1  0  0  0  0
 12 11  1  0  0  0  0
 13  4  2  0  0  0  0
 14 13  1  6  0  0  0
 14  1  1  0  0  0  0
 14 15  1  0  0  0  0
 15 17  2  0  0  0  0
 16 15  1  0  0  0  0
 17 18  1  0  0  0  0
 17 19  1  0  0  0  0
 19 20  1  0  0  0  0
 21 19  2  0  0  0  0
 21 22  1  0  0  0  0
 23 24  1  0  0  0  0
 23 26  1  0  0  0  0
 25 23  1  0  0  0  0
 26 27  1  0  0  0  0
 26 29  1  0  0  0  0
 28 26  1  0  0  0  0
M  END
