1,2
q = -1.0

 24 25  0  0  0  0  0  0  0  0999 V2000
    0.6475    1.5958   -0.0833 N   0  0  0  0  0  2  0  0  0  0  0  0
    0.1573   -0.3728   -2.0077 C   0  0  0  0  0  2  0  0  0  0  0  0
   -0.4860   -0.3274   -2.9073 H   0  0  0  0  0  0  0  0  0  0  0  0
    1.4506   -0.7438   -2.1838 C   0  0  0  0  0  0  0  0  0  0  0  0
    1.7897   -1.0635   -3.1882 H   0  0  0  0  0  0  0  0  0  0  0  0
    2.4432   -0.8986   -1.1103 C   0  0  0  0  0  0  0  0  0  0  0  0
    3.2809   -2.0408   -1.1200 C   0  0  0  0  0  0  0  0  0  0  0  0
    3.1604   -2.7605   -1.9451 H   0  0  0  0  0  0  0  0  0  0  0  0
    4.2294   -2.2812   -0.1194 C   0  0  0  0  0  0  0  0  0  0  0  0
    4.8488   -3.1905   -0.1556 H   0  0  0  0  0  0  0  0  0  0  0  0
    4.3853   -1.3578    0.9266 C   0  0  0  0  0  0  0  0  0  0  0  0
    5.1191   -1.5332    1.7272 H   0  0  0  0  0  0  0  0  0  0  0  0
    3.6024   -0.1976    0.9325 C   0  0  0  0  0  0  0  0  0  0  0  0
    3.7357    0.5406    1.7386 H   0  0  0  0  0  0  0  0  0  0  0  0
    2.6310    0.0538   -0.0649 C   0  0  0  0  0  0  0  0  0  0  0  0
    1.9993    1.4038   -0.0402 C   0  0  0  0  0  0  0  0  0  0  0  0
    2.8621    2.5168    0.0861 C   0  0  0  0  0  0  0  0  0  0  0  0
    3.9455    2.3373    0.0776 H   0  0  0  0  0  0  0  0  0  0  0  0
    2.3536    3.8130    0.1991 C   0  0  0  0  0  0  0  0  0  0  0  0
    3.0322    4.6738    0.2955 H   0  0  0  0  0  0  0  0  0  0  0  0
    0.9644    3.9825    0.1774 C   0  0  0  0  0  0  0  0  0  0  0  0
    0.4975    4.9740    0.2614 H   0  0  0  0  0  0  0  0  0  0  0  0
    0.1535    2.8572    0.0229 C   0  0  0  0  0  0  0  0  0  0  0  0
   -0.9403    2.9343   -0.0695 H   0  0  0  0  0  0  0  0  0  0  0  0
  1 16  1  0  0  0  0
  1 23  1  0  0  0  0
  3  2  1  0  0  0  0
  4  2  1  0  0  0  0
  4  6  2  0  0  0  0
  5  4  1  0  0  0  0
  6 15  1  0  0  0  0
  7  6  1  0  0  0  0
  7  9  2  0  0  0  0
  8  7  1  0  0  0  0
  9 11  1  0  0  0  0
 10  9  1  0  0  0  0
 11 13  2  0  0  0  0
 11 12  1  0  0  0  0
 13 14  1  0  0  0  0
 15 16  2  0  0  0  0
 15 13  1  0  0  0  0
 16 17  1  0  0  0  0
 17 19  2  0  0  0  0
 18 17  1  0  0  0  0
 19 20  1  0  0  0  0
 21 19  1  0  0  0  0
 21 22  1  0  0  0  0
 23 21  2  0  0  0  0
 24 23  1  0  0  0  0
M  END
