1,2
q = -1.0

 33 33  0  0  0  0  0  0  0  0999 V2000
   -0.6029    0.7707   -1.9420 N   0  0  0  0  0  2  0  0  0  0  0  0
    0.9361   -0.5656    0.0582 C   0  0  0  0  0  3  0  0  0  0  0  0
    1.8861    0.4207    0.0862 C   0  0  0  0  0  0  0  0  0  0  0  0
    1.6061    1.8828    0.0626 C   0  0  0  0  0  0  0  0  0  0  0  0
    2.2202    2.7025    1.0402 C   0  0  0  0  0  0  0  0  0  0  0  0
    2.8434    2.2145    1.8013 H   0  0  0  0  0  0  0  0  0  0  0  0
    2.0812    4.0963    1.0315 C   0  0  0  0  0  0  0  0  0  0  0  0
    2.5688    4.6941    1.8164 H   0  0  0  0  0  0  0  0  0  0  0  0
    1.3475    4.7273    0.0152 C   0  0  0  0  0  0  0  0  0  0  0  0
    1.2527    5.8228   -0.0150 H   0  0  0  0  0  0  0  0  0  0  0  0
    0.7494    3.9401   -0.9728 C   0  0  0  0  0  0  0  0  0  0  0  0
    0.1836    4.4193   -1.7878 H   0  0  0  0  0  0  0  0  0  0  0  0
    0.8346    2.5267   -0.9452 C   0  0  0  0  0  0  0  0  0  0  0  0
    0.1172    1.8466   -2.0238 C   0  0  0  0  0  3  0  0  0  0  0  0
    0.1144    2.3782   -2.9986 H   0  0  0  0  0  0  0  0  0  0  0  0
    1.4012   -1.9948    0.3306 C   0  0  0  0  0  0  0  0  0  0  0  0
    2.5018   -2.0448    1.1545 F   0  0  0  0  0  0  0  0  0  0  0  0
    0.4606   -2.7188    0.9916 F   0  0  0  0  0  0  0  0  0  0  0  0
    1.7278   -2.6720   -0.7881 F   0  0  0  0  0  0  0  0  0  0  0  0
    3.3692    0.1222    0.2051 C   0  0  0  0  0  0  0  0  0  0  0  0
    4.1123    0.5131    1.0905 O   0  0  0  0  0  0  0  0  0  0  0  0
    3.7830   -0.5787   -0.8756 O   0  0  0  0  0  0  0  0  0  0  0  0
    5.1690   -0.9916   -0.8967 C   0  0  0  0  0  0  0  0  0  0  0  0
    5.7799   -0.2115   -0.3984 H   0  0  0  0  0  0  0  0  0  0  0  0
    5.4300   -1.0305   -1.9726 H   0  0  0  0  0  0  0  0  0  0  0  0
    5.3498   -2.3454   -0.2301 C   0  0  0  0  0  0  0  0  0  0  0  0
    6.3960   -2.6907   -0.3559 H   0  0  0  0  0  0  0  0  0  0  0  0
    4.6711   -3.0965   -0.6792 H   0  0  0  0  0  0  0  0  0  0  0  0
    5.1292   -2.2844    0.8525 H   0  0  0  0  0  0  0  0  0  0  0  0
   -1.3044    0.3452   -3.1505 C   0  0  0  0  0  0  0  0  0  0  0  0
   -1.0276    0.9758   -4.0204 H   0  0  0  0  0  0  0  0  0  0  0  0
   -2.3969    0.4068   -2.9703 H   0  0  0  0  0  0  0  0  0  0  0  0
   -1.0823   -0.7251   -3.3302 H   0  0  0  0  0  0  0  0  0  0  0  0
  2  3  2  0  0  0  0
  2 16  1  0  0  0  0
  3 20  1  0  0  0  0
  4  3  1  0  0  0  0
  4  5  1  0  0  0  0
  5  6  1  0  0  0  0
  7  5  2  0  0  0  0
  7  8  1  0  0  0  0
  9  7  1  0  0  0  0
 10  9  1  0  0  0  0
 11 13  1  0  0  0  0
 11  9  2  0  0  0  0
 12 11  1  0  0  0  0
 13  4  2  0  0  0  0
 14  1  1  0  0  0  0
 14 13  1  0  0  0  0
 15 14  1  0  0  0  0
 16 18  1  0  0  0  0
 16 17  1  0  0  0  0
 19 16  1  0  0  0  0
 20 21  2  0  0  0  0
 22 20  1  0  0  0  0
 23 22  1  0  0  0  0
 23 24  1  0  0  0  0
 23 26  1  0  0  0  0
 25 23  1  0  0  0  0
 26 29  1  0  0  0  0
 27 26  1  0  0  0  0
 28 26  1  0  0  0  0
 30 32  1  0  0  0  0
 30  1  1  0  0  0  0
 31 30  1  0  0  0  0
 33 30  1  0  0  0  0
M  END
