1,2
q = -1.0, confidence = 0.0

 36 37  0  0  0  0  0  0  0  0999 V2000
    1.1834   -0.7049    1.4041 N   0  0  0  0  0  2  0  0  0  0  0  0
   -0.5396    1.2572    0.3901 C   0  0  0  0  0  2  0  0  0  0  0  0
    0.3984    2.2317    0.2102 C   0  0  0  0  0  0  0  0  0  0  0  0
    1.7441    1.9465   -0.3448 C   0  0  0  0  0  0  0  0  0  0  0  0
    2.2533    2.7919   -1.3620 C   0  0  0  0  0  0  0  0  0  0  0  0
    1.6125    3.6031   -1.7369 H   0  0  0  0  0  0  0  0  0  0  0  0
    3.5326    2.6263   -1.9055 C   0  0  0  0  0  0  0  0  0  0  0  0
    3.8795    3.2982   -2.7055 H   0  0  0  0  0  0  0  0  0  0  0  0
    4.3661    1.6061   -1.4238 C   0  0  0  0  0  0  0  0  0  0  0  0
    5.3743    1.4588   -1.8382 H   0  0  0  0  0  0  0  0  0  0  0  0
    3.8993    0.7780   -0.3964 C   0  0  0  0  0  0  0  0  0  0  0  0
    4.5515   -0.0166   -0.0021 H   0  0  0  0  0  0  0  0  0  0  0  0
    2.6032    0.9239    0.1512 C   0  0  0  0  0  0  0  0  0  0  0  0
    2.2966    0.0773    1.3368 C   0  0  0  0  0  0  0  0  0  0  0  0
   -1.8701    1.6314    0.9529 C   0  0  0  0  0  0  0  0  0  0  0  0
   -2.0635    2.0685    2.0762 O   0  0  0  0  0  0  0  0  0  0  0  0
   -2.8764    1.4439    0.0473 O   0  0  0  0  0  0  0  0  0  0  0  0
   -4.2144    1.6233    0.5527 C   0  0  0  0  0  0  0  0  0  0  0  0
   -4.2524    1.2208    1.5849 H   0  0  0  0  0  0  0  0  0  0  0  0
   -4.8495    0.9915   -0.1005 H   0  0  0  0  0  0  0  0  0  0  0  0
   -4.6486    3.0800    0.5108 C   0  0  0  0  0  0  0  0  0  0  0  0
   -5.7085    3.1729    0.8243 H   0  0  0  0  0  0  0  0  0  0  0  0
   -4.5542    3.4951   -0.5132 H   0  0  0  0  0  0  0  0  0  0  0  0
   -4.0297    3.6859    1.2001 H   0  0  0  0  0  0  0  0  0  0  0  0
    0.1035    3.7032    0.4618 C   0  0  0  0  0  0  0  0  0  0  0  0
   -0.1824    4.2359   -0.4719 H   0  0  0  0  0  0  0  0  0  0  0  0
    0.9945    4.2229    0.8692 H   0  0  0  0  0  0  0  0  0  0  0  0
   -0.7225    3.8209    1.1851 H   0  0  0  0  0  0  0  0  0  0  0  0
    3.2421    0.0573    2.3873 C   0  0  0  0  0  0  0  0  0  0  0  0
    4.1082    0.7296    2.3235 H   0  0  0  0  0  0  0  0  0  0  0  0
    3.0669   -0.7841    3.4886 C   0  0  0  0  0  0  0  0  0  0  0  0
    3.8012   -0.7933    4.3081 H   0  0  0  0  0  0  0  0  0  0  0  0
    1.9339   -1.6051    3.5207 C   0  0  0  0  0  0  0  0  0  0  0  0
    1.7375   -2.2929    4.3552 H   0  0  0  0  0  0  0  0  0  0  0  0
    1.0174   -1.5272    2.4697 C   0  0  0  0  0  0  0  0  0  0  0  0
    0.0771   -2.0994    2.4723 H   0  0  0  0  0  0  0  0  0  0  0  0
  1 35  1  0  0  0  0
  2 15  1  0  0  0  0
  3  2  1  0  0  0  0
  3 25  1  0  0  0  0
  4 13  1  0  0  0  0
  4  3  2  0  0  0  0
  5  4  1  0  0  0  0
  6  5  1  0  0  0  0
  7  9  1  0  0  0  0
  7  5  2  0  0  0  0
  8  7  1  0  0  0  0
  9 11  2  0  0  0  0
 10  9  1  0  0  0  0
 11 12  1  0  0  0  0
 11 13  1  0  0  0  0
 13 14  2  0  0  0  0
 14  1  1  0  0  0  0
 14 29  1  0  0  0  0
 15 16  2  0  0  0  0
 17 18  1  0  0  0  0
 17 15  1  0  0  0  0
 18 19  1  0  0  0  0
 20 18  1  0  0  0  0
 21 18  1  0  0  0  0
 21 22  1  0  0  0  0
 21 24  1  0  0  0  0
 23 21  1  0  0  0  0
 25 27  1  0  0  0  0
 25 28  1  0  0  0  0
 26 25  1  0  0  0  0
 29 31  2  0  0  0  0
 30 29  1  0  0  0  0
 31 33  1  0  0  0  0
 31 32  1  0  0  0  0
 33 34  1  0  0  0  0
 35 36  1  0  0  0  0
 35 33  2  0  0  0  0
M  END
