3,25
q = -1.0, confidence = 0.0

 25 26  0  0  1  0  0  0  0  0999 V2000
   -4.0921   -1.9977    2.4058 F   0  0  0  0  0  0  0  0  0  0  0  0
   -0.0837   -2.0849    4.8466 F   0  0  0  0  0  0  0  0  0  0  0  0
   -1.8189   -0.3194   -0.8652 N   0  0  0  0  0  2  0  0  0  0  0  0
   -3.9952   -1.0785   -0.1786 N   0  0  0  0  0  0  0  0  0  0  0  0
   -2.2542   -0.1916   -2.1493 C   0  0  1  0  0  3  0  0  0  0  0  0
   -1.3194    0.2403   -3.2341 C   0  0  0  0  0  0  0  0  0  0  0  0
   -1.1656    1.3379   -3.2170 H   0  0  0  0  0  0  0  0  0  0  0  0
   -1.7427   -0.0246   -4.2203 H   0  0  0  0  0  0  0  0  0  0  0  0
   -0.3209   -0.2205   -3.1204 H   0  0  0  0  0  0  0  0  0  0  0  0
   -3.5952   -0.4862   -2.4522 C   0  0  0  0  0  0  0  0  0  0  0  0
   -3.9463   -0.3831   -3.4882 H   0  0  0  0  0  0  0  0  0  0  0  0
   -4.4607   -0.8915   -1.4249 C   0  0  0  0  0  0  0  0  0  0  0  0
   -5.9219   -1.1533   -1.6517 C   0  0  0  0  0  0  0  0  0  0  0  0
   -6.5262   -0.4944   -0.9952 H   0  0  0  0  0  0  0  0  0  0  0  0
   -6.1674   -2.1940   -1.3582 H   0  0  0  0  0  0  0  0  0  0  0  0
   -6.2204   -0.9898   -2.7034 H   0  0  0  0  0  0  0  0  0  0  0  0
   -2.7086   -0.8310    0.0747 C   0  0  0  0  0  0  0  0  0  0  0  0
   -2.1077   -1.1244    1.3700 C   0  0  0  0  0  0  0  0  0  0  0  0
   -2.7833   -1.7204    2.4649 C   0  0  0  0  0  0  0  0  0  0  0  0
   -2.1112   -2.0415    3.6461 C   0  0  0  0  0  0  0  0  0  0  0  0
   -2.6441   -2.5072    4.4846 H   0  0  0  0  0  0  0  0  0  0  0  0
   -0.7378   -1.7641    3.7162 C   0  0  0  0  0  0  0  0  0  0  0  0
   -0.0321   -1.1692    2.6652 C   0  0  0  0  0  0  0  0  0  0  0  0
    1.0454   -0.9918    2.7893 H   0  0  0  0  0  0  0  0  0  0  0  0
   -0.7117   -0.8237    1.4805 C   0  0  0  0  0  3  0  0  0  0  0  0
  1 19  1  0  0  0  0
  3 17  1  0  0  0  0
  4 17  2  0  0  0  0
  5  6  1  6  0  0  0
  5  3  1  0  0  0  0
  6  7  1  0  0  0  0
  6  9  1  0  0  0  0
  8  6  1  0  0  0  0
 10  5  1  0  0  0  0
 10 12  2  0  0  0  0
 11 10  1  0  0  0  0
 12  4  1  0  0  0  0
 13 12  1  0  0  0  0
 13 15  1  0  0  0  0
 13 14  1  0  0  0  0
 16 13  1  0  0  0  0
 17 18  1  0  0  0  0
 18 25  2  0  0  0  0
 18 19  1  0  0  0  0
 19 20  2  0  0  0  0
 20 22  1  0  0  0  0
 20 21  1  0  0  0  0
 22  2  1  0  0  0  0
 23 24  1  0  0  0  0
 23 22  2  0  0  0  0
 25 23  1  0  0  0  0
M  END
