1,12
q = -1.0

 20 21  0  0  0  0  0  0  0  0999 V2000
    0.4083    1.3981   -0.0001 N   0  0  0  0  0  2  0  0  0  0  0  0
   -0.0936    2.6472   -0.0002 C   0  0  0  0  0  0  0  0  0  0  0  0
   -1.1925    2.7226   -0.0004 H   0  0  0  0  0  0  0  0  0  0  0  0
    0.7117    3.7909   -0.0002 C   0  0  0  0  0  0  0  0  0  0  0  0
    0.2465    4.7870   -0.0003 H   0  0  0  0  0  0  0  0  0  0  0  0
    2.1028    3.6204    0.0000 C   0  0  0  0  0  0  0  0  0  0  0  0
    2.7759    4.4910    0.0001 H   0  0  0  0  0  0  0  0  0  0  0  0
    2.6380    2.3280    0.0001 C   0  0  0  0  0  0  0  0  0  0  0  0
    3.7145    2.1259    0.0003 H   0  0  0  0  0  0  0  0  0  0  0  0
    1.7710    1.2115    0.0000 C   0  0  0  0  0  0  0  0  0  0  0  0
    2.1582   -0.2013    0.0001 C   0  0  0  0  0  0  0  0  0  0  0  0
    1.1179   -1.1806    0.0000 C   0  0  0  0  0  2  0  0  0  0  0  0
    1.4760   -2.5392   -0.0002 C   0  0  0  0  0  0  0  0  0  0  0  0
    0.7047   -3.3202   -0.0001 H   0  0  0  0  0  0  0  0  0  0  0  0
    2.8337   -2.8973   -0.0006 C   0  0  0  0  0  0  0  0  0  0  0  0
    3.1444   -3.9532   -0.0010 H   0  0  0  0  0  0  0  0  0  0  0  0
    3.8199   -1.9239   -0.0006 C   0  0  0  0  0  0  0  0  0  0  0  0
    4.9010   -2.1085   -0.0008 H   0  0  0  0  0  0  0  0  0  0  0  0
    3.5105   -0.5767    0.0001 N   0  3  0  0  0  0  0  0  0  0  0  0
    4.4684    0.2614    0.0004 O   0  5  0  0  0  0  0  0  0  0  0  0
  1 10  1  0  0  0  0
  2  4  2  0  0  0  0
  2  1  1  0  0  0  0
  3  2  1  0  0  0  0
  4  6  1  0  0  0  0
  5  4  1  0  0  0  0
  6  8  2  0  0  0  0
  6  7  1  0  0  0  0
  8  9  1  0  0  0  0
 10 11  2  0  0  0  0
 10  8  1  0  0  0  0
 11 19  1  0  0  0  0
 12 11  1  0  0  0  0
 13 14  1  0  0  0  0
 13 12  1  0  0  0  0
 15 17  1  0  0  0  0
 15 13  2  0  0  0  0
 16 15  1  0  0  0  0
 17 19  2  0  0  0  0
 18 17  1  0  0  0  0
 19 20  1  0  0  0  0
M  CHG  2  19   1  20  -1
M  END
