1,17
q = -1.0

 25 27  0  0  1  0  0  0  0  0999 V2000
   -2.0134    0.4542    0.0643 N   0  0  0  0  0  2  0  0  0  0  0  0
   -3.0536   -0.2664    0.6167 C   0  0  2  0  0  3  0  0  0  0  0  0
   -2.8770   -1.5926    1.0939 C   0  0  0  0  0  0  0  0  0  0  0  0
   -1.8859   -2.0570    1.0220 H   0  0  0  0  0  0  0  0  0  0  0  0
   -3.9546   -2.2813    1.6379 C   0  0  0  0  0  0  0  0  0  0  0  0
   -3.8068   -3.3132    1.9915 H   0  0  0  0  0  0  0  0  0  0  0  0
   -5.2375   -1.6835    1.7363 C   0  0  0  0  0  0  0  0  0  0  0  0
   -6.0734   -2.2473    2.1765 H   0  0  0  0  0  0  0  0  0  0  0  0
   -5.4363   -0.3952    1.2615 C   0  0  0  0  0  0  0  0  0  0  0  0
   -6.4154    0.1035    1.2987 H   0  0  0  0  0  0  0  0  0  0  0  0
   -4.3628    0.3340    0.6811 C   0  0  0  0  0  0  0  0  0  0  0  0
   -4.6039    1.5870    0.1914 N   0  0  0  0  0  0  0  0  0  0  0  0
   -3.6059    2.2055   -0.4039 C   0  0  0  0  0  0  0  0  0  0  0  0
   -3.8007    3.2019   -0.8262 H   0  0  0  0  0  0  0  0  0  0  0  0
   -2.2837    1.6585   -0.5165 C   0  0  0  0  0  0  0  0  0  0  0  0
   -1.1733    2.2452   -1.2446 C   0  0  0  0  0  0  0  0  0  0  0  0
    0.0369    1.4710   -1.2163 C   0  0  0  0  0  3  0  0  0  0  0  0
    1.1334    1.8701   -2.0030 C   0  0  0  0  0  0  0  0  0  0  0  0
    2.0706    1.2975   -2.0234 H   0  0  0  0  0  0  0  0  0  0  0  0
    1.0388    3.0356   -2.7683 C   0  0  0  0  0  0  0  0  0  0  0  0
   -0.1149    3.8368   -2.7909 C   0  0  0  0  0  0  0  0  0  0  0  0
   -0.1653    4.7512   -3.3950 H   0  0  0  0  0  0  0  0  0  0  0  0
   -1.2036    3.4244   -2.0265 C   0  0  0  0  0  0  0  0  0  0  0  0
    2.0889    3.4195   -3.5139 F   0  0  0  0  0  0  0  0  0  0  0  0
   -2.3127    4.1964   -2.0617 F   0  0  0  0  0  0  0  0  0  0  0  0
  2  1  1  6  0  0  0
  2 11  1  0  0  0  0
  2  3  1  0  0  0  0
  3  5  2  0  0  0  0
  4  3  1  0  0  0  0
  5  7  1  0  0  0  0
  5  6  1  0  0  0  0
  7  8  1  0  0  0  0
  9 10  1  0  0  0  0
  9  7  2  0  0  0  0
 11  9  1  0  0  0  0
 12 11  2  0  0  0  0
 13 12  1  0  0  0  0
 14 13  1  0  0  0  0
 15 13  2  0  0  0  0
 15  1  1  0  0  0  0
 16 17  1  0  0  0  0
 16 15  1  0  0  0  0
 18 17  2  0  0  0  0
 19 18  1  0  0  0  0
 20 18  1  0  0  0  0
 21 20  2  0  0  0  0
 21 23  1  0  0  0  0
 22 21  1  0  0  0  0
 23 16  2  0  0  0  0
 24 20  1  0  0  0  0
 25 23  1  0  0  0  0
M  END
