1,20
q = 0.0, confidence = 1.0

 29 31  0  0  0  0  0  0  0  0999 V2000
    2.4725    0.3938    0.0963 N   0  0  0  0  0  2  0  0  0  0  0  0
    2.6230    1.5471   -0.6039 N   0  0  0  0  0  0  0  0  0  0  0  0
    0.3085    2.0394   -0.8545 N   0  0  0  0  0  0  0  0  0  0  0  0
   -1.3645    1.4470    0.3744 N   0  0  0  0  0  0  0  0  0  0  0  0
   -3.5054    0.3428    0.5369 N   0  0  0  0  0  0  0  0  0  0  0  0
   -3.5036   -0.6038   -0.4291 N   0  0  0  0  0  0  0  0  0  0  0  0
    3.5477    0.2903    0.8978 C   0  0  0  0  0  3  0  0  0  0  0  0
    3.6227   -0.5480    1.5984 H   0  0  0  0  0  0  0  0  0  0  0  0
    4.4118    1.3889    0.6957 C   0  0  0  0  0  0  0  0  0  0  0  0
    5.3659    1.5853    1.1939 H   0  0  0  0  0  0  0  0  0  0  0  0
    3.7859    2.1784   -0.2633 C   0  0  0  0  0  0  0  0  0  0  0  0
    4.0775    3.1242   -0.7333 H   0  0  0  0  0  0  0  0  0  0  0  0
    1.5889    1.9469   -1.5330 C   0  0  0  0  0  0  0  0  0  0  0  0
    1.5158    1.1955   -2.3455 H   0  0  0  0  0  0  0  0  0  0  0  0
    1.8590    2.9279   -1.9615 H   0  0  0  0  0  0  0  0  0  0  0  0
   -0.5111    3.1615   -0.7488 C   0  0  0  0  0  0  0  0  0  0  0  0
   -0.2781    4.1162   -1.2300 H   0  0  0  0  0  0  0  0  0  0  0  0
   -1.5730    2.7789    0.0216 C   0  0  0  0  0  0  0  0  0  0  0  0
   -2.4594    3.3349    0.3409 H   0  0  0  0  0  0  0  0  0  0  0  0
   -0.2034    0.9706   -0.1650 C   0  0  0  0  0  2  0  0  0  0  0  0
   -2.2818    0.6795    1.2197 C   0  0  0  0  0  0  0  0  0  0  0  0
   -1.7333   -0.2211    1.5518 H   0  0  0  0  0  0  0  0  0  0  0  0
   -2.5317    1.2842    2.1107 H   0  0  0  0  0  0  0  0  0  0  0  0
   -4.7642   -0.6347   -0.8820 C   0  0  0  0  0  0  0  0  0  0  0  0
   -5.0411   -1.3388   -1.6770 H   0  0  0  0  0  0  0  0  0  0  0  0
   -5.5894    0.3023   -0.2063 C   0  0  0  0  0  0  0  0  0  0  0  0
   -6.6578    0.4915   -0.3510 H   0  0  0  0  0  0  0  0  0  0  0  0
   -4.7400    0.9207    0.7020 C   0  0  0  0  0  0  0  0  0  0  0  0
   -4.9167    1.6954    1.4573 H   0  0  0  0  0  0  0  0  0  0  0  0
  1  7  1  0  0  0  0
  2 11  1  0  0  0  0
  2  1  1  0  0  0  0
  3 16  1  0  0  0  0
  3 20  1  0  0  0  0
  4 21  1  0  0  0  0
  5 28  1  0  0  0  0
  5 21  1  0  0  0  0
  6  5  1  0  0  0  0
  7  8  1  0  0  0  0
  9  7  1  0  0  0  0
  9 10  1  0  0  0  0
 11  9  2  0  0  0  0
 12 11  1  0  0  0  0
 13  3  1  0  0  0  0
 13  2  1  0  0  0  0
 14 13  1  0  0  0  0
 15 13  1  0  0  0  0
 16 18  2  0  0  0  0
 17 16  1  0  0  0  0
 18 19  1  0  0  0  0
 18  4  1  0  0  0  0
 20  4  1  0  0  0  0
 21 22  1  0  0  0  0
 21 23  1  0  0  0  0
 24  6  2  0  0  0  0
 24 26  1  0  0  0  0
 25 24  1  0  0  0  0
 26 28  2  0  0  0  0
 27 26  1  0  0  0  0
 28 29  1  0  0  0  0
M  END
