1,3
q = -2.0, confidence = 0.776

 23 24  0  0  0  0  0  0  0  0999 V2000
    1.3842    1.2620   -0.1777 N   0  0  0  0  0  0  0  0  0  0  0  0
    2.7192    1.3071   -0.1982 N   0  0  0  0  0  0  0  0  0  0  0  0
   -1.2521    1.2516   -0.1565 C   0  0  0  0  0  2  0  0  0  0  0  0
   -2.6529    1.2153   -0.2035 C   0  0  0  0  0  3  0  0  0  0  0  0
   -3.1772    0.2545   -0.3272 H   0  0  0  0  0  0  0  0  0  0  0  0
   -3.4310    2.3908   -0.1015 C   0  0  0  0  0  0  0  0  0  0  0  0
   -2.8059    3.6402    0.0308 C   0  0  0  0  0  0  0  0  0  0  0  0
   -3.4146    4.5517    0.1102 H   0  0  0  0  0  0  0  0  0  0  0  0
   -1.4051    3.7124    0.0492 C   0  0  0  0  0  0  0  0  0  0  0  0
   -0.9102    4.6922    0.1363 H   0  0  0  0  0  0  0  0  0  0  0  0
   -0.6287    2.5424   -0.0447 C   0  0  0  0  0  0  0  0  0  0  0  0
    0.8294    2.5150   -0.0583 C   0  0  0  0  0  3  0  0  0  0  0  0
    1.8887    3.4355    0.0055 C   0  0  0  0  0  0  0  0  0  0  0  0
    1.8446    4.5242    0.1043 H   0  0  0  0  0  0  0  0  0  0  0  0
    3.0391    2.6181   -0.0833 C   0  0  0  0  0  0  0  0  0  0  0  0
   -4.9265    2.2618   -0.1104 C   0  0  0  0  0  0  0  0  0  0  0  0
    4.4717    3.0380   -0.0793 C   0  0  0  0  0  0  0  0  0  0  0  0
   -5.3825    1.5786    0.9874 F   0  0  0  0  0  0  0  0  0  0  0  0
   -5.3727    1.5612   -1.1892 F   0  0  0  0  0  0  0  0  0  0  0  0
   -5.5634    3.4558   -0.1154 F   0  0  0  0  0  0  0  0  0  0  0  0
    4.5924    4.3559    0.2232 F   0  0  0  0  0  0  0  0  0  0  0  0
    5.0819    2.8488   -1.2799 F   0  0  0  0  0  0  0  0  0  0  0  0
    5.2097    2.3446    0.8332 F   0  0  0  0  0  0  0  0  0  0  0  0
  1 12  1  0  0  0  0
  2  1  2  0  0  0  0
  2 15  1  0  0  0  0
  3 11  1  0  0  0  0
  4  3  1  0  0  0  0
  4  6  1  0  0  0  0
  5  4  1  0  0  0  0
  6  7  2  0  0  0  0
  7  9  1  0  0  0  0
  7  8  1  0  0  0  0
  9 10  1  0  0  0  0
 11  9  2  0  0  0  0
 12 11  1  0  0  0  0
 12 13  1  0  0  0  0
 13 14  1  0  0  0  0
 15 17  1  0  0  0  0
 15 13  2  0  0  0  0
 16  6  1  0  0  0  0
 16 18  1  0  0  0  0
 17 21  1  0  0  0  0
 17 23  1  0  0  0  0
 19 16  1  0  0  0  0
 20 16  1  0  0  0  0
 22 17  1  0  0  0  0
M  END
