1,4
q = -1.0

 18 19  0  0  1  0  0  0  0  0999 V2000
    0.9552    1.6304    0.0207 N   0  0  0  0  0  2  0  0  0  0  0  0
    2.9930    2.4613    0.1128 N   0  0  0  0  0  0  0  0  0  0  0  0
    4.0102    2.5103    0.1479 H   0  0  0  0  0  0  0  0  0  0  0  0
    1.4585   -0.9278    0.0024 C   0  0  0  0  0  3  0  0  0  0  0  0
    1.6993   -2.3147   -0.0793 C   0  0  0  0  0  0  0  0  0  0  0  0
    0.8570   -3.0020   -0.2502 H   0  0  0  0  0  0  0  0  0  0  0  0
    2.9969   -2.8420    0.0233 C   0  0  0  0  0  0  0  0  0  0  0  0
    3.1459   -3.9317   -0.0391 H   0  0  0  0  0  0  0  0  0  0  0  0
    4.1105   -1.9968    0.1903 C   0  0  0  0  0  0  0  0  0  0  0  0
    5.1234   -2.4189    0.2684 H   0  0  0  0  0  0  0  0  0  0  0  0
    3.9181   -0.6118    0.2347 C   0  0  0  0  0  0  0  0  0  0  0  0
    4.7863    0.0605    0.3388 H   0  0  0  0  0  0  0  0  0  0  0  0
    2.6129   -0.0891    0.1364 C   0  0  0  0  0  0  0  0  0  0  0  0
    2.2600    1.3094    0.1112 C   0  0  2  0  0  3  0  0  0  0  0  0
    2.1266    3.5388    0.0097 C   0  0  0  0  0  0  0  0  0  0  0  0
    2.4798    4.5735   -0.0127 H   0  0  0  0  0  0  0  0  0  0  0  0
    0.8537    3.0001   -0.0516 C   0  0  0  0  0  0  0  0  0  0  0  0
   -0.1103    3.5071   -0.1548 H   0  0  0  0  0  0  0  0  0  0  0  0
  1 14  1  0  0  0  0
  2  3  1  0  0  0  0
  4 13  1  0  0  0  0
  5  4  2  0  0  0  0
  5  7  1  0  0  0  0
  6  5  1  0  0  0  0
  7  9  2  0  0  0  0
  8  7  1  0  0  0  0
  9 11  1  0  0  0  0
  9 10  1  0  0  0  0
 11 12  1  0  0  0  0
 13 11  2  0  0  0  0
 14  2  1  0  0  0  0
 14 13  1  6  0  0  0
 15  2  1  0  0  0  0
 16 15  1  0  0  0  0
 17 15  2  0  0  0  0
 17  1  1  0  0  0  0
 18 17  1  0  0  0  0
M  END
