1,20
q = -1.0

 22 23  0  0  0  0  0  0  0  0999 V2000
    0.9644    1.0623   -0.2738 N   0  0  0  0  0  2  0  0  0  0  0  0
    4.1663    3.7211   -0.7303 N   0  0  0  0  0  0  0  0  0  0  0  0
    0.7527    2.3834   -0.4798 C   0  0  0  0  0  3  0  0  0  0  0  0
   -0.2978    2.7042   -0.5189 H   0  0  0  0  0  0  0  0  0  0  0  0
    1.7783    3.3041   -0.6346 C   0  0  0  0  0  0  0  0  0  0  0  0
    1.5359    4.3627   -0.8036 H   0  0  0  0  0  0  0  0  0  0  0  0
    3.1300    2.8600   -0.5724 C   0  0  0  0  0  0  0  0  0  0  0  0
    3.3380    1.4804   -0.3265 C   0  0  0  0  0  0  0  0  0  0  0  0
    4.3606    1.0867   -0.2462 H   0  0  0  0  0  0  0  0  0  0  0  0
    2.2574    0.6058   -0.1752 C   0  0  0  0  0  0  0  0  0  0  0  0
    2.3488   -0.8225    0.1292 C   0  0  0  0  0  0  0  0  0  0  0  0
    3.5626   -1.5212    0.3048 C   0  0  0  0  0  0  0  0  0  0  0  0
    4.5264   -1.0079    0.1661 H   0  0  0  0  0  0  0  0  0  0  0  0
    3.5497   -2.8730    0.6633 C   0  0  0  0  0  0  0  0  0  0  0  0
    4.4955   -3.4182    0.7960 H   0  0  0  0  0  0  0  0  0  0  0  0
    2.3207   -3.5243    0.8678 C   0  0  0  0  0  0  0  0  0  0  0  0
    2.3046   -4.5826    1.1713 H   0  0  0  0  0  0  0  0  0  0  0  0
    1.1090   -2.8334    0.6904 C   0  0  0  0  0  0  0  0  0  0  0  0
    0.1638   -3.3651    0.8781 H   0  0  0  0  0  0  0  0  0  0  0  0
    1.0978   -1.4841    0.2903 C   0  0  0  0  0  3  0  0  0  0  0  0
    5.1303    3.3962   -0.6968 H   0  0  0  0  0  0  0  0  0  0  0  0
    4.0065    4.7082   -0.9189 H   0  0  0  0  0  0  0  0  0  0  0  0
  1 10  1  0  0  0  0
  2 21  1  0  0  0  0
  2  7  1  0  0  0  0
  3  1  1  0  0  0  0
  4  3  1  0  0  0  0
  5  7  2  0  0  0  0
  5  3  1  0  0  0  0
  6  5  1  0  0  0  0
  7  8  1  0  0  0  0
  8  9  1  0  0  0  0
  8 10  2  0  0  0  0
 10 11  1  0  0  0  0
 11 20  2  0  0  0  0
 11 12  1  0  0  0  0
 12 14  2  0  0  0  0
 13 12  1  0  0  0  0
 14 15  1  0  0  0  0
 14 16  1  0  0  0  0
 16 17  1  0  0  0  0
 18 16  2  0  0  0  0
 18 19  1  0  0  0  0
 20 18  1  0  0  0  0
 22  2  1  0  0  0  0
M  END
