1,7
q = -1.0

 28 28  0  0  1  0  0  0  0  0999 V2000
    1.1172   -0.3523    0.8477 N   0  0  0  0  0  1  0  0  0  0  0  0
    2.2171   -0.0568    0.2709 N   0  0  0  0  0  0  0  0  0  0  0  0
    2.3928    2.0746   -1.0369 C   0  0  0  0  0  0  0  0  0  0  0  0
    3.4210    2.3516   -0.7390 H   0  0  0  0  0  0  0  0  0  0  0  0
    1.6721    2.5357   -0.3349 H   0  0  0  0  0  0  0  0  0  0  0  0
    2.2062    2.5055   -2.0402 H   0  0  0  0  0  0  0  0  0  0  0  0
    0.7544    0.2337   -1.6445 C   0  0  0  0  0  3  0  0  0  0  0  0
    0.8023   -0.6529   -2.3154 H   0  0  0  0  0  0  0  0  0  0  0  0
    0.3779    1.0876   -2.2402 H   0  0  0  0  0  0  0  0  0  0  0  0
    2.1776    0.5516   -1.1135 C   0  0  2  0  0  0  0  0  0  0  0  0
    3.2724   -0.1172   -1.9694 C   0  0  0  0  0  0  0  0  0  0  0  0
    3.2988    0.3956   -2.9535 H   0  0  0  0  0  0  0  0  0  0  0  0
    2.9666   -1.1679   -2.1673 H   0  0  0  0  0  0  0  0  0  0  0  0
    4.6433   -0.1179   -1.2944 C   0  0  0  0  0  0  0  0  0  0  0  0
    5.3940   -0.6083   -1.9479 H   0  0  0  0  0  0  0  0  0  0  0  0
    5.0046    0.9210   -1.1409 H   0  0  0  0  0  0  0  0  0  0  0  0
    4.5564   -0.8619    0.0372 C   0  0  0  0  0  0  0  0  0  0  0  0
    4.2940   -1.9234   -0.1651 H   0  0  0  0  0  0  0  0  0  0  0  0
    5.5374   -0.8730    0.5562 H   0  0  0  0  0  0  0  0  0  0  0  0
    3.5078   -0.2921    1.0218 C   0  0  0  0  0  0  0  0  0  0  0  0
    3.2579   -1.3168    2.1349 C   0  0  0  0  0  0  0  0  0  0  0  0
    2.8208   -2.2490    1.7277 H   0  0  0  0  0  0  0  0  0  0  0  0
    2.5686   -0.9256    2.9043 H   0  0  0  0  0  0  0  0  0  0  0  0
    4.2286   -1.5610    2.6108 H   0  0  0  0  0  0  0  0  0  0  0  0
    3.9773    1.0299    1.6614 C   0  0  0  0  0  0  0  0  0  0  0  0
    4.8118    0.8221    2.3603 H   0  0  0  0  0  0  0  0  0  0  0  0
    3.1485    1.4913    2.2326 H   0  0  0  0  0  0  0  0  0  0  0  0
    4.3356    1.7651    0.9189 H   0  0  0  0  0  0  0  0  0  0  0  0
  2  1  1  0  0  0  0
  2 20  1  0  0  0  0
  3  4  1  0  0  0  0
  3  5  1  0  0  0  0
  6  3  1  0  0  0  0
  8  7  1  0  0  0  0
  9  7  1  0  0  0  0
 10  7  1  6  0  0  0
 10  3  1  0  0  0  0
 10  2  1  0  0  0  0
 11 14  1  0  0  0  0
 11 10  1  0  0  0  0
 12 11  1  0  0  0  0
 13 11  1  0  0  0  0
 14 16  1  0  0  0  0
 14 17  1  0  0  0  0
 15 14  1  0  0  0  0
 17 19  1  0  0  0  0
 17 20  1  0  0  0  0
 18 17  1  0  0  0  0
 20 25  1  0  0  0  0
 20 21  1  0  0  0  0
 21 24  1  0  0  0  0
 21 23  1  0  0  0  0
 22 21  1  0  0  0  0
 25 27  1  0  0  0  0
 25 26  1  0  0  0  0
 28 25  1  0  0  0  0
M  END
