6,15
q = -1.0

 39 41  0  0  0  0  0  0  0  0999 V2000
    2.0554    2.7548   -0.1071 O   0  0  0  0  0  0  0  0  0  0  0  0
    5.5694   -0.4641    0.0025 N   0  0  0  0  0  0  0  0  0  0  0  0
   -3.8781    1.6129   -0.0262 C   0  0  0  0  0  0  0  0  0  0  0  0
   -4.4565    0.6780    0.0076 H   0  0  0  0  0  0  0  0  0  0  0  0
    0.5860    4.4244   -0.1513 O   0  0  0  0  0  0  0  0  0  0  0  0
   -2.5348    1.4550   -0.0315 N   0  0  0  0  0  2  0  0  0  0  0  0
   -4.4677    2.8758   -0.0624 C   0  0  0  0  0  0  0  0  0  0  0  0
   -5.5630    2.9618   -0.0567 H   0  0  0  0  0  0  0  0  0  0  0  0
   -3.6334    4.0083   -0.1056 C   0  0  0  0  0  0  0  0  0  0  0  0
   -4.0668    5.0194   -0.1351 H   0  0  0  0  0  0  0  0  0  0  0  0
   -2.2479    3.8455   -0.1111 C   0  0  0  0  0  0  0  0  0  0  0  0
   -1.5468    4.6888   -0.1440 H   0  0  0  0  0  0  0  0  0  0  0  0
   -1.6938    2.5454   -0.0730 C   0  0  0  0  0  0  0  0  0  0  0  0
   -0.2934    2.1816   -0.0705 C   0  0  0  0  0  0  0  0  0  0  0  0
   -0.0096    0.7944   -0.0251 C   0  0  0  0  0  3  0  0  0  0  0  0
    1.3808    0.4125   -0.0153 C   0  0  0  0  0  0  0  0  0  0  0  0
    1.8786   -0.9193    0.0390 C   0  0  0  0  0  0  0  0  0  0  0  0
    1.1458   -1.7337    0.0684 H   0  0  0  0  0  0  0  0  0  0  0  0
    3.2331   -1.2140    0.0454 C   0  0  0  0  0  0  0  0  0  0  0  0
    3.5372   -2.2681    0.0704 H   0  0  0  0  0  0  0  0  0  0  0  0
    4.2207   -0.1779   -0.0009 C   0  0  0  0  0  0  0  0  0  0  0  0
    3.7482    1.1577   -0.0534 C   0  0  0  0  0  0  0  0  0  0  0  0
    4.4229    2.0214   -0.0712 H   0  0  0  0  0  0  0  0  0  0  0  0
    2.3784    1.4350   -0.0612 C   0  0  0  0  0  3  0  0  0  0  0  0
    0.7347    3.2134   -0.1118 C   0  0  0  0  0  0  0  0  0  0  0  0
    6.0657   -1.8272    0.1527 C   0  0  0  0  0  0  0  0  0  0  0  0
    5.4117   -2.3792    0.8584 H   0  0  0  0  0  0  0  0  0  0  0  0
    7.0557   -1.7693    0.6524 H   0  0  0  0  0  0  0  0  0  0  0  0
    6.1914   -2.5869   -1.1711 C   0  0  0  0  0  0  0  0  0  0  0  0
    6.5919   -3.6073   -1.0034 H   0  0  0  0  0  0  0  0  0  0  0  0
    6.8765   -2.0621   -1.8676 H   0  0  0  0  0  0  0  0  0  0  0  0
    5.2076   -2.6782   -1.6726 H   0  0  0  0  0  0  0  0  0  0  0  0
    6.5723    0.5857   -0.1395 C   0  0  0  0  0  0  0  0  0  0  0  0
    6.1990    1.3514   -0.8501 H   0  0  0  0  0  0  0  0  0  0  0  0
    7.4615    0.1354   -0.6290 H   0  0  0  0  0  0  0  0  0  0  0  0
    6.9771    1.2354    1.1869 C   0  0  0  0  0  0  0  0  0  0  0  0
    7.7507    2.0128    1.0233 H   0  0  0  0  0  0  0  0  0  0  0  0
    7.3922    0.4836    1.8886 H   0  0  0  0  0  0  0  0  0  0  0  0
    6.1071    1.7128    1.6797 H   0  0  0  0  0  0  0  0  0  0  0  0
  1 24  1  0  0  0  0
  2 26  1  0  0  0  0
  3  4  1  0  0  0  0
  5 25  2  0  0  0  0
  6  3  1  0  0  0  0
  7  8  1  0  0  0  0
  7  3  2  0  0  0  0
  9  7  1  0  0  0  0
 10  9  1  0  0  0  0
 11  9  2  0  0  0  0
 11 13  1  0  0  0  0
 12 11  1  0  0  0  0
 13 14  2  0  0  0  0
 13  6  1  0  0  0  0
 14 15  1  0  0  0  0
 15 16  2  0  0  0  0
 16 17  1  0  0  0  0
 17 19  2  0  0  0  0
 17 18  1  0  0  0  0
 19 20  1  0  0  0  0
 21  2  1  0  0  0  0
 21 19  1  0  0  0  0
 22 21  2  0  0  0  0
 23 22  1  0  0  0  0
 24 22  1  0  0  0  0
 24 16  1  0  0  0  0
 25  1  1  0  0  0  0
 25 14  1  0  0  0  0
 26 28  1  0  0  0  0
 26 27  1  0  0  0  0
 29 30  1  0  0  0  0
 29 26  1  0  0  0  0
 31 29  1  0  0  0  0
 32 29  1  0  0  0  0
 33  2  1  0  0  0  0
 33 36  1  0  0  0  0
 34 33  1  0  0  0  0
 35 33  1  0  0  0  0
 36 39  1  0  0  0  0
 36 38  1  0  0  0  0
 37 36  1  0  0  0  0
M  END
