1,5
q = -1.0

 37 39  0  0  1  0  0  0  0  0999 V2000
    0.0108    1.2713    0.3874 C   0  0  1  0  0  3  0  0  0  0  0  0
    0.9050    0.4256    1.2000 C   0  0  0  0  0  0  0  0  0  0  0  0
    0.8282   -1.0311    1.2230 C   0  0  0  0  0  0  0  0  0  0  0  0
   -0.3293   -1.7358    0.6189 C   0  0  1  0  0  3  0  0  0  0  0  0
   -0.5790   -1.2758   -0.6298 N   0  0  0  0  0  2  0  0  0  0  0  0
   -1.6343   -1.7172   -1.3294 C   0  0  0  0  0  0  0  0  0  0  0  0
   -2.4815   -2.7051   -0.8074 C   0  0  0  0  0  0  0  0  0  0  0  0
   -2.1993   -3.2444    0.4569 C   0  0  0  0  0  0  0  0  0  0  0  0
   -1.1074   -2.7522    1.1899 C   0  0  0  0  0  0  0  0  0  0  0  0
    1.7940   -1.7806    1.9591 C   0  0  0  0  0  0  0  0  0  0  0  0
    2.8338   -1.1618    2.6320 C   0  0  0  0  0  0  0  0  0  0  0  0
    2.9458    0.2527    2.5868 C   0  0  0  0  0  0  0  0  0  0  0  0
    2.0249    1.0118    1.8879 C   0  0  0  0  0  0  0  0  0  0  0  0
   -1.4786    1.1473    0.4442 C   0  0  0  0  0  0  0  0  0  0  0  0
   -2.1487    0.5022    1.5056 C   0  0  0  0  0  0  0  0  0  0  0  0
   -3.5483    0.3919    1.5149 C   0  0  0  0  0  0  0  0  0  0  0  0
   -4.3090    0.9543    0.4796 C   0  0  0  0  0  0  0  0  0  0  0  0
   -3.6564    1.6370   -0.5624 C   0  0  0  0  0  0  0  0  0  0  0  0
   -2.2599    1.7302   -0.5809 C   0  0  0  0  0  0  0  0  0  0  0  0
    0.4556    2.6013    0.2465 O   0  0  0  0  0  0  0  0  0  0  0  0
   -0.0990    3.5357    1.1674 C   0  0  0  0  0  0  0  0  0  0  0  0
   -1.7862   -1.2736   -2.3252 H   0  0  0  0  0  0  0  0  0  0  0  0
   -3.3444   -3.0487   -1.3946 H   0  0  0  0  0  0  0  0  0  0  0  0
   -2.8391   -4.0334    0.8795 H   0  0  0  0  0  0  0  0  0  0  0  0
   -0.8747   -3.1228    2.1980 H   0  0  0  0  0  0  0  0  0  0  0  0
    1.7015   -2.8774    1.9658 H   0  0  0  0  0  0  0  0  0  0  0  0
    3.5733   -1.7608    3.1832 H   0  0  0  0  0  0  0  0  0  0  0  0
    3.7729    0.7534    3.1124 H   0  0  0  0  0  0  0  0  0  0  0  0
    2.1278    2.1036    1.8391 H   0  0  0  0  0  0  0  0  0  0  0  0
   -1.5629    0.0899    2.3402 H   0  0  0  0  0  0  0  0  0  0  0  0
   -4.0474   -0.1267    2.3481 H   0  0  0  0  0  0  0  0  0  0  0  0
   -5.4064    0.8719    0.4882 H   0  0  0  0  0  0  0  0  0  0  0  0
   -4.2431    2.0941   -1.3742 H   0  0  0  0  0  0  0  0  0  0  0  0
   -1.7503    2.2508   -1.4046 H   0  0  0  0  0  0  0  0  0  0  0  0
    0.4406    4.4895    1.0096 H   0  0  0  0  0  0  0  0  0  0  0  0
   -1.1851    3.7019    0.9958 H   0  0  0  0  0  0  0  0  0  0  0  0
    0.0380    3.2119    2.2252 H   0  0  0  0  0  0  0  0  0  0  0  0
  1 20  1  1  0  0  0
  1 14  1  0  0  0  0
  1  2  1  0  0  0  0
  2  3  2  0  0  0  0
  2 13  1  0  0  0  0
  3 10  1  0  0  0  0
  4  9  1  0  0  0  0
  4  3  1  6  0  0  0
  5  4  1  0  0  0  0
  6  7  2  0  0  0  0
  6  5  1  0  0  0  0
  7  8  1  0  0  0  0
  8 24  1  0  0  0  0
  8  9  2  0  0  0  0
  9 25  1  0  0  0  0
 10 26  1  0  0  0  0
 10 11  2  0  0  0  0
 11 27  1  0  0  0  0
 12 11  1  0  0  0  0
 12 28  1  0  0  0  0
 13 12  2  0  0  0  0
 14 15  1  0  0  0  0
 15 16  2  0  0  0  0
 15 30  1  0  0  0  0
 16 31  1  0  0  0  0
 17 32  1  0  0  0  0
 17 16  1  0  0  0  0
 18 17  2  0  0  0  0
 19 18  1  0  0  0  0
 19 14  2  0  0  0  0
 20 21  1  0  0  0  0
 21 37  1  0  0  0  0
 22  6  1  0  0  0  0
 23  7  1  0  0  0  0
 29 13  1  0  0  0  0
 33 18  1  0  0  0  0
 34 19  1  0  0  0  0
 35 21  1  0  0  0  0
 36 21  1  0  0  0  0
M  END
