1,2
q = -1.0, confidence = 0.002

 17 17  0  0  0  0  0  0  0  0999 V2000
   -0.4458   -1.7563    1.0277 N   0  0  0  0  0  2  0  0  0  0  0  0
   -1.6908    0.3168   -0.0118 C   0  0  0  0  0  3  0  0  0  0  0  0
   -2.3584    1.3909   -0.6225 C   0  0  0  0  0  0  0  0  0  0  0  0
   -1.8005    2.1400   -1.2053 H   0  0  0  0  0  0  0  0  0  0  0  0
   -3.7560    1.5261   -0.5102 C   0  0  0  0  0  0  0  0  0  0  0  0
   -4.2553    2.3827   -0.9894 H   0  0  0  0  0  0  0  0  0  0  0  0
   -4.5233    0.5844    0.2012 C   0  0  0  0  0  0  0  0  0  0  0  0
   -5.6131    0.7061    0.2805 H   0  0  0  0  0  0  0  0  0  0  0  0
   -3.8890   -0.5096    0.7976 C   0  0  0  0  0  0  0  0  0  0  0  0
   -4.4732   -1.2661    1.3449 H   0  0  0  0  0  0  0  0  0  0  0  0
   -2.4857   -0.6425    0.6886 C   0  0  0  0  0  0  0  0  0  0  0  0
   -1.7368   -1.7476    1.2308 C   0  0  0  0  0  3  0  0  0  0  0  0
   -2.2210   -2.5665    1.7985 H   0  0  0  0  0  0  0  0  0  0  0  0
    0.3817   -2.8024    1.5954 C   0  0  0  0  0  0  0  0  0  0  0  0
    1.0053   -2.3886    2.4149 H   0  0  0  0  0  0  0  0  0  0  0  0
    1.0771   -3.2068    0.8338 H   0  0  0  0  0  0  0  0  0  0  0  0
   -0.2276   -3.6333    2.0086 H   0  0  0  0  0  0  0  0  0  0  0  0
  1 12  1  0  0  0  0
  1 14  1  0  0  0  0
  2 11  1  0  0  0  0
  3  5  1  0  0  0  0
  3  2  2  0  0  0  0
  4  3  1  0  0  0  0
  5  7  2  0  0  0  0
  6  5  1  0  0  0  0
  7  8  1  0  0  0  0
  7  9  1  0  0  0  0
  9 10  1  0  0  0  0
 11  9  2  0  0  0  0
 11 12  1  0  0  0  0
 12 13  1  0  0  0  0
 14 17  1  0  0  0  0
 14 15  1  0  0  0  0
 16 14  1  0  0  0  0
M  END
