3,16
q = -1.0

 27 29  0  0  0  0  0  0  0  0999 V2000
   -2.2640   -3.1537   -0.0000 S   0  0  0  0  0  0  0  0  0  0  0  0
    4.5969   -2.6982    0.0002 O   0  0  0  0  0  0  0  0  0  0  0  0
   -1.3254   -0.7248   -0.0000 N   0  0  0  0  0  2  0  0  0  0  0  0
   -2.7084   -0.5738   -0.0000 C   0  0  0  0  0  0  0  0  0  0  0  0
   -3.4356    0.6334    0.0000 C   0  0  0  0  0  0  0  0  0  0  0  0
   -2.8844    1.5839    0.0001 H   0  0  0  0  0  0  0  0  0  0  0  0
   -4.8330    0.5695    0.0000 C   0  0  0  0  0  0  0  0  0  0  0  0
   -5.4121    1.5052    0.0001 H   0  0  0  0  0  0  0  0  0  0  0  0
   -5.5150   -0.6663   -0.0000 C   0  0  0  0  0  0  0  0  0  0  0  0
   -6.6149   -0.6859   -0.0000 H   0  0  0  0  0  0  0  0  0  0  0  0
   -4.8057   -1.8750   -0.0001 C   0  0  0  0  0  0  0  0  0  0  0  0
   -5.3303   -2.8413   -0.0001 H   0  0  0  0  0  0  0  0  0  0  0  0
   -3.4049   -1.8166   -0.0001 C   0  0  0  0  0  0  0  0  0  0  0  0
   -0.9396   -2.0154   -0.0000 C   0  0  0  0  0  0  0  0  0  0  0  0
    0.4660   -2.2942    0.0000 C   0  0  0  0  0  0  0  0  0  0  0  0
    1.2533   -1.0978    0.0000 C   0  0  0  0  0  2  0  0  0  0  0  0
    2.6532   -1.2159    0.0001 C   0  0  0  0  0  0  0  0  0  0  0  0
    3.2542   -0.2968    0.0001 H   0  0  0  0  0  0  0  0  0  0  0  0
    3.2544   -2.4920    0.0001 C   0  0  0  0  0  0  0  0  0  0  0  0
    2.4623   -3.6715    0.0001 C   0  0  0  0  0  0  0  0  0  0  0  0
    2.9736   -4.6441    0.0001 H   0  0  0  0  0  0  0  0  0  0  0  0
    1.0765   -3.5703    0.0000 C   0  0  0  0  0  0  0  0  0  0  0  0
    0.4586   -4.4826    0.0000 H   0  0  0  0  0  0  0  0  0  0  0  0
    5.4536   -1.5697    0.0004 C   0  0  0  0  0  0  0  0  0  0  0  0
    6.4870   -1.9631    0.0007 H   0  0  0  0  0  0  0  0  0  0  0  0
    5.3031   -0.9378    0.9036 H   0  0  0  0  0  0  0  0  0  0  0  0
    5.3036   -0.9377   -0.9028 H   0  0  0  0  0  0  0  0  0  0  0  0
  1 14  1  0  0  0  0
  2 24  1  0  0  0  0
  4  3  1  0  0  0  0
  4  5  1  0  0  0  0
  5  6  1  0  0  0  0
  7  5  2  0  0  0  0
  7  8  1  0  0  0  0
  9  7  1  0  0  0  0
 10  9  1  0  0  0  0
 11 13  1  0  0  0  0
 11  9  2  0  0  0  0
 12 11  1  0  0  0  0
 13  1  1  0  0  0  0
 13  4  2  0  0  0  0
 14  3  1  0  0  0  0
 14 15  2  0  0  0  0
 15 22  1  0  0  0  0
 16 15  1  0  0  0  0
 16 17  1  0  0  0  0
 17 19  2  0  0  0  0
 18 17  1  0  0  0  0
 19  2  1  0  0  0  0
 20 19  1  0  0  0  0
 20 21  1  0  0  0  0
 22 20  2  0  0  0  0
 23 22  1  0  0  0  0
 24 25  1  0  0  0  0
 24 26  1  0  0  0  0
 27 24  1  0  0  0  0
M  END
