4,15
q = -1.0

 53 57  0  0  0  0  0  0  0  0999 V2000
    3.4595    0.1850    0.0182 Si  0  0  0  0  0  0  0  0  0  0  0  0
    1.4505    2.6483    0.0912 F   0  0  0  0  0  0  0  0  0  0  0  0
    1.4901   -2.0768    0.0969 F   0  0  0  0  0  0  0  0  0  0  0  0
   -2.7963   -1.8334    0.0208 N   0  0  0  0  0  2  0  0  0  0  0  0
   -3.7236   -2.8172    0.0081 C   0  0  0  0  0  0  0  0  0  0  0  0
   -4.7680   -2.4694    0.0006 H   0  0  0  0  0  0  0  0  0  0  0  0
   -3.3655   -4.1656    0.0043 C   0  0  0  0  0  0  0  0  0  0  0  0
   -4.1498   -4.9350   -0.0063 H   0  0  0  0  0  0  0  0  0  0  0  0
   -2.0009   -4.5001    0.0126 C   0  0  0  0  0  0  0  0  0  0  0  0
   -1.6829   -5.5533    0.0079 H   0  0  0  0  0  0  0  0  0  0  0  0
   -1.0421   -3.4833    0.0261 C   0  0  0  0  0  0  0  0  0  0  0  0
    0.0290   -3.7129    0.0304 H   0  0  0  0  0  0  0  0  0  0  0  0
   -1.4467   -2.1320    0.0314 C   0  0  0  0  0  0  0  0  0  0  0  0
   -0.6047   -0.9429    0.0425 C   0  0  0  0  0  0  0  0  0  0  0  0
   -1.3191    0.3016    0.0377 C   0  0  0  0  0  2  0  0  0  0  0  0
   -0.5989    1.5055    0.0531 C   0  0  0  0  0  0  0  0  0  0  0  0
   -1.1199    2.4732    0.0576 H   0  0  0  0  0  0  0  0  0  0  0  0
    0.7991    1.4696    0.0669 C   0  0  0  0  0  0  0  0  0  0  0  0
    1.5609    0.2793    0.0608 C   0  0  0  0  0  0  0  0  0  0  0  0
    0.8028   -0.9024    0.0614 C   0  0  0  0  0  0  0  0  0  0  0  0
    4.2618    1.8431   -0.4180 C   0  0  0  0  0  0  0  0  0  0  0  0
    4.4775    2.8266    0.5741 C   0  0  0  0  0  0  0  0  0  0  0  0
    4.1677    2.6317    1.6133 H   0  0  0  0  0  0  0  0  0  0  0  0
    5.0806    4.0517    0.2567 C   0  0  0  0  0  0  0  0  0  0  0  0
    5.2392    4.8059    1.0430 H   0  0  0  0  0  0  0  0  0  0  0  0
    5.4827    4.3163   -1.0633 C   0  0  0  0  0  0  0  0  0  0  0  0
    5.9574    5.2778   -1.3134 H   0  0  0  0  0  0  0  0  0  0  0  0
    5.2815    3.3495   -2.0599 C   0  0  0  0  0  0  0  0  0  0  0  0
    5.5998    3.5489   -3.0949 H   0  0  0  0  0  0  0  0  0  0  0  0
    4.6797    2.1223   -1.7373 C   0  0  0  0  0  0  0  0  0  0  0  0
    4.5392    1.3657   -2.5257 H   0  0  0  0  0  0  0  0  0  0  0  0
    3.9335   -1.0609   -1.3267 C   0  0  0  0  0  0  0  0  0  0  0  0
    5.0580   -1.9019   -1.1824 C   0  0  0  0  0  0  0  0  0  0  0  0
    5.6429   -1.8756   -0.2489 H   0  0  0  0  0  0  0  0  0  0  0  0
    5.4369   -2.7829   -2.2076 C   0  0  0  0  0  0  0  0  0  0  0  0
    6.3149   -3.4340   -2.0747 H   0  0  0  0  0  0  0  0  0  0  0  0
    4.6954   -2.8374   -3.3984 C   0  0  0  0  0  0  0  0  0  0  0  0
    4.9909   -3.5288   -4.2026 H   0  0  0  0  0  0  0  0  0  0  0  0
    3.5719   -2.0102   -3.5580 C   0  0  0  0  0  0  0  0  0  0  0  0
    2.9834   -2.0520   -4.4878 H   0  0  0  0  0  0  0  0  0  0  0  0
    3.1954   -1.1323   -2.5299 C   0  0  0  0  0  0  0  0  0  0  0  0
    2.3052   -0.4955   -2.6632 H   0  0  0  0  0  0  0  0  0  0  0  0
    4.1176   -0.3634    1.7051 C   0  0  0  0  0  0  0  0  0  0  0  0
    3.3051   -1.0157    2.6583 C   0  0  0  0  0  0  0  0  0  0  0  0
    2.2401   -1.1903    2.4415 H   0  0  0  0  0  0  0  0  0  0  0  0
    3.8332   -1.4463    3.8852 C   0  0  0  0  0  0  0  0  0  0  0  0
    3.1812   -1.9488    4.6164 H   0  0  0  0  0  0  0  0  0  0  0  0
    5.1891   -1.2343    4.1813 C   0  0  0  0  0  0  0  0  0  0  0  0
    5.6038   -1.5711    5.1440 H   0  0  0  0  0  0  0  0  0  0  0  0
    6.0129   -0.5855    3.2478 C   0  0  0  0  0  0  0  0  0  0  0  0
    7.0757   -0.4107    3.4766 H   0  0  0  0  0  0  0  0  0  0  0  0
    5.4797   -0.1515    2.0242 C   0  0  0  0  0  0  0  0  0  0  0  0
    6.1325    0.3736    1.3080 H   0  0  0  0  0  0  0  0  0  0  0  0
  1 19  1  0  0  0  0
  1 43  1  0  0  0  0
  4 13  1  0  0  0  0
  5  4  1  0  0  0  0
  6  5  1  0  0  0  0
  7  5  2  0  0  0  0
  7  9  1  0  0  0  0
  8  7  1  0  0  0  0
  9 11  2  0  0  0  0
 10  9  1  0  0  0  0
 11 12  1  0  0  0  0
 11 13  1  0  0  0  0
 13 14  2  0  0  0  0
 14 20  1  0  0  0  0
 15 14  1  0  0  0  0
 15 16  1  0  0  0  0
 16 17  1  0  0  0  0
 16 18  2  0  0  0  0
 18  2  1  0  0  0  0
 19 20  2  0  0  0  0
 19 18  1  0  0  0  0
 20  3  1  0  0  0  0
 21  1  1  0  0  0  0
 21 22  1  0  0  0  0
 22 23  1  0  0  0  0
 24 22  2  0  0  0  0
 24 25  1  0  0  0  0
 26 24  1  0  0  0  0
 27 26  1  0  0  0  0
 28 30  1  0  0  0  0
 28 26  2  0  0  0  0
 29 28  1  0  0  0  0
 30 21  2  0  0  0  0
 31 30  1  0  0  0  0
 32 33  1  0  0  0  0
 32  1  1  0  0  0  0
 33 34  1  0  0  0  0
 35 36  1  0  0  0  0
 35 33  2  0  0  0  0
 37 35  1  0  0  0  0
 38 37  1  0  0  0  0
 39 37  2  0  0  0  0
 39 41  1  0  0  0  0
 40 39  1  0  0  0  0
 41 32  2  0  0  0  0
 42 41  1  0  0  0  0
 43 52  2  0  0  0  0
 43 44  1  0  0  0  0
 44 46  2  0  0  0  0
 45 44  1  0  0  0  0
 46 48  1  0  0  0  0
 46 47  1  0  0  0  0
 48 49  1  0  0  0  0
 50 51  1  0  0  0  0
 50 48  2  0  0  0  0
 52 50  1  0  0  0  0
 53 52  1  0  0  0  0
M  END
