2,19
q = -1.0

 30 32  0  0  0  0  0  0  0  0999 V2000
    4.5628    0.2203    2.2861 O   0  0  0  0  0  0  0  0  0  0  0  0
    1.8517   -0.3972   -0.8823 N   0  0  0  0  0  2  0  0  0  0  0  0
    2.0926   -0.7631   -2.1748 C   0  0  0  0  0  3  0  0  0  0  0  0
    1.2285   -1.1939   -2.6998 H   0  0  0  0  0  0  0  0  0  0  0  0
    3.3245   -0.5927   -2.7671 C   0  0  0  0  0  0  0  0  0  0  0  0
    3.4966   -0.9354   -3.7973 H   0  0  0  0  0  0  0  0  0  0  0  0
    4.3375    0.1208   -2.0651 C   0  0  0  0  0  0  0  0  0  0  0  0
    5.5677    0.4790   -2.6870 C   0  0  0  0  0  0  0  0  0  0  0  0
    5.7716    0.1055   -3.7023 H   0  0  0  0  0  0  0  0  0  0  0  0
    6.4676    1.3165   -2.0457 C   0  0  0  0  0  0  0  0  0  0  0  0
    7.4100    1.5990   -2.5391 H   0  0  0  0  0  0  0  0  0  0  0  0
    6.1478    1.8477   -0.7698 C   0  0  0  0  0  0  0  0  0  0  0  0
    6.8285    2.5687   -0.2924 H   0  0  0  0  0  0  0  0  0  0  0  0
    4.9770    1.4784   -0.1222 C   0  0  0  0  0  0  0  0  0  0  0  0
    4.7340    1.9187    0.8494 H   0  0  0  0  0  0  0  0  0  0  0  0
    4.0630    0.5617   -0.7191 C   0  0  0  0  0  0  0  0  0  0  0  0
    2.8282    0.1425   -0.0928 C   0  0  0  0  0  0  0  0  0  0  0  0
    2.3924    0.3288    1.2922 C   0  0  0  0  0  0  0  0  0  0  0  0
    0.9680    0.2477    1.4744 C   0  0  0  0  0  3  0  0  0  0  0  0
    0.4182    0.5349    2.7407 C   0  0  0  0  0  0  0  0  0  0  0  0
   -0.6731    0.5296    2.8754 H   0  0  0  0  0  0  0  0  0  0  0  0
    1.2555    0.7914    3.8309 C   0  0  0  0  0  0  0  0  0  0  0  0
    0.8214    1.0159    4.8184 H   0  0  0  0  0  0  0  0  0  0  0  0
    2.6540    0.7124    3.7045 C   0  0  0  0  0  0  0  0  0  0  0  0
    3.2874    0.8322    4.5922 H   0  0  0  0  0  0  0  0  0  0  0  0
    3.2267    0.4456    2.4486 C   0  0  0  0  0  0  0  0  0  0  0  0
    5.4139    0.2703    3.4127 C   0  0  0  0  0  0  0  0  0  0  0  0
    6.4313    0.0457    3.0411 H   0  0  0  0  0  0  0  0  0  0  0  0
    5.1298   -0.4851    4.1789 H   0  0  0  0  0  0  0  0  0  0  0  0
    5.4174    1.2758    3.8911 H   0  0  0  0  0  0  0  0  0  0  0  0
  1 26  1  0  0  0  0
  1 27  1  0  0  0  0
  2 17  1  0  0  0  0
  3  2  1  0  0  0  0
  4  3  1  0  0  0  0
  5  3  1  0  0  0  0
  5  7  2  0  0  0  0
  6  5  1  0  0  0  0
  7 16  1  0  0  0  0
  8  7  1  0  0  0  0
  8 10  2  0  0  0  0
  9  8  1  0  0  0  0
 10 12  1  0  0  0  0
 11 10  1  0  0  0  0
 12 13  1  0  0  0  0
 12 14  2  0  0  0  0
 14 15  1  0  0  0  0
 16 14  1  0  0  0  0
 16 17  2  0  0  0  0
 17 18  1  0  0  0  0
 18 19  2  0  0  0  0
 18 26  1  0  0  0  0
 19 20  1  0  0  0  0
 20 21  1  0  0  0  0
 20 22  2  0  0  0  0
 22 23  1  0  0  0  0
 24 22  1  0  0  0  0
 24 25  1  0  0  0  0
 26 24  2  0  0  0  0
 27 30  1  0  0  0  0
 27 29  1  0  0  0  0
 28 27  1  0  0  0  0
M  END
