1,25
q = -1.0, confidence = 0.0

 29 31  0  0  0  0  0  0  0  0999 V2000
    2.0140   -0.2279    0.4454 N   0  0  0  0  0  2  0  0  0  0  0  0
    2.6390   -1.0313    1.3543 C   0  0  0  0  0  3  0  0  0  0  0  0
    1.9729   -1.7166    1.8978 H   0  0  0  0  0  0  0  0  0  0  0  0
    3.9971   -0.9669    1.5770 C   0  0  0  0  0  0  0  0  0  0  0  0
    4.4634   -1.6020    2.3435 H   0  0  0  0  0  0  0  0  0  0  0  0
    4.7978   -0.1184    0.7591 C   0  0  0  0  0  0  0  0  0  0  0  0
    6.2174   -0.1001    0.8612 C   0  0  0  0  0  0  0  0  0  0  0  0
    6.6960   -0.7181    1.6365 H   0  0  0  0  0  0  0  0  0  0  0  0
    6.9842    0.6541   -0.0151 C   0  0  0  0  0  0  0  0  0  0  0  0
    8.0815    0.6545    0.0685 H   0  0  0  0  0  0  0  0  0  0  0  0
    6.3519    1.3919   -1.0468 C   0  0  0  0  0  0  0  0  0  0  0  0
    6.9617    1.9389   -1.7814 H   0  0  0  0  0  0  0  0  0  0  0  0
    4.9666    1.4148   -1.1522 C   0  0  0  0  0  0  0  0  0  0  0  0
    4.5023    1.9493   -1.9884 H   0  0  0  0  0  0  0  0  0  0  0  0
    4.1434    0.7041   -0.2303 C   0  0  0  0  0  0  0  0  0  0  0  0
    2.6984    0.7117   -0.2740 C   0  0  0  0  0  0  0  0  0  0  0  0
    1.8146    1.6270   -0.9945 C   0  0  0  0  0  0  0  0  0  0  0  0
    2.1860    2.8711   -1.5664 C   0  0  0  0  0  0  0  0  0  0  0  0
    3.2181    3.2366   -1.4933 H   0  0  0  0  0  0  0  0  0  0  0  0
    1.2346    3.6912   -2.1716 C   0  0  0  0  0  0  0  0  0  0  0  0
    1.5443    4.6583   -2.5981 H   0  0  0  0  0  0  0  0  0  0  0  0
   -0.1279    3.3094   -2.2189 C   0  0  0  0  0  0  0  0  0  0  0  0
   -0.5063    2.1037   -1.6045 C   0  0  0  0  0  0  0  0  0  0  0  0
   -1.5730    1.8294   -1.6018 H   0  0  0  0  0  0  0  0  0  0  0  0
    0.4265    1.2522   -0.9774 C   0  0  0  0  0  3  0  0  0  0  0  0
   -1.1440    4.1913   -2.8974 C   0  0  0  0  0  0  0  0  0  0  0  0
   -2.1785    3.8511   -2.6975 H   0  0  0  0  0  0  0  0  0  0  0  0
   -0.9967    4.1941   -3.9990 H   0  0  0  0  0  0  0  0  0  0  0  0
   -1.0547    5.2456   -2.5625 H   0  0  0  0  0  0  0  0  0  0  0  0
  1  2  1  0  0  0  0
  2  4  1  0  0  0  0
  2  3  1  0  0  0  0
  4  5  1  0  0  0  0
  6  7  1  0  0  0  0
  6  4  2  0  0  0  0
  7  8  1  0  0  0  0
  9 10  1  0  0  0  0
  9  7  2  0  0  0  0
 11  9  1  0  0  0  0
 12 11  1  0  0  0  0
 13 11  2  0  0  0  0
 13 15  1  0  0  0  0
 14 13  1  0  0  0  0
 15  6  1  0  0  0  0
 16 15  2  0  0  0  0
 16  1  1  0  0  0  0
 17 25  1  0  0  0  0
 17 16  1  0  0  0  0
 18 19  1  0  0  0  0
 18 17  2  0  0  0  0
 20 18  1  0  0  0  0
 21 20  1  0  0  0  0
 22 20  2  0  0  0  0
 22 23  1  0  0  0  0
 23 24  1  0  0  0  0
 23 25  2  0  0  0  0
 26 27  1  0  0  0  0
 26 29  1  0  0  0  0
 26 22  1  0  0  0  0
 28 26  1  0  0  0  0
M  END
