1,3
q = -1.0, confidence = 0.064

 37 37  0  0  0  0  0  0  0  0999 V2000
   -0.6210   -1.1673   -1.7924 N   0  0  0  0  0  0  0  0  0  0  0  0
   -2.4924    2.2524   -0.4381 Si  0  0  0  0  0  0  0  0  0  0  0  0
   -1.8815    0.7292    0.5117 C   0  0  0  0  0  3  0  0  0  0  0  0
   -1.8369    1.1205    1.5512 H   0  0  0  0  0  0  0  0  0  0  0  0
   -2.7093   -0.5075    0.5222 C   0  0  0  0  0  0  0  0  0  0  0  0
   -3.4049   -0.9087    1.6946 C   0  0  0  0  0  0  0  0  0  0  0  0
   -3.3670   -0.2448    2.5739 H   0  0  0  0  0  0  0  0  0  0  0  0
   -4.1442   -2.0967    1.7630 C   0  0  0  0  0  0  0  0  0  0  0  0
   -4.6646   -2.3611    2.6969 H   0  0  0  0  0  0  0  0  0  0  0  0
   -4.2331   -2.9380    0.6429 C   0  0  0  0  0  0  0  0  0  0  0  0
   -4.8146   -3.8709    0.6819 H   0  0  0  0  0  0  0  0  0  0  0  0
   -3.5720   -2.5584   -0.5347 C   0  0  0  0  0  0  0  0  0  0  0  0
   -3.6343   -3.2010   -1.4286 H   0  0  0  0  0  0  0  0  0  0  0  0
   -2.8204   -1.3719   -0.6120 C   0  0  0  0  0  0  0  0  0  0  0  0
   -2.0996   -1.0279   -1.8892 C   0  0  0  0  0  0  0  0  0  0  0  0
   -2.4763   -1.6637   -2.7272 H   0  0  0  0  0  0  0  0  0  0  0  0
   -2.2994    0.0235   -2.1723 H   0  0  0  0  0  0  0  0  0  0  0  0
   -0.2367   -2.5800   -1.6796 C   0  0  0  0  0  0  0  0  0  0  0  0
   -0.7759   -3.0505   -0.8393 H   0  0  0  0  0  0  0  0  0  0  0  0
    0.8548   -2.6578   -1.5089 H   0  0  0  0  0  0  0  0  0  0  0  0
   -0.4927   -3.1404   -2.6120 H   0  0  0  0  0  0  0  0  0  0  0  0
    0.0108   -0.5944   -2.9884 C   0  0  0  0  0  0  0  0  0  0  0  0
   -0.3688   -1.0859   -3.9167 H   0  0  0  0  0  0  0  0  0  0  0  0
    1.1044   -0.7443   -2.9348 H   0  0  0  0  0  0  0  0  0  0  0  0
   -0.1985    0.4888   -3.0511 H   0  0  0  0  0  0  0  0  0  0  0  0
   -1.6531    2.6318   -2.1096 C   0  0  0  0  0  0  0  0  0  0  0  0
   -1.8913    3.6748   -2.4060 H   0  0  0  0  0  0  0  0  0  0  0  0
   -1.9931    1.9765   -2.9370 H   0  0  0  0  0  0  0  0  0  0  0  0
   -0.5491    2.5502   -2.0335 H   0  0  0  0  0  0  0  0  0  0  0  0
   -2.1157    3.7527    0.6639 C   0  0  0  0  0  0  0  0  0  0  0  0
   -1.0244    3.8535    0.8388 H   0  0  0  0  0  0  0  0  0  0  0  0
   -2.6089    3.6597    1.6535 H   0  0  0  0  0  0  0  0  0  0  0  0
   -2.4683    4.6938    0.1938 H   0  0  0  0  0  0  0  0  0  0  0  0
   -4.3612    2.1337   -0.7459 C   0  0  0  0  0  0  0  0  0  0  0  0
   -4.7526    3.0321   -1.2664 H   0  0  0  0  0  0  0  0  0  0  0  0
   -4.9081    2.0207    0.2128 H   0  0  0  0  0  0  0  0  0  0  0  0
   -4.6039    1.2451   -1.3652 H   0  0  0  0  0  0  0  0  0  0  0  0
  1 18  1  0  0  0  0
  2  3  1  0  0  0  0
  2 30  1  0  0  0  0
  3  5  1  0  0  0  0
  3  4  1  0  0  0  0
  5  6  1  0  0  0  0
  6  8  2  0  0  0  0
  6  7  1  0  0  0  0
  8  9  1  0  0  0  0
 10 11  1  0  0  0  0
 10  8  1  0  0  0  0
 12 10  2  0  0  0  0
 13 12  1  0  0  0  0
 14 12  1  0  0  0  0
 14  5  2  0  0  0  0
 15  1  1  0  0  0  0
 15 14  1  0  0  0  0
 16 15  1  0  0  0  0
 17 15  1  0  0  0  0
 18 20  1  0  0  0  0
 18 19  1  0  0  0  0
 21 18  1  0  0  0  0
 22 24  1  0  0  0  0
 22  1  1  0  0  0  0
 23 22  1  0  0  0  0
 25 22  1  0  0  0  0
 26 29  1  0  0  0  0
 26  2  1  0  0  0  0
 27 26  1  0  0  0  0
 28 26  1  0  0  0  0
 30 31  1  0  0  0  0
 30 32  1  0  0  0  0
 33 30  1  0  0  0  0
 34  2  1  0  0  0  0
 34 36  1  0  0  0  0
 35 34  1  0  0  0  0
 37 34  1  0  0  0  0
M  END
