3,5
q = -1.0, confidence = 0.004

 27 28  0  0  0  0  0  0  0  0999 V2000
    6.6948   -2.2042   -0.3812 Br  0  0  0  0  0  0  0  0  0  0  0  0
   -7.0307   -0.4633   -0.9473 Br  0  0  0  0  0  0  0  0  0  0  0  0
    0.3584   -1.0727    0.5226 N   0  0  0  0  0  2  0  0  0  0  0  0
   -0.8480   -1.6632    0.7573 N   0  0  0  0  0  0  0  0  0  0  0  0
    2.5478    0.1043   -0.2131 C   0  0  0  0  0  3  0  0  0  0  0  0
    3.7007    0.7083   -0.7475 C   0  0  0  0  0  0  0  0  0  0  0  0
    3.6521    1.7283   -1.1558 H   0  0  0  0  0  0  0  0  0  0  0  0
    4.9259    0.0247   -0.7936 C   0  0  0  0  0  0  0  0  0  0  0  0
    5.8197    0.5145   -1.2074 H   0  0  0  0  0  0  0  0  0  0  0  0
    5.0168   -1.3018   -0.3214 C   0  0  0  0  0  0  0  0  0  0  0  0
    3.8890   -1.9634    0.1648 C   0  0  0  0  0  0  0  0  0  0  0  0
    3.9487   -3.0121    0.4908 H   0  0  0  0  0  0  0  0  0  0  0  0
    2.6600   -1.2612    0.2068 C   0  0  0  0  0  0  0  0  0  0  0  0
    1.4162   -1.8605    0.5875 C   0  0  0  0  0  3  0  0  0  0  0  0
    1.2829   -2.9228    0.8536 H   0  0  0  0  0  0  0  0  0  0  0  0
   -1.8727   -1.0965    0.1980 C   0  0  0  0  0  0  0  0  0  0  0  0
   -1.7240   -0.2237   -0.4718 H   0  0  0  0  0  0  0  0  0  0  0  0
   -3.2301   -1.5946    0.4004 C   0  0  0  0  0  0  0  0  0  0  0  0
   -4.2908   -0.9309   -0.2576 C   0  0  0  0  0  0  0  0  0  0  0  0
   -4.0781   -0.0795   -0.9208 H   0  0  0  0  0  0  0  0  0  0  0  0
   -5.6079   -1.3674   -0.0640 C   0  0  0  0  0  0  0  0  0  0  0  0
   -5.8931   -2.4593    0.7715 C   0  0  0  0  0  0  0  0  0  0  0  0
   -6.9321   -2.7890    0.9117 H   0  0  0  0  0  0  0  0  0  0  0  0
   -4.8322   -3.1185    1.4196 C   0  0  0  0  0  0  0  0  0  0  0  0
   -5.0532   -3.9761    2.0729 H   0  0  0  0  0  0  0  0  0  0  0  0
   -3.5121   -2.6968    1.2417 C   0  0  0  0  0  0  0  0  0  0  0  0
   -2.6746   -3.2031    1.7421 H   0  0  0  0  0  0  0  0  0  0  0  0
  1 10  1  0  0  0  0
  2 21  1  0  0  0  0
  3 14  1  0  0  0  0
  3  4  1  0  0  0  0
  5 13  1  0  0  0  0
  6  5  2  0  0  0  0
  7  6  1  0  0  0  0
  8  6  1  0  0  0  0
  8 10  2  0  0  0  0
  9  8  1  0  0  0  0
 10 11  1  0  0  0  0
 11 13  2  0  0  0  0
 11 12  1  0  0  0  0
 13 14  1  0  0  0  0
 14 15  1  0  0  0  0
 16 18  1  0  0  0  0
 16  4  2  0  0  0  0
 17 16  1  0  0  0  0
 18 26  1  0  0  0  0
 19 21  1  0  0  0  0
 19 18  2  0  0  0  0
 20 19  1  0  0  0  0
 21 22  2  0  0  0  0
 22 23  1  0  0  0  0
 22 24  1  0  0  0  0
 24 25  1  0  0  0  0
 26 24  2  0  0  0  0
 26 27  1  0  0  0  0
M  END
