1,5
q = -1.0

 18 18  0  0  0  0  0  0  0  0999 V2000
   -3.4135    1.5018   -0.5405 N   0  0  0  0  0  0  0  0  0  0  0  0
   -3.6100   -0.9952    0.5231 C   0  0  0  0  0  0  0  0  0  0  0  0
   -2.7397   -1.8996   -0.1608 C   0  0  0  0  0  0  0  0  0  0  0  0
   -1.5580   -2.0479    0.6322 C   0  0  0  0  0  0  0  0  0  0  0  0
   -1.7071   -1.2573    1.8310 C   0  0  0  0  0  3  0  0  0  0  0  0
   -2.9760   -0.6046    1.7602 C   0  0  0  0  0  0  0  0  0  0  0  0
   -4.8846   -0.3898   -0.0140 C   0  0  0  0  0  0  0  0  0  0  0  0
   -4.5460    0.6793   -1.0585 C   0  0  0  0  0  0  0  0  0  0  0  0
   -3.7208    2.0368    0.2852 H   0  0  0  0  0  0  0  0  0  0  0  0
   -3.1393    2.2083   -1.2376 H   0  0  0  0  0  0  0  0  0  0  0  0
   -2.9410   -2.3912   -1.1206 H   0  0  0  0  0  0  0  0  0  0  0  0
   -0.7137   -2.7048    0.3913 H   0  0  0  0  0  0  0  0  0  0  0  0
   -0.9941   -1.1928    2.6611 H   0  0  0  0  0  0  0  0  0  0  0  0
   -3.4146    0.0463    2.5271 H   0  0  0  0  0  0  0  0  0  0  0  0
   -5.5350   -1.1638   -0.4679 H   0  0  0  0  0  0  0  0  0  0  0  0
   -5.4575    0.0582    0.8236 H   0  0  0  0  0  0  0  0  0  0  0  0
   -5.4239    1.3145   -1.3045 H   0  0  0  0  0  0  0  0  0  0  0  0
   -4.1966    0.2047   -1.9966 H   0  0  0  0  0  0  0  0  0  0  0  0
  1  9  1  0  0  0  0
  2  6  2  0  0  0  0
  3  2  1  0  0  0  0
  3  4  2  0  0  0  0
  4  5  1  0  0  0  0
  5 13  1  0  0  0  0
  6  5  1  0  0  0  0
  6 14  1  0  0  0  0
  7  2  1  0  0  0  0
  7 16  1  0  0  0  0
  8  1  1  0  0  0  0
  8  7  1  0  0  0  0
 10  1  1  0  0  0  0
 11  3  1  0  0  0  0
 12  4  1  0  0  0  0
 15  7  1  0  0  0  0
 17  8  1  0  0  0  0
 18  8  1  0  0  0  0
M  END
