1,20
q = -1.0

 54 56  0  0  0  0  0  0  0  0999 V2000
   -0.1009    2.1926    0.0331 N   0  0  0  0  0  2  0  0  0  0  0  0
    1.0775    2.8619    0.0538 C   0  0  0  0  0  0  0  0  0  0  0  0
    1.0892    4.2684    0.0369 C   0  0  0  0  0  0  0  0  0  0  0  0
    2.0495    4.8013    0.0569 H   0  0  0  0  0  0  0  0  0  0  0  0
   -0.1315    4.9580    0.0435 C   0  0  0  0  0  0  0  0  0  0  0  0
   -0.1435    6.0580    0.0389 H   0  0  0  0  0  0  0  0  0  0  0  0
   -1.3354    4.2457    0.0805 C   0  0  0  0  0  0  0  0  0  0  0  0
   -2.2977    4.7737    0.1031 H   0  0  0  0  0  0  0  0  0  0  0  0
   -1.3026    2.8391    0.0719 C   0  0  0  0  0  0  0  0  0  0  0  0
    3.3796    2.2311   -0.7632 C   0  0  0  0  0  0  0  0  0  0  0  0
    3.3036    2.9967   -1.5502 H   0  0  0  0  0  0  0  0  0  0  0  0
    2.3155    2.0522    0.1399 C   0  0  0  0  0  0  0  0  0  0  0  0
    2.4405    1.0597    1.1390 C   0  0  0  0  0  0  0  0  0  0  0  0
    1.6438    0.9380    1.8895 H   0  0  0  0  0  0  0  0  0  0  0  0
   -2.4717    1.9520    0.1003 C   0  0  0  0  0  0  0  0  0  0  0  0
   -3.8022    2.3931    0.2680 C   0  0  0  0  0  3  0  0  0  0  0  0
   -4.0172    3.4670    0.3721 H   0  0  0  0  0  0  0  0  0  0  0  0
   -4.8561    1.4789    0.3188 C   0  0  0  0  0  0  0  0  0  0  0  0
   -5.8774    1.8620    0.4560 H   0  0  0  0  0  0  0  0  0  0  0  0
   -2.2546    0.5571   -0.0243 C   0  0  0  0  0  3  0  0  0  0  0  0
   -3.3084   -0.3556    0.0230 C   0  0  0  0  0  0  0  0  0  0  0  0
   -3.1081   -1.4280   -0.0857 H   0  0  0  0  0  0  0  0  0  0  0  0
   -4.6398    0.0866    0.2020 C   0  0  0  0  0  0  0  0  0  0  0  0
   -5.8235   -0.8894    0.2661 C   0  0  0  0  0  0  0  0  0  0  0  0
    4.5162    1.4118   -0.7012 C   0  0  0  0  0  0  0  0  0  0  0  0
    5.3141    1.5692   -1.4383 H   0  0  0  0  0  0  0  0  0  0  0  0
    4.6441    0.3955    0.2687 C   0  0  0  0  0  0  0  0  0  0  0  0
    3.5821    0.2490    1.1962 C   0  0  0  0  0  0  0  0  0  0  0  0
    3.6572   -0.4997    1.9996 H   0  0  0  0  0  0  0  0  0  0  0  0
    5.8702   -0.5257    0.3557 C   0  0  0  0  0  0  0  0  0  0  0  0
    6.8995   -0.2259   -0.7471 C   0  0  0  0  0  0  0  0  0  0  0  0
    6.4755   -0.3672   -1.7618 H   0  0  0  0  0  0  0  0  0  0  0  0
    7.7611   -0.9151   -0.6497 H   0  0  0  0  0  0  0  0  0  0  0  0
    7.2952    0.8068   -0.6744 H   0  0  0  0  0  0  0  0  0  0  0  0
    6.5475   -0.3321    1.7326 C   0  0  0  0  0  0  0  0  0  0  0  0
    6.8847    0.7151    1.8662 H   0  0  0  0  0  0  0  0  0  0  0  0
    7.4352   -0.9910    1.8156 H   0  0  0  0  0  0  0  0  0  0  0  0
    5.8670   -0.5803    2.5713 H   0  0  0  0  0  0  0  0  0  0  0  0
    5.4052   -1.9935    0.2078 C   0  0  0  0  0  0  0  0  0  0  0  0
    4.9054   -2.1565   -0.7697 H   0  0  0  0  0  0  0  0  0  0  0  0
    4.7048   -2.2912    1.0144 H   0  0  0  0  0  0  0  0  0  0  0  0
    6.2756   -2.6779    0.2592 H   0  0  0  0  0  0  0  0  0  0  0  0
   -6.5369   -0.7195    1.6280 C   0  0  0  0  0  0  0  0  0  0  0  0
   -6.9236    0.3088    1.7695 H   0  0  0  0  0  0  0  0  0  0  0  0
   -5.8514   -0.9448    2.4695 H   0  0  0  0  0  0  0  0  0  0  0  0
   -7.3999   -1.4126    1.6926 H   0  0  0  0  0  0  0  0  0  0  0  0
   -6.8054   -0.5596   -0.8827 C   0  0  0  0  0  0  0  0  0  0  0  0
   -6.3154   -0.6680   -1.8711 H   0  0  0  0  0  0  0  0  0  0  0  0
   -7.1990    0.4732   -0.8090 H   0  0  0  0  0  0  0  0  0  0  0  0
   -7.6720   -1.2504   -0.8508 H   0  0  0  0  0  0  0  0  0  0  0  0
   -5.3772   -2.3549    0.1258 C   0  0  0  0  0  0  0  0  0  0  0  0
   -6.2611   -3.0200    0.1825 H   0  0  0  0  0  0  0  0  0  0  0  0
   -4.6851   -2.6579    0.9378 H   0  0  0  0  0  0  0  0  0  0  0  0
   -4.8831   -2.5478   -0.8481 H   0  0  0  0  0  0  0  0  0  0  0  0
  1  2  1  0  0  0  0
  1  9  1  0  0  0  0
  2 12  1  0  0  0  0
  3  5  1  0  0  0  0
  3  2  2  0  0  0  0
  3  4  1  0  0  0  0
  5  7  2  0  0  0  0
  6  5  1  0  0  0  0
  7  8  1  0  0  0  0
  9  7  1  0  0  0  0
  9 15  2  0  0  0  0
 10 25  2  0  0  0  0
 10 12  1  0  0  0  0
 11 10  1  0  0  0  0
 12 13  2  0  0  0  0
 13 28  1  0  0  0  0
 13 14  1  0  0  0  0
 15 16  1  0  0  0  0
 16 18  1  0  0  0  0
 16 17  1  0  0  0  0
 18 19  1  0  0  0  0
 20 21  2  0  0  0  0
 20 15  1  0  0  0  0
 21 23  1  0  0  0  0
 22 21  1  0  0  0  0
 23 24  1  0  0  0  0
 23 18  2  0  0  0  0
 24 43  1  0  0  0  0
 25 27  1  0  0  0  0
 26 25  1  0  0  0  0
 27 30  1  0  0  0  0
 27 28  2  0  0  0  0
 28 29  1  0  0  0  0
 30 35  1  0  0  0  0
 31 34  1  0  0  0  0
 31 33  1  0  0  0  0
 31 30  1  0  0  0  0
 32 31  1  0  0  0  0
 35 37  1  0  0  0  0
 35 36  1  0  0  0  0
 35 38  1  0  0  0  0
 39 42  1  0  0  0  0
 39 30  1  0  0  0  0
 39 41  1  0  0  0  0
 40 39  1  0  0  0  0
 43 46  1  0  0  0  0
 43 44  1  0  0  0  0
 43 45  1  0  0  0  0
 47 50  1  0  0  0  0
 47 49  1  0  0  0  0
 47 24  1  0  0  0  0
 48 47  1  0  0  0  0
 51 52  1  0  0  0  0
 51 24  1  0  0  0  0
 51 53  1  0  0  0  0
 54 51  1  0  0  0  0
M  END
