2,3
q = -1.0, confidence = 0.0

 28 29  0  0  0  0  0  0  0  0999 V2000
   -1.7879   -2.6512    0.4763 N   0  0  0  0  0  0  0  0  0  0  0  0
   -1.9892   -1.4718   -0.1760 C   0  0  0  0  0  2  0  0  0  0  0  0
    0.7671   -1.5042   -0.2061 N   0  0  0  0  0  2  0  0  0  0  0  0
    1.6284   -3.4695    0.7314 O   0  0  0  0  0  0  0  0  0  0  0  0
   -3.1216   -1.6652   -0.9194 N   0  0  0  0  0  0  0  0  0  0  0  0
    1.6678   -0.4046   -2.1713 C   0  0  0  0  0  0  0  0  0  0  0  0
    0.6340   -0.1103   -2.4157 H   0  0  0  0  0  0  0  0  0  0  0  0
    0.7369   -2.6294    0.5532 C   0  0  0  0  0  0  0  0  0  0  0  0
   -0.6034   -2.8751    1.3008 C   0  0  0  0  0  0  0  0  0  0  0  0
   -0.5941   -3.9282    1.6306 H   0  0  0  0  0  0  0  0  0  0  0  0
   -0.6557   -2.2200    2.1960 H   0  0  0  0  0  0  0  0  0  0  0  0
   -2.7674   -3.5763    0.1493 C   0  0  0  0  0  0  0  0  0  0  0  0
   -2.7742   -4.5916    0.5563 H   0  0  0  0  0  0  0  0  0  0  0  0
    1.8829   -1.1902   -1.0134 C   0  0  0  0  0  0  0  0  0  0  0  0
   -3.6169   -2.9530   -0.7301 C   0  0  0  0  0  0  0  0  0  0  0  0
   -4.5107   -3.3182   -1.2442 H   0  0  0  0  0  0  0  0  0  0  0  0
   -3.7120   -0.6747   -1.8031 C   0  0  0  0  0  0  0  0  0  0  0  0
   -2.9732    0.1307   -1.9609 H   0  0  0  0  0  0  0  0  0  0  0  0
   -4.6336   -0.2417   -1.3624 H   0  0  0  0  0  0  0  0  0  0  0  0
   -3.9611   -1.1368   -2.7775 H   0  0  0  0  0  0  0  0  0  0  0  0
    3.2088   -1.5778   -0.7054 C   0  0  0  0  0  0  0  0  0  0  0  0
    3.3889   -2.1891    0.1851 H   0  0  0  0  0  0  0  0  0  0  0  0
    2.7336    0.0057   -2.9795 C   0  0  0  0  0  0  0  0  0  0  0  0
    2.5366    0.6284   -3.8660 H   0  0  0  0  0  0  0  0  0  0  0  0
    4.2694   -1.1725   -1.5270 C   0  0  0  0  0  0  0  0  0  0  0  0
    5.2946   -1.4729   -1.2596 H   0  0  0  0  0  0  0  0  0  0  0  0
    4.0474   -0.3769   -2.6615 C   0  0  0  0  0  0  0  0  0  0  0  0
    4.8895   -0.0550   -3.2927 H   0  0  0  0  0  0  0  0  0  0  0  0
  1  9  1  0  0  0  0
  2  1  1  0  0  0  0
  3  8  1  0  0  0  0
  5 15  1  0  0  0  0
  5  2  1  0  0  0  0
  6 14  1  0  0  0  0
  7  6  1  0  0  0  0
  8  4  2  0  0  0  0
  8  9  1  0  0  0  0
  9 10  1  0  0  0  0
  9 11  1  0  0  0  0
 12  1  1  0  0  0  0
 12 13  1  0  0  0  0
 14 21  2  0  0  0  0
 14  3  1  0  0  0  0
 15 12  2  0  0  0  0
 16 15  1  0  0  0  0
 17 19  1  0  0  0  0
 17  5  1  0  0  0  0
 18 17  1  0  0  0  0
 20 17  1  0  0  0  0
 21 22  1  0  0  0  0
 23 27  1  0  0  0  0
 23  6  2  0  0  0  0
 24 23  1  0  0  0  0
 25 26  1  0  0  0  0
 25 21  1  0  0  0  0
 27 25  2  0  0  0  0
 28 27  1  0  0  0  0
M  END
