3,4
q = 0.0, confidence = 1.0

 24 25  0  0  1  0  0  0  0  0999 V2000
    0.5510    1.8192   -1.8970 N   0  0  0  0  0  0  0  0  0  0  0  0
    2.2486    1.0360   -0.7726 N   0  0  0  0  0  0  0  0  0  0  0  0
    2.1244   -0.9401    0.3930 N   0  0  0  0  0  2  0  0  0  0  0  0
    0.9063    0.8108   -1.0635 C   0  0  0  0  0  2  0  0  0  0  0  0
    2.6976    2.1865   -1.4250 C   0  0  0  0  0  0  0  0  0  0  0  0
    3.7156    2.5665   -1.3616 H   0  0  0  0  0  0  0  0  0  0  0  0
    1.6277    2.6714   -2.1236 C   0  0  0  0  0  0  0  0  0  0  0  0
    1.5474    3.5520   -2.7678 H   0  0  0  0  0  0  0  0  0  0  0  0
   -0.7827    2.0243   -2.4576 C   0  0  0  0  0  0  0  0  0  0  0  0
   -1.4745    2.3175   -1.6401 H   0  0  0  0  0  0  0  0  0  0  0  0
   -1.1342    1.0915   -2.9341 H   0  0  0  0  0  0  0  0  0  0  0  0
   -0.7263    2.8206   -3.2202 H   0  0  0  0  0  0  0  0  0  0  0  0
    2.9274    0.0975    0.0458 C   0  0  2  0  0  3  0  0  0  0  0  0
    4.2719    0.1901    0.4750 C   0  0  0  0  0  0  0  0  0  0  0  0
    4.7322   -0.8780    1.2738 C   0  0  0  0  0  0  0  0  0  0  0  0
    5.7733   -0.8503    1.6301 H   0  0  0  0  0  0  0  0  0  0  0  0
    3.9043   -1.9502    1.6191 C   0  0  0  0  0  0  0  0  0  0  0  0
    4.2689   -2.7792    2.2408 H   0  0  0  0  0  0  0  0  0  0  0  0
    2.5858   -1.9450    1.1595 C   0  0  0  0  0  0  0  0  0  0  0  0
    1.8496   -2.7346    1.3861 H   0  0  0  0  0  0  0  0  0  0  0  0
    5.2075    1.3241    0.1483 C   0  0  0  0  0  0  0  0  0  0  0  0
    6.1735    1.1759    0.6645 H   0  0  0  0  0  0  0  0  0  0  0  0
    4.8062    2.3044    0.4758 H   0  0  0  0  0  0  0  0  0  0  0  0
    5.4254    1.3857   -0.9378 H   0  0  0  0  0  0  0  0  0  0  0  0
  1  4  1  0  0  0  0
  3 19  1  0  0  0  0
  4  2  1  0  0  0  0
  5  6  1  0  0  0  0
  5  2  1  0  0  0  0
  7  1  1  0  0  0  0
  7  5  2  0  0  0  0
  8  7  1  0  0  0  0
  9  1  1  0  0  0  0
  9 10  1  0  0  0  0
 11  9  1  0  0  0  0
 12  9  1  0  0  0  0
 13  2  1  1  0  0  0
 13  3  1  0  0  0  0
 13 14  1  0  0  0  0
 14 15  2  0  0  0  0
 15 17  1  0  0  0  0
 15 16  1  0  0  0  0
 17 18  1  0  0  0  0
 19 20  1  0  0  0  0
 19 17  2  0  0  0  0
 21 14  1  0  0  0  0
 21 23  1  0  0  0  0
 21 22  1  0  0  0  0
 24 21  1  0  0  0  0
M  END
