7,12
q = -1.0, confidence = 0.0

 32 34  0  0  1  0  0  0  0  0999 V2000
   -6.2507   -1.4058   -0.5166 O   0  0  0  0  0  0  0  0  0  0  0  0
   -4.0070    2.3501    1.0246 O   0  0  0  0  0  0  0  0  0  0  0  0
   -5.1151    0.4445    0.2462 N   0  0  0  0  0  0  0  0  0  0  0  0
   -3.9452   -1.4671   -0.5968 N   0  0  0  0  0  0  0  0  0  0  0  0
   -1.4095    0.7968    0.3120 N   0  0  0  0  0  0  0  0  0  0  0  0
   -1.5057   -1.2714   -0.5581 N   0  0  0  0  0  0  0  0  0  0  0  0
    1.2043    1.8263   -0.3904 N   0  0  0  0  0  2  0  0  0  0  0  0
   -5.1738   -0.8537   -0.3054 C   0  0  0  0  0  0  0  0  0  0  0  0
   -2.7653   -0.8073   -0.3318 C   0  0  0  0  0  0  0  0  0  0  0  0
   -2.7619    0.4773    0.2130 C   0  0  0  0  0  0  0  0  0  0  0  0
   -3.9433    1.2094    0.5430 C   0  0  0  0  0  0  0  0  0  0  0  0
   -0.6825   -0.2757   -0.1614 C   0  0  0  0  0  3  0  0  0  0  0  0
   -6.4097    1.0538    0.5301 C   0  0  0  0  0  0  0  0  0  0  0  0
   -7.0112    1.1339   -0.3965 H   0  0  0  0  0  0  0  0  0  0  0  0
   -6.2106    2.0541    0.9526 H   0  0  0  0  0  0  0  0  0  0  0  0
   -6.9805    0.4324    1.2477 H   0  0  0  0  0  0  0  0  0  0  0  0
   -3.9264   -2.8041   -1.1714 C   0  0  0  0  0  0  0  0  0  0  0  0
   -3.5581   -3.5454   -0.4322 H   0  0  0  0  0  0  0  0  0  0  0  0
   -3.2484   -2.8234   -2.0460 H   0  0  0  0  0  0  0  0  0  0  0  0
   -4.9608   -3.0552   -1.4633 H   0  0  0  0  0  0  0  0  0  0  0  0
   -0.8492    1.9660    0.9584 C   0  0  0  0  0  0  0  0  0  0  0  0
   -0.4082    1.6747    1.9403 H   0  0  0  0  0  0  0  0  0  0  0  0
   -1.6817    2.6696    1.1502 H   0  0  0  0  0  0  0  0  0  0  0  0
    0.2238    2.6167    0.1230 C   0  0  1  0  0  3  0  0  0  0  0  0
    0.2202    4.0025   -0.1015 C   0  0  0  0  0  0  0  0  0  0  0  0
   -0.5978    4.6050    0.3185 H   0  0  0  0  0  0  0  0  0  0  0  0
    1.2416    4.5909   -0.8569 C   0  0  0  0  0  0  0  0  0  0  0  0
    1.2516    5.6765   -1.0350 H   0  0  0  0  0  0  0  0  0  0  0  0
    2.2353    3.7629   -1.3957 C   0  0  0  0  0  0  0  0  0  0  0  0
    3.0494    4.1660   -2.0142 H   0  0  0  0  0  0  0  0  0  0  0  0
    2.1733    2.3883   -1.1562 C   0  0  0  0  0  0  0  0  0  0  0  0
    2.8876    1.6821   -1.6022 H   0  0  0  0  0  0  0  0  0  0  0  0
  1  8  2  0  0  0  0
  3 13  1  0  0  0  0
  3 11  1  0  0  0  0
  4  9  1  0  0  0  0
  4  8  1  0  0  0  0
  5 21  1  0  0  0  0
  6  9  1  0  0  0  0
  6 12  2  0  0  0  0
  7 24  1  0  0  0  0
  8  3  1  0  0  0  0
  9 10  2  0  0  0  0
 10  5  1  0  0  0  0
 10 11  1  0  0  0  0
 11  2  2  0  0  0  0
 12  5  1  0  0  0  0
 13 15  1  0  0  0  0
 13 16  1  0  0  0  0
 14 13  1  0  0  0  0
 17  4  1  0  0  0  0
 17 18  1  0  0  0  0
 19 17  1  0  0  0  0
 20 17  1  0  0  0  0
 21 23  1  0  0  0  0
 21 22  1  0  0  0  0
 24 21  1  1  0  0  0
 25 24  1  0  0  0  0
 25 26  1  0  0  0  0
 27 25  2  0  0  0  0
 28 27  1  0  0  0  0
 29 31  2  0  0  0  0
 29 27  1  0  0  0  0
 30 29  1  0  0  0  0
 31  7  1  0  0  0  0
 32 31  1  0  0  0  0
M  END
