3,14
q = -1.0, confidence = 0.004

 25 26  0  0  0  0  0  0  0  0999 V2000
   -2.8296   -2.4154   -0.0557 O   0  0  0  0  0  0  0  0  0  0  0  0
   -1.9497   -2.9287   -0.0774 H   0  0  0  0  0  0  0  0  0  0  0  0
   -2.3914   -1.1468    0.0644 N   0  0  0  0  0  2  0  0  0  0  0  0
   -3.2502   -0.1525    0.0819 C   0  0  0  0  0  0  0  0  0  0  0  0
   -2.5957    1.1590    0.2078 C   0  0  0  0  0  0  0  0  0  0  0  0
   -3.3280    2.3525    0.3797 C   0  0  0  0  0  3  0  0  0  0  0  0
   -4.4266    2.3136    0.4179 H   0  0  0  0  0  0  0  0  0  0  0  0
   -2.6658    3.5804    0.5200 C   0  0  0  0  0  0  0  0  0  0  0  0
   -3.2455    4.5061    0.6529 H   0  0  0  0  0  0  0  0  0  0  0  0
   -1.2657    3.6133    0.4988 C   0  0  0  0  0  0  0  0  0  0  0  0
   -0.7310    4.5697    0.6095 H   0  0  0  0  0  0  0  0  0  0  0  0
   -0.5272    2.4232    0.3448 C   0  0  0  0  0  0  0  0  0  0  0  0
    0.5689    2.4996    0.3398 H   0  0  0  0  0  0  0  0  0  0  0  0
   -1.1586    1.1772    0.2002 C   0  0  0  0  0  3  0  0  0  0  0  0
   -4.7135   -0.3566   -0.0256 C   0  0  0  0  0  0  0  0  0  0  0  0
   -5.3808   -1.2784    0.8108 C   0  0  0  0  0  0  0  0  0  0  0  0
   -4.8029   -1.8555    1.5455 H   0  0  0  0  0  0  0  0  0  0  0  0
   -6.7659   -1.4557    0.7041 C   0  0  0  0  0  0  0  0  0  0  0  0
   -7.2754   -2.1714    1.3670 H   0  0  0  0  0  0  0  0  0  0  0  0
   -7.5025   -0.7295   -0.2459 C   0  0  0  0  0  0  0  0  0  0  0  0
   -8.5902   -0.8752   -0.3305 H   0  0  0  0  0  0  0  0  0  0  0  0
   -6.8458    0.1782   -1.0913 C   0  0  0  0  0  0  0  0  0  0  0  0
   -7.4148    0.7419   -1.8461 H   0  0  0  0  0  0  0  0  0  0  0  0
   -5.4612    0.3679   -0.9807 C   0  0  0  0  0  0  0  0  0  0  0  0
   -4.9453    1.0706   -1.6514 H   0  0  0  0  0  0  0  0  0  0  0  0
  1  3  1  0  0  0  0
  2  1  1  0  0  0  0
  3  4  1  0  0  0  0
  4  5  2  0  0  0  0
  5  6  1  0  0  0  0
  6  7  1  0  0  0  0
  6  8  1  0  0  0  0
  8  9  1  0  0  0  0
 10  8  2  0  0  0  0
 10 11  1  0  0  0  0
 12 10  1  0  0  0  0
 13 12  1  0  0  0  0
 14  5  1  0  0  0  0
 14 12  2  0  0  0  0
 15  4  1  0  0  0  0
 15 16  1  0  0  0  0
 16 17  1  0  0  0  0
 18 16  2  0  0  0  0
 18 19  1  0  0  0  0
 20 18  1  0  0  0  0
 21 20  1  0  0  0  0
 22 24  1  0  0  0  0
 22 20  2  0  0  0  0
 23 22  1  0  0  0  0
 24 15  2  0  0  0  0
 25 24  1  0  0  0  0
M  END
