3,5
q = -1.0, confidence = 0.0

 32 33  0  0  0  0  0  0  0  0999 V2000
   -1.7610   -2.6804    3.4885 F   0  0  0  0  0  0  0  0  0  0  0  0
   -4.4513   -1.7411   -0.0920 O   0  0  0  0  0  0  0  0  0  0  0  0
   -1.4543    1.0073   -1.4375 N   0  0  0  0  0  2  0  0  0  0  0  0
   -3.0738   -2.2006    1.7212 N   0  0  0  0  0  0  0  0  0  0  0  0
   -1.1727   -0.3320    0.7888 C   0  0  0  0  0  2  0  0  0  0  0  0
   -0.9479   -1.0634    1.9709 C   0  0  0  0  0  0  0  0  0  0  0  0
   -0.0402   -0.9474    2.5774 H   0  0  0  0  0  0  0  0  0  0  0  0
   -1.9380   -1.9651    2.3622 C   0  0  0  0  0  0  0  0  0  0  0  0
   -3.3081   -1.5279    0.5911 C   0  0  0  0  0  0  0  0  0  0  0  0
   -2.3865   -0.5738    0.0631 C   0  0  0  0  0  0  0  0  0  0  0  0
   -2.5288    0.1791   -1.1766 C   0  0  0  0  0  0  0  0  0  0  0  0
   -3.5938    0.1290   -2.1047 C   0  0  0  0  0  0  0  0  0  0  0  0
   -4.4421   -0.5262   -1.8833 H   0  0  0  0  0  0  0  0  0  0  0  0
   -3.5449    0.8972   -3.2702 C   0  0  0  0  0  0  0  0  0  0  0  0
   -4.3753    0.8525   -3.9910 H   0  0  0  0  0  0  0  0  0  0  0  0
   -2.4313    1.7184   -3.5153 C   0  0  0  0  0  0  0  0  0  0  0  0
   -2.3506    2.3325   -4.4226 H   0  0  0  0  0  0  0  0  0  0  0  0
   -1.4064    1.7431   -2.5689 C   0  0  0  0  0  0  0  0  0  0  0  0
   -0.5001    2.3540   -2.6905 H   0  0  0  0  0  0  0  0  0  0  0  0
   -5.4889   -2.7069    0.3107 C   0  0  0  0  0  0  0  0  0  0  0  0
   -4.9204   -4.1301    0.3165 C   0  0  0  0  0  0  0  0  0  0  0  0
   -4.4467   -4.3589   -0.6590 H   0  0  0  0  0  0  0  0  0  0  0  0
   -5.7433   -4.8548    0.4788 H   0  0  0  0  0  0  0  0  0  0  0  0
   -4.1707   -4.2535    1.1179 H   0  0  0  0  0  0  0  0  0  0  0  0
   -6.5277   -2.5491   -0.8045 C   0  0  0  0  0  0  0  0  0  0  0  0
   -6.0844   -2.7981   -1.7892 H   0  0  0  0  0  0  0  0  0  0  0  0
   -6.9061   -1.5083   -0.8407 H   0  0  0  0  0  0  0  0  0  0  0  0
   -7.3852   -3.2268   -0.6265 H   0  0  0  0  0  0  0  0  0  0  0  0
   -6.0898   -2.3106    1.6636 C   0  0  0  0  0  0  0  0  0  0  0  0
   -6.4409   -1.2598    1.6351 H   0  0  0  0  0  0  0  0  0  0  0  0
   -5.3463   -2.4193    2.4730 H   0  0  0  0  0  0  0  0  0  0  0  0
   -6.9608   -2.9596    1.8845 H   0  0  0  0  0  0  0  0  0  0  0  0
  2 20  1  0  0  0  0
  2  9  1  0  0  0  0
  3 11  1  0  0  0  0
  4  8  1  0  0  0  0
  5  6  1  0  0  0  0
  6  8  2  0  0  0  0
  6  7  1  0  0  0  0
  8  1  1  0  0  0  0
  9  4  2  0  0  0  0
 10  9  1  0  0  0  0
 10  5  1  0  0  0  0
 11 10  2  0  0  0  0
 12 13  1  0  0  0  0
 12 11  1  0  0  0  0
 14 12  2  0  0  0  0
 15 14  1  0  0  0  0
 16 14  1  0  0  0  0
 16 18  2  0  0  0  0
 17 16  1  0  0  0  0
 18  3  1  0  0  0  0
 19 18  1  0  0  0  0
 20 21  1  0  0  0  0
 20 29  1  0  0  0  0
 21 23  1  0  0  0  0
 21 24  1  0  0  0  0
 22 21  1  0  0  0  0
 25 28  1  0  0  0  0
 25 20  1  0  0  0  0
 26 25  1  0  0  0  0
 27 25  1  0  0  0  0
 29 32  1  0  0  0  0
 29 31  1  0  0  0  0
 30 29  1  0  0  0  0
M  END
