1,3
q = -1.0

 28 28  0  0  1  0  0  0  0  0999 V2000
   -2.7596   -1.5677    0.4285 N   0  0  0  0  0  0  0  0  0  0  0  0
   -2.4213   -2.2300    1.1429 H   0  0  0  0  0  0  0  0  0  0  0  0
   -2.7163    1.0577   -0.1076 C   0  0  0  0  0  3  0  0  0  0  0  0
   -2.6993    2.3323   -0.7014 C   0  0  0  0  0  0  0  0  0  0  0  0
   -1.7820    2.7509   -1.1472 H   0  0  0  0  0  0  0  0  0  0  0  0
   -3.8685    3.1138   -0.7490 C   0  0  0  0  0  0  0  0  0  0  0  0
   -3.8384    4.1099   -1.2162 H   0  0  0  0  0  0  0  0  0  0  0  0
   -5.0681    2.6256   -0.2104 C   0  0  0  0  0  0  0  0  0  0  0  0
   -5.9819    3.2363   -0.2529 H   0  0  0  0  0  0  0  0  0  0  0  0
   -5.1018    1.3500    0.3738 C   0  0  0  0  0  0  0  0  0  0  0  0
   -6.0456    0.9582    0.7866 H   0  0  0  0  0  0  0  0  0  0  0  0
   -3.9364    0.5675    0.4238 C   0  0  0  0  0  0  0  0  0  0  0  0
   -3.8924   -0.7956    1.0675 C   0  0  2  0  0  0  0  0  0  0  0  0
   -4.8380   -1.3532    0.8828 H   0  0  0  0  0  0  0  0  0  0  0  0
   -3.6567   -0.7149    2.5781 C   0  0  0  0  0  0  0  0  0  0  0  0
   -4.4692   -0.1354    3.0556 H   0  0  0  0  0  0  0  0  0  0  0  0
   -2.7008   -0.1929    2.7908 H   0  0  0  0  0  0  0  0  0  0  0  0
   -3.6386   -1.7225    3.0449 H   0  0  0  0  0  0  0  0  0  0  0  0
   -3.1775   -2.4205   -0.7404 C   0  0  0  0  0  0  0  0  0  0  0  0
   -4.0084   -3.0616   -0.3628 H   0  0  0  0  0  0  0  0  0  0  0  0
   -3.6975   -1.5977   -1.9142 C   0  0  0  0  0  0  0  0  0  0  0  0
   -4.5681   -0.9724   -1.6421 H   0  0  0  0  0  0  0  0  0  0  0  0
   -4.0091   -2.2810   -2.7281 H   0  0  0  0  0  0  0  0  0  0  0  0
   -2.9063   -0.9232   -2.3003 H   0  0  0  0  0  0  0  0  0  0  0  0
   -2.0209   -3.3298   -1.1500 C   0  0  0  0  0  0  0  0  0  0  0  0
   -1.6002   -3.8880   -0.2871 H   0  0  0  0  0  0  0  0  0  0  0  0
   -1.2118   -2.7418   -1.6306 H   0  0  0  0  0  0  0  0  0  0  0  0
   -2.3711   -4.0788   -1.8860 H   0  0  0  0  0  0  0  0  0  0  0  0
  1 13  1  0  0  0  0
  1  2  1  0  0  0  0
  3 12  1  0  0  0  0
  4  3  2  0  0  0  0
  5  4  1  0  0  0  0
  6  4  1  0  0  0  0
  6  8  2  0  0  0  0
  7  6  1  0  0  0  0
  8 10  1  0  0  0  0
  9  8  1  0  0  0  0
 10 12  2  0  0  0  0
 10 11  1  0  0  0  0
 12 13  1  0  0  0  0
 13 14  1  6  0  0  0
 13 15  1  0  0  0  0
 15 17  1  0  0  0  0
 15 18  1  0  0  0  0
 15 16  1  0  0  0  0
 19 20  1  0  0  0  0
 19  1  1  0  0  0  0
 21 22  1  0  0  0  0
 21 19  1  0  0  0  0
 23 21  1  0  0  0  0
 24 21  1  0  0  0  0
 25 19  1  0  0  0  0
 25 26  1  0  0  0  0
 27 25  1  0  0  0  0
 28 25  1  0  0  0  0
M  END
