1,5
q = -1.0, confidence = 0.0

 21 21  0  0  0  0  0  0  0  0999 V2000
   -0.3103    2.1525   -0.3828 N   0  0  0  0  0  2  0  0  0  0  0  0
    0.4343    4.4377   -0.9835 C   0  0  0  0  0  0  0  0  0  0  0  0
    0.6628    2.9778   -0.7256 C   0  0  0  0  0  0  0  0  0  0  0  0
    1.9376    2.3496   -0.8781 C   0  0  0  0  0  0  0  0  0  0  0  0
    1.9938    0.9878   -0.6269 C   0  0  0  0  0  2  0  0  0  0  0  0
    3.3118    0.3342   -0.7860 C   0  0  0  0  0  0  0  0  0  0  0  0
    4.4933    1.0123   -0.3797 C   0  0  0  0  0  0  0  0  0  0  0  0
    5.7561    0.4213   -0.5006 C   0  0  0  0  0  0  0  0  0  0  0  0
    5.8838   -0.8656   -1.0492 C   0  0  0  0  0  0  0  0  0  0  0  0
    4.7319   -1.5457   -1.4739 C   0  0  0  0  0  0  0  0  0  0  0  0
    3.4643   -0.9619   -1.3366 C   0  0  0  0  0  0  0  0  0  0  0  0
   -1.2465    2.5709   -0.3224 H   0  0  0  0  0  0  0  0  0  0  0  0
   -0.5884    4.7546   -0.7024 H   0  0  0  0  0  0  0  0  0  0  0  0
    0.5834    4.6610   -2.0608 H   0  0  0  0  0  0  0  0  0  0  0  0
    1.1672    5.0556   -0.4262 H   0  0  0  0  0  0  0  0  0  0  0  0
    2.7979    2.9358   -1.2428 H   0  0  0  0  0  0  0  0  0  0  0  0
    4.4056    2.0105    0.0751 H   0  0  0  0  0  0  0  0  0  0  0  0
    6.6486    0.9674   -0.1581 H   0  0  0  0  0  0  0  0  0  0  0  0
    6.8753   -1.3334   -1.1459 H   0  0  0  0  0  0  0  0  0  0  0  0
    4.8168   -2.5485   -1.9202 H   0  0  0  0  0  0  0  0  0  0  0  0
    2.5856   -1.5093   -1.6949 H   0  0  0  0  0  0  0  0  0  0  0  0
  1 12  1  0  0  0  0
  2  3  1  0  0  0  0
  2 13  1  0  0  0  0
  2 15  1  0  0  0  0
  3  1  1  0  0  0  0
  4  3  2  0  0  0  0
  4  5  1  0  0  0  0
  6  5  1  0  0  0  0
  6  7  1  0  0  0  0
  7 17  1  0  0  0  0
  8  7  2  0  0  0  0
  8 18  1  0  0  0  0
  9  8  1  0  0  0  0
 10 11  1  0  0  0  0
 10  9  2  0  0  0  0
 11  6  2  0  0  0  0
 14  2  1  0  0  0  0
 16  4  1  0  0  0  0
 19  9  1  0  0  0  0
 20 10  1  0  0  0  0
 21 11  1  0  0  0  0
M  END
