1,7
q = -1.0

 21 21  0  0  1  0  0  0  0  0999 V2000
   -0.3979    1.5221    0.8191 N   0  0  0  0  0  0  0  0  0  0  0  0
    0.2253    2.6728    0.0739 C   0  0  0  0  0  0  0  0  0  0  0  0
    1.7481    2.5236    0.0186 C   0  0  0  0  0  0  0  0  0  0  0  0
    2.0817    1.1140   -0.4100 C   0  0  2  0  0  3  0  0  0  0  0  0
    1.8078    0.5372   -1.6962 C   0  0  0  0  0  0  0  0  0  0  0  0
    1.9990   -0.8761   -1.5869 C   0  0  0  0  0  0  0  0  0  0  0  0
    2.4382   -1.1842   -0.2449 C   0  0  0  0  0  3  0  0  0  0  0  0
    2.5074    0.0653    0.4838 C   0  0  0  0  0  3  0  0  0  0  0  0
   -0.3256    1.7021    2.2916 C   0  0  0  0  0  0  0  0  0  0  0  0
   -1.4036    1.5274    0.5608 H   0  0  0  0  0  0  0  0  0  0  0  0
   -0.1947    2.6436   -0.9501 H   0  0  0  0  0  0  0  0  0  0  0  0
   -0.0825    3.6332    0.5402 H   0  0  0  0  0  0  0  0  0  0  0  0
    2.1656    3.2639   -0.6932 H   0  0  0  0  0  0  0  0  0  0  0  0
    2.2089    2.7342    1.0037 H   0  0  0  0  0  0  0  0  0  0  0  0
    1.4901    1.0830   -2.5933 H   0  0  0  0  0  0  0  0  0  0  0  0
    1.8788   -1.6033   -2.3990 H   0  0  0  0  0  0  0  0  0  0  0  0
    2.7469   -2.1678    0.1279 H   0  0  0  0  0  0  0  0  0  0  0  0
    2.8674    0.1997    1.5112 H   0  0  0  0  0  0  0  0  0  0  0  0
   -0.9272    0.9201    2.7865 H   0  0  0  0  0  0  0  0  0  0  0  0
   -0.7135    2.7015    2.5786 H   0  0  0  0  0  0  0  0  0  0  0  0
    0.7197    1.6075    2.6368 H   0  0  0  0  0  0  0  0  0  0  0  0
  1  9  1  0  0  0  0
  2 12  1  0  0  0  0
  2  1  1  0  0  0  0
  3  2  1  0  0  0  0
  3 14  1  0  0  0  0
  4  3  1  1  0  0  0
  4  8  1  0  0  0  0
  5  6  2  0  0  0  0
  5  4  1  0  0  0  0
  6  7  1  0  0  0  0
  7 17  1  0  0  0  0
  7  8  1  0  0  0  0
  8 18  1  0  0  0  0
  9 20  1  0  0  0  0
  9 21  1  0  0  0  0
  9 19  1  0  0  0  0
 10  1  1  0  0  0  0
 11  2  1  0  0  0  0
 13  3  1  0  0  0  0
 15  5  1  0  0  0  0
 16  6  1  0  0  0  0
M  END
