1,4
q = 0.0, confidence = 0.998

 49 51  0  0  0  0  0  0  0  0999 V2000
   -2.5509    0.6293   -0.1265 N   0  0  0  0  0  2  0  0  0  0  0  0
   -0.2497    2.1774   -1.0782 N   0  0  0  0  0  0  0  0  0  0  0  0
    1.4582    1.2733   -0.1062 N   0  0  0  0  0  0  0  0  0  0  0  0
    0.2525    0.9598   -0.6890 C   0  0  0  0  0  2  0  0  0  0  0  0
    0.6730    0.3245    2.5471 C   0  0  0  0  0  0  0  0  0  0  0  0
    0.1111    0.9731    1.8461 H   0  0  0  0  0  0  0  0  0  0  0  0
   -3.4655    0.1971    0.7653 C   0  0  0  0  0  3  0  0  0  0  0  0
   -3.3469   -0.8544    1.0790 H   0  0  0  0  0  0  0  0  0  0  0  0
   -3.6741    2.7581   -0.2208 C   0  0  0  0  0  0  0  0  0  0  0  0
   -3.7262    3.7721   -0.6444 H   0  0  0  0  0  0  0  0  0  0  0  0
   -0.2522   -0.8509    2.9007 C   0  0  0  0  0  0  0  0  0  0  0  0
   -0.5254   -1.4269    1.9922 H   0  0  0  0  0  0  0  0  0  0  0  0
   -1.1886   -0.4752    3.3626 H   0  0  0  0  0  0  0  0  0  0  0  0
    0.2212   -1.5444    3.6260 H   0  0  0  0  0  0  0  0  0  0  0  0
    1.6799    2.6504   -0.1159 C   0  0  0  0  0  0  0  0  0  0  0  0
    2.5829    3.0920    0.3136 H   0  0  0  0  0  0  0  0  0  0  0  0
    1.9378   -0.1431    1.8377 C   0  0  0  0  0  0  0  0  0  0  0  0
   -4.5148    1.0111    1.2129 C   0  0  0  0  0  0  0  0  0  0  0  0
   -5.2368    0.6152    1.9415 H   0  0  0  0  0  0  0  0  0  0  0  0
    2.3186    0.3290    0.5588 C   0  0  0  0  0  0  0  0  0  0  0  0
   -1.5952    2.2936   -1.6294 C   0  0  0  0  0  0  0  0  0  0  0  0
   -1.6639    1.6168   -2.5071 H   0  0  0  0  0  0  0  0  0  0  0  0
   -1.7533    3.3350   -1.9648 H   0  0  0  0  0  0  0  0  0  0  0  0
   -2.6490    1.8864   -0.6175 C   0  0  0  0  0  0  0  0  0  0  0  0
    1.0246    1.1721    3.7827 C   0  0  0  0  0  0  0  0  0  0  0  0
    0.1028    1.5513    4.2698 H   0  0  0  0  0  0  0  0  0  0  0  0
    1.6546    2.0438    3.5122 H   0  0  0  0  0  0  0  0  0  0  0  0
    1.5815    0.5773    4.5363 H   0  0  0  0  0  0  0  0  0  0  0  0
    3.5065   -0.0858   -0.0898 C   0  0  0  0  0  0  0  0  0  0  0  0
    3.8960    0.4316   -1.4694 C   0  0  0  0  0  0  0  0  0  0  0  0
    2.9913    0.8935   -1.9161 H   0  0  0  0  0  0  0  0  0  0  0  0
    2.7961   -1.0641    2.4678 C   0  0  0  0  0  0  0  0  0  0  0  0
    2.5254   -1.4580    3.4590 H   0  0  0  0  0  0  0  0  0  0  0  0
    0.5958    3.2233   -0.7260 C   0  0  0  0  0  0  0  0  0  0  0  0
    0.3685    4.2697   -0.9500 H   0  0  0  0  0  0  0  0  0  0  0  0
    3.9817   -1.4858    1.8555 C   0  0  0  0  0  0  0  0  0  0  0  0
    4.6367   -2.2078    2.3664 H   0  0  0  0  0  0  0  0  0  0  0  0
   -4.6232    2.3149    0.7121 C   0  0  0  0  0  0  0  0  0  0  0  0
   -5.4359    2.9804    1.0401 H   0  0  0  0  0  0  0  0  0  0  0  0
    4.3333   -0.9977    0.5911 C   0  0  0  0  0  0  0  0  0  0  0  0
    5.2621   -1.3438    0.1141 H   0  0  0  0  0  0  0  0  0  0  0  0
    4.9768    1.5233   -1.3596 C   0  0  0  0  0  0  0  0  0  0  0  0
    4.6453    2.3718   -0.7283 H   0  0  0  0  0  0  0  0  0  0  0  0
    5.2357    1.9239   -2.3612 H   0  0  0  0  0  0  0  0  0  0  0  0
    5.9039    1.1150   -0.9064 H   0  0  0  0  0  0  0  0  0  0  0  0
    4.3476   -0.6932   -2.4145 C   0  0  0  0  0  0  0  0  0  0  0  0
    5.3043   -1.1486   -2.0860 H   0  0  0  0  0  0  0  0  0  0  0  0
    4.5100   -0.2936   -3.4360 H   0  0  0  0  0  0  0  0  0  0  0  0
    3.5881   -1.4972   -2.4732 H   0  0  0  0  0  0  0  0  0  0  0  0
  1  7  1  0  0  0  0
  2 34  1  0  0  0  0
  2  4  1  0  0  0  0
  3 20  1  0  0  0  0
  4  3  1  0  0  0  0
  5 11  1  0  0  0  0
  5 25  1  0  0  0  0
  6  5  1  0  0  0  0
  7  8  1  0  0  0  0
  7 18  1  0  0  0  0
  9 38  1  0  0  0  0
 10  9  1  0  0  0  0
 11 13  1  0  0  0  0
 11 14  1  0  0  0  0
 12 11  1  0  0  0  0
 15  3  1  0  0  0  0
 15 16  1  0  0  0  0
 17 32  1  0  0  0  0
 17  5  1  0  0  0  0
 18 19  1  0  0  0  0
 20 17  2  0  0  0  0
 21  2  1  0  0  0  0
 21 24  1  0  0  0  0
 22 21  1  0  0  0  0
 23 21  1  0  0  0  0
 24  9  2  0  0  0  0
 24  1  1  0  0  0  0
 25 26  1  0  0  0  0
 25 28  1  0  0  0  0
 27 25  1  0  0  0  0
 29 20  1  0  0  0  0
 29 40  2  0  0  0  0
 30 42  1  0  0  0  0
 30 29  1  0  0  0  0
 31 30  1  0  0  0  0
 32 33  1  0  0  0  0
 34 15  2  0  0  0  0
 35 34  1  0  0  0  0
 36 37  1  0  0  0  0
 36 32  2  0  0  0  0
 38 39  1  0  0  0  0
 38 18  2  0  0  0  0
 40 36  1  0  0  0  0
 41 40  1  0  0  0  0
 42 45  1  0  0  0  0
 42 43  1  0  0  0  0
 44 42  1  0  0  0  0
 46 47  1  0  0  0  0
 46 30  1  0  0  0  0
 48 46  1  0  0  0  0
 49 46  1  0  0  0  0
M  END
