1,13
q = -1.0, confidence = 0.0

 27 29  0  0  0  0  0  0  0  0999 V2000
   -0.7146    1.9873   -0.0640 N   0  0  0  0  0  2  0  0  0  0  0  0
    2.9089    1.2750    0.1391 N   0  0  0  0  0  0  0  0  0  0  0  0
   -1.7168    2.8834   -0.1289 C   0  0  0  0  0  0  0  0  0  0  0  0
   -2.7247    2.4419   -0.2042 H   0  0  0  0  0  0  0  0  0  0  0  0
   -1.4850    4.2618   -0.0870 C   0  0  0  0  0  0  0  0  0  0  0  0
   -2.3331    4.9572   -0.1443 H   0  0  0  0  0  0  0  0  0  0  0  0
   -0.1603    4.7122    0.0297 C   0  0  0  0  0  0  0  0  0  0  0  0
    0.0635    5.7891    0.0669 H   0  0  0  0  0  0  0  0  0  0  0  0
    0.8817    3.7855    0.0970 C   0  0  0  0  0  0  0  0  0  0  0  0
    1.9171    4.1312    0.1824 H   0  0  0  0  0  0  0  0  0  0  0  0
    0.6011    2.3991    0.0461 C   0  0  0  0  0  0  0  0  0  0  0  0
    1.5112    1.2870    0.0637 C   0  0  0  0  0  0  0  0  0  0  0  0
    0.9988   -0.0224   -0.0742 C   0  0  0  0  0  3  0  0  0  0  0  0
    2.1548   -0.8815   -0.1283 C   0  0  0  0  0  0  0  0  0  0  0  0
    3.3192   -0.0415    0.0279 C   0  0  0  0  0  0  0  0  0  0  0  0
    3.7919    2.4052    0.3121 C   0  0  0  0  0  0  0  0  0  0  0  0
    4.8261    2.0400    0.4414 H   0  0  0  0  0  0  0  0  0  0  0  0
    3.5282    2.9907    1.2171 H   0  0  0  0  0  0  0  0  0  0  0  0
    3.7799    3.0817   -0.5692 H   0  0  0  0  0  0  0  0  0  0  0  0
    2.3532   -2.2733   -0.3231 C   0  0  0  0  0  3  0  0  0  0  0  0
    1.4911   -2.9220   -0.5314 H   0  0  0  0  0  0  0  0  0  0  0  0
    3.6481   -2.7917   -0.3115 C   0  0  0  0  0  0  0  0  0  0  0  0
    3.8016   -3.8697   -0.4707 H   0  0  0  0  0  0  0  0  0  0  0  0
    4.7729   -1.9507   -0.1216 C   0  0  0  0  0  0  0  0  0  0  0  0
    5.7838   -2.3861   -0.1184 H   0  0  0  0  0  0  0  0  0  0  0  0
    4.6243   -0.5711    0.0403 C   0  0  0  0  0  0  0  0  0  0  0  0
    5.5081    0.0727    0.1613 H   0  0  0  0  0  0  0  0  0  0  0  0
  1 11  1  0  0  0  0
  2 16  1  0  0  0  0
  3  5  2  0  0  0  0
  3  1  1  0  0  0  0
  4  3  1  0  0  0  0
  5  7  1  0  0  0  0
  6  5  1  0  0  0  0
  7  8  1  0  0  0  0
  7  9  2  0  0  0  0
  9 10  1  0  0  0  0
 11 12  2  0  0  0  0
 11  9  1  0  0  0  0
 12  2  1  0  0  0  0
 13 12  1  0  0  0  0
 14 13  2  0  0  0  0
 14 15  1  0  0  0  0
 15 26  2  0  0  0  0
 15  2  1  0  0  0  0
 16 17  1  0  0  0  0
 16 18  1  0  0  0  0
 19 16  1  0  0  0  0
 20 22  1  0  0  0  0
 20 14  1  0  0  0  0
 21 20  1  0  0  0  0
 22 24  2  0  0  0  0
 23 22  1  0  0  0  0
 24 25  1  0  0  0  0
 24 26  1  0  0  0  0
 26 27  1  0  0  0  0
M  END
