1,3
q = -1.0

 31 34  0  0  1  0  0  0  0  0999 V2000
   -0.2461   -0.0842    0.0001 N   0  0  0  0  0  2  0  0  0  0  0  0
   -4.1758   -1.5123   -0.0000 N   0  0  0  0  0  0  0  0  0  0  0  0
    1.9444   -1.5879    0.0001 C   0  0  0  0  0  3  0  0  0  0  0  0
    3.1292   -2.3494    0.0003 C   0  0  0  0  0  0  0  0  0  0  0  0
    4.1063   -1.8429    0.0003 H   0  0  0  0  0  0  0  0  0  0  0  0
    3.0934   -3.7535    0.0003 C   0  0  0  0  0  0  0  0  0  0  0  0
    4.0347   -4.3254    0.0004 H   0  0  0  0  0  0  0  0  0  0  0  0
    1.8627   -4.4355    0.0002 C   0  0  0  0  0  0  0  0  0  0  0  0
    1.8364   -5.5350    0.0002 H   0  0  0  0  0  0  0  0  0  0  0  0
    0.6704   -3.7060    0.0001 C   0  0  0  0  0  0  0  0  0  0  0  0
   -0.2915   -4.2409    0.0001 H   0  0  0  0  0  0  0  0  0  0  0  0
    0.7032   -2.2930    0.0001 C   0  0  0  0  0  0  0  0  0  0  0  0
   -0.5045   -1.4658    0.0000 C   0  0  1  0  0  3  0  0  0  0  0  0
   -1.8126   -1.9280   -0.0000 C   0  0  0  0  0  0  0  0  0  0  0  0
   -2.0325   -3.0035   -0.0001 H   0  0  0  0  0  0  0  0  0  0  0  0
   -2.9202   -1.0318    0.0000 C   0  0  0  0  0  0  0  0  0  0  0  0
   -2.6199    0.3877    0.0001 C   0  0  0  0  0  0  0  0  0  0  0  0
   -5.1993   -0.6335   -0.0000 C   0  0  0  0  0  0  0  0  0  0  0  0
   -5.0094    0.8152    0.0001 C   0  0  0  0  0  0  0  0  0  0  0  0
   -6.5387   -1.1417   -0.0001 C   0  0  0  0  0  0  0  0  0  0  0  0
   -6.6618   -2.2339   -0.0001 H   0  0  0  0  0  0  0  0  0  0  0  0
   -7.6184   -0.2796   -0.0000 C   0  0  0  0  0  0  0  0  0  0  0  0
   -8.6419   -0.6840   -0.0001 H   0  0  0  0  0  0  0  0  0  0  0  0
   -7.4287    1.1377    0.0001 C   0  0  0  0  0  0  0  0  0  0  0  0
   -8.3065    1.8008    0.0001 H   0  0  0  0  0  0  0  0  0  0  0  0
   -6.1554    1.6729    0.0001 C   0  0  0  0  0  0  0  0  0  0  0  0
   -6.0025    2.7633    0.0002 H   0  0  0  0  0  0  0  0  0  0  0  0
   -3.6901    1.2991    0.0001 C   0  0  0  0  0  0  0  0  0  0  0  0
   -3.4986    2.3847    0.0002 H   0  0  0  0  0  0  0  0  0  0  0  0
   -1.2527    0.7816    0.0001 C   0  0  0  0  0  0  0  0  0  0  0  0
   -0.9849    1.8494    0.0002 H   0  0  0  0  0  0  0  0  0  0  0  0
  1 30  1  0  0  0  0
  2 18  2  0  0  0  0
  2 16  1  0  0  0  0
  3  4  1  0  0  0  0
  4  6  2  0  0  0  0
  4  5  1  0  0  0  0
  6  7  1  0  0  0  0
  8  9  1  0  0  0  0
  8  6  1  0  0  0  0
 10  8  2  0  0  0  0
 11 10  1  0  0  0  0
 12 10  1  0  0  0  0
 12  3  2  0  0  0  0
 13 12  1  1  0  0  0
 13  1  1  0  0  0  0
 14 16  2  0  0  0  0
 14 13  1  0  0  0  0
 15 14  1  0  0  0  0
 16 17  1  0  0  0  0
 17 30  2  0  0  0  0
 17 28  1  0  0  0  0
 18 19  1  0  0  0  0
 19 26  1  0  0  0  0
 19 28  2  0  0  0  0
 20 22  2  0  0  0  0
 20 18  1  0  0  0  0
 21 20  1  0  0  0  0
 22 24  1  0  0  0  0
 23 22  1  0  0  0  0
 24 25  1  0  0  0  0
 24 26  2  0  0  0  0
 26 27  1  0  0  0  0
 28 29  1  0  0  0  0
 30 31  1  0  0  0  0
M  END
