1,3
q = -1.0, confidence = 0.0

 27 29  0  0  1  0  0  0  0  0999 V2000
    0.0788    0.3363   -1.8898 N   0  0  0  0  0  2  0  0  0  0  0  0
    0.1620   -0.2353   -4.0414 O   0  0  0  0  0  0  0  0  0  0  0  0
   -2.0959   -1.1430   -1.2629 C   0  0  0  0  0  3  0  0  0  0  0  0
   -3.2272   -1.9373   -0.9613 C   0  0  0  0  0  0  0  0  0  0  0  0
   -3.6103   -1.9582    0.0698 H   0  0  0  0  0  0  0  0  0  0  0  0
   -3.8794   -2.6922   -1.9492 C   0  0  0  0  0  0  0  0  0  0  0  0
   -4.7594   -3.2952   -1.6733 H   0  0  0  0  0  0  0  0  0  0  0  0
   -3.4317   -2.6920   -3.2857 C   0  0  0  0  0  0  0  0  0  0  0  0
   -3.9541   -3.2881   -4.0486 H   0  0  0  0  0  0  0  0  0  0  0  0
   -2.3162   -1.9240   -3.6313 C   0  0  0  0  0  0  0  0  0  0  0  0
   -1.9407   -1.9016   -4.6662 H   0  0  0  0  0  0  0  0  0  0  0  0
   -1.6665   -1.1661   -2.6338 C   0  0  0  0  0  0  0  0  0  0  0  0
   -0.5016   -0.3541   -2.8676 C   0  0  1  0  0  3  0  0  0  0  0  0
    1.2352    0.5827   -3.7771 C   0  0  0  0  0  0  0  0  0  0  0  0
    1.8973    0.8267   -4.6110 H   0  0  0  0  0  0  0  0  0  0  0  0
    1.1949    0.9505   -2.4524 C   0  0  0  0  0  0  0  0  0  0  0  0
    2.1142    1.8526   -1.7340 C   0  0  0  0  0  0  0  0  0  0  0  0
    1.6351    3.0542   -1.1700 C   0  0  0  0  0  0  0  0  0  0  0  0
    0.5673    3.3009   -1.2593 H   0  0  0  0  0  0  0  0  0  0  0  0
    2.5174    3.9312   -0.5254 C   0  0  0  0  0  0  0  0  0  0  0  0
    2.1314    4.8647   -0.0893 H   0  0  0  0  0  0  0  0  0  0  0  0
    3.8872    3.6258   -0.4461 C   0  0  0  0  0  0  0  0  0  0  0  0
    4.5788    4.3198    0.0557 H   0  0  0  0  0  0  0  0  0  0  0  0
    4.3700    2.4355   -1.0120 C   0  0  0  0  0  0  0  0  0  0  0  0
    5.4412    2.1889   -0.9504 H   0  0  0  0  0  0  0  0  0  0  0  0
    3.4885    1.5495   -1.6508 C   0  0  0  0  0  0  0  0  0  0  0  0
    3.8533    0.6017   -2.0731 H   0  0  0  0  0  0  0  0  0  0  0  0
  2 14  1  0  0  0  0
  2 13  1  0  0  0  0
  3  4  1  0  0  0  0
  4  5  1  0  0  0  0
  6  7  1  0  0  0  0
  6  4  2  0  0  0  0
  8  6  1  0  0  0  0
  9  8  1  0  0  0  0
 10  8  2  0  0  0  0
 10 12  1  0  0  0  0
 11 10  1  0  0  0  0
 12  3  2  0  0  0  0
 13 12  1  1  0  0  0
 13  1  1  0  0  0  0
 14 16  2  0  0  0  0
 15 14  1  0  0  0  0
 16  1  1  0  0  0  0
 16 17  1  0  0  0  0
 17 26  2  0  0  0  0
 17 18  1  0  0  0  0
 18 20  2  0  0  0  0
 19 18  1  0  0  0  0
 20 22  1  0  0  0  0
 20 21  1  0  0  0  0
 22 23  1  0  0  0  0
 24 25  1  0  0  0  0
 24 22  2  0  0  0  0
 26 24  1  0  0  0  0
 27 26  1  0  0  0  0
M  END
