1,3
q = -1.0, confidence = 0.0

 31 31  0  0  1  0  0  0  0  0999 V2000
   -2.6419   -1.1569   -1.2758 N   0  0  0  0  0  0  0  0  0  0  0  0
   -2.6958   -2.1654   -1.0697 H   0  0  0  0  0  0  0  0  0  0  0  0
   -1.6275    1.1471   -0.3497 C   0  0  0  0  0  3  0  0  0  0  0  0
   -1.0926    2.4476   -0.2443 C   0  0  0  0  0  0  0  0  0  0  0  0
   -0.0039    2.6005   -0.2536 H   0  0  0  0  0  0  0  0  0  0  0  0
   -1.9207    3.5782   -0.1327 C   0  0  0  0  0  0  0  0  0  0  0  0
   -1.4654    4.5778   -0.0494 H   0  0  0  0  0  0  0  0  0  0  0  0
   -3.3157    3.4378   -0.1432 C   0  0  0  0  0  0  0  0  0  0  0  0
   -3.9676    4.3218   -0.0748 H   0  0  0  0  0  0  0  0  0  0  0  0
   -3.8751    2.1565   -0.2621 C   0  0  0  0  0  0  0  0  0  0  0  0
   -4.9699    2.0405   -0.3048 H   0  0  0  0  0  0  0  0  0  0  0  0
   -3.0523    1.0179   -0.3491 C   0  0  0  0  0  0  0  0  0  0  0  0
   -3.6328   -0.3751   -0.4833 C   0  0  2  0  0  0  0  0  0  0  0  0
   -4.5858   -0.3290   -1.0625 H   0  0  0  0  0  0  0  0  0  0  0  0
   -4.0041   -1.1002    0.8616 C   0  0  0  0  0  0  0  0  0  0  0  0
   -2.8345   -1.1436    1.8585 C   0  0  0  0  0  0  0  0  0  0  0  0
   -1.9448   -1.6582    1.4379 H   0  0  0  0  0  0  0  0  0  0  0  0
   -3.1421   -1.6852    2.7766 H   0  0  0  0  0  0  0  0  0  0  0  0
   -2.5238   -0.1223    2.1522 H   0  0  0  0  0  0  0  0  0  0  0  0
   -4.4658   -2.5389    0.5484 C   0  0  0  0  0  0  0  0  0  0  0  0
   -3.6308   -3.1970    0.2277 H   0  0  0  0  0  0  0  0  0  0  0  0
   -5.2499   -2.5556   -0.2376 H   0  0  0  0  0  0  0  0  0  0  0  0
   -4.8942   -3.0056    1.4581 H   0  0  0  0  0  0  0  0  0  0  0  0
   -5.1783   -0.3387    1.5026 C   0  0  0  0  0  0  0  0  0  0  0  0
   -5.4979   -0.8499    2.4331 H   0  0  0  0  0  0  0  0  0  0  0  0
   -6.0556   -0.2924    0.8239 H   0  0  0  0  0  0  0  0  0  0  0  0
   -4.8922    0.6978    1.7674 H   0  0  0  0  0  0  0  0  0  0  0  0
   -2.7633   -0.9730   -2.7313 C   0  0  0  0  0  0  0  0  0  0  0  0
   -3.7665   -1.2923   -3.0937 H   0  0  0  0  0  0  0  0  0  0  0  0
   -1.9801   -1.5765   -3.2270 H   0  0  0  0  0  0  0  0  0  0  0  0
   -2.6162    0.0947   -2.9811 H   0  0  0  0  0  0  0  0  0  0  0  0
  1  2  1  0  0  0  0
  1 13  1  0  0  0  0
  3 12  2  0  0  0  0
  3  4  1  0  0  0  0
  4  6  2  0  0  0  0
  5  4  1  0  0  0  0
  6  7  1  0  0  0  0
  8  6  1  0  0  0  0
  8  9  1  0  0  0  0
 10  8  2  0  0  0  0
 11 10  1  0  0  0  0
 12 10  1  0  0  0  0
 13 14  1  6  0  0  0
 13 12  1  0  0  0  0
 13 15  1  0  0  0  0
 15 24  1  0  0  0  0
 15 16  1  0  0  0  0
 16 19  1  0  0  0  0
 16 18  1  0  0  0  0
 17 16  1  0  0  0  0
 20 15  1  0  0  0  0
 20 23  1  0  0  0  0
 21 20  1  0  0  0  0
 22 20  1  0  0  0  0
 24 27  1  0  0  0  0
 24 25  1  0  0  0  0
 26 24  1  0  0  0  0
 28  1  1  0  0  0  0
 29 28  1  0  0  0  0
 30 28  1  0  0  0  0
 31 28  1  0  0  0  0
M  END
