5,7
q = -1.0, confidence = 0.0

 23 24  0  0  1  0  0  0  0  0999 V2000
    5.4109   -3.2184   -0.7222 F   0  0  0  0  0  0  0  0  0  0  0  0
    2.9886   -2.6331    2.6161 F   0  0  0  0  0  0  0  0  0  0  0  0
    4.3102   -4.4029    0.7441 F   0  0  0  0  0  0  0  0  0  0  0  0
    5.6225   -2.7964    1.4091 F   0  0  0  0  0  0  0  0  0  0  0  0
    0.7715    1.0051   -1.8956 N   0  0  0  0  0  2  0  0  0  0  0  0
    1.8674    0.1893   -2.0664 C   0  0  2  0  0  3  0  0  0  0  0  0
    1.4004   -0.3288    0.2724 C   0  0  0  0  0  3  0  0  0  0  0  0
    2.4948    0.1243   -3.3266 C   0  0  0  0  0  0  0  0  0  0  0  0
    3.3703   -0.5259   -3.4575 H   0  0  0  0  0  0  0  0  0  0  0  0
    2.2372   -0.5592   -0.8691 C   0  0  0  0  0  0  0  0  0  0  0  0
    3.5840   -2.1756    0.3656 C   0  0  0  0  0  0  0  0  0  0  0  0
    0.2852    1.7256   -2.9308 C   0  0  0  0  0  0  0  0  0  0  0  0
   -0.6036    2.3319   -2.7027 H   0  0  0  0  0  0  0  0  0  0  0  0
    1.9997    0.8752   -4.3951 C   0  0  0  0  0  0  0  0  0  0  0  0
    2.4869    0.8239   -5.3800 H   0  0  0  0  0  0  0  0  0  0  0  0
    4.7304   -3.1487    0.4512 C   0  0  0  0  0  0  0  0  0  0  0  0
    2.7452   -1.9548    1.4813 C   0  0  0  0  0  0  0  0  0  0  0  0
    0.8701    1.6892   -4.1972 C   0  0  0  0  0  0  0  0  0  0  0  0
    0.4424    2.2900   -5.0113 H   0  0  0  0  0  0  0  0  0  0  0  0
    3.3110   -1.4665   -0.8096 C   0  0  0  0  0  0  0  0  0  0  0  0
    3.9581   -1.6407   -1.6809 H   0  0  0  0  0  0  0  0  0  0  0  0
    1.6764   -1.0592    1.4459 C   0  0  0  0  0  0  0  0  0  0  0  0
    1.0701   -0.9453    2.3559 H   0  0  0  0  0  0  0  0  0  0  0  0
  1 16  1  0  0  0  0
  6  5  1  0  0  0  0
  6 10  1  6  0  0  0
  7 22  1  0  0  0  0
  8  6  1  0  0  0  0
  9  8  1  0  0  0  0
 10 20  1  0  0  0  0
 10  7  2  0  0  0  0
 11 16  1  0  0  0  0
 11 17  1  0  0  0  0
 12 13  1  0  0  0  0
 12  5  1  0  0  0  0
 14 18  1  0  0  0  0
 14  8  2  0  0  0  0
 15 14  1  0  0  0  0
 16  3  1  0  0  0  0
 16  4  1  0  0  0  0
 17  2  1  0  0  0  0
 18 12  2  0  0  0  0
 19 18  1  0  0  0  0
 20 11  2  0  0  0  0
 21 20  1  0  0  0  0
 22 17  2  0  0  0  0
 22 23  1  0  0  0  0
M  END
