1,2
q = -1.0, confidence = 0.0

 31 31  0  0  1  0  0  0  0  0999 V2000
    2.4328   -1.0547    0.3433 N   0  0  0  0  0  0  0  0  0  0  0  0
    1.0654    1.3418    0.3502 C   0  0  0  0  0  3  0  0  0  0  0  0
    2.5230    1.3634   -0.1587 C   0  0  0  0  0  0  0  0  0  0  0  0
    3.2336    0.1801    0.5641 C   0  0  2  0  0  0  0  0  0  0  0  0
    3.1944    2.6947    0.2234 C   0  0  0  0  0  0  0  0  0  0  0  0
    2.5581    1.2059   -1.6896 C   0  0  0  0  0  0  0  0  0  0  0  0
    4.7102    0.0017    0.2571 C   0  0  0  0  0  0  0  0  0  0  0  0
    5.1582   -0.6940   -0.8849 C   0  0  0  0  0  0  0  0  0  0  0  0
    6.5275   -0.8159   -1.1648 C   0  0  0  0  0  0  0  0  0  0  0  0
    7.4773   -0.2386   -0.3078 C   0  0  0  0  0  0  0  0  0  0  0  0
    7.0468    0.4539    0.8345 C   0  0  0  0  0  0  0  0  0  0  0  0
    5.6769    0.5669    1.1130 C   0  0  0  0  0  0  0  0  0  0  0  0
    2.7074   -2.1264    1.3188 C   0  0  0  0  0  0  0  0  0  0  0  0
    2.6217   -1.4265   -0.5990 H   0  0  0  0  0  0  0  0  0  0  0  0
    0.4595    2.0998   -0.1858 H   0  0  0  0  0  0  0  0  0  0  0  0
    1.0290    1.5841    1.4371 H   0  0  0  0  0  0  0  0  0  0  0  0
    3.1401    0.3973    1.6497 H   0  0  0  0  0  0  0  0  0  0  0  0
    4.2398    2.7531   -0.1444 H   0  0  0  0  0  0  0  0  0  0  0  0
    3.2080    2.8367    1.3240 H   0  0  0  0  0  0  0  0  0  0  0  0
    2.6286    3.5408   -0.2161 H   0  0  0  0  0  0  0  0  0  0  0  0
    3.5921    1.2422   -2.0877 H   0  0  0  0  0  0  0  0  0  0  0  0
    1.9838    2.0301   -2.1590 H   0  0  0  0  0  0  0  0  0  0  0  0
    2.0765    0.2609   -2.0184 H   0  0  0  0  0  0  0  0  0  0  0  0
    4.4338   -1.1562   -1.5742 H   0  0  0  0  0  0  0  0  0  0  0  0
    6.8538   -1.3665   -2.0601 H   0  0  0  0  0  0  0  0  0  0  0  0
    8.5514   -0.3345   -0.5267 H   0  0  0  0  0  0  0  0  0  0  0  0
    7.7830    0.9027    1.5187 H   0  0  0  0  0  0  0  0  0  0  0  0
    5.3444    1.1029    2.0161 H   0  0  0  0  0  0  0  0  0  0  0  0
    3.7765   -2.4301    1.3019 H   0  0  0  0  0  0  0  0  0  0  0  0
    2.0507   -2.9836    1.0761 H   0  0  0  0  0  0  0  0  0  0  0  0
    2.4532   -1.7599    2.3320 H   0  0  0  0  0  0  0  0  0  0  0  0
  1  4  1  0  0  0  0
  1 13  1  0  0  0  0
  2 16  1  0  0  0  0
  3  5  1  0  0  0  0
  3  2  1  0  0  0  0
  3  4  1  0  0  0  0
  4 17  1  1  0  0  0
  5 19  1  0  0  0  0
  6  3  1  0  0  0  0
  7  4  1  0  0  0  0
  7 12  1  0  0  0  0
  8  7  2  0  0  0  0
  9  8  1  0  0  0  0
  9 10  2  0  0  0  0
 10 11  1  0  0  0  0
 11 12  2  0  0  0  0
 11 27  1  0  0  0  0
 12 28  1  0  0  0  0
 13 31  1  0  0  0  0
 14  1  1  0  0  0  0
 15  2  1  0  0  0  0
 18  5  1  0  0  0  0
 20  5  1  0  0  0  0
 21  6  1  0  0  0  0
 22  6  1  0  0  0  0
 23  6  1  0  0  0  0
 24  8  1  0  0  0  0
 25  9  1  0  0  0  0
 26 10  1  0  0  0  0
 29 13  1  0  0  0  0
 30 13  1  0  0  0  0
M  END
