2,3
q = -1.0

 44 45  0  0  0  0  0  0  0  0999 V2000
   -1.2404    1.9077    0.7892 N   0  0  0  0  0  2  0  0  0  0  0  0
   -3.3070   -1.7083    0.3976 N   0  0  0  0  0  0  0  0  0  0  0  0
   -1.9134    0.9771    0.2216 C   0  0  0  0  0  2  0  0  0  0  0  0
    0.0795    1.8191    1.2294 C   0  0  0  0  0  0  0  0  0  0  0  0
    0.4791    0.9689    2.2951 C   0  0  0  0  0  0  0  0  0  0  0  0
    1.8438    0.9211    2.6346 C   0  0  0  0  0  0  0  0  0  0  0  0
    2.8174    1.6788    1.9597 C   0  0  0  0  0  0  0  0  0  0  0  0
    2.3791    2.5632    0.9539 C   0  0  0  0  0  0  0  0  0  0  0  0
    1.0297    2.6642    0.5896 C   0  0  0  0  0  0  0  0  0  0  0  0
   -0.5242    0.1220    3.0326 C   0  0  0  0  0  0  0  0  0  0  0  0
    4.2846    1.5267    2.2676 C   0  0  0  0  0  0  0  0  0  0  0  0
    0.5699    3.6007   -0.4956 C   0  0  0  0  0  0  0  0  0  0  0  0
   -3.2654    1.3071   -0.3114 C   0  0  0  0  0  0  0  0  0  0  0  0
   -3.4243    2.4306   -1.1492 C   0  0  0  0  0  0  0  0  0  0  0  0
   -4.6768    2.7428   -1.6947 C   0  0  0  0  0  0  0  0  0  0  0  0
   -5.7915    1.9431   -1.3970 C   0  0  0  0  0  0  0  0  0  0  0  0
   -5.6435    0.8333   -0.5506 C   0  0  0  0  0  0  0  0  0  0  0  0
   -4.3906    0.5044   -0.0075 C   0  0  0  0  0  0  0  0  0  0  0  0
   -4.2218   -0.6614    0.9281 C   0  0  0  0  0  0  0  0  0  0  0  0
   -3.8848   -2.3322   -0.8163 C   0  0  0  0  0  0  0  0  0  0  0  0
   -3.1000   -2.7408    1.4387 C   0  0  0  0  0  0  0  0  0  0  0  0
    2.1566    0.2562    3.4568 H   0  0  0  0  0  0  0  0  0  0  0  0
    3.1182    3.1939    0.4326 H   0  0  0  0  0  0  0  0  0  0  0  0
   -0.7805   -0.7859    2.4414 H   0  0  0  0  0  0  0  0  0  0  0  0
   -0.1250   -0.2106    4.0101 H   0  0  0  0  0  0  0  0  0  0  0  0
   -1.4727    0.6710    3.2016 H   0  0  0  0  0  0  0  0  0  0  0  0
    4.7660    0.8453    1.5321 H   0  0  0  0  0  0  0  0  0  0  0  0
    4.8193    2.4963    2.2120 H   0  0  0  0  0  0  0  0  0  0  0  0
    4.4510    1.0967    3.2749 H   0  0  0  0  0  0  0  0  0  0  0  0
    0.2346    3.0439   -1.3974 H   0  0  0  0  0  0  0  0  0  0  0  0
   -0.3071    4.1907   -0.1583 H   0  0  0  0  0  0  0  0  0  0  0  0
    1.3767    4.2945   -0.8011 H   0  0  0  0  0  0  0  0  0  0  0  0
   -2.5435    3.0536   -1.3621 H   0  0  0  0  0  0  0  0  0  0  0  0
   -4.7848    3.6188   -2.3524 H   0  0  0  0  0  0  0  0  0  0  0  0
   -6.7774    2.1832   -1.8225 H   0  0  0  0  0  0  0  0  0  0  0  0
   -6.5168    0.2100   -0.3002 H   0  0  0  0  0  0  0  0  0  0  0  0
   -5.2120   -1.1232    1.1485 H   0  0  0  0  0  0  0  0  0  0  0  0
   -3.7904   -0.3204    1.8917 H   0  0  0  0  0  0  0  0  0  0  0  0
   -3.1679   -3.0851   -1.1933 H   0  0  0  0  0  0  0  0  0  0  0  0
   -4.8609   -2.8129   -0.5739 H   0  0  0  0  0  0  0  0  0  0  0  0
   -4.0458   -1.5574   -1.5887 H   0  0  0  0  0  0  0  0  0  0  0  0
   -2.3905   -3.4952    1.0502 H   0  0  0  0  0  0  0  0  0  0  0  0
   -2.6691   -2.2693    2.3424 H   0  0  0  0  0  0  0  0  0  0  0  0
   -4.0712   -3.2169    1.7056 H   0  0  0  0  0  0  0  0  0  0  0  0
  1  4  1  0  0  0  0
  2 19  1  0  0  0  0
  2 21  1  0  0  0  0
  3  1  1  0  0  0  0
  4  5  1  0  0  0  0
  5  6  2  0  0  0  0
  5 10  1  0  0  0  0
  6 22  1  0  0  0  0
  7 11  1  0  0  0  0
  7  6  1  0  0  0  0
  8  7  2  0  0  0  0
  9  8  1  0  0  0  0
  9  4  2  0  0  0  0
 10 26  1  0  0  0  0
 10 25  1  0  0  0  0
 11 29  1  0  0  0  0
 12 31  1  0  0  0  0
 12  9  1  0  0  0  0
 13 18  1  0  0  0  0
 13  3  1  0  0  0  0
 14 13  2  0  0  0  0
 15 16  2  0  0  0  0
 15 14  1  0  0  0  0
 16 17  1  0  0  0  0
 17 36  1  0  0  0  0
 17 18  2  0  0  0  0
 18 19  1  0  0  0  0
 19 37  1  0  0  0  0
 19 38  1  0  0  0  0
 20 40  1  0  0  0  0
 20  2  1  0  0  0  0
 21 44  1  0  0  0  0
 21 43  1  0  0  0  0
 23  8  1  0  0  0  0
 24 10  1  0  0  0  0
 27 11  1  0  0  0  0
 28 11  1  0  0  0  0
 30 12  1  0  0  0  0
 32 12  1  0  0  0  0
 33 14  1  0  0  0  0
 34 15  1  0  0  0  0
 35 16  1  0  0  0  0
 39 20  1  0  0  0  0
 41 20  1  0  0  0  0
 42 21  1  0  0  0  0
M  END
