5,27
q = -1.0

 27 28  0  0  0  0  0  0  0  0999 V2000
    3.5652   -2.8529   -0.0020 F   0  0  0  0  0  0  0  0  0  0  0  0
    3.9091    1.8848    0.0113 F   0  0  0  0  0  0  0  0  0  0  0  0
   -2.7768   -4.0185    0.0445 F   0  0  0  0  0  0  0  0  0  0  0  0
    1.3485   -1.2663    0.0075 N   0  0  0  0  0  0  0  0  0  0  0  0
    0.0194   -0.9240    0.0058 N   0  0  0  0  0  2  0  0  0  0  0  0
    2.1798   -0.2614    0.0029 C   0  0  0  0  0  0  0  0  0  0  0  0
    1.7857    0.7846   -0.0044 H   0  0  0  0  0  0  0  0  0  0  0  0
    3.6229   -0.4693    0.0044 C   0  0  0  0  0  0  0  0  0  0  0  0
    4.2859   -1.7270    0.0020 C   0  0  0  0  0  0  0  0  0  0  0  0
    5.6794   -1.8435    0.0028 C   0  0  0  0  0  0  0  0  0  0  0  0
    6.1225   -2.8489    0.0005 H   0  0  0  0  0  0  0  0  0  0  0  0
    6.4687   -0.6837    0.0064 C   0  0  0  0  0  0  0  0  0  0  0  0
    7.5652   -0.7699    0.0071 H   0  0  0  0  0  0  0  0  0  0  0  0
    5.8695    0.5843    0.0091 C   0  0  0  0  0  0  0  0  0  0  0  0
    6.4588    1.5112    0.0121 H   0  0  0  0  0  0  0  0  0  0  0  0
    4.4752    0.6676    0.0081 C   0  0  0  0  0  0  0  0  0  0  0  0
   -0.7753   -1.9825    0.0186 C   0  0  0  0  0  3  0  0  0  0  0  0
   -0.3288   -2.9907    0.0278 H   0  0  0  0  0  0  0  0  0  0  0  0
   -2.1757   -1.7138    0.0207 C   0  0  0  0  0  0  0  0  0  0  0  0
   -3.1668   -2.7247    0.0342 C   0  0  0  0  0  0  0  0  0  0  0  0
   -4.5220   -2.4131    0.0369 C   0  0  0  0  0  0  0  0  0  0  0  0
   -5.2698   -3.2178    0.0475 H   0  0  0  0  0  0  0  0  0  0  0  0
   -4.8812   -1.0482    0.0259 C   0  0  0  0  0  0  0  0  0  0  0  0
   -5.9507   -0.7827    0.0280 H   0  0  0  0  0  0  0  0  0  0  0  0
   -3.9182   -0.0278    0.0123 C   0  0  0  0  0  0  0  0  0  0  0  0
   -4.2638    1.0154    0.0041 H   0  0  0  0  0  0  0  0  0  0  0  0
   -2.5321   -0.3167    0.0091 C   0  0  0  0  0  3  0  0  0  0  0  0
  1  9  1  0  0  0  0
  5  4  1  0  0  0  0
  5 17  1  0  0  0  0
  6  8  1  0  0  0  0
  6  4  2  0  0  0  0
  7  6  1  0  0  0  0
  8 16  1  0  0  0  0
  9 10  1  0  0  0  0
  9  8  2  0  0  0  0
 10 12  2  0  0  0  0
 11 10  1  0  0  0  0
 12 13  1  0  0  0  0
 12 14  1  0  0  0  0
 14 15  1  0  0  0  0
 16 14  2  0  0  0  0
 16  2  1  0  0  0  0
 17 19  1  0  0  0  0
 17 18  1  0  0  0  0
 19 20  1  0  0  0  0
 20 21  2  0  0  0  0
 20  3  1  0  0  0  0
 21 22  1  0  0  0  0
 23 24  1  0  0  0  0
 23 21  1  0  0  0  0
 25 23  2  0  0  0  0
 26 25  1  0  0  0  0
 27 25  1  0  0  0  0
 27 19  2  0  0  0  0
M  END
