1,4
q = -1.0

 38 38  0  0  0  0  0  0  0  0999 V2000
    2.9620   -0.6701    0.1055 N   0  0  0  0  0  0  0  0  0  0  0  0
    3.4860   -0.2465   -0.6988 H   0  0  0  0  0  0  0  0  0  0  0  0
    3.5124   -0.5021    0.9603 H   0  0  0  0  0  0  0  0  0  0  0  0
    1.4312    1.2621   -1.5630 C   0  0  0  0  0  3  0  0  0  0  0  0
    0.6403    2.0355   -1.6058 H   0  0  0  0  0  0  0  0  0  0  0  0
    1.2100    0.1455   -2.5914 C   0  0  0  0  0  0  0  0  0  0  0  0
    0.8783    0.5933   -3.5549 H   0  0  0  0  0  0  0  0  0  0  0  0
    2.1862   -0.3360   -2.7920 H   0  0  0  0  0  0  0  0  0  0  0  0
    0.1788   -0.8441   -2.0940 C   0  0  0  0  0  0  0  0  0  0  0  0
    0.5401   -2.0142   -1.3918 C   0  0  0  0  0  0  0  0  0  0  0  0
   -0.4653   -2.7311   -0.7019 C   0  0  0  0  0  0  0  0  0  0  0  0
   -0.1721   -3.6190   -0.1250 H   0  0  0  0  0  0  0  0  0  0  0  0
   -1.8033   -2.3187   -0.6985 C   0  0  0  0  0  0  0  0  0  0  0  0
   -2.1788   -1.1885   -1.4830 C   0  0  0  0  0  0  0  0  0  0  0  0
   -1.1848   -0.4786   -2.1648 C   0  0  0  0  0  0  0  0  0  0  0  0
   -1.4503    0.4306   -2.7222 H   0  0  0  0  0  0  0  0  0  0  0  0
   -2.4414   -3.9270    0.9268 C   0  0  0  0  0  0  0  0  0  0  0  0
   -2.0447   -4.8256    0.4018 H   0  0  0  0  0  0  0  0  0  0  0  0
   -3.3653   -4.2089    1.4654 H   0  0  0  0  0  0  0  0  0  0  0  0
   -1.6791   -3.5779    1.6601 H   0  0  0  0  0  0  0  0  0  0  0  0
   -2.8023   -2.9003    0.0220 O   0  0  0  0  0  0  0  0  0  0  0  0
   -3.9128    0.2568   -2.2214 C   0  0  0  0  0  0  0  0  0  0  0  0
   -3.4279    1.1992   -1.8775 H   0  0  0  0  0  0  0  0  0  0  0  0
   -5.0075    0.3444   -2.0859 H   0  0  0  0  0  0  0  0  0  0  0  0
   -3.6923    0.1211   -3.3044 H   0  0  0  0  0  0  0  0  0  0  0  0
   -3.5022   -0.8572   -1.4564 O   0  0  0  0  0  0  0  0  0  0  0  0
    1.9701   -2.5110   -1.3121 C   0  0  0  0  0  0  0  0  0  0  0  0
    2.5406   -2.1881   -2.2067 H   0  0  0  0  0  0  0  0  0  0  0  0
    1.9619   -3.6207   -1.3455 H   0  0  0  0  0  0  0  0  0  0  0  0
    2.7528   -2.1271   -0.0482 C   0  0  0  0  0  0  0  0  0  0  0  0
    2.2152   -2.4702    0.8592 H   0  0  0  0  0  0  0  0  0  0  0  0
    3.7429   -2.6354   -0.0731 H   0  0  0  0  0  0  0  0  0  0  0  0
    2.7854    1.8347   -1.4732 C   0  0  0  0  0  0  0  0  0  0  0  0
    3.8134    1.1760   -1.7420 O   0  0  0  0  0  0  0  0  0  0  0  0
    2.9189    3.2791   -1.0081 C   0  0  0  0  0  0  0  0  0  0  0  0
    3.9797    3.5051   -0.7950 H   0  0  0  0  0  0  0  0  0  0  0  0
    2.3139    3.4643   -0.0976 H   0  0  0  0  0  0  0  0  0  0  0  0
    2.5559    3.9681   -1.7999 H   0  0  0  0  0  0  0  0  0  0  0  0
  1  3  1  0  0  0  0
  2  1  1  0  0  0  0
  4 33  1  0  0  0  0
  5  4  1  0  0  0  0
  6  9  1  0  0  0  0
  6  4  1  0  0  0  0
  7  6  1  0  0  0  0
  8  6  1  0  0  0  0
  9 10  1  0  0  0  0
 10 27  1  0  0  0  0
 10 11  2  0  0  0  0
 11 13  1  0  0  0  0
 11 12  1  0  0  0  0
 13 21  1  0  0  0  0
 14 26  1  0  0  0  0
 14 13  2  0  0  0  0
 15  9  2  0  0  0  0
 15 14  1  0  0  0  0
 16 15  1  0  0  0  0
 17 19  1  0  0  0  0
 17 20  1  0  0  0  0
 18 17  1  0  0  0  0
 21 17  1  0  0  0  0
 22 24  1  0  0  0  0
 22 23  1  0  0  0  0
 22 26  1  0  0  0  0
 25 22  1  0  0  0  0
 27 30  1  0  0  0  0
 28 27  1  0  0  0  0
 29 27  1  0  0  0  0
 30  1  1  0  0  0  0
 30 31  1  0  0  0  0
 32 30  1  0  0  0  0
 33 35  1  0  0  0  0
 34 33  2  0  0  0  0
 35 36  1  0  0  0  0
 35 37  1  0  0  0  0
 38 35  1  0  0  0  0
M  END
