1,6
q = -1.0

 34 38  0  0  1  0  0  0  0  0999 V2000
    0.3536    1.3644   -2.0048 N   0  0  0  0  0  2  0  0  0  0  0  0
   -0.6677    0.8690   -2.7814 C   0  0  2  0  0  3  0  0  0  0  0  0
   -1.8598   -1.3483    1.4694 C   0  0  0  0  0  0  0  0  0  0  0  0
   -0.9544   -0.9321    1.9222 H   0  0  0  0  0  0  0  0  0  0  0  0
   -2.1617   -0.9880    0.1097 C   0  0  0  0  0  0  0  0  0  0  0  0
   -1.3732   -0.0513   -0.6260 C   0  0  0  0  0  3  0  0  0  0  0  0
   -3.2945   -1.6263   -0.5129 C   0  0  0  0  0  0  0  0  0  0  0  0
   -2.6426   -2.2227    2.1845 C   0  0  0  0  0  0  0  0  0  0  0  0
   -2.3730   -2.4869    3.2191 H   0  0  0  0  0  0  0  0  0  0  0  0
   -5.5620   -2.8407   -1.7579 C   0  0  0  0  0  0  0  0  0  0  0  0
   -6.4426   -3.3125   -2.2209 H   0  0  0  0  0  0  0  0  0  0  0  0
    1.4065    1.9992   -2.5633 C   0  0  0  0  0  0  0  0  0  0  0  0
    2.1761    2.3422   -1.8565 H   0  0  0  0  0  0  0  0  0  0  0  0
   -1.6497    0.0916   -2.0296 C   0  0  0  0  0  0  0  0  0  0  0  0
   -0.6326    1.0705   -4.1764 C   0  0  0  0  0  0  0  0  0  0  0  0
   -1.4522    0.6845   -4.7972 H   0  0  0  0  0  0  0  0  0  0  0  0
   -4.1252   -2.5219    0.2364 C   0  0  0  0  0  0  0  0  0  0  0  0
   -5.2749   -3.1334   -0.3779 C   0  0  0  0  0  0  0  0  0  0  0  0
   -4.6492   -3.7036    2.3305 C   0  0  0  0  0  0  0  0  0  0  0  0
   -4.4020   -3.9312    3.3791 H   0  0  0  0  0  0  0  0  0  0  0  0
   -3.8128   -2.8211    1.6073 C   0  0  0  0  0  0  0  0  0  0  0  0
   -6.0823   -4.0035    0.3874 C   0  0  0  0  0  0  0  0  0  0  0  0
   -6.9633   -4.4650   -0.0852 H   0  0  0  0  0  0  0  0  0  0  0  0
   -2.7481   -0.5412   -2.6378 C   0  0  0  0  0  0  0  0  0  0  0  0
   -2.9594   -0.3918   -3.7083 H   0  0  0  0  0  0  0  0  0  0  0  0
    1.4931    2.2043   -3.9404 C   0  0  0  0  0  0  0  0  0  0  0  0
    2.3669    2.7211   -4.3601 H   0  0  0  0  0  0  0  0  0  0  0  0
   -4.7554   -2.0021   -2.4858 C   0  0  0  0  0  0  0  0  0  0  0  0
   -4.9777   -1.7937   -3.5444 H   0  0  0  0  0  0  0  0  0  0  0  0
   -3.6033   -1.3738   -1.8969 C   0  0  0  0  0  0  0  0  0  0  0  0
   -5.7711   -4.2828    1.7260 C   0  0  0  0  0  0  0  0  0  0  0  0
   -6.4121   -4.9661    2.3040 H   0  0  0  0  0  0  0  0  0  0  0  0
    0.4463    1.7402   -4.7579 C   0  0  0  0  0  0  0  0  0  0  0  0
    0.4787    1.8943   -5.8468 H   0  0  0  0  0  0  0  0  0  0  0  0
  2 14  1  6  0  0  0
  2  1  1  0  0  0  0
  3  4  1  0  0  0  0
  3  8  1  0  0  0  0
  5  3  2  0  0  0  0
  6  5  1  0  0  0  0
  7  5  1  0  0  0  0
  7 17  2  0  0  0  0
  8  9  1  0  0  0  0
 10 18  1  0  0  0  0
 11 10  1  0  0  0  0
 12  1  1  0  0  0  0
 12 13  1  0  0  0  0
 14  6  2  0  0  0  0
 15  2  1  0  0  0  0
 16 15  1  0  0  0  0
 17 21  1  0  0  0  0
 18 17  1  0  0  0  0
 18 22  2  0  0  0  0
 19 20  1  0  0  0  0
 21  8  2  0  0  0  0
 21 19  1  0  0  0  0
 22 31  1  0  0  0  0
 23 22  1  0  0  0  0
 24 14  1  0  0  0  0
 24 30  2  0  0  0  0
 25 24  1  0  0  0  0
 26 12  2  0  0  0  0
 27 26  1  0  0  0  0
 28 30  1  0  0  0  0
 28 10  2  0  0  0  0
 29 28  1  0  0  0  0
 30  7  1  0  0  0  0
 31 32  1  0  0  0  0
 31 19  2  0  0  0  0
 33 15  2  0  0  0  0
 33 26  1  0  0  0  0
 34 33  1  0  0  0  0
M  END
