1,12
q = -1.0, confidence = 0.004

 22 23  0  0  0  0  0  0  0  0999 V2000
   -1.7921   -2.2236    0.3214 N   0  0  0  0  0  2  0  0  0  0  0  0
   -1.1655   -3.4034    0.5177 C   0  0  0  0  0  0  0  0  0  0  0  0
   -0.0658   -3.3548    0.5056 H   0  0  0  0  0  0  0  0  0  0  0  0
   -1.8744   -4.5892    0.7199 C   0  0  0  0  0  0  0  0  0  0  0  0
   -1.3276   -5.5293    0.8765 H   0  0  0  0  0  0  0  0  0  0  0  0
   -3.2795   -4.5453    0.7176 C   0  0  0  0  0  0  0  0  0  0  0  0
   -3.8687   -5.4615    0.8716 H   0  0  0  0  0  0  0  0  0  0  0  0
   -3.9226   -3.3201    0.5209 C   0  0  0  0  0  0  0  0  0  0  0  0
   -5.0192   -3.2577    0.5202 H   0  0  0  0  0  0  0  0  0  0  0  0
   -3.1647   -2.1492    0.3254 C   0  0  0  0  0  0  0  0  0  0  0  0
   -3.6815   -0.7972    0.1269 C   0  0  0  0  0  0  0  0  0  0  0  0
   -2.6823    0.2205   -0.0241 C   0  0  0  0  0  2  0  0  0  0  0  0
   -3.1353    1.5417   -0.2084 C   0  0  0  0  0  0  0  0  0  0  0  0
   -2.4103    2.3653   -0.3265 H   0  0  0  0  0  0  0  0  0  0  0  0
   -4.5083    1.8500   -0.2451 C   0  0  0  0  0  0  0  0  0  0  0  0
   -5.4780    0.8311   -0.0953 C   0  0  0  0  0  0  0  0  0  0  0  0
   -6.5413    1.1098   -0.1291 H   0  0  0  0  0  0  0  0  0  0  0  0
   -5.0615   -0.4837    0.0897 C   0  0  0  0  0  0  0  0  0  0  0  0
   -5.8126   -1.2802    0.2068 H   0  0  0  0  0  0  0  0  0  0  0  0
   -4.9377    3.2564   -0.4417 C   0  0  0  0  0  0  0  0  0  0  0  0
   -4.0789    3.9880   -0.5500 H   0  0  0  0  0  0  0  0  0  0  0  0
   -6.0979    3.6334   -0.4884 O   0  0  0  0  0  0  0  0  0  0  0  0
  1 10  1  0  0  0  0
  1  2  1  0  0  0  0
  2  4  2  0  0  0  0
  3  2  1  0  0  0  0
  4  5  1  0  0  0  0
  6  4  1  0  0  0  0
  6  7  1  0  0  0  0
  8  6  2  0  0  0  0
  9  8  1  0  0  0  0
 10  8  1  0  0  0  0
 11 10  2  0  0  0  0
 12 11  1  0  0  0  0
 13 12  1  0  0  0  0
 14 13  1  0  0  0  0
 15 13  2  0  0  0  0
 15 16  1  0  0  0  0
 16 18  2  0  0  0  0
 17 16  1  0  0  0  0
 18 11  1  0  0  0  0
 18 19  1  0  0  0  0
 20 15  1  0  0  0  0
 21 20  1  0  0  0  0
 22 20  2  0  0  0  0
M  END
