2,4
q = -1.0

 16 16  0  0  0  0  0  0  0  0999 V2000
    4.4460   -0.0817    1.3428 Cl  0  0  0  0  0  0  0  0  0  0  0  0
    0.0129    0.0122    1.6389 N   0  0  0  0  0  2  0  0  0  0  0  0
   -0.6768    0.0120    2.7986 N   0  0  0  0  0  0  0  0  0  0  0  0
    0.9445   -0.1174   -0.7821 C   0  0  0  0  0  3  0  0  0  0  0  0
    1.4506   -0.2099   -2.0936 C   0  0  0  0  0  0  0  0  0  0  0  0
    2.8332   -0.2622   -2.3446 C   0  0  0  0  0  0  0  0  0  0  0  0
    3.7656   -0.2212   -1.2944 C   0  0  0  0  0  0  0  0  0  0  0  0
    3.2876   -0.1332    0.0186 C   0  0  0  0  0  0  0  0  0  0  0  0
    1.9015   -0.0853    0.2934 C   0  0  0  0  0  0  0  0  0  0  0  0
    1.3265   -0.0109    1.6141 C   0  0  0  0  0  3  0  0  0  0  0  0
   -0.2171    0.4658    3.5965 H   0  0  0  0  0  0  0  0  0  0  0  0
   -1.6691    0.2532    2.6107 H   0  0  0  0  0  0  0  0  0  0  0  0
    0.7608   -0.2387   -2.9494 H   0  0  0  0  0  0  0  0  0  0  0  0
    3.1980   -0.3335   -3.3818 H   0  0  0  0  0  0  0  0  0  0  0  0
    4.8473   -0.2583   -1.4814 H   0  0  0  0  0  0  0  0  0  0  0  0
    1.9310    0.0047    2.5380 H   0  0  0  0  0  0  0  0  0  0  0  0
  2  3  1  0  0  0  0
  3 11  1  0  0  0  0
  4  9  1  0  0  0  0
  5  4  2  0  0  0  0
  6  5  1  0  0  0  0
  6  7  2  0  0  0  0
  7  8  1  0  0  0  0
  8  9  2  0  0  0  0
  8  1  1  0  0  0  0
  9 10  1  0  0  0  0
 10  2  1  0  0  0  0
 10 16  1  0  0  0  0
 12  3  1  0  0  0  0
 13  5  1  0  0  0  0
 14  6  1  0  0  0  0
 15  7  1  0  0  0  0
M  END
