3,4
q = -1.0

 23 25  0  0  1  0  0  0  0  0999 V2000
   -4.1477    1.8001    2.8444 Br  0  0  0  0  0  0  0  0  0  0  0  0
    2.6169   -1.0449    3.2896 S   0  0  0  0  0  0  0  0  0  0  0  0
    1.7421   -0.9924    0.8448 N   0  0  0  0  0  2  0  0  0  0  0  0
   -0.6465    0.2620    1.1721 C   0  0  0  0  0  3  0  0  0  0  0  0
   -1.9410    0.7710    1.3422 C   0  0  0  0  0  0  0  0  0  0  0  0
   -2.6001    0.9269    0.4781 H   0  0  0  0  0  0  0  0  0  0  0  0
   -2.3891    1.1086    2.6305 C   0  0  0  0  0  0  0  0  0  0  0  0
   -1.5738    0.9569    3.7686 C   0  0  0  0  0  0  0  0  0  0  0  0
   -1.9486    1.2403    4.7612 H   0  0  0  0  0  0  0  0  0  0  0  0
   -0.2917    0.4293    3.6076 C   0  0  0  0  0  0  0  0  0  0  0  0
    0.3517    0.2812    4.4896 H   0  0  0  0  0  0  0  0  0  0  0  0
    0.1714    0.0688    2.3229 C   0  0  0  0  0  0  0  0  0  0  0  0
    1.4370   -0.5923    2.0754 C   0  0  1  0  0  3  0  0  0  0  0  0
    3.5608   -1.8562    2.0500 C   0  0  0  0  0  0  0  0  0  0  0  0
    4.7636   -2.5646    2.1931 C   0  0  0  0  0  0  0  0  0  0  0  0
    5.2556   -2.6580    3.1717 H   0  0  0  0  0  0  0  0  0  0  0  0
    5.3120   -3.1539    1.0470 C   0  0  0  0  0  0  0  0  0  0  0  0
    6.2537   -3.7167    1.1309 H   0  0  0  0  0  0  0  0  0  0  0  0
    4.6743   -3.0383   -0.2091 C   0  0  0  0  0  0  0  0  0  0  0  0
    5.1291   -3.5139   -1.0906 H   0  0  0  0  0  0  0  0  0  0  0  0
    3.4815   -2.3269   -0.3598 C   0  0  0  0  0  0  0  0  0  0  0  0
    2.9702   -2.2081   -1.3288 H   0  0  0  0  0  0  0  0  0  0  0  0
    2.9198   -1.7224    0.7833 C   0  0  0  0  0  0  0  0  0  0  0  0
  3 13  1  0  0  0  0
  4  5  2  0  0  0  0
  4 12  1  0  0  0  0
  5  7  1  0  0  0  0
  6  5  1  0  0  0  0
  7  1  1  0  0  0  0
  7  8  2  0  0  0  0
  8  9  1  0  0  0  0
 10  8  1  0  0  0  0
 10 11  1  0  0  0  0
 12 10  2  0  0  0  0
 13 12  1  1  0  0  0
 13  2  1  0  0  0  0
 14 15  1  0  0  0  0
 14  2  1  0  0  0  0
 15 16  1  0  0  0  0
 17 18  1  0  0  0  0
 17 15  2  0  0  0  0
 19 17  1  0  0  0  0
 20 19  1  0  0  0  0
 21 19  2  0  0  0  0
 21 23  1  0  0  0  0
 22 21  1  0  0  0  0
 23  3  1  0  0  0  0
 23 14  2  0  0  0  0
M  END
