3,16
q = -1.0

 19 20  0  0  0  0  0  0  0  0999 V2000
   -2.0637    1.3109   -2.3611 C   0  0  0  0  0  0  0  0  0  0  0  0
   -2.8045    1.9345   -1.2855 C   0  0  0  0  0  0  0  0  0  0  0  0
   -2.4378    1.4282    0.0041 C   0  0  0  0  0  3  0  0  0  0  0  0
   -3.0987    1.9918    1.1135 C   0  0  0  0  0  0  0  0  0  0  0  0
   -2.8636    1.6468    2.1319 H   0  0  0  0  0  0  0  0  0  0  0  0
   -4.0676    2.9974    0.9472 C   0  0  0  0  0  0  0  0  0  0  0  0
   -4.5696    3.4158    1.8335 H   0  0  0  0  0  0  0  0  0  0  0  0
   -4.4104    3.4728   -0.3321 C   0  0  0  0  0  0  0  0  0  0  0  0
   -5.1732    4.2566   -0.4458 H   0  0  0  0  0  0  0  0  0  0  0  0
   -3.7751    2.9400   -1.4588 C   0  0  0  0  0  0  0  0  0  0  0  0
   -4.0220    3.2934   -2.4713 H   0  0  0  0  0  0  0  0  0  0  0  0
   -0.7592    0.3264   -5.4467 C   0  0  0  0  0  0  0  0  0  0  0  0
   -0.3813    1.2680   -5.8879 H   0  0  0  0  0  0  0  0  0  0  0  0
   -1.6505   -0.0094   -6.0094 H   0  0  0  0  0  0  0  0  0  0  0  0
    0.0237   -0.4504   -5.4674 H   0  0  0  0  0  0  0  0  0  0  0  0
   -1.1301    0.3661   -1.9853 N   0  0  0  0  0  2  0  0  0  0  0  0
   -0.5392   -0.1078   -3.0620 N   0  0  0  0  0  2  0  0  0  0  0  0
   -1.1209    0.5517   -4.0590 N   0  0  0  0  0  0  0  0  0  0  0  0
   -2.0573    1.4318   -3.6926 N   0  0  0  0  0  0  0  0  0  0  0  0
  1 16  1  0  0  0  0
  1  2  1  0  0  0  0
  2  3  1  0  0  0  0
  3  4  2  0  0  0  0
  4  5  1  0  0  0  0
  6  4  1  0  0  0  0
  6  7  1  0  0  0  0
  8  6  2  0  0  0  0
  9  8  1  0  0  0  0
 10  2  2  0  0  0  0
 10  8  1  0  0  0  0
 11 10  1  0  0  0  0
 12 18  1  0  0  0  0
 13 12  1  0  0  0  0
 14 12  1  0  0  0  0
 15 12  1  0  0  0  0
 17 16  1  0  0  0  0
 18 19  1  0  0  0  0
 18 17  1  0  0  0  0
 19  1  2  0  0  0  0
M  END
