1,5
q = -1.0, confidence = 0.112

 70 74  0  0  1  0  0  0  0  0999 V2000
   -2.8750   -0.3236   -0.7613 N   0  0  0  0  0  2  0  0  0  0  0  0
   -4.1688   -0.4224   -0.9578 N   0  0  0  0  0  2  0  0  0  0  0  0
   -4.4291   -1.7384   -0.9651 N   0  0  0  0  0  0  0  0  0  0  0  0
    3.4504   -0.8277    0.2268 B   0  0  0  0  0  0  0  0  0  0  0  0
   -0.3317   -0.1936   -0.4114 C   0  0  0  0  0  2  0  0  0  0  0  0
    1.0460   -0.0160   -0.2205 C   0  0  0  0  0  0  0  0  0  0  0  0
    1.4470    1.0085   -0.2090 H   0  0  0  0  0  0  0  0  0  0  0  0
    1.9276   -1.1080   -0.0228 C   0  0  0  0  0  0  0  0  0  0  0  0
    1.3859   -2.4230   -0.0359 C   0  0  0  0  0  0  0  0  0  0  0  0
    2.0589   -3.2810    0.1206 H   0  0  0  0  0  0  0  0  0  0  0  0
    0.0183   -2.6383   -0.2326 C   0  0  0  0  0  0  0  0  0  0  0  0
   -0.3901   -3.6619   -0.2343 H   0  0  0  0  0  0  0  0  0  0  0  0
   -0.8368   -1.5316   -0.4226 C   0  0  1  0  0  3  0  0  0  0  0  0
   -2.2722   -1.5717   -0.6308 C   0  0  0  0  0  0  0  0  0  0  0  0
   -3.3046   -2.4927   -0.7589 C   0  0  0  0  0  0  0  0  0  0  0  0
   -3.3311   -3.5846   -0.7140 H   0  0  0  0  0  0  0  0  0  0  0  0
   -5.8129   -2.1922   -1.0615 C   0  0  0  0  0  0  0  0  0  0  0  0
   -6.3735   -1.3295   -1.4724 H   0  0  0  0  0  0  0  0  0  0  0  0
   -5.8612   -3.0153   -1.8015 H   0  0  0  0  0  0  0  0  0  0  0  0
   -6.3752   -2.6341    0.2750 C   0  0  0  0  0  0  0  0  0  0  0  0
   -6.9821   -3.8949    0.4141 C   0  0  0  0  0  0  0  0  0  0  0  0
   -7.0407   -4.5710   -0.4541 H   0  0  0  0  0  0  0  0  0  0  0  0
   -7.5141   -4.2950    1.6504 C   0  0  0  0  0  0  0  0  0  0  0  0
   -7.9876   -5.2836    1.7482 H   0  0  0  0  0  0  0  0  0  0  0  0
   -7.4342   -3.4384    2.7582 C   0  0  0  0  0  0  0  0  0  0  0  0
   -7.8463   -3.7523    3.7291 H   0  0  0  0  0  0  0  0  0  0  0  0
   -6.8238   -2.1795    2.6260 C   0  0  0  0  0  0  0  0  0  0  0  0
   -6.7574   -1.5049    3.4929 H   0  0  0  0  0  0  0  0  0  0  0  0
   -6.2986   -1.7769    1.3910 C   0  0  0  0  0  0  0  0  0  0  0  0
   -5.8186   -0.7908    1.2869 H   0  0  0  0  0  0  0  0  0  0  0  0
    3.8506    0.6111    0.7487 C   0  0  0  0  0  0  0  0  0  0  0  0
    4.7919    1.4061    0.0264 C   0  0  0  0  0  0  0  0  0  0  0  0
    5.0297    2.7367    0.4144 C   0  0  0  0  0  0  0  0  0  0  0  0
    5.7436    3.3410   -0.1700 H   0  0  0  0  0  0  0  0  0  0  0  0
    4.3921    3.3167    1.5258 C   0  0  0  0  0  0  0  0  0  0  0  0
    3.5077    2.5119    2.2631 C   0  0  0  0  0  0  0  0  0  0  0  0
    3.0222    2.9300    3.1612 H   0  0  0  0  0  0  0  0  0  0  0  0
    3.2201    1.1853    1.8914 C   0  0  0  0  0  0  0  0  0  0  0  0
    2.2473    0.4117    2.7564 C   0  0  0  0  0  0  0  0  0  0  0  0
    2.3877    0.6656    3.8265 H   0  0  0  0  0  0  0  0  0  0  0  0
    2.3513   -0.6837    2.6464 H   0  0  0  0  0  0  0  0  0  0  0  0
    1.1973    0.6569    2.4916 H   0  0  0  0  0  0  0  0  0  0  0  0
    5.5390    0.8626   -1.1710 C   0  0  0  0  0  0  0  0  0  0  0  0
    6.1757    1.6437   -1.6296 H   0  0  0  0  0  0  0  0  0  0  0  0
    4.8522    0.4870   -1.9566 H   0  0  0  0  0  0  0  0  0  0  0  0
    6.1869    0.0076   -0.8919 H   0  0  0  0  0  0  0  0  0  0  0  0
    4.6305    4.7584    1.8974 C   0  0  0  0  0  0  0  0  0  0  0  0
    5.6380    5.1010    1.5888 H   0  0  0  0  0  0  0  0  0  0  0  0
    4.5256    4.9238    2.9882 H   0  0  0  0  0  0  0  0  0  0  0  0
    3.8933    5.4237    1.3960 H   0  0  0  0  0  0  0  0  0  0  0  0
    4.5169   -1.9510   -0.0723 C   0  0  0  0  0  0  0  0  0  0  0  0
    5.4551   -2.3454    0.9297 C   0  0  0  0  0  0  0  0  0  0  0  0
    6.3876   -3.3601    0.6578 C   0  0  0  0  0  0  0  0  0  0  0  0
    7.0943   -3.6599    1.4498 H   0  0  0  0  0  0  0  0  0  0  0  0
    6.4552   -3.9934   -0.5974 C   0  0  0  0  0  0  0  0  0  0  0  0
    5.5470   -3.5819   -1.5861 C   0  0  0  0  0  0  0  0  0  0  0  0
    5.5968   -4.0465   -2.5852 H   0  0  0  0  0  0  0  0  0  0  0  0
    4.5769   -2.5901   -1.3448 C   0  0  0  0  0  0  0  0  0  0  0  0
    3.6487   -2.2154   -2.4813 C   0  0  0  0  0  0  0  0  0  0  0  0
    2.6970   -2.7841   -2.4309 H   0  0  0  0  0  0  0  0  0  0  0  0
    4.1167   -2.4347   -3.4614 H   0  0  0  0  0  0  0  0  0  0  0  0
    3.3642   -1.1457   -2.4682 H   0  0  0  0  0  0  0  0  0  0  0  0
    7.4659   -5.0812   -0.8598 C   0  0  0  0  0  0  0  0  0  0  0  0
    7.5302   -5.3296   -1.9371 H   0  0  0  0  0  0  0  0  0  0  0  0
    7.2002   -6.0139   -0.3172 H   0  0  0  0  0  0  0  0  0  0  0  0
    8.4781   -4.7885   -0.5124 H   0  0  0  0  0  0  0  0  0  0  0  0
    5.4667   -1.6946    2.2946 C   0  0  0  0  0  0  0  0  0  0  0  0
    6.1970   -2.1865    2.9660 H   0  0  0  0  0  0  0  0  0  0  0  0
    4.4736   -1.7402    2.7864 H   0  0  0  0  0  0  0  0  0  0  0  0
    5.7287   -0.6193    2.2266 H   0  0  0  0  0  0  0  0  0  0  0  0
  1 14  1  0  0  0  0
  2  1  1  0  0  0  0
  3  2  1  0  0  0  0
  3 15  1  0  0  0  0
  4 31  1  0  0  0  0
  5  6  1  0  0  0  0
  6  7  1  0  0  0  0
  6  8  2  0  0  0  0
  8  4  1  0  0  0  0
  9  8  1  0  0  0  0
  9 10  1  0  0  0  0
 11  9  2  0  0  0  0
 12 11  1  0  0  0  0
 13 14  1  1  0  0  0
 13  5  1  0  0  0  0
 13 11  1  0  0  0  0
 15 16  1  0  0  0  0
 15 14  2  0  0  0  0
 17  3  1  0  0  0  0
 17 20  1  0  0  0  0
 18 17  1  0  0  0  0
 19 17  1  0  0  0  0
 20 21  2  0  0  0  0
 20 29  1  0  0  0  0
 21 23  1  0  0  0  0
 22 21  1  0  0  0  0
 23 24  1  0  0  0  0
 23 25  2  0  0  0  0
 25 26  1  0  0  0  0
 27 25  1  0  0  0  0
 27 28  1  0  0  0  0
 29 27  2  0  0  0  0
 30 29  1  0  0  0  0
 31 38  1  0  0  0  0
 32 33  1  0  0  0  0
 32 31  2  0  0  0  0
 33 35  2  0  0  0  0
 34 33  1  0  0  0  0
 35 47  1  0  0  0  0
 35 36  1  0  0  0  0
 36 37  1  0  0  0  0
 38 36  2  0  0  0  0
 38 39  1  0  0  0  0
 39 40  1  0  0  0  0
 41 39  1  0  0  0  0
 42 39  1  0  0  0  0
 43 46  1  0  0  0  0
 43 32  1  0  0  0  0
 44 43  1  0  0  0  0
 45 43  1  0  0  0  0
 47 49  1  0  0  0  0
 48 47  1  0  0  0  0
 50 47  1  0  0  0  0
 51  4  1  0  0  0  0
 51 52  1  0  0  0  0
 52 67  1  0  0  0  0
 53 52  2  0  0  0  0
 53 54  1  0  0  0  0
 55 53  1  0  0  0  0
 56 58  1  0  0  0  0
 56 55  2  0  0  0  0
 57 56  1  0  0  0  0
 58 51  2  0  0  0  0
 59 62  1  0  0  0  0
 59 60  1  0  0  0  0
 59 58  1  0  0  0  0
 61 59  1  0  0  0  0
 63 55  1  0  0  0  0
 63 66  1  0  0  0  0
 63 65  1  0  0  0  0
 64 63  1  0  0  0  0
 67 69  1  0  0  0  0
 67 68  1  0  0  0  0
 70 67  1  0  0  0  0
M  END
