1,4
q = -1.0, confidence = 0.006

 27 28  0  0  0  0  0  0  0  0999 V2000
    1.0972   -0.6677   -0.0055 N   0  0  0  0  0  2  0  0  0  0  0  0
   -4.7326   -2.8843    0.0064 O   0  0  0  0  0  0  0  0  0  0  0  0
    0.8094   -2.0211   -0.0065 C   0  0  0  0  0  0  0  0  0  0  0  0
   -1.4532   -1.1583   -0.0006 C   0  0  0  0  0  2  0  0  0  0  0  0
    2.3730   -0.2287   -0.0073 C   0  0  0  0  0  0  0  0  0  0  0  0
    2.4985    0.8645   -0.0081 H   0  0  0  0  0  0  0  0  0  0  0  0
    1.8768   -2.9466   -0.0119 C   0  0  0  0  0  0  0  0  0  0  0  0
    1.6513   -4.0215   -0.0155 H   0  0  0  0  0  0  0  0  0  0  0  0
   -0.6078   -2.3139   -0.0034 C   0  0  0  0  0  0  0  0  0  0  0  0
   -2.8478   -1.3266    0.0027 C   0  0  0  0  0  0  0  0  0  0  0  0
   -3.4823   -0.4298    0.0047 H   0  0  0  0  0  0  0  0  0  0  0  0
   -2.5588   -3.7680    0.0004 C   0  0  0  0  0  0  0  0  0  0  0  0
   -3.0284   -4.7614    0.0010 H   0  0  0  0  0  0  0  0  0  0  0  0
    3.1950   -2.5013   -0.0147 C   0  0  0  0  0  0  0  0  0  0  0  0
    4.0285   -3.2188   -0.0227 H   0  0  0  0  0  0  0  0  0  0  0  0
   -1.1781   -3.6098   -0.0029 C   0  0  0  0  0  0  0  0  0  0  0  0
   -0.5358   -4.5043   -0.0050 H   0  0  0  0  0  0  0  0  0  0  0  0
    3.4526   -1.1130   -0.0113 C   0  0  0  0  0  0  0  0  0  0  0  0
   -3.4003   -2.6238    0.0032 C   0  0  0  0  0  0  0  0  0  0  0  0
    5.4964   -0.9264    1.1652 F   0  0  0  0  0  0  0  0  0  0  0  0
    4.8685   -0.6011    0.0068 C   0  0  0  0  0  0  0  0  0  0  0  0
    4.9266    0.7432   -0.1238 F   0  0  0  0  0  0  0  0  0  0  0  0
    5.6002   -1.1459   -0.9975 F   0  0  0  0  0  0  0  0  0  0  0  0
   -5.6342   -1.7909    0.0097 C   0  0  0  0  0  0  0  0  0  0  0  0
   -6.6509   -2.2254    0.0124 H   0  0  0  0  0  0  0  0  0  0  0  0
   -5.5117   -1.1531   -0.8934 H   0  0  0  0  0  0  0  0  0  0  0  0
   -5.5064   -1.1543    0.9130 H   0  0  0  0  0  0  0  0  0  0  0  0
  2 24  1  0  0  0  0
  3  1  1  0  0  0  0
  3  9  2  0  0  0  0
  4 10  1  0  0  0  0
  5  1  1  0  0  0  0
  6  5  1  0  0  0  0
  7  3  1  0  0  0  0
  8  7  1  0  0  0  0
  9 16  1  0  0  0  0
  9  4  1  0  0  0  0
 10 19  2  0  0  0  0
 10 11  1  0  0  0  0
 12 13  1  0  0  0  0
 12 19  1  0  0  0  0
 14  7  2  0  0  0  0
 14 18  1  0  0  0  0
 15 14  1  0  0  0  0
 16 12  2  0  0  0  0
 17 16  1  0  0  0  0
 18  5  2  0  0  0  0
 18 21  1  0  0  0  0
 19  2  1  0  0  0  0
 21 20  1  0  0  0  0
 22 21  1  0  0  0  0
 23 21  1  0  0  0  0
 24 25  1  0  0  0  0
 24 27  1  0  0  0  0
 26 24  1  0  0  0  0
M  END
