2,8
q = -1.0, confidence = 0.002

 37 39  0  0  0  0  0  0  0  0999 V2000
   -2.4295    6.3353    1.8185 Cl  0  0  0  0  0  0  0  0  0  0  0  0
   -1.0332    0.6322   -1.3643 N   0  0  0  0  0  2  0  0  0  0  0  0
   -4.0227    0.4256    1.0783 F   0  0  0  0  0  0  0  0  0  0  0  0
   -6.6428    0.8387    0.5694 F   0  0  0  0  0  0  0  0  0  0  0  0
   -8.1902   -1.1887   -0.4427 F   0  0  0  0  0  0  0  0  0  0  0  0
   -7.0655   -3.6262   -0.9846 F   0  0  0  0  0  0  0  0  0  0  0  0
   -4.4279   -4.0431   -0.5272 F   0  0  0  0  0  0  0  0  0  0  0  0
   -0.2866   -1.3309    0.2742 C   0  0  0  0  0  2  0  0  0  0  0  0
    0.0688   -2.4033    1.1184 C   0  0  0  0  0  0  0  0  0  0  0  0
    1.1176   -2.5787    1.3931 H   0  0  0  0  0  0  0  0  0  0  0  0
   -0.8985   -3.2754    1.6441 C   0  0  0  0  0  0  0  0  0  0  0  0
   -0.5796   -4.1009    2.2994 H   0  0  0  0  0  0  0  0  0  0  0  0
   -2.2633   -3.1018    1.3698 C   0  0  0  0  0  0  0  0  0  0  0  0
   -3.0122   -3.7717    1.8151 H   0  0  0  0  0  0  0  0  0  0  0  0
   -2.6747   -2.0501    0.5341 C   0  0  0  0  0  0  0  0  0  0  0  0
   -1.6842   -1.1992   -0.0310 C   0  0  0  0  0  0  0  0  0  0  0  0
   -4.1218   -1.8221    0.2782 C   0  0  0  0  0  0  0  0  0  0  0  0
   -4.7386   -0.5851    0.5624 C   0  0  0  0  0  0  0  0  0  0  0  0
   -6.0993   -0.3537    0.3080 C   0  0  0  0  0  0  0  0  0  0  0  0
   -6.8938   -1.3919   -0.2073 C   0  0  0  0  0  0  0  0  0  0  0  0
   -6.3144   -2.6417   -0.4850 C   0  0  0  0  0  0  0  0  0  0  0  0
   -4.9468   -2.8437   -0.2359 C   0  0  0  0  0  0  0  0  0  0  0  0
   -2.0032   -0.1283   -0.9419 C   0  0  0  0  0  0  0  0  0  0  0  0
   -3.0377    0.0672   -1.2768 H   0  0  0  0  0  0  0  0  0  0  0  0
   -1.3561    1.8432   -2.1303 C   0  0  0  0  0  0  0  0  0  0  0  0
   -2.2516    1.6445   -2.7567 H   0  0  0  0  0  0  0  0  0  0  0  0
   -0.4913    2.0693   -2.7828 H   0  0  0  0  0  0  0  0  0  0  0  0
   -1.6308    2.9986   -1.1836 C   0  0  0  0  0  0  0  0  0  0  0  0
   -0.5880    3.8456   -0.7618 C   0  0  0  0  0  0  0  0  0  0  0  0
    0.4283    3.6773   -1.1532 H   0  0  0  0  0  0  0  0  0  0  0  0
   -0.8276    4.8760    0.1577 C   0  0  0  0  0  0  0  0  0  0  0  0
   -0.0144    5.5388    0.4854 H   0  0  0  0  0  0  0  0  0  0  0  0
   -2.1231    5.0571    0.6675 C   0  0  0  0  0  0  0  0  0  0  0  0
   -3.1779    4.2218    0.2650 C   0  0  0  0  0  0  0  0  0  0  0  0
   -4.1861    4.3767    0.6737 H   0  0  0  0  0  0  0  0  0  0  0  0
   -2.9222    3.1981   -0.6565 C   0  0  0  0  0  0  0  0  0  0  0  0
   -3.7531    2.5420   -0.9605 H   0  0  0  0  0  0  0  0  0  0  0  0
  2 23  1  0  0  0  0
  5 20  1  0  0  0  0
  6 21  1  0  0  0  0
  7 22  1  0  0  0  0
  8  9  1  0  0  0  0
  9 10  1  0  0  0  0
  9 11  2  0  0  0  0
 11 12  1  0  0  0  0
 13 11  1  0  0  0  0
 13 14  1  0  0  0  0
 15 13  2  0  0  0  0
 16  8  1  0  0  0  0
 16 15  1  0  0  0  0
 17 15  1  0  0  0  0
 17 18  1  0  0  0  0
 18  3  1  0  0  0  0
 19 18  2  0  0  0  0
 19  4  1  0  0  0  0
 20 19  1  0  0  0  0
 21 22  1  0  0  0  0
 21 20  2  0  0  0  0
 22 17  2  0  0  0  0
 23 16  2  0  0  0  0
 24 23  1  0  0  0  0
 25  2  1  0  0  0  0
 25 28  1  0  0  0  0
 26 25  1  0  0  0  0
 27 25  1  0  0  0  0
 28 29  2  0  0  0  0
 28 36  1  0  0  0  0
 29 31  1  0  0  0  0
 30 29  1  0  0  0  0
 31 32  1  0  0  0  0
 31 33  2  0  0  0  0
 33  1  1  0  0  0  0
 34 33  1  0  0  0  0
 34 35  1  0  0  0  0
 36 34  2  0  0  0  0
 37 36  1  0  0  0  0
M  END
