3
q = -2.0, confidence = 0.934

 51 52  0  0  1  0  0  0  0  0999 V2000
   -0.1724    1.4729    1.4142 Si  0  0  0  0  0  0  0  0  0  0  0  0
    6.0669    0.5740   -0.5155 F   0  0  0  0  0  0  0  0  0  0  0  0
   -0.9315    1.3741   -0.1964 N   0  0  0  0  0  2  0  0  0  0  0  0
   -0.0834   -0.4168    1.5256 C   0  0  2  0  0  3  0  0  0  0  0  0
    0.8106   -1.1119    0.6223 C   0  0  0  0  0  0  0  0  0  0  0  0
    0.2100   -2.3562    0.2405 C   0  0  0  0  0  0  0  0  0  0  0  0
   -1.0576   -2.4431    0.9037 C   0  0  0  0  0  0  0  0  0  0  0  0
   -1.2312   -1.2693    1.7097 C   0  0  0  0  0  0  0  0  0  0  0  0
    0.8243   -3.4213   -0.6124 C   0  0  0  0  0  0  0  0  0  0  0  0
    1.7763   -3.0771   -1.0565 H   0  0  0  0  0  0  0  0  0  0  0  0
    0.1537   -3.7148   -1.4437 H   0  0  0  0  0  0  0  0  0  0  0  0
    1.0337   -4.3279   -0.0063 H   0  0  0  0  0  0  0  0  0  0  0  0
   -2.0115   -3.5938    0.8240 C   0  0  0  0  0  0  0  0  0  0  0  0
   -3.0619   -3.2441    0.8152 H   0  0  0  0  0  0  0  0  0  0  0  0
   -1.8854   -4.2678    1.6991 H   0  0  0  0  0  0  0  0  0  0  0  0
   -1.8461   -4.1975   -0.0886 H   0  0  0  0  0  0  0  0  0  0  0  0
   -2.4088   -1.0487    2.6125 C   0  0  0  0  0  0  0  0  0  0  0  0
   -2.3474   -0.0813    3.1388 H   0  0  0  0  0  0  0  0  0  0  0  0
   -2.4414   -1.8477    3.3832 H   0  0  0  0  0  0  0  0  0  0  0  0
   -3.3650   -1.0844    2.0531 H   0  0  0  0  0  0  0  0  0  0  0  0
   -1.2522    2.2876    2.7347 C   0  0  0  0  0  0  0  0  0  0  0  0
   -1.2020    3.3913    2.6366 H   0  0  0  0  0  0  0  0  0  0  0  0
   -0.8736    2.0262    3.7451 H   0  0  0  0  0  0  0  0  0  0  0  0
   -2.3146    1.9866    2.6672 H   0  0  0  0  0  0  0  0  0  0  0  0
    1.5047    2.3370    1.4443 C   0  0  0  0  0  0  0  0  0  0  0  0
    1.3663    3.4361    1.4844 H   0  0  0  0  0  0  0  0  0  0  0  0
    2.1223    2.0909    0.5604 H   0  0  0  0  0  0  0  0  0  0  0  0
    2.0686    2.0318    2.3495 H   0  0  0  0  0  0  0  0  0  0  0  0
   -1.5017    2.4947   -0.9923 C   0  0  0  0  0  0  0  0  0  0  0  0
   -1.7273    2.0671   -2.4531 C   0  0  0  0  0  0  0  0  0  0  0  0
   -2.1351    2.9177   -3.0351 H   0  0  0  0  0  0  0  0  0  0  0  0
   -2.4543    1.2336   -2.5210 H   0  0  0  0  0  0  0  0  0  0  0  0
   -0.7808    1.7383   -2.9230 H   0  0  0  0  0  0  0  0  0  0  0  0
   -0.5203    3.6818   -0.9703 C   0  0  0  0  0  0  0  0  0  0  0  0
   -0.9002    4.5070   -1.6058 H   0  0  0  0  0  0  0  0  0  0  0  0
    0.4746    3.3769   -1.3512 H   0  0  0  0  0  0  0  0  0  0  0  0
   -0.3936    4.0844    0.0553 H   0  0  0  0  0  0  0  0  0  0  0  0
   -2.8516    2.9157   -0.3763 C   0  0  0  0  0  0  0  0  0  0  0  0
   -2.7207    3.3109    0.6496 H   0  0  0  0  0  0  0  0  0  0  0  0
   -3.5393    2.0484   -0.3341 H   0  0  0  0  0  0  0  0  0  0  0  0
   -3.3236    3.7104   -0.9893 H   0  0  0  0  0  0  0  0  0  0  0  0
    2.1811   -0.6653    0.2691 C   0  0  0  0  0  0  0  0  0  0  0  0
    2.5958   -0.3909   -1.0524 C   0  0  0  0  0  0  0  0  0  0  0  0
    1.8713   -0.4880   -1.8740 H   0  0  0  0  0  0  0  0  0  0  0  0
    3.9056    0.0299   -1.3216 C   0  0  0  0  0  0  0  0  0  0  0  0
    4.2356    0.2577   -2.3452 H   0  0  0  0  0  0  0  0  0  0  0  0
    4.8091    0.1686   -0.2613 C   0  0  0  0  0  0  0  0  0  0  0  0
    4.4336   -0.1069    1.0595 C   0  0  0  0  0  0  0  0  0  0  0  0
    5.1717    0.0078    1.8661 H   0  0  0  0  0  0  0  0  0  0  0  0
    3.1210   -0.5215    1.3148 C   0  0  0  0  0  0  0  0  0  0  0  0
    2.8074   -0.7386    2.3468 H   0  0  0  0  0  0  0  0  0  0  0  0
  1 25  1  0  0  0  0
  1 21  1  0  0  0  0
  2 47  1  0  0  0  0
  3  1  1  0  0  0  0
  4  1  1  6  0  0  0
  4  8  1  0  0  0  0
  5  4  1  0  0  0  0
  6  5  2  0  0  0  0
  6  7  1  0  0  0  0
  7  8  2  0  0  0  0
  8 17  1  0  0  0  0
  9 12  1  0  0  0  0
  9  6  1  0  0  0  0
 10  9  1  0  0  0  0
 11  9  1  0  0  0  0
 13  7  1  0  0  0  0
 13 15  1  0  0  0  0
 14 13  1  0  0  0  0
 16 13  1  0  0  0  0
 17 18  1  0  0  0  0
 17 19  1  0  0  0  0
 20 17  1  0  0  0  0
 21 23  1  0  0  0  0
 22 21  1  0  0  0  0
 24 21  1  0  0  0  0
 25 26  1  0  0  0  0
 25 28  1  0  0  0  0
 27 25  1  0  0  0  0
 29 34  1  0  0  0  0
 29 38  1  0  0  0  0
 29  3  1  0  0  0  0
 30 29  1  0  0  0  0
 31 30  1  0  0  0  0
 32 30  1  0  0  0  0
 33 30  1  0  0  0  0
 34 37  1  0  0  0  0
 35 34  1  0  0  0  0
 36 34  1  0  0  0  0
 38 40  1  0  0  0  0
 38 39  1  0  0  0  0
 41 38  1  0  0  0  0
 42  5  1  0  0  0  0
 42 50  1  0  0  0  0
 43 42  2  0  0  0  0
 44 43  1  0  0  0  0
 45 43  1  0  0  0  0
 45 47  2  0  0  0  0
 46 45  1  0  0  0  0
 47 48  1  0  0  0  0
 48 50  2  0  0  0  0
 48 49  1  0  0  0  0
 50 51  1  0  0  0  0
M  END
