1,3
q = 0.0, confidence = 0.998

 22 22  0  0  1  0  0  0  0  0999 V2000
    1.1539   -0.3730    0.2645 N   0  0  0  0  0  2  0  0  0  0  0  0
    0.4260    2.4379    0.3461 O   0  0  0  0  0  0  0  0  0  0  0  0
   -1.0584    1.2114    1.7505 C   0  0  0  0  0  3  0  0  0  0  0  0
   -0.8100    1.9115    0.5617 C   0  0  0  0  0  3  0  0  0  0  0  0
    0.8411    2.5532   -1.0149 C   0  0  0  0  0  0  0  0  0  0  0  0
    1.2162    1.1837   -1.6237 C   0  0  0  0  0  0  0  0  0  0  0  0
    1.9232    0.2931   -0.6362 C   0  0  1  0  0  3  0  0  0  0  0  0
    3.3202    0.1484   -0.6087 C   0  0  0  0  0  0  0  0  0  0  0  0
    3.9193   -0.6885    0.3405 C   0  0  0  0  0  0  0  0  0  0  0  0
    3.1031   -1.3720    1.2518 C   0  0  0  0  0  0  0  0  0  0  0  0
    1.7195   -1.1896    1.1768 C   0  0  0  0  0  0  0  0  0  0  0  0
   -2.0945    1.1164    2.1040 H   0  0  0  0  0  0  0  0  0  0  0  0
   -0.2385    1.0898    2.4765 H   0  0  0  0  0  0  0  0  0  0  0  0
   -1.6319    2.2890   -0.0780 H   0  0  0  0  0  0  0  0  0  0  0  0
    0.0498    3.0401   -1.6282 H   0  0  0  0  0  0  0  0  0  0  0  0
    1.7240    3.2212   -0.9864 H   0  0  0  0  0  0  0  0  0  0  0  0
    0.3056    0.6484   -1.9678 H   0  0  0  0  0  0  0  0  0  0  0  0
    1.8604    1.3553   -2.5088 H   0  0  0  0  0  0  0  0  0  0  0  0
    3.9278    0.6923   -1.3463 H   0  0  0  0  0  0  0  0  0  0  0  0
    5.0123   -0.8121    0.3631 H   0  0  0  0  0  0  0  0  0  0  0  0
    3.5227   -2.0491    2.0086 H   0  0  0  0  0  0  0  0  0  0  0  0
    1.0260   -1.7153    1.8494 H   0  0  0  0  0  0  0  0  0  0  0  0
  1 11  1  0  0  0  0
  2  4  1  0  0  0  0
  3 12  1  0  0  0  0
  3 13  1  0  0  0  0
  4  3  1  0  0  0  0
  5 16  1  0  0  0  0
  5  2  1  0  0  0  0
  6  5  1  0  0  0  0
  7  6  1  1  0  0  0
  7  8  1  0  0  0  0
  7  1  1  0  0  0  0
  8  9  2  0  0  0  0
  9 20  1  0  0  0  0
  9 10  1  0  0  0  0
 10 21  1  0  0  0  0
 11 10  2  0  0  0  0
 11 22  1  0  0  0  0
 14  4  1  0  0  0  0
 15  5  1  0  0  0  0
 17  6  1  0  0  0  0
 18  6  1  0  0  0  0
 19  8  1  0  0  0  0
M  END
