2,25
q = -1.0

 33 36  0  0  1  0  0  0  0  0999 V2000
    1.9784   -0.1330   -3.4924 O   0  0  0  0  0  0  0  0  0  0  0  0
    1.3921   -0.9717   -1.4905 N   0  0  0  0  0  2  0  0  0  0  0  0
   -2.0420    1.0323   -0.9466 C   0  0  0  0  0  0  0  0  0  0  0  0
   -2.6113    0.8490   -0.0233 H   0  0  0  0  0  0  0  0  0  0  0  0
    3.5194   -2.3404   -1.1053 C   0  0  0  0  0  0  0  0  0  0  0  0
    3.2503   -2.7206   -0.1113 H   0  0  0  0  0  0  0  0  0  0  0  0
   -3.8167    2.6845   -1.6041 C   0  0  0  0  0  0  0  0  0  0  0  0
   -2.5602    1.9502   -1.8886 C   0  0  0  0  0  0  0  0  0  0  0  0
    4.7343   -2.6449   -1.7376 C   0  0  0  0  0  0  0  0  0  0  0  0
    5.4519   -3.3061   -1.2295 H   0  0  0  0  0  0  0  0  0  0  0  0
    2.9999   -0.9613   -3.0615 C   0  0  0  0  0  0  0  0  0  0  0  0
    4.2002   -1.2572   -3.7017 C   0  0  0  0  0  0  0  0  0  0  0  0
    4.4516   -0.8349   -4.6840 H   0  0  0  0  0  0  0  0  0  0  0  0
    2.6440   -1.4895   -1.7975 C   0  0  0  0  0  0  0  0  0  0  0  0
   -1.8617    2.1610   -3.1085 C   0  0  0  0  0  0  0  0  0  0  0  0
   -2.2421    2.8946   -3.8337 H   0  0  0  0  0  0  0  0  0  0  0  0
   -0.6758    1.4784   -3.3730 C   0  0  0  0  0  0  0  0  0  0  0  0
   -0.1255    1.6502   -4.3106 H   0  0  0  0  0  0  0  0  0  0  0  0
    5.0677   -2.1210   -3.0076 C   0  0  0  0  0  0  0  0  0  0  0  0
    6.0322   -2.3879   -3.4639 H   0  0  0  0  0  0  0  0  0  0  0  0
    1.0453   -0.1709   -2.5046 C   0  0  1  0  0  3  0  0  0  0  0  0
   -0.1741    0.5728   -2.4146 C   0  0  0  0  0  0  0  0  0  0  0  0
   -4.1496    3.0727   -0.2846 C   0  0  0  0  0  0  0  0  0  0  0  0
   -3.4499    2.8526    0.5351 H   0  0  0  0  0  0  0  0  0  0  0  0
   -0.8511    0.3185   -1.1704 C   0  0  0  0  0  3  0  0  0  0  0  0
   -5.9138    3.7038   -2.3738 C   0  0  0  0  0  0  0  0  0  0  0  0
   -6.6262    3.9526   -3.1734 H   0  0  0  0  0  0  0  0  0  0  0  0
   -4.7230    3.0167   -2.6384 C   0  0  0  0  0  0  0  0  0  0  0  0
   -4.5041    2.7047   -3.6702 H   0  0  0  0  0  0  0  0  0  0  0  0
   -7.3494    4.7323   -0.7919 F   0  0  0  0  0  0  0  0  0  0  0  0
   -5.3348    3.7621   -0.0031 C   0  0  0  0  0  0  0  0  0  0  0  0
   -5.5904    4.0758    1.0191 H   0  0  0  0  0  0  0  0  0  0  0  0
   -6.2068    4.0701   -1.0546 C   0  0  0  0  0  0  0  0  0  0  0  0
  1 11  1  0  0  0  0
  1 21  1  0  0  0  0
  3  4  1  0  0  0  0
  5  6  1  0  0  0  0
  7 23  1  0  0  0  0
  8  7  1  0  0  0  0
  8  3  2  0  0  0  0
  9 10  1  0  0  0  0
  9  5  1  0  0  0  0
 11 14  1  0  0  0  0
 12 11  2  0  0  0  0
 12 19  1  0  0  0  0
 13 12  1  0  0  0  0
 14  2  1  0  0  0  0
 14  5  2  0  0  0  0
 15  8  1  0  0  0  0
 16 15  1  0  0  0  0
 17 15  2  0  0  0  0
 17 22  1  0  0  0  0
 18 17  1  0  0  0  0
 19  9  2  0  0  0  0
 20 19  1  0  0  0  0
 21 22  1  1  0  0  0
 21  2  1  0  0  0  0
 22 25  2  0  0  0  0
 23 31  2  0  0  0  0
 23 24  1  0  0  0  0
 25  3  1  0  0  0  0
 26 33  2  0  0  0  0
 27 26  1  0  0  0  0
 28 26  1  0  0  0  0
 28  7  2  0  0  0  0
 29 28  1  0  0  0  0
 31 32  1  0  0  0  0
 33 30  1  0  0  0  0
 33 31  1  0  0  0  0
M  END
