1,2
q = 0.0, confidence = 0.746

 24 26  0  0  0  0  0  0  0  0999 V2000
    2.4370    1.3044    0.2163 N   0  0  0  0  0  2  0  0  0  0  0  0
    1.1375   -1.1740    0.4425 C   0  0  0  0  0  2  0  0  0  0  0  0
    0.4385   -1.9943    0.7034 H   0  0  0  0  0  0  0  0  0  0  0  0
    2.5031   -1.6415    0.2924 C   0  0  0  0  0  0  0  0  0  0  0  0
    2.6696   -3.0449    0.3421 C   0  0  0  0  0  0  0  0  0  0  0  0
    1.7763   -3.6607    0.5296 H   0  0  0  0  0  0  0  0  0  0  0  0
    3.9135   -3.6632    0.1450 C   0  0  0  0  0  0  0  0  0  0  0  0
    3.9970   -4.7597    0.1800 H   0  0  0  0  0  0  0  0  0  0  0  0
    5.0346   -2.8759   -0.0941 C   0  0  0  0  0  0  0  0  0  0  0  0
    6.0220   -3.3363   -0.2505 H   0  0  0  0  0  0  0  0  0  0  0  0
    4.9335   -1.4602   -0.1309 C   0  0  0  0  0  0  0  0  0  0  0  0
    6.1201   -0.6798   -0.3459 C   0  0  0  0  0  0  0  0  0  0  0  0
    7.0718   -1.2115   -0.4968 H   0  0  0  0  0  0  0  0  0  0  0  0
    6.0768    0.6884   -0.3490 C   0  0  0  0  0  3  0  0  0  0  0  0
    6.9890    1.2850   -0.5013 H   0  0  0  0  0  0  0  0  0  0  0  0
    4.8375    1.3792   -0.1441 C   0  0  0  0  0  0  0  0  0  0  0  0
    4.7937    2.7936   -0.1127 C   0  0  0  0  0  0  0  0  0  0  0  0
    5.7246    3.3625   -0.2576 H   0  0  0  0  0  0  0  0  0  0  0  0
    3.5826    3.4354    0.1104 C   0  0  0  0  0  0  0  0  0  0  0  0
    3.5033    4.5302    0.1586 H   0  0  0  0  0  0  0  0  0  0  0  0
    2.4323    2.6490    0.2716 C   0  0  0  0  0  0  0  0  0  0  0  0
    1.4522    3.1152    0.4583 H   0  0  0  0  0  0  0  0  0  0  0  0
    3.6194    0.6337    0.0400 C   0  0  0  0  0  0  0  0  0  0  0  0
    3.6606   -0.8156    0.0578 C   0  0  0  0  0  0  0  0  0  0  0  0
  1 21  1  0  0  0  0
  2  3  1  0  0  0  0
  4  5  2  0  0  0  0
  4  2  1  0  0  0  0
  5  6  1  0  0  0  0
  7  8  1  0  0  0  0
  7  5  1  0  0  0  0
  9  7  2  0  0  0  0
 10  9  1  0  0  0  0
 11  9  1  0  0  0  0
 11 24  1  0  0  0  0
 12 11  2  0  0  0  0
 13 12  1  0  0  0  0
 14 12  1  0  0  0  0
 14 16  1  0  0  0  0
 15 14  1  0  0  0  0
 16 17  2  0  0  0  0
 16 23  1  0  0  0  0
 17 19  1  0  0  0  0
 18 17  1  0  0  0  0
 19 20  1  0  0  0  0
 19 21  2  0  0  0  0
 21 22  1  0  0  0  0
 23 24  2  0  0  0  0
 23  1  1  0  0  0  0
 24  4  1  0  0  0  0
M  END
