1,16
q = -1.0

 33 34  0  0  1  0  0  0  0  0999 V2000
   -2.8803    0.3573    0.3597 N   0  0  0  0  0  0  0  0  0  0  0  0
   -3.1701   -0.1617    1.7280 C   0  0  0  0  0  0  0  0  0  0  0  0
   -4.2679   -0.3220    1.8404 H   0  0  0  0  0  0  0  0  0  0  0  0
   -2.8208    0.5506    2.4978 H   0  0  0  0  0  0  0  0  0  0  0  0
   -2.3843   -1.4840    1.7127 C   0  0  1  0  0  0  0  0  0  0  0  0
   -2.7390   -1.9641    0.3078 C   0  0  0  0  0  0  0  0  0  0  0  0
   -2.7304   -3.2247   -0.2861 C   0  0  0  0  0  0  0  0  0  0  0  0
   -2.5238   -4.1257    0.3118 H   0  0  0  0  0  0  0  0  0  0  0  0
   -2.9907   -3.3262   -1.6708 C   0  0  0  0  0  0  0  0  0  0  0  0
   -2.9968   -4.3147   -2.1541 H   0  0  0  0  0  0  0  0  0  0  0  0
   -3.2466   -2.1762   -2.4347 C   0  0  0  0  0  0  0  0  0  0  0  0
   -3.4490   -2.2717   -3.5122 H   0  0  0  0  0  0  0  0  0  0  0  0
   -3.2545   -0.8939   -1.8478 C   0  0  0  0  0  0  0  0  0  0  0  0
   -3.4255    0.0071   -2.4514 H   0  0  0  0  0  0  0  0  0  0  0  0
   -2.9923   -0.8180   -0.4782 C   0  0  0  0  0  0  0  0  0  0  0  0
   -0.8855   -1.0888    1.7145 C   0  0  0  0  0  3  0  0  0  0  0  0
   -0.2509   -1.9742    1.5101 H   0  0  0  0  0  0  0  0  0  0  0  0
   -0.5905   -0.6687    2.7017 H   0  0  0  0  0  0  0  0  0  0  0  0
   -2.7397   -2.4498    2.8429 C   0  0  0  0  0  0  0  0  0  0  0  0
   -2.5243   -1.9947    3.8308 H   0  0  0  0  0  0  0  0  0  0  0  0
   -2.1337   -3.3752    2.7675 H   0  0  0  0  0  0  0  0  0  0  0  0
   -3.8106   -2.7372    2.8147 H   0  0  0  0  0  0  0  0  0  0  0  0
   -3.6507    1.5512   -0.0527 C   0  0  0  0  0  0  0  0  0  0  0  0
   -4.7046    1.2453   -0.2396 H   0  0  0  0  0  0  0  0  0  0  0  0
   -3.1977    1.9022   -1.0056 H   0  0  0  0  0  0  0  0  0  0  0  0
   -3.6012    2.6609    0.9735 C   0  0  0  0  0  0  0  0  0  0  0  0
   -4.7405    3.0915    1.5549 C   0  0  0  0  0  0  0  0  0  0  0  0
   -4.7351    3.9252    2.2750 H   0  0  0  0  0  0  0  0  0  0  0  0
   -5.7151    2.6360    1.3170 H   0  0  0  0  0  0  0  0  0  0  0  0
   -2.2567    3.2677    1.2653 C   0  0  0  0  0  0  0  0  0  0  0  0
   -1.7983    3.6618    0.3340 H   0  0  0  0  0  0  0  0  0  0  0  0
   -1.5363    2.4986    1.6279 H   0  0  0  0  0  0  0  0  0  0  0  0
   -2.3278    4.0743    2.0199 H   0  0  0  0  0  0  0  0  0  0  0  0
  1  2  1  0  0  0  0
  2  3  1  0  0  0  0
  2  4  1  0  0  0  0
  5 16  1  1  0  0  0
  5  2  1  0  0  0  0
  5 19  1  0  0  0  0
  6  5  1  0  0  0  0
  7  6  1  0  0  0  0
  7  8  1  0  0  0  0
  9  7  2  0  0  0  0
 10  9  1  0  0  0  0
 11 13  2  0  0  0  0
 11  9  1  0  0  0  0
 12 11  1  0  0  0  0
 13 15  1  0  0  0  0
 14 13  1  0  0  0  0
 15  6  2  0  0  0  0
 15  1  1  0  0  0  0
 16 18  1  0  0  0  0
 17 16  1  0  0  0  0
 19 20  1  0  0  0  0
 21 19  1  0  0  0  0
 22 19  1  0  0  0  0
 23  1  1  0  0  0  0
 23 26  1  0  0  0  0
 24 23  1  0  0  0  0
 25 23  1  0  0  0  0
 26 30  1  0  0  0  0
 26 27  2  0  0  0  0
 27 28  1  0  0  0  0
 29 27  1  0  0  0  0
 30 32  1  0  0  0  0
 30 33  1  0  0  0  0
 31 30  1  0  0  0  0
M  END
