1,15
q = -1.0

 25 27  0  0  0  0  0  0  0  0999 V2000
    0.6720    2.0778   -0.0838 N   0  0  0  0  0  2  0  0  0  0  0  0
   -0.4709    2.7536    0.1727 N   0  0  0  0  0  0  0  0  0  0  0  0
   -1.7006   -1.3361   -0.3655 N   0  0  0  0  0  0  0  0  0  0  0  0
   -1.2177   -2.2340   -0.5222 H   0  0  0  0  0  0  0  0  0  0  0  0
    1.5415    2.9562   -0.6316 C   0  0  0  0  0  3  0  0  0  0  0  0
    2.5420    2.6019   -0.9050 H   0  0  0  0  0  0  0  0  0  0  0  0
    0.9413    4.2244   -0.7195 C   0  0  0  0  0  0  0  0  0  0  0  0
    1.3798    5.1434   -1.1192 H   0  0  0  0  0  0  0  0  0  0  0  0
   -0.3407    4.0538   -0.1936 C   0  0  0  0  0  0  0  0  0  0  0  0
   -1.1673    4.7570   -0.0457 H   0  0  0  0  0  0  0  0  0  0  0  0
   -1.5993    2.1349    0.8793 C   0  0  0  0  0  0  0  0  0  0  0  0
   -2.4483    2.8377    0.7759 H   0  0  0  0  0  0  0  0  0  0  0  0
   -1.3284    2.1054    1.9605 H   0  0  0  0  0  0  0  0  0  0  0  0
   -1.9461    0.7862    0.3464 C   0  0  0  0  0  0  0  0  0  0  0  0
   -1.0111   -0.1993    0.0118 C   0  0  0  0  0  3  0  0  0  0  0  0
   -3.0611   -1.1304   -0.2611 C   0  0  0  0  0  0  0  0  0  0  0  0
   -3.2599    0.2227    0.1824 C   0  0  0  0  0  0  0  0  0  0  0  0
   -4.5795    0.6939    0.3668 C   0  0  0  0  0  0  0  0  0  0  0  0
   -4.7674    1.7239    0.7103 H   0  0  0  0  0  0  0  0  0  0  0  0
   -5.6514   -0.1680    0.1097 C   0  0  0  0  0  0  0  0  0  0  0  0
   -6.6825    0.1912    0.2484 H   0  0  0  0  0  0  0  0  0  0  0  0
   -5.4342   -1.4986   -0.3242 C   0  0  0  0  0  0  0  0  0  0  0  0
   -6.2980   -2.1535   -0.5147 H   0  0  0  0  0  0  0  0  0  0  0  0
   -4.1386   -1.9957   -0.5148 C   0  0  0  0  0  0  0  0  0  0  0  0
   -3.9677   -3.0292   -0.8516 H   0  0  0  0  0  0  0  0  0  0  0  0
  1  2  1  0  0  0  0
  2 11  1  0  0  0  0
  3 16  1  0  0  0  0
  3 15  1  0  0  0  0
  4  3  1  0  0  0  0
  5  1  1  0  0  0  0
  6  5  1  0  0  0  0
  7  5  1  0  0  0  0
  7  9  2  0  0  0  0
  8  7  1  0  0  0  0
  9 10  1  0  0  0  0
  9  2  1  0  0  0  0
 11 13  1  0  0  0  0
 12 11  1  0  0  0  0
 14 11  1  0  0  0  0
 15 14  2  0  0  0  0
 16 17  1  0  0  0  0
 17 14  1  0  0  0  0
 17 18  2  0  0  0  0
 18 19  1  0  0  0  0
 20 21  1  0  0  0  0
 20 18  1  0  0  0  0
 22 20  2  0  0  0  0
 23 22  1  0  0  0  0
 24 22  1  0  0  0  0
 24 16  2  0  0  0  0
 25 24  1  0  0  0  0
M  END
