2,20
q = -1.0

 32 33  0  0  1  0  0  0  0  0999 V2000
   -2.0684   -2.0891   -0.1268 Cl  0  0  0  0  0  0  0  0  0  0  0  0
   -0.7488    1.2171    0.0190 N   0  0  0  0  0  2  0  0  0  0  0  0
   -2.0739    1.5485   -0.0100 C   0  0  2  0  0  3  0  0  0  0  0  0
   -2.4298    2.9071   -0.0952 C   0  0  0  0  0  0  0  0  0  0  0  0
   -3.4863    3.1875   -0.1279 H   0  0  0  0  0  0  0  0  0  0  0  0
   -1.4556    3.9107   -0.1304 C   0  0  0  0  0  0  0  0  0  0  0  0
   -1.7512    4.9681   -0.1958 H   0  0  0  0  0  0  0  0  0  0  0  0
   -0.1162    3.5495   -0.0828 C   0  0  0  0  0  0  0  0  0  0  0  0
    0.6771    4.3064   -0.1103 H   0  0  0  0  0  0  0  0  0  0  0  0
    0.2284    2.1872   -0.0163 C   0  0  0  0  0  0  0  0  0  0  0  0
    1.6094    1.7201    0.0084 C   0  0  0  0  0  0  0  0  0  0  0  0
    2.7419    2.5670    0.0287 C   0  0  0  0  0  0  0  0  0  0  0  0
    2.6212    3.6598    0.0283 H   0  0  0  0  0  0  0  0  0  0  0  0
    4.0300    2.0322    0.0548 C   0  0  0  0  0  0  0  0  0  0  0  0
    4.9224    2.6725    0.0731 H   0  0  0  0  0  0  0  0  0  0  0  0
    4.1814    0.6358    0.0595 C   0  0  0  0  0  0  0  0  0  0  0  0
    5.4193    0.1229    0.0856 F   0  0  0  0  0  0  0  0  0  0  0  0
    3.0879   -0.2402    0.0390 C   0  0  0  0  0  0  0  0  0  0  0  0
    3.2357   -1.3281    0.0420 H   0  0  0  0  0  0  0  0  0  0  0  0
    1.8123    0.3212    0.0132 C   0  0  0  0  0  3  0  0  0  0  0  0
   -3.1967    0.4945    0.1394 C   0  0  0  0  0  0  0  0  0  0  0  0
   -4.5703    1.0896   -0.2613 C   0  0  0  0  0  0  0  0  0  0  0  0
   -4.5865    1.4494   -1.3099 H   0  0  0  0  0  0  0  0  0  0  0  0
   -4.8714    1.9205    0.4036 H   0  0  0  0  0  0  0  0  0  0  0  0
   -5.3441    0.3055   -0.1539 H   0  0  0  0  0  0  0  0  0  0  0  0
   -3.2742    0.0789    1.6271 C   0  0  0  0  0  0  0  0  0  0  0  0
   -2.3116   -0.3207    2.0019 H   0  0  0  0  0  0  0  0  0  0  0  0
   -4.0572   -0.6936    1.7660 H   0  0  0  0  0  0  0  0  0  0  0  0
   -3.5428    0.9612    2.2409 H   0  0  0  0  0  0  0  0  0  0  0  0
   -3.0294   -0.7152   -0.8132 C   0  0  0  0  0  0  0  0  0  0  0  0
   -2.5131   -0.4536   -1.7586 H   0  0  0  0  0  0  0  0  0  0  0  0
   -4.0139   -1.1652   -1.0318 H   0  0  0  0  0  0  0  0  0  0  0  0
  3  2  1  0  0  0  0
  3 21  1  1  0  0  0
  4  3  1  0  0  0  0
  5  4  1  0  0  0  0
  6  4  2  0  0  0  0
  6  8  1  0  0  0  0
  7  6  1  0  0  0  0
  8 10  2  0  0  0  0
  9  8  1  0  0  0  0
 10 11  1  0  0  0  0
 10  2  1  0  0  0  0
 11 20  2  0  0  0  0
 11 12  1  0  0  0  0
 12 14  2  0  0  0  0
 13 12  1  0  0  0  0
 14 16  1  0  0  0  0
 14 15  1  0  0  0  0
 16 17  1  0  0  0  0
 18 19  1  0  0  0  0
 18 16  2  0  0  0  0
 20 18  1  0  0  0  0
 21 26  1  0  0  0  0
 22 25  1  0  0  0  0
 22 21  1  0  0  0  0
 22 24  1  0  0  0  0
 23 22  1  0  0  0  0
 26 28  1  0  0  0  0
 26 27  1  0  0  0  0
 26 29  1  0  0  0  0
 30  1  1  0  0  0  0
 30 21  1  0  0  0  0
 31 30  1  0  0  0  0
 32 30  1  0  0  0  0
M  END
