3,4
q = -1.0

 24 25  0  0  0  0  0  0  0  0999 V2000
    0.7885    3.4770    0.1404 O   0  0  0  0  0  1  0  0  0  0  0  0
    0.1873    2.3950    0.0419 N   0  0  0  0  0  0  0  0  0  0  0  0
    0.7711    1.2146   -0.0759 N   0  0  0  0  0  2  0  0  0  0  0  0
   -1.7835    1.0173   -0.1318 C   0  0  0  0  0  3  0  0  0  0  0  0
    2.1854    1.1614   -0.1221 C   0  0  0  0  0  0  0  0  0  0  0  0
   -1.2459    2.3140    0.0000 C   0  0  0  0  0  0  0  0  0  0  0  0
    2.7682    0.4091   -1.1628 C   0  0  0  0  0  0  0  0  0  0  0  0
    2.1021   -0.0291   -1.9232 H   0  0  0  0  0  0  0  0  0  0  0  0
   -3.1829    0.9373   -0.2719 C   0  0  0  0  0  0  0  0  0  0  0  0
   -3.6609   -0.0389   -0.4414 H   0  0  0  0  0  0  0  0  0  0  0  0
    4.9702    0.8214   -0.2094 C   0  0  0  0  0  0  0  0  0  0  0  0
    6.0620    0.6882   -0.2416 H   0  0  0  0  0  0  0  0  0  0  0  0
    2.9942    1.7503    0.8729 C   0  0  0  0  0  0  0  0  0  0  0  0
    2.5323    2.3468    1.6704 H   0  0  0  0  0  0  0  0  0  0  0  0
   -2.0079    3.4917    0.0472 C   0  0  0  0  0  0  0  0  0  0  0  0
   -1.4933    4.4578    0.1465 H   0  0  0  0  0  0  0  0  0  0  0  0
    4.1590    0.2495   -1.2040 C   0  0  0  0  0  0  0  0  0  0  0  0
    4.6136   -0.3293   -2.0223 H   0  0  0  0  0  0  0  0  0  0  0  0
    4.3834    1.5687    0.8256 C   0  0  0  0  0  0  0  0  0  0  0  0
    5.0146    2.0209    1.6056 H   0  0  0  0  0  0  0  0  0  0  0  0
   -3.9753    2.0955   -0.2226 C   0  0  0  0  0  0  0  0  0  0  0  0
   -5.0680    2.0067   -0.3288 H   0  0  0  0  0  0  0  0  0  0  0  0
   -3.3961    3.3714   -0.0544 C   0  0  0  0  0  0  0  0  0  0  0  0
   -4.0316    4.2684   -0.0227 H   0  0  0  0  0  0  0  0  0  0  0  0
  2  1  1  0  0  0  0
  3  2  1  0  0  0  0
  4  6  1  0  0  0  0
  5  3  1  0  0  0  0
  5 13  1  0  0  0  0
  6  2  1  0  0  0  0
  6 15  2  0  0  0  0
  7  5  2  0  0  0  0
  8  7  1  0  0  0  0
  9 21  1  0  0  0  0
  9  4  2  0  0  0  0
 10  9  1  0  0  0  0
 11 19  1  0  0  0  0
 12 11  1  0  0  0  0
 13 14  1  0  0  0  0
 15 16  1  0  0  0  0
 17  7  1  0  0  0  0
 17 11  2  0  0  0  0
 18 17  1  0  0  0  0
 19 13  2  0  0  0  0
 19 20  1  0  0  0  0
 21 23  2  0  0  0  0
 22 21  1  0  0  0  0
 23 24  1  0  0  0  0
 23 15  1  0  0  0  0
M  END
