1,4
q = -1.0, confidence = 0.002

 23 23  0  0  0  0  0  0  0  0999 V2000
    0.9552    1.3751    0.0768 N   0  0  0  0  0  2  0  0  0  0  0  0
    2.2198    1.0492    0.1980 N   0  0  0  0  0  0  0  0  0  0  0  0
    3.1612    1.8617    0.2888 O   0  0  0  0  0  1  0  0  0  0  0  0
    1.3067   -1.1671   -0.0243 C   0  0  0  0  0  3  0  0  0  0  0  0
    1.5318   -2.5510   -0.1623 C   0  0  0  0  0  0  0  0  0  0  0  0
    0.6921   -3.2246   -0.3867 H   0  0  0  0  0  0  0  0  0  0  0  0
    2.4505   -0.3705    0.1766 C   0  0  0  0  0  0  0  0  0  0  0  0
    0.9398    3.6347    1.1540 C   0  0  0  0  0  0  0  0  0  0  0  0
    0.4862    3.1768    2.0565 H   0  0  0  0  0  0  0  0  0  0  0  0
    0.5125    4.6502    1.0322 H   0  0  0  0  0  0  0  0  0  0  0  0
    2.0293    3.7230    1.3174 H   0  0  0  0  0  0  0  0  0  0  0  0
    3.7574   -0.8655    0.2935 C   0  0  0  0  0  0  0  0  0  0  0  0
    4.5856   -0.1576    0.4382 H   0  0  0  0  0  0  0  0  0  0  0  0
    0.6289    2.8008   -0.0969 C   0  0  0  0  0  0  0  0  0  0  0  0
   -0.4698    2.7759   -0.2263 H   0  0  0  0  0  0  0  0  0  0  0  0
    1.2246    3.3657   -1.3948 C   0  0  0  0  0  0  0  0  0  0  0  0
    2.3268    3.4313   -1.3385 H   0  0  0  0  0  0  0  0  0  0  0  0
    0.8175    4.3821   -1.5677 H   0  0  0  0  0  0  0  0  0  0  0  0
    0.9404    2.7161   -2.2455 H   0  0  0  0  0  0  0  0  0  0  0  0
    3.9392   -2.2478    0.1968 C   0  0  0  0  0  0  0  0  0  0  0  0
    4.9469   -2.6799    0.2840 H   0  0  0  0  0  0  0  0  0  0  0  0
    2.8262   -3.0817   -0.0404 C   0  0  0  0  0  0  0  0  0  0  0  0
    2.9756   -4.1680   -0.1444 H   0  0  0  0  0  0  0  0  0  0  0  0
  1  2  1  0  0  0  0
  2  3  1  0  0  0  0
  4  7  1  0  0  0  0
  5 22  1  0  0  0  0
  5  4  2  0  0  0  0
  6  5  1  0  0  0  0
  7  2  1  0  0  0  0
  7 12  2  0  0  0  0
  8 11  1  0  0  0  0
  8  9  1  0  0  0  0
 10  8  1  0  0  0  0
 12 13  1  0  0  0  0
 14  1  1  0  0  0  0
 14  8  1  0  0  0  0
 15 14  1  0  0  0  0
 16 17  1  0  0  0  0
 16 14  1  0  0  0  0
 18 16  1  0  0  0  0
 19 16  1  0  0  0  0
 20 21  1  0  0  0  0
 20 12  1  0  0  0  0
 22 20  2  0  0  0  0
 23 22  1  0  0  0  0
M  END
