3,22
q = -1.0, confidence = 0.014

 30 33  0  0  0  0  0  0  0  0999 V2000
   -4.7710    2.1858   -0.7143 O   0  0  0  0  0  0  0  0  0  0  0  0
   -5.6555   -2.3257   -0.7097 O   0  0  0  0  0  0  0  0  0  0  0  0
   -0.9635   -0.2871    0.2704 N   0  0  0  0  0  2  0  0  0  0  0  0
   -5.4932   -0.0003   -0.7762 N   0  0  0  0  0  0  0  0  0  0  0  0
   -6.4543    0.2181   -1.0449 H   0  0  0  0  0  0  0  0  0  0  0  0
   -1.9219    0.6873    0.0880 C   0  0  0  0  0  0  0  0  0  0  0  0
   -3.2625    0.2583   -0.1905 C   0  0  0  0  0  0  0  0  0  0  0  0
   -4.5285    0.9992   -0.5725 C   0  0  0  0  0  0  0  0  0  0  0  0
   -5.0133   -1.2951   -0.5858 C   0  0  0  0  0  0  0  0  0  0  0  0
   -3.5729   -1.1044   -0.2129 C   0  0  0  0  0  0  0  0  0  0  0  0
   -2.6235   -2.0995    0.1059 C   0  0  0  0  0  0  0  0  0  0  0  0
   -2.9193   -3.4918    0.1735 C   0  0  0  0  0  3  0  0  0  0  0  0
   -3.9411   -3.8143   -0.0685 H   0  0  0  0  0  0  0  0  0  0  0  0
   -1.9341   -4.3894    0.5538 C   0  0  0  0  0  0  0  0  0  0  0  0
   -2.1604   -5.4643    0.6133 H   0  0  0  0  0  0  0  0  0  0  0  0
   -0.6398   -3.9173    0.8979 C   0  0  0  0  0  0  0  0  0  0  0  0
    0.1234   -4.6277    1.2502 H   0  0  0  0  0  0  0  0  0  0  0  0
   -0.3204   -2.5691    0.8181 C   0  0  0  0  0  0  0  0  0  0  0  0
    0.6607   -2.1967    1.1236 H   0  0  0  0  0  0  0  0  0  0  0  0
   -1.2913   -1.6223    0.3891 C   0  0  0  0  0  0  0  0  0  0  0  0
   -1.3981    2.0470    0.1894 C   0  0  0  0  0  0  0  0  0  0  0  0
    0.0192    2.1160    0.3478 C   0  0  0  0  0  3  0  0  0  0  0  0
    0.6462    3.3609    0.5231 C   0  0  0  0  0  0  0  0  0  0  0  0
    1.7351    3.3974    0.6723 H   0  0  0  0  0  0  0  0  0  0  0  0
   -0.1217    4.5349    0.5185 C   0  0  0  0  0  0  0  0  0  0  0  0
    0.3738    5.5090    0.6575 H   0  0  0  0  0  0  0  0  0  0  0  0
   -1.5184    4.4755    0.3475 C   0  0  0  0  0  0  0  0  0  0  0  0
   -2.1154    5.3996    0.3492 H   0  0  0  0  0  0  0  0  0  0  0  0
   -2.1588    3.2444    0.1866 C   0  0  0  0  0  0  0  0  0  0  0  0
   -3.2454    3.2049    0.0501 H   0  0  0  0  0  0  0  0  0  0  0  0
  1  8  2  0  0  0  0
  2  9  2  0  0  0  0
  3 20  1  0  0  0  0
  4  9  1  0  0  0  0
  4  8  1  0  0  0  0
  5  4  1  0  0  0  0
  6 21  1  0  0  0  0
  6  3  1  0  0  0  0
  7  6  2  0  0  0  0
  8  7  1  0  0  0  0
  9 10  1  0  0  0  0
 10  7  1  0  0  0  0
 10 11  2  0  0  0  0
 11 12  1  0  0  0  0
 11 20  1  0  0  0  0
 12 14  1  0  0  0  0
 13 12  1  0  0  0  0
 14 15  1  0  0  0  0
 14 16  2  0  0  0  0
 16 17  1  0  0  0  0
 18 16  1  0  0  0  0
 18 19  1  0  0  0  0
 20 18  2  0  0  0  0
 21 22  1  0  0  0  0
 22 23  2  0  0  0  0
 23 24  1  0  0  0  0
 25 23  1  0  0  0  0
 25 26  1  0  0  0  0
 27 28  1  0  0  0  0
 27 25  2  0  0  0  0
 29 21  2  0  0  0  0
 29 27  1  0  0  0  0
 30 29  1  0  0  0  0
M  END
