1,3
q = -1.0, confidence = 0.0

 47 49  0  0  1  0  0  0  0  0999 V2000
    0.1028    1.0071   -0.0391 N   0  0  0  0  0  2  0  0  0  0  0  0
   -1.9372    1.7125    0.6500 N   0  0  0  0  0  0  0  0  0  0  0  0
   -0.3397   -1.5331   -0.0547 C   0  0  0  0  0  3  0  0  0  0  0  0
   -1.5030   -0.7272   -0.0620 C   0  0  0  0  0  0  0  0  0  0  0  0
   -1.1652    0.6771    0.1704 C   0  0  0  0  0  0  0  0  0  0  0  0
    0.2778    2.4502    0.1249 C   0  0  2  0  0  0  0  0  0  0  0  0
    1.1749    2.6434    0.7493 H   0  0  0  0  0  0  0  0  0  0  0  0
   -1.0332    2.8624    0.8509 C   0  0  0  0  0  0  0  0  0  0  0  0
   -2.9980    1.4774    1.6545 C   0  0  0  0  0  0  0  0  0  0  0  0
   -3.9556    2.6680    1.6996 C   0  0  0  0  0  0  0  0  0  0  0  0
   -2.4230    1.1203    3.0331 C   0  0  0  0  0  0  0  0  0  0  0  0
    0.5020    3.1786   -1.2453 C   0  0  0  0  0  0  0  0  0  0  0  0
   -0.7121    2.9939   -2.1722 C   0  0  0  0  0  0  0  0  0  0  0  0
    1.7514    2.5985   -1.9298 C   0  0  0  0  0  0  0  0  0  0  0  0
    0.7355    4.6736   -0.9635 C   0  0  0  0  0  0  0  0  0  0  0  0
   -2.7915   -1.2829   -0.3714 C   0  0  0  0  0  0  0  0  0  0  0  0
   -3.9448   -0.5055   -0.6943 C   0  0  0  0  0  0  0  0  0  0  0  0
   -5.1610   -1.1110   -0.9864 C   0  0  0  0  0  0  0  0  0  0  0  0
   -5.2848   -2.5242   -0.9753 C   0  0  0  0  0  0  0  0  0  0  0  0
   -4.1679   -3.3089   -0.7244 C   0  0  0  0  0  3  0  0  0  0  0  0
   -2.8999   -2.7217   -0.4467 C   0  0  0  0  0  0  0  0  0  0  0  0
   -1.7254   -3.5195   -0.2919 C   0  0  0  0  0  0  0  0  0  0  0  0
   -0.4722   -2.9439   -0.1393 C   0  0  0  0  0  0  0  0  0  0  0  0
   -1.4740    3.7891    0.4339 H   0  0  0  0  0  0  0  0  0  0  0  0
   -0.8607    3.0295    1.9360 H   0  0  0  0  0  0  0  0  0  0  0  0
   -3.5664    0.5980    1.2982 H   0  0  0  0  0  0  0  0  0  0  0  0
   -4.3647    2.8865    0.6930 H   0  0  0  0  0  0  0  0  0  0  0  0
   -3.4548    3.5844    2.0745 H   0  0  0  0  0  0  0  0  0  0  0  0
   -4.8027    2.4517    2.3796 H   0  0  0  0  0  0  0  0  0  0  0  0
   -1.7361    0.2534    2.9597 H   0  0  0  0  0  0  0  0  0  0  0  0
   -3.2442    0.8471    3.7251 H   0  0  0  0  0  0  0  0  0  0  0  0
   -1.8723    1.9661    3.4934 H   0  0  0  0  0  0  0  0  0  0  0  0
   -1.6409    3.4259   -1.7471 H   0  0  0  0  0  0  0  0  0  0  0  0
   -0.8940    1.9197   -2.3765 H   0  0  0  0  0  0  0  0  0  0  0  0
   -0.5292    3.4940   -3.1449 H   0  0  0  0  0  0  0  0  0  0  0  0
    1.6095    1.5278   -2.1751 H   0  0  0  0  0  0  0  0  0  0  0  0
    2.6395    2.6643   -1.2713 H   0  0  0  0  0  0  0  0  0  0  0  0
    1.9617    3.1486   -2.8699 H   0  0  0  0  0  0  0  0  0  0  0  0
    1.6112    4.8224   -0.2978 H   0  0  0  0  0  0  0  0  0  0  0  0
    0.9355    5.2171   -1.9091 H   0  0  0  0  0  0  0  0  0  0  0  0
   -0.1419    5.1577   -0.4866 H   0  0  0  0  0  0  0  0  0  0  0  0
   -3.8484    0.5878   -0.7638 H   0  0  0  0  0  0  0  0  0  0  0  0
   -6.0308   -0.4881   -1.2460 H   0  0  0  0  0  0  0  0  0  0  0  0
   -6.2553   -2.9933   -1.1963 H   0  0  0  0  0  0  0  0  0  0  0  0
   -4.2392   -4.4076   -0.7592 H   0  0  0  0  0  0  0  0  0  0  0  0
   -1.8303   -4.6158   -0.3436 H   0  0  0  0  0  0  0  0  0  0  0  0
    0.4355   -3.5638   -0.0857 H   0  0  0  0  0  0  0  0  0  0  0  0
  1  6  1  0  0  0  0
  1  5  1  0  0  0  0
  2  8  1  0  0  0  0
  2  9  1  0  0  0  0
  4  3  1  0  0  0  0
  4  5  2  0  0  0  0
  5  2  1  0  0  0  0
  6  7  1  1  0  0  0
  6  8  1  0  0  0  0
  8 25  1  0  0  0  0
  9 10  1  0  0  0  0
  9 11  1  0  0  0  0
 10 28  1  0  0  0  0
 10 29  1  0  0  0  0
 11 32  1  0  0  0  0
 11 31  1  0  0  0  0
 12 15  1  0  0  0  0
 12  6  1  0  0  0  0
 13 33  1  0  0  0  0
 13 12  1  0  0  0  0
 14 37  1  0  0  0  0
 14 12  1  0  0  0  0
 15 41  1  0  0  0  0
 15 39  1  0  0  0  0
 16  4  1  0  0  0  0
 17 16  2  0  0  0  0
 18 19  2  0  0  0  0
 18 17  1  0  0  0  0
 19 20  1  0  0  0  0
 20 21  1  0  0  0  0
 21 16  1  0  0  0  0
 21 22  2  0  0  0  0
 22 23  1  0  0  0  0
 23 47  1  0  0  0  0
 23  3  2  0  0  0  0
 24  8  1  0  0  0  0
 26  9  1  0  0  0  0
 27 10  1  0  0  0  0
 30 11  1  0  0  0  0
 34 13  1  0  0  0  0
 35 13  1  0  0  0  0
 36 14  1  0  0  0  0
 38 14  1  0  0  0  0
 40 15  1  0  0  0  0
 42 17  1  0  0  0  0
 43 18  1  0  0  0  0
 44 19  1  0  0  0  0
 45 20  1  0  0  0  0
 46 22  1  0  0  0  0
M  END
