1,5
q = -1.0

 24 24  0  0  0  0  0  0  0  0999 V2000
   -0.8085    1.5690    0.6282 N   0  0  0  0  0  2  0  0  0  0  0  0
   -0.1539    2.5016   -0.0467 C   0  0  0  0  0  0  0  0  0  0  0  0
    1.1537    2.1026   -0.4811 C   0  0  0  0  0  0  0  0  0  0  0  0
    1.7741    2.7802   -1.0895 H   0  0  0  0  0  0  0  0  0  0  0  0
    1.5438    0.8250   -0.1345 C   0  0  0  0  0  2  0  0  0  0  0  0
   -2.1193    1.8151    1.2016 C   0  0  0  0  0  0  0  0  0  0  0  0
   -2.6940    0.8729    1.2519 H   0  0  0  0  0  0  0  0  0  0  0  0
   -2.7086    2.5361    0.6012 H   0  0  0  0  0  0  0  0  0  0  0  0
   -2.0244    2.2214    2.2327 H   0  0  0  0  0  0  0  0  0  0  0  0
   -0.7238    3.8610   -0.3328 C   0  0  0  0  0  0  0  0  0  0  0  0
   -0.0142    4.4661   -0.9243 H   0  0  0  0  0  0  0  0  0  0  0  0
   -0.9468    4.4084    0.6064 H   0  0  0  0  0  0  0  0  0  0  0  0
   -1.6772    3.7930   -0.8976 H   0  0  0  0  0  0  0  0  0  0  0  0
    2.8709    0.3007   -0.4788 C   0  0  0  0  0  0  0  0  0  0  0  0
    3.0794   -1.0553   -0.8323 C   0  0  0  0  0  0  0  0  0  0  0  0
    2.2221   -1.7417   -0.8336 H   0  0  0  0  0  0  0  0  0  0  0  0
    4.3473   -1.5261   -1.1927 C   0  0  0  0  0  0  0  0  0  0  0  0
    4.4793   -2.5802   -1.4793 H   0  0  0  0  0  0  0  0  0  0  0  0
    5.4503   -0.6565   -1.1823 C   0  0  0  0  0  0  0  0  0  0  0  0
    6.4499   -1.0276   -1.4527 H   0  0  0  0  0  0  0  0  0  0  0  0
    5.2707    0.6872   -0.8145 C   0  0  0  0  0  0  0  0  0  0  0  0
    6.1320    1.3714   -0.7900 H   0  0  0  0  0  0  0  0  0  0  0  0
    3.9994    1.1628   -0.4716 C   0  0  0  0  0  0  0  0  0  0  0  0
    3.8724    2.2117   -0.1654 H   0  0  0  0  0  0  0  0  0  0  0  0
  1  6  1  0  0  0  0
  2  1  1  0  0  0  0
  3  5  1  0  0  0  0
  3  2  2  0  0  0  0
  4  3  1  0  0  0  0
  6  7  1  0  0  0  0
  6  9  1  0  0  0  0
  8  6  1  0  0  0  0
 10  2  1  0  0  0  0
 10 12  1  0  0  0  0
 11 10  1  0  0  0  0
 13 10  1  0  0  0  0
 14 23  1  0  0  0  0
 14  5  1  0  0  0  0
 15 14  2  0  0  0  0
 16 15  1  0  0  0  0
 17 19  2  0  0  0  0
 17 15  1  0  0  0  0
 18 17  1  0  0  0  0
 19 21  1  0  0  0  0
 20 19  1  0  0  0  0
 21 22  1  0  0  0  0
 21 23  2  0  0  0  0
 23 24  1  0  0  0  0
M  END
