4,5
q = -2.0, confidence = 0.74

 33 34  0  0  1  0  0  0  0  0999 V2000
    0.1322    1.6525   -0.8158 Si  0  0  0  0  0  0  0  0  0  0  0  0
   -2.7940    1.9886    1.6089 F   0  0  0  0  0  0  0  0  0  0  0  0
   -3.9321   -2.6178   -1.0995 F   0  0  0  0  0  0  0  0  0  0  0  0
    0.2307    0.4189    0.4558 N   0  0  0  0  0  2  0  0  0  0  0  0
    1.8613    1.1529   -1.3870 C   0  0  1  0  0  3  0  0  0  0  0  0
    3.0135    1.3752   -0.5587 C   0  0  0  0  0  0  0  0  0  0  0  0
    3.9129    0.2820   -0.7082 C   0  0  0  0  0  0  0  0  0  0  0  0
    3.3341   -0.6346   -1.6339 C   0  0  0  0  0  0  0  0  0  0  0  0
    2.0833   -0.0991   -2.0531 C   0  0  0  0  0  0  0  0  0  0  0  0
   -1.1805    1.3044   -2.1155 C   0  0  0  0  0  0  0  0  0  0  0  0
   -0.0069    3.3864   -0.1088 C   0  0  0  0  0  0  0  0  0  0  0  0
   -0.7223    0.0394    1.4931 C   0  0  0  0  0  0  0  0  0  0  0  0
   -2.1004   -0.1761    0.9057 C   0  0  0  0  0  0  0  0  0  0  0  0
   -3.0796    0.8311    0.9627 C   0  0  0  0  0  0  0  0  0  0  0  0
   -4.3322    0.6943    0.3542 C   0  0  0  0  0  0  0  0  0  0  0  0
   -4.6265   -0.4826   -0.3479 C   0  0  0  0  0  0  0  0  0  0  0  0
   -3.6536   -1.4896   -0.4206 C   0  0  0  0  0  0  0  0  0  0  0  0
   -2.4041   -1.3509    0.1914 C   0  0  0  0  0  0  0  0  0  0  0  0
    3.1385    2.2020    0.1528 H   0  0  0  0  0  0  0  0  0  0  0  0
    4.8605    0.1476   -0.1724 H   0  0  0  0  0  0  0  0  0  0  0  0
    3.7571   -1.6000   -1.9377 H   0  0  0  0  0  0  0  0  0  0  0  0
    1.3624   -0.6151   -2.7005 H   0  0  0  0  0  0  0  0  0  0  0  0
   -2.1983    1.4819   -1.7140 H   0  0  0  0  0  0  0  0  0  0  0  0
   -1.0358    1.9637   -2.9962 H   0  0  0  0  0  0  0  0  0  0  0  0
   -1.1319    0.2497   -2.4514 H   0  0  0  0  0  0  0  0  0  0  0  0
    0.0157    4.1537   -0.9093 H   0  0  0  0  0  0  0  0  0  0  0  0
    0.8136    3.5957    0.6059 H   0  0  0  0  0  0  0  0  0  0  0  0
   -0.9677    3.4825    0.4375 H   0  0  0  0  0  0  0  0  0  0  0  0
   -0.7622    0.8272    2.2764 H   0  0  0  0  0  0  0  0  0  0  0  0
   -0.3826   -0.8929    1.9932 H   0  0  0  0  0  0  0  0  0  0  0  0
   -5.0620    1.5123    0.4349 H   0  0  0  0  0  0  0  0  0  0  0  0
   -5.5984   -0.6305   -0.8393 H   0  0  0  0  0  0  0  0  0  0  0  0
   -1.6527   -2.1495    0.0988 H   0  0  0  0  0  0  0  0  0  0  0  0
  1 11  1  0  0  0  0
  1  4  1  0  0  0  0
  3 17  1  0  0  0  0
  4 12  1  0  0  0  0
  5  1  1  1  0  0  0
  5  6  1  0  0  0  0
  6 19  1  0  0  0  0
  7  6  2  0  0  0  0
  7 20  1  0  0  0  0
  8  7  1  0  0  0  0
  9  8  2  0  0  0  0
  9  5  1  0  0  0  0
 10 23  1  0  0  0  0
 10  1  1  0  0  0  0
 11 28  1  0  0  0  0
 11 27  1  0  0  0  0
 12 30  1  0  0  0  0
 12 29  1  0  0  0  0
 13 14  1  0  0  0  0
 13 12  1  0  0  0  0
 14  2  1  0  0  0  0
 15 31  1  0  0  0  0
 15 14  2  0  0  0  0
 16 15  1  0  0  0  0
 17 16  2  0  0  0  0
 17 18  1  0  0  0  0
 18 13  2  0  0  0  0
 21  8  1  0  0  0  0
 22  9  1  0  0  0  0
 24 10  1  0  0  0  0
 25 10  1  0  0  0  0
 26 11  1  0  0  0  0
 32 16  1  0  0  0  0
 33 18  1  0  0  0  0
M  END
