2
q = -2.0, confidence = 0.83

 45 46  0  0  1  0  0  0  0  0999 V2000
    0.4715   -1.3011    1.6728 Si  0  0  0  0  0  0  0  0  0  0  0  0
    0.6830   -0.3972    0.1579 N   0  0  0  0  0  2  0  0  0  0  0  0
    1.5789   -0.7225   -0.9521 C   0  0  0  0  0  0  0  0  0  0  0  0
    2.8826   -1.3273   -0.4705 C   0  0  0  0  0  0  0  0  0  0  0  0
    3.0999   -2.7168   -0.5358 C   0  0  0  0  0  0  0  0  0  0  0  0
    4.2695   -3.2883   -0.0082 C   0  0  0  0  0  0  0  0  0  0  0  0
    5.2411   -2.4713    0.5901 C   0  0  0  0  0  0  0  0  0  0  0  0
    5.0390   -1.0818    0.6516 C   0  0  0  0  0  0  0  0  0  0  0  0
    3.8684   -0.5168    0.1280 C   0  0  0  0  0  0  0  0  0  0  0  0
   -0.9033   -0.1178    2.2195 C   0  0  2  0  0  3  0  0  0  0  0  0
   -2.2413   -0.1798    1.6776 C   0  0  0  0  0  0  0  0  0  0  0  0
   -2.7386    1.1530    1.5560 C   0  0  0  0  0  0  0  0  0  0  0  0
   -1.7419    2.0548    2.0683 C   0  0  0  0  0  0  0  0  0  0  0  0
   -0.6174    1.2751    2.4824 C   0  0  0  0  0  0  0  0  0  0  0  0
   -3.0107   -1.4319    1.3771 C   0  0  0  0  0  0  0  0  0  0  0  0
   -4.0944    1.5743    1.0761 C   0  0  0  0  0  0  0  0  0  0  0  0
   -1.9466    3.5297    2.2350 C   0  0  0  0  0  0  0  0  0  0  0  0
    0.6710    1.8295    3.0240 C   0  0  0  0  0  0  0  0  0  0  0  0
    1.9572   -1.3471    2.8377 C   0  0  0  0  0  0  0  0  0  0  0  0
   -0.0749   -3.0899    1.3995 C   0  0  0  0  0  0  0  0  0  0  0  0
    1.0923   -1.4458   -1.6486 H   0  0  0  0  0  0  0  0  0  0  0  0
    1.7915    0.1898   -1.5503 H   0  0  0  0  0  0  0  0  0  0  0  0
    2.3371   -3.3584   -1.0056 H   0  0  0  0  0  0  0  0  0  0  0  0
    4.4231   -4.3769   -0.0667 H   0  0  0  0  0  0  0  0  0  0  0  0
    6.1587   -2.9160    1.0046 H   0  0  0  0  0  0  0  0  0  0  0  0
    5.8008   -0.4354    1.1143 H   0  0  0  0  0  0  0  0  0  0  0  0
    3.7015    0.5689    0.1810 H   0  0  0  0  0  0  0  0  0  0  0  0
   -4.0414   -1.2088    1.0483 H   0  0  0  0  0  0  0  0  0  0  0  0
   -2.5518   -2.0422    0.5776 H   0  0  0  0  0  0  0  0  0  0  0  0
   -3.0672   -2.0643    2.2866 H   0  0  0  0  0  0  0  0  0  0  0  0
   -4.6024    0.7650    0.5204 H   0  0  0  0  0  0  0  0  0  0  0  0
   -4.7467    1.8615    1.9293 H   0  0  0  0  0  0  0  0  0  0  0  0
   -4.0368    2.4571    0.4070 H   0  0  0  0  0  0  0  0  0  0  0  0
   -0.9985    4.0676    2.4232 H   0  0  0  0  0  0  0  0  0  0  0  0
   -2.6213    3.7361    3.0939 H   0  0  0  0  0  0  0  0  0  0  0  0
   -2.4143    3.9872    1.3403 H   0  0  0  0  0  0  0  0  0  0  0  0
    0.6068    2.9234    3.1764 H   0  0  0  0  0  0  0  0  0  0  0  0
    1.5239    1.6407    2.3394 H   0  0  0  0  0  0  0  0  0  0  0  0
    0.9242    1.3657    3.9985 H   0  0  0  0  0  0  0  0  0  0  0  0
    1.6187   -1.6689    3.8455 H   0  0  0  0  0  0  0  0  0  0  0  0
    2.4637   -0.3699    2.9360 H   0  0  0  0  0  0  0  0  0  0  0  0
    2.7049   -2.0803    2.4732 H   0  0  0  0  0  0  0  0  0  0  0  0
   -0.7751   -3.1933    0.5488 H   0  0  0  0  0  0  0  0  0  0  0  0
    0.8188   -3.7131    1.1921 H   0  0  0  0  0  0  0  0  0  0  0  0
   -0.5678   -3.4962    2.3068 H   0  0  0  0  0  0  0  0  0  0  0  0
  1 19  1  0  0  0  0
  2  1  1  0  0  0  0
  3  4  1  0  0  0  0
  3  2  1  0  0  0  0
  4  9  1  0  0  0  0
  5  4  2  0  0  0  0
  5  6  1  0  0  0  0
  6  7  2  0  0  0  0
  7  8  1  0  0  0  0
  7 25  1  0  0  0  0
  8 26  1  0  0  0  0
  9 27  1  0  0  0  0
  9  8  2  0  0  0  0
 10  1  1  6  0  0  0
 10 14  1  0  0  0  0
 11 10  1  0  0  0  0
 12 11  2  0  0  0  0
 12 13  1  0  0  0  0
 13 17  1  0  0  0  0
 13 14  2  0  0  0  0
 14 18  1  0  0  0  0
 15 11  1  0  0  0  0
 15 30  1  0  0  0  0
 16 12  1  0  0  0  0
 16 32  1  0  0  0  0
 17 34  1  0  0  0  0
 17 35  1  0  0  0  0
 18 37  1  0  0  0  0
 18 39  1  0  0  0  0
 19 41  1  0  0  0  0
 19 40  1  0  0  0  0
 20  1  1  0  0  0  0
 20 45  1  0  0  0  0
 21  3  1  0  0  0  0
 22  3  1  0  0  0  0
 23  5  1  0  0  0  0
 24  6  1  0  0  0  0
 28 15  1  0  0  0  0
 29 15  1  0  0  0  0
 31 16  1  0  0  0  0
 33 16  1  0  0  0  0
 36 17  1  0  0  0  0
 38 18  1  0  0  0  0
 42 19  1  0  0  0  0
 43 20  1  0  0  0  0
 44 20  1  0  0  0  0
M  END
