1,4
q = -1.0, confidence = 0.0

 25 25  0  0  0  0  0  0  0  0999 V2000
    2.8593   -1.0931   -0.5891 N   0  0  0  0  0  0  0  0  0  0  0  0
    3.1871    0.2411   -1.1712 C   0  0  0  0  0  0  0  0  0  0  0  0
    2.7262    1.3289   -0.2380 C   0  0  0  0  0  0  0  0  0  0  0  0
    1.4817    1.1115    0.4145 C   0  0  0  0  0  3  0  0  0  0  0  0
    1.0688    2.0415    1.4075 C   0  0  0  0  0  0  0  0  0  0  0  0
    1.8676    3.1852    1.6386 C   0  0  0  0  0  0  0  0  0  0  0  0
    3.0619    3.4166    0.9436 C   0  0  0  0  0  0  0  0  0  0  0  0
    3.5094    2.4672    0.0146 C   0  0  0  0  0  0  0  0  0  0  0  0
   -0.1810    1.8659    2.2366 C   0  0  0  0  0  0  0  0  0  0  0  0
    3.6857   -1.3692    0.5959 C   0  0  0  0  0  0  0  0  0  0  0  0
    3.0396   -2.1374   -1.6010 C   0  0  0  0  0  0  0  0  0  0  0  0
    4.2808    0.3105   -1.3902 H   0  0  0  0  0  0  0  0  0  0  0  0
    2.6481    0.3002   -2.1413 H   0  0  0  0  0  0  0  0  0  0  0  0
    1.5395    3.9093    2.4025 H   0  0  0  0  0  0  0  0  0  0  0  0
    3.6583    4.3181    1.1513 H   0  0  0  0  0  0  0  0  0  0  0  0
    4.4728    2.6015   -0.5041 H   0  0  0  0  0  0  0  0  0  0  0  0
   -1.0665    2.3006    1.7281 H   0  0  0  0  0  0  0  0  0  0  0  0
   -0.0786    2.3708    3.2179 H   0  0  0  0  0  0  0  0  0  0  0  0
   -0.4066    0.7960    2.4021 H   0  0  0  0  0  0  0  0  0  0  0  0
    3.3640   -2.3217    1.0593 H   0  0  0  0  0  0  0  0  0  0  0  0
    3.5552   -0.5531    1.3302 H   0  0  0  0  0  0  0  0  0  0  0  0
    4.7674   -1.4471    0.3283 H   0  0  0  0  0  0  0  0  0  0  0  0
    4.0886   -2.1604   -1.9835 H   0  0  0  0  0  0  0  0  0  0  0  0
    2.3564   -1.9542   -2.4529 H   0  0  0  0  0  0  0  0  0  0  0  0
    2.8141   -3.1302   -1.1683 H   0  0  0  0  0  0  0  0  0  0  0  0
  1 10  1  0  0  0  0
  2  1  1  0  0  0  0
  2  3  1  0  0  0  0
  3  8  2  0  0  0  0
  3  4  1  0  0  0  0
  4  5  2  0  0  0  0
  5  6  1  0  0  0  0
  5  9  1  0  0  0  0
  6 14  1  0  0  0  0
  7 15  1  0  0  0  0
  7  6  2  0  0  0  0
  8  7  1  0  0  0  0
  9 19  1  0  0  0  0
  9 18  1  0  0  0  0
 10 20  1  0  0  0  0
 10 21  1  0  0  0  0
 11 25  1  0  0  0  0
 11  1  1  0  0  0  0
 12  2  1  0  0  0  0
 13  2  1  0  0  0  0
 16  8  1  0  0  0  0
 17  9  1  0  0  0  0
 22 10  1  0  0  0  0
 23 11  1  0  0  0  0
 24 11  1  0  0  0  0
M  END
