2,4
q = -1.0, confidence = 0.0

 24 25  0  0  0  0  0  0  0  0999 V2000
   -5.7775   -0.9535    0.3517 S   0  0  0  0  0  0  0  0  0  0  0  0
    0.4357   -0.5313   -1.9276 N   0  0  0  0  0  2  0  0  0  0  0  0
   -0.6764   -0.3953   -2.7092 N   0  0  0  0  0  0  0  0  0  0  0  0
   -1.8256   -0.7874   -0.6612 C   0  0  0  0  0  3  0  0  0  0  0  0
   -1.9255   -0.5561   -2.0596 C   0  0  0  0  0  0  0  0  0  0  0  0
   -3.1493   -0.4627   -2.7401 C   0  0  0  0  0  0  0  0  0  0  0  0
   -3.1883   -0.2586   -3.8197 H   0  0  0  0  0  0  0  0  0  0  0  0
   -4.3373   -0.6021   -2.0095 C   0  0  0  0  0  0  0  0  0  0  0  0
   -5.3181   -0.4851   -2.4921 H   0  0  0  0  0  0  0  0  0  0  0  0
   -4.2560   -0.8570   -0.6330 C   0  0  0  0  0  0  0  0  0  0  0  0
   -3.0309   -0.9449    0.0443 C   0  0  0  0  0  0  0  0  0  0  0  0
   -3.0509   -1.0977    1.1338 H   0  0  0  0  0  0  0  0  0  0  0  0
   -0.3206   -0.0839   -3.9882 C   0  0  0  0  0  3  0  0  0  0  0  0
   -1.0730    0.0834   -4.7647 H   0  0  0  0  0  0  0  0  0  0  0  0
    1.0711   -0.0253   -4.0314 C   0  0  0  0  0  0  0  0  0  0  0  0
    1.6918    0.2042   -4.9024 H   0  0  0  0  0  0  0  0  0  0  0  0
    1.5033   -0.3090   -2.7180 C   0  0  0  0  0  0  0  0  0  0  0  0
    2.5151   -0.3534   -2.3016 H   0  0  0  0  0  0  0  0  0  0  0  0
   -5.3886   -0.7494    1.7688 O   0  0  0  0  0  0  0  0  0  0  0  0
   -6.7933   -0.1103   -0.3154 O   0  0  0  0  0  0  0  0  0  0  0  0
   -6.3009   -2.6796    0.1798 C   0  0  0  0  0  0  0  0  0  0  0  0
   -5.5187   -3.3395    0.5968 H   0  0  0  0  0  0  0  0  0  0  0  0
   -6.5002   -2.8961   -0.8854 H   0  0  0  0  0  0  0  0  0  0  0  0
   -7.2325   -2.7553    0.7725 H   0  0  0  0  0  0  0  0  0  0  0  0
  1 19  2  0  0  0  0
  3  5  1  0  0  0  0
  3  2  1  0  0  0  0
  4 11  1  0  0  0  0
  5  4  2  0  0  0  0
  6  5  1  0  0  0  0
  6  8  2  0  0  0  0
  7  6  1  0  0  0  0
  8 10  1  0  0  0  0
  9  8  1  0  0  0  0
 10 11  2  0  0  0  0
 10  1  1  0  0  0  0
 11 12  1  0  0  0  0
 13  3  1  0  0  0  0
 14 13  1  0  0  0  0
 15 13  1  0  0  0  0
 15 17  2  0  0  0  0
 16 15  1  0  0  0  0
 17 18  1  0  0  0  0
 17  2  1  0  0  0  0
 20  1  2  0  0  0  0
 21  1  1  0  0  0  0
 21 22  1  0  0  0  0
 21 24  1  0  0  0  0
 23 21  1  0  0  0  0
M  END
