1,10
q = -2.0, confidence = 0.73

 42 43  0  0  0  0  0  0  0  0999 V2000
    0.6425   -0.5081   -0.9326 N   0  0  0  0  0  2  0  0  0  0  0  0
    0.9604    0.7883   -0.6243 N   0  0  0  0  0  0  0  0  0  0  0  0
    2.8800    2.1428   -0.3602 N   0  0  0  0  0  0  0  0  0  0  0  0
   -2.5133    3.0343   -0.7207 O   0  0  0  0  0  0  0  0  0  0  0  0
   -3.5872    1.2983    0.2580 O   0  0  0  0  0  0  0  0  0  0  0  0
    0.3763    3.8098   -1.1748 O   0  0  0  0  0  0  0  0  0  0  0  0
    0.0628    3.4410    1.0423 O   0  0  0  0  0  0  0  0  0  0  0  0
   -3.6240    3.8592   -0.3623 C   0  0  0  0  0  0  0  0  0  0  0  0
   -2.5913    1.7333   -0.3104 C   0  0  0  0  0  0  0  0  0  0  0  0
   -1.3654    0.9676   -0.6026 C   0  0  0  0  0  3  0  0  0  0  0  0
   -0.1389    1.6067   -0.5064 C   0  0  0  0  0  0  0  0  0  0  0  0
    0.1049    3.0413   -0.1101 C   0  0  0  0  0  0  0  0  0  0  0  0
    0.6684    5.1790   -0.8773 C   0  0  0  0  0  0  0  0  0  0  0  0
    1.7682   -1.3212   -1.2315 C   0  0  0  0  0  0  0  0  0  0  0  0
    1.8863   -2.6031   -0.6564 C   0  0  0  0  0  0  0  0  0  0  0  0
    2.9873   -3.4101   -0.9721 C   0  0  0  0  0  0  0  0  0  0  0  0
    3.9851   -2.9504   -1.8469 C   0  0  0  0  0  0  0  0  0  0  0  0
    3.8707   -1.6691   -2.4118 C   0  0  0  0  0  0  0  0  0  0  0  0
    2.7716   -0.8555   -2.1116 C   0  0  0  0  0  0  0  0  0  0  0  0
    2.1862    1.0913    0.0762 C   0  0  0  0  0  0  0  0  0  0  0  0
    2.5449    0.2929    1.1746 C   0  0  0  0  0  0  0  0  0  0  0  0
    3.7492    0.5745    1.8408 C   0  0  0  0  0  0  0  0  0  0  0  0
    4.2076   -0.2765    2.9932 C   0  0  0  0  0  0  0  0  0  0  0  0
    4.4985    1.6745    1.3744 C   0  0  0  0  0  0  0  0  0  0  0  0
    4.0147    2.4307    0.2978 C   0  0  0  0  0  0  0  0  0  0  0  0
   -3.6962    3.9671    0.7397 H   0  0  0  0  0  0  0  0  0  0  0  0
   -3.4394    4.8428   -0.8309 H   0  0  0  0  0  0  0  0  0  0  0  0
   -4.5744    3.4245   -0.7313 H   0  0  0  0  0  0  0  0  0  0  0  0
    0.8425    5.6731   -1.8492 H   0  0  0  0  0  0  0  0  0  0  0  0
   -0.1789    5.6547   -0.3433 H   0  0  0  0  0  0  0  0  0  0  0  0
    1.5720    5.2504   -0.2387 H   0  0  0  0  0  0  0  0  0  0  0  0
    1.1146   -2.9450    0.0481 H   0  0  0  0  0  0  0  0  0  0  0  0
    3.0690   -4.4098   -0.5185 H   0  0  0  0  0  0  0  0  0  0  0  0
    4.8481   -3.5882   -2.0895 H   0  0  0  0  0  0  0  0  0  0  0  0
    4.6418   -1.3000   -3.1051 H   0  0  0  0  0  0  0  0  0  0  0  0
    2.6728    0.1440   -2.5592 H   0  0  0  0  0  0  0  0  0  0  0  0
    1.8738   -0.5119    1.5072 H   0  0  0  0  0  0  0  0  0  0  0  0
    4.9694    0.2380    3.6094 H   0  0  0  0  0  0  0  0  0  0  0  0
    3.3576   -0.5624    3.6440 H   0  0  0  0  0  0  0  0  0  0  0  0
    4.6574   -1.2200    2.6169 H   0  0  0  0  0  0  0  0  0  0  0  0
    5.4479    1.9494    1.8585 H   0  0  0  0  0  0  0  0  0  0  0  0
    4.5755    3.3119   -0.0598 H   0  0  0  0  0  0  0  0  0  0  0  0
  1  2  1  0  0  0  0
  2 11  1  0  0  0  0
  2 20  1  0  0  0  0
  3 20  2  0  0  0  0
  3 25  1  0  0  0  0
  4  8  1  0  0  0  0
  4  9  1  0  0  0  0
  6 13  1  0  0  0  0
  6 12  1  0  0  0  0
  8 26  1  0  0  0  0
  9  5  2  0  0  0  0
 10 11  2  0  0  0  0
 10  9  1  0  0  0  0
 11 12  1  0  0  0  0
 12  7  2  0  0  0  0
 13 30  1  0  0  0  0
 13 31  1  0  0  0  0
 14  1  1  0  0  0  0
 14 15  1  0  0  0  0
 15 32  1  0  0  0  0
 16 15  2  0  0  0  0
 16 33  1  0  0  0  0
 17 16  1  0  0  0  0
 18 19  1  0  0  0  0
 18 17  2  0  0  0  0
 19 14  2  0  0  0  0
 20 21  1  0  0  0  0
 21 37  1  0  0  0  0
 21 22  2  0  0  0  0
 22 23  1  0  0  0  0
 23 38  1  0  0  0  0
 23 39  1  0  0  0  0
 24 22  1  0  0  0  0
 24 41  1  0  0  0  0
 25 24  2  0  0  0  0
 27  8  1  0  0  0  0
 28  8  1  0  0  0  0
 29 13  1  0  0  0  0
 34 17  1  0  0  0  0
 35 18  1  0  0  0  0
 36 19  1  0  0  0  0
 40 23  1  0  0  0  0
 42 25  1  0  0  0  0
M  END
