2,3
q = -1.0

 31 32  0  0  0  0  0  0  0  0999 V2000
   -2.2370    3.4747   -0.3383 N   0  0  0  0  0  0  0  0  0  0  0  0
    0.6349    1.2212   -0.1811 N   0  0  0  0  0  2  0  0  0  0  0  0
   -1.9640    1.1950   -0.1574 C   0  0  0  0  0  3  0  0  0  0  0  0
   -3.3528    1.4964   -0.2250 C   0  0  0  0  0  0  0  0  0  0  0  0
   -4.1923    0.7917   -0.2236 H   0  0  0  0  0  0  0  0  0  0  0  0
   -3.4808    2.8890   -0.3306 C   0  0  0  0  0  0  0  0  0  0  0  0
   -4.3809    3.5132   -0.4001 H   0  0  0  0  0  0  0  0  0  0  0  0
   -1.9460    4.8858   -0.4521 C   0  0  0  0  0  0  0  0  0  0  0  0
   -2.8927    5.4511   -0.5350 H   0  0  0  0  0  0  0  0  0  0  0  0
   -1.3345    5.0962   -1.3551 H   0  0  0  0  0  0  0  0  0  0  0  0
   -1.3937    5.2571    0.4373 H   0  0  0  0  0  0  0  0  0  0  0  0
   -1.3015    2.4522   -0.2331 C   0  0  0  0  0  0  0  0  0  0  0  0
    0.1063    2.4380   -0.2633 C   0  0  0  0  0  3  0  0  0  0  0  0
    0.7577    3.3213   -0.3825 H   0  0  0  0  0  0  0  0  0  0  0  0
    2.0304    1.0151   -0.1834 C   0  0  0  0  0  0  0  0  0  0  0  0
    2.5854    0.0852   -1.0851 C   0  0  0  0  0  0  0  0  0  0  0  0
    1.9058   -0.4074   -1.7991 H   0  0  0  0  0  0  0  0  0  0  0  0
    3.9641   -0.1807   -1.0706 C   0  0  0  0  0  0  0  0  0  0  0  0
    4.7802    0.4995   -0.1423 C   0  0  0  0  0  0  0  0  0  0  0  0
    5.8618    0.2884   -0.1214 H   0  0  0  0  0  0  0  0  0  0  0  0
    4.2479    1.4374    0.7629 C   0  0  0  0  0  0  0  0  0  0  0  0
    2.8616    1.6858    0.7376 C   0  0  0  0  0  0  0  0  0  0  0  0
    2.4098    2.3854    1.4583 H   0  0  0  0  0  0  0  0  0  0  0  0
    4.5449   -1.2049   -2.0142 C   0  0  0  0  0  0  0  0  0  0  0  0
    4.1197   -1.1033   -3.0326 H   0  0  0  0  0  0  0  0  0  0  0  0
    4.3098   -2.2365   -1.6726 H   0  0  0  0  0  0  0  0  0  0  0  0
    5.6469   -1.1225   -2.0860 H   0  0  0  0  0  0  0  0  0  0  0  0
    5.1400    2.1758    1.7308 C   0  0  0  0  0  0  0  0  0  0  0  0
    6.0781    1.6207    1.9272 H   0  0  0  0  0  0  0  0  0  0  0  0
    4.6335    2.3524    2.7008 H   0  0  0  0  0  0  0  0  0  0  0  0
    5.4262    3.1719    1.3291 H   0  0  0  0  0  0  0  0  0  0  0  0
  1  6  1  0  0  0  0
  1 12  1  0  0  0  0
  4  5  1  0  0  0  0
  4  3  1  0  0  0  0
  6  4  2  0  0  0  0
  7  6  1  0  0  0  0
  8  1  1  0  0  0  0
  8 11  1  0  0  0  0
  9  8  1  0  0  0  0
 10  8  1  0  0  0  0
 12  3  2  0  0  0  0
 13 12  1  0  0  0  0
 13  2  1  0  0  0  0
 14 13  1  0  0  0  0
 15  2  1  0  0  0  0
 15 22  1  0  0  0  0
 16 18  1  0  0  0  0
 16 15  2  0  0  0  0
 17 16  1  0  0  0  0
 18 19  2  0  0  0  0
 19 20  1  0  0  0  0
 19 21  1  0  0  0  0
 21 28  1  0  0  0  0
 22 21  2  0  0  0  0
 22 23  1  0  0  0  0
 24 26  1  0  0  0  0
 24 18  1  0  0  0  0
 25 24  1  0  0  0  0
 27 24  1  0  0  0  0
 28 29  1  0  0  0  0
 28 30  1  0  0  0  0
 31 28  1  0  0  0  0
M  END
