5,34
q = -1.0

 35 36  0  0  1  0  0  0  0  0999 V2000
    0.5177   -0.8440    2.9122 I   0  0  0  0  0  0  0  0  0  0  0  0
    2.8539    0.6193   -0.1829 C   0  0  1  0  0  3  0  0  0  0  0  0
    2.7508    2.0268   -0.3886 C   0  0  0  0  0  0  0  0  0  0  0  0
    3.6685    2.6107   -0.5428 H   0  0  0  0  0  0  0  0  0  0  0  0
    1.4733    2.5820   -0.2785 C   0  0  0  0  0  3  0  0  0  0  0  0
    2.3362    4.7710   -0.7701 C   0  0  0  0  0  0  0  0  0  0  0  0
    3.1031    4.7235    0.0353 H   0  0  0  0  0  0  0  0  0  0  0  0
    2.8183    4.4240   -1.7116 H   0  0  0  0  0  0  0  0  0  0  0  0
    1.7716    6.1697   -0.9141 C   0  0  0  0  0  0  0  0  0  0  0  0
    1.0014    6.2018   -1.7098 H   0  0  0  0  0  0  0  0  0  0  0  0
    2.5776    6.8827   -1.1780 H   0  0  0  0  0  0  0  0  0  0  0  0
    1.3042    6.5041    0.0325 H   0  0  0  0  0  0  0  0  0  0  0  0
    1.7229   -1.4558    0.1606 C   0  0  0  0  0  0  0  0  0  0  0  0
    1.1858   -2.0734    1.3150 C   0  0  0  0  0  0  0  0  0  0  0  0
    1.1557   -3.4677    1.4564 C   0  0  0  0  0  0  0  0  0  0  0  0
    0.7305   -3.9154    2.3655 H   0  0  0  0  0  0  0  0  0  0  0  0
    1.6768   -4.2795    0.4380 C   0  0  0  0  0  0  0  0  0  0  0  0
    1.6490   -5.3737    0.5489 H   0  0  0  0  0  0  0  0  0  0  0  0
    2.2202   -3.6910   -0.7148 C   0  0  0  0  0  0  0  0  0  0  0  0
    2.6284   -4.3212   -1.5192 H   0  0  0  0  0  0  0  0  0  0  0  0
    2.2362   -2.3000   -0.8531 C   0  0  0  0  0  0  0  0  0  0  0  0
    2.6463   -1.8299   -1.7576 H   0  0  0  0  0  0  0  0  0  0  0  0
    4.2059   -0.0092   -0.1396 C   0  0  0  0  0  0  0  0  0  0  0  0
    5.1394    0.2496   -1.1654 C   0  0  0  0  0  0  0  0  0  0  0  0
    4.8459    0.8917   -2.0098 H   0  0  0  0  0  0  0  0  0  0  0  0
    6.4182   -0.3253   -1.1268 C   0  0  0  0  0  0  0  0  0  0  0  0
    7.1315   -0.1269   -1.9413 H   0  0  0  0  0  0  0  0  0  0  0  0
    6.7866   -1.1506   -0.0531 C   0  0  0  0  0  0  0  0  0  0  0  0
    7.7911   -1.5994   -0.0202 H   0  0  0  0  0  0  0  0  0  0  0  0
    5.8692   -1.3984    0.9817 C   0  0  0  0  0  0  0  0  0  0  0  0
    6.1554   -2.0360    1.8319 H   0  0  0  0  0  0  0  0  0  0  0  0
    4.5866   -0.8380    0.9384 C   0  0  0  0  0  0  0  0  0  0  0  0
    3.8721   -1.0303    1.7518 H   0  0  0  0  0  0  0  0  0  0  0  0
    1.7284   -0.0610    0.0214 N   0  0  0  0  0  2  0  0  0  0  0  0
    1.2516    3.8853   -0.4427 O   0  0  0  0  0  0  0  0  0  0  0  0
  2  3  1  1  0  0  0
  2 23  1  0  0  0  0
  2 34  1  0  0  0  0
  3  5  2  0  0  0  0
  4  3  1  0  0  0  0
  6 35  1  0  0  0  0
  6  7  1  0  0  0  0
  8  6  1  0  0  0  0
  9  6  1  0  0  0  0
  9 12  1  0  0  0  0
 10  9  1  0  0  0  0
 11  9  1  0  0  0  0
 13 14  1  0  0  0  0
 14 15  2  0  0  0  0
 14  1  1  0  0  0  0
 15 16  1  0  0  0  0
 17 18  1  0  0  0  0
 17 15  1  0  0  0  0
 19 17  2  0  0  0  0
 20 19  1  0  0  0  0
 21 19  1  0  0  0  0
 21 13  2  0  0  0  0
 22 21  1  0  0  0  0
 23 32  1  0  0  0  0
 24 26  1  0  0  0  0
 24 23  2  0  0  0  0
 25 24  1  0  0  0  0
 26 28  2  0  0  0  0
 27 26  1  0  0  0  0
 28 29  1  0  0  0  0
 28 30  1  0  0  0  0
 30 31  1  0  0  0  0
 32 30  2  0  0  0  0
 32 33  1  0  0  0  0
 34 13  1  0  0  0  0
 35  5  1  0  0  0  0
M  END
