5,34
q = -1.0, confidence = 0.0

 35 36  0  0  0  0  0  0  0  0999 V2000
   -0.5177   -0.8431   -2.9122 I   0  0  0  0  0  0  0  0  0  0  0  0
   -2.8538    0.6193    0.1833 C   0  0  0  0  0  0  0  0  0  0  0  0
   -2.7507    2.0269    0.3891 C   0  0  0  0  0  0  0  0  0  0  0  0
   -3.6683    2.6107    0.5435 H   0  0  0  0  0  0  0  0  0  0  0  0
   -1.4732    2.5820    0.2786 C   0  0  0  0  0  2  0  0  0  0  0  0
   -2.3360    4.7710    0.7705 C   0  0  0  0  0  0  0  0  0  0  0  0
   -2.8177    4.4239    1.7122 H   0  0  0  0  0  0  0  0  0  0  0  0
   -3.1031    4.7237   -0.0346 H   0  0  0  0  0  0  0  0  0  0  0  0
   -1.7713    6.1696    0.9147 C   0  0  0  0  0  0  0  0  0  0  0  0
   -1.0008    6.2016    1.7102 H   0  0  0  0  0  0  0  0  0  0  0  0
   -2.5772    6.8826    1.1789 H   0  0  0  0  0  0  0  0  0  0  0  0
   -1.3042    6.5042   -0.0320 H   0  0  0  0  0  0  0  0  0  0  0  0
   -1.7229   -1.4557   -0.1608 C   0  0  0  0  0  0  0  0  0  0  0  0
   -1.1859   -2.0730   -1.3155 C   0  0  0  0  0  0  0  0  0  0  0  0
   -1.1559   -3.4672   -1.4573 C   0  0  0  0  0  0  0  0  0  0  0  0
   -0.7307   -3.9147   -2.3665 H   0  0  0  0  0  0  0  0  0  0  0  0
   -1.6771   -4.2793   -0.4392 C   0  0  0  0  0  0  0  0  0  0  0  0
   -1.6493   -5.3735   -0.5503 H   0  0  0  0  0  0  0  0  0  0  0  0
   -2.2205   -3.6911    0.7139 C   0  0  0  0  0  0  0  0  0  0  0  0
   -2.6287   -4.3216    1.5180 H   0  0  0  0  0  0  0  0  0  0  0  0
   -2.2364   -2.3002    0.8526 C   0  0  0  0  0  0  0  0  0  0  0  0
   -2.6464   -1.8303    1.7572 H   0  0  0  0  0  0  0  0  0  0  0  0
   -4.2059   -0.0091    0.1400 C   0  0  0  0  0  0  0  0  0  0  0  0
   -4.5867   -0.8377   -0.9381 C   0  0  0  0  0  0  0  0  0  0  0  0
   -3.8723   -1.0298   -1.7516 H   0  0  0  0  0  0  0  0  0  0  0  0
   -5.8693   -1.3981   -0.9814 C   0  0  0  0  0  0  0  0  0  0  0  0
   -6.1556   -2.0355   -1.8317 H   0  0  0  0  0  0  0  0  0  0  0  0
   -6.7866   -1.1504    0.0535 C   0  0  0  0  0  0  0  0  0  0  0  0
   -7.7911   -1.5992    0.0206 H   0  0  0  0  0  0  0  0  0  0  0  0
   -6.4181   -0.3253    1.1274 C   0  0  0  0  0  0  0  0  0  0  0  0
   -7.1313   -0.1271    1.9420 H   0  0  0  0  0  0  0  0  0  0  0  0
   -5.1393    0.2495    1.1660 C   0  0  0  0  0  0  0  0  0  0  0  0
   -4.8457    0.8914    2.0105 H   0  0  0  0  0  0  0  0  0  0  0  0
   -1.7284   -0.0609   -0.0212 N   0  0  0  0  0  2  0  0  0  0  0  0
   -1.2515    3.8854    0.4426 O   0  0  0  0  0  0  0  0  0  0  0  0
  1 14  1  0  0  0  0
  2  3  2  0  0  0  0
  3  4  1  0  0  0  0
  5  3  1  0  0  0  0
  5 35  1  0  0  0  0
  6  9  1  0  0  0  0
  6  7  1  0  0  0  0
  8  6  1  0  0  0  0
  9 11  1  0  0  0  0
  9 10  1  0  0  0  0
 12  9  1  0  0  0  0
 13 34  1  0  0  0  0
 13 21  1  0  0  0  0
 14 13  2  0  0  0  0
 15 14  1  0  0  0  0
 15 17  2  0  0  0  0
 16 15  1  0  0  0  0
 17 19  1  0  0  0  0
 18 17  1  0  0  0  0
 19 21  2  0  0  0  0
 19 20  1  0  0  0  0
 21 22  1  0  0  0  0
 23  2  1  0  0  0  0
 23 32  1  0  0  0  0
 24 23  2  0  0  0  0
 25 24  1  0  0  0  0
 26 24  1  0  0  0  0
 26 28  2  0  0  0  0
 27 26  1  0  0  0  0
 28 30  1  0  0  0  0
 29 28  1  0  0  0  0
 30 32  2  0  0  0  0
 30 31  1  0  0  0  0
 32 33  1  0  0  0  0
 34  2  1  0  0  0  0
 35  6  1  0  0  0  0
M  END
