1,18
q = -1.0, confidence = 0.004

 25 26  0  0  0  0  0  0  0  0999 V2000
    2.9311   -1.5736   -0.0269 N   0  0  0  0  0  2  0  0  0  0  0  0
    5.6763   -2.0658    0.0625 N   0  0  0  0  0  0  0  0  0  0  0  0
    3.4006   -2.8329   -0.0330 C   0  0  0  0  0  0  0  0  0  0  0  0
    2.6323   -3.6248   -0.0746 H   0  0  0  0  0  0  0  0  0  0  0  0
    4.7814   -3.0685    0.0112 C   0  0  0  0  0  0  0  0  0  0  0  0
    5.1689   -4.1010    0.0053 H   0  0  0  0  0  0  0  0  0  0  0  0
    5.1927   -0.8216    0.0676 C   0  0  0  0  0  0  0  0  0  0  0  0
    5.9272   -0.0000    0.1103 H   0  0  0  0  0  0  0  0  0  0  0  0
    3.8073   -0.5280    0.0225 C   0  0  0  0  0  0  0  0  0  0  0  0
    3.1886    0.7916    0.0163 C   0  0  0  0  0  0  0  0  0  0  0  0
    3.9391    1.9899    0.0250 C   0  0  0  0  0  3  0  0  0  0  0  0
    5.0389    1.9530    0.0572 H   0  0  0  0  0  0  0  0  0  0  0  0
    3.2994    3.2275   -0.0165 C   0  0  0  0  0  0  0  0  0  0  0  0
    3.8953    4.1539   -0.0148 H   0  0  0  0  0  0  0  0  0  0  0  0
    1.8894    3.3017   -0.0699 C   0  0  0  0  0  0  0  0  0  0  0  0
    1.1527    2.1006   -0.0635 C   0  0  0  0  0  0  0  0  0  0  0  0
    0.0597    2.1815   -0.0950 H   0  0  0  0  0  0  0  0  0  0  0  0
    1.7571    0.8288   -0.0184 C   0  0  0  0  0  3  0  0  0  0  0  0
    1.2167    4.6594   -0.1337 C   0  0  0  0  0  0  0  0  0  0  0  0
    1.5266    5.2389    0.7650 H   0  0  0  0  0  0  0  0  0  0  0  0
    1.6533    5.2177   -0.9920 H   0  0  0  0  0  0  0  0  0  0  0  0
   -0.3068    4.6608   -0.2411 C   0  0  0  0  0  0  0  0  0  0  0  0
   -0.6925    5.6976   -0.3032 H   0  0  0  0  0  0  0  0  0  0  0  0
   -0.7813    4.1790    0.6371 H   0  0  0  0  0  0  0  0  0  0  0  0
   -0.6555    4.1189   -1.1444 H   0  0  0  0  0  0  0  0  0  0  0  0
  1  9  1  0  0  0  0
  2  7  2  0  0  0  0
  3  1  1  0  0  0  0
  3  5  2  0  0  0  0
  4  3  1  0  0  0  0
  5  2  1  0  0  0  0
  6  5  1  0  0  0  0
  7  8  1  0  0  0  0
  9  7  1  0  0  0  0
 10  9  2  0  0  0  0
 10 11  1  0  0  0  0
 11 12  1  0  0  0  0
 13 14  1  0  0  0  0
 13 11  1  0  0  0  0
 15 16  1  0  0  0  0
 15 13  2  0  0  0  0
 16 18  2  0  0  0  0
 17 16  1  0  0  0  0
 18 10  1  0  0  0  0
 19 15  1  0  0  0  0
 19 20  1  0  0  0  0
 21 19  1  0  0  0  0
 22 19  1  0  0  0  0
 22 24  1  0  0  0  0
 23 22  1  0  0  0  0
 25 22  1  0  0  0  0
M  END
