49
q = -2.0, confidence = 0.952

 59 62  0  0  1  0  0  0  0  0999 V2000
   -5.7683    0.6870    2.5140 Cl  0  0  0  0  0  0  0  0  0  0  0  0
    3.4773    0.5357   -0.6104 C   0  0  0  0  0  0  0  0  0  0  0  0
    4.5829    0.4596   -0.5082 H   0  0  0  0  0  0  0  0  0  0  0  0
    3.2573    1.1842   -1.4828 H   0  0  0  0  0  0  0  0  0  0  0  0
    2.6918   -0.1478    1.6755 C   0  0  2  0  0  0  0  0  0  0  0  0
    2.8033    1.0285    0.6698 C   0  0  2  0  0  3  0  0  0  0  0  0
    2.1351    2.2343    0.8356 C   0  0  0  0  0  0  0  0  0  0  0  0
    2.2740    3.0316    0.0850 H   0  0  0  0  0  0  0  0  0  0  0  0
    1.1260    2.4002    1.8340 C   0  0  0  0  0  0  0  0  0  0  0  0
    0.6501    3.3780    1.9854 H   0  0  0  0  0  0  0  0  0  0  0  0
    0.8749    1.3090    2.7225 C   0  0  0  0  0  0  0  0  0  0  0  0
    0.0869    1.4242    3.4876 H   0  0  0  0  0  0  0  0  0  0  0  0
    1.5045    0.0778    2.5973 C   0  0  0  0  0  0  0  0  0  0  0  0
    1.2122   -0.7426    3.2723 H   0  0  0  0  0  0  0  0  0  0  0  0
    3.9959   -0.3259    2.3739 N   0  0  0  0  0  0  0  0  0  0  0  0
    4.3391    0.7842    3.2445 C   0  0  0  0  0  0  0  0  0  0  0  0
    4.2059    1.7413    2.7034 H   0  0  0  0  0  0  0  0  0  0  0  0
    5.4043    0.7035    3.5465 H   0  0  0  0  0  0  0  0  0  0  0  0
    3.7212    0.8332    4.1788 H   0  0  0  0  0  0  0  0  0  0  0  0
    4.1827   -1.6116    3.0149 C   0  0  0  0  0  0  0  0  0  0  0  0
    3.5334   -1.7755    3.9174 H   0  0  0  0  0  0  0  0  0  0  0  0
    5.2348   -1.7094    3.3557 H   0  0  0  0  0  0  0  0  0  0  0  0
    3.9846   -2.4292    2.2937 H   0  0  0  0  0  0  0  0  0  0  0  0
    1.7436   -2.7854   -0.8204 N   0  0  0  0  0  0  0  0  0  0  0  0
    2.3766   -1.7901   -1.5698 C   0  0  0  0  0  0  0  0  0  0  0  0
    2.8344   -0.8361   -0.6592 C   0  0  0  0  0  0  0  0  0  0  0  0
    2.4609   -1.2645    0.6572 C   0  0  0  0  0  0  0  0  0  0  0  0
    1.7786   -2.4756    0.5432 C   0  0  0  0  0  0  0  0  0  0  0  0
    2.5135   -1.8637   -3.0533 C   0  0  0  0  0  0  0  0  0  0  0  0
    3.1225   -2.7380   -3.3700 H   0  0  0  0  0  0  0  0  0  0  0  0
    3.0203   -0.9526   -3.4215 H   0  0  0  0  0  0  0  0  0  0  0  0
    1.5354   -1.9359   -3.5714 H   0  0  0  0  0  0  0  0  0  0  0  0
    1.1478   -3.3562    1.5701 C   0  0  0  0  0  0  0  0  0  0  0  0
    1.5329   -4.3969    1.5177 H   0  0  0  0  0  0  0  0  0  0  0  0
    0.0441   -3.3929    1.4514 H   0  0  0  0  0  0  0  0  0  0  0  0
    1.3719   -2.9730    2.5818 H   0  0  0  0  0  0  0  0  0  0  0  0
    0.8047   -3.7544   -1.3750 C   0  0  0  0  0  0  0  0  0  0  0  0
    0.8181   -4.6642   -0.7409 H   0  0  0  0  0  0  0  0  0  0  0  0
    1.1600   -4.0732   -2.3752 H   0  0  0  0  0  0  0  0  0  0  0  0
   -1.0279   -3.0913   -1.4778 Si  0  0  0  0  0  0  0  0  0  0  0  0
   -1.3866   -2.6284   -3.2805 C   0  0  0  0  0  0  0  0  0  0  0  0
   -2.4448   -2.3188   -3.4057 H   0  0  0  0  0  0  0  0  0  0  0  0
   -1.2045   -3.4875   -3.9598 H   0  0  0  0  0  0  0  0  0  0  0  0
   -0.7534   -1.7814   -3.6109 H   0  0  0  0  0  0  0  0  0  0  0  0
   -2.1446   -4.5359   -0.9740 C   0  0  0  0  0  0  0  0  0  0  0  0
   -1.9298   -4.8501    0.0679 H   0  0  0  0  0  0  0  0  0  0  0  0
   -1.9864   -5.4113   -1.6379 H   0  0  0  0  0  0  0  0  0  0  0  0
   -3.2180   -4.2637   -1.0265 H   0  0  0  0  0  0  0  0  0  0  0  0
   -1.1226   -1.7665   -0.3496 N   0  0  0  0  0  2  0  0  0  0  0  0
   -2.2407   -1.3173    0.3082 C   0  0  0  0  0  0  0  0  0  0  0  0
   -2.0926   -0.7241    1.6084 C   0  0  0  0  0  0  0  0  0  0  0  0
   -1.1247   -0.8339    2.1310 H   0  0  0  0  0  0  0  0  0  0  0  0
   -3.1622   -0.1175    2.2889 C   0  0  0  0  0  0  0  0  0  0  0  0
   -3.0102    0.3259    3.2839 H   0  0  0  0  0  0  0  0  0  0  0  0
   -4.4323   -0.0996    1.7024 C   0  0  0  0  0  0  0  0  0  0  0  0
   -4.6359   -0.7099    0.4460 C   0  0  0  0  0  0  0  0  0  0  0  0
   -5.6424   -0.7003    0.0023 H   0  0  0  0  0  0  0  0  0  0  0  0
   -3.5695   -1.2971   -0.2340 C   0  0  0  0  0  0  0  0  0  0  0  0
   -3.7428   -1.7403   -1.2265 H   0  0  0  0  0  0  0  0  0  0  0  0
  2  3  1  0  0  0  0
  2  6  1  0  0  0  0
  4  2  1  0  0  0  0
  5 15  1  1  0  0  0
  5 13  1  0  0  0  0
  6  7  1  6  0  0  0
  6  5  1  0  0  0  0
  7  9  2  0  0  0  0
  8  7  1  0  0  0  0
  9 10  1  0  0  0  0
  9 11  1  0  0  0  0
 11 12  1  0  0  0  0
 13 11  2  0  0  0  0
 13 14  1  0  0  0  0
 15 20  1  0  0  0  0
 15 16  1  0  0  0  0
 16 18  1  0  0  0  0
 16 19  1  0  0  0  0
 17 16  1  0  0  0  0
 20 22  1  0  0  0  0
 20 21  1  0  0  0  0
 23 20  1  0  0  0  0
 24 28  1  0  0  0  0
 25 24  1  0  0  0  0
 25 26  2  0  0  0  0
 26  2  1  0  0  0  0
 26 27  1  0  0  0  0
 27  5  1  0  0  0  0
 28 27  2  0  0  0  0
 28 33  1  0  0  0  0
 29 25  1  0  0  0  0
 30 29  1  0  0  0  0
 31 29  1  0  0  0  0
 32 29  1  0  0  0  0
 33 36  1  0  0  0  0
 34 33  1  0  0  0  0
 35 33  1  0  0  0  0
 37 24  1  0  0  0  0
 37 38  1  0  0  0  0
 39 37  1  0  0  0  0
 40 37  1  0  0  0  0
 40 45  1  0  0  0  0
 40 49  1  0  0  0  0
 41 40  1  0  0  0  0
 42 41  1  0  0  0  0
 43 41  1  0  0  0  0
 44 41  1  0  0  0  0
 45 46  1  0  0  0  0
 47 45  1  0  0  0  0
 48 45  1  0  0  0  0
 49 50  1  0  0  0  0
 50 51  1  0  0  0  0
 51 52  1  0  0  0  0
 51 53  2  0  0  0  0
 53 54  1  0  0  0  0
 55 53  1  0  0  0  0
 55  1  1  0  0  0  0
 56 55  2  0  0  0  0
 57 56  1  0  0  0  0
 58 50  2  0  0  0  0
 58 56  1  0  0  0  0
 59 58  1  0  0  0  0
M  END
