4,29
q = -1.0, confidence = 0.0

 43 43  0  0  1  0  0  0  0  0999 V2000
   -0.5066    1.7256   -0.1513 C   0  0  0  0  0  0  0  0  0  0  0  0
   -1.4950    1.6600   -1.1908 C   0  0  0  0  0  0  0  0  0  0  0  0
   -1.2976    1.5908   -2.2631 H   0  0  0  0  0  0  0  0  0  0  0  0
   -2.7841    1.6095   -0.6016 C   0  0  0  0  0  3  0  0  0  0  0  0
   -3.7300    1.4747   -1.1368 H   0  0  0  0  0  0  0  0  0  0  0  0
   -2.6182    1.6551    0.8124 C   0  0  0  0  0  0  0  0  0  0  0  0
   -3.4144    1.5578    1.5591 H   0  0  0  0  0  0  0  0  0  0  0  0
   -1.2286    1.7423    1.0889 C   0  0  0  0  0  0  0  0  0  0  0  0
   -0.8022    1.7709    2.0934 H   0  0  0  0  0  0  0  0  0  0  0  0
    0.9853    1.9305   -0.3913 C   0  0  0  0  0  0  0  0  0  0  0  0
    1.2782    1.6951   -1.8911 C   0  0  0  0  0  0  0  0  0  0  0  0
    0.9186    0.7027   -2.2262 H   0  0  0  0  0  0  0  0  0  0  0  0
    2.3593    1.7720   -2.1094 H   0  0  0  0  0  0  0  0  0  0  0  0
    0.7736    2.4628   -2.5089 H   0  0  0  0  0  0  0  0  0  0  0  0
    1.2404    3.4260   -0.0739 C   0  0  0  0  0  0  0  0  0  0  0  0
    0.4879    4.0436   -0.6020 H   0  0  0  0  0  0  0  0  0  0  0  0
    2.2403    3.7575   -0.4132 H   0  0  0  0  0  0  0  0  0  0  0  0
    1.1436    3.6452    1.0077 H   0  0  0  0  0  0  0  0  0  0  0  0
    1.9470    0.9868    0.4789 C   0  0  0  0  0  0  0  0  0  0  0  0
    3.3930    1.5116    0.3387 C   0  0  0  0  0  0  0  0  0  0  0  0
    4.1239    0.8295    0.8047 H   0  0  0  0  0  0  0  0  0  0  0  0
    3.4795    2.4725    0.8797 H   0  0  0  0  0  0  0  0  0  0  0  0
    3.7092    1.6883   -0.7049 H   0  0  0  0  0  0  0  0  0  0  0  0
    1.6466    1.0061    2.0041 C   0  0  0  0  0  0  0  0  0  0  0  0
    0.7384    0.4345    2.2660 H   0  0  0  0  0  0  0  0  0  0  0  0
    1.5556    2.0473    2.3719 H   0  0  0  0  0  0  0  0  0  0  0  0
    2.4905    0.5431    2.5515 H   0  0  0  0  0  0  0  0  0  0  0  0
    1.7061   -0.4789    0.0483 C   0  0  2  0  0  3  0  0  0  0  0  0
    0.4787   -0.8542   -0.0724 N   0  0  0  0  0  2  0  0  0  0  0  0
    0.3978   -1.8489   -0.3240 H   0  0  0  0  0  0  0  0  0  0  0  0
    2.8133   -1.5517   -0.1414 C   0  0  0  0  0  0  0  0  0  0  0  0
    3.7782   -1.1615   -1.2853 C   0  0  0  0  0  0  0  0  0  0  0  0
    4.4667   -2.0074   -1.4844 H   0  0  0  0  0  0  0  0  0  0  0  0
    4.3980   -0.2801   -1.0523 H   0  0  0  0  0  0  0  0  0  0  0  0
    3.2195   -0.9560   -2.2204 H   0  0  0  0  0  0  0  0  0  0  0  0
    2.1815   -2.9081   -0.5286 C   0  0  0  0  0  0  0  0  0  0  0  0
    1.5182   -3.3036    0.2685 H   0  0  0  0  0  0  0  0  0  0  0  0
    2.9852   -3.6540   -0.6796 H   0  0  0  0  0  0  0  0  0  0  0  0
    1.6044   -2.8468   -1.4744 H   0  0  0  0  0  0  0  0  0  0  0  0
    3.5725   -1.7743    1.1888 C   0  0  0  0  0  0  0  0  0  0  0  0
    2.8708   -2.0626    1.9969 H   0  0  0  0  0  0  0  0  0  0  0  0
    4.1381   -0.8871    1.5270 H   0  0  0  0  0  0  0  0  0  0  0  0
    4.3018   -2.5996    1.0599 H   0  0  0  0  0  0  0  0  0  0  0  0
  1  8  1  0  0  0  0
  2  4  1  0  0  0  0
  2  1  2  0  0  0  0
  3  2  1  0  0  0  0
  4  6  1  0  0  0  0
  5  4  1  0  0  0  0
  6  8  2  0  0  0  0
  6  7  1  0  0  0  0
  8  9  1  0  0  0  0
 10  1  1  0  0  0  0
 10 15  1  0  0  0  0
 10 19  1  0  0  0  0
 11 10  1  0  0  0  0
 12 11  1  0  0  0  0
 13 11  1  0  0  0  0
 14 11  1  0  0  0  0
 15 18  1  0  0  0  0
 16 15  1  0  0  0  0
 17 15  1  0  0  0  0
 19 24  1  0  0  0  0
 20 19  1  0  0  0  0
 20 21  1  0  0  0  0
 20 22  1  0  0  0  0
 23 20  1  0  0  0  0
 24 25  1  0  0  0  0
 24 26  1  0  0  0  0
 24 27  1  0  0  0  0
 28 29  1  1  0  0  0
 28 19  1  0  0  0  0
 30 29  1  0  0  0  0
 31 28  1  0  0  0  0
 31 40  1  0  0  0  0
 32 34  1  0  0  0  0
 32 31  1  0  0  0  0
 33 32  1  0  0  0  0
 35 32  1  0  0  0  0
 36 31  1  0  0  0  0
 36 37  1  0  0  0  0
 38 36  1  0  0  0  0
 39 36  1  0  0  0  0
 40 42  1  0  0  0  0
 40 41  1  0  0  0  0
 43 40  1  0  0  0  0
M  END
