6,29
q = -1.0

 41 42  0  0  1  0  0  0  0  0999 V2000
   -1.2798    1.6413    0.0265 C   0  0  0  0  0  0  0  0  0  0  0  0
   -1.9659    1.3250   -1.1939 C   0  0  0  0  0  0  0  0  0  0  0  0
   -1.5604    1.3870   -2.2060 H   0  0  0  0  0  0  0  0  0  0  0  0
   -3.2703    0.8625   -0.8810 C   0  0  0  0  0  0  0  0  0  0  0  0
   -3.9989    0.4682   -1.5983 H   0  0  0  0  0  0  0  0  0  0  0  0
   -3.4240    0.9033    0.5350 C   0  0  0  0  0  3  0  0  0  0  0  0
   -4.2920    0.5484    1.1009 H   0  0  0  0  0  0  0  0  0  0  0  0
   -2.2104    1.3853    1.0890 C   0  0  0  0  0  0  0  0  0  0  0  0
   -2.0083    1.4790    2.1586 H   0  0  0  0  0  0  0  0  0  0  0  0
    0.0822    2.3054    0.2059 C   0  0  0  0  0  0  0  0  0  0  0  0
   -0.0947    3.7600   -0.2958 C   0  0  0  0  0  0  0  0  0  0  0  0
   -0.2711    3.8059   -1.3881 H   0  0  0  0  0  0  0  0  0  0  0  0
    0.7862    4.3860   -0.0548 H   0  0  0  0  0  0  0  0  0  0  0  0
   -0.9749    4.2150    0.1990 H   0  0  0  0  0  0  0  0  0  0  0  0
    0.4142    2.3464    1.7146 C   0  0  0  0  0  0  0  0  0  0  0  0
   -0.3255    2.9661    2.2569 H   0  0  0  0  0  0  0  0  0  0  0  0
    1.4042    2.8036    1.8974 H   0  0  0  0  0  0  0  0  0  0  0  0
    0.4003    1.3336    2.1635 H   0  0  0  0  0  0  0  0  0  0  0  0
    1.2746    1.5819   -0.5652 C   0  0  0  0  0  0  0  0  0  0  0  0
    1.0359    1.3670   -2.0869 C   0  0  0  0  0  0  0  0  0  0  0  0
    1.9831    1.0354   -2.5570 H   0  0  0  0  0  0  0  0  0  0  0  0
    0.7416    2.3170   -2.5749 H   0  0  0  0  0  0  0  0  0  0  0  0
    0.2846    0.5846   -2.2944 H   0  0  0  0  0  0  0  0  0  0  0  0
    2.5688    2.4182   -0.4662 C   0  0  0  0  0  0  0  0  0  0  0  0
    2.8481    2.6962    0.5665 H   0  0  0  0  0  0  0  0  0  0  0  0
    2.4520    3.3523   -1.0470 H   0  0  0  0  0  0  0  0  0  0  0  0
    3.4203    1.8665   -0.9058 H   0  0  0  0  0  0  0  0  0  0  0  0
    1.4451    0.1601   -0.0201 C   0  0  1  0  0  3  0  0  0  0  0  0
    0.4111   -0.5814    0.2056 N   0  0  0  0  0  2  0  0  0  0  0  0
    0.6728   -1.5262    0.5276 H   0  0  0  0  0  0  0  0  0  0  0  0
    2.7872   -0.4862    0.0803 C   0  0  0  0  0  0  0  0  0  0  0  0
    3.7783   -0.0584    0.9884 C   0  0  0  0  0  0  0  0  0  0  0  0
    3.5821    0.7952    1.6526 H   0  0  0  0  0  0  0  0  0  0  0  0
    4.9976   -0.7441    1.0710 C   0  0  0  0  0  0  0  0  0  0  0  0
    5.7587   -0.4157    1.7947 H   0  0  0  0  0  0  0  0  0  0  0  0
    5.2478   -1.8477    0.2388 C   0  0  0  0  0  0  0  0  0  0  0  0
    6.2104   -2.3773    0.3017 H   0  0  0  0  0  0  0  0  0  0  0  0
    4.2656   -2.2790   -0.6662 C   0  0  0  0  0  0  0  0  0  0  0  0
    4.4543   -3.1458   -1.3173 H   0  0  0  0  0  0  0  0  0  0  0  0
    3.0356   -1.6100   -0.7395 C   0  0  0  0  0  0  0  0  0  0  0  0
    2.2522   -1.9458   -1.4378 H   0  0  0  0  0  0  0  0  0  0  0  0
  1 10  1  0  0  0  0
  1  8  2  0  0  0  0
  2  4  2  0  0  0  0
  2  1  1  0  0  0  0
  3  2  1  0  0  0  0
  4  6  1  0  0  0  0
  5  4  1  0  0  0  0
  6  8  1  0  0  0  0
  6  7  1  0  0  0  0
  8  9  1  0  0  0  0
 10 15  1  0  0  0  0
 11 13  1  0  0  0  0
 11 14  1  0  0  0  0
 11 10  1  0  0  0  0
 12 11  1  0  0  0  0
 15 17  1  0  0  0  0
 15 18  1  0  0  0  0
 15 16  1  0  0  0  0
 19 24  1  0  0  0  0
 19 28  1  0  0  0  0
 19 10  1  0  0  0  0
 20 19  1  0  0  0  0
 21 20  1  0  0  0  0
 22 20  1  0  0  0  0
 23 20  1  0  0  0  0
 24 25  1  0  0  0  0
 26 24  1  0  0  0  0
 27 24  1  0  0  0  0
 28 31  1  0  0  0  0
 28 29  1  6  0  0  0
 29 30  1  0  0  0  0
 31 32  1  0  0  0  0
 32 34  2  0  0  0  0
 32 33  1  0  0  0  0
 34 35  1  0  0  0  0
 36 37  1  0  0  0  0
 36 34  1  0  0  0  0
 38 36  2  0  0  0  0
 39 38  1  0  0  0  0
 40 38  1  0  0  0  0
 40 31  2  0  0  0  0
 41 40  1  0  0  0  0
M  END
