2,27
q = -2.0, confidence = 0.856

 39 39  0  0  1  0  0  0  0  0999 V2000
   -0.3058   -2.2935   -1.1090 C   0  0  0  0  0  0  0  0  0  0  0  0
    0.9089   -2.6379   -0.4373 C   0  0  0  0  0  3  0  0  0  0  0  0
    0.9789   -3.1690    0.5205 H   0  0  0  0  0  0  0  0  0  0  0  0
    2.0121   -2.2580   -1.2743 C   0  0  0  0  0  0  0  0  0  0  0  0
    3.0733   -2.4215   -1.0565 H   0  0  0  0  0  0  0  0  0  0  0  0
    1.4853   -1.6422   -2.4355 C   0  0  0  0  0  0  0  0  0  0  0  0
    2.0634   -1.1984   -3.2532 H   0  0  0  0  0  0  0  0  0  0  0  0
    0.0605   -1.6453   -2.3263 C   0  0  0  0  0  0  0  0  0  0  0  0
   -0.6408   -1.2193   -3.0545 H   0  0  0  0  0  0  0  0  0  0  0  0
   -1.7070   -2.6288   -0.6704 C   0  0  0  0  0  0  0  0  0  0  0  0
   -1.8205   -3.7313   -0.7536 H   0  0  0  0  0  0  0  0  0  0  0  0
   -2.4094   -2.2083   -1.4188 H   0  0  0  0  0  0  0  0  0  0  0  0
   -2.1156   -2.1825    0.7517 C   0  0  0  0  0  0  0  0  0  0  0  0
   -1.2055   -2.0049    1.3561 H   0  0  0  0  0  0  0  0  0  0  0  0
   -2.6683   -3.0013    1.2578 H   0  0  0  0  0  0  0  0  0  0  0  0
   -3.0248   -0.9250    0.8177 C   0  0  0  0  0  0  0  0  0  0  0  0
   -4.3998   -1.3120    0.2321 C   0  0  0  0  0  0  0  0  0  0  0  0
   -4.8212   -2.1452    0.8318 H   0  0  0  0  0  0  0  0  0  0  0  0
   -4.3297   -1.6624   -0.8155 H   0  0  0  0  0  0  0  0  0  0  0  0
   -5.1332   -0.4867    0.2629 H   0  0  0  0  0  0  0  0  0  0  0  0
   -3.2189   -0.5587    2.3064 C   0  0  0  0  0  0  0  0  0  0  0  0
   -3.6432   -1.4249    2.8560 H   0  0  0  0  0  0  0  0  0  0  0  0
   -3.9057    0.2973    2.4431 H   0  0  0  0  0  0  0  0  0  0  0  0
   -2.2514   -0.3011    2.7800 H   0  0  0  0  0  0  0  0  0  0  0  0
   -2.2965    0.2605    0.0927 C   0  0  2  0  0  3  0  0  0  0  0  0
   -3.0546    1.4795   -0.5281 C   0  0  0  0  0  0  0  0  0  0  0  0
   -1.0297    0.2254   -0.0097 N   0  0  0  0  0  1  0  0  0  0  0  0
   -3.6803    1.0443   -1.8751 C   0  0  0  0  0  0  0  0  0  0  0  0
   -4.0941    1.9332   -2.3950 H   0  0  0  0  0  0  0  0  0  0  0  0
   -4.5011    0.3138   -1.7599 H   0  0  0  0  0  0  0  0  0  0  0  0
   -2.9060    0.6021   -2.5345 H   0  0  0  0  0  0  0  0  0  0  0  0
   -4.1317    2.0656    0.4087 C   0  0  0  0  0  0  0  0  0  0  0  0
   -3.6830    2.4160    1.3603 H   0  0  0  0  0  0  0  0  0  0  0  0
   -4.9460    1.3581    0.6520 H   0  0  0  0  0  0  0  0  0  0  0  0
   -4.5994    2.9455   -0.0793 H   0  0  0  0  0  0  0  0  0  0  0  0
   -2.0452    2.6041   -0.8307 C   0  0  0  0  0  0  0  0  0  0  0  0
   -1.2509    2.2785   -1.5278 H   0  0  0  0  0  0  0  0  0  0  0  0
   -1.5459    2.9494    0.0954 H   0  0  0  0  0  0  0  0  0  0  0  0
   -2.5800    3.4675   -1.2766 H   0  0  0  0  0  0  0  0  0  0  0  0
  1 10  1  0  0  0  0
  1  2  1  0  0  0  0
  2  3  1  0  0  0  0
  4  5  1  0  0  0  0
  4  2  1  0  0  0  0
  6  8  1  0  0  0  0
  6  4  2  0  0  0  0
  7  6  1  0  0  0  0
  8  1  2  0  0  0  0
  9  8  1  0  0  0  0
 10 13  1  0  0  0  0
 11 10  1  0  0  0  0
 12 10  1  0  0  0  0
 13 16  1  0  0  0  0
 13 15  1  0  0  0  0
 13 14  1  0  0  0  0
 16 21  1  0  0  0  0
 17 20  1  0  0  0  0
 17 16  1  0  0  0  0
 17 18  1  0  0  0  0
 19 17  1  0  0  0  0
 21 23  1  0  0  0  0
 21 24  1  0  0  0  0
 21 22  1  0  0  0  0
 25 27  1  6  0  0  0
 25 16  1  0  0  0  0
 26 25  1  0  0  0  0
 26 32  1  0  0  0  0
 28 30  1  0  0  0  0
 28 26  1  0  0  0  0
 29 28  1  0  0  0  0
 31 28  1  0  0  0  0
 32 34  1  0  0  0  0
 32 33  1  0  0  0  0
 35 32  1  0  0  0  0
 36 26  1  0  0  0  0
 36 38  1  0  0  0  0
 37 36  1  0  0  0  0
 39 36  1  0  0  0  0
M  END
