1,2
q = -1.0

 19 19  0  0  0  0  0  0  0  0999 V2000
   -2.2373   -2.7008    0.4701 N   0  0  0  0  0  0  0  0  0  0  0  0
   -2.3144    0.0781    0.4081 C   0  0  0  0  0  3  0  0  0  0  0  0
   -3.3950   -0.2085   -0.4647 C   0  0  0  0  0  0  0  0  0  0  0  0
   -4.5684    0.5701   -0.3973 C   0  0  0  0  0  0  0  0  0  0  0  0
   -4.6895    1.6098    0.5380 C   0  0  0  0  0  0  0  0  0  0  0  0
   -3.6362    1.8659    1.4292 C   0  0  0  0  0  0  0  0  0  0  0  0
   -2.4559    1.1061    1.3601 C   0  0  0  0  0  0  0  0  0  0  0  0
   -3.2768   -1.3848   -1.4078 C   0  0  0  0  0  0  0  0  0  0  0  0
   -3.2092   -2.7281   -0.6529 C   0  0  0  0  0  0  0  0  0  0  0  0
   -1.6620   -3.5567    0.5277 H   0  0  0  0  0  0  0  0  0  0  0  0
   -2.7111   -2.5752    1.3731 H   0  0  0  0  0  0  0  0  0  0  0  0
   -5.3983    0.3557   -1.0912 H   0  0  0  0  0  0  0  0  0  0  0  0
   -5.6089    2.2139    0.5746 H   0  0  0  0  0  0  0  0  0  0  0  0
   -3.7243    2.6703    2.1761 H   0  0  0  0  0  0  0  0  0  0  0  0
   -1.6290    1.3389    2.0485 H   0  0  0  0  0  0  0  0  0  0  0  0
   -2.3486   -1.2819   -2.0116 H   0  0  0  0  0  0  0  0  0  0  0  0
   -4.1324   -1.4207   -2.1136 H   0  0  0  0  0  0  0  0  0  0  0  0
   -4.2171   -2.9911   -0.2683 H   0  0  0  0  0  0  0  0  0  0  0  0
   -2.8995   -3.5305   -1.3516 H   0  0  0  0  0  0  0  0  0  0  0  0
  1 10  1  0  0  0  0
  1 11  1  0  0  0  0
  2  7  1  0  0  0  0
  3  4  1  0  0  0  0
  3  2  2  0  0  0  0
  4  5  2  0  0  0  0
  5 13  1  0  0  0  0
  5  6  1  0  0  0  0
  6 14  1  0  0  0  0
  7  6  2  0  0  0  0
  7 15  1  0  0  0  0
  8  9  1  0  0  0  0
  8  3  1  0  0  0  0
  9 18  1  0  0  0  0
  9  1  1  0  0  0  0
 12  4  1  0  0  0  0
 16  8  1  0  0  0  0
 17  8  1  0  0  0  0
 19  9  1  0  0  0  0
M  END
