2,3
q = -2.0, confidence = 0.938

 51 52  0  0  1  0  0  0  0  0999 V2000
    1.2050    2.5636    0.1902 Si  0  0  0  0  0  0  0  0  0  0  0  0
    1.3538    0.8187   -0.0024 N   0  0  0  0  0  2  0  0  0  0  0  0
   -0.6865    2.5513    0.1703 C   0  0  2  0  0  3  0  0  0  0  0  0
   -1.4595    1.9997    1.2635 C   0  0  0  0  0  0  0  0  0  0  0  0
   -2.6470    1.4054    0.7320 C   0  0  0  0  0  0  0  0  0  0  0  0
   -2.6315    1.5895   -0.6952 C   0  0  0  0  0  0  0  0  0  0  0  0
   -1.4399    2.2971   -1.0350 C   0  0  0  0  0  0  0  0  0  0  0  0
   -1.0910    2.0424    2.7242 C   0  0  0  0  0  0  0  0  0  0  0  0
   -1.9062    1.6428    3.3580 H   0  0  0  0  0  0  0  0  0  0  0  0
   -0.8948    3.0827    3.0538 H   0  0  0  0  0  0  0  0  0  0  0  0
   -0.1752    1.4603    2.9620 H   0  0  0  0  0  0  0  0  0  0  0  0
   -3.7962    0.8099    1.4951 C   0  0  0  0  0  0  0  0  0  0  0  0
   -3.5282    0.5783    2.5450 H   0  0  0  0  0  0  0  0  0  0  0  0
   -4.1587   -0.1306    1.0335 H   0  0  0  0  0  0  0  0  0  0  0  0
   -4.6582    1.5113    1.5298 H   0  0  0  0  0  0  0  0  0  0  0  0
   -3.7525    1.2179   -1.6201 C   0  0  0  0  0  0  0  0  0  0  0  0
   -4.4879    2.0477   -1.7092 H   0  0  0  0  0  0  0  0  0  0  0  0
   -4.3017    0.3278   -1.2587 H   0  0  0  0  0  0  0  0  0  0  0  0
   -3.3913    0.9854   -2.6408 H   0  0  0  0  0  0  0  0  0  0  0  0
   -1.0296    2.6521   -2.4398 C   0  0  0  0  0  0  0  0  0  0  0  0
   -0.1727    2.0445   -2.8005 H   0  0  0  0  0  0  0  0  0  0  0  0
   -0.7253    3.7153   -2.5109 H   0  0  0  0  0  0  0  0  0  0  0  0
   -1.8624    2.4917   -3.1506 H   0  0  0  0  0  0  0  0  0  0  0  0
    1.9632    3.2744    1.7772 C   0  0  0  0  0  0  0  0  0  0  0  0
    1.6360    2.7653    2.7015 H   0  0  0  0  0  0  0  0  0  0  0  0
    1.7005    4.3499    1.8638 H   0  0  0  0  0  0  0  0  0  0  0  0
    3.0697    3.2047    1.7201 H   0  0  0  0  0  0  0  0  0  0  0  0
    2.0149    3.5639   -1.2003 C   0  0  0  0  0  0  0  0  0  0  0  0
    3.1154    3.4251   -1.1507 H   0  0  0  0  0  0  0  0  0  0  0  0
    1.8073    4.6465   -1.0678 H   0  0  0  0  0  0  0  0  0  0  0  0
    1.6788    3.2682   -2.2104 H   0  0  0  0  0  0  0  0  0  0  0  0
    2.4678   -0.0290   -0.1124 C   0  0  0  0  0  0  0  0  0  0  0  0
    2.9429   -0.4411   -1.3990 C   0  0  0  0  0  0  0  0  0  0  0  0
    3.9870   -1.3756   -1.4887 C   0  0  0  0  0  0  0  0  0  0  0  0
    4.3288   -1.6854   -2.4908 H   0  0  0  0  0  0  0  0  0  0  0  0
    4.6115   -1.9244   -0.3519 C   0  0  0  0  0  0  0  0  0  0  0  0
    4.1614   -1.4868    0.9038 C   0  0  0  0  0  0  0  0  0  0  0  0
    4.6398   -1.8866    1.8141 H   0  0  0  0  0  0  0  0  0  0  0  0
    3.1168   -0.5530    1.0470 C   0  0  0  0  0  0  0  0  0  0  0  0
    2.3460    0.1443   -2.6525 C   0  0  0  0  0  0  0  0  0  0  0  0
    2.7197   -0.3762   -3.5553 H   0  0  0  0  0  0  0  0  0  0  0  0
    2.6011    1.2200   -2.7500 H   0  0  0  0  0  0  0  0  0  0  0  0
    1.2389    0.0899   -2.6454 H   0  0  0  0  0  0  0  0  0  0  0  0
    5.7258   -2.9324   -0.4892 C   0  0  0  0  0  0  0  0  0  0  0  0
    5.4006   -3.8263   -1.0623 H   0  0  0  0  0  0  0  0  0  0  0  0
    6.0860   -3.2790    0.4993 H   0  0  0  0  0  0  0  0  0  0  0  0
    6.5961   -2.5067   -1.0326 H   0  0  0  0  0  0  0  0  0  0  0  0
    2.7073   -0.1041    2.4263 C   0  0  0  0  0  0  0  0  0  0  0  0
    2.8863   -0.8928    3.1842 H   0  0  0  0  0  0  0  0  0  0  0  0
    1.6407    0.1920    2.4474 H   0  0  0  0  0  0  0  0  0  0  0  0
    3.2782    0.7932    2.7475 H   0  0  0  0  0  0  0  0  0  0  0  0
  1 24  1  0  0  0  0
  2  1  1  0  0  0  0
  3  1  1  6  0  0  0
  3  4  1  0  0  0  0
  4  8  1  0  0  0  0
  5  4  2  0  0  0  0
  5 12  1  0  0  0  0
  6  5  1  0  0  0  0
  7  6  2  0  0  0  0
  7  3  1  0  0  0  0
  8 11  1  0  0  0  0
  8 10  1  0  0  0  0
  8  9  1  0  0  0  0
 12 15  1  0  0  0  0
 12 13  1  0  0  0  0
 14 12  1  0  0  0  0
 16 18  1  0  0  0  0
 16  6  1  0  0  0  0
 17 16  1  0  0  0  0
 19 16  1  0  0  0  0
 20  7  1  0  0  0  0
 21 20  1  0  0  0  0
 22 20  1  0  0  0  0
 23 20  1  0  0  0  0
 24 26  1  0  0  0  0
 24 25  1  0  0  0  0
 27 24  1  0  0  0  0
 28 29  1  0  0  0  0
 28 30  1  0  0  0  0
 28  1  1  0  0  0  0
 31 28  1  0  0  0  0
 32  2  1  0  0  0  0
 32 39  1  0  0  0  0
 33 32  2  0  0  0  0
 34 33  1  0  0  0  0
 34 36  2  0  0  0  0
 35 34  1  0  0  0  0
 36 37  1  0  0  0  0
 37 39  2  0  0  0  0
 37 38  1  0  0  0  0
 39 48  1  0  0  0  0
 40 43  1  0  0  0  0
 40 33  1  0  0  0  0
 41 40  1  0  0  0  0
 42 40  1  0  0  0  0
 44 36  1  0  0  0  0
 44 46  1  0  0  0  0
 45 44  1  0  0  0  0
 47 44  1  0  0  0  0
 48 50  1  0  0  0  0
 48 51  1  0  0  0  0
 48 49  1  0  0  0  0
M  END
